QFF.pdb
 OpenBabel07022418333D

 59 60  0  0  1  0  0  0  0  0999 V2000
    2.6110   -0.3190    4.7270 N   0  0  0  0  0  0  0  0  0  0  0  0
    2.5740    0.8250    3.8740 C   0  0  0  0  0  0  0  0  0  0  0  0
    1.4190    1.1980    3.4820 O   0  0  0  0  0  0  0  0  0  0  0  0
    3.7960    1.5460    3.4680 C   0  0  0  0  0  0  0  0  0  0  0  0
    3.7320    2.2540    2.1730 C   0  0  0  0  0  0  0  0  0  0  0  0
    3.6030    1.4270    0.9300 C   0  0  2  0  0  0  0  0  0  0  0  0
    3.5300    2.4270   -0.1700 N   0  0  0  0  0  0  0  0  0  0  0  0
    2.4990    0.4930    0.8840 C   0  0  0  0  0  0  0  0  0  0  0  0
    2.6070   -0.6100    1.5240 O   0  0  0  0  0  0  0  0  0  0  0  0
    2.8920   -1.2260    4.2880 H   0  0  0  0  0  0  0  0  0  0  0  0
    2.3740   -0.2790    5.7430 H   0  0  0  0  0  0  0  0  0  0  0  0
    4.6420    0.8230    3.5470 H   0  0  0  0  0  0  0  0  0  0  0  0
    3.9660    2.3140    4.2840 H   0  0  0  0  0  0  0  0  0  0  0  0
    4.5630    3.0130    2.0730 H   0  0  0  0  0  0  0  0  0  0  0  0
    2.8150    2.9290    2.2240 H   0  0  0  0  0  0  0  0  0  0  0  0
    4.6000    0.9420    0.7360 H   0  0  0  0  0  0  0  0  0  0  0  0
    4.2940    3.1090    0.0330 H   0  0  0  0  0  0  0  0  0  0  0  0
    3.7200    1.9660   -1.0840 H   0  0  0  0  0  0  0  0  0  0  0  0
    1.2790    0.6800    0.1820 N   0  0  0  0  0  0  0  0  0  0  0  0
    0.1820   -0.2290    0.1260 C   0  0  1  0  0  0  0  0  0  0  0  0
   -1.1760    0.3630    0.3500 C   0  0  0  0  0  0  0  0  0  0  0  0
   -1.3550    1.0240    1.6560 C   0  0  0  0  0  0  0  0  0  0  0  0
   -1.0910    2.3870    1.8230 C   0  0  0  0  0  0  0  0  0  0  0  0
   -1.2580    3.0030    3.0480 C   0  0  0  0  0  0  0  0  0  0  0  0
   -1.6930    2.2400    4.1160 C   0  0  0  0  0  0  0  0  0  0  0  0
   -1.9670    0.8800    3.9950 C   0  0  0  0  0  0  0  0  0  0  0  0
   -1.7850    0.3170    2.7520 C   0  0  0  0  0  0  0  0  0  0  0  0
    0.2120   -0.8330   -1.2610 C   0  0  0  0  0  0  0  0  0  0  0  0
    1.0720   -0.5340   -2.1110 O   0  0  0  0  0  0  0  0  0  0  0  0
    1.1900    1.5870   -0.3440 H   0  0  0  0  0  0  0  0  0  0  0  0
    0.3700   -1.0980    0.7860 H   0  0  0  0  0  0  0  0  0  0  0  0
   -1.8890   -0.5170    0.3540 H   0  0  0  0  0  0  0  0  0  0  0  0
   -1.5270    0.9830   -0.5000 H   0  0  0  0  0  0  0  0  0  0  0  0
   -0.7520    2.9950    1.0020 H   0  0  0  0  0  0  0  0  0  0  0  0
   -1.0540    4.0650    3.1820 H   0  0  0  0  0  0  0  0  0  0  0  0
   -1.8460    2.6640    5.1120 H   0  0  0  0  0  0  0  0  0  0  0  0
   -2.3090    0.3050    4.8530 H   0  0  0  0  0  0  0  0  0  0  0  0
   -1.9850   -0.7330    2.6150 H   0  0  0  0  0  0  0  0  0  0  0  0
   -0.7740   -1.7840   -1.6370 N   0  0  0  0  0  0  0  0  0  0  0  0
   -0.8290   -2.4100   -2.9230 C   0  0  1  0  0  0  0  0  0  0  0  0
   -0.7550   -3.8830   -2.9290 C   0  0  0  0  0  0  0  0  0  0  0  0
   -1.7960   -4.6080   -2.2060 C   0  0  0  0  0  0  0  0  0  0  0  0
   -2.9510   -4.9940   -2.8700 C   0  0  0  0  0  0  0  0  0  0  0  0
   -3.9230   -5.6850   -2.1400 C   0  0  0  0  0  0  0  0  0  0  0  0
   -3.7660   -5.9870   -0.8030 C   0  0  0  0  0  0  0  0  0  0  0  0
   -2.5930   -5.5850   -0.1650 C   0  0  0  0  0  0  0  0  0  0  0  0
   -1.6190   -4.9020   -0.8590 C   0  0  0  0  0  0  0  0  0  0  0  0
   -2.0290   -1.9670   -3.6700 C   0  0  0  0  0  0  0  0  0  0  0  0
   -2.8220   -1.1640   -3.1360 O   0  0  0  0  0  0  0  0  0  0  0  0
   -2.3220   -2.4020   -4.9530 O   0  0  0  0  0  0  0  0  0  0  0  0
   -1.5010   -2.0440   -0.9340 H   0  0  0  0  0  0  0  0  0  0  0  0
    0.0440   -2.0350   -3.5270 H   0  0  0  0  0  0  0  0  0  0  0  0
    0.2690   -4.2760   -2.6440 H   0  0  0  0  0  0  0  0  0  0  0  0
   -0.8310   -4.2040   -4.0130 H   0  0  0  0  0  0  0  0  0  0  0  0
   -3.1370   -4.7910   -3.9190 H   0  0  0  0  0  0  0  0  0  0  0  0
   -4.8370   -5.9990   -2.6370 H   0  0  0  0  0  0  0  0  0  0  0  0
   -4.5100   -6.5190   -0.2360 H   0  0  0  0  0  0  0  0  0  0  0  0
   -2.4110   -5.7960    0.8960 H   0  0  0  0  0  0  0  0  0  0  0  0
   -0.6920   -4.5660   -0.4160 H   0  0  0  0  0  0  0  0  0  0  0  0
  1 11  1  0  0  0  0
  2  1  1  0  0  0  0
  3  2  2  0  0  0  0
  4 12  1  0  0  0  0
  4  2  1  0  0  0  0
  4 13  1  0  0  0  0
  5 15  1  0  0  0  0
  5  4  1  0  0  0  0
  6 16  1  6  0  0  0
  6  5  1  0  0  0  0
  7 17  1  0  0  0  0
  7  6  1  0  0  0  0
  8  6  1  0  0  0  0
  8  9  2  0  0  0  0
 10  1  1  0  0  0  0
 14  5  1  0  0  0  0
 18  7  1  0  0  0  0
 19  8  1  0  0  0  0
 20 19  1  0  0  0  0
 20 21  1  0  0  0  0
 20 31  1  1  0  0  0
 21 32  1  0  0  0  0
 21 22  1  0  0  0  0
 22 23  2  0  0  0  0
 22 27  1  0  0  0  0
 23 24  1  0  0  0  0
 24 35  1  0  0  0  0
 24 25  2  0  0  0  0
 25 36  1  0  0  0  0
 26 25  1  0  0  0  0
 26 37  1  0  0  0  0
 27 26  2  0  0  0  0
 28 20  1  0  0  0  0
 29 28  2  0  0  0  0
 30 19  1  0  0  0  0
 33 21  1  0  0  0  0
 34 23  1  0  0  0  0
 38 27  1  0  0  0  0
 39 28  1  0  0  0  0
 39 51  1  0  0  0  0
 40 52  1  6  0  0  0
 40 39  1  0  0  0  0
 41 40  1  0  0  0  0
 41 53  1  0  0  0  0
 41 42  1  0  0  0  0
 42 47  1  0  0  0  0
 43 42  2  0  0  0  0
 43 44  1  0  0  0  0
 44 45  2  0  0  0  0
 45 57  1  0  0  0  0
 45 46  1  0  0  0  0
 46 58  1  0  0  0  0
 47 59  1  0  0  0  0
 47 46  2  0  0  0  0
 48 49  1  0  0  0  0
 48 40  1  0  0  0  0
 50 48  2  0  0  0  0
 54 41  1  0  0  0  0
 55 43  1  0  0  0  0
 56 44  1  0  0  0  0
M  END
$$$$
