QFG.pdb
 OpenBabel07022418333D

 46 46  0  0  1  0  0  0  0  0999 V2000
    3.5350   -2.7820   -0.4830 N   0  0  0  0  0  0  0  0  0  0  0  0
    3.1140   -1.4290   -0.4600 C   0  0  0  0  0  0  0  0  0  0  0  0
    2.8500   -0.9070    0.6500 O   0  0  0  0  0  0  0  0  0  0  0  0
    3.0090   -0.6920   -1.7270 C   0  0  0  0  0  0  0  0  0  0  0  0
    2.0150    0.3850   -1.8210 C   0  0  0  0  0  0  0  0  0  0  0  0
    0.5880    0.0090   -1.7890 C   0  0  2  0  0  0  0  0  0  0  0  0
   -0.2600    1.2140   -1.8640 N   0  0  0  0  0  0  0  0  0  0  0  0
    0.1700   -0.7700   -0.6520 C   0  0  0  0  0  0  0  0  0  0  0  0
    0.4560   -1.9880   -0.5500 O   0  0  0  0  0  0  0  0  0  0  0  0
    2.8450   -3.5530   -0.5340 H   0  0  0  0  0  0  0  0  0  0  0  0
    4.5640   -2.9620   -0.4460 H   0  0  0  0  0  0  0  0  0  0  0  0
    2.9610   -1.4240   -2.5780 H   0  0  0  0  0  0  0  0  0  0  0  0
    4.0380   -0.2230   -1.8790 H   0  0  0  0  0  0  0  0  0  0  0  0
    2.1890    1.0880   -0.9610 H   0  0  0  0  0  0  0  0  0  0  0  0
    2.2780    0.9990   -2.7320 H   0  0  0  0  0  0  0  0  0  0  0  0
    0.3720   -0.5020   -2.7760 H   0  0  0  0  0  0  0  0  0  0  0  0
   -0.0210    1.9100   -1.1390 H   0  0  0  0  0  0  0  0  0  0  0  0
   -1.2350    0.8930   -1.6880 H   0  0  0  0  0  0  0  0  0  0  0  0
   -0.5940   -0.2160    0.4300 N   0  0  0  0  0  0  0  0  0  0  0  0
   -1.0090   -0.9780    1.5650 C   0  0  1  0  0  0  0  0  0  0  0  0
   -0.7430   -0.2890    2.8530 C   0  0  0  0  0  0  0  0  0  0  0  0
    0.6690   -0.0020    3.0580 C   0  0  0  0  0  0  0  0  0  0  0  0
    1.2600    1.1950    2.6380 C   0  0  0  0  0  0  0  0  0  0  0  0
    2.5960    1.4530    2.8560 C   0  0  0  0  0  0  0  0  0  0  0  0
    3.3730    0.5080    3.5040 C   0  0  0  0  0  0  0  0  0  0  0  0
    2.8290   -0.6940    3.9370 C   0  0  0  0  0  0  0  0  0  0  0  0
    1.4950   -0.9060    3.6980 C   0  0  0  0  0  0  0  0  0  0  0  0
   -2.4580   -1.3800    1.4500 C   0  0  0  0  0  0  0  0  0  0  0  0
   -3.0130   -2.0570    2.3500 O   0  0  0  0  0  0  0  0  0  0  0  0
   -0.8400    0.7940    0.3510 H   0  0  0  0  0  0  0  0  0  0  0  0
   -0.4550   -1.9440    1.5380 H   0  0  0  0  0  0  0  0  0  0  0  0
   -1.0940   -0.9930    3.6680 H   0  0  0  0  0  0  0  0  0  0  0  0
   -1.3140    0.6570    2.9780 H   0  0  0  0  0  0  0  0  0  0  0  0
    0.6410    1.9240    2.1330 H   0  0  0  0  0  0  0  0  0  0  0  0
    3.0010    2.3950    2.5100 H   0  0  0  0  0  0  0  0  0  0  0  0
    4.4100    0.6890    3.6820 H   0  0  0  0  0  0  0  0  0  0  0  0
    3.4810   -1.3960    4.4380 H   0  0  0  0  0  0  0  0  0  0  0  0
    1.0450   -1.8390    4.0280 H   0  0  0  0  0  0  0  0  0  0  0  0
   -3.2270   -1.0030    0.3190 N   0  0  0  0  0  0  0  0  0  0  0  0
   -4.6350   -1.3840    0.1910 C   0  0  0  0  0  0  0  0  0  0  0  0
   -5.3960   -0.8140    1.3380 C   0  0  0  0  0  0  0  0  0  0  0  0
   -6.6300   -0.9950    1.4650 O   0  0  0  0  0  0  0  0  0  0  0  0
   -4.7520   -0.0680    2.2910 O   0  0  0  0  0  0  0  0  0  0  0  0
   -2.7430   -0.4420   -0.4140 H   0  0  0  0  0  0  0  0  0  0  0  0
   -5.0170   -0.9180   -0.7240 H   0  0  0  0  0  0  0  0  0  0  0  0
   -4.7100   -2.5010    0.1590 H   0  0  0  0  0  0  0  0  0  0  0  0
  1  2  1  0  0  0  0
  1 11  1  0  0  0  0
  2  3  2  0  0  0  0
  4  2  1  0  0  0  0
  5  6  1  0  0  0  0
  5  4  1  0  0  0  0
  5 14  1  0  0  0  0
  6 16  1  6  0  0  0
  6  8  1  0  0  0  0
  7  6  1  0  0  0  0
  7 18  1  0  0  0  0
  7 17  1  0  0  0  0
  8  9  2  0  0  0  0
  8 19  1  0  0  0  0
 10  1  1  0  0  0  0
 12  4  1  0  0  0  0
 13  4  1  0  0  0  0
 15  5  1  0  0  0  0
 19 20  1  0  0  0  0
 20 31  1  1  0  0  0
 20 21  1  0  0  0  0
 21 33  1  0  0  0  0
 21 22  1  0  0  0  0
 21 32  1  0  0  0  0
 22 27  1  0  0  0  0
 23 24  1  0  0  0  0
 23 22  2  0  0  0  0
 24 25  2  0  0  0  0
 25 36  1  0  0  0  0
 25 26  1  0  0  0  0
 26 37  1  0  0  0  0
 27 26  2  0  0  0  0
 27 38  1  0  0  0  0
 28 20  1  0  0  0  0
 28 29  2  0  0  0  0
 30 19  1  0  0  0  0
 34 23  1  0  0  0  0
 35 24  1  0  0  0  0
 39 28  1  0  0  0  0
 40 39  1  0  0  0  0
 40 41  1  0  0  0  0
 41 42  2  0  0  0  0
 41 43  1  0  0  0  0
 44 39  1  0  0  0  0
 45 40  1  0  0  0  0
 46 40  1  0  0  0  0
M  END
$$$$
