QFI.pdb
 OpenBabel07022418333D

 58 58  0  0  1  0  0  0  0  0999 V2000
    2.6550   -4.0020    4.8910 N   0  0  0  0  0  0  0  0  0  0  0  0
    2.9370   -3.0380    3.8320 C   0  0  0  0  0  0  0  0  0  0  0  0
    1.9930   -2.7060    3.0820 O   0  0  0  0  0  0  0  0  0  0  0  0
    4.3010   -2.5180    3.7050 C   0  0  0  0  0  0  0  0  0  0  0  0
    4.4630   -1.3090    2.8690 C   0  0  0  0  0  0  0  0  0  0  0  0
    3.7630   -0.0750    3.2840 C   0  0  2  0  0  0  0  0  0  0  0  0
    4.0800    0.3770    4.6010 N   0  0  0  0  0  0  0  0  0  0  0  0
    2.3270    0.0430    2.9820 C   0  0  0  0  0  0  0  0  0  0  0  0
    1.4560    0.2030    3.8930 O   0  0  0  0  0  0  0  0  0  0  0  0
    3.1950   -4.8640    4.9590 H   0  0  0  0  0  0  0  0  0  0  0  0
    1.9100   -3.7730    5.5670 H   0  0  0  0  0  0  0  0  0  0  0  0
    4.6900   -2.3780    4.7510 H   0  0  0  0  0  0  0  0  0  0  0  0
    4.9250   -3.3430    3.2330 H   0  0  0  0  0  0  0  0  0  0  0  0
    5.5660   -1.1090    2.6790 H   0  0  0  0  0  0  0  0  0  0  0  0
    4.0930   -1.5660    1.8320 H   0  0  0  0  0  0  0  0  0  0  0  0
    4.2760    0.7610    2.6120 H   0  0  0  0  0  0  0  0  0  0  0  0
    3.4180    0.9330    5.1090 H   0  0  0  0  0  0  0  0  0  0  0  0
    4.8870   -0.0380    5.0280 H   0  0  0  0  0  0  0  0  0  0  0  0
    1.8350   -0.0000    1.6430 N   0  0  0  0  0  0  0  0  0  0  0  0
    0.3990    0.1640    1.3000 C   0  0  1  0  0  0  0  0  0  0  0  0
    0.2600    1.5780    0.9000 C   0  0  0  0  0  0  0  0  0  0  0  0
   -1.0470    2.0810    0.5060 C   0  0  0  0  0  0  0  0  0  0  0  0
   -1.3590    2.4110   -0.7770 C   0  0  0  0  0  0  0  0  0  0  0  0
   -2.6200    2.8500   -1.1720 C   0  0  0  0  0  0  0  0  0  0  0  0
   -3.6030    2.9530   -0.2050 C   0  0  0  0  0  0  0  0  0  0  0  0
   -3.3120    2.6260    1.0890 C   0  0  0  0  0  0  0  0  0  0  0  0
   -2.0460    2.1900    1.4670 C   0  0  0  0  0  0  0  0  0  0  0  0
   -0.0280   -0.9170    0.4420 C   0  0  0  0  0  0  0  0  0  0  0  0
    0.7100   -1.9500    0.4300 O   0  0  0  0  0  0  0  0  0  0  0  0
    2.5420   -0.1610    0.8950 H   0  0  0  0  0  0  0  0  0  0  0  0
   -0.1030    0.1020    2.3300 H   0  0  0  0  0  0  0  0  0  0  0  0
    0.5760    2.1960    1.7890 H   0  0  0  0  0  0  0  0  0  0  0  0
    1.0120    1.8270    0.0930 H   0  0  0  0  0  0  0  0  0  0  0  0
   -0.6210    2.3590   -1.5780 H   0  0  0  0  0  0  0  0  0  0  0  0
   -2.8790    3.1180   -2.1870 H   0  0  0  0  0  0  0  0  0  0  0  0
   -4.6020    3.2970   -0.5250 H   0  0  0  0  0  0  0  0  0  0  0  0
   -4.1180    2.7190    1.8230 H   0  0  0  0  0  0  0  0  0  0  0  0
   -1.8930    1.9470    2.5020 H   0  0  0  0  0  0  0  0  0  0  0  0
   -2.5230   -3.1570   -4.2050 C   0  0  0  0  0  0  0  0  0  0  0  0
   -3.2400   -2.9090   -2.9310 C   0  0  0  0  0  0  0  0  0  0  0  0
   -2.7400   -1.8520   -2.0300 C   0  0  2  0  0  0  0  0  0  0  0  0
   -2.6910   -0.4830   -2.7220 C   0  0  0  0  0  0  0  0  0  0  0  0
   -1.5210   -2.1550   -1.2090 C   0  0  2  0  0  0  0  0  0  0  0  0
   -1.1580   -0.9890   -0.3910 N   0  0  0  0  0  0  0  0  0  0  0  0
   -0.3230   -2.6580   -1.9740 C   0  0  0  0  0  0  0  0  0  0  0  0
    0.7060   -2.0000   -2.1610 O   0  0  0  0  0  0  0  0  0  0  0  0
   -0.3020   -3.9390   -2.5410 O   0  0  0  0  0  0  0  0  0  0  0  0
   -3.1960   -2.8870   -5.0820 H   0  0  0  0  0  0  0  0  0  0  0  0
   -1.5630   -2.6350   -4.3510 H   0  0  0  0  0  0  0  0  0  0  0  0
   -2.3390   -4.2490   -4.3280 H   0  0  0  0  0  0  0  0  0  0  0  0
   -3.2290   -3.8740   -2.3310 H   0  0  0  0  0  0  0  0  0  0  0  0
   -4.3300   -2.7880   -3.1750 H   0  0  0  0  0  0  0  0  0  0  0  0
   -3.6410   -1.6910   -1.3050 H   0  0  0  0  0  0  0  0  0  0  0  0
   -2.6960   -0.5920   -3.8240 H   0  0  0  0  0  0  0  0  0  0  0  0
   -1.7840    0.0240   -2.3530 H   0  0  0  0  0  0  0  0  0  0  0  0
   -3.5450    0.1680   -2.5050 H   0  0  0  0  0  0  0  0  0  0  0  0
   -1.6820   -2.9790   -0.4880 H   0  0  0  0  0  0  0  0  0  0  0  0
   -1.7700   -0.1580   -0.3930 H   0  0  0  0  0  0  0  0  0  0  0  0
  1 10  1  0  0  0  0
  1 11  1  0  0  0  0
  2  1  1  0  0  0  0
  3  2  2  0  0  0  0
  4  2  1  0  0  0  0
  4 12  1  0  0  0  0
  5  6  1  0  0  0  0
  5  4  1  0  0  0  0
  6 16  1  6  0  0  0
  6  7  1  0  0  0  0
  7 18  1  0  0  0  0
  7 17  1  0  0  0  0
  8  6  1  0  0  0  0
  8  9  2  0  0  0  0
 13  4  1  0  0  0  0
 14  5  1  0  0  0  0
 15  5  1  0  0  0  0
 19  8  1  0  0  0  0
 20 19  1  0  0  0  0
 20 31  1  1  0  0  0
 21 20  1  0  0  0  0
 21 32  1  0  0  0  0
 22 21  1  0  0  0  0
 22 27  1  0  0  0  0
 23 22  2  0  0  0  0
 24 23  1  0  0  0  0
 24 25  2  0  0  0  0
 25 26  1  0  0  0  0
 26 27  2  0  0  0  0
 26 37  1  0  0  0  0
 27 38  1  0  0  0  0
 28 20  1  0  0  0  0
 29 28  2  0  0  0  0
 30 19  1  0  0  0  0
 33 21  1  0  0  0  0
 34 23  1  0  0  0  0
 35 24  1  0  0  0  0
 36 25  1  0  0  0  0
 39 40  1  0  0  0  0
 40 51  1  0  0  0  0
 40 41  1  0  0  0  0
 41 53  1  1  0  0  0
 41 43  1  0  0  0  0
 42 56  1  0  0  0  0
 42 55  1  0  0  0  0
 42 41  1  0  0  0  0
 43 57  1  1  0  0  0
 43 44  1  0  0  0  0
 44 28  1  0  0  0  0
 45 43  1  0  0  0  0
 46 45  1  0  0  0  0
 47 45  2  0  0  0  0
 48 39  1  0  0  0  0
 49 39  1  0  0  0  0
 50 39  1  0  0  0  0
 52 40  1  0  0  0  0
 54 42  1  0  0  0  0
 58 44  1  0  0  0  0
M  END
$$$$
