QFK.pdb
 OpenBabel07022418333D

 60 60  0  0  1  0  0  0  0  0999 V2000
    0.6640   -4.5520    1.5110 N   0  0  0  0  0  0  0  0  0  0  0  0
    1.4060   -3.6180    2.3040 C   0  0  0  0  0  0  0  0  0  0  0  0
    2.6040   -3.4240    2.0720 O   0  0  0  0  0  0  0  0  0  0  0  0
    0.6730   -2.9320    3.3730 C   0  0  0  0  0  0  0  0  0  0  0  0
    1.4830   -2.1190    4.2930 C   0  0  0  0  0  0  0  0  0  0  0  0
    2.2570   -0.9720    3.7110 C   0  0  2  0  0  0  0  0  0  0  0  0
    2.9540   -0.3970    4.9070 N   0  0  0  0  0  0  0  0  0  0  0  0
    1.4130    0.0640    3.1150 C   0  0  0  0  0  0  0  0  0  0  0  0
    1.0580    1.1100    3.7620 O   0  0  0  0  0  0  0  0  0  0  0  0
    0.0040   -4.2270    0.7790 H   0  0  0  0  0  0  0  0  0  0  0  0
    0.7780   -5.5870    1.6650 H   0  0  0  0  0  0  0  0  0  0  0  0
   -0.1690   -2.3330    2.9210 H   0  0  0  0  0  0  0  0  0  0  0  0
    0.1450   -3.7170    3.9800 H   0  0  0  0  0  0  0  0  0  0  0  0
    0.8120   -1.7250    5.1050 H   0  0  0  0  0  0  0  0  0  0  0  0
    2.2380   -2.7730    4.8160 H   0  0  0  0  0  0  0  0  0  0  0  0
    3.0510   -1.3660    3.0670 H   0  0  0  0  0  0  0  0  0  0  0  0
    2.2410   -0.0470    5.5900 H   0  0  0  0  0  0  0  0  0  0  0  0
    3.3810   -1.2510    5.3580 H   0  0  0  0  0  0  0  0  0  0  0  0
    0.9460   -0.0390    1.7770 N   0  0  0  0  0  0  0  0  0  0  0  0
    0.1240    1.0000    1.2370 C   0  0  1  0  0  0  0  0  0  0  0  0
    0.9910    1.9990    0.4460 C   0  0  0  0  0  0  0  0  0  0  0  0
    0.1890    3.0980   -0.1310 C   0  0  0  0  0  0  0  0  0  0  0  0
   -0.3370    3.0250   -1.4020 C   0  0  0  0  0  0  0  0  0  0  0  0
   -1.0850    4.0650   -1.9200 C   0  0  0  0  0  0  0  0  0  0  0  0
   -1.3200    5.2030   -1.1700 C   0  0  0  0  0  0  0  0  0  0  0  0
   -0.7990    5.2820    0.0960 C   0  0  0  0  0  0  0  0  0  0  0  0
   -0.0600    4.2420    0.5930 C   0  0  0  0  0  0  0  0  0  0  0  0
   -0.9870    0.5130    0.4300 C   0  0  0  0  0  0  0  0  0  0  0  0
   -1.9130    1.3290    0.0280 O   0  0  0  0  0  0  0  0  0  0  0  0
    1.2050   -0.8680    1.1660 H   0  0  0  0  0  0  0  0  0  0  0  0
   -0.2280    1.6360    2.1040 H   0  0  0  0  0  0  0  0  0  0  0  0
    1.7300    2.4740    1.1340 H   0  0  0  0  0  0  0  0  0  0  0  0
    1.5890    1.4760   -0.3290 H   0  0  0  0  0  0  0  0  0  0  0  0
   -0.1890    2.1650   -2.0370 H   0  0  0  0  0  0  0  0  0  0  0  0
   -1.5140    4.0280   -2.9210 H   0  0  0  0  0  0  0  0  0  0  0  0
   -1.9180    6.0230   -1.5980 H   0  0  0  0  0  0  0  0  0  0  0  0
   -0.9790    6.1760    0.6980 H   0  0  0  0  0  0  0  0  0  0  0  0
    0.3730    4.2700    1.6010 H   0  0  0  0  0  0  0  0  0  0  0  0
   -1.1030   -0.8480    0.0500 N   0  0  0  0  0  0  0  0  0  0  0  0
   -2.2690   -1.2260   -0.7680 C   0  0  1  0  0  0  0  0  0  0  0  0
   -1.9100   -1.3790   -2.1920 C   0  0  0  0  0  0  0  0  0  0  0  0
   -0.8990   -2.3820   -2.5850 C   0  0  0  0  0  0  0  0  0  0  0  0
   -1.2230   -3.8140   -2.2930 C   0  0  0  0  0  0  0  0  0  0  0  0
   -0.0370   -4.6350   -2.8240 C   0  0  0  0  0  0  0  0  0  0  0  0
    1.1860   -4.2570   -2.1920 N   0  0  0  0  0  0  0  0  0  0  0  0
   -2.9060   -2.4450   -0.2350 C   0  0  0  0  0  0  0  0  0  0  0  0
   -3.8660   -3.0100   -0.7960 O   0  0  0  0  0  0  0  0  0  0  0  0
   -2.4620   -3.0450    0.9530 O   0  0  0  0  0  0  0  0  0  0  0  0
   -0.4230   -1.5890    0.3130 H   0  0  0  0  0  0  0  0  0  0  0  0
   -3.0200   -0.3770   -0.7350 H   0  0  0  0  0  0  0  0  0  0  0  0
   -2.8590   -1.5790   -2.7850 H   0  0  0  0  0  0  0  0  0  0  0  0
   -1.6270   -0.3430   -2.5630 H   0  0  0  0  0  0  0  0  0  0  0  0
    0.1080   -2.1950   -2.1400 H   0  0  0  0  0  0  0  0  0  0  0  0
   -0.7710   -2.3010   -3.7010 H   0  0  0  0  0  0  0  0  0  0  0  0
   -1.2450   -4.0080   -1.2170 H   0  0  0  0  0  0  0  0  0  0  0  0
   -2.1440   -4.1620   -2.8080 H   0  0  0  0  0  0  0  0  0  0  0  0
   -0.2610   -5.6890   -2.6080 H   0  0  0  0  0  0  0  0  0  0  0  0
    0.0710   -4.4460   -3.9280 H   0  0  0  0  0  0  0  0  0  0  0  0
    1.8380   -3.7430   -2.8420 H   0  0  0  0  0  0  0  0  0  0  0  0
    1.0630   -3.7780   -1.2940 H   0  0  0  0  0  0  0  0  0  0  0  0
  1 11  1  0  0  0  0
  1  2  1  0  0  0  0
  2  4  1  0  0  0  0
  3  2  2  0  0  0  0
  4 13  1  0  0  0  0
  4  5  1  0  0  0  0
  5 15  1  0  0  0  0
  5 14  1  0  0  0  0
  6 16  1  6  0  0  0
  6  5  1  0  0  0  0
  6  7  1  0  0  0  0
  7 18  1  0  0  0  0
  7 17  1  0  0  0  0
  8  6  1  0  0  0  0
  8  9  2  0  0  0  0
 10  1  1  0  0  0  0
 12  4  1  0  0  0  0
 19  8  1  0  0  0  0
 20 19  1  0  0  0  0
 20 31  1  1  0  0  0
 21 32  1  0  0  0  0
 21 20  1  0  0  0  0
 22 21  1  0  0  0  0
 22 27  1  0  0  0  0
 23 22  2  0  0  0  0
 24 23  1  0  0  0  0
 24 25  2  0  0  0  0
 25 26  1  0  0  0  0
 26 27  2  0  0  0  0
 26 37  1  0  0  0  0
 27 38  1  0  0  0  0
 28 20  1  0  0  0  0
 29 28  2  0  0  0  0
 30 19  1  0  0  0  0
 33 21  1  0  0  0  0
 34 23  1  0  0  0  0
 35 24  1  0  0  0  0
 36 25  1  0  0  0  0
 39 49  1  0  0  0  0
 39 28  1  0  0  0  0
 40 50  1  1  0  0  0
 40 46  1  0  0  0  0
 40 39  1  0  0  0  0
 41 40  1  0  0  0  0
 42 43  1  0  0  0  0
 42 41  1  0  0  0  0
 42 53  1  0  0  0  0
 43 55  1  0  0  0  0
 44 57  1  0  0  0  0
 44 43  1  0  0  0  0
 44 45  1  0  0  0  0
 45 60  1  0  0  0  0
 46 48  1  0  0  0  0
 47 46  2  0  0  0  0
 51 41  1  0  0  0  0
 52 41  1  0  0  0  0
 54 42  1  0  0  0  0
 56 43  1  0  0  0  0
 58 44  1  0  0  0  0
 59 45  1  0  0  0  0
M  END
$$$$
