QFL.pdb
 OpenBabel07022418333D

 58 58  0  0  1  0  0  0  0  0999 V2000
    2.3510   -3.4000    4.5250 N   0  0  0  0  0  0  0  0  0  0  0  0
    2.5730   -2.0530    4.1680 C   0  0  0  0  0  0  0  0  0  0  0  0
    2.9080   -1.2590    5.0890 O   0  0  0  0  0  0  0  0  0  0  0  0
    2.4200   -1.5690    2.7530 C   0  0  0  0  0  0  0  0  0  0  0  0
    2.7080   -0.1120    2.6390 C   0  0  0  0  0  0  0  0  0  0  0  0
    2.5800    0.4810    1.2870 C   0  0  2  0  0  0  0  0  0  0  0  0
    2.9310    1.9110    1.3740 N   0  0  0  0  0  0  0  0  0  0  0  0
    1.2390    0.3620    0.6610 C   0  0  0  0  0  0  0  0  0  0  0  0
    1.1650    0.4860   -0.6010 O   0  0  0  0  0  0  0  0  0  0  0  0
    2.5460   -4.2090    3.8810 H   0  0  0  0  0  0  0  0  0  0  0  0
    1.9770   -3.6380    5.4680 H   0  0  0  0  0  0  0  0  0  0  0  0
    3.2450   -2.1140    2.1970 H   0  0  0  0  0  0  0  0  0  0  0  0
    1.4940   -1.8750    2.2880 H   0  0  0  0  0  0  0  0  0  0  0  0
    2.0420    0.4050    3.3890 H   0  0  0  0  0  0  0  0  0  0  0  0
    3.7450    0.1310    3.0120 H   0  0  0  0  0  0  0  0  0  0  0  0
    3.3350    0.0550    0.5970 H   0  0  0  0  0  0  0  0  0  0  0  0
    2.7130    2.2330    2.3590 H   0  0  0  0  0  0  0  0  0  0  0  0
    3.9200    2.0760    1.1410 H   0  0  0  0  0  0  0  0  0  0  0  0
    0.0470    0.1220    1.3850 N   0  0  0  0  0  0  0  0  0  0  0  0
   -1.2470    0.0070    0.8310 C   0  0  1  0  0  0  0  0  0  0  0  0
   -1.6390    1.1560   -0.1140 C   0  0  0  0  0  0  0  0  0  0  0  0
   -1.6460    2.4670    0.5590 C   0  0  0  0  0  0  0  0  0  0  0  0
   -0.5250    3.2550    0.5130 C   0  0  0  0  0  0  0  0  0  0  0  0
   -0.5740    4.4870    1.1770 C   0  0  0  0  0  0  0  0  0  0  0  0
   -1.7190    4.8690    1.8450 C   0  0  0  0  0  0  0  0  0  0  0  0
   -2.8320    4.0420    1.8690 C   0  0  0  0  0  0  0  0  0  0  0  0
   -2.8090    2.8330    1.2260 C   0  0  0  0  0  0  0  0  0  0  0  0
   -1.6090   -1.2390    0.1750 C   0  0  0  0  0  0  0  0  0  0  0  0
   -2.7950   -1.2960   -0.3010 O   0  0  0  0  0  0  0  0  0  0  0  0
    0.1650    0.0350    2.4340 H   0  0  0  0  0  0  0  0  0  0  0  0
   -1.9940    0.1600    1.6850 H   0  0  0  0  0  0  0  0  0  0  0  0
   -2.6740    0.9550   -0.4680 H   0  0  0  0  0  0  0  0  0  0  0  0
   -1.0170    1.1720   -1.0260 H   0  0  0  0  0  0  0  0  0  0  0  0
    0.3950    3.0120   -0.0010 H   0  0  0  0  0  0  0  0  0  0  0  0
    0.3000    5.1180    1.1490 H   0  0  0  0  0  0  0  0  0  0  0  0
   -1.7420    5.8240    2.3550 H   0  0  0  0  0  0  0  0  0  0  0  0
   -3.7500    4.3300    2.3950 H   0  0  0  0  0  0  0  0  0  0  0  0
   -3.6830    2.1980    1.2520 H   0  0  0  0  0  0  0  0  0  0  0  0
    0.6630   -3.4520   -3.9320 C   0  0  0  0  0  0  0  0  0  0  0  0
   -0.2710   -2.8990   -2.8570 C   0  0  0  0  0  0  0  0  0  0  0  0
   -1.5810   -2.5690   -3.5120 C   0  0  0  0  0  0  0  0  0  0  0  0
   -0.4090   -3.9790   -1.8100 C   0  0  0  0  0  0  0  0  0  0  0  0
   -1.3150   -3.5620   -0.6760 C   0  0  2  0  0  0  0  0  0  0  0  0
   -0.8190   -2.3800    0.0030 N   0  0  0  0  0  0  0  0  0  0  0  0
   -1.3440   -4.7220    0.2850 C   0  0  0  0  0  0  0  0  0  0  0  0
   -1.7430   -5.8500   -0.1000 O   0  0  0  0  0  0  0  0  0  0  0  0
   -0.9410   -4.5950    1.6020 O   0  0  0  0  0  0  0  0  0  0  0  0
    0.4870   -2.9510   -4.9060 H   0  0  0  0  0  0  0  0  0  0  0  0
    1.6960   -3.2750   -3.5700 H   0  0  0  0  0  0  0  0  0  0  0  0
    0.4970   -4.5380   -3.9830 H   0  0  0  0  0  0  0  0  0  0  0  0
    0.1730   -1.9810   -2.4800 H   0  0  0  0  0  0  0  0  0  0  0  0
   -2.3780   -3.3150   -3.2870 H   0  0  0  0  0  0  0  0  0  0  0  0
   -1.9930   -1.5930   -3.1210 H   0  0  0  0  0  0  0  0  0  0  0  0
   -1.4740   -2.4130   -4.6100 H   0  0  0  0  0  0  0  0  0  0  0  0
    0.5730   -4.2690   -1.3880 H   0  0  0  0  0  0  0  0  0  0  0  0
   -0.8190   -4.8750   -2.3180 H   0  0  0  0  0  0  0  0  0  0  0  0
   -2.3600   -3.4290   -1.0190 H   0  0  0  0  0  0  0  0  0  0  0  0
    0.1480   -2.3620    0.3780 H   0  0  0  0  0  0  0  0  0  0  0  0
  1 11  1  0  0  0  0
  2  1  1  0  0  0  0
  2  3  2  0  0  0  0
  4  2  1  0  0  0  0
  5  4  1  0  0  0  0
  5 15  1  0  0  0  0
  5 14  1  0  0  0  0
  6 16  1  6  0  0  0
  6  7  1  0  0  0  0
  6  5  1  0  0  0  0
  7 17  1  0  0  0  0
  8  6  1  0  0  0  0
  8 19  1  0  0  0  0
  9  8  2  0  0  0  0
 10  1  1  0  0  0  0
 12  4  1  0  0  0  0
 13  4  1  0  0  0  0
 18  7  1  0  0  0  0
 19 30  1  0  0  0  0
 20 19  1  0  0  0  0
 20 31  1  1  0  0  0
 21 22  1  0  0  0  0
 21 20  1  0  0  0  0
 22 27  1  0  0  0  0
 23 22  2  0  0  0  0
 23 24  1  0  0  0  0
 24 25  2  0  0  0  0
 25 26  1  0  0  0  0
 25 36  1  0  0  0  0
 26 37  1  0  0  0  0
 27 38  1  0  0  0  0
 27 26  2  0  0  0  0
 28 20  1  0  0  0  0
 29 28  2  0  0  0  0
 32 21  1  0  0  0  0
 33 21  1  0  0  0  0
 34 23  1  0  0  0  0
 35 24  1  0  0  0  0
 39 49  1  0  0  0  0
 39 40  1  0  0  0  0
 40 51  1  0  0  0  0
 40 42  1  0  0  0  0
 41 52  1  0  0  0  0
 41 53  1  0  0  0  0
 41 40  1  0  0  0  0
 42 55  1  0  0  0  0
 42 43  1  0  0  0  0
 43 57  1  6  0  0  0
 43 44  1  0  0  0  0
 43 45  1  0  0  0  0
 44 28  1  0  0  0  0
 44 58  1  0  0  0  0
 45 47  1  0  0  0  0
 46 45  2  0  0  0  0
 48 39  1  0  0  0  0
 50 39  1  0  0  0  0
 54 41  1  0  0  0  0
 56 42  1  0  0  0  0
M  END
$$$$
