QFN.pdb
 OpenBabel07022418333D

 53 53  0  0  1  0  0  0  0  0999 V2000
    3.2490   -2.9050    4.6230 N   0  0  0  0  0  0  0  0  0  0  0  0
    3.4940   -1.6490    3.9610 C   0  0  0  0  0  0  0  0  0  0  0  0
    3.8710   -0.7130    4.6990 O   0  0  0  0  0  0  0  0  0  0  0  0
    3.3200   -1.4670    2.5260 C   0  0  0  0  0  0  0  0  0  0  0  0
    3.3250   -0.0770    2.0080 C   0  0  0  0  0  0  0  0  0  0  0  0
    2.2550    0.8330    2.4850 C   0  0  2  0  0  0  0  0  0  0  0  0
    2.1970    1.0710    3.8850 N   0  0  0  0  0  0  0  0  0  0  0  0
    0.9390    0.3520    1.9410 C   0  0  0  0  0  0  0  0  0  0  0  0
   -0.0580    0.1570    2.6810 O   0  0  0  0  0  0  0  0  0  0  0  0
    3.0190   -2.9560    5.6370 H   0  0  0  0  0  0  0  0  0  0  0  0
    3.2970   -3.8030    4.0980 H   0  0  0  0  0  0  0  0  0  0  0  0
    4.1990   -1.9860    2.0320 H   0  0  0  0  0  0  0  0  0  0  0  0
    2.3900   -1.9680    2.1350 H   0  0  0  0  0  0  0  0  0  0  0  0
    4.3310    0.3930    2.2450 H   0  0  0  0  0  0  0  0  0  0  0  0
    3.2860   -0.1320    0.8970 H   0  0  0  0  0  0  0  0  0  0  0  0
    2.4390    1.8310    1.9850 H   0  0  0  0  0  0  0  0  0  0  0  0
    2.7250    1.9170    4.2020 H   0  0  0  0  0  0  0  0  0  0  0  0
    1.2060    1.0910    4.2620 H   0  0  0  0  0  0  0  0  0  0  0  0
    0.7850    0.1020    0.5530 N   0  0  0  0  0  0  0  0  0  0  0  0
   -0.5150   -0.3660    0.0550 C   0  0  1  0  0  0  0  0  0  0  0  0
   -1.0890    0.7030   -0.8810 C   0  0  0  0  0  0  0  0  0  0  0  0
   -1.2660    1.9860   -0.1450 C   0  0  0  0  0  0  0  0  0  0  0  0
   -0.2890    2.9330   -0.0760 C   0  0  0  0  0  0  0  0  0  0  0  0
   -0.4460    4.1270    0.6060 C   0  0  0  0  0  0  0  0  0  0  0  0
   -1.6320    4.3890    1.2490 C   0  0  0  0  0  0  0  0  0  0  0  0
   -2.6380    3.4450    1.1930 C   0  0  0  0  0  0  0  0  0  0  0  0
   -2.4650    2.2600    0.5090 C   0  0  0  0  0  0  0  0  0  0  0  0
   -0.2590   -1.6260   -0.6770 C   0  0  0  0  0  0  0  0  0  0  0  0
    0.8940   -2.1270   -0.7850 O   0  0  0  0  0  0  0  0  0  0  0  0
    1.5760    0.2470   -0.1120 H   0  0  0  0  0  0  0  0  0  0  0  0
   -1.2230   -0.4620    0.8830 H   0  0  0  0  0  0  0  0  0  0  0  0
   -0.3210    0.9050   -1.6810 H   0  0  0  0  0  0  0  0  0  0  0  0
   -2.0140    0.3550   -1.3490 H   0  0  0  0  0  0  0  0  0  0  0  0
    0.6440    2.7360   -0.5770 H   0  0  0  0  0  0  0  0  0  0  0  0
    0.3710    4.8270    0.6160 H   0  0  0  0  0  0  0  0  0  0  0  0
   -1.7590    5.3310    1.7890 H   0  0  0  0  0  0  0  0  0  0  0  0
   -3.5720    3.6870    1.7170 H   0  0  0  0  0  0  0  0  0  0  0  0
   -3.2810    1.5280    0.4820 H   0  0  0  0  0  0  0  0  0  0  0  0
   -3.9810   -3.5100   -1.7360 N   0  0  0  0  0  0  0  0  0  0  0  0
   -3.2380   -4.5790   -1.2190 C   0  0  0  0  0  0  0  0  0  0  0  0
   -3.8870   -5.4970   -0.6040 O   0  0  0  0  0  0  0  0  0  0  0  0
   -1.7800   -4.7210   -1.3320 C   0  0  0  0  0  0  0  0  0  0  0  0
   -1.0750   -3.5920   -2.0290 C   0  0  2  0  0  0  0  0  0  0  0  0
   -1.3040   -2.3720   -1.3180 N   0  0  0  0  0  0  0  0  0  0  0  0
   -1.4340   -3.5510   -3.4650 C   0  0  0  0  0  0  0  0  0  0  0  0
   -1.8730   -2.5760   -4.0870 O   0  0  0  0  0  0  0  0  0  0  0  0
   -1.2530   -4.7420   -4.1770 O   0  0  0  0  0  0  0  0  0  0  0  0
   -4.1240   -3.3160   -2.7610 H   0  0  0  0  0  0  0  0  0  0  0  0
   -4.4690   -2.8070   -1.1040 H   0  0  0  0  0  0  0  0  0  0  0  0
   -1.3230   -4.7810   -0.2930 H   0  0  0  0  0  0  0  0  0  0  0  0
   -1.5050   -5.7140   -1.7720 H   0  0  0  0  0  0  0  0  0  0  0  0
    0.0230   -3.8730   -2.0170 H   0  0  0  0  0  0  0  0  0  0  0  0
   -2.2550   -1.9690   -1.2400 H   0  0  0  0  0  0  0  0  0  0  0  0
  1 10  1  0  0  0  0
  2  1  1  0  0  0  0
  2  3  2  0  0  0  0
  4  2  1  0  0  0  0
  5 14  1  0  0  0  0
  5  6  1  0  0  0  0
  5  4  1  0  0  0  0
  6 16  1  6  0  0  0
  6  7  1  0  0  0  0
  7 17  1  0  0  0  0
  7 18  1  0  0  0  0
  8  6  1  0  0  0  0
  8  9  2  0  0  0  0
 11  1  1  0  0  0  0
 12  4  1  0  0  0  0
 13  4  1  0  0  0  0
 15  5  1  0  0  0  0
 19  8  1  0  0  0  0
 20 19  1  0  0  0  0
 20 31  1  1  0  0  0
 21 22  1  0  0  0  0
 21 20  1  0  0  0  0
 22 23  2  0  0  0  0
 22 27  1  0  0  0  0
 23 24  1  0  0  0  0
 24 35  1  0  0  0  0
 24 25  2  0  0  0  0
 25 36  1  0  0  0  0
 26 25  1  0  0  0  0
 26 37  1  0  0  0  0
 27 26  2  0  0  0  0
 28 20  1  0  0  0  0
 29 28  2  0  0  0  0
 30 19  1  0  0  0  0
 32 21  1  0  0  0  0
 33 21  1  0  0  0  0
 34 23  1  0  0  0  0
 38 27  1  0  0  0  0
 39 40  1  0  0  0  0
 39 49  1  0  0  0  0
 40 41  2  0  0  0  0
 42 40  1  0  0  0  0
 42 50  1  0  0  0  0
 43 52  1  1  0  0  0
 43 42  1  0  0  0  0
 43 44  1  0  0  0  0
 44 53  1  0  0  0  0
 44 28  1  0  0  0  0
 45 43  1  0  0  0  0
 46 45  1  0  0  0  0
 47 45  2  0  0  0  0
 48 39  1  0  0  0  0
 51 42  1  0  0  0  0
M  END
$$$$
