QFQ.pdb
 OpenBabel07022418333D

 56 56  0  0  1  0  0  0  0  0999 V2000
    2.8790   -2.2800    6.5010 N   0  0  0  0  0  0  0  0  0  0  0  0
    2.1720   -2.0800    5.2730 C   0  0  0  0  0  0  0  0  0  0  0  0
    1.1250   -1.3920    5.3230 O   0  0  0  0  0  0  0  0  0  0  0  0
    2.7260   -2.6910    4.0610 C   0  0  0  0  0  0  0  0  0  0  0  0
    1.8990   -2.5070    2.8220 C   0  0  0  0  0  0  0  0  0  0  0  0
    0.5260   -3.0890    2.8910 C   0  0  2  0  0  0  0  0  0  0  0  0
    0.6250   -4.5070    3.1220 N   0  0  0  0  0  0  0  0  0  0  0  0
   -0.2810   -2.7770    1.6790 C   0  0  0  0  0  0  0  0  0  0  0  0
   -0.7960   -3.6670    0.9540 O   0  0  0  0  0  0  0  0  0  0  0  0
    2.3680   -2.2190    7.4070 H   0  0  0  0  0  0  0  0  0  0  0  0
    3.9000   -2.4900    6.5490 H   0  0  0  0  0  0  0  0  0  0  0  0
    3.7080   -2.1750    3.8450 H   0  0  0  0  0  0  0  0  0  0  0  0
    2.9810   -3.7760    4.2000 H   0  0  0  0  0  0  0  0  0  0  0  0
    2.4870   -2.9580    1.9810 H   0  0  0  0  0  0  0  0  0  0  0  0
    1.8730   -1.4120    2.5870 H   0  0  0  0  0  0  0  0  0  0  0  0
   -0.0060   -2.6550    3.7610 H   0  0  0  0  0  0  0  0  0  0  0  0
    0.7110   -4.6690    4.1370 H   0  0  0  0  0  0  0  0  0  0  0  0
    1.4960   -4.8640    2.6490 H   0  0  0  0  0  0  0  0  0  0  0  0
   -0.4940   -1.4250    1.3030 N   0  0  0  0  0  0  0  0  0  0  0  0
   -1.2570   -1.0340    0.1510 C   0  0  1  0  0  0  0  0  0  0  0  0
   -2.5460   -0.3430    0.5150 C   0  0  0  0  0  0  0  0  0  0  0  0
   -2.3980    0.8730    1.2930 C   0  0  0  0  0  0  0  0  0  0  0  0
   -2.2680    2.1220    0.7390 C   0  0  0  0  0  0  0  0  0  0  0  0
   -2.1270    3.2520    1.5200 C   0  0  0  0  0  0  0  0  0  0  0  0
   -2.1140    3.1620    2.8950 C   0  0  0  0  0  0  0  0  0  0  0  0
   -2.2420    1.9210    3.4690 C   0  0  0  0  0  0  0  0  0  0  0  0
   -2.3810    0.8040    2.6710 C   0  0  0  0  0  0  0  0  0  0  0  0
   -0.4610   -0.3510   -0.8800 C   0  0  0  0  0  0  0  0  0  0  0  0
    0.7820   -0.1240   -0.7280 O   0  0  0  0  0  0  0  0  0  0  0  0
   -0.0480   -0.6910    1.9330 H   0  0  0  0  0  0  0  0  0  0  0  0
   -1.5960   -2.0060   -0.3280 H   0  0  0  0  0  0  0  0  0  0  0  0
   -3.1110   -0.1940   -0.4420 H   0  0  0  0  0  0  0  0  0  0  0  0
   -3.1470   -1.0960    1.0850 H   0  0  0  0  0  0  0  0  0  0  0  0
   -2.2720    2.2490   -0.3160 H   0  0  0  0  0  0  0  0  0  0  0  0
   -2.0230    4.2490    1.0940 H   0  0  0  0  0  0  0  0  0  0  0  0
   -2.0030    4.0590    3.4870 H   0  0  0  0  0  0  0  0  0  0  0  0
   -2.2310    1.8520    4.5640 H   0  0  0  0  0  0  0  0  0  0  0  0
   -2.4790   -0.1440    3.1960 H   0  0  0  0  0  0  0  0  0  0  0  0
    1.3220   -3.5010   -5.1270 N   0  0  0  0  0  0  0  0  0  0  0  0
    0.6560   -2.2540   -5.2420 C   0  0  0  0  0  0  0  0  0  0  0  0
    0.1610   -1.8710   -6.3510 O   0  0  0  0  0  0  0  0  0  0  0  0
    0.5570   -1.4090   -4.0220 C   0  0  0  0  0  0  0  0  0  0  0  0
   -0.2260   -0.1420   -4.3860 C   0  0  0  0  0  0  0  0  0  0  0  0
   -0.3480    0.7530   -3.1480 C   0  0  2  0  0  0  0  0  0  0  0  0
   -1.0340    0.0840   -2.0830 N   0  0  0  0  0  0  0  0  0  0  0  0
   -0.9110    2.0310   -3.5630 C   0  0  0  0  0  0  0  0  0  0  0  0
   -1.9380    2.4960   -3.0170 O   0  0  0  0  0  0  0  0  0  0  0  0
   -0.3260    2.7710   -4.5760 O   0  0  0  0  0  0  0  0  0  0  0  0
    2.1470   -3.5600   -4.4980 H   0  0  0  0  0  0  0  0  0  0  0  0
    0.9570   -4.3010   -5.6750 H   0  0  0  0  0  0  0  0  0  0  0  0
    0.0170   -1.9870   -3.2500 H   0  0  0  0  0  0  0  0  0  0  0  0
    1.5870   -1.1580   -3.7160 H   0  0  0  0  0  0  0  0  0  0  0  0
   -1.1940   -0.3850   -4.8230 H   0  0  0  0  0  0  0  0  0  0  0  0
    0.3720    0.4190   -5.1320 H   0  0  0  0  0  0  0  0  0  0  0  0
    0.7190    0.8850   -2.8140 H   0  0  0  0  0  0  0  0  0  0  0  0
   -2.0650   -0.0960   -2.2220 H   0  0  0  0  0  0  0  0  0  0  0  0
  1 11  1  0  0  0  0
  1 10  1  0  0  0  0
  2  3  2  0  0  0  0
  2  1  1  0  0  0  0
  4 13  1  0  0  0  0
  4  2  1  0  0  0  0
  5  6  1  0  0  0  0
  5  4  1  0  0  0  0
  6  7  1  0  0  0  0
  6 16  1  1  0  0  0
  7 17  1  0  0  0  0
  8  6  1  0  0  0  0
  9  8  2  0  0  0  0
 12  4  1  0  0  0  0
 14  5  1  0  0  0  0
 15  5  1  0  0  0  0
 18  7  1  0  0  0  0
 19  8  1  0  0  0  0
 19 30  1  0  0  0  0
 20 31  1  6  0  0  0
 20 21  1  0  0  0  0
 20 19  1  0  0  0  0
 21 33  1  0  0  0  0
 21 22  1  0  0  0  0
 22 27  1  0  0  0  0
 23 22  2  0  0  0  0
 23 24  1  0  0  0  0
 24 25  2  0  0  0  0
 25 26  1  0  0  0  0
 25 36  1  0  0  0  0
 26 37  1  0  0  0  0
 27 38  1  0  0  0  0
 27 26  2  0  0  0  0
 28 29  2  0  0  0  0
 28 20  1  0  0  0  0
 32 21  1  0  0  0  0
 34 23  1  0  0  0  0
 35 24  1  0  0  0  0
 39 49  1  0  0  0  0
 40 39  1  0  0  0  0
 40 42  1  0  0  0  0
 41 40  2  0  0  0  0
 42 52  1  0  0  0  0
 42 51  1  0  0  0  0
 43 42  1  0  0  0  0
 43 44  1  0  0  0  0
 44 55  1  1  0  0  0
 44 45  1  0  0  0  0
 45 28  1  0  0  0  0
 46 44  1  0  0  0  0
 46 47  1  0  0  0  0
 48 46  2  0  0  0  0
 50 39  1  0  0  0  0
 53 43  1  0  0  0  0
 54 43  1  0  0  0  0
 56 45  1  0  0  0  0
M  END
$$$$
