QFR.pdb
 OpenBabel07022418333D

 62 62  0  0  1  0  0  0  0  0999 V2000
    1.2500   -2.8830    2.8190 N   0  0  0  0  0  0  0  0  0  0  0  0
    1.6710   -1.5680    3.2200 C   0  0  0  0  0  0  0  0  0  0  0  0
    0.8410   -0.6520    3.1650 O   0  0  0  0  0  0  0  0  0  0  0  0
    3.0450   -1.3690    3.6720 C   0  0  0  0  0  0  0  0  0  0  0  0
    3.5530    0.0020    3.8350 C   0  0  0  0  0  0  0  0  0  0  0  0
    3.7460    0.8960    2.6720 C   0  0  2  0  0  0  0  0  0  0  0  0
    4.2540    2.2080    3.1960 N   0  0  0  0  0  0  0  0  0  0  0  0
    2.5670    1.1210    1.8540 C   0  0  0  0  0  0  0  0  0  0  0  0
    1.7730    2.1000    2.1460 O   0  0  0  0  0  0  0  0  0  0  0  0
    1.1700   -3.1790    1.8220 H   0  0  0  0  0  0  0  0  0  0  0  0
    1.0040   -3.6190    3.5390 H   0  0  0  0  0  0  0  0  0  0  0  0
    3.7790   -1.9400    3.0190 H   0  0  0  0  0  0  0  0  0  0  0  0
    3.1290   -1.8810    4.6840 H   0  0  0  0  0  0  0  0  0  0  0  0
    2.8900    0.5350    4.6000 H   0  0  0  0  0  0  0  0  0  0  0  0
    4.5780   -0.0920    4.3170 H   0  0  0  0  0  0  0  0  0  0  0  0
    4.6290    0.5180    2.1050 H   0  0  0  0  0  0  0  0  0  0  0  0
    5.1750    1.9820    3.5980 H   0  0  0  0  0  0  0  0  0  0  0  0
    4.4030    2.7720    2.3440 H   0  0  0  0  0  0  0  0  0  0  0  0
    2.1730    0.3750    0.7250 N   0  0  0  0  0  0  0  0  0  0  0  0
    0.9340    0.7760    0.0100 C   0  0  1  0  0  0  0  0  0  0  0  0
    1.3680    1.6570   -1.1500 C   0  0  0  0  0  0  0  0  0  0  0  0
    0.2250    2.1470   -1.9060 C   0  0  0  0  0  0  0  0  0  0  0  0
   -0.4700    3.2560   -1.4220 C   0  0  0  0  0  0  0  0  0  0  0  0
   -1.5130    3.8090   -2.1500 C   0  0  0  0  0  0  0  0  0  0  0  0
   -1.9120    3.2970   -3.3730 C   0  0  0  0  0  0  0  0  0  0  0  0
   -1.2010    2.1920   -3.8270 C   0  0  0  0  0  0  0  0  0  0  0  0
   -0.1570    1.6260   -3.1160 C   0  0  0  0  0  0  0  0  0  0  0  0
    0.3120   -0.4510   -0.4550 C   0  0  0  0  0  0  0  0  0  0  0  0
    0.9480   -1.5500   -0.4250 O   0  0  0  0  0  0  0  0  0  0  0  0
    2.6960   -0.4190    0.3850 H   0  0  0  0  0  0  0  0  0  0  0  0
    0.3050    1.4290    0.6560 H   0  0  0  0  0  0  0  0  0  0  0  0
    2.0260    2.4870   -0.7860 H   0  0  0  0  0  0  0  0  0  0  0  0
    2.0040    1.0460   -1.8540 H   0  0  0  0  0  0  0  0  0  0  0  0
   -0.1950    3.6880   -0.4760 H   0  0  0  0  0  0  0  0  0  0  0  0
   -2.0580    4.6770   -1.7700 H   0  0  0  0  0  0  0  0  0  0  0  0
   -2.7240    3.7240   -3.9440 H   0  0  0  0  0  0  0  0  0  0  0  0
   -1.5150    1.7940   -4.7870 H   0  0  0  0  0  0  0  0  0  0  0  0
    0.3600    0.7630   -3.5180 H   0  0  0  0  0  0  0  0  0  0  0  0
   -1.8360   -3.6740    3.2370 N   0  0  0  0  0  0  0  0  0  0  0  0
   -2.9910   -3.5510    2.4430 C   0  0  0  0  0  0  0  0  0  0  0  0
   -3.7500   -2.4930    2.5590 N   0  0  0  0  0  0  0  0  0  0  0  0
   -3.3790   -4.5450    1.5150 N   0  0  0  0  0  0  0  0  0  0  0  0
   -3.9840   -4.2620    0.2570 C   0  0  0  0  0  0  0  0  0  0  0  0
   -3.0720   -3.6580   -0.7490 C   0  0  0  0  0  0  0  0  0  0  0  0
   -2.4910   -2.3630   -0.3010 C   0  0  0  0  0  0  0  0  0  0  0  0
   -1.5700   -1.8260   -1.4050 C   0  0  2  0  0  0  0  0  0  0  0  0
   -1.0050   -0.5520   -0.9620 N   0  0  0  0  0  0  0  0  0  0  0  0
   -2.3160   -1.6450   -2.6370 C   0  0  0  0  0  0  0  0  0  0  0  0
   -2.6070   -0.5020   -3.0600 O   0  0  0  0  0  0  0  0  0  0  0  0
   -2.7680   -2.6950   -3.4560 O   0  0  0  0  0  0  0  0  0  0  0  0
   -1.1870   -4.4620    3.1390 H   0  0  0  0  0  0  0  0  0  0  0  0
   -1.6320   -2.9230    3.9640 H   0  0  0  0  0  0  0  0  0  0  0  0
   -3.5120   -1.7380    3.2290 H   0  0  0  0  0  0  0  0  0  0  0  0
   -3.1970   -5.5590    1.8000 H   0  0  0  0  0  0  0  0  0  0  0  0
   -4.4160   -5.1920   -0.1940 H   0  0  0  0  0  0  0  0  0  0  0  0
   -4.8050   -3.5130    0.4300 H   0  0  0  0  0  0  0  0  0  0  0  0
   -3.7040   -3.5160   -1.6800 H   0  0  0  0  0  0  0  0  0  0  0  0
   -2.2830   -4.3890   -1.0770 H   0  0  0  0  0  0  0  0  0  0  0  0
   -1.8240   -2.6170    0.5870 H   0  0  0  0  0  0  0  0  0  0  0  0
   -3.2520   -1.6060   -0.0550 H   0  0  0  0  0  0  0  0  0  0  0  0
   -0.7800   -2.5860   -1.4950 H   0  0  0  0  0  0  0  0  0  0  0  0
   -1.5910    0.2910   -1.0150 H   0  0  0  0  0  0  0  0  0  0  0  0
  1  2  1  0  0  0  0
  1 11  1  0  0  0  0
  2  4  1  0  0  0  0
  3  2  2  0  0  0  0
  4  5  1  0  0  0  0
  4 13  1  0  0  0  0
  5 15  1  0  0  0  0
  5 14  1  0  0  0  0
  6 16  1  6  0  0  0
  6  7  1  0  0  0  0
  6  5  1  0  0  0  0
  7 17  1  0  0  0  0
  8  9  2  0  0  0  0
  8  6  1  0  0  0  0
 10  1  1  0  0  0  0
 12  4  1  0  0  0  0
 18  7  1  0  0  0  0
 19  8  1  0  0  0  0
 20 31  1  1  0  0  0
 20 19  1  0  0  0  0
 21 32  1  0  0  0  0
 21 20  1  0  0  0  0
 22 23  1  0  0  0  0
 22 21  1  0  0  0  0
 23 34  1  0  0  0  0
 24 35  1  0  0  0  0
 24 23  2  0  0  0  0
 25 24  1  0  0  0  0
 26 25  2  0  0  0  0
 26 27  1  0  0  0  0
 27 22  2  0  0  0  0
 28 29  2  0  0  0  0
 28 20  1  0  0  0  0
 30 19  1  0  0  0  0
 33 21  1  0  0  0  0
 36 25  1  0  0  0  0
 37 26  1  0  0  0  0
 38 27  1  0  0  0  0
 39 52  1  0  0  0  0
 40 41  2  0  0  0  0
 40 39  1  0  0  0  0
 41 53  1  0  0  0  0
 42 54  1  0  0  0  0
 42 40  1  0  0  0  0
 43 56  1  0  0  0  0
 43 42  1  0  0  0  0
 44 45  1  0  0  0  0
 44 43  1  0  0  0  0
 45 60  1  0  0  0  0
 45 59  1  0  0  0  0
 46 61  1  6  0  0  0
 46 47  1  0  0  0  0
 46 45  1  0  0  0  0
 47 28  1  0  0  0  0
 48 46  1  0  0  0  0
 49 48  1  0  0  0  0
 50 48  2  0  0  0  0
 51 39  1  0  0  0  0
 55 43  1  0  0  0  0
 57 44  1  0  0  0  0
 58 44  1  0  0  0  0
 62 47  1  0  0  0  0
M  END
$$$$
