QFT.pdb
 OpenBabel07022418333D

 53 53  0  0  1  0  0  0  0  0999 V2000
    2.6360   -5.1410    1.5080 N   0  0  0  0  0  0  0  0  0  0  0  0
    3.1170   -3.8090    1.3830 C   0  0  0  0  0  0  0  0  0  0  0  0
    4.2140   -3.5470    1.9130 O   0  0  0  0  0  0  0  0  0  0  0  0
    2.3460   -2.8160    0.6610 C   0  0  0  0  0  0  0  0  0  0  0  0
    2.7510   -1.3960    0.7760 C   0  0  0  0  0  0  0  0  0  0  0  0
    2.6920   -0.7700    2.1190 C   0  0  2  0  0  0  0  0  0  0  0  0
    3.5060   -1.3780    3.1110 N   0  0  0  0  0  0  0  0  0  0  0  0
    1.3130   -0.5840    2.6320 C   0  0  0  0  0  0  0  0  0  0  0  0
    1.0520   -0.9780    3.8100 O   0  0  0  0  0  0  0  0  0  0  0  0
    2.2830   -5.4570    2.4160 H   0  0  0  0  0  0  0  0  0  0  0  0
    2.6490   -5.7600    0.6930 H   0  0  0  0  0  0  0  0  0  0  0  0
    1.2700   -2.8820    1.0260 H   0  0  0  0  0  0  0  0  0  0  0  0
    2.2240   -3.0810   -0.4370 H   0  0  0  0  0  0  0  0  0  0  0  0
    3.8340   -1.3040    0.4460 H   0  0  0  0  0  0  0  0  0  0  0  0
    2.2230   -0.7390    0.0360 H   0  0  0  0  0  0  0  0  0  0  0  0
    3.0910    0.2880    1.9780 H   0  0  0  0  0  0  0  0  0  0  0  0
    3.0700   -1.1930    4.0610 H   0  0  0  0  0  0  0  0  0  0  0  0
    4.4840   -1.0410    3.0620 H   0  0  0  0  0  0  0  0  0  0  0  0
    0.3290    0.0170    1.8180 N   0  0  0  0  0  0  0  0  0  0  0  0
   -1.0280    0.2340    2.2470 C   0  0  1  0  0  0  0  0  0  0  0  0
   -1.3620    1.7070    2.3500 C   0  0  0  0  0  0  0  0  0  0  0  0
   -1.2190    2.4310    1.0870 C   0  0  0  0  0  0  0  0  0  0  0  0
   -0.0260    3.0250    0.7080 C   0  0  0  0  0  0  0  0  0  0  0  0
    0.0980    3.7070   -0.4870 C   0  0  0  0  0  0  0  0  0  0  0  0
   -0.9960    3.7990   -1.3240 C   0  0  0  0  0  0  0  0  0  0  0  0
   -2.2110    3.2120   -0.9700 C   0  0  0  0  0  0  0  0  0  0  0  0
   -2.2980    2.5330    0.2390 C   0  0  0  0  0  0  0  0  0  0  0  0
   -2.0310   -0.4900    1.4260 C   0  0  0  0  0  0  0  0  0  0  0  0
   -3.2640   -0.4210    1.6470 O   0  0  0  0  0  0  0  0  0  0  0  0
    0.6030    0.3150    0.8670 H   0  0  0  0  0  0  0  0  0  0  0  0
   -1.1050   -0.1880    3.2900 H   0  0  0  0  0  0  0  0  0  0  0  0
   -2.3540    1.8150    2.8200 H   0  0  0  0  0  0  0  0  0  0  0  0
   -0.6220    2.1490    3.0730 H   0  0  0  0  0  0  0  0  0  0  0  0
    0.8580    2.9680    1.3520 H   0  0  0  0  0  0  0  0  0  0  0  0
    1.0320    4.1680   -0.7750 H   0  0  0  0  0  0  0  0  0  0  0  0
   -0.9640    4.3230   -2.2780 H   0  0  0  0  0  0  0  0  0  0  0  0
   -3.0400    3.2990   -1.6380 H   0  0  0  0  0  0  0  0  0  0  0  0
   -3.2260    2.0790    0.5210 H   0  0  0  0  0  0  0  0  0  0  0  0
   -1.0060   -1.8270   -2.4410 C   0  0  0  0  0  0  0  0  0  0  0  0
   -2.3960   -1.5860   -1.9330 C   0  0  1  0  0  0  0  0  0  0  0  0
   -3.2790   -2.2380   -2.7780 O   0  0  0  0  0  0  0  0  0  0  0  0
   -2.5650   -2.0290   -0.4950 C   0  0  2  0  0  0  0  0  0  0  0  0
   -1.6010   -1.3000    0.3420 N   0  0  0  0  0  0  0  0  0  0  0  0
   -2.2160   -3.4700   -0.4230 C   0  0  0  0  0  0  0  0  0  0  0  0
   -2.8920   -4.3020   -1.0600 O   0  0  0  0  0  0  0  0  0  0  0  0
   -1.1550   -3.9480    0.3300 O   0  0  0  0  0  0  0  0  0  0  0  0
   -0.8250   -2.9100   -2.6640 H   0  0  0  0  0  0  0  0  0  0  0  0
   -0.2130   -1.3720   -1.8430 H   0  0  0  0  0  0  0  0  0  0  0  0
   -0.9520   -1.3290   -3.4520 H   0  0  0  0  0  0  0  0  0  0  0  0
   -2.5980   -0.4900   -2.0440 H   0  0  0  0  0  0  0  0  0  0  0  0
   -3.3270   -1.7260   -3.6180 H   0  0  0  0  0  0  0  0  0  0  0  0
   -3.5970   -1.8310   -0.1680 H   0  0  0  0  0  0  0  0  0  0  0  0
   -0.5770   -1.3560    0.1630 H   0  0  0  0  0  0  0  0  0  0  0  0
  1 10  1  0  0  0  0
  2  1  1  0  0  0  0
  2  3  2  0  0  0  0
  4  5  1  0  0  0  0
  4 12  1  0  0  0  0
  4  2  1  0  0  0  0
  5  6  1  0  0  0  0
  6 16  1  6  0  0  0
  6  8  1  0  0  0  0
  6  7  1  0  0  0  0
  7 17  1  0  0  0  0
  8  9  2  0  0  0  0
 11  1  1  0  0  0  0
 13  4  1  0  0  0  0
 14  5  1  0  0  0  0
 15  5  1  0  0  0  0
 18  7  1  0  0  0  0
 19 20  1  0  0  0  0
 19  8  1  0  0  0  0
 20 21  1  0  0  0  0
 20 31  1  1  0  0  0
 21 32  1  0  0  0  0
 21 33  1  0  0  0  0
 22 21  1  0  0  0  0
 23 22  1  0  0  0  0
 23 34  1  0  0  0  0
 24 23  2  0  0  0  0
 25 26  2  0  0  0  0
 25 24  1  0  0  0  0
 26 27  1  0  0  0  0
 27 38  1  0  0  0  0
 27 22  2  0  0  0  0
 28 29  2  0  0  0  0
 28 20  1  0  0  0  0
 30 19  1  0  0  0  0
 35 24  1  0  0  0  0
 36 25  1  0  0  0  0
 37 26  1  0  0  0  0
 39 40  1  0  0  0  0
 39 48  1  0  0  0  0
 40 50  1  6  0  0  0
 40 42  1  0  0  0  0
 41 40  1  0  0  0  0
 42 44  1  0  0  0  0
 42 52  1  1  0  0  0
 42 43  1  0  0  0  0
 43 28  1  0  0  0  0
 44 46  1  0  0  0  0
 45 44  2  0  0  0  0
 47 39  1  0  0  0  0
 49 39  1  0  0  0  0
 51 41  1  0  0  0  0
 53 43  1  0  0  0  0
M  END
$$$$
