QFV.pdb
 OpenBabel07022418333D

 55 55  0  0  1  0  0  0  0  0999 V2000
    3.2550   -4.1120    1.7930 N   0  0  0  0  0  0  0  0  0  0  0  0
    3.2620   -2.8860    1.0470 C   0  0  0  0  0  0  0  0  0  0  0  0
    2.1640   -2.5540    0.5580 O   0  0  0  0  0  0  0  0  0  0  0  0
    4.4570   -2.0790    0.8580 C   0  0  0  0  0  0  0  0  0  0  0  0
    4.2910   -0.6170    0.6050 C   0  0  0  0  0  0  0  0  0  0  0  0
    3.6780    0.1760    1.7110 C   0  0  2  0  0  0  0  0  0  0  0  0
    4.5280   -0.0200    2.8790 N   0  0  0  0  0  0  0  0  0  0  0  0
    2.2920   -0.1580    2.0090 C   0  0  0  0  0  0  0  0  0  0  0  0
    1.9330   -0.8130    3.0450 O   0  0  0  0  0  0  0  0  0  0  0  0
    2.8150   -4.9770    1.4350 H   0  0  0  0  0  0  0  0  0  0  0  0
    3.7070   -4.1220    2.7210 H   0  0  0  0  0  0  0  0  0  0  0  0
    5.0840   -2.5480    0.0340 H   0  0  0  0  0  0  0  0  0  0  0  0
    5.0920   -2.2260    1.7960 H   0  0  0  0  0  0  0  0  0  0  0  0
    5.2630   -0.1340    0.3090 H   0  0  0  0  0  0  0  0  0  0  0  0
    3.6360   -0.5490   -0.3210 H   0  0  0  0  0  0  0  0  0  0  0  0
    3.7730    1.2730    1.3980 H   0  0  0  0  0  0  0  0  0  0  0  0
    5.4310    0.4820    2.8100 H   0  0  0  0  0  0  0  0  0  0  0  0
    4.0110    0.1550    3.7590 H   0  0  0  0  0  0  0  0  0  0  0  0
    1.1980    0.2330    1.1520 N   0  0  0  0  0  0  0  0  0  0  0  0
   -0.1820   -0.1050    1.4690 C   0  0  1  0  0  0  0  0  0  0  0  0
   -0.9480    1.1600    1.8580 C   0  0  0  0  0  0  0  0  0  0  0  0
   -0.9730    2.1720    0.7980 C   0  0  0  0  0  0  0  0  0  0  0  0
    0.0210    3.1440    0.6970 C   0  0  0  0  0  0  0  0  0  0  0  0
    0.0050    4.1010   -0.2960 C   0  0  0  0  0  0  0  0  0  0  0  0
   -1.0010    4.1400   -1.2380 C   0  0  0  0  0  0  0  0  0  0  0  0
   -1.9900    3.1850   -1.1490 C   0  0  0  0  0  0  0  0  0  0  0  0
   -1.9770    2.2120   -0.1440 C   0  0  0  0  0  0  0  0  0  0  0  0
   -0.7750   -0.7920    0.3010 C   0  0  0  0  0  0  0  0  0  0  0  0
   -0.1220   -0.9710   -0.7840 O   0  0  0  0  0  0  0  0  0  0  0  0
    1.4170    0.7710    0.2880 H   0  0  0  0  0  0  0  0  0  0  0  0
   -0.2240   -0.7300    2.4080 H   0  0  0  0  0  0  0  0  0  0  0  0
   -0.4780    1.5090    2.8060 H   0  0  0  0  0  0  0  0  0  0  0  0
   -1.9670    0.8060    2.1420 H   0  0  0  0  0  0  0  0  0  0  0  0
    0.8010    3.0880    1.4520 H   0  0  0  0  0  0  0  0  0  0  0  0
    0.7950    4.8460   -0.3500 H   0  0  0  0  0  0  0  0  0  0  0  0
   -1.0070    4.8920   -2.0110 H   0  0  0  0  0  0  0  0  0  0  0  0
   -2.7890    3.1990   -1.8800 H   0  0  0  0  0  0  0  0  0  0  0  0
   -2.7650    1.4770   -0.0980 H   0  0  0  0  0  0  0  0  0  0  0  0
   -3.7010   -3.5700    0.6710 C   0  0  0  0  0  0  0  0  0  0  0  0
   -2.7640   -3.4420   -0.5100 C   0  0  0  0  0  0  0  0  0  0  0  0
   -3.3390   -4.2710   -1.6310 C   0  0  0  0  0  0  0  0  0  0  0  0
   -2.6400   -1.9780   -0.8870 C   0  0  2  0  0  0  0  0  0  0  0  0
   -2.1100   -1.3100    0.2810 N   0  0  0  0  0  0  0  0  0  0  0  0
   -3.8960   -1.4220   -1.3970 C   0  0  0  0  0  0  0  0  0  0  0  0
   -4.5200   -0.4540   -0.8990 O   0  0  0  0  0  0  0  0  0  0  0  0
   -4.4460   -2.0150   -2.5260 O   0  0  0  0  0  0  0  0  0  0  0  0
   -3.2450   -3.1840    1.6070 H   0  0  0  0  0  0  0  0  0  0  0  0
   -4.6380   -3.0290    0.4090 H   0  0  0  0  0  0  0  0  0  0  0  0
   -3.9560   -4.6430    0.7790 H   0  0  0  0  0  0  0  0  0  0  0  0
   -1.7670   -3.8590   -0.2650 H   0  0  0  0  0  0  0  0  0  0  0  0
   -4.4510   -4.2820   -1.5270 H   0  0  0  0  0  0  0  0  0  0  0  0
   -3.0220   -5.3340   -1.4390 H   0  0  0  0  0  0  0  0  0  0  0  0
   -3.0050   -3.9780   -2.6260 H   0  0  0  0  0  0  0  0  0  0  0  0
   -1.8900   -1.9490   -1.7170 H   0  0  0  0  0  0  0  0  0  0  0  0
   -2.6710   -1.1870    1.1310 H   0  0  0  0  0  0  0  0  0  0  0  0
  1 11  1  0  0  0  0
  2  1  1  0  0  0  0
  3  2  2  0  0  0  0
  4  2  1  0  0  0  0
  4 13  1  0  0  0  0
  5  4  1  0  0  0  0
  5  6  1  0  0  0  0
  6 16  1  6  0  0  0
  6  8  1  0  0  0  0
  6  7  1  0  0  0  0
  7 18  1  0  0  0  0
  8  9  2  0  0  0  0
 10  1  1  0  0  0  0
 12  4  1  0  0  0  0
 14  5  1  0  0  0  0
 15  5  1  0  0  0  0
 17  7  1  0  0  0  0
 19 20  1  0  0  0  0
 19  8  1  0  0  0  0
 20 21  1  0  0  0  0
 20 31  1  1  0  0  0
 21 33  1  0  0  0  0
 21 32  1  0  0  0  0
 22 21  1  0  0  0  0
 23 22  1  0  0  0  0
 23 34  1  0  0  0  0
 24 23  2  0  0  0  0
 25 26  2  0  0  0  0
 25 24  1  0  0  0  0
 26 27  1  0  0  0  0
 27 38  1  0  0  0  0
 27 22  2  0  0  0  0
 28 20  1  0  0  0  0
 29 28  2  0  0  0  0
 30 19  1  0  0  0  0
 35 24  1  0  0  0  0
 36 25  1  0  0  0  0
 37 26  1  0  0  0  0
 39 49  1  0  0  0  0
 39 47  1  0  0  0  0
 40 50  1  0  0  0  0
 40 39  1  0  0  0  0
 41 51  1  0  0  0  0
 41 52  1  0  0  0  0
 41 40  1  0  0  0  0
 42 54  1  6  0  0  0
 42 40  1  0  0  0  0
 42 43  1  0  0  0  0
 43 28  1  0  0  0  0
 43 55  1  0  0  0  0
 44 45  1  0  0  0  0
 44 42  1  0  0  0  0
 46 44  2  0  0  0  0
 48 39  1  0  0  0  0
 53 41  1  0  0  0  0
M  END
$$$$
