QFY.pdb
 OpenBabel07022418333D

 60 61  0  0  1  0  0  0  0  0999 V2000
    2.7390    0.9060    6.5180 N   0  0  0  0  0  0  0  0  0  0  0  0
    3.3190    1.0640    5.2520 C   0  0  0  0  0  0  0  0  0  0  0  0
    3.9920    2.0960    5.0120 O   0  0  0  0  0  0  0  0  0  0  0  0
    3.1800    0.0630    4.1540 C   0  0  0  0  0  0  0  0  0  0  0  0
    3.9050    0.5010    2.9250 C   0  0  0  0  0  0  0  0  0  0  0  0
    3.8010   -0.4980    1.7940 C   0  0  2  0  0  0  0  0  0  0  0  0
    4.5400   -0.0010    0.6210 N   0  0  0  0  0  0  0  0  0  0  0  0
    2.3990   -0.8020    1.4120 C   0  0  0  0  0  0  0  0  0  0  0  0
    1.5430   -1.3080    2.1770 O   0  0  0  0  0  0  0  0  0  0  0  0
    2.6320   -0.0720    6.9100 H   0  0  0  0  0  0  0  0  0  0  0  0
    2.3980    1.6790    7.1200 H   0  0  0  0  0  0  0  0  0  0  0  0
    3.5040   -0.9470    4.4590 H   0  0  0  0  0  0  0  0  0  0  0  0
    2.0780    0.0430    3.9400 H   0  0  0  0  0  0  0  0  0  0  0  0
    3.3610    1.4180    2.5460 H   0  0  0  0  0  0  0  0  0  0  0  0
    4.9410    0.8170    3.1090 H   0  0  0  0  0  0  0  0  0  0  0  0
    4.2630   -1.4440    2.1620 H   0  0  0  0  0  0  0  0  0  0  0  0
    4.8870   -0.8580    0.1300 H   0  0  0  0  0  0  0  0  0  0  0  0
    5.3900    0.4680    1.0230 H   0  0  0  0  0  0  0  0  0  0  0  0
    1.9550   -0.5040    0.0660 N   0  0  0  0  0  0  0  0  0  0  0  0
    0.6000   -0.7910   -0.3220 C   0  0  1  0  0  0  0  0  0  0  0  0
   -0.1120    0.5120   -0.6630 C   0  0  0  0  0  0  0  0  0  0  0  0
   -0.1320    1.4280    0.5050 C   0  0  0  0  0  0  0  0  0  0  0  0
   -1.1580    1.4220    1.4360 C   0  0  0  0  0  0  0  0  0  0  0  0
   -1.1780    2.2710    2.5190 C   0  0  0  0  0  0  0  0  0  0  0  0
   -0.1490    3.1770    2.7150 C   0  0  0  0  0  0  0  0  0  0  0  0
    0.8930    3.2030    1.7940 C   0  0  0  0  0  0  0  0  0  0  0  0
    0.8830    2.3380    0.7190 C   0  0  0  0  0  0  0  0  0  0  0  0
    0.5150   -1.7620   -1.4290 C   0  0  0  0  0  0  0  0  0  0  0  0
    1.5340   -2.2740   -1.9640 O   0  0  0  0  0  0  0  0  0  0  0  0
    2.6670   -0.0830   -0.5700 H   0  0  0  0  0  0  0  0  0  0  0  0
    0.0500   -1.2310    0.5360 H   0  0  0  0  0  0  0  0  0  0  0  0
   -1.1780    0.2330   -0.8710 H   0  0  0  0  0  0  0  0  0  0  0  0
    0.2660    0.9770   -1.5800 H   0  0  0  0  0  0  0  0  0  0  0  0
   -1.9860    0.7340    1.3290 H   0  0  0  0  0  0  0  0  0  0  0  0
   -1.9720    2.2790    3.2540 H   0  0  0  0  0  0  0  0  0  0  0  0
   -0.1510    3.8500    3.5600 H   0  0  0  0  0  0  0  0  0  0  0  0
    1.6980    3.8990    1.9320 H   0  0  0  0  0  0  0  0  0  0  0  0
    1.7160    2.3990    0.0340 H   0  0  0  0  0  0  0  0  0  0  0  0
   -6.7380   -2.8600   -0.4230 O   0  0  0  0  0  0  0  0  0  0  0  0
   -5.5010   -3.2210   -0.9470 C   0  0  0  0  0  0  0  0  0  0  0  0
   -5.3530   -3.5640   -2.2660 C   0  0  0  0  0  0  0  0  0  0  0  0
   -4.1390   -3.9200   -2.7880 C   0  0  0  0  0  0  0  0  0  0  0  0
   -3.0410   -3.9330   -1.9690 C   0  0  0  0  0  0  0  0  0  0  0  0
   -1.7040   -4.3120   -2.4970 C   0  0  0  0  0  0  0  0  0  0  0  0
   -0.9320   -3.0940   -3.0090 C   0  0  2  0  0  0  0  0  0  0  0  0
   -0.7490   -2.1630   -1.9430 N   0  0  0  0  0  0  0  0  0  0  0  0
   -1.6800   -2.4480   -4.1090 C   0  0  0  0  0  0  0  0  0  0  0  0
   -1.9540   -3.0880   -5.1780 O   0  0  0  0  0  0  0  0  0  0  0  0
   -3.2080   -3.5820   -0.6310 C   0  0  0  0  0  0  0  0  0  0  0  0
   -4.4100   -3.2260   -0.0980 C   0  0  0  0  0  0  0  0  0  0  0  0
   -2.0850   -1.1420   -3.9770 O   0  0  0  0  0  0  0  0  0  0  0  0
   -6.7840   -2.2810    0.4050 H   0  0  0  0  0  0  0  0  0  0  0  0
   -6.2330   -3.5530   -2.9220 H   0  0  0  0  0  0  0  0  0  0  0  0
   -4.0820   -4.1840   -3.8440 H   0  0  0  0  0  0  0  0  0  0  0  0
   -1.7810   -5.0290   -3.3400 H   0  0  0  0  0  0  0  0  0  0  0  0
   -1.1100   -4.7530   -1.6570 H   0  0  0  0  0  0  0  0  0  0  0  0
    0.0270   -3.4920   -3.4130 H   0  0  0  0  0  0  0  0  0  0  0  0
   -1.6130   -1.7500   -1.5140 H   0  0  0  0  0  0  0  0  0  0  0  0
   -2.3490   -3.5900    0.0200 H   0  0  0  0  0  0  0  0  0  0  0  0
   -4.5290   -2.9510    0.9560 H   0  0  0  0  0  0  0  0  0  0  0  0
  1 10  1  0  0  0  0
  1 11  1  0  0  0  0
  2  1  1  0  0  0  0
  3  2  2  0  0  0  0
  4 12  1  0  0  0  0
  4  2  1  0  0  0  0
  5 15  1  0  0  0  0
  5  4  1  0  0  0  0
  6 16  1  1  0  0  0
  6  5  1  0  0  0  0
  7 18  1  0  0  0  0
  7  6  1  0  0  0  0
  8  6  1  0  0  0  0
  8  9  2  0  0  0  0
 13  4  1  0  0  0  0
 14  5  1  0  0  0  0
 17  7  1  0  0  0  0
 19  8  1  0  0  0  0
 20 19  1  0  0  0  0
 20 31  1  1  0  0  0
 21 20  1  0  0  0  0
 21 22  1  0  0  0  0
 22 27  2  0  0  0  0
 22 23  1  0  0  0  0
 23 24  2  0  0  0  0
 24 25  1  0  0  0  0
 24 35  1  0  0  0  0
 25 36  1  0  0  0  0
 26 37  1  0  0  0  0
 26 25  2  0  0  0  0
 27 26  1  0  0  0  0
 28 20  1  0  0  0  0
 29 28  2  0  0  0  0
 30 19  1  0  0  0  0
 32 21  1  0  0  0  0
 33 21  1  0  0  0  0
 34 23  1  0  0  0  0
 38 27  1  0  0  0  0
 39 52  1  0  0  0  0
 40 39  1  0  0  0  0
 40 50  1  0  0  0  0
 41 40  2  0  0  0  0
 42 41  1  0  0  0  0
 42 43  2  0  0  0  0
 43 49  1  0  0  0  0
 44 43  1  0  0  0  0
 44 56  1  0  0  0  0
 45 57  1  6  0  0  0
 45 44  1  0  0  0  0
 45 46  1  0  0  0  0
 46 58  1  0  0  0  0
 46 28  1  0  0  0  0
 47 51  1  0  0  0  0
 47 45  1  0  0  0  0
 48 47  2  0  0  0  0
 49 50  2  0  0  0  0
 49 59  1  0  0  0  0
 50 60  1  0  0  0  0
 53 41  1  0  0  0  0
 54 42  1  0  0  0  0
 55 44  1  0  0  0  0
M  END
$$$$
