QGA.pdb
 OpenBabel07022418313D

 36 35  0  0  1  0  0  0  0  0999 V2000
   -3.7820   -1.8960    1.1150 N   0  0  0  0  0  0  0  0  0  0  0  0
   -2.4770   -2.3980    1.3310 C   0  0  0  0  0  0  0  0  0  0  0  0
   -2.1870   -2.8460    2.4620 O   0  0  0  0  0  0  0  0  0  0  0  0
   -1.4320   -2.4190    0.2730 C   0  0  0  0  0  0  0  0  0  0  0  0
   -0.1880   -3.0070    0.8320 C   0  0  0  0  0  0  0  0  0  0  0  0
    0.9700   -3.1230   -0.1080 C   0  0  2  0  0  0  0  0  0  0  0  0
    2.0540   -3.7250    0.7020 N   0  0  0  0  0  0  0  0  0  0  0  0
    1.4910   -1.8360   -0.5970 C   0  0  0  0  0  0  0  0  0  0  0  0
    2.5790   -1.3340   -0.1440 O   0  0  0  0  0  0  0  0  0  0  0  0
   -4.2320   -2.1080    0.1970 H   0  0  0  0  0  0  0  0  0  0  0  0
   -4.2770   -1.3370    1.8370 H   0  0  0  0  0  0  0  0  0  0  0  0
   -1.3190   -1.3550   -0.0380 H   0  0  0  0  0  0  0  0  0  0  0  0
   -1.7850   -3.0660   -0.5670 H   0  0  0  0  0  0  0  0  0  0  0  0
   -0.4420   -4.0510    1.1670 H   0  0  0  0  0  0  0  0  0  0  0  0
    0.1360   -2.4830    1.7580 H   0  0  0  0  0  0  0  0  0  0  0  0
    0.7710   -3.8370   -0.9260 H   0  0  0  0  0  0  0  0  0  0  0  0
    2.9320   -3.6800    0.1070 H   0  0  0  0  0  0  0  0  0  0  0  0
    2.2220   -3.0110    1.4700 H   0  0  0  0  0  0  0  0  0  0  0  0
    0.7810   -1.1100   -1.6050 N   0  0  0  0  0  0  0  0  0  0  0  0
    1.3110    0.1550   -2.0510 C   0  0  0  0  0  0  0  0  0  0  0  0
    1.3690    1.1900   -0.9880 C   0  0  0  0  0  0  0  0  0  0  0  0
    1.8610    2.3450   -1.2410 O   0  0  0  0  0  0  0  0  0  0  0  0
   -0.1090   -1.4570   -2.0460 H   0  0  0  0  0  0  0  0  0  0  0  0
    2.3260    0.0110   -2.5230 H   0  0  0  0  0  0  0  0  0  0  0  0
    0.6890    0.5770   -2.8780 H   0  0  0  0  0  0  0  0  0  0  0  0
   -0.3230    2.5120    1.8460 C   0  0  0  0  0  0  0  0  0  0  0  0
    1.0100    2.0780    1.3110 C   0  0  2  0  0  0  0  0  0  0  0  0
    0.9080    1.0130    0.3400 N   0  0  0  0  0  0  0  0  0  0  0  0
    1.8900    1.7040    2.4500 C   0  0  0  0  0  0  0  0  0  0  0  0
    2.4600    0.5850    2.5240 O   0  0  0  0  0  0  0  0  0  0  0  0
    2.1120    2.6000    3.4870 O   0  0  0  0  0  0  0  0  0  0  0  0
   -1.0710    1.7050    1.9010 H   0  0  0  0  0  0  0  0  0  0  0  0
   -0.7330    3.3940    1.2810 H   0  0  0  0  0  0  0  0  0  0  0  0
   -0.1620    2.8850    2.8790 H   0  0  0  0  0  0  0  0  0  0  0  0
    1.4780    2.9610    0.8320 H   0  0  0  0  0  0  0  0  0  0  0  0
    0.4740    0.1000    0.6140 H   0  0  0  0  0  0  0  0  0  0  0  0
  1  2  1  0  0  0  0
  1 11  1  0  0  0  0
  2  3  2  0  0  0  0
  4  5  1  0  0  0  0
  4  2  1  0  0  0  0
  5 14  1  0  0  0  0
  5 15  1  0  0  0  0
  6 16  1  6  0  0  0
  6  7  1  0  0  0  0
  6  5  1  0  0  0  0
  7 18  1  0  0  0  0
  8  9  2  0  0  0  0
  8  6  1  0  0  0  0
 10  1  1  0  0  0  0
 12  4  1  0  0  0  0
 13  4  1  0  0  0  0
 17  7  1  0  0  0  0
 19  8  1  0  0  0  0
 20 19  1  0  0  0  0
 20 21  1  0  0  0  0
 21 28  1  0  0  0  0
 22 21  2  0  0  0  0
 23 19  1  0  0  0  0
 24 20  1  0  0  0  0
 25 20  1  0  0  0  0
 26 32  1  0  0  0  0
 26 34  1  0  0  0  0
 27 35  1  6  0  0  0
 27 26  1  0  0  0  0
 27 29  1  0  0  0  0
 28 36  1  0  0  0  0
 28 27  1  0  0  0  0
 29 30  2  0  0  0  0
 29 31  1  0  0  0  0
 33 26  1  0  0  0  0
M  END
$$$$
