QGD.pdb
 OpenBabel07022418313D

 39 38  0  0  1  0  0  0  0  0999 V2000
    3.1160   -6.4310    1.0820 N   0  0  0  0  0  0  0  0  0  0  0  0
    2.9050   -5.2020    0.4350 C   0  0  0  0  0  0  0  0  0  0  0  0
    3.6650   -4.8890   -0.5170 O   0  0  0  0  0  0  0  0  0  0  0  0
    1.8430   -4.2390    0.7950 C   0  0  0  0  0  0  0  0  0  0  0  0
    1.8440   -3.0140   -0.0540 C   0  0  0  0  0  0  0  0  0  0  0  0
    0.7020   -2.1230    0.4340 C   0  0  2  0  0  0  0  0  0  0  0  0
   -0.5110   -2.8890    0.2750 N   0  0  0  0  0  0  0  0  0  0  0  0
    0.6550   -0.8480   -0.3250 C   0  0  0  0  0  0  0  0  0  0  0  0
    1.5710   -0.0170   -0.3490 O   0  0  0  0  0  0  0  0  0  0  0  0
    2.8690   -6.5430    2.0760 H   0  0  0  0  0  0  0  0  0  0  0  0
    3.5190   -7.2250    0.5630 H   0  0  0  0  0  0  0  0  0  0  0  0
    1.9180   -3.9190    1.8550 H   0  0  0  0  0  0  0  0  0  0  0  0
    0.8560   -4.7320    0.6830 H   0  0  0  0  0  0  0  0  0  0  0  0
    1.6070   -3.2250   -1.1270 H   0  0  0  0  0  0  0  0  0  0  0  0
    2.8120   -2.4770   -0.0580 H   0  0  0  0  0  0  0  0  0  0  0  0
    0.8550   -1.9590    1.5180 H   0  0  0  0  0  0  0  0  0  0  0  0
   -0.6910   -3.2030   -0.6860 H   0  0  0  0  0  0  0  0  0  0  0  0
   -1.2850   -2.3500    0.7110 H   0  0  0  0  0  0  0  0  0  0  0  0
   -0.5410   -0.5860   -1.0690 N   0  0  0  0  0  0  0  0  0  0  0  0
   -0.7110    0.6220   -1.8370 C   0  0  0  0  0  0  0  0  0  0  0  0
   -0.7120    1.8640   -1.0600 C   0  0  0  0  0  0  0  0  0  0  0  0
   -0.8120    2.9600   -1.6960 O   0  0  0  0  0  0  0  0  0  0  0  0
   -1.3340   -1.3000   -1.0620 H   0  0  0  0  0  0  0  0  0  0  0  0
   -1.7100    0.5840   -2.3640 H   0  0  0  0  0  0  0  0  0  0  0  0
    0.0210    0.6660   -2.6950 H   0  0  0  0  0  0  0  0  0  0  0  0
   -0.6100    1.8940    0.3510 N   0  0  0  0  0  0  0  0  0  0  0  0
   -0.6070    3.1340    1.0940 C   0  0  1  0  0  0  0  0  0  0  0  0
   -1.7750    3.2000    2.0400 C   0  0  0  0  0  0  0  0  0  0  0  0
   -1.8230    2.1530    3.0480 C   0  0  0  0  0  0  0  0  0  0  0  0
   -0.9340    1.2840    3.1250 O   0  0  0  0  0  0  0  0  0  0  0  0
    0.6860    3.3400    1.7860 C   0  0  0  0  0  0  0  0  0  0  0  0
    1.5740    2.4710    1.6570 O   0  0  0  0  0  0  0  0  0  0  0  0
   -2.8810    2.1240    3.9410 O   0  0  0  0  0  0  0  0  0  0  0  0
    0.9440    4.4480    2.5630 O   0  0  0  0  0  0  0  0  0  0  0  0
   -0.5480    1.0080    0.8720 H   0  0  0  0  0  0  0  0  0  0  0  0
   -0.6830    3.9650    0.3310 H   0  0  0  0  0  0  0  0  0  0  0  0
   -2.7160    3.1590    1.4480 H   0  0  0  0  0  0  0  0  0  0  0  0
   -1.7720    4.2330    2.4920 H   0  0  0  0  0  0  0  0  0  0  0  0
   -2.9610    1.4170    4.6650 H   0  0  0  0  0  0  0  0  0  0  0  0
  1 10  1  0  0  0  0
  2  4  1  0  0  0  0
  2  1  1  0  0  0  0
  3  2  2  0  0  0  0
  4 12  1  0  0  0  0
  5  6  1  0  0  0  0
  5  4  1  0  0  0  0
  6 16  1  1  0  0  0
  7  6  1  0  0  0  0
  7 18  1  0  0  0  0
  8  6  1  0  0  0  0
  9  8  2  0  0  0  0
 11  1  1  0  0  0  0
 13  4  1  0  0  0  0
 14  5  1  0  0  0  0
 15  5  1  0  0  0  0
 17  7  1  0  0  0  0
 19 23  1  0  0  0  0
 19  8  1  0  0  0  0
 20 19  1  0  0  0  0
 20 21  1  0  0  0  0
 21 26  1  0  0  0  0
 22 21  2  0  0  0  0
 24 20  1  0  0  0  0
 25 20  1  0  0  0  0
 26 35  1  0  0  0  0
 26 27  1  0  0  0  0
 27 36  1  6  0  0  0
 27 31  1  0  0  0  0
 27 28  1  0  0  0  0
 28 38  1  0  0  0  0
 28 29  1  0  0  0  0
 29 30  2  0  0  0  0
 29 33  1  0  0  0  0
 31 34  1  0  0  0  0
 32 31  2  0  0  0  0
 33 39  1  0  0  0  0
 37 28  1  0  0  0  0
M  END
$$$$
