QGF.pdb
 OpenBabel07022418313D

 46 46  0  0  1  0  0  0  0  0999 V2000
    2.4220   -2.9570    2.5240 N   0  0  0  0  0  0  0  0  0  0  0  0
    3.0850   -2.4630    1.3810 C   0  0  0  0  0  0  0  0  0  0  0  0
    3.0090   -3.1190    0.3180 O   0  0  0  0  0  0  0  0  0  0  0  0
    3.8560   -1.1970    1.4320 C   0  0  0  0  0  0  0  0  0  0  0  0
    4.4700   -0.7870    0.1490 C   0  0  0  0  0  0  0  0  0  0  0  0
    3.5440   -0.5190   -0.9990 C   0  0  2  0  0  0  0  0  0  0  0  0
    4.3780   -0.1470   -2.1770 N   0  0  0  0  0  0  0  0  0  0  0  0
    2.6230    0.6090   -0.7180 C   0  0  0  0  0  0  0  0  0  0  0  0
    2.7910    1.7560   -1.2310 O   0  0  0  0  0  0  0  0  0  0  0  0
    2.7330   -2.6600    3.4640 H   0  0  0  0  0  0  0  0  0  0  0  0
    1.6280   -3.6120    2.4390 H   0  0  0  0  0  0  0  0  0  0  0  0
    4.7190   -1.3160    2.1650 H   0  0  0  0  0  0  0  0  0  0  0  0
    3.2720   -0.3600    1.8670 H   0  0  0  0  0  0  0  0  0  0  0  0
    5.2350   -1.5440   -0.1970 H   0  0  0  0  0  0  0  0  0  0  0  0
    5.0380    0.1570    0.3240 H   0  0  0  0  0  0  0  0  0  0  0  0
    3.0020   -1.4170   -1.2600 H   0  0  0  0  0  0  0  0  0  0  0  0
    3.7010    0.1630   -2.9010 H   0  0  0  0  0  0  0  0  0  0  0  0
    4.7730   -1.0620   -2.4990 H   0  0  0  0  0  0  0  0  0  0  0  0
    1.5020    0.4870    0.1330 N   0  0  0  0  0  0  0  0  0  0  0  0
    0.6140    1.5800    0.4080 C   0  0  0  0  0  0  0  0  0  0  0  0
   -0.5050    1.2890    1.3140 C   0  0  0  0  0  0  0  0  0  0  0  0
   -1.3480    2.2190    1.6110 O   0  0  0  0  0  0  0  0  0  0  0  0
    1.2980   -0.4290    0.5710 H   0  0  0  0  0  0  0  0  0  0  0  0
    0.1400    1.8350   -0.5880 H   0  0  0  0  0  0  0  0  0  0  0  0
    1.1570    2.5130    0.6780 H   0  0  0  0  0  0  0  0  0  0  0  0
   -0.7930    0.0500    1.9380 N   0  0  0  0  0  0  0  0  0  0  0  0
   -1.9500   -0.1150    2.8290 C   0  0  1  0  0  0  0  0  0  0  0  0
   -2.8480   -1.2010    2.2230 C   0  0  0  0  0  0  0  0  0  0  0  0
   -3.2950   -0.7700    0.8510 C   0  0  0  0  0  0  0  0  0  0  0  0
   -2.5600   -1.0860   -0.2670 C   0  0  0  0  0  0  0  0  0  0  0  0
   -2.9640   -0.6940   -1.5200 C   0  0  0  0  0  0  0  0  0  0  0  0
   -4.1260    0.0260   -1.6590 C   0  0  0  0  0  0  0  0  0  0  0  0
   -4.8640    0.3410   -0.5220 C   0  0  0  0  0  0  0  0  0  0  0  0
   -4.4530   -0.0530    0.7220 C   0  0  0  0  0  0  0  0  0  0  0  0
   -1.5530   -0.5800    4.1580 C   0  0  0  0  0  0  0  0  0  0  0  0
   -0.3500   -0.7950    4.4410 O   0  0  0  0  0  0  0  0  0  0  0  0
   -2.5080   -0.7910    5.1310 O   0  0  0  0  0  0  0  0  0  0  0  0
   -0.1770   -0.7740    1.7700 H   0  0  0  0  0  0  0  0  0  0  0  0
   -2.4670    0.8530    2.8780 H   0  0  0  0  0  0  0  0  0  0  0  0
   -2.2490   -2.1300    2.1600 H   0  0  0  0  0  0  0  0  0  0  0  0
   -3.7240   -1.3880    2.8650 H   0  0  0  0  0  0  0  0  0  0  0  0
   -1.6520   -1.6490   -0.1610 H   0  0  0  0  0  0  0  0  0  0  0  0
   -2.4140   -0.9230   -2.4230 H   0  0  0  0  0  0  0  0  0  0  0  0
   -4.4810    0.3540   -2.6270 H   0  0  0  0  0  0  0  0  0  0  0  0
   -5.7800    0.9090   -0.6250 H   0  0  0  0  0  0  0  0  0  0  0  0
   -5.0250    0.1890    1.6220 H   0  0  0  0  0  0  0  0  0  0  0  0
  1 10  1  0  0  0  0
  2  4  1  0  0  0  0
  2  1  1  0  0  0  0
  3  2  2  0  0  0  0
  4 13  1  0  0  0  0
  4 12  1  0  0  0  0
  5 15  1  0  0  0  0
  5  4  1  0  0  0  0
  6 16  1  6  0  0  0
  6  8  1  0  0  0  0
  6  5  1  0  0  0  0
  7  6  1  0  0  0  0
  8 19  1  0  0  0  0
  9  8  2  0  0  0  0
 11  1  1  0  0  0  0
 14  5  1  0  0  0  0
 17  7  1  0  0  0  0
 18  7  1  0  0  0  0
 19 20  1  0  0  0  0
 19 23  1  0  0  0  0
 20 25  1  0  0  0  0
 20 21  1  0  0  0  0
 21 22  2  0  0  0  0
 21 26  1  0  0  0  0
 24 20  1  0  0  0  0
 26 27  1  0  0  0  0
 27 39  1  1  0  0  0
 27 35  1  0  0  0  0
 28 27  1  0  0  0  0
 28 41  1  0  0  0  0
 29 28  1  0  0  0  0
 30 42  1  0  0  0  0
 30 29  2  0  0  0  0
 31 30  1  0  0  0  0
 32 31  2  0  0  0  0
 32 33  1  0  0  0  0
 33 34  2  0  0  0  0
 34 29  1  0  0  0  0
 34 46  1  0  0  0  0
 35 36  2  0  0  0  0
 35 37  1  0  0  0  0
 38 26  1  0  0  0  0
 40 28  1  0  0  0  0
 43 31  1  0  0  0  0
 44 32  1  0  0  0  0
 45 33  1  0  0  0  0
M  END
$$$$
