QGG.pdb
 OpenBabel07022418313D

 33 32  0  0  1  0  0  0  0  0999 V2000
   -0.9590   -1.3590    3.3500 N   0  0  0  0  0  0  0  0  0  0  0  0
   -0.0330   -2.0700    2.5430 C   0  0  0  0  0  0  0  0  0  0  0  0
   -0.4280   -3.1580    2.0550 O   0  0  0  0  0  0  0  0  0  0  0  0
    1.3290   -1.5810    2.2730 C   0  0  0  0  0  0  0  0  0  0  0  0
    2.1360   -2.4710    1.4080 C   0  0  0  0  0  0  0  0  0  0  0  0
    1.6030   -2.7440    0.0300 C   0  0  2  0  0  0  0  0  0  0  0  0
    2.6120   -3.6530   -0.5690 N   0  0  0  0  0  0  0  0  0  0  0  0
    1.5770   -1.5550   -0.8540 C   0  0  0  0  0  0  0  0  0  0  0  0
    2.4050   -1.3760   -1.8070 O   0  0  0  0  0  0  0  0  0  0  0  0
   -1.9610   -1.3330    3.0430 H   0  0  0  0  0  0  0  0  0  0  0  0
   -0.6810   -0.8670    4.2270 H   0  0  0  0  0  0  0  0  0  0  0  0
    1.3250   -0.5070    1.9580 H   0  0  0  0  0  0  0  0  0  0  0  0
    1.8990   -1.5310    3.2570 H   0  0  0  0  0  0  0  0  0  0  0  0
    2.3690   -3.3900    1.9460 H   0  0  0  0  0  0  0  0  0  0  0  0
    3.1310   -1.9570    1.2520 H   0  0  0  0  0  0  0  0  0  0  0  0
    0.6530   -3.2630   -0.0150 H   0  0  0  0  0  0  0  0  0  0  0  0
    2.5600   -3.5930   -1.6090 H   0  0  0  0  0  0  0  0  0  0  0  0
    2.4670   -4.6250   -0.2150 H   0  0  0  0  0  0  0  0  0  0  0  0
    0.6020   -0.5050   -0.6990 N   0  0  0  0  0  0  0  0  0  0  0  0
    0.6090    0.6340   -1.5730 C   0  0  0  0  0  0  0  0  0  0  0  0
   -0.4380    1.6000   -1.2840 C   0  0  0  0  0  0  0  0  0  0  0  0
   -0.5100    2.6570   -2.0190 O   0  0  0  0  0  0  0  0  0  0  0  0
   -0.0780   -0.6300    0.0520 H   0  0  0  0  0  0  0  0  0  0  0  0
    0.4600    0.2660   -2.6230 H   0  0  0  0  0  0  0  0  0  0  0  0
    1.6300    1.0810   -1.5490 H   0  0  0  0  0  0  0  0  0  0  0  0
   -1.4230    1.5380   -0.2710 N   0  0  0  0  0  0  0  0  0  0  0  0
   -2.4170    2.6070   -0.1120 C   0  0  0  0  0  0  0  0  0  0  0  0
   -3.2880    2.2380    1.0230 C   0  0  0  0  0  0  0  0  0  0  0  0
   -4.2170    3.0240    1.3340 O   0  0  0  0  0  0  0  0  0  0  0  0
   -3.0960    1.0620    1.7310 O   0  0  0  0  0  0  0  0  0  0  0  0
   -1.4410    0.7210    0.3690 H   0  0  0  0  0  0  0  0  0  0  0  0
   -3.0290    2.6670   -1.0240 H   0  0  0  0  0  0  0  0  0  0  0  0
   -1.9340    3.5660    0.1440 H   0  0  0  0  0  0  0  0  0  0  0  0
  1 11  1  0  0  0  0
  2  1  1  0  0  0  0
  3  2  2  0  0  0  0
  4  2  1  0  0  0  0
  4 13  1  0  0  0  0
  5 14  1  0  0  0  0
  5  4  1  0  0  0  0
  6 16  1  1  0  0  0
  6  5  1  0  0  0  0
  7 18  1  0  0  0  0
  7  6  1  0  0  0  0
  8 19  1  0  0  0  0
  8  6  1  0  0  0  0
  9  8  2  0  0  0  0
 10  1  1  0  0  0  0
 12  4  1  0  0  0  0
 15  5  1  0  0  0  0
 17  7  1  0  0  0  0
 19 23  1  0  0  0  0
 20 25  1  0  0  0  0
 20 21  1  0  0  0  0
 20 19  1  0  0  0  0
 21 26  1  0  0  0  0
 22 21  2  0  0  0  0
 24 20  1  0  0  0  0
 26 27  1  0  0  0  0
 26 31  1  0  0  0  0
 27 33  1  0  0  0  0
 27 28  1  0  0  0  0
 28 29  2  0  0  0  0
 28 30  1  0  0  0  0
 32 27  1  0  0  0  0
M  END
$$$$
