QGH.pdb
 OpenBabel07022418313D

 43 43  0  0  1  0  0  0  0  0999 V2000
    1.2870   -6.5170   -1.2090 N   0  0  0  0  0  0  0  0  0  0  0  0
    1.0000   -5.4370   -2.0740 C   0  0  0  0  0  0  0  0  0  0  0  0
    0.2790   -5.6230   -3.0710 O   0  0  0  0  0  0  0  0  0  0  0  0
    1.5740   -4.1050   -1.7610 C   0  0  0  0  0  0  0  0  0  0  0  0
    1.1220   -3.1330   -2.8280 C   0  0  0  0  0  0  0  0  0  0  0  0
    1.6950   -1.7390   -2.5410 C   0  0  2  0  0  0  0  0  0  0  0  0
    3.1350   -1.7700   -2.5280 N   0  0  0  0  0  0  0  0  0  0  0  0
    1.1360   -1.2610   -1.2700 C   0  0  0  0  0  0  0  0  0  0  0  0
   -0.0930   -1.1490   -1.0630 O   0  0  0  0  0  0  0  0  0  0  0  0
    0.5560   -7.1690   -0.8520 H   0  0  0  0  0  0  0  0  0  0  0  0
    2.2750   -6.6930   -0.8950 H   0  0  0  0  0  0  0  0  0  0  0  0
    2.6900   -4.2110   -1.8610 H   0  0  0  0  0  0  0  0  0  0  0  0
    1.3620   -3.7610   -0.7460 H   0  0  0  0  0  0  0  0  0  0  0  0
    1.5030   -3.4900   -3.8070 H   0  0  0  0  0  0  0  0  0  0  0  0
    0.0300   -3.0420   -2.8500 H   0  0  0  0  0  0  0  0  0  0  0  0
    1.3920   -1.1090   -3.4110 H   0  0  0  0  0  0  0  0  0  0  0  0
    3.5610   -0.8820   -2.8240 H   0  0  0  0  0  0  0  0  0  0  0  0
    3.4240   -2.5330   -3.2050 H   0  0  0  0  0  0  0  0  0  0  0  0
    2.0200   -0.9030   -0.2100 N   0  0  0  0  0  0  0  0  0  0  0  0
    1.5140   -0.4280    1.0580 C   0  0  0  0  0  0  0  0  0  0  0  0
    0.7140    0.8190    0.8690 C   0  0  0  0  0  0  0  0  0  0  0  0
    0.5870    1.2750   -0.3010 O   0  0  0  0  0  0  0  0  0  0  0  0
    3.0570   -0.9890   -0.3600 H   0  0  0  0  0  0  0  0  0  0  0  0
    2.3730   -0.1530    1.6980 H   0  0  0  0  0  0  0  0  0  0  0  0
    0.8800   -1.1860    1.5610 H   0  0  0  0  0  0  0  0  0  0  0  0
    0.1080    1.4780    1.9740 N   0  0  0  0  0  0  0  0  0  0  0  0
   -0.6410    2.6630    1.7240 C   0  0  1  0  0  0  0  0  0  0  0  0
   -2.0630    2.4170    2.2430 C   0  0  0  0  0  0  0  0  0  0  0  0
   -1.9630    2.1330    3.6960 C   0  0  0  0  0  0  0  0  0  0  0  0
   -1.8030    0.9150    4.2970 C   0  0  0  0  0  0  0  0  0  0  0  0
   -1.7560    1.0700    5.6330 N   0  0  0  0  0  0  0  0  0  0  0  0
   -1.8870    2.3940    5.8850 C   0  0  0  0  0  0  0  0  0  0  0  0
   -2.0130    3.0380    4.6880 N   0  0  0  0  0  0  0  0  0  0  0  0
   -0.1360    3.8480    2.4640 C   0  0  0  0  0  0  0  0  0  0  0  0
    0.8420    3.8260    3.2320 O   0  0  0  0  0  0  0  0  0  0  0  0
   -0.8310    5.0330    2.2570 O   0  0  0  0  0  0  0  0  0  0  0  0
    0.2580    1.0400    2.9050 H   0  0  0  0  0  0  0  0  0  0  0  0
   -0.6500    2.9220    0.6570 H   0  0  0  0  0  0  0  0  0  0  0  0
   -2.4330    1.5020    1.7470 H   0  0  0  0  0  0  0  0  0  0  0  0
   -2.7000    3.2980    2.0560 H   0  0  0  0  0  0  0  0  0  0  0  0
   -1.7180   -0.0740    3.8300 H   0  0  0  0  0  0  0  0  0  0  0  0
   -1.6410    0.3230    6.3480 H   0  0  0  0  0  0  0  0  0  0  0  0
   -1.8910    2.8590    6.8550 H   0  0  0  0  0  0  0  0  0  0  0  0
  1 11  1  0  0  0  0
  1 10  1  0  0  0  0
  2  4  1  0  0  0  0
  2  1  1  0  0  0  0
  3  2  2  0  0  0  0
  4 13  1  0  0  0  0
  5  6  1  0  0  0  0
  5  4  1  0  0  0  0
  6 16  1  6  0  0  0
  6  7  1  0  0  0  0
  6  8  1  0  0  0  0
  8  9  2  0  0  0  0
  8 19  1  0  0  0  0
 12  4  1  0  0  0  0
 14  5  1  0  0  0  0
 15  5  1  0  0  0  0
 17  7  1  0  0  0  0
 18  7  1  0  0  0  0
 19 20  1  0  0  0  0
 20 25  1  0  0  0  0
 20 24  1  0  0  0  0
 21 20  1  0  0  0  0
 21 26  1  0  0  0  0
 22 21  2  0  0  0  0
 23 19  1  0  0  0  0
 26 37  1  0  0  0  0
 27 38  1  6  0  0  0
 27 26  1  0  0  0  0
 27 28  1  0  0  0  0
 27 34  1  0  0  0  0
 28 29  1  0  0  0  0
 29 30  2  0  0  0  0
 29 33  1  0  0  0  0
 30 31  1  0  0  0  0
 31 32  1  0  0  0  0
 31 42  1  0  0  0  0
 32 43  1  0  0  0  0
 33 32  2  0  0  0  0
 34 35  1  0  0  0  0
 36 34  2  0  0  0  0
 39 28  1  0  0  0  0
 40 28  1  0  0  0  0
 41 30  1  0  0  0  0
M  END
$$$$
