QGI.pdb
 OpenBabel07022418313D

 45 44  0  0  1  0  0  0  0  0999 V2000
    0.5900   -7.1370   -2.8310 N   0  0  0  0  0  0  0  0  0  0  0  0
    1.0380   -5.9720   -2.1500 C   0  0  0  0  0  0  0  0  0  0  0  0
    2.2450   -5.9600   -1.7680 O   0  0  0  0  0  0  0  0  0  0  0  0
    0.1060   -4.8390   -1.9150 C   0  0  0  0  0  0  0  0  0  0  0  0
    0.8840   -3.7740   -1.1810 C   0  0  0  0  0  0  0  0  0  0  0  0
    0.0390   -2.5500   -0.8760 C   0  0  2  0  0  0  0  0  0  0  0  0
   -0.4360   -1.9920   -2.1250 N   0  0  0  0  0  0  0  0  0  0  0  0
    0.9870   -1.5400   -0.2840 C   0  0  0  0  0  0  0  0  0  0  0  0
    1.5210   -1.8290    0.8170 O   0  0  0  0  0  0  0  0  0  0  0  0
   -0.4350   -7.3290   -2.8500 H   0  0  0  0  0  0  0  0  0  0  0  0
    1.2530   -7.7900   -3.3010 H   0  0  0  0  0  0  0  0  0  0  0  0
   -0.6840   -5.2230   -1.2190 H   0  0  0  0  0  0  0  0  0  0  0  0
   -0.3050   -4.5150   -2.8710 H   0  0  0  0  0  0  0  0  0  0  0  0
    1.7740   -3.4690   -1.7720 H   0  0  0  0  0  0  0  0  0  0  0  0
    1.2710   -4.2370   -0.2500 H   0  0  0  0  0  0  0  0  0  0  0  0
   -0.7590   -2.8210   -0.1780 H   0  0  0  0  0  0  0  0  0  0  0  0
   -0.0270   -2.4950   -2.9410 H   0  0  0  0  0  0  0  0  0  0  0  0
   -1.4880   -1.9820   -2.1570 H   0  0  0  0  0  0  0  0  0  0  0  0
    1.2890   -0.3210   -0.8980 N   0  0  0  0  0  0  0  0  0  0  0  0
    2.1920    0.6370   -0.3100 C   0  0  0  0  0  0  0  0  0  0  0  0
    1.7430    1.1810    0.9910 C   0  0  0  0  0  0  0  0  0  0  0  0
    2.4870    2.0100    1.6220 O   0  0  0  0  0  0  0  0  0  0  0  0
    0.8250   -0.1130   -1.8320 H   0  0  0  0  0  0  0  0  0  0  0  0
    2.4040    1.4860   -0.9940 H   0  0  0  0  0  0  0  0  0  0  0  0
    3.1930    0.1500   -0.1120 H   0  0  0  0  0  0  0  0  0  0  0  0
   -0.2570    4.3480    2.2160 C   0  0  0  0  0  0  0  0  0  0  0  0
   -1.2640    3.2640    1.9270 C   0  0  0  0  0  0  0  0  0  0  0  0
   -1.1810    2.1220    2.8950 C   0  0  2  0  0  0  0  0  0  0  0  0
   -1.4460    2.6820    4.2820 C   0  0  0  0  0  0  0  0  0  0  0  0
    0.1500    1.4420    2.9280 C   0  0  2  0  0  0  0  0  0  0  0  0
    0.5300    0.8790    1.6490 N   0  0  0  0  0  0  0  0  0  0  0  0
    0.0360    0.2970    3.8880 C   0  0  0  0  0  0  0  0  0  0  0  0
    0.2510   -0.8940    3.5480 O   0  0  0  0  0  0  0  0  0  0  0  0
   -0.3180    0.4970    5.2240 O   0  0  0  0  0  0  0  0  0  0  0  0
   -0.1160    4.9010    1.2410 H   0  0  0  0  0  0  0  0  0  0  0  0
    0.7460    3.9630    2.4730 H   0  0  0  0  0  0  0  0  0  0  0  0
   -0.6240    5.0620    3.0030 H   0  0  0  0  0  0  0  0  0  0  0  0
   -1.2350    2.9400    0.8630 H   0  0  0  0  0  0  0  0  0  0  0  0
   -2.2740    3.7290    2.0660 H   0  0  0  0  0  0  0  0  0  0  0  0
   -2.0180    1.4200    2.6550 H   0  0  0  0  0  0  0  0  0  0  0  0
   -1.9010    3.6980    4.2450 H   0  0  0  0  0  0  0  0  0  0  0  0
   -0.4750    2.8130    4.8400 H   0  0  0  0  0  0  0  0  0  0  0  0
   -2.1290    2.0020    4.8360 H   0  0  0  0  0  0  0  0  0  0  0  0
    0.8900    2.1250    3.3430 H   0  0  0  0  0  0  0  0  0  0  0  0
   -0.1340    0.2260    1.1860 H   0  0  0  0  0  0  0  0  0  0  0  0
  1  2  1  0  0  0  0
  2  4  1  0  0  0  0
  2  3  2  0  0  0  0
  4 12  1  0  0  0  0
  4  5  1  0  0  0  0
  5  6  1  0  0  0  0
  5 15  1  0  0  0  0
  6  8  1  0  0  0  0
  6 16  1  1  0  0  0
  7  6  1  0  0  0  0
  8  9  2  0  0  0  0
 10  1  1  0  0  0  0
 11  1  1  0  0  0  0
 13  4  1  0  0  0  0
 14  5  1  0  0  0  0
 17  7  1  0  0  0  0
 18  7  1  0  0  0  0
 19 20  1  0  0  0  0
 19  8  1  0  0  0  0
 20 25  1  0  0  0  0
 20 21  1  0  0  0  0
 21 22  2  0  0  0  0
 21 31  1  0  0  0  0
 23 19  1  0  0  0  0
 24 20  1  0  0  0  0
 26 36  1  0  0  0  0
 26 37  1  0  0  0  0
 27 39  1  0  0  0  0
 27 26  1  0  0  0  0
 27 28  1  0  0  0  0
 28 40  1  6  0  0  0
 28 30  1  0  0  0  0
 28 29  1  0  0  0  0
 29 43  1  0  0  0  0
 29 42  1  0  0  0  0
 30 44  1  1  0  0  0
 30 32  1  0  0  0  0
 31 30  1  0  0  0  0
 32 34  1  0  0  0  0
 33 32  2  0  0  0  0
 35 26  1  0  0  0  0
 38 27  1  0  0  0  0
 41 29  1  0  0  0  0
 45 31  1  0  0  0  0
M  END
$$$$
