QGK.pdb
 OpenBabel07022418313D

 47 46  0  0  1  0  0  0  0  0999 V2000
    3.1380   -7.2750   -2.5040 N   0  0  0  0  0  0  0  0  0  0  0  0
    3.1400   -6.0530   -1.7860 C   0  0  0  0  0  0  0  0  0  0  0  0
    3.9130   -5.9230   -0.8090 O   0  0  0  0  0  0  0  0  0  0  0  0
    2.2430   -4.9410   -2.1780 C   0  0  0  0  0  0  0  0  0  0  0  0
    2.4030   -3.7470   -1.2920 C   0  0  0  0  0  0  0  0  0  0  0  0
    1.4680   -2.6490   -1.7370 C   0  0  2  0  0  0  0  0  0  0  0  0
    1.7220   -2.2360   -3.0790 N   0  0  0  0  0  0  0  0  0  0  0  0
    1.5380   -1.5250   -0.7630 C   0  0  0  0  0  0  0  0  0  0  0  0
    1.3310   -1.7720    0.4520 O   0  0  0  0  0  0  0  0  0  0  0  0
    3.2390   -8.1570   -1.9680 H   0  0  0  0  0  0  0  0  0  0  0  0
    3.0380   -7.2800   -3.5440 H   0  0  0  0  0  0  0  0  0  0  0  0
    1.1790   -5.2670   -2.1350 H   0  0  0  0  0  0  0  0  0  0  0  0
    2.4180   -4.6070   -3.2280 H   0  0  0  0  0  0  0  0  0  0  0  0
    3.4480   -3.4000   -1.2790 H   0  0  0  0  0  0  0  0  0  0  0  0
    2.0930   -4.0340   -0.2640 H   0  0  0  0  0  0  0  0  0  0  0  0
    0.4360   -3.0880   -1.7140 H   0  0  0  0  0  0  0  0  0  0  0  0
    0.9280   -2.3520   -3.7260 H   0  0  0  0  0  0  0  0  0  0  0  0
    2.6360   -2.5620   -3.4590 H   0  0  0  0  0  0  0  0  0  0  0  0
    1.8250   -0.1880   -1.1380 N   0  0  0  0  0  0  0  0  0  0  0  0
    1.8980    0.9090   -0.2230 C   0  0  0  0  0  0  0  0  0  0  0  0
    0.5900    1.0820    0.4800 C   0  0  0  0  0  0  0  0  0  0  0  0
   -0.3640    0.2950    0.2060 O   0  0  0  0  0  0  0  0  0  0  0  0
    1.9910   -0.0330   -2.1700 H   0  0  0  0  0  0  0  0  0  0  0  0
    2.0660    1.8490   -0.7850 H   0  0  0  0  0  0  0  0  0  0  0  0
    2.7300    0.8260    0.5040 H   0  0  0  0  0  0  0  0  0  0  0  0
    0.3570    2.0800    1.4390 N   0  0  0  0  0  0  0  0  0  0  0  0
   -0.9750    2.1920    2.0990 C   0  0  1  0  0  0  0  0  0  0  0  0
   -0.7520    2.2130    3.5680 C   0  0  0  0  0  0  0  0  0  0  0  0
   -1.9390    2.2710    4.4500 C   0  0  0  0  0  0  0  0  0  0  0  0
   -2.8530    1.1300    4.5100 C   0  0  0  0  0  0  0  0  0  0  0  0
   -3.5800    0.6090    3.3510 C   0  0  0  0  0  0  0  0  0  0  0  0
   -4.4540    1.5060    2.6570 N   0  0  0  0  0  0  0  0  0  0  0  0
   -1.5230    3.5530    1.7150 C   0  0  0  0  0  0  0  0  0  0  0  0
   -0.8530    4.3100    0.9730 O   0  0  0  0  0  0  0  0  0  0  0  0
   -2.7320    3.9840    2.1540 O   0  0  0  0  0  0  0  0  0  0  0  0
    1.0800    2.7490    1.7090 H   0  0  0  0  0  0  0  0  0  0  0  0
   -1.6370    1.4470    1.7380 H   0  0  0  0  0  0  0  0  0  0  0  0
    0.0190    2.9910    3.8570 H   0  0  0  0  0  0  0  0  0  0  0  0
   -0.2330    1.2190    3.8230 H   0  0  0  0  0  0  0  0  0  0  0  0
   -2.4760    3.2590    4.3030 H   0  0  0  0  0  0  0  0  0  0  0  0
   -1.4920    2.3760    5.5150 H   0  0  0  0  0  0  0  0  0  0  0  0
   -2.2410    0.2410    4.9150 H   0  0  0  0  0  0  0  0  0  0  0  0
   -3.6380    1.2850    5.3410 H   0  0  0  0  0  0  0  0  0  0  0  0
   -3.0170   -0.0090    2.6450 H   0  0  0  0  0  0  0  0  0  0  0  0
   -4.3200   -0.1920    3.7970 H   0  0  0  0  0  0  0  0  0  0  0  0
   -5.3400    1.7030    3.1380 H   0  0  0  0  0  0  0  0  0  0  0  0
   -4.6740    1.0840    1.7300 H   0  0  0  0  0  0  0  0  0  0  0  0
  1 10  1  0  0  0  0
  1  2  1  0  0  0  0
  2  3  2  0  0  0  0
  4 12  1  0  0  0  0
  4  2  1  0  0  0  0
  4  5  1  0  0  0  0
  5 14  1  0  0  0  0
  5 15  1  0  0  0  0
  6 16  1  1  0  0  0
  6  5  1  0  0  0  0
  6  8  1  0  0  0  0
  7  6  1  0  0  0  0
  8  9  2  0  0  0  0
 11  1  1  0  0  0  0
 13  4  1  0  0  0  0
 17  7  1  0  0  0  0
 18  7  1  0  0  0  0
 19  8  1  0  0  0  0
 19 20  1  0  0  0  0
 20 21  1  0  0  0  0
 20 25  1  0  0  0  0
 21 26  1  0  0  0  0
 22 21  2  0  0  0  0
 23 19  1  0  0  0  0
 24 20  1  0  0  0  0
 26 36  1  0  0  0  0
 26 27  1  0  0  0  0
 27 37  1  6  0  0  0
 27 28  1  0  0  0  0
 28 39  1  0  0  0  0
 28 38  1  0  0  0  0
 28 29  1  0  0  0  0
 29 30  1  0  0  0  0
 29 41  1  0  0  0  0
 30 42  1  0  0  0  0
 30 43  1  0  0  0  0
 31 45  1  0  0  0  0
 31 30  1  0  0  0  0
 32 46  1  0  0  0  0
 32 31  1  0  0  0  0
 33 27  1  0  0  0  0
 33 35  1  0  0  0  0
 34 33  2  0  0  0  0
 40 29  1  0  0  0  0
 44 31  1  0  0  0  0
 47 32  1  0  0  0  0
M  END
$$$$
