QGL.pdb
 OpenBabel07022418313D

 45 44  0  0  1  0  0  0  0  0999 V2000
   -0.0260   -6.3420    1.9810 N   0  0  0  0  0  0  0  0  0  0  0  0
   -0.2830   -4.9980    1.6020 C   0  0  0  0  0  0  0  0  0  0  0  0
   -0.3260   -4.1040    2.4830 O   0  0  0  0  0  0  0  0  0  0  0  0
   -0.5000   -4.6320    0.2000 C   0  0  0  0  0  0  0  0  0  0  0  0
   -0.7520   -3.1510    0.0600 C   0  0  0  0  0  0  0  0  0  0  0  0
   -0.9730   -2.7960   -1.4020 C   0  0  2  0  0  0  0  0  0  0  0  0
    0.2060   -3.1560   -2.1650 N   0  0  0  0  0  0  0  0  0  0  0  0
   -1.2230   -1.3340   -1.5570 C   0  0  0  0  0  0  0  0  0  0  0  0
   -0.4570   -0.6350   -2.2660 O   0  0  0  0  0  0  0  0  0  0  0  0
   -0.4610   -7.1580    1.4980 H   0  0  0  0  0  0  0  0  0  0  0  0
    0.6240   -6.5730    2.7780 H   0  0  0  0  0  0  0  0  0  0  0  0
   -1.3500   -5.2150   -0.2190 H   0  0  0  0  0  0  0  0  0  0  0  0
    0.4480   -4.8550   -0.3510 H   0  0  0  0  0  0  0  0  0  0  0  0
    0.1760   -2.6320    0.4090 H   0  0  0  0  0  0  0  0  0  0  0  0
   -1.5880   -2.7920    0.6780 H   0  0  0  0  0  0  0  0  0  0  0  0
   -1.8160   -3.4000   -1.7900 H   0  0  0  0  0  0  0  0  0  0  0  0
    1.0860   -2.9820   -1.6090 H   0  0  0  0  0  0  0  0  0  0  0  0
    0.3080   -2.5310   -3.0140 H   0  0  0  0  0  0  0  0  0  0  0  0
   -2.3160   -0.6860   -0.9210 N   0  0  0  0  0  0  0  0  0  0  0  0
   -2.5910    0.7240   -1.0340 C   0  0  0  0  0  0  0  0  0  0  0  0
   -1.5350    1.5910   -0.4870 C   0  0  0  0  0  0  0  0  0  0  0  0
   -1.6470    2.8680   -0.5630 O   0  0  0  0  0  0  0  0  0  0  0  0
   -2.9640   -1.2870   -0.3290 H   0  0  0  0  0  0  0  0  0  0  0  0
   -3.6010    0.9830   -0.6600 H   0  0  0  0  0  0  0  0  0  0  0  0
   -2.6250    0.9350   -2.1440 H   0  0  0  0  0  0  0  0  0  0  0  0
    1.3640    2.1100    4.4870 C   0  0  0  0  0  0  0  0  0  0  0  0
    1.5790    2.6170    3.0210 C   0  0  0  0  0  0  0  0  0  0  0  0
    3.0510    2.5490    2.8300 C   0  0  0  0  0  0  0  0  0  0  0  0
    0.7120    1.8520    2.1140 C   0  0  0  0  0  0  0  0  0  0  0  0
    0.6620    2.1250    0.6670 C   0  0  2  0  0  0  0  0  0  0  0  0
   -0.3500    1.1440    0.1500 N   0  0  0  0  0  0  0  0  0  0  0  0
    1.8810    1.7940   -0.0570 C   0  0  0  0  0  0  0  0  0  0  0  0
    2.8920    2.5140   -0.0040 O   0  0  0  0  0  0  0  0  0  0  0  0
    1.9650    0.6590   -0.8370 O   0  0  0  0  0  0  0  0  0  0  0  0
    2.1430    2.6390    5.0780 H   0  0  0  0  0  0  0  0  0  0  0  0
    1.5340    1.0230    4.4540 H   0  0  0  0  0  0  0  0  0  0  0  0
    0.3860    2.4210    4.8500 H   0  0  0  0  0  0  0  0  0  0  0  0
    1.2940    3.6940    3.0910 H   0  0  0  0  0  0  0  0  0  0  0  0
    3.5270    2.5710    3.8750 H   0  0  0  0  0  0  0  0  0  0  0  0
    3.5080    3.4540    2.3690 H   0  0  0  0  0  0  0  0  0  0  0  0
    3.4350    1.5890    2.4290 H   0  0  0  0  0  0  0  0  0  0  0  0
    0.9100    0.7490    2.2500 H   0  0  0  0  0  0  0  0  0  0  0  0
   -0.3530    1.9710    2.5160 H   0  0  0  0  0  0  0  0  0  0  0  0
    0.2780    3.1490    0.4370 H   0  0  0  0  0  0  0  0  0  0  0  0
   -0.1750    0.1300    0.2750 H   0  0  0  0  0  0  0  0  0  0  0  0
  1 11  1  0  0  0  0
  2  1  1  0  0  0  0
  2  3  2  0  0  0  0
  4  2  1  0  0  0  0
  5  4  1  0  0  0  0
  5 14  1  0  0  0  0
  5 15  1  0  0  0  0
  6 16  1  6  0  0  0
  6  5  1  0  0  0  0
  7 17  1  0  0  0  0
  7  6  1  0  0  0  0
  8  6  1  0  0  0  0
  8 19  1  0  0  0  0
  9  8  2  0  0  0  0
 10  1  1  0  0  0  0
 12  4  1  0  0  0  0
 13  4  1  0  0  0  0
 18  7  1  0  0  0  0
 19 23  1  0  0  0  0
 20 19  1  0  0  0  0
 20 24  1  0  0  0  0
 20 21  1  0  0  0  0
 21 31  1  0  0  0  0
 22 21  2  0  0  0  0
 25 20  1  0  0  0  0
 26 37  1  0  0  0  0
 26 35  1  0  0  0  0
 27 38  1  0  0  0  0
 27 26  1  0  0  0  0
 28 27  1  0  0  0  0
 28 39  1  0  0  0  0
 29 42  1  0  0  0  0
 29 43  1  0  0  0  0
 29 27  1  0  0  0  0
 30 44  1  6  0  0  0
 30 29  1  0  0  0  0
 31 45  1  0  0  0  0
 31 30  1  0  0  0  0
 32 33  1  0  0  0  0
 32 30  1  0  0  0  0
 34 32  2  0  0  0  0
 36 26  1  0  0  0  0
 40 28  1  0  0  0  0
 41 28  1  0  0  0  0
M  END
$$$$
