QGM.pdb
 OpenBabel07022418313D

 43 42  0  0  1  0  0  0  0  0999 V2000
    2.7770   -6.3720   -3.3520 N   0  0  0  0  0  0  0  0  0  0  0  0
    2.5830   -5.3160   -2.4530 C   0  0  0  0  0  0  0  0  0  0  0  0
    3.2690   -5.3070   -1.3930 O   0  0  0  0  0  0  0  0  0  0  0  0
    1.6270   -4.2080   -2.6580 C   0  0  0  0  0  0  0  0  0  0  0  0
    1.6580   -3.2330   -1.5190 C   0  0  0  0  0  0  0  0  0  0  0  0
    0.6800   -2.0910   -1.7290 C   0  0  2  0  0  0  0  0  0  0  0  0
    1.0250   -1.3760   -2.9590 N   0  0  0  0  0  0  0  0  0  0  0  0
    0.7400   -1.1190   -0.6100 C   0  0  0  0  0  0  0  0  0  0  0  0
    0.4550   -1.4540    0.5670 O   0  0  0  0  0  0  0  0  0  0  0  0
    2.4550   -6.2760   -4.3340 H   0  0  0  0  0  0  0  0  0  0  0  0
    3.2380   -7.2550   -3.0640 H   0  0  0  0  0  0  0  0  0  0  0  0
    0.6050   -4.6830   -2.6450 H   0  0  0  0  0  0  0  0  0  0  0  0
    1.8180   -3.6840   -3.5990 H   0  0  0  0  0  0  0  0  0  0  0  0
    2.6760   -2.8560   -1.3470 H   0  0  0  0  0  0  0  0  0  0  0  0
    1.3080   -3.7750   -0.6060 H   0  0  0  0  0  0  0  0  0  0  0  0
   -0.3330   -2.5300   -1.7650 H   0  0  0  0  0  0  0  0  0  0  0  0
    2.0120   -1.6440   -3.2370 H   0  0  0  0  0  0  0  0  0  0  0  0
    0.4220   -1.7630   -3.7180 H   0  0  0  0  0  0  0  0  0  0  0  0
    1.1260    0.2490   -0.8120 N   0  0  0  0  0  0  0  0  0  0  0  0
    1.1840    1.1940    0.2810 C   0  0  0  0  0  0  0  0  0  0  0  0
   -0.1830    1.2920    0.8600 C   0  0  0  0  0  0  0  0  0  0  0  0
   -1.1380    0.6200    0.3800 O   0  0  0  0  0  0  0  0  0  0  0  0
    1.3710    0.5720   -1.7630 H   0  0  0  0  0  0  0  0  0  0  0  0
    1.8930    0.8700    1.0730 H   0  0  0  0  0  0  0  0  0  0  0  0
    1.4470    2.1840   -0.1350 H   0  0  0  0  0  0  0  0  0  0  0  0
    1.2150    0.3290    4.6730 C   0  0  0  0  0  0  0  0  0  0  0  0
    0.6530    2.0250    4.6270 S   0  0  0  0  0  0  0  0  0  0  0  0
   -1.0910    2.2100    4.9460 C   0  0  0  0  0  0  0  0  0  0  0  0
   -1.9340    1.6140    3.8840 C   0  0  0  0  0  0  0  0  0  0  0  0
   -1.7500    2.2450    2.5280 C   0  0  2  0  0  0  0  0  0  0  0  0
   -0.4270    2.1690    1.9910 N   0  0  0  0  0  0  0  0  0  0  0  0
   -2.1680    3.6760    2.6780 C   0  0  0  0  0  0  0  0  0  0  0  0
   -1.4160    4.6410    2.3560 O   0  0  0  0  0  0  0  0  0  0  0  0
   -3.4150    4.0290    3.1840 O   0  0  0  0  0  0  0  0  0  0  0  0
    2.2760    0.3120    4.2880 H   0  0  0  0  0  0  0  0  0  0  0  0
    0.6620   -0.3490    3.9850 H   0  0  0  0  0  0  0  0  0  0  0  0
    1.2300   -0.1300    5.6720 H   0  0  0  0  0  0  0  0  0  0  0  0
   -1.3970    1.7350    5.9230 H   0  0  0  0  0  0  0  0  0  0  0  0
   -1.4010    3.2750    5.0650 H   0  0  0  0  0  0  0  0  0  0  0  0
   -1.7010    0.5160    3.7350 H   0  0  0  0  0  0  0  0  0  0  0  0
   -3.0250    1.6630    4.1220 H   0  0  0  0  0  0  0  0  0  0  0  0
   -2.4520    1.7430    1.8050 H   0  0  0  0  0  0  0  0  0  0  0  0
    0.4090    2.6830    2.2980 H   0  0  0  0  0  0  0  0  0  0  0  0
  1 11  1  0  0  0  0
  1  2  1  0  0  0  0
  2  3  2  0  0  0  0
  4 12  1  0  0  0  0
  4  2  1  0  0  0  0
  4  5  1  0  0  0  0
  5 14  1  0  0  0  0
  5 15  1  0  0  0  0
  6 16  1  6  0  0  0
  6  5  1  0  0  0  0
  6  8  1  0  0  0  0
  7  6  1  0  0  0  0
  8  9  2  0  0  0  0
 10  1  1  0  0  0  0
 13  4  1  0  0  0  0
 17  7  1  0  0  0  0
 18  7  1  0  0  0  0
 19  8  1  0  0  0  0
 19 20  1  0  0  0  0
 20 21  1  0  0  0  0
 20 24  1  0  0  0  0
 21 31  1  0  0  0  0
 22 21  2  0  0  0  0
 23 19  1  0  0  0  0
 25 20  1  0  0  0  0
 26 37  1  0  0  0  0
 27 26  1  0  0  0  0
 27 28  1  0  0  0  0
 28 39  1  0  0  0  0
 28 38  1  0  0  0  0
 29 41  1  0  0  0  0
 29 28  1  0  0  0  0
 30 42  1  6  0  0  0
 30 32  1  0  0  0  0
 30 29  1  0  0  0  0
 31 43  1  0  0  0  0
 31 30  1  0  0  0  0
 32 34  1  0  0  0  0
 33 32  2  0  0  0  0
 35 26  1  0  0  0  0
 36 26  1  0  0  0  0
 40 29  1  0  0  0  0
M  END
$$$$
