QGP.pdb
 OpenBabel07022418313D

 40 40  0  0  1  0  0  0  0  0999 V2000
    1.9040   -6.0510    0.3250 N   0  0  0  0  0  0  0  0  0  0  0  0
    1.6830   -4.6360    0.5560 C   0  0  0  0  0  0  0  0  0  0  0  0
    2.6410   -3.8600    0.6020 O   0  0  0  0  0  0  0  0  0  0  0  0
    0.2700   -4.2490    0.7250 C   0  0  0  0  0  0  0  0  0  0  0  0
    0.0010   -2.7790    0.5900 C   0  0  0  0  0  0  0  0  0  0  0  0
    0.3020   -2.2140   -0.7520 C   0  0  2  0  0  0  0  0  0  0  0  0
    1.6560   -2.3330   -1.1940 N   0  0  0  0  0  0  0  0  0  0  0  0
   -0.1070   -0.8090   -0.9060 C   0  0  0  0  0  0  0  0  0  0  0  0
    0.6930    0.0370   -1.3280 O   0  0  0  0  0  0  0  0  0  0  0  0
    2.5860   -6.5910    0.8990 H   0  0  0  0  0  0  0  0  0  0  0  0
    1.3780   -6.5480   -0.4260 H   0  0  0  0  0  0  0  0  0  0  0  0
   -0.4030   -4.8520    0.0590 H   0  0  0  0  0  0  0  0  0  0  0  0
   -0.0060   -4.6160    1.7620 H   0  0  0  0  0  0  0  0  0  0  0  0
    0.5660   -2.2810    1.4110 H   0  0  0  0  0  0  0  0  0  0  0  0
   -1.1100   -2.6630    0.7590 H   0  0  0  0  0  0  0  0  0  0  0  0
   -0.3200   -2.7940   -1.5030 H   0  0  0  0  0  0  0  0  0  0  0  0
    1.8100   -3.0450   -1.9160 H   0  0  0  0  0  0  0  0  0  0  0  0
    2.1450   -1.4390   -1.3310 H   0  0  0  0  0  0  0  0  0  0  0  0
   -1.4440   -0.4170   -0.5650 N   0  0  0  0  0  0  0  0  0  0  0  0
   -1.9150    0.9280   -0.6770 C   0  0  0  0  0  0  0  0  0  0  0  0
   -1.3440    1.9530    0.1690 C   0  0  0  0  0  0  0  0  0  0  0  0
   -1.7920    3.1560   -0.1240 O   0  0  0  0  0  0  0  0  0  0  0  0
   -2.0720   -1.1890   -0.2220 H   0  0  0  0  0  0  0  0  0  0  0  0
   -1.7960    1.2600   -1.7510 H   0  0  0  0  0  0  0  0  0  0  0  0
   -3.0420    0.8920   -0.5740 H   0  0  0  0  0  0  0  0  0  0  0  0
   -0.4200    1.8360    1.2130 N   0  0  0  0  0  0  0  0  0  0  0  0
    0.1690    0.6640    1.7890 C   0  0  0  0  0  0  0  0  0  0  0  0
    0.5220    1.0080    3.2380 C   0  0  0  0  0  0  0  0  0  0  0  0
    0.0710    2.4380    3.3880 C   0  0  0  0  0  0  0  0  0  0  0  0
    0.1780    2.9400    1.9740 C   0  0  1  0  0  0  0  0  0  0  0  0
    1.5680    3.1900    1.5680 C   0  0  0  0  0  0  0  0  0  0  0  0
    2.0860    2.4950    0.6720 O   0  0  0  0  0  0  0  0  0  0  0  0
    2.3160    4.1820    2.1580 O   0  0  0  0  0  0  0  0  0  0  0  0
   -0.5460   -0.1880    1.7700 H   0  0  0  0  0  0  0  0  0  0  0  0
    1.1400    0.4600    1.3080 H   0  0  0  0  0  0  0  0  0  0  0  0
    1.6040    0.8850    3.4490 H   0  0  0  0  0  0  0  0  0  0  0  0
   -0.0890    0.3470    3.8880 H   0  0  0  0  0  0  0  0  0  0  0  0
    0.8080    2.9560    4.0620 H   0  0  0  0  0  0  0  0  0  0  0  0
   -0.9600    2.5320    3.7830 H   0  0  0  0  0  0  0  0  0  0  0  0
   -0.4360    3.8570    1.8820 H   0  0  0  0  0  0  0  0  0  0  0  0
  1  2  1  0  0  0  0
  1 10  1  0  0  0  0
  2  3  2  0  0  0  0
  2  4  1  0  0  0  0
  4 13  1  0  0  0  0
  5  4  1  0  0  0  0
  5 15  1  0  0  0  0
  5 14  1  0  0  0  0
  6 16  1  6  0  0  0
  6  5  1  0  0  0  0
  7  6  1  0  0  0  0
  8  6  1  0  0  0  0
  8 19  1  0  0  0  0
  9  8  2  0  0  0  0
 11  1  1  0  0  0  0
 12  4  1  0  0  0  0
 17  7  1  0  0  0  0
 18  7  1  0  0  0  0
 19 23  1  0  0  0  0
 20 25  1  0  0  0  0
 20 19  1  0  0  0  0
 20 21  1  0  0  0  0
 21 26  1  0  0  0  0
 22 21  2  0  0  0  0
 24 20  1  0  0  0  0
 26 27  1  0  0  0  0
 26 30  1  0  0  0  0
 27 28  1  0  0  0  0
 28 29  1  0  0  0  0
 28 36  1  0  0  0  0
 28 37  1  0  0  0  0
 29 39  1  0  0  0  0
 29 38  1  0  0  0  0
 30 40  1  6  0  0  0
 30 29  1  0  0  0  0
 31 30  1  0  0  0  0
 31 33  1  0  0  0  0
 32 31  2  0  0  0  0
 34 27  1  0  0  0  0
 35 27  1  0  0  0  0
M  END
$$$$
