QGQ.pdb
 OpenBabel07022418313D

 43 42  0  0  1  0  0  0  0  0999 V2000
    5.8660   -3.8730   -1.8690 N   0  0  0  0  0  0  0  0  0  0  0  0
    4.9030   -2.8570   -2.0710 C   0  0  0  0  0  0  0  0  0  0  0  0
    5.1130   -2.0130   -2.9770 O   0  0  0  0  0  0  0  0  0  0  0  0
    3.6810   -2.7750   -1.2540 C   0  0  0  0  0  0  0  0  0  0  0  0
    2.8120   -1.5960   -1.6560 C   0  0  0  0  0  0  0  0  0  0  0  0
    1.6090   -1.6100   -0.7670 C   0  0  2  0  0  0  0  0  0  0  0  0
    0.8850   -2.8450   -0.9350 N   0  0  0  0  0  0  0  0  0  0  0  0
    0.7190   -0.4220   -0.9850 C   0  0  0  0  0  0  0  0  0  0  0  0
    1.1740    0.7470   -0.8850 O   0  0  0  0  0  0  0  0  0  0  0  0
    6.5190   -3.7820   -1.0620 H   0  0  0  0  0  0  0  0  0  0  0  0
    5.9270   -4.6790   -2.4960 H   0  0  0  0  0  0  0  0  0  0  0  0
    3.9430   -2.7410   -0.1860 H   0  0  0  0  0  0  0  0  0  0  0  0
    3.0640   -3.7020   -1.3960 H   0  0  0  0  0  0  0  0  0  0  0  0
    2.4440   -1.7540   -2.7020 H   0  0  0  0  0  0  0  0  0  0  0  0
    3.3900   -0.6700   -1.6040 H   0  0  0  0  0  0  0  0  0  0  0  0
    1.9920   -1.6070    0.2940 H   0  0  0  0  0  0  0  0  0  0  0  0
    0.1890   -2.9790   -0.1910 H   0  0  0  0  0  0  0  0  0  0  0  0
    0.5230   -2.9050   -1.8910 H   0  0  0  0  0  0  0  0  0  0  0  0
   -0.6410   -0.6140   -1.3050 N   0  0  0  0  0  0  0  0  0  0  0  0
   -1.5840    0.4280   -1.5260 C   0  0  0  0  0  0  0  0  0  0  0  0
   -1.8180    1.2910   -0.3630 C   0  0  0  0  0  0  0  0  0  0  0  0
   -2.6260    2.2520   -0.5350 O   0  0  0  0  0  0  0  0  0  0  0  0
   -0.9760   -1.6210   -1.3850 H   0  0  0  0  0  0  0  0  0  0  0  0
   -1.1570    1.0800   -2.3440 H   0  0  0  0  0  0  0  0  0  0  0  0
   -2.5290    0.0340   -1.9530 H   0  0  0  0  0  0  0  0  0  0  0  0
   -1.7470   -1.3390    5.5700 N   0  0  0  0  0  0  0  0  0  0  0  0
   -2.3140   -0.2770    4.8240 C   0  0  0  0  0  0  0  0  0  0  0  0
   -3.4630    0.1360    5.0860 O   0  0  0  0  0  0  0  0  0  0  0  0
   -1.5150    0.3240    3.7340 C   0  0  0  0  0  0  0  0  0  0  0  0
   -2.3040    1.4100    3.0960 C   0  0  0  0  0  0  0  0  0  0  0  0
   -1.5720    2.0960    1.9580 C   0  0  2  0  0  0  0  0  0  0  0  0
   -1.2460    1.1630    0.9180 N   0  0  0  0  0  0  0  0  0  0  0  0
   -0.4190    2.8810    2.4310 C   0  0  0  0  0  0  0  0  0  0  0  0
    0.7560    2.7910    2.0000 O   0  0  0  0  0  0  0  0  0  0  0  0
   -0.6330    3.8050    3.4420 O   0  0  0  0  0  0  0  0  0  0  0  0
   -0.7760   -1.3290    5.9290 H   0  0  0  0  0  0  0  0  0  0  0  0
   -2.3350   -2.1770    5.7720 H   0  0  0  0  0  0  0  0  0  0  0  0
   -1.1900   -0.4690    3.0340 H   0  0  0  0  0  0  0  0  0  0  0  0
   -0.5830    0.7190    4.1990 H   0  0  0  0  0  0  0  0  0  0  0  0
   -3.2450    0.9820    2.6930 H   0  0  0  0  0  0  0  0  0  0  0  0
   -2.6010    2.1310    3.8840 H   0  0  0  0  0  0  0  0  0  0  0  0
   -2.2930    2.8330    1.5490 H   0  0  0  0  0  0  0  0  0  0  0  0
   -0.5780    0.3530    1.0900 H   0  0  0  0  0  0  0  0  0  0  0  0
  1 10  1  0  0  0  0
  2  1  1  0  0  0  0
  2  4  1  0  0  0  0
  3  2  2  0  0  0  0
  4 12  1  0  0  0  0
  5 15  1  0  0  0  0
  5  4  1  0  0  0  0
  5  6  1  0  0  0  0
  6 16  1  1  0  0  0
  7  6  1  0  0  0  0
  7 17  1  0  0  0  0
  8  9  2  0  0  0  0
  8  6  1  0  0  0  0
 11  1  1  0  0  0  0
 13  4  1  0  0  0  0
 14  5  1  0  0  0  0
 18  7  1  0  0  0  0
 19  8  1  0  0  0  0
 20 19  1  0  0  0  0
 20 21  1  0  0  0  0
 21 32  1  0  0  0  0
 22 21  2  0  0  0  0
 23 19  1  0  0  0  0
 24 20  1  0  0  0  0
 25 20  1  0  0  0  0
 26 37  1  0  0  0  0
 26 36  1  0  0  0  0
 27 28  2  0  0  0  0
 27 26  1  0  0  0  0
 29 39  1  0  0  0  0
 29 27  1  0  0  0  0
 30 29  1  0  0  0  0
 30 41  1  0  0  0  0
 31 42  1  6  0  0  0
 31 33  1  0  0  0  0
 31 30  1  0  0  0  0
 32 43  1  0  0  0  0
 32 31  1  0  0  0  0
 33 35  1  0  0  0  0
 34 33  2  0  0  0  0
 38 29  1  0  0  0  0
 40 30  1  0  0  0  0
M  END
$$$$
