QGS.pdb
 OpenBabel07022418313D

 37 36  0  0  1  0  0  0  0  0999 V2000
   -3.7110   -4.0080    1.7930 N   0  0  0  0  0  0  0  0  0  0  0  0
   -2.7710   -3.0690    1.2990 C   0  0  0  0  0  0  0  0  0  0  0  0
   -3.0080   -1.8490    1.4170 O   0  0  0  0  0  0  0  0  0  0  0  0
   -1.5230   -3.5090    0.6510 C   0  0  0  0  0  0  0  0  0  0  0  0
   -0.7330   -2.2910    0.2340 C   0  0  0  0  0  0  0  0  0  0  0  0
    0.5670   -2.6760   -0.4420 C   0  0  2  0  0  0  0  0  0  0  0  0
    1.3470   -3.4500    0.5010 N   0  0  0  0  0  0  0  0  0  0  0  0
    1.2970   -1.4150   -0.7420 C   0  0  0  0  0  0  0  0  0  0  0  0
    2.4050   -1.1810   -0.1960 O   0  0  0  0  0  0  0  0  0  0  0  0
   -3.4550   -4.5770    2.6300 H   0  0  0  0  0  0  0  0  0  0  0  0
   -4.6500   -4.1670    1.3680 H   0  0  0  0  0  0  0  0  0  0  0  0
   -0.9250   -4.1470    1.3560 H   0  0  0  0  0  0  0  0  0  0  0  0
   -1.8080   -4.1390   -0.2160 H   0  0  0  0  0  0  0  0  0  0  0  0
   -0.4790   -1.7440    1.1720 H   0  0  0  0  0  0  0  0  0  0  0  0
   -1.3500   -1.7160   -0.4600 H   0  0  0  0  0  0  0  0  0  0  0  0
    0.3160   -3.2330   -1.3620 H   0  0  0  0  0  0  0  0  0  0  0  0
    1.2930   -2.9330    1.4260 H   0  0  0  0  0  0  0  0  0  0  0  0
    2.3690   -3.4220    0.2460 H   0  0  0  0  0  0  0  0  0  0  0  0
    0.7700   -0.4430   -1.6460 N   0  0  0  0  0  0  0  0  0  0  0  0
    1.4550    0.7880   -1.9410 C   0  0  0  0  0  0  0  0  0  0  0  0
    1.6070    1.6610   -0.7540 C   0  0  0  0  0  0  0  0  0  0  0  0
    2.2360    2.7750   -0.8410 O   0  0  0  0  0  0  0  0  0  0  0  0
   -0.1660   -0.6620   -2.1060 H   0  0  0  0  0  0  0  0  0  0  0  0
    0.9240    1.3130   -2.7580 H   0  0  0  0  0  0  0  0  0  0  0  0
    2.4860    0.5480   -2.3360 H   0  0  0  0  0  0  0  0  0  0  0  0
   -0.7150    3.5350    1.2180 O   0  0  0  0  0  0  0  0  0  0  0  0
   -0.0160    2.8180    2.1820 C   0  0  0  0  0  0  0  0  0  0  0  0
    1.2910    2.2700    1.6450 C   0  0  2  0  0  0  0  0  0  0  0  0
    1.1040    1.3850    0.5380 N   0  0  0  0  0  0  0  0  0  0  0  0
    2.0520    1.6850    2.7590 C   0  0  0  0  0  0  0  0  0  0  0  0
    2.5040    0.5160    2.7550 O   0  0  0  0  0  0  0  0  0  0  0  0
    2.2890    2.4600    3.8810 O   0  0  0  0  0  0  0  0  0  0  0  0
   -0.1660    3.7790    0.4490 H   0  0  0  0  0  0  0  0  0  0  0  0
   -0.6160    1.9950    2.6090 H   0  0  0  0  0  0  0  0  0  0  0  0
    0.2350    3.5170    3.0040 H   0  0  0  0  0  0  0  0  0  0  0  0
    1.8730    3.1500    1.2920 H   0  0  0  0  0  0  0  0  0  0  0  0
    0.5620    0.5100    0.6930 H   0  0  0  0  0  0  0  0  0  0  0  0
  1 10  1  0  0  0  0
  2  3  2  0  0  0  0
  2  1  1  0  0  0  0
  4  2  1  0  0  0  0
  4 12  1  0  0  0  0
  5  4  1  0  0  0  0
  5 14  1  0  0  0  0
  6 16  1  6  0  0  0
  6  5  1  0  0  0  0
  6  7  1  0  0  0  0
  7 17  1  0  0  0  0
  8  6  1  0  0  0  0
  8  9  2  0  0  0  0
 11  1  1  0  0  0  0
 13  4  1  0  0  0  0
 15  5  1  0  0  0  0
 18  7  1  0  0  0  0
 19  8  1  0  0  0  0
 20 19  1  0  0  0  0
 20 21  1  0  0  0  0
 21 29  1  0  0  0  0
 22 21  2  0  0  0  0
 23 19  1  0  0  0  0
 24 20  1  0  0  0  0
 25 20  1  0  0  0  0
 26 27  1  0  0  0  0
 27 34  1  0  0  0  0
 27 35  1  0  0  0  0
 28 36  1  6  0  0  0
 28 27  1  0  0  0  0
 28 30  1  0  0  0  0
 29 37  1  0  0  0  0
 29 28  1  0  0  0  0
 30 32  1  0  0  0  0
 31 30  2  0  0  0  0
 33 26  1  0  0  0  0
M  END
$$$$
