QGV.pdb
 OpenBabel07022418313D

 42 41  0  0  1  0  0  0  0  0999 V2000
   -2.2310   -7.1020    0.3040 N   0  0  0  0  0  0  0  0  0  0  0  0
   -1.9480   -5.7330    0.4470 C   0  0  0  0  0  0  0  0  0  0  0  0
   -2.4570   -5.1060    1.4040 O   0  0  0  0  0  0  0  0  0  0  0  0
   -1.0670   -5.0040   -0.4930 C   0  0  0  0  0  0  0  0  0  0  0  0
   -0.9080   -3.5590   -0.1440 C   0  0  0  0  0  0  0  0  0  0  0  0
    0.0080   -2.9220   -1.1690 C   0  0  2  0  0  0  0  0  0  0  0  0
    1.2730   -3.6210   -1.0980 N   0  0  0  0  0  0  0  0  0  0  0  0
    0.2390   -1.4890   -0.8900 C   0  0  0  0  0  0  0  0  0  0  0  0
    1.4100   -1.1030   -0.6480 O   0  0  0  0  0  0  0  0  0  0  0  0
   -2.1240   -7.7120    1.1560 H   0  0  0  0  0  0  0  0  0  0  0  0
   -2.5370   -7.5740   -0.5610 H   0  0  0  0  0  0  0  0  0  0  0  0
   -1.5050   -5.1260   -1.5060 H   0  0  0  0  0  0  0  0  0  0  0  0
   -0.0600   -5.5120   -0.5390 H   0  0  0  0  0  0  0  0  0  0  0  0
   -1.8930   -3.0700   -0.1660 H   0  0  0  0  0  0  0  0  0  0  0  0
   -0.5090   -3.4680    0.8830 H   0  0  0  0  0  0  0  0  0  0  0  0
   -0.4510   -3.1070   -2.1620 H   0  0  0  0  0  0  0  0  0  0  0  0
    1.3160   -4.4030   -1.8110 H   0  0  0  0  0  0  0  0  0  0  0  0
    1.4250   -4.0750   -0.1760 H   0  0  0  0  0  0  0  0  0  0  0  0
   -0.7840   -0.5200   -0.8790 N   0  0  0  0  0  0  0  0  0  0  0  0
   -0.4740    0.8550   -0.5940 C   0  0  0  0  0  0  0  0  0  0  0  0
    0.0990    0.9360    0.7680 C   0  0  0  0  0  0  0  0  0  0  0  0
    0.2180   -0.1130    1.4370 O   0  0  0  0  0  0  0  0  0  0  0  0
   -1.7700   -0.7820   -1.0750 H   0  0  0  0  0  0  0  0  0  0  0  0
    0.2680    1.2190   -1.3630 H   0  0  0  0  0  0  0  0  0  0  0  0
   -1.3910    1.4790   -0.6960 H   0  0  0  0  0  0  0  0  0  0  0  0
    3.4080    1.9330    1.7870 C   0  0  0  0  0  0  0  0  0  0  0  0
    2.4870    2.8250    2.5970 C   0  0  0  0  0  0  0  0  0  0  0  0
    2.5260    4.2510    2.1460 C   0  0  0  0  0  0  0  0  0  0  0  0
    1.0830    2.2710    2.6780 C   0  0  2  0  0  0  0  0  0  0  0  0
    0.5240    2.1450    1.3640 N   0  0  0  0  0  0  0  0  0  0  0  0
    0.3020    3.1740    3.5510 C   0  0  0  0  0  0  0  0  0  0  0  0
    0.7060    3.3550    4.7250 O   0  0  0  0  0  0  0  0  0  0  0  0
   -0.8500    3.8350    3.1560 O   0  0  0  0  0  0  0  0  0  0  0  0
    3.4210    2.1990    0.7160 H   0  0  0  0  0  0  0  0  0  0  0  0
    3.1510    0.8960    2.0030 H   0  0  0  0  0  0  0  0  0  0  0  0
    4.4460    2.1230    2.1620 H   0  0  0  0  0  0  0  0  0  0  0  0
    2.8850    2.7950    3.6490 H   0  0  0  0  0  0  0  0  0  0  0  0
    3.2300    4.4150    1.2820 H   0  0  0  0  0  0  0  0  0  0  0  0
    2.8720    4.9380    2.9450 H   0  0  0  0  0  0  0  0  0  0  0  0
    1.5450    4.6330    1.8070 H   0  0  0  0  0  0  0  0  0  0  0  0
    1.1590    1.2980    3.2110 H   0  0  0  0  0  0  0  0  0  0  0  0
    0.4190    3.0130    0.7970 H   0  0  0  0  0  0  0  0  0  0  0  0
  1  2  1  0  0  0  0
  1 10  1  0  0  0  0
  2  3  2  0  0  0  0
  4  5  1  0  0  0  0
  4  2  1  0  0  0  0
  5 15  1  0  0  0  0
  6 16  1  6  0  0  0
  6  7  1  0  0  0  0
  6  8  1  0  0  0  0
  6  5  1  0  0  0  0
  7 18  1  0  0  0  0
  8 19  1  0  0  0  0
  8  9  2  0  0  0  0
 11  1  1  0  0  0  0
 12  4  1  0  0  0  0
 13  4  1  0  0  0  0
 14  5  1  0  0  0  0
 17  7  1  0  0  0  0
 19 20  1  0  0  0  0
 20 21  1  0  0  0  0
 21 30  1  0  0  0  0
 21 22  2  0  0  0  0
 23 19  1  0  0  0  0
 24 20  1  0  0  0  0
 25 20  1  0  0  0  0
 26 35  1  0  0  0  0
 26 36  1  0  0  0  0
 26 27  1  0  0  0  0
 27 29  1  0  0  0  0
 27 37  1  0  0  0  0
 28 27  1  0  0  0  0
 28 39  1  0  0  0  0
 29 41  1  1  0  0  0
 29 31  1  0  0  0  0
 30 29  1  0  0  0  0
 31 32  1  0  0  0  0
 33 31  2  0  0  0  0
 34 26  1  0  0  0  0
 38 28  1  0  0  0  0
 40 28  1  0  0  0  0
 42 30  1  0  0  0  0
M  END
$$$$
