QGW.pdb
 OpenBabel07022418313D

 50 51  0  0  1  0  0  0  0  0999 V2000
    0.5530   -5.8750    1.7130 N   0  0  0  0  0  0  0  0  0  0  0  0
    0.4530   -4.5120    1.3410 C   0  0  0  0  0  0  0  0  0  0  0  0
   -0.6540   -3.9660    1.2100 O   0  0  0  0  0  0  0  0  0  0  0  0
    1.6840   -3.7330    1.1060 C   0  0  0  0  0  0  0  0  0  0  0  0
    1.3530   -2.2930    0.6920 C   0  0  0  0  0  0  0  0  0  0  0  0
    2.7000   -1.6210    0.4900 C   0  0  2  0  0  0  0  0  0  0  0  0
    3.4080   -1.6840    1.7410 N   0  0  0  0  0  0  0  0  0  0  0  0
    2.6120   -0.2360    0.0360 C   0  0  0  0  0  0  0  0  0  0  0  0
    3.1140    0.6790    0.7760 O   0  0  0  0  0  0  0  0  0  0  0  0
    1.4230   -6.2770    2.1010 H   0  0  0  0  0  0  0  0  0  0  0  0
   -0.2690   -6.4850    1.5940 H   0  0  0  0  0  0  0  0  0  0  0  0
    2.3010   -4.2200    0.3400 H   0  0  0  0  0  0  0  0  0  0  0  0
    2.2440   -3.6950    2.0600 H   0  0  0  0  0  0  0  0  0  0  0  0
    0.7720   -2.2640   -0.2300 H   0  0  0  0  0  0  0  0  0  0  0  0
    0.8630   -1.7790    1.5430 H   0  0  0  0  0  0  0  0  0  0  0  0
    3.2640   -2.1960   -0.2980 H   0  0  0  0  0  0  0  0  0  0  0  0
    4.1600   -2.4020    1.6610 H   0  0  0  0  0  0  0  0  0  0  0  0
    3.8150   -0.7570    1.9490 H   0  0  0  0  0  0  0  0  0  0  0  0
    1.9980    0.1590   -1.1910 N   0  0  0  0  0  0  0  0  0  0  0  0
    1.9660    1.5460   -1.5280 C   0  0  0  0  0  0  0  0  0  0  0  0
    1.1690    2.3650   -0.6040 C   0  0  0  0  0  0  0  0  0  0  0  0
    1.1170    3.6460   -0.7390 O   0  0  0  0  0  0  0  0  0  0  0  0
    1.6040   -0.6030   -1.7760 H   0  0  0  0  0  0  0  0  0  0  0  0
    1.5170    1.5950   -2.5690 H   0  0  0  0  0  0  0  0  0  0  0  0
    3.0100    1.9160   -1.6380 H   0  0  0  0  0  0  0  0  0  0  0  0
    0.4430    1.7520    0.4450 N   0  0  0  0  0  0  0  0  0  0  0  0
   -0.3360    2.5330    1.3720 C   0  0  1  0  0  0  0  0  0  0  0  0
   -1.7960    2.4040    1.1170 C   0  0  0  0  0  0  0  0  0  0  0  0
   -2.3650    1.0540    1.2020 C   0  0  0  0  0  0  0  0  0  0  0  0
   -3.0300    0.5240    2.3090 C   0  0  0  0  0  0  0  0  0  0  0  0
   -3.3940   -0.7410    2.0360 N   0  0  0  0  0  0  0  0  0  0  0  0
   -2.9970   -1.0780    0.7830 C   0  0  0  0  0  0  0  0  0  0  0  0
   -3.1380   -2.2360    0.0540 C   0  0  0  0  0  0  0  0  0  0  0  0
   -2.6300   -2.2820   -1.2260 C   0  0  0  0  0  0  0  0  0  0  0  0
   -1.9900   -1.1660   -1.7460 C   0  0  0  0  0  0  0  0  0  0  0  0
   -1.8610   -0.0190   -0.9960 C   0  0  0  0  0  0  0  0  0  0  0  0
   -2.3540    0.0540    0.2710 C   0  0  0  0  0  0  0  0  0  0  0  0
    0.0570    2.2950    2.7790 C   0  0  0  0  0  0  0  0  0  0  0  0
   -0.4660    2.8460    3.7570 O   0  0  0  0  0  0  0  0  0  0  0  0
    1.0880    1.3860    3.0120 O   0  0  0  0  0  0  0  0  0  0  0  0
    0.4630    0.7160    0.5360 H   0  0  0  0  0  0  0  0  0  0  0  0
   -0.0830    3.6220    1.1550 H   0  0  0  0  0  0  0  0  0  0  0  0
   -1.9860    2.8760    0.1040 H   0  0  0  0  0  0  0  0  0  0  0  0
   -2.3510    3.1090    1.8090 H   0  0  0  0  0  0  0  0  0  0  0  0
   -3.2210    1.0450    3.2360 H   0  0  0  0  0  0  0  0  0  0  0  0
   -3.9070   -1.4100    2.6570 H   0  0  0  0  0  0  0  0  0  0  0  0
   -3.6290   -3.1230    0.4270 H   0  0  0  0  0  0  0  0  0  0  0  0
   -2.7020   -3.1620   -1.8640 H   0  0  0  0  0  0  0  0  0  0  0  0
   -1.5810   -1.1800   -2.7550 H   0  0  0  0  0  0  0  0  0  0  0  0
   -1.3690    0.8470   -1.4130 H   0  0  0  0  0  0  0  0  0  0  0  0
  1 10  1  0  0  0  0
  2  1  1  0  0  0  0
  3  2  2  0  0  0  0
  4  2  1  0  0  0  0
  4 13  1  0  0  0  0
  5  4  1  0  0  0  0
  5 15  1  0  0  0  0
  6 16  1  6  0  0  0
  6  5  1  0  0  0  0
  6  7  1  0  0  0  0
  7 18  1  0  0  0  0
  8  6  1  0  0  0  0
  8  9  2  0  0  0  0
 11  1  1  0  0  0  0
 12  4  1  0  0  0  0
 14  5  1  0  0  0  0
 17  7  1  0  0  0  0
 19  8  1  0  0  0  0
 20 19  1  0  0  0  0
 20 21  1  0  0  0  0
 21 26  1  0  0  0  0
 22 21  2  0  0  0  0
 23 19  1  0  0  0  0
 24 20  1  0  0  0  0
 25 20  1  0  0  0  0
 26 41  1  0  0  0  0
 26 27  1  0  0  0  0
 27 42  1  6  0  0  0
 27 38  1  0  0  0  0
 28 29  1  0  0  0  0
 28 27  1  0  0  0  0
 28 44  1  0  0  0  0
 29 30  2  0  0  0  0
 30 45  1  0  0  0  0
 31 30  1  0  0  0  0
 31 46  1  0  0  0  0
 32 31  1  0  0  0  0
 33 47  1  0  0  0  0
 33 32  2  0  0  0  0
 34 33  1  0  0  0  0
 35 34  2  0  0  0  0
 35 36  1  0  0  0  0
 36 37  2  0  0  0  0
 37 32  1  0  0  0  0
 37 29  1  0  0  0  0
 38 40  2  0  0  0  0
 38 39  1  0  0  0  0
 43 28  1  0  0  0  0
 48 34  1  0  0  0  0
 49 35  1  0  0  0  0
 50 36  1  0  0  0  0
M  END
$$$$
