QHC.pdb
 OpenBabel07022418323D

 47 47  0  0  1  0  0  0  0  0999 V2000
    4.7800    1.2600   -3.3470 N   0  0  0  0  0  0  0  0  0  0  0  0
    3.3750    1.4050   -3.4540 C   0  0  0  0  0  0  0  0  0  0  0  0
    2.8730    1.5660   -4.5950 O   0  0  0  0  0  0  0  0  0  0  0  0
    2.4720    1.3730   -2.2540 C   0  0  0  0  0  0  0  0  0  0  0  0
    1.0470    1.5480   -2.6450 C   0  0  0  0  0  0  0  0  0  0  0  0
    0.0510    1.5410   -1.5520 C   0  0  2  0  0  0  0  0  0  0  0  0
    0.2070    2.5560   -0.5460 N   0  0  0  0  0  0  0  0  0  0  0  0
   -0.1560    0.2380   -0.8740 C   0  0  0  0  0  0  0  0  0  0  0  0
   -0.2140   -0.8530   -1.5050 O   0  0  0  0  0  0  0  0  0  0  0  0
    5.4240    2.1040   -3.4010 H   0  0  0  0  0  0  0  0  0  0  0  0
    5.2590    0.3490   -3.2130 H   0  0  0  0  0  0  0  0  0  0  0  0
    2.8220    2.2000   -1.6040 H   0  0  0  0  0  0  0  0  0  0  0  0
    2.6640    0.4350   -1.7070 H   0  0  0  0  0  0  0  0  0  0  0  0
    0.9650    2.5540   -3.1550 H   0  0  0  0  0  0  0  0  0  0  0  0
    0.7170    0.8290   -3.4270 H   0  0  0  0  0  0  0  0  0  0  0  0
   -0.9510    1.7860   -2.0520 H   0  0  0  0  0  0  0  0  0  0  0  0
    1.1940    2.9010   -0.4830 H   0  0  0  0  0  0  0  0  0  0  0  0
   -0.4880    3.3140   -0.5920 H   0  0  0  0  0  0  0  0  0  0  0  0
   -0.3020    0.1660    0.5230 N   0  0  0  0  0  0  0  0  0  0  0  0
   -0.5200   -1.0470    1.2840 C   0  0  1  0  0  0  0  0  0  0  0  0
    0.5060   -1.1870    2.3730 C   0  0  0  0  0  0  0  0  0  0  0  0
    1.8540   -1.2540    1.7610 C   0  0  0  0  0  0  0  0  0  0  0  0
    3.0380   -1.3850    2.4930 C   0  0  0  0  0  0  0  0  0  0  0  0
    4.0660   -1.4180    1.6240 N   0  0  0  0  0  0  0  0  0  0  0  0
    3.5920   -1.3140    0.3790 C   0  0  0  0  0  0  0  0  0  0  0  0
    2.2560   -1.2160    0.4890 N   0  0  0  0  0  0  0  0  0  0  0  0
   -1.8980   -0.9960    1.8610 C   0  0  0  0  0  0  0  0  0  0  0  0
   -2.6080   -0.0030    1.6280 O   0  0  0  0  0  0  0  0  0  0  0  0
   -0.2450    1.0830    1.0450 H   0  0  0  0  0  0  0  0  0  0  0  0
   -0.4330   -1.9480    0.6240 H   0  0  0  0  0  0  0  0  0  0  0  0
    0.4200   -0.2630    3.0200 H   0  0  0  0  0  0  0  0  0  0  0  0
    0.3000   -2.0600    3.0260 H   0  0  0  0  0  0  0  0  0  0  0  0
    3.1090   -1.4480    3.5550 H   0  0  0  0  0  0  0  0  0  0  0  0
    5.0660   -1.5110    1.9150 H   0  0  0  0  0  0  0  0  0  0  0  0
    4.1790   -1.3110   -0.5270 H   0  0  0  0  0  0  0  0  0  0  0  0
   -2.3730   -2.0500    2.6480 N   0  0  0  0  0  0  0  0  0  0  0  0
   -3.6890   -2.0930    3.2510 C   0  0  1  0  0  0  0  0  0  0  0  0
   -4.4600   -3.2770    2.6630 C   0  0  0  0  0  0  0  0  0  0  0  0
   -6.0920   -3.2690    3.4590 S   0  0  0  0  0  0  0  0  0  0  0  0
   -3.6050   -2.2430    4.7090 C   0  0  0  0  0  0  0  0  0  0  0  0
   -2.4700   -2.3150    5.2450 O   0  0  0  0  0  0  0  0  0  0  0  0
   -4.7210   -2.3100    5.5120 O   0  0  0  0  0  0  0  0  0  0  0  0
   -1.7400   -2.8620    2.8170 H   0  0  0  0  0  0  0  0  0  0  0  0
   -4.2890   -1.1990    3.0240 H   0  0  0  0  0  0  0  0  0  0  0  0
   -3.9280   -4.2390    2.8560 H   0  0  0  0  0  0  0  0  0  0  0  0
   -4.6180   -3.1620    1.5840 H   0  0  0  0  0  0  0  0  0  0  0  0
   -7.0560   -3.7040    2.5310 H   0  0  0  0  0  0  0  0  0  0  0  0
  1 11  1  0  0  0  0
  2  1  1  0  0  0  0
  2  4  1  0  0  0  0
  3  2  2  0  0  0  0
  4 13  1  0  0  0  0
  4 12  1  0  0  0  0
  5  4  1  0  0  0  0
  5  6  1  0  0  0  0
  6 16  1  6  0  0  0
  6  8  1  0  0  0  0
  6  7  1  0  0  0  0
  7 17  1  0  0  0  0
  8 19  1  0  0  0  0
  9  8  2  0  0  0  0
 10  1  1  0  0  0  0
 14  5  1  0  0  0  0
 15  5  1  0  0  0  0
 18  7  1  0  0  0  0
 19 29  1  0  0  0  0
 19 20  1  0  0  0  0
 20 30  1  6  0  0  0
 20 27  1  0  0  0  0
 20 21  1  0  0  0  0
 21 31  1  0  0  0  0
 21 32  1  0  0  0  0
 22 21  1  0  0  0  0
 22 23  2  0  0  0  0
 23 33  1  0  0  0  0
 24 34  1  0  0  0  0
 24 23  1  0  0  0  0
 25 26  2  0  0  0  0
 25 24  1  0  0  0  0
 26 22  1  0  0  0  0
 27 36  1  0  0  0  0
 28 27  2  0  0  0  0
 35 25  1  0  0  0  0
 36 43  1  0  0  0  0
 36 37  1  0  0  0  0
 37 44  1  6  0  0  0
 37 40  1  0  0  0  0
 38 45  1  0  0  0  0
 38 37  1  0  0  0  0
 38 39  1  0  0  0  0
 40 41  2  0  0  0  0
 40 42  1  0  0  0  0
 46 38  1  0  0  0  0
 47 39  1  0  0  0  0
M  END
$$$$
