QHD.pdb
 OpenBabel07022418323D

 49 49  0  0  1  0  0  0  0  0999 V2000
    3.7050   -4.6060    2.1410 N   0  0  0  0  0  0  0  0  0  0  0  0
    4.1280   -3.2480    2.1110 C   0  0  0  0  0  0  0  0  0  0  0  0
    4.9670   -2.8890    2.9580 O   0  0  0  0  0  0  0  0  0  0  0  0
    3.5770   -2.3590    1.1120 C   0  0  0  0  0  0  0  0  0  0  0  0
    3.8450   -0.9150    1.2070 C   0  0  0  0  0  0  0  0  0  0  0  0
    3.3690   -0.1690    2.3860 C   0  0  2  0  0  0  0  0  0  0  0  0
    3.9000   -0.6290    3.6300 N   0  0  0  0  0  0  0  0  0  0  0  0
    1.8900   -0.0360    2.4610 C   0  0  0  0  0  0  0  0  0  0  0  0
    1.3060   -0.3240    3.5350 O   0  0  0  0  0  0  0  0  0  0  0  0
    3.6130   -5.0920    3.0710 H   0  0  0  0  0  0  0  0  0  0  0  0
    3.4750   -5.1680    1.2990 H   0  0  0  0  0  0  0  0  0  0  0  0
    2.4550   -2.4780    0.9890 H   0  0  0  0  0  0  0  0  0  0  0  0
    3.9490   -2.6880    0.0880 H   0  0  0  0  0  0  0  0  0  0  0  0
    4.9430   -0.7490    1.1050 H   0  0  0  0  0  0  0  0  0  0  0  0
    3.4230   -0.4310    0.2750 H   0  0  0  0  0  0  0  0  0  0  0  0
    3.7410    0.8950    2.2720 H   0  0  0  0  0  0  0  0  0  0  0  0
    3.3430   -0.3190    4.4510 H   0  0  0  0  0  0  0  0  0  0  0  0
    4.8610   -0.2360    3.7470 H   0  0  0  0  0  0  0  0  0  0  0  0
    1.0820    0.4030    1.3820 N   0  0  0  0  0  0  0  0  0  0  0  0
   -0.3520    0.5000    1.5510 C   0  0  1  0  0  0  0  0  0  0  0  0
   -0.8270    1.9440    1.4200 C   0  0  0  0  0  0  0  0  0  0  0  0
   -0.5160    2.5280    0.1200 C   0  0  0  0  0  0  0  0  0  0  0  0
    0.6170    3.2160   -0.2500 C   0  0  0  0  0  0  0  0  0  0  0  0
    0.5060    3.5890   -1.5470 N   0  0  0  0  0  0  0  0  0  0  0  0
   -0.6760    3.1420   -1.9810 C   0  0  0  0  0  0  0  0  0  0  0  0
   -1.3060    2.4920   -0.9640 N   0  0  0  0  0  0  0  0  0  0  0  0
   -0.9850   -0.3560    0.5160 C   0  0  0  0  0  0  0  0  0  0  0  0
   -0.2930   -1.0040   -0.3110 O   0  0  0  0  0  0  0  0  0  0  0  0
    1.5470    0.6470    0.4840 H   0  0  0  0  0  0  0  0  0  0  0  0
   -0.6610    0.1910    2.5840 H   0  0  0  0  0  0  0  0  0  0  0  0
   -0.4080    2.5740    2.2300 H   0  0  0  0  0  0  0  0  0  0  0  0
   -1.9340    1.9020    1.6300 H   0  0  0  0  0  0  0  0  0  0  0  0
    1.4990    3.4530    0.3650 H   0  0  0  0  0  0  0  0  0  0  0  0
    1.2380    4.1330   -2.0870 H   0  0  0  0  0  0  0  0  0  0  0  0
   -1.0700    3.2720   -2.9670 H   0  0  0  0  0  0  0  0  0  0  0  0
   -2.3930   -0.5000    0.3920 N   0  0  0  0  0  0  0  0  0  0  0  0
   -3.0410   -1.3290   -0.6080 C   0  0  1  0  0  0  0  0  0  0  0  0
   -3.6660   -2.5020    0.1260 C   0  0  0  0  0  0  0  0  0  0  0  0
   -4.3690   -3.4430   -0.7610 C   0  0  0  0  0  0  0  0  0  0  0  0
   -5.5610   -3.2580   -1.0910 O   0  0  0  0  0  0  0  0  0  0  0  0
   -3.9670   -0.5880   -1.4530 C   0  0  0  0  0  0  0  0  0  0  0  0
   -4.1650    0.6370   -1.2840 O   0  0  0  0  0  0  0  0  0  0  0  0
   -3.7050   -4.5560   -1.2440 O   0  0  0  0  0  0  0  0  0  0  0  0
   -4.6510   -1.2300   -2.4680 O   0  0  0  0  0  0  0  0  0  0  0  0
   -2.9880    0.0250    1.0650 H   0  0  0  0  0  0  0  0  0  0  0  0
   -2.2010   -1.7810   -1.2130 H   0  0  0  0  0  0  0  0  0  0  0  0
   -4.3260   -2.1450    0.9560 H   0  0  0  0  0  0  0  0  0  0  0  0
   -2.8550   -3.0730    0.6480 H   0  0  0  0  0  0  0  0  0  0  0  0
   -4.1720   -5.3720   -1.6370 H   0  0  0  0  0  0  0  0  0  0  0  0
  1 10  1  0  0  0  0
  2  1  1  0  0  0  0
  2  3  2  0  0  0  0
  4  5  1  0  0  0  0
  4  2  1  0  0  0  0
  5  6  1  0  0  0  0
  6 16  1  6  0  0  0
  6  8  1  0  0  0  0
  6  7  1  0  0  0  0
  7 18  1  0  0  0  0
  7 17  1  0  0  0  0
  8  9  2  0  0  0  0
 11  1  1  0  0  0  0
 12  4  1  0  0  0  0
 13  4  1  0  0  0  0
 14  5  1  0  0  0  0
 15  5  1  0  0  0  0
 19 20  1  0  0  0  0
 19  8  1  0  0  0  0
 20 30  1  1  0  0  0
 21 20  1  0  0  0  0
 21 32  1  0  0  0  0
 21 31  1  0  0  0  0
 22 21  1  0  0  0  0
 23 22  2  0  0  0  0
 23 33  1  0  0  0  0
 24 23  1  0  0  0  0
 25 24  1  0  0  0  0
 25 26  2  0  0  0  0
 26 22  1  0  0  0  0
 27 20  1  0  0  0  0
 28 27  2  0  0  0  0
 29 19  1  0  0  0  0
 34 24  1  0  0  0  0
 35 25  1  0  0  0  0
 36 27  1  0  0  0  0
 36 45  1  0  0  0  0
 37 46  1  6  0  0  0
 37 38  1  0  0  0  0
 37 36  1  0  0  0  0
 38 48  1  0  0  0  0
 38 47  1  0  0  0  0
 39 38  1  0  0  0  0
 40 39  2  0  0  0  0
 41 42  1  0  0  0  0
 41 37  1  0  0  0  0
 43 39  1  0  0  0  0
 44 41  2  0  0  0  0
 49 43  1  0  0  0  0
M  END
$$$$
