QHE.pdb
 OpenBabel07022418323D

 52 52  0  0  1  0  0  0  0  0999 V2000
   -2.1830   -0.7830    5.4800 N   0  0  0  0  0  0  0  0  0  0  0  0
   -0.9080   -0.1690    5.4580 C   0  0  0  0  0  0  0  0  0  0  0  0
   -0.8380    1.0010    5.8800 O   0  0  0  0  0  0  0  0  0  0  0  0
    0.2870   -0.8660    4.9650 C   0  0  0  0  0  0  0  0  0  0  0  0
    1.4870   -0.0500    4.6890 C   0  0  0  0  0  0  0  0  0  0  0  0
    1.3950    0.9890    3.6330 C   0  0  2  0  0  0  0  0  0  0  0  0
    0.4310    2.0040    3.8540 N   0  0  0  0  0  0  0  0  0  0  0  0
    1.3080    0.3640    2.2600 C   0  0  0  0  0  0  0  0  0  0  0  0
    2.2040   -0.4850    2.0400 O   0  0  0  0  0  0  0  0  0  0  0  0
   -2.2470   -1.8040    5.6160 H   0  0  0  0  0  0  0  0  0  0  0  0
   -3.0440   -0.2290    5.3650 H   0  0  0  0  0  0  0  0  0  0  0  0
   -0.0130   -1.5090    4.0920 H   0  0  0  0  0  0  0  0  0  0  0  0
    0.6060   -1.6400    5.7370 H   0  0  0  0  0  0  0  0  0  0  0  0
    1.8130    0.4420    5.6360 H   0  0  0  0  0  0  0  0  0  0  0  0
    2.2910   -0.7720    4.3430 H   0  0  0  0  0  0  0  0  0  0  0  0
    2.4050    1.5000    3.6100 H   0  0  0  0  0  0  0  0  0  0  0  0
    0.8610    2.6650    4.5800 H   0  0  0  0  0  0  0  0  0  0  0  0
    0.4030    2.6350    2.9950 H   0  0  0  0  0  0  0  0  0  0  0  0
    0.3400    0.6800    1.3110 N   0  0  0  0  0  0  0  0  0  0  0  0
    0.2140    0.1340    0.0020 C   0  0  1  0  0  0  0  0  0  0  0  0
    1.5470   -0.0250   -0.6700 C   0  0  0  0  0  0  0  0  0  0  0  0
    2.1790    1.3150   -0.7860 C   0  0  0  0  0  0  0  0  0  0  0  0
    3.0420    1.9970    0.0160 C   0  0  0  0  0  0  0  0  0  0  0  0
    3.3190    3.1900   -0.5850 N   0  0  0  0  0  0  0  0  0  0  0  0
    2.6540    3.2740   -1.7430 C   0  0  0  0  0  0  0  0  0  0  0  0
    1.9730    2.1390   -1.8490 N   0  0  0  0  0  0  0  0  0  0  0  0
   -0.5940   -1.0940    0.0290 C   0  0  0  0  0  0  0  0  0  0  0  0
   -1.0680   -1.5260    1.1350 O   0  0  0  0  0  0  0  0  0  0  0  0
   -0.3830    1.4140    1.6200 H   0  0  0  0  0  0  0  0  0  0  0  0
   -0.2880    0.9430   -0.6650 H   0  0  0  0  0  0  0  0  0  0  0  0
    2.1950   -0.7170   -0.1370 H   0  0  0  0  0  0  0  0  0  0  0  0
    1.4020   -0.3770   -1.7470 H   0  0  0  0  0  0  0  0  0  0  0  0
    3.4500    1.6700    0.9520 H   0  0  0  0  0  0  0  0  0  0  0  0
    3.9580    3.9360   -0.2040 H   0  0  0  0  0  0  0  0  0  0  0  0
    2.6490    4.0840   -2.4650 H   0  0  0  0  0  0  0  0  0  0  0  0
   -0.9030   -1.8690   -1.1130 N   0  0  0  0  0  0  0  0  0  0  0  0
   -1.6930   -3.0800   -1.1210 C   0  0  1  0  0  0  0  0  0  0  0  0
   -3.0150   -2.9100   -1.7720 C   0  0  0  0  0  0  0  0  0  0  0  0
   -3.0760   -2.4420   -3.1630 C   0  0  0  0  0  0  0  0  0  0  0  0
   -2.4400   -3.2460   -4.2160 C   0  0  0  0  0  0  0  0  0  0  0  0
   -1.8690   -4.3260   -3.9860 O   0  0  0  0  0  0  0  0  0  0  0  0
   -0.9460   -4.3100   -1.4140 C   0  0  0  0  0  0  0  0  0  0  0  0
    0.2760   -4.3350   -1.7650 O   0  0  0  0  0  0  0  0  0  0  0  0
   -2.4540   -2.8100   -5.5590 O   0  0  0  0  0  0  0  0  0  0  0  0
   -1.5420   -5.5850   -1.3190 O   0  0  0  0  0  0  0  0  0  0  0  0
   -0.5190   -1.5270   -2.0350 H   0  0  0  0  0  0  0  0  0  0  0  0
   -1.9620   -3.2010    0.0040 H   0  0  0  0  0  0  0  0  0  0  0  0
   -3.6090   -2.1990   -1.1120 H   0  0  0  0  0  0  0  0  0  0  0  0
   -3.5290   -3.9170   -1.7100 H   0  0  0  0  0  0  0  0  0  0  0  0
   -2.8090   -1.3520   -3.2730 H   0  0  0  0  0  0  0  0  0  0  0  0
   -4.1840   -2.4310   -3.4460 H   0  0  0  0  0  0  0  0  0  0  0  0
   -2.0130   -3.4000   -6.2490 H   0  0  0  0  0  0  0  0  0  0  0  0
  1 10  1  0  0  0  0
  2  1  1  0  0  0  0
  2  3  2  0  0  0  0
  4  2  1  0  0  0  0
  4 13  1  0  0  0  0
  5  4  1  0  0  0  0
  5 14  1  0  0  0  0
  6 16  1  1  0  0  0
  6  7  1  0  0  0  0
  6  5  1  0  0  0  0
  7 17  1  0  0  0  0
  8  6  1  0  0  0  0
  9  8  2  0  0  0  0
 11  1  1  0  0  0  0
 12  4  1  0  0  0  0
 15  5  1  0  0  0  0
 18  7  1  0  0  0  0
 19 29  1  0  0  0  0
 19  8  1  0  0  0  0
 20 30  1  6  0  0  0
 20 27  1  0  0  0  0
 20 19  1  0  0  0  0
 21 31  1  0  0  0  0
 21 20  1  0  0  0  0
 22 21  1  0  0  0  0
 22 23  2  0  0  0  0
 23 33  1  0  0  0  0
 24 34  1  0  0  0  0
 24 23  1  0  0  0  0
 25 24  1  0  0  0  0
 26 25  2  0  0  0  0
 26 22  1  0  0  0  0
 27 28  2  0  0  0  0
 32 21  1  0  0  0  0
 35 25  1  0  0  0  0
 36 27  1  0  0  0  0
 37 36  1  0  0  0  0
 37 47  1  1  0  0  0
 38 49  1  0  0  0  0
 38 37  1  0  0  0  0
 38 48  1  0  0  0  0
 39 38  1  0  0  0  0
 40 41  2  0  0  0  0
 40 39  1  0  0  0  0
 42 45  1  0  0  0  0
 42 37  1  0  0  0  0
 43 42  2  0  0  0  0
 44 40  1  0  0  0  0
 46 36  1  0  0  0  0
 50 39  1  0  0  0  0
 51 39  1  0  0  0  0
 52 44  1  0  0  0  0
M  END
$$$$
