QHF.pdb
 OpenBabel07022418323D

 56 57  0  0  1  0  0  0  0  0999 V2000
    1.5290   -0.3600    7.0430 N   0  0  0  0  0  0  0  0  0  0  0  0
    1.8240   -1.2550    5.9810 C   0  0  0  0  0  0  0  0  0  0  0  0
    1.3350   -2.4000    6.0090 O   0  0  0  0  0  0  0  0  0  0  0  0
    2.6950   -0.8430    4.8640 C   0  0  0  0  0  0  0  0  0  0  0  0
    2.7880   -1.8430    3.7480 C   0  0  0  0  0  0  0  0  0  0  0  0
    1.4890   -2.1650    3.0700 C   0  0  2  0  0  0  0  0  0  0  0  0
    1.6850   -3.1540    2.0140 N   0  0  0  0  0  0  0  0  0  0  0  0
    0.9440   -0.9000    2.4610 C   0  0  0  0  0  0  0  0  0  0  0  0
    0.6540    0.1130    3.1310 O   0  0  0  0  0  0  0  0  0  0  0  0
    0.6420   -0.4790    7.5730 H   0  0  0  0  0  0  0  0  0  0  0  0
    2.1570    0.4100    7.3190 H   0  0  0  0  0  0  0  0  0  0  0  0
    2.4590    0.1770    4.5230 H   0  0  0  0  0  0  0  0  0  0  0  0
    3.7420   -0.7860    5.2880 H   0  0  0  0  0  0  0  0  0  0  0  0
    3.2650   -2.7990    4.0840 H   0  0  0  0  0  0  0  0  0  0  0  0
    3.4760   -1.4080    2.9630 H   0  0  0  0  0  0  0  0  0  0  0  0
    0.8000   -2.6140    3.8030 H   0  0  0  0  0  0  0  0  0  0  0  0
    2.5830   -3.6320    2.1580 H   0  0  0  0  0  0  0  0  0  0  0  0
    0.8770   -3.7680    1.8610 H   0  0  0  0  0  0  0  0  0  0  0  0
    0.7320   -0.8070    1.0570 N   0  0  0  0  0  0  0  0  0  0  0  0
    0.2090    0.3890    0.3970 C   0  0  1  0  0  0  0  0  0  0  0  0
    1.1220    0.8230   -0.7150 C   0  0  0  0  0  0  0  0  0  0  0  0
    0.5770    2.0390   -1.3550 C   0  0  0  0  0  0  0  0  0  0  0  0
    0.8460    3.3580   -0.9680 C   0  0  0  0  0  0  0  0  0  0  0  0
    0.1880    4.2140   -1.7640 N   0  0  0  0  0  0  0  0  0  0  0  0
   -0.5010    3.4880   -2.6580 C   0  0  0  0  0  0  0  0  0  0  0  0
   -0.2560    2.1810   -2.3980 N   0  0  0  0  0  0  0  0  0  0  0  0
   -1.1460    0.0640   -0.1750 C   0  0  0  0  0  0  0  0  0  0  0  0
   -1.8450    0.9130   -0.7770 O   0  0  0  0  0  0  0  0  0  0  0  0
    0.9550   -1.6230    0.4590 H   0  0  0  0  0  0  0  0  0  0  0  0
    0.0620    1.2340    1.0900 H   0  0  0  0  0  0  0  0  0  0  0  0
    2.1560    1.0120   -0.3340 H   0  0  0  0  0  0  0  0  0  0  0  0
    1.2080    0.0410   -1.5130 H   0  0  0  0  0  0  0  0  0  0  0  0
    1.4910    3.6100   -0.1470 H   0  0  0  0  0  0  0  0  0  0  0  0
    0.1910    5.2500   -1.7210 H   0  0  0  0  0  0  0  0  0  0  0  0
   -1.1500    3.8120   -3.4620 H   0  0  0  0  0  0  0  0  0  0  0  0
   -1.6420   -1.2720   -0.0160 N   0  0  0  0  0  0  0  0  0  0  0  0
   -2.9390   -1.6060   -0.5550 C   0  0  1  0  0  0  0  0  0  0  0  0
   -2.7830   -2.7470   -1.5530 C   0  0  0  0  0  0  0  0  0  0  0  0
   -1.8840   -2.3400   -2.6580 C   0  0  0  0  0  0  0  0  0  0  0  0
   -2.3320   -1.7540   -3.8280 C   0  0  0  0  0  0  0  0  0  0  0  0
   -1.4750   -1.3860   -4.8300 C   0  0  0  0  0  0  0  0  0  0  0  0
   -0.1270   -1.6160   -4.6470 C   0  0  0  0  0  0  0  0  0  0  0  0
    0.3680   -2.1980   -3.4930 C   0  0  0  0  0  0  0  0  0  0  0  0
   -0.5240   -2.5460   -2.5270 C   0  0  0  0  0  0  0  0  0  0  0  0
   -3.8650   -1.9940    0.5360 C   0  0  0  0  0  0  0  0  0  0  0  0
   -3.4420   -1.9780    1.7130 O   0  0  0  0  0  0  0  0  0  0  0  0
   -5.1790   -2.3720    0.2890 O   0  0  0  0  0  0  0  0  0  0  0  0
   -1.0530   -1.9510    0.4810 H   0  0  0  0  0  0  0  0  0  0  0  0
   -3.3950   -0.7100   -1.0380 H   0  0  0  0  0  0  0  0  0  0  0  0
   -2.4490   -3.6280   -1.0010 H   0  0  0  0  0  0  0  0  0  0  0  0
   -3.7840   -2.9620   -1.9740 H   0  0  0  0  0  0  0  0  0  0  0  0
   -3.3950   -1.5850   -3.9490 H   0  0  0  0  0  0  0  0  0  0  0  0
   -1.8670   -0.9360   -5.7180 H   0  0  0  0  0  0  0  0  0  0  0  0
    0.5310   -1.3160   -5.4590 H   0  0  0  0  0  0  0  0  0  0  0  0
    1.4520   -2.3530   -3.4080 H   0  0  0  0  0  0  0  0  0  0  0  0
   -0.1120   -3.0070   -1.6180 H   0  0  0  0  0  0  0  0  0  0  0  0
  1 11  1  0  0  0  0
  1 10  1  0  0  0  0
  2  3  2  0  0  0  0
  2  1  1  0  0  0  0
  4 13  1  0  0  0  0
  4  2  1  0  0  0  0
  5 14  1  0  0  0  0
  5  4  1  0  0  0  0
  6  5  1  0  0  0  0
  6 16  1  1  0  0  0
  7 17  1  0  0  0  0
  7  6  1  0  0  0  0
  8  6  1  0  0  0  0
  8  9  2  0  0  0  0
 12  4  1  0  0  0  0
 15  5  1  0  0  0  0
 18  7  1  0  0  0  0
 19  8  1  0  0  0  0
 20 19  1  0  0  0  0
 20 30  1  1  0  0  0
 21 31  1  0  0  0  0
 21 20  1  0  0  0  0
 22 23  2  0  0  0  0
 22 21  1  0  0  0  0
 23 33  1  0  0  0  0
 24 34  1  0  0  0  0
 24 23  1  0  0  0  0
 25 26  2  0  0  0  0
 25 24  1  0  0  0  0
 26 22  1  0  0  0  0
 27 36  1  0  0  0  0
 27 20  1  0  0  0  0
 28 27  2  0  0  0  0
 29 19  1  0  0  0  0
 32 21  1  0  0  0  0
 35 25  1  0  0  0  0
 36 48  1  0  0  0  0
 37 49  1  6  0  0  0
 37 36  1  0  0  0  0
 37 45  1  0  0  0  0
 38 50  1  0  0  0  0
 38 37  1  0  0  0  0
 39 44  1  0  0  0  0
 39 38  1  0  0  0  0
 40 39  2  0  0  0  0
 41 42  2  0  0  0  0
 41 40  1  0  0  0  0
 42 43  1  0  0  0  0
 43 55  1  0  0  0  0
 43 44  2  0  0  0  0
 44 56  1  0  0  0  0
 45 46  1  0  0  0  0
 47 45  2  0  0  0  0
 51 38  1  0  0  0  0
 52 40  1  0  0  0  0
 53 41  1  0  0  0  0
 54 42  1  0  0  0  0
M  END
$$$$
