QHM.pdb
 OpenBabel07022418323D

 53 53  0  0  1  0  0  0  0  0999 V2000
    1.0350   -5.3120    3.3280 N   0  0  0  0  0  0  0  0  0  0  0  0
    1.8240   -4.1170    3.4870 C   0  0  0  0  0  0  0  0  0  0  0  0
    2.2140   -3.8730    4.6310 O   0  0  0  0  0  0  0  0  0  0  0  0
    2.0910   -3.3140    2.3100 C   0  0  0  0  0  0  0  0  0  0  0  0
    2.8730   -2.0750    2.4520 C   0  0  0  0  0  0  0  0  0  0  0  0
    2.3420   -0.9880    3.3050 C   0  0  2  0  0  0  0  0  0  0  0  0
    2.1230   -1.2940    4.6760 N   0  0  0  0  0  0  0  0  0  0  0  0
    1.1620   -0.2800    2.7050 C   0  0  0  0  0  0  0  0  0  0  0  0
    0.1510    0.0110    3.3900 O   0  0  0  0  0  0  0  0  0  0  0  0
    0.5620   -5.7890    4.1250 H   0  0  0  0  0  0  0  0  0  0  0  0
    0.8970   -5.7620    2.3870 H   0  0  0  0  0  0  0  0  0  0  0  0
    1.1210   -3.1410    1.7420 H   0  0  0  0  0  0  0  0  0  0  0  0
    2.6680   -3.9800    1.5950 H   0  0  0  0  0  0  0  0  0  0  0  0
    3.9240   -2.3100    2.7600 H   0  0  0  0  0  0  0  0  0  0  0  0
    3.0140   -1.6550    1.4060 H   0  0  0  0  0  0  0  0  0  0  0  0
    3.1460   -0.1730    3.2890 H   0  0  0  0  0  0  0  0  0  0  0  0
    3.0460   -1.2550    5.1900 H   0  0  0  0  0  0  0  0  0  0  0  0
    1.3870   -0.7240    5.1100 H   0  0  0  0  0  0  0  0  0  0  0  0
    1.1310    0.0930    1.3360 N   0  0  0  0  0  0  0  0  0  0  0  0
   -0.0380    0.7850    0.8040 C   0  0  1  0  0  0  0  0  0  0  0  0
    0.2590    2.1350    0.2530 C   0  0  0  0  0  0  0  0  0  0  0  0
    1.2090    2.2130   -0.8450 C   0  0  0  0  0  0  0  0  0  0  0  0
    2.5680    2.3620   -0.6980 C   0  0  0  0  0  0  0  0  0  0  0  0
    3.1360    2.3990   -1.9180 N   0  0  0  0  0  0  0  0  0  0  0  0
    2.1220    2.2740   -2.7860 C   0  0  0  0  0  0  0  0  0  0  0  0
    0.9580    2.1610   -2.1540 N   0  0  0  0  0  0  0  0  0  0  0  0
   -0.7330   -0.1450   -0.1070 C   0  0  0  0  0  0  0  0  0  0  0  0
   -0.2940   -1.3400   -0.2740 O   0  0  0  0  0  0  0  0  0  0  0  0
    1.9230   -0.1130    0.6960 H   0  0  0  0  0  0  0  0  0  0  0  0
   -0.7690    0.9800    1.6560 H   0  0  0  0  0  0  0  0  0  0  0  0
    0.6370    2.7680    1.1210 H   0  0  0  0  0  0  0  0  0  0  0  0
   -0.7260    2.6270   -0.0030 H   0  0  0  0  0  0  0  0  0  0  0  0
    3.1240    2.4390    0.2320 H   0  0  0  0  0  0  0  0  0  0  0  0
    4.1560    2.5040   -2.1780 H   0  0  0  0  0  0  0  0  0  0  0  0
    2.2810    2.2670   -3.8720 H   0  0  0  0  0  0  0  0  0  0  0  0
   -3.3020   -2.7490    0.7400 C   0  0  0  0  0  0  0  0  0  0  0  0
   -4.8520   -2.1890    0.0900 S   0  0  0  0  0  0  0  0  0  0  0  0
   -4.8610   -0.5230   -0.5540 C   0  0  0  0  0  0  0  0  0  0  0  0
   -4.0910   -0.3990   -1.8020 C   0  0  0  0  0  0  0  0  0  0  0  0
   -2.6430   -0.6660   -1.7130 C   0  0  2  0  0  0  0  0  0  0  0  0
   -1.8930    0.1840   -0.8370 N   0  0  0  0  0  0  0  0  0  0  0  0
   -2.0660   -0.6090   -3.1290 C   0  0  0  0  0  0  0  0  0  0  0  0
   -2.6090   -1.2870   -4.0370 O   0  0  0  0  0  0  0  0  0  0  0  0
   -0.9740    0.1550   -3.4570 O   0  0  0  0  0  0  0  0  0  0  0  0
   -2.7590   -3.4810    0.0830 H   0  0  0  0  0  0  0  0  0  0  0  0
   -2.6690   -1.8860    0.9670 H   0  0  0  0  0  0  0  0  0  0  0  0
   -3.4800   -3.2350    1.7420 H   0  0  0  0  0  0  0  0  0  0  0  0
   -4.5230    0.1820    0.2510 H   0  0  0  0  0  0  0  0  0  0  0  0
   -5.9520   -0.2490   -0.7590 H   0  0  0  0  0  0  0  0  0  0  0  0
   -4.3220    0.5480   -2.3730 H   0  0  0  0  0  0  0  0  0  0  0  0
   -4.5070   -1.1980   -2.5070 H   0  0  0  0  0  0  0  0  0  0  0  0
   -2.4530   -1.7160   -1.4230 H   0  0  0  0  0  0  0  0  0  0  0  0
   -2.2440    1.1790   -0.7140 H   0  0  0  0  0  0  0  0  0  0  0  0
  1  2  1  0  0  0  0
  1 10  1  0  0  0  0
  2  3  2  0  0  0  0
  4  5  1  0  0  0  0
  4  2  1  0  0  0  0
  5 14  1  0  0  0  0
  5  6  1  0  0  0  0
  6 16  1  1  0  0  0
  6  7  1  0  0  0  0
  7 18  1  0  0  0  0
  7 17  1  0  0  0  0
  8  6  1  0  0  0  0
  8  9  2  0  0  0  0
 11  1  1  0  0  0  0
 12  4  1  0  0  0  0
 13  4  1  0  0  0  0
 15  5  1  0  0  0  0
 19  8  1  0  0  0  0
 20 19  1  0  0  0  0
 20 30  1  1  0  0  0
 21 20  1  0  0  0  0
 21 31  1  0  0  0  0
 22 23  2  0  0  0  0
 22 21  1  0  0  0  0
 23 33  1  0  0  0  0
 24 23  1  0  0  0  0
 25 26  2  0  0  0  0
 25 24  1  0  0  0  0
 26 22  1  0  0  0  0
 27 20  1  0  0  0  0
 28 27  2  0  0  0  0
 29 19  1  0  0  0  0
 32 21  1  0  0  0  0
 34 24  1  0  0  0  0
 35 25  1  0  0  0  0
 36 46  1  0  0  0  0
 36 47  1  0  0  0  0
 37 36  1  0  0  0  0
 38 37  1  0  0  0  0
 38 48  1  0  0  0  0
 39 40  1  0  0  0  0
 39 38  1  0  0  0  0
 40 52  1  1  0  0  0
 40 41  1  0  0  0  0
 41 53  1  0  0  0  0
 41 27  1  0  0  0  0
 42 40  1  0  0  0  0
 43 42  2  0  0  0  0
 44 42  1  0  0  0  0
 45 36  1  0  0  0  0
 49 38  1  0  0  0  0
 50 39  1  0  0  0  0
 51 39  1  0  0  0  0
M  END
$$$$
