QHN.pdb
 OpenBabel07022418323D

 50 50  0  0  1  0  0  0  0  0999 V2000
    3.1370   -3.8960    2.6490 N   0  0  0  0  0  0  0  0  0  0  0  0
    2.7370   -2.9280    1.6540 C   0  0  0  0  0  0  0  0  0  0  0  0
    1.5390   -2.5820    1.7210 O   0  0  0  0  0  0  0  0  0  0  0  0
    3.7070   -2.4380    0.6770 C   0  0  0  0  0  0  0  0  0  0  0  0
    3.4260   -1.1850   -0.0420 C   0  0  0  0  0  0  0  0  0  0  0  0
    3.3250    0.0730    0.7620 C   0  0  2  0  0  0  0  0  0  0  0  0
    4.6020    0.2030    1.4620 N   0  0  0  0  0  0  0  0  0  0  0  0
    2.2080    0.1420    1.7030 C   0  0  0  0  0  0  0  0  0  0  0  0
    2.3580    0.0470    2.9680 O   0  0  0  0  0  0  0  0  0  0  0  0
    4.0460   -3.7960    3.1470 H   0  0  0  0  0  0  0  0  0  0  0  0
    2.5000   -4.6920    2.8560 H   0  0  0  0  0  0  0  0  0  0  0  0
    3.8670   -3.2420   -0.0940 H   0  0  0  0  0  0  0  0  0  0  0  0
    4.7350   -2.3770    1.1670 H   0  0  0  0  0  0  0  0  0  0  0  0
    4.2120   -0.9640   -0.8340 H   0  0  0  0  0  0  0  0  0  0  0  0
    2.4590   -1.3380   -0.6110 H   0  0  0  0  0  0  0  0  0  0  0  0
    3.3090    0.9690    0.0610 H   0  0  0  0  0  0  0  0  0  0  0  0
    5.3780    0.1840    0.7880 H   0  0  0  0  0  0  0  0  0  0  0  0
    4.6160    1.0760    2.0250 H   0  0  0  0  0  0  0  0  0  0  0  0
    0.8440    0.3310    1.2760 N   0  0  0  0  0  0  0  0  0  0  0  0
   -0.2430    0.4080    2.1950 C   0  0  1  0  0  0  0  0  0  0  0  0
   -0.7250    1.8300    2.4060 C   0  0  0  0  0  0  0  0  0  0  0  0
   -1.1970    2.5080    1.2030 C   0  0  0  0  0  0  0  0  0  0  0  0
   -0.3940    3.2610    0.3390 C   0  0  0  0  0  0  0  0  0  0  0  0
   -1.1300    3.7470   -0.6660 N   0  0  0  0  0  0  0  0  0  0  0  0
   -2.3950    3.3200   -0.4640 C   0  0  0  0  0  0  0  0  0  0  0  0
   -2.4220    2.5780    0.6600 N   0  0  0  0  0  0  0  0  0  0  0  0
   -1.3630   -0.4920    1.8600 C   0  0  0  0  0  0  0  0  0  0  0  0
   -2.4400   -0.4630    2.5490 O   0  0  0  0  0  0  0  0  0  0  0  0
    0.6920    0.4090    0.2500 H   0  0  0  0  0  0  0  0  0  0  0  0
    0.0940    0.1030    3.2460 H   0  0  0  0  0  0  0  0  0  0  0  0
   -1.5160    1.7630    3.2060 H   0  0  0  0  0  0  0  0  0  0  0  0
    0.1220    2.3700    2.9080 H   0  0  0  0  0  0  0  0  0  0  0  0
    0.6530    3.4300    0.4530 H   0  0  0  0  0  0  0  0  0  0  0  0
   -0.8370    4.3470   -1.4790 H   0  0  0  0  0  0  0  0  0  0  0  0
   -3.2310    3.5600   -1.1280 H   0  0  0  0  0  0  0  0  0  0  0  0
   -3.7160   -0.9890   -2.8530 N   0  0  0  0  0  0  0  0  0  0  0  0
   -3.3180   -1.0600   -1.4940 C   0  0  0  0  0  0  0  0  0  0  0  0
   -3.3040   -0.0150   -0.8080 O   0  0  0  0  0  0  0  0  0  0  0  0
   -2.9250   -2.3520   -0.9010 C   0  0  0  0  0  0  0  0  0  0  0  0
   -2.5120   -2.2850    0.5280 C   0  0  2  0  0  0  0  0  0  0  0  0
   -1.3740   -1.4380    0.7990 N   0  0  0  0  0  0  0  0  0  0  0  0
   -2.2350   -3.6700    1.0630 C   0  0  0  0  0  0  0  0  0  0  0  0
   -1.1790   -3.9790    1.6470 O   0  0  0  0  0  0  0  0  0  0  0  0
   -3.1830   -4.6820    0.9150 O   0  0  0  0  0  0  0  0  0  0  0  0
   -4.7310   -0.9530   -3.1300 H   0  0  0  0  0  0  0  0  0  0  0  0
   -3.0330   -0.9690   -3.6560 H   0  0  0  0  0  0  0  0  0  0  0  0
   -2.1960   -2.8810   -1.5490 H   0  0  0  0  0  0  0  0  0  0  0  0
   -3.8530   -2.9940   -0.9300 H   0  0  0  0  0  0  0  0  0  0  0  0
   -3.4090   -1.9560    1.1360 H   0  0  0  0  0  0  0  0  0  0  0  0
   -0.5200   -1.5050    0.2100 H   0  0  0  0  0  0  0  0  0  0  0  0
  1 11  1  0  0  0  0
  1 10  1  0  0  0  0
  2  3  2  0  0  0  0
  2  1  1  0  0  0  0
  4 13  1  0  0  0  0
  4  2  1  0  0  0  0
  5  4  1  0  0  0  0
  5  6  1  0  0  0  0
  6 16  1  6  0  0  0
  6  7  1  0  0  0  0
  6  8  1  0  0  0  0
  7 18  1  0  0  0  0
  8  9  2  0  0  0  0
 12  4  1  0  0  0  0
 14  5  1  0  0  0  0
 15  5  1  0  0  0  0
 17  7  1  0  0  0  0
 19  8  1  0  0  0  0
 19 20  1  0  0  0  0
 20 21  1  0  0  0  0
 20 30  1  1  0  0  0
 21 32  1  0  0  0  0
 21 31  1  0  0  0  0
 22 21  1  0  0  0  0
 23 33  1  0  0  0  0
 23 22  2  0  0  0  0
 24 25  1  0  0  0  0
 24 23  1  0  0  0  0
 25 26  2  0  0  0  0
 26 22  1  0  0  0  0
 27 20  1  0  0  0  0
 27 28  2  0  0  0  0
 29 19  1  0  0  0  0
 34 24  1  0  0  0  0
 35 25  1  0  0  0  0
 36 37  1  0  0  0  0
 37 39  1  0  0  0  0
 37 38  2  0  0  0  0
 39 40  1  0  0  0  0
 40 41  1  0  0  0  0
 40 42  1  0  0  0  0
 40 49  1  1  0  0  0
 41 27  1  0  0  0  0
 42 43  1  0  0  0  0
 44 42  2  0  0  0  0
 45 36  1  0  0  0  0
 46 36  1  0  0  0  0
 47 39  1  0  0  0  0
 48 39  1  0  0  0  0
 50 41  1  0  0  0  0
M  END
$$$$
