QHP.pdb
 OpenBabel07022418323D

 50 51  0  0  1  0  0  0  0  0999 V2000
    4.3910   -3.3880    2.9730 N   0  0  0  0  0  0  0  0  0  0  0  0
    4.5230   -2.3410    2.0240 C   0  0  0  0  0  0  0  0  0  0  0  0
    5.1220   -2.5440    0.9560 O   0  0  0  0  0  0  0  0  0  0  0  0
    3.9470   -1.0290    2.3270 C   0  0  0  0  0  0  0  0  0  0  0  0
    3.9960   -0.0350    1.2190 C   0  0  0  0  0  0  0  0  0  0  0  0
    3.2490   -0.5160    0.0230 C   0  0  2  0  0  0  0  0  0  0  0  0
    3.3540    0.5240   -1.0100 N   0  0  0  0  0  0  0  0  0  0  0  0
    1.8500   -0.7890    0.3540 C   0  0  0  0  0  0  0  0  0  0  0  0
    1.5060   -1.7150    1.1130 O   0  0  0  0  0  0  0  0  0  0  0  0
    5.2250   -3.6810    3.5150 H   0  0  0  0  0  0  0  0  0  0  0  0
    3.4900   -3.8810    3.1540 H   0  0  0  0  0  0  0  0  0  0  0  0
    4.5440   -0.6180    3.2080 H   0  0  0  0  0  0  0  0  0  0  0  0
    2.9400   -1.1770    2.7720 H   0  0  0  0  0  0  0  0  0  0  0  0
    5.0620    0.1910    0.9410 H   0  0  0  0  0  0  0  0  0  0  0  0
    3.5500    0.9420    1.5220 H   0  0  0  0  0  0  0  0  0  0  0  0
    3.7250   -1.4040   -0.4280 H   0  0  0  0  0  0  0  0  0  0  0  0
    3.0450    0.1680   -1.9410 H   0  0  0  0  0  0  0  0  0  0  0  0
    4.2900    0.9690   -1.0180 H   0  0  0  0  0  0  0  0  0  0  0  0
    0.8180    0.0240   -0.2040 N   0  0  0  0  0  0  0  0  0  0  0  0
   -0.5900   -0.2670    0.1420 C   0  0  1  0  0  0  0  0  0  0  0  0
   -1.0820    0.9910    0.8800 C   0  0  0  0  0  0  0  0  0  0  0  0
   -0.2540    1.1970    2.0870 C   0  0  0  0  0  0  0  0  0  0  0  0
    0.9110    1.9160    2.2290 C   0  0  0  0  0  0  0  0  0  0  0  0
    1.3180    1.8300    3.5040 N   0  0  0  0  0  0  0  0  0  0  0  0
    0.4460    1.0800    4.1640 C   0  0  0  0  0  0  0  0  0  0  0  0
   -0.5200    0.6850    3.3160 N   0  0  0  0  0  0  0  0  0  0  0  0
   -1.3600   -0.5100   -1.0880 C   0  0  0  0  0  0  0  0  0  0  0  0
   -0.7810   -0.2720   -2.2130 O   0  0  0  0  0  0  0  0  0  0  0  0
    1.0390    0.8170   -0.8480 H   0  0  0  0  0  0  0  0  0  0  0  0
   -0.5960   -1.1180    0.8140 H   0  0  0  0  0  0  0  0  0  0  0  0
   -2.1570    1.0140    1.0320 H   0  0  0  0  0  0  0  0  0  0  0  0
   -0.8000    1.8300    0.1840 H   0  0  0  0  0  0  0  0  0  0  0  0
    1.4260    2.4640    1.4610 H   0  0  0  0  0  0  0  0  0  0  0  0
    2.1660    2.2640    3.9330 H   0  0  0  0  0  0  0  0  0  0  0  0
    0.5270    0.8380    5.2360 H   0  0  0  0  0  0  0  0  0  0  0  0
   -2.6800   -0.9840   -1.0870 N   0  0  0  0  0  0  0  0  0  0  0  0
   -3.4970   -1.1980   -2.2790 C   0  0  0  0  0  0  0  0  0  0  0  0
   -4.7890   -0.5210   -1.8670 C   0  0  0  0  0  0  0  0  0  0  0  0
   -4.9350   -0.9470   -0.4210 C   0  0  0  0  0  0  0  0  0  0  0  0
   -3.5220   -1.3900    0.0030 C   0  0  1  0  0  0  0  0  0  0  0  0
   -3.5620   -2.8940    0.0740 C   0  0  0  0  0  0  0  0  0  0  0  0
   -2.9230   -3.6160   -0.7310 O   0  0  0  0  0  0  0  0  0  0  0  0
   -4.3220   -3.5190    1.0520 O   0  0  0  0  0  0  0  0  0  0  0  0
   -3.7020   -2.2520   -2.4580 H   0  0  0  0  0  0  0  0  0  0  0  0
   -3.0390   -0.6950   -3.1630 H   0  0  0  0  0  0  0  0  0  0  0  0
   -4.6940    0.5920   -1.9240 H   0  0  0  0  0  0  0  0  0  0  0  0
   -5.6320   -0.8420   -2.4900 H   0  0  0  0  0  0  0  0  0  0  0  0
   -5.6530   -1.7730   -0.3370 H   0  0  0  0  0  0  0  0  0  0  0  0
   -5.2050   -0.0660    0.2030 H   0  0  0  0  0  0  0  0  0  0  0  0
   -3.2640   -1.0150    0.9860 H   0  0  0  0  0  0  0  0  0  0  0  0
  1 11  1  0  0  0  0
  1 10  1  0  0  0  0
  2  4  1  0  0  0  0
  2  1  1  0  0  0  0
  3  2  2  0  0  0  0
  4 13  1  0  0  0  0
  4 12  1  0  0  0  0
  5 15  1  0  0  0  0
  5  4  1  0  0  0  0
  6 16  1  6  0  0  0
  6  8  1  0  0  0  0
  6  5  1  0  0  0  0
  7  6  1  0  0  0  0
  8  9  2  0  0  0  0
 14  5  1  0  0  0  0
 17  7  1  0  0  0  0
 18  7  1  0  0  0  0
 19 20  1  0  0  0  0
 19  8  1  0  0  0  0
 20 30  1  1  0  0  0
 20 21  1  0  0  0  0
 21 31  1  0  0  0  0
 21 22  1  0  0  0  0
 22 23  2  0  0  0  0
 22 26  1  0  0  0  0
 23 24  1  0  0  0  0
 24 34  1  0  0  0  0
 24 25  1  0  0  0  0
 25 35  1  0  0  0  0
 26 25  2  0  0  0  0
 27 36  1  0  0  0  0
 27 20  1  0  0  0  0
 28 27  2  0  0  0  0
 29 19  1  0  0  0  0
 32 21  1  0  0  0  0
 33 23  1  0  0  0  0
 36 40  1  0  0  0  0
 37 38  1  0  0  0  0
 37 36  1  0  0  0  0
 38 39  1  0  0  0  0
 39 48  1  0  0  0  0
 39 40  1  0  0  0  0
 39 49  1  0  0  0  0
 40 41  1  0  0  0  0
 40 50  1  1  0  0  0
 41 43  1  0  0  0  0
 42 41  2  0  0  0  0
 44 37  1  0  0  0  0
 45 37  1  0  0  0  0
 46 38  1  0  0  0  0
 47 38  1  0  0  0  0
M  END
$$$$
