QHS.pdb
 OpenBabel07022418323D

 47 47  0  0  1  0  0  0  0  0999 V2000
    0.3070   -3.9250    4.5200 N   0  0  0  0  0  0  0  0  0  0  0  0
    1.5080   -3.6310    3.7890 C   0  0  0  0  0  0  0  0  0  0  0  0
    2.5980   -3.5230    4.4040 O   0  0  0  0  0  0  0  0  0  0  0  0
    1.4560   -3.4650    2.3430 C   0  0  0  0  0  0  0  0  0  0  0  0
    2.5710   -2.7550    1.6800 C   0  0  0  0  0  0  0  0  0  0  0  0
    2.7280   -1.3300    2.0700 C   0  0  2  0  0  0  0  0  0  0  0  0
    2.9780   -1.1940    3.4780 N   0  0  0  0  0  0  0  0  0  0  0  0
    1.5100   -0.5190    1.7340 C   0  0  0  0  0  0  0  0  0  0  0  0
    0.9480    0.0980    2.6600 O   0  0  0  0  0  0  0  0  0  0  0  0
   -0.3350   -4.6700    4.2050 H   0  0  0  0  0  0  0  0  0  0  0  0
    0.1270   -3.3520    5.3680 H   0  0  0  0  0  0  0  0  0  0  0  0
    0.4580   -2.9820    2.0870 H   0  0  0  0  0  0  0  0  0  0  0  0
    1.4530   -4.5170    1.9120 H   0  0  0  0  0  0  0  0  0  0  0  0
    3.5250   -3.2790    1.9960 H   0  0  0  0  0  0  0  0  0  0  0  0
    2.5670   -2.8930    0.5620 H   0  0  0  0  0  0  0  0  0  0  0  0
    3.5760   -0.8510    1.4760 H   0  0  0  0  0  0  0  0  0  0  0  0
    3.9670   -0.9590    3.7090 H   0  0  0  0  0  0  0  0  0  0  0  0
    2.3950   -0.4470    3.9270 H   0  0  0  0  0  0  0  0  0  0  0  0
    0.9890   -0.4370    0.4180 N   0  0  0  0  0  0  0  0  0  0  0  0
   -0.2010    0.3590    0.1070 C   0  0  1  0  0  0  0  0  0  0  0  0
    0.1900    1.4480   -0.8690 C   0  0  0  0  0  0  0  0  0  0  0  0
    1.2470    2.3020   -0.2090 C   0  0  0  0  0  0  0  0  0  0  0  0
    1.0530    3.4180    0.5630 C   0  0  0  0  0  0  0  0  0  0  0  0
    2.2510    3.8730    0.9510 N   0  0  0  0  0  0  0  0  0  0  0  0
    3.1900    3.0620    0.4350 C   0  0  0  0  0  0  0  0  0  0  0  0
    2.5750    2.1060   -0.2720 N   0  0  0  0  0  0  0  0  0  0  0  0
   -1.2070   -0.5650   -0.4660 C   0  0  0  0  0  0  0  0  0  0  0  0
   -0.9840   -1.7930   -0.6170 O   0  0  0  0  0  0  0  0  0  0  0  0
    1.4950   -0.9710   -0.3200 H   0  0  0  0  0  0  0  0  0  0  0  0
   -0.5990    0.8510    1.0080 H   0  0  0  0  0  0  0  0  0  0  0  0
    0.6860    0.9900   -1.7490 H   0  0  0  0  0  0  0  0  0  0  0  0
   -0.6550    2.0360   -1.2210 H   0  0  0  0  0  0  0  0  0  0  0  0
    0.1170    3.8680    0.8260 H   0  0  0  0  0  0  0  0  0  0  0  0
    2.4550    4.7240    1.5610 H   0  0  0  0  0  0  0  0  0  0  0  0
    4.2680    3.1890    0.5850 H   0  0  0  0  0  0  0  0  0  0  0  0
   -4.3280   -1.5070    0.7450 O   0  0  0  0  0  0  0  0  0  0  0  0
   -4.6900   -1.0100   -0.4930 C   0  0  0  0  0  0  0  0  0  0  0  0
   -3.4990   -0.9570   -1.4390 C   0  0  2  0  0  0  0  0  0  0  0  0
   -2.4970   -0.1080   -0.8820 N   0  0  0  0  0  0  0  0  0  0  0  0
   -3.9300   -0.5960   -2.7830 C   0  0  0  0  0  0  0  0  0  0  0  0
   -4.8080   -1.2790   -3.3630 O   0  0  0  0  0  0  0  0  0  0  0  0
   -3.4030    0.4890   -3.4610 O   0  0  0  0  0  0  0  0  0  0  0  0
   -3.5470   -2.0960    0.6450 H   0  0  0  0  0  0  0  0  0  0  0  0
   -5.1360   -0.0050   -0.4600 H   0  0  0  0  0  0  0  0  0  0  0  0
   -5.4500   -1.7040   -0.9370 H   0  0  0  0  0  0  0  0  0  0  0  0
   -3.0650   -1.9980   -1.4710 H   0  0  0  0  0  0  0  0  0  0  0  0
   -2.6960    0.9010   -0.7650 H   0  0  0  0  0  0  0  0  0  0  0  0
  1 11  1  0  0  0  0
  2  3  2  0  0  0  0
  2  1  1  0  0  0  0
  4  2  1  0  0  0  0
  5 14  1  0  0  0  0
  5  6  1  0  0  0  0
  5  4  1  0  0  0  0
  6 16  1  6  0  0  0
  6  7  1  0  0  0  0
  7 17  1  0  0  0  0
  7 18  1  0  0  0  0
  8  6  1  0  0  0  0
  8  9  2  0  0  0  0
 10  1  1  0  0  0  0
 12  4  1  0  0  0  0
 13  4  1  0  0  0  0
 15  5  1  0  0  0  0
 19  8  1  0  0  0  0
 20 19  1  0  0  0  0
 20 30  1  1  0  0  0
 21 22  1  0  0  0  0
 21 20  1  0  0  0  0
 22 23  2  0  0  0  0
 23 33  1  0  0  0  0
 23 24  1  0  0  0  0
 24 34  1  0  0  0  0
 25 35  1  0  0  0  0
 25 24  1  0  0  0  0
 26 22  1  0  0  0  0
 26 25  2  0  0  0  0
 27 20  1  0  0  0  0
 28 27  2  0  0  0  0
 29 19  1  0  0  0  0
 31 21  1  0  0  0  0
 32 21  1  0  0  0  0
 37 44  1  0  0  0  0
 37 36  1  0  0  0  0
 38 46  1  6  0  0  0
 38 39  1  0  0  0  0
 38 37  1  0  0  0  0
 39 47  1  0  0  0  0
 39 27  1  0  0  0  0
 40 38  1  0  0  0  0
 41 40  1  0  0  0  0
 42 40  2  0  0  0  0
 43 36  1  0  0  0  0
 45 37  1  0  0  0  0
M  END
$$$$
