QHT.pdb
 OpenBabel07022418323D

 50 50  0  0  1  0  0  0  0  0999 V2000
    3.7970   -1.5080    6.0170 N   0  0  0  0  0  0  0  0  0  0  0  0
    4.1140   -1.5340    4.6360 C   0  0  0  0  0  0  0  0  0  0  0  0
    5.2490   -1.1210    4.2890 O   0  0  0  0  0  0  0  0  0  0  0  0
    3.1050   -2.0440    3.6420 C   0  0  0  0  0  0  0  0  0  0  0  0
    3.6520   -1.9850    2.2450 C   0  0  0  0  0  0  0  0  0  0  0  0
    2.7250   -2.4760    1.1870 C   0  0  2  0  0  0  0  0  0  0  0  0
    3.4480   -2.3350   -0.0850 N   0  0  0  0  0  0  0  0  0  0  0  0
    1.4310   -1.7520    1.1200 C   0  0  0  0  0  0  0  0  0  0  0  0
    0.6810   -1.7900    2.1050 O   0  0  0  0  0  0  0  0  0  0  0  0
    4.2270   -0.8410    6.6910 H   0  0  0  0  0  0  0  0  0  0  0  0
    3.1000   -2.1900    6.3830 H   0  0  0  0  0  0  0  0  0  0  0  0
    2.8360   -3.0870    3.8890 H   0  0  0  0  0  0  0  0  0  0  0  0
    2.2150   -1.4210    3.8030 H   0  0  0  0  0  0  0  0  0  0  0  0
    3.9790   -0.9320    2.0700 H   0  0  0  0  0  0  0  0  0  0  0  0
    4.5710   -2.5960    2.1940 H   0  0  0  0  0  0  0  0  0  0  0  0
    2.5350   -3.5600    1.3100 H   0  0  0  0  0  0  0  0  0  0  0  0
    2.9230   -2.7300   -0.8760 H   0  0  0  0  0  0  0  0  0  0  0  0
    4.4200   -2.6700    0.0120 H   0  0  0  0  0  0  0  0  0  0  0  0
    1.0060   -1.0180   -0.0120 N   0  0  0  0  0  0  0  0  0  0  0  0
   -0.2630   -0.3470    0.0090 C   0  0  1  0  0  0  0  0  0  0  0  0
   -0.1050    1.1630   -0.0830 C   0  0  0  0  0  0  0  0  0  0  0  0
    0.6870    1.6990    1.0410 C   0  0  0  0  0  0  0  0  0  0  0  0
    2.0520    1.8580    1.0630 C   0  0  0  0  0  0  0  0  0  0  0  0
    2.4260    2.3770    2.2580 N   0  0  0  0  0  0  0  0  0  0  0  0
    1.3060    2.5410    2.9780 C   0  0  0  0  0  0  0  0  0  0  0  0
    0.2420    2.1250    2.2320 N   0  0  0  0  0  0  0  0  0  0  0  0
   -1.1940   -0.8540   -1.0280 C   0  0  0  0  0  0  0  0  0  0  0  0
   -0.8680   -1.7740   -1.8210 O   0  0  0  0  0  0  0  0  0  0  0  0
    1.6030   -0.9620   -0.8540 H   0  0  0  0  0  0  0  0  0  0  0  0
   -0.7310   -0.5350    0.9930 H   0  0  0  0  0  0  0  0  0  0  0  0
   -1.0820    1.6760   -0.0960 H   0  0  0  0  0  0  0  0  0  0  0  0
    0.4490    1.4200   -1.0290 H   0  0  0  0  0  0  0  0  0  0  0  0
    2.7640    1.6200    0.2690 H   0  0  0  0  0  0  0  0  0  0  0  0
    3.3980    2.6120    2.5800 H   0  0  0  0  0  0  0  0  0  0  0  0
    1.2930    2.9420    3.9880 H   0  0  0  0  0  0  0  0  0  0  0  0
   -5.2310   -0.6520   -0.5060 C   0  0  0  0  0  0  0  0  0  0  0  0
   -4.5510   -1.5290   -1.5090 C   0  0  1  0  0  0  0  0  0  0  0  0
   -5.4130   -2.0240   -2.4850 O   0  0  0  0  0  0  0  0  0  0  0  0
   -3.3970   -0.8420   -2.2040 C   0  0  2  0  0  0  0  0  0  0  0  0
   -2.5050   -0.3290   -1.1830 N   0  0  0  0  0  0  0  0  0  0  0  0
   -3.8100    0.1780   -3.1650 C   0  0  0  0  0  0  0  0  0  0  0  0
   -3.4010    1.3550   -3.0620 O   0  0  0  0  0  0  0  0  0  0  0  0
   -4.6630   -0.1300   -4.2110 O   0  0  0  0  0  0  0  0  0  0  0  0
   -4.9100   -0.9280    0.5410 H   0  0  0  0  0  0  0  0  0  0  0  0
   -6.3320   -0.7990   -0.6200 H   0  0  0  0  0  0  0  0  0  0  0  0
   -4.9590    0.4280   -0.6050 H   0  0  0  0  0  0  0  0  0  0  0  0
   -4.0940   -2.4010   -0.9570 H   0  0  0  0  0  0  0  0  0  0  0  0
   -6.0500   -2.6180   -2.0160 H   0  0  0  0  0  0  0  0  0  0  0  0
   -2.8630   -1.6570   -2.7770 H   0  0  0  0  0  0  0  0  0  0  0  0
   -2.8550    0.4390   -0.5630 H   0  0  0  0  0  0  0  0  0  0  0  0
  1 11  1  0  0  0  0
  1 10  1  0  0  0  0
  2  1  1  0  0  0  0
  3  2  2  0  0  0  0
  4 13  1  0  0  0  0
  4 12  1  0  0  0  0
  4  2  1  0  0  0  0
  5  4  1  0  0  0  0
  6 16  1  1  0  0  0
  6  5  1  0  0  0  0
  7 18  1  0  0  0  0
  7  6  1  0  0  0  0
  8  6  1  0  0  0  0
  8  9  2  0  0  0  0
 14  5  1  0  0  0  0
 15  5  1  0  0  0  0
 17  7  1  0  0  0  0
 19 20  1  0  0  0  0
 19  8  1  0  0  0  0
 20 30  1  1  0  0  0
 21 20  1  0  0  0  0
 21 22  1  0  0  0  0
 22 23  2  0  0  0  0
 22 26  1  0  0  0  0
 23 24  1  0  0  0  0
 24 34  1  0  0  0  0
 24 25  1  0  0  0  0
 25 35  1  0  0  0  0
 26 25  2  0  0  0  0
 27 20  1  0  0  0  0
 28 27  2  0  0  0  0
 29 19  1  0  0  0  0
 31 21  1  0  0  0  0
 32 21  1  0  0  0  0
 33 23  1  0  0  0  0
 36 44  1  0  0  0  0
 37 47  1  1  0  0  0
 37 36  1  0  0  0  0
 38 48  1  0  0  0  0
 38 37  1  0  0  0  0
 39 49  1  6  0  0  0
 39 37  1  0  0  0  0
 39 40  1  0  0  0  0
 40 27  1  0  0  0  0
 40 50  1  0  0  0  0
 41 42  1  0  0  0  0
 41 39  1  0  0  0  0
 43 41  2  0  0  0  0
 45 36  1  0  0  0  0
 46 36  1  0  0  0  0
M  END
$$$$
