QHY.pdb
 OpenBabel07022418323D

 57 58  0  0  1  0  0  0  0  0999 V2000
    3.3720   -4.2440    3.3750 N   0  0  0  0  0  0  0  0  0  0  0  0
    3.6630   -2.8950    3.7020 C   0  0  0  0  0  0  0  0  0  0  0  0
    4.0120   -2.6350    4.8770 O   0  0  0  0  0  0  0  0  0  0  0  0
    3.5560   -1.8060    2.6610 C   0  0  0  0  0  0  0  0  0  0  0  0
    3.9180   -0.5160    3.3000 C   0  0  0  0  0  0  0  0  0  0  0  0
    3.8840    0.6950    2.4010 C   0  0  2  0  0  0  0  0  0  0  0  0
    4.2940    1.8230    3.2820 N   0  0  0  0  0  0  0  0  0  0  0  0
    2.5190    0.9810    1.9670 C   0  0  0  0  0  0  0  0  0  0  0  0
    1.8680    1.9180    2.5580 O   0  0  0  0  0  0  0  0  0  0  0  0
    3.9320   -4.6980    2.6270 H   0  0  0  0  0  0  0  0  0  0  0  0
    2.6330   -4.8110    3.8360 H   0  0  0  0  0  0  0  0  0  0  0  0
    4.3240   -2.0660    1.8940 H   0  0  0  0  0  0  0  0  0  0  0  0
    2.5510   -1.8520    2.2460 H   0  0  0  0  0  0  0  0  0  0  0  0
    4.9260   -0.6380    3.7790 H   0  0  0  0  0  0  0  0  0  0  0  0
    3.2310   -0.3760    4.1840 H   0  0  0  0  0  0  0  0  0  0  0  0
    4.6230    0.6540    1.6020 H   0  0  0  0  0  0  0  0  0  0  0  0
    5.2480    1.5900    3.6890 H   0  0  0  0  0  0  0  0  0  0  0  0
    4.4750    2.6700    2.6820 H   0  0  0  0  0  0  0  0  0  0  0  0
    1.8000    0.3410    0.9440 N   0  0  0  0  0  0  0  0  0  0  0  0
    0.4110    0.7310    0.5860 C   0  0  1  0  0  0  0  0  0  0  0  0
    0.4110    1.3670   -0.7520 C   0  0  0  0  0  0  0  0  0  0  0  0
   -0.9230    1.7960   -1.1960 C   0  0  0  0  0  0  0  0  0  0  0  0
   -1.4860    3.0430   -0.9160 C   0  0  0  0  0  0  0  0  0  0  0  0
   -2.7050    3.1120   -1.4640 N   0  0  0  0  0  0  0  0  0  0  0  0
   -2.9400    1.9490   -2.0850 C   0  0  0  0  0  0  0  0  0  0  0  0
   -1.8640    1.1650   -1.9190 N   0  0  0  0  0  0  0  0  0  0  0  0
   -0.4340   -0.4330    0.8030 C   0  0  0  0  0  0  0  0  0  0  0  0
    0.1550   -1.5440    1.0610 O   0  0  0  0  0  0  0  0  0  0  0  0
    2.2280   -0.4180    0.4060 H   0  0  0  0  0  0  0  0  0  0  0  0
    0.0780    1.5370    1.3100 H   0  0  0  0  0  0  0  0  0  0  0  0
    1.0770    2.2830   -0.6660 H   0  0  0  0  0  0  0  0  0  0  0  0
    0.9110    0.7620   -1.5400 H   0  0  0  0  0  0  0  0  0  0  0  0
   -0.9870    3.8020   -0.3470 H   0  0  0  0  0  0  0  0  0  0  0  0
   -3.3700    3.9050   -1.4310 H   0  0  0  0  0  0  0  0  0  0  0  0
   -3.8660    1.7030   -2.6320 H   0  0  0  0  0  0  0  0  0  0  0  0
   -3.1310   -1.8030   -5.4350 O   0  0  0  0  0  0  0  0  0  0  0  0
   -2.9010   -2.0570   -4.0740 C   0  0  0  0  0  0  0  0  0  0  0  0
   -1.6780   -1.8040   -3.4960 C   0  0  0  0  0  0  0  0  0  0  0  0
   -1.4760   -2.0610   -2.1560 C   0  0  0  0  0  0  0  0  0  0  0  0
   -2.4580   -2.5700   -1.3450 C   0  0  0  0  0  0  0  0  0  0  0  0
   -2.2300   -2.8410    0.0810 C   0  0  0  0  0  0  0  0  0  0  0  0
   -2.5700   -1.7170    1.0100 C   0  0  2  0  0  0  0  0  0  0  0  0
   -1.8390   -0.5000    0.7730 N   0  0  0  0  0  0  0  0  0  0  0  0
   -2.1800   -2.1810    2.3850 C   0  0  0  0  0  0  0  0  0  0  0  0
   -2.6960   -3.2530    2.7870 O   0  0  0  0  0  0  0  0  0  0  0  0
   -3.7050   -2.8320   -1.9180 C   0  0  0  0  0  0  0  0  0  0  0  0
   -3.8870   -2.5690   -3.2530 C   0  0  0  0  0  0  0  0  0  0  0  0
   -1.3170   -1.5250    3.2150 O   0  0  0  0  0  0  0  0  0  0  0  0
   -4.0760   -1.8750   -5.7540 H   0  0  0  0  0  0  0  0  0  0  0  0
   -0.8890   -1.3980   -4.1370 H   0  0  0  0  0  0  0  0  0  0  0  0
   -0.5070   -1.8560   -1.7210 H   0  0  0  0  0  0  0  0  0  0  0  0
   -1.2010   -3.1890    0.2960 H   0  0  0  0  0  0  0  0  0  0  0  0
   -2.9440   -3.6790    0.3640 H   0  0  0  0  0  0  0  0  0  0  0  0
   -3.6780   -1.5190    1.0340 H   0  0  0  0  0  0  0  0  0  0  0  0
   -2.3440    0.4000    0.5870 H   0  0  0  0  0  0  0  0  0  0  0  0
   -4.4890   -3.2350   -1.2850 H   0  0  0  0  0  0  0  0  0  0  0  0
   -4.8590   -2.7680   -3.7190 H   0  0  0  0  0  0  0  0  0  0  0  0
  1  2  1  0  0  0  0
  1 11  1  0  0  0  0
  2  3  2  0  0  0  0
  4  5  1  0  0  0  0
  4  2  1  0  0  0  0
  5 14  1  0  0  0  0
  5 15  1  0  0  0  0
  6 16  1  6  0  0  0
  6  7  1  0  0  0  0
  6  5  1  0  0  0  0
  7 17  1  0  0  0  0
  8  6  1  0  0  0  0
  8  9  2  0  0  0  0
 10  1  1  0  0  0  0
 12  4  1  0  0  0  0
 13  4  1  0  0  0  0
 18  7  1  0  0  0  0
 19  8  1  0  0  0  0
 20 27  1  0  0  0  0
 20 19  1  0  0  0  0
 20 30  1  1  0  0  0
 21 31  1  0  0  0  0
 21 20  1  0  0  0  0
 22 23  2  0  0  0  0
 22 21  1  0  0  0  0
 23 33  1  0  0  0  0
 24 34  1  0  0  0  0
 24 23  1  0  0  0  0
 25 26  2  0  0  0  0
 25 24  1  0  0  0  0
 26 22  1  0  0  0  0
 27 28  2  0  0  0  0
 29 19  1  0  0  0  0
 32 21  1  0  0  0  0
 35 25  1  0  0  0  0
 36 37  1  0  0  0  0
 37 38  2  0  0  0  0
 37 47  1  0  0  0  0
 38 39  1  0  0  0  0
 39 51  1  0  0  0  0
 39 40  2  0  0  0  0
 40 41  1  0  0  0  0
 41 52  1  0  0  0  0
 41 53  1  0  0  0  0
 41 42  1  0  0  0  0
 42 54  1  6  0  0  0
 42 44  1  0  0  0  0
 43 27  1  0  0  0  0
 43 42  1  0  0  0  0
 44 45  2  0  0  0  0
 44 48  1  0  0  0  0
 46 40  1  0  0  0  0
 46 56  1  0  0  0  0
 47 46  2  0  0  0  0
 49 36  1  0  0  0  0
 50 38  1  0  0  0  0
 55 43  1  0  0  0  0
 57 47  1  0  0  0  0
M  END
$$$$
