QIA.pdb
 OpenBabel07022418323D

 48 47  0  0  1  0  0  0  0  0999 V2000
    0.0980   -6.8830    2.9440 N   0  0  0  0  0  0  0  0  0  0  0  0
    0.5190   -5.5280    2.8800 C   0  0  0  0  0  0  0  0  0  0  0  0
    0.2290   -4.8000    3.8500 O   0  0  0  0  0  0  0  0  0  0  0  0
    1.2660   -5.0010    1.7220 C   0  0  0  0  0  0  0  0  0  0  0  0
    1.5340   -3.5340    1.8070 C   0  0  0  0  0  0  0  0  0  0  0  0
    0.2890   -2.6840    1.8620 C   0  0  2  0  0  0  0  0  0  0  0  0
   -0.4800   -2.9280    0.6570 N   0  0  0  0  0  0  0  0  0  0  0  0
    0.7120   -1.2470    1.8380 C   0  0  0  0  0  0  0  0  0  0  0  0
    1.3940   -0.8130    2.7960 O   0  0  0  0  0  0  0  0  0  0  0  0
   -0.7290   -7.1680    3.4940 H   0  0  0  0  0  0  0  0  0  0  0  0
    0.6390   -7.6240    2.4180 H   0  0  0  0  0  0  0  0  0  0  0  0
    0.6670   -5.2720    0.8150 H   0  0  0  0  0  0  0  0  0  0  0  0
    2.2680   -5.5070    1.6930 H   0  0  0  0  0  0  0  0  0  0  0  0
    2.1950   -3.2410    0.9850 H   0  0  0  0  0  0  0  0  0  0  0  0
    2.0940   -3.3370    2.7460 H   0  0  0  0  0  0  0  0  0  0  0  0
   -0.3630   -2.8950    2.7100 H   0  0  0  0  0  0  0  0  0  0  0  0
   -1.3250   -2.3280    0.6220 H   0  0  0  0  0  0  0  0  0  0  0  0
    0.1520   -2.7550   -0.1530 H   0  0  0  0  0  0  0  0  0  0  0  0
    1.8760    1.5380   -2.8930 C   0  0  0  0  0  0  0  0  0  0  0  0
    1.0190    1.0650   -1.7420 C   0  0  0  0  0  0  0  0  0  0  0  0
    1.6960    1.3640   -0.3980 C   0  0  2  0  0  0  0  0  0  0  0  0
    3.0160    0.6670   -0.3250 C   0  0  0  0  0  0  0  0  0  0  0  0
    0.7760    1.0240    0.7480 C   0  0  2  0  0  0  0  0  0  0  0  0
    0.3820   -0.3510    0.7880 N   0  0  0  0  0  0  0  0  0  0  0  0
   -0.3700    1.9620    0.8080 C   0  0  0  0  0  0  0  0  0  0  0  0
   -0.2020    3.2060    0.7840 O   0  0  0  0  0  0  0  0  0  0  0  0
    1.3860    1.2370   -3.8190 H   0  0  0  0  0  0  0  0  0  0  0  0
    2.1070    2.6190   -2.8340 H   0  0  0  0  0  0  0  0  0  0  0  0
    2.8690    1.0140   -2.8750 H   0  0  0  0  0  0  0  0  0  0  0  0
    0.9150   -0.0490   -1.8750 H   0  0  0  0  0  0  0  0  0  0  0  0
    0.0500    1.5850   -1.8110 H   0  0  0  0  0  0  0  0  0  0  0  0
    1.8910    2.4570   -0.4000 H   0  0  0  0  0  0  0  0  0  0  0  0
    3.0660   -0.2530   -0.9650 H   0  0  0  0  0  0  0  0  0  0  0  0
    3.8680    1.3050   -0.7040 H   0  0  0  0  0  0  0  0  0  0  0  0
    3.2960    0.4380    0.7360 H   0  0  0  0  0  0  0  0  0  0  0  0
    1.3660    1.2190    1.6800 H   0  0  0  0  0  0  0  0  0  0  0  0
   -0.1870   -0.7600    0.0130 H   0  0  0  0  0  0  0  0  0  0  0  0
   -3.6530    2.1130   -0.3260 C   0  0  0  0  0  0  0  0  0  0  0  0
   -2.8540    2.3510    0.9560 C   0  0  2  0  0  0  0  0  0  0  0  0
   -1.7020    1.4800    0.8950 N   0  0  0  0  0  0  0  0  0  0  0  0
   -3.6370    2.0390    2.1490 C   0  0  0  0  0  0  0  0  0  0  0  0
   -4.6760    2.6670    2.4040 O   0  0  0  0  0  0  0  0  0  0  0  0
   -3.2250    1.0360    3.0070 O   0  0  0  0  0  0  0  0  0  0  0  0
   -3.1350    2.6940   -1.1330 H   0  0  0  0  0  0  0  0  0  0  0  0
   -4.7090    2.3630   -0.2160 H   0  0  0  0  0  0  0  0  0  0  0  0
   -3.5610    1.0260   -0.5390 H   0  0  0  0  0  0  0  0  0  0  0  0
   -2.5180    3.4080    0.9230 H   0  0  0  0  0  0  0  0  0  0  0  0
   -1.8360    0.4560    0.9150 H   0  0  0  0  0  0  0  0  0  0  0  0
  1 10  1  0  0  0  0
  2  1  1  0  0  0  0
  2  3  2  0  0  0  0
  4  5  1  0  0  0  0
  4  2  1  0  0  0  0
  5  6  1  0  0  0  0
  5 15  1  0  0  0  0
  6 16  1  1  0  0  0
  7  6  1  0  0  0  0
  8  6  1  0  0  0  0
  8  9  2  0  0  0  0
 11  1  1  0  0  0  0
 12  4  1  0  0  0  0
 13  4  1  0  0  0  0
 14  5  1  0  0  0  0
 17  7  1  0  0  0  0
 18  7  1  0  0  0  0
 19 29  1  0  0  0  0
 19 28  1  0  0  0  0
 19 20  1  0  0  0  0
 20 21  1  0  0  0  0
 21 32  1  1  0  0  0
 21 22  1  0  0  0  0
 21 23  1  0  0  0  0
 22 35  1  0  0  0  0
 23 24  1  0  0  0  0
 23 25  1  0  0  0  0
 23 36  1  1  0  0  0
 24  8  1  0  0  0  0
 25 40  1  0  0  0  0
 26 25  2  0  0  0  0
 27 19  1  0  0  0  0
 30 20  1  0  0  0  0
 31 20  1  0  0  0  0
 33 22  1  0  0  0  0
 34 22  1  0  0  0  0
 37 24  1  0  0  0  0
 38 45  1  0  0  0  0
 38 39  1  0  0  0  0
 39 47  1  1  0  0  0
 39 41  1  0  0  0  0
 40 48  1  0  0  0  0
 40 39  1  0  0  0  0
 41 42  2  0  0  0  0
 41 43  1  0  0  0  0
 44 38  1  0  0  0  0
 46 38  1  0  0  0  0
M  END
$$$$
