QIC.pdb
 OpenBabel07022418323D

 49 48  0  0  1  0  0  0  0  0999 V2000
   -3.1180   -3.8400    3.8440 N   0  0  0  0  0  0  0  0  0  0  0  0
   -1.9770   -3.1780    4.3670 C   0  0  0  0  0  0  0  0  0  0  0  0
   -2.1050   -2.7860    5.5730 O   0  0  0  0  0  0  0  0  0  0  0  0
   -0.7580   -2.9790    3.5610 C   0  0  0  0  0  0  0  0  0  0  0  0
    0.2430   -2.0280    4.0890 C   0  0  0  0  0  0  0  0  0  0  0  0
   -0.1690   -0.6070    4.2360 C   0  0  2  0  0  0  0  0  0  0  0  0
   -1.2770   -0.3920    5.1210 N   0  0  0  0  0  0  0  0  0  0  0  0
   -0.5270    0.0030    2.9030 C   0  0  0  0  0  0  0  0  0  0  0  0
   -1.6330    0.5700    2.7300 O   0  0  0  0  0  0  0  0  0  0  0  0
   -3.9830   -3.3000    3.6950 H   0  0  0  0  0  0  0  0  0  0  0  0
   -3.0890   -4.8430    3.6150 H   0  0  0  0  0  0  0  0  0  0  0  0
   -1.0660   -2.6970    2.5100 H   0  0  0  0  0  0  0  0  0  0  0  0
   -0.2640   -3.9950    3.5070 H   0  0  0  0  0  0  0  0  0  0  0  0
    0.5520   -2.3930    5.1090 H   0  0  0  0  0  0  0  0  0  0  0  0
    1.1940   -2.1170    3.4850 H   0  0  0  0  0  0  0  0  0  0  0  0
    0.7280   -0.0420    4.6420 H   0  0  0  0  0  0  0  0  0  0  0  0
   -2.1570   -0.2400    4.5460 H   0  0  0  0  0  0  0  0  0  0  0  0
   -1.0970    0.4780    5.6680 H   0  0  0  0  0  0  0  0  0  0  0  0
    2.1460    3.4860   -0.7490 C   0  0  0  0  0  0  0  0  0  0  0  0
    1.1520    2.3250   -0.9480 C   0  0  0  0  0  0  0  0  0  0  0  0
    1.1630    1.5470    0.3080 C   0  0  2  0  0  0  0  0  0  0  0  0
    2.5110    0.9640    0.6530 C   0  0  0  0  0  0  0  0  0  0  0  0
    0.1110    0.5110    0.5020 C   0  0  2  0  0  0  0  0  0  0  0  0
    0.4110   -0.0730    1.8380 N   0  0  0  0  0  0  0  0  0  0  0  0
    0.2510   -0.5590   -0.5230 C   0  0  0  0  0  0  0  0  0  0  0  0
    0.7200   -1.7080   -0.1920 O   0  0  0  0  0  0  0  0  0  0  0  0
    2.0770    3.7850    0.3170 H   0  0  0  0  0  0  0  0  0  0  0  0
    1.8420    4.3600   -1.3510 H   0  0  0  0  0  0  0  0  0  0  0  0
    3.1790    3.1670   -0.9380 H   0  0  0  0  0  0  0  0  0  0  0  0
    1.4460    1.7470   -1.8500 H   0  0  0  0  0  0  0  0  0  0  0  0
    0.1750    2.7910   -1.1560 H   0  0  0  0  0  0  0  0  0  0  0  0
    0.9750    2.3090    1.1440 H   0  0  0  0  0  0  0  0  0  0  0  0
    2.6740    0.9580    1.7510 H   0  0  0  0  0  0  0  0  0  0  0  0
    2.5680   -0.1220    0.3490 H   0  0  0  0  0  0  0  0  0  0  0  0
    3.3530    1.4750    0.1870 H   0  0  0  0  0  0  0  0  0  0  0  0
   -0.8870    0.9600    0.5360 H   0  0  0  0  0  0  0  0  0  0  0  0
    1.3140   -0.5530    2.0280 H   0  0  0  0  0  0  0  0  0  0  0  0
   -0.1190   -0.3760   -1.8780 N   0  0  0  0  0  0  0  0  0  0  0  0
    0.0480   -1.4620   -2.8080 C   0  0  1  0  0  0  0  0  0  0  0  0
   -1.2890   -1.9380   -3.3530 C   0  0  0  0  0  0  0  0  0  0  0  0
   -0.9620   -3.3030   -4.5100 S   0  0  0  0  0  0  0  0  0  0  0  0
    0.9640   -1.1240   -3.9290 C   0  0  0  0  0  0  0  0  0  0  0  0
    1.4750    0.0150   -3.9610 O   0  0  0  0  0  0  0  0  0  0  0  0
    1.2740   -2.0180   -4.9360 O   0  0  0  0  0  0  0  0  0  0  0  0
   -0.5260    0.5600   -2.1830 H   0  0  0  0  0  0  0  0  0  0  0  0
    0.4890   -2.3220   -2.2740 H   0  0  0  0  0  0  0  0  0  0  0  0
   -1.8980   -2.3320   -2.5350 H   0  0  0  0  0  0  0  0  0  0  0  0
   -1.8000   -1.1470   -3.9430 H   0  0  0  0  0  0  0  0  0  0  0  0
   -0.8810   -4.4880   -3.7340 H   0  0  0  0  0  0  0  0  0  0  0  0
  1  2  1  0  0  0  0
  2  3  2  0  0  0  0
  4  5  1  0  0  0  0
  4  2  1  0  0  0  0
  5  6  1  0  0  0  0
  5 14  1  0  0  0  0
  6 16  1  1  0  0  0
  6  7  1  0  0  0  0
  7 18  1  0  0  0  0
  8  6  1  0  0  0  0
  9  8  2  0  0  0  0
 10  1  1  0  0  0  0
 11  1  1  0  0  0  0
 12  4  1  0  0  0  0
 13  4  1  0  0  0  0
 15  5  1  0  0  0  0
 17  7  1  0  0  0  0
 19 27  1  0  0  0  0
 20 19  1  0  0  0  0
 20 21  1  0  0  0  0
 21 23  1  0  0  0  0
 21 22  1  0  0  0  0
 21 32  1  1  0  0  0
 22 33  1  0  0  0  0
 23 36  1  6  0  0  0
 23 24  1  0  0  0  0
 24 37  1  0  0  0  0
 24  8  1  0  0  0  0
 25 26  2  0  0  0  0
 25 23  1  0  0  0  0
 28 19  1  0  0  0  0
 29 19  1  0  0  0  0
 30 20  1  0  0  0  0
 31 20  1  0  0  0  0
 34 22  1  0  0  0  0
 35 22  1  0  0  0  0
 38 25  1  0  0  0  0
 39 46  1  1  0  0  0
 39 38  1  0  0  0  0
 40 39  1  0  0  0  0
 40 47  1  0  0  0  0
 41 49  1  0  0  0  0
 41 40  1  0  0  0  0
 42 39  1  0  0  0  0
 43 42  1  0  0  0  0
 44 42  2  0  0  0  0
 45 38  1  0  0  0  0
 48 40  1  0  0  0  0
M  END
$$$$
