QID.pdb
 OpenBabel07022418323D

 51 50  0  0  1  0  0  0  0  0999 V2000
    1.6530   -4.9270   -0.3580 N   0  0  0  0  0  0  0  0  0  0  0  0
    2.4830   -4.3100    0.6140 C   0  0  0  0  0  0  0  0  0  0  0  0
    3.1900   -4.9540    1.4170 O   0  0  0  0  0  0  0  0  0  0  0  0
    2.5040   -2.8190    0.6680 C   0  0  0  0  0  0  0  0  0  0  0  0
    3.4230   -2.3230    1.7520 C   0  0  0  0  0  0  0  0  0  0  0  0
    3.4450   -0.8160    1.7690 C   0  0  2  0  0  0  0  0  0  0  0  0
    4.3580   -0.4570    2.8630 N   0  0  0  0  0  0  0  0  0  0  0  0
    2.1490   -0.1720    1.9810 C   0  0  0  0  0  0  0  0  0  0  0  0
    1.8880    0.2470    3.1560 O   0  0  0  0  0  0  0  0  0  0  0  0
    1.0520   -4.3900   -0.9900 H   0  0  0  0  0  0  0  0  0  0  0  0
    1.6840   -5.9860   -0.4010 H   0  0  0  0  0  0  0  0  0  0  0  0
    2.8320   -2.4180   -0.3030 H   0  0  0  0  0  0  0  0  0  0  0  0
    1.4800   -2.4340    0.9320 H   0  0  0  0  0  0  0  0  0  0  0  0
    4.4310   -2.7330    1.5410 H   0  0  0  0  0  0  0  0  0  0  0  0
    3.1060   -2.7420    2.7270 H   0  0  0  0  0  0  0  0  0  0  0  0
    3.8960   -0.4250    0.8390 H   0  0  0  0  0  0  0  0  0  0  0  0
    3.8550   -0.1480    3.7070 H   0  0  0  0  0  0  0  0  0  0  0  0
    5.1110    0.1860    2.5390 H   0  0  0  0  0  0  0  0  0  0  0  0
   -1.8390    2.8230    2.5930 C   0  0  0  0  0  0  0  0  0  0  0  0
   -1.4110    2.8300    1.1750 C   0  0  0  0  0  0  0  0  0  0  0  0
   -0.1150    2.1440    0.8630 C   0  0  2  0  0  0  0  0  0  0  0  0
    0.1200    2.2650   -0.6330 C   0  0  0  0  0  0  0  0  0  0  0  0
   -0.1240    0.7090    1.3430 C   0  0  2  0  0  0  0  0  0  0  0  0
    1.1340    0.0530    1.0320 N   0  0  0  0  0  0  0  0  0  0  0  0
   -1.3120   -0.0450    0.9120 C   0  0  0  0  0  0  0  0  0  0  0  0
   -2.4680    0.3710    1.2540 O   0  0  0  0  0  0  0  0  0  0  0  0
   -2.9700    2.7930    2.5910 H   0  0  0  0  0  0  0  0  0  0  0  0
   -1.6200    3.8140    3.0910 H   0  0  0  0  0  0  0  0  0  0  0  0
   -1.5040    2.0140    3.2270 H   0  0  0  0  0  0  0  0  0  0  0  0
   -2.1800    2.4640    0.4530 H   0  0  0  0  0  0  0  0  0  0  0  0
   -1.2620    3.9130    0.8240 H   0  0  0  0  0  0  0  0  0  0  0  0
    0.7010    2.6500    1.4350 H   0  0  0  0  0  0  0  0  0  0  0  0
   -0.8320    2.3990   -1.1900 H   0  0  0  0  0  0  0  0  0  0  0  0
    0.7210    3.1800   -0.8480 H   0  0  0  0  0  0  0  0  0  0  0  0
    0.5920    1.3490   -1.0460 H   0  0  0  0  0  0  0  0  0  0  0  0
   -0.1440    0.7760    2.4500 H   0  0  0  0  0  0  0  0  0  0  0  0
    1.2770   -0.2530    0.0530 H   0  0  0  0  0  0  0  0  0  0  0  0
   -1.3080   -1.2260    0.1300 N   0  0  0  0  0  0  0  0  0  0  0  0
   -2.5370   -1.9020   -0.2460 C   0  0  1  0  0  0  0  0  0  0  0  0
   -2.7020   -1.9710   -1.7450 C   0  0  0  0  0  0  0  0  0  0  0  0
   -2.7330   -0.5700   -2.2770 C   0  0  0  0  0  0  0  0  0  0  0  0
   -1.6920    0.1080   -2.4460 O   0  0  0  0  0  0  0  0  0  0  0  0
   -2.5830   -3.2430    0.3640 C   0  0  0  0  0  0  0  0  0  0  0  0
   -1.6720   -3.6800    1.0890 O   0  0  0  0  0  0  0  0  0  0  0  0
   -3.9430    0.0590   -2.6150 O   0  0  0  0  0  0  0  0  0  0  0  0
   -3.6810   -4.0660    0.1310 O   0  0  0  0  0  0  0  0  0  0  0  0
   -0.4030   -1.6070   -0.1840 H   0  0  0  0  0  0  0  0  0  0  0  0
   -3.3830   -1.3250    0.1750 H   0  0  0  0  0  0  0  0  0  0  0  0
   -3.6760   -2.4560   -1.9560 H   0  0  0  0  0  0  0  0  0  0  0  0
   -1.9300   -2.5850   -2.2300 H   0  0  0  0  0  0  0  0  0  0  0  0
   -4.1140    1.0180   -2.2750 H   0  0  0  0  0  0  0  0  0  0  0  0
  1  2  1  0  0  0  0
  2  4  1  0  0  0  0
  2  3  2  0  0  0  0
  4 13  1  0  0  0  0
  4  5  1  0  0  0  0
  5  6  1  0  0  0  0
  5 15  1  0  0  0  0
  6 16  1  6  0  0  0
  6  8  1  0  0  0  0
  6  7  1  0  0  0  0
  7 17  1  0  0  0  0
  8  9  2  0  0  0  0
 10  1  1  0  0  0  0
 11  1  1  0  0  0  0
 12  4  1  0  0  0  0
 14  5  1  0  0  0  0
 18  7  1  0  0  0  0
 19 28  1  0  0  0  0
 19 29  1  0  0  0  0
 20 19  1  0  0  0  0
 21 20  1  0  0  0  0
 21 23  1  0  0  0  0
 21 32  1  1  0  0  0
 22 21  1  0  0  0  0
 23 36  1  1  0  0  0
 24 23  1  0  0  0  0
 24  8  1  0  0  0  0
 25 26  2  0  0  0  0
 25 23  1  0  0  0  0
 27 19  1  0  0  0  0
 30 20  1  0  0  0  0
 31 20  1  0  0  0  0
 33 22  1  0  0  0  0
 34 22  1  0  0  0  0
 35 22  1  0  0  0  0
 37 24  1  0  0  0  0
 38 25  1  0  0  0  0
 39 38  1  0  0  0  0
 39 48  1  1  0  0  0
 39 43  1  0  0  0  0
 40 39  1  0  0  0  0
 41 40  1  0  0  0  0
 42 41  2  0  0  0  0
 43 44  1  0  0  0  0
 45 41  1  0  0  0  0
 45 51  1  0  0  0  0
 46 43  2  0  0  0  0
 47 38  1  0  0  0  0
 49 40  1  0  0  0  0
 50 40  1  0  0  0  0
M  END
$$$$
