QIG.pdb
 OpenBabel07022418323D

 45 44  0  0  1  0  0  0  0  0999 V2000
    0.5360   -6.2520    2.8570 N   0  0  0  0  0  0  0  0  0  0  0  0
    0.4980   -4.8320    2.9370 C   0  0  0  0  0  0  0  0  0  0  0  0
    1.1890   -4.2720    3.8080 O   0  0  0  0  0  0  0  0  0  0  0  0
   -0.3390   -4.0650    2.0140 C   0  0  0  0  0  0  0  0  0  0  0  0
    0.0200   -2.6220    1.8890 C   0  0  0  0  0  0  0  0  0  0  0  0
    1.3810   -2.4350    1.3170 C   0  0  2  0  0  0  0  0  0  0  0  0
    2.4790   -2.9960    2.0340 N   0  0  0  0  0  0  0  0  0  0  0  0
    1.6880   -0.9930    1.1000 C   0  0  0  0  0  0  0  0  0  0  0  0
    2.7470   -0.4480    1.5080 O   0  0  0  0  0  0  0  0  0  0  0  0
    0.1160   -6.7390    2.0390 H   0  0  0  0  0  0  0  0  0  0  0  0
    0.9770   -6.8500    3.6010 H   0  0  0  0  0  0  0  0  0  0  0  0
   -1.4280   -4.1980    2.2770 H   0  0  0  0  0  0  0  0  0  0  0  0
   -0.2640   -4.5960    1.0180 H   0  0  0  0  0  0  0  0  0  0  0  0
   -0.1350   -2.0590    2.8340 H   0  0  0  0  0  0  0  0  0  0  0  0
   -0.6960   -2.1960    1.1220 H   0  0  0  0  0  0  0  0  0  0  0  0
    1.3680   -2.9820    0.3200 H   0  0  0  0  0  0  0  0  0  0  0  0
    2.8650   -2.2970    2.7320 H   0  0  0  0  0  0  0  0  0  0  0  0
    3.2620   -3.1620    1.3650 H   0  0  0  0  0  0  0  0  0  0  0  0
   -0.3350    2.2540   -3.2690 C   0  0  0  0  0  0  0  0  0  0  0  0
   -0.2810    1.4980   -1.9560 C   0  0  0  0  0  0  0  0  0  0  0  0
    1.0210    1.7420   -1.2220 C   0  0  2  0  0  0  0  0  0  0  0  0
    2.2010    1.2940   -2.0560 C   0  0  0  0  0  0  0  0  0  0  0  0
    1.0280    1.2510    0.1690 C   0  0  2  0  0  0  0  0  0  0  0  0
    0.8190   -0.1160    0.4180 N   0  0  0  0  0  0  0  0  0  0  0  0
    0.0240    2.0310    0.9470 C   0  0  0  0  0  0  0  0  0  0  0  0
   -0.0100    3.2750    0.9040 O   0  0  0  0  0  0  0  0  0  0  0  0
    0.6810    2.2920   -3.7540 H   0  0  0  0  0  0  0  0  0  0  0  0
   -0.9890    1.7510   -4.0120 H   0  0  0  0  0  0  0  0  0  0  0  0
   -0.6160    3.3260   -3.1170 H   0  0  0  0  0  0  0  0  0  0  0  0
   -1.1340    1.8650   -1.3510 H   0  0  0  0  0  0  0  0  0  0  0  0
   -0.4020    0.4170   -2.2340 H   0  0  0  0  0  0  0  0  0  0  0  0
    1.1060    2.8580   -1.1450 H   0  0  0  0  0  0  0  0  0  0  0  0
    1.9110    0.5700   -2.8450 H   0  0  0  0  0  0  0  0  0  0  0  0
    2.6680    2.1550   -2.6110 H   0  0  0  0  0  0  0  0  0  0  0  0
    3.0350    0.8990   -1.4170 H   0  0  0  0  0  0  0  0  0  0  0  0
    2.0260    1.5380    0.6140 H   0  0  0  0  0  0  0  0  0  0  0  0
   -0.0930   -0.5260    0.0500 H   0  0  0  0  0  0  0  0  0  0  0  0
   -0.9420    1.3720    1.7760 N   0  0  0  0  0  0  0  0  0  0  0  0
   -1.9240    2.0760    2.5410 C   0  0  0  0  0  0  0  0  0  0  0  0
   -2.7610    1.1120    3.2820 C   0  0  0  0  0  0  0  0  0  0  0  0
   -3.7010    1.4750    4.0310 O   0  0  0  0  0  0  0  0  0  0  0  0
   -2.5130   -0.2410    3.1560 O   0  0  0  0  0  0  0  0  0  0  0  0
   -0.9280    0.3300    1.8240 H   0  0  0  0  0  0  0  0  0  0  0  0
   -1.4610    2.8390    3.1990 H   0  0  0  0  0  0  0  0  0  0  0  0
   -2.6130    2.5700    1.7960 H   0  0  0  0  0  0  0  0  0  0  0  0
  1  2  1  0  0  0  0
  1 11  1  0  0  0  0
  2  3  2  0  0  0  0
  4 12  1  0  0  0  0
  4  2  1  0  0  0  0
  5  4  1  0  0  0  0
  5 14  1  0  0  0  0
  6 16  1  6  0  0  0
  6  5  1  0  0  0  0
  6  7  1  0  0  0  0
  7 17  1  0  0  0  0
  8  6  1  0  0  0  0
  8  9  2  0  0  0  0
 10  1  1  0  0  0  0
 13  4  1  0  0  0  0
 15  5  1  0  0  0  0
 18  7  1  0  0  0  0
 19 29  1  0  0  0  0
 19 20  1  0  0  0  0
 20 30  1  0  0  0  0
 20 21  1  0  0  0  0
 21 32  1  1  0  0  0
 21 23  1  0  0  0  0
 22 35  1  0  0  0  0
 22 21  1  0  0  0  0
 23 24  1  0  0  0  0
 23 36  1  1  0  0  0
 23 25  1  0  0  0  0
 24  8  1  0  0  0  0
 25 38  1  0  0  0  0
 26 25  2  0  0  0  0
 27 19  1  0  0  0  0
 28 19  1  0  0  0  0
 31 20  1  0  0  0  0
 33 22  1  0  0  0  0
 34 22  1  0  0  0  0
 37 24  1  0  0  0  0
 38 43  1  0  0  0  0
 38 39  1  0  0  0  0
 39 44  1  0  0  0  0
 39 40  1  0  0  0  0
 40 41  1  0  0  0  0
 42 40  2  0  0  0  0
 45 39  1  0  0  0  0
M  END
$$$$
