QII.pdb
 OpenBabel07022418323D

 57 56  0  0  1  0  0  0  0  0999 V2000
    3.4990   -4.4660    4.3460 N   0  0  0  0  0  0  0  0  0  0  0  0
    3.3590   -3.1010    3.9290 C   0  0  0  0  0  0  0  0  0  0  0  0
    3.9530   -2.7720    2.8820 O   0  0  0  0  0  0  0  0  0  0  0  0
    2.5700   -2.1230    4.6790 C   0  0  0  0  0  0  0  0  0  0  0  0
    2.1130   -0.9120    3.9510 C   0  0  0  0  0  0  0  0  0  0  0  0
    1.1810   -1.2390    2.8450 C   0  0  2  0  0  0  0  0  0  0  0  0
    1.7200   -2.0820    1.8370 N   0  0  0  0  0  0  0  0  0  0  0  0
    0.5260   -0.0290    2.2670 C   0  0  0  0  0  0  0  0  0  0  0  0
    0.0280    0.8670    3.0030 O   0  0  0  0  0  0  0  0  0  0  0  0
    3.3820   -5.1810    3.6080 H   0  0  0  0  0  0  0  0  0  0  0  0
    3.7060   -4.7270    5.3310 H   0  0  0  0  0  0  0  0  0  0  0  0
    3.2280   -1.8250    5.5610 H   0  0  0  0  0  0  0  0  0  0  0  0
    1.7230   -2.6560    5.1960 H   0  0  0  0  0  0  0  0  0  0  0  0
    3.0110   -0.3930    3.5380 H   0  0  0  0  0  0  0  0  0  0  0  0
    1.5950   -0.2290    4.6680 H   0  0  0  0  0  0  0  0  0  0  0  0
    0.3350   -1.8310    3.3280 H   0  0  0  0  0  0  0  0  0  0  0  0
    1.0410   -2.8060    1.5150 H   0  0  0  0  0  0  0  0  0  0  0  0
    2.2540   -1.6420    1.0830 H   0  0  0  0  0  0  0  0  0  0  0  0
    2.7840    1.6950    0.8950 C   0  0  0  0  0  0  0  0  0  0  0  0
    1.9060    2.6360    0.1760 C   0  0  0  0  0  0  0  0  0  0  0  0
    0.7280    2.1240   -0.5550 C   0  0  2  0  0  0  0  0  0  0  0  0
   -0.0200    3.2750   -1.2480 C   0  0  0  0  0  0  0  0  0  0  0  0
   -0.2070    1.3530    0.3120 C   0  0  2  0  0  0  0  0  0  0  0  0
    0.4230    0.1860    0.8660 N   0  0  0  0  0  0  0  0  0  0  0  0
   -1.4680    0.9920   -0.4130 C   0  0  0  0  0  0  0  0  0  0  0  0
   -2.1600    1.8860   -0.9620 O   0  0  0  0  0  0  0  0  0  0  0  0
    3.8910    1.9650    0.7330 H   0  0  0  0  0  0  0  0  0  0  0  0
    2.7360    0.6550    0.5530 H   0  0  0  0  0  0  0  0  0  0  0  0
    2.6700    1.7870    2.0170 H   0  0  0  0  0  0  0  0  0  0  0  0
    1.6030    3.4530    0.9170 H   0  0  0  0  0  0  0  0  0  0  0  0
    2.5710    3.2320   -0.5360 H   0  0  0  0  0  0  0  0  0  0  0  0
    1.0860    1.4080   -1.3500 H   0  0  0  0  0  0  0  0  0  0  0  0
   -0.4210    2.8470   -2.1900 H   0  0  0  0  0  0  0  0  0  0  0  0
    0.7770    3.9980   -1.5680 H   0  0  0  0  0  0  0  0  0  0  0  0
   -0.7710    3.7290   -0.5970 H   0  0  0  0  0  0  0  0  0  0  0  0
   -0.5450    2.0520    1.1190 H   0  0  0  0  0  0  0  0  0  0  0  0
    0.8110   -0.5550    0.2040 H   0  0  0  0  0  0  0  0  0  0  0  0
   -2.2860   -3.9640   -3.0190 C   0  0  0  0  0  0  0  0  0  0  0  0
   -2.3250   -2.9640   -1.8830 C   0  0  0  0  0  0  0  0  0  0  0  0
   -2.9260   -1.6550   -2.3390 C   0  0  2  0  0  0  0  0  0  0  0  0
   -2.1250   -1.0430   -3.4620 C   0  0  0  0  0  0  0  0  0  0  0  0
   -3.1380   -0.6960   -1.2060 C   0  0  2  0  0  0  0  0  0  0  0  0
   -1.9350   -0.3480   -0.5140 N   0  0  0  0  0  0  0  0  0  0  0  0
   -4.1460   -1.3220   -0.2860 C   0  0  0  0  0  0  0  0  0  0  0  0
   -5.2690   -1.6960   -0.7100 O   0  0  0  0  0  0  0  0  0  0  0  0
   -3.8850   -1.5150    1.0650 O   0  0  0  0  0  0  0  0  0  0  0  0
   -2.0180   -3.4160   -3.9440 H   0  0  0  0  0  0  0  0  0  0  0  0
   -3.2680   -4.4460   -3.1980 H   0  0  0  0  0  0  0  0  0  0  0  0
   -1.4780   -4.6940   -2.8110 H   0  0  0  0  0  0  0  0  0  0  0  0
   -1.2450   -2.7390   -1.6440 H   0  0  0  0  0  0  0  0  0  0  0  0
   -2.7660   -3.3450   -0.9660 H   0  0  0  0  0  0  0  0  0  0  0  0
   -3.9340   -1.8970   -2.7480 H   0  0  0  0  0  0  0  0  0  0  0  0
   -2.3910    0.0330   -3.5010 H   0  0  0  0  0  0  0  0  0  0  0  0
   -1.0350   -1.2080   -3.3560 H   0  0  0  0  0  0  0  0  0  0  0  0
   -2.4840   -1.4890   -4.4120 H   0  0  0  0  0  0  0  0  0  0  0  0
   -3.6370    0.2060   -1.6350 H   0  0  0  0  0  0  0  0  0  0  0  0
   -1.3600   -1.0890   -0.0580 H   0  0  0  0  0  0  0  0  0  0  0  0
  1 11  1  0  0  0  0
  2  1  1  0  0  0  0
  2  4  1  0  0  0  0
  3  2  2  0  0  0  0
  4 13  1  0  0  0  0
  4 12  1  0  0  0  0
  5 15  1  0  0  0  0
  5  4  1  0  0  0  0
  6 16  1  1  0  0  0
  6  5  1  0  0  0  0
  7  6  1  0  0  0  0
  8  6  1  0  0  0  0
  8  9  2  0  0  0  0
 10  1  1  0  0  0  0
 14  5  1  0  0  0  0
 17  7  1  0  0  0  0
 18  7  1  0  0  0  0
 19 29  1  0  0  0  0
 20 19  1  0  0  0  0
 20 30  1  0  0  0  0
 21 32  1  6  0  0  0
 21 20  1  0  0  0  0
 21 23  1  0  0  0  0
 22 35  1  0  0  0  0
 22 21  1  0  0  0  0
 23 24  1  0  0  0  0
 23 36  1  1  0  0  0
 24  8  1  0  0  0  0
 25 23  1  0  0  0  0
 26 25  2  0  0  0  0
 27 19  1  0  0  0  0
 28 19  1  0  0  0  0
 31 20  1  0  0  0  0
 33 22  1  0  0  0  0
 34 22  1  0  0  0  0
 37 24  1  0  0  0  0
 38 49  1  0  0  0  0
 38 39  1  0  0  0  0
 39 50  1  0  0  0  0
 39 51  1  0  0  0  0
 40 52  1  6  0  0  0
 40 39  1  0  0  0  0
 40 42  1  0  0  0  0
 41 54  1  0  0  0  0
 41 40  1  0  0  0  0
 42 56  1  6  0  0  0
 42 43  1  0  0  0  0
 42 44  1  0  0  0  0
 43 25  1  0  0  0  0
 43 57  1  0  0  0  0
 44 46  1  0  0  0  0
 45 44  2  0  0  0  0
 47 38  1  0  0  0  0
 48 38  1  0  0  0  0
 53 41  1  0  0  0  0
 55 41  1  0  0  0  0
M  END
$$$$
