QIK.pdb
 OpenBabel07022418323D

 59 58  0  0  1  0  0  0  0  0999 V2000
   -4.5310   -2.7130    3.9310 N   0  0  0  0  0  0  0  0  0  0  0  0
   -3.5710   -1.9400    4.6650 C   0  0  0  0  0  0  0  0  0  0  0  0
   -4.0360   -1.1920    5.5380 O   0  0  0  0  0  0  0  0  0  0  0  0
   -2.1310   -2.0280    4.4090 C   0  0  0  0  0  0  0  0  0  0  0  0
   -1.3030   -0.8900    4.9080 C   0  0  0  0  0  0  0  0  0  0  0  0
   -1.5920    0.4290    4.2900 C   0  0  2  0  0  0  0  0  0  0  0  0
   -2.9460    0.8470    4.5090 N   0  0  0  0  0  0  0  0  0  0  0  0
   -1.3250    0.4620    2.8310 C   0  0  0  0  0  0  0  0  0  0  0  0
   -2.2370    0.7970    2.0430 O   0  0  0  0  0  0  0  0  0  0  0  0
   -4.4100   -2.7720    2.9050 H   0  0  0  0  0  0  0  0  0  0  0  0
   -5.3300   -3.2090    4.3770 H   0  0  0  0  0  0  0  0  0  0  0  0
   -1.9830   -2.0300    3.2820 H   0  0  0  0  0  0  0  0  0  0  0  0
   -1.7300   -2.9860    4.8300 H   0  0  0  0  0  0  0  0  0  0  0  0
   -1.4730   -0.8630    6.0300 H   0  0  0  0  0  0  0  0  0  0  0  0
   -0.2340   -1.1920    4.8200 H   0  0  0  0  0  0  0  0  0  0  0  0
   -0.9440    1.1750    4.8310 H   0  0  0  0  0  0  0  0  0  0  0  0
   -3.5630    0.7790    3.6680 H   0  0  0  0  0  0  0  0  0  0  0  0
   -3.0390    1.8310    4.8620 H   0  0  0  0  0  0  0  0  0  0  0  0
    2.8060    1.2180    2.3700 C   0  0  0  0  0  0  0  0  0  0  0  0
    2.5770    0.9570    0.9250 C   0  0  0  0  0  0  0  0  0  0  0  0
    1.2000    1.1310    0.4170 C   0  0  2  0  0  0  0  0  0  0  0  0
    0.7830    2.5810    0.6680 C   0  0  0  0  0  0  0  0  0  0  0  0
    0.1670    0.1690    0.8590 C   0  0  2  0  0  0  0  0  0  0  0  0
   -0.0570    0.1240    2.2710 N   0  0  0  0  0  0  0  0  0  0  0  0
    0.3410   -1.2000    0.2760 C   0  0  0  0  0  0  0  0  0  0  0  0
    0.2670   -2.1870    1.0880 O   0  0  0  0  0  0  0  0  0  0  0  0
    3.0230    0.2620    2.9300 H   0  0  0  0  0  0  0  0  0  0  0  0
    2.0210    1.8260    2.8670 H   0  0  0  0  0  0  0  0  0  0  0  0
    3.7570    1.8130    2.5210 H   0  0  0  0  0  0  0  0  0  0  0  0
    3.0280   -0.0420    0.6560 H   0  0  0  0  0  0  0  0  0  0  0  0
    3.2220    1.6840    0.3440 H   0  0  0  0  0  0  0  0  0  0  0  0
    1.2640    1.0780   -0.7070 H   0  0  0  0  0  0  0  0  0  0  0  0
    0.3800    2.6610    1.7160 H   0  0  0  0  0  0  0  0  0  0  0  0
   -0.0970    2.7560   -0.0010 H   0  0  0  0  0  0  0  0  0  0  0  0
    1.6210    3.2490    0.4870 H   0  0  0  0  0  0  0  0  0  0  0  0
   -0.8020    0.5170    0.3870 H   0  0  0  0  0  0  0  0  0  0  0  0
    0.6730   -0.1530    2.9760 H   0  0  0  0  0  0  0  0  0  0  0  0
    0.5760   -1.4090   -1.1080 N   0  0  0  0  0  0  0  0  0  0  0  0
    0.7440   -2.7070   -1.6860 C   0  0  1  0  0  0  0  0  0  0  0  0
   -0.3080   -3.2030   -2.5730 C   0  0  0  0  0  0  0  0  0  0  0  0
   -0.7670   -2.5510   -3.7850 C   0  0  0  0  0  0  0  0  0  0  0  0
    0.0830   -2.2580   -4.9490 C   0  0  0  0  0  0  0  0  0  0  0  0
    1.1530   -1.2590   -4.7730 C   0  0  0  0  0  0  0  0  0  0  0  0
    0.6150    0.0560   -4.3770 N   0  0  0  0  0  0  0  0  0  0  0  0
    2.1460   -3.0620   -2.0280 C   0  0  0  0  0  0  0  0  0  0  0  0
    2.3450   -4.1810   -2.5420 O   0  0  0  0  0  0  0  0  0  0  0  0
    3.2120   -2.2190   -1.8020 O   0  0  0  0  0  0  0  0  0  0  0  0
    0.6240   -0.5590   -1.7020 H   0  0  0  0  0  0  0  0  0  0  0  0
    0.6100   -3.4130   -0.7270 H   0  0  0  0  0  0  0  0  0  0  0  0
   -0.0490   -4.3130   -2.7640 H   0  0  0  0  0  0  0  0  0  0  0  0
   -1.2390   -3.3540   -1.8950 H   0  0  0  0  0  0  0  0  0  0  0  0
   -1.6510   -3.1680   -4.2160 H   0  0  0  0  0  0  0  0  0  0  0  0
   -1.3210   -1.5710   -3.5620 H   0  0  0  0  0  0  0  0  0  0  0  0
    0.5180   -3.2060   -5.4050 H   0  0  0  0  0  0  0  0  0  0  0  0
   -0.5580   -1.8760   -5.8210 H   0  0  0  0  0  0  0  0  0  0  0  0
    1.9820   -1.4970   -4.1430 H   0  0  0  0  0  0  0  0  0  0  0  0
    1.6070   -1.0670   -5.8080 H   0  0  0  0  0  0  0  0  0  0  0  0
    0.3140    0.5800   -5.2420 H   0  0  0  0  0  0  0  0  0  0  0  0
    1.3990    0.5650   -3.9180 H   0  0  0  0  0  0  0  0  0  0  0  0
  1 11  1  0  0  0  0
  1  2  1  0  0  0  0
  2  3  2  0  0  0  0
  4  2  1  0  0  0  0
  4 13  1  0  0  0  0
  4  5  1  0  0  0  0
  5 14  1  0  0  0  0
  6  7  1  0  0  0  0
  6 16  1  1  0  0  0
  6  5  1  0  0  0  0
  7 18  1  0  0  0  0
  8  6  1  0  0  0  0
  9  8  2  0  0  0  0
 10  1  1  0  0  0  0
 12  4  1  0  0  0  0
 15  5  1  0  0  0  0
 17  7  1  0  0  0  0
 19 29  1  0  0  0  0
 19 28  1  0  0  0  0
 19 27  1  0  0  0  0
 20 19  1  0  0  0  0
 21 32  1  6  0  0  0
 21 22  1  0  0  0  0
 21 23  1  0  0  0  0
 21 20  1  0  0  0  0
 22 33  1  0  0  0  0
 23 36  1  6  0  0  0
 23 24  1  0  0  0  0
 24  8  1  0  0  0  0
 24 37  1  0  0  0  0
 25 23  1  0  0  0  0
 25 26  2  0  0  0  0
 30 20  1  0  0  0  0
 31 20  1  0  0  0  0
 34 22  1  0  0  0  0
 35 22  1  0  0  0  0
 38 25  1  0  0  0  0
 39 38  1  0  0  0  0
 39 49  1  1  0  0  0
 40 51  1  0  0  0  0
 40 39  1  0  0  0  0
 41 53  1  0  0  0  0
 41 40  1  0  0  0  0
 42 43  1  0  0  0  0
 42 41  1  0  0  0  0
 43 44  1  0  0  0  0
 43 56  1  0  0  0  0
 44 59  1  0  0  0  0
 45 47  1  0  0  0  0
 45 39  1  0  0  0  0
 46 45  2  0  0  0  0
 48 38  1  0  0  0  0
 50 40  1  0  0  0  0
 52 41  1  0  0  0  0
 54 42  1  0  0  0  0
 55 42  1  0  0  0  0
 57 43  1  0  0  0  0
 58 44  1  0  0  0  0
M  END
$$$$
