QIM.pdb
 OpenBabel07022418323D

 55 54  0  0  1  0  0  0  0  0999 V2000
    2.5850   -2.4630    7.0920 N   0  0  0  0  0  0  0  0  0  0  0  0
    2.0720   -1.7680    5.9360 C   0  0  0  0  0  0  0  0  0  0  0  0
    0.9510   -2.1690    5.5440 O   0  0  0  0  0  0  0  0  0  0  0  0
    2.8150   -0.6850    5.2900 C   0  0  0  0  0  0  0  0  0  0  0  0
    2.2300   -0.1840    4.0020 C   0  0  0  0  0  0  0  0  0  0  0  0
    2.1890   -1.2760    2.9820 C   0  0  2  0  0  0  0  0  0  0  0  0
    3.5770   -1.7180    2.7770 N   0  0  0  0  0  0  0  0  0  0  0  0
    1.6560   -0.7750    1.6650 C   0  0  0  0  0  0  0  0  0  0  0  0
    2.4130   -0.8390    0.6810 O   0  0  0  0  0  0  0  0  0  0  0  0
    2.8190   -3.4780    7.0710 H   0  0  0  0  0  0  0  0  0  0  0  0
    2.7300   -1.9410    7.9880 H   0  0  0  0  0  0  0  0  0  0  0  0
    3.8310   -1.0960    5.0480 H   0  0  0  0  0  0  0  0  0  0  0  0
    2.9990    0.1560    6.0100 H   0  0  0  0  0  0  0  0  0  0  0  0
    2.8810    0.6600    3.6670 H   0  0  0  0  0  0  0  0  0  0  0  0
    1.1890    0.2240    4.1710 H   0  0  0  0  0  0  0  0  0  0  0  0
    1.5660   -2.1030    3.3610 H   0  0  0  0  0  0  0  0  0  0  0  0
    4.1680   -0.8560    2.8510 H   0  0  0  0  0  0  0  0  0  0  0  0
    3.6520   -1.9980    1.7530 H   0  0  0  0  0  0  0  0  0  0  0  0
    1.4010    2.3570    1.7350 C   0  0  0  0  0  0  0  0  0  0  0  0
    0.7880    2.5150    0.3900 C   0  0  0  0  0  0  0  0  0  0  0  0
    0.6180    1.2580   -0.3960 C   0  0  2  0  0  0  0  0  0  0  0  0
    0.0140    1.6780   -1.7310 C   0  0  0  0  0  0  0  0  0  0  0  0
   -0.2010    0.2370    0.2990 C   0  0  2  0  0  0  0  0  0  0  0  0
    0.3460   -0.2510    1.5500 N   0  0  0  0  0  0  0  0  0  0  0  0
   -0.5370   -0.9740   -0.4830 C   0  0  0  0  0  0  0  0  0  0  0  0
   -0.1140   -2.1290   -0.0950 O   0  0  0  0  0  0  0  0  0  0  0  0
    2.4210    1.9030    1.6300 H   0  0  0  0  0  0  0  0  0  0  0  0
    1.5920    3.4310    2.1290 H   0  0  0  0  0  0  0  0  0  0  0  0
    0.7840    1.8450    2.4640 H   0  0  0  0  0  0  0  0  0  0  0  0
   -0.2150    3.0400    0.5100 H   0  0  0  0  0  0  0  0  0  0  0  0
    1.4540    3.2350   -0.1920 H   0  0  0  0  0  0  0  0  0  0  0  0
    1.6450    0.9060   -0.6530 H   0  0  0  0  0  0  0  0  0  0  0  0
    0.2490    0.9550   -2.5070 H   0  0  0  0  0  0  0  0  0  0  0  0
    0.5930    2.6280   -1.9920 H   0  0  0  0  0  0  0  0  0  0  0  0
   -1.0230    2.0280   -1.6540 H   0  0  0  0  0  0  0  0  0  0  0  0
   -1.1750    0.7510    0.5590 H   0  0  0  0  0  0  0  0  0  0  0  0
   -0.2350   -0.2400    2.4140 H   0  0  0  0  0  0  0  0  0  0  0  0
   -5.9850   -3.3180   -3.7570 C   0  0  0  0  0  0  0  0  0  0  0  0
   -5.6350   -1.8430   -2.7760 S   0  0  0  0  0  0  0  0  0  0  0  0
   -3.8650   -1.3980   -2.9460 C   0  0  0  0  0  0  0  0  0  0  0  0
   -3.0840   -2.5060   -2.3040 C   0  0  0  0  0  0  0  0  0  0  0  0
   -1.5800   -2.2720   -2.3700 C   0  0  2  0  0  0  0  0  0  0  0  0
   -1.3110   -1.0260   -1.6670 N   0  0  0  0  0  0  0  0  0  0  0  0
   -1.1260   -2.2400   -3.7650 C   0  0  0  0  0  0  0  0  0  0  0  0
   -1.2920   -3.2430   -4.4890 O   0  0  0  0  0  0  0  0  0  0  0  0
   -0.5180   -1.1300   -4.3130 O   0  0  0  0  0  0  0  0  0  0  0  0
   -6.3190   -4.1310   -3.0540 H   0  0  0  0  0  0  0  0  0  0  0  0
   -6.7880   -3.0620   -4.4830 H   0  0  0  0  0  0  0  0  0  0  0  0
   -5.1000   -3.6230   -4.3270 H   0  0  0  0  0  0  0  0  0  0  0  0
   -3.6980   -0.4660   -2.3830 H   0  0  0  0  0  0  0  0  0  0  0  0
   -3.6670   -1.2940   -4.0190 H   0  0  0  0  0  0  0  0  0  0  0  0
   -3.3430   -3.5060   -2.6880 H   0  0  0  0  0  0  0  0  0  0  0  0
   -3.3330   -2.4700   -1.2030 H   0  0  0  0  0  0  0  0  0  0  0  0
   -1.1140   -3.1380   -1.8720 H   0  0  0  0  0  0  0  0  0  0  0  0
   -1.7160   -0.1450   -2.0350 H   0  0  0  0  0  0  0  0  0  0  0  0
  1 11  1  0  0  0  0
  2  1  1  0  0  0  0
  3  2  2  0  0  0  0
  4  2  1  0  0  0  0
  4 13  1  0  0  0  0
  5 15  1  0  0  0  0
  5  4  1  0  0  0  0
  6 16  1  1  0  0  0
  6  5  1  0  0  0  0
  7 17  1  0  0  0  0
  7  6  1  0  0  0  0
  8  6  1  0  0  0  0
  9  8  2  0  0  0  0
 10  1  1  0  0  0  0
 12  4  1  0  0  0  0
 14  5  1  0  0  0  0
 18  7  1  0  0  0  0
 19 28  1  0  0  0  0
 19 29  1  0  0  0  0
 20 30  1  0  0  0  0
 20 19  1  0  0  0  0
 21 32  1  6  0  0  0
 21 23  1  0  0  0  0
 21 20  1  0  0  0  0
 22 35  1  0  0  0  0
 22 21  1  0  0  0  0
 23 36  1  1  0  0  0
 23 24  1  0  0  0  0
 24  8  1  0  0  0  0
 24 37  1  0  0  0  0
 25 26  2  0  0  0  0
 25 23  1  0  0  0  0
 27 19  1  0  0  0  0
 31 20  1  0  0  0  0
 33 22  1  0  0  0  0
 34 22  1  0  0  0  0
 38 47  1  0  0  0  0
 38 39  1  0  0  0  0
 40 39  1  0  0  0  0
 40 50  1  0  0  0  0
 40 41  1  0  0  0  0
 41 53  1  0  0  0  0
 42 41  1  0  0  0  0
 42 54  1  1  0  0  0
 42 43  1  0  0  0  0
 43 25  1  0  0  0  0
 44 42  1  0  0  0  0
 45 44  2  0  0  0  0
 46 44  1  0  0  0  0
 48 38  1  0  0  0  0
 49 38  1  0  0  0  0
 51 40  1  0  0  0  0
 52 41  1  0  0  0  0
 55 43  1  0  0  0  0
M  END
$$$$
