QIP.pdb
 OpenBabel07022418323D

 52 52  0  0  1  0  0  0  0  0999 V2000
    0.3710    5.0200    0.9970 N   0  0  0  0  0  0  0  0  0  0  0  0
    1.3740    4.2830    1.6920 C   0  0  0  0  0  0  0  0  0  0  0  0
    2.5570    4.4200    1.3060 O   0  0  0  0  0  0  0  0  0  0  0  0
    0.9700    3.4160    2.8110 C   0  0  0  0  0  0  0  0  0  0  0  0
    1.9770    2.4460    3.2880 C   0  0  0  0  0  0  0  0  0  0  0  0
    2.4300    1.3870    2.3570 C   0  0  2  0  0  0  0  0  0  0  0  0
    3.0270    1.8060    1.1290 N   0  0  0  0  0  0  0  0  0  0  0  0
    1.3790    0.3020    2.1710 C   0  0  0  0  0  0  0  0  0  0  0  0
    0.6810   -0.0140    3.1700 O   0  0  0  0  0  0  0  0  0  0  0  0
    0.5070    6.0290    0.8320 H   0  0  0  0  0  0  0  0  0  0  0  0
   -0.5090    4.5310    0.6540 H   0  0  0  0  0  0  0  0  0  0  0  0
   -0.0120    2.9650    2.5490 H   0  0  0  0  0  0  0  0  0  0  0  0
    0.7190    4.0790    3.6940 H   0  0  0  0  0  0  0  0  0  0  0  0
    2.8860    3.0250    3.6060 H   0  0  0  0  0  0  0  0  0  0  0  0
    1.5910    1.9380    4.2010 H   0  0  0  0  0  0  0  0  0  0  0  0
    3.2960    0.8700    2.9160 H   0  0  0  0  0  0  0  0  0  0  0  0
    2.2780    1.9160    0.4140 H   0  0  0  0  0  0  0  0  0  0  0  0
    3.6990    1.0740    0.8120 H   0  0  0  0  0  0  0  0  0  0  0  0
    1.7790   -3.9040    1.4340 C   0  0  0  0  0  0  0  0  0  0  0  0
    1.1650   -2.8690    2.3510 C   0  0  0  0  0  0  0  0  0  0  0  0
   -0.0610   -2.2060    1.7660 C   0  0  2  0  0  0  0  0  0  0  0  0
   -1.0580   -3.3060    1.5030 C   0  0  0  0  0  0  0  0  0  0  0  0
    0.2720   -1.3790    0.5540 C   0  0  2  0  0  0  0  0  0  0  0  0
    1.1930   -0.3230    0.9430 N   0  0  0  0  0  0  0  0  0  0  0  0
   -0.8850   -0.8720   -0.1420 C   0  0  0  0  0  0  0  0  0  0  0  0
   -1.1660    0.3720    0.1170 O   0  0  0  0  0  0  0  0  0  0  0  0
    2.8640   -3.6760    1.3090 H   0  0  0  0  0  0  0  0  0  0  0  0
    1.3350   -3.9590    0.4440 H   0  0  0  0  0  0  0  0  0  0  0  0
    1.7780   -4.9270    1.9090 H   0  0  0  0  0  0  0  0  0  0  0  0
    0.8100   -3.4230    3.2670 H   0  0  0  0  0  0  0  0  0  0  0  0
    1.9610   -2.2150    2.6790 H   0  0  0  0  0  0  0  0  0  0  0  0
   -0.5360   -1.6200    2.5960 H   0  0  0  0  0  0  0  0  0  0  0  0
   -1.4050   -3.7210    2.5090 H   0  0  0  0  0  0  0  0  0  0  0  0
   -0.6120   -4.1370    0.9510 H   0  0  0  0  0  0  0  0  0  0  0  0
   -1.9940   -2.8940    1.0760 H   0  0  0  0  0  0  0  0  0  0  0  0
    0.8720   -2.0810   -0.0870 H   0  0  0  0  0  0  0  0  0  0  0  0
    1.8410    0.0240    0.1450 H   0  0  0  0  0  0  0  0  0  0  0  0
   -1.7570   -1.4820   -1.0560 N   0  0  0  0  0  0  0  0  0  0  0  0
   -2.9770   -0.8240   -1.6140 C   0  0  0  0  0  0  0  0  0  0  0  0
   -3.9910   -1.9630   -1.4970 C   0  0  0  0  0  0  0  0  0  0  0  0
   -3.1830   -3.2300   -1.5720 C   0  0  0  0  0  0  0  0  0  0  0  0
   -1.7710   -2.7420   -1.7550 C   0  0  1  0  0  0  0  0  0  0  0  0
   -1.4100   -2.5970   -3.1880 C   0  0  0  0  0  0  0  0  0  0  0  0
   -1.0610   -1.5060   -3.6460 O   0  0  0  0  0  0  0  0  0  0  0  0
   -1.4710   -3.7120   -4.0000 O   0  0  0  0  0  0  0  0  0  0  0  0
   -2.8390   -0.4900   -2.6320 H   0  0  0  0  0  0  0  0  0  0  0  0
   -3.3070   -0.0210   -0.9230 H   0  0  0  0  0  0  0  0  0  0  0  0
   -4.7820   -1.8870   -2.2530 H   0  0  0  0  0  0  0  0  0  0  0  0
   -4.4480   -1.9570   -0.4660 H   0  0  0  0  0  0  0  0  0  0  0  0
   -3.2930   -3.8790   -0.6780 H   0  0  0  0  0  0  0  0  0  0  0  0
   -3.5300   -3.7950   -2.4900 H   0  0  0  0  0  0  0  0  0  0  0  0
   -1.1080   -3.4850   -1.2600 H   0  0  0  0  0  0  0  0  0  0  0  0
  1  2  1  0  0  0  0
  2  4  1  0  0  0  0
  3  2  2  0  0  0  0
  4  5  1  0  0  0  0
  4 13  1  0  0  0  0
  5 14  1  0  0  0  0
  5 15  1  0  0  0  0
  6 16  1  1  0  0  0
  6  5  1  0  0  0  0
  7  6  1  0  0  0  0
  8  6  1  0  0  0  0
  8  9  2  0  0  0  0
 10  1  1  0  0  0  0
 11  1  1  0  0  0  0
 12  4  1  0  0  0  0
 17  7  1  0  0  0  0
 18  7  1  0  0  0  0
 19 29  1  0  0  0  0
 19 20  1  0  0  0  0
 20 31  1  0  0  0  0
 20 30  1  0  0  0  0
 21 20  1  0  0  0  0
 21 32  1  1  0  0  0
 22 21  1  0  0  0  0
 22 33  1  0  0  0  0
 23 36  1  6  0  0  0
 23 24  1  0  0  0  0
 23 21  1  0  0  0  0
 24  8  1  0  0  0  0
 25 26  2  0  0  0  0
 25 23  1  0  0  0  0
 27 19  1  0  0  0  0
 28 19  1  0  0  0  0
 34 22  1  0  0  0  0
 35 22  1  0  0  0  0
 37 24  1  0  0  0  0
 38 25  1  0  0  0  0
 39 40  1  0  0  0  0
 39 38  1  0  0  0  0
 39 47  1  0  0  0  0
 40 49  1  0  0  0  0
 41 40  1  0  0  0  0
 41 50  1  0  0  0  0
 42 41  1  0  0  0  0
 42 52  1  1  0  0  0
 42 38  1  0  0  0  0
 43 42  1  0  0  0  0
 44 43  1  0  0  0  0
 45 43  2  0  0  0  0
 46 39  1  0  0  0  0
 48 40  1  0  0  0  0
 51 41  1  0  0  0  0
M  END
$$$$
