QIQ.pdb
 OpenBabel07022418323D

 55 54  0  0  1  0  0  0  0  0999 V2000
    0.4370    0.4330    8.1600 N   0  0  0  0  0  0  0  0  0  0  0  0
    0.1810    0.3670    6.7630 C   0  0  0  0  0  0  0  0  0  0  0  0
   -0.9690   -0.0050    6.3860 O   0  0  0  0  0  0  0  0  0  0  0  0
    1.2610    0.7320    5.8050 C   0  0  0  0  0  0  0  0  0  0  0  0
    0.7930    0.5950    4.3720 C   0  0  0  0  0  0  0  0  0  0  0  0
    1.8720    0.9590    3.4120 C   0  0  2  0  0  0  0  0  0  0  0  0
    2.3020    2.3300    3.6040 N   0  0  0  0  0  0  0  0  0  0  0  0
    1.6030    0.7050    2.0120 C   0  0  0  0  0  0  0  0  0  0  0  0
    1.7640    1.6450    1.1780 O   0  0  0  0  0  0  0  0  0  0  0  0
    1.2510   -0.0520    8.5500 H   0  0  0  0  0  0  0  0  0  0  0  0
   -0.2070    0.9780    8.7810 H   0  0  0  0  0  0  0  0  0  0  0  0
    1.6860    1.7090    6.0310 H   0  0  0  0  0  0  0  0  0  0  0  0
    2.0760   -0.0310    5.9660 H   0  0  0  0  0  0  0  0  0  0  0  0
   -0.0330    1.3550    4.2490 H   0  0  0  0  0  0  0  0  0  0  0  0
    0.3460   -0.3790    4.2430 H   0  0  0  0  0  0  0  0  0  0  0  0
    2.7710    0.3300    3.6950 H   0  0  0  0  0  0  0  0  0  0  0  0
    3.2910    2.4280    3.8770 H   0  0  0  0  0  0  0  0  0  0  0  0
    1.7310    2.8340    4.3120 H   0  0  0  0  0  0  0  0  0  0  0  0
    2.1330   -0.9970   -2.7230 C   0  0  0  0  0  0  0  0  0  0  0  0
    1.8190   -2.2020   -1.8290 C   0  0  0  0  0  0  0  0  0  0  0  0
    1.8280   -1.8220   -0.3970 C   0  0  2  0  0  0  0  0  0  0  0  0
    1.5240   -3.0900    0.4020 C   0  0  0  0  0  0  0  0  0  0  0  0
    0.9100   -0.7060    0.0170 C   0  0  2  0  0  0  0  0  0  0  0  0
    1.1640   -0.5280    1.4670 N   0  0  0  0  0  0  0  0  0  0  0  0
   -0.4970   -1.1480   -0.1550 C   0  0  0  0  0  0  0  0  0  0  0  0
   -1.2040   -1.4440    0.8840 O   0  0  0  0  0  0  0  0  0  0  0  0
    1.9720   -1.2990   -3.7890 H   0  0  0  0  0  0  0  0  0  0  0  0
    3.2250   -0.8100   -2.6260 H   0  0  0  0  0  0  0  0  0  0  0  0
    1.5290   -0.1200   -2.4880 H   0  0  0  0  0  0  0  0  0  0  0  0
    0.9360   -2.7560   -2.1430 H   0  0  0  0  0  0  0  0  0  0  0  0
    2.7080   -2.8880   -1.9790 H   0  0  0  0  0  0  0  0  0  0  0  0
    2.8600   -1.5160   -0.1070 H   0  0  0  0  0  0  0  0  0  0  0  0
    1.9940   -2.9470    1.3960 H   0  0  0  0  0  0  0  0  0  0  0  0
    1.9820   -3.9740   -0.0590 H   0  0  0  0  0  0  0  0  0  0  0  0
    0.4310   -3.1970    0.5890 H   0  0  0  0  0  0  0  0  0  0  0  0
    1.0990    0.2000   -0.5310 H   0  0  0  0  0  0  0  0  0  0  0  0
    1.0240   -1.3040    2.1140 H   0  0  0  0  0  0  0  0  0  0  0  0
   -2.8230   -0.1360   -5.7120 N   0  0  0  0  0  0  0  0  0  0  0  0
   -3.2000   -0.7470   -4.4410 C   0  0  0  0  0  0  0  0  0  0  0  0
   -3.5250   -1.9470   -4.5660 O   0  0  0  0  0  0  0  0  0  0  0  0
   -3.1680    0.0490   -3.2080 C   0  0  0  0  0  0  0  0  0  0  0  0
   -3.4410   -0.6180   -1.9280 C   0  0  0  0  0  0  0  0  0  0  0  0
   -2.5580   -1.7190   -1.4780 C   0  0  2  0  0  0  0  0  0  0  0  0
   -1.1580   -1.2760   -1.3830 N   0  0  0  0  0  0  0  0  0  0  0  0
   -2.6310   -3.0020   -2.1540 C   0  0  0  0  0  0  0  0  0  0  0  0
   -1.6210   -3.5080   -2.6920 O   0  0  0  0  0  0  0  0  0  0  0  0
   -3.8060   -3.7640   -2.2540 O   0  0  0  0  0  0  0  0  0  0  0  0
   -3.3620    0.6600   -6.1000 H   0  0  0  0  0  0  0  0  0  0  0  0
   -2.0040   -0.5260   -6.2030 H   0  0  0  0  0  0  0  0  0  0  0  0
   -2.2570    0.7160   -3.1750 H   0  0  0  0  0  0  0  0  0  0  0  0
   -3.9990    0.8250   -3.3330 H   0  0  0  0  0  0  0  0  0  0  0  0
   -4.5350   -0.9290   -1.9350 H   0  0  0  0  0  0  0  0  0  0  0  0
   -3.4210    0.1590   -1.0990 H   0  0  0  0  0  0  0  0  0  0  0  0
   -2.9170   -1.9290   -0.4000 H   0  0  0  0  0  0  0  0  0  0  0  0
   -0.6580   -1.0410   -2.2640 H   0  0  0  0  0  0  0  0  0  0  0  0
  1 10  1  0  0  0  0
  1 11  1  0  0  0  0
  2  1  1  0  0  0  0
  3  2  2  0  0  0  0
  4 13  1  0  0  0  0
  4 12  1  0  0  0  0
  4  2  1  0  0  0  0
  5  4  1  0  0  0  0
  6  7  1  0  0  0  0
  6 16  1  1  0  0  0
  6  5  1  0  0  0  0
  7 17  1  0  0  0  0
  7 18  1  0  0  0  0
  8  6  1  0  0  0  0
  9  8  2  0  0  0  0
 14  5  1  0  0  0  0
 15  5  1  0  0  0  0
 19 28  1  0  0  0  0
 19 29  1  0  0  0  0
 19 20  1  0  0  0  0
 20 21  1  0  0  0  0
 21 32  1  1  0  0  0
 21 23  1  0  0  0  0
 21 22  1  0  0  0  0
 22 35  1  0  0  0  0
 22 33  1  0  0  0  0
 23 36  1  6  0  0  0
 23 24  1  0  0  0  0
 24  8  1  0  0  0  0
 24 37  1  0  0  0  0
 25 23  1  0  0  0  0
 25 26  2  0  0  0  0
 27 19  1  0  0  0  0
 30 20  1  0  0  0  0
 31 20  1  0  0  0  0
 34 22  1  0  0  0  0
 38 39  1  0  0  0  0
 39 41  1  0  0  0  0
 40 39  2  0  0  0  0
 41 50  1  0  0  0  0
 41 42  1  0  0  0  0
 42 43  1  0  0  0  0
 42 53  1  0  0  0  0
 43 44  1  0  0  0  0
 43 54  1  1  0  0  0
 44 25  1  0  0  0  0
 45 43  1  0  0  0  0
 46 45  2  0  0  0  0
 47 45  1  0  0  0  0
 48 38  1  0  0  0  0
 49 38  1  0  0  0  0
 51 41  1  0  0  0  0
 52 42  1  0  0  0  0
 55 44  1  0  0  0  0
M  END
$$$$
