QIS.pdb
 OpenBabel07022418323D

 49 48  0  0  1  0  0  0  0  0999 V2000
   -1.0060   -5.1480    3.6070 N   0  0  0  0  0  0  0  0  0  0  0  0
   -0.0580   -4.1070    3.9000 C   0  0  0  0  0  0  0  0  0  0  0  0
    0.1830   -3.8530    5.0990 O   0  0  0  0  0  0  0  0  0  0  0  0
    0.5520   -3.4290    2.7500 C   0  0  0  0  0  0  0  0  0  0  0  0
    1.4150   -2.2610    3.0120 C   0  0  0  0  0  0  0  0  0  0  0  0
    0.8090   -1.0710    3.6680 C   0  0  2  0  0  0  0  0  0  0  0  0
    0.2710   -1.3230    4.9800 N   0  0  0  0  0  0  0  0  0  0  0  0
   -0.2390   -0.4330    2.7890 C   0  0  0  0  0  0  0  0  0  0  0  0
   -1.4260   -0.2760    3.2280 O   0  0  0  0  0  0  0  0  0  0  0  0
   -2.0100   -4.9760    3.6390 H   0  0  0  0  0  0  0  0  0  0  0  0
   -0.6010   -6.0850    3.3660 H   0  0  0  0  0  0  0  0  0  0  0  0
   -0.2630   -3.2320    2.0150 H   0  0  0  0  0  0  0  0  0  0  0  0
    1.2210   -4.1770    2.1980 H   0  0  0  0  0  0  0  0  0  0  0  0
    2.2760   -2.6260    3.6480 H   0  0  0  0  0  0  0  0  0  0  0  0
    1.9400   -1.9020    2.0810 H   0  0  0  0  0  0  0  0  0  0  0  0
    1.6410   -0.3170    3.7970 H   0  0  0  0  0  0  0  0  0  0  0  0
   -0.7700   -1.2580    5.0330 H   0  0  0  0  0  0  0  0  0  0  0  0
    0.6810   -0.6720    5.6510 H   0  0  0  0  0  0  0  0  0  0  0  0
   -0.7760    4.3120   -0.2460 C   0  0  0  0  0  0  0  0  0  0  0  0
   -1.3340    2.8790   -0.3300 C   0  0  0  0  0  0  0  0  0  0  0  0
   -0.4230    2.0480    0.5090 C   0  0  2  0  0  0  0  0  0  0  0  0
    0.9890    2.1180   -0.0420 C   0  0  0  0  0  0  0  0  0  0  0  0
   -0.8680    0.5870    0.6270 C   0  0  2  0  0  0  0  0  0  0  0  0
    0.1500   -0.0300    1.4880 N   0  0  0  0  0  0  0  0  0  0  0  0
   -0.8560    0.0290   -0.7220 C   0  0  0  0  0  0  0  0  0  0  0  0
   -1.7460    0.3440   -1.5550 O   0  0  0  0  0  0  0  0  0  0  0  0
   -0.2190    4.4320    0.7100 H   0  0  0  0  0  0  0  0  0  0  0  0
   -1.5730    5.0550   -0.2480 H   0  0  0  0  0  0  0  0  0  0  0  0
   -0.0380    4.4710   -1.0660 H   0  0  0  0  0  0  0  0  0  0  0  0
   -1.3560    2.5830   -1.3860 H   0  0  0  0  0  0  0  0  0  0  0  0
   -2.3490    2.9110    0.1030 H   0  0  0  0  0  0  0  0  0  0  0  0
   -0.3880    2.5060    1.5300 H   0  0  0  0  0  0  0  0  0  0  0  0
    1.7310    1.6430    0.6170 H   0  0  0  0  0  0  0  0  0  0  0  0
    0.9900    1.5720   -1.0050 H   0  0  0  0  0  0  0  0  0  0  0  0
    1.3250    3.1780   -0.1360 H   0  0  0  0  0  0  0  0  0  0  0  0
   -1.8620    0.5540    1.0960 H   0  0  0  0  0  0  0  0  0  0  0  0
    1.1280   -0.1860    1.1950 H   0  0  0  0  0  0  0  0  0  0  0  0
    1.0390   -1.2160   -4.7120 O   0  0  0  0  0  0  0  0  0  0  0  0
    1.1420   -0.6710   -3.4110 C   0  0  0  0  0  0  0  0  0  0  0  0
    0.0880   -1.3960   -2.5450 C   0  0  2  0  0  0  0  0  0  0  0  0
    0.1250   -0.8830   -1.2060 N   0  0  0  0  0  0  0  0  0  0  0  0
    0.3040   -2.8470   -2.6400 C   0  0  0  0  0  0  0  0  0  0  0  0
    0.2810   -3.3700   -3.7760 O   0  0  0  0  0  0  0  0  0  0  0  0
    0.5260   -3.6360   -1.5360 O   0  0  0  0  0  0  0  0  0  0  0  0
    0.1080   -1.0860   -5.0260 H   0  0  0  0  0  0  0  0  0  0  0  0
    1.0080    0.4090   -3.3950 H   0  0  0  0  0  0  0  0  0  0  0  0
    2.1140   -1.0270   -3.0150 H   0  0  0  0  0  0  0  0  0  0  0  0
   -0.8760   -1.0880   -3.0110 H   0  0  0  0  0  0  0  0  0  0  0  0
    0.8710   -1.1760   -0.5810 H   0  0  0  0  0  0  0  0  0  0  0  0
  1 10  1  0  0  0  0
  1  2  1  0  0  0  0
  2  3  2  0  0  0  0
  4  5  1  0  0  0  0
  4  2  1  0  0  0  0
  5 14  1  0  0  0  0
  5  6  1  0  0  0  0
  6 16  1  1  0  0  0
  6  7  1  0  0  0  0
  7 17  1  0  0  0  0
  7 18  1  0  0  0  0
  8  9  2  0  0  0  0
  8  6  1  0  0  0  0
 11  1  1  0  0  0  0
 12  4  1  0  0  0  0
 13  4  1  0  0  0  0
 15  5  1  0  0  0  0
 19 27  1  0  0  0  0
 20 19  1  0  0  0  0
 20 31  1  0  0  0  0
 20 21  1  0  0  0  0
 21 23  1  0  0  0  0
 21 32  1  1  0  0  0
 22 21  1  0  0  0  0
 22 33  1  0  0  0  0
 23 36  1  1  0  0  0
 23 24  1  0  0  0  0
 24  8  1  0  0  0  0
 25 23  1  0  0  0  0
 26 25  2  0  0  0  0
 28 19  1  0  0  0  0
 29 19  1  0  0  0  0
 30 20  1  0  0  0  0
 34 22  1  0  0  0  0
 35 22  1  0  0  0  0
 37 24  1  0  0  0  0
 38 39  1  0  0  0  0
 39 46  1  0  0  0  0
 39 47  1  0  0  0  0
 39 40  1  0  0  0  0
 40 48  1  6  0  0  0
 40 41  1  0  0  0  0
 41 25  1  0  0  0  0
 41 49  1  0  0  0  0
 42 40  1  0  0  0  0
 42 44  1  0  0  0  0
 43 42  2  0  0  0  0
 45 38  1  0  0  0  0
M  END
$$$$
