QIW.pdb
 OpenBabel07022418323D

 62 63  0  0  1  0  0  0  0  0999 V2000
    4.7170   -0.4820    2.5540 N   0  0  0  0  0  0  0  0  0  0  0  0
    3.6460   -0.4810    3.5100 C   0  0  0  0  0  0  0  0  0  0  0  0
    3.2670   -1.5860    3.9470 O   0  0  0  0  0  0  0  0  0  0  0  0
    3.0200    0.7630    3.9620 C   0  0  0  0  0  0  0  0  0  0  0  0
    1.7010    0.5720    4.5970 C   0  0  0  0  0  0  0  0  0  0  0  0
    0.6000    0.0180    3.7610 C   0  0  2  0  0  0  0  0  0  0  0  0
    0.8030   -1.2760    3.2040 N   0  0  0  0  0  0  0  0  0  0  0  0
    0.1910    1.0030    2.7030 C   0  0  0  0  0  0  0  0  0  0  0  0
   -0.1860    2.1440    3.1300 O   0  0  0  0  0  0  0  0  0  0  0  0
    5.3170   -1.3240    2.4740 H   0  0  0  0  0  0  0  0  0  0  0  0
    4.8400    0.3690    1.9850 H   0  0  0  0  0  0  0  0  0  0  0  0
    3.0310    1.5590    3.1770 H   0  0  0  0  0  0  0  0  0  0  0  0
    3.6990    1.1990    4.7630 H   0  0  0  0  0  0  0  0  0  0  0  0
    1.8690   -0.0980    5.4960 H   0  0  0  0  0  0  0  0  0  0  0  0
    1.3070    1.5350    5.0330 H   0  0  0  0  0  0  0  0  0  0  0  0
   -0.2990   -0.0790    4.4440 H   0  0  0  0  0  0  0  0  0  0  0  0
    0.1320   -1.5050    2.4280 H   0  0  0  0  0  0  0  0  0  0  0  0
    0.6170   -2.0450    3.9090 H   0  0  0  0  0  0  0  0  0  0  0  0
    2.0510    3.5410   -2.1210 C   0  0  0  0  0  0  0  0  0  0  0  0
    0.7140    3.1960   -1.4620 C   0  0  0  0  0  0  0  0  0  0  0  0
    1.0060    2.1480   -0.4210 C   0  0  2  0  0  0  0  0  0  0  0  0
    1.5940    0.9410   -1.0960 C   0  0  0  0  0  0  0  0  0  0  0  0
   -0.2050    1.7160    0.3710 C   0  0  2  0  0  0  0  0  0  0  0  0
    0.2150    0.7070    1.3340 N   0  0  0  0  0  0  0  0  0  0  0  0
   -1.3120    1.2290   -0.4550 C   0  0  0  0  0  0  0  0  0  0  0  0
   -1.8210    2.0410   -1.3020 O   0  0  0  0  0  0  0  0  0  0  0  0
    2.8730    3.4090   -1.4020 H   0  0  0  0  0  0  0  0  0  0  0  0
    1.9860    4.5900   -2.5140 H   0  0  0  0  0  0  0  0  0  0  0  0
    2.2660    2.8970   -2.9970 H   0  0  0  0  0  0  0  0  0  0  0  0
    0.0950    2.8010   -2.3120 H   0  0  0  0  0  0  0  0  0  0  0  0
    0.3080    4.0970   -1.0020 H   0  0  0  0  0  0  0  0  0  0  0  0
    1.7530    2.6210    0.2760 H   0  0  0  0  0  0  0  0  0  0  0  0
    1.7430    1.1030   -2.1880 H   0  0  0  0  0  0  0  0  0  0  0  0
    0.9090    0.0590   -1.0250 H   0  0  0  0  0  0  0  0  0  0  0  0
    2.5660    0.7210   -0.6400 H   0  0  0  0  0  0  0  0  0  0  0  0
   -0.5460    2.6130    0.9270 H   0  0  0  0  0  0  0  0  0  0  0  0
    0.5290   -0.2090    0.9960 H   0  0  0  0  0  0  0  0  0  0  0  0
   -1.8330   -0.0890   -0.3530 N   0  0  0  0  0  0  0  0  0  0  0  0
   -2.9340   -0.5700   -1.1700 C   0  0  1  0  0  0  0  0  0  0  0  0
   -2.4870   -1.5620   -2.1860 C   0  0  0  0  0  0  0  0  0  0  0  0
   -1.8140   -2.7630   -1.6860 C   0  0  0  0  0  0  0  0  0  0  0  0
   -0.4140   -2.9360   -1.6440 C   0  0  0  0  0  0  0  0  0  0  0  0
   -0.1330   -4.1220   -1.1120 N   0  0  0  0  0  0  0  0  0  0  0  0
   -1.2860   -4.7730   -0.7860 C   0  0  0  0  0  0  0  0  0  0  0  0
   -1.5300   -6.0060   -0.2260 C   0  0  0  0  0  0  0  0  0  0  0  0
   -2.8150   -6.4320   -0.0070 C   0  0  0  0  0  0  0  0  0  0  0  0
   -3.8390   -5.5850   -0.3680 C   0  0  0  0  0  0  0  0  0  0  0  0
   -3.6150   -4.3570   -0.9260 C   0  0  0  0  0  0  0  0  0  0  0  0
   -2.3260   -3.9180   -1.1480 C   0  0  0  0  0  0  0  0  0  0  0  0
   -4.1420   -0.9130   -0.4130 C   0  0  0  0  0  0  0  0  0  0  0  0
   -4.1980   -0.9360    0.8470 O   0  0  0  0  0  0  0  0  0  0  0  0
   -5.3050   -1.2310   -1.0820 O   0  0  0  0  0  0  0  0  0  0  0  0
   -1.4170   -0.7490    0.3330 H   0  0  0  0  0  0  0  0  0  0  0  0
   -3.2450    0.3470   -1.7900 H   0  0  0  0  0  0  0  0  0  0  0  0
   -1.8150   -1.0890   -2.9620 H   0  0  0  0  0  0  0  0  0  0  0  0
   -3.4070   -1.8170   -2.7960 H   0  0  0  0  0  0  0  0  0  0  0  0
    0.2590   -2.1740   -2.0080 H   0  0  0  0  0  0  0  0  0  0  0  0
    0.8120   -4.5300   -0.9500 H   0  0  0  0  0  0  0  0  0  0  0  0
   -0.7160   -6.6600    0.0520 H   0  0  0  0  0  0  0  0  0  0  0  0
   -3.0420   -7.3770    0.4230 H   0  0  0  0  0  0  0  0  0  0  0  0
   -4.8930   -5.8750   -0.2160 H   0  0  0  0  0  0  0  0  0  0  0  0
   -4.3970   -3.6860   -1.2240 H   0  0  0  0  0  0  0  0  0  0  0  0
  1  2  1  0  0  0  0
  2  3  2  0  0  0  0
  2  4  1  0  0  0  0
  4  5  1  0  0  0  0
  4 13  1  0  0  0  0
  5 15  1  0  0  0  0
  5 14  1  0  0  0  0
  6 16  1  1  0  0  0
  6  5  1  0  0  0  0
  7  6  1  0  0  0  0
  7 18  1  0  0  0  0
  8  9  2  0  0  0  0
  8  6  1  0  0  0  0
 10  1  1  0  0  0  0
 11  1  1  0  0  0  0
 12  4  1  0  0  0  0
 17  7  1  0  0  0  0
 19 20  1  0  0  0  0
 19 27  1  0  0  0  0
 20 31  1  0  0  0  0
 20 21  1  0  0  0  0
 21 32  1  1  0  0  0
 21 23  1  0  0  0  0
 22 34  1  0  0  0  0
 22 35  1  0  0  0  0
 22 21  1  0  0  0  0
 23 36  1  1  0  0  0
 23 24  1  0  0  0  0
 24  8  1  0  0  0  0
 25 38  1  0  0  0  0
 25 23  1  0  0  0  0
 26 25  2  0  0  0  0
 28 19  1  0  0  0  0
 29 19  1  0  0  0  0
 30 20  1  0  0  0  0
 33 22  1  0  0  0  0
 37 24  1  0  0  0  0
 38 53  1  0  0  0  0
 39 54  1  6  0  0  0
 39 50  1  0  0  0  0
 39 38  1  0  0  0  0
 40 41  1  0  0  0  0
 40 39  1  0  0  0  0
 41 42  2  0  0  0  0
 41 49  1  0  0  0  0
 42 43  1  0  0  0  0
 43 58  1  0  0  0  0
 43 44  1  0  0  0  0
 44 45  1  0  0  0  0
 45 46  2  0  0  0  0
 45 59  1  0  0  0  0
 46 60  1  0  0  0  0
 47 61  1  0  0  0  0
 47 46  1  0  0  0  0
 48 47  2  0  0  0  0
 49 48  1  0  0  0  0
 49 44  2  0  0  0  0
 50 51  1  0  0  0  0
 52 50  2  0  0  0  0
 55 40  1  0  0  0  0
 56 40  1  0  0  0  0
 57 42  1  0  0  0  0
 62 48  1  0  0  0  0
M  END
$$$$
