QIY.pdb
 OpenBabel07022418323D

 59 59  0  0  1  0  0  0  0  0999 V2000
    4.3410   -2.8550    2.9890 N   0  0  0  0  0  0  0  0  0  0  0  0
    4.5450   -1.5890    2.3760 C   0  0  0  0  0  0  0  0  0  0  0  0
    5.4970   -1.4030    1.5760 O   0  0  0  0  0  0  0  0  0  0  0  0
    3.6020   -0.5060    2.7110 C   0  0  0  0  0  0  0  0  0  0  0  0
    3.9220    0.7820    2.0010 C   0  0  0  0  0  0  0  0  0  0  0  0
    2.9110    1.8260    2.4030 C   0  0  2  0  0  0  0  0  0  0  0  0
    2.8980    2.0940    3.8050 N   0  0  0  0  0  0  0  0  0  0  0  0
    1.5630    1.3890    1.9070 C   0  0  0  0  0  0  0  0  0  0  0  0
    0.5720    1.2860    2.6880 O   0  0  0  0  0  0  0  0  0  0  0  0
    5.1440   -3.4440    3.3470 H   0  0  0  0  0  0  0  0  0  0  0  0
    3.3920   -3.2770    3.1230 H   0  0  0  0  0  0  0  0  0  0  0  0
    2.5940   -0.8330    2.3250 H   0  0  0  0  0  0  0  0  0  0  0  0
    3.5950   -0.4000    3.8120 H   0  0  0  0  0  0  0  0  0  0  0  0
    4.9550    1.0910    2.1700 H   0  0  0  0  0  0  0  0  0  0  0  0
    3.8060    0.6020    0.9130 H   0  0  0  0  0  0  0  0  0  0  0  0
    3.1630    2.7600    1.8730 H   0  0  0  0  0  0  0  0  0  0  0  0
    1.9670    2.3820    4.1740 H   0  0  0  0  0  0  0  0  0  0  0  0
    3.6740    2.6940    4.0970 H   0  0  0  0  0  0  0  0  0  0  0  0
    0.7030    3.6420   -0.4590 C   0  0  0  0  0  0  0  0  0  0  0  0
   -0.4990    2.9130   -0.9560 C   0  0  0  0  0  0  0  0  0  0  0  0
   -0.3720    1.4440   -1.1560 C   0  0  2  0  0  0  0  0  0  0  0  0
   -1.7350    0.9720   -1.6810 C   0  0  0  0  0  0  0  0  0  0  0  0
    0.0160    0.6360    0.0370 C   0  0  2  0  0  0  0  0  0  0  0  0
    1.3350    1.0690    0.5470 N   0  0  0  0  0  0  0  0  0  0  0  0
    0.2140   -0.7950   -0.3880 C   0  0  0  0  0  0  0  0  0  0  0  0
    1.4230   -1.2300   -0.4630 O   0  0  0  0  0  0  0  0  0  0  0  0
    1.6340    3.2870   -0.8990 H   0  0  0  0  0  0  0  0  0  0  0  0
    0.5850    4.7130   -0.8420 H   0  0  0  0  0  0  0  0  0  0  0  0
    0.7270    3.7890    0.6450 H   0  0  0  0  0  0  0  0  0  0  0  0
   -1.3950    3.1720   -0.3430 H   0  0  0  0  0  0  0  0  0  0  0  0
   -0.7560    3.3450   -1.9730 H   0  0  0  0  0  0  0  0  0  0  0  0
    0.3370    1.2530   -1.9880 H   0  0  0  0  0  0  0  0  0  0  0  0
   -1.6360    0.1350   -2.3750 H   0  0  0  0  0  0  0  0  0  0  0  0
   -2.1560    1.8300   -2.3040 H   0  0  0  0  0  0  0  0  0  0  0  0
   -2.4650    0.8580   -0.8670 H   0  0  0  0  0  0  0  0  0  0  0  0
   -0.7550    0.6310    0.7990 H   0  0  0  0  0  0  0  0  0  0  0  0
    2.1270    1.1330   -0.1150 H   0  0  0  0  0  0  0  0  0  0  0  0
   -6.6210   -3.5550    0.6830 O   0  0  0  0  0  0  0  0  0  0  0  0
   -5.2550   -3.6520    0.5060 C   0  0  0  0  0  0  0  0  0  0  0  0
   -4.7660   -4.5600   -0.4340 C   0  0  0  0  0  0  0  0  0  0  0  0
   -3.4060   -4.6560   -0.6080 C   0  0  0  0  0  0  0  0  0  0  0  0
   -2.5020   -3.8970    0.1010 C   0  0  0  0  0  0  0  0  0  0  0  0
   -1.0520   -3.9770   -0.0640 C   0  0  0  0  0  0  0  0  0  0  0  0
   -0.5020   -3.0340   -1.1070 C   0  0  2  0  0  0  0  0  0  0  0  0
   -0.8340   -1.6890   -0.7040 N   0  0  0  0  0  0  0  0  0  0  0  0
   -1.0310   -3.3790   -2.4430 C   0  0  0  0  0  0  0  0  0  0  0  0
   -0.7880   -4.5360   -2.8750 O   0  0  0  0  0  0  0  0  0  0  0  0
   -2.9970   -2.9870    1.0420 C   0  0  0  0  0  0  0  0  0  0  0  0
   -4.3750   -2.8800    1.2300 C   0  0  0  0  0  0  0  0  0  0  0  0
   -1.7620   -2.5320   -3.2410 O   0  0  0  0  0  0  0  0  0  0  0  0
   -7.0540   -4.1150    1.4210 H   0  0  0  0  0  0  0  0  0  0  0  0
   -5.4390   -5.1790   -1.0160 H   0  0  0  0  0  0  0  0  0  0  0  0
   -3.0100   -5.3520   -1.3300 H   0  0  0  0  0  0  0  0  0  0  0  0
   -0.6970   -5.0000   -0.3490 H   0  0  0  0  0  0  0  0  0  0  0  0
   -0.5660   -3.7430    0.9030 H   0  0  0  0  0  0  0  0  0  0  0  0
    0.5940   -3.1510   -1.1020 H   0  0  0  0  0  0  0  0  0  0  0  0
   -1.8170   -1.3560   -0.6190 H   0  0  0  0  0  0  0  0  0  0  0  0
   -2.3610   -2.3680    1.6260 H   0  0  0  0  0  0  0  0  0  0  0  0
   -4.7770   -2.1840    1.9510 H   0  0  0  0  0  0  0  0  0  0  0  0
  1 11  1  0  0  0  0
  1 10  1  0  0  0  0
  2  4  1  0  0  0  0
  2  1  1  0  0  0  0
  3  2  2  0  0  0  0
  4 13  1  0  0  0  0
  5 14  1  0  0  0  0
  5  6  1  0  0  0  0
  5  4  1  0  0  0  0
  6 16  1  6  0  0  0
  6  7  1  0  0  0  0
  7 18  1  0  0  0  0
  7 17  1  0  0  0  0
  8  6  1  0  0  0  0
  8  9  2  0  0  0  0
 12  4  1  0  0  0  0
 15  5  1  0  0  0  0
 19 29  1  0  0  0  0
 20 19  1  0  0  0  0
 20 30  1  0  0  0  0
 21 32  1  6  0  0  0
 21 20  1  0  0  0  0
 21 23  1  0  0  0  0
 22 21  1  0  0  0  0
 22 35  1  0  0  0  0
 23 24  1  0  0  0  0
 23 36  1  1  0  0  0
 24  8  1  0  0  0  0
 25 23  1  0  0  0  0
 26 25  2  0  0  0  0
 27 19  1  0  0  0  0
 28 19  1  0  0  0  0
 31 20  1  0  0  0  0
 33 22  1  0  0  0  0
 34 22  1  0  0  0  0
 37 24  1  0  0  0  0
 38 51  1  0  0  0  0
 39 38  1  0  0  0  0
 39 49  1  0  0  0  0
 40 39  2  0  0  0  0
 41 40  1  0  0  0  0
 41 42  2  0  0  0  0
 42 48  1  0  0  0  0
 43 42  1  0  0  0  0
 43 55  1  0  0  0  0
 44 56  1  6  0  0  0
 44 45  1  0  0  0  0
 44 43  1  0  0  0  0
 45 57  1  0  0  0  0
 45 25  1  0  0  0  0
 46 44  1  0  0  0  0
 47 46  1  0  0  0  0
 48 49  2  0  0  0  0
 48 58  1  0  0  0  0
 49 59  1  0  0  0  0
 50 46  2  0  0  0  0
 52 40  1  0  0  0  0
 53 41  1  0  0  0  0
 54 43  1  0  0  0  0
M  END
$$$$
