QKC.pdb
 OpenBabel07022418323D

 51 50  0  0  1  0  0  0  0  0999 V2000
    4.6390   -4.8190    1.2100 N   0  0  0  0  0  0  0  0  0  0  0  0
    3.6810   -3.7580    1.1000 C   0  0  0  0  0  0  0  0  0  0  0  0
    2.5300   -4.1040    0.7390 O   0  0  0  0  0  0  0  0  0  0  0  0
    4.0560   -2.3570    1.4000 C   0  0  0  0  0  0  0  0  0  0  0  0
    2.9660   -1.3660    1.1880 C   0  0  0  0  0  0  0  0  0  0  0  0
    2.4560   -1.3110   -0.2420 C   0  0  2  0  0  0  0  0  0  0  0  0
    3.5620   -0.9540   -1.0750 N   0  0  0  0  0  0  0  0  0  0  0  0
    1.3670   -0.2670   -0.3260 C   0  0  0  0  0  0  0  0  0  0  0  0
    1.5770    0.7120   -1.0760 O   0  0  0  0  0  0  0  0  0  0  0  0
    4.3680   -5.8090    1.3480 H   0  0  0  0  0  0  0  0  0  0  0  0
    5.6630   -4.6160    1.1520 H   0  0  0  0  0  0  0  0  0  0  0  0
    4.9850   -2.1220    0.8490 H   0  0  0  0  0  0  0  0  0  0  0  0
    4.3140   -2.3370    2.4910 H   0  0  0  0  0  0  0  0  0  0  0  0
    3.3100   -0.3730    1.5330 H   0  0  0  0  0  0  0  0  0  0  0  0
    2.0950   -1.6200    1.8340 H   0  0  0  0  0  0  0  0  0  0  0  0
    2.0340   -2.2700   -0.5810 H   0  0  0  0  0  0  0  0  0  0  0  0
    3.8480   -1.6960   -1.7490 H   0  0  0  0  0  0  0  0  0  0  0  0
    4.3520   -0.5630   -0.5270 H   0  0  0  0  0  0  0  0  0  0  0  0
    0.1960   -0.4480    0.4280 N   0  0  0  0  0  0  0  0  0  0  0  0
   -0.9210    0.4000    0.5130 C   0  0  1  0  0  0  0  0  0  0  0  0
   -0.8160    1.8030    0.0020 C   0  0  0  0  0  0  0  0  0  0  0  0
    0.1190    2.7210    0.6570 C   0  0  0  0  0  0  0  0  0  0  0  0
   -0.1660    2.9580    2.1280 C   0  0  0  0  0  0  0  0  0  0  0  0
   -1.5170    3.5420    2.3790 C   0  0  0  0  0  0  0  0  0  0  0  0
   -1.6610    3.7170    3.8130 N   0  0  0  0  0  0  0  0  0  0  0  0
   -2.2110   -0.2200    0.1700 C   0  0  0  0  0  0  0  0  0  0  0  0
   -3.3070    0.4020    0.1960 O   0  0  0  0  0  0  0  0  0  0  0  0
    0.1540   -1.3430    1.0100 H   0  0  0  0  0  0  0  0  0  0  0  0
   -1.0120    0.6310    1.6720 H   0  0  0  0  0  0  0  0  0  0  0  0
   -1.8240    2.2580   -0.0080 H   0  0  0  0  0  0  0  0  0  0  0  0
   -0.5260    1.7290   -1.0800 H   0  0  0  0  0  0  0  0  0  0  0  0
   -0.0510    3.7420    0.1820 H   0  0  0  0  0  0  0  0  0  0  0  0
    1.1920    2.5690    0.5870 H   0  0  0  0  0  0  0  0  0  0  0  0
    0.0240    2.0460    2.7050 H   0  0  0  0  0  0  0  0  0  0  0  0
    0.5890    3.7090    2.4670 H   0  0  0  0  0  0  0  0  0  0  0  0
   -1.6000    4.5550    1.9330 H   0  0  0  0  0  0  0  0  0  0  0  0
   -2.3480    2.9490    1.9510 H   0  0  0  0  0  0  0  0  0  0  0  0
   -0.8440    3.3410    4.3460 H   0  0  0  0  0  0  0  0  0  0  0  0
   -2.4970    3.1790    4.1900 H   0  0  0  0  0  0  0  0  0  0  0  0
   -2.3120   -1.6050   -0.2250 N   0  0  0  0  0  0  0  0  0  0  0  0
   -3.5850   -2.2110   -0.5620 C   0  0  1  0  0  0  0  0  0  0  0  0
   -3.5330   -2.7650   -1.9920 C   0  0  0  0  0  0  0  0  0  0  0  0
   -2.2150   -3.9970   -2.0360 S   0  0  0  0  0  0  0  0  0  0  0  0
   -3.8160   -3.3810    0.3180 C   0  0  0  0  0  0  0  0  0  0  0  0
   -2.9550   -3.6850    1.1800 O   0  0  0  0  0  0  0  0  0  0  0  0
   -4.9490   -4.1710    0.2410 O   0  0  0  0  0  0  0  0  0  0  0  0
   -1.4180   -2.1400   -0.2530 H   0  0  0  0  0  0  0  0  0  0  0  0
   -4.4190   -1.5030   -0.4770 H   0  0  0  0  0  0  0  0  0  0  0  0
   -4.5270   -3.2260   -2.1710 H   0  0  0  0  0  0  0  0  0  0  0  0
   -3.3000   -1.9560   -2.6820 H   0  0  0  0  0  0  0  0  0  0  0  0
   -0.9870   -3.3330   -1.9340 H   0  0  0  0  0  0  0  0  0  0  0  0
  1 10  1  0  0  0  0
  2  1  1  0  0  0  0
  2  4  1  0  0  0  0
  3  2  2  0  0  0  0
  4 13  1  0  0  0  0
  5  4  1  0  0  0  0
  5 14  1  0  0  0  0
  5 15  1  0  0  0  0
  6 16  1  6  0  0  0
  6  5  1  0  0  0  0
  7 18  1  0  0  0  0
  7  6  1  0  0  0  0
  8  6  1  0  0  0  0
  8 19  1  0  0  0  0
  9  8  2  0  0  0  0
 11  1  1  0  0  0  0
 12  4  1  0  0  0  0
 17  7  1  0  0  0  0
 19 20  1  0  0  0  0
 19 28  1  0  0  0  0
 20 29  1  1  0  0  0
 21 20  1  0  0  0  0
 21 22  1  0  0  0  0
 22 23  1  0  0  0  0
 23 24  1  0  0  0  0
 23 35  1  0  0  0  0
 23 34  1  0  0  0  0
 24 25  1  0  0  0  0
 25 39  1  0  0  0  0
 25 38  1  0  0  0  0
 26 27  2  0  0  0  0
 26 20  1  0  0  0  0
 30 21  1  0  0  0  0
 31 21  1  0  0  0  0
 32 22  1  0  0  0  0
 33 22  1  0  0  0  0
 36 24  1  0  0  0  0
 37 24  1  0  0  0  0
 40 26  1  0  0  0  0
 41 48  1  1  0  0  0
 41 40  1  0  0  0  0
 41 44  1  0  0  0  0
 42 41  1  0  0  0  0
 43 42  1  0  0  0  0
 43 51  1  0  0  0  0
 44 45  1  0  0  0  0
 46 44  2  0  0  0  0
 47 40  1  0  0  0  0
 49 42  1  0  0  0  0
 50 42  1  0  0  0  0
M  END
$$$$
