QKD.pdb
 OpenBabel07022418323D

 53 52  0  0  1  0  0  0  0  0999 V2000
    1.7570   -2.1590    5.1420 N   0  0  0  0  0  0  0  0  0  0  0  0
    2.2820   -2.3280    3.8420 C   0  0  0  0  0  0  0  0  0  0  0  0
    2.4570   -3.4700    3.3820 O   0  0  0  0  0  0  0  0  0  0  0  0
    2.6230   -1.1450    3.0310 C   0  0  0  0  0  0  0  0  0  0  0  0
    3.0750   -1.4480    1.6560 C   0  0  0  0  0  0  0  0  0  0  0  0
    2.0680   -2.1540    0.8100 C   0  0  2  0  0  0  0  0  0  0  0  0
    2.6640   -2.4020   -0.5220 N   0  0  0  0  0  0  0  0  0  0  0  0
    0.9170   -1.2820    0.5620 C   0  0  0  0  0  0  0  0  0  0  0  0
    0.8770   -0.6190   -0.5220 O   0  0  0  0  0  0  0  0  0  0  0  0
    2.2990   -2.4610    5.9890 H   0  0  0  0  0  0  0  0  0  0  0  0
    0.8230   -1.7360    5.3400 H   0  0  0  0  0  0  0  0  0  0  0  0
    3.4200   -0.5480    3.5960 H   0  0  0  0  0  0  0  0  0  0  0  0
    1.7480   -0.4480    3.0680 H   0  0  0  0  0  0  0  0  0  0  0  0
    3.3460   -0.4680    1.1720 H   0  0  0  0  0  0  0  0  0  0  0  0
    4.0390   -2.0110    1.6640 H   0  0  0  0  0  0  0  0  0  0  0  0
    1.7900   -3.1210    1.2080 H   0  0  0  0  0  0  0  0  0  0  0  0
    3.6610   -2.6810   -0.4250 H   0  0  0  0  0  0  0  0  0  0  0  0
    2.5340   -1.5650   -1.1320 H   0  0  0  0  0  0  0  0  0  0  0  0
   -0.1460   -1.1630    1.4910 N   0  0  0  0  0  0  0  0  0  0  0  0
   -1.2850   -0.3090    1.2590 C   0  0  1  0  0  0  0  0  0  0  0  0
   -1.1100    1.1150    1.6020 C   0  0  0  0  0  0  0  0  0  0  0  0
   -0.0440    1.8740    0.9040 C   0  0  0  0  0  0  0  0  0  0  0  0
   -0.0080    3.3260    1.3810 C   0  0  0  0  0  0  0  0  0  0  0  0
   -1.2950    4.0470    1.1340 C   0  0  0  0  0  0  0  0  0  0  0  0
   -1.6330    4.0860   -0.2930 N   0  0  0  0  0  0  0  0  0  0  0  0
   -1.9390   -0.6240   -0.0100 C   0  0  0  0  0  0  0  0  0  0  0  0
   -2.7950    0.1470   -0.5120 O   0  0  0  0  0  0  0  0  0  0  0  0
   -0.0630   -1.7510    2.3610 H   0  0  0  0  0  0  0  0  0  0  0  0
   -2.0620   -0.6980    2.0380 H   0  0  0  0  0  0  0  0  0  0  0  0
   -0.8680    1.1530    2.7080 H   0  0  0  0  0  0  0  0  0  0  0  0
   -2.0810    1.6880    1.5460 H   0  0  0  0  0  0  0  0  0  0  0  0
    0.9730    1.4790    1.2010 H   0  0  0  0  0  0  0  0  0  0  0  0
   -0.1130    1.8960   -0.1840 H   0  0  0  0  0  0  0  0  0  0  0  0
    0.2230    3.3900    2.4480 H   0  0  0  0  0  0  0  0  0  0  0  0
    0.7790    3.8250    0.7770 H   0  0  0  0  0  0  0  0  0  0  0  0
   -1.1140    5.1170    1.4230 H   0  0  0  0  0  0  0  0  0  0  0  0
   -2.1400    3.7100    1.7450 H   0  0  0  0  0  0  0  0  0  0  0  0
   -2.2250    3.2670   -0.5040 H   0  0  0  0  0  0  0  0  0  0  0  0
   -0.7850    4.0830   -0.8740 H   0  0  0  0  0  0  0  0  0  0  0  0
   -1.6220   -1.8160   -0.7000 N   0  0  0  0  0  0  0  0  0  0  0  0
   -2.2900   -2.1030   -1.9750 C   0  0  1  0  0  0  0  0  0  0  0  0
   -1.2840   -2.2570   -3.0720 C   0  0  0  0  0  0  0  0  0  0  0  0
   -0.3190   -3.3370   -2.8970 C   0  0  0  0  0  0  0  0  0  0  0  0
    0.6070   -3.4920   -3.7300 O   0  0  0  0  0  0  0  0  0  0  0  0
   -3.1300   -3.3220   -1.8130 C   0  0  0  0  0  0  0  0  0  0  0  0
   -3.1800   -3.9130   -0.7290 O   0  0  0  0  0  0  0  0  0  0  0  0
   -0.3820   -4.2130   -1.8330 O   0  0  0  0  0  0  0  0  0  0  0  0
   -3.8600   -3.7850   -2.9120 O   0  0  0  0  0  0  0  0  0  0  0  0
   -0.9400   -2.5480   -0.3520 H   0  0  0  0  0  0  0  0  0  0  0  0
   -2.9480   -1.2560   -2.2080 H   0  0  0  0  0  0  0  0  0  0  0  0
   -0.7210   -1.2840   -3.1750 H   0  0  0  0  0  0  0  0  0  0  0  0
   -1.7950   -2.3950   -4.0460 H   0  0  0  0  0  0  0  0  0  0  0  0
   -0.1170   -5.1950   -1.9090 H   0  0  0  0  0  0  0  0  0  0  0  0
  1 11  1  0  0  0  0
  1 10  1  0  0  0  0
  2  1  1  0  0  0  0
  3  2  2  0  0  0  0
  4 13  1  0  0  0  0
  4 12  1  0  0  0  0
  4  2  1  0  0  0  0
  5 15  1  0  0  0  0
  5  4  1  0  0  0  0
  6 16  1  1  0  0  0
  6  5  1  0  0  0  0
  7 17  1  0  0  0  0
  7  6  1  0  0  0  0
  8  6  1  0  0  0  0
  8 19  1  0  0  0  0
  9  8  2  0  0  0  0
 14  5  1  0  0  0  0
 18  7  1  0  0  0  0
 19 28  1  0  0  0  0
 20 19  1  0  0  0  0
 20 21  1  0  0  0  0
 20 29  1  1  0  0  0
 21 30  1  0  0  0  0
 22 32  1  0  0  0  0
 22 23  1  0  0  0  0
 22 21  1  0  0  0  0
 23 34  1  0  0  0  0
 24 23  1  0  0  0  0
 24 36  1  0  0  0  0
 24 37  1  0  0  0  0
 25 24  1  0  0  0  0
 26 20  1  0  0  0  0
 27 26  2  0  0  0  0
 31 21  1  0  0  0  0
 33 22  1  0  0  0  0
 35 23  1  0  0  0  0
 38 25  1  0  0  0  0
 39 25  1  0  0  0  0
 40 49  1  0  0  0  0
 40 26  1  0  0  0  0
 41 50  1  6  0  0  0
 41 45  1  0  0  0  0
 41 40  1  0  0  0  0
 42 43  1  0  0  0  0
 42 41  1  0  0  0  0
 43 47  1  0  0  0  0
 44 43  2  0  0  0  0
 45 46  1  0  0  0  0
 48 45  2  0  0  0  0
 51 42  1  0  0  0  0
 52 42  1  0  0  0  0
 53 47  1  0  0  0  0
M  END
$$$$
