QKF.pdb
 OpenBabel07022418333D

 60 60  0  0  1  0  0  0  0  0999 V2000
   -2.4780   -0.6570    2.9110 N   0  0  0  0  0  0  0  0  0  0  0  0
   -2.5960   -0.3050    1.5610 C   0  0  0  0  0  0  0  0  0  0  0  0
   -1.9920   -1.0480    0.7120 O   0  0  0  0  0  0  0  0  0  0  0  0
   -3.3620    0.8440    1.0280 C   0  0  0  0  0  0  0  0  0  0  0  0
   -2.8840    1.3540   -0.2950 C   0  0  0  0  0  0  0  0  0  0  0  0
   -1.5420    1.9810   -0.2510 C   0  0  2  0  0  0  0  0  0  0  0  0
   -1.1700    2.4100   -1.6310 N   0  0  0  0  0  0  0  0  0  0  0  0
   -0.4430    1.2050    0.3400 C   0  0  0  0  0  0  0  0  0  0  0  0
   -0.3290    1.1930    1.5960 O   0  0  0  0  0  0  0  0  0  0  0  0
   -3.3060   -0.9290    3.4870 H   0  0  0  0  0  0  0  0  0  0  0  0
   -1.5480   -0.6530    3.3660 H   0  0  0  0  0  0  0  0  0  0  0  0
   -4.4680    0.6150    1.0040 H   0  0  0  0  0  0  0  0  0  0  0  0
   -3.2910    1.6420    1.8280 H   0  0  0  0  0  0  0  0  0  0  0  0
   -3.6130    2.1520   -0.6300 H   0  0  0  0  0  0  0  0  0  0  0  0
   -2.9390    0.5080   -1.0400 H   0  0  0  0  0  0  0  0  0  0  0  0
   -1.6650    2.9380    0.3540 H   0  0  0  0  0  0  0  0  0  0  0  0
   -0.4650    3.1590   -1.4720 H   0  0  0  0  0  0  0  0  0  0  0  0
   -2.0130    2.6930   -2.1480 H   0  0  0  0  0  0  0  0  0  0  0  0
    0.4780    0.4880   -0.4410 N   0  0  0  0  0  0  0  0  0  0  0  0
    1.5830   -0.2480    0.0400 C   0  0  1  0  0  0  0  0  0  0  0  0
    2.0880    0.1440    1.4260 C   0  0  0  0  0  0  0  0  0  0  0  0
    2.5830    1.5450    1.3840 C   0  0  0  0  0  0  0  0  0  0  0  0
    3.0840    2.0350    2.7250 C   0  0  0  0  0  0  0  0  0  0  0  0
    3.5730    3.4560    2.6380 C   0  0  0  0  0  0  0  0  0  0  0  0
    4.6600    3.6440    1.7100 N   0  0  0  0  0  0  0  0  0  0  0  0
    1.6830   -1.6640   -0.2660 C   0  0  0  0  0  0  0  0  0  0  0  0
    2.7590   -2.3140    0.0390 O   0  0  0  0  0  0  0  0  0  0  0  0
    0.2920    0.5290   -1.5010 H   0  0  0  0  0  0  0  0  0  0  0  0
    2.4720    0.2270   -0.5830 H   0  0  0  0  0  0  0  0  0  0  0  0
    3.0190   -0.4970    1.5550 H   0  0  0  0  0  0  0  0  0  0  0  0
    1.4310   -0.1250    2.2410 H   0  0  0  0  0  0  0  0  0  0  0  0
    3.4810    1.6240    0.6670 H   0  0  0  0  0  0  0  0  0  0  0  0
    1.8780    2.2580    0.9820 H   0  0  0  0  0  0  0  0  0  0  0  0
    2.3400    1.9660    3.5160 H   0  0  0  0  0  0  0  0  0  0  0  0
    3.9700    1.4120    3.0090 H   0  0  0  0  0  0  0  0  0  0  0  0
    3.9660    3.7320    3.6510 H   0  0  0  0  0  0  0  0  0  0  0  0
    2.7870    4.1850    2.3990 H   0  0  0  0  0  0  0  0  0  0  0  0
    5.1300    4.5470    2.0080 H   0  0  0  0  0  0  0  0  0  0  0  0
    4.3390    3.8080    0.7370 H   0  0  0  0  0  0  0  0  0  0  0  0
    0.7290   -2.4990   -0.8880 N   0  0  0  0  0  0  0  0  0  0  0  0
    0.8800   -3.8830   -1.1900 C   0  0  1  0  0  0  0  0  0  0  0  0
    0.3020   -4.8840   -0.2800 C   0  0  0  0  0  0  0  0  0  0  0  0
   -1.1230   -4.8860   -0.0160 C   0  0  0  0  0  0  0  0  0  0  0  0
   -1.5820   -4.1810    1.0910 C   0  0  0  0  0  0  0  0  0  0  0  0
   -2.9110   -4.1310    1.4220 C   0  0  0  0  0  0  0  0  0  0  0  0
   -3.8250   -4.7950    0.6410 C   0  0  0  0  0  0  0  0  0  0  0  0
   -3.4090   -5.5080   -0.4680 C   0  0  0  0  0  0  0  0  0  0  0  0
   -2.0580   -5.5410   -0.7780 C   0  0  0  0  0  0  0  0  0  0  0  0
    0.7060   -4.2040   -2.6240 C   0  0  0  0  0  0  0  0  0  0  0  0
    0.8030   -5.3850   -2.9990 O   0  0  0  0  0  0  0  0  0  0  0  0
    0.4410   -3.2060   -3.5230 O   0  0  0  0  0  0  0  0  0  0  0  0
   -0.1850   -2.0460   -1.1510 H   0  0  0  0  0  0  0  0  0  0  0  0
    2.0230   -4.0450   -1.0530 H   0  0  0  0  0  0  0  0  0  0  0  0
    0.5100   -5.8900   -0.7750 H   0  0  0  0  0  0  0  0  0  0  0  0
    0.9310   -4.9570    0.6440 H   0  0  0  0  0  0  0  0  0  0  0  0
   -0.8390   -3.6510    1.7120 H   0  0  0  0  0  0  0  0  0  0  0  0
   -3.2510   -3.5830    2.2790 H   0  0  0  0  0  0  0  0  0  0  0  0
   -4.8650   -4.7490    0.9110 H   0  0  0  0  0  0  0  0  0  0  0  0
   -4.1070   -6.0500   -1.1160 H   0  0  0  0  0  0  0  0  0  0  0  0
   -1.6710   -6.0890   -1.6420 H   0  0  0  0  0  0  0  0  0  0  0  0
  1 11  1  0  0  0  0
  1 10  1  0  0  0  0
  2  1  1  0  0  0  0
  3  2  2  0  0  0  0
  4  2  1  0  0  0  0
  4 13  1  0  0  0  0
  5  6  1  0  0  0  0
  5  4  1  0  0  0  0
  6  8  1  0  0  0  0
  6 16  1  1  0  0  0
  7 17  1  0  0  0  0
  7  6  1  0  0  0  0
  8  9  2  0  0  0  0
 12  4  1  0  0  0  0
 14  5  1  0  0  0  0
 15  5  1  0  0  0  0
 18  7  1  0  0  0  0
 19 20  1  0  0  0  0
 19  8  1  0  0  0  0
 20 29  1  6  0  0  0
 20 21  1  0  0  0  0
 21 30  1  0  0  0  0
 21 31  1  0  0  0  0
 22 21  1  0  0  0  0
 22 23  1  0  0  0  0
 23 35  1  0  0  0  0
 23 34  1  0  0  0  0
 24 23  1  0  0  0  0
 24 36  1  0  0  0  0
 25 38  1  0  0  0  0
 25 24  1  0  0  0  0
 26 27  2  0  0  0  0
 26 20  1  0  0  0  0
 28 19  1  0  0  0  0
 32 22  1  0  0  0  0
 33 22  1  0  0  0  0
 37 24  1  0  0  0  0
 39 25  1  0  0  0  0
 40 26  1  0  0  0  0
 41 53  1  1  0  0  0
 41 40  1  0  0  0  0
 41 42  1  0  0  0  0
 42 43  1  0  0  0  0
 42 55  1  0  0  0  0
 43 44  1  0  0  0  0
 44 45  2  0  0  0  0
 44 56  1  0  0  0  0
 45 57  1  0  0  0  0
 46 58  1  0  0  0  0
 46 45  1  0  0  0  0
 47 46  2  0  0  0  0
 48 47  1  0  0  0  0
 48 43  2  0  0  0  0
 49 41  1  0  0  0  0
 50 49  1  0  0  0  0
 51 49  2  0  0  0  0
 52 40  1  0  0  0  0
 54 42  1  0  0  0  0
 59 47  1  0  0  0  0
 60 48  1  0  0  0  0
M  END
$$$$
