QKH.pdb
 OpenBabel07022418323D

 57 57  0  0  1  0  0  0  0  0999 V2000
    5.7060   -4.0980    4.4690 N   0  0  0  0  0  0  0  0  0  0  0  0
    4.4330   -3.5130    4.2340 C   0  0  0  0  0  0  0  0  0  0  0  0
    3.7170   -3.2410    5.2150 O   0  0  0  0  0  0  0  0  0  0  0  0
    4.0050   -3.2520    2.8720 C   0  0  0  0  0  0  0  0  0  0  0  0
    2.8260   -2.3890    2.6540 C   0  0  0  0  0  0  0  0  0  0  0  0
    2.9110   -0.9770    3.1130 C   0  0  2  0  0  0  0  0  0  0  0  0
    3.1330   -0.8470    4.5050 N   0  0  0  0  0  0  0  0  0  0  0  0
    1.7760   -0.1480    2.6180 C   0  0  0  0  0  0  0  0  0  0  0  0
    1.0910    0.5910    3.3810 O   0  0  0  0  0  0  0  0  0  0  0  0
    6.1860   -4.0300    5.3990 H   0  0  0  0  0  0  0  0  0  0  0  0
    6.2140   -4.6200    3.7230 H   0  0  0  0  0  0  0  0  0  0  0  0
    4.8400   -2.8700    2.2220 H   0  0  0  0  0  0  0  0  0  0  0  0
    3.7580   -4.2580    2.4170 H   0  0  0  0  0  0  0  0  0  0  0  0
    1.9410   -2.8690    3.1630 H   0  0  0  0  0  0  0  0  0  0  0  0
    2.5640   -2.4610    1.5630 H   0  0  0  0  0  0  0  0  0  0  0  0
    3.8180   -0.5370    2.5930 H   0  0  0  0  0  0  0  0  0  0  0  0
    2.3040   -0.7750    5.1010 H   0  0  0  0  0  0  0  0  0  0  0  0
    3.9350   -0.2670    4.7770 H   0  0  0  0  0  0  0  0  0  0  0  0
    1.4150   -0.1560    1.2530 N   0  0  0  0  0  0  0  0  0  0  0  0
    0.2920    0.6630    0.7520 C   0  0  1  0  0  0  0  0  0  0  0  0
    0.7990    1.5960   -0.2930 C   0  0  0  0  0  0  0  0  0  0  0  0
   -0.2890    2.4650   -0.8330 C   0  0  0  0  0  0  0  0  0  0  0  0
   -0.9720    3.3230    0.1950 C   0  0  0  0  0  0  0  0  0  0  0  0
   -2.0450    4.1210   -0.5370 C   0  0  0  0  0  0  0  0  0  0  0  0
   -1.3430    4.9110   -1.5420 N   0  0  0  0  0  0  0  0  0  0  0  0
   -0.6400   -0.3180    0.1440 C   0  0  0  0  0  0  0  0  0  0  0  0
   -0.1920   -1.4960   -0.1020 O   0  0  0  0  0  0  0  0  0  0  0  0
    1.9070   -0.7220    0.5490 H   0  0  0  0  0  0  0  0  0  0  0  0
   -0.1580    1.2180    1.5720 H   0  0  0  0  0  0  0  0  0  0  0  0
    1.6620    2.2080    0.0760 H   0  0  0  0  0  0  0  0  0  0  0  0
    1.1340    0.9680   -1.1770 H   0  0  0  0  0  0  0  0  0  0  0  0
   -1.0450    1.8940   -1.3920 H   0  0  0  0  0  0  0  0  0  0  0  0
    0.1450    3.1500   -1.6550 H   0  0  0  0  0  0  0  0  0  0  0  0
   -0.2090    4.0420    0.5770 H   0  0  0  0  0  0  0  0  0  0  0  0
   -1.4020    2.7020    0.9710 H   0  0  0  0  0  0  0  0  0  0  0  0
   -2.7340    3.4520   -1.0720 H   0  0  0  0  0  0  0  0  0  0  0  0
   -2.5790    4.7720    0.1620 H   0  0  0  0  0  0  0  0  0  0  0  0
   -1.3750    4.4530   -2.4830 H   0  0  0  0  0  0  0  0  0  0  0  0
   -1.7270    5.8880   -1.5900 H   0  0  0  0  0  0  0  0  0  0  0  0
   -1.9800   -0.0960   -0.1930 N   0  0  0  0  0  0  0  0  0  0  0  0
   -2.7740   -1.1740   -0.8030 C   0  0  1  0  0  0  0  0  0  0  0  0
   -2.2140   -1.5120   -2.1560 C   0  0  0  0  0  0  0  0  0  0  0  0
   -3.0010   -2.5920   -2.7840 C   0  0  0  0  0  0  0  0  0  0  0  0
   -2.8080   -3.9660   -2.7420 C   0  0  0  0  0  0  0  0  0  0  0  0
   -3.7410   -4.5900   -3.4670 N   0  0  0  0  0  0  0  0  0  0  0  0
   -4.5340   -3.6390   -3.9760 C   0  0  0  0  0  0  0  0  0  0  0  0
   -4.0950   -2.4320   -3.5690 N   0  0  0  0  0  0  0  0  0  0  0  0
   -2.8760   -2.3250    0.0930 C   0  0  0  0  0  0  0  0  0  0  0  0
   -2.2890   -2.2820    1.2190 O   0  0  0  0  0  0  0  0  0  0  0  0
   -3.5720   -3.4830   -0.1830 O   0  0  0  0  0  0  0  0  0  0  0  0
   -2.4310    0.8210    0.0080 H   0  0  0  0  0  0  0  0  0  0  0  0
   -3.7990   -0.7380   -1.0000 H   0  0  0  0  0  0  0  0  0  0  0  0
   -2.2840   -0.5770   -2.7880 H   0  0  0  0  0  0  0  0  0  0  0  0
   -1.1510   -1.8200   -2.1520 H   0  0  0  0  0  0  0  0  0  0  0  0
   -2.0220   -4.4770   -2.2090 H   0  0  0  0  0  0  0  0  0  0  0  0
   -3.8460   -5.6110   -3.6160 H   0  0  0  0  0  0  0  0  0  0  0  0
   -5.4080   -3.7660   -4.6220 H   0  0  0  0  0  0  0  0  0  0  0  0
  1 10  1  0  0  0  0
  2  1  1  0  0  0  0
  2  3  2  0  0  0  0
  4  2  1  0  0  0  0
  5  4  1  0  0  0  0
  5  6  1  0  0  0  0
  5 14  1  0  0  0  0
  6 16  1  6  0  0  0
  6  7  1  0  0  0  0
  7 18  1  0  0  0  0
  7 17  1  0  0  0  0
  8  6  1  0  0  0  0
  8  9  2  0  0  0  0
 11  1  1  0  0  0  0
 12  4  1  0  0  0  0
 13  4  1  0  0  0  0
 15  5  1  0  0  0  0
 19  8  1  0  0  0  0
 20 19  1  0  0  0  0
 20 29  1  1  0  0  0
 21 30  1  0  0  0  0
 21 20  1  0  0  0  0
 22 21  1  0  0  0  0
 22 23  1  0  0  0  0
 23 34  1  0  0  0  0
 23 35  1  0  0  0  0
 24 37  1  0  0  0  0
 24 23  1  0  0  0  0
 25 24  1  0  0  0  0
 26 20  1  0  0  0  0
 27 26  2  0  0  0  0
 28 19  1  0  0  0  0
 31 21  1  0  0  0  0
 32 22  1  0  0  0  0
 33 22  1  0  0  0  0
 36 24  1  0  0  0  0
 38 25  1  0  0  0  0
 39 25  1  0  0  0  0
 40 51  1  0  0  0  0
 40 26  1  0  0  0  0
 41 52  1  6  0  0  0
 41 40  1  0  0  0  0
 41 48  1  0  0  0  0
 42 54  1  0  0  0  0
 42 41  1  0  0  0  0
 43 44  2  0  0  0  0
 43 42  1  0  0  0  0
 44 55  1  0  0  0  0
 45 44  1  0  0  0  0
 46 47  2  0  0  0  0
 46 45  1  0  0  0  0
 47 43  1  0  0  0  0
 48 49  1  0  0  0  0
 50 48  2  0  0  0  0
 53 42  1  0  0  0  0
 56 45  1  0  0  0  0
 57 46  1  0  0  0  0
M  END
$$$$
