QKI.pdb
 OpenBabel07022418323D

 59 58  0  0  1  0  0  0  0  0999 V2000
    1.7050   -5.6750    1.4550 N   0  0  0  0  0  0  0  0  0  0  0  0
    2.5540   -4.5140    1.3340 C   0  0  0  0  0  0  0  0  0  0  0  0
    3.5770   -4.5630    2.0610 O   0  0  0  0  0  0  0  0  0  0  0  0
    2.2290   -3.4070    0.4420 C   0  0  0  0  0  0  0  0  0  0  0  0
    3.0690   -2.2090    0.4830 C   0  0  0  0  0  0  0  0  0  0  0  0
    3.1890   -1.4120    1.7120 C   0  0  2  0  0  0  0  0  0  0  0  0
    3.7080   -2.0700    2.8720 N   0  0  0  0  0  0  0  0  0  0  0  0
    2.0060   -0.5530    2.0380 C   0  0  0  0  0  0  0  0  0  0  0  0
    1.6300   -0.4970    3.2170 O   0  0  0  0  0  0  0  0  0  0  0  0
    2.0990   -6.6270    1.5350 H   0  0  0  0  0  0  0  0  0  0  0  0
    0.6670   -5.5900    1.4650 H   0  0  0  0  0  0  0  0  0  0  0  0
    1.1190   -3.1920    0.4950 H   0  0  0  0  0  0  0  0  0  0  0  0
    2.3270   -3.8220   -0.6100 H   0  0  0  0  0  0  0  0  0  0  0  0
    2.7500   -1.5260   -0.3410 H   0  0  0  0  0  0  0  0  0  0  0  0
    4.1100   -2.5130    0.1860 H   0  0  0  0  0  0  0  0  0  0  0  0
    3.9910   -0.6310    1.4690 H   0  0  0  0  0  0  0  0  0  0  0  0
    3.5080   -1.6160    3.7610 H   0  0  0  0  0  0  0  0  0  0  0  0
    4.7410   -2.1790    2.7860 H   0  0  0  0  0  0  0  0  0  0  0  0
    1.3200    0.1840    1.0520 N   0  0  0  0  0  0  0  0  0  0  0  0
    0.1590    1.0270    1.4540 C   0  0  1  0  0  0  0  0  0  0  0  0
    0.4000    2.4360    1.0650 C   0  0  0  0  0  0  0  0  0  0  0  0
   -0.6090    3.4640    1.4090 C   0  0  0  0  0  0  0  0  0  0  0  0
   -0.8560    3.8290    2.8060 C   0  0  0  0  0  0  0  0  0  0  0  0
   -1.3290    2.8360    3.8040 C   0  0  0  0  0  0  0  0  0  0  0  0
   -2.5730    2.1940    3.5260 N   0  0  0  0  0  0  0  0  0  0  0  0
   -0.9850    0.4570    0.6500 C   0  0  0  0  0  0  0  0  0  0  0  0
   -2.0810    1.0120    0.7110 O   0  0  0  0  0  0  0  0  0  0  0  0
    1.5920    0.1660    0.0480 H   0  0  0  0  0  0  0  0  0  0  0  0
    0.0190    0.8510    2.5140 H   0  0  0  0  0  0  0  0  0  0  0  0
    1.3660    2.7760    1.5740 H   0  0  0  0  0  0  0  0  0  0  0  0
    0.6970    2.4920   -0.0260 H   0  0  0  0  0  0  0  0  0  0  0  0
   -1.5750    3.2910    0.8380 H   0  0  0  0  0  0  0  0  0  0  0  0
   -0.2370    4.4250    0.8970 H   0  0  0  0  0  0  0  0  0  0  0  0
    0.0730    4.3280    3.2700 H   0  0  0  0  0  0  0  0  0  0  0  0
   -1.6150    4.6920    2.8800 H   0  0  0  0  0  0  0  0  0  0  0  0
   -1.5730    3.4510    4.7760 H   0  0  0  0  0  0  0  0  0  0  0  0
   -0.5360    2.1690    4.2110 H   0  0  0  0  0  0  0  0  0  0  0  0
   -3.1030    2.5540    2.7180 H   0  0  0  0  0  0  0  0  0  0  0  0
   -2.4350    1.1730    3.4030 H   0  0  0  0  0  0  0  0  0  0  0  0
   -2.4500   -2.0200   -4.6340 C   0  0  0  0  0  0  0  0  0  0  0  0
   -2.7860   -1.9970   -3.1190 C   0  0  0  0  0  0  0  0  0  0  0  0
   -1.6320   -1.3860   -2.3690 C   0  0  2  0  0  0  0  0  0  0  0  0
   -0.4170   -2.2720   -2.6160 C   0  0  0  0  0  0  0  0  0  0  0  0
   -1.9040   -1.2630   -0.9500 C   0  0  2  0  0  0  0  0  0  0  0  0
   -0.8510   -0.6660   -0.1520 N   0  0  0  0  0  0  0  0  0  0  0  0
   -2.2440   -2.5360   -0.2930 C   0  0  0  0  0  0  0  0  0  0  0  0
   -1.5840   -2.9450    0.7360 O   0  0  0  0  0  0  0  0  0  0  0  0
   -3.2560   -3.4020   -0.6700 O   0  0  0  0  0  0  0  0  0  0  0  0
   -1.4690   -2.4980   -4.8090 H   0  0  0  0  0  0  0  0  0  0  0  0
   -3.2940   -2.4690   -5.1530 H   0  0  0  0  0  0  0  0  0  0  0  0
   -2.2950   -0.9350   -4.8830 H   0  0  0  0  0  0  0  0  0  0  0  0
   -3.0170   -3.0410   -2.8170 H   0  0  0  0  0  0  0  0  0  0  0  0
   -3.6810   -1.3620   -3.0300 H   0  0  0  0  0  0  0  0  0  0  0  0
   -1.4850   -0.3950   -2.9000 H   0  0  0  0  0  0  0  0  0  0  0  0
    0.3290   -1.8210   -3.2720 H   0  0  0  0  0  0  0  0  0  0  0  0
   -0.7080   -3.2490   -3.0800 H   0  0  0  0  0  0  0  0  0  0  0  0
    0.0850   -2.5690   -1.6640 H   0  0  0  0  0  0  0  0  0  0  0  0
   -2.8060   -0.5990   -0.7850 H   0  0  0  0  0  0  0  0  0  0  0  0
    0.0660   -1.1520   -0.2140 H   0  0  0  0  0  0  0  0  0  0  0  0
  1 11  1  0  0  0  0
  1 10  1  0  0  0  0
  2  1  1  0  0  0  0
  2  3  2  0  0  0  0
  4  5  1  0  0  0  0
  4 12  1  0  0  0  0
  4  2  1  0  0  0  0
  5  6  1  0  0  0  0
  6 16  1  6  0  0  0
  6  8  1  0  0  0  0
  6  7  1  0  0  0  0
  7 17  1  0  0  0  0
  8  9  2  0  0  0  0
 13  4  1  0  0  0  0
 14  5  1  0  0  0  0
 15  5  1  0  0  0  0
 18  7  1  0  0  0  0
 19 20  1  0  0  0  0
 19  8  1  0  0  0  0
 20 29  1  1  0  0  0
 21 22  1  0  0  0  0
 21 20  1  0  0  0  0
 21 30  1  0  0  0  0
 22 23  1  0  0  0  0
 23 35  1  0  0  0  0
 23 34  1  0  0  0  0
 23 24  1  0  0  0  0
 24 37  1  0  0  0  0
 24 36  1  0  0  0  0
 25 24  1  0  0  0  0
 26 27  2  0  0  0  0
 26 20  1  0  0  0  0
 28 19  1  0  0  0  0
 31 21  1  0  0  0  0
 32 22  1  0  0  0  0
 33 22  1  0  0  0  0
 38 25  1  0  0  0  0
 39 25  1  0  0  0  0
 40 41  1  0  0  0  0
 41 53  1  0  0  0  0
 41 52  1  0  0  0  0
 41 42  1  0  0  0  0
 42 54  1  6  0  0  0
 42 44  1  0  0  0  0
 43 42  1  0  0  0  0
 43 57  1  0  0  0  0
 44 58  1  1  0  0  0
 44 46  1  0  0  0  0
 44 45  1  0  0  0  0
 45 26  1  0  0  0  0
 46 47  1  0  0  0  0
 48 46  2  0  0  0  0
 49 40  1  0  0  0  0
 50 40  1  0  0  0  0
 51 40  1  0  0  0  0
 55 43  1  0  0  0  0
 56 43  1  0  0  0  0
 59 45  1  0  0  0  0
M  END
$$$$
