QKK.pdb
 OpenBabel07022418323D

 61 60  0  0  1  0  0  0  0  0999 V2000
    2.4570    0.7510    5.0310 N   0  0  0  0  0  0  0  0  0  0  0  0
    2.8980    0.5450    3.7100 C   0  0  0  0  0  0  0  0  0  0  0  0
    2.5530    1.3370    2.8090 O   0  0  0  0  0  0  0  0  0  0  0  0
    3.7700   -0.5940    3.3770 C   0  0  0  0  0  0  0  0  0  0  0  0
    3.6590   -1.0780    1.9730 C   0  0  0  0  0  0  0  0  0  0  0  0
    2.3570   -1.6960    1.5950 C   0  0  2  0  0  0  0  0  0  0  0  0
    2.4730   -2.0490    0.1780 N   0  0  0  0  0  0  0  0  0  0  0  0
    1.1370   -0.9430    1.8840 C   0  0  0  0  0  0  0  0  0  0  0  0
    0.6290   -0.8770    3.0570 O   0  0  0  0  0  0  0  0  0  0  0  0
    2.9440    1.4570    5.6240 H   0  0  0  0  0  0  0  0  0  0  0  0
    1.6500    0.1850    5.3730 H   0  0  0  0  0  0  0  0  0  0  0  0
    3.4600   -1.4300    4.0780 H   0  0  0  0  0  0  0  0  0  0  0  0
    4.8410   -0.3740    3.6590 H   0  0  0  0  0  0  0  0  0  0  0  0
    3.9290   -0.2190    1.3000 H   0  0  0  0  0  0  0  0  0  0  0  0
    4.5170   -1.8050    1.8300 H   0  0  0  0  0  0  0  0  0  0  0  0
    2.2720   -2.6660    2.1590 H   0  0  0  0  0  0  0  0  0  0  0  0
    1.6330   -2.4970   -0.1990 H   0  0  0  0  0  0  0  0  0  0  0  0
    3.3750   -2.5010   -0.0260 H   0  0  0  0  0  0  0  0  0  0  0  0
    0.4150   -0.2220    0.8770 N   0  0  0  0  0  0  0  0  0  0  0  0
   -0.7900    0.5010    1.2110 C   0  0  1  0  0  0  0  0  0  0  0  0
   -0.5660    1.9550    0.9150 C   0  0  0  0  0  0  0  0  0  0  0  0
   -1.7200    2.8350    1.1880 C   0  0  0  0  0  0  0  0  0  0  0  0
   -2.2630    2.9120    2.5570 C   0  0  0  0  0  0  0  0  0  0  0  0
   -1.3050    3.4410    3.5840 C   0  0  0  0  0  0  0  0  0  0  0  0
   -0.1590    2.6110    3.6890 N   0  0  0  0  0  0  0  0  0  0  0  0
   -1.9260   -0.0870    0.5070 C   0  0  0  0  0  0  0  0  0  0  0  0
   -3.1120    0.3620    0.5800 O   0  0  0  0  0  0  0  0  0  0  0  0
    0.7430   -0.2040   -0.1100 H   0  0  0  0  0  0  0  0  0  0  0  0
   -1.0170    0.3980    2.3130 H   0  0  0  0  0  0  0  0  0  0  0  0
   -0.2970    2.0880   -0.1700 H   0  0  0  0  0  0  0  0  0  0  0  0
    0.3320    2.2910    1.4570 H   0  0  0  0  0  0  0  0  0  0  0  0
   -2.5530    2.6990    0.4220 H   0  0  0  0  0  0  0  0  0  0  0  0
   -1.3680    3.8900    0.9310 H   0  0  0  0  0  0  0  0  0  0  0  0
   -2.7560    1.9690    2.9010 H   0  0  0  0  0  0  0  0  0  0  0  0
   -3.1150    3.6670    2.5230 H   0  0  0  0  0  0  0  0  0  0  0  0
   -0.9320    4.4640    3.2760 H   0  0  0  0  0  0  0  0  0  0  0  0
   -1.8040    3.6340    4.5630 H   0  0  0  0  0  0  0  0  0  0  0  0
    0.7050    3.1050    4.0060 H   0  0  0  0  0  0  0  0  0  0  0  0
   -0.3590    1.7310    4.1940 H   0  0  0  0  0  0  0  0  0  0  0  0
   -1.7230   -1.2370   -0.3170 N   0  0  0  0  0  0  0  0  0  0  0  0
   -2.8590   -1.8150   -1.0100 C   0  0  1  0  0  0  0  0  0  0  0  0
   -2.6070   -1.9940   -2.4870 C   0  0  0  0  0  0  0  0  0  0  0  0
   -1.4390   -2.9090   -2.6740 C   0  0  0  0  0  0  0  0  0  0  0  0
   -1.1220   -3.1630   -4.1560 C   0  0  0  0  0  0  0  0  0  0  0  0
    0.0790   -4.1190   -4.1200 C   0  0  0  0  0  0  0  0  0  0  0  0
    0.5330   -4.4950   -5.4220 N   0  0  0  0  0  0  0  0  0  0  0  0
   -3.1610   -3.1840   -0.4830 C   0  0  0  0  0  0  0  0  0  0  0  0
   -2.4380   -3.6310    0.4260 O   0  0  0  0  0  0  0  0  0  0  0  0
   -4.1950   -3.9060   -0.9870 O   0  0  0  0  0  0  0  0  0  0  0  0
   -0.7820   -1.6760   -0.4370 H   0  0  0  0  0  0  0  0  0  0  0  0
   -3.7830   -1.2220   -0.8430 H   0  0  0  0  0  0  0  0  0  0  0  0
   -2.4840   -1.0290   -3.0120 H   0  0  0  0  0  0  0  0  0  0  0  0
   -3.5230   -2.4740   -2.9450 H   0  0  0  0  0  0  0  0  0  0  0  0
   -0.5170   -2.4430   -2.2750 H   0  0  0  0  0  0  0  0  0  0  0  0
   -1.6400   -3.9080   -2.2390 H   0  0  0  0  0  0  0  0  0  0  0  0
   -1.9770   -3.6800   -4.6290 H   0  0  0  0  0  0  0  0  0  0  0  0
   -0.8270   -2.2380   -4.6730 H   0  0  0  0  0  0  0  0  0  0  0  0
   -0.2400   -5.0490   -3.5640 H   0  0  0  0  0  0  0  0  0  0  0  0
    0.9000   -3.6560   -3.5380 H   0  0  0  0  0  0  0  0  0  0  0  0
    0.2910   -5.4810   -5.6740 H   0  0  0  0  0  0  0  0  0  0  0  0
    1.5780   -4.3400   -5.5260 H   0  0  0  0  0  0  0  0  0  0  0  0
  1 11  1  0  0  0  0
  1 10  1  0  0  0  0
  2  1  1  0  0  0  0
  3  2  2  0  0  0  0
  4 13  1  0  0  0  0
  4  2  1  0  0  0  0
  4 12  1  0  0  0  0
  5  4  1  0  0  0  0
  6  8  1  0  0  0  0
  6  5  1  0  0  0  0
  6 16  1  1  0  0  0
  7  6  1  0  0  0  0
  8  9  2  0  0  0  0
 14  5  1  0  0  0  0
 15  5  1  0  0  0  0
 17  7  1  0  0  0  0
 18  7  1  0  0  0  0
 19 20  1  0  0  0  0
 19  8  1  0  0  0  0
 20 29  1  1  0  0  0
 21 22  1  0  0  0  0
 21 20  1  0  0  0  0
 21 31  1  0  0  0  0
 22 23  1  0  0  0  0
 23 34  1  0  0  0  0
 23 24  1  0  0  0  0
 24 25  1  0  0  0  0
 24 37  1  0  0  0  0
 25 38  1  0  0  0  0
 25 39  1  0  0  0  0
 26 27  2  0  0  0  0
 26 20  1  0  0  0  0
 28 19  1  0  0  0  0
 30 21  1  0  0  0  0
 32 22  1  0  0  0  0
 33 22  1  0  0  0  0
 35 23  1  0  0  0  0
 36 24  1  0  0  0  0
 40 26  1  0  0  0  0
 41 51  1  1  0  0  0
 41 47  1  0  0  0  0
 41 40  1  0  0  0  0
 42 41  1  0  0  0  0
 43 42  1  0  0  0  0
 43 54  1  0  0  0  0
 43 55  1  0  0  0  0
 44 45  1  0  0  0  0
 44 43  1  0  0  0  0
 45 58  1  0  0  0  0
 45 59  1  0  0  0  0
 46 45  1  0  0  0  0
 47 48  1  0  0  0  0
 49 47  2  0  0  0  0
 50 40  1  0  0  0  0
 52 42  1  0  0  0  0
 53 42  1  0  0  0  0
 56 44  1  0  0  0  0
 57 44  1  0  0  0  0
 60 46  1  0  0  0  0
 61 46  1  0  0  0  0
M  END
$$$$
