QKL.pdb
 OpenBabel07022418323D

 59 58  0  0  1  0  0  0  0  0999 V2000
    3.9950   -3.5510   -2.3980 N   0  0  0  0  0  0  0  0  0  0  0  0
    4.5720   -2.4060   -1.7920 C   0  0  0  0  0  0  0  0  0  0  0  0
    5.7630   -2.4520   -1.4410 O   0  0  0  0  0  0  0  0  0  0  0  0
    3.7550   -1.2160   -1.6030 C   0  0  0  0  0  0  0  0  0  0  0  0
    4.2360   -0.1700   -0.6770 C   0  0  0  0  0  0  0  0  0  0  0  0
    4.3850   -0.5380    0.7600 C   0  0  2  0  0  0  0  0  0  0  0  0
    5.3230   -1.6100    0.9210 N   0  0  0  0  0  0  0  0  0  0  0  0
    3.0820   -0.8980    1.3880 C   0  0  0  0  0  0  0  0  0  0  0  0
    2.9530   -2.0180    1.9520 O   0  0  0  0  0  0  0  0  0  0  0  0
    4.5370   -4.4050   -2.6340 H   0  0  0  0  0  0  0  0  0  0  0  0
    2.9660   -3.5970   -2.6450 H   0  0  0  0  0  0  0  0  0  0  0  0
    2.7190   -1.4930   -1.2760 H   0  0  0  0  0  0  0  0  0  0  0  0
    3.6280   -0.7410   -2.6100 H   0  0  0  0  0  0  0  0  0  0  0  0
    5.1830    0.3270   -1.0610 H   0  0  0  0  0  0  0  0  0  0  0  0
    3.4880    0.6840   -0.6960 H   0  0  0  0  0  0  0  0  0  0  0  0
    4.7910    0.3390    1.3370 H   0  0  0  0  0  0  0  0  0  0  0  0
    5.0330   -2.3190    1.6400 H   0  0  0  0  0  0  0  0  0  0  0  0
    6.2800   -1.2950    1.2090 H   0  0  0  0  0  0  0  0  0  0  0  0
    1.9600   -0.0380    1.3880 N   0  0  0  0  0  0  0  0  0  0  0  0
    0.6920   -0.4340    2.0200 C   0  0  1  0  0  0  0  0  0  0  0  0
    0.4430    0.3890    3.2480 C   0  0  0  0  0  0  0  0  0  0  0  0
    0.3750    1.8400    3.0980 C   0  0  0  0  0  0  0  0  0  0  0  0
   -0.6180    2.5050    2.2690 C   0  0  0  0  0  0  0  0  0  0  0  0
   -2.0540    2.3280    2.6170 C   0  0  0  0  0  0  0  0  0  0  0  0
   -2.9000    3.0450    1.6840 N   0  0  0  0  0  0  0  0  0  0  0  0
   -0.3320   -0.5130    1.0120 C   0  0  0  0  0  0  0  0  0  0  0  0
   -0.1190   -0.0960   -0.1610 O   0  0  0  0  0  0  0  0  0  0  0  0
    2.0260    0.8950    0.9330 H   0  0  0  0  0  0  0  0  0  0  0  0
    0.8800   -1.4790    2.4400 H   0  0  0  0  0  0  0  0  0  0  0  0
    1.3350    0.1640    3.9140 H   0  0  0  0  0  0  0  0  0  0  0  0
   -0.4040   -0.0760    3.8060 H   0  0  0  0  0  0  0  0  0  0  0  0
    1.4090    2.1840    2.7790 H   0  0  0  0  0  0  0  0  0  0  0  0
    0.3140    2.2850    4.1410 H   0  0  0  0  0  0  0  0  0  0  0  0
   -0.4380    3.6250    2.2840 H   0  0  0  0  0  0  0  0  0  0  0  0
   -0.4990    2.2530    1.1880 H   0  0  0  0  0  0  0  0  0  0  0  0
   -2.2540    2.8280    3.6150 H   0  0  0  0  0  0  0  0  0  0  0  0
   -2.4120    1.3240    2.7160 H   0  0  0  0  0  0  0  0  0  0  0  0
   -3.2890    2.3390    0.9920 H   0  0  0  0  0  0  0  0  0  0  0  0
   -3.7410    3.4700    2.1400 H   0  0  0  0  0  0  0  0  0  0  0  0
   -3.5690   -4.2900   -1.7600 C   0  0  0  0  0  0  0  0  0  0  0  0
   -3.6880   -2.8040   -1.3710 C   0  0  0  0  0  0  0  0  0  0  0  0
   -3.4350   -2.0070   -2.6110 C   0  0  0  0  0  0  0  0  0  0  0  0
   -2.6920   -2.5850   -0.2910 C   0  0  0  0  0  0  0  0  0  0  0  0
   -2.6400   -1.1470    0.2350 C   0  0  2  0  0  0  0  0  0  0  0  0
   -1.6290   -1.0690    1.2790 N   0  0  0  0  0  0  0  0  0  0  0  0
   -3.9440   -0.7880    0.7810 C   0  0  0  0  0  0  0  0  0  0  0  0
   -4.1250   -0.5840    2.0010 O   0  0  0  0  0  0  0  0  0  0  0  0
   -5.0450   -0.6570   -0.0460 O   0  0  0  0  0  0  0  0  0  0  0  0
   -4.5550   -4.7000   -2.0260 H   0  0  0  0  0  0  0  0  0  0  0  0
   -2.8460   -4.4050   -2.5950 H   0  0  0  0  0  0  0  0  0  0  0  0
   -3.1620   -4.8770   -0.9070 H   0  0  0  0  0  0  0  0  0  0  0  0
   -4.7290   -2.7040   -0.9790 H   0  0  0  0  0  0  0  0  0  0  0  0
   -3.2800   -0.9220   -2.4060 H   0  0  0  0  0  0  0  0  0  0  0  0
   -2.5720   -2.4210   -3.1530 H   0  0  0  0  0  0  0  0  0  0  0  0
   -4.3140   -2.0600   -3.2850 H   0  0  0  0  0  0  0  0  0  0  0  0
   -2.9980   -3.2020    0.5860 H   0  0  0  0  0  0  0  0  0  0  0  0
   -1.7040   -2.9510   -0.5970 H   0  0  0  0  0  0  0  0  0  0  0  0
   -2.3700   -0.4660   -0.5900 H   0  0  0  0  0  0  0  0  0  0  0  0
   -1.8090   -1.4070    2.2380 H   0  0  0  0  0  0  0  0  0  0  0  0
  1  2  1  0  0  0  0
  2  4  1  0  0  0  0
  2  3  2  0  0  0  0
  4 12  1  0  0  0  0
  4  5  1  0  0  0  0
  5  6  1  0  0  0  0
  6  7  1  0  0  0  0
  6 16  1  1  0  0  0
  6  8  1  0  0  0  0
  7 18  1  0  0  0  0
  7 17  1  0  0  0  0
  8  9  2  0  0  0  0
 10  1  1  0  0  0  0
 11  1  1  0  0  0  0
 13  4  1  0  0  0  0
 14  5  1  0  0  0  0
 15  5  1  0  0  0  0
 19  8  1  0  0  0  0
 19 20  1  0  0  0  0
 20 29  1  1  0  0  0
 20 21  1  0  0  0  0
 21 31  1  0  0  0  0
 21 30  1  0  0  0  0
 22 21  1  0  0  0  0
 22 33  1  0  0  0  0
 23 34  1  0  0  0  0
 23 24  1  0  0  0  0
 23 22  1  0  0  0  0
 24 37  1  0  0  0  0
 24 36  1  0  0  0  0
 25 39  1  0  0  0  0
 25 24  1  0  0  0  0
 26 45  1  0  0  0  0
 26 20  1  0  0  0  0
 27 26  2  0  0  0  0
 28 19  1  0  0  0  0
 32 22  1  0  0  0  0
 35 23  1  0  0  0  0
 38 25  1  0  0  0  0
 40 41  1  0  0  0  0
 40 51  1  0  0  0  0
 41 52  1  0  0  0  0
 41 43  1  0  0  0  0
 42 53  1  0  0  0  0
 42 41  1  0  0  0  0
 43 44  1  0  0  0  0
 43 56  1  0  0  0  0
 44 58  1  6  0  0  0
 44 46  1  0  0  0  0
 44 45  1  0  0  0  0
 45 59  1  0  0  0  0
 46 47  1  0  0  0  0
 48 46  2  0  0  0  0
 49 40  1  0  0  0  0
 50 40  1  0  0  0  0
 54 42  1  0  0  0  0
 55 42  1  0  0  0  0
 57 43  1  0  0  0  0
M  END
$$$$
