QKM.pdb
 OpenBabel07022418333D

 57 56  0  0  1  0  0  0  0  0999 V2000
    3.9260   -1.5350    7.1320 N   0  0  0  0  0  0  0  0  0  0  0  0
    4.2350   -0.8860    5.9070 C   0  0  0  0  0  0  0  0  0  0  0  0
    4.8970    0.1840    5.9760 O   0  0  0  0  0  0  0  0  0  0  0  0
    3.8080   -1.4280    4.5860 C   0  0  0  0  0  0  0  0  0  0  0  0
    4.2580   -0.5490    3.4670 C   0  0  0  0  0  0  0  0  0  0  0  0
    3.8930   -1.0010    2.1000 C   0  0  2  0  0  0  0  0  0  0  0  0
    4.4060   -0.0380    1.1360 N   0  0  0  0  0  0  0  0  0  0  0  0
    2.4470   -1.2530    1.8860 C   0  0  0  0  0  0  0  0  0  0  0  0
    1.8370   -2.0860    2.5810 O   0  0  0  0  0  0  0  0  0  0  0  0
    4.6720   -1.7720    7.8380 H   0  0  0  0  0  0  0  0  0  0  0  0
    2.9600   -1.8140    7.4080 H   0  0  0  0  0  0  0  0  0  0  0  0
    4.2390   -2.4280    4.4650 H   0  0  0  0  0  0  0  0  0  0  0  0
    2.7030   -1.5380    4.6420 H   0  0  0  0  0  0  0  0  0  0  0  0
    3.9230    0.4990    3.6220 H   0  0  0  0  0  0  0  0  0  0  0  0
    5.3790   -0.4940    3.4970 H   0  0  0  0  0  0  0  0  0  0  0  0
    4.4130   -1.9680    1.8570 H   0  0  0  0  0  0  0  0  0  0  0  0
    4.2680   -0.4680    0.1880 H   0  0  0  0  0  0  0  0  0  0  0  0
    5.4580   -0.0330    1.2770 H   0  0  0  0  0  0  0  0  0  0  0  0
    1.7040   -0.5600    0.8890 N   0  0  0  0  0  0  0  0  0  0  0  0
    0.2960   -0.7620    0.6350 C   0  0  1  0  0  0  0  0  0  0  0  0
   -0.4550    0.4770    1.0120 C   0  0  0  0  0  0  0  0  0  0  0  0
   -0.0360    1.6910    0.2550 C   0  0  0  0  0  0  0  0  0  0  0  0
   -0.8450    2.8850    0.7090 C   0  0  0  0  0  0  0  0  0  0  0  0
   -2.3120    2.7140    0.4980 C   0  0  0  0  0  0  0  0  0  0  0  0
   -2.6500    2.5120   -0.8930 N   0  0  0  0  0  0  0  0  0  0  0  0
    0.0120   -1.3010   -0.6880 C   0  0  0  0  0  0  0  0  0  0  0  0
    0.9520   -1.5410   -1.4760 O   0  0  0  0  0  0  0  0  0  0  0  0
    2.2350    0.1340    0.3180 H   0  0  0  0  0  0  0  0  0  0  0  0
   -0.0240   -1.5540    1.3780 H   0  0  0  0  0  0  0  0  0  0  0  0
   -0.2790    0.6630    2.0900 H   0  0  0  0  0  0  0  0  0  0  0  0
   -1.5420    0.2880    0.9030 H   0  0  0  0  0  0  0  0  0  0  0  0
   -0.2430    1.5140   -0.8200 H   0  0  0  0  0  0  0  0  0  0  0  0
    1.0260    1.9200    0.4630 H   0  0  0  0  0  0  0  0  0  0  0  0
   -0.6920    3.0290    1.8170 H   0  0  0  0  0  0  0  0  0  0  0  0
   -0.5140    3.7680    0.1320 H   0  0  0  0  0  0  0  0  0  0  0  0
   -2.7860    3.6930    0.8030 H   0  0  0  0  0  0  0  0  0  0  0  0
   -2.7560    1.9100    1.1190 H   0  0  0  0  0  0  0  0  0  0  0  0
   -2.6720    3.4450   -1.3760 H   0  0  0  0  0  0  0  0  0  0  0  0
   -3.6010    2.0700   -0.9720 H   0  0  0  0  0  0  0  0  0  0  0  0
   -5.3160   -3.1110   -3.9700 C   0  0  0  0  0  0  0  0  0  0  0  0
   -4.7690   -2.4920   -2.3570 S   0  0  0  0  0  0  0  0  0  0  0  0
   -3.4900   -3.5020   -1.6230 C   0  0  0  0  0  0  0  0  0  0  0  0
   -2.1730   -3.4730   -2.3670 C   0  0  0  0  0  0  0  0  0  0  0  0
   -1.5660   -2.1070   -2.4480 C   0  0  2  0  0  0  0  0  0  0  0  0
   -1.3060   -1.5610   -1.1070 N   0  0  0  0  0  0  0  0  0  0  0  0
   -2.3060   -1.1340   -3.2510 C   0  0  0  0  0  0  0  0  0  0  0  0
   -2.6410   -0.0290   -2.7500 O   0  0  0  0  0  0  0  0  0  0  0  0
   -2.6690   -1.3650   -4.5690 O   0  0  0  0  0  0  0  0  0  0  0  0
   -6.3280   -3.5720   -3.8710 H   0  0  0  0  0  0  0  0  0  0  0  0
   -5.3090   -2.2580   -4.6860 H   0  0  0  0  0  0  0  0  0  0  0  0
   -4.6230   -3.8690   -4.3890 H   0  0  0  0  0  0  0  0  0  0  0  0
   -3.3610   -3.1860   -0.5700 H   0  0  0  0  0  0  0  0  0  0  0  0
   -3.8540   -4.5510   -1.5840 H   0  0  0  0  0  0  0  0  0  0  0  0
   -2.2580   -3.8690   -3.3870 H   0  0  0  0  0  0  0  0  0  0  0  0
   -1.4420   -4.1220   -1.8400 H   0  0  0  0  0  0  0  0  0  0  0  0
   -0.5690   -2.2470   -2.9630 H   0  0  0  0  0  0  0  0  0  0  0  0
   -2.1060   -1.3730   -0.4810 H   0  0  0  0  0  0  0  0  0  0  0  0
  1 11  1  0  0  0  0
  1 10  1  0  0  0  0
  2  3  2  0  0  0  0
  2  1  1  0  0  0  0
  4 13  1  0  0  0  0
  4  2  1  0  0  0  0
  5 15  1  0  0  0  0
  5 14  1  0  0  0  0
  5  4  1  0  0  0  0
  6 16  1  6  0  0  0
  6  5  1  0  0  0  0
  7 18  1  0  0  0  0
  7  6  1  0  0  0  0
  8  6  1  0  0  0  0
  8  9  2  0  0  0  0
 12  4  1  0  0  0  0
 17  7  1  0  0  0  0
 19  8  1  0  0  0  0
 20 19  1  0  0  0  0
 20 21  1  0  0  0  0
 20 29  1  1  0  0  0
 21 30  1  0  0  0  0
 22 33  1  0  0  0  0
 22 23  1  0  0  0  0
 22 21  1  0  0  0  0
 23 34  1  0  0  0  0
 24 23  1  0  0  0  0
 24 36  1  0  0  0  0
 24 37  1  0  0  0  0
 25 24  1  0  0  0  0
 26 20  1  0  0  0  0
 27 26  2  0  0  0  0
 28 19  1  0  0  0  0
 31 21  1  0  0  0  0
 32 22  1  0  0  0  0
 35 23  1  0  0  0  0
 38 25  1  0  0  0  0
 39 25  1  0  0  0  0
 40 49  1  0  0  0  0
 40 41  1  0  0  0  0
 41 42  1  0  0  0  0
 42 53  1  0  0  0  0
 42 52  1  0  0  0  0
 43 55  1  0  0  0  0
 43 42  1  0  0  0  0
 44 56  1  6  0  0  0
 44 43  1  0  0  0  0
 44 45  1  0  0  0  0
 45 26  1  0  0  0  0
 45 57  1  0  0  0  0
 46 47  1  0  0  0  0
 46 44  1  0  0  0  0
 48 46  2  0  0  0  0
 50 40  1  0  0  0  0
 51 40  1  0  0  0  0
 54 43  1  0  0  0  0
M  END
$$$$
