QKP.pdb
 OpenBabel07022418333D

 54 54  0  0  1  0  0  0  0  0999 V2000
    0.3140   -5.0580    3.6870 N   0  0  0  0  0  0  0  0  0  0  0  0
    1.2520   -3.9920    3.6350 C   0  0  0  0  0  0  0  0  0  0  0  0
    2.0160   -3.8030    4.5860 O   0  0  0  0  0  0  0  0  0  0  0  0
    1.2660   -3.1320    2.3990 C   0  0  0  0  0  0  0  0  0  0  0  0
    2.3170   -2.1100    2.5920 C   0  0  0  0  0  0  0  0  0  0  0  0
    2.5330   -1.1360    1.4610 C   0  0  2  0  0  0  0  0  0  0  0  0
    3.6330   -0.2610    1.9840 N   0  0  0  0  0  0  0  0  0  0  0  0
    1.3910   -0.2250    1.2830 C   0  0  0  0  0  0  0  0  0  0  0  0
    0.9380    0.5110    2.1760 O   0  0  0  0  0  0  0  0  0  0  0  0
    0.5060   -5.9130    3.1240 H   0  0  0  0  0  0  0  0  0  0  0  0
   -0.5350   -4.9540    4.2850 H   0  0  0  0  0  0  0  0  0  0  0  0
    0.2350   -2.7070    2.3600 H   0  0  0  0  0  0  0  0  0  0  0  0
    1.4250   -3.7070    1.4850 H   0  0  0  0  0  0  0  0  0  0  0  0
    2.1500   -1.4960    3.5170 H   0  0  0  0  0  0  0  0  0  0  0  0
    3.2810   -2.6530    2.8040 H   0  0  0  0  0  0  0  0  0  0  0  0
    2.8710   -1.6060    0.5450 H   0  0  0  0  0  0  0  0  0  0  0  0
    4.3160   -0.8860    2.4720 H   0  0  0  0  0  0  0  0  0  0  0  0
    3.1890    0.3240    2.7280 H   0  0  0  0  0  0  0  0  0  0  0  0
    0.7340   -0.1450    0.0040 N   0  0  0  0  0  0  0  0  0  0  0  0
   -0.3510    0.6990   -0.2800 C   0  0  1  0  0  0  0  0  0  0  0  0
   -0.0880    1.7530   -1.3290 C   0  0  0  0  0  0  0  0  0  0  0  0
    0.9920    2.7140   -1.0110 C   0  0  0  0  0  0  0  0  0  0  0  0
    0.8490    3.5780    0.1730 C   0  0  0  0  0  0  0  0  0  0  0  0
   -0.2920    4.5230    0.2300 C   0  0  0  0  0  0  0  0  0  0  0  0
   -1.5420    3.8270    0.1890 N   0  0  0  0  0  0  0  0  0  0  0  0
   -1.6000    0.0230   -0.5990 C   0  0  0  0  0  0  0  0  0  0  0  0
   -2.5750    0.8800   -0.8320 O   0  0  0  0  0  0  0  0  0  0  0  0
    1.0910   -0.7340   -0.8130 H   0  0  0  0  0  0  0  0  0  0  0  0
   -0.5520    1.2870    0.6710 H   0  0  0  0  0  0  0  0  0  0  0  0
    0.0440    1.2830   -2.3470 H   0  0  0  0  0  0  0  0  0  0  0  0
   -1.0360    2.3040   -1.4480 H   0  0  0  0  0  0  0  0  0  0  0  0
    1.1200    3.4030   -1.9090 H   0  0  0  0  0  0  0  0  0  0  0  0
    2.0030    2.2320   -0.9410 H   0  0  0  0  0  0  0  0  0  0  0  0
    1.8030    4.2090    0.2030 H   0  0  0  0  0  0  0  0  0  0  0  0
    0.9550    2.9840    1.1310 H   0  0  0  0  0  0  0  0  0  0  0  0
   -0.2280    5.3460   -0.5210 H   0  0  0  0  0  0  0  0  0  0  0  0
   -0.2760    5.0810    1.2150 H   0  0  0  0  0  0  0  0  0  0  0  0
   -1.8620    3.4910    1.1270 H   0  0  0  0  0  0  0  0  0  0  0  0
   -2.3320    4.4400   -0.1750 H   0  0  0  0  0  0  0  0  0  0  0  0
   -1.9050   -1.3310   -0.6930 N   0  0  0  0  0  0  0  0  0  0  0  0
   -3.2470   -1.8140   -1.0620 C   0  0  0  0  0  0  0  0  0  0  0  0
   -3.4250   -2.9780   -0.1310 C   0  0  0  0  0  0  0  0  0  0  0  0
   -2.0670   -3.4050    0.3090 C   0  0  0  0  0  0  0  0  0  0  0  0
   -1.1250   -2.4980   -0.4970 C   0  0  1  0  0  0  0  0  0  0  0  0
   -0.8360   -3.2500   -1.7540 C   0  0  0  0  0  0  0  0  0  0  0  0
   -0.1670   -4.3080   -1.6370 O   0  0  0  0  0  0  0  0  0  0  0  0
   -1.2420   -2.8750   -3.0060 O   0  0  0  0  0  0  0  0  0  0  0  0
   -4.0130   -1.0250   -0.9120 H   0  0  0  0  0  0  0  0  0  0  0  0
   -3.2600   -2.1710   -2.1060 H   0  0  0  0  0  0  0  0  0  0  0  0
   -4.0420   -2.6020    0.7370 H   0  0  0  0  0  0  0  0  0  0  0  0
   -3.9560   -3.8030   -0.6460 H   0  0  0  0  0  0  0  0  0  0  0  0
   -1.8680   -3.1970    1.3620 H   0  0  0  0  0  0  0  0  0  0  0  0
   -1.8430   -4.4730    0.0580 H   0  0  0  0  0  0  0  0  0  0  0  0
   -0.1920   -2.3520    0.0800 H   0  0  0  0  0  0  0  0  0  0  0  0
  1 11  1  0  0  0  0
  2  1  1  0  0  0  0
  2  3  2  0  0  0  0
  4  5  1  0  0  0  0
  4  2  1  0  0  0  0
  5 15  1  0  0  0  0
  5 14  1  0  0  0  0
  6 16  1  6  0  0  0
  6  7  1  0  0  0  0
  6  5  1  0  0  0  0
  7 17  1  0  0  0  0
  7 18  1  0  0  0  0
  8  6  1  0  0  0  0
  8  9  2  0  0  0  0
 10  1  1  0  0  0  0
 12  4  1  0  0  0  0
 13  4  1  0  0  0  0
 19  8  1  0  0  0  0
 20 19  1  0  0  0  0
 20 29  1  1  0  0  0
 21 22  1  0  0  0  0
 21 20  1  0  0  0  0
 22 33  1  0  0  0  0
 22 23  1  0  0  0  0
 23 34  1  0  0  0  0
 23 24  1  0  0  0  0
 23 35  1  0  0  0  0
 24 37  1  0  0  0  0
 25 24  1  0  0  0  0
 25 38  1  0  0  0  0
 26 20  1  0  0  0  0
 27 26  2  0  0  0  0
 28 19  1  0  0  0  0
 30 21  1  0  0  0  0
 31 21  1  0  0  0  0
 32 22  1  0  0  0  0
 36 24  1  0  0  0  0
 39 25  1  0  0  0  0
 40 26  1  0  0  0  0
 40 44  1  0  0  0  0
 41 48  1  0  0  0  0
 41 40  1  0  0  0  0
 41 42  1  0  0  0  0
 42 43  1  0  0  0  0
 42 50  1  0  0  0  0
 43 52  1  0  0  0  0
 44 54  1  1  0  0  0
 44 43  1  0  0  0  0
 45 46  1  0  0  0  0
 45 44  1  0  0  0  0
 47 45  2  0  0  0  0
 49 41  1  0  0  0  0
 51 42  1  0  0  0  0
 53 43  1  0  0  0  0
M  END
$$$$
