QKR.pdb
 OpenBabel07022418323D

 63 62  0  0  1  0  0  0  0  0999 V2000
   -5.6990   -5.3410    1.4970 N   0  0  0  0  0  0  0  0  0  0  0  0
   -4.3250   -5.0140    1.7140 C   0  0  0  0  0  0  0  0  0  0  0  0
   -3.8030   -5.3060    2.8000 O   0  0  0  0  0  0  0  0  0  0  0  0
   -3.5300   -4.3290    0.6430 C   0  0  0  0  0  0  0  0  0  0  0  0
   -2.1470   -4.1250    1.1520 C   0  0  0  0  0  0  0  0  0  0  0  0
   -1.1940   -3.4570    0.1990 C   0  0  2  0  0  0  0  0  0  0  0  0
    0.0840   -3.3770    0.9190 N   0  0  0  0  0  0  0  0  0  0  0  0
   -1.6490   -2.0600   -0.0200 C   0  0  0  0  0  0  0  0  0  0  0  0
   -2.6840   -1.8570   -0.6680 O   0  0  0  0  0  0  0  0  0  0  0  0
   -5.9410   -5.9160    0.6580 H   0  0  0  0  0  0  0  0  0  0  0  0
   -6.4540   -5.0400    2.1200 H   0  0  0  0  0  0  0  0  0  0  0  0
   -3.5400   -5.0080   -0.2370 H   0  0  0  0  0  0  0  0  0  0  0  0
   -4.0110   -3.3600    0.4180 H   0  0  0  0  0  0  0  0  0  0  0  0
   -2.1740   -3.5020    2.0930 H   0  0  0  0  0  0  0  0  0  0  0  0
   -1.6570   -5.0750    1.4800 H   0  0  0  0  0  0  0  0  0  0  0  0
   -1.0760   -4.0250   -0.7360 H   0  0  0  0  0  0  0  0  0  0  0  0
    0.6510   -4.2330    0.8140 H   0  0  0  0  0  0  0  0  0  0  0  0
   -0.1530   -3.1390    1.9010 H   0  0  0  0  0  0  0  0  0  0  0  0
   -0.9570   -0.9320    0.4770 N   0  0  0  0  0  0  0  0  0  0  0  0
   -1.4300    0.4340    0.2510 C   0  0  1  0  0  0  0  0  0  0  0  0
   -1.6340    1.1440    1.5480 C   0  0  0  0  0  0  0  0  0  0  0  0
   -2.1310    2.5390    1.3550 C   0  0  0  0  0  0  0  0  0  0  0  0
   -2.3750    3.1780    2.7110 C   0  0  0  0  0  0  0  0  0  0  0  0
   -1.1040    3.2140    3.4870 C   0  0  0  0  0  0  0  0  0  0  0  0
   -1.2980    3.8430    4.8010 N   0  0  0  0  0  0  0  0  0  0  0  0
   -0.4150    1.1090   -0.5820 C   0  0  0  0  0  0  0  0  0  0  0  0
   -0.6260    2.2900   -1.0320 O   0  0  0  0  0  0  0  0  0  0  0  0
   -0.0910   -1.0880    1.0230 H   0  0  0  0  0  0  0  0  0  0  0  0
   -2.3950    0.4240   -0.3010 H   0  0  0  0  0  0  0  0  0  0  0  0
   -0.6590    1.1000    2.0900 H   0  0  0  0  0  0  0  0  0  0  0  0
   -2.4280    0.6280    2.1680 H   0  0  0  0  0  0  0  0  0  0  0  0
   -1.4450    3.2060    0.7850 H   0  0  0  0  0  0  0  0  0  0  0  0
   -3.1300    2.4700    0.8700 H   0  0  0  0  0  0  0  0  0  0  0  0
   -2.7680    4.2040    2.6240 H   0  0  0  0  0  0  0  0  0  0  0  0
   -3.1130    2.5700    3.2900 H   0  0  0  0  0  0  0  0  0  0  0  0
   -0.2940    3.7490    2.9900 H   0  0  0  0  0  0  0  0  0  0  0  0
   -0.7360    2.1940    3.7360 H   0  0  0  0  0  0  0  0  0  0  0  0
   -0.8240    4.7580    4.8560 H   0  0  0  0  0  0  0  0  0  0  0  0
   -2.3120    3.8800    5.0190 H   0  0  0  0  0  0  0  0  0  0  0  0
    2.2370   -3.2590   -1.4390 N   0  0  0  0  0  0  0  0  0  0  0  0
    3.1410   -2.3330   -0.8920 C   0  0  0  0  0  0  0  0  0  0  0  0
    3.3450   -2.2840    0.3750 N   0  0  0  0  0  0  0  0  0  0  0  0
    3.8840   -1.4050   -1.7070 N   0  0  0  0  0  0  0  0  0  0  0  0
    4.6310   -0.3650   -1.0880 C   0  0  0  0  0  0  0  0  0  0  0  0
    3.9300    0.7170   -0.3850 C   0  0  0  0  0  0  0  0  0  0  0  0
    3.0200    1.6270   -1.0690 C   0  0  0  0  0  0  0  0  0  0  0  0
    1.7870    1.1580   -1.7300 C   0  0  2  0  0  0  0  0  0  0  0  0
    0.8230    0.4940   -0.9220 N   0  0  0  0  0  0  0  0  0  0  0  0
    2.0460    0.5220   -3.0410 C   0  0  0  0  0  0  0  0  0  0  0  0
    2.9070    1.0490   -3.7880 O   0  0  0  0  0  0  0  0  0  0  0  0
    1.3980   -0.6130   -3.4960 O   0  0  0  0  0  0  0  0  0  0  0  0
    2.5360   -4.2350   -1.5980 H   0  0  0  0  0  0  0  0  0  0  0  0
    1.2770   -2.9610   -1.6800 H   0  0  0  0  0  0  0  0  0  0  0  0
    2.8340   -2.9370    1.0000 H   0  0  0  0  0  0  0  0  0  0  0  0
    3.8260   -1.5980   -2.7350 H   0  0  0  0  0  0  0  0  0  0  0  0
    5.3910    0.0040   -1.8290 H   0  0  0  0  0  0  0  0  0  0  0  0
    5.2940   -0.8940   -0.3220 H   0  0  0  0  0  0  0  0  0  0  0  0
    4.7360    1.3760    0.1010 H   0  0  0  0  0  0  0  0  0  0  0  0
    3.3990    0.3090    0.5310 H   0  0  0  0  0  0  0  0  0  0  0  0
    2.7060    2.4110   -0.2920 H   0  0  0  0  0  0  0  0  0  0  0  0
    3.5770    2.2610   -1.8230 H   0  0  0  0  0  0  0  0  0  0  0  0
    1.2590    2.1480   -2.0440 H   0  0  0  0  0  0  0  0  0  0  0  0
    0.9880   -0.4650   -0.5530 H   0  0  0  0  0  0  0  0  0  0  0  0
  1  2  1  0  0  0  0
  1 11  1  0  0  0  0
  2  3  2  0  0  0  0
  4  5  1  0  0  0  0
  4  2  1  0  0  0  0
  5 15  1  0  0  0  0
  5 14  1  0  0  0  0
  6 16  1  6  0  0  0
  6  7  1  0  0  0  0
  6  5  1  0  0  0  0
  7 18  1  0  0  0  0
  8  6  1  0  0  0  0
  8 19  1  0  0  0  0
  9  8  2  0  0  0  0
 10  1  1  0  0  0  0
 12  4  1  0  0  0  0
 13  4  1  0  0  0  0
 17  7  1  0  0  0  0
 19 28  1  0  0  0  0
 20 29  1  6  0  0  0
 20 19  1  0  0  0  0
 20 21  1  0  0  0  0
 21 30  1  0  0  0  0
 21 31  1  0  0  0  0
 22 21  1  0  0  0  0
 22 23  1  0  0  0  0
 23 35  1  0  0  0  0
 23 24  1  0  0  0  0
 24 37  1  0  0  0  0
 24 25  1  0  0  0  0
 25 38  1  0  0  0  0
 25 39  1  0  0  0  0
 26 20  1  0  0  0  0
 27 26  2  0  0  0  0
 32 22  1  0  0  0  0
 33 22  1  0  0  0  0
 34 23  1  0  0  0  0
 36 24  1  0  0  0  0
 40 41  1  0  0  0  0
 41 42  2  0  0  0  0
 42 54  1  0  0  0  0
 43 44  1  0  0  0  0
 43 41  1  0  0  0  0
 44 45  1  0  0  0  0
 44 57  1  0  0  0  0
 45 58  1  0  0  0  0
 45 59  1  0  0  0  0
 46 45  1  0  0  0  0
 46 60  1  0  0  0  0
 47 62  1  6  0  0  0
 47 46  1  0  0  0  0
 47 48  1  0  0  0  0
 48 26  1  0  0  0  0
 48 63  1  0  0  0  0
 49 47  1  0  0  0  0
 50 49  2  0  0  0  0
 51 49  1  0  0  0  0
 52 40  1  0  0  0  0
 53 40  1  0  0  0  0
 55 43  1  0  0  0  0
 56 44  1  0  0  0  0
 61 46  1  0  0  0  0
M  END
$$$$
