QKS.pdb
 OpenBabel07022418333D

 51 50  0  0  1  0  0  0  0  0999 V2000
    3.3810   -1.0980    4.1020 N   0  0  0  0  0  0  0  0  0  0  0  0
    3.4230   -0.3010    2.9330 C   0  0  0  0  0  0  0  0  0  0  0  0
    2.4390    0.4180    2.5490 O   0  0  0  0  0  0  0  0  0  0  0  0
    4.6290   -0.2700    2.1060 C   0  0  0  0  0  0  0  0  0  0  0  0
    4.3480    0.0360    0.6930 C   0  0  0  0  0  0  0  0  0  0  0  0
    3.5910   -0.9620   -0.1230 C   0  0  2  0  0  0  0  0  0  0  0  0
    3.4330   -0.3620   -1.4580 N   0  0  0  0  0  0  0  0  0  0  0  0
    2.3450   -1.4080    0.4700 C   0  0  0  0  0  0  0  0  0  0  0  0
    2.3570   -2.2740    1.3800 O   0  0  0  0  0  0  0  0  0  0  0  0
    2.7190   -0.8090    4.8600 H   0  0  0  0  0  0  0  0  0  0  0  0
    3.9950   -1.9210    4.1640 H   0  0  0  0  0  0  0  0  0  0  0  0
    5.2750    0.5750    2.5000 H   0  0  0  0  0  0  0  0  0  0  0  0
    5.2740   -1.1700    2.2510 H   0  0  0  0  0  0  0  0  0  0  0  0
    5.3550    0.2570    0.2030 H   0  0  0  0  0  0  0  0  0  0  0  0
    3.8260    1.0410    0.6690 H   0  0  0  0  0  0  0  0  0  0  0  0
    4.2450   -1.8880   -0.3080 H   0  0  0  0  0  0  0  0  0  0  0  0
    3.0310    0.5920   -1.2790 H   0  0  0  0  0  0  0  0  0  0  0  0
    4.4020   -0.2110   -1.8100 H   0  0  0  0  0  0  0  0  0  0  0  0
    1.0280   -0.9210    0.0860 N   0  0  0  0  0  0  0  0  0  0  0  0
   -0.1550   -1.4020    0.7010 C   0  0  1  0  0  0  0  0  0  0  0  0
   -0.8590   -0.5960    1.7080 C   0  0  0  0  0  0  0  0  0  0  0  0
   -1.4120    0.7290    1.4090 C   0  0  0  0  0  0  0  0  0  0  0  0
   -0.4880    1.8110    1.0080 C   0  0  0  0  0  0  0  0  0  0  0  0
   -1.2210    3.1340    0.7750 C   0  0  0  0  0  0  0  0  0  0  0  0
   -2.2050    3.0310   -0.2560 N   0  0  0  0  0  0  0  0  0  0  0  0
   -1.0810   -1.9070   -0.3770 C   0  0  0  0  0  0  0  0  0  0  0  0
   -0.7480   -1.8560   -1.5960 O   0  0  0  0  0  0  0  0  0  0  0  0
    1.0800   -0.2280   -0.6890 H   0  0  0  0  0  0  0  0  0  0  0  0
    0.1060   -2.3820    1.2650 H   0  0  0  0  0  0  0  0  0  0  0  0
   -0.1530   -0.4410    2.6050 H   0  0  0  0  0  0  0  0  0  0  0  0
   -1.6450   -1.2710    2.2120 H   0  0  0  0  0  0  0  0  0  0  0  0
   -1.9330    1.0810    2.3630 H   0  0  0  0  0  0  0  0  0  0  0  0
   -2.3080    0.6600    0.6960 H   0  0  0  0  0  0  0  0  0  0  0  0
    0.2100    2.0070    1.8480 H   0  0  0  0  0  0  0  0  0  0  0  0
    0.0440    1.5420    0.0820 H   0  0  0  0  0  0  0  0  0  0  0  0
   -1.6530    3.4950    1.7270 H   0  0  0  0  0  0  0  0  0  0  0  0
   -0.4430    3.8610    0.4590 H   0  0  0  0  0  0  0  0  0  0  0  0
   -1.8060    3.3600   -1.1620 H   0  0  0  0  0  0  0  0  0  0  0  0
   -3.0020    3.6620   -0.0050 H   0  0  0  0  0  0  0  0  0  0  0  0
   -3.9140   -4.7550    0.3220 O   0  0  0  0  0  0  0  0  0  0  0  0
   -3.3940   -4.4630   -0.9410 C   0  0  0  0  0  0  0  0  0  0  0  0
   -3.2540   -2.9470   -1.1080 C   0  0  2  0  0  0  0  0  0  0  0  0
   -2.3570   -2.4580   -0.0790 N   0  0  0  0  0  0  0  0  0  0  0  0
   -4.5710   -2.3200   -1.0650 C   0  0  0  0  0  0  0  0  0  0  0  0
   -5.4510   -2.6400   -1.8890 O   0  0  0  0  0  0  0  0  0  0  0  0
   -4.8590   -1.3670   -0.1110 O   0  0  0  0  0  0  0  0  0  0  0  0
   -4.9040   -4.8100    0.2610 H   0  0  0  0  0  0  0  0  0  0  0  0
   -4.0240   -4.8990   -1.7190 H   0  0  0  0  0  0  0  0  0  0  0  0
   -2.3700   -4.9040   -0.9980 H   0  0  0  0  0  0  0  0  0  0  0  0
   -2.7530   -2.8020   -2.1060 H   0  0  0  0  0  0  0  0  0  0  0  0
   -2.6340   -2.5020    0.9260 H   0  0  0  0  0  0  0  0  0  0  0  0
  1 11  1  0  0  0  0
  1 10  1  0  0  0  0
  2  1  1  0  0  0  0
  3  2  2  0  0  0  0
  4 13  1  0  0  0  0
  4 12  1  0  0  0  0
  4  2  1  0  0  0  0
  5  4  1  0  0  0  0
  6 16  1  6  0  0  0
  6  8  1  0  0  0  0
  6  5  1  0  0  0  0
  7 17  1  0  0  0  0
  7  6  1  0  0  0  0
  8  9  2  0  0  0  0
 14  5  1  0  0  0  0
 15  5  1  0  0  0  0
 18  7  1  0  0  0  0
 19  8  1  0  0  0  0
 19 20  1  0  0  0  0
 20 29  1  1  0  0  0
 20 21  1  0  0  0  0
 21 31  1  0  0  0  0
 21 30  1  0  0  0  0
 22 21  1  0  0  0  0
 22 32  1  0  0  0  0
 23 22  1  0  0  0  0
 23 34  1  0  0  0  0
 24 23  1  0  0  0  0
 24 36  1  0  0  0  0
 25 39  1  0  0  0  0
 25 24  1  0  0  0  0
 26 43  1  0  0  0  0
 26 20  1  0  0  0  0
 27 26  2  0  0  0  0
 28 19  1  0  0  0  0
 33 22  1  0  0  0  0
 35 23  1  0  0  0  0
 37 24  1  0  0  0  0
 38 25  1  0  0  0  0
 41 40  1  0  0  0  0
 42 50  1  6  0  0  0
 42 44  1  0  0  0  0
 42 41  1  0  0  0  0
 42 43  1  0  0  0  0
 43 51  1  0  0  0  0
 44 46  1  0  0  0  0
 45 44  2  0  0  0  0
 47 40  1  0  0  0  0
 48 41  1  0  0  0  0
 49 41  1  0  0  0  0
M  END
$$$$
