QKV.pdb
 OpenBabel07022418333D

 56 55  0  0  1  0  0  0  0  0999 V2000
    5.5140   -4.9110    2.3780 N   0  0  0  0  0  0  0  0  0  0  0  0
    4.9270   -4.3130    1.2330 C   0  0  0  0  0  0  0  0  0  0  0  0
    5.6070   -3.8880    0.2780 O   0  0  0  0  0  0  0  0  0  0  0  0
    3.4290   -4.1640    1.1190 C   0  0  0  0  0  0  0  0  0  0  0  0
    3.0710   -3.5080   -0.1820 C   0  0  0  0  0  0  0  0  0  0  0  0
    1.5880   -3.3410   -0.3950 C   0  0  2  0  0  0  0  0  0  0  0  0
    1.3420   -2.7000   -1.6930 N   0  0  0  0  0  0  0  0  0  0  0  0
    1.0630   -2.4600    0.6940 C   0  0  0  0  0  0  0  0  0  0  0  0
    1.0270   -2.8510    1.8860 O   0  0  0  0  0  0  0  0  0  0  0  0
    6.2520   -5.6480    2.3360 H   0  0  0  0  0  0  0  0  0  0  0  0
    5.2030   -4.6080    3.3270 H   0  0  0  0  0  0  0  0  0  0  0  0
    3.1750   -3.5130    1.9970 H   0  0  0  0  0  0  0  0  0  0  0  0
    2.9670   -5.1670    1.2330 H   0  0  0  0  0  0  0  0  0  0  0  0
    3.5590   -4.0190   -1.0410 H   0  0  0  0  0  0  0  0  0  0  0  0
    3.5570   -2.4930   -0.1520 H   0  0  0  0  0  0  0  0  0  0  0  0
    1.1290   -4.3260   -0.4330 H   0  0  0  0  0  0  0  0  0  0  0  0
    2.1960   -2.1990   -2.0370 H   0  0  0  0  0  0  0  0  0  0  0  0
    0.9980   -3.3980   -2.3940 H   0  0  0  0  0  0  0  0  0  0  0  0
    0.5840   -1.1580    0.4530 N   0  0  0  0  0  0  0  0  0  0  0  0
    0.0580   -0.2790    1.5490 C   0  0  1  0  0  0  0  0  0  0  0  0
    0.8690    0.9350    1.6230 C   0  0  0  0  0  0  0  0  0  0  0  0
    0.7210    2.0160    2.5590 C   0  0  0  0  0  0  0  0  0  0  0  0
   -0.4160    2.9180    2.6890 C   0  0  0  0  0  0  0  0  0  0  0  0
   -0.7410    3.7710    1.4850 C   0  0  0  0  0  0  0  0  0  0  0  0
   -1.0340    2.9660    0.3590 N   0  0  0  0  0  0  0  0  0  0  0  0
   -1.3560   -0.1400    1.2120 C   0  0  0  0  0  0  0  0  0  0  0  0
   -2.1390    0.5090    1.9340 O   0  0  0  0  0  0  0  0  0  0  0  0
    0.5960   -0.7820   -0.5120 H   0  0  0  0  0  0  0  0  0  0  0  0
    0.2190   -0.8970    2.4690 H   0  0  0  0  0  0  0  0  0  0  0  0
    1.9610    0.5650    1.7260 H   0  0  0  0  0  0  0  0  0  0  0  0
    0.8950    1.3760    0.5560 H   0  0  0  0  0  0  0  0  0  0  0  0
    1.6310    2.7140    2.3740 H   0  0  0  0  0  0  0  0  0  0  0  0
    1.0240    1.6530    3.6210 H   0  0  0  0  0  0  0  0  0  0  0  0
   -1.3360    2.6000    3.1600 H   0  0  0  0  0  0  0  0  0  0  0  0
   -0.0450    3.7320    3.4520 H   0  0  0  0  0  0  0  0  0  0  0  0
    0.0530    4.5270    1.3110 H   0  0  0  0  0  0  0  0  0  0  0  0
   -1.6640    4.3810    1.7120 H   0  0  0  0  0  0  0  0  0  0  0  0
   -2.0360    2.6930    0.2680 H   0  0  0  0  0  0  0  0  0  0  0  0
   -0.5560    3.1870   -0.5170 H   0  0  0  0  0  0  0  0  0  0  0  0
   -3.0780   -1.0760   -2.7140 C   0  0  0  0  0  0  0  0  0  0  0  0
   -3.6050   -0.1320   -1.6580 C   0  0  0  0  0  0  0  0  0  0  0  0
   -3.1690    1.2640   -1.9460 C   0  0  0  0  0  0  0  0  0  0  0  0
   -3.3280   -0.5880   -0.2700 C   0  0  2  0  0  0  0  0  0  0  0  0
   -1.9260   -0.7390    0.0400 N   0  0  0  0  0  0  0  0  0  0  0  0
   -4.0720   -1.8620   -0.0110 C   0  0  0  0  0  0  0  0  0  0  0  0
   -5.3080   -1.8960   -0.2330 O   0  0  0  0  0  0  0  0  0  0  0  0
   -3.4670   -3.0100    0.4630 O   0  0  0  0  0  0  0  0  0  0  0  0
   -3.8430   -1.8380   -3.0150 H   0  0  0  0  0  0  0  0  0  0  0  0
   -2.1700   -1.6140   -2.4340 H   0  0  0  0  0  0  0  0  0  0  0  0
   -2.8920   -0.4810   -3.6400 H   0  0  0  0  0  0  0  0  0  0  0  0
   -4.7280   -0.1490   -1.7830 H   0  0  0  0  0  0  0  0  0  0  0  0
   -3.3940    1.4950   -3.0080 H   0  0  0  0  0  0  0  0  0  0  0  0
   -3.7180    1.9790   -1.2920 H   0  0  0  0  0  0  0  0  0  0  0  0
   -2.0950    1.4180   -1.7910 H   0  0  0  0  0  0  0  0  0  0  0  0
   -3.7570    0.1410    0.4430 H   0  0  0  0  0  0  0  0  0  0  0  0
   -1.3490   -1.2900   -0.6010 H   0  0  0  0  0  0  0  0  0  0  0  0
  1 11  1  0  0  0  0
  2  1  1  0  0  0  0
  3  2  2  0  0  0  0
  4  2  1  0  0  0  0
  4 13  1  0  0  0  0
  4 12  1  0  0  0  0
  5 15  1  0  0  0  0
  5  4  1  0  0  0  0
  6 16  1  1  0  0  0
  6  5  1  0  0  0  0
  6  8  1  0  0  0  0
  7  6  1  0  0  0  0
  8  9  2  0  0  0  0
 10  1  1  0  0  0  0
 14  5  1  0  0  0  0
 17  7  1  0  0  0  0
 18  7  1  0  0  0  0
 19  8  1  0  0  0  0
 19 20  1  0  0  0  0
 20 21  1  0  0  0  0
 20 29  1  1  0  0  0
 21 30  1  0  0  0  0
 21 22  1  0  0  0  0
 22 23  1  0  0  0  0
 22 33  1  0  0  0  0
 23 34  1  0  0  0  0
 23 35  1  0  0  0  0
 24 37  1  0  0  0  0
 24 23  1  0  0  0  0
 25 24  1  0  0  0  0
 26 20  1  0  0  0  0
 26 27  2  0  0  0  0
 28 19  1  0  0  0  0
 31 21  1  0  0  0  0
 32 22  1  0  0  0  0
 36 24  1  0  0  0  0
 38 25  1  0  0  0  0
 39 25  1  0  0  0  0
 40 49  1  0  0  0  0
 40 41  1  0  0  0  0
 41 43  1  0  0  0  0
 42 54  1  0  0  0  0
 42 41  1  0  0  0  0
 42 53  1  0  0  0  0
 43 45  1  0  0  0  0
 43 44  1  0  0  0  0
 43 55  1  1  0  0  0
 44 26  1  0  0  0  0
 45 47  1  0  0  0  0
 46 45  2  0  0  0  0
 48 40  1  0  0  0  0
 50 40  1  0  0  0  0
 51 41  1  0  0  0  0
 52 42  1  0  0  0  0
 56 44  1  0  0  0  0
M  END
$$$$
