QLD.pdb
 OpenBabel07022418323D

 51 50  0  0  1  0  0  0  0  0999 V2000
    4.3550   -2.1820    3.0510 N   0  0  0  0  0  0  0  0  0  0  0  0
    4.0690   -1.6370    1.7700 C   0  0  0  0  0  0  0  0  0  0  0  0
    3.5660   -0.4660    1.7530 O   0  0  0  0  0  0  0  0  0  0  0  0
    4.3340   -2.3570    0.5140 C   0  0  0  0  0  0  0  0  0  0  0  0
    3.4450   -2.0610   -0.6290 C   0  0  0  0  0  0  0  0  0  0  0  0
    2.0140   -2.4770   -0.5040 C   0  0  2  0  0  0  0  0  0  0  0  0
    1.3950   -2.0300   -1.7840 N   0  0  0  0  0  0  0  0  0  0  0  0
    1.2130   -1.8620    0.5470 C   0  0  0  0  0  0  0  0  0  0  0  0
    1.2870   -2.2880    1.7230 O   0  0  0  0  0  0  0  0  0  0  0  0
    4.7030   -3.1820    3.0660 H   0  0  0  0  0  0  0  0  0  0  0  0
    4.2430   -1.6640    3.9280 H   0  0  0  0  0  0  0  0  0  0  0  0
    5.4010   -2.1470    0.1820 H   0  0  0  0  0  0  0  0  0  0  0  0
    4.3750   -3.4770    0.7080 H   0  0  0  0  0  0  0  0  0  0  0  0
    3.4620   -0.9720   -0.9190 H   0  0  0  0  0  0  0  0  0  0  0  0
    3.9260   -2.5510   -1.5370 H   0  0  0  0  0  0  0  0  0  0  0  0
    1.9490   -3.6080   -0.4750 H   0  0  0  0  0  0  0  0  0  0  0  0
    0.3800   -2.1730   -1.7550 H   0  0  0  0  0  0  0  0  0  0  0  0
    1.6720   -1.0680   -2.0030 H   0  0  0  0  0  0  0  0  0  0  0  0
    0.8960    3.3600    1.9010 C   0  0  0  0  0  0  0  0  0  0  0  0
    0.9890    1.8300    1.8130 C   0  0  0  0  0  0  0  0  0  0  0  0
    1.3590    1.3780    3.2210 C   0  0  0  0  0  0  0  0  0  0  0  0
   -0.3760    1.3360    1.4450 C   0  0  0  0  0  0  0  0  0  0  0  0
   -0.4960   -0.1380    1.3070 C   0  0  2  0  0  0  0  0  0  0  0  0
    0.3130   -0.7710    0.3280 N   0  0  0  0  0  0  0  0  0  0  0  0
   -1.9510   -0.4610    1.1180 C   0  0  0  0  0  0  0  0  0  0  0  0
   -2.8290   -0.0100    1.8760 O   0  0  0  0  0  0  0  0  0  0  0  0
    0.8890    3.7230    2.9380 H   0  0  0  0  0  0  0  0  0  0  0  0
    1.7290    3.7650    1.3090 H   0  0  0  0  0  0  0  0  0  0  0  0
   -0.0420    3.7300    1.4230 H   0  0  0  0  0  0  0  0  0  0  0  0
    1.7880    1.5200    1.1440 H   0  0  0  0  0  0  0  0  0  0  0  0
    0.7390    1.9660    3.9160 H   0  0  0  0  0  0  0  0  0  0  0  0
    1.2640    0.2900    3.3440 H   0  0  0  0  0  0  0  0  0  0  0  0
    2.4250    1.6980    3.4010 H   0  0  0  0  0  0  0  0  0  0  0  0
   -1.0500    1.6260    2.3070 H   0  0  0  0  0  0  0  0  0  0  0  0
   -0.8120    1.8980    0.5810 H   0  0  0  0  0  0  0  0  0  0  0  0
   -0.2540   -0.5950    2.3040 H   0  0  0  0  0  0  0  0  0  0  0  0
    0.2680   -0.4230   -0.6690 H   0  0  0  0  0  0  0  0  0  0  0  0
   -2.3880   -1.3010    0.0560 N   0  0  0  0  0  0  0  0  0  0  0  0
   -3.7430   -1.6520   -0.1900 C   0  0  1  0  0  0  0  0  0  0  0  0
   -4.2740   -1.2100   -1.5280 C   0  0  0  0  0  0  0  0  0  0  0  0
   -4.2070    0.2520   -1.6730 C   0  0  0  0  0  0  0  0  0  0  0  0
   -3.1290    0.7910   -1.9830 O   0  0  0  0  0  0  0  0  0  0  0  0
   -3.9990   -3.1120   -0.0840 C   0  0  0  0  0  0  0  0  0  0  0  0
   -3.0900   -3.9320    0.1980 O   0  0  0  0  0  0  0  0  0  0  0  0
   -5.3210    1.0290   -1.4680 O   0  0  0  0  0  0  0  0  0  0  0  0
   -5.2730   -3.6150   -0.2980 O   0  0  0  0  0  0  0  0  0  0  0  0
   -1.6490   -1.6780   -0.5780 H   0  0  0  0  0  0  0  0  0  0  0  0
   -4.3780   -1.1620    0.5790 H   0  0  0  0  0  0  0  0  0  0  0  0
   -5.3480   -1.5000   -1.5500 H   0  0  0  0  0  0  0  0  0  0  0  0
   -3.8150   -1.7560   -2.3750 H   0  0  0  0  0  0  0  0  0  0  0  0
   -5.2660    2.0120   -1.1560 H   0  0  0  0  0  0  0  0  0  0  0  0
  1 10  1  0  0  0  0
  1 11  1  0  0  0  0
  2  1  1  0  0  0  0
  3  2  2  0  0  0  0
  4 13  1  0  0  0  0
  4  2  1  0  0  0  0
  5  6  1  0  0  0  0
  5  4  1  0  0  0  0
  6 16  1  1  0  0  0
  6  8  1  0  0  0  0
  7 17  1  0  0  0  0
  7  6  1  0  0  0  0
  8  9  2  0  0  0  0
 12  4  1  0  0  0  0
 14  5  1  0  0  0  0
 15  5  1  0  0  0  0
 18  7  1  0  0  0  0
 19 27  1  0  0  0  0
 20 19  1  0  0  0  0
 20 21  1  0  0  0  0
 21 32  1  0  0  0  0
 21 33  1  0  0  0  0
 21 31  1  0  0  0  0
 22 20  1  0  0  0  0
 22 34  1  0  0  0  0
 23 22  1  0  0  0  0
 23 36  1  1  0  0  0
 24  8  1  0  0  0  0
 24 23  1  0  0  0  0
 25 23  1  0  0  0  0
 25 26  2  0  0  0  0
 28 19  1  0  0  0  0
 29 19  1  0  0  0  0
 30 20  1  0  0  0  0
 35 22  1  0  0  0  0
 37 24  1  0  0  0  0
 38 25  1  0  0  0  0
 39 43  1  0  0  0  0
 39 38  1  0  0  0  0
 39 48  1  1  0  0  0
 40 39  1  0  0  0  0
 41 40  1  0  0  0  0
 41 45  1  0  0  0  0
 42 41  2  0  0  0  0
 43 44  1  0  0  0  0
 45 51  1  0  0  0  0
 46 43  2  0  0  0  0
 47 38  1  0  0  0  0
 49 40  1  0  0  0  0
 50 40  1  0  0  0  0
M  END
$$$$
