QLG.pdb
 OpenBabel07022418323D

 45 44  0  0  1  0  0  0  0  0999 V2000
    2.6020   -6.5140    2.5650 N   0  0  0  0  0  0  0  0  0  0  0  0
    2.3590   -5.1270    2.7250 C   0  0  0  0  0  0  0  0  0  0  0  0
    3.1450   -4.4560    3.4100 O   0  0  0  0  0  0  0  0  0  0  0  0
    1.1910   -4.5240    2.0840 C   0  0  0  0  0  0  0  0  0  0  0  0
    1.1580   -3.0450    1.9740 C   0  0  0  0  0  0  0  0  0  0  0  0
    2.2150   -2.4090    1.1480 C   0  0  2  0  0  0  0  0  0  0  0  0
    3.5430   -2.6730    1.6300 N   0  0  0  0  0  0  0  0  0  0  0  0
    2.0290   -0.9300    1.0230 C   0  0  0  0  0  0  0  0  0  0  0  0
    2.9640   -0.1440    1.3250 O   0  0  0  0  0  0  0  0  0  0  0  0
    1.7410   -7.1360    2.6260 H   0  0  0  0  0  0  0  0  0  0  0  0
    3.5510   -6.9220    2.3990 H   0  0  0  0  0  0  0  0  0  0  0  0
    0.2370   -4.9270    2.5270 H   0  0  0  0  0  0  0  0  0  0  0  0
    1.1720   -4.9540    1.0310 H   0  0  0  0  0  0  0  0  0  0  0  0
    1.1350   -2.5780    3.0070 H   0  0  0  0  0  0  0  0  0  0  0  0
    0.1600   -2.7210    1.5480 H   0  0  0  0  0  0  0  0  0  0  0  0
    2.1600   -2.8930    0.1360 H   0  0  0  0  0  0  0  0  0  0  0  0
    4.1390   -3.2070    0.9810 H   0  0  0  0  0  0  0  0  0  0  0  0
    4.0730   -1.7850    1.8610 H   0  0  0  0  0  0  0  0  0  0  0  0
   -0.6090    1.5630   -3.1880 C   0  0  0  0  0  0  0  0  0  0  0  0
   -0.6960    0.9040   -1.8000 C   0  0  0  0  0  0  0  0  0  0  0  0
   -2.0970    1.0400   -1.3500 C   0  0  0  0  0  0  0  0  0  0  0  0
    0.3750    1.4860   -0.9780 C   0  0  0  0  0  0  0  0  0  0  0  0
    0.5470    1.0450    0.4150 C   0  0  2  0  0  0  0  0  0  0  0  0
    0.8050   -0.3710    0.5640 N   0  0  0  0  0  0  0  0  0  0  0  0
   -0.4140    1.4860    1.4140 C   0  0  0  0  0  0  0  0  0  0  0  0
   -0.8460    0.6240    2.2470 O   0  0  0  0  0  0  0  0  0  0  0  0
    0.0920    1.0180   -3.8420 H   0  0  0  0  0  0  0  0  0  0  0  0
   -0.2960    2.6120   -3.1060 H   0  0  0  0  0  0  0  0  0  0  0  0
   -1.6000    1.5500   -3.6910 H   0  0  0  0  0  0  0  0  0  0  0  0
   -0.5020   -0.1870   -1.9870 H   0  0  0  0  0  0  0  0  0  0  0  0
   -2.4590    0.1990   -0.7190 H   0  0  0  0  0  0  0  0  0  0  0  0
   -2.7570    1.0110   -2.2550 H   0  0  0  0  0  0  0  0  0  0  0  0
   -2.3130    2.0390   -0.8820 H   0  0  0  0  0  0  0  0  0  0  0  0
    0.3800    2.6080   -0.9800 H   0  0  0  0  0  0  0  0  0  0  0  0
    1.3460    1.2390   -1.5100 H   0  0  0  0  0  0  0  0  0  0  0  0
    1.5420    1.5210    0.7520 H   0  0  0  0  0  0  0  0  0  0  0  0
    0.0580   -1.0920    0.3260 H   0  0  0  0  0  0  0  0  0  0  0  0
   -0.9220    2.7840    1.5620 N   0  0  0  0  0  0  0  0  0  0  0  0
   -1.8570    3.1150    2.5980 C   0  0  0  0  0  0  0  0  0  0  0  0
   -3.1030    2.3590    2.5580 C   0  0  0  0  0  0  0  0  0  0  0  0
   -4.0050    2.5710    3.4030 O   0  0  0  0  0  0  0  0  0  0  0  0
   -3.3170    1.3980    1.5950 O   0  0  0  0  0  0  0  0  0  0  0  0
   -0.6100    3.5180    0.9020 H   0  0  0  0  0  0  0  0  0  0  0  0
   -1.3250    2.9590    3.5820 H   0  0  0  0  0  0  0  0  0  0  0  0
   -2.0680    4.2230    2.6010 H   0  0  0  0  0  0  0  0  0  0  0  0
  1 10  1  0  0  0  0
  1  2  1  0  0  0  0
  2  3  2  0  0  0  0
  4 12  1  0  0  0  0
  4  2  1  0  0  0  0
  5  4  1  0  0  0  0
  5 14  1  0  0  0  0
  6 16  1  6  0  0  0
  6  7  1  0  0  0  0
  6  5  1  0  0  0  0
  7 18  1  0  0  0  0
  8  6  1  0  0  0  0
  8  9  2  0  0  0  0
 11  1  1  0  0  0  0
 13  4  1  0  0  0  0
 15  5  1  0  0  0  0
 17  7  1  0  0  0  0
 19 28  1  0  0  0  0
 19 20  1  0  0  0  0
 20 21  1  0  0  0  0
 20 22  1  0  0  0  0
 21 33  1  0  0  0  0
 21 31  1  0  0  0  0
 22 23  1  0  0  0  0
 23 24  1  0  0  0  0
 23 36  1  1  0  0  0
 23 25  1  0  0  0  0
 24  8  1  0  0  0  0
 25 38  1  0  0  0  0
 25 26  2  0  0  0  0
 27 19  1  0  0  0  0
 29 19  1  0  0  0  0
 30 20  1  0  0  0  0
 32 21  1  0  0  0  0
 34 22  1  0  0  0  0
 35 22  1  0  0  0  0
 37 24  1  0  0  0  0
 38 39  1  0  0  0  0
 39 45  1  0  0  0  0
 39 44  1  0  0  0  0
 40 39  1  0  0  0  0
 40 41  1  0  0  0  0
 42 40  2  0  0  0  0
 43 38  1  0  0  0  0
M  END
$$$$
