QLH.pdb
 OpenBabel07022418323D

 55 55  0  0  1  0  0  0  0  0999 V2000
    2.2390   -4.8690    2.9280 N   0  0  0  0  0  0  0  0  0  0  0  0
    2.8850   -3.8720    2.1400 C   0  0  0  0  0  0  0  0  0  0  0  0
    4.0570   -3.5860    2.4520 O   0  0  0  0  0  0  0  0  0  0  0  0
    2.1910   -3.2440    1.0360 C   0  0  0  0  0  0  0  0  0  0  0  0
    2.7900   -2.0340    0.4270 C   0  0  0  0  0  0  0  0  0  0  0  0
    2.9440   -0.8340    1.2790 C   0  0  2  0  0  0  0  0  0  0  0  0
    3.7690   -1.0320    2.4170 N   0  0  0  0  0  0  0  0  0  0  0  0
    1.6430   -0.2290    1.6750 C   0  0  0  0  0  0  0  0  0  0  0  0
    1.4650    0.0080    2.8930 O   0  0  0  0  0  0  0  0  0  0  0  0
    2.7600   -5.7410    3.1170 H   0  0  0  0  0  0  0  0  0  0  0  0
    1.2670   -4.6790    3.2830 H   0  0  0  0  0  0  0  0  0  0  0  0
    1.1570   -2.9500    1.3980 H   0  0  0  0  0  0  0  0  0  0  0  0
    1.9520   -3.9840    0.2060 H   0  0  0  0  0  0  0  0  0  0  0  0
    2.2770   -1.7710   -0.5340 H   0  0  0  0  0  0  0  0  0  0  0  0
    3.8380   -2.3270    0.1050 H   0  0  0  0  0  0  0  0  0  0  0  0
    3.4360   -0.0480    0.6340 H   0  0  0  0  0  0  0  0  0  0  0  0
    4.7290   -0.6510    2.2770 H   0  0  0  0  0  0  0  0  0  0  0  0
    3.3640   -0.7060    3.3080 H   0  0  0  0  0  0  0  0  0  0  0  0
    0.2490    3.1860    2.2620 C   0  0  0  0  0  0  0  0  0  0  0  0
    0.2060    2.9510    0.7870 C   0  0  0  0  0  0  0  0  0  0  0  0
   -0.0260    4.2550    0.0350 C   0  0  0  0  0  0  0  0  0  0  0  0
   -0.8970    1.9790    0.4720 C   0  0  0  0  0  0  0  0  0  0  0  0
   -0.6360    0.6730    1.1790 C   0  0  2  0  0  0  0  0  0  0  0  0
    0.6220    0.0840    0.7660 N   0  0  0  0  0  0  0  0  0  0  0  0
   -1.7290   -0.2940    0.8750 C   0  0  0  0  0  0  0  0  0  0  0  0
   -2.9200    0.0390    1.1630 O   0  0  0  0  0  0  0  0  0  0  0  0
    0.2460    4.2990    2.4550 H   0  0  0  0  0  0  0  0  0  0  0  0
   -0.6880    2.8130    2.7470 H   0  0  0  0  0  0  0  0  0  0  0  0
    1.1520    2.7250    2.6980 H   0  0  0  0  0  0  0  0  0  0  0  0
    1.1970    2.5870    0.4520 H   0  0  0  0  0  0  0  0  0  0  0  0
   -0.8740    4.8000    0.4750 H   0  0  0  0  0  0  0  0  0  0  0  0
    0.9190    4.8310    0.0830 H   0  0  0  0  0  0  0  0  0  0  0  0
   -0.2910    3.9840   -0.9980 H   0  0  0  0  0  0  0  0  0  0  0  0
   -0.9990    1.8200   -0.6390 H   0  0  0  0  0  0  0  0  0  0  0  0
   -1.8780    2.3430    0.8050 H   0  0  0  0  0  0  0  0  0  0  0  0
   -0.6120    0.8400    2.2630 H   0  0  0  0  0  0  0  0  0  0  0  0
    0.7810   -0.1190   -0.2460 H   0  0  0  0  0  0  0  0  0  0  0  0
   -1.4690   -1.5540    0.2820 N   0  0  0  0  0  0  0  0  0  0  0  0
   -2.5450   -2.4580    0.0040 C   0  0  1  0  0  0  0  0  0  0  0  0
   -2.6220   -2.8720   -1.4290 C   0  0  0  0  0  0  0  0  0  0  0  0
   -2.8200   -1.6800   -2.2940 C   0  0  0  0  0  0  0  0  0  0  0  0
   -2.9270   -1.7630   -3.6770 C   0  0  0  0  0  0  0  0  0  0  0  0
   -3.0940   -0.5150   -4.1120 N   0  0  0  0  0  0  0  0  0  0  0  0
   -3.0970    0.3490   -3.0660 C   0  0  0  0  0  0  0  0  0  0  0  0
   -2.9270   -0.3830   -1.9570 N   0  0  0  0  0  0  0  0  0  0  0  0
   -2.4220   -3.6930    0.8450 C   0  0  0  0  0  0  0  0  0  0  0  0
   -3.2840   -4.6040    0.7360 O   0  0  0  0  0  0  0  0  0  0  0  0
   -1.4020   -3.8890    1.7470 O   0  0  0  0  0  0  0  0  0  0  0  0
   -0.4950   -1.8500    0.0370 H   0  0  0  0  0  0  0  0  0  0  0  0
   -3.5260   -2.0030    0.3120 H   0  0  0  0  0  0  0  0  0  0  0  0
   -3.4520   -3.5910   -1.5540 H   0  0  0  0  0  0  0  0  0  0  0  0
   -1.6350   -3.3280   -1.6970 H   0  0  0  0  0  0  0  0  0  0  0  0
   -2.8840   -2.6570   -4.2730 H   0  0  0  0  0  0  0  0  0  0  0  0
   -3.2100   -0.2050   -5.1090 H   0  0  0  0  0  0  0  0  0  0  0  0
   -3.2160    1.4230   -3.1500 H   0  0  0  0  0  0  0  0  0  0  0  0
  1 10  1  0  0  0  0
  1 11  1  0  0  0  0
  2  3  2  0  0  0  0
  2  1  1  0  0  0  0
  4 12  1  0  0  0  0
  4  2  1  0  0  0  0
  5  4  1  0  0  0  0
  5  6  1  0  0  0  0
  6 16  1  6  0  0  0
  6  8  1  0  0  0  0
  6  7  1  0  0  0  0
  7 18  1  0  0  0  0
  8  9  2  0  0  0  0
 13  4  1  0  0  0  0
 14  5  1  0  0  0  0
 15  5  1  0  0  0  0
 17  7  1  0  0  0  0
 19 27  1  0  0  0  0
 19 29  1  0  0  0  0
 19 28  1  0  0  0  0
 20 19  1  0  0  0  0
 21 32  1  0  0  0  0
 21 31  1  0  0  0  0
 21 20  1  0  0  0  0
 22 20  1  0  0  0  0
 22 35  1  0  0  0  0
 22 23  1  0  0  0  0
 23 36  1  1  0  0  0
 24 23  1  0  0  0  0
 24  8  1  0  0  0  0
 25 26  2  0  0  0  0
 25 23  1  0  0  0  0
 30 20  1  0  0  0  0
 33 21  1  0  0  0  0
 34 22  1  0  0  0  0
 37 24  1  0  0  0  0
 38 25  1  0  0  0  0
 39 38  1  0  0  0  0
 39 50  1  1  0  0  0
 39 46  1  0  0  0  0
 40 39  1  0  0  0  0
 41 45  1  0  0  0  0
 41 40  1  0  0  0  0
 42 41  2  0  0  0  0
 43 42  1  0  0  0  0
 43 44  1  0  0  0  0
 44 45  2  0  0  0  0
 46 48  1  0  0  0  0
 47 46  2  0  0  0  0
 49 38  1  0  0  0  0
 51 40  1  0  0  0  0
 52 40  1  0  0  0  0
 53 42  1  0  0  0  0
 54 43  1  0  0  0  0
 55 44  1  0  0  0  0
M  END
$$$$
