QLI.pdb
 OpenBabel07022418323D

 57 56  0  0  1  0  0  0  0  0999 V2000
    3.7560   -3.1670    5.6720 N   0  0  0  0  0  0  0  0  0  0  0  0
    3.4260   -3.4260    4.3140 C   0  0  0  0  0  0  0  0  0  0  0  0
    4.1800   -3.9730    3.5020 O   0  0  0  0  0  0  0  0  0  0  0  0
    2.0660   -2.9970    3.8570 C   0  0  0  0  0  0  0  0  0  0  0  0
    1.9090   -3.3530    2.4080 C   0  0  0  0  0  0  0  0  0  0  0  0
    0.5410   -2.9740    1.9290 C   0  0  2  0  0  0  0  0  0  0  0  0
    0.4200   -3.3440    0.5100 N   0  0  0  0  0  0  0  0  0  0  0  0
    0.2980   -1.5360    2.1080 C   0  0  0  0  0  0  0  0  0  0  0  0
    0.1510   -0.9250    3.1860 O   0  0  0  0  0  0  0  0  0  0  0  0
    4.6280   -2.6600    5.8890 H   0  0  0  0  0  0  0  0  0  0  0  0
    3.0810   -3.5130    6.4010 H   0  0  0  0  0  0  0  0  0  0  0  0
    1.9770   -1.8870    3.9470 H   0  0  0  0  0  0  0  0  0  0  0  0
    1.2540   -3.4370    4.4530 H   0  0  0  0  0  0  0  0  0  0  0  0
    2.7200   -2.9180    1.7770 H   0  0  0  0  0  0  0  0  0  0  0  0
    2.0320   -4.4720    2.2710 H   0  0  0  0  0  0  0  0  0  0  0  0
   -0.1950   -3.5680    2.4950 H   0  0  0  0  0  0  0  0  0  0  0  0
    1.2400   -3.0270   -0.0240 H   0  0  0  0  0  0  0  0  0  0  0  0
   -0.4940   -3.0250    0.1360 H   0  0  0  0  0  0  0  0  0  0  0  0
    2.9900   -0.1110    1.1920 C   0  0  0  0  0  0  0  0  0  0  0  0
    2.4250    1.2720    1.1750 C   0  0  0  0  0  0  0  0  0  0  0  0
    3.5150    2.1830    0.5850 C   0  0  0  0  0  0  0  0  0  0  0  0
    1.1310    1.4550    0.4660 C   0  0  0  0  0  0  0  0  0  0  0  0
   -0.0240    0.6680    1.0040 C   0  0  2  0  0  0  0  0  0  0  0  0
    0.2130   -0.7190    0.9330 N   0  0  0  0  0  0  0  0  0  0  0  0
   -1.2680    1.0970    0.3010 C   0  0  0  0  0  0  0  0  0  0  0  0
   -1.5360    2.3260    0.3280 O   0  0  0  0  0  0  0  0  0  0  0  0
    4.1080   -0.1070    0.9800 H   0  0  0  0  0  0  0  0  0  0  0  0
    2.9630   -0.4940    2.2570 H   0  0  0  0  0  0  0  0  0  0  0  0
    2.5790   -0.8150    0.4730 H   0  0  0  0  0  0  0  0  0  0  0  0
    2.2790    1.6760    2.2180 H   0  0  0  0  0  0  0  0  0  0  0  0
    3.1930    3.2220    0.5440 H   0  0  0  0  0  0  0  0  0  0  0  0
    4.3980    2.0560    1.2440 H   0  0  0  0  0  0  0  0  0  0  0  0
    3.7770    1.7370   -0.3950 H   0  0  0  0  0  0  0  0  0  0  0  0
    0.8840    2.5520    0.3850 H   0  0  0  0  0  0  0  0  0  0  0  0
    1.3040    1.1380   -0.6100 H   0  0  0  0  0  0  0  0  0  0  0  0
   -0.1110    0.9540    2.0950 H   0  0  0  0  0  0  0  0  0  0  0  0
    0.3180   -1.1600   -0.0300 H   0  0  0  0  0  0  0  0  0  0  0  0
   -3.1880   -1.5000   -4.2410 C   0  0  0  0  0  0  0  0  0  0  0  0
   -3.1180   -1.1680   -2.7820 C   0  0  0  0  0  0  0  0  0  0  0  0
   -3.2890    0.3210   -2.5300 C   0  0  2  0  0  0  0  0  0  0  0  0
   -2.2360    1.1330   -3.2070 C   0  0  0  0  0  0  0  0  0  0  0  0
   -3.3360    0.6240   -1.0550 C   0  0  2  0  0  0  0  0  0  0  0  0
   -2.1320    0.2160   -0.3740 N   0  0  0  0  0  0  0  0  0  0  0  0
   -4.5490   -0.0050   -0.5020 C   0  0  0  0  0  0  0  0  0  0  0  0
   -5.6560    0.2700   -1.0080 O   0  0  0  0  0  0  0  0  0  0  0  0
   -4.4930   -0.8890    0.5620 O   0  0  0  0  0  0  0  0  0  0  0  0
   -3.9260   -0.8820   -4.7940 H   0  0  0  0  0  0  0  0  0  0  0  0
   -2.2200   -1.3940   -4.7720 H   0  0  0  0  0  0  0  0  0  0  0  0
   -3.5070   -2.5740   -4.3440 H   0  0  0  0  0  0  0  0  0  0  0  0
   -2.0790   -1.4140   -2.4400 H   0  0  0  0  0  0  0  0  0  0  0  0
   -3.8210   -1.7490   -2.1810 H   0  0  0  0  0  0  0  0  0  0  0  0
   -4.3030    0.5780   -2.9360 H   0  0  0  0  0  0  0  0  0  0  0  0
   -2.6330    1.5380   -4.1830 H   0  0  0  0  0  0  0  0  0  0  0  0
   -1.4090    0.4240   -3.4940 H   0  0  0  0  0  0  0  0  0  0  0  0
   -1.8270    1.9420   -2.5660 H   0  0  0  0  0  0  0  0  0  0  0  0
   -3.4750    1.7320   -0.9670 H   0  0  0  0  0  0  0  0  0  0  0  0
   -1.8850   -0.7980   -0.3800 H   0  0  0  0  0  0  0  0  0  0  0  0
  1 10  1  0  0  0  0
  1 11  1  0  0  0  0
  2  1  1  0  0  0  0
  3  2  2  0  0  0  0
  4 12  1  0  0  0  0
  4  2  1  0  0  0  0
  4 13  1  0  0  0  0
  5  4  1  0  0  0  0
  6  8  1  0  0  0  0
  6  5  1  0  0  0  0
  6 16  1  1  0  0  0
  7  6  1  0  0  0  0
  8  9  2  0  0  0  0
 14  5  1  0  0  0  0
 15  5  1  0  0  0  0
 17  7  1  0  0  0  0
 18  7  1  0  0  0  0
 19 28  1  0  0  0  0
 20 19  1  0  0  0  0
 20 30  1  0  0  0  0
 21 20  1  0  0  0  0
 21 32  1  0  0  0  0
 22 23  1  0  0  0  0
 22 20  1  0  0  0  0
 23 36  1  1  0  0  0
 24 23  1  0  0  0  0
 24  8  1  0  0  0  0
 25 26  2  0  0  0  0
 25 23  1  0  0  0  0
 27 19  1  0  0  0  0
 29 19  1  0  0  0  0
 31 21  1  0  0  0  0
 33 21  1  0  0  0  0
 34 22  1  0  0  0  0
 35 22  1  0  0  0  0
 37 24  1  0  0  0  0
 38 39  1  0  0  0  0
 39 40  1  0  0  0  0
 39 50  1  0  0  0  0
 39 51  1  0  0  0  0
 40 52  1  6  0  0  0
 40 42  1  0  0  0  0
 41 55  1  0  0  0  0
 41 40  1  0  0  0  0
 42 56  1  1  0  0  0
 42 44  1  0  0  0  0
 42 43  1  0  0  0  0
 43 25  1  0  0  0  0
 44 46  1  0  0  0  0
 45 44  2  0  0  0  0
 47 38  1  0  0  0  0
 48 38  1  0  0  0  0
 49 38  1  0  0  0  0
 53 41  1  0  0  0  0
 54 41  1  0  0  0  0
 57 43  1  0  0  0  0
M  END
$$$$
