QLL.pdb
 OpenBabel07022418323D

 57 56  0  0  1  0  0  0  0  0999 V2000
    5.0820    1.0520    0.7090 N   0  0  0  0  0  0  0  0  0  0  0  0
    4.1480    0.2660   -0.0570 C   0  0  0  0  0  0  0  0  0  0  0  0
    3.0020    0.7220   -0.2160 O   0  0  0  0  0  0  0  0  0  0  0  0
    4.5990   -1.0030   -0.6000 C   0  0  0  0  0  0  0  0  0  0  0  0
    3.5950   -2.0460   -0.9010 C   0  0  0  0  0  0  0  0  0  0  0  0
    2.8380   -2.7280    0.1360 C   0  0  2  0  0  0  0  0  0  0  0  0
    1.9520   -3.7130   -0.6260 N   0  0  0  0  0  0  0  0  0  0  0  0
    1.9470   -2.1450    1.0900 C   0  0  0  0  0  0  0  0  0  0  0  0
    2.0700   -2.5390    2.3310 O   0  0  0  0  0  0  0  0  0  0  0  0
    6.0200    0.6840    0.9670 H   0  0  0  0  0  0  0  0  0  0  0  0
    4.8420    2.0000    1.0190 H   0  0  0  0  0  0  0  0  0  0  0  0
    5.1790   -0.8430   -1.5670 H   0  0  0  0  0  0  0  0  0  0  0  0
    5.3840   -1.4640    0.0860 H   0  0  0  0  0  0  0  0  0  0  0  0
    4.1400   -2.8220   -1.5640 H   0  0  0  0  0  0  0  0  0  0  0  0
    2.9110   -1.5770   -1.6880 H   0  0  0  0  0  0  0  0  0  0  0  0
    3.5500   -3.4820    0.6280 H   0  0  0  0  0  0  0  0  0  0  0  0
    2.5220   -4.0780   -1.4220 H   0  0  0  0  0  0  0  0  0  0  0  0
    1.6780   -4.4590    0.0480 H   0  0  0  0  0  0  0  0  0  0  0  0
    1.4350   -0.2720    4.6910 C   0  0  0  0  0  0  0  0  0  0  0  0
    1.3670    0.7220    3.5500 C   0  0  0  0  0  0  0  0  0  0  0  0
    2.7260    0.9110    2.9640 C   0  0  0  0  0  0  0  0  0  0  0  0
    0.2260    0.5260    2.6500 C   0  0  0  0  0  0  0  0  0  0  0  0
    0.0170   -0.7190    1.9180 C   0  0  2  0  0  0  0  0  0  0  0  0
    0.9160   -1.2010    0.9300 N   0  0  0  0  0  0  0  0  0  0  0  0
   -1.3610   -0.6780    1.3160 C   0  0  0  0  0  0  0  0  0  0  0  0
   -2.2670   -0.2360    2.0650 O   0  0  0  0  0  0  0  0  0  0  0  0
    2.3080   -0.9760    4.5630 H   0  0  0  0  0  0  0  0  0  0  0  0
    1.6730    0.2740    5.6250 H   0  0  0  0  0  0  0  0  0  0  0  0
    0.4910   -0.7930    4.8320 H   0  0  0  0  0  0  0  0  0  0  0  0
    1.1590    1.7310    4.0760 H   0  0  0  0  0  0  0  0  0  0  0  0
    2.7790    1.7550    2.2490 H   0  0  0  0  0  0  0  0  0  0  0  0
    3.4030    1.2630    3.8160 H   0  0  0  0  0  0  0  0  0  0  0  0
    3.1620   -0.0340    2.5930 H   0  0  0  0  0  0  0  0  0  0  0  0
   -0.7570    0.7630    3.1770 H   0  0  0  0  0  0  0  0  0  0  0  0
    0.2680    1.3770    1.8870 H   0  0  0  0  0  0  0  0  0  0  0  0
   -0.0020   -1.5570    2.7380 H   0  0  0  0  0  0  0  0  0  0  0  0
    0.8030   -0.8110   -0.0510 H   0  0  0  0  0  0  0  0  0  0  0  0
   -5.1590   -0.8080   -2.9460 C   0  0  0  0  0  0  0  0  0  0  0  0
   -4.4180    0.2510   -2.2350 C   0  0  0  0  0  0  0  0  0  0  0  0
   -5.3890    0.9590   -1.2850 C   0  0  0  0  0  0  0  0  0  0  0  0
   -3.1570   -0.0410   -1.5610 C   0  0  0  0  0  0  0  0  0  0  0  0
   -3.0660   -0.9960   -0.4450 C   0  0  2  0  0  0  0  0  0  0  0  0
   -1.6880   -1.0820    0.0350 N   0  0  0  0  0  0  0  0  0  0  0  0
   -3.5230   -2.3610   -0.6250 C   0  0  0  0  0  0  0  0  0  0  0  0
   -2.6710   -3.3150   -0.5010 O   0  0  0  0  0  0  0  0  0  0  0  0
   -4.8000   -2.7960   -0.9180 O   0  0  0  0  0  0  0  0  0  0  0  0
   -6.1200   -1.0630   -2.4280 H   0  0  0  0  0  0  0  0  0  0  0  0
   -5.5570   -0.3440   -3.9200 H   0  0  0  0  0  0  0  0  0  0  0  0
   -4.5870   -1.6660   -3.3110 H   0  0  0  0  0  0  0  0  0  0  0  0
   -4.1850    1.0730   -2.9980 H   0  0  0  0  0  0  0  0  0  0  0  0
   -5.5980    0.3440   -0.4010 H   0  0  0  0  0  0  0  0  0  0  0  0
   -6.3010    1.1750   -1.8740 H   0  0  0  0  0  0  0  0  0  0  0  0
   -4.9130    1.9300   -1.0350 H   0  0  0  0  0  0  0  0  0  0  0  0
   -2.4140   -0.3360   -2.3720 H   0  0  0  0  0  0  0  0  0  0  0  0
   -2.8050    0.9600   -1.1320 H   0  0  0  0  0  0  0  0  0  0  0  0
   -3.6640   -0.5670    0.4130 H   0  0  0  0  0  0  0  0  0  0  0  0
   -0.9870   -1.4610   -0.6300 H   0  0  0  0  0  0  0  0  0  0  0  0
  1 10  1  0  0  0  0
  1 11  1  0  0  0  0
  2  1  1  0  0  0  0
  3  2  2  0  0  0  0
  4  2  1  0  0  0  0
  4 13  1  0  0  0  0
  5  4  1  0  0  0  0
  5  6  1  0  0  0  0
  6 16  1  1  0  0  0
  6  8  1  0  0  0  0
  7 18  1  0  0  0  0
  7  6  1  0  0  0  0
  8  9  2  0  0  0  0
 12  4  1  0  0  0  0
 14  5  1  0  0  0  0
 15  5  1  0  0  0  0
 17  7  1  0  0  0  0
 19 29  1  0  0  0  0
 19 28  1  0  0  0  0
 20 30  1  0  0  0  0
 20 19  1  0  0  0  0
 21 20  1  0  0  0  0
 21 32  1  0  0  0  0
 22 34  1  0  0  0  0
 22 20  1  0  0  0  0
 23 22  1  0  0  0  0
 23 36  1  1  0  0  0
 24  8  1  0  0  0  0
 24 23  1  0  0  0  0
 25 23  1  0  0  0  0
 25 26  2  0  0  0  0
 27 19  1  0  0  0  0
 31 21  1  0  0  0  0
 33 21  1  0  0  0  0
 35 22  1  0  0  0  0
 37 24  1  0  0  0  0
 38 47  1  0  0  0  0
 38 39  1  0  0  0  0
 39 41  1  0  0  0  0
 39 40  1  0  0  0  0
 40 53  1  0  0  0  0
 40 51  1  0  0  0  0
 41 55  1  0  0  0  0
 41 42  1  0  0  0  0
 42 43  1  0  0  0  0
 42 56  1  1  0  0  0
 43 25  1  0  0  0  0
 44 45  1  0  0  0  0
 44 42  1  0  0  0  0
 46 44  2  0  0  0  0
 48 38  1  0  0  0  0
 49 38  1  0  0  0  0
 50 39  1  0  0  0  0
 52 40  1  0  0  0  0
 54 41  1  0  0  0  0
 57 43  1  0  0  0  0
M  END
$$$$
