QLN.pdb
 OpenBabel07022418323D

 52 51  0  0  1  0  0  0  0  0999 V2000
   -4.4960    0.5340   -0.0800 N   0  0  0  0  0  0  0  0  0  0  0  0
   -3.6620    1.4930    0.5390 C   0  0  0  0  0  0  0  0  0  0  0  0
   -3.9870    2.6970    0.5200 O   0  0  0  0  0  0  0  0  0  0  0  0
   -2.3770    1.1270    1.2350 C   0  0  0  0  0  0  0  0  0  0  0  0
   -1.7180    2.3360    1.8120 C   0  0  0  0  0  0  0  0  0  0  0  0
   -0.4250    2.0480    2.5500 C   0  0  2  0  0  0  0  0  0  0  0  0
    0.0950    3.3530    3.0490 N   0  0  0  0  0  0  0  0  0  0  0  0
    0.5990    1.3800    1.7570 C   0  0  0  0  0  0  0  0  0  0  0  0
    1.5880    2.0760    1.3440 O   0  0  0  0  0  0  0  0  0  0  0  0
   -5.1850   -0.0370    0.4520 H   0  0  0  0  0  0  0  0  0  0  0  0
   -4.4330    0.3800   -1.1070 H   0  0  0  0  0  0  0  0  0  0  0  0
   -1.7270    0.7760    0.3880 H   0  0  0  0  0  0  0  0  0  0  0  0
   -2.6260    0.3530    1.9640 H   0  0  0  0  0  0  0  0  0  0  0  0
   -1.4600    3.0720    1.0160 H   0  0  0  0  0  0  0  0  0  0  0  0
   -2.4610    2.8340    2.4650 H   0  0  0  0  0  0  0  0  0  0  0  0
   -0.7200    1.5080    3.4740 H   0  0  0  0  0  0  0  0  0  0  0  0
    0.5800    3.1700    3.9550 H   0  0  0  0  0  0  0  0  0  0  0  0
   -0.6930    4.0080    3.1560 H   0  0  0  0  0  0  0  0  0  0  0  0
    3.9330   -1.9130    3.4140 C   0  0  0  0  0  0  0  0  0  0  0  0
    3.1580   -0.8360    2.6430 C   0  0  0  0  0  0  0  0  0  0  0  0
    4.1490    0.2490    2.2170 C   0  0  0  0  0  0  0  0  0  0  0  0
    2.5600   -1.5100    1.4340 C   0  0  0  0  0  0  0  0  0  0  0  0
    1.7390   -0.5300    0.5890 C   0  0  2  0  0  0  0  0  0  0  0  0
    0.6560    0.0170    1.3720 N   0  0  0  0  0  0  0  0  0  0  0  0
    1.2050   -1.3380   -0.5260 C   0  0  0  0  0  0  0  0  0  0  0  0
    2.0120   -1.8150   -1.4170 O   0  0  0  0  0  0  0  0  0  0  0  0
    4.6750   -2.3570    2.7400 H   0  0  0  0  0  0  0  0  0  0  0  0
    4.4230   -1.3930    4.2520 H   0  0  0  0  0  0  0  0  0  0  0  0
    3.2210   -2.6620    3.7940 H   0  0  0  0  0  0  0  0  0  0  0  0
    2.3380   -0.4110    3.2410 H   0  0  0  0  0  0  0  0  0  0  0  0
    3.8230    1.2240    2.6460 H   0  0  0  0  0  0  0  0  0  0  0  0
    5.1460   -0.0010    2.6770 H   0  0  0  0  0  0  0  0  0  0  0  0
    4.2530    0.2820    1.1280 H   0  0  0  0  0  0  0  0  0  0  0  0
    1.9020   -2.3250    1.8150 H   0  0  0  0  0  0  0  0  0  0  0  0
    3.3370   -1.9750    0.7950 H   0  0  0  0  0  0  0  0  0  0  0  0
    2.4430    0.2600    0.2580 H   0  0  0  0  0  0  0  0  0  0  0  0
   -0.1130   -0.6030    1.6740 H   0  0  0  0  0  0  0  0  0  0  0  0
   -2.7450   -5.5580   -2.1230 N   0  0  0  0  0  0  0  0  0  0  0  0
   -1.8710   -4.4580   -2.4510 C   0  0  0  0  0  0  0  0  0  0  0  0
   -1.5820   -4.3300   -3.6510 O   0  0  0  0  0  0  0  0  0  0  0  0
   -1.4190   -3.6150   -1.3430 C   0  0  0  0  0  0  0  0  0  0  0  0
   -0.6240   -2.4570   -1.8490 C   0  0  2  0  0  0  0  0  0  0  0  0
   -0.1420   -1.6410   -0.7020 N   0  0  0  0  0  0  0  0  0  0  0  0
   -1.5190   -1.5540   -2.6110 C   0  0  0  0  0  0  0  0  0  0  0  0
   -1.7070   -0.3800   -2.1850 O   0  0  0  0  0  0  0  0  0  0  0  0
   -2.1860   -1.8820   -3.7740 O   0  0  0  0  0  0  0  0  0  0  0  0
   -2.4660   -6.5120   -2.4550 H   0  0  0  0  0  0  0  0  0  0  0  0
   -3.6230   -5.4200   -1.5770 H   0  0  0  0  0  0  0  0  0  0  0  0
   -2.3330   -3.2160   -0.8300 H   0  0  0  0  0  0  0  0  0  0  0  0
   -0.8290   -4.2130   -0.6100 H   0  0  0  0  0  0  0  0  0  0  0  0
    0.2110   -2.7470   -2.5070 H   0  0  0  0  0  0  0  0  0  0  0  0
   -0.8630   -1.3210   -0.0380 H   0  0  0  0  0  0  0  0  0  0  0  0
  1 10  1  0  0  0  0
  1  2  1  0  0  0  0
  2  4  1  0  0  0  0
  3  2  2  0  0  0  0
  4  5  1  0  0  0  0
  4 13  1  0  0  0  0
  5 15  1  0  0  0  0
  5  6  1  0  0  0  0
  6  7  1  0  0  0  0
  6 16  1  1  0  0  0
  7 18  1  0  0  0  0
  7 17  1  0  0  0  0
  8  6  1  0  0  0  0
  9  8  2  0  0  0  0
 11  1  1  0  0  0  0
 12  4  1  0  0  0  0
 14  5  1  0  0  0  0
 19 29  1  0  0  0  0
 19 28  1  0  0  0  0
 20 30  1  0  0  0  0
 20 19  1  0  0  0  0
 21 20  1  0  0  0  0
 21 31  1  0  0  0  0
 21 32  1  0  0  0  0
 22 34  1  0  0  0  0
 22 20  1  0  0  0  0
 23 36  1  6  0  0  0
 23 24  1  0  0  0  0
 23 22  1  0  0  0  0
 24 37  1  0  0  0  0
 24  8  1  0  0  0  0
 25 23  1  0  0  0  0
 26 25  2  0  0  0  0
 27 19  1  0  0  0  0
 33 21  1  0  0  0  0
 35 22  1  0  0  0  0
 38 48  1  0  0  0  0
 39 38  1  0  0  0  0
 39 41  1  0  0  0  0
 40 39  2  0  0  0  0
 41 49  1  0  0  0  0
 41 50  1  0  0  0  0
 42 51  1  6  0  0  0
 42 41  1  0  0  0  0
 42 43  1  0  0  0  0
 43 25  1  0  0  0  0
 43 52  1  0  0  0  0
 44 45  1  0  0  0  0
 44 42  1  0  0  0  0
 46 44  2  0  0  0  0
 47 38  1  0  0  0  0
M  END
$$$$
