QLP.pdb
 OpenBabel07022418323D

 52 52  0  0  1  0  0  0  0  0999 V2000
    2.1010   -5.3090    5.4540 N   0  0  0  0  0  0  0  0  0  0  0  0
    1.5870   -4.2510    4.6420 C   0  0  0  0  0  0  0  0  0  0  0  0
    0.6370   -4.4770    3.8650 O   0  0  0  0  0  0  0  0  0  0  0  0
    2.1730   -2.9080    4.7260 C   0  0  0  0  0  0  0  0  0  0  0  0
    1.6730   -1.9530    3.6820 C   0  0  0  0  0  0  0  0  0  0  0  0
    1.9940   -2.4000    2.2960 C   0  0  2  0  0  0  0  0  0  0  0  0
    3.4210   -2.5330    2.0810 N   0  0  0  0  0  0  0  0  0  0  0  0
    1.4170   -1.4470    1.2800 C   0  0  0  0  0  0  0  0  0  0  0  0
    2.2300   -0.9640    0.4700 O   0  0  0  0  0  0  0  0  0  0  0  0
    1.8430   -5.3520    6.4610 H   0  0  0  0  0  0  0  0  0  0  0  0
    2.7260   -6.0260    5.0310 H   0  0  0  0  0  0  0  0  0  0  0  0
    1.9530   -2.4940    5.7430 H   0  0  0  0  0  0  0  0  0  0  0  0
    3.2880   -3.0370    4.6680 H   0  0  0  0  0  0  0  0  0  0  0  0
    2.1420   -0.9670    3.8950 H   0  0  0  0  0  0  0  0  0  0  0  0
    0.5640   -1.8290    3.7910 H   0  0  0  0  0  0  0  0  0  0  0  0
    1.5600   -3.3930    2.1050 H   0  0  0  0  0  0  0  0  0  0  0  0
    3.5230   -3.1080    1.1930 H   0  0  0  0  0  0  0  0  0  0  0  0
    3.8490   -1.6110    1.8770 H   0  0  0  0  0  0  0  0  0  0  0  0
    2.0030    2.5870   -0.2080 C   0  0  0  0  0  0  0  0  0  0  0  0
    1.0520    1.6640    0.5660 C   0  0  0  0  0  0  0  0  0  0  0  0
    0.0270    2.6700    1.1840 C   0  0  0  0  0  0  0  0  0  0  0  0
    0.3420    0.7320   -0.3480 C   0  0  0  0  0  0  0  0  0  0  0  0
   -0.6040   -0.2310    0.3570 C   0  0  2  0  0  0  0  0  0  0  0  0
    0.0640   -1.1330    1.2540 N   0  0  0  0  0  0  0  0  0  0  0  0
   -1.5000   -0.9540   -0.5730 C   0  0  0  0  0  0  0  0  0  0  0  0
   -1.3290   -2.2240   -0.6910 O   0  0  0  0  0  0  0  0  0  0  0  0
    1.5150    3.5110   -0.5280 H   0  0  0  0  0  0  0  0  0  0  0  0
    2.3180    2.0140   -1.1250 H   0  0  0  0  0  0  0  0  0  0  0  0
    2.9060    2.7980    0.3930 H   0  0  0  0  0  0  0  0  0  0  0  0
    1.5750    1.2890    1.4240 H   0  0  0  0  0  0  0  0  0  0  0  0
   -0.5580    2.1710    1.9660 H   0  0  0  0  0  0  0  0  0  0  0  0
   -0.5620    3.1430    0.3980 H   0  0  0  0  0  0  0  0  0  0  0  0
    0.6220    3.4660    1.6890 H   0  0  0  0  0  0  0  0  0  0  0  0
    1.0530    0.1780   -0.9740 H   0  0  0  0  0  0  0  0  0  0  0  0
   -0.2020    1.3850   -1.0930 H   0  0  0  0  0  0  0  0  0  0  0  0
   -1.2170    0.5030    0.9920 H   0  0  0  0  0  0  0  0  0  0  0  0
   -0.5340   -1.6320    2.0000 H   0  0  0  0  0  0  0  0  0  0  0  0
   -2.5160   -0.3640   -1.3300 N   0  0  0  0  0  0  0  0  0  0  0  0
   -2.8760    1.0760   -1.1770 C   0  0  0  0  0  0  0  0  0  0  0  0
   -2.7760    1.5300   -2.6140 C   0  0  0  0  0  0  0  0  0  0  0  0
   -2.9400    0.2720   -3.4550 C   0  0  0  0  0  0  0  0  0  0  0  0
   -3.4270   -0.7220   -2.3600 C   0  0  1  0  0  0  0  0  0  0  0  0
   -3.5350   -2.0520   -2.8550 C   0  0  0  0  0  0  0  0  0  0  0  0
   -4.3780   -2.2870   -3.7910 O   0  0  0  0  0  0  0  0  0  0  0  0
   -2.8190   -3.1240   -2.4260 O   0  0  0  0  0  0  0  0  0  0  0  0
   -3.9900    1.0060   -0.9370 H   0  0  0  0  0  0  0  0  0  0  0  0
   -2.3290    1.6030   -0.4390 H   0  0  0  0  0  0  0  0  0  0  0  0
   -1.8070    2.0250   -2.8200 H   0  0  0  0  0  0  0  0  0  0  0  0
   -3.6230    2.2000   -2.9000 H   0  0  0  0  0  0  0  0  0  0  0  0
   -3.7110    0.3660   -4.2220 H   0  0  0  0  0  0  0  0  0  0  0  0
   -1.9610   -0.0600   -3.8540 H   0  0  0  0  0  0  0  0  0  0  0  0
   -4.4280   -0.2770   -2.0560 H   0  0  0  0  0  0  0  0  0  0  0  0
  1 10  1  0  0  0  0
  2  4  1  0  0  0  0
  2  1  1  0  0  0  0
  3  2  2  0  0  0  0
  4 12  1  0  0  0  0
  5 15  1  0  0  0  0
  5 14  1  0  0  0  0
  5  4  1  0  0  0  0
  6 16  1  6  0  0  0
  6  5  1  0  0  0  0
  7  6  1  0  0  0  0
  8  6  1  0  0  0  0
  9  8  2  0  0  0  0
 11  1  1  0  0  0  0
 13  4  1  0  0  0  0
 17  7  1  0  0  0  0
 18  7  1  0  0  0  0
 19 29  1  0  0  0  0
 19 20  1  0  0  0  0
 20 21  1  0  0  0  0
 20 30  1  0  0  0  0
 21 33  1  0  0  0  0
 21 31  1  0  0  0  0
 22 23  1  0  0  0  0
 22 20  1  0  0  0  0
 23 36  1  1  0  0  0
 23 24  1  0  0  0  0
 24  8  1  0  0  0  0
 24 37  1  0  0  0  0
 25 23  1  0  0  0  0
 26 25  2  0  0  0  0
 27 19  1  0  0  0  0
 28 19  1  0  0  0  0
 32 21  1  0  0  0  0
 34 22  1  0  0  0  0
 35 22  1  0  0  0  0
 38 39  1  0  0  0  0
 38 25  1  0  0  0  0
 39 46  1  0  0  0  0
 39 47  1  0  0  0  0
 40 39  1  0  0  0  0
 41 40  1  0  0  0  0
 41 42  1  0  0  0  0
 42 52  1  1  0  0  0
 42 38  1  0  0  0  0
 43 45  1  0  0  0  0
 43 42  1  0  0  0  0
 44 43  2  0  0  0  0
 48 40  1  0  0  0  0
 49 40  1  0  0  0  0
 50 41  1  0  0  0  0
 51 41  1  0  0  0  0
M  END
$$$$
