QLR.pdb
 OpenBabel07022418323D

 61 60  0  0  1  0  0  0  0  0999 V2000
    2.7520   -4.8020    1.6870 N   0  0  0  0  0  0  0  0  0  0  0  0
    3.5420   -3.6890    2.0350 C   0  0  0  0  0  0  0  0  0  0  0  0
    4.5000   -3.8080    2.8060 O   0  0  0  0  0  0  0  0  0  0  0  0
    3.2190   -2.3340    1.4630 C   0  0  0  0  0  0  0  0  0  0  0  0
    4.2060   -1.3200    1.9760 C   0  0  0  0  0  0  0  0  0  0  0  0
    3.9860    0.0780    1.4420 C   0  0  2  0  0  0  0  0  0  0  0  0
    5.0390    0.9050    2.0620 N   0  0  0  0  0  0  0  0  0  0  0  0
    2.6920    0.5930    1.9020 C   0  0  0  0  0  0  0  0  0  0  0  0
    2.6520    1.3430    2.9270 O   0  0  0  0  0  0  0  0  0  0  0  0
    2.1170   -5.3160    2.3380 H   0  0  0  0  0  0  0  0  0  0  0  0
    2.8120   -5.1340    0.6960 H   0  0  0  0  0  0  0  0  0  0  0  0
    2.2220   -2.0060    1.8420 H   0  0  0  0  0  0  0  0  0  0  0  0
    3.2590   -2.3910    0.3730 H   0  0  0  0  0  0  0  0  0  0  0  0
    4.1570   -1.3310    3.0980 H   0  0  0  0  0  0  0  0  0  0  0  0
    5.2620   -1.6570    1.7550 H   0  0  0  0  0  0  0  0  0  0  0  0
    4.1220    0.1120    0.3540 H   0  0  0  0  0  0  0  0  0  0  0  0
    5.9080    0.7560    1.4780 H   0  0  0  0  0  0  0  0  0  0  0  0
    4.7760    1.9050    2.0270 H   0  0  0  0  0  0  0  0  0  0  0  0
   -0.9970    3.3610   -0.8460 C   0  0  0  0  0  0  0  0  0  0  0  0
   -0.5430    1.9810   -0.3350 C   0  0  0  0  0  0  0  0  0  0  0  0
    0.5560    1.5110   -1.2170 C   0  0  0  0  0  0  0  0  0  0  0  0
   -0.2390    2.1440    1.0990 C   0  0  0  0  0  0  0  0  0  0  0  0
    0.2260    0.8990    1.8320 C   0  0  2  0  0  0  0  0  0  0  0  0
    1.4230    0.3420    1.3010 N   0  0  0  0  0  0  0  0  0  0  0  0
   -0.8940   -0.0540    1.9570 C   0  0  0  0  0  0  0  0  0  0  0  0
   -1.9820    0.3640    2.4920 O   0  0  0  0  0  0  0  0  0  0  0  0
   -1.9590    3.6580   -0.3890 H   0  0  0  0  0  0  0  0  0  0  0  0
   -0.2080    4.0670   -0.4960 H   0  0  0  0  0  0  0  0  0  0  0  0
   -1.0530    3.3760   -1.9390 H   0  0  0  0  0  0  0  0  0  0  0  0
   -1.4290    1.3200   -0.5200 H   0  0  0  0  0  0  0  0  0  0  0  0
    1.5720    1.7090   -0.8590 H   0  0  0  0  0  0  0  0  0  0  0  0
    0.4860    2.0870   -2.1900 H   0  0  0  0  0  0  0  0  0  0  0  0
    0.3930    0.4490   -1.5620 H   0  0  0  0  0  0  0  0  0  0  0  0
    0.4650    2.9550    1.2850 H   0  0  0  0  0  0  0  0  0  0  0  0
   -1.1990    2.4450    1.6070 H   0  0  0  0  0  0  0  0  0  0  0  0
    0.4520    1.2990    2.8690 H   0  0  0  0  0  0  0  0  0  0  0  0
    1.4100   -0.2680    0.4580 H   0  0  0  0  0  0  0  0  0  0  0  0
   -4.1700   -0.4580   -4.1370 N   0  0  0  0  0  0  0  0  0  0  0  0
   -4.5560   -0.9640   -2.8540 C   0  0  0  0  0  0  0  0  0  0  0  0
   -5.3370   -2.0050   -2.7740 N   0  0  0  0  0  0  0  0  0  0  0  0
   -4.1230   -0.3790   -1.6470 N   0  0  0  0  0  0  0  0  0  0  0  0
   -3.9300   -1.1610   -0.4360 C   0  0  0  0  0  0  0  0  0  0  0  0
   -2.7390   -2.0590   -0.7090 C   0  0  0  0  0  0  0  0  0  0  0  0
   -2.3830   -2.9500    0.4290 C   0  0  0  0  0  0  0  0  0  0  0  0
   -2.0220   -2.2710    1.6970 C   0  0  2  0  0  0  0  0  0  0  0  0
   -0.8550   -1.3880    1.5300 N   0  0  0  0  0  0  0  0  0  0  0  0
   -1.6170   -3.3460    2.6740 C   0  0  0  0  0  0  0  0  0  0  0  0
   -2.4240   -4.2500    3.0110 O   0  0  0  0  0  0  0  0  0  0  0  0
   -0.3550   -3.3810    3.2350 O   0  0  0  0  0  0  0  0  0  0  0  0
   -4.0360    0.5560   -4.3250 H   0  0  0  0  0  0  0  0  0  0  0  0
   -4.0230   -1.1640   -4.8990 H   0  0  0  0  0  0  0  0  0  0  0  0
   -5.6820   -2.4700   -3.6520 H   0  0  0  0  0  0  0  0  0  0  0  0
   -3.9370    0.6470   -1.6330 H   0  0  0  0  0  0  0  0  0  0  0  0
   -4.8100   -1.8390   -0.2950 H   0  0  0  0  0  0  0  0  0  0  0  0
   -3.7310   -0.5200    0.4220 H   0  0  0  0  0  0  0  0  0  0  0  0
   -3.0400   -2.7130   -1.5640 H   0  0  0  0  0  0  0  0  0  0  0  0
   -1.8790   -1.4610   -1.0900 H   0  0  0  0  0  0  0  0  0  0  0  0
   -3.2990   -3.5740    0.6460 H   0  0  0  0  0  0  0  0  0  0  0  0
   -1.6280   -3.6710    0.0810 H   0  0  0  0  0  0  0  0  0  0  0  0
   -2.8350   -1.7210    2.1610 H   0  0  0  0  0  0  0  0  0  0  0  0
    0.0190   -1.7400    1.0850 H   0  0  0  0  0  0  0  0  0  0  0  0
  1  2  1  0  0  0  0
  1 10  1  0  0  0  0
  2  3  2  0  0  0  0
  4 12  1  0  0  0  0
  4  5  1  0  0  0  0
  4  2  1  0  0  0  0
  5 14  1  0  0  0  0
  6 16  1  6  0  0  0
  6  8  1  0  0  0  0
  6  5  1  0  0  0  0
  6  7  1  0  0  0  0
  8  9  2  0  0  0  0
 11  1  1  0  0  0  0
 13  4  1  0  0  0  0
 15  5  1  0  0  0  0
 17  7  1  0  0  0  0
 18  7  1  0  0  0  0
 19 28  1  0  0  0  0
 19 27  1  0  0  0  0
 19 20  1  0  0  0  0
 20 22  1  0  0  0  0
 21 31  1  0  0  0  0
 21 20  1  0  0  0  0
 22 34  1  0  0  0  0
 22 35  1  0  0  0  0
 22 23  1  0  0  0  0
 23 25  1  0  0  0  0
 23 36  1  1  0  0  0
 24 23  1  0  0  0  0
 24  8  1  0  0  0  0
 25 26  2  0  0  0  0
 29 19  1  0  0  0  0
 30 20  1  0  0  0  0
 32 21  1  0  0  0  0
 33 21  1  0  0  0  0
 37 24  1  0  0  0  0
 38 39  1  0  0  0  0
 39 40  2  0  0  0  0
 39 41  1  0  0  0  0
 41 53  1  0  0  0  0
 41 42  1  0  0  0  0
 42 54  1  0  0  0  0
 42 55  1  0  0  0  0
 43 42  1  0  0  0  0
 43 44  1  0  0  0  0
 44 58  1  0  0  0  0
 44 45  1  0  0  0  0
 45 60  1  1  0  0  0
 45 47  1  0  0  0  0
 46 45  1  0  0  0  0
 46 25  1  0  0  0  0
 47 48  2  0  0  0  0
 47 49  1  0  0  0  0
 50 38  1  0  0  0  0
 51 38  1  0  0  0  0
 52 40  1  0  0  0  0
 56 43  1  0  0  0  0
 57 43  1  0  0  0  0
 59 44  1  0  0  0  0
 61 46  1  0  0  0  0
M  END
$$$$
