QLY.pdb
 OpenBabel07022418323D

 59 59  0  0  1  0  0  0  0  0999 V2000
    3.5940   -3.8170   -3.1400 N   0  0  0  0  0  0  0  0  0  0  0  0
    4.0680   -2.4800   -3.1170 C   0  0  0  0  0  0  0  0  0  0  0  0
    5.2880   -2.2720   -3.2310 O   0  0  0  0  0  0  0  0  0  0  0  0
    3.1150   -1.3780   -2.9650 C   0  0  0  0  0  0  0  0  0  0  0  0
    3.7060   -0.0740   -2.5360 C   0  0  0  0  0  0  0  0  0  0  0  0
    4.3170   -0.1420   -1.1770 C   0  0  2  0  0  0  0  0  0  0  0  0
    5.3840   -1.0680   -0.9960 N   0  0  0  0  0  0  0  0  0  0  0  0
    3.2130   -0.3920   -0.1720 C   0  0  0  0  0  0  0  0  0  0  0  0
    3.2730   -1.3210    0.6580 O   0  0  0  0  0  0  0  0  0  0  0  0
    3.0300   -4.1250   -2.2960 H   0  0  0  0  0  0  0  0  0  0  0  0
    3.7600   -4.4890   -3.9070 H   0  0  0  0  0  0  0  0  0  0  0  0
    2.5830   -1.2480   -3.9450 H   0  0  0  0  0  0  0  0  0  0  0  0
    2.2740   -1.6590   -2.2560 H   0  0  0  0  0  0  0  0  0  0  0  0
    2.9300    0.7290   -2.5780 H   0  0  0  0  0  0  0  0  0  0  0  0
    4.5430    0.1710   -3.2570 H   0  0  0  0  0  0  0  0  0  0  0  0
    4.6980    0.9060   -0.9630 H   0  0  0  0  0  0  0  0  0  0  0  0
    6.2990   -0.5760   -1.1910 H   0  0  0  0  0  0  0  0  0  0  0  0
    5.4390   -1.3800   -0.0010 H   0  0  0  0  0  0  0  0  0  0  0  0
    0.0070    0.7410    3.6900 C   0  0  0  0  0  0  0  0  0  0  0  0
   -0.0020    1.7910    2.5980 C   0  0  0  0  0  0  0  0  0  0  0  0
   -1.3750    2.1860    2.2040 C   0  0  0  0  0  0  0  0  0  0  0  0
    0.9890    1.5550    1.5340 C   0  0  0  0  0  0  0  0  0  0  0  0
    0.9590    0.2960    0.7550 C   0  0  2  0  0  0  0  0  0  0  0  0
    2.1080    0.4540   -0.1950 N   0  0  0  0  0  0  0  0  0  0  0  0
   -0.1920    0.0400   -0.1040 C   0  0  0  0  0  0  0  0  0  0  0  0
   -0.0810    0.1800   -1.3710 O   0  0  0  0  0  0  0  0  0  0  0  0
    0.9090    0.8100    4.3270 H   0  0  0  0  0  0  0  0  0  0  0  0
   -0.8690    0.9590    4.3440 H   0  0  0  0  0  0  0  0  0  0  0  0
   -0.1350   -0.2800    3.2930 H   0  0  0  0  0  0  0  0  0  0  0  0
    0.4140    2.7180    3.1620 H   0  0  0  0  0  0  0  0  0  0  0  0
   -1.6140    3.1890    2.6620 H   0  0  0  0  0  0  0  0  0  0  0  0
   -2.0910    1.4200    2.6110 H   0  0  0  0  0  0  0  0  0  0  0  0
   -1.5720    2.2600    1.1250 H   0  0  0  0  0  0  0  0  0  0  0  0
    0.9210    2.4030    0.7860 H   0  0  0  0  0  0  0  0  0  0  0  0
    2.0140    1.6290    1.9880 H   0  0  0  0  0  0  0  0  0  0  0  0
    1.2010   -0.5910    1.4180 H   0  0  0  0  0  0  0  0  0  0  0  0
    1.9980    1.2450   -0.8560 H   0  0  0  0  0  0  0  0  0  0  0  0
   -4.3070   -3.4700    4.7800 O   0  0  0  0  0  0  0  0  0  0  0  0
   -3.9460   -3.1400    3.4700 C   0  0  0  0  0  0  0  0  0  0  0  0
   -4.9040   -2.7660    2.5450 C   0  0  0  0  0  0  0  0  0  0  0  0
   -4.5540   -2.4360    1.2420 C   0  0  0  0  0  0  0  0  0  0  0  0
   -3.2360   -2.4720    0.8270 C   0  0  0  0  0  0  0  0  0  0  0  0
   -2.8500   -2.1220   -0.5630 C   0  0  0  0  0  0  0  0  0  0  0  0
   -2.5640   -0.6140   -0.6110 C   0  0  2  0  0  0  0  0  0  0  0  0
   -1.4820   -0.3740    0.3200 N   0  0  0  0  0  0  0  0  0  0  0  0
   -3.7990    0.1200   -0.3210 C   0  0  0  0  0  0  0  0  0  0  0  0
   -3.9020    0.8850    0.6540 O   0  0  0  0  0  0  0  0  0  0  0  0
   -2.2940   -2.8520    1.7790 C   0  0  0  0  0  0  0  0  0  0  0  0
   -2.6290   -3.1770    3.0590 C   0  0  0  0  0  0  0  0  0  0  0  0
   -4.8890   -0.0390   -1.1580 O   0  0  0  0  0  0  0  0  0  0  0  0
   -4.1190   -4.4300    5.0950 H   0  0  0  0  0  0  0  0  0  0  0  0
   -5.9280   -2.7470    2.8980 H   0  0  0  0  0  0  0  0  0  0  0  0
   -5.3270   -2.1500    0.5500 H   0  0  0  0  0  0  0  0  0  0  0  0
   -3.6620   -2.3810   -1.2890 H   0  0  0  0  0  0  0  0  0  0  0  0
   -1.9350   -2.6650   -0.8330 H   0  0  0  0  0  0  0  0  0  0  0  0
   -2.2780   -0.4210   -1.6650 H   0  0  0  0  0  0  0  0  0  0  0  0
   -1.6500   -0.5180    1.3170 H   0  0  0  0  0  0  0  0  0  0  0  0
   -1.2500   -2.8840    1.4650 H   0  0  0  0  0  0  0  0  0  0  0  0
   -1.8500   -3.4690    3.7680 H   0  0  0  0  0  0  0  0  0  0  0  0
  1  2  1  0  0  0  0
  1 10  1  0  0  0  0
  2  4  1  0  0  0  0
  3  2  2  0  0  0  0
  4  5  1  0  0  0  0
  4 13  1  0  0  0  0
  5  6  1  0  0  0  0
  6  7  1  0  0  0  0
  6 16  1  1  0  0  0
  6  8  1  0  0  0  0
  7 18  1  0  0  0  0
  8  9  2  0  0  0  0
 11  1  1  0  0  0  0
 12  4  1  0  0  0  0
 14  5  1  0  0  0  0
 15  5  1  0  0  0  0
 17  7  1  0  0  0  0
 19 27  1  0  0  0  0
 19 28  1  0  0  0  0
 20 30  1  0  0  0  0
 20 19  1  0  0  0  0
 21 20  1  0  0  0  0
 21 32  1  0  0  0  0
 21 31  1  0  0  0  0
 22 35  1  0  0  0  0
 22 20  1  0  0  0  0
 23 36  1  1  0  0  0
 23 22  1  0  0  0  0
 24  8  1  0  0  0  0
 24 23  1  0  0  0  0
 25 45  1  0  0  0  0
 25 23  1  0  0  0  0
 26 25  2  0  0  0  0
 29 19  1  0  0  0  0
 33 21  1  0  0  0  0
 34 22  1  0  0  0  0
 37 24  1  0  0  0  0
 38 51  1  0  0  0  0
 39 38  1  0  0  0  0
 40 52  1  0  0  0  0
 40 39  2  0  0  0  0
 41 40  1  0  0  0  0
 42 41  2  0  0  0  0
 42 48  1  0  0  0  0
 43 42  1  0  0  0  0
 44 56  1  6  0  0  0
 44 43  1  0  0  0  0
 44 46  1  0  0  0  0
 44 45  1  0  0  0  0
 45 57  1  0  0  0  0
 46 47  1  0  0  0  0
 48 49  2  0  0  0  0
 49 39  1  0  0  0  0
 49 59  1  0  0  0  0
 50 46  2  0  0  0  0
 53 41  1  0  0  0  0
 54 43  1  0  0  0  0
 55 43  1  0  0  0  0
 58 48  1  0  0  0  0
M  END
$$$$
