QMA.pdb
 OpenBabel07022418333D

 46 45  0  0  1  0  0  0  0  0999 V2000
   -1.4810   -6.0420    3.6210 N   0  0  0  0  0  0  0  0  0  0  0  0
   -0.7460   -4.8470    3.3060 C   0  0  0  0  0  0  0  0  0  0  0  0
   -0.8460   -3.8530    4.0550 O   0  0  0  0  0  0  0  0  0  0  0  0
    0.0930   -4.8810    2.0980 C   0  0  0  0  0  0  0  0  0  0  0  0
    0.6920   -3.5550    1.7180 C   0  0  0  0  0  0  0  0  0  0  0  0
   -0.3990   -2.5810    1.4210 C   0  0  2  0  0  0  0  0  0  0  0  0
   -1.1730   -3.1290    0.3230 N   0  0  0  0  0  0  0  0  0  0  0  0
    0.1530   -1.2570    0.9650 C   0  0  0  0  0  0  0  0  0  0  0  0
   -0.1380   -0.8970   -0.1970 O   0  0  0  0  0  0  0  0  0  0  0  0
   -1.6270   -6.2360    4.6360 H   0  0  0  0  0  0  0  0  0  0  0  0
   -1.8450   -6.6740    2.8860 H   0  0  0  0  0  0  0  0  0  0  0  0
   -0.5770   -5.2610    1.2680 H   0  0  0  0  0  0  0  0  0  0  0  0
    0.8710   -5.6760    2.1830 H   0  0  0  0  0  0  0  0  0  0  0  0
    1.2790   -3.7480    0.7720 H   0  0  0  0  0  0  0  0  0  0  0  0
    1.3810   -3.1830    2.5200 H   0  0  0  0  0  0  0  0  0  0  0  0
   -1.0120   -2.4200    2.3100 H   0  0  0  0  0  0  0  0  0  0  0  0
   -1.7860   -2.3570   -0.0200 H   0  0  0  0  0  0  0  0  0  0  0  0
   -0.5010   -3.3200   -0.4600 H   0  0  0  0  0  0  0  0  0  0  0  0
    2.6540    2.3090   -2.4240 C   0  0  0  0  0  0  0  0  0  0  0  0
    2.1740    0.6900   -1.8310 S   0  0  0  0  0  0  0  0  0  0  0  0
    3.0720    0.1070   -0.4080 C   0  0  0  0  0  0  0  0  0  0  0  0
    2.8490    0.8100    0.8710 C   0  0  0  0  0  0  0  0  0  0  0  0
    1.5030    0.7780    1.4780 C   0  0  2  0  0  0  0  0  0  0  0  0
    0.9590   -0.4790    1.8290 N   0  0  0  0  0  0  0  0  0  0  0  0
    0.5730    1.7520    0.8530 C   0  0  0  0  0  0  0  0  0  0  0  0
    1.0280    2.7820    0.2890 O   0  0  0  0  0  0  0  0  0  0  0  0
    1.7490    2.8120   -2.8750 H   0  0  0  0  0  0  0  0  0  0  0  0
    3.0220    2.9830   -1.6240 H   0  0  0  0  0  0  0  0  0  0  0  0
    3.3820    2.2440   -3.2750 H   0  0  0  0  0  0  0  0  0  0  0  0
    4.1680    0.1130   -0.6750 H   0  0  0  0  0  0  0  0  0  0  0  0
    2.8170   -0.9740   -0.2740 H   0  0  0  0  0  0  0  0  0  0  0  0
    3.2070    1.8900    0.8220 H   0  0  0  0  0  0  0  0  0  0  0  0
    3.5780    0.3700    1.6240 H   0  0  0  0  0  0  0  0  0  0  0  0
    1.6620    1.3250    2.5250 H   0  0  0  0  0  0  0  0  0  0  0  0
    1.1470   -0.9010    2.7970 H   0  0  0  0  0  0  0  0  0  0  0  0
   -2.4960    2.0220   -0.9340 C   0  0  0  0  0  0  0  0  0  0  0  0
   -1.6870    2.6140    0.1990 C   0  0  2  0  0  0  0  0  0  0  0  0
   -0.8380    1.6250    0.8390 N   0  0  0  0  0  0  0  0  0  0  0  0
   -2.5910    3.2410    1.1730 C   0  0  0  0  0  0  0  0  0  0  0  0
   -3.4000    4.1290    0.7780 O   0  0  0  0  0  0  0  0  0  0  0  0
   -2.5290    2.8380    2.4990 O   0  0  0  0  0  0  0  0  0  0  0  0
   -1.9100    1.3100   -1.5470 H   0  0  0  0  0  0  0  0  0  0  0  0
   -3.3820    1.4780   -0.5490 H   0  0  0  0  0  0  0  0  0  0  0  0
   -2.7840    2.8530   -1.6220 H   0  0  0  0  0  0  0  0  0  0  0  0
   -1.0240    3.3930   -0.2230 H   0  0  0  0  0  0  0  0  0  0  0  0
   -1.3210    0.8240    1.3160 H   0  0  0  0  0  0  0  0  0  0  0  0
  1 10  1  0  0  0  0
  2  1  1  0  0  0  0
  2  3  2  0  0  0  0
  4 13  1  0  0  0  0
  4  2  1  0  0  0  0
  5  4  1  0  0  0  0
  5 15  1  0  0  0  0
  6  5  1  0  0  0  0
  6 16  1  1  0  0  0
  7  6  1  0  0  0  0
  8  6  1  0  0  0  0
  8 24  1  0  0  0  0
  9  8  2  0  0  0  0
 11  1  1  0  0  0  0
 12  4  1  0  0  0  0
 14  5  1  0  0  0  0
 17  7  1  0  0  0  0
 18  7  1  0  0  0  0
 19 20  1  0  0  0  0
 19 28  1  0  0  0  0
 20 21  1  0  0  0  0
 21 31  1  0  0  0  0
 21 22  1  0  0  0  0
 22 23  1  0  0  0  0
 22 33  1  0  0  0  0
 23 24  1  0  0  0  0
 23 34  1  1  0  0  0
 24 35  1  0  0  0  0
 25 23  1  0  0  0  0
 26 25  2  0  0  0  0
 27 19  1  0  0  0  0
 29 19  1  0  0  0  0
 30 21  1  0  0  0  0
 32 22  1  0  0  0  0
 36 43  1  0  0  0  0
 36 37  1  0  0  0  0
 37 45  1  6  0  0  0
 37 38  1  0  0  0  0
 37 39  1  0  0  0  0
 38 25  1  0  0  0  0
 38 46  1  0  0  0  0
 39 41  1  0  0  0  0
 40 39  2  0  0  0  0
 42 36  1  0  0  0  0
 44 36  1  0  0  0  0
M  END
$$$$
