QMD.pdb
 OpenBabel07022418333D

 49 48  0  0  1  0  0  0  0  0999 V2000
   -1.3510   -1.8870    5.7500 N   0  0  0  0  0  0  0  0  0  0  0  0
   -1.1200   -1.3060    4.4650 C   0  0  0  0  0  0  0  0  0  0  0  0
   -1.1890   -2.0840    3.4730 O   0  0  0  0  0  0  0  0  0  0  0  0
   -0.8120    0.1290    4.2630 C   0  0  0  0  0  0  0  0  0  0  0  0
   -0.5710    0.3550    2.7890 C   0  0  0  0  0  0  0  0  0  0  0  0
   -0.2360    1.7830    2.4560 C   0  0  2  0  0  0  0  0  0  0  0  0
   -1.2630    2.7000    2.8200 N   0  0  0  0  0  0  0  0  0  0  0  0
    0.1500    1.8400    1.0210 C   0  0  0  0  0  0  0  0  0  0  0  0
   -0.3480    2.7200    0.2940 O   0  0  0  0  0  0  0  0  0  0  0  0
   -0.7900   -2.6840    6.1030 H   0  0  0  0  0  0  0  0  0  0  0  0
   -2.1010   -1.5190    6.3700 H   0  0  0  0  0  0  0  0  0  0  0  0
    0.0150    0.4820    4.9070 H   0  0  0  0  0  0  0  0  0  0  0  0
   -1.7370    0.6890    4.5770 H   0  0  0  0  0  0  0  0  0  0  0  0
    0.1800   -0.3740    2.4410 H   0  0  0  0  0  0  0  0  0  0  0  0
   -1.5280    0.0320    2.2820 H   0  0  0  0  0  0  0  0  0  0  0  0
    0.6920    2.0470    3.0210 H   0  0  0  0  0  0  0  0  0  0  0  0
   -1.2050    3.6000    2.3220 H   0  0  0  0  0  0  0  0  0  0  0  0
   -1.2590    2.8450    3.8400 H   0  0  0  0  0  0  0  0  0  0  0  0
    3.6070   -3.3240   -1.0450 C   0  0  0  0  0  0  0  0  0  0  0  0
    2.7800   -1.8390   -1.6490 S   0  0  0  0  0  0  0  0  0  0  0  0
    3.5380   -0.3960   -0.8510 C   0  0  0  0  0  0  0  0  0  0  0  0
    2.8620    0.8800   -1.2770 C   0  0  0  0  0  0  0  0  0  0  0  0
    1.4350    0.9970   -0.9480 C   0  0  2  0  0  0  0  0  0  0  0  0
    1.0500    0.9560    0.4190 N   0  0  0  0  0  0  0  0  0  0  0  0
    0.5250    0.0840   -1.7080 C   0  0  0  0  0  0  0  0  0  0  0  0
    0.6880   -0.2130   -2.9180 O   0  0  0  0  0  0  0  0  0  0  0  0
    4.1840   -3.8350   -1.8440 H   0  0  0  0  0  0  0  0  0  0  0  0
    2.9030   -4.0470   -0.5610 H   0  0  0  0  0  0  0  0  0  0  0  0
    4.3060   -3.0320   -0.2400 H   0  0  0  0  0  0  0  0  0  0  0  0
    4.5850   -0.3860   -1.2130 H   0  0  0  0  0  0  0  0  0  0  0  0
    3.4740   -0.5760    0.2390 H   0  0  0  0  0  0  0  0  0  0  0  0
    2.9540    0.8980   -2.4030 H   0  0  0  0  0  0  0  0  0  0  0  0
    3.3980    1.7820   -0.9470 H   0  0  0  0  0  0  0  0  0  0  0  0
    1.0890    2.0230   -1.3120 H   0  0  0  0  0  0  0  0  0  0  0  0
    1.4830    0.2000    1.0250 H   0  0  0  0  0  0  0  0  0  0  0  0
   -0.5900   -0.4830   -1.0410 N   0  0  0  0  0  0  0  0  0  0  0  0
   -1.5300   -1.3690   -1.6800 C   0  0  1  0  0  0  0  0  0  0  0  0
   -1.8870   -2.5560   -0.8320 C   0  0  0  0  0  0  0  0  0  0  0  0
   -0.7510   -3.4070   -0.4550 C   0  0  0  0  0  0  0  0  0  0  0  0
    0.2550   -2.9120    0.1280 O   0  0  0  0  0  0  0  0  0  0  0  0
   -2.7890   -0.6320   -2.0350 C   0  0  0  0  0  0  0  0  0  0  0  0
   -3.7150   -1.2460   -2.5940 O   0  0  0  0  0  0  0  0  0  0  0  0
   -0.7190   -4.7590   -0.7110 O   0  0  0  0  0  0  0  0  0  0  0  0
   -2.9060    0.6920   -1.7450 O   0  0  0  0  0  0  0  0  0  0  0  0
   -0.7950   -0.2810   -0.0220 H   0  0  0  0  0  0  0  0  0  0  0  0
   -1.0830   -1.7270   -2.6270 H   0  0  0  0  0  0  0  0  0  0  0  0
   -2.3310   -2.1260    0.1140 H   0  0  0  0  0  0  0  0  0  0  0  0
   -2.6930   -3.1690   -1.2880 H   0  0  0  0  0  0  0  0  0  0  0  0
   -0.1960   -5.4410   -0.1860 H   0  0  0  0  0  0  0  0  0  0  0  0
  1 10  1  0  0  0  0
  1 11  1  0  0  0  0
  2  1  1  0  0  0  0
  3  2  2  0  0  0  0
  4  2  1  0  0  0  0
  4 13  1  0  0  0  0
  4 12  1  0  0  0  0
  5  4  1  0  0  0  0
  6  5  1  0  0  0  0
  6  7  1  0  0  0  0
  6 16  1  1  0  0  0
  7 18  1  0  0  0  0
  8  6  1  0  0  0  0
  9  8  2  0  0  0  0
 14  5  1  0  0  0  0
 15  5  1  0  0  0  0
 17  7  1  0  0  0  0
 19 28  1  0  0  0  0
 19 29  1  0  0  0  0
 20 19  1  0  0  0  0
 20 21  1  0  0  0  0
 21 31  1  0  0  0  0
 22 23  1  0  0  0  0
 22 33  1  0  0  0  0
 22 21  1  0  0  0  0
 23 34  1  6  0  0  0
 23 24  1  0  0  0  0
 24  8  1  0  0  0  0
 24 35  1  0  0  0  0
 25 36  1  0  0  0  0
 25 23  1  0  0  0  0
 26 25  2  0  0  0  0
 27 19  1  0  0  0  0
 30 21  1  0  0  0  0
 32 22  1  0  0  0  0
 36 45  1  0  0  0  0
 37 46  1  6  0  0  0
 37 36  1  0  0  0  0
 37 38  1  0  0  0  0
 38 39  1  0  0  0  0
 38 47  1  0  0  0  0
 39 40  2  0  0  0  0
 41 44  1  0  0  0  0
 41 37  1  0  0  0  0
 42 41  2  0  0  0  0
 43 39  1  0  0  0  0
 43 49  1  0  0  0  0
 48 38  1  0  0  0  0
M  END
$$$$
