QMF.pdb
 OpenBabel07022418333D

 56 56  0  0  1  0  0  0  0  0999 V2000
   -0.8350   -5.0820   -0.3170 N   0  0  0  0  0  0  0  0  0  0  0  0
   -0.3020   -3.7890   -0.6320 C   0  0  0  0  0  0  0  0  0  0  0  0
    0.1190   -3.1130    0.3080 O   0  0  0  0  0  0  0  0  0  0  0  0
   -0.2910   -3.3620   -2.0090 C   0  0  0  0  0  0  0  0  0  0  0  0
    0.3420   -2.0870   -2.3910 C   0  0  0  0  0  0  0  0  0  0  0  0
    1.7810   -1.8870   -2.1410 C   0  0  2  0  0  0  0  0  0  0  0  0
    2.6290   -2.8790   -2.7720 N   0  0  0  0  0  0  0  0  0  0  0  0
    2.1360   -1.5590   -0.7640 C   0  0  0  0  0  0  0  0  0  0  0  0
    2.9730   -2.2390   -0.1190 O   0  0  0  0  0  0  0  0  0  0  0  0
   -0.4070   -5.9640   -0.6410 H   0  0  0  0  0  0  0  0  0  0  0  0
   -1.6970   -5.1680    0.2670 H   0  0  0  0  0  0  0  0  0  0  0  0
    0.0360   -4.1990   -2.7120 H   0  0  0  0  0  0  0  0  0  0  0  0
   -1.3910   -3.2580   -2.3120 H   0  0  0  0  0  0  0  0  0  0  0  0
   -0.2260   -1.2530   -1.9110 H   0  0  0  0  0  0  0  0  0  0  0  0
    0.1720   -1.9600   -3.5000 H   0  0  0  0  0  0  0  0  0  0  0  0
    2.0480   -0.9230   -2.7250 H   0  0  0  0  0  0  0  0  0  0  0  0
    2.5580   -2.7480   -3.8030 H   0  0  0  0  0  0  0  0  0  0  0  0
    2.3730   -3.8290   -2.4560 H   0  0  0  0  0  0  0  0  0  0  0  0
    3.8210   -0.9870    3.9480 C   0  0  0  0  0  0  0  0  0  0  0  0
    4.3950    0.5930    3.4150 S   0  0  0  0  0  0  0  0  0  0  0  0
    3.2110    1.6350    2.5980 C   0  0  0  0  0  0  0  0  0  0  0  0
    2.7050    1.1720    1.2850 C   0  0  0  0  0  0  0  0  0  0  0  0
    1.9090   -0.1020    1.2930 C   0  0  2  0  0  0  0  0  0  0  0  0
    1.5470   -0.4430   -0.1020 N   0  0  0  0  0  0  0  0  0  0  0  0
    0.6370    0.0590    2.0730 C   0  0  0  0  0  0  0  0  0  0  0  0
    0.7150    0.3820    3.2730 O   0  0  0  0  0  0  0  0  0  0  0  0
    4.1410   -1.7780    3.1980 H   0  0  0  0  0  0  0  0  0  0  0  0
    4.2760   -1.2700    4.9370 H   0  0  0  0  0  0  0  0  0  0  0  0
    2.7430   -1.0790    4.1040 H   0  0  0  0  0  0  0  0  0  0  0  0
    3.7230    2.6510    2.4390 H   0  0  0  0  0  0  0  0  0  0  0  0
    2.3880    1.8830    3.3030 H   0  0  0  0  0  0  0  0  0  0  0  0
    2.0890    1.9820    0.8160 H   0  0  0  0  0  0  0  0  0  0  0  0
    3.5720    1.0400    0.5800 H   0  0  0  0  0  0  0  0  0  0  0  0
    2.5020   -0.9000    1.7290 H   0  0  0  0  0  0  0  0  0  0  0  0
    0.8620    0.1310   -0.6150 H   0  0  0  0  0  0  0  0  0  0  0  0
   -0.6570   -0.1380    1.5030 N   0  0  0  0  0  0  0  0  0  0  0  0
   -1.8510    0.0360    2.2680 C   0  0  1  0  0  0  0  0  0  0  0  0
   -2.6640    1.2300    1.7890 C   0  0  0  0  0  0  0  0  0  0  0  0
   -3.0900    1.1270    0.3950 C   0  0  0  0  0  0  0  0  0  0  0  0
   -4.2860    0.5370    0.0580 C   0  0  0  0  0  0  0  0  0  0  0  0
   -4.6280    0.4740   -1.2780 C   0  0  0  0  0  0  0  0  0  0  0  0
   -3.8360    0.9700   -2.3000 C   0  0  0  0  0  0  0  0  0  0  0  0
   -2.6500    1.5530   -1.9300 C   0  0  0  0  0  0  0  0  0  0  0  0
   -2.2840    1.6290   -0.6060 C   0  0  0  0  0  0  0  0  0  0  0  0
   -2.6730   -1.1630    2.4150 C   0  0  0  0  0  0  0  0  0  0  0  0
   -3.7660   -1.1030    3.0830 O   0  0  0  0  0  0  0  0  0  0  0  0
   -2.4010   -2.4180    1.8930 O   0  0  0  0  0  0  0  0  0  0  0  0
   -0.7110   -0.4160    0.5100 H   0  0  0  0  0  0  0  0  0  0  0  0
   -1.5360    0.3290    3.3160 H   0  0  0  0  0  0  0  0  0  0  0  0
   -3.5900    1.2350    2.4250 H   0  0  0  0  0  0  0  0  0  0  0  0
   -2.0750    2.1330    2.0290 H   0  0  0  0  0  0  0  0  0  0  0  0
   -4.9590    0.1230    0.8290 H   0  0  0  0  0  0  0  0  0  0  0  0
   -5.5910   -0.0040   -1.5190 H   0  0  0  0  0  0  0  0  0  0  0  0
   -4.1780    0.8810   -3.3270 H   0  0  0  0  0  0  0  0  0  0  0  0
   -1.9970    1.9540   -2.6750 H   0  0  0  0  0  0  0  0  0  0  0  0
   -1.3290    2.1000   -0.3290 H   0  0  0  0  0  0  0  0  0  0  0  0
  1 11  1  0  0  0  0
  2  1  1  0  0  0  0
  2  3  2  0  0  0  0
  4  2  1  0  0  0  0
  5  6  1  0  0  0  0
  5  4  1  0  0  0  0
  5 14  1  0  0  0  0
  6 16  1  6  0  0  0
  6  8  1  0  0  0  0
  7 18  1  0  0  0  0
  7  6  1  0  0  0  0
  8  9  2  0  0  0  0
  8 24  1  0  0  0  0
 10  1  1  0  0  0  0
 12  4  1  0  0  0  0
 13  4  1  0  0  0  0
 15  5  1  0  0  0  0
 17  7  1  0  0  0  0
 19 29  1  0  0  0  0
 19 28  1  0  0  0  0
 20 19  1  0  0  0  0
 21 31  1  0  0  0  0
 21 20  1  0  0  0  0
 22 23  1  0  0  0  0
 22 21  1  0  0  0  0
 23 34  1  1  0  0  0
 23 25  1  0  0  0  0
 24 23  1  0  0  0  0
 25 26  2  0  0  0  0
 27 19  1  0  0  0  0
 30 21  1  0  0  0  0
 32 22  1  0  0  0  0
 33 22  1  0  0  0  0
 35 24  1  0  0  0  0
 36 25  1  0  0  0  0
 36 37  1  0  0  0  0
 37 45  1  0  0  0  0
 37 49  1  1  0  0  0
 38 51  1  0  0  0  0
 38 37  1  0  0  0  0
 38 50  1  0  0  0  0
 39 38  1  0  0  0  0
 40 39  1  0  0  0  0
 40 52  1  0  0  0  0
 41 40  2  0  0  0  0
 42 43  2  0  0  0  0
 42 41  1  0  0  0  0
 43 44  1  0  0  0  0
 44 56  1  0  0  0  0
 44 39  2  0  0  0  0
 45 46  1  0  0  0  0
 47 45  2  0  0  0  0
 48 36  1  0  0  0  0
 53 41  1  0  0  0  0
 54 42  1  0  0  0  0
 55 43  1  0  0  0  0
M  END
$$$$
