QMG.pdb
 OpenBabel07022418333D

 43 42  0  0  1  0  0  0  0  0999 V2000
    2.7830   -6.5300    1.3580 N   0  0  0  0  0  0  0  0  0  0  0  0
    2.7380   -5.1240    1.3660 C   0  0  0  0  0  0  0  0  0  0  0  0
    3.6060   -4.4340    1.9580 O   0  0  0  0  0  0  0  0  0  0  0  0
    1.6480   -4.4180    0.6620 C   0  0  0  0  0  0  0  0  0  0  0  0
    1.7630   -2.9140    0.7960 C   0  0  0  0  0  0  0  0  0  0  0  0
    0.6170   -2.3050    0.0530 C   0  0  2  0  0  0  0  0  0  0  0  0
    0.6260   -2.6510   -1.3430 N   0  0  0  0  0  0  0  0  0  0  0  0
    0.5110   -0.8270    0.2220 C   0  0  0  0  0  0  0  0  0  0  0  0
    0.4500   -0.1710   -0.8420 O   0  0  0  0  0  0  0  0  0  0  0  0
    2.0120   -7.0900    0.9350 H   0  0  0  0  0  0  0  0  0  0  0  0
    3.6060   -7.0040    1.7880 H   0  0  0  0  0  0  0  0  0  0  0  0
    0.6530   -4.7680    1.0080 H   0  0  0  0  0  0  0  0  0  0  0  0
    1.7070   -4.6490   -0.4360 H   0  0  0  0  0  0  0  0  0  0  0  0
    2.7400   -2.6410    0.3200 H   0  0  0  0  0  0  0  0  0  0  0  0
    1.8200   -2.6430    1.8470 H   0  0  0  0  0  0  0  0  0  0  0  0
   -0.3360   -2.7260    0.4740 H   0  0  0  0  0  0  0  0  0  0  0  0
    1.5690   -2.9830   -1.6540 H   0  0  0  0  0  0  0  0  0  0  0  0
    0.2520   -1.9140   -1.9620 H   0  0  0  0  0  0  0  0  0  0  0  0
    1.1960    2.5230   -2.8700 C   0  0  0  0  0  0  0  0  0  0  0  0
    2.2330    3.1180   -1.5080 S   0  0  0  0  0  0  0  0  0  0  0  0
    2.0670    2.0160   -0.0510 C   0  0  0  0  0  0  0  0  0  0  0  0
    0.6900    2.1030    0.4890 C   0  0  0  0  0  0  0  0  0  0  0  0
    0.3980    1.2040    1.6750 C   0  0  2  0  0  0  0  0  0  0  0  0
    0.4780   -0.1910    1.4500 N   0  0  0  0  0  0  0  0  0  0  0  0
   -0.8170    1.6980    2.3340 C   0  0  0  0  0  0  0  0  0  0  0  0
   -0.9500    2.9370    2.5600 O   0  0  0  0  0  0  0  0  0  0  0  0
    1.4940    1.5170   -3.2070 H   0  0  0  0  0  0  0  0  0  0  0  0
    0.1140    2.5470   -2.6060 H   0  0  0  0  0  0  0  0  0  0  0  0
    1.3340    3.2380   -3.7050 H   0  0  0  0  0  0  0  0  0  0  0  0
    2.7140    2.5700    0.7370 H   0  0  0  0  0  0  0  0  0  0  0  0
    2.5550    1.0700   -0.1580 H   0  0  0  0  0  0  0  0  0  0  0  0
    0.4840    3.1510    0.8830 H   0  0  0  0  0  0  0  0  0  0  0  0
   -0.0520    1.9890   -0.3190 H   0  0  0  0  0  0  0  0  0  0  0  0
    1.2770    1.4860    2.4100 H   0  0  0  0  0  0  0  0  0  0  0  0
    0.5190   -0.8260    2.3090 H   0  0  0  0  0  0  0  0  0  0  0  0
   -1.8640    0.8190    2.7310 N   0  0  0  0  0  0  0  0  0  0  0  0
   -3.0600    1.2960    3.3780 C   0  0  0  0  0  0  0  0  0  0  0  0
   -3.7950    2.2640    2.5180 C   0  0  0  0  0  0  0  0  0  0  0  0
   -4.8590    2.7670    2.9540 O   0  0  0  0  0  0  0  0  0  0  0  0
   -3.3590    2.6360    1.2570 O   0  0  0  0  0  0  0  0  0  0  0  0
   -1.7230   -0.1940    2.5300 H   0  0  0  0  0  0  0  0  0  0  0  0
   -3.7320    0.4730    3.6360 H   0  0  0  0  0  0  0  0  0  0  0  0
   -2.7810    1.8220    4.3340 H   0  0  0  0  0  0  0  0  0  0  0  0
  1  2  1  0  0  0  0
  1 11  1  0  0  0  0
  2  3  2  0  0  0  0
  4  5  1  0  0  0  0
  4 12  1  0  0  0  0
  4  2  1  0  0  0  0
  5 15  1  0  0  0  0
  6  8  1  0  0  0  0
  6 16  1  1  0  0  0
  6  5  1  0  0  0  0
  7  6  1  0  0  0  0
  8 24  1  0  0  0  0
  9  8  2  0  0  0  0
 10  1  1  0  0  0  0
 13  4  1  0  0  0  0
 14  5  1  0  0  0  0
 17  7  1  0  0  0  0
 18  7  1  0  0  0  0
 19 28  1  0  0  0  0
 19 20  1  0  0  0  0
 20 21  1  0  0  0  0
 21 22  1  0  0  0  0
 21 30  1  0  0  0  0
 22 32  1  0  0  0  0
 22 23  1  0  0  0  0
 23 25  1  0  0  0  0
 23 34  1  1  0  0  0
 24 23  1  0  0  0  0
 24 35  1  0  0  0  0
 25 26  2  0  0  0  0
 25 36  1  0  0  0  0
 27 19  1  0  0  0  0
 29 19  1  0  0  0  0
 31 21  1  0  0  0  0
 33 22  1  0  0  0  0
 36 37  1  0  0  0  0
 37 42  1  0  0  0  0
 37 43  1  0  0  0  0
 38 39  1  0  0  0  0
 38 37  1  0  0  0  0
 40 38  2  0  0  0  0
 41 36  1  0  0  0  0
M  END
$$$$
