QMH.pdb
 OpenBabel07022418333D

 53 53  0  0  1  0  0  0  0  0999 V2000
   -1.0490   -4.5960    3.6720 N   0  0  0  0  0  0  0  0  0  0  0  0
    0.2360   -3.9420    3.5730 C   0  0  0  0  0  0  0  0  0  0  0  0
    0.9300   -3.8900    4.6090 O   0  0  0  0  0  0  0  0  0  0  0  0
    0.6080   -3.4040    2.2740 C   0  0  0  0  0  0  0  0  0  0  0  0
    1.8180   -2.5660    2.1860 C   0  0  0  0  0  0  0  0  0  0  0  0
    1.8520   -1.2980    2.9560 C   0  0  2  0  0  0  0  0  0  0  0  0
    1.7180   -1.4330    4.3800 N   0  0  0  0  0  0  0  0  0  0  0  0
    0.9650   -0.2500    2.4120 C   0  0  0  0  0  0  0  0  0  0  0  0
    0.2060    0.3640    3.1820 O   0  0  0  0  0  0  0  0  0  0  0  0
   -1.1500   -5.5460    4.0770 H   0  0  0  0  0  0  0  0  0  0  0  0
   -1.9060   -4.1060    3.3280 H   0  0  0  0  0  0  0  0  0  0  0  0
    0.7970   -4.3060    1.6100 H   0  0  0  0  0  0  0  0  0  0  0  0
   -0.2870   -2.9290    1.7560 H   0  0  0  0  0  0  0  0  0  0  0  0
    2.6960   -3.1700    2.5300 H   0  0  0  0  0  0  0  0  0  0  0  0
    2.0300   -2.3530    1.1190 H   0  0  0  0  0  0  0  0  0  0  0  0
    2.9010   -0.8830    2.8050 H   0  0  0  0  0  0  0  0  0  0  0  0
    2.6200   -1.6300    4.8210 H   0  0  0  0  0  0  0  0  0  0  0  0
    1.1320   -0.7260    4.8320 H   0  0  0  0  0  0  0  0  0  0  0  0
    4.0200    3.5120   -1.0190 C   0  0  0  0  0  0  0  0  0  0  0  0
    2.7850    4.1970    0.1160 S   0  0  0  0  0  0  0  0  0  0  0  0
    1.8150    2.8680    0.8790 C   0  0  0  0  0  0  0  0  0  0  0  0
    0.9870    2.1760   -0.1830 C   0  0  0  0  0  0  0  0  0  0  0  0
    0.1540    1.0510    0.4160 C   0  0  2  0  0  0  0  0  0  0  0  0
    0.9800    0.0490    1.0400 N   0  0  0  0  0  0  0  0  0  0  0  0
   -0.6530    0.4950   -0.7190 C   0  0  0  0  0  0  0  0  0  0  0  0
   -1.4020    1.2760   -1.3320 O   0  0  0  0  0  0  0  0  0  0  0  0
    3.5830    2.6570   -1.5560 H   0  0  0  0  0  0  0  0  0  0  0  0
    4.8910    3.1760   -0.4160 H   0  0  0  0  0  0  0  0  0  0  0  0
    4.3300    4.2640   -1.7830 H   0  0  0  0  0  0  0  0  0  0  0  0
    2.5180    2.1380    1.3260 H   0  0  0  0  0  0  0  0  0  0  0  0
    1.1250    3.3260    1.5970 H   0  0  0  0  0  0  0  0  0  0  0  0
    0.3430    2.9100   -0.7050 H   0  0  0  0  0  0  0  0  0  0  0  0
    1.7000    1.7840   -0.9380 H   0  0  0  0  0  0  0  0  0  0  0  0
   -0.4670    1.5050    1.1980 H   0  0  0  0  0  0  0  0  0  0  0  0
    1.6340   -0.4880    0.4320 H   0  0  0  0  0  0  0  0  0  0  0  0
   -0.5940   -0.8620   -1.1110 N   0  0  0  0  0  0  0  0  0  0  0  0
   -1.3170   -1.5080   -2.1520 C   0  0  1  0  0  0  0  0  0  0  0  0
   -2.7400   -1.0290   -2.3690 C   0  0  0  0  0  0  0  0  0  0  0  0
   -3.5190   -1.2830   -1.1360 C   0  0  0  0  0  0  0  0  0  0  0  0
   -3.7720   -0.5260   -0.0320 C   0  0  0  0  0  0  0  0  0  0  0  0
   -4.5640   -1.2370    0.8150 N   0  0  0  0  0  0  0  0  0  0  0  0
   -4.8030   -2.4260    0.2440 C   0  0  0  0  0  0  0  0  0  0  0  0
   -4.1790   -2.4630   -0.9280 N   0  0  0  0  0  0  0  0  0  0  0  0
   -0.6050   -1.6970   -3.4100 C   0  0  0  0  0  0  0  0  0  0  0  0
    0.6010   -1.2880   -3.5230 O   0  0  0  0  0  0  0  0  0  0  0  0
   -1.1430   -2.3030   -4.5340 O   0  0  0  0  0  0  0  0  0  0  0  0
    0.0950   -1.4350   -0.5250 H   0  0  0  0  0  0  0  0  0  0  0  0
   -1.5250   -2.5690   -1.7130 H   0  0  0  0  0  0  0  0  0  0  0  0
   -3.1520   -1.6370   -3.2280 H   0  0  0  0  0  0  0  0  0  0  0  0
   -2.7190    0.0350   -2.6240 H   0  0  0  0  0  0  0  0  0  0  0  0
   -3.4200    0.4710    0.1580 H   0  0  0  0  0  0  0  0  0  0  0  0
   -4.9000   -0.8730    1.7370 H   0  0  0  0  0  0  0  0  0  0  0  0
   -5.4200   -3.1850    0.7290 H   0  0  0  0  0  0  0  0  0  0  0  0
  1 10  1  0  0  0  0
  2  1  1  0  0  0  0
  2  3  2  0  0  0  0
  4  2  1  0  0  0  0
  5  4  1  0  0  0  0
  5 14  1  0  0  0  0
  5  6  1  0  0  0  0
  6 16  1  6  0  0  0
  6  7  1  0  0  0  0
  7 17  1  0  0  0  0
  7 18  1  0  0  0  0
  8  6  1  0  0  0  0
  8  9  2  0  0  0  0
 11  1  1  0  0  0  0
 12  4  1  0  0  0  0
 13  4  1  0  0  0  0
 15  5  1  0  0  0  0
 19 28  1  0  0  0  0
 19 20  1  0  0  0  0
 20 21  1  0  0  0  0
 21 30  1  0  0  0  0
 21 31  1  0  0  0  0
 22 23  1  0  0  0  0
 22 21  1  0  0  0  0
 23 24  1  0  0  0  0
 23 34  1  1  0  0  0
 24  8  1  0  0  0  0
 25 23  1  0  0  0  0
 26 25  2  0  0  0  0
 27 19  1  0  0  0  0
 29 19  1  0  0  0  0
 32 22  1  0  0  0  0
 33 22  1  0  0  0  0
 35 24  1  0  0  0  0
 36 25  1  0  0  0  0
 36 47  1  0  0  0  0
 37 48  1  1  0  0  0
 37 36  1  0  0  0  0
 38 37  1  0  0  0  0
 38 39  1  0  0  0  0
 39 43  1  0  0  0  0
 39 40  2  0  0  0  0
 40 51  1  0  0  0  0
 40 41  1  0  0  0  0
 41 52  1  0  0  0  0
 42 53  1  0  0  0  0
 42 41  1  0  0  0  0
 43 42  2  0  0  0  0
 44 37  1  0  0  0  0
 45 44  1  0  0  0  0
 46 44  2  0  0  0  0
 49 38  1  0  0  0  0
 50 38  1  0  0  0  0
M  END
$$$$
