QMK.pdb
 OpenBabel07022418333D

 57 56  0  0  1  0  0  0  0  0999 V2000
    4.8100   -4.0360    1.6830 N   0  0  0  0  0  0  0  0  0  0  0  0
    3.7400   -3.1020    1.6280 C   0  0  0  0  0  0  0  0  0  0  0  0
    4.0240   -1.9240    1.9580 O   0  0  0  0  0  0  0  0  0  0  0  0
    2.3810   -3.4260    1.2230 C   0  0  0  0  0  0  0  0  0  0  0  0
    1.3790   -2.3430    1.2730 C   0  0  0  0  0  0  0  0  0  0  0  0
    1.1200   -1.7230    2.6030 C   0  0  2  0  0  0  0  0  0  0  0  0
    0.6470   -2.7550    3.5150 N   0  0  0  0  0  0  0  0  0  0  0  0
    0.1340   -0.6330    2.5630 C   0  0  0  0  0  0  0  0  0  0  0  0
   -0.8220   -0.6580    3.3900 O   0  0  0  0  0  0  0  0  0  0  0  0
    5.7910   -3.7900    1.8330 H   0  0  0  0  0  0  0  0  0  0  0  0
    4.5690   -5.0430    1.5600 H   0  0  0  0  0  0  0  0  0  0  0  0
    2.3950   -3.8420    0.1730 H   0  0  0  0  0  0  0  0  0  0  0  0
    2.0360   -4.2910    1.8550 H   0  0  0  0  0  0  0  0  0  0  0  0
    0.4000   -2.7850    0.9240 H   0  0  0  0  0  0  0  0  0  0  0  0
    1.6150   -1.5750    0.4960 H   0  0  0  0  0  0  0  0  0  0  0  0
    2.0690   -1.3140    3.0040 H   0  0  0  0  0  0  0  0  0  0  0  0
    1.3500   -3.0750    4.1860 H   0  0  0  0  0  0  0  0  0  0  0  0
    0.1790   -3.5150    2.9750 H   0  0  0  0  0  0  0  0  0  0  0  0
    2.5630    1.6370    2.9840 C   0  0  0  0  0  0  0  0  0  0  0  0
    2.1510    3.0480    1.9610 S   0  0  0  0  0  0  0  0  0  0  0  0
    0.4640    3.5770    1.9810 C   0  0  0  0  0  0  0  0  0  0  0  0
   -0.5740    2.7870    1.2930 C   0  0  0  0  0  0  0  0  0  0  0  0
   -0.8550    1.4340    1.7240 C   0  0  2  0  0  0  0  0  0  0  0  0
    0.1790    0.4690    1.6370 N   0  0  0  0  0  0  0  0  0  0  0  0
   -2.0600    0.8780    0.9560 C   0  0  0  0  0  0  0  0  0  0  0  0
   -3.0960    1.5620    0.9050 O   0  0  0  0  0  0  0  0  0  0  0  0
    1.8010    1.3610    3.7230 H   0  0  0  0  0  0  0  0  0  0  0  0
    2.8660    0.7570    2.3690 H   0  0  0  0  0  0  0  0  0  0  0  0
    3.4760    1.8950    3.5890 H   0  0  0  0  0  0  0  0  0  0  0  0
    0.4480    4.6280    1.5000 H   0  0  0  0  0  0  0  0  0  0  0  0
    0.1340    3.7920    3.0640 H   0  0  0  0  0  0  0  0  0  0  0  0
   -0.3510    2.7320    0.1630 H   0  0  0  0  0  0  0  0  0  0  0  0
   -1.5460    3.3990    1.2900 H   0  0  0  0  0  0  0  0  0  0  0  0
   -1.2500    1.4120    2.8000 H   0  0  0  0  0  0  0  0  0  0  0  0
    0.9610    0.5040    0.9380 H   0  0  0  0  0  0  0  0  0  0  0  0
   -1.9320   -0.3850    0.3440 N   0  0  0  0  0  0  0  0  0  0  0  0
   -3.0170   -0.9930   -0.4020 C   0  0  1  0  0  0  0  0  0  0  0  0
   -2.5060   -1.1900   -1.8400 C   0  0  0  0  0  0  0  0  0  0  0  0
   -2.1490    0.1490   -2.3790 C   0  0  0  0  0  0  0  0  0  0  0  0
   -1.6820    0.0830   -3.7960 C   0  0  0  0  0  0  0  0  0  0  0  0
   -0.4700   -0.7490   -4.0420 C   0  0  0  0  0  0  0  0  0  0  0  0
   -0.6640   -2.1350   -3.7190 N   0  0  0  0  0  0  0  0  0  0  0  0
   -3.3610   -2.3340    0.1390 C   0  0  0  0  0  0  0  0  0  0  0  0
   -4.2880   -2.9910   -0.4040 O   0  0  0  0  0  0  0  0  0  0  0  0
   -2.7080   -2.8950    1.2120 O   0  0  0  0  0  0  0  0  0  0  0  0
   -1.0370   -0.9090    0.4210 H   0  0  0  0  0  0  0  0  0  0  0  0
   -3.8930   -0.3200   -0.3910 H   0  0  0  0  0  0  0  0  0  0  0  0
   -1.6300   -1.8710   -1.7110 H   0  0  0  0  0  0  0  0  0  0  0  0
   -3.3000   -1.7010   -2.4010 H   0  0  0  0  0  0  0  0  0  0  0  0
   -1.3490    0.5860   -1.7160 H   0  0  0  0  0  0  0  0  0  0  0  0
   -3.0780    0.7910   -2.3020 H   0  0  0  0  0  0  0  0  0  0  0  0
   -2.5260   -0.3350   -4.4280 H   0  0  0  0  0  0  0  0  0  0  0  0
   -1.5370    1.1460   -4.1320 H   0  0  0  0  0  0  0  0  0  0  0  0
   -0.2050   -0.6410   -5.1200 H   0  0  0  0  0  0  0  0  0  0  0  0
    0.4010   -0.3320   -3.4720 H   0  0  0  0  0  0  0  0  0  0  0  0
   -1.5890   -2.4940   -4.0230 H   0  0  0  0  0  0  0  0  0  0  0  0
    0.0840   -2.7310   -4.1600 H   0  0  0  0  0  0  0  0  0  0  0  0
  1 10  1  0  0  0  0
  2  1  1  0  0  0  0
  2  3  2  0  0  0  0
  4  5  1  0  0  0  0
  4  2  1  0  0  0  0
  4 13  1  0  0  0  0
  5  6  1  0  0  0  0
  6 16  1  1  0  0  0
  6  7  1  0  0  0  0
  7 17  1  0  0  0  0
  8  6  1  0  0  0  0
  8  9  2  0  0  0  0
 11  1  1  0  0  0  0
 12  4  1  0  0  0  0
 14  5  1  0  0  0  0
 15  5  1  0  0  0  0
 18  7  1  0  0  0  0
 19 29  1  0  0  0  0
 19 27  1  0  0  0  0
 20 21  1  0  0  0  0
 20 19  1  0  0  0  0
 21 31  1  0  0  0  0
 22 23  1  0  0  0  0
 22 21  1  0  0  0  0
 23 34  1  1  0  0  0
 24 23  1  0  0  0  0
 24  8  1  0  0  0  0
 25 23  1  0  0  0  0
 26 25  2  0  0  0  0
 28 19  1  0  0  0  0
 30 21  1  0  0  0  0
 32 22  1  0  0  0  0
 33 22  1  0  0  0  0
 35 24  1  0  0  0  0
 36 46  1  0  0  0  0
 36 25  1  0  0  0  0
 37 47  1  1  0  0  0
 37 43  1  0  0  0  0
 37 36  1  0  0  0  0
 38 48  1  0  0  0  0
 38 37  1  0  0  0  0
 39 51  1  0  0  0  0
 39 38  1  0  0  0  0
 39 50  1  0  0  0  0
 40 39  1  0  0  0  0
 41 40  1  0  0  0  0
 41 42  1  0  0  0  0
 41 55  1  0  0  0  0
 43 45  1  0  0  0  0
 44 43  2  0  0  0  0
 49 38  1  0  0  0  0
 52 40  1  0  0  0  0
 53 40  1  0  0  0  0
 54 41  1  0  0  0  0
 56 42  1  0  0  0  0
 57 42  1  0  0  0  0
M  END
$$$$
