QMM.pdb
 OpenBabel07022418333D

 53 52  0  0  1  0  0  0  0  0999 V2000
    3.5240   -4.2820    1.8720 N   0  0  0  0  0  0  0  0  0  0  0  0
    3.7970   -3.1130    2.6090 C   0  0  0  0  0  0  0  0  0  0  0  0
    4.3570   -3.1660    3.7170 O   0  0  0  0  0  0  0  0  0  0  0  0
    3.4040   -1.7940    2.0400 C   0  0  0  0  0  0  0  0  0  0  0  0
    3.7840   -0.6700    2.9480 C   0  0  0  0  0  0  0  0  0  0  0  0
    3.4300    0.6930    2.3940 C   0  0  2  0  0  0  0  0  0  0  0  0
    3.8630    1.6570    3.4200 N   0  0  0  0  0  0  0  0  0  0  0  0
    1.9900    0.8660    2.1160 C   0  0  0  0  0  0  0  0  0  0  0  0
    1.2240    1.4760    2.9080 O   0  0  0  0  0  0  0  0  0  0  0  0
    2.8670   -4.2700    1.0420 H   0  0  0  0  0  0  0  0  0  0  0  0
    3.9720   -5.1850    2.1390 H   0  0  0  0  0  0  0  0  0  0  0  0
    2.2890   -1.7680    1.9370 H   0  0  0  0  0  0  0  0  0  0  0  0
    3.9330   -1.6740    1.0810 H   0  0  0  0  0  0  0  0  0  0  0  0
    3.3380   -0.7760    3.9710 H   0  0  0  0  0  0  0  0  0  0  0  0
    4.8820   -0.7050    3.0890 H   0  0  0  0  0  0  0  0  0  0  0  0
    4.0390    0.8770    1.5080 H   0  0  0  0  0  0  0  0  0  0  0  0
    4.0130    2.5690    2.9130 H   0  0  0  0  0  0  0  0  0  0  0  0
    4.7950    1.3250    3.7440 H   0  0  0  0  0  0  0  0  0  0  0  0
    2.9240    2.8600   -1.1490 C   0  0  0  0  0  0  0  0  0  0  0  0
    2.1710    1.3090   -1.6380 S   0  0  0  0  0  0  0  0  0  0  0  0
    0.3900    1.3770   -1.7070 C   0  0  0  0  0  0  0  0  0  0  0  0
   -0.2020    1.5780   -0.3570 C   0  0  0  0  0  0  0  0  0  0  0  0
    0.0460    0.4960    0.6520 C   0  0  2  0  0  0  0  0  0  0  0  0
    1.4390    0.3220    0.8950 N   0  0  0  0  0  0  0  0  0  0  0  0
   -0.6460   -0.7400    0.2440 C   0  0  0  0  0  0  0  0  0  0  0  0
   -0.0270   -1.8400    0.1290 O   0  0  0  0  0  0  0  0  0  0  0  0
    3.9190    2.9330   -1.6450 H   0  0  0  0  0  0  0  0  0  0  0  0
    3.0970    2.8300   -0.0460 H   0  0  0  0  0  0  0  0  0  0  0  0
    2.2750    3.7180   -1.3520 H   0  0  0  0  0  0  0  0  0  0  0  0
    0.0380    2.1420   -2.4450 H   0  0  0  0  0  0  0  0  0  0  0  0
   -0.0440    0.4100   -2.1030 H   0  0  0  0  0  0  0  0  0  0  0  0
    0.3040    2.5010    0.0770 H   0  0  0  0  0  0  0  0  0  0  0  0
   -1.2890    1.8480   -0.4010 H   0  0  0  0  0  0  0  0  0  0  0  0
   -0.4900    0.8470    1.5940 H   0  0  0  0  0  0  0  0  0  0  0  0
    2.0930   -0.1780    0.2610 H   0  0  0  0  0  0  0  0  0  0  0  0
   -7.0340   -2.0640   -0.7600 C   0  0  0  0  0  0  0  0  0  0  0  0
   -5.7560   -3.3020   -1.1400 S   0  0  0  0  0  0  0  0  0  0  0  0
   -4.6140   -3.4830    0.2430 C   0  0  0  0  0  0  0  0  0  0  0  0
   -3.7680   -2.3080    0.5530 C   0  0  0  0  0  0  0  0  0  0  0  0
   -2.7830   -1.9350   -0.4450 C   0  0  2  0  0  0  0  0  0  0  0  0
   -2.0130   -0.7440   -0.0320 N   0  0  0  0  0  0  0  0  0  0  0  0
   -3.2550   -1.7870   -1.8120 C   0  0  0  0  0  0  0  0  0  0  0  0
   -3.1900   -0.6060   -2.3390 O   0  0  0  0  0  0  0  0  0  0  0  0
   -3.7680   -2.7440   -2.6550 O   0  0  0  0  0  0  0  0  0  0  0  0
   -8.0490   -2.5350   -0.7710 H   0  0  0  0  0  0  0  0  0  0  0  0
   -6.9040   -1.6300    0.2410 H   0  0  0  0  0  0  0  0  0  0  0  0
   -7.0490   -1.2960   -1.5680 H   0  0  0  0  0  0  0  0  0  0  0  0
   -4.0000   -4.4140    0.0550 H   0  0  0  0  0  0  0  0  0  0  0  0
   -5.2520   -3.7940    1.1200 H   0  0  0  0  0  0  0  0  0  0  0  0
   -3.2440   -2.5780    1.5400 H   0  0  0  0  0  0  0  0  0  0  0  0
   -4.5070   -1.4800    0.7970 H   0  0  0  0  0  0  0  0  0  0  0  0
   -1.9960   -2.7530   -0.4670 H   0  0  0  0  0  0  0  0  0  0  0  0
   -2.5810    0.1220    0.0420 H   0  0  0  0  0  0  0  0  0  0  0  0
  1 11  1  0  0  0  0
  1  2  1  0  0  0  0
  2  3  2  0  0  0  0
  4  2  1  0  0  0  0
  4  5  1  0  0  0  0
  5 15  1  0  0  0  0
  5 14  1  0  0  0  0
  6 16  1  6  0  0  0
  6  5  1  0  0  0  0
  6  7  1  0  0  0  0
  7 18  1  0  0  0  0
  8  6  1  0  0  0  0
  8  9  2  0  0  0  0
 10  1  1  0  0  0  0
 12  4  1  0  0  0  0
 13  4  1  0  0  0  0
 17  7  1  0  0  0  0
 19 28  1  0  0  0  0
 20 19  1  0  0  0  0
 21 20  1  0  0  0  0
 21 22  1  0  0  0  0
 22 32  1  0  0  0  0
 22 23  1  0  0  0  0
 23 24  1  0  0  0  0
 23 34  1  1  0  0  0
 24  8  1  0  0  0  0
 25 23  1  0  0  0  0
 26 25  2  0  0  0  0
 27 19  1  0  0  0  0
 29 19  1  0  0  0  0
 30 21  1  0  0  0  0
 31 21  1  0  0  0  0
 33 22  1  0  0  0  0
 35 24  1  0  0  0  0
 36 46  1  0  0  0  0
 37 36  1  0  0  0  0
 37 38  1  0  0  0  0
 38 39  1  0  0  0  0
 38 49  1  0  0  0  0
 39 51  1  0  0  0  0
 39 50  1  0  0  0  0
 40 52  1  6  0  0  0
 40 41  1  0  0  0  0
 40 39  1  0  0  0  0
 41 53  1  0  0  0  0
 41 25  1  0  0  0  0
 42 40  1  0  0  0  0
 43 42  1  0  0  0  0
 44 42  2  0  0  0  0
 45 36  1  0  0  0  0
 47 36  1  0  0  0  0
 48 38  1  0  0  0  0
M  END
$$$$
