QMN.pdb
 OpenBabel07022418333D

 50 49  0  0  1  0  0  0  0  0999 V2000
    2.4830   -2.3330    4.7540 N   0  0  0  0  0  0  0  0  0  0  0  0
    2.2990   -0.9400    4.7630 C   0  0  0  0  0  0  0  0  0  0  0  0
    2.1280   -0.3350    5.8350 O   0  0  0  0  0  0  0  0  0  0  0  0
    2.3100   -0.1850    3.4650 C   0  0  0  0  0  0  0  0  0  0  0  0
    2.1820    1.2850    3.7030 C   0  0  0  0  0  0  0  0  0  0  0  0
    2.2230    2.1220    2.4560 C   0  0  2  0  0  0  0  0  0  0  0  0
    2.0910    3.5450    2.8790 N   0  0  0  0  0  0  0  0  0  0  0  0
    1.2010    1.8270    1.4500 C   0  0  0  0  0  0  0  0  0  0  0  0
    0.2130    2.6050    1.2710 O   0  0  0  0  0  0  0  0  0  0  0  0
    1.8960   -2.8960    4.0700 H   0  0  0  0  0  0  0  0  0  0  0  0
    3.1680   -2.8070    5.3920 H   0  0  0  0  0  0  0  0  0  0  0  0
    1.4190   -0.5630    2.8750 H   0  0  0  0  0  0  0  0  0  0  0  0
    3.2290   -0.4180    2.9020 H   0  0  0  0  0  0  0  0  0  0  0  0
    1.2180    1.4610    4.2580 H   0  0  0  0  0  0  0  0  0  0  0  0
    3.0080    1.6500    4.3620 H   0  0  0  0  0  0  0  0  0  0  0  0
    3.2520    2.0520    2.0410 H   0  0  0  0  0  0  0  0  0  0  0  0
    2.2720    4.0890    2.0060 H   0  0  0  0  0  0  0  0  0  0  0  0
    2.8980    3.7690    3.5250 H   0  0  0  0  0  0  0  0  0  0  0  0
    2.7760   -2.3890    0.1290 C   0  0  0  0  0  0  0  0  0  0  0  0
    2.9360   -1.5090   -1.4410 S   0  0  0  0  0  0  0  0  0  0  0  0
    1.4060   -0.9850   -2.1670 C   0  0  0  0  0  0  0  0  0  0  0  0
    0.6770    0.1840   -1.7210 C   0  0  0  0  0  0  0  0  0  0  0  0
    0.2110    0.4600   -0.3700 C   0  0  2  0  0  0  0  0  0  0  0  0
    1.2550    0.6490    0.5990 N   0  0  0  0  0  0  0  0  0  0  0  0
   -0.8090   -0.5360    0.1050 C   0  0  0  0  0  0  0  0  0  0  0  0
   -0.6540   -1.0190    1.2410 O   0  0  0  0  0  0  0  0  0  0  0  0
    3.0780   -3.4550    0.0430 H   0  0  0  0  0  0  0  0  0  0  0  0
    1.7160   -2.3090    0.4670 H   0  0  0  0  0  0  0  0  0  0  0  0
    3.4040   -1.9470    0.9290 H   0  0  0  0  0  0  0  0  0  0  0  0
    0.7140   -1.8940   -2.3250 H   0  0  0  0  0  0  0  0  0  0  0  0
    1.6630   -0.7790   -3.2830 H   0  0  0  0  0  0  0  0  0  0  0  0
   -0.2140    0.3550   -2.4490 H   0  0  0  0  0  0  0  0  0  0  0  0
    1.3270    1.0970   -2.0100 H   0  0  0  0  0  0  0  0  0  0  0  0
   -0.3840    1.4310   -0.4230 H   0  0  0  0  0  0  0  0  0  0  0  0
    2.0760    0.0380    0.7490 H   0  0  0  0  0  0  0  0  0  0  0  0
   -5.5120   -2.0270   -2.2700 N   0  0  0  0  0  0  0  0  0  0  0  0
   -4.7080   -1.0820   -1.5790 C   0  0  0  0  0  0  0  0  0  0  0  0
   -4.3460    0.0090   -2.0820 O   0  0  0  0  0  0  0  0  0  0  0  0
   -4.2730   -1.4060   -0.1850 C   0  0  0  0  0  0  0  0  0  0  0  0
   -2.8680   -1.9080   -0.1490 C   0  0  2  0  0  0  0  0  0  0  0  0
   -1.9120   -0.9370   -0.6690 N   0  0  0  0  0  0  0  0  0  0  0  0
   -2.7280   -3.2070   -0.8840 C   0  0  0  0  0  0  0  0  0  0  0  0
   -3.4650   -4.1800   -0.5790 O   0  0  0  0  0  0  0  0  0  0  0  0
   -1.8090   -3.3950   -1.9050 O   0  0  0  0  0  0  0  0  0  0  0  0
   -6.2160   -2.5780   -1.7530 H   0  0  0  0  0  0  0  0  0  0  0  0
   -5.3570   -2.1330   -3.3020 H   0  0  0  0  0  0  0  0  0  0  0  0
   -4.9510   -2.1500    0.2760 H   0  0  0  0  0  0  0  0  0  0  0  0
   -4.3270   -0.4910    0.4570 H   0  0  0  0  0  0  0  0  0  0  0  0
   -2.6010   -2.1460    0.8990 H   0  0  0  0  0  0  0  0  0  0  0  0
   -2.0440   -0.5330   -1.6230 H   0  0  0  0  0  0  0  0  0  0  0  0
  1  2  1  0  0  0  0
  1 11  1  0  0  0  0
  2  3  2  0  0  0  0
  4  5  1  0  0  0  0
  4  2  1  0  0  0  0
  5 14  1  0  0  0  0
  5 15  1  0  0  0  0
  6 16  1  6  0  0  0
  6  7  1  0  0  0  0
  6  5  1  0  0  0  0
  7 18  1  0  0  0  0
  8  6  1  0  0  0  0
  9  8  2  0  0  0  0
 10  1  1  0  0  0  0
 12  4  1  0  0  0  0
 13  4  1  0  0  0  0
 17  7  1  0  0  0  0
 19 28  1  0  0  0  0
 19 29  1  0  0  0  0
 20 19  1  0  0  0  0
 21 22  1  0  0  0  0
 21 20  1  0  0  0  0
 22 23  1  0  0  0  0
 23 34  1  6  0  0  0
 23 25  1  0  0  0  0
 23 24  1  0  0  0  0
 24 35  1  0  0  0  0
 24  8  1  0  0  0  0
 25 26  2  0  0  0  0
 27 19  1  0  0  0  0
 30 21  1  0  0  0  0
 31 21  1  0  0  0  0
 32 22  1  0  0  0  0
 33 22  1  0  0  0  0
 36 45  1  0  0  0  0
 36 37  1  0  0  0  0
 37 39  1  0  0  0  0
 38 37  2  0  0  0  0
 39 40  1  0  0  0  0
 39 47  1  0  0  0  0
 39 48  1  0  0  0  0
 40 49  1  1  0  0  0
 41 40  1  0  0  0  0
 41 25  1  0  0  0  0
 42 43  1  0  0  0  0
 42 40  1  0  0  0  0
 44 42  2  0  0  0  0
 46 36  1  0  0  0  0
 50 41  1  0  0  0  0
M  END
$$$$
