QMP.pdb
 OpenBabel07022418333D

 50 50  0  0  1  0  0  0  0  0999 V2000
    4.4200   -5.9910    0.8120 N   0  0  0  0  0  0  0  0  0  0  0  0
    3.6540   -4.9200    1.3140 C   0  0  0  0  0  0  0  0  0  0  0  0
    3.9520   -4.3980    2.4060 O   0  0  0  0  0  0  0  0  0  0  0  0
    2.5030   -4.4150    0.5460 C   0  0  0  0  0  0  0  0  0  0  0  0
    1.8640   -3.2870    1.2970 C   0  0  0  0  0  0  0  0  0  0  0  0
    0.6640   -2.7100    0.5700 C   0  0  2  0  0  0  0  0  0  0  0  0
    1.0030   -2.1910   -0.7220 N   0  0  0  0  0  0  0  0  0  0  0  0
    0.0370   -1.7310    1.4810 C   0  0  0  0  0  0  0  0  0  0  0  0
   -0.2340   -2.1020    2.6500 O   0  0  0  0  0  0  0  0  0  0  0  0
    4.7990   -6.7190    1.4450 H   0  0  0  0  0  0  0  0  0  0  0  0
    4.6030   -6.0450   -0.2070 H   0  0  0  0  0  0  0  0  0  0  0  0
    2.7990   -4.1080   -0.4920 H   0  0  0  0  0  0  0  0  0  0  0  0
    1.7850   -5.2660    0.3940 H   0  0  0  0  0  0  0  0  0  0  0  0
    1.4670   -3.7200    2.2550 H   0  0  0  0  0  0  0  0  0  0  0  0
    2.6350   -2.5400    1.5240 H   0  0  0  0  0  0  0  0  0  0  0  0
   -0.0340   -3.5640    0.4080 H   0  0  0  0  0  0  0  0  0  0  0  0
    1.3170   -2.9740   -1.3110 H   0  0  0  0  0  0  0  0  0  0  0  0
    0.1630   -1.7230   -1.1200 H   0  0  0  0  0  0  0  0  0  0  0  0
    3.2620    0.2830    1.3410 C   0  0  0  0  0  0  0  0  0  0  0  0
    1.9600    1.3010    0.5990 S   0  0  0  0  0  0  0  0  0  0  0  0
    1.0200    2.1750    1.8410 C   0  0  0  0  0  0  0  0  0  0  0  0
    0.2030    1.3370    2.7520 C   0  0  0  0  0  0  0  0  0  0  0  0
   -0.8760    0.5050    2.0350 C   0  0  2  0  0  0  0  0  0  0  0  0
   -0.2810   -0.3740    1.1040 N   0  0  0  0  0  0  0  0  0  0  0  0
   -1.9780    1.3700    1.6010 C   0  0  0  0  0  0  0  0  0  0  0  0
   -2.2260    2.2650    2.5700 O   0  0  0  0  0  0  0  0  0  0  0  0
    4.1060    0.9300    1.6900 H   0  0  0  0  0  0  0  0  0  0  0  0
    3.6160   -0.4690    0.6200 H   0  0  0  0  0  0  0  0  0  0  0  0
    2.8720   -0.2610    2.2380 H   0  0  0  0  0  0  0  0  0  0  0  0
    0.4290    3.0190    1.3840 H   0  0  0  0  0  0  0  0  0  0  0  0
    1.7650    2.7210    2.4930 H   0  0  0  0  0  0  0  0  0  0  0  0
    0.8090    0.6570    3.3550 H   0  0  0  0  0  0  0  0  0  0  0  0
   -0.3610    1.9920    3.4440 H   0  0  0  0  0  0  0  0  0  0  0  0
   -1.2720   -0.1400    2.8810 H   0  0  0  0  0  0  0  0  0  0  0  0
   -0.0430   -0.1130    0.1040 H   0  0  0  0  0  0  0  0  0  0  0  0
   -2.7410    1.4320    0.4650 N   0  0  0  0  0  0  0  0  0  0  0  0
   -3.6960    2.5710    0.2140 C   0  0  0  0  0  0  0  0  0  0  0  0
   -3.1180    2.9760   -1.1600 C   0  0  0  0  0  0  0  0  0  0  0  0
   -2.4630    1.6950   -1.7330 C   0  0  0  0  0  0  0  0  0  0  0  0
   -2.9810    0.7000   -0.7070 C   0  0  1  0  0  0  0  0  0  0  0  0
   -2.7090   -0.6790   -0.8770 C   0  0  0  0  0  0  0  0  0  0  0  0
   -2.3480   -1.1280   -2.0080 O   0  0  0  0  0  0  0  0  0  0  0  0
   -2.8280   -1.5940    0.1470 O   0  0  0  0  0  0  0  0  0  0  0  0
   -3.6010    3.3440    0.9620 H   0  0  0  0  0  0  0  0  0  0  0  0
   -4.6760    2.1440    0.0260 H   0  0  0  0  0  0  0  0  0  0  0  0
   -3.8980    3.3550   -1.8260 H   0  0  0  0  0  0  0  0  0  0  0  0
   -2.3500    3.7370   -0.9350 H   0  0  0  0  0  0  0  0  0  0  0  0
   -1.3610    1.7480   -1.6350 H   0  0  0  0  0  0  0  0  0  0  0  0
   -2.8140    1.4900   -2.7510 H   0  0  0  0  0  0  0  0  0  0  0  0
   -4.1570    0.8030   -0.8950 H   0  0  0  0  0  0  0  0  0  0  0  0
  1  2  1  0  0  0  0
  1 10  1  0  0  0  0
  2  3  2  0  0  0  0
  4  5  1  0  0  0  0
  4  2  1  0  0  0  0
  5 15  1  0  0  0  0
  5 14  1  0  0  0  0
  6 16  1  6  0  0  0
  6  5  1  0  0  0  0
  6  8  1  0  0  0  0
  7  6  1  0  0  0  0
  8  9  2  0  0  0  0
 11  1  1  0  0  0  0
 12  4  1  0  0  0  0
 13  4  1  0  0  0  0
 17  7  1  0  0  0  0
 18  7  1  0  0  0  0
 19 27  1  0  0  0  0
 19 29  1  0  0  0  0
 20 19  1  0  0  0  0
 20 21  1  0  0  0  0
 21 31  1  0  0  0  0
 21 22  1  0  0  0  0
 22 32  1  0  0  0  0
 22 33  1  0  0  0  0
 23 22  1  0  0  0  0
 23 34  1  1  0  0  0
 24  8  1  0  0  0  0
 24 23  1  0  0  0  0
 25 23  1  0  0  0  0
 25 26  2  0  0  0  0
 28 19  1  0  0  0  0
 30 21  1  0  0  0  0
 35 24  1  0  0  0  0
 36 25  1  0  0  0  0
 37 36  1  0  0  0  0
 37 44  1  0  0  0  0
 38 47  1  0  0  0  0
 38 37  1  0  0  0  0
 39 48  1  0  0  0  0
 39 38  1  0  0  0  0
 39 40  1  0  0  0  0
 40 50  1  6  0  0  0
 40 36  1  0  0  0  0
 41 40  1  0  0  0  0
 41 43  1  0  0  0  0
 42 41  2  0  0  0  0
 45 37  1  0  0  0  0
 46 38  1  0  0  0  0
 49 39  1  0  0  0  0
M  END
$$$$
