QMR.pdb
 OpenBabel07022418333D

 59 58  0  0  1  0  0  0  0  0999 V2000
    4.8170   -0.9230    5.5420 N   0  0  0  0  0  0  0  0  0  0  0  0
    3.4700   -0.6650    5.9860 C   0  0  0  0  0  0  0  0  0  0  0  0
    2.9450   -1.5930    6.6370 O   0  0  0  0  0  0  0  0  0  0  0  0
    2.8030    0.6100    5.6760 C   0  0  0  0  0  0  0  0  0  0  0  0
    1.3430    0.6710    5.9070 C   0  0  0  0  0  0  0  0  0  0  0  0
    0.4860   -0.2560    5.1160 C   0  0  2  0  0  0  0  0  0  0  0  0
    0.7290   -1.6460    5.2920 N   0  0  0  0  0  0  0  0  0  0  0  0
    0.4440    0.1610    3.6870 C   0  0  0  0  0  0  0  0  0  0  0  0
    0.1210    1.3520    3.3990 O   0  0  0  0  0  0  0  0  0  0  0  0
    4.9940   -1.7340    4.9190 H   0  0  0  0  0  0  0  0  0  0  0  0
    5.5620   -0.2850    5.8640 H   0  0  0  0  0  0  0  0  0  0  0  0
    3.2610    1.4170    6.3310 H   0  0  0  0  0  0  0  0  0  0  0  0
    3.0940    0.9490    4.6440 H   0  0  0  0  0  0  0  0  0  0  0  0
    1.1630    0.4650    6.9940 H   0  0  0  0  0  0  0  0  0  0  0  0
    1.0060    1.7080    5.6610 H   0  0  0  0  0  0  0  0  0  0  0  0
   -0.5730   -0.0770    5.4880 H   0  0  0  0  0  0  0  0  0  0  0  0
    0.2730   -1.9250    6.2070 H   0  0  0  0  0  0  0  0  0  0  0  0
    0.1600   -2.1600    4.5620 H   0  0  0  0  0  0  0  0  0  0  0  0
    4.6270   -1.4540   -1.1070 C   0  0  0  0  0  0  0  0  0  0  0  0
    4.0230    0.2670   -1.1400 S   0  0  0  0  0  0  0  0  0  0  0  0
    2.2350    0.2460   -0.7210 C   0  0  0  0  0  0  0  0  0  0  0  0
    2.0840   -0.1960    0.6980 C   0  0  0  0  0  0  0  0  0  0  0  0
    0.6790   -0.2270    1.2020 C   0  0  2  0  0  0  0  0  0  0  0  0
    0.7450   -0.6990    2.6100 N   0  0  0  0  0  0  0  0  0  0  0  0
   -0.2670   -1.0770    0.5050 C   0  0  0  0  0  0  0  0  0  0  0  0
   -0.7010   -2.1210    1.0810 O   0  0  0  0  0  0  0  0  0  0  0  0
    4.0880   -2.0260   -0.3260 H   0  0  0  0  0  0  0  0  0  0  0  0
    4.4540   -1.8880   -2.1320 H   0  0  0  0  0  0  0  0  0  0  0  0
    5.7050   -1.4700   -0.8470 H   0  0  0  0  0  0  0  0  0  0  0  0
    1.7240   -0.4620   -1.4370 H   0  0  0  0  0  0  0  0  0  0  0  0
    1.8500    1.2550   -0.9340 H   0  0  0  0  0  0  0  0  0  0  0  0
    2.6520   -1.1240    0.9230 H   0  0  0  0  0  0  0  0  0  0  0  0
    2.6060    0.5940    1.3190 H   0  0  0  0  0  0  0  0  0  0  0  0
    0.3200    0.8160    1.2460 H   0  0  0  0  0  0  0  0  0  0  0  0
    1.0230   -1.6850    2.8050 H   0  0  0  0  0  0  0  0  0  0  0  0
   -4.8980   -2.6830   -5.1660 N   0  0  0  0  0  0  0  0  0  0  0  0
   -4.8040   -1.3090   -4.8670 C   0  0  0  0  0  0  0  0  0  0  0  0
   -4.4200   -0.4860   -5.7980 N   0  0  0  0  0  0  0  0  0  0  0  0
   -5.1100   -0.7920   -3.6000 N   0  0  0  0  0  0  0  0  0  0  0  0
   -4.3960    0.3560   -3.0790 C   0  0  0  0  0  0  0  0  0  0  0  0
   -2.9490   -0.0880   -2.8130 C   0  0  0  0  0  0  0  0  0  0  0  0
   -3.0280   -1.2030   -1.8170 C   0  0  0  0  0  0  0  0  0  0  0  0
   -1.7330   -1.7950   -1.4090 C   0  0  2  0  0  0  0  0  0  0  0  0
   -0.8040   -0.8930   -0.7930 N   0  0  0  0  0  0  0  0  0  0  0  0
   -1.0520   -2.5370   -2.5230 C   0  0  0  0  0  0  0  0  0  0  0  0
   -1.6500   -3.3970   -3.2170 O   0  0  0  0  0  0  0  0  0  0  0  0
    0.2750   -2.3250   -2.8600 O   0  0  0  0  0  0  0  0  0  0  0  0
   -5.3760   -2.9780   -6.0370 H   0  0  0  0  0  0  0  0  0  0  0  0
   -4.5080   -3.4210   -4.5500 H   0  0  0  0  0  0  0  0  0  0  0  0
   -4.3330    0.5330   -5.6360 H   0  0  0  0  0  0  0  0  0  0  0  0
   -5.8780   -1.2730   -3.0440 H   0  0  0  0  0  0  0  0  0  0  0  0
   -4.4180    1.2370   -3.7270 H   0  0  0  0  0  0  0  0  0  0  0  0
   -4.8990    0.6500   -2.1350 H   0  0  0  0  0  0  0  0  0  0  0  0
   -2.5880   -0.4890   -3.7870 H   0  0  0  0  0  0  0  0  0  0  0  0
   -2.3040    0.7420   -2.5520 H   0  0  0  0  0  0  0  0  0  0  0  0
   -3.5820   -0.9060   -0.9000 H   0  0  0  0  0  0  0  0  0  0  0  0
   -3.6670   -1.9900   -2.2910 H   0  0  0  0  0  0  0  0  0  0  0  0
   -1.9480   -2.5840   -0.6550 H   0  0  0  0  0  0  0  0  0  0  0  0
   -0.5170   -0.0400   -1.3180 H   0  0  0  0  0  0  0  0  0  0  0  0
  1 11  1  0  0  0  0
  1  2  1  0  0  0  0
  2  3  2  0  0  0  0
  4  5  1  0  0  0  0
  4  2  1  0  0  0  0
  4 12  1  0  0  0  0
  5 14  1  0  0  0  0
  6  7  1  0  0  0  0
  6 16  1  1  0  0  0
  6  5  1  0  0  0  0
  7 17  1  0  0  0  0
  8  6  1  0  0  0  0
  9  8  2  0  0  0  0
 10  1  1  0  0  0  0
 13  4  1  0  0  0  0
 15  5  1  0  0  0  0
 18  7  1  0  0  0  0
 19 29  1  0  0  0  0
 19 27  1  0  0  0  0
 20 19  1  0  0  0  0
 20 21  1  0  0  0  0
 21 22  1  0  0  0  0
 22 32  1  0  0  0  0
 22 23  1  0  0  0  0
 22 33  1  0  0  0  0
 23 34  1  6  0  0  0
 23 24  1  0  0  0  0
 24 35  1  0  0  0  0
 24  8  1  0  0  0  0
 25 26  2  0  0  0  0
 25 23  1  0  0  0  0
 28 19  1  0  0  0  0
 30 21  1  0  0  0  0
 31 21  1  0  0  0  0
 36 37  1  0  0  0  0
 36 49  1  0  0  0  0
 37 39  1  0  0  0  0
 38 50  1  0  0  0  0
 38 37  2  0  0  0  0
 39 40  1  0  0  0  0
 39 51  1  0  0  0  0
 40 41  1  0  0  0  0
 40 53  1  0  0  0  0
 41 55  1  0  0  0  0
 41 42  1  0  0  0  0
 42 43  1  0  0  0  0
 42 56  1  0  0  0  0
 43 44  1  0  0  0  0
 43 58  1  1  0  0  0
 44 25  1  0  0  0  0
 45 43  1  0  0  0  0
 46 45  2  0  0  0  0
 47 45  1  0  0  0  0
 48 36  1  0  0  0  0
 52 40  1  0  0  0  0
 54 41  1  0  0  0  0
 57 42  1  0  0  0  0
 59 44  1  0  0  0  0
M  END
$$$$
