QMS.pdb
 OpenBabel07022418333D

 47 46  0  0  1  0  0  0  0  0999 V2000
    3.0340   -5.9370   -0.0290 N   0  0  0  0  0  0  0  0  0  0  0  0
    2.6910   -4.6210    0.3480 C   0  0  0  0  0  0  0  0  0  0  0  0
    3.3270   -4.0570    1.2540 O   0  0  0  0  0  0  0  0  0  0  0  0
    1.5870   -3.9310   -0.3330 C   0  0  0  0  0  0  0  0  0  0  0  0
    1.4490   -2.5380    0.2450 C   0  0  0  0  0  0  0  0  0  0  0  0
    0.3380   -1.7720   -0.4080 C   0  0  2  0  0  0  0  0  0  0  0  0
    0.5070   -1.5990   -1.8270 N   0  0  0  0  0  0  0  0  0  0  0  0
    0.1090   -0.4870    0.2920 C   0  0  0  0  0  0  0  0  0  0  0  0
    0.0660    0.5470   -0.4060 O   0  0  0  0  0  0  0  0  0  0  0  0
    2.8510   -6.7930    0.5310 H   0  0  0  0  0  0  0  0  0  0  0  0
    3.5230   -6.1150   -0.9570 H   0  0  0  0  0  0  0  0  0  0  0  0
    0.6560   -4.5180   -0.1560 H   0  0  0  0  0  0  0  0  0  0  0  0
    1.7320   -3.8970   -1.4330 H   0  0  0  0  0  0  0  0  0  0  0  0
    1.1890   -2.6680    1.3130 H   0  0  0  0  0  0  0  0  0  0  0  0
    2.4120   -2.0080    0.1310 H   0  0  0  0  0  0  0  0  0  0  0  0
   -0.6050   -2.3750   -0.2770 H   0  0  0  0  0  0  0  0  0  0  0  0
    1.4600   -1.8450   -2.1590 H   0  0  0  0  0  0  0  0  0  0  0  0
   -0.2370   -2.0280   -2.4050 H   0  0  0  0  0  0  0  0  0  0  0  0
    3.7290   -0.4530    2.4200 C   0  0  0  0  0  0  0  0  0  0  0  0
    2.9050    0.6990    1.3050 S   0  0  0  0  0  0  0  0  0  0  0  0
    2.0110    1.9870    2.1730 C   0  0  0  0  0  0  0  0  0  0  0  0
    0.8560    1.5590    2.9620 C   0  0  0  0  0  0  0  0  0  0  0  0
   -0.3000    0.8990    2.3750 C   0  0  2  0  0  0  0  0  0  0  0  0
   -0.0630   -0.3550    1.6920 N   0  0  0  0  0  0  0  0  0  0  0  0
   -1.3660    1.7030    1.7650 C   0  0  0  0  0  0  0  0  0  0  0  0
   -1.5240    2.9120    2.0030 O   0  0  0  0  0  0  0  0  0  0  0  0
    2.9970   -1.0720    2.9650 H   0  0  0  0  0  0  0  0  0  0  0  0
    4.4560    0.0560    3.0970 H   0  0  0  0  0  0  0  0  0  0  0  0
    4.3380   -1.1400    1.7930 H   0  0  0  0  0  0  0  0  0  0  0  0
    1.8430    2.8160    1.4600 H   0  0  0  0  0  0  0  0  0  0  0  0
    2.7580    2.4240    2.9070 H   0  0  0  0  0  0  0  0  0  0  0  0
    1.2620    0.8640    3.7640 H   0  0  0  0  0  0  0  0  0  0  0  0
    0.5300    2.4470    3.5840 H   0  0  0  0  0  0  0  0  0  0  0  0
   -0.9060    0.4960    3.3030 H   0  0  0  0  0  0  0  0  0  0  0  0
    0.0030   -1.2830    2.2150 H   0  0  0  0  0  0  0  0  0  0  0  0
   -3.5530    0.5220   -1.7480 O   0  0  0  0  0  0  0  0  0  0  0  0
   -3.3760    1.7980   -1.2250 C   0  0  0  0  0  0  0  0  0  0  0  0
   -3.3180    1.8550    0.2460 C   0  0  2  0  0  0  0  0  0  0  0  0
   -2.2670    1.1010    0.8710 N   0  0  0  0  0  0  0  0  0  0  0  0
   -4.6340    1.3960    0.7850 C   0  0  0  0  0  0  0  0  0  0  0  0
   -5.7190    1.9070    0.3900 O   0  0  0  0  0  0  0  0  0  0  0  0
   -4.7370    0.3930    1.7390 O   0  0  0  0  0  0  0  0  0  0  0  0
   -3.4320    0.4590   -2.7020 H   0  0  0  0  0  0  0  0  0  0  0  0
   -2.5140    2.3320   -1.7070 H   0  0  0  0  0  0  0  0  0  0  0  0
   -4.2740    2.3760   -1.5520 H   0  0  0  0  0  0  0  0  0  0  0  0
   -3.2330    2.9120    0.5660 H   0  0  0  0  0  0  0  0  0  0  0  0
   -2.2740    0.0670    0.6050 H   0  0  0  0  0  0  0  0  0  0  0  0
  1  2  1  0  0  0  0
  1 10  1  0  0  0  0
  2  3  2  0  0  0  0
  4 12  1  0  0  0  0
  4  5  1  0  0  0  0
  4  2  1  0  0  0  0
  5 14  1  0  0  0  0
  6 16  1  1  0  0  0
  6  5  1  0  0  0  0
  6  8  1  0  0  0  0
  7  6  1  0  0  0  0
  8 24  1  0  0  0  0
  9  8  2  0  0  0  0
 11  1  1  0  0  0  0
 13  4  1  0  0  0  0
 15  5  1  0  0  0  0
 17  7  1  0  0  0  0
 18  7  1  0  0  0  0
 19 27  1  0  0  0  0
 19 28  1  0  0  0  0
 20 21  1  0  0  0  0
 20 19  1  0  0  0  0
 21 31  1  0  0  0  0
 21 22  1  0  0  0  0
 22 33  1  0  0  0  0
 22 32  1  0  0  0  0
 23 22  1  0  0  0  0
 23 34  1  1  0  0  0
 24 35  1  0  0  0  0
 24 23  1  0  0  0  0
 25 26  2  0  0  0  0
 25 23  1  0  0  0  0
 29 19  1  0  0  0  0
 30 21  1  0  0  0  0
 36 37  1  0  0  0  0
 37 38  1  0  0  0  0
 38 46  1  1  0  0  0
 38 40  1  0  0  0  0
 38 39  1  0  0  0  0
 39 25  1  0  0  0  0
 40 42  1  0  0  0  0
 41 40  2  0  0  0  0
 43 36  1  0  0  0  0
 44 37  1  0  0  0  0
 45 37  1  0  0  0  0
 47 39  1  0  0  0  0
M  END
$$$$
