QMT.pdb
 OpenBabel07022418333D

 50 49  0  0  1  0  0  0  0  0999 V2000
    1.1560   -5.5660    4.7830 N   0  0  0  0  0  0  0  0  0  0  0  0
    1.2090   -4.1300    4.6900 C   0  0  0  0  0  0  0  0  0  0  0  0
    0.3190   -3.4840    5.2600 O   0  0  0  0  0  0  0  0  0  0  0  0
    2.2760   -3.4380    3.9510 C   0  0  0  0  0  0  0  0  0  0  0  0
    1.9090   -1.9980    3.7420 C   0  0  0  0  0  0  0  0  0  0  0  0
    0.6660   -1.9300    2.8970 C   0  0  2  0  0  0  0  0  0  0  0  0
    1.0210   -2.5950    1.6320 N   0  0  0  0  0  0  0  0  0  0  0  0
    0.2880   -0.5030    2.6080 C   0  0  0  0  0  0  0  0  0  0  0  0
   -0.0620    0.2770    3.5300 O   0  0  0  0  0  0  0  0  0  0  0  0
    0.3050   -6.0550    5.0950 H   0  0  0  0  0  0  0  0  0  0  0  0
    1.9900   -6.1540    4.5330 H   0  0  0  0  0  0  0  0  0  0  0  0
    3.2450   -3.5500    4.4960 H   0  0  0  0  0  0  0  0  0  0  0  0
    2.3820   -3.9080    2.9260 H   0  0  0  0  0  0  0  0  0  0  0  0
    1.7530   -1.5070    4.7360 H   0  0  0  0  0  0  0  0  0  0  0  0
    2.7830   -1.5240    3.2300 H   0  0  0  0  0  0  0  0  0  0  0  0
   -0.1740   -2.4040    3.3730 H   0  0  0  0  0  0  0  0  0  0  0  0
    0.2600   -2.5600    0.9460 H   0  0  0  0  0  0  0  0  0  0  0  0
    1.8790   -2.0990    1.2890 H   0  0  0  0  0  0  0  0  0  0  0  0
    4.0620    1.8720   -1.2670 C   0  0  0  0  0  0  0  0  0  0  0  0
    3.6630    2.9050    0.1760 S   0  0  0  0  0  0  0  0  0  0  0  0
    2.3630    2.0740    1.1580 C   0  0  0  0  0  0  0  0  0  0  0  0
    1.1230    2.0550    0.3160 C   0  0  0  0  0  0  0  0  0  0  0  0
   -0.0520    1.3970    0.9900 C   0  0  2  0  0  0  0  0  0  0  0  0
    0.3080    0.0300    1.2900 N   0  0  0  0  0  0  0  0  0  0  0  0
   -1.1820    1.4410   -0.0060 C   0  0  0  0  0  0  0  0  0  0  0  0
   -1.6340    2.5370   -0.3890 O   0  0  0  0  0  0  0  0  0  0  0  0
    4.9920    2.1780   -1.7510 H   0  0  0  0  0  0  0  0  0  0  0  0
    3.2450    1.9900   -2.0100 H   0  0  0  0  0  0  0  0  0  0  0  0
    4.1370    0.8080   -1.0220 H   0  0  0  0  0  0  0  0  0  0  0  0
    2.2430    2.6560    2.0930 H   0  0  0  0  0  0  0  0  0  0  0  0
    2.7470    1.0740    1.4120 H   0  0  0  0  0  0  0  0  0  0  0  0
    0.8580    3.1020    0.0810 H   0  0  0  0  0  0  0  0  0  0  0  0
    1.3870    1.4960   -0.6250 H   0  0  0  0  0  0  0  0  0  0  0  0
   -0.3410    1.9760    1.8660 H   0  0  0  0  0  0  0  0  0  0  0  0
    0.5930   -0.5910    0.5070 H   0  0  0  0  0  0  0  0  0  0  0  0
   -3.6650   -0.4510   -3.6810 C   0  0  0  0  0  0  0  0  0  0  0  0
   -2.4650   -0.4740   -2.7600 C   0  0  1  0  0  0  0  0  0  0  0  0
   -1.3490    0.1050   -3.3650 O   0  0  0  0  0  0  0  0  0  0  0  0
   -2.8490    0.2630   -1.4920 C   0  0  2  0  0  0  0  0  0  0  0  0
   -1.7600    0.2530   -0.5320 N   0  0  0  0  0  0  0  0  0  0  0  0
   -4.0500   -0.4240   -0.9360 C   0  0  0  0  0  0  0  0  0  0  0  0
   -5.1290   -0.5410   -1.5590 O   0  0  0  0  0  0  0  0  0  0  0  0
   -4.0320   -0.9910    0.3540 O   0  0  0  0  0  0  0  0  0  0  0  0
   -3.3080   -0.4880   -4.7460 H   0  0  0  0  0  0  0  0  0  0  0  0
   -4.2760   -1.3570   -3.5570 H   0  0  0  0  0  0  0  0  0  0  0  0
   -4.2850    0.4310   -3.4900 H   0  0  0  0  0  0  0  0  0  0  0  0
   -2.2370   -1.5310   -2.5260 H   0  0  0  0  0  0  0  0  0  0  0  0
   -0.9570   -0.5440   -4.0030 H   0  0  0  0  0  0  0  0  0  0  0  0
   -3.1420    1.3020   -1.7330 H   0  0  0  0  0  0  0  0  0  0  0  0
   -1.4050   -0.6810   -0.2310 H   0  0  0  0  0  0  0  0  0  0  0  0
  1 10  1  0  0  0  0
  2  1  1  0  0  0  0
  2  3  2  0  0  0  0
  4 12  1  0  0  0  0
  4  2  1  0  0  0  0
  5  4  1  0  0  0  0
  5 14  1  0  0  0  0
  6 16  1  1  0  0  0
  6  5  1  0  0  0  0
  7  6  1  0  0  0  0
  8  6  1  0  0  0  0
  8  9  2  0  0  0  0
 11  1  1  0  0  0  0
 13  4  1  0  0  0  0
 15  5  1  0  0  0  0
 17  7  1  0  0  0  0
 18  7  1  0  0  0  0
 19 29  1  0  0  0  0
 19 20  1  0  0  0  0
 20 21  1  0  0  0  0
 21 31  1  0  0  0  0
 21 30  1  0  0  0  0
 22 23  1  0  0  0  0
 22 21  1  0  0  0  0
 23 24  1  0  0  0  0
 23 34  1  1  0  0  0
 24  8  1  0  0  0  0
 25 23  1  0  0  0  0
 26 25  2  0  0  0  0
 27 19  1  0  0  0  0
 28 19  1  0  0  0  0
 32 22  1  0  0  0  0
 33 22  1  0  0  0  0
 35 24  1  0  0  0  0
 36 45  1  0  0  0  0
 36 46  1  0  0  0  0
 36 37  1  0  0  0  0
 37 47  1  1  0  0  0
 37 39  1  0  0  0  0
 38 37  1  0  0  0  0
 39 49  1  6  0  0  0
 39 41  1  0  0  0  0
 39 40  1  0  0  0  0
 40 50  1  0  0  0  0
 40 25  1  0  0  0  0
 41 43  1  0  0  0  0
 42 41  2  0  0  0  0
 44 36  1  0  0  0  0
 48 38  1  0  0  0  0
M  END
$$$$
