QMV.pdb
 OpenBabel07022418333D

 52 51  0  0  1  0  0  0  0  0999 V2000
    2.0480   -5.9770   -1.2820 N   0  0  0  0  0  0  0  0  0  0  0  0
    1.5490   -4.6630   -0.9690 C   0  0  0  0  0  0  0  0  0  0  0  0
    1.2050   -3.9210   -1.9210 O   0  0  0  0  0  0  0  0  0  0  0  0
    1.4480   -4.2190    0.4350 C   0  0  0  0  0  0  0  0  0  0  0  0
    1.0580   -2.7840    0.5710 C   0  0  0  0  0  0  0  0  0  0  0  0
    2.0470   -1.8470   -0.0650 C   0  0  2  0  0  0  0  0  0  0  0  0
    3.3610   -2.0060    0.5530 N   0  0  0  0  0  0  0  0  0  0  0  0
    1.6370   -0.4330    0.1400 C   0  0  0  0  0  0  0  0  0  0  0  0
    2.3780    0.3420    0.7470 O   0  0  0  0  0  0  0  0  0  0  0  0
    1.3840   -6.7350   -1.5460 H   0  0  0  0  0  0  0  0  0  0  0  0
    3.0700   -6.1640   -1.2440 H   0  0  0  0  0  0  0  0  0  0  0  0
    2.4240   -4.3950    0.9720 H   0  0  0  0  0  0  0  0  0  0  0  0
    0.6510   -4.8100    0.9720 H   0  0  0  0  0  0  0  0  0  0  0  0
    0.0630   -2.6330    0.1090 H   0  0  0  0  0  0  0  0  0  0  0  0
    0.9620   -2.5530    1.6580 H   0  0  0  0  0  0  0  0  0  0  0  0
    2.1320   -1.9780   -1.1580 H   0  0  0  0  0  0  0  0  0  0  0  0
    3.8570   -2.8370    0.1820 H   0  0  0  0  0  0  0  0  0  0  0  0
    3.9450   -1.1670    0.3090 H   0  0  0  0  0  0  0  0  0  0  0  0
    2.9250    2.4900   -1.6120 C   0  0  0  0  0  0  0  0  0  0  0  0
    1.5780    3.1620   -2.5710 S   0  0  0  0  0  0  0  0  0  0  0  0
    0.1150    2.1610   -2.6330 C   0  0  0  0  0  0  0  0  0  0  0  0
   -0.6890    2.0260   -1.3950 C   0  0  0  0  0  0  0  0  0  0  0  0
   -0.0690    1.4140   -0.2010 C   0  0  2  0  0  0  0  0  0  0  0  0
    0.3940    0.0740   -0.3480 N   0  0  0  0  0  0  0  0  0  0  0  0
   -0.9930    1.5380    1.0070 C   0  0  0  0  0  0  0  0  0  0  0  0
   -1.5010    2.6470    1.3150 O   0  0  0  0  0  0  0  0  0  0  0  0
    3.9240    2.8220   -2.0490 H   0  0  0  0  0  0  0  0  0  0  0  0
    2.9380    1.3770   -1.6960 H   0  0  0  0  0  0  0  0  0  0  0  0
    2.9010    2.7940   -0.5660 H   0  0  0  0  0  0  0  0  0  0  0  0
   -0.5880    2.6040   -3.4090 H   0  0  0  0  0  0  0  0  0  0  0  0
    0.3890    1.1720   -3.0860 H   0  0  0  0  0  0  0  0  0  0  0  0
   -1.0600    3.0810   -1.1670 H   0  0  0  0  0  0  0  0  0  0  0  0
   -1.6570    1.5230   -1.6900 H   0  0  0  0  0  0  0  0  0  0  0  0
    0.7960    2.0280    0.1070 H   0  0  0  0  0  0  0  0  0  0  0  0
   -0.1980   -0.6520   -0.8580 H   0  0  0  0  0  0  0  0  0  0  0  0
   -2.9690   -1.8950    2.6920 C   0  0  0  0  0  0  0  0  0  0  0  0
   -3.3400   -0.4360    2.8440 C   0  0  0  0  0  0  0  0  0  0  0  0
   -4.2980   -0.0660    1.7520 C   0  0  0  0  0  0  0  0  0  0  0  0
   -2.1220    0.4340    2.9170 C   0  0  2  0  0  0  0  0  0  0  0  0
   -1.2680    0.3760    1.7790 N   0  0  0  0  0  0  0  0  0  0  0  0
   -1.3890    0.0680    4.1560 C   0  0  0  0  0  0  0  0  0  0  0  0
   -0.1630   -0.2480    4.1650 O   0  0  0  0  0  0  0  0  0  0  0  0
   -2.0360    0.0590    5.3840 O   0  0  0  0  0  0  0  0  0  0  0  0
   -2.1290   -2.0170    1.9750 H   0  0  0  0  0  0  0  0  0  0  0  0
   -3.8060   -2.5060    2.3120 H   0  0  0  0  0  0  0  0  0  0  0  0
   -2.6420   -2.3510    3.6450 H   0  0  0  0  0  0  0  0  0  0  0  0
   -3.8800   -0.3290    3.8110 H   0  0  0  0  0  0  0  0  0  0  0  0
   -5.3200   -0.4350    1.9820 H   0  0  0  0  0  0  0  0  0  0  0  0
   -4.0090   -0.5360    0.7870 H   0  0  0  0  0  0  0  0  0  0  0  0
   -4.3920    1.0250    1.5980 H   0  0  0  0  0  0  0  0  0  0  0  0
   -2.4700    1.4960    3.0640 H   0  0  0  0  0  0  0  0  0  0  0  0
   -0.8210   -0.5230    1.4800 H   0  0  0  0  0  0  0  0  0  0  0  0
  1 11  1  0  0  0  0
  1  2  1  0  0  0  0
  2  4  1  0  0  0  0
  3  2  2  0  0  0  0
  4  5  1  0  0  0  0
  4 12  1  0  0  0  0
  4 13  1  0  0  0  0
  5 15  1  0  0  0  0
  6 16  1  6  0  0  0
  6  8  1  0  0  0  0
  6  7  1  0  0  0  0
  6  5  1  0  0  0  0
  8  9  2  0  0  0  0
 10  1  1  0  0  0  0
 14  5  1  0  0  0  0
 17  7  1  0  0  0  0
 18  7  1  0  0  0  0
 19 29  1  0  0  0  0
 20 19  1  0  0  0  0
 21 20  1  0  0  0  0
 21 22  1  0  0  0  0
 22 32  1  0  0  0  0
 22 23  1  0  0  0  0
 23 34  1  1  0  0  0
 23 25  1  0  0  0  0
 24 23  1  0  0  0  0
 24  8  1  0  0  0  0
 25 26  2  0  0  0  0
 25 40  1  0  0  0  0
 27 19  1  0  0  0  0
 28 19  1  0  0  0  0
 30 21  1  0  0  0  0
 31 21  1  0  0  0  0
 33 22  1  0  0  0  0
 35 24  1  0  0  0  0
 36 37  1  0  0  0  0
 36 46  1  0  0  0  0
 37 39  1  0  0  0  0
 37 47  1  0  0  0  0
 38 48  1  0  0  0  0
 38 37  1  0  0  0  0
 39 51  1  1  0  0  0
 39 41  1  0  0  0  0
 40 39  1  0  0  0  0
 41 42  2  0  0  0  0
 41 43  1  0  0  0  0
 44 36  1  0  0  0  0
 45 36  1  0  0  0  0
 49 38  1  0  0  0  0
 50 38  1  0  0  0  0
 52 40  1  0  0  0  0
M  END
$$$$
