QMY.pdb
 OpenBabel07022418333D

 57 57  0  0  1  0  0  0  0  0999 V2000
   -6.0670   -0.6950    3.3710 N   0  0  0  0  0  0  0  0  0  0  0  0
   -4.8660   -0.4820    2.6680 C   0  0  0  0  0  0  0  0  0  0  0  0
   -4.4710   -1.3540    1.8630 O   0  0  0  0  0  0  0  0  0  0  0  0
   -4.0930    0.7420    2.8770 C   0  0  0  0  0  0  0  0  0  0  0  0
   -2.8210    0.7740    2.0330 C   0  0  0  0  0  0  0  0  0  0  0  0
   -2.1250    2.0570    2.3290 C   0  0  2  0  0  0  0  0  0  0  0  0
   -2.9870    3.1680    1.9850 N   0  0  0  0  0  0  0  0  0  0  0  0
   -0.8230    2.2370    1.7100 C   0  0  0  0  0  0  0  0  0  0  0  0
   -0.6090    3.2760    0.9920 O   0  0  0  0  0  0  0  0  0  0  0  0
   -6.9770   -0.7210    2.8690 H   0  0  0  0  0  0  0  0  0  0  0  0
   -6.0740   -0.8320    4.4020 H   0  0  0  0  0  0  0  0  0  0  0  0
   -4.6900    1.6790    2.6720 H   0  0  0  0  0  0  0  0  0  0  0  0
   -3.7400    0.8630    3.9390 H   0  0  0  0  0  0  0  0  0  0  0  0
   -2.2050   -0.0960    2.4050 H   0  0  0  0  0  0  0  0  0  0  0  0
   -3.0520    0.5870    0.9900 H   0  0  0  0  0  0  0  0  0  0  0  0
   -2.0000    2.1160    3.4470 H   0  0  0  0  0  0  0  0  0  0  0  0
   -3.4700    2.9280    1.1010 H   0  0  0  0  0  0  0  0  0  0  0  0
   -2.3770    3.9960    1.7920 H   0  0  0  0  0  0  0  0  0  0  0  0
    5.1260    1.7730   -0.7470 C   0  0  0  0  0  0  0  0  0  0  0  0
    5.1100    1.1180    0.9190 S   0  0  0  0  0  0  0  0  0  0  0  0
    4.0170    1.8260    2.0710 C   0  0  0  0  0  0  0  0  0  0  0  0
    2.6120    1.5200    2.2130 C   0  0  0  0  0  0  0  0  0  0  0  0
    1.5710    1.5830    1.1720 C   0  0  2  0  0  0  0  0  0  0  0  0
    0.2450    1.3290    1.8450 N   0  0  0  0  0  0  0  0  0  0  0  0
    1.6470    0.4820    0.1400 C   0  0  0  0  0  0  0  0  0  0  0  0
    2.6060    0.3860   -0.6090 O   0  0  0  0  0  0  0  0  0  0  0  0
    4.3150    2.5000   -0.9540 H   0  0  0  0  0  0  0  0  0  0  0  0
    5.1090    0.9720   -1.5420 H   0  0  0  0  0  0  0  0  0  0  0  0
    6.0940    2.3210   -0.9630 H   0  0  0  0  0  0  0  0  0  0  0  0
    4.4860    1.6500    3.1340 H   0  0  0  0  0  0  0  0  0  0  0  0
    4.0940    3.0060    2.0390 H   0  0  0  0  0  0  0  0  0  0  0  0
    2.1600    2.1110    3.0990 H   0  0  0  0  0  0  0  0  0  0  0  0
    2.5590    0.4580    2.6980 H   0  0  0  0  0  0  0  0  0  0  0  0
    1.5630    2.5170    0.6380 H   0  0  0  0  0  0  0  0  0  0  0  0
    0.1010    0.4870    2.4170 H   0  0  0  0  0  0  0  0  0  0  0  0
    0.7050   -7.4830   -3.4940 O   0  0  0  0  0  0  0  0  0  0  0  0
    0.6710   -6.3510   -2.6950 C   0  0  0  0  0  0  0  0  0  0  0  0
   -0.5190   -5.7720   -2.3530 C   0  0  0  0  0  0  0  0  0  0  0  0
   -0.5250   -4.6320   -1.5480 C   0  0  0  0  0  0  0  0  0  0  0  0
    0.6260   -4.0460   -1.0680 C   0  0  0  0  0  0  0  0  0  0  0  0
    0.5750   -2.8450   -0.2320 C   0  0  0  0  0  0  0  0  0  0  0  0
    0.6850   -1.5500   -1.0010 C   0  0  2  0  0  0  0  0  0  0  0  0
    0.6110   -0.4930   -0.0110 N   0  0  0  0  0  0  0  0  0  0  0  0
   -0.4380   -1.4890   -1.9630 C   0  0  0  0  0  0  0  0  0  0  0  0
   -1.3070   -0.5910   -1.7800 O   0  0  0  0  0  0  0  0  0  0  0  0
    1.8290   -4.6510   -1.4260 C   0  0  0  0  0  0  0  0  0  0  0  0
    1.8320   -5.7740   -2.2200 C   0  0  0  0  0  0  0  0  0  0  0  0
   -0.6160   -2.3230   -3.0380 O   0  0  0  0  0  0  0  0  0  0  0  0
   -0.1480   -7.9420   -3.7580 H   0  0  0  0  0  0  0  0  0  0  0  0
   -1.4460   -6.1990   -2.7090 H   0  0  0  0  0  0  0  0  0  0  0  0
   -1.5090   -4.2140   -1.3010 H   0  0  0  0  0  0  0  0  0  0  0  0
    1.2990   -2.8780    0.6200 H   0  0  0  0  0  0  0  0  0  0  0  0
   -0.4530   -2.8200    0.2400 H   0  0  0  0  0  0  0  0  0  0  0  0
    1.6340   -1.5000   -1.5810 H   0  0  0  0  0  0  0  0  0  0  0  0
   -0.1990   -0.4050    0.6250 H   0  0  0  0  0  0  0  0  0  0  0  0
    2.7250   -4.1850   -1.0450 H   0  0  0  0  0  0  0  0  0  0  0  0
    2.7810   -6.2370   -2.4930 H   0  0  0  0  0  0  0  0  0  0  0  0
  1 11  1  0  0  0  0
  2  4  1  0  0  0  0
  2  1  1  0  0  0  0
  3  2  2  0  0  0  0
  4 13  1  0  0  0  0
  5  6  1  0  0  0  0
  5 14  1  0  0  0  0
  5  4  1  0  0  0  0
  6 16  1  1  0  0  0
  7  6  1  0  0  0  0
  8 24  1  0  0  0  0
  8  6  1  0  0  0  0
  9  8  2  0  0  0  0
 10  1  1  0  0  0  0
 12  4  1  0  0  0  0
 15  5  1  0  0  0  0
 17  7  1  0  0  0  0
 18  7  1  0  0  0  0
 19 20  1  0  0  0  0
 20 21  1  0  0  0  0
 21 22  1  0  0  0  0
 21 30  1  0  0  0  0
 22 33  1  0  0  0  0
 22 32  1  0  0  0  0
 23 34  1  6  0  0  0
 23 24  1  0  0  0  0
 23 22  1  0  0  0  0
 24 35  1  0  0  0  0
 25 23  1  0  0  0  0
 26 25  2  0  0  0  0
 27 19  1  0  0  0  0
 28 19  1  0  0  0  0
 29 19  1  0  0  0  0
 31 21  1  0  0  0  0
 36 37  1  0  0  0  0
 37 38  2  0  0  0  0
 37 47  1  0  0  0  0
 38 39  1  0  0  0  0
 39 51  1  0  0  0  0
 39 40  2  0  0  0  0
 40 41  1  0  0  0  0
 41 53  1  0  0  0  0
 41 52  1  0  0  0  0
 42 54  1  6  0  0  0
 42 41  1  0  0  0  0
 42 43  1  0  0  0  0
 43 25  1  0  0  0  0
 43 55  1  0  0  0  0
 44 45  1  0  0  0  0
 44 42  1  0  0  0  0
 46 40  1  0  0  0  0
 46 56  1  0  0  0  0
 47 46  2  0  0  0  0
 48 44  2  0  0  0  0
 49 36  1  0  0  0  0
 50 38  1  0  0  0  0
 57 47  1  0  0  0  0
M  END
$$$$
