QNG.pdb
 OpenBabel07022418303D

 40 39  0  0  1  0  0  0  0  0999 V2000
    0.6250   -5.6350    3.6790 N   0  0  0  0  0  0  0  0  0  0  0  0
    0.6500   -4.2970    3.2290 C   0  0  0  0  0  0  0  0  0  0  0  0
    0.1610   -3.4030    3.9500 O   0  0  0  0  0  0  0  0  0  0  0  0
    1.2480   -3.9660    1.9230 C   0  0  0  0  0  0  0  0  0  0  0  0
    1.1570   -2.4750    1.6260 C   0  0  0  0  0  0  0  0  0  0  0  0
    1.7990   -2.2570    0.2730 C   0  0  2  0  0  0  0  0  0  0  0  0
    3.1770   -2.6980    0.3530 N   0  0  0  0  0  0  0  0  0  0  0  0
    1.7450   -0.8330   -0.1390 C   0  0  0  0  0  0  0  0  0  0  0  0
    2.8370   -0.2100   -0.3460 O   0  0  0  0  0  0  0  0  0  0  0  0
   -0.1350   -6.2660    3.2860 H   0  0  0  0  0  0  0  0  0  0  0  0
    1.3150   -6.0130    4.3690 H   0  0  0  0  0  0  0  0  0  0  0  0
    0.7380   -4.4870    1.0790 H   0  0  0  0  0  0  0  0  0  0  0  0
    2.3240   -4.2430    1.8640 H   0  0  0  0  0  0  0  0  0  0  0  0
    1.6360   -1.8610    2.4020 H   0  0  0  0  0  0  0  0  0  0  0  0
    0.0830   -2.1800    1.5920 H   0  0  0  0  0  0  0  0  0  0  0  0
    1.2800   -2.9340   -0.4390 H   0  0  0  0  0  0  0  0  0  0  0  0
    3.4500   -3.0220   -0.6060 H   0  0  0  0  0  0  0  0  0  0  0  0
    3.7650   -1.8280    0.5300 H   0  0  0  0  0  0  0  0  0  0  0  0
   -1.1600    3.1970   -3.5900 N   0  0  0  0  0  0  0  0  0  0  0  0
   -0.3400    2.8210   -2.4630 C   0  0  0  0  0  0  0  0  0  0  0  0
    0.3040    3.7610   -1.9520 O   0  0  0  0  0  0  0  0  0  0  0  0
   -0.2980    1.4340   -1.9900 C   0  0  0  0  0  0  0  0  0  0  0  0
    0.4780    1.2900   -0.7230 C   0  0  2  0  0  0  0  0  0  0  0  0
    0.5330   -0.1250   -0.3150 N   0  0  0  0  0  0  0  0  0  0  0  0
   -0.1190    2.0610    0.4070 C   0  0  0  0  0  0  0  0  0  0  0  0
   -0.3100    3.2910    0.4170 O   0  0  0  0  0  0  0  0  0  0  0  0
   -1.0490    2.7340   -4.5040 H   0  0  0  0  0  0  0  0  0  0  0  0
   -1.8670    3.9390   -3.4770 H   0  0  0  0  0  0  0  0  0  0  0  0
    0.1850    0.8400   -2.8220 H   0  0  0  0  0  0  0  0  0  0  0  0
   -1.3190    0.9960   -1.9230 H   0  0  0  0  0  0  0  0  0  0  0  0
    1.4950    1.6400   -0.8670 H   0  0  0  0  0  0  0  0  0  0  0  0
   -0.3500   -0.6440   -0.1500 H   0  0  0  0  0  0  0  0  0  0  0  0
   -0.5140    1.3560    1.5910 N   0  0  0  0  0  0  0  0  0  0  0  0
   -1.1040    2.0590    2.7240 C   0  0  0  0  0  0  0  0  0  0  0  0
   -1.3970    1.0570    3.7750 C   0  0  0  0  0  0  0  0  0  0  0  0
   -1.9200    1.4480    4.8430 O   0  0  0  0  0  0  0  0  0  0  0  0
   -1.1230   -0.2920    3.6350 O   0  0  0  0  0  0  0  0  0  0  0  0
   -0.3640    0.3310    1.6140 H   0  0  0  0  0  0  0  0  0  0  0  0
   -0.3770    2.7820    3.1220 H   0  0  0  0  0  0  0  0  0  0  0  0
   -2.0550    2.5560    2.4370 H   0  0  0  0  0  0  0  0  0  0  0  0
  1 11  1  0  0  0  0
  2  1  1  0  0  0  0
  2  3  2  0  0  0  0
  4  2  1  0  0  0  0
  5  4  1  0  0  0  0
  5 14  1  0  0  0  0
  6 16  1  6  0  0  0
  6  7  1  0  0  0  0
  6  5  1  0  0  0  0
  7 18  1  0  0  0  0
  8  6  1  0  0  0  0
  9  8  2  0  0  0  0
 10  1  1  0  0  0  0
 12  4  1  0  0  0  0
 13  4  1  0  0  0  0
 15  5  1  0  0  0  0
 17  7  1  0  0  0  0
 19 28  1  0  0  0  0
 19 20  1  0  0  0  0
 20 22  1  0  0  0  0
 20 21  2  0  0  0  0
 22 30  1  0  0  0  0
 22 23  1  0  0  0  0
 23 31  1  6  0  0  0
 23 24  1  0  0  0  0
 23 25  1  0  0  0  0
 24 32  1  0  0  0  0
 24  8  1  0  0  0  0
 25 26  2  0  0  0  0
 25 33  1  0  0  0  0
 27 19  1  0  0  0  0
 29 22  1  0  0  0  0
 33 38  1  0  0  0  0
 33 34  1  0  0  0  0
 34 39  1  0  0  0  0
 34 35  1  0  0  0  0
 35 36  1  0  0  0  0
 37 35  2  0  0  0  0
 40 34  1  0  0  0  0
M  END
$$$$
