QNH.pdb
 OpenBabel07022418303D

 50 50  0  0  1  0  0  0  0  0999 V2000
    2.9850   -4.2780    2.0790 N   0  0  0  0  0  0  0  0  0  0  0  0
    3.0340   -3.4730    0.9090 C   0  0  0  0  0  0  0  0  0  0  0  0
    4.1300   -3.5010    0.2820 O   0  0  0  0  0  0  0  0  0  0  0  0
    1.9020   -2.6670    0.4470 C   0  0  0  0  0  0  0  0  0  0  0  0
    2.1720   -1.6170   -0.5590 C   0  0  0  0  0  0  0  0  0  0  0  0
    3.0810   -0.5060   -0.1610 C   0  0  2  0  0  0  0  0  0  0  0  0
    4.3760   -0.9610    0.1890 N   0  0  0  0  0  0  0  0  0  0  0  0
    2.4360    0.3070    0.9070 C   0  0  0  0  0  0  0  0  0  0  0  0
    2.9550    0.5390    2.0120 O   0  0  0  0  0  0  0  0  0  0  0  0
    3.0820   -5.2990    2.0020 H   0  0  0  0  0  0  0  0  0  0  0  0
    2.8520   -3.8390    3.0010 H   0  0  0  0  0  0  0  0  0  0  0  0
    1.4340   -2.2330    1.3860 H   0  0  0  0  0  0  0  0  0  0  0  0
    1.0990   -3.3490    0.0250 H   0  0  0  0  0  0  0  0  0  0  0  0
    2.5380   -2.1050   -1.5190 H   0  0  0  0  0  0  0  0  0  0  0  0
    1.1620   -1.2150   -0.8770 H   0  0  0  0  0  0  0  0  0  0  0  0
    3.1360    0.1850   -1.0550 H   0  0  0  0  0  0  0  0  0  0  0  0
    5.0500   -0.6970   -0.5630 H   0  0  0  0  0  0  0  0  0  0  0  0
    4.7460   -0.6250    1.0990 H   0  0  0  0  0  0  0  0  0  0  0  0
   -0.5650    5.3360    1.2370 N   0  0  0  0  0  0  0  0  0  0  0  0
   -0.3310    4.0520    1.7890 C   0  0  0  0  0  0  0  0  0  0  0  0
   -0.6920    3.8300    2.9700 O   0  0  0  0  0  0  0  0  0  0  0  0
    0.3130    3.0060    1.0090 C   0  0  0  0  0  0  0  0  0  0  0  0
    0.4420    1.6610    1.6370 C   0  0  2  0  0  0  0  0  0  0  0  0
    1.1520    0.8390    0.6210 N   0  0  0  0  0  0  0  0  0  0  0  0
   -0.8350    1.0000    1.9840 C   0  0  0  0  0  0  0  0  0  0  0  0
   -1.6190    1.4630    2.8330 O   0  0  0  0  0  0  0  0  0  0  0  0
    0.2290    5.9330    0.9750 H   0  0  0  0  0  0  0  0  0  0  0  0
   -1.5290    5.6660    1.1020 H   0  0  0  0  0  0  0  0  0  0  0  0
    1.3350    3.3140    0.6320 H   0  0  0  0  0  0  0  0  0  0  0  0
   -0.2660    2.8830    0.0420 H   0  0  0  0  0  0  0  0  0  0  0  0
    1.1070    1.7280    2.5080 H   0  0  0  0  0  0  0  0  0  0  0  0
    0.6900    0.6660   -0.2990 H   0  0  0  0  0  0  0  0  0  0  0  0
   -1.2490   -0.2280    1.3540 N   0  0  0  0  0  0  0  0  0  0  0  0
   -2.4940   -0.8620    1.7020 C   0  0  1  0  0  0  0  0  0  0  0  0
   -3.4900   -0.8870    0.5620 C   0  0  0  0  0  0  0  0  0  0  0  0
   -2.9530   -1.6310   -0.6250 C   0  0  0  0  0  0  0  0  0  0  0  0
   -3.0760   -2.9780   -0.8980 C   0  0  0  0  0  0  0  0  0  0  0  0
   -2.4600   -3.2680   -2.0570 N   0  0  0  0  0  0  0  0  0  0  0  0
   -1.9530   -2.1100   -2.5120 C   0  0  0  0  0  0  0  0  0  0  0  0
   -2.2480   -1.1210   -1.6500 N   0  0  0  0  0  0  0  0  0  0  0  0
   -2.3270   -2.2460    2.1760 C   0  0  0  0  0  0  0  0  0  0  0  0
   -1.1890   -2.7470    2.2410 O   0  0  0  0  0  0  0  0  0  0  0  0
   -3.4220   -2.9880    2.5480 O   0  0  0  0  0  0  0  0  0  0  0  0
   -0.5860   -0.6080    0.6440 H   0  0  0  0  0  0  0  0  0  0  0  0
   -2.9840   -0.2400    2.4980 H   0  0  0  0  0  0  0  0  0  0  0  0
   -3.8930    0.0920    0.3050 H   0  0  0  0  0  0  0  0  0  0  0  0
   -4.3540   -1.5050    0.9320 H   0  0  0  0  0  0  0  0  0  0  0  0
   -3.6050   -3.6730   -0.2400 H   0  0  0  0  0  0  0  0  0  0  0  0
   -2.4200   -4.2250   -2.4700 H   0  0  0  0  0  0  0  0  0  0  0  0
   -1.3970   -2.0500   -3.4420 H   0  0  0  0  0  0  0  0  0  0  0  0
  1 11  1  0  0  0  0
  2  1  1  0  0  0  0
  3  2  2  0  0  0  0
  4  2  1  0  0  0  0
  4 12  1  0  0  0  0
  5  6  1  0  0  0  0
  5  4  1  0  0  0  0
  6 16  1  6  0  0  0
  6  7  1  0  0  0  0
  6  8  1  0  0  0  0
  7 18  1  0  0  0  0
  8  9  2  0  0  0  0
 10  1  1  0  0  0  0
 13  4  1  0  0  0  0
 14  5  1  0  0  0  0
 15  5  1  0  0  0  0
 17  7  1  0  0  0  0
 19 20  1  0  0  0  0
 20 21  2  0  0  0  0
 22 23  1  0  0  0  0
 22 20  1  0  0  0  0
 23 25  1  0  0  0  0
 23 31  1  1  0  0  0
 24  8  1  0  0  0  0
 24 23  1  0  0  0  0
 25 26  2  0  0  0  0
 27 19  1  0  0  0  0
 28 19  1  0  0  0  0
 29 22  1  0  0  0  0
 30 22  1  0  0  0  0
 32 24  1  0  0  0  0
 33 34  1  0  0  0  0
 33 25  1  0  0  0  0
 34 41  1  0  0  0  0
 34 45  1  1  0  0  0
 35 47  1  0  0  0  0
 35 34  1  0  0  0  0
 36 35  1  0  0  0  0
 37 36  2  0  0  0  0
 37 48  1  0  0  0  0
 38 37  1  0  0  0  0
 39 38  1  0  0  0  0
 39 40  2  0  0  0  0
 40 36  1  0  0  0  0
 41 42  2  0  0  0  0
 41 43  1  0  0  0  0
 44 33  1  0  0  0  0
 46 35  1  0  0  0  0
 49 38  1  0  0  0  0
 50 39  1  0  0  0  0
M  END
$$$$
