QNI.pdb
 OpenBabel07022418303D

 52 51  0  0  1  0  0  0  0  0999 V2000
    1.2860   -4.1620    1.7570 N   0  0  0  0  0  0  0  0  0  0  0  0
    2.0830   -3.1870    2.3910 C   0  0  0  0  0  0  0  0  0  0  0  0
    2.7780   -3.4910    3.3820 O   0  0  0  0  0  0  0  0  0  0  0  0
    2.1160   -1.7760    1.9000 C   0  0  0  0  0  0  0  0  0  0  0  0
    3.0240   -0.9470    2.7360 C   0  0  0  0  0  0  0  0  0  0  0  0
    3.1300    0.4710    2.2930 C   0  0  2  0  0  0  0  0  0  0  0  0
    4.0570    1.1540    3.2320 N   0  0  0  0  0  0  0  0  0  0  0  0
    1.8670    1.2190    2.2140 C   0  0  0  0  0  0  0  0  0  0  0  0
    1.5390    2.0760    3.1110 O   0  0  0  0  0  0  0  0  0  0  0  0
    1.4790   -4.4570    0.7580 H   0  0  0  0  0  0  0  0  0  0  0  0
    0.4770   -4.6380    2.2310 H   0  0  0  0  0  0  0  0  0  0  0  0
    1.0530   -1.4100    1.9860 H   0  0  0  0  0  0  0  0  0  0  0  0
    2.4200   -1.7850    0.8420 H   0  0  0  0  0  0  0  0  0  0  0  0
    4.0630   -1.3810    2.6380 H   0  0  0  0  0  0  0  0  0  0  0  0
    2.7360   -0.9900    3.8190 H   0  0  0  0  0  0  0  0  0  0  0  0
    3.6060    0.5000    1.2870 H   0  0  0  0  0  0  0  0  0  0  0  0
    5.0130    1.1920    2.8440 H   0  0  0  0  0  0  0  0  0  0  0  0
    4.0730    0.6450    4.1390 H   0  0  0  0  0  0  0  0  0  0  0  0
    0.5290    1.3350   -1.7730 N   0  0  0  0  0  0  0  0  0  0  0  0
    0.2790    2.6250   -1.2390 C   0  0  0  0  0  0  0  0  0  0  0  0
    0.4010    3.5880   -2.0500 O   0  0  0  0  0  0  0  0  0  0  0  0
   -0.0980    2.9560    0.1240 C   0  0  0  0  0  0  0  0  0  0  0  0
   -0.2680    1.7630    1.0530 C   0  0  2  0  0  0  0  0  0  0  0  0
    0.9510    1.0350    1.1370 N   0  0  0  0  0  0  0  0  0  0  0  0
   -1.4920    1.0130    0.7780 C   0  0  0  0  0  0  0  0  0  0  0  0
   -2.5650    1.7210    0.7570 O   0  0  0  0  0  0  0  0  0  0  0  0
    1.4960    0.9340   -1.9010 H   0  0  0  0  0  0  0  0  0  0  0  0
   -0.2560    0.7180   -2.0670 H   0  0  0  0  0  0  0  0  0  0  0  0
   -1.0220    3.5680    0.1310 H   0  0  0  0  0  0  0  0  0  0  0  0
    0.7100    3.5820    0.5740 H   0  0  0  0  0  0  0  0  0  0  0  0
   -0.4140    2.2610    2.0710 H   0  0  0  0  0  0  0  0  0  0  0  0
    1.1930    0.3490    0.3990 H   0  0  0  0  0  0  0  0  0  0  0  0
   -0.6210   -2.6670   -1.3640 C   0  0  0  0  0  0  0  0  0  0  0  0
   -2.0280   -3.0230   -1.0100 C   0  0  0  0  0  0  0  0  0  0  0  0
   -2.9600   -1.8530   -0.9250 C   0  0  2  0  0  0  0  0  0  0  0  0
   -3.0190   -1.1250   -2.2330 C   0  0  0  0  0  0  0  0  0  0  0  0
   -2.8390   -1.0110    0.2890 C   0  0  2  0  0  0  0  0  0  0  0  0
   -1.5890   -0.3800    0.5400 N   0  0  0  0  0  0  0  0  0  0  0  0
   -3.2330   -1.8990    1.4510 C   0  0  0  0  0  0  0  0  0  0  0  0
   -2.4810   -1.9860    2.4440 O   0  0  0  0  0  0  0  0  0  0  0  0
   -4.4090   -2.6060    1.4180 O   0  0  0  0  0  0  0  0  0  0  0  0
    0.1080   -2.8800   -0.5310 H   0  0  0  0  0  0  0  0  0  0  0  0
   -0.5310   -1.6250   -1.7060 H   0  0  0  0  0  0  0  0  0  0  0  0
   -0.2910   -3.2790   -2.2590 H   0  0  0  0  0  0  0  0  0  0  0  0
   -2.0710   -3.6310   -0.0630 H   0  0  0  0  0  0  0  0  0  0  0  0
   -2.4520   -3.6960   -1.8160 H   0  0  0  0  0  0  0  0  0  0  0  0
   -4.0020   -2.3440   -0.8380 H   0  0  0  0  0  0  0  0  0  0  0  0
   -3.3500   -1.8860   -3.0000 H   0  0  0  0  0  0  0  0  0  0  0  0
   -2.0890   -0.7090   -2.6020 H   0  0  0  0  0  0  0  0  0  0  0  0
   -3.8690   -0.3860   -2.2140 H   0  0  0  0  0  0  0  0  0  0  0  0
   -3.6430   -0.2160    0.3060 H   0  0  0  0  0  0  0  0  0  0  0  0
   -0.7150   -0.9340    0.5540 H   0  0  0  0  0  0  0  0  0  0  0  0
  1 11  1  0  0  0  0
  1  2  1  0  0  0  0
  2  3  2  0  0  0  0
  4 12  1  0  0  0  0
  4  2  1  0  0  0  0
  4  5  1  0  0  0  0
  5 15  1  0  0  0  0
  6 16  1  6  0  0  0
  6  5  1  0  0  0  0
  6  7  1  0  0  0  0
  7 18  1  0  0  0  0
  8  6  1  0  0  0  0
  8  9  2  0  0  0  0
 10  1  1  0  0  0  0
 13  4  1  0  0  0  0
 14  5  1  0  0  0  0
 17  7  1  0  0  0  0
 19 20  1  0  0  0  0
 20 22  1  0  0  0  0
 21 20  2  0  0  0  0
 22 29  1  0  0  0  0
 22 30  1  0  0  0  0
 22 23  1  0  0  0  0
 23 24  1  0  0  0  0
 23 31  1  1  0  0  0
 24  8  1  0  0  0  0
 25 23  1  0  0  0  0
 26 25  2  0  0  0  0
 27 19  1  0  0  0  0
 28 19  1  0  0  0  0
 32 24  1  0  0  0  0
 33 34  1  0  0  0  0
 33 42  1  0  0  0  0
 34 35  1  0  0  0  0
 34 45  1  0  0  0  0
 35 47  1  1  0  0  0
 35 37  1  0  0  0  0
 36 50  1  0  0  0  0
 36 35  1  0  0  0  0
 37 51  1  6  0  0  0
 37 38  1  0  0  0  0
 37 39  1  0  0  0  0
 38 52  1  0  0  0  0
 38 25  1  0  0  0  0
 39 40  1  0  0  0  0
 41 39  2  0  0  0  0
 43 33  1  0  0  0  0
 44 33  1  0  0  0  0
 46 34  1  0  0  0  0
 48 36  1  0  0  0  0
 49 36  1  0  0  0  0
M  END
$$$$
