QNK.pdb
 OpenBabel07022418303D

 54 53  0  0  1  0  0  0  0  0999 V2000
    1.8470   -4.3920    5.3480 N   0  0  0  0  0  0  0  0  0  0  0  0
    1.5660   -3.3570    4.4110 C   0  0  0  0  0  0  0  0  0  0  0  0
    0.3800   -3.2590    4.0040 O   0  0  0  0  0  0  0  0  0  0  0  0
    2.6660   -2.4620    3.9690 C   0  0  0  0  0  0  0  0  0  0  0  0
    2.1650   -1.4590    2.9610 C   0  0  0  0  0  0  0  0  0  0  0  0
    3.2350   -0.5320    2.4820 C   0  0  2  0  0  0  0  0  0  0  0  0
    3.8530    0.2610    3.4920 N   0  0  0  0  0  0  0  0  0  0  0  0
    2.7360    0.3530    1.3940 C   0  0  0  0  0  0  0  0  0  0  0  0
    2.9100    1.5970    1.4540 O   0  0  0  0  0  0  0  0  0  0  0  0
    2.4220   -5.2260    5.0640 H   0  0  0  0  0  0  0  0  0  0  0  0
    1.5100   -4.3840    6.3380 H   0  0  0  0  0  0  0  0  0  0  0  0
    2.9600   -1.8590    4.8780 H   0  0  0  0  0  0  0  0  0  0  0  0
    3.5130   -3.0280    3.5640 H   0  0  0  0  0  0  0  0  0  0  0  0
    1.2630   -0.9280    3.3090 H   0  0  0  0  0  0  0  0  0  0  0  0
    1.8300   -2.0480    2.0610 H   0  0  0  0  0  0  0  0  0  0  0  0
    4.0290   -1.1730    2.0100 H   0  0  0  0  0  0  0  0  0  0  0  0
    3.2480    0.4290    4.3260 H   0  0  0  0  0  0  0  0  0  0  0  0
    4.8380    0.0680    3.6920 H   0  0  0  0  0  0  0  0  0  0  0  0
    2.2310    2.5550   -3.4600 N   0  0  0  0  0  0  0  0  0  0  0  0
    1.6600    1.2870   -3.1740 C   0  0  0  0  0  0  0  0  0  0  0  0
    0.6630    0.9430   -3.8570 O   0  0  0  0  0  0  0  0  0  0  0  0
    2.2010    0.3990   -2.1260 C   0  0  0  0  0  0  0  0  0  0  0  0
    1.5570    0.7040   -0.8210 C   0  0  2  0  0  0  0  0  0  0  0  0
    2.0540   -0.1480    0.2570 N   0  0  0  0  0  0  0  0  0  0  0  0
    0.0790    0.7370   -0.8390 C   0  0  0  0  0  0  0  0  0  0  0  0
   -0.6190    1.3780   -1.6360 O   0  0  0  0  0  0  0  0  0  0  0  0
    3.2210    2.5780   -3.7830 H   0  0  0  0  0  0  0  0  0  0  0  0
    1.7370    3.4640   -3.3720 H   0  0  0  0  0  0  0  0  0  0  0  0
    2.0850   -0.6580   -2.4450 H   0  0  0  0  0  0  0  0  0  0  0  0
    3.2860    0.6460   -2.0290 H   0  0  0  0  0  0  0  0  0  0  0  0
    1.8660    1.7530   -0.5340 H   0  0  0  0  0  0  0  0  0  0  0  0
    1.9060   -1.1800    0.1970 H   0  0  0  0  0  0  0  0  0  0  0  0
   -0.6110   -0.0330    0.1450 N   0  0  0  0  0  0  0  0  0  0  0  0
   -2.0730   -0.0740    0.2220 C   0  0  1  0  0  0  0  0  0  0  0  0
   -2.4720   -1.5010    0.0330 C   0  0  0  0  0  0  0  0  0  0  0  0
   -3.9400   -1.7550    0.0780 C   0  0  0  0  0  0  0  0  0  0  0  0
   -4.7010   -1.0080   -0.9950 C   0  0  0  0  0  0  0  0  0  0  0  0
   -4.2000   -1.4460   -2.3690 C   0  0  0  0  0  0  0  0  0  0  0  0
   -4.8970   -0.7640   -3.4260 N   0  0  0  0  0  0  0  0  0  0  0  0
   -2.5420    0.4810    1.5190 C   0  0  0  0  0  0  0  0  0  0  0  0
   -3.7600    0.5380    1.7690 O   0  0  0  0  0  0  0  0  0  0  0  0
   -1.6580    0.9480    2.4820 O   0  0  0  0  0  0  0  0  0  0  0  0
   -0.0510   -0.5800    0.8240 H   0  0  0  0  0  0  0  0  0  0  0  0
   -2.4500    0.5490   -0.6080 H   0  0  0  0  0  0  0  0  0  0  0  0
   -1.9910   -1.9040   -0.8780 H   0  0  0  0  0  0  0  0  0  0  0  0
   -2.0140   -2.0770    0.8830 H   0  0  0  0  0  0  0  0  0  0  0  0
   -4.0810   -2.8460   -0.1570 H   0  0  0  0  0  0  0  0  0  0  0  0
   -4.3570   -1.6070    1.0760 H   0  0  0  0  0  0  0  0  0  0  0  0
   -4.6480    0.0860   -0.8970 H   0  0  0  0  0  0  0  0  0  0  0  0
   -5.7620   -1.3210   -0.9290 H   0  0  0  0  0  0  0  0  0  0  0  0
   -3.1080   -1.2460   -2.4640 H   0  0  0  0  0  0  0  0  0  0  0  0
   -4.3320   -2.5340   -2.5070 H   0  0  0  0  0  0  0  0  0  0  0  0
   -5.0670   -1.4380   -4.2150 H   0  0  0  0  0  0  0  0  0  0  0  0
   -4.2700   -0.0080   -3.8350 H   0  0  0  0  0  0  0  0  0  0  0  0
  1 11  1  0  0  0  0
  2  1  1  0  0  0  0
  3  2  2  0  0  0  0
  4  2  1  0  0  0  0
  4 12  1  0  0  0  0
  5 14  1  0  0  0  0
  5  4  1  0  0  0  0
  6 16  1  6  0  0  0
  6  5  1  0  0  0  0
  6  7  1  0  0  0  0
  7 18  1  0  0  0  0
  7 17  1  0  0  0  0
  8  9  2  0  0  0  0
  8  6  1  0  0  0  0
 10  1  1  0  0  0  0
 13  4  1  0  0  0  0
 15  5  1  0  0  0  0
 19 28  1  0  0  0  0
 19 20  1  0  0  0  0
 20 22  1  0  0  0  0
 21 20  2  0  0  0  0
 22 30  1  0  0  0  0
 22 23  1  0  0  0  0
 23 31  1  1  0  0  0
 23 24  1  0  0  0  0
 24  8  1  0  0  0  0
 25 23  1  0  0  0  0
 25 33  1  0  0  0  0
 26 25  2  0  0  0  0
 27 19  1  0  0  0  0
 29 22  1  0  0  0  0
 32 24  1  0  0  0  0
 33 34  1  0  0  0  0
 33 43  1  0  0  0  0
 34 44  1  6  0  0  0
 34 40  1  0  0  0  0
 35 36  1  0  0  0  0
 35 34  1  0  0  0  0
 35 46  1  0  0  0  0
 36 48  1  0  0  0  0
 37 50  1  0  0  0  0
 37 49  1  0  0  0  0
 37 36  1  0  0  0  0
 38 37  1  0  0  0  0
 39 38  1  0  0  0  0
 40 41  2  0  0  0  0
 40 42  1  0  0  0  0
 45 35  1  0  0  0  0
 47 36  1  0  0  0  0
 51 38  1  0  0  0  0
 52 38  1  0  0  0  0
 53 39  1  0  0  0  0
 54 39  1  0  0  0  0
M  END
$$$$
