QNL.pdb
 OpenBabel07022418303D

 52 51  0  0  1  0  0  0  0  0999 V2000
    5.5160   -0.4610    5.2840 N   0  0  0  0  0  0  0  0  0  0  0  0
    4.2930   -1.1830    5.1650 C   0  0  0  0  0  0  0  0  0  0  0  0
    3.3640   -0.8350    5.9240 O   0  0  0  0  0  0  0  0  0  0  0  0
    4.1120   -2.2830    4.2050 C   0  0  0  0  0  0  0  0  0  0  0  0
    2.7970   -2.9650    4.2220 C   0  0  0  0  0  0  0  0  0  0  0  0
    1.6120   -2.0910    3.9220 C   0  0  2  0  0  0  0  0  0  0  0  0
    0.4140   -2.9350    3.9760 N   0  0  0  0  0  0  0  0  0  0  0  0
    1.6940   -1.3370    2.6700 C   0  0  0  0  0  0  0  0  0  0  0  0
    2.5650   -0.4410    2.5260 O   0  0  0  0  0  0  0  0  0  0  0  0
    5.7400    0.3310    4.6790 H   0  0  0  0  0  0  0  0  0  0  0  0
    6.2110   -0.7620    6.0290 H   0  0  0  0  0  0  0  0  0  0  0  0
    4.9530   -3.0100    4.4130 H   0  0  0  0  0  0  0  0  0  0  0  0
    4.2840   -1.8470    3.1760 H   0  0  0  0  0  0  0  0  0  0  0  0
    2.7830   -3.9130    3.6410 H   0  0  0  0  0  0  0  0  0  0  0  0
    2.6350   -3.3190    5.2870 H   0  0  0  0  0  0  0  0  0  0  0  0
    1.4860   -1.3950    4.7760 H   0  0  0  0  0  0  0  0  0  0  0  0
    0.5320   -3.4890    4.8800 H   0  0  0  0  0  0  0  0  0  0  0  0
    0.3950   -3.6190    3.1920 H   0  0  0  0  0  0  0  0  0  0  0  0
   -0.4770   -3.1150   -0.5670 N   0  0  0  0  0  0  0  0  0  0  0  0
    0.7220   -2.7120   -1.2180 C   0  0  0  0  0  0  0  0  0  0  0  0
    1.0850   -3.4710   -2.1770 O   0  0  0  0  0  0  0  0  0  0  0  0
    1.5140   -1.5130   -0.8410 C   0  0  0  0  0  0  0  0  0  0  0  0
    0.9430   -0.7690    0.3360 C   0  0  2  0  0  0  0  0  0  0  0  0
    0.8490   -1.5190    1.5370 N   0  0  0  0  0  0  0  0  0  0  0  0
   -0.3550   -0.1150    0.0320 C   0  0  0  0  0  0  0  0  0  0  0  0
   -1.3660   -0.2920    0.7920 O   0  0  0  0  0  0  0  0  0  0  0  0
   -1.3780   -2.6280   -0.6400 H   0  0  0  0  0  0  0  0  0  0  0  0
   -0.4360   -3.9720    0.0290 H   0  0  0  0  0  0  0  0  0  0  0  0
    1.4770   -0.8500   -1.7530 H   0  0  0  0  0  0  0  0  0  0  0  0
    2.5980   -1.7240   -0.7230 H   0  0  0  0  0  0  0  0  0  0  0  0
    1.6870    0.0610    0.5260 H   0  0  0  0  0  0  0  0  0  0  0  0
    0.1230   -2.2600    1.6270 H   0  0  0  0  0  0  0  0  0  0  0  0
   -4.8520   -0.0990   -3.1420 C   0  0  0  0  0  0  0  0  0  0  0  0
   -4.0410    1.0320   -2.4930 C   0  0  0  0  0  0  0  0  0  0  0  0
   -3.8400    2.0420   -3.6250 C   0  0  0  0  0  0  0  0  0  0  0  0
   -2.7330    0.4680   -2.0930 C   0  0  0  0  0  0  0  0  0  0  0  0
   -1.7830    1.3930   -1.4430 C   0  0  2  0  0  0  0  0  0  0  0  0
   -0.5460    0.7270   -1.0990 N   0  0  0  0  0  0  0  0  0  0  0  0
   -2.2680    2.1660   -0.3050 C   0  0  0  0  0  0  0  0  0  0  0  0
   -1.5800    2.2470    0.7330 O   0  0  0  0  0  0  0  0  0  0  0  0
   -3.4820    2.8520   -0.2720 O   0  0  0  0  0  0  0  0  0  0  0  0
   -5.9450    0.1400   -3.0390 H   0  0  0  0  0  0  0  0  0  0  0  0
   -4.7070   -1.0470   -2.6180 H   0  0  0  0  0  0  0  0  0  0  0  0
   -4.6180   -0.1970   -4.2100 H   0  0  0  0  0  0  0  0  0  0  0  0
   -4.6660    1.4270   -1.6980 H   0  0  0  0  0  0  0  0  0  0  0  0
   -4.8340    2.5180   -3.7700 H   0  0  0  0  0  0  0  0  0  0  0  0
   -3.0250    2.7440   -3.4470 H   0  0  0  0  0  0  0  0  0  0  0  0
   -3.6140    1.4960   -4.5750 H   0  0  0  0  0  0  0  0  0  0  0  0
   -2.8880   -0.4260   -1.4490 H   0  0  0  0  0  0  0  0  0  0  0  0
   -2.2600    0.0530   -3.0350 H   0  0  0  0  0  0  0  0  0  0  0  0
   -1.4720    2.1890   -2.2060 H   0  0  0  0  0  0  0  0  0  0  0  0
    0.3330    0.8310   -1.6930 H   0  0  0  0  0  0  0  0  0  0  0  0
  1 11  1  0  0  0  0
  2  1  1  0  0  0  0
  2  3  2  0  0  0  0
  4  5  1  0  0  0  0
  4 12  1  0  0  0  0
  4  2  1  0  0  0  0
  5 15  1  0  0  0  0
  6  7  1  0  0  0  0
  6  5  1  0  0  0  0
  6 16  1  1  0  0  0
  7 17  1  0  0  0  0
  8  6  1  0  0  0  0
  9  8  2  0  0  0  0
 10  1  1  0  0  0  0
 13  4  1  0  0  0  0
 14  5  1  0  0  0  0
 18  7  1  0  0  0  0
 19 28  1  0  0  0  0
 20 22  1  0  0  0  0
 20 19  1  0  0  0  0
 21 20  2  0  0  0  0
 22 30  1  0  0  0  0
 22 23  1  0  0  0  0
 23 31  1  1  0  0  0
 23 24  1  0  0  0  0
 24 32  1  0  0  0  0
 24  8  1  0  0  0  0
 25 23  1  0  0  0  0
 25 26  2  0  0  0  0
 27 19  1  0  0  0  0
 29 22  1  0  0  0  0
 33 42  1  0  0  0  0
 33 43  1  0  0  0  0
 33 34  1  0  0  0  0
 34 36  1  0  0  0  0
 34 45  1  0  0  0  0
 35 47  1  0  0  0  0
 35 34  1  0  0  0  0
 36 49  1  0  0  0  0
 36 37  1  0  0  0  0
 37 51  1  6  0  0  0
 37 38  1  0  0  0  0
 37 39  1  0  0  0  0
 38 25  1  0  0  0  0
 39 41  2  0  0  0  0
 39 40  1  0  0  0  0
 44 33  1  0  0  0  0
 46 35  1  0  0  0  0
 48 35  1  0  0  0  0
 50 36  1  0  0  0  0
 52 38  1  0  0  0  0
M  END
$$$$
