QNM.pdb
 OpenBabel07022418303D

 50 49  0  0  1  0  0  0  0  0999 V2000
    3.7970   -4.5920    2.6420 N   0  0  0  0  0  0  0  0  0  0  0  0
    3.0860   -3.4590    2.1520 C   0  0  0  0  0  0  0  0  0  0  0  0
    3.3740   -3.0570    0.9980 O   0  0  0  0  0  0  0  0  0  0  0  0
    2.0780   -2.8630    3.0460 C   0  0  0  0  0  0  0  0  0  0  0  0
    1.3760   -1.6740    2.4950 C   0  0  0  0  0  0  0  0  0  0  0  0
    2.2960   -0.5180    2.1600 C   0  0  2  0  0  0  0  0  0  0  0  0
    2.9410   -0.1710    3.4380 N   0  0  0  0  0  0  0  0  0  0  0  0
    1.5720    0.6610    1.6890 C   0  0  0  0  0  0  0  0  0  0  0  0
    1.5570    1.7460    2.3680 O   0  0  0  0  0  0  0  0  0  0  0  0
    4.8140   -4.6440    2.4460 H   0  0  0  0  0  0  0  0  0  0  0  0
    3.2710   -5.3070    3.1660 H   0  0  0  0  0  0  0  0  0  0  0  0
    1.2970   -3.6520    3.2060 H   0  0  0  0  0  0  0  0  0  0  0  0
    2.4940   -2.6740    4.0750 H   0  0  0  0  0  0  0  0  0  0  0  0
    0.7970   -1.9960    1.6070 H   0  0  0  0  0  0  0  0  0  0  0  0
    0.6300   -1.2760    3.2120 H   0  0  0  0  0  0  0  0  0  0  0  0
    3.1240   -0.7970    1.4790 H   0  0  0  0  0  0  0  0  0  0  0  0
    2.2470    0.0340    4.1750 H   0  0  0  0  0  0  0  0  0  0  0  0
    3.6590   -0.8820    3.7060 H   0  0  0  0  0  0  0  0  0  0  0  0
    3.0660    1.8900   -1.7220 N   0  0  0  0  0  0  0  0  0  0  0  0
    2.0790    2.7450   -1.1610 C   0  0  0  0  0  0  0  0  0  0  0  0
    2.4090    3.7910   -0.5460 O   0  0  0  0  0  0  0  0  0  0  0  0
    0.6300    2.4340   -1.2800 C   0  0  0  0  0  0  0  0  0  0  0  0
    0.1330    1.9260    0.0570 C   0  0  2  0  0  0  0  0  0  0  0  0
    0.8320    0.7290    0.4700 N   0  0  0  0  0  0  0  0  0  0  0  0
   -1.3010    1.6200   -0.0400 C   0  0  0  0  0  0  0  0  0  0  0  0
   -2.1400    2.5000   -0.3430 O   0  0  0  0  0  0  0  0  0  0  0  0
    2.8490    0.8720   -1.8310 H   0  0  0  0  0  0  0  0  0  0  0  0
    3.9980    2.2860   -2.0190 H   0  0  0  0  0  0  0  0  0  0  0  0
    0.1090    3.3950   -1.4770 H   0  0  0  0  0  0  0  0  0  0  0  0
    0.4500    1.7060   -2.0930 H   0  0  0  0  0  0  0  0  0  0  0  0
    0.2790    2.7600    0.7800 H   0  0  0  0  0  0  0  0  0  0  0  0
    0.8010   -0.1090   -0.1370 H   0  0  0  0  0  0  0  0  0  0  0  0
   -0.8550   -2.8750   -0.6100 C   0  0  0  0  0  0  0  0  0  0  0  0
   -1.9550   -2.5040   -1.9540 S   0  0  0  0  0  0  0  0  0  0  0  0
   -3.5610   -1.9380   -1.5260 C   0  0  0  0  0  0  0  0  0  0  0  0
   -3.8170   -0.5810   -1.0640 C   0  0  0  0  0  0  0  0  0  0  0  0
   -3.2480    0.0640    0.1090 C   0  0  2  0  0  0  0  0  0  0  0  0
   -1.8380    0.2920    0.2090 N   0  0  0  0  0  0  0  0  0  0  0  0
   -3.7670   -0.5470    1.3980 C   0  0  0  0  0  0  0  0  0  0  0  0
   -3.0070   -0.7860    2.3660 O   0  0  0  0  0  0  0  0  0  0  0  0
   -5.1190   -0.8220    1.4350 O   0  0  0  0  0  0  0  0  0  0  0  0
   -0.5700   -3.9760   -0.6480 H   0  0  0  0  0  0  0  0  0  0  0  0
   -1.3810   -2.7560    0.3770 H   0  0  0  0  0  0  0  0  0  0  0  0
    0.0570   -2.2790   -0.6480 H   0  0  0  0  0  0  0  0  0  0  0  0
   -4.2200   -2.0730   -2.4750 H   0  0  0  0  0  0  0  0  0  0  0  0
   -4.0910   -2.6710   -0.8090 H   0  0  0  0  0  0  0  0  0  0  0  0
   -4.9760   -0.5110   -0.9680 H   0  0  0  0  0  0  0  0  0  0  0  0
   -3.6220    0.1210   -1.9600 H   0  0  0  0  0  0  0  0  0  0  0  0
   -3.7460    1.1130    0.1350 H   0  0  0  0  0  0  0  0  0  0  0  0
   -1.1250   -0.4080    0.4700 H   0  0  0  0  0  0  0  0  0  0  0  0
  1 11  1  0  0  0  0
  2  1  1  0  0  0  0
  2  4  1  0  0  0  0
  3  2  2  0  0  0  0
  4 12  1  0  0  0  0
  4 13  1  0  0  0  0
  5  4  1  0  0  0  0
  5 15  1  0  0  0  0
  6 16  1  6  0  0  0
  6  5  1  0  0  0  0
  6  7  1  0  0  0  0
  7 18  1  0  0  0  0
  7 17  1  0  0  0  0
  8  6  1  0  0  0  0
  8  9  2  0  0  0  0
 10  1  1  0  0  0  0
 14  5  1  0  0  0  0
 19 20  1  0  0  0  0
 20 21  2  0  0  0  0
 22 20  1  0  0  0  0
 22 23  1  0  0  0  0
 23 24  1  0  0  0  0
 23 31  1  1  0  0  0
 24  8  1  0  0  0  0
 25 23  1  0  0  0  0
 25 38  1  0  0  0  0
 26 25  2  0  0  0  0
 27 19  1  0  0  0  0
 28 19  1  0  0  0  0
 29 22  1  0  0  0  0
 30 22  1  0  0  0  0
 32 24  1  0  0  0  0
 33 43  1  0  0  0  0
 34 35  1  0  0  0  0
 34 33  1  0  0  0  0
 35 36  1  0  0  0  0
 35 46  1  0  0  0  0
 36 47  1  0  0  0  0
 36 37  1  0  0  0  0
 37 49  1  6  0  0  0
 37 38  1  0  0  0  0
 37 39  1  0  0  0  0
 38 50  1  0  0  0  0
 39 41  2  0  0  0  0
 39 40  1  0  0  0  0
 42 33  1  0  0  0  0
 44 33  1  0  0  0  0
 45 35  1  0  0  0  0
 48 36  1  0  0  0  0
M  END
$$$$
