QNN.pdb
 OpenBabel07022418303D

 47 46  0  0  1  0  0  0  0  0999 V2000
    1.6170   -2.8890    6.7010 N   0  0  0  0  0  0  0  0  0  0  0  0
    1.7820   -1.8790    5.7200 C   0  0  0  0  0  0  0  0  0  0  0  0
    1.1670   -0.8050    5.8820 O   0  0  0  0  0  0  0  0  0  0  0  0
    2.6640   -2.1330    4.5610 C   0  0  0  0  0  0  0  0  0  0  0  0
    2.6850   -1.0310    3.5630 C   0  0  0  0  0  0  0  0  0  0  0  0
    1.3450   -0.7250    2.9310 C   0  0  2  0  0  0  0  0  0  0  0  0
    0.9290   -1.9690    2.2610 N   0  0  0  0  0  0  0  0  0  0  0  0
    1.5160    0.3540    1.9330 C   0  0  0  0  0  0  0  0  0  0  0  0
    1.8510    1.5170    2.1990 O   0  0  0  0  0  0  0  0  0  0  0  0
    1.1230   -3.7610    6.4840 H   0  0  0  0  0  0  0  0  0  0  0  0
    2.0080   -2.7330    7.6520 H   0  0  0  0  0  0  0  0  0  0  0  0
    2.3770   -3.1210    4.1480 H   0  0  0  0  0  0  0  0  0  0  0  0
    3.6890   -2.2980    5.0020 H   0  0  0  0  0  0  0  0  0  0  0  0
    3.4290   -1.3170    2.7760 H   0  0  0  0  0  0  0  0  0  0  0  0
    3.0740   -0.1200    4.1030 H   0  0  0  0  0  0  0  0  0  0  0  0
    0.5810   -0.5070    3.6770 H   0  0  0  0  0  0  0  0  0  0  0  0
   -0.0120   -1.7660    1.8320 H   0  0  0  0  0  0  0  0  0  0  0  0
    0.7850   -2.7280    2.9480 H   0  0  0  0  0  0  0  0  0  0  0  0
    1.2580   -1.4780   -2.0920 N   0  0  0  0  0  0  0  0  0  0  0  0
    2.2930   -0.5380   -2.2490 C   0  0  0  0  0  0  0  0  0  0  0  0
    3.1750   -0.7970   -3.1210 O   0  0  0  0  0  0  0  0  0  0  0  0
    2.4370    0.7020   -1.4990 C   0  0  0  0  0  0  0  0  0  0  0  0
    1.4130    0.9980   -0.4830 C   0  0  2  0  0  0  0  0  0  0  0  0
    1.2810    0.0430    0.5690 N   0  0  0  0  0  0  0  0  0  0  0  0
    0.0700    1.2730   -1.0600 C   0  0  0  0  0  0  0  0  0  0  0  0
   -0.1090    2.0830   -2.0050 O   0  0  0  0  0  0  0  0  0  0  0  0
    0.3210   -1.2780   -2.4700 H   0  0  0  0  0  0  0  0  0  0  0  0
    1.4370   -2.3650   -1.6010 H   0  0  0  0  0  0  0  0  0  0  0  0
    3.4470    0.7590   -1.0460 H   0  0  0  0  0  0  0  0  0  0  0  0
    2.4160    1.5440   -2.2520 H   0  0  0  0  0  0  0  0  0  0  0  0
    1.7180    1.9740    0.0010 H   0  0  0  0  0  0  0  0  0  0  0  0
    0.9920   -0.9380    0.2710 H   0  0  0  0  0  0  0  0  0  0  0  0
   -4.6130   -1.6060   -2.9620 N   0  0  0  0  0  0  0  0  0  0  0  0
   -4.1050   -0.3790   -2.4480 C   0  0  0  0  0  0  0  0  0  0  0  0
   -4.7810    0.6450   -2.6160 O   0  0  0  0  0  0  0  0  0  0  0  0
   -2.8170   -0.4130   -1.7570 C   0  0  0  0  0  0  0  0  0  0  0  0
   -2.4140    0.9100   -1.1470 C   0  0  2  0  0  0  0  0  0  0  0  0
   -1.0740    0.6160   -0.5520 N   0  0  0  0  0  0  0  0  0  0  0  0
   -3.3480    1.2400   -0.0600 C   0  0  0  0  0  0  0  0  0  0  0  0
   -2.9440    1.1940    1.1320 O   0  0  0  0  0  0  0  0  0  0  0  0
   -4.6380    1.5960   -0.2840 O   0  0  0  0  0  0  0  0  0  0  0  0
   -5.1630   -1.5970   -3.8600 H   0  0  0  0  0  0  0  0  0  0  0  0
   -4.4630   -2.5030   -2.4860 H   0  0  0  0  0  0  0  0  0  0  0  0
   -2.8290   -1.2160   -0.9560 H   0  0  0  0  0  0  0  0  0  0  0  0
   -2.0360   -0.7390   -2.4970 H   0  0  0  0  0  0  0  0  0  0  0  0
   -2.3230    1.6450   -1.9430 H   0  0  0  0  0  0  0  0  0  0  0  0
   -1.0600   -0.0750    0.2240 H   0  0  0  0  0  0  0  0  0  0  0  0
  1 11  1  0  0  0  0
  2  3  2  0  0  0  0
  2  1  1  0  0  0  0
  4 13  1  0  0  0  0
  4  2  1  0  0  0  0
  5 15  1  0  0  0  0
  5  4  1  0  0  0  0
  6  5  1  0  0  0  0
  6 16  1  1  0  0  0
  7  6  1  0  0  0  0
  7 18  1  0  0  0  0
  8  9  2  0  0  0  0
  8  6  1  0  0  0  0
 10  1  1  0  0  0  0
 12  4  1  0  0  0  0
 14  5  1  0  0  0  0
 17  7  1  0  0  0  0
 19 28  1  0  0  0  0
 20 19  1  0  0  0  0
 20 22  1  0  0  0  0
 21 20  2  0  0  0  0
 22 29  1  0  0  0  0
 22 23  1  0  0  0  0
 23 31  1  1  0  0  0
 23 24  1  0  0  0  0
 24  8  1  0  0  0  0
 25 38  1  0  0  0  0
 25 23  1  0  0  0  0
 26 25  2  0  0  0  0
 27 19  1  0  0  0  0
 30 22  1  0  0  0  0
 32 24  1  0  0  0  0
 33 43  1  0  0  0  0
 33 34  1  0  0  0  0
 34 36  1  0  0  0  0
 35 34  2  0  0  0  0
 36 37  1  0  0  0  0
 36 44  1  0  0  0  0
 37 46  1  6  0  0  0
 37 38  1  0  0  0  0
 37 39  1  0  0  0  0
 38 47  1  0  0  0  0
 39 40  1  0  0  0  0
 41 39  2  0  0  0  0
 42 33  1  0  0  0  0
 45 36  1  0  0  0  0
M  END
$$$$
