QNP.pdb
 OpenBabel07022418303D

 47 47  0  0  1  0  0  0  0  0999 V2000
    1.2320   -5.0170    3.5870 N   0  0  0  0  0  0  0  0  0  0  0  0
    1.3840   -3.6350    3.2610 C   0  0  0  0  0  0  0  0  0  0  0  0
    0.4820   -2.8540    3.6460 O   0  0  0  0  0  0  0  0  0  0  0  0
    2.5380   -3.1190    2.5130 C   0  0  0  0  0  0  0  0  0  0  0  0
    2.2620   -1.7330    2.0150 C   0  0  0  0  0  0  0  0  0  0  0  0
    1.1060   -1.7690    1.0530 C   0  0  2  0  0  0  0  0  0  0  0  0
    1.4580   -2.6380   -0.0590 N   0  0  0  0  0  0  0  0  0  0  0  0
    0.7730   -0.3940    0.5740 C   0  0  0  0  0  0  0  0  0  0  0  0
    0.8480   -0.1970   -0.6550 O   0  0  0  0  0  0  0  0  0  0  0  0
    0.4160   -5.3580    4.1300 H   0  0  0  0  0  0  0  0  0  0  0  0
    1.9390   -5.7190    3.2860 H   0  0  0  0  0  0  0  0  0  0  0  0
    3.4740   -3.1320    3.1160 H   0  0  0  0  0  0  0  0  0  0  0  0
    2.6720   -3.7480    1.5800 H   0  0  0  0  0  0  0  0  0  0  0  0
    2.0030   -1.0610    2.8880 H   0  0  0  0  0  0  0  0  0  0  0  0
    3.1470   -1.3000    1.4790 H   0  0  0  0  0  0  0  0  0  0  0  0
    0.2060   -2.1310    1.5610 H   0  0  0  0  0  0  0  0  0  0  0  0
    0.9970   -2.2810   -0.9420 H   0  0  0  0  0  0  0  0  0  0  0  0
    2.4950   -2.6960   -0.1800 H   0  0  0  0  0  0  0  0  0  0  0  0
    3.3690    1.4050    0.2110 N   0  0  0  0  0  0  0  0  0  0  0  0
    2.2500    2.2050   -0.1450 C   0  0  0  0  0  0  0  0  0  0  0  0
    2.0980    2.4800   -1.3630 O   0  0  0  0  0  0  0  0  0  0  0  0
    1.3240    2.6850    0.8600 C   0  0  0  0  0  0  0  0  0  0  0  0
    0.0860    1.8990    1.1110 C   0  0  2  0  0  0  0  0  0  0  0  0
    0.4010    0.5710    1.5430 N   0  0  0  0  0  0  0  0  0  0  0  0
   -0.9170    1.9030    0.0550 C   0  0  0  0  0  0  0  0  0  0  0  0
   -0.9200    2.9630   -0.6810 O   0  0  0  0  0  0  0  0  0  0  0  0
    3.8710    1.5850    1.1240 H   0  0  0  0  0  0  0  0  0  0  0  0
    3.7330    0.6410   -0.3730 H   0  0  0  0  0  0  0  0  0  0  0  0
    1.8420    2.8860    1.8510 H   0  0  0  0  0  0  0  0  0  0  0  0
    1.0200    3.7360    0.5520 H   0  0  0  0  0  0  0  0  0  0  0  0
   -0.4020    2.4270    2.0430 H   0  0  0  0  0  0  0  0  0  0  0  0
    0.3680    0.2800    2.5550 H   0  0  0  0  0  0  0  0  0  0  0  0
   -1.8570    0.9250   -0.2420 N   0  0  0  0  0  0  0  0  0  0  0  0
   -2.8020    0.9860   -1.3980 C   0  0  0  0  0  0  0  0  0  0  0  0
   -4.0200    0.2200   -0.9760 C   0  0  0  0  0  0  0  0  0  0  0  0
   -3.7800   -0.0190    0.5200 C   0  0  0  0  0  0  0  0  0  0  0  0
   -2.2400   -0.2840    0.4310 C   0  0  1  0  0  0  0  0  0  0  0  0
   -2.1570   -1.5080   -0.3960 C   0  0  0  0  0  0  0  0  0  0  0  0
   -2.5060   -2.5830    0.1570 O   0  0  0  0  0  0  0  0  0  0  0  0
   -1.7340   -1.5700   -1.7020 O   0  0  0  0  0  0  0  0  0  0  0  0
   -2.3630    0.5770   -2.3050 H   0  0  0  0  0  0  0  0  0  0  0  0
   -3.0660    2.0650   -1.5790 H   0  0  0  0  0  0  0  0  0  0  0  0
   -4.9640    0.7540   -1.1550 H   0  0  0  0  0  0  0  0  0  0  0  0
   -4.0430   -0.8110   -1.4240 H   0  0  0  0  0  0  0  0  0  0  0  0
   -3.9020    0.8920    1.1120 H   0  0  0  0  0  0  0  0  0  0  0  0
   -4.2990   -0.9090    0.8910 H   0  0  0  0  0  0  0  0  0  0  0  0
   -1.8570   -0.4130    1.4490 H   0  0  0  0  0  0  0  0  0  0  0  0
  1 10  1  0  0  0  0
  2  1  1  0  0  0  0
  2  3  2  0  0  0  0
  4 12  1  0  0  0  0
  4  2  1  0  0  0  0
  5  4  1  0  0  0  0
  5 14  1  0  0  0  0
  6 16  1  1  0  0  0
  6  5  1  0  0  0  0
  7  6  1  0  0  0  0
  8  6  1  0  0  0  0
  8 24  1  0  0  0  0
  9  8  2  0  0  0  0
 11  1  1  0  0  0  0
 13  4  1  0  0  0  0
 15  5  1  0  0  0  0
 17  7  1  0  0  0  0
 18  7  1  0  0  0  0
 19 27  1  0  0  0  0
 20 19  1  0  0  0  0
 20 22  1  0  0  0  0
 21 20  2  0  0  0  0
 22 23  1  0  0  0  0
 22 29  1  0  0  0  0
 23 24  1  0  0  0  0
 23 31  1  1  0  0  0
 24 32  1  0  0  0  0
 25 23  1  0  0  0  0
 26 25  2  0  0  0  0
 28 19  1  0  0  0  0
 30 22  1  0  0  0  0
 33 25  1  0  0  0  0
 33 37  1  0  0  0  0
 34 35  1  0  0  0  0
 34 33  1  0  0  0  0
 35 36  1  0  0  0  0
 36 46  1  0  0  0  0
 36 45  1  0  0  0  0
 37 36  1  0  0  0  0
 37 47  1  1  0  0  0
 38 39  1  0  0  0  0
 38 37  1  0  0  0  0
 40 38  2  0  0  0  0
 41 34  1  0  0  0  0
 42 34  1  0  0  0  0
 43 35  1  0  0  0  0
 44 35  1  0  0  0  0
M  END
$$$$
