QNQ.pdb
 OpenBabel07022418303D

 50 49  0  0  1  0  0  0  0  0999 V2000
    4.8640   -2.3400    3.9230 N   0  0  0  0  0  0  0  0  0  0  0  0
    4.5880   -1.6870    2.6940 C   0  0  0  0  0  0  0  0  0  0  0  0
    3.9210   -0.6070    2.7610 O   0  0  0  0  0  0  0  0  0  0  0  0
    5.0410   -2.2090    1.4110 C   0  0  0  0  0  0  0  0  0  0  0  0
    4.3340   -1.8250    0.1860 C   0  0  0  0  0  0  0  0  0  0  0  0
    2.9250   -2.2430   -0.0310 C   0  0  2  0  0  0  0  0  0  0  0  0
    2.4550   -1.7170   -1.3330 N   0  0  0  0  0  0  0  0  0  0  0  0
    2.0130   -1.8620    1.0390 C   0  0  0  0  0  0  0  0  0  0  0  0
    1.9190   -2.6170    2.0660 O   0  0  0  0  0  0  0  0  0  0  0  0
    5.1320   -3.3400    3.9610 H   0  0  0  0  0  0  0  0  0  0  0  0
    4.8030   -1.8040    4.8030 H   0  0  0  0  0  0  0  0  0  0  0  0
    6.1140   -1.8730    1.2830 H   0  0  0  0  0  0  0  0  0  0  0  0
    5.1140   -3.3250    1.4650 H   0  0  0  0  0  0  0  0  0  0  0  0
    4.9780   -2.2140   -0.6780 H   0  0  0  0  0  0  0  0  0  0  0  0
    4.4300   -0.6960    0.0200 H   0  0  0  0  0  0  0  0  0  0  0  0
    2.9210   -3.3500   -0.1590 H   0  0  0  0  0  0  0  0  0  0  0  0
    2.9940   -2.2760   -2.0410 H   0  0  0  0  0  0  0  0  0  0  0  0
    2.5990   -0.7070   -1.3950 H   0  0  0  0  0  0  0  0  0  0  0  0
   -0.1560    0.5900    5.1250 N   0  0  0  0  0  0  0  0  0  0  0  0
   -0.2250    1.2390    3.8680 C   0  0  0  0  0  0  0  0  0  0  0  0
   -1.1190    2.1070    3.7070 O   0  0  0  0  0  0  0  0  0  0  0  0
    0.7040    0.9200    2.7810 C   0  0  0  0  0  0  0  0  0  0  0  0
    0.2970   -0.3750    2.1120 C   0  0  2  0  0  0  0  0  0  0  0  0
    1.2060   -0.7130    1.0420 N   0  0  0  0  0  0  0  0  0  0  0  0
   -1.0850   -0.1730    1.5820 C   0  0  0  0  0  0  0  0  0  0  0  0
   -2.0010    0.1000    2.3850 O   0  0  0  0  0  0  0  0  0  0  0  0
   -0.4720    1.0330    6.0250 H   0  0  0  0  0  0  0  0  0  0  0  0
    0.2240   -0.3860    5.2180 H   0  0  0  0  0  0  0  0  0  0  0  0
    1.7220    0.8540    3.2430 H   0  0  0  0  0  0  0  0  0  0  0  0
    0.6700    1.7320    2.0190 H   0  0  0  0  0  0  0  0  0  0  0  0
    0.2360   -1.1250    2.9130 H   0  0  0  0  0  0  0  0  0  0  0  0
    1.2620   -0.0630    0.2300 H   0  0  0  0  0  0  0  0  0  0  0  0
   -5.8350    0.0550   -3.2150 N   0  0  0  0  0  0  0  0  0  0  0  0
   -4.4570    0.1710   -2.9200 C   0  0  0  0  0  0  0  0  0  0  0  0
   -3.5880   -0.6420   -3.4090 O   0  0  0  0  0  0  0  0  0  0  0  0
   -4.0080    1.2650   -2.0260 C   0  0  0  0  0  0  0  0  0  0  0  0
   -2.7090    1.0040   -1.3500 C   0  0  0  0  0  0  0  0  0  0  0  0
   -2.7380   -0.0710   -0.3520 C   0  0  2  0  0  0  0  0  0  0  0  0
   -1.3800   -0.2820    0.2090 N   0  0  0  0  0  0  0  0  0  0  0  0
   -3.3370   -1.3600   -0.6430 C   0  0  0  0  0  0  0  0  0  0  0  0
   -2.5510   -2.3930   -0.6380 O   0  0  0  0  0  0  0  0  0  0  0  0
   -4.6420   -1.6710   -0.9240 O   0  0  0  0  0  0  0  0  0  0  0  0
   -6.5200    0.3910   -2.5230 H   0  0  0  0  0  0  0  0  0  0  0  0
   -6.1850   -0.3650   -4.1150 H   0  0  0  0  0  0  0  0  0  0  0  0
   -4.0040    2.2460   -2.5790 H   0  0  0  0  0  0  0  0  0  0  0  0
   -4.8450    1.4110   -1.2790 H   0  0  0  0  0  0  0  0  0  0  0  0
   -2.4900    1.9720   -0.7700 H   0  0  0  0  0  0  0  0  0  0  0  0
   -1.8850    0.8800   -2.1130 H   0  0  0  0  0  0  0  0  0  0  0  0
   -3.3750    0.3470    0.5210 H   0  0  0  0  0  0  0  0  0  0  0  0
   -0.5990   -0.5170   -0.4360 H   0  0  0  0  0  0  0  0  0  0  0  0
  1 10  1  0  0  0  0
  1 11  1  0  0  0  0
  2  3  2  0  0  0  0
  2  1  1  0  0  0  0
  4 13  1  0  0  0  0
  4  2  1  0  0  0  0
  5  4  1  0  0  0  0
  6 16  1  6  0  0  0
  6  5  1  0  0  0  0
  6  8  1  0  0  0  0
  7  6  1  0  0  0  0
  8 24  1  0  0  0  0
  8  9  2  0  0  0  0
 12  4  1  0  0  0  0
 14  5  1  0  0  0  0
 15  5  1  0  0  0  0
 17  7  1  0  0  0  0
 18  7  1  0  0  0  0
 19 28  1  0  0  0  0
 19 27  1  0  0  0  0
 20 19  1  0  0  0  0
 21 20  2  0  0  0  0
 22 29  1  0  0  0  0
 22 20  1  0  0  0  0
 23 22  1  0  0  0  0
 23 31  1  1  0  0  0
 24 23  1  0  0  0  0
 25 23  1  0  0  0  0
 25 26  2  0  0  0  0
 30 22  1  0  0  0  0
 32 24  1  0  0  0  0
 33 34  1  0  0  0  0
 33 43  1  0  0  0  0
 34 36  1  0  0  0  0
 35 34  2  0  0  0  0
 36 37  1  0  0  0  0
 36 46  1  0  0  0  0
 37 47  1  0  0  0  0
 37 38  1  0  0  0  0
 38 39  1  0  0  0  0
 38 49  1  1  0  0  0
 39 25  1  0  0  0  0
 40 41  1  0  0  0  0
 40 38  1  0  0  0  0
 42 40  2  0  0  0  0
 44 33  1  0  0  0  0
 45 36  1  0  0  0  0
 48 37  1  0  0  0  0
 50 39  1  0  0  0  0
M  END
$$$$
