QNS.pdb
 OpenBabel07022418313D

 44 43  0  0  1  0  0  0  0  0999 V2000
    0.8140   -7.2020    0.2050 N   0  0  0  0  0  0  0  0  0  0  0  0
    0.9710   -5.8490    0.6380 C   0  0  0  0  0  0  0  0  0  0  0  0
   -0.0390   -5.3780    1.2490 O   0  0  0  0  0  0  0  0  0  0  0  0
    2.2060   -5.0830    0.3900 C   0  0  0  0  0  0  0  0  0  0  0  0
    2.1240   -3.6270    0.7600 C   0  0  0  0  0  0  0  0  0  0  0  0
    1.0680   -2.9630   -0.0580 C   0  0  2  0  0  0  0  0  0  0  0  0
    1.3850   -3.0790   -1.4660 N   0  0  0  0  0  0  0  0  0  0  0  0
    0.9240   -1.5140    0.2600 C   0  0  0  0  0  0  0  0  0  0  0  0
    1.0880   -0.7050   -0.6830 O   0  0  0  0  0  0  0  0  0  0  0  0
    0.1450   -7.3790   -0.5870 H   0  0  0  0  0  0  0  0  0  0  0  0
    1.3010   -8.0170    0.6030 H   0  0  0  0  0  0  0  0  0  0  0  0
    2.5440   -5.2210   -0.6680 H   0  0  0  0  0  0  0  0  0  0  0  0
    3.0110   -5.5600    0.9980 H   0  0  0  0  0  0  0  0  0  0  0  0
    1.8790   -3.5980    1.8480 H   0  0  0  0  0  0  0  0  0  0  0  0
    3.1220   -3.1860    0.6230 H   0  0  0  0  0  0  0  0  0  0  0  0
    0.0970   -3.4280    0.0880 H   0  0  0  0  0  0  0  0  0  0  0  0
    0.8850   -3.8480   -1.9300 H   0  0  0  0  0  0  0  0  0  0  0  0
    2.4250   -3.0800   -1.6320 H   0  0  0  0  0  0  0  0  0  0  0  0
    1.9600    2.9990    3.1940 N   0  0  0  0  0  0  0  0  0  0  0  0
    1.8660    2.4890    1.8840 C   0  0  0  0  0  0  0  0  0  0  0  0
    1.8430    3.3640    0.9510 O   0  0  0  0  0  0  0  0  0  0  0  0
    1.7980    1.0400    1.6360 C   0  0  0  0  0  0  0  0  0  0  0  0
    0.4790    0.3900    1.8380 C   0  0  2  0  0  0  0  0  0  0  0  0
    0.6220   -1.0320    1.5390 N   0  0  0  0  0  0  0  0  0  0  0  0
   -0.6180    0.9200    1.0030 C   0  0  0  0  0  0  0  0  0  0  0  0
   -1.1920    0.1650    0.1450 O   0  0  0  0  0  0  0  0  0  0  0  0
    1.1020    3.2470    3.7080 H   0  0  0  0  0  0  0  0  0  0  0  0
    2.8800    3.1250    3.6360 H   0  0  0  0  0  0  0  0  0  0  0  0
    2.1870    0.8750    0.5910 H   0  0  0  0  0  0  0  0  0  0  0  0
    2.5420    0.5720    2.3400 H   0  0  0  0  0  0  0  0  0  0  0  0
    0.1270    0.4510    2.9010 H   0  0  0  0  0  0  0  0  0  0  0  0
    0.4990   -1.7660    2.2940 H   0  0  0  0  0  0  0  0  0  0  0  0
   -3.7460    1.7020    1.6660 O   0  0  0  0  0  0  0  0  0  0  0  0
   -3.4520    2.9420    1.0570 C   0  0  0  0  0  0  0  0  0  0  0  0
   -2.1770    2.6750    0.2390 C   0  0  2  0  0  0  0  0  0  0  0  0
   -1.1070    2.2460    1.0830 N   0  0  0  0  0  0  0  0  0  0  0  0
   -1.8610    3.8430   -0.6130 C   0  0  0  0  0  0  0  0  0  0  0  0
   -2.7040    4.3250   -1.4090 O   0  0  0  0  0  0  0  0  0  0  0  0
   -0.6130    4.4400   -0.5530 O   0  0  0  0  0  0  0  0  0  0  0  0
   -4.3670    1.2160    1.0410 H   0  0  0  0  0  0  0  0  0  0  0  0
   -3.2990    3.7050    1.8270 H   0  0  0  0  0  0  0  0  0  0  0  0
   -4.2290    3.1910    0.3290 H   0  0  0  0  0  0  0  0  0  0  0  0
   -2.4640    1.8350   -0.4290 H   0  0  0  0  0  0  0  0  0  0  0  0
   -0.6740    2.9210    1.7870 H   0  0  0  0  0  0  0  0  0  0  0  0
  1 11  1  0  0  0  0
  1  2  1  0  0  0  0
  2  3  2  0  0  0  0
  4  2  1  0  0  0  0
  4  5  1  0  0  0  0
  4 13  1  0  0  0  0
  5 14  1  0  0  0  0
  6 16  1  1  0  0  0
  6  8  1  0  0  0  0
  6  5  1  0  0  0  0
  7  6  1  0  0  0  0
  8 24  1  0  0  0  0
  9  8  2  0  0  0  0
 10  1  1  0  0  0  0
 12  4  1  0  0  0  0
 15  5  1  0  0  0  0
 17  7  1  0  0  0  0
 18  7  1  0  0  0  0
 19 28  1  0  0  0  0
 19 27  1  0  0  0  0
 20 19  1  0  0  0  0
 21 20  2  0  0  0  0
 22 23  1  0  0  0  0
 22 20  1  0  0  0  0
 22 30  1  0  0  0  0
 23 31  1  1  0  0  0
 24 23  1  0  0  0  0
 24 32  1  0  0  0  0
 25 36  1  0  0  0  0
 25 23  1  0  0  0  0
 26 25  2  0  0  0  0
 29 22  1  0  0  0  0
 34 33  1  0  0  0  0
 34 41  1  0  0  0  0
 35 43  1  6  0  0  0
 35 34  1  0  0  0  0
 35 36  1  0  0  0  0
 36 44  1  0  0  0  0
 37 39  1  0  0  0  0
 37 35  1  0  0  0  0
 38 37  2  0  0  0  0
 40 33  1  0  0  0  0
 42 34  1  0  0  0  0
M  END
$$$$
