QNT.pdb
 OpenBabel07022418313D

 47 46  0  0  1  0  0  0  0  0999 V2000
    3.0720   -4.9350    3.0810 N   0  0  0  0  0  0  0  0  0  0  0  0
    2.5570   -3.6950    2.6250 C   0  0  0  0  0  0  0  0  0  0  0  0
    1.5200   -3.7150    1.9130 O   0  0  0  0  0  0  0  0  0  0  0  0
    3.1910   -2.3970    2.9540 C   0  0  0  0  0  0  0  0  0  0  0  0
    2.5240   -1.2010    2.4090 C   0  0  0  0  0  0  0  0  0  0  0  0
    2.4050   -1.1070    0.9240 C   0  0  2  0  0  0  0  0  0  0  0  0
    3.7270   -1.1190    0.3150 N   0  0  0  0  0  0  0  0  0  0  0  0
    1.7250    0.2150    0.5900 C   0  0  0  0  0  0  0  0  0  0  0  0
    2.3730    1.0360   -0.0990 O   0  0  0  0  0  0  0  0  0  0  0  0
    2.5040   -5.7970    2.9770 H   0  0  0  0  0  0  0  0  0  0  0  0
    4.0140   -5.0300    3.5270 H   0  0  0  0  0  0  0  0  0  0  0  0
    3.2270   -2.2980    4.0590 H   0  0  0  0  0  0  0  0  0  0  0  0
    4.2470   -2.4610    2.6180 H   0  0  0  0  0  0  0  0  0  0  0  0
    1.5130   -1.0680    2.8800 H   0  0  0  0  0  0  0  0  0  0  0  0
    3.1050   -0.3080    2.7710 H   0  0  0  0  0  0  0  0  0  0  0  0
    1.8180   -1.9080    0.4780 H   0  0  0  0  0  0  0  0  0  0  0  0
    3.5660   -1.1330   -0.7310 H   0  0  0  0  0  0  0  0  0  0  0  0
    4.2340   -0.2270    0.5800 H   0  0  0  0  0  0  0  0  0  0  0  0
    2.2010    4.2440    0.1870 N   0  0  0  0  0  0  0  0  0  0  0  0
    1.3650    3.2910    0.8080 C   0  0  0  0  0  0  0  0  0  0  0  0
    1.6780    2.9710    2.0060 O   0  0  0  0  0  0  0  0  0  0  0  0
    0.2020    2.6820    0.1610 C   0  0  0  0  0  0  0  0  0  0  0  0
   -0.3990    1.5230    0.9400 C   0  0  2  0  0  0  0  0  0  0  0  0
    0.4290    0.3780    1.0940 N   0  0  0  0  0  0  0  0  0  0  0  0
   -1.7370    1.1710    0.5290 C   0  0  0  0  0  0  0  0  0  0  0  0
   -2.5890    2.0920    0.3680 O   0  0  0  0  0  0  0  0  0  0  0  0
    1.8930    5.0830   -0.3180 H   0  0  0  0  0  0  0  0  0  0  0  0
    3.2370    4.0760    0.2470 H   0  0  0  0  0  0  0  0  0  0  0  0
    0.4180    2.3060   -0.8630 H   0  0  0  0  0  0  0  0  0  0  0  0
   -0.5900    3.4430    0.0800 H   0  0  0  0  0  0  0  0  0  0  0  0
   -0.4420    1.9980    1.9960 H   0  0  0  0  0  0  0  0  0  0  0  0
   -0.0150   -0.4140    1.6620 H   0  0  0  0  0  0  0  0  0  0  0  0
   -2.6600   -2.3800   -1.3560 C   0  0  0  0  0  0  0  0  0  0  0  0
   -3.4300   -1.1000   -1.4800 C   0  0  1  0  0  0  0  0  0  0  0  0
   -4.7410   -1.3560   -1.8940 O   0  0  0  0  0  0  0  0  0  0  0  0
   -3.5140   -0.4240   -0.1170 C   0  0  2  0  0  0  0  0  0  0  0  0
   -2.1500   -0.1680    0.2940 N   0  0  0  0  0  0  0  0  0  0  0  0
   -4.1910   -1.3380    0.8110 C   0  0  0  0  0  0  0  0  0  0  0  0
   -3.5630   -1.7780    1.8150 O   0  0  0  0  0  0  0  0  0  0  0  0
   -5.5000   -1.7320    0.6170 O   0  0  0  0  0  0  0  0  0  0  0  0
   -2.8130   -2.8910   -0.4040 H   0  0  0  0  0  0  0  0  0  0  0  0
   -2.8530   -3.0730   -2.2140 H   0  0  0  0  0  0  0  0  0  0  0  0
   -1.5790   -2.1180   -1.4260 H   0  0  0  0  0  0  0  0  0  0  0  0
   -2.9500   -0.3840   -2.1870 H   0  0  0  0  0  0  0  0  0  0  0  0
   -4.8900   -1.0150   -2.8160 H   0  0  0  0  0  0  0  0  0  0  0  0
   -4.0860    0.5290   -0.1950 H   0  0  0  0  0  0  0  0  0  0  0  0
   -1.4980   -0.9730    0.4080 H   0  0  0  0  0  0  0  0  0  0  0  0
  1 11  1  0  0  0  0
  2  4  1  0  0  0  0
  2  1  1  0  0  0  0
  3  2  2  0  0  0  0
  4 12  1  0  0  0  0
  5 15  1  0  0  0  0
  5 14  1  0  0  0  0
  5  4  1  0  0  0  0
  6 16  1  6  0  0  0
  6  5  1  0  0  0  0
  7 18  1  0  0  0  0
  7  6  1  0  0  0  0
  8  6  1  0  0  0  0
  8 24  1  0  0  0  0
  9  8  2  0  0  0  0
 10  1  1  0  0  0  0
 13  4  1  0  0  0  0
 17  7  1  0  0  0  0
 19 28  1  0  0  0  0
 19 20  1  0  0  0  0
 20 21  2  0  0  0  0
 22 20  1  0  0  0  0
 22 23  1  0  0  0  0
 23 24  1  0  0  0  0
 23 31  1  1  0  0  0
 24 32  1  0  0  0  0
 25 23  1  0  0  0  0
 26 25  2  0  0  0  0
 27 19  1  0  0  0  0
 29 22  1  0  0  0  0
 30 22  1  0  0  0  0
 33 41  1  0  0  0  0
 34 44  1  6  0  0  0
 34 33  1  0  0  0  0
 34 36  1  0  0  0  0
 35 34  1  0  0  0  0
 36 46  1  6  0  0  0
 36 37  1  0  0  0  0
 36 38  1  0  0  0  0
 37 47  1  0  0  0  0
 37 25  1  0  0  0  0
 38 39  1  0  0  0  0
 40 38  2  0  0  0  0
 42 33  1  0  0  0  0
 43 33  1  0  0  0  0
 45 35  1  0  0  0  0
M  END
$$$$
