QNV.pdb
 OpenBabel07022418313D

 49 48  0  0  1  0  0  0  0  0999 V2000
   -0.5780   -2.7700    6.4990 N   0  0  0  0  0  0  0  0  0  0  0  0
   -0.0400   -1.9470    5.4560 C   0  0  0  0  0  0  0  0  0  0  0  0
   -0.6120   -0.8710    5.1830 O   0  0  0  0  0  0  0  0  0  0  0  0
    1.1570   -2.3710    4.7350 C   0  0  0  0  0  0  0  0  0  0  0  0
    1.3880   -1.5350    3.5120 C   0  0  0  0  0  0  0  0  0  0  0  0
    0.2630   -1.6870    2.5560 C   0  0  2  0  0  0  0  0  0  0  0  0
    0.1480   -3.0780    2.1650 N   0  0  0  0  0  0  0  0  0  0  0  0
    0.4870   -0.8580    1.3060 C   0  0  0  0  0  0  0  0  0  0  0  0
    0.5270   -1.4440    0.2220 O   0  0  0  0  0  0  0  0  0  0  0  0
   -1.5660   -3.0770    6.3950 H   0  0  0  0  0  0  0  0  0  0  0  0
   -0.0120   -3.0470    7.3180 H   0  0  0  0  0  0  0  0  0  0  0  0
    2.0650   -2.3490    5.3800 H   0  0  0  0  0  0  0  0  0  0  0  0
    1.0530   -3.4470    4.4000 H   0  0  0  0  0  0  0  0  0  0  0  0
    1.4770   -0.4610    3.7920 H   0  0  0  0  0  0  0  0  0  0  0  0
    2.3420   -1.8510    3.0050 H   0  0  0  0  0  0  0  0  0  0  0  0
   -0.6930   -1.3940    3.0060 H   0  0  0  0  0  0  0  0  0  0  0  0
   -0.6100   -3.2320    1.4710 H   0  0  0  0  0  0  0  0  0  0  0  0
    1.0500   -3.5150    1.9140 H   0  0  0  0  0  0  0  0  0  0  0  0
    4.6170    1.6920   -0.2650 N   0  0  0  0  0  0  0  0  0  0  0  0
    3.2990    1.1860   -0.0990 C   0  0  0  0  0  0  0  0  0  0  0  0
    3.1560   -0.0440   -0.2230 O   0  0  0  0  0  0  0  0  0  0  0  0
    2.1940    2.0730    0.1970 C   0  0  0  0  0  0  0  0  0  0  0  0
    0.8430    1.4950    0.3670 C   0  0  2  0  0  0  0  0  0  0  0  0
    0.6420    0.5410    1.3960 N   0  0  0  0  0  0  0  0  0  0  0  0
    0.0920    1.2860   -0.9060 C   0  0  0  0  0  0  0  0  0  0  0  0
    0.4780    1.8430   -1.9790 O   0  0  0  0  0  0  0  0  0  0  0  0
    4.8590    2.5260   -0.8380 H   0  0  0  0  0  0  0  0  0  0  0  0
    5.3930    1.1960    0.2180 H   0  0  0  0  0  0  0  0  0  0  0  0
    2.4440    2.7960    1.0450 H   0  0  0  0  0  0  0  0  0  0  0  0
    2.1170    2.7940   -0.6820 H   0  0  0  0  0  0  0  0  0  0  0  0
    0.2170    2.4570    0.7380 H   0  0  0  0  0  0  0  0  0  0  0  0
    0.6000    0.9060    2.4070 H   0  0  0  0  0  0  0  0  0  0  0  0
   -0.1790   -1.5420   -2.9070 C   0  0  0  0  0  0  0  0  0  0  0  0
   -1.6110   -1.1210   -2.7000 C   0  0  0  0  0  0  0  0  0  0  0  0
   -2.1850   -2.0590   -1.6320 C   0  0  0  0  0  0  0  0  0  0  0  0
   -1.7660    0.3180   -2.2810 C   0  0  2  0  0  0  0  0  0  0  0  0
   -1.0620    0.4970   -1.0120 N   0  0  0  0  0  0  0  0  0  0  0  0
   -3.1620    0.7440   -2.2040 C   0  0  0  0  0  0  0  0  0  0  0  0
   -3.6360    1.2000   -1.1350 O   0  0  0  0  0  0  0  0  0  0  0  0
   -4.0010    0.6570   -3.3010 O   0  0  0  0  0  0  0  0  0  0  0  0
   -0.0120   -1.6720   -3.9970 H   0  0  0  0  0  0  0  0  0  0  0  0
    0.5570   -0.8450   -2.4830 H   0  0  0  0  0  0  0  0  0  0  0  0
    0.0290   -2.5480   -2.4610 H   0  0  0  0  0  0  0  0  0  0  0  0
   -2.1820   -1.2430   -3.6540 H   0  0  0  0  0  0  0  0  0  0  0  0
   -1.4390   -2.7760   -1.2610 H   0  0  0  0  0  0  0  0  0  0  0  0
   -2.9850   -2.6560   -2.1140 H   0  0  0  0  0  0  0  0  0  0  0  0
   -2.6700   -1.4750   -0.8210 H   0  0  0  0  0  0  0  0  0  0  0  0
   -1.2130    0.9200   -3.0590 H   0  0  0  0  0  0  0  0  0  0  0  0
   -1.4710    0.0450   -0.1730 H   0  0  0  0  0  0  0  0  0  0  0  0
  1 11  1  0  0  0  0
  2  1  1  0  0  0  0
  3  2  2  0  0  0  0
  4 12  1  0  0  0  0
  4  2  1  0  0  0  0
  5 14  1  0  0  0  0
  5  4  1  0  0  0  0
  6 16  1  1  0  0  0
  6  5  1  0  0  0  0
  7  6  1  0  0  0  0
  8 24  1  0  0  0  0
  8  6  1  0  0  0  0
  9  8  2  0  0  0  0
 10  1  1  0  0  0  0
 13  4  1  0  0  0  0
 15  5  1  0  0  0  0
 17  7  1  0  0  0  0
 18  7  1  0  0  0  0
 19 20  1  0  0  0  0
 19 28  1  0  0  0  0
 20 22  1  0  0  0  0
 21 20  2  0  0  0  0
 22 23  1  0  0  0  0
 22 29  1  0  0  0  0
 23 31  1  1  0  0  0
 23 24  1  0  0  0  0
 24 32  1  0  0  0  0
 25 23  1  0  0  0  0
 26 25  2  0  0  0  0
 27 19  1  0  0  0  0
 30 22  1  0  0  0  0
 33 34  1  0  0  0  0
 33 42  1  0  0  0  0
 33 43  1  0  0  0  0
 34 36  1  0  0  0  0
 34 35  1  0  0  0  0
 35 45  1  0  0  0  0
 35 47  1  0  0  0  0
 36 48  1  6  0  0  0
 36 38  1  0  0  0  0
 36 37  1  0  0  0  0
 37 25  1  0  0  0  0
 37 49  1  0  0  0  0
 38 39  1  0  0  0  0
 40 38  2  0  0  0  0
 41 33  1  0  0  0  0
 44 34  1  0  0  0  0
 46 35  1  0  0  0  0
M  END
$$$$
