QNW.pdb
 OpenBabel07022418313D

 57 58  0  0  1  0  0  0  0  0999 V2000
    5.0670    2.7520    0.1510 N   0  0  0  0  0  0  0  0  0  0  0  0
    4.6920    2.2130    1.4390 C   0  0  0  0  0  0  0  0  0  0  0  0
    5.1370    1.0720    1.6790 O   0  0  0  0  0  0  0  0  0  0  0  0
    3.8510    3.0380    2.3200 C   0  0  0  0  0  0  0  0  0  0  0  0
    3.2280    2.3140    3.4470 C   0  0  0  0  0  0  0  0  0  0  0  0
    2.2710    1.2200    3.1080 C   0  0  2  0  0  0  0  0  0  0  0  0
    2.7970    0.1300    2.3560 N   0  0  0  0  0  0  0  0  0  0  0  0
    1.1490    1.8270    2.3040 C   0  0  0  0  0  0  0  0  0  0  0  0
    0.4750    2.7050    2.8450 O   0  0  0  0  0  0  0  0  0  0  0  0
    4.5770    2.4060   -0.6910 H   0  0  0  0  0  0  0  0  0  0  0  0
    5.8080    3.4720    0.0360 H   0  0  0  0  0  0  0  0  0  0  0  0
    4.5330    3.8230    2.7770 H   0  0  0  0  0  0  0  0  0  0  0  0
    3.0610    3.5770    1.7290 H   0  0  0  0  0  0  0  0  0  0  0  0
    4.0710    1.8500    4.0450 H   0  0  0  0  0  0  0  0  0  0  0  0
    2.7770    3.0420    4.1780 H   0  0  0  0  0  0  0  0  0  0  0  0
    1.7770    0.8200    4.0320 H   0  0  0  0  0  0  0  0  0  0  0  0
    3.3760   -0.4930    2.9810 H   0  0  0  0  0  0  0  0  0  0  0  0
    1.9880   -0.4830    2.0570 H   0  0  0  0  0  0  0  0  0  0  0  0
    1.2700    0.6120   -1.8380 N   0  0  0  0  0  0  0  0  0  0  0  0
    0.9880    2.0010   -1.9580 C   0  0  0  0  0  0  0  0  0  0  0  0
    1.4350    2.5440   -3.0140 O   0  0  0  0  0  0  0  0  0  0  0  0
    0.2380    2.8020   -0.9620 C   0  0  0  0  0  0  0  0  0  0  0  0
   -0.2090    2.0190    0.2380 C   0  0  2  0  0  0  0  0  0  0  0  0
    0.8580    1.4310    0.9820 N   0  0  0  0  0  0  0  0  0  0  0  0
   -1.2480    1.0160   -0.0720 C   0  0  0  0  0  0  0  0  0  0  0  0
   -2.3070    1.2610   -0.6990 O   0  0  0  0  0  0  0  0  0  0  0  0
    2.2610    0.2700   -1.6570 H   0  0  0  0  0  0  0  0  0  0  0  0
    0.5590   -0.1390   -1.9170 H   0  0  0  0  0  0  0  0  0  0  0  0
    0.8170    3.7080   -0.6890 H   0  0  0  0  0  0  0  0  0  0  0  0
   -0.6720    3.2030   -1.4930 H   0  0  0  0  0  0  0  0  0  0  0  0
   -0.7280    2.7720    0.9090 H   0  0  0  0  0  0  0  0  0  0  0  0
    1.4440    0.6950    0.5510 H   0  0  0  0  0  0  0  0  0  0  0  0
   -1.0390   -0.3120    0.3660 N   0  0  0  0  0  0  0  0  0  0  0  0
   -2.0510   -1.3510    0.0810 C   0  0  1  0  0  0  0  0  0  0  0  0
   -1.5220   -2.3190   -0.9180 C   0  0  0  0  0  0  0  0  0  0  0  0
   -2.4030   -3.4330   -1.2960 C   0  0  0  0  0  0  0  0  0  0  0  0
   -3.2610   -3.4420   -2.3950 C   0  0  0  0  0  0  0  0  0  0  0  0
   -3.9190   -4.6010   -2.3990 N   0  0  0  0  0  0  0  0  0  0  0  0
   -3.5640   -5.3750   -1.3780 C   0  0  0  0  0  0  0  0  0  0  0  0
   -3.9780   -6.6490   -1.0070 C   0  0  0  0  0  0  0  0  0  0  0  0
   -3.4080   -7.2190    0.1140 C   0  0  0  0  0  0  0  0  0  0  0  0
   -2.4650   -6.5140    0.8130 C   0  0  0  0  0  0  0  0  0  0  0  0
   -2.0510   -5.2530    0.4510 C   0  0  0  0  0  0  0  0  0  0  0  0
   -2.6160   -4.6590   -0.6790 C   0  0  0  0  0  0  0  0  0  0  0  0
   -2.6060   -1.8940    1.3190 C   0  0  0  0  0  0  0  0  0  0  0  0
   -3.5620   -2.6990    1.4080 O   0  0  0  0  0  0  0  0  0  0  0  0
   -2.0230   -1.4810    2.5280 O   0  0  0  0  0  0  0  0  0  0  0  0
   -0.1880   -0.6200    0.8960 H   0  0  0  0  0  0  0  0  0  0  0  0
   -2.9210   -0.8320   -0.4380 H   0  0  0  0  0  0  0  0  0  0  0  0
   -0.5570   -2.7880   -0.5890 H   0  0  0  0  0  0  0  0  0  0  0  0
   -1.2400   -1.8050   -1.8860 H   0  0  0  0  0  0  0  0  0  0  0  0
   -3.3600   -2.6300   -3.1140 H   0  0  0  0  0  0  0  0  0  0  0  0
   -4.6300   -4.8340   -3.1450 H   0  0  0  0  0  0  0  0  0  0  0  0
   -4.7170   -7.2030   -1.5530 H   0  0  0  0  0  0  0  0  0  0  0  0
   -3.7310   -8.2200    0.4090 H   0  0  0  0  0  0  0  0  0  0  0  0
   -2.0350   -6.9940    1.6940 H   0  0  0  0  0  0  0  0  0  0  0  0
   -1.3010   -4.6880    1.0040 H   0  0  0  0  0  0  0  0  0  0  0  0
  1  2  1  0  0  0  0
  2  3  2  0  0  0  0
  2  4  1  0  0  0  0
  4 12  1  0  0  0  0
  4  5  1  0  0  0  0
  5 14  1  0  0  0  0
  5 15  1  0  0  0  0
  6  5  1  0  0  0  0
  6 16  1  1  0  0  0
  7 17  1  0  0  0  0
  7  6  1  0  0  0  0
  8  9  2  0  0  0  0
  8  6  1  0  0  0  0
 10  1  1  0  0  0  0
 11  1  1  0  0  0  0
 13  4  1  0  0  0  0
 18  7  1  0  0  0  0
 19 27  1  0  0  0  0
 20 19  1  0  0  0  0
 20 22  1  0  0  0  0
 21 20  2  0  0  0  0
 22 29  1  0  0  0  0
 22 23  1  0  0  0  0
 23 31  1  1  0  0  0
 23 24  1  0  0  0  0
 24  8  1  0  0  0  0
 25 23  1  0  0  0  0
 25 33  1  0  0  0  0
 26 25  2  0  0  0  0
 28 19  1  0  0  0  0
 30 22  1  0  0  0  0
 32 24  1  0  0  0  0
 33 48  1  0  0  0  0
 34 49  1  6  0  0  0
 34 33  1  0  0  0  0
 34 45  1  0  0  0  0
 35 50  1  0  0  0  0
 35 34  1  0  0  0  0
 36 35  1  0  0  0  0
 36 44  1  0  0  0  0
 37 36  2  0  0  0  0
 38 37  1  0  0  0  0
 38 39  1  0  0  0  0
 39 40  2  0  0  0  0
 39 44  1  0  0  0  0
 40 41  1  0  0  0  0
 41 55  1  0  0  0  0
 41 42  2  0  0  0  0
 42 56  1  0  0  0  0
 43 42  1  0  0  0  0
 43 57  1  0  0  0  0
 44 43  2  0  0  0  0
 45 46  2  0  0  0  0
 45 47  1  0  0  0  0
 51 35  1  0  0  0  0
 52 37  1  0  0  0  0
 53 38  1  0  0  0  0
 54 40  1  0  0  0  0
M  END
$$$$
