QPA.pdb
 OpenBabel07022418333D

 43 43  0  0  1  0  0  0  0  0999 V2000
    1.4340   -6.2230   -0.4530 N   0  0  0  0  0  0  0  0  0  0  0  0
    1.4650   -4.8720   -0.8640 C   0  0  0  0  0  0  0  0  0  0  0  0
    2.5250   -4.4130   -1.3390 O   0  0  0  0  0  0  0  0  0  0  0  0
    0.2830   -4.0130   -0.7410 C   0  0  0  0  0  0  0  0  0  0  0  0
    0.5370   -2.6040   -1.2400 C   0  0  0  0  0  0  0  0  0  0  0  0
   -0.7490   -1.8020   -1.0670 C   0  0  2  0  0  0  0  0  0  0  0  0
   -1.7390   -2.5250   -1.8920 N   0  0  0  0  0  0  0  0  0  0  0  0
   -0.5990   -0.4170   -1.5300 C   0  0  0  0  0  0  0  0  0  0  0  0
   -1.1350   -0.1450   -2.6620 O   0  0  0  0  0  0  0  0  0  0  0  0
    0.7650   -6.9140   -0.8510 H   0  0  0  0  0  0  0  0  0  0  0  0
    2.0940   -6.5430    0.2670 H   0  0  0  0  0  0  0  0  0  0  0  0
    0.0190   -3.9150    0.3340 H   0  0  0  0  0  0  0  0  0  0  0  0
   -0.6070   -4.4510   -1.2330 H   0  0  0  0  0  0  0  0  0  0  0  0
    1.4230   -2.1360   -0.8360 H   0  0  0  0  0  0  0  0  0  0  0  0
    0.7340   -2.7240   -2.3460 H   0  0  0  0  0  0  0  0  0  0  0  0
   -1.1090   -1.8160   -0.0350 H   0  0  0  0  0  0  0  0  0  0  0  0
   -1.2620   -2.6540   -2.8310 H   0  0  0  0  0  0  0  0  0  0  0  0
   -2.6010   -1.9460   -2.0190 H   0  0  0  0  0  0  0  0  0  0  0  0
    0.0800    0.5790   -0.8100 N   0  0  0  0  0  0  0  0  0  0  0  0
    0.2720    1.9430   -1.2420 C   0  0  0  0  0  0  0  0  0  0  0  0
    1.7480    2.1520   -0.9300 C   0  0  0  0  0  0  0  0  0  0  0  0
    1.9930    1.2380    0.2590 C   0  0  0  0  0  0  0  0  0  0  0  0
    0.6970    0.4770    0.4750 C   0  0  1  0  0  0  0  0  0  0  0  0
   -0.1330    1.1660    1.5300 C   0  0  0  0  0  0  0  0  0  0  0  0
   -1.2120    1.7380    1.2580 O   0  0  0  0  0  0  0  0  0  0  0  0
    0.1370    2.0760   -2.3270 H   0  0  0  0  0  0  0  0  0  0  0  0
   -0.3290    2.6750   -0.6950 H   0  0  0  0  0  0  0  0  0  0  0  0
    2.3830    1.8900   -1.7980 H   0  0  0  0  0  0  0  0  0  0  0  0
    1.9550    3.2200   -0.6850 H   0  0  0  0  0  0  0  0  0  0  0  0
    2.8010    0.5320   -0.0210 H   0  0  0  0  0  0  0  0  0  0  0  0
    2.2630    1.8460    1.1640 H   0  0  0  0  0  0  0  0  0  0  0  0
    0.9440   -0.5390    0.8160 H   0  0  0  0  0  0  0  0  0  0  0  0
   -0.6570    0.6470    4.9540 C   0  0  0  0  0  0  0  0  0  0  0  0
   -0.3580    1.7800    3.9640 C   0  0  2  0  0  0  0  0  0  0  0  0
    0.3310    1.1600    2.8490 N   0  0  0  0  0  0  0  0  0  0  0  0
    0.5710    2.7080    4.6580 C   0  0  0  0  0  0  0  0  0  0  0  0
    1.7590    2.8830    4.2860 O   0  0  0  0  0  0  0  0  0  0  0  0
    0.1390    3.4250    5.7640 O   0  0  0  0  0  0  0  0  0  0  0  0
   -1.4220   -0.0280    4.5210 H   0  0  0  0  0  0  0  0  0  0  0  0
   -1.0660    1.0750    5.8990 H   0  0  0  0  0  0  0  0  0  0  0  0
    0.2990    0.1170    5.1050 H   0  0  0  0  0  0  0  0  0  0  0  0
   -1.3010    2.2650    3.6530 H   0  0  0  0  0  0  0  0  0  0  0  0
    1.2330    0.6810    3.0720 H   0  0  0  0  0  0  0  0  0  0  0  0
  1 11  1  0  0  0  0
  2  4  1  0  0  0  0
  2  1  1  0  0  0  0
  3  2  2  0  0  0  0
  4 12  1  0  0  0  0
  5  6  1  0  0  0  0
  5 14  1  0  0  0  0
  5  4  1  0  0  0  0
  6 16  1  1  0  0  0
  7  6  1  0  0  0  0
  8  6  1  0  0  0  0
  8 19  1  0  0  0  0
  9  8  2  0  0  0  0
 10  1  1  0  0  0  0
 13  4  1  0  0  0  0
 15  5  1  0  0  0  0
 17  7  1  0  0  0  0
 18  7  1  0  0  0  0
 19 23  1  0  0  0  0
 20 21  1  0  0  0  0
 20 19  1  0  0  0  0
 20 27  1  0  0  0  0
 21 29  1  0  0  0  0
 21 22  1  0  0  0  0
 22 23  1  0  0  0  0
 22 31  1  0  0  0  0
 23 32  1  1  0  0  0
 23 24  1  0  0  0  0
 24 35  1  0  0  0  0
 25 24  2  0  0  0  0
 26 20  1  0  0  0  0
 28 21  1  0  0  0  0
 30 22  1  0  0  0  0
 33 41  1  0  0  0  0
 33 40  1  0  0  0  0
 34 42  1  6  0  0  0
 34 36  1  0  0  0  0
 34 33  1  0  0  0  0
 35 43  1  0  0  0  0
 35 34  1  0  0  0  0
 36 38  1  0  0  0  0
 37 36  2  0  0  0  0
 39 33  1  0  0  0  0
M  END
$$$$
