QPD.pdb
 OpenBabel07022418333D

 46 46  0  0  1  0  0  0  0  0999 V2000
    0.5510   -3.8120   -0.4400 N   0  0  0  0  0  0  0  0  0  0  0  0
    0.9660   -2.6240   -1.1130 C   0  0  0  0  0  0  0  0  0  0  0  0
    0.1540   -1.9360   -1.7450 O   0  0  0  0  0  0  0  0  0  0  0  0
    2.3800   -2.1750   -1.0780 C   0  0  0  0  0  0  0  0  0  0  0  0
    2.5980   -0.8730   -1.7350 C   0  0  0  0  0  0  0  0  0  0  0  0
    1.8940    0.3240   -1.1150 C   0  0  2  0  0  0  0  0  0  0  0  0
    2.3020    1.4340   -2.0360 N   0  0  0  0  0  0  0  0  0  0  0  0
    2.4550    0.6480    0.2150 C   0  0  0  0  0  0  0  0  0  0  0  0
    3.5360    1.3540    0.1460 O   0  0  0  0  0  0  0  0  0  0  0  0
   -0.1390   -4.4510   -0.8740 H   0  0  0  0  0  0  0  0  0  0  0  0
    0.9590   -4.0160    0.4900 H   0  0  0  0  0  0  0  0  0  0  0  0
    2.9490   -2.9610   -1.6530 H   0  0  0  0  0  0  0  0  0  0  0  0
    2.7630   -2.2330   -0.0370 H   0  0  0  0  0  0  0  0  0  0  0  0
    3.6890   -0.6400   -1.8470 H   0  0  0  0  0  0  0  0  0  0  0  0
    2.2480   -0.9780   -2.8050 H   0  0  0  0  0  0  0  0  0  0  0  0
    0.8430    0.2100   -1.2070 H   0  0  0  0  0  0  0  0  0  0  0  0
    3.3080    1.3030   -2.2890 H   0  0  0  0  0  0  0  0  0  0  0  0
    2.1260    2.3460   -1.5900 H   0  0  0  0  0  0  0  0  0  0  0  0
    1.9450    0.2790    1.4770 N   0  0  0  0  0  0  0  0  0  0  0  0
    2.6700    0.6540    2.7120 C   0  0  0  0  0  0  0  0  0  0  0  0
    2.1970   -0.3320    3.7450 C   0  0  0  0  0  0  0  0  0  0  0  0
    0.7720   -0.5210    3.3650 C   0  0  0  0  0  0  0  0  0  0  0  0
    0.7690   -0.4100    1.8550 C   0  0  1  0  0  0  0  0  0  0  0  0
   -0.4830    0.3670    1.5580 C   0  0  0  0  0  0  0  0  0  0  0  0
   -0.4260    1.4920    1.0090 O   0  0  0  0  0  0  0  0  0  0  0  0
    2.4230    1.6700    3.0350 H   0  0  0  0  0  0  0  0  0  0  0  0
    3.7590    0.5090    2.5780 H   0  0  0  0  0  0  0  0  0  0  0  0
    2.7660   -1.2620    3.7790 H   0  0  0  0  0  0  0  0  0  0  0  0
    2.2370    0.1350    4.7500 H   0  0  0  0  0  0  0  0  0  0  0  0
    0.0890    0.1920    3.8420 H   0  0  0  0  0  0  0  0  0  0  0  0
    0.4250   -1.5650    3.6270 H   0  0  0  0  0  0  0  0  0  0  0  0
    0.6750   -1.4100    1.3940 H   0  0  0  0  0  0  0  0  0  0  0  0
   -1.7120   -0.2400    1.9330 N   0  0  0  0  0  0  0  0  0  0  0  0
   -2.9710    0.4260    1.7010 C   0  0  1  0  0  0  0  0  0  0  0  0
   -3.9140   -0.3660    0.8200 C   0  0  0  0  0  0  0  0  0  0  0  0
   -3.3440   -0.6270   -0.5280 C   0  0  0  0  0  0  0  0  0  0  0  0
   -2.2270   -0.2050   -0.8530 O   0  0  0  0  0  0  0  0  0  0  0  0
   -3.6920    0.6560    2.9880 C   0  0  0  0  0  0  0  0  0  0  0  0
   -4.8120    1.2240    3.0010 O   0  0  0  0  0  0  0  0  0  0  0  0
   -4.1080   -1.3600   -1.4080 O   0  0  0  0  0  0  0  0  0  0  0  0
   -3.1210    0.2410    4.1580 O   0  0  0  0  0  0  0  0  0  0  0  0
   -1.7340   -1.1910    2.3900 H   0  0  0  0  0  0  0  0  0  0  0  0
   -2.7730    1.4060    1.2190 H   0  0  0  0  0  0  0  0  0  0  0  0
   -4.8600    0.1880    0.6560 H   0  0  0  0  0  0  0  0  0  0  0  0
   -4.1950   -1.3370    1.3040 H   0  0  0  0  0  0  0  0  0  0  0  0
   -3.7180   -1.6170   -2.3070 H   0  0  0  0  0  0  0  0  0  0  0  0
  1 11  1  0  0  0  0
  2  4  1  0  0  0  0
  2  1  1  0  0  0  0
  3  2  2  0  0  0  0
  4 13  1  0  0  0  0
  5  6  1  0  0  0  0
  5  4  1  0  0  0  0
  6 16  1  1  0  0  0
  6  8  1  0  0  0  0
  7 18  1  0  0  0  0
  7  6  1  0  0  0  0
  8 19  1  0  0  0  0
  9  8  2  0  0  0  0
 10  1  1  0  0  0  0
 12  4  1  0  0  0  0
 14  5  1  0  0  0  0
 15  5  1  0  0  0  0
 17  7  1  0  0  0  0
 19 23  1  0  0  0  0
 19 20  1  0  0  0  0
 20 26  1  0  0  0  0
 20 21  1  0  0  0  0
 21 28  1  0  0  0  0
 21 29  1  0  0  0  0
 22 31  1  0  0  0  0
 22 21  1  0  0  0  0
 22 30  1  0  0  0  0
 23 32  1  6  0  0  0
 23 22  1  0  0  0  0
 24 23  1  0  0  0  0
 24 33  1  0  0  0  0
 25 24  2  0  0  0  0
 27 20  1  0  0  0  0
 33 42  1  0  0  0  0
 34 43  1  6  0  0  0
 34 33  1  0  0  0  0
 34 38  1  0  0  0  0
 35 45  1  0  0  0  0
 35 34  1  0  0  0  0
 36 35  1  0  0  0  0
 37 36  2  0  0  0  0
 38 39  2  0  0  0  0
 38 41  1  0  0  0  0
 40 36  1  0  0  0  0
 44 35  1  0  0  0  0
 46 40  1  0  0  0  0
M  END
$$$$
