QPE.pdb
 OpenBabel07022418333D

 49 49  0  0  1  0  0  0  0  0999 V2000
    5.2110   -1.2710    2.0780 N   0  0  0  0  0  0  0  0  0  0  0  0
    4.5470   -1.2810    0.8260 C   0  0  0  0  0  0  0  0  0  0  0  0
    4.1530   -2.3710    0.3460 O   0  0  0  0  0  0  0  0  0  0  0  0
    4.3360   -0.0160    0.1210 C   0  0  0  0  0  0  0  0  0  0  0  0
    3.5920   -0.0730   -1.1450 C   0  0  0  0  0  0  0  0  0  0  0  0
    2.1510   -0.5420   -1.0820 C   0  0  2  0  0  0  0  0  0  0  0  0
    1.6360   -0.5390   -2.4750 N   0  0  0  0  0  0  0  0  0  0  0  0
    1.3150    0.4230   -0.3220 C   0  0  0  0  0  0  0  0  0  0  0  0
    1.0060    1.4920   -0.9520 O   0  0  0  0  0  0  0  0  0  0  0  0
    4.7320   -1.5710    2.9730 H   0  0  0  0  0  0  0  0  0  0  0  0
    6.2020   -0.9700    2.1830 H   0  0  0  0  0  0  0  0  0  0  0  0
    3.8070    0.7180    0.7980 H   0  0  0  0  0  0  0  0  0  0  0  0
    5.3470    0.4660   -0.0420 H   0  0  0  0  0  0  0  0  0  0  0  0
    3.6150    0.8910   -1.6990 H   0  0  0  0  0  0  0  0  0  0  0  0
    4.1070   -0.8340   -1.8060 H   0  0  0  0  0  0  0  0  0  0  0  0
    2.1060   -1.5430   -0.6930 H   0  0  0  0  0  0  0  0  0  0  0  0
    1.8030   -1.4950   -2.8650 H   0  0  0  0  0  0  0  0  0  0  0  0
    2.2060    0.1210   -3.0510 H   0  0  0  0  0  0  0  0  0  0  0  0
    0.8540    0.2570    0.9820 N   0  0  0  0  0  0  0  0  0  0  0  0
    0.0850    1.2250    1.7680 C   0  0  0  0  0  0  0  0  0  0  0  0
   -0.0720    0.6340    3.1410 C   0  0  0  0  0  0  0  0  0  0  0  0
    1.1220   -0.3160    3.1830 C   0  0  0  0  0  0  0  0  0  0  0  0
    1.0010   -0.9220    1.8010 C   0  0  1  0  0  0  0  0  0  0  0  0
   -0.2380   -1.7330    1.6630 C   0  0  0  0  0  0  0  0  0  0  0  0
   -0.3940   -2.7650    2.3700 O   0  0  0  0  0  0  0  0  0  0  0  0
   -0.8900    1.4670    1.3580 H   0  0  0  0  0  0  0  0  0  0  0  0
    0.6540    2.1840    1.8640 H   0  0  0  0  0  0  0  0  0  0  0  0
   -0.0300    1.3850    3.9520 H   0  0  0  0  0  0  0  0  0  0  0  0
   -0.9770   -0.0160    3.2230 H   0  0  0  0  0  0  0  0  0  0  0  0
    2.0300    0.3160    3.1770 H   0  0  0  0  0  0  0  0  0  0  0  0
    1.0660   -1.0410    3.9890 H   0  0  0  0  0  0  0  0  0  0  0  0
    1.9000   -1.5080    1.6310 H   0  0  0  0  0  0  0  0  0  0  0  0
   -1.2780   -1.4060    0.7630 N   0  0  0  0  0  0  0  0  0  0  0  0
   -2.4990   -2.1620    0.5950 C   0  0  1  0  0  0  0  0  0  0  0  0
   -3.7270   -1.3410    0.8930 C   0  0  0  0  0  0  0  0  0  0  0  0
   -3.8500   -0.1420    0.0020 C   0  0  0  0  0  0  0  0  0  0  0  0
   -5.0800    0.5990    0.3660 C   0  0  0  0  0  0  0  0  0  0  0  0
   -5.3790    1.6430   -0.2570 O   0  0  0  0  0  0  0  0  0  0  0  0
   -2.5850   -2.6100   -0.8190 C   0  0  0  0  0  0  0  0  0  0  0  0
   -3.5750   -3.2820   -1.1650 O   0  0  0  0  0  0  0  0  0  0  0  0
   -5.9100    0.1600    1.3870 O   0  0  0  0  0  0  0  0  0  0  0  0
   -1.6210   -2.3170   -1.7680 O   0  0  0  0  0  0  0  0  0  0  0  0
   -1.1600   -0.5620    0.1690 H   0  0  0  0  0  0  0  0  0  0  0  0
   -2.5270   -3.0470    1.2690 H   0  0  0  0  0  0  0  0  0  0  0  0
   -3.8220   -1.0670    1.9620 H   0  0  0  0  0  0  0  0  0  0  0  0
   -4.6050   -2.0020    0.6670 H   0  0  0  0  0  0  0  0  0  0  0  0
   -2.9360    0.4970    0.0710 H   0  0  0  0  0  0  0  0  0  0  0  0
   -3.9130   -0.4700   -1.0540 H   0  0  0  0  0  0  0  0  0  0  0  0
   -6.8330    0.5640    1.5680 H   0  0  0  0  0  0  0  0  0  0  0  0
  1 11  1  0  0  0  0
  1 10  1  0  0  0  0
  2  1  1  0  0  0  0
  3  2  2  0  0  0  0
  4 12  1  0  0  0  0
  4  2  1  0  0  0  0
  5  6  1  0  0  0  0
  5  4  1  0  0  0  0
  6 16  1  1  0  0  0
  6  8  1  0  0  0  0
  7  6  1  0  0  0  0
  8 19  1  0  0  0  0
  9  8  2  0  0  0  0
 13  4  1  0  0  0  0
 14  5  1  0  0  0  0
 15  5  1  0  0  0  0
 17  7  1  0  0  0  0
 18  7  1  0  0  0  0
 19 20  1  0  0  0  0
 19 23  1  0  0  0  0
 20 27  1  0  0  0  0
 20 21  1  0  0  0  0
 21 22  1  0  0  0  0
 21 29  1  0  0  0  0
 21 28  1  0  0  0  0
 22 31  1  0  0  0  0
 23 32  1  6  0  0  0
 23 22  1  0  0  0  0
 24 23  1  0  0  0  0
 24 25  2  0  0  0  0
 26 20  1  0  0  0  0
 30 22  1  0  0  0  0
 33 24  1  0  0  0  0
 34 33  1  0  0  0  0
 34 35  1  0  0  0  0
 34 44  1  1  0  0  0
 35 45  1  0  0  0  0
 36 47  1  0  0  0  0
 36 37  1  0  0  0  0
 36 35  1  0  0  0  0
 37 41  1  0  0  0  0
 38 37  2  0  0  0  0
 39 34  1  0  0  0  0
 40 39  1  0  0  0  0
 41 49  1  0  0  0  0
 42 39  2  0  0  0  0
 43 33  1  0  0  0  0
 46 35  1  0  0  0  0
 48 36  1  0  0  0  0
M  END
$$$$
