QPF.pdb
 OpenBabel07022418333D

 53 54  0  0  1  0  0  0  0  0999 V2000
    6.6160   -1.4510    1.7400 N   0  0  0  0  0  0  0  0  0  0  0  0
    5.3530   -0.8360    1.5540 C   0  0  0  0  0  0  0  0  0  0  0  0
    4.6810   -0.6160    2.5920 O   0  0  0  0  0  0  0  0  0  0  0  0
    4.8270   -0.4630    0.2410 C   0  0  0  0  0  0  0  0  0  0  0  0
    3.4380    0.1050    0.2470 C   0  0  0  0  0  0  0  0  0  0  0  0
    2.4010   -0.8700    0.7980 C   0  0  2  0  0  0  0  0  0  0  0  0
    2.4880   -2.0250   -0.1120 N   0  0  0  0  0  0  0  0  0  0  0  0
    1.0170   -0.2990    0.5770 C   0  0  0  0  0  0  0  0  0  0  0  0
    0.3980   -0.7080   -0.4370 O   0  0  0  0  0  0  0  0  0  0  0  0
    6.9780   -2.0830    0.9740 H   0  0  0  0  0  0  0  0  0  0  0  0
    7.2230   -1.3370    2.5620 H   0  0  0  0  0  0  0  0  0  0  0  0
    4.8750   -1.2910   -0.5020 H   0  0  0  0  0  0  0  0  0  0  0  0
    5.4890    0.3400   -0.1750 H   0  0  0  0  0  0  0  0  0  0  0  0
    3.3990    1.0930    0.7020 H   0  0  0  0  0  0  0  0  0  0  0  0
    3.1800    0.2720   -0.8410 H   0  0  0  0  0  0  0  0  0  0  0  0
    2.5600   -1.1310    1.8440 H   0  0  0  0  0  0  0  0  0  0  0  0
    2.1470   -1.6410   -1.0420 H   0  0  0  0  0  0  0  0  0  0  0  0
    1.7750   -2.7050    0.2820 H   0  0  0  0  0  0  0  0  0  0  0  0
    0.4880    0.6340    1.4760 N   0  0  0  0  0  0  0  0  0  0  0  0
    1.2710    1.0970    2.6580 C   0  0  0  0  0  0  0  0  0  0  0  0
    1.2070    2.6020    2.3570 C   0  0  0  0  0  0  0  0  0  0  0  0
   -0.0710    2.8080    1.5180 C   0  0  0  0  0  0  0  0  0  0  0  0
   -0.6810    1.4090    1.6340 C   0  0  1  0  0  0  0  0  0  0  0  0
   -1.9060    1.1920    0.9470 C   0  0  0  0  0  0  0  0  0  0  0  0
   -2.6680    2.1930    0.6260 O   0  0  0  0  0  0  0  0  0  0  0  0
    0.6040    0.8410    3.5230 H   0  0  0  0  0  0  0  0  0  0  0  0
    2.2600    0.6890    2.7070 H   0  0  0  0  0  0  0  0  0  0  0  0
    1.1740    3.1980    3.2940 H   0  0  0  0  0  0  0  0  0  0  0  0
    2.0990    2.8190    1.7340 H   0  0  0  0  0  0  0  0  0  0  0  0
    0.1920    3.0750    0.4940 H   0  0  0  0  0  0  0  0  0  0  0  0
   -0.6940    3.5380    2.0350 H   0  0  0  0  0  0  0  0  0  0  0  0
   -0.8950    1.3600    2.7790 H   0  0  0  0  0  0  0  0  0  0  0  0
   -2.4280   -0.0610    0.5560 N   0  0  0  0  0  0  0  0  0  0  0  0
   -3.6850   -0.1700   -0.1160 C   0  0  1  0  0  0  0  0  0  0  0  0
   -3.7520   -0.9120   -1.3870 C   0  0  0  0  0  0  0  0  0  0  0  0
   -3.3570   -2.3280   -1.3700 C   0  0  0  0  0  0  0  0  0  0  0  0
   -2.0520   -2.6700   -1.7170 C   0  0  0  0  0  0  0  0  0  0  0  0
   -1.6690   -3.9770   -1.6910 C   0  0  0  0  0  0  0  0  0  0  0  0
   -2.5210   -5.0250   -1.3300 C   0  0  0  0  0  0  0  0  0  0  0  0
   -3.8070   -4.6900   -0.9880 C   0  0  0  0  0  0  0  0  0  0  0  0
   -4.2060   -3.3760   -1.0100 C   0  0  0  0  0  0  0  0  0  0  0  0
   -4.7600   -0.6680    0.8110 C   0  0  0  0  0  0  0  0  0  0  0  0
   -5.9480   -0.7820    0.4190 O   0  0  0  0  0  0  0  0  0  0  0  0
   -4.4190   -0.9950    2.0920 O   0  0  0  0  0  0  0  0  0  0  0  0
   -1.8990   -0.9610    0.7780 H   0  0  0  0  0  0  0  0  0  0  0  0
   -4.0540    0.8840   -0.3530 H   0  0  0  0  0  0  0  0  0  0  0  0
   -4.7960   -0.9060   -1.8350 H   0  0  0  0  0  0  0  0  0  0  0  0
   -3.1510   -0.3750   -2.1610 H   0  0  0  0  0  0  0  0  0  0  0  0
   -1.3520   -1.8910   -2.0230 H   0  0  0  0  0  0  0  0  0  0  0  0
   -0.6430   -4.2330   -1.9650 H   0  0  0  0  0  0  0  0  0  0  0  0
   -2.1390   -6.0440   -1.3350 H   0  0  0  0  0  0  0  0  0  0  0  0
   -4.4970   -5.4540   -0.7040 H   0  0  0  0  0  0  0  0  0  0  0  0
   -5.2160   -3.1040   -0.7480 H   0  0  0  0  0  0  0  0  0  0  0  0
  1 11  1  0  0  0  0
  2  1  1  0  0  0  0
  2  3  2  0  0  0  0
  4  5  1  0  0  0  0
  4  2  1  0  0  0  0
  5 14  1  0  0  0  0
  5  6  1  0  0  0  0
  6 16  1  1  0  0  0
  7 18  1  0  0  0  0
  7  6  1  0  0  0  0
  8  6  1  0  0  0  0
  8 19  1  0  0  0  0
  9  8  2  0  0  0  0
 10  1  1  0  0  0  0
 12  4  1  0  0  0  0
 13  4  1  0  0  0  0
 15  5  1  0  0  0  0
 17  7  1  0  0  0  0
 19 23  1  0  0  0  0
 19 20  1  0  0  0  0
 20 27  1  0  0  0  0
 20 26  1  0  0  0  0
 21 20  1  0  0  0  0
 21 28  1  0  0  0  0
 22 23  1  0  0  0  0
 22 31  1  0  0  0  0
 22 21  1  0  0  0  0
 23 32  1  1  0  0  0
 24 23  1  0  0  0  0
 25 24  2  0  0  0  0
 29 21  1  0  0  0  0
 30 22  1  0  0  0  0
 33 45  1  0  0  0  0
 33 24  1  0  0  0  0
 34 46  1  6  0  0  0
 34 33  1  0  0  0  0
 34 42  1  0  0  0  0
 35 36  1  0  0  0  0
 35 34  1  0  0  0  0
 36 41  1  0  0  0  0
 37 38  1  0  0  0  0
 37 36  2  0  0  0  0
 38 39  2  0  0  0  0
 39 40  1  0  0  0  0
 40 52  1  0  0  0  0
 41 40  2  0  0  0  0
 41 53  1  0  0  0  0
 42 44  1  0  0  0  0
 43 42  2  0  0  0  0
 47 35  1  0  0  0  0
 48 35  1  0  0  0  0
 49 37  1  0  0  0  0
 50 38  1  0  0  0  0
 51 39  1  0  0  0  0
M  END
$$$$
