QPG.pdb
 OpenBabel07022418333D

 40 40  0  0  1  0  0  0  0  0999 V2000
    0.9040   -4.9960    2.0950 N   0  0  0  0  0  0  0  0  0  0  0  0
    0.9540   -4.3820    0.8120 C   0  0  0  0  0  0  0  0  0  0  0  0
    0.3890   -4.9440   -0.1610 O   0  0  0  0  0  0  0  0  0  0  0  0
    1.6540   -3.1060    0.6000 C   0  0  0  0  0  0  0  0  0  0  0  0
    1.5590   -2.6790   -0.8290 C   0  0  0  0  0  0  0  0  0  0  0  0
    2.2780   -1.3580   -1.0690 C   0  0  2  0  0  0  0  0  0  0  0  0
    3.6980   -1.5720   -0.7070 N   0  0  0  0  0  0  0  0  0  0  0  0
    1.7240   -0.2510   -0.2850 C   0  0  0  0  0  0  0  0  0  0  0  0
    2.4300    0.2580    0.6220 O   0  0  0  0  0  0  0  0  0  0  0  0
    1.6300   -4.8050    2.8100 H   0  0  0  0  0  0  0  0  0  0  0  0
    0.1250   -5.6530    2.3300 H   0  0  0  0  0  0  0  0  0  0  0  0
    2.6980   -3.2390    0.9450 H   0  0  0  0  0  0  0  0  0  0  0  0
    1.1640   -2.3280    1.2330 H   0  0  0  0  0  0  0  0  0  0  0  0
    0.5310   -2.6000   -1.1580 H   0  0  0  0  0  0  0  0  0  0  0  0
    2.0910   -3.4200   -1.4910 H   0  0  0  0  0  0  0  0  0  0  0  0
    2.2810   -1.1950   -2.1650 H   0  0  0  0  0  0  0  0  0  0  0  0
    3.8350   -1.4590    0.3130 H   0  0  0  0  0  0  0  0  0  0  0  0
    3.9350   -2.5550   -0.9940 H   0  0  0  0  0  0  0  0  0  0  0  0
    0.4150    0.3180   -0.4680 N   0  0  0  0  0  0  0  0  0  0  0  0
   -0.4950   -0.1720   -1.4830 C   0  0  0  0  0  0  0  0  0  0  0  0
   -1.4760    1.0090   -1.6820 C   0  0  0  0  0  0  0  0  0  0  0  0
   -1.6330    1.3890   -0.2030 C   0  0  0  0  0  0  0  0  0  0  0  0
   -0.1980    1.3900    0.2260 C   0  0  1  0  0  0  0  0  0  0  0  0
   -0.0620    1.3100    1.7040 C   0  0  0  0  0  0  0  0  0  0  0  0
    0.4840    0.4130    2.3480 O   0  0  0  0  0  0  0  0  0  0  0  0
   -1.1700   -0.9830   -1.1140 H   0  0  0  0  0  0  0  0  0  0  0  0
   -0.0030   -0.4620   -2.4130 H   0  0  0  0  0  0  0  0  0  0  0  0
   -2.4190    0.6910   -2.1160 H   0  0  0  0  0  0  0  0  0  0  0  0
   -0.9870    1.8520   -2.1930 H   0  0  0  0  0  0  0  0  0  0  0  0
   -2.1640    0.5870    0.3440 H   0  0  0  0  0  0  0  0  0  0  0  0
   -2.1160    2.3800   -0.1070 H   0  0  0  0  0  0  0  0  0  0  0  0
    0.2140    2.3810   -0.1470 H   0  0  0  0  0  0  0  0  0  0  0  0
   -0.6400    2.4120    2.4340 N   0  0  0  0  0  0  0  0  0  0  0  0
   -0.5880    2.4770    3.8690 C   0  0  0  0  0  0  0  0  0  0  0  0
   -1.2740    1.3030    4.4820 C   0  0  0  0  0  0  0  0  0  0  0  0
   -1.7820    0.4520    3.7090 O   0  0  0  0  0  0  0  0  0  0  0  0
   -1.3600    1.1330    5.8520 O   0  0  0  0  0  0  0  0  0  0  0  0
   -1.1130    3.1940    1.9220 H   0  0  0  0  0  0  0  0  0  0  0  0
    0.4480    2.5830    4.2550 H   0  0  0  0  0  0  0  0  0  0  0  0
   -1.1350    3.3670    4.2320 H   0  0  0  0  0  0  0  0  0  0  0  0
  1 11  1  0  0  0  0
  1 10  1  0  0  0  0
  2  1  1  0  0  0  0
  3  2  2  0  0  0  0
  4  2  1  0  0  0  0
  4 12  1  0  0  0  0
  4 13  1  0  0  0  0
  5  4  1  0  0  0  0
  6 16  1  6  0  0  0
  6  5  1  0  0  0  0
  6  7  1  0  0  0  0
  6  8  1  0  0  0  0
  7 17  1  0  0  0  0
  8  9  2  0  0  0  0
 14  5  1  0  0  0  0
 15  5  1  0  0  0  0
 18  7  1  0  0  0  0
 19  8  1  0  0  0  0
 19 23  1  0  0  0  0
 20 26  1  0  0  0  0
 20 19  1  0  0  0  0
 21 20  1  0  0  0  0
 21 22  1  0  0  0  0
 22 31  1  0  0  0  0
 22 23  1  0  0  0  0
 22 30  1  0  0  0  0
 23 32  1  6  0  0  0
 23 24  1  0  0  0  0
 24 25  2  0  0  0  0
 24 33  1  0  0  0  0
 27 20  1  0  0  0  0
 28 21  1  0  0  0  0
 29 21  1  0  0  0  0
 33 34  1  0  0  0  0
 34 40  1  0  0  0  0
 34 39  1  0  0  0  0
 34 35  1  0  0  0  0
 35 37  1  0  0  0  0
 36 35  2  0  0  0  0
 38 33  1  0  0  0  0
M  END
$$$$
