QPL.pdb
 OpenBabel07022418333D

 52 52  0  0  1  0  0  0  0  0999 V2000
    3.6330   -3.8490    3.4480 N   0  0  0  0  0  0  0  0  0  0  0  0
    3.2470   -2.6750    2.7580 C   0  0  0  0  0  0  0  0  0  0  0  0
    2.0650   -2.2820    2.8850 O   0  0  0  0  0  0  0  0  0  0  0  0
    4.1830   -1.9260    1.9190 C   0  0  0  0  0  0  0  0  0  0  0  0
    3.5780   -0.7790    1.1540 C   0  0  0  0  0  0  0  0  0  0  0  0
    2.5060   -1.2440    0.1930 C   0  0  2  0  0  0  0  0  0  0  0  0
    3.1550   -2.1810   -0.7500 N   0  0  0  0  0  0  0  0  0  0  0  0
    1.9160   -0.1270   -0.5710 C   0  0  0  0  0  0  0  0  0  0  0  0
    2.2820   -0.0100   -1.7720 O   0  0  0  0  0  0  0  0  0  0  0  0
    4.2920   -3.8510    4.2490 H   0  0  0  0  0  0  0  0  0  0  0  0
    3.2370   -4.7560    3.1370 H   0  0  0  0  0  0  0  0  0  0  0  0
    4.6440   -2.6180    1.1570 H   0  0  0  0  0  0  0  0  0  0  0  0
    5.0410   -1.5030    2.5200 H   0  0  0  0  0  0  0  0  0  0  0  0
    3.3000    0.0630    1.7860 H   0  0  0  0  0  0  0  0  0  0  0  0
    4.4260   -0.3790    0.5130 H   0  0  0  0  0  0  0  0  0  0  0  0
    1.7010   -1.8080    0.6770 H   0  0  0  0  0  0  0  0  0  0  0  0
    4.1270   -1.8370   -0.8830 H   0  0  0  0  0  0  0  0  0  0  0  0
    3.1050   -3.1210   -0.3350 H   0  0  0  0  0  0  0  0  0  0  0  0
    0.9780    0.8120   -0.0600 N   0  0  0  0  0  0  0  0  0  0  0  0
    0.4660    1.9150   -0.8900 C   0  0  0  0  0  0  0  0  0  0  0  0
   -0.2010    2.8770    0.0270 C   0  0  0  0  0  0  0  0  0  0  0  0
   -0.0770    2.3210    1.4130 C   0  0  0  0  0  0  0  0  0  0  0  0
    0.3590    0.8980    1.2270 C   0  0  1  0  0  0  0  0  0  0  0  0
   -0.7540   -0.0660    1.4350 C   0  0  0  0  0  0  0  0  0  0  0  0
   -1.3340   -0.1250    2.5480 O   0  0  0  0  0  0  0  0  0  0  0  0
   -0.1800    1.5480   -1.7080 H   0  0  0  0  0  0  0  0  0  0  0  0
    1.3530    2.3770   -1.4230 H   0  0  0  0  0  0  0  0  0  0  0  0
   -1.2760    2.9870   -0.2500 H   0  0  0  0  0  0  0  0  0  0  0  0
    0.2820    3.8810   -0.0730 H   0  0  0  0  0  0  0  0  0  0  0  0
   -1.0290    2.4010    1.9910 H   0  0  0  0  0  0  0  0  0  0  0  0
    0.7460    2.8780    1.9050 H   0  0  0  0  0  0  0  0  0  0  0  0
    1.0630    0.6840    2.0850 H   0  0  0  0  0  0  0  0  0  0  0  0
   -3.2440    0.7920   -0.7480 C   0  0  0  0  0  0  0  0  0  0  0  0
   -4.0490   -0.4360   -0.5060 C   0  0  0  0  0  0  0  0  0  0  0  0
   -4.9190   -0.2790    0.7470 C   0  0  0  0  0  0  0  0  0  0  0  0
   -3.3140   -1.7260   -0.5140 C   0  0  0  0  0  0  0  0  0  0  0  0
   -2.2250   -1.8840    0.4990 C   0  0  2  0  0  0  0  0  0  0  0  0
   -1.1560   -0.9130    0.3790 N   0  0  0  0  0  0  0  0  0  0  0  0
   -1.6930   -3.2640    0.3570 C   0  0  0  0  0  0  0  0  0  0  0  0
   -0.4650   -3.4040    0.1610 O   0  0  0  0  0  0  0  0  0  0  0  0
   -2.4720   -4.4050    0.4290 O   0  0  0  0  0  0  0  0  0  0  0  0
   -3.8760    1.5320   -1.3200 H   0  0  0  0  0  0  0  0  0  0  0  0
   -2.3500    0.6370   -1.3630 H   0  0  0  0  0  0  0  0  0  0  0  0
   -2.9430    1.3260    0.1710 H   0  0  0  0  0  0  0  0  0  0  0  0
   -4.8090   -0.4910   -1.3430 H   0  0  0  0  0  0  0  0  0  0  0  0
   -5.3990   -1.2400    0.9360 H   0  0  0  0  0  0  0  0  0  0  0  0
   -4.3280    0.1160    1.5900 H   0  0  0  0  0  0  0  0  0  0  0  0
   -5.6730    0.4960    0.4910 H   0  0  0  0  0  0  0  0  0  0  0  0
   -4.0560   -2.5500   -0.4220 H   0  0  0  0  0  0  0  0  0  0  0  0
   -2.9020   -1.8560   -1.5550 H   0  0  0  0  0  0  0  0  0  0  0  0
   -2.6220   -1.8460    1.5480 H   0  0  0  0  0  0  0  0  0  0  0  0
   -0.6440   -0.8190   -0.5240 H   0  0  0  0  0  0  0  0  0  0  0  0
  1 10  1  0  0  0  0
  2  3  2  0  0  0  0
  2  1  1  0  0  0  0
  4 13  1  0  0  0  0
  4  2  1  0  0  0  0
  5 14  1  0  0  0  0
  5  4  1  0  0  0  0
  6 16  1  1  0  0  0
  6  5  1  0  0  0  0
  7 18  1  0  0  0  0
  7  6  1  0  0  0  0
  8 19  1  0  0  0  0
  8  6  1  0  0  0  0
  9  8  2  0  0  0  0
 11  1  1  0  0  0  0
 12  4  1  0  0  0  0
 15  5  1  0  0  0  0
 17  7  1  0  0  0  0
 19 23  1  0  0  0  0
 20 19  1  0  0  0  0
 20 21  1  0  0  0  0
 21 22  1  0  0  0  0
 22 31  1  0  0  0  0
 22 30  1  0  0  0  0
 23 22  1  0  0  0  0
 23 24  1  0  0  0  0
 23 32  1  1  0  0  0
 24 25  2  0  0  0  0
 26 20  1  0  0  0  0
 27 20  1  0  0  0  0
 28 21  1  0  0  0  0
 29 21  1  0  0  0  0
 33 34  1  0  0  0  0
 33 44  1  0  0  0  0
 34 35  1  0  0  0  0
 35 46  1  0  0  0  0
 35 47  1  0  0  0  0
 36 34  1  0  0  0  0
 36 49  1  0  0  0  0
 36 37  1  0  0  0  0
 37 51  1  1  0  0  0
 38 37  1  0  0  0  0
 38 24  1  0  0  0  0
 39 41  1  0  0  0  0
 39 37  1  0  0  0  0
 40 39  2  0  0  0  0
 42 33  1  0  0  0  0
 43 33  1  0  0  0  0
 45 34  1  0  0  0  0
 48 35  1  0  0  0  0
 50 36  1  0  0  0  0
 52 38  1  0  0  0  0
M  END
$$$$
