QPN.pdb
 OpenBabel07022418333D

 47 47  0  0  1  0  0  0  0  0999 V2000
    2.9420   -4.4460   -0.8060 N   0  0  0  0  0  0  0  0  0  0  0  0
    2.7190   -3.2000   -0.1450 C   0  0  0  0  0  0  0  0  0  0  0  0
    1.5500   -2.7690   -0.0540 O   0  0  0  0  0  0  0  0  0  0  0  0
    3.8280   -2.4280    0.4230 C   0  0  0  0  0  0  0  0  0  0  0  0
    3.4540   -1.0690    0.9220 C   0  0  0  0  0  0  0  0  0  0  0  0
    2.9130   -0.1460   -0.1400 C   0  0  2  0  0  0  0  0  0  0  0  0
    3.9530    0.0300   -1.1770 N   0  0  0  0  0  0  0  0  0  0  0  0
    2.4710    1.1480    0.3890 C   0  0  0  0  0  0  0  0  0  0  0  0
    3.2150    2.1450    0.0740 O   0  0  0  0  0  0  0  0  0  0  0  0
    2.5530   -5.2950   -0.3610 H   0  0  0  0  0  0  0  0  0  0  0  0
    3.4690   -4.5070   -1.6950 H   0  0  0  0  0  0  0  0  0  0  0  0
    4.2660   -3.0510    1.2510 H   0  0  0  0  0  0  0  0  0  0  0  0
    4.6120   -2.3380   -0.3710 H   0  0  0  0  0  0  0  0  0  0  0  0
    2.8760   -1.1320    1.8380 H   0  0  0  0  0  0  0  0  0  0  0  0
    4.4360   -0.5900    1.2410 H   0  0  0  0  0  0  0  0  0  0  0  0
    2.0700   -0.6360   -0.6410 H   0  0  0  0  0  0  0  0  0  0  0  0
    3.7670    0.9670   -1.5960 H   0  0  0  0  0  0  0  0  0  0  0  0
    4.8790   -0.0390   -0.7180 H   0  0  0  0  0  0  0  0  0  0  0  0
    1.3480    1.4050    1.1840 N   0  0  0  0  0  0  0  0  0  0  0  0
    0.9810    2.7210    1.7010 C   0  0  0  0  0  0  0  0  0  0  0  0
    0.1020    2.4620    2.8970 C   0  0  0  0  0  0  0  0  0  0  0  0
    0.0030    0.9710    3.0420 C   0  0  0  0  0  0  0  0  0  0  0  0
    0.3390    0.4920    1.6350 C   0  0  1  0  0  0  0  0  0  0  0  0
   -0.8820    0.5470    0.7700 C   0  0  0  0  0  0  0  0  0  0  0  0
   -0.8890    1.3390   -0.1980 O   0  0  0  0  0  0  0  0  0  0  0  0
    0.3370    3.2140    0.9300 H   0  0  0  0  0  0  0  0  0  0  0  0
    1.8440    3.3420    1.9330 H   0  0  0  0  0  0  0  0  0  0  0  0
    0.5890    2.9000    3.7750 H   0  0  0  0  0  0  0  0  0  0  0  0
   -0.9060    2.8780    2.7910 H   0  0  0  0  0  0  0  0  0  0  0  0
   -1.0000    0.6510    3.3400 H   0  0  0  0  0  0  0  0  0  0  0  0
    0.8060    0.5930    3.6950 H   0  0  0  0  0  0  0  0  0  0  0  0
    0.6110   -0.5520    1.7050 H   0  0  0  0  0  0  0  0  0  0  0  0
   -4.2760   -3.8270    0.0910 N   0  0  0  0  0  0  0  0  0  0  0  0
   -3.9120   -2.5030    0.4990 C   0  0  0  0  0  0  0  0  0  0  0  0
   -3.9210   -2.2920    1.7360 O   0  0  0  0  0  0  0  0  0  0  0  0
   -3.5550   -1.4740   -0.4800 C   0  0  0  0  0  0  0  0  0  0  0  0
   -3.1820   -0.1520    0.1180 C   0  0  2  0  0  0  0  0  0  0  0  0
   -2.0290   -0.2580    0.9990 N   0  0  0  0  0  0  0  0  0  0  0  0
   -4.3550    0.3400    0.9000 C   0  0  0  0  0  0  0  0  0  0  0  0
   -4.2270    0.5850    2.1140 O   0  0  0  0  0  0  0  0  0  0  0  0
   -5.5930    0.5390    0.3290 O   0  0  0  0  0  0  0  0  0  0  0  0
   -4.4210   -4.0410   -0.9200 H   0  0  0  0  0  0  0  0  0  0  0  0
   -4.4100   -4.6160    0.7580 H   0  0  0  0  0  0  0  0  0  0  0  0
   -2.7190   -1.8080   -1.1470 H   0  0  0  0  0  0  0  0  0  0  0  0
   -4.4180   -1.3010   -1.1560 H   0  0  0  0  0  0  0  0  0  0  0  0
   -3.0130    0.6030   -0.6770 H   0  0  0  0  0  0  0  0  0  0  0  0
   -2.0510   -0.9290    1.8020 H   0  0  0  0  0  0  0  0  0  0  0  0
  1 10  1  0  0  0  0
  1  2  1  0  0  0  0
  2  3  2  0  0  0  0
  2  4  1  0  0  0  0
  4  5  1  0  0  0  0
  4 12  1  0  0  0  0
  5 15  1  0  0  0  0
  5 14  1  0  0  0  0
  6 16  1  6  0  0  0
  6  8  1  0  0  0  0
  6  5  1  0  0  0  0
  7 18  1  0  0  0  0
  7  6  1  0  0  0  0
  8 19  1  0  0  0  0
  9  8  2  0  0  0  0
 11  1  1  0  0  0  0
 13  4  1  0  0  0  0
 17  7  1  0  0  0  0
 19 23  1  0  0  0  0
 19 20  1  0  0  0  0
 20 27  1  0  0  0  0
 20 21  1  0  0  0  0
 21 22  1  0  0  0  0
 21 28  1  0  0  0  0
 22 30  1  0  0  0  0
 22 31  1  0  0  0  0
 23 32  1  1  0  0  0
 23 22  1  0  0  0  0
 24 38  1  0  0  0  0
 24 23  1  0  0  0  0
 25 24  2  0  0  0  0
 26 20  1  0  0  0  0
 29 21  1  0  0  0  0
 33 34  1  0  0  0  0
 33 43  1  0  0  0  0
 34 35  2  0  0  0  0
 36 37  1  0  0  0  0
 36 34  1  0  0  0  0
 37 46  1  6  0  0  0
 37 39  1  0  0  0  0
 37 38  1  0  0  0  0
 38 47  1  0  0  0  0
 39 40  1  0  0  0  0
 41 39  2  0  0  0  0
 42 33  1  0  0  0  0
 44 36  1  0  0  0  0
 45 36  1  0  0  0  0
M  END
$$$$
