QPP.pdb
 OpenBabel07022418333D

 47 48  0  0  1  0  0  0  0  0999 V2000
    3.2180   -4.2660    4.2710 N   0  0  0  0  0  0  0  0  0  0  0  0
    2.0640   -3.9710    3.4980 C   0  0  0  0  0  0  0  0  0  0  0  0
    0.9470   -4.0620    4.0610 O   0  0  0  0  0  0  0  0  0  0  0  0
    2.2140   -3.5730    2.0720 C   0  0  0  0  0  0  0  0  0  0  0  0
    0.8270   -3.3650    1.5090 C   0  0  0  0  0  0  0  0  0  0  0  0
    0.8730   -2.9560    0.0460 C   0  0  2  0  0  0  0  0  0  0  0  0
    1.5880   -4.1530   -0.5560 N   0  0  0  0  0  0  0  0  0  0  0  0
    1.6620   -1.8020   -0.2620 C   0  0  0  0  0  0  0  0  0  0  0  0
    2.9040   -2.1060   -0.6040 O   0  0  0  0  0  0  0  0  0  0  0  0
    3.1680   -4.6300    5.2340 H   0  0  0  0  0  0  0  0  0  0  0  0
    4.1660   -4.1160    3.8680 H   0  0  0  0  0  0  0  0  0  0  0  0
    2.7520   -4.3850    1.5240 H   0  0  0  0  0  0  0  0  0  0  0  0
    2.8400   -2.6840    2.0340 H   0  0  0  0  0  0  0  0  0  0  0  0
    0.3260   -4.3540    1.5280 H   0  0  0  0  0  0  0  0  0  0  0  0
    0.2710   -2.7050    2.1630 H   0  0  0  0  0  0  0  0  0  0  0  0
   -0.1240   -3.0780   -0.3600 H   0  0  0  0  0  0  0  0  0  0  0  0
    0.9320   -4.9620   -0.5570 H   0  0  0  0  0  0  0  0  0  0  0  0
    1.8520   -3.9110   -1.5240 H   0  0  0  0  0  0  0  0  0  0  0  0
    1.4630   -0.4190   -0.2980 N   0  0  0  0  0  0  0  0  0  0  0  0
    2.6410    0.5190   -0.6710 C   0  0  0  0  0  0  0  0  0  0  0  0
    1.9740    1.2740   -1.7990 C   0  0  0  0  0  0  0  0  0  0  0  0
    0.4790    1.1690   -1.5370 C   0  0  0  0  0  0  0  0  0  0  0  0
    0.4940    0.5950   -0.1300 C   0  0  1  0  0  0  0  0  0  0  0  0
   -0.7590    0.2440    0.4230 C   0  0  0  0  0  0  0  0  0  0  0  0
   -1.0150   -0.9410    0.6540 O   0  0  0  0  0  0  0  0  0  0  0  0
    2.7850    1.1470    0.2280 H   0  0  0  0  0  0  0  0  0  0  0  0
    3.4800   -0.0970   -0.9610 H   0  0  0  0  0  0  0  0  0  0  0  0
    2.3210    2.3270   -1.8590 H   0  0  0  0  0  0  0  0  0  0  0  0
    2.2610    0.7610   -2.7410 H   0  0  0  0  0  0  0  0  0  0  0  0
    0.0660    0.5010   -2.2830 H   0  0  0  0  0  0  0  0  0  0  0  0
    0.0760    2.1930   -1.5910 H   0  0  0  0  0  0  0  0  0  0  0  0
    0.9560    1.4520    0.4770 H   0  0  0  0  0  0  0  0  0  0  0  0
   -1.8200    1.1630    0.7650 N   0  0  0  0  0  0  0  0  0  0  0  0
   -1.8660    2.5870    0.6430 C   0  0  0  0  0  0  0  0  0  0  0  0
   -2.3800    3.0150    2.0020 C   0  0  0  0  0  0  0  0  0  0  0  0
   -3.2940    1.8740    2.3810 C   0  0  0  0  0  0  0  0  0  0  0  0
   -3.1160    0.8200    1.3190 C   0  0  1  0  0  0  0  0  0  0  0  0
   -4.1970    0.8460    0.3020 C   0  0  0  0  0  0  0  0  0  0  0  0
   -5.3510    0.5700    0.6670 O   0  0  0  0  0  0  0  0  0  0  0  0
   -3.9760    1.1580   -1.0140 O   0  0  0  0  0  0  0  0  0  0  0  0
   -2.6490    2.8460   -0.1130 H   0  0  0  0  0  0  0  0  0  0  0  0
   -0.8970    3.0550    0.4010 H   0  0  0  0  0  0  0  0  0  0  0  0
   -1.4830    3.0810    2.6700 H   0  0  0  0  0  0  0  0  0  0  0  0
   -2.9200    3.9820    1.9510 H   0  0  0  0  0  0  0  0  0  0  0  0
   -4.3740    2.1830    2.3340 H   0  0  0  0  0  0  0  0  0  0  0  0
   -3.0490    1.4230    3.3550 H   0  0  0  0  0  0  0  0  0  0  0  0
   -3.0460   -0.2020    1.7510 H   0  0  0  0  0  0  0  0  0  0  0  0
  1 10  1  0  0  0  0
  2  3  2  0  0  0  0
  2  1  1  0  0  0  0
  4  2  1  0  0  0  0
  5 14  1  0  0  0  0
  5  4  1  0  0  0  0
  5 15  1  0  0  0  0
  6 16  1  6  0  0  0
  6  5  1  0  0  0  0
  7  6  1  0  0  0  0
  8  6  1  0  0  0  0
  9  8  2  0  0  0  0
 11  1  1  0  0  0  0
 12  4  1  0  0  0  0
 13  4  1  0  0  0  0
 17  7  1  0  0  0  0
 18  7  1  0  0  0  0
 19  8  1  0  0  0  0
 19 23  1  0  0  0  0
 20 19  1  0  0  0  0
 20 26  1  0  0  0  0
 21 22  1  0  0  0  0
 21 20  1  0  0  0  0
 22 23  1  0  0  0  0
 23 24  1  0  0  0  0
 23 32  1  1  0  0  0
 24 25  2  0  0  0  0
 24 33  1  0  0  0  0
 27 20  1  0  0  0  0
 28 21  1  0  0  0  0
 29 21  1  0  0  0  0
 30 22  1  0  0  0  0
 31 22  1  0  0  0  0
 33 37  1  0  0  0  0
 34 33  1  0  0  0  0
 34 35  1  0  0  0  0
 35 36  1  0  0  0  0
 35 43  1  0  0  0  0
 36 46  1  0  0  0  0
 37 47  1  1  0  0  0
 37 36  1  0  0  0  0
 38 39  1  0  0  0  0
 38 37  1  0  0  0  0
 40 38  2  0  0  0  0
 41 34  1  0  0  0  0
 42 34  1  0  0  0  0
 44 35  1  0  0  0  0
 45 36  1  0  0  0  0
M  END
$$$$
