QPQ.pdb
 OpenBabel07022418333D

 50 50  0  0  1  0  0  0  0  0999 V2000
    4.9400   -2.9530    5.0020 N   0  0  0  0  0  0  0  0  0  0  0  0
    4.5530   -2.0770    3.9560 C   0  0  0  0  0  0  0  0  0  0  0  0
    5.1180   -0.9530    3.9110 O   0  0  0  0  0  0  0  0  0  0  0  0
    3.5220   -2.5050    2.9730 C   0  0  0  0  0  0  0  0  0  0  0  0
    3.3410   -1.3620    1.9950 C   0  0  0  0  0  0  0  0  0  0  0  0
    2.3010   -1.7040    0.9430 C   0  0  2  0  0  0  0  0  0  0  0  0
    2.8520   -2.9040    0.2810 N   0  0  0  0  0  0  0  0  0  0  0  0
    2.1650   -0.6580   -0.0890 C   0  0  0  0  0  0  0  0  0  0  0  0
    2.7210   -0.8320   -1.2350 O   0  0  0  0  0  0  0  0  0  0  0  0
    4.2220   -3.6610    5.3250 H   0  0  0  0  0  0  0  0  0  0  0  0
    5.8740   -2.9390    5.4630 H   0  0  0  0  0  0  0  0  0  0  0  0
    2.5540   -2.7100    3.4980 H   0  0  0  0  0  0  0  0  0  0  0  0
    3.9070   -3.4200    2.4710 H   0  0  0  0  0  0  0  0  0  0  0  0
    3.1540   -0.4590    2.5610 H   0  0  0  0  0  0  0  0  0  0  0  0
    4.3520   -1.2290    1.5090 H   0  0  0  0  0  0  0  0  0  0  0  0
    1.3600   -2.0160    1.4160 H   0  0  0  0  0  0  0  0  0  0  0  0
    2.5890   -2.8890   -0.7460 H   0  0  0  0  0  0  0  0  0  0  0  0
    3.9060   -2.8670    0.2850 H   0  0  0  0  0  0  0  0  0  0  0  0
    1.4550    0.5580    0.0680 N   0  0  0  0  0  0  0  0  0  0  0  0
    1.3380    1.6000   -0.9510 C   0  0  0  0  0  0  0  0  0  0  0  0
    0.3780    2.6220   -0.3640 C   0  0  0  0  0  0  0  0  0  0  0  0
    0.7350    2.4830    1.1140 C   0  0  0  0  0  0  0  0  0  0  0  0
    0.7260    0.9520    1.2340 C   0  0  1  0  0  0  0  0  0  0  0  0
   -0.6610    0.4410    1.0900 C   0  0  0  0  0  0  0  0  0  0  0  0
   -1.4710    0.7120    2.0150 O   0  0  0  0  0  0  0  0  0  0  0  0
    0.9730    1.2260   -1.9070 H   0  0  0  0  0  0  0  0  0  0  0  0
    2.3160    2.1380   -1.0810 H   0  0  0  0  0  0  0  0  0  0  0  0
    0.5380    3.6320   -0.7390 H   0  0  0  0  0  0  0  0  0  0  0  0
   -0.6780    2.2860   -0.4470 H   0  0  0  0  0  0  0  0  0  0  0  0
    1.7560    2.8130    1.2980 H   0  0  0  0  0  0  0  0  0  0  0  0
   -0.0300    2.9230    1.7720 H   0  0  0  0  0  0  0  0  0  0  0  0
    1.1700    0.7350    2.1960 H   0  0  0  0  0  0  0  0  0  0  0  0
   -6.7660   -0.5760   -0.4600 N   0  0  0  0  0  0  0  0  0  0  0  0
   -5.4110   -0.1650   -0.4920 C   0  0  0  0  0  0  0  0  0  0  0  0
   -4.9930    0.6090    0.4250 O   0  0  0  0  0  0  0  0  0  0  0  0
   -4.4830   -0.6000   -1.5410 C   0  0  0  0  0  0  0  0  0  0  0  0
   -3.0640   -0.2190   -1.3320 C   0  0  0  0  0  0  0  0  0  0  0  0
   -2.4660   -0.7860   -0.0920 C   0  0  2  0  0  0  0  0  0  0  0  0
   -1.0770   -0.3200   -0.0290 N   0  0  0  0  0  0  0  0  0  0  0  0
   -2.4970   -2.2770   -0.0440 C   0  0  0  0  0  0  0  0  0  0  0  0
   -3.5660   -2.9250   -0.0480 O   0  0  0  0  0  0  0  0  0  0  0  0
   -1.3060   -2.9970    0.0060 O   0  0  0  0  0  0  0  0  0  0  0  0
   -7.0680   -1.4470   -0.9300 H   0  0  0  0  0  0  0  0  0  0  0  0
   -7.4710   -0.0030    0.0380 H   0  0  0  0  0  0  0  0  0  0  0  0
   -4.8090   -0.1650   -2.5380 H   0  0  0  0  0  0  0  0  0  0  0  0
   -4.6090   -1.7100   -1.6750 H   0  0  0  0  0  0  0  0  0  0  0  0
   -3.0220    0.9000   -1.2610 H   0  0  0  0  0  0  0  0  0  0  0  0
   -2.4210   -0.4630   -2.2220 H   0  0  0  0  0  0  0  0  0  0  0  0
   -2.9910   -0.4090    0.8020 H   0  0  0  0  0  0  0  0  0  0  0  0
   -0.4210   -0.5520   -0.8000 H   0  0  0  0  0  0  0  0  0  0  0  0
  1 10  1  0  0  0  0
  1 11  1  0  0  0  0
  2  1  1  0  0  0  0
  3  2  2  0  0  0  0
  4 12  1  0  0  0  0
  4  2  1  0  0  0  0
  5 14  1  0  0  0  0
  5  4  1  0  0  0  0
  6 16  1  1  0  0  0
  6  5  1  0  0  0  0
  7 18  1  0  0  0  0
  7  6  1  0  0  0  0
  8 19  1  0  0  0  0
  8  6  1  0  0  0  0
  9  8  2  0  0  0  0
 13  4  1  0  0  0  0
 15  5  1  0  0  0  0
 17  7  1  0  0  0  0
 19 23  1  0  0  0  0
 20 21  1  0  0  0  0
 20 19  1  0  0  0  0
 21 22  1  0  0  0  0
 22 23  1  0  0  0  0
 22 30  1  0  0  0  0
 22 31  1  0  0  0  0
 23 32  1  1  0  0  0
 24 23  1  0  0  0  0
 24 25  2  0  0  0  0
 26 20  1  0  0  0  0
 27 20  1  0  0  0  0
 28 21  1  0  0  0  0
 29 21  1  0  0  0  0
 33 44  1  0  0  0  0
 34 33  1  0  0  0  0
 34 35  2  0  0  0  0
 36 37  1  0  0  0  0
 36 34  1  0  0  0  0
 37 47  1  0  0  0  0
 37 38  1  0  0  0  0
 38 40  1  0  0  0  0
 38 39  1  0  0  0  0
 38 49  1  1  0  0  0
 39 24  1  0  0  0  0
 40 42  1  0  0  0  0
 41 40  2  0  0  0  0
 43 33  1  0  0  0  0
 45 36  1  0  0  0  0
 46 36  1  0  0  0  0
 48 37  1  0  0  0  0
 50 39  1  0  0  0  0
M  END
$$$$
