QPR.pdb
 OpenBabel07022418333D

 56 56  0  0  1  0  0  0  0  0999 V2000
    1.0960   -3.1710    5.4730 N   0  0  0  0  0  0  0  0  0  0  0  0
    1.6070   -2.9650    4.1670 C   0  0  0  0  0  0  0  0  0  0  0  0
    1.2480   -3.7300    3.2450 O   0  0  0  0  0  0  0  0  0  0  0  0
    2.5570   -1.8460    3.9310 C   0  0  0  0  0  0  0  0  0  0  0  0
    2.9450   -1.6510    2.5180 C   0  0  0  0  0  0  0  0  0  0  0  0
    1.8130   -1.3650    1.5900 C   0  0  2  0  0  0  0  0  0  0  0  0
    2.3690   -1.2160    0.2220 N   0  0  0  0  0  0  0  0  0  0  0  0
    1.1090   -0.0980    1.8490 C   0  0  0  0  0  0  0  0  0  0  0  0
    0.9850    0.2780    3.0660 O   0  0  0  0  0  0  0  0  0  0  0  0
    1.5430   -2.7470    6.3310 H   0  0  0  0  0  0  0  0  0  0  0  0
    0.2550   -3.7520    5.6240 H   0  0  0  0  0  0  0  0  0  0  0  0
    3.5430   -2.0990    4.4850 H   0  0  0  0  0  0  0  0  0  0  0  0
    2.2650   -0.9040    4.4160 H   0  0  0  0  0  0  0  0  0  0  0  0
    3.6330   -0.7730    2.4730 H   0  0  0  0  0  0  0  0  0  0  0  0
    3.4840   -2.5500    2.1360 H   0  0  0  0  0  0  0  0  0  0  0  0
    1.1400   -2.2190    1.5270 H   0  0  0  0  0  0  0  0  0  0  0  0
    2.9000   -0.2980    0.1870 H   0  0  0  0  0  0  0  0  0  0  0  0
    3.0840   -1.9870    0.0750 H   0  0  0  0  0  0  0  0  0  0  0  0
    0.5530    0.7660    0.8900 N   0  0  0  0  0  0  0  0  0  0  0  0
    0.0450    2.1540    1.2820 C   0  0  0  0  0  0  0  0  0  0  0  0
    0.8090    2.9640    0.2150 C   0  0  0  0  0  0  0  0  0  0  0  0
    1.1610    1.9550   -0.9090 C   0  0  0  0  0  0  0  0  0  0  0  0
    0.2390    0.8340   -0.4860 C   0  0  1  0  0  0  0  0  0  0  0  0
   -0.0300   -0.2360   -1.3600 C   0  0  0  0  0  0  0  0  0  0  0  0
    0.1290   -0.0940   -2.6330 O   0  0  0  0  0  0  0  0  0  0  0  0
   -1.0290    2.0850    1.0570 H   0  0  0  0  0  0  0  0  0  0  0  0
    0.3320    2.3850    2.2930 H   0  0  0  0  0  0  0  0  0  0  0  0
    0.0880    3.6760   -0.2320 H   0  0  0  0  0  0  0  0  0  0  0  0
    1.7100    3.4180    0.6240 H   0  0  0  0  0  0  0  0  0  0  0  0
    2.2220    1.7400   -0.8280 H   0  0  0  0  0  0  0  0  0  0  0  0
    0.9180    2.3910   -1.8790 H   0  0  0  0  0  0  0  0  0  0  0  0
   -0.8040    1.4360   -0.5010 H   0  0  0  0  0  0  0  0  0  0  0  0
   -3.0980    0.1120    1.7870 N   0  0  0  0  0  0  0  0  0  0  0  0
   -3.2770    0.3440    0.4000 C   0  0  0  0  0  0  0  0  0  0  0  0
   -3.5740    1.5210   -0.0210 N   0  0  0  0  0  0  0  0  0  0  0  0
   -3.1440   -0.6870   -0.5740 N   0  0  0  0  0  0  0  0  0  0  0  0
   -3.2430   -0.4390   -1.9900 C   0  0  0  0  0  0  0  0  0  0  0  0
   -2.9560   -1.5900   -2.8530 C   0  0  0  0  0  0  0  0  0  0  0  0
   -1.6170   -2.1650   -2.9980 C   0  0  0  0  0  0  0  0  0  0  0  0
   -0.8240   -2.5990   -1.8130 C   0  0  2  0  0  0  0  0  0  0  0  0
   -0.4950   -1.5110   -0.9590 N   0  0  0  0  0  0  0  0  0  0  0  0
    0.2540   -3.5200   -2.1390 C   0  0  0  0  0  0  0  0  0  0  0  0
    0.0360   -4.5330   -2.8960 O   0  0  0  0  0  0  0  0  0  0  0  0
    1.5410   -3.3940   -1.6870 O   0  0  0  0  0  0  0  0  0  0  0  0
   -2.6820    0.8180    2.4480 H   0  0  0  0  0  0  0  0  0  0  0  0
   -3.3780   -0.8000    2.2430 H   0  0  0  0  0  0  0  0  0  0  0  0
   -3.6870    2.3230    0.6460 H   0  0  0  0  0  0  0  0  0  0  0  0
   -3.0020   -1.6640   -0.2050 H   0  0  0  0  0  0  0  0  0  0  0  0
   -2.6810    0.4790   -2.2930 H   0  0  0  0  0  0  0  0  0  0  0  0
   -4.3270   -0.1350   -2.1500 H   0  0  0  0  0  0  0  0  0  0  0  0
   -3.7020   -2.4350   -2.6470 H   0  0  0  0  0  0  0  0  0  0  0  0
   -3.2840   -1.3170   -3.9280 H   0  0  0  0  0  0  0  0  0  0  0  0
   -1.7960   -3.1630   -3.5810 H   0  0  0  0  0  0  0  0  0  0  0  0
   -1.0110   -1.6130   -3.7690 H   0  0  0  0  0  0  0  0  0  0  0  0
   -1.6020   -3.2630   -1.2430 H   0  0  0  0  0  0  0  0  0  0  0  0
   -0.6270   -1.6910    0.0920 H   0  0  0  0  0  0  0  0  0  0  0  0
  1 11  1  0  0  0  0
  1 10  1  0  0  0  0
  2  1  1  0  0  0  0
  3  2  2  0  0  0  0
  4  2  1  0  0  0  0
  4 13  1  0  0  0  0
  4 12  1  0  0  0  0
  5  4  1  0  0  0  0
  6 16  1  1  0  0  0
  6  8  1  0  0  0  0
  6  5  1  0  0  0  0
  7  6  1  0  0  0  0
  8  9  2  0  0  0  0
 14  5  1  0  0  0  0
 15  5  1  0  0  0  0
 17  7  1  0  0  0  0
 18  7  1  0  0  0  0
 19 20  1  0  0  0  0
 19  8  1  0  0  0  0
 20 27  1  0  0  0  0
 21 29  1  0  0  0  0
 21 20  1  0  0  0  0
 22 30  1  0  0  0  0
 22 23  1  0  0  0  0
 22 21  1  0  0  0  0
 23 32  1  1  0  0  0
 23 19  1  0  0  0  0
 24 41  1  0  0  0  0
 24 23  1  0  0  0  0
 25 24  2  0  0  0  0
 26 20  1  0  0  0  0
 28 21  1  0  0  0  0
 31 22  1  0  0  0  0
 33 46  1  0  0  0  0
 33 45  1  0  0  0  0
 34 33  1  0  0  0  0
 35 34  2  0  0  0  0
 35 47  1  0  0  0  0
 36 48  1  0  0  0  0
 36 34  1  0  0  0  0
 37 36  1  0  0  0  0
 38 51  1  0  0  0  0
 38 37  1  0  0  0  0
 39 38  1  0  0  0  0
 39 40  1  0  0  0  0
 40 55  1  1  0  0  0
 40 41  1  0  0  0  0
 41 56  1  0  0  0  0
 42 40  1  0  0  0  0
 42 44  1  0  0  0  0
 43 42  2  0  0  0  0
 49 37  1  0  0  0  0
 50 37  1  0  0  0  0
 52 38  1  0  0  0  0
 53 39  1  0  0  0  0
 54 39  1  0  0  0  0
M  END
$$$$
