QPT.pdb
 OpenBabel07022418333D

 47 47  0  0  1  0  0  0  0  0999 V2000
   -0.2200   -4.7760    4.0130 N   0  0  0  0  0  0  0  0  0  0  0  0
    0.3450   -3.5310    3.6530 C   0  0  0  0  0  0  0  0  0  0  0  0
    0.2460   -2.5690    4.4510 O   0  0  0  0  0  0  0  0  0  0  0  0
    1.0540   -3.3190    2.3610 C   0  0  0  0  0  0  0  0  0  0  0  0
    1.5570   -1.9050    2.2320 C   0  0  0  0  0  0  0  0  0  0  0  0
    2.2620   -1.7390    0.9100 C   0  0  2  0  0  0  0  0  0  0  0  0
    3.3920   -2.7160    0.9510 N   0  0  0  0  0  0  0  0  0  0  0  0
    2.7440   -0.3950    0.6410 C   0  0  0  0  0  0  0  0  0  0  0  0
    4.0680   -0.3420    0.6250 O   0  0  0  0  0  0  0  0  0  0  0  0
   -0.6840   -4.9160    4.9330 H   0  0  0  0  0  0  0  0  0  0  0  0
   -0.1820   -5.5980    3.3460 H   0  0  0  0  0  0  0  0  0  0  0  0
    0.3710   -3.6170    1.5450 H   0  0  0  0  0  0  0  0  0  0  0  0
    1.8970   -4.0610    2.3390 H   0  0  0  0  0  0  0  0  0  0  0  0
    0.7560   -1.1960    2.4070 H   0  0  0  0  0  0  0  0  0  0  0  0
    2.3210   -1.7900    3.0680 H   0  0  0  0  0  0  0  0  0  0  0  0
    1.6370   -2.1310    0.1070 H   0  0  0  0  0  0  0  0  0  0  0  0
    3.7000   -2.7250    1.9420 H   0  0  0  0  0  0  0  0  0  0  0  0
    3.0440   -3.6660    0.7170 H   0  0  0  0  0  0  0  0  0  0  0  0
    2.1330    0.8140    0.4060 N   0  0  0  0  0  0  0  0  0  0  0  0
    2.9970    2.0470    0.2230 C   0  0  0  0  0  0  0  0  0  0  0  0
    2.3080    2.7810   -0.8950 C   0  0  0  0  0  0  0  0  0  0  0  0
    0.9930    2.0800   -1.1070 C   0  0  0  0  0  0  0  0  0  0  0  0
    0.8540    1.3500    0.2760 C   0  0  1  0  0  0  0  0  0  0  0  0
   -0.3650    0.5700    0.2500 C   0  0  0  0  0  0  0  0  0  0  0  0
   -0.4090   -0.6380    0.0600 O   0  0  0  0  0  0  0  0  0  0  0  0
    4.0090    1.7730   -0.0580 H   0  0  0  0  0  0  0  0  0  0  0  0
    2.9260    2.6380    1.1530 H   0  0  0  0  0  0  0  0  0  0  0  0
    2.9190    2.8280   -1.8190 H   0  0  0  0  0  0  0  0  0  0  0  0
    2.1160    3.8560   -0.6190 H   0  0  0  0  0  0  0  0  0  0  0  0
    0.1570    2.7630   -1.2520 H   0  0  0  0  0  0  0  0  0  0  0  0
    1.1270    1.3300   -1.8880 H   0  0  0  0  0  0  0  0  0  0  0  0
    0.7540    2.2440    0.9720 H   0  0  0  0  0  0  0  0  0  0  0  0
   -2.6950   -0.3900   -1.8790 C   0  0  0  0  0  0  0  0  0  0  0  0
   -3.5000    0.3820   -0.8740 C   0  0  1  0  0  0  0  0  0  0  0  0
   -4.7050   -0.3400   -0.7030 O   0  0  0  0  0  0  0  0  0  0  0  0
   -2.8460    0.5530    0.4560 C   0  0  2  0  0  0  0  0  0  0  0  0
   -1.6140    1.2630    0.4610 N   0  0  0  0  0  0  0  0  0  0  0  0
   -2.8860   -0.6890    1.2590 C   0  0  0  0  0  0  0  0  0  0  0  0
   -1.9450   -1.0390    1.9790 O   0  0  0  0  0  0  0  0  0  0  0  0
   -4.0210   -1.4730    1.1890 O   0  0  0  0  0  0  0  0  0  0  0  0
   -1.7610    0.1210   -2.1920 H   0  0  0  0  0  0  0  0  0  0  0  0
   -2.4650   -1.4120   -1.5680 H   0  0  0  0  0  0  0  0  0  0  0  0
   -3.2660   -0.5090   -2.8490 H   0  0  0  0  0  0  0  0  0  0  0  0
   -3.8080    1.3730   -1.2340 H   0  0  0  0  0  0  0  0  0  0  0  0
   -5.2430    0.2100   -0.0840 H   0  0  0  0  0  0  0  0  0  0  0  0
   -3.5960    1.2240    1.0570 H   0  0  0  0  0  0  0  0  0  0  0  0
   -1.5930    2.3180    0.6200 H   0  0  0  0  0  0  0  0  0  0  0  0
  1 10  1  0  0  0  0
  2  1  1  0  0  0  0
  2  3  2  0  0  0  0
  4  2  1  0  0  0  0
  5  4  1  0  0  0  0
  5 14  1  0  0  0  0
  5 15  1  0  0  0  0
  6 16  1  6  0  0  0
  6  7  1  0  0  0  0
  6  5  1  0  0  0  0
  7 17  1  0  0  0  0
  8  6  1  0  0  0  0
  9  8  2  0  0  0  0
 11  1  1  0  0  0  0
 12  4  1  0  0  0  0
 13  4  1  0  0  0  0
 18  7  1  0  0  0  0
 19  8  1  0  0  0  0
 20 19  1  0  0  0  0
 20 27  1  0  0  0  0
 21 29  1  0  0  0  0
 21 20  1  0  0  0  0
 22 21  1  0  0  0  0
 22 23  1  0  0  0  0
 23 19  1  0  0  0  0
 23 32  1  1  0  0  0
 24 23  1  0  0  0  0
 24 37  1  0  0  0  0
 25 24  2  0  0  0  0
 26 20  1  0  0  0  0
 28 21  1  0  0  0  0
 30 22  1  0  0  0  0
 31 22  1  0  0  0  0
 33 42  1  0  0  0  0
 33 34  1  0  0  0  0
 34 44  1  6  0  0  0
 34 35  1  0  0  0  0
 34 36  1  0  0  0  0
 35 45  1  0  0  0  0
 36 37  1  0  0  0  0
 36 46  1  1  0  0  0
 36 38  1  0  0  0  0
 37 47  1  0  0  0  0
 38 39  1  0  0  0  0
 40 38  2  0  0  0  0
 41 33  1  0  0  0  0
 43 33  1  0  0  0  0
M  END
$$$$
