QPV.pdb
 OpenBabel07022418333D

 49 49  0  0  1  0  0  0  0  0999 V2000
    0.1970   -4.5390    3.8570 N   0  0  0  0  0  0  0  0  0  0  0  0
    0.8250   -3.4290    3.1910 C   0  0  0  0  0  0  0  0  0  0  0  0
    0.0630   -2.5450    2.7720 O   0  0  0  0  0  0  0  0  0  0  0  0
    2.2830   -3.3810    3.0400 C   0  0  0  0  0  0  0  0  0  0  0  0
    2.8000   -2.2700    2.1670 C   0  0  0  0  0  0  0  0  0  0  0  0
    2.2550   -2.4500    0.7640 C   0  0  2  0  0  0  0  0  0  0  0  0
    2.7630   -3.7750    0.3440 N   0  0  0  0  0  0  0  0  0  0  0  0
    2.7520   -1.4240   -0.1680 C   0  0  0  0  0  0  0  0  0  0  0  0
    3.6780   -1.7920   -0.9760 O   0  0  0  0  0  0  0  0  0  0  0  0
   -0.7830   -4.7860    3.6830 H   0  0  0  0  0  0  0  0  0  0  0  0
    0.7510   -5.1250    4.5470 H   0  0  0  0  0  0  0  0  0  0  0  0
    2.5740   -4.3710    2.5730 H   0  0  0  0  0  0  0  0  0  0  0  0
    2.7730   -3.3900    4.0380 H   0  0  0  0  0  0  0  0  0  0  0  0
    3.9070   -2.4030    2.1180 H   0  0  0  0  0  0  0  0  0  0  0  0
    2.5360   -1.3280    2.6370 H   0  0  0  0  0  0  0  0  0  0  0  0
    1.1820   -2.5190    0.8030 H   0  0  0  0  0  0  0  0  0  0  0  0
    2.2800   -4.0240   -0.5500 H   0  0  0  0  0  0  0  0  0  0  0  0
    3.7760   -3.7230    0.1470 H   0  0  0  0  0  0  0  0  0  0  0  0
    2.3080   -0.0910   -0.2530 N   0  0  0  0  0  0  0  0  0  0  0  0
    2.8270    0.9340   -1.1740 C   0  0  0  0  0  0  0  0  0  0  0  0
    2.8320    2.2010   -0.3610 C   0  0  0  0  0  0  0  0  0  0  0  0
    1.6620    2.0100    0.5610 C   0  0  0  0  0  0  0  0  0  0  0  0
    1.2750    0.5480    0.4930 C   0  0  1  0  0  0  0  0  0  0  0  0
   -0.0040    0.4940   -0.2730 C   0  0  0  0  0  0  0  0  0  0  0  0
   -0.0410   -0.0430   -1.3860 O   0  0  0  0  0  0  0  0  0  0  0  0
    2.0970    1.0260   -1.9960 H   0  0  0  0  0  0  0  0  0  0  0  0
    3.8270    0.6660   -1.5380 H   0  0  0  0  0  0  0  0  0  0  0  0
    3.7770    2.3660    0.1900 H   0  0  0  0  0  0  0  0  0  0  0  0
    2.6850    3.0730   -1.0430 H   0  0  0  0  0  0  0  0  0  0  0  0
    0.8390    2.6860    0.2430 H   0  0  0  0  0  0  0  0  0  0  0  0
    1.9280    2.3230    1.5920 H   0  0  0  0  0  0  0  0  0  0  0  0
    1.1580    0.2010    1.5140 H   0  0  0  0  0  0  0  0  0  0  0  0
   -2.7240   -1.2740    0.4110 C   0  0  0  0  0  0  0  0  0  0  0  0
   -3.3750    0.0930    0.3520 C   0  0  0  0  0  0  0  0  0  0  0  0
   -4.7040    0.0550   -0.3420 C   0  0  0  0  0  0  0  0  0  0  0  0
   -2.4640    1.0230   -0.4600 C   0  0  2  0  0  0  0  0  0  0  0  0
   -1.1960    1.0500    0.2470 N   0  0  0  0  0  0  0  0  0  0  0  0
   -3.1050    2.3320   -0.5390 C   0  0  0  0  0  0  0  0  0  0  0  0
   -2.5980    3.3560   -0.0190 O   0  0  0  0  0  0  0  0  0  0  0  0
   -4.3060    2.4870   -1.1990 O   0  0  0  0  0  0  0  0  0  0  0  0
   -2.2750   -1.4790   -0.5680 H   0  0  0  0  0  0  0  0  0  0  0  0
   -2.0180   -1.3450    1.2610 H   0  0  0  0  0  0  0  0  0  0  0  0
   -3.5480   -2.0050    0.6050 H   0  0  0  0  0  0  0  0  0  0  0  0
   -3.4080    0.5120    1.3730 H   0  0  0  0  0  0  0  0  0  0  0  0
   -4.6400    0.2090   -1.4380 H   0  0  0  0  0  0  0  0  0  0  0  0
   -5.1390   -0.9590   -0.1830 H   0  0  0  0  0  0  0  0  0  0  0  0
   -5.3480    0.8490    0.0700 H   0  0  0  0  0  0  0  0  0  0  0  0
   -2.3200    0.5140   -1.4360 H   0  0  0  0  0  0  0  0  0  0  0  0
   -1.1460    1.4990    1.1880 H   0  0  0  0  0  0  0  0  0  0  0  0
  1 11  1  0  0  0  0
  2  1  1  0  0  0  0
  3  2  2  0  0  0  0
  4  2  1  0  0  0  0
  4 13  1  0  0  0  0
  5 15  1  0  0  0  0
  5  4  1  0  0  0  0
  6 16  1  1  0  0  0
  6  5  1  0  0  0  0
  7  6  1  0  0  0  0
  8  6  1  0  0  0  0
  9  8  2  0  0  0  0
 10  1  1  0  0  0  0
 12  4  1  0  0  0  0
 14  5  1  0  0  0  0
 17  7  1  0  0  0  0
 18  7  1  0  0  0  0
 19  8  1  0  0  0  0
 19 23  1  0  0  0  0
 20 21  1  0  0  0  0
 20 19  1  0  0  0  0
 21 28  1  0  0  0  0
 21 22  1  0  0  0  0
 22 31  1  0  0  0  0
 23 22  1  0  0  0  0
 23 32  1  1  0  0  0
 24 37  1  0  0  0  0
 24 23  1  0  0  0  0
 25 24  2  0  0  0  0
 26 20  1  0  0  0  0
 27 20  1  0  0  0  0
 29 21  1  0  0  0  0
 30 22  1  0  0  0  0
 33 43  1  0  0  0  0
 33 42  1  0  0  0  0
 34 33  1  0  0  0  0
 34 44  1  0  0  0  0
 35 46  1  0  0  0  0
 35 47  1  0  0  0  0
 35 34  1  0  0  0  0
 36 48  1  6  0  0  0
 36 37  1  0  0  0  0
 36 34  1  0  0  0  0
 37 49  1  0  0  0  0
 38 36  1  0  0  0  0
 38 39  1  0  0  0  0
 40 38  2  0  0  0  0
 41 33  1  0  0  0  0
 45 35  1  0  0  0  0
M  END
$$$$
