QPW.pdb
 OpenBabel07022418333D

 57 59  0  0  1  0  0  0  0  0999 V2000
    4.1000    0.9280    5.4110 N   0  0  0  0  0  0  0  0  0  0  0  0
    4.6110    1.3860    4.1850 C   0  0  0  0  0  0  0  0  0  0  0  0
    5.7650    1.8670    4.1220 O   0  0  0  0  0  0  0  0  0  0  0  0
    3.7530    1.2850    2.9720 C   0  0  0  0  0  0  0  0  0  0  0  0
    4.4130    1.8730    1.7740 C   0  0  0  0  0  0  0  0  0  0  0  0
    3.5060    1.7520    0.5630 C   0  0  2  0  0  0  0  0  0  0  0  0
    4.2630    2.3690   -0.5560 N   0  0  0  0  0  0  0  0  0  0  0  0
    2.2880    2.5310    0.7890 C   0  0  0  0  0  0  0  0  0  0  0  0
    2.3700    3.7790    0.4860 O   0  0  0  0  0  0  0  0  0  0  0  0
    4.2690    1.4730    6.2720 H   0  0  0  0  0  0  0  0  0  0  0  0
    3.5560    0.0490    5.4490 H   0  0  0  0  0  0  0  0  0  0  0  0
    2.8000    1.8180    3.1780 H   0  0  0  0  0  0  0  0  0  0  0  0
    3.6170    0.1960    2.7890 H   0  0  0  0  0  0  0  0  0  0  0  0
    4.5440    2.9600    1.9580 H   0  0  0  0  0  0  0  0  0  0  0  0
    5.4070    1.4250    1.6000 H   0  0  0  0  0  0  0  0  0  0  0  0
    3.3720    0.7050    0.3310 H   0  0  0  0  0  0  0  0  0  0  0  0
    5.0700    1.7180   -0.7320 H   0  0  0  0  0  0  0  0  0  0  0  0
    3.6340    2.2640   -1.3740 H   0  0  0  0  0  0  0  0  0  0  0  0
    1.0570    2.0690    1.2900 N   0  0  0  0  0  0  0  0  0  0  0  0
   -0.1100    2.9240    1.5340 C   0  0  0  0  0  0  0  0  0  0  0  0
   -0.8460    2.2890    2.6720 C   0  0  0  0  0  0  0  0  0  0  0  0
   -0.1520    0.9880    2.9080 C   0  0  0  0  0  0  0  0  0  0  0  0
    0.6170    0.7320    1.6370 C   0  0  1  0  0  0  0  0  0  0  0  0
   -0.2700    0.2350    0.5450 C   0  0  0  0  0  0  0  0  0  0  0  0
   -0.5440    0.9730   -0.4330 O   0  0  0  0  0  0  0  0  0  0  0  0
   -0.7440    3.0330    0.6480 H   0  0  0  0  0  0  0  0  0  0  0  0
    0.3030    3.9210    1.8360 H   0  0  0  0  0  0  0  0  0  0  0  0
   -0.8800    2.9500    3.5690 H   0  0  0  0  0  0  0  0  0  0  0  0
   -1.8990    2.0810    2.3970 H   0  0  0  0  0  0  0  0  0  0  0  0
    0.5840    1.1240    3.7240 H   0  0  0  0  0  0  0  0  0  0  0  0
   -0.8340    0.1590    3.1710 H   0  0  0  0  0  0  0  0  0  0  0  0
    1.4390    0.0610    1.8530 H   0  0  0  0  0  0  0  0  0  0  0  0
   -0.8320   -1.0700    0.5650 N   0  0  0  0  0  0  0  0  0  0  0  0
   -1.7040   -1.6040   -0.4730 C   0  0  1  0  0  0  0  0  0  0  0  0
   -1.0530   -2.6900   -1.2490 C   0  0  0  0  0  0  0  0  0  0  0  0
   -1.8520   -3.3270   -2.3050 C   0  0  0  0  0  0  0  0  0  0  0  0
   -1.8380   -2.9360   -3.6450 C   0  0  0  0  0  0  0  0  0  0  0  0
   -2.7020   -3.6950   -4.3390 N   0  0  0  0  0  0  0  0  0  0  0  0
   -3.3020   -4.5840   -3.5300 C   0  0  0  0  0  0  0  0  0  0  0  0
   -4.2440   -5.5800   -3.7640 C   0  0  0  0  0  0  0  0  0  0  0  0
   -4.6360   -6.3390   -2.6890 C   0  0  0  0  0  0  0  0  0  0  0  0
   -4.1280   -6.1330   -1.4340 C   0  0  0  0  0  0  0  0  0  0  0  0
   -3.1970   -5.1490   -1.1960 C   0  0  0  0  0  0  0  0  0  0  0  0
   -2.7770   -4.3610   -2.2620 C   0  0  0  0  0  0  0  0  0  0  0  0
   -3.0650   -1.8380    0.0090 C   0  0  0  0  0  0  0  0  0  0  0  0
   -4.0170   -2.1810   -0.7160 O   0  0  0  0  0  0  0  0  0  0  0  0
   -3.3150   -1.6650    1.3730 O   0  0  0  0  0  0  0  0  0  0  0  0
   -0.5810   -1.6560    1.3910 H   0  0  0  0  0  0  0  0  0  0  0  0
   -1.8020   -0.7370   -1.2100 H   0  0  0  0  0  0  0  0  0  0  0  0
   -0.7850   -3.4960   -0.4920 H   0  0  0  0  0  0  0  0  0  0  0  0
   -0.0930   -2.3840   -1.7170 H   0  0  0  0  0  0  0  0  0  0  0  0
   -1.2230   -2.1460   -4.0410 H   0  0  0  0  0  0  0  0  0  0  0  0
   -2.8890   -3.6120   -5.3650 H   0  0  0  0  0  0  0  0  0  0  0  0
   -4.6380   -5.7320   -4.7610 H   0  0  0  0  0  0  0  0  0  0  0  0
   -5.3820   -7.1230   -2.8890 H   0  0  0  0  0  0  0  0  0  0  0  0
   -4.4590   -6.7540   -0.6010 H   0  0  0  0  0  0  0  0  0  0  0  0
   -2.7750   -4.9620   -0.2160 H   0  0  0  0  0  0  0  0  0  0  0  0
  1 11  1  0  0  0  0
  1 10  1  0  0  0  0
  2  1  1  0  0  0  0
  3  2  2  0  0  0  0
  4 12  1  0  0  0  0
  4  2  1  0  0  0  0
  5 14  1  0  0  0  0
  5  4  1  0  0  0  0
  6 16  1  6  0  0  0
  6  8  1  0  0  0  0
  6  5  1  0  0  0  0
  7  6  1  0  0  0  0
  8 19  1  0  0  0  0
  9  8  2  0  0  0  0
 13  4  1  0  0  0  0
 15  5  1  0  0  0  0
 17  7  1  0  0  0  0
 18  7  1  0  0  0  0
 19 20  1  0  0  0  0
 19 23  1  0  0  0  0
 20 27  1  0  0  0  0
 20 21  1  0  0  0  0
 21 22  1  0  0  0  0
 21 28  1  0  0  0  0
 22 31  1  0  0  0  0
 22 30  1  0  0  0  0
 23 32  1  1  0  0  0
 23 22  1  0  0  0  0
 24 33  1  0  0  0  0
 24 23  1  0  0  0  0
 25 24  2  0  0  0  0
 26 20  1  0  0  0  0
 29 21  1  0  0  0  0
 33 48  1  0  0  0  0
 34 49  1  6  0  0  0
 34 45  1  0  0  0  0
 34 33  1  0  0  0  0
 35 50  1  0  0  0  0
 35 34  1  0  0  0  0
 36 44  1  0  0  0  0
 36 35  1  0  0  0  0
 37 36  2  0  0  0  0
 38 37  1  0  0  0  0
 38 39  1  0  0  0  0
 39 44  1  0  0  0  0
 40 39  2  0  0  0  0
 40 41  1  0  0  0  0
 41 42  2  0  0  0  0
 42 43  1  0  0  0  0
 42 56  1  0  0  0  0
 43 57  1  0  0  0  0
 44 43  2  0  0  0  0
 45 47  1  0  0  0  0
 46 45  2  0  0  0  0
 51 35  1  0  0  0  0
 52 37  1  0  0  0  0
 53 38  1  0  0  0  0
 54 40  1  0  0  0  0
 55 41  1  0  0  0  0
M  END
$$$$
