QPY.pdb
 OpenBabel07022418333D

 54 55  0  0  1  0  0  0  0  0999 V2000
   -0.4630   -3.9910    2.6060 N   0  0  0  0  0  0  0  0  0  0  0  0
    0.8240   -3.6870    2.0840 C   0  0  0  0  0  0  0  0  0  0  0  0
    1.8420   -4.1420    2.6620 O   0  0  0  0  0  0  0  0  0  0  0  0
    0.9470   -2.8550    0.8840 C   0  0  0  0  0  0  0  0  0  0  0  0
    2.2510   -2.2060    0.6400 C   0  0  0  0  0  0  0  0  0  0  0  0
    2.7330   -1.2010    1.6170 C   0  0  2  0  0  0  0  0  0  0  0  0
    2.8550   -1.8350    2.9120 N   0  0  0  0  0  0  0  0  0  0  0  0
    1.9790    0.0590    1.6940 C   0  0  0  0  0  0  0  0  0  0  0  0
    1.2300    0.1920    2.7250 O   0  0  0  0  0  0  0  0  0  0  0  0
   -0.7410   -3.6290    3.5260 H   0  0  0  0  0  0  0  0  0  0  0  0
   -1.1030   -4.5730    2.0510 H   0  0  0  0  0  0  0  0  0  0  0  0
    0.1630   -2.0650    0.9010 H   0  0  0  0  0  0  0  0  0  0  0  0
    0.6780   -3.4720   -0.0300 H   0  0  0  0  0  0  0  0  0  0  0  0
    2.3040   -1.9130   -0.4310 H   0  0  0  0  0  0  0  0  0  0  0  0
    3.0240   -3.0470    0.6940 H   0  0  0  0  0  0  0  0  0  0  0  0
    3.7770   -0.9230    1.2980 H   0  0  0  0  0  0  0  0  0  0  0  0
    3.8070   -2.2550    2.9700 H   0  0  0  0  0  0  0  0  0  0  0  0
    2.8000   -1.0860    3.6390 H   0  0  0  0  0  0  0  0  0  0  0  0
    2.0180    1.1030    0.7510 N   0  0  0  0  0  0  0  0  0  0  0  0
    2.8240    1.1280   -0.4380 C   0  0  0  0  0  0  0  0  0  0  0  0
    1.9400    1.8640   -1.4290 C   0  0  0  0  0  0  0  0  0  0  0  0
    1.5920    3.0600   -0.5170 C   0  0  0  0  0  0  0  0  0  0  0  0
    1.2910    2.3460    0.7960 C   0  0  1  0  0  0  0  0  0  0  0  0
   -0.1560    2.2510    0.8750 C   0  0  0  0  0  0  0  0  0  0  0  0
   -0.7810    3.3460    1.0710 O   0  0  0  0  0  0  0  0  0  0  0  0
    3.6720    1.8440   -0.1990 H   0  0  0  0  0  0  0  0  0  0  0  0
    3.1970    0.1860   -0.8070 H   0  0  0  0  0  0  0  0  0  0  0  0
    2.4840    2.1960   -2.3170 H   0  0  0  0  0  0  0  0  0  0  0  0
    1.0230    1.2950   -1.6240 H   0  0  0  0  0  0  0  0  0  0  0  0
    0.7120    3.5480   -0.9570 H   0  0  0  0  0  0  0  0  0  0  0  0
    2.4440    3.7300   -0.4320 H   0  0  0  0  0  0  0  0  0  0  0  0
    1.6960    2.9250    1.6710 H   0  0  0  0  0  0  0  0  0  0  0  0
   -1.5720   -4.6500   -1.7810 O   0  0  0  0  0  0  0  0  0  0  0  0
   -1.9510   -3.3430   -1.4410 C   0  0  0  0  0  0  0  0  0  0  0  0
   -3.0620   -3.0980   -0.6750 C   0  0  0  0  0  0  0  0  0  0  0  0
   -3.4120   -1.7950   -0.3560 C   0  0  0  0  0  0  0  0  0  0  0  0
   -2.6770   -0.7090   -0.7830 C   0  0  0  0  0  0  0  0  0  0  0  0
   -3.0540    0.6850   -0.4390 C   0  0  0  0  0  0  0  0  0  0  0  0
   -2.4100    1.1450    0.8620 C   0  0  2  0  0  0  0  0  0  0  0  0
   -0.9600    1.0920    0.7590 N   0  0  0  0  0  0  0  0  0  0  0  0
   -2.9030    0.3140    1.9880 C   0  0  0  0  0  0  0  0  0  0  0  0
   -2.1100   -0.3420    2.7360 O   0  0  0  0  0  0  0  0  0  0  0  0
   -1.5480   -0.9710   -1.5620 C   0  0  0  0  0  0  0  0  0  0  0  0
   -1.2110   -2.2700   -1.8720 C   0  0  0  0  0  0  0  0  0  0  0  0
   -4.2510    0.2020    2.2910 O   0  0  0  0  0  0  0  0  0  0  0  0
   -1.8780   -5.3800   -1.1560 H   0  0  0  0  0  0  0  0  0  0  0  0
   -3.6440   -3.9450   -0.3370 H   0  0  0  0  0  0  0  0  0  0  0  0
   -4.3080   -1.6490    0.2590 H   0  0  0  0  0  0  0  0  0  0  0  0
   -2.7890    1.3450   -1.2710 H   0  0  0  0  0  0  0  0  0  0  0  0
   -4.1570    0.7010   -0.3480 H   0  0  0  0  0  0  0  0  0  0  0  0
   -2.7170    2.1760    1.0370 H   0  0  0  0  0  0  0  0  0  0  0  0
   -0.4510    0.1980    0.5890 H   0  0  0  0  0  0  0  0  0  0  0  0
   -0.9550   -0.1150   -1.9070 H   0  0  0  0  0  0  0  0  0  0  0  0
   -0.3260   -2.4150   -2.4790 H   0  0  0  0  0  0  0  0  0  0  0  0
  1 10  1  0  0  0  0
  2  1  1  0  0  0  0
  2  3  2  0  0  0  0
  4 12  1  0  0  0  0
  4  2  1  0  0  0  0
  5 15  1  0  0  0  0
  5  4  1  0  0  0  0
  5  6  1  0  0  0  0
  6 16  1  6  0  0  0
  6  8  1  0  0  0  0
  6  7  1  0  0  0  0
  7 17  1  0  0  0  0
  7 18  1  0  0  0  0
  8  9  2  0  0  0  0
 11  1  1  0  0  0  0
 13  4  1  0  0  0  0
 14  5  1  0  0  0  0
 19 23  1  0  0  0  0
 19  8  1  0  0  0  0
 20 26  1  0  0  0  0
 20 19  1  0  0  0  0
 21 22  1  0  0  0  0
 21 20  1  0  0  0  0
 22 31  1  0  0  0  0
 22 23  1  0  0  0  0
 23 24  1  0  0  0  0
 23 32  1  1  0  0  0
 24 25  2  0  0  0  0
 27 20  1  0  0  0  0
 28 21  1  0  0  0  0
 29 21  1  0  0  0  0
 30 22  1  0  0  0  0
 33 34  1  0  0  0  0
 33 46  1  0  0  0  0
 34 35  1  0  0  0  0
 35 36  2  0  0  0  0
 35 47  1  0  0  0  0
 36 48  1  0  0  0  0
 37 38  1  0  0  0  0
 37 36  1  0  0  0  0
 38 50  1  0  0  0  0
 38 39  1  0  0  0  0
 39 51  1  1  0  0  0
 39 41  1  0  0  0  0
 40 39  1  0  0  0  0
 40 24  1  0  0  0  0
 41 45  2  0  0  0  0
 41 42  1  0  0  0  0
 43 37  2  0  0  0  0
 44 43  1  0  0  0  0
 44 34  2  0  0  0  0
 49 38  1  0  0  0  0
 52 40  1  0  0  0  0
 53 43  1  0  0  0  0
 54 44  1  0  0  0  0
M  END
$$$$
