QQA.pdb
 OpenBabel07022418313D

 46 45  0  0  1  0  0  0  0  0999 V2000
    0.2380   -6.3440    0.4230 N   0  0  0  0  0  0  0  0  0  0  0  0
    0.4260   -4.9810    0.7910 C   0  0  0  0  0  0  0  0  0  0  0  0
   -0.5800   -4.2920    1.0640 O   0  0  0  0  0  0  0  0  0  0  0  0
    1.7670   -4.3640    0.8630 C   0  0  0  0  0  0  0  0  0  0  0  0
    1.7190   -2.8760    1.0530 C   0  0  0  0  0  0  0  0  0  0  0  0
    1.0560   -2.1830   -0.0570 C   0  0  2  0  0  0  0  0  0  0  0  0
    1.7710   -2.4500   -1.2920 N   0  0  0  0  0  0  0  0  0  0  0  0
    0.9410   -0.7110    0.1010 C   0  0  0  0  0  0  0  0  0  0  0  0
    1.4490   -0.0080   -0.8020 O   0  0  0  0  0  0  0  0  0  0  0  0
   -0.0900   -6.9900    1.1790 H   0  0  0  0  0  0  0  0  0  0  0  0
    0.4320   -6.6100   -0.5490 H   0  0  0  0  0  0  0  0  0  0  0  0
    2.2840   -4.6010   -0.1150 H   0  0  0  0  0  0  0  0  0  0  0  0
    2.3870   -4.8720    1.6350 H   0  0  0  0  0  0  0  0  0  0  0  0
    1.3040   -2.6890    2.0590 H   0  0  0  0  0  0  0  0  0  0  0  0
    2.7970   -2.5430    1.1140 H   0  0  0  0  0  0  0  0  0  0  0  0
    0.0240   -2.5430   -0.2340 H   0  0  0  0  0  0  0  0  0  0  0  0
    2.7530   -2.0620   -1.2010 H   0  0  0  0  0  0  0  0  0  0  0  0
    1.3070   -1.8300   -2.0220 H   0  0  0  0  0  0  0  0  0  0  0  0
    4.7200    2.9190    0.1270 N   0  0  0  0  0  0  0  0  0  0  0  0
    3.3080    2.9080    0.0550 C   0  0  0  0  0  0  0  0  0  0  0  0
    2.7550    3.6810   -0.7690 O   0  0  0  0  0  0  0  0  0  0  0  0
    2.5270    1.9940    0.9440 C   0  0  0  0  0  0  0  0  0  0  0  0
    1.0770    2.2090    0.6380 C   0  0  0  0  0  0  0  0  0  0  0  0
    0.1630    1.3030    1.4420 C   0  0  2  0  0  0  0  0  0  0  0  0
    0.3070   -0.0970    1.1860 N   0  0  0  0  0  0  0  0  0  0  0  0
   -1.2140    1.7280    1.5440 C   0  0  0  0  0  0  0  0  0  0  0  0
   -1.6030    2.9110    1.7650 O   0  0  0  0  0  0  0  0  0  0  0  0
    5.2930    2.4260   -0.6100 H   0  0  0  0  0  0  0  0  0  0  0  0
    5.1970    3.4160    0.9090 H   0  0  0  0  0  0  0  0  0  0  0  0
    2.7400    2.4240    2.0000 H   0  0  0  0  0  0  0  0  0  0  0  0
    2.9020    0.9890    1.0140 H   0  0  0  0  0  0  0  0  0  0  0  0
    0.8030    2.1600   -0.4190 H   0  0  0  0  0  0  0  0  0  0  0  0
    0.8420    3.2780    0.9430 H   0  0  0  0  0  0  0  0  0  0  0  0
    0.6330    1.4150    2.5100 H   0  0  0  0  0  0  0  0  0  0  0  0
   -0.1120   -0.7670    1.8950 H   0  0  0  0  0  0  0  0  0  0  0  0
   -4.4840    0.7910    0.2720 C   0  0  0  0  0  0  0  0  0  0  0  0
   -3.6710    1.1640    1.4870 C   0  0  2  0  0  0  0  0  0  0  0  0
   -2.2910    0.7780    1.3920 N   0  0  0  0  0  0  0  0  0  0  0  0
   -4.2630    0.4290    2.6390 C   0  0  0  0  0  0  0  0  0  0  0  0
   -5.4740    0.5940    2.9360 O   0  0  0  0  0  0  0  0  0  0  0  0
   -3.5360   -0.4540    3.4260 O   0  0  0  0  0  0  0  0  0  0  0  0
   -5.5380    0.6990    0.6110 H   0  0  0  0  0  0  0  0  0  0  0  0
   -4.1700   -0.2040   -0.0840 H   0  0  0  0  0  0  0  0  0  0  0  0
   -4.4730    1.5610   -0.5130 H   0  0  0  0  0  0  0  0  0  0  0  0
   -3.8170    2.2340    1.6830 H   0  0  0  0  0  0  0  0  0  0  0  0
   -2.0660   -0.2240    1.2060 H   0  0  0  0  0  0  0  0  0  0  0  0
  1  2  1  0  0  0  0
  1 10  1  0  0  0  0
  2  4  1  0  0  0  0
  2  3  2  0  0  0  0
  4  5  1  0  0  0  0
  4 13  1  0  0  0  0
  5 15  1  0  0  0  0
  5 14  1  0  0  0  0
  6 16  1  6  0  0  0
  6  8  1  0  0  0  0
  6  5  1  0  0  0  0
  7 17  1  0  0  0  0
  7  6  1  0  0  0  0
  8 25  1  0  0  0  0
  9  8  2  0  0  0  0
 11  1  1  0  0  0  0
 12  4  1  0  0  0  0
 18  7  1  0  0  0  0
 19 29  1  0  0  0  0
 20 19  1  0  0  0  0
 20 22  1  0  0  0  0
 21 20  2  0  0  0  0
 22 31  1  0  0  0  0
 22 30  1  0  0  0  0
 23 33  1  0  0  0  0
 23 22  1  0  0  0  0
 23 24  1  0  0  0  0
 24 26  1  0  0  0  0
 24 34  1  1  0  0  0
 25 24  1  0  0  0  0
 25 35  1  0  0  0  0
 26 27  2  0  0  0  0
 28 19  1  0  0  0  0
 32 23  1  0  0  0  0
 36 42  1  0  0  0  0
 36 37  1  0  0  0  0
 37 45  1  1  0  0  0
 37 39  1  0  0  0  0
 38 37  1  0  0  0  0
 38 26  1  0  0  0  0
 39 40  2  0  0  0  0
 39 41  1  0  0  0  0
 43 36  1  0  0  0  0
 44 36  1  0  0  0  0
 46 38  1  0  0  0  0
M  END
$$$$
