QQD.pdb
 OpenBabel07022418313D

 49 48  0  0  1  0  0  0  0  0999 V2000
    2.1940   -6.3070   -0.4260 N   0  0  0  0  0  0  0  0  0  0  0  0
    1.8320   -5.0000   -0.0270 C   0  0  0  0  0  0  0  0  0  0  0  0
    0.5990   -4.7360   -0.0040 O   0  0  0  0  0  0  0  0  0  0  0  0
    2.8110   -3.9570    0.3540 C   0  0  0  0  0  0  0  0  0  0  0  0
    2.0800   -2.6970    0.7370 C   0  0  0  0  0  0  0  0  0  0  0  0
    3.0630   -1.5940    1.1400 C   0  0  2  0  0  0  0  0  0  0  0  0
    3.8450   -2.0540    2.2760 N   0  0  0  0  0  0  0  0  0  0  0  0
    2.2050   -0.4310    1.5200 C   0  0  0  0  0  0  0  0  0  0  0  0
    2.2270   -0.0270    2.7150 O   0  0  0  0  0  0  0  0  0  0  0  0
    2.9710   -6.4620   -1.1000 H   0  0  0  0  0  0  0  0  0  0  0  0
    1.6950   -7.1390   -0.0590 H   0  0  0  0  0  0  0  0  0  0  0  0
    3.3710   -4.3170    1.2360 H   0  0  0  0  0  0  0  0  0  0  0  0
    3.5020   -3.7760   -0.4950 H   0  0  0  0  0  0  0  0  0  0  0  0
    1.3350   -2.8810    1.5140 H   0  0  0  0  0  0  0  0  0  0  0  0
    1.5430   -2.3520   -0.1730 H   0  0  0  0  0  0  0  0  0  0  0  0
    3.6880   -1.3940    0.2560 H   0  0  0  0  0  0  0  0  0  0  0  0
    4.7550   -2.3810    1.8810 H   0  0  0  0  0  0  0  0  0  0  0  0
    3.3610   -2.8450    2.7440 H   0  0  0  0  0  0  0  0  0  0  0  0
   -0.4420    5.4780    2.3960 N   0  0  0  0  0  0  0  0  0  0  0  0
    0.2910    4.3560    1.9880 C   0  0  0  0  0  0  0  0  0  0  0  0
    0.9990    3.7460    2.8180 O   0  0  0  0  0  0  0  0  0  0  0  0
    0.2490    3.8720    0.5990 C   0  0  0  0  0  0  0  0  0  0  0  0
    0.9740    2.6180    0.3160 C   0  0  0  0  0  0  0  0  0  0  0  0
    0.5340    1.3950    1.0450 C   0  0  2  0  0  0  0  0  0  0  0  0
    1.3660    0.2540    0.6310 N   0  0  0  0  0  0  0  0  0  0  0  0
   -0.8840    1.0470    0.8500 C   0  0  0  0  0  0  0  0  0  0  0  0
   -1.8390    1.8050    1.1260 O   0  0  0  0  0  0  0  0  0  0  0  0
   -1.5060    5.4790    2.4580 H   0  0  0  0  0  0  0  0  0  0  0  0
   -0.0150    6.4070    2.6740 H   0  0  0  0  0  0  0  0  0  0  0  0
   -0.7880    3.9020    0.1730 H   0  0  0  0  0  0  0  0  0  0  0  0
    0.7780    4.6740   -0.0060 H   0  0  0  0  0  0  0  0  0  0  0  0
    0.8560    2.4170   -0.7890 H   0  0  0  0  0  0  0  0  0  0  0  0
    2.0620    2.8110    0.4470 H   0  0  0  0  0  0  0  0  0  0  0  0
    0.6760    1.5740    2.1290 H   0  0  0  0  0  0  0  0  0  0  0  0
    1.3340   -0.0630   -0.3630 H   0  0  0  0  0  0  0  0  0  0  0  0
   -1.2520   -0.2230    0.3150 N   0  0  0  0  0  0  0  0  0  0  0  0
   -2.6680   -0.5850    0.1130 C   0  0  1  0  0  0  0  0  0  0  0  0
   -2.8900   -1.0060   -1.3190 C   0  0  0  0  0  0  0  0  0  0  0  0
   -4.3090   -1.3390   -1.5320 C   0  0  0  0  0  0  0  0  0  0  0  0
   -4.6470   -1.8980   -2.6330 O   0  0  0  0  0  0  0  0  0  0  0  0
   -2.8750   -1.7890    0.9610 C   0  0  0  0  0  0  0  0  0  0  0  0
   -3.9660   -2.4060    1.0780 O   0  0  0  0  0  0  0  0  0  0  0  0
   -5.3420   -1.1050   -0.6440 O   0  0  0  0  0  0  0  0  0  0  0  0
   -1.8120   -2.3190    1.7060 O   0  0  0  0  0  0  0  0  0  0  0  0
   -0.5590   -0.9500    0.0410 H   0  0  0  0  0  0  0  0  0  0  0  0
   -3.3230    0.2170    0.4450 H   0  0  0  0  0  0  0  0  0  0  0  0
   -2.6260   -0.2070   -2.0390 H   0  0  0  0  0  0  0  0  0  0  0  0
   -2.3060   -1.9360   -1.4850 H   0  0  0  0  0  0  0  0  0  0  0  0
   -6.2940   -1.4410   -0.8000 H   0  0  0  0  0  0  0  0  0  0  0  0
  1 11  1  0  0  0  0
  1  2  1  0  0  0  0
  2  3  2  0  0  0  0
  2  4  1  0  0  0  0
  4  5  1  0  0  0  0
  4 12  1  0  0  0  0
  5  6  1  0  0  0  0
  5 14  1  0  0  0  0
  6 16  1  6  0  0  0
  6  8  1  0  0  0  0
  6  7  1  0  0  0  0
  7 18  1  0  0  0  0
  8  9  2  0  0  0  0
 10  1  1  0  0  0  0
 13  4  1  0  0  0  0
 15  5  1  0  0  0  0
 17  7  1  0  0  0  0
 19 28  1  0  0  0  0
 19 29  1  0  0  0  0
 20 19  1  0  0  0  0
 20 21  2  0  0  0  0
 22 20  1  0  0  0  0
 23 33  1  0  0  0  0
 23 22  1  0  0  0  0
 23 24  1  0  0  0  0
 24 34  1  1  0  0  0
 25 24  1  0  0  0  0
 25  8  1  0  0  0  0
 26 24  1  0  0  0  0
 26 27  2  0  0  0  0
 30 22  1  0  0  0  0
 31 22  1  0  0  0  0
 32 23  1  0  0  0  0
 35 25  1  0  0  0  0
 36 26  1  0  0  0  0
 37 36  1  0  0  0  0
 37 46  1  1  0  0  0
 37 41  1  0  0  0  0
 38 37  1  0  0  0  0
 39 38  1  0  0  0  0
 39 43  1  0  0  0  0
 40 39  2  0  0  0  0
 41 42  2  0  0  0  0
 41 44  1  0  0  0  0
 45 36  1  0  0  0  0
 47 38  1  0  0  0  0
 48 38  1  0  0  0  0
 49 43  1  0  0  0  0
M  END
$$$$
