QQE.pdb
 OpenBabel07022418323D

 52 51  0  0  1  0  0  0  0  0999 V2000
   -5.9540   -0.6250    3.2890 N   0  0  0  0  0  0  0  0  0  0  0  0
   -4.6650   -0.2680    3.8220 C   0  0  0  0  0  0  0  0  0  0  0  0
   -4.1200   -1.0160    4.6700 O   0  0  0  0  0  0  0  0  0  0  0  0
   -4.0010    0.9630    3.3720 C   0  0  0  0  0  0  0  0  0  0  0  0
   -2.6240    1.1570    3.9170 C   0  0  0  0  0  0  0  0  0  0  0  0
   -1.6290    0.0950    3.5720 C   0  0  2  0  0  0  0  0  0  0  0  0
   -0.3510    0.4690    4.1980 N   0  0  0  0  0  0  0  0  0  0  0  0
   -1.4020   -0.0760    2.1120 C   0  0  0  0  0  0  0  0  0  0  0  0
   -2.3890   -0.4760    1.4210 O   0  0  0  0  0  0  0  0  0  0  0  0
   -6.5600    0.1010    2.8820 H   0  0  0  0  0  0  0  0  0  0  0  0
   -6.2770   -1.6090    3.3100 H   0  0  0  0  0  0  0  0  0  0  0  0
   -4.6550    1.8630    3.6000 H   0  0  0  0  0  0  0  0  0  0  0  0
   -3.9490    0.9550    2.2720 H   0  0  0  0  0  0  0  0  0  0  0  0
   -2.7080    1.2970    5.0350 H   0  0  0  0  0  0  0  0  0  0  0  0
   -2.2660    2.1760    3.5750 H   0  0  0  0  0  0  0  0  0  0  0  0
   -1.9210   -0.8490    4.0580 H   0  0  0  0  0  0  0  0  0  0  0  0
   -0.2650    1.5090    3.9930 H   0  0  0  0  0  0  0  0  0  0  0  0
   -0.3860    0.3600    5.2330 H   0  0  0  0  0  0  0  0  0  0  0  0
    3.8760    2.6100    0.2750 N   0  0  0  0  0  0  0  0  0  0  0  0
    2.8050    1.7330   -0.1540 C   0  0  0  0  0  0  0  0  0  0  0  0
    3.1900    0.6080   -0.5120 O   0  0  0  0  0  0  0  0  0  0  0  0
    1.4390    2.1890   -0.1430 C   0  0  0  0  0  0  0  0  0  0  0  0
    0.3390    1.3210   -0.5700 C   0  0  0  0  0  0  0  0  0  0  0  0
    0.0980    0.0430    0.1460 C   0  0  2  0  0  0  0  0  0  0  0  0
   -0.1390    0.2000    1.5450 N   0  0  0  0  0  0  0  0  0  0  0  0
    0.9890   -1.0730   -0.2170 C   0  0  0  0  0  0  0  0  0  0  0  0
    1.5590   -1.7150    0.6940 O   0  0  0  0  0  0  0  0  0  0  0  0
    4.0320    3.5290   -0.1780 H   0  0  0  0  0  0  0  0  0  0  0  0
    4.4500    2.2300    1.0610 H   0  0  0  0  0  0  0  0  0  0  0  0
    1.2580    2.6300    0.8970 H   0  0  0  0  0  0  0  0  0  0  0  0
    1.3500    3.1380   -0.7780 H   0  0  0  0  0  0  0  0  0  0  0  0
   -0.6280    1.9070   -0.4980 H   0  0  0  0  0  0  0  0  0  0  0  0
    0.3770    1.0660   -1.6710 H   0  0  0  0  0  0  0  0  0  0  0  0
   -0.9240   -0.3060   -0.2730 H   0  0  0  0  0  0  0  0  0  0  0  0
    0.6540    0.5280    2.1410 H   0  0  0  0  0  0  0  0  0  0  0  0
    1.2110   -1.4360   -1.5650 N   0  0  0  0  0  0  0  0  0  0  0  0
    2.0810   -2.5360   -1.9620 C   0  0  1  0  0  0  0  0  0  0  0  0
    1.2950   -3.5480   -2.7220 C   0  0  0  0  0  0  0  0  0  0  0  0
    0.1500   -4.1600   -1.9730 C   0  0  0  0  0  0  0  0  0  0  0  0
    0.5230   -4.8940   -0.7580 C   0  0  0  0  0  0  0  0  0  0  0  0
    1.7120   -5.0280   -0.3940 O   0  0  0  0  0  0  0  0  0  0  0  0
    3.1870   -2.0660   -2.8370 C   0  0  0  0  0  0  0  0  0  0  0  0
    3.3690   -0.8960   -3.2050 O   0  0  0  0  0  0  0  0  0  0  0  0
   -0.4400   -5.4800    0.0510 O   0  0  0  0  0  0  0  0  0  0  0  0
    4.0870   -3.0350   -3.2710 O   0  0  0  0  0  0  0  0  0  0  0  0
    0.7240   -0.8840   -2.3020 H   0  0  0  0  0  0  0  0  0  0  0  0
    2.5530   -3.0180   -1.0900 H   0  0  0  0  0  0  0  0  0  0  0  0
    0.8410   -3.0700   -3.6350 H   0  0  0  0  0  0  0  0  0  0  0  0
    1.9660   -4.3910   -3.0240 H   0  0  0  0  0  0  0  0  0  0  0  0
   -0.6340   -3.4160   -1.7100 H   0  0  0  0  0  0  0  0  0  0  0  0
   -0.3690   -4.8420   -2.7120 H   0  0  0  0  0  0  0  0  0  0  0  0
   -0.2460   -6.1340    0.7740 H   0  0  0  0  0  0  0  0  0  0  0  0
  1 11  1  0  0  0  0
  1  2  1  0  0  0  0
  2  3  2  0  0  0  0
  4 12  1  0  0  0  0
  4  2  1  0  0  0  0
  4  5  1  0  0  0  0
  5 14  1  0  0  0  0
  6  5  1  0  0  0  0
  6 16  1  1  0  0  0
  6  7  1  0  0  0  0
  7 18  1  0  0  0  0
  8  6  1  0  0  0  0
  9  8  2  0  0  0  0
 10  1  1  0  0  0  0
 13  4  1  0  0  0  0
 15  5  1  0  0  0  0
 17  7  1  0  0  0  0
 19 29  1  0  0  0  0
 20 22  1  0  0  0  0
 20 19  1  0  0  0  0
 21 20  2  0  0  0  0
 22 30  1  0  0  0  0
 23 32  1  0  0  0  0
 23 22  1  0  0  0  0
 23 24  1  0  0  0  0
 24 34  1  6  0  0  0
 24 25  1  0  0  0  0
 25  8  1  0  0  0  0
 25 35  1  0  0  0  0
 26 24  1  0  0  0  0
 26 27  2  0  0  0  0
 28 19  1  0  0  0  0
 31 22  1  0  0  0  0
 33 23  1  0  0  0  0
 36 26  1  0  0  0  0
 37 36  1  0  0  0  0
 37 47  1  1  0  0  0
 38 39  1  0  0  0  0
 38 37  1  0  0  0  0
 39 50  1  0  0  0  0
 39 40  1  0  0  0  0
 40 41  2  0  0  0  0
 40 44  1  0  0  0  0
 42 37  1  0  0  0  0
 43 42  1  0  0  0  0
 44 52  1  0  0  0  0
 45 42  2  0  0  0  0
 46 36  1  0  0  0  0
 48 38  1  0  0  0  0
 49 38  1  0  0  0  0
 51 39  1  0  0  0  0
M  END
$$$$
