QQF.pdb
 OpenBabel07022418323D

 56 56  0  0  1  0  0  0  0  0999 V2000
   -5.4660    0.6930    2.7930 N   0  0  0  0  0  0  0  0  0  0  0  0
   -4.2660    0.2290    3.4440 C   0  0  0  0  0  0  0  0  0  0  0  0
   -4.2270   -0.9760    3.7720 O   0  0  0  0  0  0  0  0  0  0  0  0
   -3.1860    1.2080    3.6700 C   0  0  0  0  0  0  0  0  0  0  0  0
   -1.9640    0.5160    4.1830 C   0  0  0  0  0  0  0  0  0  0  0  0
   -1.3840   -0.5100    3.2540 C   0  0  2  0  0  0  0  0  0  0  0  0
   -0.2010   -1.1040    3.8750 N   0  0  0  0  0  0  0  0  0  0  0  0
   -1.0180    0.0300    1.9190 C   0  0  0  0  0  0  0  0  0  0  0  0
   -1.8580    0.5460    1.1460 O   0  0  0  0  0  0  0  0  0  0  0  0
   -5.7900    1.6560    3.0230 H   0  0  0  0  0  0  0  0  0  0  0  0
   -5.9890    0.0860    2.1180 H   0  0  0  0  0  0  0  0  0  0  0  0
   -2.9360    1.7990    2.7430 H   0  0  0  0  0  0  0  0  0  0  0  0
   -3.4920    1.9300    4.4710 H   0  0  0  0  0  0  0  0  0  0  0  0
   -1.1850    1.2840    4.4650 H   0  0  0  0  0  0  0  0  0  0  0  0
   -2.2110   -0.0010    5.1580 H   0  0  0  0  0  0  0  0  0  0  0  0
   -2.0950   -1.3150    3.0990 H   0  0  0  0  0  0  0  0  0  0  0  0
   -0.4030   -1.2080    4.8980 H   0  0  0  0  0  0  0  0  0  0  0  0
    0.1040   -1.9680    3.4150 H   0  0  0  0  0  0  0  0  0  0  0  0
    3.7230    4.1610   -1.4110 N   0  0  0  0  0  0  0  0  0  0  0  0
    3.1120    3.3750   -0.4060 C   0  0  0  0  0  0  0  0  0  0  0  0
    3.3500    3.6180    0.7920 O   0  0  0  0  0  0  0  0  0  0  0  0
    2.2020    2.2810   -0.8150 C   0  0  0  0  0  0  0  0  0  0  0  0
    1.6910    1.6080    0.4330 C   0  0  0  0  0  0  0  0  0  0  0  0
    0.7470    0.4800    0.1870 C   0  0  2  0  0  0  0  0  0  0  0  0
    0.3560   -0.0420    1.4950 N   0  0  0  0  0  0  0  0  0  0  0  0
    1.2760   -0.6200   -0.6320 C   0  0  0  0  0  0  0  0  0  0  0  0
    1.6720   -0.4500   -1.8010 O   0  0  0  0  0  0  0  0  0  0  0  0
    3.1110    4.8340   -1.9320 H   0  0  0  0  0  0  0  0  0  0  0  0
    4.7370    4.0910   -1.6420 H   0  0  0  0  0  0  0  0  0  0  0  0
    1.3410    2.7310   -1.3790 H   0  0  0  0  0  0  0  0  0  0  0  0
    2.6880    1.5840   -1.5230 H   0  0  0  0  0  0  0  0  0  0  0  0
    2.5170    1.2970    1.1060 H   0  0  0  0  0  0  0  0  0  0  0  0
    1.1180    2.3720    1.0290 H   0  0  0  0  0  0  0  0  0  0  0  0
   -0.1860    0.9170   -0.2630 H   0  0  0  0  0  0  0  0  0  0  0  0
    1.0700   -0.4570    2.1090 H   0  0  0  0  0  0  0  0  0  0  0  0
    1.3630   -1.9490   -0.1260 N   0  0  0  0  0  0  0  0  0  0  0  0
    1.8440   -3.0790   -0.8270 C   0  0  1  0  0  0  0  0  0  0  0  0
    1.3210   -3.2600   -2.2400 C   0  0  0  0  0  0  0  0  0  0  0  0
   -0.1350   -3.4400   -2.3070 C   0  0  0  0  0  0  0  0  0  0  0  0
   -0.6570   -4.7250   -2.1820 C   0  0  0  0  0  0  0  0  0  0  0  0
   -2.0130   -4.9710   -2.2450 C   0  0  0  0  0  0  0  0  0  0  0  0
   -2.9040   -3.9230   -2.4380 C   0  0  0  0  0  0  0  0  0  0  0  0
   -2.4070   -2.6640   -2.5620 C   0  0  0  0  0  0  0  0  0  0  0  0
   -1.0310   -2.4370   -2.4960 C   0  0  0  0  0  0  0  0  0  0  0  0
    3.2870   -3.3050   -0.8150 C   0  0  0  0  0  0  0  0  0  0  0  0
    4.0980   -2.5470   -0.2150 O   0  0  0  0  0  0  0  0  0  0  0  0
    3.8330   -4.3910   -1.4790 O   0  0  0  0  0  0  0  0  0  0  0  0
    1.0250   -2.0550    0.8790 H   0  0  0  0  0  0  0  0  0  0  0  0
    1.3650   -3.9840   -0.3010 H   0  0  0  0  0  0  0  0  0  0  0  0
    1.7930   -4.2160   -2.6030 H   0  0  0  0  0  0  0  0  0  0  0  0
    1.7000   -2.4860   -2.9380 H   0  0  0  0  0  0  0  0  0  0  0  0
    0.0460   -5.5310   -2.0320 H   0  0  0  0  0  0  0  0  0  0  0  0
   -2.4130   -5.9790   -2.1460 H   0  0  0  0  0  0  0  0  0  0  0  0
   -3.9670   -4.1640   -2.4810 H   0  0  0  0  0  0  0  0  0  0  0  0
   -3.0620   -1.8310   -2.7120 H   0  0  0  0  0  0  0  0  0  0  0  0
   -0.6770   -1.4120   -2.6070 H   0  0  0  0  0  0  0  0  0  0  0  0
  1 10  1  0  0  0  0
  1  2  1  0  0  0  0
  2  4  1  0  0  0  0
  2  3  2  0  0  0  0
  4  5  1  0  0  0  0
  4 13  1  0  0  0  0
  5 14  1  0  0  0  0
  5 15  1  0  0  0  0
  6 16  1  6  0  0  0
  6  7  1  0  0  0  0
  6  5  1  0  0  0  0
  7 17  1  0  0  0  0
  8  6  1  0  0  0  0
  9  8  2  0  0  0  0
 11  1  1  0  0  0  0
 12  4  1  0  0  0  0
 18  7  1  0  0  0  0
 19 20  1  0  0  0  0
 20 21  2  0  0  0  0
 22 20  1  0  0  0  0
 22 23  1  0  0  0  0
 23 33  1  0  0  0  0
 23 32  1  0  0  0  0
 24 34  1  6  0  0  0
 24 23  1  0  0  0  0
 24 25  1  0  0  0  0
 25  8  1  0  0  0  0
 25 35  1  0  0  0  0
 26 36  1  0  0  0  0
 26 24  1  0  0  0  0
 27 26  2  0  0  0  0
 28 19  1  0  0  0  0
 29 19  1  0  0  0  0
 30 22  1  0  0  0  0
 31 22  1  0  0  0  0
 36 48  1  0  0  0  0
 37 45  1  0  0  0  0
 37 49  1  1  0  0  0
 37 36  1  0  0  0  0
 38 37  1  0  0  0  0
 39 38  1  0  0  0  0
 39 40  1  0  0  0  0
 40 52  1  0  0  0  0
 41 40  2  0  0  0  0
 41 53  1  0  0  0  0
 42 41  1  0  0  0  0
 43 44  1  0  0  0  0
 43 42  2  0  0  0  0
 44 39  2  0  0  0  0
 45 46  1  0  0  0  0
 47 45  2  0  0  0  0
 50 38  1  0  0  0  0
 51 38  1  0  0  0  0
 54 42  1  0  0  0  0
 55 43  1  0  0  0  0
 56 44  1  0  0  0  0
M  END
$$$$
