QQH.pdb
 OpenBabel07022418323D

 53 53  0  0  1  0  0  0  0  0999 V2000
    5.3700   -1.6520    2.3270 N   0  0  0  0  0  0  0  0  0  0  0  0
    4.5460   -1.1170    3.3410 C   0  0  0  0  0  0  0  0  0  0  0  0
    4.3370   -1.8180    4.3580 O   0  0  0  0  0  0  0  0  0  0  0  0
    3.9570    0.2080    3.2150 C   0  0  0  0  0  0  0  0  0  0  0  0
    2.8220    0.5540    4.0950 C   0  0  0  0  0  0  0  0  0  0  0  0
    1.5790   -0.2830    3.9470 C   0  0  2  0  0  0  0  0  0  0  0  0
    1.7400   -1.6750    4.2000 N   0  0  0  0  0  0  0  0  0  0  0  0
    1.0010   -0.0190    2.5870 C   0  0  0  0  0  0  0  0  0  0  0  0
    0.7620    1.1890    2.3260 O   0  0  0  0  0  0  0  0  0  0  0  0
    5.0700   -2.5900    1.9490 H   0  0  0  0  0  0  0  0  0  0  0  0
    6.2070   -1.2010    1.9530 H   0  0  0  0  0  0  0  0  0  0  0  0
    4.7350    1.0170    3.3640 H   0  0  0  0  0  0  0  0  0  0  0  0
    3.6690    0.3350    2.1310 H   0  0  0  0  0  0  0  0  0  0  0  0
    2.5140    1.6040    3.8640 H   0  0  0  0  0  0  0  0  0  0  0  0
    3.1190    0.5910    5.1720 H   0  0  0  0  0  0  0  0  0  0  0  0
    0.8350    0.1150    4.6700 H   0  0  0  0  0  0  0  0  0  0  0  0
    1.7360   -1.8080    5.2450 H   0  0  0  0  0  0  0  0  0  0  0  0
    0.8730   -2.1620    3.8750 H   0  0  0  0  0  0  0  0  0  0  0  0
    1.8650   -0.2420   -4.4110 N   0  0  0  0  0  0  0  0  0  0  0  0
    2.0570   -0.4810   -3.0270 C   0  0  0  0  0  0  0  0  0  0  0  0
    3.1610   -0.7860   -2.5620 O   0  0  0  0  0  0  0  0  0  0  0  0
    0.8640   -0.3600   -2.0900 C   0  0  0  0  0  0  0  0  0  0  0  0
    1.2550   -0.7250   -0.7070 C   0  0  0  0  0  0  0  0  0  0  0  0
    0.1620   -0.5900    0.3310 C   0  0  2  0  0  0  0  0  0  0  0  0
    0.7290   -1.0040    1.6370 N   0  0  0  0  0  0  0  0  0  0  0  0
   -1.0520   -1.3790    0.0510 C   0  0  0  0  0  0  0  0  0  0  0  0
   -1.3450   -2.3990    0.7770 O   0  0  0  0  0  0  0  0  0  0  0  0
    2.5790    0.2470   -4.9920 H   0  0  0  0  0  0  0  0  0  0  0  0
    0.9930   -0.5580   -4.8610 H   0  0  0  0  0  0  0  0  0  0  0  0
    0.1130   -1.0570   -2.5360 H   0  0  0  0  0  0  0  0  0  0  0  0
    0.4850    0.6610   -2.2240 H   0  0  0  0  0  0  0  0  0  0  0  0
    1.6500   -1.7840   -0.6600 H   0  0  0  0  0  0  0  0  0  0  0  0
    2.1410   -0.0950   -0.4290 H   0  0  0  0  0  0  0  0  0  0  0  0
   -0.0520    0.4860    0.4080 H   0  0  0  0  0  0  0  0  0  0  0  0
    0.9250   -2.0050    1.8580 H   0  0  0  0  0  0  0  0  0  0  0  0
   -1.9730   -1.1180   -0.9750 N   0  0  0  0  0  0  0  0  0  0  0  0
   -3.1560   -1.9140   -1.2230 C   0  0  1  0  0  0  0  0  0  0  0  0
   -4.3650   -1.0820   -1.3680 C   0  0  0  0  0  0  0  0  0  0  0  0
   -4.7640   -0.2560   -0.2280 C   0  0  0  0  0  0  0  0  0  0  0  0
   -4.2650   -0.0800    1.0300 C   0  0  0  0  0  0  0  0  0  0  0  0
   -5.0380    0.7920    1.6820 N   0  0  0  0  0  0  0  0  0  0  0  0
   -6.0140    1.1620    0.8430 C   0  0  0  0  0  0  0  0  0  0  0  0
   -5.8790    0.5410   -0.3350 N   0  0  0  0  0  0  0  0  0  0  0  0
   -2.9720   -2.8220   -2.4110 C   0  0  0  0  0  0  0  0  0  0  0  0
   -3.9070   -3.5770   -2.7770 O   0  0  0  0  0  0  0  0  0  0  0  0
   -1.8060   -2.8850   -3.1500 O   0  0  0  0  0  0  0  0  0  0  0  0
   -1.8330   -0.3010   -1.5960 H   0  0  0  0  0  0  0  0  0  0  0  0
   -3.2140   -2.6260   -0.3580 H   0  0  0  0  0  0  0  0  0  0  0  0
   -4.2360   -0.3670   -2.2350 H   0  0  0  0  0  0  0  0  0  0  0  0
   -5.2150   -1.7380   -1.7240 H   0  0  0  0  0  0  0  0  0  0  0  0
   -3.3930   -0.5770    1.4140 H   0  0  0  0  0  0  0  0  0  0  0  0
   -4.8610    1.0950    2.6770 H   0  0  0  0  0  0  0  0  0  0  0  0
   -6.7940    1.8760    1.1310 H   0  0  0  0  0  0  0  0  0  0  0  0
  1  2  1  0  0  0  0
  2  3  2  0  0  0  0
  4  2  1  0  0  0  0
  4 12  1  0  0  0  0
  4  5  1  0  0  0  0
  5 15  1  0  0  0  0
  6  5  1  0  0  0  0
  6  7  1  0  0  0  0
  6 16  1  1  0  0  0
  7 17  1  0  0  0  0
  8  6  1  0  0  0  0
  9  8  2  0  0  0  0
 10  1  1  0  0  0  0
 11  1  1  0  0  0  0
 13  4  1  0  0  0  0
 14  5  1  0  0  0  0
 18  7  1  0  0  0  0
 19 20  1  0  0  0  0
 20 21  2  0  0  0  0
 20 22  1  0  0  0  0
 22 23  1  0  0  0  0
 23 32  1  0  0  0  0
 23 33  1  0  0  0  0
 23 24  1  0  0  0  0
 24 34  1  1  0  0  0
 24 25  1  0  0  0  0
 25 35  1  0  0  0  0
 25  8  1  0  0  0  0
 26 24  1  0  0  0  0
 26 27  2  0  0  0  0
 28 19  1  0  0  0  0
 29 19  1  0  0  0  0
 30 22  1  0  0  0  0
 31 22  1  0  0  0  0
 36 26  1  0  0  0  0
 37 36  1  0  0  0  0
 37 48  1  1  0  0  0
 38 37  1  0  0  0  0
 38 39  1  0  0  0  0
 39 40  2  0  0  0  0
 40 51  1  0  0  0  0
 40 41  1  0  0  0  0
 41 52  1  0  0  0  0
 42 53  1  0  0  0  0
 42 41  1  0  0  0  0
 43 39  1  0  0  0  0
 43 42  2  0  0  0  0
 44 37  1  0  0  0  0
 45 44  1  0  0  0  0
 46 44  2  0  0  0  0
 47 36  1  0  0  0  0
 49 38  1  0  0  0  0
 50 38  1  0  0  0  0
M  END
$$$$
