QQI.pdb
 OpenBabel07022418323D

 55 54  0  0  1  0  0  0  0  0999 V2000
    5.7940   -1.9730    3.2190 N   0  0  0  0  0  0  0  0  0  0  0  0
    5.5330   -2.4570    1.9020 C   0  0  0  0  0  0  0  0  0  0  0  0
    6.1820   -1.9680    0.9630 O   0  0  0  0  0  0  0  0  0  0  0  0
    4.5320   -3.4930    1.7330 C   0  0  0  0  0  0  0  0  0  0  0  0
    4.1260   -3.9010    0.3750 C   0  0  0  0  0  0  0  0  0  0  0  0
    3.4950   -2.8840   -0.5170 C   0  0  2  0  0  0  0  0  0  0  0  0
    4.2550   -1.7370   -0.8170 N   0  0  0  0  0  0  0  0  0  0  0  0
    2.0910   -2.5970   -0.0650 C   0  0  0  0  0  0  0  0  0  0  0  0
    1.4150   -3.5910    0.2740 O   0  0  0  0  0  0  0  0  0  0  0  0
    6.7620   -1.7310    3.4530 H   0  0  0  0  0  0  0  0  0  0  0  0
    5.0090   -1.8780    3.8920 H   0  0  0  0  0  0  0  0  0  0  0  0
    4.8450   -4.4640    2.2740 H   0  0  0  0  0  0  0  0  0  0  0  0
    3.6340   -3.2070    2.3380 H   0  0  0  0  0  0  0  0  0  0  0  0
    4.9960   -4.3420   -0.1910 H   0  0  0  0  0  0  0  0  0  0  0  0
    3.4200   -4.7450    0.4460 H   0  0  0  0  0  0  0  0  0  0  0  0
    3.3330   -3.4490   -1.4900 H   0  0  0  0  0  0  0  0  0  0  0  0
    4.0040   -0.9280   -0.2540 H   0  0  0  0  0  0  0  0  0  0  0  0
    4.5550   -1.5860   -1.7510 H   0  0  0  0  0  0  0  0  0  0  0  0
    1.1410    3.1130    1.7330 N   0  0  0  0  0  0  0  0  0  0  0  0
    0.4120    1.8960    1.4200 C   0  0  0  0  0  0  0  0  0  0  0  0
   -0.4760    1.9540    0.5530 O   0  0  0  0  0  0  0  0  0  0  0  0
    0.7650    0.6820    2.1520 C   0  0  0  0  0  0  0  0  0  0  0  0
    0.0790   -0.5550    1.7920 C   0  0  0  0  0  0  0  0  0  0  0  0
    0.1830   -1.1000    0.4290 C   0  0  2  0  0  0  0  0  0  0  0  0
    1.5180   -1.3280   -0.0100 N   0  0  0  0  0  0  0  0  0  0  0  0
   -0.7980   -0.7230   -0.6100 C   0  0  0  0  0  0  0  0  0  0  0  0
   -0.4140   -0.6820   -1.7950 O   0  0  0  0  0  0  0  0  0  0  0  0
    2.0880    3.2340    1.3550 H   0  0  0  0  0  0  0  0  0  0  0  0
    0.6920    3.8260    2.3190 H   0  0  0  0  0  0  0  0  0  0  0  0
    0.4940    0.8870    3.2460 H   0  0  0  0  0  0  0  0  0  0  0  0
    1.8900    0.5570    2.2320 H   0  0  0  0  0  0  0  0  0  0  0  0
   -0.9970   -0.4930    2.1060 H   0  0  0  0  0  0  0  0  0  0  0  0
    0.4600   -1.3780    2.4980 H   0  0  0  0  0  0  0  0  0  0  0  0
   -0.1780   -2.2250    0.6280 H   0  0  0  0  0  0  0  0  0  0  0  0
    2.0650   -0.4780   -0.3100 H   0  0  0  0  0  0  0  0  0  0  0  0
   -5.4720   -0.9670    0.7900 C   0  0  0  0  0  0  0  0  0  0  0  0
   -4.6950    0.2700    0.9400 C   0  0  0  0  0  0  0  0  0  0  0  0
   -4.2020    0.8370   -0.3690 C   0  0  2  0  0  0  0  0  0  0  0  0
   -5.4250    1.0990   -1.1840 C   0  0  0  0  0  0  0  0  0  0  0  0
   -3.2710   -0.0700   -1.0860 C   0  0  2  0  0  0  0  0  0  0  0  0
   -2.1230   -0.4220   -0.3460 N   0  0  0  0  0  0  0  0  0  0  0  0
   -3.0460    0.4500   -2.4500 C   0  0  0  0  0  0  0  0  0  0  0  0
   -1.9440    0.6210   -3.0270 O   0  0  0  0  0  0  0  0  0  0  0  0
   -4.1520    0.8060   -3.2390 O   0  0  0  0  0  0  0  0  0  0  0  0
   -4.9360   -1.8590    1.2360 H   0  0  0  0  0  0  0  0  0  0  0  0
   -5.8790   -1.1580   -0.1910 H   0  0  0  0  0  0  0  0  0  0  0  0
   -6.4070   -0.9150    1.4520 H   0  0  0  0  0  0  0  0  0  0  0  0
   -5.3680    1.0800    1.3510 H   0  0  0  0  0  0  0  0  0  0  0  0
   -3.9240    0.1340    1.7230 H   0  0  0  0  0  0  0  0  0  0  0  0
   -3.7690    1.8400   -0.1120 H   0  0  0  0  0  0  0  0  0  0  0  0
   -5.3720    1.9980   -1.8330 H   0  0  0  0  0  0  0  0  0  0  0  0
   -5.8120    0.2810   -1.7960 H   0  0  0  0  0  0  0  0  0  0  0  0
   -6.2890    1.3470   -0.5050 H   0  0  0  0  0  0  0  0  0  0  0  0
   -3.8110   -1.0370   -1.2720 H   0  0  0  0  0  0  0  0  0  0  0  0
   -2.3260   -0.5000    0.7200 H   0  0  0  0  0  0  0  0  0  0  0  0
  1 10  1  0  0  0  0
  1 11  1  0  0  0  0
  2  1  1  0  0  0  0
  3  2  2  0  0  0  0
  4  2  1  0  0  0  0
  4 12  1  0  0  0  0
  4 13  1  0  0  0  0
  5 15  1  0  0  0  0
  5  4  1  0  0  0  0
  6 16  1  6  0  0  0
  6  8  1  0  0  0  0
  6  5  1  0  0  0  0
  7  6  1  0  0  0  0
  7 17  1  0  0  0  0
  8 25  1  0  0  0  0
  8  9  2  0  0  0  0
 14  5  1  0  0  0  0
 18  7  1  0  0  0  0
 19 29  1  0  0  0  0
 20 19  1  0  0  0  0
 20 22  1  0  0  0  0
 21 20  2  0  0  0  0
 22 31  1  0  0  0  0
 22 30  1  0  0  0  0
 23 32  1  0  0  0  0
 23 22  1  0  0  0  0
 23 33  1  0  0  0  0
 24 34  1  1  0  0  0
 24 23  1  0  0  0  0
 25 24  1  0  0  0  0
 26 41  1  0  0  0  0
 26 24  1  0  0  0  0
 27 26  2  0  0  0  0
 28 19  1  0  0  0  0
 35 25  1  0  0  0  0
 36 37  1  0  0  0  0
 36 45  1  0  0  0  0
 36 47  1  0  0  0  0
 37 48  1  0  0  0  0
 37 49  1  0  0  0  0
 38 50  1  1  0  0  0
 38 37  1  0  0  0  0
 39 53  1  0  0  0  0
 39 38  1  0  0  0  0
 40 54  1  6  0  0  0
 40 38  1  0  0  0  0
 40 41  1  0  0  0  0
 41 55  1  0  0  0  0
 42 40  1  0  0  0  0
 43 42  1  0  0  0  0
 44 42  2  0  0  0  0
 46 36  1  0  0  0  0
 51 39  1  0  0  0  0
 52 39  1  0  0  0  0
M  END
$$$$
