QQL.pdb
 OpenBabel07022418323D

 55 54  0  0  1  0  0  0  0  0999 V2000
    2.1250   -5.0060    0.9120 N   0  0  0  0  0  0  0  0  0  0  0  0
    2.4390   -3.6670    0.4790 C   0  0  0  0  0  0  0  0  0  0  0  0
    1.5080   -2.8510    0.5140 O   0  0  0  0  0  0  0  0  0  0  0  0
    3.7800   -3.3390    0.0350 C   0  0  0  0  0  0  0  0  0  0  0  0
    4.1290   -1.9290   -0.2100 C   0  0  0  0  0  0  0  0  0  0  0  0
    4.0570   -0.9670    0.9100 C   0  0  2  0  0  0  0  0  0  0  0  0
    4.8890   -1.3370    2.0390 N   0  0  0  0  0  0  0  0  0  0  0  0
    2.7270   -0.4950    1.3010 C   0  0  0  0  0  0  0  0  0  0  0  0
    2.3220   -0.6600    2.4900 O   0  0  0  0  0  0  0  0  0  0  0  0
    1.1660   -5.3010    1.1100 H   0  0  0  0  0  0  0  0  0  0  0  0
    2.8980   -5.7080    1.0290 H   0  0  0  0  0  0  0  0  0  0  0  0
    4.5710   -3.8590    0.6650 H   0  0  0  0  0  0  0  0  0  0  0  0
    3.9070   -3.8720   -0.9690 H   0  0  0  0  0  0  0  0  0  0  0  0
    3.3910   -1.5500   -0.9930 H   0  0  0  0  0  0  0  0  0  0  0  0
    5.1230   -1.8940   -0.7180 H   0  0  0  0  0  0  0  0  0  0  0  0
    4.5700   -0.0090    0.5000 H   0  0  0  0  0  0  0  0  0  0  0  0
    4.2990   -1.4900    2.8830 H   0  0  0  0  0  0  0  0  0  0  0  0
    5.5500   -2.0950    1.8300 H   0  0  0  0  0  0  0  0  0  0  0  0
    0.5630    3.5140   -2.6890 N   0  0  0  0  0  0  0  0  0  0  0  0
    0.0750    2.8080   -1.5210 C   0  0  0  0  0  0  0  0  0  0  0  0
   -0.9630    2.1480   -1.6230 O   0  0  0  0  0  0  0  0  0  0  0  0
    0.8420    2.9220   -0.2930 C   0  0  0  0  0  0  0  0  0  0  0  0
    0.4710    2.1210    0.8860 C   0  0  0  0  0  0  0  0  0  0  0  0
    0.5060    0.6420    0.7950 C   0  0  2  0  0  0  0  0  0  0  0  0
    1.8380    0.1610    0.4050 N   0  0  0  0  0  0  0  0  0  0  0  0
   -0.5010   -0.0410   -0.0020 C   0  0  0  0  0  0  0  0  0  0  0  0
   -0.2000   -0.7750   -1.0010 O   0  0  0  0  0  0  0  0  0  0  0  0
    1.3390    3.1580   -3.2730 H   0  0  0  0  0  0  0  0  0  0  0  0
    0.1090    4.4060   -2.9340 H   0  0  0  0  0  0  0  0  0  0  0  0
    0.7340    4.0180    0.0280 H   0  0  0  0  0  0  0  0  0  0  0  0
    1.9530    2.8750   -0.5100 H   0  0  0  0  0  0  0  0  0  0  0  0
   -0.5700    2.4020    1.2150 H   0  0  0  0  0  0  0  0  0  0  0  0
    1.1020    2.4050    1.7870 H   0  0  0  0  0  0  0  0  0  0  0  0
    0.4260    0.2950    1.9000 H   0  0  0  0  0  0  0  0  0  0  0  0
    2.1780    0.2920   -0.5720 H   0  0  0  0  0  0  0  0  0  0  0  0
   -4.6260   -3.0550    1.9380 C   0  0  0  0  0  0  0  0  0  0  0  0
   -4.1370   -1.6530    1.5090 C   0  0  0  0  0  0  0  0  0  0  0  0
   -3.3230   -1.1090    2.6360 C   0  0  0  0  0  0  0  0  0  0  0  0
   -3.4930   -1.8050    0.2100 C   0  0  0  0  0  0  0  0  0  0  0  0
   -2.9250   -0.6200   -0.4920 C   0  0  2  0  0  0  0  0  0  0  0  0
   -1.9070    0.0340    0.2540 N   0  0  0  0  0  0  0  0  0  0  0  0
   -3.9180    0.2440   -1.1140 C   0  0  0  0  0  0  0  0  0  0  0  0
   -3.9240    1.4870   -1.0250 O   0  0  0  0  0  0  0  0  0  0  0  0
   -4.9300   -0.3260   -1.8580 O   0  0  0  0  0  0  0  0  0  0  0  0
   -4.7850   -3.6640    1.0260 H   0  0  0  0  0  0  0  0  0  0  0  0
   -5.5620   -2.9580    2.5270 H   0  0  0  0  0  0  0  0  0  0  0  0
   -3.8470   -3.4700    2.6050 H   0  0  0  0  0  0  0  0  0  0  0  0
   -5.0610   -1.0490    1.4400 H   0  0  0  0  0  0  0  0  0  0  0  0
   -3.4990   -1.6930    3.5940 H   0  0  0  0  0  0  0  0  0  0  0  0
   -2.2450   -1.2810    2.4450 H   0  0  0  0  0  0  0  0  0  0  0  0
   -3.4660   -0.0740    2.9080 H   0  0  0  0  0  0  0  0  0  0  0  0
   -4.2040   -2.2900   -0.5260 H   0  0  0  0  0  0  0  0  0  0  0  0
   -2.6590   -2.5740    0.2580 H   0  0  0  0  0  0  0  0  0  0  0  0
   -2.3610   -1.0880   -1.3730 H   0  0  0  0  0  0  0  0  0  0  0  0
   -2.1750    0.6380    1.0590 H   0  0  0  0  0  0  0  0  0  0  0  0
  1 11  1  0  0  0  0
  1 10  1  0  0  0  0
  2  3  2  0  0  0  0
  2  1  1  0  0  0  0
  4  2  1  0  0  0  0
  4 12  1  0  0  0  0
  5  4  1  0  0  0  0
  5  6  1  0  0  0  0
  6 16  1  6  0  0  0
  6  8  1  0  0  0  0
  6  7  1  0  0  0  0
  7 17  1  0  0  0  0
  8  9  2  0  0  0  0
 13  4  1  0  0  0  0
 14  5  1  0  0  0  0
 15  5  1  0  0  0  0
 18  7  1  0  0  0  0
 19 20  1  0  0  0  0
 20 22  1  0  0  0  0
 21 20  2  0  0  0  0
 22 30  1  0  0  0  0
 22 23  1  0  0  0  0
 23 32  1  0  0  0  0
 23 33  1  0  0  0  0
 24 23  1  0  0  0  0
 24 34  1  1  0  0  0
 25 24  1  0  0  0  0
 25  8  1  0  0  0  0
 26 41  1  0  0  0  0
 26 24  1  0  0  0  0
 27 26  2  0  0  0  0
 28 19  1  0  0  0  0
 29 19  1  0  0  0  0
 31 22  1  0  0  0  0
 35 25  1  0  0  0  0
 36 46  1  0  0  0  0
 36 47  1  0  0  0  0
 37 36  1  0  0  0  0
 37 38  1  0  0  0  0
 38 51  1  0  0  0  0
 38 49  1  0  0  0  0
 39 53  1  0  0  0  0
 39 37  1  0  0  0  0
 40 54  1  6  0  0  0
 40 39  1  0  0  0  0
 40 41  1  0  0  0  0
 41 55  1  0  0  0  0
 42 43  1  0  0  0  0
 42 40  1  0  0  0  0
 44 42  2  0  0  0  0
 45 36  1  0  0  0  0
 48 37  1  0  0  0  0
 50 38  1  0  0  0  0
 52 39  1  0  0  0  0
M  END
$$$$
