QQM.pdb
 OpenBabel07022418323D

 53 52  0  0  1  0  0  0  0  0999 V2000
    5.8320   -0.7760    3.7980 N   0  0  0  0  0  0  0  0  0  0  0  0
    5.1720   -0.3870    2.5990 C   0  0  0  0  0  0  0  0  0  0  0  0
    5.5420    0.6350    1.9830 O   0  0  0  0  0  0  0  0  0  0  0  0
    4.0290   -1.2080    2.0720 C   0  0  0  0  0  0  0  0  0  0  0  0
    3.5280   -0.5620    0.8280 C   0  0  0  0  0  0  0  0  0  0  0  0
    2.3790   -1.2650    0.1560 C   0  0  2  0  0  0  0  0  0  0  0  0
    2.0580   -0.4700   -1.0270 N   0  0  0  0  0  0  0  0  0  0  0  0
    1.2130   -1.2720    1.0520 C   0  0  0  0  0  0  0  0  0  0  0  0
    1.2050   -1.9470    2.1110 O   0  0  0  0  0  0  0  0  0  0  0  0
    6.7210   -0.3360    4.0400 H   0  0  0  0  0  0  0  0  0  0  0  0
    5.4080   -1.5060    4.4250 H   0  0  0  0  0  0  0  0  0  0  0  0
    4.4110   -2.2230    1.9380 H   0  0  0  0  0  0  0  0  0  0  0  0
    3.2310   -1.1430    2.8500 H   0  0  0  0  0  0  0  0  0  0  0  0
    3.2130    0.4830    1.1020 H   0  0  0  0  0  0  0  0  0  0  0  0
    4.3450   -0.4080    0.0780 H   0  0  0  0  0  0  0  0  0  0  0  0
    2.6520   -2.2670   -0.2010 H   0  0  0  0  0  0  0  0  0  0  0  0
    1.9320    0.5260   -0.8290 H   0  0  0  0  0  0  0  0  0  0  0  0
    1.3210   -0.9040   -1.6010 H   0  0  0  0  0  0  0  0  0  0  0  0
    1.3420    1.0430    4.9720 N   0  0  0  0  0  0  0  0  0  0  0  0
    0.1830    0.6360    4.2210 C   0  0  0  0  0  0  0  0  0  0  0  0
   -0.4690   -0.3580    4.5940 O   0  0  0  0  0  0  0  0  0  0  0  0
   -0.2230    1.3980    3.0190 C   0  0  0  0  0  0  0  0  0  0  0  0
   -1.3560    0.8060    2.2500 C   0  0  0  0  0  0  0  0  0  0  0  0
   -1.1060   -0.5580    1.6950 C   0  0  2  0  0  0  0  0  0  0  0  0
    0.0230   -0.5270    0.7900 N   0  0  0  0  0  0  0  0  0  0  0  0
   -2.3120   -1.1340    1.0490 C   0  0  0  0  0  0  0  0  0  0  0  0
   -3.3690   -1.2260    1.7220 O   0  0  0  0  0  0  0  0  0  0  0  0
    2.1600    1.5080    4.5500 H   0  0  0  0  0  0  0  0  0  0  0  0
    1.3380    0.8510    5.9900 H   0  0  0  0  0  0  0  0  0  0  0  0
   -0.4500    2.4360    3.3810 H   0  0  0  0  0  0  0  0  0  0  0  0
    0.6960    1.5150    2.3980 H   0  0  0  0  0  0  0  0  0  0  0  0
   -1.5650    1.5230    1.4040 H   0  0  0  0  0  0  0  0  0  0  0  0
   -2.2990    0.8370    2.8540 H   0  0  0  0  0  0  0  0  0  0  0  0
   -0.8470   -1.2400    2.5250 H   0  0  0  0  0  0  0  0  0  0  0  0
   -0.0100    0.0460   -0.0790 H   0  0  0  0  0  0  0  0  0  0  0  0
   -3.3570    0.9310   -4.6320 C   0  0  0  0  0  0  0  0  0  0  0  0
   -3.2020   -0.8650   -4.7730 S   0  0  0  0  0  0  0  0  0  0  0  0
   -2.8190   -1.6280   -3.1760 C   0  0  0  0  0  0  0  0  0  0  0  0
   -3.9320   -1.4940   -2.1920 C   0  0  0  0  0  0  0  0  0  0  0  0
   -3.5340   -2.1500   -0.9030 C   0  0  2  0  0  0  0  0  0  0  0  0
   -2.3690   -1.5980   -0.2900 N   0  0  0  0  0  0  0  0  0  0  0  0
   -3.2530   -3.5750   -1.2210 C   0  0  0  0  0  0  0  0  0  0  0  0
   -4.1680   -4.2380   -1.7700 O   0  0  0  0  0  0  0  0  0  0  0  0
   -2.0680   -4.2130   -0.9560 O   0  0  0  0  0  0  0  0  0  0  0  0
   -4.0860    1.2470   -3.8630 H   0  0  0  0  0  0  0  0  0  0  0  0
   -2.3590    1.3430   -4.4470 H   0  0  0  0  0  0  0  0  0  0  0  0
   -3.7020    1.3090   -5.6160 H   0  0  0  0  0  0  0  0  0  0  0  0
   -1.8500   -1.2390   -2.8420 H   0  0  0  0  0  0  0  0  0  0  0  0
   -2.6730   -2.7170   -3.3700 H   0  0  0  0  0  0  0  0  0  0  0  0
   -4.3040   -0.4620   -2.0670 H   0  0  0  0  0  0  0  0  0  0  0  0
   -4.7990   -2.0800   -2.5920 H   0  0  0  0  0  0  0  0  0  0  0  0
   -4.3470   -2.1490   -0.1480 H   0  0  0  0  0  0  0  0  0  0  0  0
   -1.4910   -1.5250   -0.8560 H   0  0  0  0  0  0  0  0  0  0  0  0
  1 10  1  0  0  0  0
  1 11  1  0  0  0  0
  2  1  1  0  0  0  0
  3  2  2  0  0  0  0
  4  2  1  0  0  0  0
  4 13  1  0  0  0  0
  5 14  1  0  0  0  0
  5  4  1  0  0  0  0
  6 16  1  6  0  0  0
  6  5  1  0  0  0  0
  6  8  1  0  0  0  0
  7 17  1  0  0  0  0
  7  6  1  0  0  0  0
  8  9  2  0  0  0  0
 12  4  1  0  0  0  0
 15  5  1  0  0  0  0
 18  7  1  0  0  0  0
 19 29  1  0  0  0  0
 20 21  2  0  0  0  0
 20 19  1  0  0  0  0
 22 30  1  0  0  0  0
 22 20  1  0  0  0  0
 23 33  1  0  0  0  0
 23 22  1  0  0  0  0
 24 23  1  0  0  0  0
 24 34  1  1  0  0  0
 25  8  1  0  0  0  0
 25 24  1  0  0  0  0
 26 24  1  0  0  0  0
 26 27  2  0  0  0  0
 28 19  1  0  0  0  0
 31 22  1  0  0  0  0
 32 23  1  0  0  0  0
 35 25  1  0  0  0  0
 36 46  1  0  0  0  0
 36 45  1  0  0  0  0
 37 36  1  0  0  0  0
 37 38  1  0  0  0  0
 38 48  1  0  0  0  0
 38 39  1  0  0  0  0
 39 50  1  0  0  0  0
 39 40  1  0  0  0  0
 40 41  1  0  0  0  0
 40 52  1  1  0  0  0
 41 26  1  0  0  0  0
 42 44  1  0  0  0  0
 42 40  1  0  0  0  0
 43 42  2  0  0  0  0
 47 36  1  0  0  0  0
 49 38  1  0  0  0  0
 51 39  1  0  0  0  0
 53 41  1  0  0  0  0
M  END
$$$$
