QQN.pdb
 OpenBabel07022418313D

 50 49  0  0  1  0  0  0  0  0999 V2000
   -1.3150   -4.0160   -2.3530 N   0  0  0  0  0  0  0  0  0  0  0  0
   -0.7830   -2.7090   -2.5160 C   0  0  0  0  0  0  0  0  0  0  0  0
   -1.5600   -1.8300   -2.9810 O   0  0  0  0  0  0  0  0  0  0  0  0
    0.6270   -2.4340   -2.1440 C   0  0  0  0  0  0  0  0  0  0  0  0
    0.9760   -1.0000   -2.4820 C   0  0  0  0  0  0  0  0  0  0  0  0
    2.3940   -0.6620   -2.1460 C   0  0  2  0  0  0  0  0  0  0  0  0
    3.3460   -1.4840   -2.8390 N   0  0  0  0  0  0  0  0  0  0  0  0
    2.5620   -0.7080   -0.6740 C   0  0  0  0  0  0  0  0  0  0  0  0
    3.4200   -1.4890   -0.1370 O   0  0  0  0  0  0  0  0  0  0  0  0
   -0.7920   -4.8690   -2.6470 H   0  0  0  0  0  0  0  0  0  0  0  0
   -2.2550   -4.1300   -1.9310 H   0  0  0  0  0  0  0  0  0  0  0  0
    0.7380   -2.6530   -1.0720 H   0  0  0  0  0  0  0  0  0  0  0  0
    1.2860   -3.1130   -2.7240 H   0  0  0  0  0  0  0  0  0  0  0  0
    0.3140   -0.3450   -1.8810 H   0  0  0  0  0  0  0  0  0  0  0  0
    0.7120   -0.8300   -3.5360 H   0  0  0  0  0  0  0  0  0  0  0  0
    2.5610    0.3950   -2.4640 H   0  0  0  0  0  0  0  0  0  0  0  0
    4.0530   -0.8650   -3.2880 H   0  0  0  0  0  0  0  0  0  0  0  0
    2.9530   -2.0840   -3.5890 H   0  0  0  0  0  0  0  0  0  0  0  0
   -0.2090    3.7500    2.0510 N   0  0  0  0  0  0  0  0  0  0  0  0
    0.6410    2.6920    2.5390 C   0  0  0  0  0  0  0  0  0  0  0  0
    0.1810    1.9730    3.4230 O   0  0  0  0  0  0  0  0  0  0  0  0
    1.9660    2.5420    1.9720 C   0  0  0  0  0  0  0  0  0  0  0  0
    2.6410    1.2560    2.2090 C   0  0  0  0  0  0  0  0  0  0  0  0
    2.0270    0.0120    1.6850 C   0  0  2  0  0  0  0  0  0  0  0  0
    1.8240    0.0770    0.2450 N   0  0  0  0  0  0  0  0  0  0  0  0
    0.8530   -0.5360    2.3340 C   0  0  0  0  0  0  0  0  0  0  0  0
    0.7990   -0.8730    3.5550 O   0  0  0  0  0  0  0  0  0  0  0  0
    0.1930    4.5790    1.5330 H   0  0  0  0  0  0  0  0  0  0  0  0
   -1.2220    3.7290    2.1910 H   0  0  0  0  0  0  0  0  0  0  0  0
    2.6060    3.3420    2.4940 H   0  0  0  0  0  0  0  0  0  0  0  0
    2.0020    2.8590    0.8860 H   0  0  0  0  0  0  0  0  0  0  0  0
    2.8420    1.1010    3.2980 H   0  0  0  0  0  0  0  0  0  0  0  0
    3.6840    1.2900    1.7670 H   0  0  0  0  0  0  0  0  0  0  0  0
    2.8500   -0.7900    1.8800 H   0  0  0  0  0  0  0  0  0  0  0  0
    1.1060    0.7300   -0.1310 H   0  0  0  0  0  0  0  0  0  0  0  0
   -3.7750   -1.4880    4.3550 N   0  0  0  0  0  0  0  0  0  0  0  0
   -3.8150   -1.0540    3.0050 C   0  0  0  0  0  0  0  0  0  0  0  0
   -4.8630   -1.3170    2.3410 O   0  0  0  0  0  0  0  0  0  0  0  0
   -2.7160   -0.3230    2.3300 C   0  0  0  0  0  0  0  0  0  0  0  0
   -1.5450   -1.2920    2.2720 C   0  0  2  0  0  0  0  0  0  0  0  0
   -0.3840   -0.7490    1.6240 N   0  0  0  0  0  0  0  0  0  0  0  0
   -2.0100   -2.5390    1.6340 C   0  0  0  0  0  0  0  0  0  0  0  0
   -1.4240   -3.0180    0.6240 O   0  0  0  0  0  0  0  0  0  0  0  0
   -3.1070   -3.2370    2.1180 O   0  0  0  0  0  0  0  0  0  0  0  0
   -3.2420   -0.9670    5.0750 H   0  0  0  0  0  0  0  0  0  0  0  0
   -4.2850   -2.3370    4.6290 H   0  0  0  0  0  0  0  0  0  0  0  0
   -2.4770    0.5820    2.9490 H   0  0  0  0  0  0  0  0  0  0  0  0
   -3.0650   -0.0360    1.3220 H   0  0  0  0  0  0  0  0  0  0  0  0
   -1.3380   -1.5400    3.3460 H   0  0  0  0  0  0  0  0  0  0  0  0
   -0.4390   -0.5050    0.6130 H   0  0  0  0  0  0  0  0  0  0  0  0
  1 11  1  0  0  0  0
  2  1  1  0  0  0  0
  2  4  1  0  0  0  0
  3  2  2  0  0  0  0
  4 12  1  0  0  0  0
  5  6  1  0  0  0  0
  5  4  1  0  0  0  0
  5 14  1  0  0  0  0
  6 16  1  6  0  0  0
  6  8  1  0  0  0  0
  7  6  1  0  0  0  0
  8  9  2  0  0  0  0
  8 25  1  0  0  0  0
 10  1  1  0  0  0  0
 13  4  1  0  0  0  0
 15  5  1  0  0  0  0
 17  7  1  0  0  0  0
 18  7  1  0  0  0  0
 19 29  1  0  0  0  0
 19 20  1  0  0  0  0
 20 21  2  0  0  0  0
 22 23  1  0  0  0  0
 22 30  1  0  0  0  0
 22 20  1  0  0  0  0
 23 32  1  0  0  0  0
 24 34  1  1  0  0  0
 24 23  1  0  0  0  0
 24 26  1  0  0  0  0
 25 24  1  0  0  0  0
 26 27  2  0  0  0  0
 28 19  1  0  0  0  0
 31 22  1  0  0  0  0
 33 23  1  0  0  0  0
 35 25  1  0  0  0  0
 36 46  1  0  0  0  0
 36 45  1  0  0  0  0
 37 36  1  0  0  0  0
 38 37  2  0  0  0  0
 39 47  1  0  0  0  0
 39 37  1  0  0  0  0
 40 39  1  0  0  0  0
 40 49  1  1  0  0  0
 41 40  1  0  0  0  0
 41 26  1  0  0  0  0
 42 44  1  0  0  0  0
 42 40  1  0  0  0  0
 43 42  2  0  0  0  0
 48 39  1  0  0  0  0
 50 41  1  0  0  0  0
M  END
$$$$
