QQP.pdb
 OpenBabel07022418323D

 50 50  0  0  1  0  0  0  0  0999 V2000
    3.7440   -0.5760    4.9260 N   0  0  0  0  0  0  0  0  0  0  0  0
    2.3370   -0.3740    4.9720 C   0  0  0  0  0  0  0  0  0  0  0  0
    1.6330   -1.3060    5.4140 O   0  0  0  0  0  0  0  0  0  0  0  0
    1.8010    0.9020    4.5060 C   0  0  0  0  0  0  0  0  0  0  0  0
    0.3390    1.0150    4.3560 C   0  0  0  0  0  0  0  0  0  0  0  0
   -0.3460    0.1300    3.3800 C   0  0  2  0  0  0  0  0  0  0  0  0
   -0.2380   -1.2660    3.5650 N   0  0  0  0  0  0  0  0  0  0  0  0
   -0.1150    0.5760    1.9630 C   0  0  0  0  0  0  0  0  0  0  0  0
   -0.1290    1.8080    1.6680 O   0  0  0  0  0  0  0  0  0  0  0  0
    4.3240   -0.3230    4.1210 H   0  0  0  0  0  0  0  0  0  0  0  0
    4.1790   -1.0060    5.7730 H   0  0  0  0  0  0  0  0  0  0  0  0
    2.0880    1.6620    5.3000 H   0  0  0  0  0  0  0  0  0  0  0  0
    2.3710    1.2990    3.6090 H   0  0  0  0  0  0  0  0  0  0  0  0
    0.1120    2.0670    4.0570 H   0  0  0  0  0  0  0  0  0  0  0  0
   -0.1260    0.8410    5.3490 H   0  0  0  0  0  0  0  0  0  0  0  0
   -1.4570    0.3730    3.5280 H   0  0  0  0  0  0  0  0  0  0  0  0
   -1.1280   -1.7030    3.7880 H   0  0  0  0  0  0  0  0  0  0  0  0
    0.4400   -1.7920    3.0220 H   0  0  0  0  0  0  0  0  0  0  0  0
    3.9040   -0.0690   -4.0310 N   0  0  0  0  0  0  0  0  0  0  0  0
    3.3680   -0.3490   -2.7510 C   0  0  0  0  0  0  0  0  0  0  0  0
    4.0590   -0.9870   -1.9240 O   0  0  0  0  0  0  0  0  0  0  0  0
    1.9760    0.1030   -2.3480 C   0  0  0  0  0  0  0  0  0  0  0  0
    1.6980   -0.3400   -0.9450 C   0  0  0  0  0  0  0  0  0  0  0  0
    0.3520    0.1360   -0.4840 C   0  0  2  0  0  0  0  0  0  0  0  0
    0.1270   -0.3290    0.8970 N   0  0  0  0  0  0  0  0  0  0  0  0
   -0.7520   -0.1700   -1.3900 C   0  0  0  0  0  0  0  0  0  0  0  0
   -0.6330    0.3670   -2.5670 O   0  0  0  0  0  0  0  0  0  0  0  0
    4.4050   -0.8590   -4.5190 H   0  0  0  0  0  0  0  0  0  0  0  0
    3.7940    0.8830   -4.4460 H   0  0  0  0  0  0  0  0  0  0  0  0
    1.9090    1.1940   -2.4040 H   0  0  0  0  0  0  0  0  0  0  0  0
    1.3270   -0.4330   -3.0890 H   0  0  0  0  0  0  0  0  0  0  0  0
    2.4820    0.1630   -0.2990 H   0  0  0  0  0  0  0  0  0  0  0  0
    1.8260   -1.4400   -0.8130 H   0  0  0  0  0  0  0  0  0  0  0  0
    0.4380    1.2610   -0.3850 H   0  0  0  0  0  0  0  0  0  0  0  0
    0.1620   -1.3500    1.0950 H   0  0  0  0  0  0  0  0  0  0  0  0
   -1.8980   -0.9520   -1.1430 N   0  0  0  0  0  0  0  0  0  0  0  0
   -2.9470   -1.1500   -2.1810 C   0  0  0  0  0  0  0  0  0  0  0  0
   -4.2000   -0.9860   -1.3140 C   0  0  0  0  0  0  0  0  0  0  0  0
   -3.8640   -1.8350   -0.1180 C   0  0  0  0  0  0  0  0  0  0  0  0
   -2.3540   -1.6900    0.0020 C   0  0  1  0  0  0  0  0  0  0  0  0
   -1.8150   -3.0630    0.0400 C   0  0  0  0  0  0  0  0  0  0  0  0
   -1.0540   -3.4650   -0.8580 O   0  0  0  0  0  0  0  0  0  0  0  0
   -2.1600   -3.8980    1.0770 O   0  0  0  0  0  0  0  0  0  0  0  0
   -2.8780   -0.4010   -2.9710 H   0  0  0  0  0  0  0  0  0  0  0  0
   -2.9350   -2.2040   -2.5140 H   0  0  0  0  0  0  0  0  0  0  0  0
   -4.2770    0.0780   -0.9800 H   0  0  0  0  0  0  0  0  0  0  0  0
   -5.1060   -1.3240   -1.8460 H   0  0  0  0  0  0  0  0  0  0  0  0
   -4.1410   -2.8950   -0.3110 H   0  0  0  0  0  0  0  0  0  0  0  0
   -4.3750   -1.4640    0.8080 H   0  0  0  0  0  0  0  0  0  0  0  0
   -2.1900   -1.1490    0.9580 H   0  0  0  0  0  0  0  0  0  0  0  0
  1  2  1  0  0  0  0
  1 11  1  0  0  0  0
  2  3  2  0  0  0  0
  4  2  1  0  0  0  0
  4 12  1  0  0  0  0
  5  4  1  0  0  0  0
  5 15  1  0  0  0  0
  6 16  1  1  0  0  0
  6  7  1  0  0  0  0
  6  5  1  0  0  0  0
  7 17  1  0  0  0  0
  8  6  1  0  0  0  0
  9  8  2  0  0  0  0
 10  1  1  0  0  0  0
 13  4  1  0  0  0  0
 14  5  1  0  0  0  0
 18  7  1  0  0  0  0
 19 20  1  0  0  0  0
 20 22  1  0  0  0  0
 20 21  2  0  0  0  0
 22 23  1  0  0  0  0
 23 33  1  0  0  0  0
 23 24  1  0  0  0  0
 23 32  1  0  0  0  0
 24 34  1  1  0  0  0
 24 25  1  0  0  0  0
 25 35  1  0  0  0  0
 25  8  1  0  0  0  0
 26 36  1  0  0  0  0
 26 24  1  0  0  0  0
 27 26  2  0  0  0  0
 28 19  1  0  0  0  0
 29 19  1  0  0  0  0
 30 22  1  0  0  0  0
 31 22  1  0  0  0  0
 36 40  1  0  0  0  0
 37 38  1  0  0  0  0
 37 36  1  0  0  0  0
 38 46  1  0  0  0  0
 38 39  1  0  0  0  0
 39 40  1  0  0  0  0
 39 49  1  0  0  0  0
 40 41  1  0  0  0  0
 40 50  1  1  0  0  0
 41 43  1  0  0  0  0
 42 41  2  0  0  0  0
 44 37  1  0  0  0  0
 45 37  1  0  0  0  0
 47 38  1  0  0  0  0
 48 39  1  0  0  0  0
M  END
$$$$
