QQW.pdb
 OpenBabel07022418323D

 60 61  0  0  1  0  0  0  0  0999 V2000
    0.1880   -3.4070    6.4570 N   0  0  0  0  0  0  0  0  0  0  0  0
   -0.1080   -2.5590    5.3610 C   0  0  0  0  0  0  0  0  0  0  0  0
   -1.0680   -2.8620    4.6160 O   0  0  0  0  0  0  0  0  0  0  0  0
    0.7190   -1.3610    5.1400 C   0  0  0  0  0  0  0  0  0  0  0  0
    0.1930   -0.6310    3.9180 C   0  0  0  0  0  0  0  0  0  0  0  0
    0.9950    0.6140    3.6300 C   0  0  2  0  0  0  0  0  0  0  0  0
    0.9540    1.5440    4.7460 N   0  0  0  0  0  0  0  0  0  0  0  0
    0.4390    1.2530    2.4160 C   0  0  0  0  0  0  0  0  0  0  0  0
    0.0130    2.4220    2.4880 O   0  0  0  0  0  0  0  0  0  0  0  0
   -0.0690   -3.2450    7.4370 H   0  0  0  0  0  0  0  0  0  0  0  0
    0.7250   -4.2900    6.2390 H   0  0  0  0  0  0  0  0  0  0  0  0
    0.6400   -0.6830    6.0000 H   0  0  0  0  0  0  0  0  0  0  0  0
    1.7870   -1.6050    4.9600 H   0  0  0  0  0  0  0  0  0  0  0  0
    0.2730   -1.2830    3.0190 H   0  0  0  0  0  0  0  0  0  0  0  0
   -0.8760   -0.4170    4.0860 H   0  0  0  0  0  0  0  0  0  0  0  0
    2.0610    0.3300    3.4830 H   0  0  0  0  0  0  0  0  0  0  0  0
    1.7960    1.4260    5.3180 H   0  0  0  0  0  0  0  0  0  0  0  0
    0.0630    1.4980    5.2870 H   0  0  0  0  0  0  0  0  0  0  0  0
    1.7830    2.5160   -4.5170 N   0  0  0  0  0  0  0  0  0  0  0  0
    1.7960    1.9740   -3.2050 C   0  0  0  0  0  0  0  0  0  0  0  0
    2.8820    1.5300   -2.7700 O   0  0  0  0  0  0  0  0  0  0  0  0
    0.5990    1.9070   -2.3360 C   0  0  0  0  0  0  0  0  0  0  0  0
    0.9620    1.3080   -1.0320 C   0  0  0  0  0  0  0  0  0  0  0  0
   -0.1490    1.1700   -0.0290 C   0  0  2  0  0  0  0  0  0  0  0  0
    0.3900    0.5660    1.1980 N   0  0  0  0  0  0  0  0  0  0  0  0
   -1.2950    0.3790   -0.4500 C   0  0  0  0  0  0  0  0  0  0  0  0
   -1.9530    0.6990   -1.4590 O   0  0  0  0  0  0  0  0  0  0  0  0
    2.1610    1.9020   -5.2840 H   0  0  0  0  0  0  0  0  0  0  0  0
    1.4290    3.4640   -4.7550 H   0  0  0  0  0  0  0  0  0  0  0  0
    0.2830    2.9850   -2.2030 H   0  0  0  0  0  0  0  0  0  0  0  0
   -0.2630    1.4370   -2.8500 H   0  0  0  0  0  0  0  0  0  0  0  0
    1.4730    0.3290   -1.1280 H   0  0  0  0  0  0  0  0  0  0  0  0
    1.7350    1.9780   -0.5510 H   0  0  0  0  0  0  0  0  0  0  0  0
   -0.5010    2.2080    0.2570 H   0  0  0  0  0  0  0  0  0  0  0  0
    0.7480   -0.4050    1.1610 H   0  0  0  0  0  0  0  0  0  0  0  0
   -1.6910   -0.7680    0.2700 N   0  0  0  0  0  0  0  0  0  0  0  0
   -2.8380   -1.5280   -0.1790 C   0  0  1  0  0  0  0  0  0  0  0  0
   -2.5010   -2.9150   -0.5950 C   0  0  0  0  0  0  0  0  0  0  0  0
   -1.5370   -2.9050   -1.7170 C   0  0  0  0  0  0  0  0  0  0  0  0
   -1.8750   -3.0170   -3.0770 C   0  0  0  0  0  0  0  0  0  0  0  0
   -0.7840   -2.9410   -3.8280 N   0  0  0  0  0  0  0  0  0  0  0  0
    0.2900   -2.7800   -3.0290 C   0  0  0  0  0  0  0  0  0  0  0  0
    1.6220   -2.6600   -3.3200 C   0  0  0  0  0  0  0  0  0  0  0  0
    2.5170   -2.5160   -2.2940 C   0  0  0  0  0  0  0  0  0  0  0  0
    2.1000   -2.4900   -0.9850 C   0  0  0  0  0  0  0  0  0  0  0  0
    0.7360   -2.6140   -0.7140 C   0  0  0  0  0  0  0  0  0  0  0  0
   -0.1630   -2.7570   -1.7260 C   0  0  0  0  0  0  0  0  0  0  0  0
   -3.8660   -1.5540    0.9210 C   0  0  0  0  0  0  0  0  0  0  0  0
   -4.9460   -2.1640    0.7410 O   0  0  0  0  0  0  0  0  0  0  0  0
   -3.6520   -0.9260    2.1180 O   0  0  0  0  0  0  0  0  0  0  0  0
   -1.1800   -1.0930    1.1430 H   0  0  0  0  0  0  0  0  0  0  0  0
   -3.3390   -1.0240   -1.0430 H   0  0  0  0  0  0  0  0  0  0  0  0
   -3.4430   -3.4000   -0.9380 H   0  0  0  0  0  0  0  0  0  0  0  0
   -2.0540   -3.4700    0.2610 H   0  0  0  0  0  0  0  0  0  0  0  0
   -2.8720   -3.1460   -3.4270 H   0  0  0  0  0  0  0  0  0  0  0  0
   -0.7130   -2.9910   -4.8670 H   0  0  0  0  0  0  0  0  0  0  0  0
    1.9900   -2.6750   -4.3370 H   0  0  0  0  0  0  0  0  0  0  0  0
    3.5790   -2.4180   -2.4800 H   0  0  0  0  0  0  0  0  0  0  0  0
    2.7750   -2.3790   -0.1530 H   0  0  0  0  0  0  0  0  0  0  0  0
    0.3990   -2.6070    0.2990 H   0  0  0  0  0  0  0  0  0  0  0  0
  1 10  1  0  0  0  0
  2  1  1  0  0  0  0
  3  2  2  0  0  0  0
  4  2  1  0  0  0  0
  4 12  1  0  0  0  0
  5 15  1  0  0  0  0
  5  4  1  0  0  0  0
  6 16  1  6  0  0  0
  6  5  1  0  0  0  0
  6  7  1  0  0  0  0
  7 18  1  0  0  0  0
  7 17  1  0  0  0  0
  8  9  2  0  0  0  0
  8  6  1  0  0  0  0
 11  1  1  0  0  0  0
 13  4  1  0  0  0  0
 14  5  1  0  0  0  0
 19 20  1  0  0  0  0
 20 21  2  0  0  0  0
 20 22  1  0  0  0  0
 22 30  1  0  0  0  0
 22 23  1  0  0  0  0
 23 33  1  0  0  0  0
 23 24  1  0  0  0  0
 24 34  1  1  0  0  0
 24 25  1  0  0  0  0
 25  8  1  0  0  0  0
 26 24  1  0  0  0  0
 26 36  1  0  0  0  0
 27 26  2  0  0  0  0
 28 19  1  0  0  0  0
 29 19  1  0  0  0  0
 31 22  1  0  0  0  0
 32 23  1  0  0  0  0
 35 25  1  0  0  0  0
 36 51  1  0  0  0  0
 37 52  1  6  0  0  0
 37 36  1  0  0  0  0
 37 48  1  0  0  0  0
 38 37  1  0  0  0  0
 38 54  1  0  0  0  0
 39 38  1  0  0  0  0
 40 39  2  0  0  0  0
 41 40  1  0  0  0  0
 41 42  1  0  0  0  0
 42 47  1  0  0  0  0
 43 42  2  0  0  0  0
 43 44  1  0  0  0  0
 44 45  2  0  0  0  0
 45 46  1  0  0  0  0
 45 59  1  0  0  0  0
 46 60  1  0  0  0  0
 47 39  1  0  0  0  0
 47 46  2  0  0  0  0
 48 50  1  0  0  0  0
 49 48  2  0  0  0  0
 53 38  1  0  0  0  0
 55 40  1  0  0  0  0
 56 41  1  0  0  0  0
 57 43  1  0  0  0  0
 58 44  1  0  0  0  0
M  END
$$$$
