QQY.pdb
 OpenBabel07022418323D

 57 57  0  0  1  0  0  0  0  0999 V2000
    2.7030   -0.1240    7.9110 N   0  0  0  0  0  0  0  0  0  0  0  0
    1.9210   -0.4680    6.7340 C   0  0  0  0  0  0  0  0  0  0  0  0
    0.6810   -0.3720    6.8490 O   0  0  0  0  0  0  0  0  0  0  0  0
    2.6250   -0.9000    5.5150 C   0  0  0  0  0  0  0  0  0  0  0  0
    1.8470   -0.8400    4.2620 C   0  0  0  0  0  0  0  0  0  0  0  0
    1.4330    0.5500    3.8670 C   0  0  2  0  0  0  0  0  0  0  0  0
    0.6050    1.1850    4.8510 N   0  0  0  0  0  0  0  0  0  0  0  0
    0.6370    0.4770    2.5880 C   0  0  0  0  0  0  0  0  0  0  0  0
   -0.5270    0.9390    2.6020 O   0  0  0  0  0  0  0  0  0  0  0  0
    2.8790    0.8910    8.0830 H   0  0  0  0  0  0  0  0  0  0  0  0
    3.0460   -0.8950    8.5160 H   0  0  0  0  0  0  0  0  0  0  0  0
    3.5540   -0.2820    5.4100 H   0  0  0  0  0  0  0  0  0  0  0  0
    2.9660   -1.9600    5.7120 H   0  0  0  0  0  0  0  0  0  0  0  0
    2.3790   -1.3150    3.3910 H   0  0  0  0  0  0  0  0  0  0  0  0
    0.8740   -1.4000    4.4370 H   0  0  0  0  0  0  0  0  0  0  0  0
    2.3230    1.2150    3.7100 H   0  0  0  0  0  0  0  0  0  0  0  0
   -0.4110    1.0260    4.7020 H   0  0  0  0  0  0  0  0  0  0  0  0
    0.8320    2.2150    4.9360 H   0  0  0  0  0  0  0  0  0  0  0  0
    1.8760    4.0420    0.4390 N   0  0  0  0  0  0  0  0  0  0  0  0
    1.9490    2.6490    0.1280 C   0  0  0  0  0  0  0  0  0  0  0  0
    2.8030    1.9890    0.7440 O   0  0  0  0  0  0  0  0  0  0  0  0
    1.0720    2.0600   -0.8550 C   0  0  0  0  0  0  0  0  0  0  0  0
    0.9630    0.5970   -0.9580 C   0  0  0  0  0  0  0  0  0  0  0  0
    0.4510   -0.1740    0.1950 C   0  0  2  0  0  0  0  0  0  0  0  0
    1.1910   -0.0960    1.4170 N   0  0  0  0  0  0  0  0  0  0  0  0
    0.3170   -1.6070   -0.1830 C   0  0  0  0  0  0  0  0  0  0  0  0
    0.8650   -2.4960    0.5550 O   0  0  0  0  0  0  0  0  0  0  0  0
    2.6340    4.6980    0.1610 H   0  0  0  0  0  0  0  0  0  0  0  0
    1.0510    4.4320    0.9570 H   0  0  0  0  0  0  0  0  0  0  0  0
    1.4330    2.4240   -1.8750 H   0  0  0  0  0  0  0  0  0  0  0  0
    0.0240    2.5150   -0.8340 H   0  0  0  0  0  0  0  0  0  0  0  0
    1.9480    0.1370   -1.2840 H   0  0  0  0  0  0  0  0  0  0  0  0
    0.2950    0.3670   -1.8410 H   0  0  0  0  0  0  0  0  0  0  0  0
   -0.6310    0.1570    0.3830 H   0  0  0  0  0  0  0  0  0  0  0  0
    2.1510   -0.4780    1.4660 H   0  0  0  0  0  0  0  0  0  0  0  0
   -5.2840   -0.7920   -5.1060 O   0  0  0  0  0  0  0  0  0  0  0  0
   -4.4580   -1.5800   -4.2930 C   0  0  0  0  0  0  0  0  0  0  0  0
   -4.2400   -1.1960   -2.9940 C   0  0  0  0  0  0  0  0  0  0  0  0
   -3.4310   -1.9690   -2.2010 C   0  0  0  0  0  0  0  0  0  0  0  0
   -2.8100   -3.1230   -2.6200 C   0  0  0  0  0  0  0  0  0  0  0  0
   -1.9620   -3.8720   -1.6760 C   0  0  0  0  0  0  0  0  0  0  0  0
   -0.5210   -3.4350   -1.6940 C   0  0  2  0  0  0  0  0  0  0  0  0
   -0.4010   -2.0210   -1.3370 N   0  0  0  0  0  0  0  0  0  0  0  0
    0.0300   -3.6480   -3.0380 C   0  0  0  0  0  0  0  0  0  0  0  0
    0.0340   -4.7950   -3.5580 O   0  0  0  0  0  0  0  0  0  0  0  0
   -3.0420   -3.4900   -3.9280 C   0  0  0  0  0  0  0  0  0  0  0  0
   -3.8610   -2.7230   -4.7580 C   0  0  0  0  0  0  0  0  0  0  0  0
    0.5510   -2.6080   -3.7570 O   0  0  0  0  0  0  0  0  0  0  0  0
   -5.1130    0.2190   -5.0950 H   0  0  0  0  0  0  0  0  0  0  0  0
   -4.6870   -0.2990   -2.5690 H   0  0  0  0  0  0  0  0  0  0  0  0
   -3.2690   -1.6450   -1.1650 H   0  0  0  0  0  0  0  0  0  0  0  0
   -2.3870   -3.8520   -0.6340 H   0  0  0  0  0  0  0  0  0  0  0  0
   -1.9620   -4.9560   -1.9650 H   0  0  0  0  0  0  0  0  0  0  0  0
    0.0180   -4.0160   -0.9250 H   0  0  0  0  0  0  0  0  0  0  0  0
   -0.8430   -1.2830   -1.9210 H   0  0  0  0  0  0  0  0  0  0  0  0
   -2.5800   -4.3840   -4.3020 H   0  0  0  0  0  0  0  0  0  0  0  0
   -4.0380   -3.0110   -5.7680 H   0  0  0  0  0  0  0  0  0  0  0  0
  1 10  1  0  0  0  0
  1 11  1  0  0  0  0
  2  3  2  0  0  0  0
  2  1  1  0  0  0  0
  4 13  1  0  0  0  0
  4  2  1  0  0  0  0
  5 15  1  0  0  0  0
  5  4  1  0  0  0  0
  6 16  1  6  0  0  0
  6  5  1  0  0  0  0
  6  7  1  0  0  0  0
  7 18  1  0  0  0  0
  8  9  2  0  0  0  0
  8  6  1  0  0  0  0
 12  4  1  0  0  0  0
 14  5  1  0  0  0  0
 17  7  1  0  0  0  0
 19 29  1  0  0  0  0
 20 19  1  0  0  0  0
 20 21  2  0  0  0  0
 22 31  1  0  0  0  0
 22 20  1  0  0  0  0
 23 22  1  0  0  0  0
 23 24  1  0  0  0  0
 24 34  1  1  0  0  0
 24 25  1  0  0  0  0
 25 35  1  0  0  0  0
 25  8  1  0  0  0  0
 26 24  1  0  0  0  0
 26 27  2  0  0  0  0
 28 19  1  0  0  0  0
 30 22  1  0  0  0  0
 32 23  1  0  0  0  0
 33 23  1  0  0  0  0
 36 49  1  0  0  0  0
 36 37  1  0  0  0  0
 37 38  1  0  0  0  0
 38 50  1  0  0  0  0
 38 39  2  0  0  0  0
 39 51  1  0  0  0  0
 40 39  1  0  0  0  0
 40 41  1  0  0  0  0
 41 52  1  0  0  0  0
 42 41  1  0  0  0  0
 42 43  1  0  0  0  0
 42 54  1  1  0  0  0
 43 26  1  0  0  0  0
 44 42  1  0  0  0  0
 45 44  1  0  0  0  0
 46 40  2  0  0  0  0
 47 37  2  0  0  0  0
 47 46  1  0  0  0  0
 48 44  2  0  0  0  0
 53 41  1  0  0  0  0
 55 43  1  0  0  0  0
 56 46  1  0  0  0  0
 57 47  1  0  0  0  0
M  END
$$$$
