QRA.pdb
 OpenBabel07022418303D

 52 51  0  0  1  0  0  0  0  0999 V2000
   -2.6410   -4.0500    2.9100 N   0  0  0  0  0  0  0  0  0  0  0  0
   -2.5670   -2.8540    3.6350 C   0  0  0  0  0  0  0  0  0  0  0  0
   -3.4420   -2.5740    4.4770 O   0  0  0  0  0  0  0  0  0  0  0  0
   -1.4370   -1.9330    3.3860 C   0  0  0  0  0  0  0  0  0  0  0  0
   -1.4850   -0.7080    4.2340 C   0  0  0  0  0  0  0  0  0  0  0  0
   -0.2680    0.1460    3.9240 C   0  0  2  0  0  0  0  0  0  0  0  0
   -0.3240    1.3640    4.7480 N   0  0  0  0  0  0  0  0  0  0  0  0
   -0.1750    0.5030    2.4890 C   0  0  0  0  0  0  0  0  0  0  0  0
   -0.5960    1.6520    2.1740 O   0  0  0  0  0  0  0  0  0  0  0  0
   -3.2360   -4.1120    2.0690 H   0  0  0  0  0  0  0  0  0  0  0  0
   -2.1010   -4.8760    3.2120 H   0  0  0  0  0  0  0  0  0  0  0  0
   -0.5030   -2.4690    3.5330 H   0  0  0  0  0  0  0  0  0  0  0  0
   -1.5950   -1.5680    2.3300 H   0  0  0  0  0  0  0  0  0  0  0  0
   -2.3940   -0.0940    4.0450 H   0  0  0  0  0  0  0  0  0  0  0  0
   -1.4590   -0.9140    5.3260 H   0  0  0  0  0  0  0  0  0  0  0  0
    0.6210   -0.4290    4.2550 H   0  0  0  0  0  0  0  0  0  0  0  0
   -1.2780    1.7550    4.5740 H   0  0  0  0  0  0  0  0  0  0  0  0
    0.4210    2.0010    4.3660 H   0  0  0  0  0  0  0  0  0  0  0  0
    2.6630    1.9730   -3.4320 N   0  0  0  0  0  0  0  0  0  0  0  0
    1.9010    2.4110   -2.3250 C   0  0  0  0  0  0  0  0  0  0  0  0
    0.6240    2.3940   -2.3500 N   0  0  0  0  0  0  0  0  0  0  0  0
    2.5190    2.8940   -1.1480 N   0  0  0  0  0  0  0  0  0  0  0  0
    2.1920    2.5000    0.1990 C   0  0  0  0  0  0  0  0  0  0  0  0
    2.6280    1.1080    0.4760 C   0  0  0  0  0  0  0  0  0  0  0  0
    1.9410    0.0860   -0.3270 C   0  0  0  0  0  0  0  0  0  0  0  0
    0.4470    0.0330    0.0700 C   0  0  2  0  0  0  0  0  0  0  0  0
    0.3470   -0.3350    1.4710 N   0  0  0  0  0  0  0  0  0  0  0  0
   -0.1410   -0.9460   -0.8610 C   0  0  0  0  0  0  0  0  0  0  0  0
   -0.1870   -0.6380   -2.1060 O   0  0  0  0  0  0  0  0  0  0  0  0
    2.3860    1.1260   -3.9420 H   0  0  0  0  0  0  0  0  0  0  0  0
    3.5000    2.5030   -3.7310 H   0  0  0  0  0  0  0  0  0  0  0  0
    0.1320    2.0550   -3.1910 H   0  0  0  0  0  0  0  0  0  0  0  0
    3.3070    3.6120   -1.2760 H   0  0  0  0  0  0  0  0  0  0  0  0
    1.1020    2.6390    0.3750 H   0  0  0  0  0  0  0  0  0  0  0  0
    2.7360    3.2090    0.9030 H   0  0  0  0  0  0  0  0  0  0  0  0
    3.7380    1.0440    0.2410 H   0  0  0  0  0  0  0  0  0  0  0  0
    2.5860    0.8820    1.5780 H   0  0  0  0  0  0  0  0  0  0  0  0
    1.9920    0.1720   -1.4090 H   0  0  0  0  0  0  0  0  0  0  0  0
    2.3450   -0.9530   -0.1040 H   0  0  0  0  0  0  0  0  0  0  0  0
    0.0340    1.0270   -0.1160 H   0  0  0  0  0  0  0  0  0  0  0  0
    0.6880   -1.2800    1.7420 H   0  0  0  0  0  0  0  0  0  0  0  0
   -0.5950   -4.4520   -1.5550 C   0  0  0  0  0  0  0  0  0  0  0  0
   -1.2310   -3.1000   -1.5550 C   0  0  2  0  0  0  0  0  0  0  0  0
   -0.6680   -2.2150   -0.5310 N   0  0  0  0  0  0  0  0  0  0  0  0
   -2.6730   -3.2610   -1.2580 C   0  0  0  0  0  0  0  0  0  0  0  0
   -3.2140   -2.6970   -0.2850 O   0  0  0  0  0  0  0  0  0  0  0  0
   -3.4170   -4.0750   -2.1140 O   0  0  0  0  0  0  0  0  0  0  0  0
   -1.3690   -5.1810   -1.9260 H   0  0  0  0  0  0  0  0  0  0  0  0
   -0.3550   -4.7970   -0.5240 H   0  0  0  0  0  0  0  0  0  0  0  0
    0.2620   -4.5590   -2.2440 H   0  0  0  0  0  0  0  0  0  0  0  0
   -1.1340   -2.6520   -2.5600 H   0  0  0  0  0  0  0  0  0  0  0  0
   -0.6360   -2.5120    0.4630 H   0  0  0  0  0  0  0  0  0  0  0  0
  1 11  1  0  0  0  0
  1  2  1  0  0  0  0
  2  3  2  0  0  0  0
  4 12  1  0  0  0  0
  4  2  1  0  0  0  0
  4  5  1  0  0  0  0
  5 15  1  0  0  0  0
  6  5  1  0  0  0  0
  6 16  1  1  0  0  0
  6  7  1  0  0  0  0
  8  6  1  0  0  0  0
  9  8  2  0  0  0  0
 10  1  1  0  0  0  0
 13  4  1  0  0  0  0
 14  5  1  0  0  0  0
 17  7  1  0  0  0  0
 18  7  1  0  0  0  0
 19 20  1  0  0  0  0
 20 22  1  0  0  0  0
 21 20  2  0  0  0  0
 22 23  1  0  0  0  0
 23 34  1  0  0  0  0
 23 24  1  0  0  0  0
 23 35  1  0  0  0  0
 24 37  1  0  0  0  0
 25 39  1  0  0  0  0
 25 26  1  0  0  0  0
 25 24  1  0  0  0  0
 26 40  1  6  0  0  0
 26 27  1  0  0  0  0
 27 41  1  0  0  0  0
 27  8  1  0  0  0  0
 28 44  1  0  0  0  0
 28 26  1  0  0  0  0
 29 28  2  0  0  0  0
 30 19  1  0  0  0  0
 31 19  1  0  0  0  0
 32 21  1  0  0  0  0
 33 22  1  0  0  0  0
 36 24  1  0  0  0  0
 38 25  1  0  0  0  0
 42 43  1  0  0  0  0
 42 49  1  0  0  0  0
 43 51  1  6  0  0  0
 43 45  1  0  0  0  0
 43 44  1  0  0  0  0
 44 52  1  0  0  0  0
 45 46  1  0  0  0  0
 47 45  2  0  0  0  0
 48 42  1  0  0  0  0
 50 42  1  0  0  0  0
M  END
$$$$
