QRC.pdb
 OpenBabel07022418303D

 53 52  0  0  1  0  0  0  0  0999 V2000
    3.9460   -2.3190    4.4710 N   0  0  0  0  0  0  0  0  0  0  0  0
    3.8300   -2.8670    3.1840 C   0  0  0  0  0  0  0  0  0  0  0  0
    4.2740   -4.0190    2.9340 O   0  0  0  0  0  0  0  0  0  0  0  0
    3.1670   -2.0320    2.1400 C   0  0  0  0  0  0  0  0  0  0  0  0
    3.1000   -2.7190    0.8240 C   0  0  0  0  0  0  0  0  0  0  0  0
    2.4420   -1.8320   -0.1830 C   0  0  2  0  0  0  0  0  0  0  0  0
    3.1940   -0.6180   -0.3200 N   0  0  0  0  0  0  0  0  0  0  0  0
    1.0030   -1.5980    0.0580 C   0  0  0  0  0  0  0  0  0  0  0  0
    0.2770   -2.4960    0.5750 O   0  0  0  0  0  0  0  0  0  0  0  0
    4.8390   -1.9070    4.7770 H   0  0  0  0  0  0  0  0  0  0  0  0
    3.1390   -2.3300    5.1110 H   0  0  0  0  0  0  0  0  0  0  0  0
    3.7710   -1.1120    2.0350 H   0  0  0  0  0  0  0  0  0  0  0  0
    2.1150   -1.8430    2.4680 H   0  0  0  0  0  0  0  0  0  0  0  0
    4.1050   -2.9730    0.4080 H   0  0  0  0  0  0  0  0  0  0  0  0
    2.5560   -3.6870    0.8560 H   0  0  0  0  0  0  0  0  0  0  0  0
    2.5110   -2.3580   -1.2230 H   0  0  0  0  0  0  0  0  0  0  0  0
    4.1920   -0.7160   -0.0890 H   0  0  0  0  0  0  0  0  0  0  0  0
    2.9870   -0.0590   -1.1520 H   0  0  0  0  0  0  0  0  0  0  0  0
    2.1820    0.5580    3.8710 N   0  0  0  0  0  0  0  0  0  0  0  0
    1.0170    0.8940    3.1190 C   0  0  0  0  0  0  0  0  0  0  0  0
   -0.1240    0.6060    3.6200 N   0  0  0  0  0  0  0  0  0  0  0  0
    1.0930    1.5440    1.8340 N   0  0  0  0  0  0  0  0  0  0  0  0
    0.1090    2.4970    1.4660 C   0  0  0  0  0  0  0  0  0  0  0  0
   -1.2560    2.0350    1.2320 C   0  0  0  0  0  0  0  0  0  0  0  0
   -1.6090    1.1340    0.1410 C   0  0  0  0  0  0  0  0  0  0  0  0
   -1.0650   -0.1980   -0.0500 C   0  0  2  0  0  0  0  0  0  0  0  0
    0.3360   -0.3720   -0.2780 N   0  0  0  0  0  0  0  0  0  0  0  0
   -1.7470   -0.8010   -1.2980 C   0  0  0  0  0  0  0  0  0  0  0  0
   -1.0280   -1.2590   -2.2090 O   0  0  0  0  0  0  0  0  0  0  0  0
    2.1230   -0.2340    4.5390 H   0  0  0  0  0  0  0  0  0  0  0  0
    3.0730    1.0700    3.7760 H   0  0  0  0  0  0  0  0  0  0  0  0
   -0.2750    0.1460    4.5340 H   0  0  0  0  0  0  0  0  0  0  0  0
    1.8950    1.3050    1.2150 H   0  0  0  0  0  0  0  0  0  0  0  0
    0.4760    3.1190    0.5730 H   0  0  0  0  0  0  0  0  0  0  0  0
    0.0630    3.2850    2.2800 H   0  0  0  0  0  0  0  0  0  0  0  0
   -1.6520    1.6480    2.2330 H   0  0  0  0  0  0  0  0  0  0  0  0
   -1.8930    3.0110    1.1640 H   0  0  0  0  0  0  0  0  0  0  0  0
   -2.7620    1.0090    0.2150 H   0  0  0  0  0  0  0  0  0  0  0  0
   -1.5620    1.6990   -0.8640 H   0  0  0  0  0  0  0  0  0  0  0  0
   -1.4410   -0.9010    0.7630 H   0  0  0  0  0  0  0  0  0  0  0  0
    0.8790    0.3970   -0.7020 H   0  0  0  0  0  0  0  0  0  0  0  0
   -3.1430   -0.8450   -1.4270 N   0  0  0  0  0  0  0  0  0  0  0  0
   -3.7000   -1.4370   -2.6500 C   0  0  1  0  0  0  0  0  0  0  0  0
   -4.4970   -2.6910   -2.3060 C   0  0  0  0  0  0  0  0  0  0  0  0
   -3.4060   -3.9020   -1.5000 S   0  0  0  0  0  0  0  0  0  0  0  0
   -4.6080   -0.4860   -3.3260 C   0  0  0  0  0  0  0  0  0  0  0  0
   -4.8110    0.6470   -2.8370 O   0  0  0  0  0  0  0  0  0  0  0  0
   -5.2530   -0.8200   -4.5070 O   0  0  0  0  0  0  0  0  0  0  0  0
   -3.7690   -0.4750   -0.6800 H   0  0  0  0  0  0  0  0  0  0  0  0
   -2.8910   -1.7770   -3.3240 H   0  0  0  0  0  0  0  0  0  0  0  0
   -5.3650   -2.4480   -1.6930 H   0  0  0  0  0  0  0  0  0  0  0  0
   -4.7670   -3.1410   -3.2980 H   0  0  0  0  0  0  0  0  0  0  0  0
   -4.0100   -4.4120   -0.3370 H   0  0  0  0  0  0  0  0  0  0  0  0
  1 10  1  0  0  0  0
  1 11  1  0  0  0  0
  2  1  1  0  0  0  0
  3  2  2  0  0  0  0
  4 13  1  0  0  0  0
  4  2  1  0  0  0  0
  5 15  1  0  0  0  0
  5  4  1  0  0  0  0
  6 16  1  6  0  0  0
  6  8  1  0  0  0  0
  6  5  1  0  0  0  0
  7  6  1  0  0  0  0
  7 17  1  0  0  0  0
  8  9  2  0  0  0  0
 12  4  1  0  0  0  0
 14  5  1  0  0  0  0
 18  7  1  0  0  0  0
 19 30  1  0  0  0  0
 20 21  2  0  0  0  0
 20 19  1  0  0  0  0
 21 32  1  0  0  0  0
 22 20  1  0  0  0  0
 23 22  1  0  0  0  0
 23 35  1  0  0  0  0
 24 23  1  0  0  0  0
 24 36  1  0  0  0  0
 25 38  1  0  0  0  0
 25 24  1  0  0  0  0
 26 25  1  0  0  0  0
 26 40  1  1  0  0  0
 27 26  1  0  0  0  0
 27  8  1  0  0  0  0
 28 26  1  0  0  0  0
 29 28  2  0  0  0  0
 31 19  1  0  0  0  0
 33 22  1  0  0  0  0
 34 23  1  0  0  0  0
 37 24  1  0  0  0  0
 39 25  1  0  0  0  0
 41 27  1  0  0  0  0
 42 28  1  0  0  0  0
 42 49  1  0  0  0  0
 43 50  1  6  0  0  0
 43 44  1  0  0  0  0
 43 42  1  0  0  0  0
 44 51  1  0  0  0  0
 44 45  1  0  0  0  0
 45 53  1  0  0  0  0
 46 47  1  0  0  0  0
 46 43  1  0  0  0  0
 48 46  2  0  0  0  0
 52 44  1  0  0  0  0
M  END
$$$$
