QRD.pdb
 OpenBabel07022418303D

 55 54  0  0  1  0  0  0  0  0999 V2000
    0.3990   -4.1740    4.2060 N   0  0  0  0  0  0  0  0  0  0  0  0
    1.2340   -3.1300    3.7030 C   0  0  0  0  0  0  0  0  0  0  0  0
    2.0920   -2.6710    4.4690 O   0  0  0  0  0  0  0  0  0  0  0  0
    1.0230   -2.6850    2.3380 C   0  0  0  0  0  0  0  0  0  0  0  0
    1.6460   -1.3920    1.9320 C   0  0  0  0  0  0  0  0  0  0  0  0
    1.1700   -0.1750    2.6500 C   0  0  2  0  0  0  0  0  0  0  0  0
    1.3990   -0.2520    4.0540 N   0  0  0  0  0  0  0  0  0  0  0  0
   -0.2230    0.1640    2.3010 C   0  0  0  0  0  0  0  0  0  0  0  0
   -1.1740    0.3020    3.0960 O   0  0  0  0  0  0  0  0  0  0  0  0
    0.0750   -4.9190    3.5740 H   0  0  0  0  0  0  0  0  0  0  0  0
    0.1230   -4.1670    5.2240 H   0  0  0  0  0  0  0  0  0  0  0  0
    1.4370   -3.4640    1.6220 H   0  0  0  0  0  0  0  0  0  0  0  0
   -0.0740   -2.6480    2.0630 H   0  0  0  0  0  0  0  0  0  0  0  0
    2.7650   -1.5060    2.0570 H   0  0  0  0  0  0  0  0  0  0  0  0
    1.4950   -1.3000    0.8280 H   0  0  0  0  0  0  0  0  0  0  0  0
    1.8200    0.6750    2.2550 H   0  0  0  0  0  0  0  0  0  0  0  0
    2.0390    0.4890    4.4130 H   0  0  0  0  0  0  0  0  0  0  0  0
    0.4680   -0.1350    4.5390 H   0  0  0  0  0  0  0  0  0  0  0  0
    2.9250    2.1240   -2.2940 N   0  0  0  0  0  0  0  0  0  0  0  0
    2.2210    2.5230   -1.1020 C   0  0  0  0  0  0  0  0  0  0  0  0
    2.8490    2.7890   -0.0070 N   0  0  0  0  0  0  0  0  0  0  0  0
    0.8070    2.6360   -1.0940 N   0  0  0  0  0  0  0  0  0  0  0  0
    0.0880    3.1270    0.0890 C   0  0  0  0  0  0  0  0  0  0  0  0
   -1.3840    3.1310   -0.1920 C   0  0  0  0  0  0  0  0  0  0  0  0
   -1.9050    1.7980   -0.5280 C   0  0  0  0  0  0  0  0  0  0  0  0
   -1.8430    0.7000    0.4730 C   0  0  2  0  0  0  0  0  0  0  0  0
   -0.5150    0.3580    0.8960 N   0  0  0  0  0  0  0  0  0  0  0  0
   -2.3680   -0.5170   -0.2700 C   0  0  0  0  0  0  0  0  0  0  0  0
   -3.5390   -0.3810   -0.7130 O   0  0  0  0  0  0  0  0  0  0  0  0
    3.5280    1.2810   -2.2240 H   0  0  0  0  0  0  0  0  0  0  0  0
    2.8340    2.6560   -3.1800 H   0  0  0  0  0  0  0  0  0  0  0  0
    3.9050    2.7150    0.0220 H   0  0  0  0  0  0  0  0  0  0  0  0
    0.2860    2.3620   -1.9530 H   0  0  0  0  0  0  0  0  0  0  0  0
    0.3110    2.5340    0.9580 H   0  0  0  0  0  0  0  0  0  0  0  0
    0.4550    4.1890    0.2590 H   0  0  0  0  0  0  0  0  0  0  0  0
   -1.5110    3.8540   -1.0630 H   0  0  0  0  0  0  0  0  0  0  0  0
   -1.9510    3.6410    0.6300 H   0  0  0  0  0  0  0  0  0  0  0  0
   -1.4470    1.4130   -1.5010 H   0  0  0  0  0  0  0  0  0  0  0  0
   -2.9890    1.9680   -0.8670 H   0  0  0  0  0  0  0  0  0  0  0  0
   -2.5100    0.8830    1.3560 H   0  0  0  0  0  0  0  0  0  0  0  0
    0.2540    0.2430    0.2020 H   0  0  0  0  0  0  0  0  0  0  0  0
   -1.6440   -1.6980   -0.4660 N   0  0  0  0  0  0  0  0  0  0  0  0
   -2.2590   -2.8070   -1.2090 C   0  0  1  0  0  0  0  0  0  0  0  0
   -1.4560   -3.2250   -2.4050 C   0  0  0  0  0  0  0  0  0  0  0  0
   -0.1190   -3.6820   -2.0310 C   0  0  0  0  0  0  0  0  0  0  0  0
    0.2640   -3.7300   -0.8400 O   0  0  0  0  0  0  0  0  0  0  0  0
   -2.4370   -3.9940   -0.3340 C   0  0  0  0  0  0  0  0  0  0  0  0
   -2.1090   -4.0150    0.8700 O   0  0  0  0  0  0  0  0  0  0  0  0
    0.7810   -4.0850   -3.0050 O   0  0  0  0  0  0  0  0  0  0  0  0
   -3.0000   -5.1670   -0.8530 O   0  0  0  0  0  0  0  0  0  0  0  0
   -0.6890   -1.7700   -0.0830 H   0  0  0  0  0  0  0  0  0  0  0  0
   -3.2990   -2.4970   -1.5290 H   0  0  0  0  0  0  0  0  0  0  0  0
   -1.4530   -2.4620   -3.2110 H   0  0  0  0  0  0  0  0  0  0  0  0
   -2.0180   -4.0970   -2.8530 H   0  0  0  0  0  0  0  0  0  0  0  0
    1.4480   -4.8410   -2.8570 H   0  0  0  0  0  0  0  0  0  0  0  0
  1 11  1  0  0  0  0
  2  1  1  0  0  0  0
  2  3  2  0  0  0  0
  4  2  1  0  0  0  0
  5 14  1  0  0  0  0
  5  4  1  0  0  0  0
  5  6  1  0  0  0  0
  6 16  1  6  0  0  0
  6  7  1  0  0  0  0
  7 17  1  0  0  0  0
  7 18  1  0  0  0  0
  8  6  1  0  0  0  0
  8  9  2  0  0  0  0
 10  1  1  0  0  0  0
 12  4  1  0  0  0  0
 13  4  1  0  0  0  0
 15  5  1  0  0  0  0
 19 30  1  0  0  0  0
 19 20  1  0  0  0  0
 20 22  1  0  0  0  0
 20 21  2  0  0  0  0
 21 32  1  0  0  0  0
 22 23  1  0  0  0  0
 23 35  1  0  0  0  0
 23 34  1  0  0  0  0
 24 23  1  0  0  0  0
 24 37  1  0  0  0  0
 25 24  1  0  0  0  0
 25 26  1  0  0  0  0
 26 27  1  0  0  0  0
 26 40  1  1  0  0  0
 27  8  1  0  0  0  0
 28 26  1  0  0  0  0
 29 28  2  0  0  0  0
 31 19  1  0  0  0  0
 33 22  1  0  0  0  0
 36 24  1  0  0  0  0
 38 25  1  0  0  0  0
 39 25  1  0  0  0  0
 41 27  1  0  0  0  0
 42 28  1  0  0  0  0
 42 51  1  0  0  0  0
 43 52  1  6  0  0  0
 43 42  1  0  0  0  0
 43 47  1  0  0  0  0
 44 45  1  0  0  0  0
 44 43  1  0  0  0  0
 45 46  2  0  0  0  0
 47 48  1  0  0  0  0
 49 55  1  0  0  0  0
 49 45  1  0  0  0  0
 50 47  2  0  0  0  0
 53 44  1  0  0  0  0
 54 44  1  0  0  0  0
M  END
$$$$
