QRE.pdb
 OpenBabel07022418303D

 58 57  0  0  1  0  0  0  0  0999 V2000
   -1.1590    3.0260   -1.3100 N   0  0  0  0  0  0  0  0  0  0  0  0
   -0.2740    2.2610   -2.1760 C   0  0  0  0  0  0  0  0  0  0  0  0
    0.9180    2.1520   -1.8750 O   0  0  0  0  0  0  0  0  0  0  0  0
   -0.8390    1.6590   -3.3700 C   0  0  0  0  0  0  0  0  0  0  0  0
   -0.1280    0.4790   -3.9440 C   0  0  0  0  0  0  0  0  0  0  0  0
   -0.0780   -0.7330   -3.0660 C   0  0  2  0  0  0  0  0  0  0  0  0
   -1.4610   -1.0730   -2.7800 N   0  0  0  0  0  0  0  0  0  0  0  0
    0.7460   -0.6290   -1.8850 C   0  0  0  0  0  0  0  0  0  0  0  0
    2.0120   -0.5670   -1.9170 O   0  0  0  0  0  0  0  0  0  0  0  0
   -2.1550    3.1620   -1.5370 H   0  0  0  0  0  0  0  0  0  0  0  0
   -0.7890    3.4520   -0.4350 H   0  0  0  0  0  0  0  0  0  0  0  0
   -1.9270    1.3870   -3.1550 H   0  0  0  0  0  0  0  0  0  0  0  0
   -0.9460    2.4800   -4.1300 H   0  0  0  0  0  0  0  0  0  0  0  0
    0.9440    0.7530   -4.1420 H   0  0  0  0  0  0  0  0  0  0  0  0
   -0.6390    0.2410   -4.9190 H   0  0  0  0  0  0  0  0  0  0  0  0
    0.3170   -1.5610   -3.7710 H   0  0  0  0  0  0  0  0  0  0  0  0
   -1.9640   -1.3260   -3.6570 H   0  0  0  0  0  0  0  0  0  0  0  0
   -1.5890   -1.7340   -2.0110 H   0  0  0  0  0  0  0  0  0  0  0  0
    2.2070    5.0120    2.0250 N   0  0  0  0  0  0  0  0  0  0  0  0
    2.2090    3.7350    2.6470 C   0  0  0  0  0  0  0  0  0  0  0  0
    3.3370    3.1400    2.8890 N   0  0  0  0  0  0  0  0  0  0  0  0
    0.9650    3.1470    2.9860 N   0  0  0  0  0  0  0  0  0  0  0  0
    0.9160    1.8710    3.6350 C   0  0  0  0  0  0  0  0  0  0  0  0
    1.3780    0.7210    2.7420 C   0  0  0  0  0  0  0  0  0  0  0  0
    0.5220    0.6150    1.5100 C   0  0  0  0  0  0  0  0  0  0  0  0
    0.9950   -0.4840    0.6340 C   0  0  2  0  0  0  0  0  0  0  0  0
    0.1850   -0.5910   -0.5850 N   0  0  0  0  0  0  0  0  0  0  0  0
    0.8140   -1.7930    1.3150 C   0  0  0  0  0  0  0  0  0  0  0  0
    1.4540   -2.1030    2.3560 O   0  0  0  0  0  0  0  0  0  0  0  0
    1.3790    5.6340    2.1140 H   0  0  0  0  0  0  0  0  0  0  0  0
    3.0520    5.3050    1.4830 H   0  0  0  0  0  0  0  0  0  0  0  0
    4.2130    3.6070    2.6250 H   0  0  0  0  0  0  0  0  0  0  0  0
    0.0980    3.6670    2.7510 H   0  0  0  0  0  0  0  0  0  0  0  0
   -0.1270    1.6450    3.9730 H   0  0  0  0  0  0  0  0  0  0  0  0
    1.5460    1.8160    4.5490 H   0  0  0  0  0  0  0  0  0  0  0  0
    1.2930   -0.1760    3.4110 H   0  0  0  0  0  0  0  0  0  0  0  0
    2.4500    0.8480    2.5130 H   0  0  0  0  0  0  0  0  0  0  0  0
   -0.5210    0.4090    1.9050 H   0  0  0  0  0  0  0  0  0  0  0  0
    0.4040    1.5910    0.9950 H   0  0  0  0  0  0  0  0  0  0  0  0
    2.0380   -0.4050    0.3240 H   0  0  0  0  0  0  0  0  0  0  0  0
   -0.8440   -0.6380   -0.4550 H   0  0  0  0  0  0  0  0  0  0  0  0
   -0.0870   -2.7780    0.8420 N   0  0  0  0  0  0  0  0  0  0  0  0
   -0.2560   -4.0920    1.5390 C   0  0  1  0  0  0  0  0  0  0  0  0
   -1.5990   -4.1440    2.1330 C   0  0  0  0  0  0  0  0  0  0  0  0
   -1.9410   -5.4070    2.8320 C   0  0  0  0  0  0  0  0  0  0  0  0
   -2.0890   -6.5880    1.9730 C   0  0  0  0  0  0  0  0  0  0  0  0
   -1.8860   -7.7720    2.3970 O   0  0  0  0  0  0  0  0  0  0  0  0
    0.1670   -5.1610    0.6790 C   0  0  0  0  0  0  0  0  0  0  0  0
    0.3260   -4.8880   -0.5720 O   0  0  0  0  0  0  0  0  0  0  0  0
   -2.4720   -6.4010    0.6400 O   0  0  0  0  0  0  0  0  0  0  0  0
    0.4470   -6.4770    1.0030 O   0  0  0  0  0  0  0  0  0  0  0  0
   -0.6520   -2.6160    0.0040 H   0  0  0  0  0  0  0  0  0  0  0  0
    0.4760   -4.0750    2.4200 H   0  0  0  0  0  0  0  0  0  0  0  0
   -1.6280   -3.3240    2.9330 H   0  0  0  0  0  0  0  0  0  0  0  0
   -2.4000   -3.8810    1.3750 H   0  0  0  0  0  0  0  0  0  0  0  0
   -1.1430   -5.6860    3.5910 H   0  0  0  0  0  0  0  0  0  0  0  0
   -2.8720   -5.3060    3.4600 H   0  0  0  0  0  0  0  0  0  0  0  0
   -2.8840   -7.2240    0.1830 H   0  0  0  0  0  0  0  0  0  0  0  0
  1 11  1  0  0  0  0
  2  3  2  0  0  0  0
  2  1  1  0  0  0  0
  4 12  1  0  0  0  0
  4  2  1  0  0  0  0
  5  4  1  0  0  0  0
  5  6  1  0  0  0  0
  6 16  1  6  0  0  0
  6  7  1  0  0  0  0
  6  8  1  0  0  0  0
  7 18  1  0  0  0  0
  8 27  1  0  0  0  0
  9  8  2  0  0  0  0
 10  1  1  0  0  0  0
 13  4  1  0  0  0  0
 14  5  1  0  0  0  0
 15  5  1  0  0  0  0
 17  7  1  0  0  0  0
 19 30  1  0  0  0  0
 19 20  1  0  0  0  0
 20 21  2  0  0  0  0
 20 22  1  0  0  0  0
 22 23  1  0  0  0  0
 23 34  1  0  0  0  0
 23 35  1  0  0  0  0
 24 36  1  0  0  0  0
 24 23  1  0  0  0  0
 25 38  1  0  0  0  0
 25 24  1  0  0  0  0
 26 40  1  6  0  0  0
 26 28  1  0  0  0  0
 26 25  1  0  0  0  0
 27 41  1  0  0  0  0
 27 26  1  0  0  0  0
 28 29  2  0  0  0  0
 31 19  1  0  0  0  0
 32 21  1  0  0  0  0
 33 22  1  0  0  0  0
 37 24  1  0  0  0  0
 39 25  1  0  0  0  0
 42 28  1  0  0  0  0
 42 43  1  0  0  0  0
 43 44  1  0  0  0  0
 43 53  1  1  0  0  0
 44 45  1  0  0  0  0
 44 54  1  0  0  0  0
 45 57  1  0  0  0  0
 45 56  1  0  0  0  0
 46 47  2  0  0  0  0
 46 45  1  0  0  0  0
 48 51  1  0  0  0  0
 48 43  1  0  0  0  0
 49 48  2  0  0  0  0
 50 46  1  0  0  0  0
 52 42  1  0  0  0  0
 55 44  1  0  0  0  0
 58 50  1  0  0  0  0
M  END
$$$$
