QRF.pdb
 OpenBabel07022418303D

 62 62  0  0  1  0  0  0  0  0999 V2000
    1.3450   -4.8370    1.4950 N   0  0  0  0  0  0  0  0  0  0  0  0
    1.8130   -3.8520    2.3900 C   0  0  0  0  0  0  0  0  0  0  0  0
    2.1600   -4.1800    3.5480 O   0  0  0  0  0  0  0  0  0  0  0  0
    1.8980   -2.4150    1.9660 C   0  0  0  0  0  0  0  0  0  0  0  0
    2.4560   -1.5600    3.0490 C   0  0  0  0  0  0  0  0  0  0  0  0
    2.6130   -0.1150    2.7000 C   0  0  2  0  0  0  0  0  0  0  0  0
    3.1590    0.5770    3.8760 N   0  0  0  0  0  0  0  0  0  0  0  0
    1.3650    0.5020    2.2500 C   0  0  0  0  0  0  0  0  0  0  0  0
    0.7480    1.2500    3.0760 O   0  0  0  0  0  0  0  0  0  0  0  0
    1.5430   -4.8580    0.4690 H   0  0  0  0  0  0  0  0  0  0  0  0
    0.7500   -5.6220    1.8550 H   0  0  0  0  0  0  0  0  0  0  0  0
    2.4570   -2.3490    1.0240 H   0  0  0  0  0  0  0  0  0  0  0  0
    0.8410   -2.0670    1.7650 H   0  0  0  0  0  0  0  0  0  0  0  0
    3.4490   -1.9660    3.3750 H   0  0  0  0  0  0  0  0  0  0  0  0
    1.8260   -1.6370    3.9790 H   0  0  0  0  0  0  0  0  0  0  0  0
    3.4370   -0.0470    1.9330 H   0  0  0  0  0  0  0  0  0  0  0  0
    3.1880    1.6060    3.7260 H   0  0  0  0  0  0  0  0  0  0  0  0
    4.1290    0.1950    4.0310 H   0  0  0  0  0  0  0  0  0  0  0  0
    1.2670    2.0360   -3.9440 N   0  0  0  0  0  0  0  0  0  0  0  0
    0.8880    3.1020   -3.0990 C   0  0  0  0  0  0  0  0  0  0  0  0
    1.7750    3.7410   -2.3850 N   0  0  0  0  0  0  0  0  0  0  0  0
   -0.4510    3.5540   -2.9650 N   0  0  0  0  0  0  0  0  0  0  0  0
   -1.0780    3.9780   -1.7550 C   0  0  0  0  0  0  0  0  0  0  0  0
   -1.3280    2.8060   -0.8370 C   0  0  0  0  0  0  0  0  0  0  0  0
   -0.0850    2.1010   -0.4310 C   0  0  0  0  0  0  0  0  0  0  0  0
   -0.4340    0.9840    0.5690 C   0  0  2  0  0  0  0  0  0  0  0  0
    0.8110    0.3230    0.9560 N   0  0  0  0  0  0  0  0  0  0  0  0
   -1.3390    0.0570   -0.0570 C   0  0  0  0  0  0  0  0  0  0  0  0
   -2.5420    0.3880   -0.2830 O   0  0  0  0  0  0  0  0  0  0  0  0
    1.9020    1.3060   -3.5740 H   0  0  0  0  0  0  0  0  0  0  0  0
    0.9150    1.9850   -4.9170 H   0  0  0  0  0  0  0  0  0  0  0  0
    2.7490    3.4450   -2.4590 H   0  0  0  0  0  0  0  0  0  0  0  0
   -1.0220    3.5670   -3.8510 H   0  0  0  0  0  0  0  0  0  0  0  0
   -2.0520    4.4880   -2.0070 H   0  0  0  0  0  0  0  0  0  0  0  0
   -0.4200    4.7160   -1.2050 H   0  0  0  0  0  0  0  0  0  0  0  0
   -2.0000    2.1370   -1.4590 H   0  0  0  0  0  0  0  0  0  0  0  0
   -1.9700    3.0970    0.0300 H   0  0  0  0  0  0  0  0  0  0  0  0
    0.3420    1.6020   -1.3540 H   0  0  0  0  0  0  0  0  0  0  0  0
    0.6840    2.7590   -0.0370 H   0  0  0  0  0  0  0  0  0  0  0  0
   -0.8410    1.4580    1.5040 H   0  0  0  0  0  0  0  0  0  0  0  0
    1.2890   -0.2690    0.2590 H   0  0  0  0  0  0  0  0  0  0  0  0
   -0.9760   -1.2440   -0.4570 N   0  0  0  0  0  0  0  0  0  0  0  0
   -1.9500   -2.1260   -1.0850 C   0  0  1  0  0  0  0  0  0  0  0  0
   -3.0340   -2.5090   -0.1430 C   0  0  0  0  0  0  0  0  0  0  0  0
   -2.5910   -3.2220    1.0640 C   0  0  0  0  0  0  0  0  0  0  0  0
   -2.4950   -4.5910    1.0960 C   0  0  0  0  0  0  0  0  0  0  0  0
   -2.0860   -5.2350    2.2360 C   0  0  0  0  0  0  0  0  0  0  0  0
   -1.7620   -4.5250    3.3720 C   0  0  0  0  0  0  0  0  0  0  0  0
   -1.8500   -3.1630    3.3600 C   0  0  0  0  0  0  0  0  0  0  0  0
   -2.2650   -2.5240    2.2020 C   0  0  0  0  0  0  0  0  0  0  0  0
   -2.4520   -1.4940   -2.3230 C   0  0  0  0  0  0  0  0  0  0  0  0
   -3.3410   -2.0700   -3.0230 O   0  0  0  0  0  0  0  0  0  0  0  0
   -1.9710   -0.2870   -2.7330 O   0  0  0  0  0  0  0  0  0  0  0  0
   -0.0020   -1.6150   -0.3290 H   0  0  0  0  0  0  0  0  0  0  0  0
   -1.4240   -3.0560   -1.4230 H   0  0  0  0  0  0  0  0  0  0  0  0
   -3.6310   -1.6000    0.1080 H   0  0  0  0  0  0  0  0  0  0  0  0
   -3.7740   -3.1950   -0.6570 H   0  0  0  0  0  0  0  0  0  0  0  0
   -2.7470   -5.1610    0.2070 H   0  0  0  0  0  0  0  0  0  0  0  0
   -2.0110   -6.3020    2.2630 H   0  0  0  0  0  0  0  0  0  0  0  0
   -1.4320   -5.0220    4.2940 H   0  0  0  0  0  0  0  0  0  0  0  0
   -1.6010   -2.6060    4.2360 H   0  0  0  0  0  0  0  0  0  0  0  0
   -2.3320   -1.4370    2.2080 H   0  0  0  0  0  0  0  0  0  0  0  0
  1 11  1  0  0  0  0
  1  2  1  0  0  0  0
  2  3  2  0  0  0  0
  4  2  1  0  0  0  0
  4  5  1  0  0  0  0
  5 14  1  0  0  0  0
  5 15  1  0  0  0  0
  6 16  1  6  0  0  0
  6  5  1  0  0  0  0
  6  7  1  0  0  0  0
  7 18  1  0  0  0  0
  8  6  1  0  0  0  0
  8  9  2  0  0  0  0
 10  1  1  0  0  0  0
 12  4  1  0  0  0  0
 13  4  1  0  0  0  0
 17  7  1  0  0  0  0
 19 30  1  0  0  0  0
 19 20  1  0  0  0  0
 20 22  1  0  0  0  0
 20 21  2  0  0  0  0
 22 23  1  0  0  0  0
 23 35  1  0  0  0  0
 23 24  1  0  0  0  0
 24 25  1  0  0  0  0
 24 37  1  0  0  0  0
 25 39  1  0  0  0  0
 25 26  1  0  0  0  0
 26 27  1  0  0  0  0
 26 40  1  1  0  0  0
 27  8  1  0  0  0  0
 28 26  1  0  0  0  0
 29 28  2  0  0  0  0
 31 19  1  0  0  0  0
 32 21  1  0  0  0  0
 33 22  1  0  0  0  0
 34 23  1  0  0  0  0
 36 24  1  0  0  0  0
 38 25  1  0  0  0  0
 41 27  1  0  0  0  0
 42 54  1  0  0  0  0
 42 28  1  0  0  0  0
 43 55  1  6  0  0  0
 43 42  1  0  0  0  0
 43 44  1  0  0  0  0
 44 56  1  0  0  0  0
 44 45  1  0  0  0  0
 45 46  2  0  0  0  0
 45 50  1  0  0  0  0
 46 47  1  0  0  0  0
 47 59  1  0  0  0  0
 47 48  2  0  0  0  0
 48 60  1  0  0  0  0
 49 48  1  0  0  0  0
 49 61  1  0  0  0  0
 50 62  1  0  0  0  0
 50 49  2  0  0  0  0
 51 43  1  0  0  0  0
 52 51  2  0  0  0  0
 53 51  1  0  0  0  0
 57 44  1  0  0  0  0
 58 46  1  0  0  0  0
M  END
$$$$
