QRG.pdb
 OpenBabel07022418303D

 49 48  0  0  1  0  0  0  0  0999 V2000
   -1.6290   -5.7300    0.4110 N   0  0  0  0  0  0  0  0  0  0  0  0
   -0.5200   -4.9230    0.1450 C   0  0  0  0  0  0  0  0  0  0  0  0
   -0.0600   -4.9280   -1.0420 O   0  0  0  0  0  0  0  0  0  0  0  0
    0.1680   -4.0640    1.1170 C   0  0  0  0  0  0  0  0  0  0  0  0
    1.3210   -3.3120    0.5410 C   0  0  0  0  0  0  0  0  0  0  0  0
    1.9280   -2.4780    1.6480 C   0  0  2  0  0  0  0  0  0  0  0  0
    2.3630   -3.3810    2.6900 N   0  0  0  0  0  0  0  0  0  0  0  0
    0.8800   -1.6010    2.1960 C   0  0  0  0  0  0  0  0  0  0  0  0
    0.4790   -1.6520    3.3870 O   0  0  0  0  0  0  0  0  0  0  0  0
   -2.5890   -5.3730    0.2350 H   0  0  0  0  0  0  0  0  0  0  0  0
   -1.5040   -6.6880    0.7840 H   0  0  0  0  0  0  0  0  0  0  0  0
    0.5230   -4.7000    1.9530 H   0  0  0  0  0  0  0  0  0  0  0  0
   -0.5380   -3.3140    1.5390 H   0  0  0  0  0  0  0  0  0  0  0  0
    1.0210   -2.6000   -0.2570 H   0  0  0  0  0  0  0  0  0  0  0  0
    2.0900   -3.9720    0.0820 H   0  0  0  0  0  0  0  0  0  0  0  0
    2.7620   -1.8420    1.2870 H   0  0  0  0  0  0  0  0  0  0  0  0
    2.5880   -4.3290    2.3530 H   0  0  0  0  0  0  0  0  0  0  0  0
    3.0700   -2.9870    3.3250 H   0  0  0  0  0  0  0  0  0  0  0  0
    2.7460    2.8900   -1.7320 N   0  0  0  0  0  0  0  0  0  0  0  0
    2.6350    2.8570   -0.3230 C   0  0  0  0  0  0  0  0  0  0  0  0
    3.4980    2.1940    0.3670 N   0  0  0  0  0  0  0  0  0  0  0  0
    1.5880    3.5450    0.3330 N   0  0  0  0  0  0  0  0  0  0  0  0
    1.4130    3.4340    1.7650 C   0  0  0  0  0  0  0  0  0  0  0  0
    0.9780    2.0390    2.1100 C   0  0  0  0  0  0  0  0  0  0  0  0
   -0.3310    1.6710    1.4430 C   0  0  0  0  0  0  0  0  0  0  0  0
   -0.7590    0.2660    1.7980 C   0  0  2  0  0  0  0  0  0  0  0  0
    0.2770   -0.6400    1.3520 N   0  0  0  0  0  0  0  0  0  0  0  0
   -1.9680   -0.0110    0.9430 C   0  0  0  0  0  0  0  0  0  0  0  0
   -2.9980    0.6690    1.1510 O   0  0  0  0  0  0  0  0  0  0  0  0
    3.2710    3.6500   -2.2410 H   0  0  0  0  0  0  0  0  0  0  0  0
    2.3140    2.1650   -2.3420 H   0  0  0  0  0  0  0  0  0  0  0  0
    4.2790    1.6780   -0.0930 H   0  0  0  0  0  0  0  0  0  0  0  0
    0.9400    4.1360   -0.2190 H   0  0  0  0  0  0  0  0  0  0  0  0
    0.6610    4.1860    2.1160 H   0  0  0  0  0  0  0  0  0  0  0  0
    2.3940    3.6100    2.2530 H   0  0  0  0  0  0  0  0  0  0  0  0
    1.7570    1.3420    1.7540 H   0  0  0  0  0  0  0  0  0  0  0  0
    0.8580    1.9280    3.1950 H   0  0  0  0  0  0  0  0  0  0  0  0
   -1.1370    2.3830    1.7110 H   0  0  0  0  0  0  0  0  0  0  0  0
   -0.1920    1.7100    0.3450 H   0  0  0  0  0  0  0  0  0  0  0  0
   -0.9960    0.1270    2.8650 H   0  0  0  0  0  0  0  0  0  0  0  0
    0.5670   -0.5480    0.3430 H   0  0  0  0  0  0  0  0  0  0  0  0
   -1.9950   -0.9850   -0.0630 N   0  0  0  0  0  0  0  0  0  0  0  0
   -3.1610   -1.2500   -0.8870 C   0  0  0  0  0  0  0  0  0  0  0  0
   -3.5740   -0.0550   -1.6540 C   0  0  0  0  0  0  0  0  0  0  0  0
   -2.9510    1.0480   -1.5700 O   0  0  0  0  0  0  0  0  0  0  0  0
   -4.6690   -0.0990   -2.5000 O   0  0  0  0  0  0  0  0  0  0  0  0
   -1.1330   -1.5480   -0.2290 H   0  0  0  0  0  0  0  0  0  0  0  0
   -4.0440   -1.5690   -0.2760 H   0  0  0  0  0  0  0  0  0  0  0  0
   -2.9630   -2.0530   -1.6010 H   0  0  0  0  0  0  0  0  0  0  0  0
  1 11  1  0  0  0  0
  2  1  1  0  0  0  0
  2  4  1  0  0  0  0
  3  2  2  0  0  0  0
  4 13  1  0  0  0  0
  4 12  1  0  0  0  0
  5  4  1  0  0  0  0
  5  6  1  0  0  0  0
  6 16  1  6  0  0  0
  6  8  1  0  0  0  0
  6  7  1  0  0  0  0
  7 18  1  0  0  0  0
  8  9  2  0  0  0  0
 10  1  1  0  0  0  0
 14  5  1  0  0  0  0
 15  5  1  0  0  0  0
 17  7  1  0  0  0  0
 19 20  1  0  0  0  0
 20 22  1  0  0  0  0
 20 21  2  0  0  0  0
 22 23  1  0  0  0  0
 23 24  1  0  0  0  0
 23 34  1  0  0  0  0
 23 35  1  0  0  0  0
 24 37  1  0  0  0  0
 25 38  1  0  0  0  0
 25 26  1  0  0  0  0
 25 24  1  0  0  0  0
 26 40  1  1  0  0  0
 27 26  1  0  0  0  0
 27  8  1  0  0  0  0
 28 29  2  0  0  0  0
 28 26  1  0  0  0  0
 30 19  1  0  0  0  0
 31 19  1  0  0  0  0
 32 21  1  0  0  0  0
 33 22  1  0  0  0  0
 36 24  1  0  0  0  0
 39 25  1  0  0  0  0
 41 27  1  0  0  0  0
 42 28  1  0  0  0  0
 43 48  1  0  0  0  0
 43 42  1  0  0  0  0
 44 45  1  0  0  0  0
 44 43  1  0  0  0  0
 46 44  2  0  0  0  0
 47 42  1  0  0  0  0
 49 43  1  0  0  0  0
M  END
$$$$
