QRI.pdb
 OpenBabel07022418303D

 61 60  0  0  1  0  0  0  0  0999 V2000
   -0.9020   -2.5790    5.2320 N   0  0  0  0  0  0  0  0  0  0  0  0
    0.2070   -1.8830    4.6550 C   0  0  0  0  0  0  0  0  0  0  0  0
    0.9360   -1.2570    5.4490 O   0  0  0  0  0  0  0  0  0  0  0  0
    0.4660   -1.9090    3.2280 C   0  0  0  0  0  0  0  0  0  0  0  0
    1.4110   -0.9200    2.6670 C   0  0  0  0  0  0  0  0  0  0  0  0
    1.0580    0.5150    2.7720 C   0  0  2  0  0  0  0  0  0  0  0  0
    0.9030    0.9380    4.1360 N   0  0  0  0  0  0  0  0  0  0  0  0
   -0.1370    0.8870    1.9690 C   0  0  0  0  0  0  0  0  0  0  0  0
   -1.1070    1.4170    2.5680 O   0  0  0  0  0  0  0  0  0  0  0  0
   -0.9710   -3.6210    5.2000 H   0  0  0  0  0  0  0  0  0  0  0  0
   -1.6740   -2.0680    5.7000 H   0  0  0  0  0  0  0  0  0  0  0  0
    0.7880   -2.9480    2.9000 H   0  0  0  0  0  0  0  0  0  0  0  0
   -0.5070   -1.7770    2.6830 H   0  0  0  0  0  0  0  0  0  0  0  0
    1.6260   -1.1370    1.5910 H   0  0  0  0  0  0  0  0  0  0  0  0
    2.3950   -1.0530    3.1980 H   0  0  0  0  0  0  0  0  0  0  0  0
    1.9460    1.0970    2.3800 H   0  0  0  0  0  0  0  0  0  0  0  0
    1.8060    1.2550    4.5400 H   0  0  0  0  0  0  0  0  0  0  0  0
    0.2170    1.7400    4.1840 H   0  0  0  0  0  0  0  0  0  0  0  0
    4.1400    1.7050   -2.2210 N   0  0  0  0  0  0  0  0  0  0  0  0
    3.2260    2.1660   -1.2350 C   0  0  0  0  0  0  0  0  0  0  0  0
    3.6400    2.4730   -0.0280 N   0  0  0  0  0  0  0  0  0  0  0  0
    1.8610    2.2780   -1.6100 N   0  0  0  0  0  0  0  0  0  0  0  0
    0.9840    3.0940   -0.7840 C   0  0  0  0  0  0  0  0  0  0  0  0
   -0.4040    3.0920   -1.3310 C   0  0  0  0  0  0  0  0  0  0  0  0
   -1.0800    1.7830   -1.4470 C   0  0  0  0  0  0  0  0  0  0  0  0
   -1.3110    1.0100   -0.1870 C   0  0  2  0  0  0  0  0  0  0  0  0
   -0.1650    0.6460    0.5620 N   0  0  0  0  0  0  0  0  0  0  0  0
   -2.1220   -0.1970   -0.5860 C   0  0  0  0  0  0  0  0  0  0  0  0
   -3.1650    0.0400   -1.2490 O   0  0  0  0  0  0  0  0  0  0  0  0
    4.6900    0.8490   -1.9970 H   0  0  0  0  0  0  0  0  0  0  0  0
    4.3030    2.1490   -3.1400 H   0  0  0  0  0  0  0  0  0  0  0  0
    2.9980    2.8080    0.7020 H   0  0  0  0  0  0  0  0  0  0  0  0
    1.4660    1.7980   -2.4520 H   0  0  0  0  0  0  0  0  0  0  0  0
    0.9860    2.8050    0.2540 H   0  0  0  0  0  0  0  0  0  0  0  0
    1.4380    4.1300   -0.8170 H   0  0  0  0  0  0  0  0  0  0  0  0
   -1.0800    3.7560   -0.7110 H   0  0  0  0  0  0  0  0  0  0  0  0
   -0.3580    3.6440   -2.3130 H   0  0  0  0  0  0  0  0  0  0  0  0
   -0.5600    1.0780   -2.1510 H   0  0  0  0  0  0  0  0  0  0  0  0
   -2.0620    1.9760   -1.9860 H   0  0  0  0  0  0  0  0  0  0  0  0
   -2.0410    1.6010    0.4460 H   0  0  0  0  0  0  0  0  0  0  0  0
    0.6680    0.2060    0.1300 H   0  0  0  0  0  0  0  0  0  0  0  0
   -0.5540   -4.8160    0.3660 C   0  0  0  0  0  0  0  0  0  0  0  0
   -0.5180   -4.2120   -0.9980 C   0  0  0  0  0  0  0  0  0  0  0  0
   -1.7810   -3.6040   -1.4830 C   0  0  2  0  0  0  0  0  0  0  0  0
   -1.5390   -3.0550   -2.8820 C   0  0  0  0  0  0  0  0  0  0  0  0
   -2.4750   -2.6380   -0.6010 C   0  0  2  0  0  0  0  0  0  0  0  0
   -1.7110   -1.5000   -0.2240 N   0  0  0  0  0  0  0  0  0  0  0  0
   -3.0720   -3.3160    0.5670 C   0  0  0  0  0  0  0  0  0  0  0  0
   -3.7940   -4.3470    0.4220 O   0  0  0  0  0  0  0  0  0  0  0  0
   -2.8880   -2.8770    1.8650 O   0  0  0  0  0  0  0  0  0  0  0  0
    0.3720   -5.4640    0.5390 H   0  0  0  0  0  0  0  0  0  0  0  0
   -1.3890   -5.5290    0.4920 H   0  0  0  0  0  0  0  0  0  0  0  0
   -0.5670   -4.0160    1.1310 H   0  0  0  0  0  0  0  0  0  0  0  0
   -0.2910   -5.0710   -1.7060 H   0  0  0  0  0  0  0  0  0  0  0  0
    0.3680   -3.5420   -1.1300 H   0  0  0  0  0  0  0  0  0  0  0  0
   -2.5010   -4.4650   -1.6500 H   0  0  0  0  0  0  0  0  0  0  0  0
   -2.3820   -2.4840   -3.2720 H   0  0  0  0  0  0  0  0  0  0  0  0
   -0.5880   -2.4970   -2.8490 H   0  0  0  0  0  0  0  0  0  0  0  0
   -1.3510   -3.9450   -3.5300 H   0  0  0  0  0  0  0  0  0  0  0  0
   -3.3560   -2.2030   -1.2160 H   0  0  0  0  0  0  0  0  0  0  0  0
   -0.8280   -1.5790    0.3250 H   0  0  0  0  0  0  0  0  0  0  0  0
  1 11  1  0  0  0  0
  2  1  1  0  0  0  0
  2  3  2  0  0  0  0
  4  2  1  0  0  0  0
  5  6  1  0  0  0  0
  5 15  1  0  0  0  0
  5  4  1  0  0  0  0
  6 16  1  6  0  0  0
  6  7  1  0  0  0  0
  7 18  1  0  0  0  0
  7 17  1  0  0  0  0
  8  9  2  0  0  0  0
  8  6  1  0  0  0  0
 10  1  1  0  0  0  0
 12  4  1  0  0  0  0
 13  4  1  0  0  0  0
 14  5  1  0  0  0  0
 19 30  1  0  0  0  0
 19 20  1  0  0  0  0
 20 21  2  0  0  0  0
 21 32  1  0  0  0  0
 22 20  1  0  0  0  0
 22 23  1  0  0  0  0
 23 34  1  0  0  0  0
 24 23  1  0  0  0  0
 24 36  1  0  0  0  0
 25 24  1  0  0  0  0
 25 26  1  0  0  0  0
 26 40  1  1  0  0  0
 26 27  1  0  0  0  0
 27  8  1  0  0  0  0
 28 47  1  0  0  0  0
 28 26  1  0  0  0  0
 29 28  2  0  0  0  0
 31 19  1  0  0  0  0
 33 22  1  0  0  0  0
 35 23  1  0  0  0  0
 37 24  1  0  0  0  0
 38 25  1  0  0  0  0
 39 25  1  0  0  0  0
 41 27  1  0  0  0  0
 42 52  1  0  0  0  0
 42 51  1  0  0  0  0
 42 53  1  0  0  0  0
 43 42  1  0  0  0  0
 44 56  1  6  0  0  0
 44 43  1  0  0  0  0
 44 46  1  0  0  0  0
 45 58  1  0  0  0  0
 45 44  1  0  0  0  0
 46 60  1  6  0  0  0
 46 47  1  0  0  0  0
 46 48  1  0  0  0  0
 47 61  1  0  0  0  0
 48 50  1  0  0  0  0
 49 48  2  0  0  0  0
 54 43  1  0  0  0  0
 55 43  1  0  0  0  0
 57 45  1  0  0  0  0
 59 45  1  0  0  0  0
M  END
$$$$
