QRK.pdb
 OpenBabel07022418303D

 63 62  0  0  1  0  0  0  0  0999 V2000
   -3.5470   -0.8300    5.0980 N   0  0  0  0  0  0  0  0  0  0  0  0
   -2.1990   -0.8740    5.5340 C   0  0  0  0  0  0  0  0  0  0  0  0
   -1.8900   -0.2210    6.5400 O   0  0  0  0  0  0  0  0  0  0  0  0
   -1.2440   -1.6810    4.7870 C   0  0  0  0  0  0  0  0  0  0  0  0
    0.1930   -1.4920    5.0960 C   0  0  0  0  0  0  0  0  0  0  0  0
    0.7650   -0.1400    4.8320 C   0  0  2  0  0  0  0  0  0  0  0  0
    0.1790    0.9390    5.5470 N   0  0  0  0  0  0  0  0  0  0  0  0
    0.7220    0.0950    3.3400 C   0  0  0  0  0  0  0  0  0  0  0  0
    0.1440    1.1280    2.9140 O   0  0  0  0  0  0  0  0  0  0  0  0
   -3.8420   -0.1460    4.3740 H   0  0  0  0  0  0  0  0  0  0  0  0
   -4.2630   -1.4730    5.4880 H   0  0  0  0  0  0  0  0  0  0  0  0
   -1.4890   -2.7650    4.9740 H   0  0  0  0  0  0  0  0  0  0  0  0
   -1.4000   -1.5450    3.6720 H   0  0  0  0  0  0  0  0  0  0  0  0
    0.4130   -1.8380    6.1390 H   0  0  0  0  0  0  0  0  0  0  0  0
    0.7690   -2.2220    4.4570 H   0  0  0  0  0  0  0  0  0  0  0  0
    1.8660   -0.1820    5.0600 H   0  0  0  0  0  0  0  0  0  0  0  0
    0.7360    1.1890    6.3980 H   0  0  0  0  0  0  0  0  0  0  0  0
   -0.1150    1.7500    4.9950 H   0  0  0  0  0  0  0  0  0  0  0  0
    2.9410    3.7820   -2.4730 N   0  0  0  0  0  0  0  0  0  0  0  0
    2.6170    3.3440   -1.1410 C   0  0  0  0  0  0  0  0  0  0  0  0
    1.9380    4.1080   -0.3600 N   0  0  0  0  0  0  0  0  0  0  0  0
    3.0290    2.0800   -0.6590 N   0  0  0  0  0  0  0  0  0  0  0  0
    3.1010    1.7620    0.7480 C   0  0  0  0  0  0  0  0  0  0  0  0
    3.5670    0.3640    1.0020 C   0  0  0  0  0  0  0  0  0  0  0  0
    2.6720   -0.6780    0.3970 C   0  0  0  0  0  0  0  0  0  0  0  0
    1.2770   -0.5920    0.9660 C   0  0  2  0  0  0  0  0  0  0  0  0
    1.3080   -0.8040    2.4160 N   0  0  0  0  0  0  0  0  0  0  0  0
    0.4080   -1.6420    0.3780 C   0  0  0  0  0  0  0  0  0  0  0  0
   -0.1220   -2.4830    1.1370 O   0  0  0  0  0  0  0  0  0  0  0  0
    2.2100    4.2070   -3.0650 H   0  0  0  0  0  0  0  0  0  0  0  0
    3.9150    3.6550   -2.8000 H   0  0  0  0  0  0  0  0  0  0  0  0
    1.6900    3.8280    0.5920 H   0  0  0  0  0  0  0  0  0  0  0  0
    3.2950    1.3410   -1.3660 H   0  0  0  0  0  0  0  0  0  0  0  0
    2.1600    1.9730    1.2820 H   0  0  0  0  0  0  0  0  0  0  0  0
    3.8680    2.4430    1.2190 H   0  0  0  0  0  0  0  0  0  0  0  0
    3.5880    0.2140    2.1230 H   0  0  0  0  0  0  0  0  0  0  0  0
    4.5920    0.1690    0.6680 H   0  0  0  0  0  0  0  0  0  0  0  0
    2.6100   -0.4630   -0.7050 H   0  0  0  0  0  0  0  0  0  0  0  0
    3.0750   -1.6920    0.4780 H   0  0  0  0  0  0  0  0  0  0  0  0
    0.8240    0.3690    0.7080 H   0  0  0  0  0  0  0  0  0  0  0  0
    1.7840   -1.6550    2.8180 H   0  0  0  0  0  0  0  0  0  0  0  0
    0.1470   -1.7390   -1.0120 N   0  0  0  0  0  0  0  0  0  0  0  0
   -0.7200   -2.7900   -1.5780 C   0  0  1  0  0  0  0  0  0  0  0  0
   -1.9430   -2.1500   -2.2050 C   0  0  0  0  0  0  0  0  0  0  0  0
   -2.9040   -3.0970   -2.8100 C   0  0  0  0  0  0  0  0  0  0  0  0
   -4.1060   -2.3980   -3.3810 C   0  0  0  0  0  0  0  0  0  0  0  0
   -3.6890   -1.4430   -4.4460 C   0  0  0  0  0  0  0  0  0  0  0  0
   -4.8390   -0.7560   -5.0420 N   0  0  0  0  0  0  0  0  0  0  0  0
    0.0730   -3.6180   -2.4740 C   0  0  0  0  0  0  0  0  0  0  0  0
   -0.4300   -4.6010   -3.0620 O   0  0  0  0  0  0  0  0  0  0  0  0
    1.4230   -3.3660   -2.7270 O   0  0  0  0  0  0  0  0  0  0  0  0
    0.5970   -1.0280   -1.6290 H   0  0  0  0  0  0  0  0  0  0  0  0
   -1.0500   -3.3970   -0.7120 H   0  0  0  0  0  0  0  0  0  0  0  0
   -1.5050   -1.4480   -2.9800 H   0  0  0  0  0  0  0  0  0  0  0  0
   -2.4040   -1.4800   -1.4540 H   0  0  0  0  0  0  0  0  0  0  0  0
   -2.4770   -3.7350   -3.6100 H   0  0  0  0  0  0  0  0  0  0  0  0
   -3.2790   -3.7660   -1.9850 H   0  0  0  0  0  0  0  0  0  0  0  0
   -4.8800   -3.1210   -3.7130 H   0  0  0  0  0  0  0  0  0  0  0  0
   -4.5820   -1.7920   -2.5680 H   0  0  0  0  0  0  0  0  0  0  0  0
   -3.0780   -1.9510   -5.1930 H   0  0  0  0  0  0  0  0  0  0  0  0
   -3.0300   -0.6630   -3.9590 H   0  0  0  0  0  0  0  0  0  0  0  0
   -5.6230   -0.8700   -4.3530 H   0  0  0  0  0  0  0  0  0  0  0  0
   -4.5760    0.2440   -5.1770 H   0  0  0  0  0  0  0  0  0  0  0  0
  1 11  1  0  0  0  0
  1  2  1  0  0  0  0
  2  3  2  0  0  0  0
  4 12  1  0  0  0  0
  4  5  1  0  0  0  0
  4  2  1  0  0  0  0
  5 14  1  0  0  0  0
  6 16  1  1  0  0  0
  6  5  1  0  0  0  0
  6  7  1  0  0  0  0
  7 17  1  0  0  0  0
  8  6  1  0  0  0  0
  9  8  2  0  0  0  0
 10  1  1  0  0  0  0
 13  4  1  0  0  0  0
 15  5  1  0  0  0  0
 18  7  1  0  0  0  0
 19 20  1  0  0  0  0
 20 22  1  0  0  0  0
 20 21  2  0  0  0  0
 21 32  1  0  0  0  0
 22 23  1  0  0  0  0
 23 24  1  0  0  0  0
 23 35  1  0  0  0  0
 23 34  1  0  0  0  0
 24 36  1  0  0  0  0
 25 39  1  0  0  0  0
 25 26  1  0  0  0  0
 25 24  1  0  0  0  0
 26 40  1  6  0  0  0
 26 27  1  0  0  0  0
 27 41  1  0  0  0  0
 27  8  1  0  0  0  0
 28 26  1  0  0  0  0
 28 29  2  0  0  0  0
 30 19  1  0  0  0  0
 31 19  1  0  0  0  0
 33 22  1  0  0  0  0
 37 24  1  0  0  0  0
 38 25  1  0  0  0  0
 42 28  1  0  0  0  0
 43 42  1  0  0  0  0
 43 53  1  1  0  0  0
 44 43  1  0  0  0  0
 44 55  1  0  0  0  0
 45 44  1  0  0  0  0
 45 57  1  0  0  0  0
 46 45  1  0  0  0  0
 46 59  1  0  0  0  0
 47 61  1  0  0  0  0
 47 46  1  0  0  0  0
 48 47  1  0  0  0  0
 48 62  1  0  0  0  0
 49 43  1  0  0  0  0
 50 49  2  0  0  0  0
 51 49  1  0  0  0  0
 52 42  1  0  0  0  0
 54 44  1  0  0  0  0
 56 45  1  0  0  0  0
 58 46  1  0  0  0  0
 60 47  1  0  0  0  0
 63 48  1  0  0  0  0
M  END
$$$$
