QRL.pdb
 OpenBabel07022418303D

 61 60  0  0  1  0  0  0  0  0999 V2000
    3.3080   -6.4670    0.9230 N   0  0  0  0  0  0  0  0  0  0  0  0
    2.6750   -5.2100    1.0760 C   0  0  0  0  0  0  0  0  0  0  0  0
    1.5480   -5.1730    1.6310 O   0  0  0  0  0  0  0  0  0  0  0  0
    3.3650   -3.9930    0.5780 C   0  0  0  0  0  0  0  0  0  0  0  0
    2.4650   -2.7940    0.8710 C   0  0  0  0  0  0  0  0  0  0  0  0
    3.1240   -1.5170    0.3810 C   0  0  2  0  0  0  0  0  0  0  0  0
    4.3990   -1.3220    1.0520 N   0  0  0  0  0  0  0  0  0  0  0  0
    2.1990   -0.3960    0.6370 C   0  0  0  0  0  0  0  0  0  0  0  0
    2.5600    0.5550    1.3560 O   0  0  0  0  0  0  0  0  0  0  0  0
    3.4020   -7.1410    1.7030 H   0  0  0  0  0  0  0  0  0  0  0  0
    3.6880   -6.7130   -0.0100 H   0  0  0  0  0  0  0  0  0  0  0  0
    3.3750   -4.0860   -0.5410 H   0  0  0  0  0  0  0  0  0  0  0  0
    4.3590   -3.8710    1.0060 H   0  0  0  0  0  0  0  0  0  0  0  0
    2.2310   -2.7070    1.9490 H   0  0  0  0  0  0  0  0  0  0  0  0
    1.5130   -2.8880    0.3270 H   0  0  0  0  0  0  0  0  0  0  0  0
    3.3580   -1.6460   -0.7070 H   0  0  0  0  0  0  0  0  0  0  0  0
    4.8470   -0.4910    0.5910 H   0  0  0  0  0  0  0  0  0  0  0  0
    4.2800   -1.1160    2.0550 H   0  0  0  0  0  0  0  0  0  0  0  0
    2.4120    5.3970    0.1440 N   0  0  0  0  0  0  0  0  0  0  0  0
    1.0190    5.1810    0.1790 C   0  0  0  0  0  0  0  0  0  0  0  0
    0.2520    5.9530    0.8670 N   0  0  0  0  0  0  0  0  0  0  0  0
    0.4170    4.1090   -0.5410 N   0  0  0  0  0  0  0  0  0  0  0  0
   -0.8290    3.5650   -0.0880 C   0  0  0  0  0  0  0  0  0  0  0  0
   -1.2830    2.4430   -0.9930 C   0  0  0  0  0  0  0  0  0  0  0  0
   -0.3020    1.3050   -1.0520 C   0  0  0  0  0  0  0  0  0  0  0  0
   -0.0460    0.6650    0.2810 C   0  0  2  0  0  0  0  0  0  0  0  0
    0.9130   -0.4080    0.0680 N   0  0  0  0  0  0  0  0  0  0  0  0
   -1.2470    0.0880    0.8980 C   0  0  0  0  0  0  0  0  0  0  0  0
   -2.2050    0.8570    1.1670 O   0  0  0  0  0  0  0  0  0  0  0  0
    2.8480    6.0140    0.8510 H   0  0  0  0  0  0  0  0  0  0  0  0
    3.0160    4.9540   -0.5730 H   0  0  0  0  0  0  0  0  0  0  0  0
    0.6360    6.7560    1.4150 H   0  0  0  0  0  0  0  0  0  0  0  0
    0.8930    3.7370   -1.3840 H   0  0  0  0  0  0  0  0  0  0  0  0
   -1.5910    4.3670   -0.1560 H   0  0  0  0  0  0  0  0  0  0  0  0
   -0.7250    3.1620    0.9360 H   0  0  0  0  0  0  0  0  0  0  0  0
   -1.3000    2.8850   -2.0330 H   0  0  0  0  0  0  0  0  0  0  0  0
   -2.3090    2.1220   -0.7950 H   0  0  0  0  0  0  0  0  0  0  0  0
    0.6600    1.7120   -1.4260 H   0  0  0  0  0  0  0  0  0  0  0  0
   -0.6600    0.5980   -1.8170 H   0  0  0  0  0  0  0  0  0  0  0  0
    0.4340    1.4040    0.9280 H   0  0  0  0  0  0  0  0  0  0  0  0
    0.6440   -1.2120   -0.5230 H   0  0  0  0  0  0  0  0  0  0  0  0
   -4.6760   -1.3740   -0.2790 C   0  0  0  0  0  0  0  0  0  0  0  0
   -3.6120   -2.4270   -0.4190 C   0  0  0  0  0  0  0  0  0  0  0  0
   -4.2700   -3.6060   -1.1510 C   0  0  0  0  0  0  0  0  0  0  0  0
   -3.1440   -2.9550    0.8910 C   0  0  0  0  0  0  0  0  0  0  0  0
   -2.5350   -1.9050    1.8070 C   0  0  2  0  0  0  0  0  0  0  0  0
   -1.3840   -1.2800    1.2040 N   0  0  0  0  0  0  0  0  0  0  0  0
   -2.2550   -2.4450    3.1460 C   0  0  0  0  0  0  0  0  0  0  0  0
   -3.1700   -3.0150    3.7820 O   0  0  0  0  0  0  0  0  0  0  0  0
   -1.0150   -2.3570    3.7500 O   0  0  0  0  0  0  0  0  0  0  0  0
   -5.5590   -1.8750    0.1910 H   0  0  0  0  0  0  0  0  0  0  0  0
   -4.4190   -0.5240    0.3480 H   0  0  0  0  0  0  0  0  0  0  0  0
   -4.9640   -0.9790   -1.2730 H   0  0  0  0  0  0  0  0  0  0  0  0
   -2.7820   -2.1070   -1.0830 H   0  0  0  0  0  0  0  0  0  0  0  0
   -4.5360   -3.2430   -2.1670 H   0  0  0  0  0  0  0  0  0  0  0  0
   -5.2080   -3.8480   -0.6300 H   0  0  0  0  0  0  0  0  0  0  0  0
   -3.5640   -4.4460   -1.2110 H   0  0  0  0  0  0  0  0  0  0  0  0
   -3.9890   -3.4730    1.3770 H   0  0  0  0  0  0  0  0  0  0  0  0
   -2.3460   -3.7170    0.6730 H   0  0  0  0  0  0  0  0  0  0  0  0
   -3.3020   -1.1130    1.9400 H   0  0  0  0  0  0  0  0  0  0  0  0
   -0.5780   -1.9050    0.9740 H   0  0  0  0  0  0  0  0  0  0  0  0
  1  2  1  0  0  0  0
  1 10  1  0  0  0  0
  2  3  2  0  0  0  0
  4  5  1  0  0  0  0
  4 13  1  0  0  0  0
  4  2  1  0  0  0  0
  5 14  1  0  0  0  0
  6 16  1  6  0  0  0
  6  8  1  0  0  0  0
  6  5  1  0  0  0  0
  6  7  1  0  0  0  0
  7 18  1  0  0  0  0
  8  9  2  0  0  0  0
 11  1  1  0  0  0  0
 12  4  1  0  0  0  0
 15  5  1  0  0  0  0
 17  7  1  0  0  0  0
 19 20  1  0  0  0  0
 19 30  1  0  0  0  0
 20 21  2  0  0  0  0
 21 32  1  0  0  0  0
 22 23  1  0  0  0  0
 22 20  1  0  0  0  0
 23 35  1  0  0  0  0
 24 37  1  0  0  0  0
 24 23  1  0  0  0  0
 25 24  1  0  0  0  0
 25 26  1  0  0  0  0
 26 28  1  0  0  0  0
 26 40  1  1  0  0  0
 27 26  1  0  0  0  0
 27  8  1  0  0  0  0
 28 29  2  0  0  0  0
 28 47  1  0  0  0  0
 31 19  1  0  0  0  0
 33 22  1  0  0  0  0
 34 23  1  0  0  0  0
 36 24  1  0  0  0  0
 38 25  1  0  0  0  0
 39 25  1  0  0  0  0
 41 27  1  0  0  0  0
 42 51  1  0  0  0  0
 42 52  1  0  0  0  0
 43 42  1  0  0  0  0
 43 45  1  0  0  0  0
 44 56  1  0  0  0  0
 44 43  1  0  0  0  0
 45 58  1  0  0  0  0
 45 46  1  0  0  0  0
 46 60  1  1  0  0  0
 46 48  1  0  0  0  0
 47 46  1  0  0  0  0
 48 50  2  0  0  0  0
 48 49  1  0  0  0  0
 53 42  1  0  0  0  0
 54 43  1  0  0  0  0
 55 44  1  0  0  0  0
 57 44  1  0  0  0  0
 59 45  1  0  0  0  0
 61 47  1  0  0  0  0
M  END
$$$$
