QRN.pdb
 OpenBabel07022418303D

 56 55  0  0  1  0  0  0  0  0999 V2000
    2.5840   -4.7140    1.1990 N   0  0  0  0  0  0  0  0  0  0  0  0
    2.9580   -3.4690    1.7900 C   0  0  0  0  0  0  0  0  0  0  0  0
    3.7300   -3.3850    2.7640 O   0  0  0  0  0  0  0  0  0  0  0  0
    2.3530   -2.2310    1.1590 C   0  0  0  0  0  0  0  0  0  0  0  0
    2.8960   -1.0580    1.8840 C   0  0  0  0  0  0  0  0  0  0  0  0
    2.4680    0.2960    1.4230 C   0  0  2  0  0  0  0  0  0  0  0  0
    3.2080    1.2220    2.3490 N   0  0  0  0  0  0  0  0  0  0  0  0
    1.0640    0.6450    1.5880 C   0  0  0  0  0  0  0  0  0  0  0  0
    0.6930    1.2770    2.6330 O   0  0  0  0  0  0  0  0  0  0  0  0
    2.7110   -4.8250    0.1780 H   0  0  0  0  0  0  0  0  0  0  0  0
    2.1910   -5.5150    1.7400 H   0  0  0  0  0  0  0  0  0  0  0  0
    1.2820   -2.3320    1.3220 H   0  0  0  0  0  0  0  0  0  0  0  0
    2.5480   -2.2340    0.0780 H   0  0  0  0  0  0  0  0  0  0  0  0
    2.6570   -1.1140    2.9850 H   0  0  0  0  0  0  0  0  0  0  0  0
    4.0230   -1.0940    1.7770 H   0  0  0  0  0  0  0  0  0  0  0  0
    2.8450    0.5200    0.3980 H   0  0  0  0  0  0  0  0  0  0  0  0
    4.1550    0.8430    2.4840 H   0  0  0  0  0  0  0  0  0  0  0  0
    2.6780    1.2530    3.2480 H   0  0  0  0  0  0  0  0  0  0  0  0
    1.3180    0.8190   -4.1500 N   0  0  0  0  0  0  0  0  0  0  0  0
    1.3480    1.6580   -3.0090 C   0  0  0  0  0  0  0  0  0  0  0  0
    2.4580    2.2060   -2.6060 N   0  0  0  0  0  0  0  0  0  0  0  0
    0.1380    1.8900   -2.3090 N   0  0  0  0  0  0  0  0  0  0  0  0
    0.0810    2.7220   -1.1080 C   0  0  0  0  0  0  0  0  0  0  0  0
   -1.2920    2.8160   -0.5490 C   0  0  0  0  0  0  0  0  0  0  0  0
   -1.9720    1.5600   -0.1560 C   0  0  0  0  0  0  0  0  0  0  0  0
   -1.3330    0.7910    0.9400 C   0  0  2  0  0  0  0  0  0  0  0  0
   -0.0000    0.3560    0.6590 N   0  0  0  0  0  0  0  0  0  0  0  0
   -2.2030   -0.3800    1.3150 C   0  0  0  0  0  0  0  0  0  0  0  0
   -3.3660   -0.1900    1.7800 O   0  0  0  0  0  0  0  0  0  0  0  0
    1.9310   -0.0210   -4.1610 H   0  0  0  0  0  0  0  0  0  0  0  0
    0.7100    1.0120   -4.9700 H   0  0  0  0  0  0  0  0  0  0  0  0
    3.3220    2.0150   -3.1400 H   0  0  0  0  0  0  0  0  0  0  0  0
   -0.7460    1.4670   -2.6420 H   0  0  0  0  0  0  0  0  0  0  0  0
    0.8870    2.4500   -0.4250 H   0  0  0  0  0  0  0  0  0  0  0  0
    0.4060    3.7570   -1.4940 H   0  0  0  0  0  0  0  0  0  0  0  0
   -1.9200    3.3540   -1.3270 H   0  0  0  0  0  0  0  0  0  0  0  0
   -1.2720    3.5630    0.2990 H   0  0  0  0  0  0  0  0  0  0  0  0
   -3.0740    1.7400    0.0490 H   0  0  0  0  0  0  0  0  0  0  0  0
   -2.0090    0.8460   -1.0450 H   0  0  0  0  0  0  0  0  0  0  0  0
   -1.3290    1.4530    1.8630 H   0  0  0  0  0  0  0  0  0  0  0  0
    0.2180   -0.1610   -0.1940 H   0  0  0  0  0  0  0  0  0  0  0  0
   -5.0420   -3.3060   -0.9180 N   0  0  0  0  0  0  0  0  0  0  0  0
   -3.6710   -3.1380   -0.6860 C   0  0  0  0  0  0  0  0  0  0  0  0
   -3.0220   -2.3920   -1.4880 O   0  0  0  0  0  0  0  0  0  0  0  0
   -2.9290   -3.7740    0.4330 C   0  0  0  0  0  0  0  0  0  0  0  0
   -2.6090   -2.8410    1.5360 C   0  0  2  0  0  0  0  0  0  0  0  0
   -1.7890   -1.7100    1.1730 N   0  0  0  0  0  0  0  0  0  0  0  0
   -1.9160   -3.5670    2.6280 C   0  0  0  0  0  0  0  0  0  0  0  0
   -2.4430   -4.6080    3.1220 O   0  0  0  0  0  0  0  0  0  0  0  0
   -0.6930   -3.1700    3.1600 O   0  0  0  0  0  0  0  0  0  0  0  0
   -5.5120   -4.2060   -0.7370 H   0  0  0  0  0  0  0  0  0  0  0  0
   -5.6000   -2.5110   -1.2790 H   0  0  0  0  0  0  0  0  0  0  0  0
   -3.5980   -4.5630    0.8380 H   0  0  0  0  0  0  0  0  0  0  0  0
   -2.0270   -4.3310    0.0540 H   0  0  0  0  0  0  0  0  0  0  0  0
   -3.5790   -2.4740    1.9540 H   0  0  0  0  0  0  0  0  0  0  0  0
   -0.8530   -1.9070    0.7700 H   0  0  0  0  0  0  0  0  0  0  0  0
  1 11  1  0  0  0  0
  1  2  1  0  0  0  0
  2  3  2  0  0  0  0
  4 12  1  0  0  0  0
  4  2  1  0  0  0  0
  4  5  1  0  0  0  0
  5 14  1  0  0  0  0
  6 16  1  6  0  0  0
  6  8  1  0  0  0  0
  6  5  1  0  0  0  0
  6  7  1  0  0  0  0
  7 17  1  0  0  0  0
  7 18  1  0  0  0  0
  8  9  2  0  0  0  0
 10  1  1  0  0  0  0
 13  4  1  0  0  0  0
 15  5  1  0  0  0  0
 19 20  1  0  0  0  0
 20 21  2  0  0  0  0
 20 22  1  0  0  0  0
 22 23  1  0  0  0  0
 23 24  1  0  0  0  0
 23 34  1  0  0  0  0
 24 25  1  0  0  0  0
 24 37  1  0  0  0  0
 25 38  1  0  0  0  0
 25 26  1  0  0  0  0
 26 28  1  0  0  0  0
 26 40  1  1  0  0  0
 27 26  1  0  0  0  0
 27  8  1  0  0  0  0
 28 29  2  0  0  0  0
 30 19  1  0  0  0  0
 31 19  1  0  0  0  0
 32 21  1  0  0  0  0
 33 22  1  0  0  0  0
 35 23  1  0  0  0  0
 36 24  1  0  0  0  0
 39 25  1  0  0  0  0
 41 27  1  0  0  0  0
 42 51  1  0  0  0  0
 42 43  1  0  0  0  0
 43 45  1  0  0  0  0
 44 43  2  0  0  0  0
 45 53  1  0  0  0  0
 45 46  1  0  0  0  0
 46 55  1  1  0  0  0
 46 48  1  0  0  0  0
 47 28  1  0  0  0  0
 47 46  1  0  0  0  0
 48 49  2  0  0  0  0
 48 50  1  0  0  0  0
 52 42  1  0  0  0  0
 54 45  1  0  0  0  0
 56 47  1  0  0  0  0
M  END
$$$$
