QRP.pdb
 OpenBabel07022418303D

 56 56  0  0  1  0  0  0  0  0999 V2000
    1.3180   -0.7370    6.2740 N   0  0  0  0  0  0  0  0  0  0  0  0
    2.0920   -0.6290    5.0960 C   0  0  0  0  0  0  0  0  0  0  0  0
    3.1260    0.0650    5.0740 O   0  0  0  0  0  0  0  0  0  0  0  0
    1.6940   -1.3470    3.8350 C   0  0  0  0  0  0  0  0  0  0  0  0
    2.7040   -1.0590    2.8000 C   0  0  0  0  0  0  0  0  0  0  0  0
    2.5840   -1.6640    1.4540 C   0  0  2  0  0  0  0  0  0  0  0  0
    3.7810   -1.2190    0.6470 N   0  0  0  0  0  0  0  0  0  0  0  0
    1.3910   -1.3340    0.6830 C   0  0  0  0  0  0  0  0  0  0  0  0
    1.5750   -0.6310   -0.3990 O   0  0  0  0  0  0  0  0  0  0  0  0
    1.1000    0.1640    6.7870 H   0  0  0  0  0  0  0  0  0  0  0  0
    0.9660   -1.6460    6.6420 H   0  0  0  0  0  0  0  0  0  0  0  0
    1.7930   -2.4430    4.1110 H   0  0  0  0  0  0  0  0  0  0  0  0
    0.6590   -1.1470    3.5970 H   0  0  0  0  0  0  0  0  0  0  0  0
    2.8550    0.0540    2.6860 H   0  0  0  0  0  0  0  0  0  0  0  0
    3.7490   -1.3700    3.1780 H   0  0  0  0  0  0  0  0  0  0  0  0
    2.6980   -2.7810    1.5860 H   0  0  0  0  0  0  0  0  0  0  0  0
    4.4970   -1.9730    0.7210 H   0  0  0  0  0  0  0  0  0  0  0  0
    3.4520   -1.1210   -0.3290 H   0  0  0  0  0  0  0  0  0  0  0  0
    1.9670    3.6020   -0.2880 N   0  0  0  0  0  0  0  0  0  0  0  0
    0.8150    3.2480    0.4500 C   0  0  0  0  0  0  0  0  0  0  0  0
   -0.2500    3.9980    0.5360 N   0  0  0  0  0  0  0  0  0  0  0  0
    0.8340    1.9810    1.1400 N   0  0  0  0  0  0  0  0  0  0  0  0
   -0.3550    1.4550    1.7190 C   0  0  0  0  0  0  0  0  0  0  0  0
   -1.4230    1.0440    0.8020 C   0  0  0  0  0  0  0  0  0  0  0  0
   -1.2690   -0.0370   -0.1690 C   0  0  0  0  0  0  0  0  0  0  0  0
   -1.0780   -1.4380    0.2690 C   0  0  2  0  0  0  0  0  0  0  0  0
    0.0940   -1.7280    1.0260 N   0  0  0  0  0  0  0  0  0  0  0  0
   -1.0870   -2.3550   -0.9290 C   0  0  0  0  0  0  0  0  0  0  0  0
    0.0580   -2.8540   -1.1780 O   0  0  0  0  0  0  0  0  0  0  0  0
    2.0700    3.4200   -1.3080 H   0  0  0  0  0  0  0  0  0  0  0  0
    2.7520    4.0690    0.2080 H   0  0  0  0  0  0  0  0  0  0  0  0
   -0.2140    4.9050    0.0180 H   0  0  0  0  0  0  0  0  0  0  0  0
    1.7280    1.4830    1.2090 H   0  0  0  0  0  0  0  0  0  0  0  0
   -0.7770    2.2520    2.3930 H   0  0  0  0  0  0  0  0  0  0  0  0
   -0.0710    0.6200    2.3830 H   0  0  0  0  0  0  0  0  0  0  0  0
   -2.3070    0.7420    1.4760 H   0  0  0  0  0  0  0  0  0  0  0  0
   -1.8890    1.9520    0.2770 H   0  0  0  0  0  0  0  0  0  0  0  0
   -2.1820   -0.0010   -0.8430 H   0  0  0  0  0  0  0  0  0  0  0  0
   -0.4600    0.2730   -0.9190 H   0  0  0  0  0  0  0  0  0  0  0  0
   -2.0010   -1.7170    0.8440 H   0  0  0  0  0  0  0  0  0  0  0  0
   -0.0650   -2.3230    1.8970 H   0  0  0  0  0  0  0  0  0  0  0  0
   -2.1900   -2.6570   -1.7050 N   0  0  0  0  0  0  0  0  0  0  0  0
   -3.5620   -2.2100   -1.4030 C   0  0  0  0  0  0  0  0  0  0  0  0
   -3.9120   -1.5340   -2.7060 C   0  0  0  0  0  0  0  0  0  0  0  0
   -3.1180   -2.3000   -3.7450 C   0  0  0  0  0  0  0  0  0  0  0  0
   -2.3690   -3.3850   -2.8930 C   0  0  1  0  0  0  0  0  0  0  0  0
   -1.2720   -3.9160   -3.6540 C   0  0  0  0  0  0  0  0  0  0  0  0
   -1.5740   -4.6660   -4.6530 O   0  0  0  0  0  0  0  0  0  0  0  0
    0.0420   -3.7070   -3.4300 O   0  0  0  0  0  0  0  0  0  0  0  0
   -4.1350   -3.1950   -1.3500 H   0  0  0  0  0  0  0  0  0  0  0  0
   -3.6750   -1.6400   -0.5040 H   0  0  0  0  0  0  0  0  0  0  0  0
   -3.5390   -0.5020   -2.7020 H   0  0  0  0  0  0  0  0  0  0  0  0
   -5.0010   -1.5970   -2.9250 H   0  0  0  0  0  0  0  0  0  0  0  0
   -3.7950   -2.7970   -4.4370 H   0  0  0  0  0  0  0  0  0  0  0  0
   -2.3590   -1.6730   -4.2510 H   0  0  0  0  0  0  0  0  0  0  0  0
   -3.2030   -4.1510   -2.7510 H   0  0  0  0  0  0  0  0  0  0  0  0
  1 11  1  0  0  0  0
  1 10  1  0  0  0  0
  2  1  1  0  0  0  0
  3  2  2  0  0  0  0
  4 12  1  0  0  0  0
  4  2  1  0  0  0  0
  5 15  1  0  0  0  0
  5  4  1  0  0  0  0
  6 16  1  1  0  0  0
  6  5  1  0  0  0  0
  7 17  1  0  0  0  0
  7  6  1  0  0  0  0
  8 27  1  0  0  0  0
  8  6  1  0  0  0  0
  9  8  2  0  0  0  0
 13  4  1  0  0  0  0
 14  5  1  0  0  0  0
 18  7  1  0  0  0  0
 19 31  1  0  0  0  0
 19 20  1  0  0  0  0
 20 21  2  0  0  0  0
 20 22  1  0  0  0  0
 22 33  1  0  0  0  0
 22 23  1  0  0  0  0
 23 35  1  0  0  0  0
 23 34  1  0  0  0  0
 24 36  1  0  0  0  0
 24 23  1  0  0  0  0
 25 26  1  0  0  0  0
 25 24  1  0  0  0  0
 26 40  1  1  0  0  0
 26 27  1  0  0  0  0
 27 41  1  0  0  0  0
 28 26  1  0  0  0  0
 29 28  2  0  0  0  0
 30 19  1  0  0  0  0
 32 21  1  0  0  0  0
 37 24  1  0  0  0  0
 38 25  1  0  0  0  0
 39 25  1  0  0  0  0
 42 43  1  0  0  0  0
 42 28  1  0  0  0  0
 43 50  1  0  0  0  0
 43 51  1  0  0  0  0
 44 52  1  0  0  0  0
 44 43  1  0  0  0  0
 45 46  1  0  0  0  0
 45 44  1  0  0  0  0
 46 56  1  1  0  0  0
 46 42  1  0  0  0  0
 47 49  1  0  0  0  0
 47 46  1  0  0  0  0
 48 47  2  0  0  0  0
 53 44  1  0  0  0  0
 54 45  1  0  0  0  0
 55 45  1  0  0  0  0
M  END
$$$$
