QRQ.pdb
 OpenBabel07022418303D

 59 58  0  0  1  0  0  0  0  0999 V2000
   -6.2750   -2.1890   -0.1310 N   0  0  0  0  0  0  0  0  0  0  0  0
   -4.9810   -1.9610    0.4070 C   0  0  0  0  0  0  0  0  0  0  0  0
   -4.6090   -2.6920    1.3590 O   0  0  0  0  0  0  0  0  0  0  0  0
   -4.1570   -0.8800   -0.1880 C   0  0  0  0  0  0  0  0  0  0  0  0
   -2.8270   -0.8140    0.5280 C   0  0  0  0  0  0  0  0  0  0  0  0
   -1.9340    0.2520   -0.0120 C   0  0  2  0  0  0  0  0  0  0  0  0
   -1.5810    0.1440   -1.3840 N   0  0  0  0  0  0  0  0  0  0  0  0
   -0.6750    0.3040    0.8270 C   0  0  0  0  0  0  0  0  0  0  0  0
   -0.8300    0.3020    2.0900 O   0  0  0  0  0  0  0  0  0  0  0  0
   -6.3840   -2.2730   -1.1660 H   0  0  0  0  0  0  0  0  0  0  0  0
   -7.1310   -2.2780    0.4760 H   0  0  0  0  0  0  0  0  0  0  0  0
   -4.0570   -1.0110   -1.2660 H   0  0  0  0  0  0  0  0  0  0  0  0
   -4.6710    0.1020    0.0080 H   0  0  0  0  0  0  0  0  0  0  0  0
   -3.0010   -0.5950    1.6130 H   0  0  0  0  0  0  0  0  0  0  0  0
   -2.3720   -1.8130    0.4960 H   0  0  0  0  0  0  0  0  0  0  0  0
   -2.4280    1.2560    0.1490 H   0  0  0  0  0  0  0  0  0  0  0  0
   -2.1550   -0.5420   -1.9220 H   0  0  0  0  0  0  0  0  0  0  0  0
   -1.6790    1.0690   -1.8530 H   0  0  0  0  0  0  0  0  0  0  0  0
    2.6850    3.0450   -1.8160 N   0  0  0  0  0  0  0  0  0  0  0  0
    3.1130    3.3060   -0.4960 C   0  0  0  0  0  0  0  0  0  0  0  0
    4.2930    2.9790   -0.1080 N   0  0  0  0  0  0  0  0  0  0  0  0
    2.2310    3.9370    0.4120 N   0  0  0  0  0  0  0  0  0  0  0  0
    2.0690    3.6900    1.7930 C   0  0  0  0  0  0  0  0  0  0  0  0
    1.4020    2.5200    2.3400 C   0  0  0  0  0  0  0  0  0  0  0  0
    1.7800    1.1340    2.1860 C   0  0  0  0  0  0  0  0  0  0  0  0
    1.8020    0.4210    0.9010 C   0  0  2  0  0  0  0  0  0  0  0  0
    0.5680    0.3520    0.1800 N   0  0  0  0  0  0  0  0  0  0  0  0
    2.2450   -1.0210    1.0810 C   0  0  0  0  0  0  0  0  0  0  0  0
    3.2970   -1.2590    1.7360 O   0  0  0  0  0  0  0  0  0  0  0  0
    2.1580    3.7380   -2.3920 H   0  0  0  0  0  0  0  0  0  0  0  0
    2.8950    2.1110   -2.2680 H   0  0  0  0  0  0  0  0  0  0  0  0
    4.5990    3.1700    0.8530 H   0  0  0  0  0  0  0  0  0  0  0  0
    1.6220    4.6940   -0.0720 H   0  0  0  0  0  0  0  0  0  0  0  0
    1.4950    4.6040    2.1980 H   0  0  0  0  0  0  0  0  0  0  0  0
    3.0900    3.8510    2.3040 H   0  0  0  0  0  0  0  0  0  0  0  0
    0.2750    2.6950    2.1650 H   0  0  0  0  0  0  0  0  0  0  0  0
    1.4030    2.7010    3.4980 H   0  0  0  0  0  0  0  0  0  0  0  0
    1.2040    0.5280    2.9620 H   0  0  0  0  0  0  0  0  0  0  0  0
    2.8460    1.0410    2.6230 H   0  0  0  0  0  0  0  0  0  0  0  0
    2.6290    0.8380    0.2790 H   0  0  0  0  0  0  0  0  0  0  0  0
    0.5470    0.3330   -0.8890 H   0  0  0  0  0  0  0  0  0  0  0  0
   -2.5870   -5.4860    0.0770 N   0  0  0  0  0  0  0  0  0  0  0  0
   -1.3940   -5.2990    0.8140 C   0  0  0  0  0  0  0  0  0  0  0  0
   -1.2240   -5.8700    1.9240 O   0  0  0  0  0  0  0  0  0  0  0  0
   -0.3110   -4.4200    0.2900 C   0  0  0  0  0  0  0  0  0  0  0  0
    0.8650   -4.3780    1.2390 C   0  0  0  0  0  0  0  0  0  0  0  0
    1.9700   -3.4930    0.7260 C   0  0  2  0  0  0  0  0  0  0  0  0
    1.5390   -2.1210    0.5500 N   0  0  0  0  0  0  0  0  0  0  0  0
    2.3080   -4.0020   -0.6550 C   0  0  0  0  0  0  0  0  0  0  0  0
    2.7180   -5.1890   -0.8090 O   0  0  0  0  0  0  0  0  0  0  0  0
    2.1870   -3.2140   -1.7800 O   0  0  0  0  0  0  0  0  0  0  0  0
   -2.7910   -6.3650   -0.4190 H   0  0  0  0  0  0  0  0  0  0  0  0
   -3.2890   -4.7060    0.0340 H   0  0  0  0  0  0  0  0  0  0  0  0
    0.0690   -4.8560   -0.6610 H   0  0  0  0  0  0  0  0  0  0  0  0
   -0.6930   -3.4320    0.0460 H   0  0  0  0  0  0  0  0  0  0  0  0
    0.5470   -4.0110    2.2560 H   0  0  0  0  0  0  0  0  0  0  0  0
    1.2640   -5.3970    1.3970 H   0  0  0  0  0  0  0  0  0  0  0  0
    2.8710   -3.5680    1.3630 H   0  0  0  0  0  0  0  0  0  0  0  0
    0.6730   -1.9430    0.0090 H   0  0  0  0  0  0  0  0  0  0  0  0
  1  2  1  0  0  0  0
  1 11  1  0  0  0  0
  2  3  2  0  0  0  0
  4 13  1  0  0  0  0
  4  2  1  0  0  0  0
  4  5  1  0  0  0  0
  5 14  1  0  0  0  0
  6 16  1  1  0  0  0
  6  5  1  0  0  0  0
  6  8  1  0  0  0  0
  7  6  1  0  0  0  0
  8  9  2  0  0  0  0
 10  1  1  0  0  0  0
 12  4  1  0  0  0  0
 15  5  1  0  0  0  0
 17  7  1  0  0  0  0
 18  7  1  0  0  0  0
 19 20  1  0  0  0  0
 20 21  2  0  0  0  0
 20 22  1  0  0  0  0
 21 32  1  0  0  0  0
 22 23  1  0  0  0  0
 23 34  1  0  0  0  0
 23 35  1  0  0  0  0
 23 24  1  0  0  0  0
 24 37  1  0  0  0  0
 25 24  1  0  0  0  0
 25 39  1  0  0  0  0
 25 38  1  0  0  0  0
 26 40  1  6  0  0  0
 26 28  1  0  0  0  0
 26 25  1  0  0  0  0
 27  8  1  0  0  0  0
 27 26  1  0  0  0  0
 28 29  2  0  0  0  0
 30 19  1  0  0  0  0
 31 19  1  0  0  0  0
 33 22  1  0  0  0  0
 36 24  1  0  0  0  0
 41 27  1  0  0  0  0
 42 43  1  0  0  0  0
 43 44  2  0  0  0  0
 45 43  1  0  0  0  0
 45 46  1  0  0  0  0
 46 57  1  0  0  0  0
 46 56  1  0  0  0  0
 47 46  1  0  0  0  0
 47 58  1  1  0  0  0
 48 47  1  0  0  0  0
 48 28  1  0  0  0  0
 49 47  1  0  0  0  0
 50 49  1  0  0  0  0
 51 49  2  0  0  0  0
 52 42  1  0  0  0  0
 53 42  1  0  0  0  0
 54 45  1  0  0  0  0
 55 45  1  0  0  0  0
 59 48  1  0  0  0  0
M  END
$$$$
