QRR.pdb
 OpenBabel07022418303D

 65 64  0  0  1  0  0  0  0  0999 V2000
    5.8410    1.2080    6.4500 N   0  0  0  0  0  0  0  0  0  0  0  0
    4.7530    1.4930    5.5780 C   0  0  0  0  0  0  0  0  0  0  0  0
    4.3760    2.6870    5.4900 O   0  0  0  0  0  0  0  0  0  0  0  0
    4.1520    0.3610    4.8440 C   0  0  0  0  0  0  0  0  0  0  0  0
    3.0070    0.8090    3.9630 C   0  0  0  0  0  0  0  0  0  0  0  0
    2.3930   -0.3540    3.2140 C   0  0  2  0  0  0  0  0  0  0  0  0
    3.3740   -0.9880    2.3730 N   0  0  0  0  0  0  0  0  0  0  0  0
    1.2040    0.0730    2.4440 C   0  0  0  0  0  0  0  0  0  0  0  0
    0.2490    0.6440    3.0450 O   0  0  0  0  0  0  0  0  0  0  0  0
    6.7980    1.2100    5.9900 H   0  0  0  0  0  0  0  0  0  0  0  0
    5.7170    1.0110    7.4720 H   0  0  0  0  0  0  0  0  0  0  0  0
    3.8090   -0.3870    5.5750 H   0  0  0  0  0  0  0  0  0  0  0  0
    4.9180   -0.1250    4.1730 H   0  0  0  0  0  0  0  0  0  0  0  0
    3.3800    1.5710    3.2780 H   0  0  0  0  0  0  0  0  0  0  0  0
    2.2230    1.2180    4.6600 H   0  0  0  0  0  0  0  0  0  0  0  0
    2.1250   -1.1090    4.0030 H   0  0  0  0  0  0  0  0  0  0  0  0
    4.0840   -1.5090    2.9330 H   0  0  0  0  0  0  0  0  0  0  0  0
    2.9550   -1.7000    1.7340 H   0  0  0  0  0  0  0  0  0  0  0  0
    1.1810    4.6480    0.5600 N   0  0  0  0  0  0  0  0  0  0  0  0
   -0.0640    3.9730    0.5780 C   0  0  0  0  0  0  0  0  0  0  0  0
   -0.4860    3.3670    1.6430 N   0  0  0  0  0  0  0  0  0  0  0  0
   -0.8950    3.9320   -0.5560 N   0  0  0  0  0  0  0  0  0  0  0  0
   -1.5340    2.7600   -1.0960 C   0  0  0  0  0  0  0  0  0  0  0  0
   -0.5640    1.8030   -1.7160 C   0  0  0  0  0  0  0  0  0  0  0  0
    0.4100    1.1940   -0.7940 C   0  0  0  0  0  0  0  0  0  0  0  0
   -0.1500    0.3220    0.3050 C   0  0  2  0  0  0  0  0  0  0  0  0
    1.0460   -0.1110    1.0580 N   0  0  0  0  0  0  0  0  0  0  0  0
   -0.7670   -0.9370   -0.1970 C   0  0  0  0  0  0  0  0  0  0  0  0
   -0.1420   -2.0140    0.0010 O   0  0  0  0  0  0  0  0  0  0  0  0
    2.0490    4.2680    0.9960 H   0  0  0  0  0  0  0  0  0  0  0  0
    1.2460    5.5830    0.0850 H   0  0  0  0  0  0  0  0  0  0  0  0
    0.0790    3.3680    2.4910 H   0  0  0  0  0  0  0  0  0  0  0  0
   -1.0570    4.8550   -1.0610 H   0  0  0  0  0  0  0  0  0  0  0  0
   -2.2630    3.0490   -1.9080 H   0  0  0  0  0  0  0  0  0  0  0  0
   -2.1020    2.2400   -0.2760 H   0  0  0  0  0  0  0  0  0  0  0  0
    0.0570    2.4570   -2.4280 H   0  0  0  0  0  0  0  0  0  0  0  0
   -1.0950    1.0850   -2.3750 H   0  0  0  0  0  0  0  0  0  0  0  0
    1.1680    0.5540   -1.3240 H   0  0  0  0  0  0  0  0  0  0  0  0
    1.0160    1.9770   -0.3010 H   0  0  0  0  0  0  0  0  0  0  0  0
   -0.8690    0.8000    0.9640 H   0  0  0  0  0  0  0  0  0  0  0  0
    1.7880   -0.5690    0.5120 H   0  0  0  0  0  0  0  0  0  0  0  0
   -0.5640   -5.5660   -2.8150 N   0  0  0  0  0  0  0  0  0  0  0  0
   -1.9120   -5.7360   -2.4070 C   0  0  0  0  0  0  0  0  0  0  0  0
   -2.7810   -6.1810   -3.2270 N   0  0  0  0  0  0  0  0  0  0  0  0
   -2.3300   -5.4220   -1.1030 N   0  0  0  0  0  0  0  0  0  0  0  0
   -3.6360   -5.1790   -0.6540 C   0  0  0  0  0  0  0  0  0  0  0  0
   -4.3830   -3.9680   -1.0480 C   0  0  0  0  0  0  0  0  0  0  0  0
   -3.8260   -2.6400   -0.6710 C   0  0  0  0  0  0  0  0  0  0  0  0
   -2.5230   -2.3510   -1.3250 C   0  0  2  0  0  0  0  0  0  0  0  0
   -1.9920   -1.0510   -0.8730 N   0  0  0  0  0  0  0  0  0  0  0  0
   -2.7790   -2.1640   -2.7740 C   0  0  0  0  0  0  0  0  0  0  0  0
   -3.2400   -3.0840   -3.4720 O   0  0  0  0  0  0  0  0  0  0  0  0
   -2.5180   -0.9670   -3.4070 O   0  0  0  0  0  0  0  0  0  0  0  0
    0.2570   -5.6940   -2.1780 H   0  0  0  0  0  0  0  0  0  0  0  0
   -0.3230   -5.2970   -3.8020 H   0  0  0  0  0  0  0  0  0  0  0  0
   -2.5130   -6.4230   -4.1970 H   0  0  0  0  0  0  0  0  0  0  0  0
   -1.5360   -5.3800   -0.3860 H   0  0  0  0  0  0  0  0  0  0  0  0
   -3.7040   -5.2550    0.4660 H   0  0  0  0  0  0  0  0  0  0  0  0
   -4.2730   -6.0610   -1.0110 H   0  0  0  0  0  0  0  0  0  0  0  0
   -4.7700   -4.0060   -2.0970 H   0  0  0  0  0  0  0  0  0  0  0  0
   -5.3720   -4.0340   -0.4530 H   0  0  0  0  0  0  0  0  0  0  0  0
   -3.7440   -2.6120    0.4560 H   0  0  0  0  0  0  0  0  0  0  0  0
   -4.6060   -1.8710   -0.9040 H   0  0  0  0  0  0  0  0  0  0  0  0
   -1.8150   -3.1570   -1.0970 H   0  0  0  0  0  0  0  0  0  0  0  0
   -2.5470   -0.2060   -1.0560 H   0  0  0  0  0  0  0  0  0  0  0  0
  1 11  1  0  0  0  0
  2  1  1  0  0  0  0
  3  2  2  0  0  0  0
  4 12  1  0  0  0  0
  4  2  1  0  0  0  0
  5 15  1  0  0  0  0
  5  4  1  0  0  0  0
  6  5  1  0  0  0  0
  6 16  1  1  0  0  0
  7 17  1  0  0  0  0
  7  6  1  0  0  0  0
  8  9  2  0  0  0  0
  8  6  1  0  0  0  0
 10  1  1  0  0  0  0
 13  4  1  0  0  0  0
 14  5  1  0  0  0  0
 18  7  1  0  0  0  0
 19 20  1  0  0  0  0
 19 30  1  0  0  0  0
 20 21  2  0  0  0  0
 21 32  1  0  0  0  0
 22 20  1  0  0  0  0
 23 22  1  0  0  0  0
 23 35  1  0  0  0  0
 24 23  1  0  0  0  0
 24 25  1  0  0  0  0
 25 39  1  0  0  0  0
 25 26  1  0  0  0  0
 26 40  1  1  0  0  0
 26 27  1  0  0  0  0
 27  8  1  0  0  0  0
 28 29  2  0  0  0  0
 28 26  1  0  0  0  0
 31 19  1  0  0  0  0
 33 22  1  0  0  0  0
 34 23  1  0  0  0  0
 36 24  1  0  0  0  0
 37 24  1  0  0  0  0
 38 25  1  0  0  0  0
 41 27  1  0  0  0  0
 42 43  1  0  0  0  0
 42 54  1  0  0  0  0
 43 45  1  0  0  0  0
 44 43  2  0  0  0  0
 45 46  1  0  0  0  0
 45 57  1  0  0  0  0
 46 58  1  0  0  0  0
 47 48  1  0  0  0  0
 47 46  1  0  0  0  0
 47 61  1  0  0  0  0
 48 62  1  0  0  0  0
 49 64  1  1  0  0  0
 49 50  1  0  0  0  0
 49 48  1  0  0  0  0
 50 28  1  0  0  0  0
 51 49  1  0  0  0  0
 52 51  2  0  0  0  0
 53 51  1  0  0  0  0
 55 42  1  0  0  0  0
 56 44  1  0  0  0  0
 59 46  1  0  0  0  0
 60 47  1  0  0  0  0
 63 48  1  0  0  0  0
 65 50  1  0  0  0  0
M  END
$$$$
