QRT.pdb
 OpenBabel07022418303D

 56 55  0  0  1  0  0  0  0  0999 V2000
    2.0850   -5.9390    1.1110 N   0  0  0  0  0  0  0  0  0  0  0  0
    2.5740   -4.5830    1.1710 C   0  0  0  0  0  0  0  0  0  0  0  0
    3.5740   -4.4270    1.9150 O   0  0  0  0  0  0  0  0  0  0  0  0
    1.9260   -3.5300    0.4130 C   0  0  0  0  0  0  0  0  0  0  0  0
    2.3470   -2.1400    0.6060 C   0  0  0  0  0  0  0  0  0  0  0  0
    2.2110   -1.5070    1.9370 C   0  0  2  0  0  0  0  0  0  0  0  0
    2.9370   -2.1360    3.0090 N   0  0  0  0  0  0  0  0  0  0  0  0
    0.7940   -1.2330    2.3120 C   0  0  0  0  0  0  0  0  0  0  0  0
    0.3530   -1.6080    3.4110 O   0  0  0  0  0  0  0  0  0  0  0  0
    1.8960   -6.3780    2.0620 H   0  0  0  0  0  0  0  0  0  0  0  0
    1.9340   -6.4320    0.2250 H   0  0  0  0  0  0  0  0  0  0  0  0
    0.8120   -3.6870    0.5360 H   0  0  0  0  0  0  0  0  0  0  0  0
    2.0710   -3.7630   -0.6870 H   0  0  0  0  0  0  0  0  0  0  0  0
    3.4230   -1.9850    0.2940 H   0  0  0  0  0  0  0  0  0  0  0  0
    1.7870   -1.5030   -0.1320 H   0  0  0  0  0  0  0  0  0  0  0  0
    2.6810   -0.4790    1.8440 H   0  0  0  0  0  0  0  0  0  0  0  0
    3.9320   -1.8890    2.9190 H   0  0  0  0  0  0  0  0  0  0  0  0
    2.5190   -2.0540    3.9340 H   0  0  0  0  0  0  0  0  0  0  0  0
    1.5030    4.2150    2.7230 N   0  0  0  0  0  0  0  0  0  0  0  0
    0.7420    4.0520    1.5210 C   0  0  0  0  0  0  0  0  0  0  0  0
    1.3440    3.9570    0.3910 N   0  0  0  0  0  0  0  0  0  0  0  0
   -0.6660    4.0000    1.6160 N   0  0  0  0  0  0  0  0  0  0  0  0
   -1.4430    3.4360    0.5430 C   0  0  0  0  0  0  0  0  0  0  0  0
   -1.2180    1.9350    0.4220 C   0  0  0  0  0  0  0  0  0  0  0  0
   -1.6290    1.2830    1.7260 C   0  0  0  0  0  0  0  0  0  0  0  0
   -1.4260   -0.2260    1.6660 C   0  0  2  0  0  0  0  0  0  0  0  0
   -0.0320   -0.5510    1.4190 N   0  0  0  0  0  0  0  0  0  0  0  0
   -2.2580   -0.7580    0.5580 C   0  0  0  0  0  0  0  0  0  0  0  0
   -3.5160   -0.6090    0.5330 O   0  0  0  0  0  0  0  0  0  0  0  0
    1.5360    3.4430    3.4170 H   0  0  0  0  0  0  0  0  0  0  0  0
    2.0360    5.0870    2.9420 H   0  0  0  0  0  0  0  0  0  0  0  0
    0.8120    3.8380   -0.4920 H   0  0  0  0  0  0  0  0  0  0  0  0
   -1.1570    4.3790    2.4820 H   0  0  0  0  0  0  0  0  0  0  0  0
   -1.2130    3.9680   -0.3940 H   0  0  0  0  0  0  0  0  0  0  0  0
   -2.5290    3.6440    0.7350 H   0  0  0  0  0  0  0  0  0  0  0  0
   -1.8240    1.5590   -0.4220 H   0  0  0  0  0  0  0  0  0  0  0  0
   -0.1570    1.7620    0.2090 H   0  0  0  0  0  0  0  0  0  0  0  0
   -1.0340    1.7260    2.5290 H   0  0  0  0  0  0  0  0  0  0  0  0
   -2.6970    1.4450    1.9050 H   0  0  0  0  0  0  0  0  0  0  0  0
   -1.7660   -0.6080    2.6390 H   0  0  0  0  0  0  0  0  0  0  0  0
    0.3520   -0.2390    0.5030 H   0  0  0  0  0  0  0  0  0  0  0  0
   -0.7320   -2.0800   -3.3360 C   0  0  0  0  0  0  0  0  0  0  0  0
   -2.0840   -1.5030   -2.9850 C   0  0  1  0  0  0  0  0  0  0  0  0
   -2.9910   -2.0660   -3.9120 O   0  0  0  0  0  0  0  0  0  0  0  0
   -2.5560   -1.9790   -1.6270 C   0  0  2  0  0  0  0  0  0  0  0  0
   -1.7020   -1.4690   -0.5510 N   0  0  0  0  0  0  0  0  0  0  0  0
   -2.4210   -3.4610   -1.6290 C   0  0  0  0  0  0  0  0  0  0  0  0
   -3.0420   -4.1850   -2.4490 O   0  0  0  0  0  0  0  0  0  0  0  0
   -1.5910   -4.1350   -0.7150 O   0  0  0  0  0  0  0  0  0  0  0  0
   -0.8300   -3.0960   -3.8000 H   0  0  0  0  0  0  0  0  0  0  0  0
   -0.0200   -2.0710   -2.4990 H   0  0  0  0  0  0  0  0  0  0  0  0
   -0.3060   -1.4240   -4.1430 H   0  0  0  0  0  0  0  0  0  0  0  0
   -2.0230   -0.4140   -3.0720 H   0  0  0  0  0  0  0  0  0  0  0  0
   -3.8840   -1.7430   -3.6240 H   0  0  0  0  0  0  0  0  0  0  0  0
   -3.6120   -1.7430   -1.4460 H   0  0  0  0  0  0  0  0  0  0  0  0
   -0.6710   -1.6240   -0.5880 H   0  0  0  0  0  0  0  0  0  0  0  0
  1  2  1  0  0  0  0
  1 10  1  0  0  0  0
  2  3  2  0  0  0  0
  4 12  1  0  0  0  0
  4  5  1  0  0  0  0
  4  2  1  0  0  0  0
  5  6  1  0  0  0  0
  6 16  1  6  0  0  0
  6  8  1  0  0  0  0
  6  7  1  0  0  0  0
  7 18  1  0  0  0  0
  8  9  2  0  0  0  0
 11  1  1  0  0  0  0
 13  4  1  0  0  0  0
 14  5  1  0  0  0  0
 15  5  1  0  0  0  0
 17  7  1  0  0  0  0
 19 31  1  0  0  0  0
 19 30  1  0  0  0  0
 20 22  1  0  0  0  0
 20 19  1  0  0  0  0
 21 20  2  0  0  0  0
 22 33  1  0  0  0  0
 23 35  1  0  0  0  0
 23 22  1  0  0  0  0
 24 23  1  0  0  0  0
 24 25  1  0  0  0  0
 25 39  1  0  0  0  0
 25 38  1  0  0  0  0
 26 25  1  0  0  0  0
 26 40  1  1  0  0  0
 27 26  1  0  0  0  0
 27  8  1  0  0  0  0
 28 26  1  0  0  0  0
 29 28  2  0  0  0  0
 32 21  1  0  0  0  0
 34 23  1  0  0  0  0
 36 24  1  0  0  0  0
 37 24  1  0  0  0  0
 41 27  1  0  0  0  0
 42 43  1  0  0  0  0
 42 51  1  0  0  0  0
 43 53  1  6  0  0  0
 43 45  1  0  0  0  0
 44 54  1  0  0  0  0
 44 43  1  0  0  0  0
 45 55  1  1  0  0  0
 45 46  1  0  0  0  0
 46 28  1  0  0  0  0
 47 45  1  0  0  0  0
 47 49  1  0  0  0  0
 48 47  2  0  0  0  0
 50 42  1  0  0  0  0
 52 42  1  0  0  0  0
 56 46  1  0  0  0  0
M  END
$$$$
