QRV.pdb
 OpenBabel07022418303D

 58 57  0  0  1  0  0  0  0  0999 V2000
   -1.2120    4.7690    0.1690 N   0  0  0  0  0  0  0  0  0  0  0  0
   -0.3170    3.6690   -0.0610 C   0  0  0  0  0  0  0  0  0  0  0  0
   -0.7710    2.5190    0.0890 O   0  0  0  0  0  0  0  0  0  0  0  0
    1.0430    4.0150   -0.4480 C   0  0  0  0  0  0  0  0  0  0  0  0
    1.8840    2.8790   -0.8270 C   0  0  0  0  0  0  0  0  0  0  0  0
    1.5310    2.0200   -1.9620 C   0  0  2  0  0  0  0  0  0  0  0  0
    1.4060    2.7760   -3.2200 N   0  0  0  0  0  0  0  0  0  0  0  0
    0.4740    1.0450   -1.8690 C   0  0  0  0  0  0  0  0  0  0  0  0
   -0.5790    0.9810   -2.5540 O   0  0  0  0  0  0  0  0  0  0  0  0
   -1.8530    5.0430   -0.5770 H   0  0  0  0  0  0  0  0  0  0  0  0
   -1.1790    5.2420    1.0740 H   0  0  0  0  0  0  0  0  0  0  0  0
    1.0880    4.8800   -1.1600 H   0  0  0  0  0  0  0  0  0  0  0  0
    1.5110    4.4670    0.4890 H   0  0  0  0  0  0  0  0  0  0  0  0
    2.0290    2.2510    0.1100 H   0  0  0  0  0  0  0  0  0  0  0  0
    2.9360    3.2770   -0.9940 H   0  0  0  0  0  0  0  0  0  0  0  0
    2.4940    1.4080   -2.1730 H   0  0  0  0  0  0  0  0  0  0  0  0
    0.4950    3.3150   -3.2080 H   0  0  0  0  0  0  0  0  0  0  0  0
    1.2750    2.0360   -3.9560 H   0  0  0  0  0  0  0  0  0  0  0  0
   -2.4730   -7.1610   -0.3170 N   0  0  0  0  0  0  0  0  0  0  0  0
   -1.2530   -6.4600   -0.4680 C   0  0  0  0  0  0  0  0  0  0  0  0
   -0.4250   -6.3280    0.5420 N   0  0  0  0  0  0  0  0  0  0  0  0
   -0.8470   -5.8650   -1.6920 N   0  0  0  0  0  0  0  0  0  0  0  0
    0.0180   -4.7030   -1.7380 C   0  0  0  0  0  0  0  0  0  0  0  0
   -0.7440   -3.4890   -1.1820 C   0  0  0  0  0  0  0  0  0  0  0  0
    0.2010   -2.3120   -1.2520 C   0  0  0  0  0  0  0  0  0  0  0  0
   -0.4270   -1.0290   -0.7390 C   0  0  2  0  0  0  0  0  0  0  0  0
    0.6170   -0.0020   -0.8790 N   0  0  0  0  0  0  0  0  0  0  0  0
   -0.8390   -1.1120    0.6680 C   0  0  0  0  0  0  0  0  0  0  0  0
   -1.7500   -1.9090    1.0230 O   0  0  0  0  0  0  0  0  0  0  0  0
   -3.4130   -6.7950   -0.5780 H   0  0  0  0  0  0  0  0  0  0  0  0
   -2.4350   -8.1220    0.0880 H   0  0  0  0  0  0  0  0  0  0  0  0
   -0.6220   -6.7240    1.4830 H   0  0  0  0  0  0  0  0  0  0  0  0
   -1.1890   -6.2850   -2.5750 H   0  0  0  0  0  0  0  0  0  0  0  0
    0.4080   -4.5200   -2.7380 H   0  0  0  0  0  0  0  0  0  0  0  0
    0.8780   -4.8900   -1.0580 H   0  0  0  0  0  0  0  0  0  0  0  0
   -1.6490   -3.3270   -1.7840 H   0  0  0  0  0  0  0  0  0  0  0  0
   -1.0110   -3.7620   -0.1360 H   0  0  0  0  0  0  0  0  0  0  0  0
    0.4490   -2.1760   -2.3250 H   0  0  0  0  0  0  0  0  0  0  0  0
    1.1200   -2.5680   -0.6980 H   0  0  0  0  0  0  0  0  0  0  0  0
   -1.2650   -0.7750   -1.4030 H   0  0  0  0  0  0  0  0  0  0  0  0
    1.4490   -0.0550   -0.2510 H   0  0  0  0  0  0  0  0  0  0  0  0
    0.8250   -2.4200    3.3890 C   0  0  0  0  0  0  0  0  0  0  0  0
    0.4070   -1.0680    3.9310 C   0  0  0  0  0  0  0  0  0  0  0  0
    1.5510   -0.0980    4.0150 C   0  0  0  0  0  0  0  0  0  0  0  0
   -0.7270   -0.4790    3.0750 C   0  0  2  0  0  0  0  0  0  0  0  0
   -0.2640   -0.3270    1.7250 N   0  0  0  0  0  0  0  0  0  0  0  0
   -1.1670    0.7830    3.7130 C   0  0  0  0  0  0  0  0  0  0  0  0
   -1.1090    1.8610    3.0810 O   0  0  0  0  0  0  0  0  0  0  0  0
   -1.6500    0.8180    5.0100 O   0  0  0  0  0  0  0  0  0  0  0  0
    0.1440   -3.1790    3.8340 H   0  0  0  0  0  0  0  0  0  0  0  0
    0.7900   -2.4670    2.2800 H   0  0  0  0  0  0  0  0  0  0  0  0
    1.8460   -2.6460    3.7800 H   0  0  0  0  0  0  0  0  0  0  0  0
    0.0260   -1.2330    4.9590 H   0  0  0  0  0  0  0  0  0  0  0  0
    2.3960   -0.4180    3.3740 H   0  0  0  0  0  0  0  0  0  0  0  0
    1.2100    0.9150    3.6670 H   0  0  0  0  0  0  0  0  0  0  0  0
    1.9250   -0.0440    5.0360 H   0  0  0  0  0  0  0  0  0  0  0  0
   -1.5510   -1.2340    3.1140 H   0  0  0  0  0  0  0  0  0  0  0  0
    0.4920    0.3540    1.4990 H   0  0  0  0  0  0  0  0  0  0  0  0
  1 11  1  0  0  0  0
  2  3  2  0  0  0  0
  2  1  1  0  0  0  0
  4  2  1  0  0  0  0
  4 13  1  0  0  0  0
  5  4  1  0  0  0  0
  5 14  1  0  0  0  0
  6 16  1  6  0  0  0
  6  8  1  0  0  0  0
  6  5  1  0  0  0  0
  7 17  1  0  0  0  0
  7  6  1  0  0  0  0
  8 27  1  0  0  0  0
  9  8  2  0  0  0  0
 10  1  1  0  0  0  0
 12  4  1  0  0  0  0
 15  5  1  0  0  0  0
 18  7  1  0  0  0  0
 19 31  1  0  0  0  0
 20 19  1  0  0  0  0
 20 21  2  0  0  0  0
 21 32  1  0  0  0  0
 22 20  1  0  0  0  0
 23 22  1  0  0  0  0
 23 24  1  0  0  0  0
 23 35  1  0  0  0  0
 24 37  1  0  0  0  0
 25 24  1  0  0  0  0
 25 26  1  0  0  0  0
 25 39  1  0  0  0  0
 26 40  1  6  0  0  0
 26 28  1  0  0  0  0
 27 26  1  0  0  0  0
 27 41  1  0  0  0  0
 28 29  2  0  0  0  0
 28 46  1  0  0  0  0
 30 19  1  0  0  0  0
 33 22  1  0  0  0  0
 34 23  1  0  0  0  0
 36 24  1  0  0  0  0
 38 25  1  0  0  0  0
 42 52  1  0  0  0  0
 42 50  1  0  0  0  0
 42 43  1  0  0  0  0
 43 44  1  0  0  0  0
 43 53  1  0  0  0  0
 44 56  1  0  0  0  0
 45 57  1  1  0  0  0
 45 47  1  0  0  0  0
 45 43  1  0  0  0  0
 46 45  1  0  0  0  0
 47 49  1  0  0  0  0
 48 47  2  0  0  0  0
 51 42  1  0  0  0  0
 54 44  1  0  0  0  0
 55 44  1  0  0  0  0
 58 46  1  0  0  0  0
M  END
$$$$
