QRY.pdb
 OpenBabel07022418303D

 63 63  0  0  1  0  0  0  0  0999 V2000
    4.6970    0.3980    2.0540 N   0  0  0  0  0  0  0  0  0  0  0  0
    3.8580    0.7000    0.9320 C   0  0  0  0  0  0  0  0  0  0  0  0
    2.7790    1.3280    1.0840 O   0  0  0  0  0  0  0  0  0  0  0  0
    4.2810    0.2690   -0.3980 C   0  0  0  0  0  0  0  0  0  0  0  0
    3.1170    0.1420   -1.3210 C   0  0  0  0  0  0  0  0  0  0  0  0
    2.1940   -0.9590   -0.9770 C   0  0  2  0  0  0  0  0  0  0  0  0
    1.0920   -0.9100   -1.9540 N   0  0  0  0  0  0  0  0  0  0  0  0
    1.6680   -1.0880    0.3700 C   0  0  0  0  0  0  0  0  0  0  0  0
    2.3700   -1.5590    1.3390 O   0  0  0  0  0  0  0  0  0  0  0  0
    4.3060    0.4810    3.0050 H   0  0  0  0  0  0  0  0  0  0  0  0
    5.6740    0.1030    1.9590 H   0  0  0  0  0  0  0  0  0  0  0  0
    5.0410    1.0050   -0.7670 H   0  0  0  0  0  0  0  0  0  0  0  0
    4.8280   -0.7100   -0.3720 H   0  0  0  0  0  0  0  0  0  0  0  0
    2.5980    1.1270   -1.4490 H   0  0  0  0  0  0  0  0  0  0  0  0
    3.5620   -0.0490   -2.3540 H   0  0  0  0  0  0  0  0  0  0  0  0
    2.6910   -1.9680   -1.2180 H   0  0  0  0  0  0  0  0  0  0  0  0
    0.5930   -1.8290   -1.9800 H   0  0  0  0  0  0  0  0  0  0  0  0
    1.4210   -0.6070   -2.8790 H   0  0  0  0  0  0  0  0  0  0  0  0
    1.9880    5.0060    3.7690 N   0  0  0  0  0  0  0  0  0  0  0  0
    0.9470    4.0730    4.0350 C   0  0  0  0  0  0  0  0  0  0  0  0
    1.0220    3.3420    5.0820 N   0  0  0  0  0  0  0  0  0  0  0  0
   -0.1450    3.9650    3.1460 N   0  0  0  0  0  0  0  0  0  0  0  0
   -0.9970    2.7960    3.0950 C   0  0  0  0  0  0  0  0  0  0  0  0
   -0.1340    1.6540    2.5390 C   0  0  0  0  0  0  0  0  0  0  0  0
   -0.9450    0.4040    2.4520 C   0  0  0  0  0  0  0  0  0  0  0  0
   -0.2260   -0.7980    1.9350 C   0  0  2  0  0  0  0  0  0  0  0  0
    0.3130   -0.6770    0.6210 N   0  0  0  0  0  0  0  0  0  0  0  0
   -1.2530   -1.9140    1.9550 C   0  0  0  0  0  0  0  0  0  0  0  0
   -1.8070   -2.1640    3.0230 O   0  0  0  0  0  0  0  0  0  0  0  0
    2.5770    5.3830    4.5360 H   0  0  0  0  0  0  0  0  0  0  0  0
    2.1740    5.3230    2.7970 H   0  0  0  0  0  0  0  0  0  0  0  0
    0.3050    2.6430    5.3390 H   0  0  0  0  0  0  0  0  0  0  0  0
   -0.3750    4.7520    2.4790 H   0  0  0  0  0  0  0  0  0  0  0  0
   -1.8710    2.9710    2.4300 H   0  0  0  0  0  0  0  0  0  0  0  0
   -1.3030    2.5340    4.1250 H   0  0  0  0  0  0  0  0  0  0  0  0
    0.6940    1.5190    3.2540 H   0  0  0  0  0  0  0  0  0  0  0  0
    0.1770    2.0170    1.5370 H   0  0  0  0  0  0  0  0  0  0  0  0
   -1.3580    0.1840    3.4730 H   0  0  0  0  0  0  0  0  0  0  0  0
   -1.8500    0.6490    1.8410 H   0  0  0  0  0  0  0  0  0  0  0  0
    0.5630   -1.1410    2.6260 H   0  0  0  0  0  0  0  0  0  0  0  0
   -0.2380   -0.2990   -0.1750 H   0  0  0  0  0  0  0  0  0  0  0  0
   -2.4660   -2.1410   -5.5220 O   0  0  0  0  0  0  0  0  0  0  0  0
   -2.7750   -2.4770   -4.2000 C   0  0  0  0  0  0  0  0  0  0  0  0
   -3.0050   -3.7740   -3.7940 C   0  0  0  0  0  0  0  0  0  0  0  0
   -3.3120   -4.1300   -2.4950 C   0  0  0  0  0  0  0  0  0  0  0  0
   -3.3940   -3.1440   -1.5550 C   0  0  0  0  0  0  0  0  0  0  0  0
   -3.7120   -3.4510   -0.1510 C   0  0  0  0  0  0  0  0  0  0  0  0
   -2.5290   -3.7140    0.7170 C   0  0  2  0  0  0  0  0  0  0  0  0
   -1.5860   -2.6520    0.8240 N   0  0  0  0  0  0  0  0  0  0  0  0
   -1.7930   -4.9460    0.3440 C   0  0  0  0  0  0  0  0  0  0  0  0
   -0.5460   -4.9450    0.1840 O   0  0  0  0  0  0  0  0  0  0  0  0
   -3.1720   -1.8390   -1.9170 C   0  0  0  0  0  0  0  0  0  0  0  0
   -2.8680   -1.5070   -3.2140 C   0  0  0  0  0  0  0  0  0  0  0  0
   -2.4300   -6.1800    0.1490 O   0  0  0  0  0  0  0  0  0  0  0  0
   -3.0480   -1.3890   -5.9140 H   0  0  0  0  0  0  0  0  0  0  0  0
   -2.9430   -4.5830   -4.5370 H   0  0  0  0  0  0  0  0  0  0  0  0
   -3.4820   -5.1970   -2.2520 H   0  0  0  0  0  0  0  0  0  0  0  0
   -4.3220   -4.3820   -0.1610 H   0  0  0  0  0  0  0  0  0  0  0  0
   -4.3270   -2.6800    0.3180 H   0  0  0  0  0  0  0  0  0  0  0  0
   -2.9340   -3.8810    1.7490 H   0  0  0  0  0  0  0  0  0  0  0  0
   -1.0830   -2.4050   -0.0800 H   0  0  0  0  0  0  0  0  0  0  0  0
   -3.2310   -1.0170   -1.1840 H   0  0  0  0  0  0  0  0  0  0  0  0
   -2.6890   -0.4690   -3.5170 H   0  0  0  0  0  0  0  0  0  0  0  0
  1 10  1  0  0  0  0
  2  3  2  0  0  0  0
  2  1  1  0  0  0  0
  4 13  1  0  0  0  0
  4  2  1  0  0  0  0
  5  6  1  0  0  0  0
  5  4  1  0  0  0  0
  6 16  1  6  0  0  0
  6  8  1  0  0  0  0
  7  6  1  0  0  0  0
  8 27  1  0  0  0  0
  8  9  2  0  0  0  0
 11  1  1  0  0  0  0
 12  4  1  0  0  0  0
 14  5  1  0  0  0  0
 15  5  1  0  0  0  0
 17  7  1  0  0  0  0
 18  7  1  0  0  0  0
 19 20  1  0  0  0  0
 19 30  1  0  0  0  0
 20 21  2  0  0  0  0
 21 32  1  0  0  0  0
 22 20  1  0  0  0  0
 23 22  1  0  0  0  0
 23 35  1  0  0  0  0
 24 23  1  0  0  0  0
 24 36  1  0  0  0  0
 25 24  1  0  0  0  0
 25 38  1  0  0  0  0
 26 28  1  0  0  0  0
 26 25  1  0  0  0  0
 26 40  1  1  0  0  0
 27 26  1  0  0  0  0
 28 29  2  0  0  0  0
 31 19  1  0  0  0  0
 33 22  1  0  0  0  0
 34 23  1  0  0  0  0
 37 24  1  0  0  0  0
 39 25  1  0  0  0  0
 41 27  1  0  0  0  0
 42 43  1  0  0  0  0
 43 44  2  0  0  0  0
 43 53  1  0  0  0  0
 44 45  1  0  0  0  0
 45 57  1  0  0  0  0
 45 46  2  0  0  0  0
 46 47  1  0  0  0  0
 47 59  1  0  0  0  0
 47 48  1  0  0  0  0
 48 49  1  0  0  0  0
 48 60  1  1  0  0  0
 49 28  1  0  0  0  0
 50 48  1  0  0  0  0
 51 50  1  0  0  0  0
 52 46  1  0  0  0  0
 52 62  1  0  0  0  0
 53 52  2  0  0  0  0
 54 50  2  0  0  0  0
 55 42  1  0  0  0  0
 56 44  1  0  0  0  0
 58 47  1  0  0  0  0
 61 49  1  0  0  0  0
 63 53  1  0  0  0  0
M  END
$$$$
