QSA.pdb
 OpenBabel07022418333D

 40 39  0  0  1  0  0  0  0  0999 V2000
    3.3520   -4.9400    2.9760 N   0  0  0  0  0  0  0  0  0  0  0  0
    2.7700   -3.7180    2.4510 C   0  0  0  0  0  0  0  0  0  0  0  0
    3.4700   -2.7070    2.5030 O   0  0  0  0  0  0  0  0  0  0  0  0
    1.4050   -3.8620    1.9230 C   0  0  0  0  0  0  0  0  0  0  0  0
    0.8820   -2.6710    1.2490 C   0  0  0  0  0  0  0  0  0  0  0  0
    1.5480   -2.1440    0.0460 C   0  0  2  0  0  0  0  0  0  0  0  0
    2.8890   -1.7160    0.1340 N   0  0  0  0  0  0  0  0  0  0  0  0
    0.7120   -0.9900   -0.4640 C   0  0  0  0  0  0  0  0  0  0  0  0
   -0.5510   -1.1950   -0.5000 O   0  0  0  0  0  0  0  0  0  0  0  0
    3.7360   -4.9860    3.9450 H   0  0  0  0  0  0  0  0  0  0  0  0
    3.3990   -5.8030    2.3930 H   0  0  0  0  0  0  0  0  0  0  0  0
    0.7630   -4.0200    2.8480 H   0  0  0  0  0  0  0  0  0  0  0  0
    1.2590   -4.8200    1.3750 H   0  0  0  0  0  0  0  0  0  0  0  0
   -0.2130   -2.8090    0.9920 H   0  0  0  0  0  0  0  0  0  0  0  0
    0.8380   -1.8360    2.0170 H   0  0  0  0  0  0  0  0  0  0  0  0
    1.3980   -2.9170   -0.7770 H   0  0  0  0  0  0  0  0  0  0  0  0
    3.4760   -1.8660   -0.6900 H   0  0  0  0  0  0  0  0  0  0  0  0
    2.9990   -0.8250    0.6270 H   0  0  0  0  0  0  0  0  0  0  0  0
   -1.0020   -0.0460   -2.7350 O   0  0  0  0  0  0  0  0  0  0  0  0
   -0.1680    1.0400   -2.6940 C   0  0  0  0  0  0  0  0  0  0  0  0
    0.4570    1.3220   -1.3560 C   0  0  2  0  0  0  0  0  0  0  0  0
    1.2680    0.2340   -0.8780 N   0  0  0  0  0  0  0  0  0  0  0  0
   -0.5690    1.7770   -0.3770 C   0  0  0  0  0  0  0  0  0  0  0  0
   -1.4410    2.6390   -0.7400 O   0  0  0  0  0  0  0  0  0  0  0  0
   -1.9630    0.1660   -2.6400 H   0  0  0  0  0  0  0  0  0  0  0  0
    0.6160    0.9690   -3.4990 H   0  0  0  0  0  0  0  0  0  0  0  0
   -0.7850    1.9290   -3.0260 H   0  0  0  0  0  0  0  0  0  0  0  0
    1.1290    2.2280   -1.5180 H   0  0  0  0  0  0  0  0  0  0  0  0
    2.3220    0.3390   -0.8340 H   0  0  0  0  0  0  0  0  0  0  0  0
   -2.6080    0.6880    2.3110 C   0  0  0  0  0  0  0  0  0  0  0  0
   -1.7050    1.8200    1.8620 C   0  0  2  0  0  0  0  0  0  0  0  0
   -0.6730    1.3380    0.9560 N   0  0  0  0  0  0  0  0  0  0  0  0
   -1.1450    2.4730    3.0470 C   0  0  0  0  0  0  0  0  0  0  0  0
    0.0990    2.5630    3.1890 O   0  0  0  0  0  0  0  0  0  0  0  0
   -1.9510    3.0060    4.0400 O   0  0  0  0  0  0  0  0  0  0  0  0
   -3.2210    1.0180    3.1550 H   0  0  0  0  0  0  0  0  0  0  0  0
   -3.2940    0.4550    1.4630 H   0  0  0  0  0  0  0  0  0  0  0  0
   -2.0290   -0.2210    2.5880 H   0  0  0  0  0  0  0  0  0  0  0  0
   -2.3200    2.5450    1.2900 H   0  0  0  0  0  0  0  0  0  0  0  0
    0.0040    0.6590    1.3290 H   0  0  0  0  0  0  0  0  0  0  0  0
  1 10  1  0  0  0  0
  2  3  2  0  0  0  0
  2  1  1  0  0  0  0
  4  2  1  0  0  0  0
  4 12  1  0  0  0  0
  5  4  1  0  0  0  0
  5 15  1  0  0  0  0
  6 16  1  6  0  0  0
  6  7  1  0  0  0  0
  6  5  1  0  0  0  0
  7 18  1  0  0  0  0
  8  6  1  0  0  0  0
  9  8  2  0  0  0  0
 11  1  1  0  0  0  0
 13  4  1  0  0  0  0
 14  5  1  0  0  0  0
 17  7  1  0  0  0  0
 19 20  1  0  0  0  0
 19 25  1  0  0  0  0
 20 21  1  0  0  0  0
 21 28  1  6  0  0  0
 21 22  1  0  0  0  0
 21 23  1  0  0  0  0
 22 29  1  0  0  0  0
 22  8  1  0  0  0  0
 23 32  1  0  0  0  0
 24 23  2  0  0  0  0
 26 20  1  0  0  0  0
 27 20  1  0  0  0  0
 30 38  1  0  0  0  0
 30 36  1  0  0  0  0
 31 39  1  6  0  0  0
 31 30  1  0  0  0  0
 31 33  1  0  0  0  0
 32 40  1  0  0  0  0
 32 31  1  0  0  0  0
 33 34  2  0  0  0  0
 33 35  1  0  0  0  0
 37 30  1  0  0  0  0
M  END
$$$$
