QSC.pdb
 OpenBabel07022418333D

 41 40  0  0  1  0  0  0  0  0999 V2000
    0.5180   -5.7770    1.6830 N   0  0  0  0  0  0  0  0  0  0  0  0
    0.7100   -4.3820    1.5330 C   0  0  0  0  0  0  0  0  0  0  0  0
    0.5700   -3.6240    2.5180 O   0  0  0  0  0  0  0  0  0  0  0  0
    1.0730   -3.8770    0.1900 C   0  0  0  0  0  0  0  0  0  0  0  0
    1.2400   -2.3680    0.2050 C   0  0  0  0  0  0  0  0  0  0  0  0
    1.6120   -1.9250   -1.2010 C   0  0  2  0  0  0  0  0  0  0  0  0
    2.8500   -2.5450   -1.6310 N   0  0  0  0  0  0  0  0  0  0  0  0
    1.7370   -0.4370   -1.1860 C   0  0  0  0  0  0  0  0  0  0  0  0
    2.8000    0.1190   -1.5150 O   0  0  0  0  0  0  0  0  0  0  0  0
   -0.1690   -6.2530    1.0730 H   0  0  0  0  0  0  0  0  0  0  0  0
    1.0430   -6.3140    2.3770 H   0  0  0  0  0  0  0  0  0  0  0  0
    0.2850   -4.1460   -0.5420 H   0  0  0  0  0  0  0  0  0  0  0  0
    2.0400   -4.3520   -0.0980 H   0  0  0  0  0  0  0  0  0  0  0  0
    2.0410   -2.1010    0.9100 H   0  0  0  0  0  0  0  0  0  0  0  0
    0.2800   -1.9130    0.4750 H   0  0  0  0  0  0  0  0  0  0  0  0
    0.8190   -2.2630   -1.9070 H   0  0  0  0  0  0  0  0  0  0  0  0
    2.6380   -3.5200   -1.9020 H   0  0  0  0  0  0  0  0  0  0  0  0
    3.1910   -2.0410   -2.4810 H   0  0  0  0  0  0  0  0  0  0  0  0
   -0.0870    1.7750   -2.9680 O   0  0  0  0  0  0  0  0  0  0  0  0
   -0.4550    2.2600   -1.7000 C   0  0  0  0  0  0  0  0  0  0  0  0
    0.6340    1.7850   -0.7390 C   0  0  2  0  0  0  0  0  0  0  0  0
    0.6410    0.3430   -0.7960 N   0  0  0  0  0  0  0  0  0  0  0  0
    0.2580    2.2170    0.6260 C   0  0  0  0  0  0  0  0  0  0  0  0
    0.2000    3.4450    0.8660 O   0  0  0  0  0  0  0  0  0  0  0  0
    0.1070    0.7980   -2.8240 H   0  0  0  0  0  0  0  0  0  0  0  0
   -1.4110    1.7670   -1.4460 H   0  0  0  0  0  0  0  0  0  0  0  0
   -0.5210    3.3610   -1.7160 H   0  0  0  0  0  0  0  0  0  0  0  0
    1.6030    2.2160   -1.0420 H   0  0  0  0  0  0  0  0  0  0  0  0
   -0.2430   -0.1480   -0.5240 H   0  0  0  0  0  0  0  0  0  0  0  0
   -0.0370    1.3110    1.6730 N   0  0  0  0  0  0  0  0  0  0  0  0
   -0.4020    1.7360    3.0020 C   0  0  1  0  0  0  0  0  0  0  0  0
   -1.8350    1.3170    3.3380 C   0  0  0  0  0  0  0  0  0  0  0  0
   -2.0130   -0.4850    3.2560 S   0  0  0  0  0  0  0  0  0  0  0  0
    0.5440    1.2430    4.0190 C   0  0  0  0  0  0  0  0  0  0  0  0
    1.5320    0.5390    3.6860 O   0  0  0  0  0  0  0  0  0  0  0  0
    0.3730    1.5390    5.3550 O   0  0  0  0  0  0  0  0  0  0  0  0
    0.0170    0.2840    1.4540 H   0  0  0  0  0  0  0  0  0  0  0  0
   -0.4020    2.8520    3.0240 H   0  0  0  0  0  0  0  0  0  0  0  0
   -2.0630    1.6560    4.3600 H   0  0  0  0  0  0  0  0  0  0  0  0
   -2.5400    1.7740    2.6250 H   0  0  0  0  0  0  0  0  0  0  0  0
   -2.3910   -0.8990    1.9560 H   0  0  0  0  0  0  0  0  0  0  0  0
  1 11  1  0  0  0  0
  2  1  1  0  0  0  0
  2  3  2  0  0  0  0
  4  5  1  0  0  0  0
  4  2  1  0  0  0  0
  5 15  1  0  0  0  0
  5 14  1  0  0  0  0
  6 16  1  6  0  0  0
  6  8  1  0  0  0  0
  6  5  1  0  0  0  0
  7  6  1  0  0  0  0
  8 22  1  0  0  0  0
  9  8  2  0  0  0  0
 10  1  1  0  0  0  0
 12  4  1  0  0  0  0
 13  4  1  0  0  0  0
 17  7  1  0  0  0  0
 18  7  1  0  0  0  0
 19 25  1  0  0  0  0
 19 20  1  0  0  0  0
 20 26  1  0  0  0  0
 20 21  1  0  0  0  0
 21 28  1  6  0  0  0
 21 23  1  0  0  0  0
 22 21  1  0  0  0  0
 22 29  1  0  0  0  0
 23 24  2  0  0  0  0
 23 30  1  0  0  0  0
 27 20  1  0  0  0  0
 30 31  1  0  0  0  0
 31 38  1  1  0  0  0
 31 32  1  0  0  0  0
 31 34  1  0  0  0  0
 32 39  1  0  0  0  0
 33 32  1  0  0  0  0
 34 36  1  0  0  0  0
 35 34  2  0  0  0  0
 37 30  1  0  0  0  0
 40 32  1  0  0  0  0
 41 33  1  0  0  0  0
M  END
$$$$
