QSD.pdb
 OpenBabel07022418333D

 43 42  0  0  1  0  0  0  0  0999 V2000
   -0.0170   -6.3290    0.8520 N   0  0  0  0  0  0  0  0  0  0  0  0
    0.5560   -5.0750    0.5800 C   0  0  0  0  0  0  0  0  0  0  0  0
    0.9110   -4.3560    1.5610 O   0  0  0  0  0  0  0  0  0  0  0  0
    0.7610   -4.5680   -0.7930 C   0  0  0  0  0  0  0  0  0  0  0  0
    1.1750   -3.1360   -0.7620 C   0  0  0  0  0  0  0  0  0  0  0  0
    0.1760   -2.1930   -0.1580 C   0  0  2  0  0  0  0  0  0  0  0  0
   -1.0750   -2.2390   -0.9110 N   0  0  0  0  0  0  0  0  0  0  0  0
    0.7060   -0.7980   -0.1280 C   0  0  0  0  0  0  0  0  0  0  0  0
    0.0750    0.1180   -0.7060 O   0  0  0  0  0  0  0  0  0  0  0  0
    0.2430   -6.8430    1.7030 H   0  0  0  0  0  0  0  0  0  0  0  0
   -0.7030   -6.7350    0.1950 H   0  0  0  0  0  0  0  0  0  0  0  0
   -0.1810   -4.7300   -1.3790 H   0  0  0  0  0  0  0  0  0  0  0  0
    1.5920   -5.1950   -1.2230 H   0  0  0  0  0  0  0  0  0  0  0  0
    2.1140   -3.0250   -0.1420 H   0  0  0  0  0  0  0  0  0  0  0  0
    1.4820   -2.7550   -1.7650 H   0  0  0  0  0  0  0  0  0  0  0  0
   -0.0810   -2.4420    0.8800 H   0  0  0  0  0  0  0  0  0  0  0  0
   -0.8400   -2.4700   -1.9100 H   0  0  0  0  0  0  0  0  0  0  0  0
   -1.6750   -3.0470   -0.5800 H   0  0  0  0  0  0  0  0  0  0  0  0
    2.0320    1.4860   -1.7110 O   0  0  0  0  0  0  0  0  0  0  0  0
    2.9680    1.3880   -0.7150 C   0  0  0  0  0  0  0  0  0  0  0  0
    2.4610    0.8520    0.5970 C   0  0  2  0  0  0  0  0  0  0  0  0
    1.9120   -0.4630    0.5370 N   0  0  0  0  0  0  0  0  0  0  0  0
    1.6220    1.8280    1.3390 C   0  0  0  0  0  0  0  0  0  0  0  0
    1.9420    3.0530    1.4220 O   0  0  0  0  0  0  0  0  0  0  0  0
    2.3100    1.1120   -2.5810 H   0  0  0  0  0  0  0  0  0  0  0  0
    3.4320    2.4080   -0.5780 H   0  0  0  0  0  0  0  0  0  0  0  0
    3.8130    0.7750   -1.1150 H   0  0  0  0  0  0  0  0  0  0  0  0
    3.4030    0.7750    1.2410 H   0  0  0  0  0  0  0  0  0  0  0  0
    2.4260   -1.2550    1.0150 H   0  0  0  0  0  0  0  0  0  0  0  0
    0.4210    1.4570    1.9990 N   0  0  0  0  0  0  0  0  0  0  0  0
   -0.3750    2.4390    2.7110 C   0  0  1  0  0  0  0  0  0  0  0  0
   -1.7730    2.4250    2.1370 C   0  0  0  0  0  0  0  0  0  0  0  0
   -1.8410    2.7490    0.7080 C   0  0  0  0  0  0  0  0  0  0  0  0
   -0.8210    3.0080    0.0530 O   0  0  0  0  0  0  0  0  0  0  0  0
   -0.4810    2.1310    4.1480 C   0  0  0  0  0  0  0  0  0  0  0  0
    0.0810    1.1220    4.6130 O   0  0  0  0  0  0  0  0  0  0  0  0
   -3.0810    2.7600    0.1030 O   0  0  0  0  0  0  0  0  0  0  0  0
   -1.2020    2.9610    4.9720 O   0  0  0  0  0  0  0  0  0  0  0  0
    0.1080    0.4630    1.9780 H   0  0  0  0  0  0  0  0  0  0  0  0
    0.0280    3.4570    2.6160 H   0  0  0  0  0  0  0  0  0  0  0  0
   -2.4420    3.1450    2.6860 H   0  0  0  0  0  0  0  0  0  0  0  0
   -2.2660    1.4240    2.3120 H   0  0  0  0  0  0  0  0  0  0  0  0
   -3.2190    2.7910   -0.8990 H   0  0  0  0  0  0  0  0  0  0  0  0
  1 10  1  0  0  0  0
  2  1  1  0  0  0  0
  2  3  2  0  0  0  0
  4  5  1  0  0  0  0
  4  2  1  0  0  0  0
  5  6  1  0  0  0  0
  5 14  1  0  0  0  0
  6  8  1  0  0  0  0
  6 16  1  1  0  0  0
  7 18  1  0  0  0  0
  7  6  1  0  0  0  0
  8 22  1  0  0  0  0
  9  8  2  0  0  0  0
 11  1  1  0  0  0  0
 12  4  1  0  0  0  0
 13  4  1  0  0  0  0
 15  5  1  0  0  0  0
 17  7  1  0  0  0  0
 19 20  1  0  0  0  0
 20 26  1  0  0  0  0
 20 21  1  0  0  0  0
 21 28  1  1  0  0  0
 21 23  1  0  0  0  0
 22 21  1  0  0  0  0
 22 29  1  0  0  0  0
 23 24  2  0  0  0  0
 23 30  1  0  0  0  0
 25 19  1  0  0  0  0
 27 20  1  0  0  0  0
 30 31  1  0  0  0  0
 31 40  1  6  0  0  0
 31 35  1  0  0  0  0
 32 42  1  0  0  0  0
 32 41  1  0  0  0  0
 32 31  1  0  0  0  0
 33 32  1  0  0  0  0
 34 33  2  0  0  0  0
 35 36  2  0  0  0  0
 35 38  1  0  0  0  0
 37 33  1  0  0  0  0
 39 30  1  0  0  0  0
 43 37  1  0  0  0  0
M  END
$$$$
