QSE.pdb
 OpenBabel07022418333D

 46 45  0  0  1  0  0  0  0  0999 V2000
   -0.3640   -4.6270    1.2190 N   0  0  0  0  0  0  0  0  0  0  0  0
    0.3650   -3.8260    0.3070 C   0  0  0  0  0  0  0  0  0  0  0  0
   -0.0720   -3.7870   -0.8830 O   0  0  0  0  0  0  0  0  0  0  0  0
    1.5780   -3.0690    0.7140 C   0  0  0  0  0  0  0  0  0  0  0  0
    2.0950   -2.3350   -0.4820 C   0  0  0  0  0  0  0  0  0  0  0  0
    3.3250   -1.5240   -0.2110 C   0  0  2  0  0  0  0  0  0  0  0  0
    4.3670   -2.4120    0.2450 N   0  0  0  0  0  0  0  0  0  0  0  0
    3.0960   -0.4510    0.7850 C   0  0  0  0  0  0  0  0  0  0  0  0
    3.7760   -0.4250    1.8370 O   0  0  0  0  0  0  0  0  0  0  0  0
   -1.3030   -4.3400    1.5480 H   0  0  0  0  0  0  0  0  0  0  0  0
    0.0380   -5.5130    1.5650 H   0  0  0  0  0  0  0  0  0  0  0  0
    2.3000   -3.8230    1.1080 H   0  0  0  0  0  0  0  0  0  0  0  0
    1.3550   -2.3990    1.5730 H   0  0  0  0  0  0  0  0  0  0  0  0
    1.2730   -1.7270   -0.8950 H   0  0  0  0  0  0  0  0  0  0  0  0
    2.3810   -3.1080   -1.2400 H   0  0  0  0  0  0  0  0  0  0  0  0
    3.6590   -1.1060   -1.1970 H   0  0  0  0  0  0  0  0  0  0  0  0
    5.0380   -2.6820   -0.5000 H   0  0  0  0  0  0  0  0  0  0  0  0
    4.7830   -2.1620    1.1470 H   0  0  0  0  0  0  0  0  0  0  0  0
    3.3150    3.2180    0.4550 O   0  0  0  0  0  0  0  0  0  0  0  0
    2.0340    2.9960    0.9570 C   0  0  0  0  0  0  0  0  0  0  0  0
    1.8860    1.6220    1.5570 C   0  0  2  0  0  0  0  0  0  0  0  0
    2.1340    0.5640    0.6080 N   0  0  0  0  0  0  0  0  0  0  0  0
    0.4700    1.4870    1.9960 C   0  0  0  0  0  0  0  0  0  0  0  0
    0.0370    2.3190    2.8350 O   0  0  0  0  0  0  0  0  0  0  0  0
    3.3200    4.1250    0.0750 H   0  0  0  0  0  0  0  0  0  0  0  0
    1.2440    3.1710    0.2250 H   0  0  0  0  0  0  0  0  0  0  0  0
    1.8930    3.7240    1.7860 H   0  0  0  0  0  0  0  0  0  0  0  0
    2.5490    1.5190    2.4310 H   0  0  0  0  0  0  0  0  0  0  0  0
    1.5560    0.5590   -0.2630 H   0  0  0  0  0  0  0  0  0  0  0  0
   -0.4000    0.4920    1.5310 N   0  0  0  0  0  0  0  0  0  0  0  0
   -1.7990    0.3610    1.9670 C   0  0  1  0  0  0  0  0  0  0  0  0
   -2.6200    0.5570    0.7300 C   0  0  0  0  0  0  0  0  0  0  0  0
   -4.0950    0.4730    0.9110 C   0  0  0  0  0  0  0  0  0  0  0  0
   -4.7640    0.7050   -0.4220 C   0  0  0  0  0  0  0  0  0  0  0  0
   -6.0110    0.6850   -0.5280 O   0  0  0  0  0  0  0  0  0  0  0  0
   -2.0470   -0.9440    2.5810 C   0  0  0  0  0  0  0  0  0  0  0  0
   -1.1060   -1.8090    2.6480 O   0  0  0  0  0  0  0  0  0  0  0  0
   -4.0020    0.9430   -1.5410 O   0  0  0  0  0  0  0  0  0  0  0  0
   -3.2660   -1.2840    3.0960 O   0  0  0  0  0  0  0  0  0  0  0  0
   -0.0670   -0.1990    0.8450 H   0  0  0  0  0  0  0  0  0  0  0  0
   -2.0060    1.1780    2.7060 H   0  0  0  0  0  0  0  0  0  0  0  0
   -2.3160   -0.2200   -0.0020 H   0  0  0  0  0  0  0  0  0  0  0  0
   -2.3630    1.5390    0.2640 H   0  0  0  0  0  0  0  0  0  0  0  0
   -4.4920    1.2170    1.6240 H   0  0  0  0  0  0  0  0  0  0  0  0
   -4.4200   -0.5440    1.2540 H   0  0  0  0  0  0  0  0  0  0  0  0
   -4.3790    1.0630   -2.4710 H   0  0  0  0  0  0  0  0  0  0  0  0
  1 10  1  0  0  0  0
  1 11  1  0  0  0  0
  2  4  1  0  0  0  0
  2  1  1  0  0  0  0
  3  2  2  0  0  0  0
  4 12  1  0  0  0  0
  4 13  1  0  0  0  0
  5  6  1  0  0  0  0
  5  4  1  0  0  0  0
  6 16  1  6  0  0  0
  6  7  1  0  0  0  0
  6  8  1  0  0  0  0
  7 18  1  0  0  0  0
  8  9  2  0  0  0  0
 14  5  1  0  0  0  0
 15  5  1  0  0  0  0
 17  7  1  0  0  0  0
 19 20  1  0  0  0  0
 20 21  1  0  0  0  0
 20 27  1  0  0  0  0
 21 23  1  0  0  0  0
 21 28  1  1  0  0  0
 22  8  1  0  0  0  0
 22 21  1  0  0  0  0
 23 24  2  0  0  0  0
 25 19  1  0  0  0  0
 26 20  1  0  0  0  0
 29 22  1  0  0  0  0
 30 31  1  0  0  0  0
 30 23  1  0  0  0  0
 31 36  1  0  0  0  0
 31 41  1  1  0  0  0
 32 33  1  0  0  0  0
 32 31  1  0  0  0  0
 33 45  1  0  0  0  0
 33 44  1  0  0  0  0
 34 33  1  0  0  0  0
 35 34  2  0  0  0  0
 36 37  2  0  0  0  0
 36 39  1  0  0  0  0
 38 34  1  0  0  0  0
 40 30  1  0  0  0  0
 42 32  1  0  0  0  0
 43 32  1  0  0  0  0
 46 38  1  0  0  0  0
M  END
$$$$
