QSF.pdb
 OpenBabel07022418333D

 50 50  0  0  1  0  0  0  0  0999 V2000
   -1.6390    2.5850   -2.4070 N   0  0  0  0  0  0  0  0  0  0  0  0
   -0.5740    2.7090   -1.4760 C   0  0  0  0  0  0  0  0  0  0  0  0
   -0.3530    1.7440   -0.7360 O   0  0  0  0  0  0  0  0  0  0  0  0
    0.1860    3.9430   -1.4360 C   0  0  0  0  0  0  0  0  0  0  0  0
    1.4890    3.9460   -0.7040 C   0  0  0  0  0  0  0  0  0  0  0  0
    2.5570    3.0520   -1.2100 C   0  0  2  0  0  0  0  0  0  0  0  0
    2.8080    3.4310   -2.5950 N   0  0  0  0  0  0  0  0  0  0  0  0
    2.3930    1.6200   -1.1090 C   0  0  0  0  0  0  0  0  0  0  0  0
    2.2320    0.9410   -2.1810 O   0  0  0  0  0  0  0  0  0  0  0  0
   -2.5740    2.2540   -2.1120 H   0  0  0  0  0  0  0  0  0  0  0  0
   -1.4660    2.8310   -3.3940 H   0  0  0  0  0  0  0  0  0  0  0  0
    0.3110    4.3870   -2.4690 H   0  0  0  0  0  0  0  0  0  0  0  0
   -0.4860    4.7080   -0.9200 H   0  0  0  0  0  0  0  0  0  0  0  0
    1.9070    5.0010   -0.7830 H   0  0  0  0  0  0  0  0  0  0  0  0
    1.3040    3.8370    0.3970 H   0  0  0  0  0  0  0  0  0  0  0  0
    3.4830    3.3110   -0.6050 H   0  0  0  0  0  0  0  0  0  0  0  0
    2.4600    4.3910   -2.8050 H   0  0  0  0  0  0  0  0  0  0  0  0
    2.4600    2.7160   -3.2710 H   0  0  0  0  0  0  0  0  0  0  0  0
    4.6280   -0.8900    0.0940 O   0  0  0  0  0  0  0  0  0  0  0  0
    3.4760   -1.1640    0.7990 C   0  0  0  0  0  0  0  0  0  0  0  0
    2.2420   -0.5220    0.1840 C   0  0  2  0  0  0  0  0  0  0  0  0
    2.4060    0.9060    0.1500 N   0  0  0  0  0  0  0  0  0  0  0  0
    1.0970   -0.9020    1.0800 C   0  0  0  0  0  0  0  0  0  0  0  0
    0.4140   -0.0300    1.6890 O   0  0  0  0  0  0  0  0  0  0  0  0
    5.3640   -0.5560    0.6850 H   0  0  0  0  0  0  0  0  0  0  0  0
    3.5260   -0.8300    1.8670 H   0  0  0  0  0  0  0  0  0  0  0  0
    3.3260   -2.2530    0.8040 H   0  0  0  0  0  0  0  0  0  0  0  0
    2.1210   -0.8930   -0.8340 H   0  0  0  0  0  0  0  0  0  0  0  0
    2.5370    1.4800    0.9980 H   0  0  0  0  0  0  0  0  0  0  0  0
    0.7870   -2.2790    1.2340 N   0  0  0  0  0  0  0  0  0  0  0  0
   -0.3340   -2.6590    2.1110 C   0  0  1  0  0  0  0  0  0  0  0  0
   -1.3590   -3.3440    1.2500 C   0  0  0  0  0  0  0  0  0  0  0  0
   -2.5500   -3.7880    1.9990 C   0  0  0  0  0  0  0  0  0  0  0  0
   -3.6110   -2.9220    2.1760 C   0  0  0  0  0  0  0  0  0  0  0  0
   -4.7500   -3.2830    2.8530 C   0  0  0  0  0  0  0  0  0  0  0  0
   -4.8350   -4.5600    3.3740 C   0  0  0  0  0  0  0  0  0  0  0  0
   -3.7860   -5.4480    3.2100 C   0  0  0  0  0  0  0  0  0  0  0  0
   -2.6460   -5.0590    2.5220 C   0  0  0  0  0  0  0  0  0  0  0  0
    0.1590   -3.5580    3.1590 C   0  0  0  0  0  0  0  0  0  0  0  0
    1.3570   -3.9110    3.1720 O   0  0  0  0  0  0  0  0  0  0  0  0
   -0.6910   -4.0180    4.1360 O   0  0  0  0  0  0  0  0  0  0  0  0
    1.3460   -2.9970    0.7350 H   0  0  0  0  0  0  0  0  0  0  0  0
   -0.7840   -1.7360    2.5360 H   0  0  0  0  0  0  0  0  0  0  0  0
   -1.6970   -2.6290    0.4540 H   0  0  0  0  0  0  0  0  0  0  0  0
   -0.8850   -4.1920    0.7060 H   0  0  0  0  0  0  0  0  0  0  0  0
   -3.5650   -1.9160    1.7760 H   0  0  0  0  0  0  0  0  0  0  0  0
   -5.5830   -2.6090    2.9950 H   0  0  0  0  0  0  0  0  0  0  0  0
   -5.7260   -4.8780    3.9160 H   0  0  0  0  0  0  0  0  0  0  0  0
   -3.8770   -6.4480    3.6290 H   0  0  0  0  0  0  0  0  0  0  0  0
   -1.8720   -5.7810    2.4220 H   0  0  0  0  0  0  0  0  0  0  0  0
  1 10  1  0  0  0  0
  1  2  1  0  0  0  0
  2  4  1  0  0  0  0
  2  3  2  0  0  0  0
  4 13  1  0  0  0  0
  4  5  1  0  0  0  0
  5 15  1  0  0  0  0
  6  8  1  0  0  0  0
  6  5  1  0  0  0  0
  6 16  1  1  0  0  0
  7  6  1  0  0  0  0
  8 22  1  0  0  0  0
  9  8  2  0  0  0  0
 11  1  1  0  0  0  0
 12  4  1  0  0  0  0
 14  5  1  0  0  0  0
 17  7  1  0  0  0  0
 18  7  1  0  0  0  0
 19 25  1  0  0  0  0
 19 20  1  0  0  0  0
 20 27  1  0  0  0  0
 20 26  1  0  0  0  0
 21 28  1  6  0  0  0
 21 20  1  0  0  0  0
 21 23  1  0  0  0  0
 22 21  1  0  0  0  0
 22 29  1  0  0  0  0
 23 30  1  0  0  0  0
 23 24  2  0  0  0  0
 30 31  1  0  0  0  0
 31 43  1  1  0  0  0
 31 39  1  0  0  0  0
 32 33  1  0  0  0  0
 32 31  1  0  0  0  0
 33 34  2  0  0  0  0
 33 38  1  0  0  0  0
 34 35  1  0  0  0  0
 35 47  1  0  0  0  0
 35 36  2  0  0  0  0
 36 48  1  0  0  0  0
 37 36  1  0  0  0  0
 37 49  1  0  0  0  0
 38 37  2  0  0  0  0
 39 40  2  0  0  0  0
 39 41  1  0  0  0  0
 42 30  1  0  0  0  0
 44 32  1  0  0  0  0
 45 32  1  0  0  0  0
 46 34  1  0  0  0  0
 50 38  1  0  0  0  0
M  END
$$$$
