QSG.pdb
 OpenBabel07022418333D

 37 36  0  0  1  0  0  0  0  0999 V2000
    1.4810   -2.2330    4.4530 N   0  0  0  0  0  0  0  0  0  0  0  0
    1.3290   -2.7040    3.1150 C   0  0  0  0  0  0  0  0  0  0  0  0
    0.6280   -3.7060    2.8820 O   0  0  0  0  0  0  0  0  0  0  0  0
    2.0180   -1.9830    2.0150 C   0  0  0  0  0  0  0  0  0  0  0  0
    1.7080   -2.6630    0.7140 C   0  0  0  0  0  0  0  0  0  0  0  0
    2.3770   -1.9840   -0.4620 C   0  0  2  0  0  0  0  0  0  0  0  0
    3.8060   -2.0040   -0.2750 N   0  0  0  0  0  0  0  0  0  0  0  0
    1.9020   -0.5860   -0.6280 C   0  0  0  0  0  0  0  0  0  0  0  0
    2.7330    0.3570   -0.5900 O   0  0  0  0  0  0  0  0  0  0  0  0
    2.4400   -1.9820    4.7820 H   0  0  0  0  0  0  0  0  0  0  0  0
    0.6470   -2.1450    5.0740 H   0  0  0  0  0  0  0  0  0  0  0  0
    3.1190   -1.9980    2.1430 H   0  0  0  0  0  0  0  0  0  0  0  0
    1.6040   -0.9610    1.9960 H   0  0  0  0  0  0  0  0  0  0  0  0
    1.9410   -3.7380    0.7140 H   0  0  0  0  0  0  0  0  0  0  0  0
    0.6090   -2.5690    0.5500 H   0  0  0  0  0  0  0  0  0  0  0  0
    2.1620   -2.5650   -1.3820 H   0  0  0  0  0  0  0  0  0  0  0  0
    4.1140   -1.1810    0.2890 H   0  0  0  0  0  0  0  0  0  0  0  0
    4.1450   -2.9120    0.0920 H   0  0  0  0  0  0  0  0  0  0  0  0
   -1.6610    0.3740   -2.3740 O   0  0  0  0  0  0  0  0  0  0  0  0
   -0.5560    1.2310   -2.3450 C   0  0  0  0  0  0  0  0  0  0  0  0
    0.1200    1.1150   -0.9860 C   0  0  2  0  0  0  0  0  0  0  0  0
    0.5320   -0.2650   -0.8300 N   0  0  0  0  0  0  0  0  0  0  0  0
   -0.8550    1.5190    0.0500 C   0  0  0  0  0  0  0  0  0  0  0  0
   -1.3560    2.6650    0.1220 O   0  0  0  0  0  0  0  0  0  0  0  0
   -1.8670    0.0830   -1.4330 H   0  0  0  0  0  0  0  0  0  0  0  0
   -0.9030    2.2570   -2.5480 H   0  0  0  0  0  0  0  0  0  0  0  0
    0.1180    0.8950   -3.1600 H   0  0  0  0  0  0  0  0  0  0  0  0
    0.9700    1.8140   -0.9270 H   0  0  0  0  0  0  0  0  0  0  0  0
   -0.1590   -1.0450   -0.8610 H   0  0  0  0  0  0  0  0  0  0  0  0
   -1.2600    0.5640    1.0320 N   0  0  0  0  0  0  0  0  0  0  0  0
   -2.2010    0.9470    2.0350 C   0  0  0  0  0  0  0  0  0  0  0  0
   -3.4920    1.3830    1.5190 C   0  0  0  0  0  0  0  0  0  0  0  0
   -3.7170    1.4060    0.2910 O   0  0  0  0  0  0  0  0  0  0  0  0
   -4.4950    1.7820    2.3780 O   0  0  0  0  0  0  0  0  0  0  0  0
   -0.8860   -0.4150    1.0400 H   0  0  0  0  0  0  0  0  0  0  0  0
   -1.7610    1.7200    2.7250 H   0  0  0  0  0  0  0  0  0  0  0  0
   -2.3770    0.0740    2.7070 H   0  0  0  0  0  0  0  0  0  0  0  0
  1 10  1  0  0  0  0
  1 11  1  0  0  0  0
  2  1  1  0  0  0  0
  3  2  2  0  0  0  0
  4 12  1  0  0  0  0
  4  2  1  0  0  0  0
  5  4  1  0  0  0  0
  6 16  1  6  0  0  0
  6  7  1  0  0  0  0
  6  5  1  0  0  0  0
  7 18  1  0  0  0  0
  7 17  1  0  0  0  0
  8  9  2  0  0  0  0
  8  6  1  0  0  0  0
 13  4  1  0  0  0  0
 14  5  1  0  0  0  0
 15  5  1  0  0  0  0
 19 20  1  0  0  0  0
 19 25  1  0  0  0  0
 20 21  1  0  0  0  0
 21 28  1  1  0  0  0
 21 22  1  0  0  0  0
 21 23  1  0  0  0  0
 22  8  1  0  0  0  0
 23 24  2  0  0  0  0
 23 30  1  0  0  0  0
 26 20  1  0  0  0  0
 27 20  1  0  0  0  0
 29 22  1  0  0  0  0
 30 35  1  0  0  0  0
 30 31  1  0  0  0  0
 31 37  1  0  0  0  0
 31 36  1  0  0  0  0
 32 31  1  0  0  0  0
 32 34  1  0  0  0  0
 33 32  2  0  0  0  0
M  END
$$$$
