QSK.pdb
 OpenBabel07022418333D

 51 50  0  0  1  0  0  0  0  0999 V2000
    6.0090   -3.8320    0.7310 N   0  0  0  0  0  0  0  0  0  0  0  0
    5.1280   -3.1450    1.6490 C   0  0  0  0  0  0  0  0  0  0  0  0
    4.3060   -3.8770    2.2320 O   0  0  0  0  0  0  0  0  0  0  0  0
    5.2080   -1.7040    1.8680 C   0  0  0  0  0  0  0  0  0  0  0  0
    4.1050   -1.1110    2.6940 C   0  0  0  0  0  0  0  0  0  0  0  0
    2.7910   -1.3210    2.0120 C   0  0  2  0  0  0  0  0  0  0  0  0
    2.7370   -0.7090    0.7020 N   0  0  0  0  0  0  0  0  0  0  0  0
    1.6440   -0.8670    2.8670 C   0  0  0  0  0  0  0  0  0  0  0  0
    1.5570   -1.3170    4.0380 O   0  0  0  0  0  0  0  0  0  0  0  0
    5.6840   -4.2600   -0.1450 H   0  0  0  0  0  0  0  0  0  0  0  0
    7.0200   -3.8890    0.9800 H   0  0  0  0  0  0  0  0  0  0  0  0
    6.2110   -1.3860    2.2510 H   0  0  0  0  0  0  0  0  0  0  0  0
    5.1420   -1.2170    0.8500 H   0  0  0  0  0  0  0  0  0  0  0  0
    4.0340   -1.6710    3.6740 H   0  0  0  0  0  0  0  0  0  0  0  0
    4.3030   -0.0520    2.9500 H   0  0  0  0  0  0  0  0  0  0  0  0
    2.6250   -2.4010    1.8740 H   0  0  0  0  0  0  0  0  0  0  0  0
    2.7140   -1.4070   -0.0690 H   0  0  0  0  0  0  0  0  0  0  0  0
    3.4340    0.0390    0.5660 H   0  0  0  0  0  0  0  0  0  0  0  0
    0.9200    2.3040    3.9980 O   0  0  0  0  0  0  0  0  0  0  0  0
   -0.2840    2.0080    3.3770 C   0  0  0  0  0  0  0  0  0  0  0  0
   -0.4480    0.4910    3.2210 C   0  0  2  0  0  0  0  0  0  0  0  0
    0.6600    0.0430    2.4150 N   0  0  0  0  0  0  0  0  0  0  0  0
   -1.7610    0.2400    2.5510 C   0  0  0  0  0  0  0  0  0  0  0  0
   -2.8490    0.5610    3.0910 O   0  0  0  0  0  0  0  0  0  0  0  0
    1.6750    2.3420    3.3630 H   0  0  0  0  0  0  0  0  0  0  0  0
   -1.1580    2.4640    3.8690 H   0  0  0  0  0  0  0  0  0  0  0  0
   -0.2320    2.4810    2.3530 H   0  0  0  0  0  0  0  0  0  0  0  0
   -0.4440    0.0470    4.2150 H   0  0  0  0  0  0  0  0  0  0  0  0
    0.7830    0.3880    1.4230 H   0  0  0  0  0  0  0  0  0  0  0  0
   -1.8740   -0.3700    1.2740 N   0  0  0  0  0  0  0  0  0  0  0  0
   -3.1000   -0.6290    0.5980 C   0  0  1  0  0  0  0  0  0  0  0  0
   -3.2360   -0.0200   -0.7630 C   0  0  0  0  0  0  0  0  0  0  0  0
   -2.1890   -0.4840   -1.7270 C   0  0  0  0  0  0  0  0  0  0  0  0
   -2.2600    0.1030   -3.0920 C   0  0  0  0  0  0  0  0  0  0  0  0
   -3.5040   -0.1330   -3.8650 C   0  0  0  0  0  0  0  0  0  0  0  0
   -4.6890    0.3990   -3.2470 N   0  0  0  0  0  0  0  0  0  0  0  0
   -3.2690   -2.1000    0.4550 C   0  0  0  0  0  0  0  0  0  0  0  0
   -2.4300   -2.9350    0.8830 O   0  0  0  0  0  0  0  0  0  0  0  0
   -4.3940   -2.6320   -0.1770 O   0  0  0  0  0  0  0  0  0  0  0  0
   -0.9820   -0.6460    0.8050 H   0  0  0  0  0  0  0  0  0  0  0  0
   -3.9670   -0.2820    1.2090 H   0  0  0  0  0  0  0  0  0  0  0  0
   -4.2160   -0.4520   -1.1410 H   0  0  0  0  0  0  0  0  0  0  0  0
   -3.3810    1.0610   -0.7920 H   0  0  0  0  0  0  0  0  0  0  0  0
   -2.1330   -1.5930   -1.8000 H   0  0  0  0  0  0  0  0  0  0  0  0
   -1.1780   -0.1930   -1.3130 H   0  0  0  0  0  0  0  0  0  0  0  0
   -2.0850    1.2100   -3.0650 H   0  0  0  0  0  0  0  0  0  0  0  0
   -1.3750   -0.2970   -3.6580 H   0  0  0  0  0  0  0  0  0  0  0  0
   -3.6340   -1.1920   -4.1870 H   0  0  0  0  0  0  0  0  0  0  0  0
   -3.3980    0.4280   -4.8410 H   0  0  0  0  0  0  0  0  0  0  0  0
   -4.8220    1.4110   -3.4030 H   0  0  0  0  0  0  0  0  0  0  0  0
   -5.5350   -0.1840   -3.4110 H   0  0  0  0  0  0  0  0  0  0  0  0
  1 11  1  0  0  0  0
  1  2  1  0  0  0  0
  2  4  1  0  0  0  0
  2  3  2  0  0  0  0
  4 12  1  0  0  0  0
  4  5  1  0  0  0  0
  5 15  1  0  0  0  0
  5 14  1  0  0  0  0
  6 16  1  6  0  0  0
  6  5  1  0  0  0  0
  6  8  1  0  0  0  0
  7  6  1  0  0  0  0
  8  9  2  0  0  0  0
 10  1  1  0  0  0  0
 13  4  1  0  0  0  0
 17  7  1  0  0  0  0
 18  7  1  0  0  0  0
 20 26  1  0  0  0  0
 20 19  1  0  0  0  0
 21 20  1  0  0  0  0
 21 28  1  1  0  0  0
 22  8  1  0  0  0  0
 22 21  1  0  0  0  0
 23 24  2  0  0  0  0
 23 21  1  0  0  0  0
 25 19  1  0  0  0  0
 27 20  1  0  0  0  0
 29 22  1  0  0  0  0
 30 23  1  0  0  0  0
 31 41  1  1  0  0  0
 31 30  1  0  0  0  0
 32 31  1  0  0  0  0
 33 45  1  0  0  0  0
 33 32  1  0  0  0  0
 34 46  1  0  0  0  0
 34 33  1  0  0  0  0
 35 36  1  0  0  0  0
 35 34  1  0  0  0  0
 37 31  1  0  0  0  0
 37 38  1  0  0  0  0
 39 37  2  0  0  0  0
 40 30  1  0  0  0  0
 42 32  1  0  0  0  0
 43 32  1  0  0  0  0
 44 33  1  0  0  0  0
 47 34  1  0  0  0  0
 48 35  1  0  0  0  0
 49 35  1  0  0  0  0
 50 36  1  0  0  0  0
 51 36  1  0  0  0  0
M  END
$$$$
