QSL.pdb
 OpenBabel07022418333D

 49 48  0  0  1  0  0  0  0  0999 V2000
    2.0320   -1.6170    6.6700 N   0  0  0  0  0  0  0  0  0  0  0  0
    1.7720   -0.2800    6.2170 C   0  0  0  0  0  0  0  0  0  0  0  0
    2.0380    0.7170    6.9260 O   0  0  0  0  0  0  0  0  0  0  0  0
    1.1730   -0.1560    4.8620 C   0  0  0  0  0  0  0  0  0  0  0  0
    0.9390    1.2750    4.4760 C   0  0  0  0  0  0  0  0  0  0  0  0
    0.3330    1.3180    3.0900 C   0  0  2  0  0  0  0  0  0  0  0  0
   -0.9190    0.6160    3.0500 N   0  0  0  0  0  0  0  0  0  0  0  0
    1.2440    0.7100    2.0880 C   0  0  0  0  0  0  0  0  0  0  0  0
    2.4000    1.1970    1.9910 O   0  0  0  0  0  0  0  0  0  0  0  0
    1.3420   -2.0950    7.2820 H   0  0  0  0  0  0  0  0  0  0  0  0
    2.9020   -2.1230    6.3980 H   0  0  0  0  0  0  0  0  0  0  0  0
    0.2270   -0.7360    4.8320 H   0  0  0  0  0  0  0  0  0  0  0  0
    1.8570   -0.6030    4.1100 H   0  0  0  0  0  0  0  0  0  0  0  0
    0.2100    1.7490    5.1750 H   0  0  0  0  0  0  0  0  0  0  0  0
    1.9010    1.8240    4.4970 H   0  0  0  0  0  0  0  0  0  0  0  0
    0.1160    2.3770    2.7820 H   0  0  0  0  0  0  0  0  0  0  0  0
   -0.8660   -0.4000    3.1570 H   0  0  0  0  0  0  0  0  0  0  0  0
   -1.6760    1.0810    3.5960 H   0  0  0  0  0  0  0  0  0  0  0  0
    2.9140   -2.8610   -0.4470 O   0  0  0  0  0  0  0  0  0  0  0  0
    2.0690   -2.4100    0.5690 C   0  0  0  0  0  0  0  0  0  0  0  0
    1.7610   -0.9630    0.2790 C   0  0  2  0  0  0  0  0  0  0  0  0
    0.8920   -0.3630    1.2530 N   0  0  0  0  0  0  0  0  0  0  0  0
    1.2340   -0.7880   -1.1100 C   0  0  0  0  0  0  0  0  0  0  0  0
    1.8420   -1.2370   -2.1140 O   0  0  0  0  0  0  0  0  0  0  0  0
    3.6000   -2.2090   -0.6860 H   0  0  0  0  0  0  0  0  0  0  0  0
    2.6380   -2.4620    1.5050 H   0  0  0  0  0  0  0  0  0  0  0  0
    1.1640   -3.0480    0.5640 H   0  0  0  0  0  0  0  0  0  0  0  0
    2.7310   -0.4240    0.3190 H   0  0  0  0  0  0  0  0  0  0  0  0
   -0.0780   -0.7830    1.3230 H   0  0  0  0  0  0  0  0  0  0  0  0
   -1.6780   -2.4030   -1.4180 C   0  0  0  0  0  0  0  0  0  0  0  0
   -1.9890   -1.9710   -2.8060 C   0  0  0  0  0  0  0  0  0  0  0  0
   -3.4090   -2.3900   -3.1720 C   0  0  0  0  0  0  0  0  0  0  0  0
   -1.8780   -0.4910   -2.9640 C   0  0  0  0  0  0  0  0  0  0  0  0
   -0.5280    0.0870   -2.6960 C   0  0  2  0  0  0  0  0  0  0  0  0
    0.0010   -0.0950   -1.3760 N   0  0  0  0  0  0  0  0  0  0  0  0
   -0.4710    1.5340   -3.1090 C   0  0  0  0  0  0  0  0  0  0  0  0
   -0.9030    1.8250   -4.2410 O   0  0  0  0  0  0  0  0  0  0  0  0
    0.0290    2.5320   -2.3050 O   0  0  0  0  0  0  0  0  0  0  0  0
   -2.4160   -3.2450   -1.1870 H   0  0  0  0  0  0  0  0  0  0  0  0
   -1.8160   -1.6090   -0.6830 H   0  0  0  0  0  0  0  0  0  0  0  0
   -0.6720   -2.8700   -1.3260 H   0  0  0  0  0  0  0  0  0  0  0  0
   -1.2730   -2.4500   -3.5390 H   0  0  0  0  0  0  0  0  0  0  0  0
   -3.5410   -3.4200   -2.8160 H   0  0  0  0  0  0  0  0  0  0  0  0
   -4.0780   -1.7220   -2.5950 H   0  0  0  0  0  0  0  0  0  0  0  0
   -3.4990   -2.2720   -4.2580 H   0  0  0  0  0  0  0  0  0  0  0  0
   -2.1740   -0.2820   -4.0420 H   0  0  0  0  0  0  0  0  0  0  0  0
   -2.6810    0.0270   -2.3760 H   0  0  0  0  0  0  0  0  0  0  0  0
    0.2020   -0.4400   -3.3950 H   0  0  0  0  0  0  0  0  0  0  0  0
   -0.4700    0.2790   -0.4980 H   0  0  0  0  0  0  0  0  0  0  0  0
  1 10  1  0  0  0  0
  2  1  1  0  0  0  0
  2  3  2  0  0  0  0
  4  2  1  0  0  0  0
  5 15  1  0  0  0  0
  5  4  1  0  0  0  0
  5 14  1  0  0  0  0
  6 16  1  6  0  0  0
  6  5  1  0  0  0  0
  7  6  1  0  0  0  0
  7 17  1  0  0  0  0
  7 18  1  0  0  0  0
  8  6  1  0  0  0  0
  9  8  2  0  0  0  0
 11  1  1  0  0  0  0
 12  4  1  0  0  0  0
 13  4  1  0  0  0  0
 19 20  1  0  0  0  0
 20 26  1  0  0  0  0
 21 28  1  1  0  0  0
 21 20  1  0  0  0  0
 21 22  1  0  0  0  0
 22 29  1  0  0  0  0
 22  8  1  0  0  0  0
 23 21  1  0  0  0  0
 24 23  2  0  0  0  0
 25 19  1  0  0  0  0
 27 20  1  0  0  0  0
 30 41  1  0  0  0  0
 30 39  1  0  0  0  0
 30 40  1  0  0  0  0
 31 30  1  0  0  0  0
 32 43  1  0  0  0  0
 32 31  1  0  0  0  0
 32 44  1  0  0  0  0
 33 31  1  0  0  0  0
 33 34  1  0  0  0  0
 33 47  1  0  0  0  0
 34 48  1  6  0  0  0
 34 35  1  0  0  0  0
 35 23  1  0  0  0  0
 35 49  1  0  0  0  0
 36 34  1  0  0  0  0
 36 38  1  0  0  0  0
 37 36  2  0  0  0  0
 42 31  1  0  0  0  0
 45 32  1  0  0  0  0
 46 33  1  0  0  0  0
M  END
$$$$
