QSM.pdb
 OpenBabel07022418333D

 47 46  0  0  1  0  0  0  0  0999 V2000
    2.3330   -3.0530    7.2370 N   0  0  0  0  0  0  0  0  0  0  0  0
    2.5180   -2.4280    5.9830 C   0  0  0  0  0  0  0  0  0  0  0  0
    3.6500   -2.3280    5.4750 O   0  0  0  0  0  0  0  0  0  0  0  0
    1.3480   -1.8880    5.2690 C   0  0  0  0  0  0  0  0  0  0  0  0
    1.8100   -1.1560    4.0200 C   0  0  0  0  0  0  0  0  0  0  0  0
    0.6040   -0.5770    3.2570 C   0  0  2  0  0  0  0  0  0  0  0  0
   -0.2390   -1.6690    2.8890 N   0  0  0  0  0  0  0  0  0  0  0  0
    1.1230    0.2510    2.1880 C   0  0  0  0  0  0  0  0  0  0  0  0
    1.7590    1.3040    2.5380 O   0  0  0  0  0  0  0  0  0  0  0  0
    1.8330   -2.5600    7.9990 H   0  0  0  0  0  0  0  0  0  0  0  0
    2.6780   -4.0100    7.4520 H   0  0  0  0  0  0  0  0  0  0  0  0
    0.8290   -1.1830    5.9670 H   0  0  0  0  0  0  0  0  0  0  0  0
    0.6100   -2.6620    5.0180 H   0  0  0  0  0  0  0  0  0  0  0  0
    2.4880   -0.3420    4.3570 H   0  0  0  0  0  0  0  0  0  0  0  0
    2.4010   -1.8250    3.3730 H   0  0  0  0  0  0  0  0  0  0  0  0
    0.0910    0.0730    4.0050 H   0  0  0  0  0  0  0  0  0  0  0  0
   -0.7270   -1.4090    1.9880 H   0  0  0  0  0  0  0  0  0  0  0  0
   -1.0230   -1.7350    3.5840 H   0  0  0  0  0  0  0  0  0  0  0  0
    2.3950   -0.8360   -1.5720 O   0  0  0  0  0  0  0  0  0  0  0  0
    2.7510    0.2970   -0.8820 C   0  0  0  0  0  0  0  0  0  0  0  0
    1.5680    0.9370   -0.1530 C   0  0  2  0  0  0  0  0  0  0  0  0
    0.9990    0.0140    0.8010 N   0  0  0  0  0  0  0  0  0  0  0  0
    0.6390    1.3980   -1.1910 C   0  0  0  0  0  0  0  0  0  0  0  0
    1.1270    2.2530   -2.0080 O   0  0  0  0  0  0  0  0  0  0  0  0
    2.7600   -1.6670   -1.1910 H   0  0  0  0  0  0  0  0  0  0  0  0
    3.5480    0.0550   -0.1310 H   0  0  0  0  0  0  0  0  0  0  0  0
    3.2180    1.0220   -1.5780 H   0  0  0  0  0  0  0  0  0  0  0  0
    1.9530    1.8190    0.3950 H   0  0  0  0  0  0  0  0  0  0  0  0
    0.4900   -0.8350    0.4910 H   0  0  0  0  0  0  0  0  0  0  0  0
   -2.5790   -3.2700   -1.5460 C   0  0  0  0  0  0  0  0  0  0  0  0
   -1.6380   -1.7710   -1.9600 S   0  0  0  0  0  0  0  0  0  0  0  0
   -2.5590   -0.7280   -3.1160 C   0  0  0  0  0  0  0  0  0  0  0  0
   -1.8560    0.5230   -3.4920 C   0  0  0  0  0  0  0  0  0  0  0  0
   -1.5440    1.4760   -2.3820 C   0  0  2  0  0  0  0  0  0  0  0  0
   -0.7060    0.9810   -1.3470 N   0  0  0  0  0  0  0  0  0  0  0  0
   -2.8180    2.0380   -1.8720 C   0  0  0  0  0  0  0  0  0  0  0  0
   -3.6200    2.5090   -2.7160 O   0  0  0  0  0  0  0  0  0  0  0  0
   -3.1740    2.0760   -0.5460 O   0  0  0  0  0  0  0  0  0  0  0  0
   -2.2880   -3.5360   -0.4900 H   0  0  0  0  0  0  0  0  0  0  0  0
   -2.3390   -4.1080   -2.2000 H   0  0  0  0  0  0  0  0  0  0  0  0
   -3.6400   -2.9910   -1.4920 H   0  0  0  0  0  0  0  0  0  0  0  0
   -2.7420   -1.3740   -4.0200 H   0  0  0  0  0  0  0  0  0  0  0  0
   -3.6010   -0.5400   -2.7310 H   0  0  0  0  0  0  0  0  0  0  0  0
   -0.9430    0.3090   -4.1120 H   0  0  0  0  0  0  0  0  0  0  0  0
   -2.5280    1.0730   -4.2120 H   0  0  0  0  0  0  0  0  0  0  0  0
   -0.9940    2.3290   -2.8790 H   0  0  0  0  0  0  0  0  0  0  0  0
   -1.0700    0.2930   -0.6620 H   0  0  0  0  0  0  0  0  0  0  0  0
  1 11  1  0  0  0  0
  1 10  1  0  0  0  0
  2  1  1  0  0  0  0
  3  2  2  0  0  0  0
  4 12  1  0  0  0  0
  4  2  1  0  0  0  0
  5 14  1  0  0  0  0
  5  4  1  0  0  0  0
  6 16  1  1  0  0  0
  6  5  1  0  0  0  0
  7  6  1  0  0  0  0
  7 18  1  0  0  0  0
  8  9  2  0  0  0  0
  8  6  1  0  0  0  0
 13  4  1  0  0  0  0
 15  5  1  0  0  0  0
 17  7  1  0  0  0  0
 19 25  1  0  0  0  0
 19 20  1  0  0  0  0
 20 21  1  0  0  0  0
 20 26  1  0  0  0  0
 21 28  1  1  0  0  0
 21 22  1  0  0  0  0
 22  8  1  0  0  0  0
 23 21  1  0  0  0  0
 24 23  2  0  0  0  0
 27 20  1  0  0  0  0
 29 22  1  0  0  0  0
 30 41  1  0  0  0  0
 30 39  1  0  0  0  0
 31 30  1  0  0  0  0
 32 43  1  0  0  0  0
 32 31  1  0  0  0  0
 33 32  1  0  0  0  0
 33 34  1  0  0  0  0
 34 46  1  6  0  0  0
 34 36  1  0  0  0  0
 34 35  1  0  0  0  0
 35 23  1  0  0  0  0
 35 47  1  0  0  0  0
 36 38  1  0  0  0  0
 37 36  2  0  0  0  0
 40 30  1  0  0  0  0
 42 32  1  0  0  0  0
 44 33  1  0  0  0  0
 45 33  1  0  0  0  0
M  END
$$$$
