QSN.pdb
 OpenBabel07022418333D

 44 43  0  0  1  0  0  0  0  0999 V2000
   -0.0180   -4.4640    2.9150 N   0  0  0  0  0  0  0  0  0  0  0  0
   -0.4520   -3.1490    3.2460 C   0  0  0  0  0  0  0  0  0  0  0  0
   -1.6130   -3.0020    3.6940 O   0  0  0  0  0  0  0  0  0  0  0  0
    0.4790   -1.9870    3.0520 C   0  0  0  0  0  0  0  0  0  0  0  0
   -0.2550   -0.7550    3.4830 C   0  0  0  0  0  0  0  0  0  0  0  0
    0.5210    0.5160    3.3630 C   0  0  2  0  0  0  0  0  0  0  0  0
   -0.3330    1.6000    3.8200 N   0  0  0  0  0  0  0  0  0  0  0  0
    0.9410    0.8350    1.9730 C   0  0  0  0  0  0  0  0  0  0  0  0
    1.6990    0.0490    1.3780 O   0  0  0  0  0  0  0  0  0  0  0  0
   -0.7210   -5.1890    2.6520 H   0  0  0  0  0  0  0  0  0  0  0  0
    0.9820   -4.7610    2.9190 H   0  0  0  0  0  0  0  0  0  0  0  0
    0.7320   -1.9770    1.9860 H   0  0  0  0  0  0  0  0  0  0  0  0
    1.3910   -2.1920    3.6450 H   0  0  0  0  0  0  0  0  0  0  0  0
   -1.2130   -0.7340    2.9080 H   0  0  0  0  0  0  0  0  0  0  0  0
   -0.5670   -0.8600    4.5480 H   0  0  0  0  0  0  0  0  0  0  0  0
    1.3880    0.4640    4.0360 H   0  0  0  0  0  0  0  0  0  0  0  0
   -1.3270    1.3110    3.9020 H   0  0  0  0  0  0  0  0  0  0  0  0
   -0.0510    1.9480    4.7650 H   0  0  0  0  0  0  0  0  0  0  0  0
    3.2200    1.6820    0.0490 O   0  0  0  0  0  0  0  0  0  0  0  0
    2.3080    2.6830   -0.2620 C   0  0  0  0  0  0  0  0  0  0  0  0
    0.8840    2.3370   -0.0190 C   0  0  2  0  0  0  0  0  0  0  0  0
    0.5060    2.0050    1.3030 N   0  0  0  0  0  0  0  0  0  0  0  0
    0.4380    1.3670   -1.0640 C   0  0  0  0  0  0  0  0  0  0  0  0
    0.8220    1.5910   -2.2370 O   0  0  0  0  0  0  0  0  0  0  0  0
    4.1100    2.0930    0.2310 H   0  0  0  0  0  0  0  0  0  0  0  0
    2.6120    3.6550    0.1810 H   0  0  0  0  0  0  0  0  0  0  0  0
    2.4120    2.8420   -1.3760 H   0  0  0  0  0  0  0  0  0  0  0  0
    0.2960    3.2830   -0.2990 H   0  0  0  0  0  0  0  0  0  0  0  0
   -0.1380    2.6280    1.8780 H   0  0  0  0  0  0  0  0  0  0  0  0
    1.6130   -3.5360   -1.1060 N   0  0  0  0  0  0  0  0  0  0  0  0
    1.0680   -2.2670   -1.3920 C   0  0  0  0  0  0  0  0  0  0  0  0
    1.8380   -1.2890   -1.5230 O   0  0  0  0  0  0  0  0  0  0  0  0
   -0.3750   -2.1010   -1.5340 C   0  0  0  0  0  0  0  0  0  0  0  0
   -0.7850   -0.6770   -1.8390 C   0  0  2  0  0  0  0  0  0  0  0  0
   -0.3750    0.2430   -0.7990 N   0  0  0  0  0  0  0  0  0  0  0  0
   -2.2630   -0.6750   -1.9930 C   0  0  0  0  0  0  0  0  0  0  0  0
   -2.8110   -1.4120   -2.8490 O   0  0  0  0  0  0  0  0  0  0  0  0
   -3.0410    0.1420   -1.1890 O   0  0  0  0  0  0  0  0  0  0  0  0
    1.2970   -4.0940   -0.2920 H   0  0  0  0  0  0  0  0  0  0  0  0
    2.3500   -3.9320   -1.7190 H   0  0  0  0  0  0  0  0  0  0  0  0
   -0.9390   -2.5040   -0.6680 H   0  0  0  0  0  0  0  0  0  0  0  0
   -0.7040   -2.7100   -2.4130 H   0  0  0  0  0  0  0  0  0  0  0  0
   -0.3660   -0.3460   -2.8090 H   0  0  0  0  0  0  0  0  0  0  0  0
   -0.7150    0.0420    0.1650 H   0  0  0  0  0  0  0  0  0  0  0  0
  1 11  1  0  0  0  0
  1  2  1  0  0  0  0
  2  3  2  0  0  0  0
  4  2  1  0  0  0  0
  4  5  1  0  0  0  0
  4 13  1  0  0  0  0
  5 15  1  0  0  0  0
  6  5  1  0  0  0  0
  6  7  1  0  0  0  0
  6 16  1  1  0  0  0
  7 17  1  0  0  0  0
  7 18  1  0  0  0  0
  8  6  1  0  0  0  0
  9  8  2  0  0  0  0
 10  1  1  0  0  0  0
 12  4  1  0  0  0  0
 14  5  1  0  0  0  0
 19 25  1  0  0  0  0
 20 21  1  0  0  0  0
 20 19  1  0  0  0  0
 20 26  1  0  0  0  0
 21 28  1  6  0  0  0
 21 22  1  0  0  0  0
 22 29  1  0  0  0  0
 22  8  1  0  0  0  0
 23 35  1  0  0  0  0
 23 21  1  0  0  0  0
 24 23  2  0  0  0  0
 27 20  1  0  0  0  0
 30 39  1  0  0  0  0
 31 30  1  0  0  0  0
 32 31  2  0  0  0  0
 33 31  1  0  0  0  0
 33 41  1  0  0  0  0
 34 43  1  6  0  0  0
 34 33  1  0  0  0  0
 34 35  1  0  0  0  0
 35 44  1  0  0  0  0
 36 34  1  0  0  0  0
 36 38  1  0  0  0  0
 37 36  2  0  0  0  0
 40 30  1  0  0  0  0
 42 33  1  0  0  0  0
M  END
$$$$
