QSP.pdb
 OpenBabel07022418333D

 44 44  0  0  1  0  0  0  0  0999 V2000
   -0.7030   -6.0760    0.2960 N   0  0  0  0  0  0  0  0  0  0  0  0
   -0.3390   -4.7320    0.5550 C   0  0  0  0  0  0  0  0  0  0  0  0
   -0.6220   -4.2380    1.6570 O   0  0  0  0  0  0  0  0  0  0  0  0
    0.3660   -3.9730   -0.5050 C   0  0  0  0  0  0  0  0  0  0  0  0
    0.6670   -2.5580   -0.0310 C   0  0  0  0  0  0  0  0  0  0  0  0
    1.3790   -1.8430   -1.1450 C   0  0  2  0  0  0  0  0  0  0  0  0
    2.6070   -2.5270   -1.4680 N   0  0  0  0  0  0  0  0  0  0  0  0
    1.5780   -0.4090   -0.9220 C   0  0  0  0  0  0  0  0  0  0  0  0
    2.7720    0.0360   -1.0370 O   0  0  0  0  0  0  0  0  0  0  0  0
   -0.3500   -6.8330    0.9120 H   0  0  0  0  0  0  0  0  0  0  0  0
   -1.3180   -6.3490   -0.4970 H   0  0  0  0  0  0  0  0  0  0  0  0
   -0.2810   -3.9090   -1.4280 H   0  0  0  0  0  0  0  0  0  0  0  0
    1.2750   -4.5080   -0.8150 H   0  0  0  0  0  0  0  0  0  0  0  0
    1.2700   -2.6340    0.8950 H   0  0  0  0  0  0  0  0  0  0  0  0
   -0.3160   -2.0850    0.1770 H   0  0  0  0  0  0  0  0  0  0  0  0
    0.7050   -1.9320   -2.0450 H   0  0  0  0  0  0  0  0  0  0  0  0
    2.6270   -2.8670   -2.4430 H   0  0  0  0  0  0  0  0  0  0  0  0
    3.4530   -1.9510   -1.2220 H   0  0  0  0  0  0  0  0  0  0  0  0
    0.3910    2.3110   -2.7330 O   0  0  0  0  0  0  0  0  0  0  0  0
    0.0090    2.6750   -1.4350 C   0  0  0  0  0  0  0  0  0  0  0  0
    0.8070    1.8960   -0.3910 C   0  0  2  0  0  0  0  0  0  0  0  0
    0.5520    0.5150   -0.5910 N   0  0  0  0  0  0  0  0  0  0  0  0
    0.4860    2.4630    0.9180 C   0  0  0  0  0  0  0  0  0  0  0  0
    0.6480    3.7420    0.9860 O   0  0  0  0  0  0  0  0  0  0  0  0
   -0.1310    1.5570   -3.0870 H   0  0  0  0  0  0  0  0  0  0  0  0
   -1.0770    2.4540   -1.3660 H   0  0  0  0  0  0  0  0  0  0  0  0
    0.1530    3.7630   -1.2620 H   0  0  0  0  0  0  0  0  0  0  0  0
    1.8930    2.0860   -0.6630 H   0  0  0  0  0  0  0  0  0  0  0  0
   -0.4190    0.1280   -0.5150 H   0  0  0  0  0  0  0  0  0  0  0  0
    0.0370    1.8120    2.0770 N   0  0  0  0  0  0  0  0  0  0  0  0
   -0.2800    2.5450    3.3190 C   0  0  0  0  0  0  0  0  0  0  0  0
    0.2810    1.6500    4.3720 C   0  0  0  0  0  0  0  0  0  0  0  0
    0.5080    0.3060    3.7560 C   0  0  0  0  0  0  0  0  0  0  0  0
   -0.2140    0.4440    2.4070 C   0  0  1  0  0  0  0  0  0  0  0  0
   -1.6440    0.1220    2.6060 C   0  0  0  0  0  0  0  0  0  0  0  0
   -2.5260    1.0050    2.4660 O   0  0  0  0  0  0  0  0  0  0  0  0
   -2.0570   -1.1550    2.9510 O   0  0  0  0  0  0  0  0  0  0  0  0
   -1.3420    2.7720    3.4020 H   0  0  0  0  0  0  0  0  0  0  0  0
    0.2570    3.5180    3.3410 H   0  0  0  0  0  0  0  0  0  0  0  0
   -0.3990    1.5800    5.2560 H   0  0  0  0  0  0  0  0  0  0  0  0
    1.2650    2.0480    4.7570 H   0  0  0  0  0  0  0  0  0  0  0  0
    0.0610   -0.5290    4.3280 H   0  0  0  0  0  0  0  0  0  0  0  0
    1.5840    0.1150    3.4990 H   0  0  0  0  0  0  0  0  0  0  0  0
    0.1960   -0.2920    1.6870 H   0  0  0  0  0  0  0  0  0  0  0  0
  1  2  1  0  0  0  0
  1 10  1  0  0  0  0
  2  3  2  0  0  0  0
  4  5  1  0  0  0  0
  4  2  1  0  0  0  0
  5 15  1  0  0  0  0
  5 14  1  0  0  0  0
  6 16  1  6  0  0  0
  6  8  1  0  0  0  0
  6  5  1  0  0  0  0
  7 18  1  0  0  0  0
  7  6  1  0  0  0  0
  8 22  1  0  0  0  0
  9  8  2  0  0  0  0
 11  1  1  0  0  0  0
 12  4  1  0  0  0  0
 13  4  1  0  0  0  0
 17  7  1  0  0  0  0
 19 20  1  0  0  0  0
 20 26  1  0  0  0  0
 20 27  1  0  0  0  0
 20 21  1  0  0  0  0
 21 28  1  6  0  0  0
 21 23  1  0  0  0  0
 22 29  1  0  0  0  0
 22 21  1  0  0  0  0
 23 24  2  0  0  0  0
 23 30  1  0  0  0  0
 25 19  1  0  0  0  0
 30 34  1  0  0  0  0
 30 31  1  0  0  0  0
 31 39  1  0  0  0  0
 31 38  1  0  0  0  0
 31 32  1  0  0  0  0
 32 41  1  0  0  0  0
 32 40  1  0  0  0  0
 33 42  1  0  0  0  0
 33 32  1  0  0  0  0
 34 44  1  6  0  0  0
 34 35  1  0  0  0  0
 34 33  1  0  0  0  0
 35 37  1  0  0  0  0
 36 35  2  0  0  0  0
 43 33  1  0  0  0  0
M  END
$$$$
