QSQ.pdb
 OpenBabel07022418333D

 47 46  0  0  1  0  0  0  0  0999 V2000
    3.8150   -5.4390    2.4320 N   0  0  0  0  0  0  0  0  0  0  0  0
    3.3690   -4.1220    2.6860 C   0  0  0  0  0  0  0  0  0  0  0  0
    2.4700   -3.9390    3.5330 O   0  0  0  0  0  0  0  0  0  0  0  0
    3.9440   -2.9710    1.9710 C   0  0  0  0  0  0  0  0  0  0  0  0
    3.2680   -1.6720    2.2390 C   0  0  0  0  0  0  0  0  0  0  0  0
    1.8140   -1.6130    1.8400 C   0  0  2  0  0  0  0  0  0  0  0  0
    1.6560   -1.8550    0.4160 N   0  0  0  0  0  0  0  0  0  0  0  0
    1.3460   -0.2390    2.2010 C   0  0  0  0  0  0  0  0  0  0  0  0
    1.4160    0.1290    3.4010 O   0  0  0  0  0  0  0  0  0  0  0  0
    3.1610   -6.2700    2.5070 H   0  0  0  0  0  0  0  0  0  0  0  0
    4.7910   -5.6800    2.1620 H   0  0  0  0  0  0  0  0  0  0  0  0
    4.9960   -2.8660    2.3770 H   0  0  0  0  0  0  0  0  0  0  0  0
    4.0850   -3.1760    0.8830 H   0  0  0  0  0  0  0  0  0  0  0  0
    3.3750   -1.4540    3.3420 H   0  0  0  0  0  0  0  0  0  0  0  0
    3.8470   -0.8270    1.7630 H   0  0  0  0  0  0  0  0  0  0  0  0
    1.2710   -2.3940    2.3660 H   0  0  0  0  0  0  0  0  0  0  0  0
    2.2590   -2.6600    0.1340 H   0  0  0  0  0  0  0  0  0  0  0  0
    0.6780   -2.1410    0.1870 H   0  0  0  0  0  0  0  0  0  0  0  0
    2.5200    2.8950    1.3030 O   0  0  0  0  0  0  0  0  0  0  0  0
    1.1800    3.0790    0.8980 C   0  0  0  0  0  0  0  0  0  0  0  0
    0.3700    2.0170    1.6240 C   0  0  2  0  0  0  0  0  0  0  0  0
    0.8250    0.6830    1.2750 N   0  0  0  0  0  0  0  0  0  0  0  0
   -1.0650    2.1250    1.2950 C   0  0  0  0  0  0  0  0  0  0  0  0
   -1.6600    3.1990    1.5180 O   0  0  0  0  0  0  0  0  0  0  0  0
    2.5460    2.6150    2.2640 H   0  0  0  0  0  0  0  0  0  0  0  0
    1.1000    3.0050   -0.1950 H   0  0  0  0  0  0  0  0  0  0  0  0
    0.8710    4.0640    1.3000 H   0  0  0  0  0  0  0  0  0  0  0  0
    0.4790    2.2290    2.7030 H   0  0  0  0  0  0  0  0  0  0  0  0
    0.7590    0.3960    0.2740 H   0  0  0  0  0  0  0  0  0  0  0  0
   -2.5680   -1.7270   -3.7020 N   0  0  0  0  0  0  0  0  0  0  0  0
   -2.9900   -0.5600   -3.0200 C   0  0  0  0  0  0  0  0  0  0  0  0
   -3.5230    0.3510   -3.7410 O   0  0  0  0  0  0  0  0  0  0  0  0
   -2.8240   -0.4020   -1.5520 C   0  0  0  0  0  0  0  0  0  0  0  0
   -3.3610    0.9370   -1.0920 C   0  0  0  0  0  0  0  0  0  0  0  0
   -3.2020    1.1200    0.3990 C   0  0  2  0  0  0  0  0  0  0  0  0
   -1.7780    1.0440    0.7360 N   0  0  0  0  0  0  0  0  0  0  0  0
   -3.9640    0.1370    1.1740 C   0  0  0  0  0  0  0  0  0  0  0  0
   -5.2120    0.0780    0.9960 O   0  0  0  0  0  0  0  0  0  0  0  0
   -3.3640   -0.7120    2.0800 O   0  0  0  0  0  0  0  0  0  0  0  0
   -3.2150   -2.5610   -3.7770 H   0  0  0  0  0  0  0  0  0  0  0  0
   -1.6100   -1.7290   -4.1190 H   0  0  0  0  0  0  0  0  0  0  0  0
   -3.3830   -1.2400   -1.0720 H   0  0  0  0  0  0  0  0  0  0  0  0
   -1.7620   -0.5520   -1.2960 H   0  0  0  0  0  0  0  0  0  0  0  0
   -2.8560    1.7370   -1.6330 H   0  0  0  0  0  0  0  0  0  0  0  0
   -4.4270    0.9670   -1.3530 H   0  0  0  0  0  0  0  0  0  0  0  0
   -3.5560    2.1270    0.6600 H   0  0  0  0  0  0  0  0  0  0  0  0
   -1.2560    0.1580    0.5610 H   0  0  0  0  0  0  0  0  0  0  0  0
  1 10  1  0  0  0  0
  1  2  1  0  0  0  0
  2  3  2  0  0  0  0
  4  5  1  0  0  0  0
  4 12  1  0  0  0  0
  4  2  1  0  0  0  0
  5 14  1  0  0  0  0
  6  8  1  0  0  0  0
  6  5  1  0  0  0  0
  6 16  1  1  0  0  0
  7  6  1  0  0  0  0
  8  9  2  0  0  0  0
 11  1  1  0  0  0  0
 13  4  1  0  0  0  0
 15  5  1  0  0  0  0
 17  7  1  0  0  0  0
 18  7  1  0  0  0  0
 19 25  1  0  0  0  0
 20 27  1  0  0  0  0
 20 19  1  0  0  0  0
 20 21  1  0  0  0  0
 21 28  1  1  0  0  0
 22 21  1  0  0  0  0
 22  8  1  0  0  0  0
 23 24  2  0  0  0  0
 23 21  1  0  0  0  0
 26 20  1  0  0  0  0
 29 22  1  0  0  0  0
 30 31  1  0  0  0  0
 31 33  1  0  0  0  0
 32 31  2  0  0  0  0
 33 43  1  0  0  0  0
 33 34  1  0  0  0  0
 33 42  1  0  0  0  0
 34 35  1  0  0  0  0
 35 46  1  1  0  0  0
 35 36  1  0  0  0  0
 35 37  1  0  0  0  0
 36 23  1  0  0  0  0
 37 39  1  0  0  0  0
 38 37  2  0  0  0  0
 40 30  1  0  0  0  0
 41 30  1  0  0  0  0
 44 34  1  0  0  0  0
 45 34  1  0  0  0  0
 47 36  1  0  0  0  0
M  END
$$$$
