QSR.pdb
 OpenBabel07022418333D

 53 52  0  0  1  0  0  0  0  0999 V2000
    4.7300   -2.5840   -3.1030 N   0  0  0  0  0  0  0  0  0  0  0  0
    4.0130   -2.4700   -1.9010 C   0  0  0  0  0  0  0  0  0  0  0  0
    4.4260   -3.2080   -0.9440 O   0  0  0  0  0  0  0  0  0  0  0  0
    2.8600   -1.5830   -1.7030 C   0  0  0  0  0  0  0  0  0  0  0  0
    2.3800   -1.3970   -0.3210 C   0  0  0  0  0  0  0  0  0  0  0  0
    3.2890   -0.7920    0.6740 C   0  0  2  0  0  0  0  0  0  0  0  0
    4.5130   -1.4460    0.9530 N   0  0  0  0  0  0  0  0  0  0  0  0
    2.5080   -0.6320    1.9510 C   0  0  0  0  0  0  0  0  0  0  0  0
    2.9630   -1.1080    3.0290 O   0  0  0  0  0  0  0  0  0  0  0  0
    5.7420   -2.3870   -3.1230 H   0  0  0  0  0  0  0  0  0  0  0  0
    4.2500   -2.8650   -3.9720 H   0  0  0  0  0  0  0  0  0  0  0  0
    2.9930   -0.6180   -2.2670 H   0  0  0  0  0  0  0  0  0  0  0  0
    2.0090   -2.0740   -2.2700 H   0  0  0  0  0  0  0  0  0  0  0  0
    1.9590   -2.3810    0.0220 H   0  0  0  0  0  0  0  0  0  0  0  0
    1.4620   -0.7380   -0.3680 H   0  0  0  0  0  0  0  0  0  0  0  0
    3.5360    0.2730    0.3870 H   0  0  0  0  0  0  0  0  0  0  0  0
    4.4790   -1.8530    1.9130 H   0  0  0  0  0  0  0  0  0  0  0  0
    5.3270   -0.8080    0.9350 H   0  0  0  0  0  0  0  0  0  0  0  0
    1.5910    2.1710    3.8450 O   0  0  0  0  0  0  0  0  0  0  0  0
    0.3340    1.6330    3.6480 C   0  0  0  0  0  0  0  0  0  0  0  0
    0.5050    0.1940    3.2460 C   0  0  2  0  0  0  0  0  0  0  0  0
    1.2670    0.0320    2.0330 N   0  0  0  0  0  0  0  0  0  0  0  0
   -0.7800   -0.5040    3.0860 C   0  0  0  0  0  0  0  0  0  0  0  0
   -1.5810   -0.4700    4.0780 O   0  0  0  0  0  0  0  0  0  0  0  0
    1.4940    3.1570    3.8570 H   0  0  0  0  0  0  0  0  0  0  0  0
   -0.1880    1.6400    4.6270 H   0  0  0  0  0  0  0  0  0  0  0  0
   -0.2970    2.2110    2.9460 H   0  0  0  0  0  0  0  0  0  0  0  0
    1.0680   -0.3090    4.0600 H   0  0  0  0  0  0  0  0  0  0  0  0
    0.8620    0.4400    1.1640 H   0  0  0  0  0  0  0  0  0  0  0  0
   -3.0360    2.7310   -0.6080 N   0  0  0  0  0  0  0  0  0  0  0  0
   -3.0620    1.5900   -1.4560 C   0  0  0  0  0  0  0  0  0  0  0  0
   -2.1660    1.4440   -2.3760 N   0  0  0  0  0  0  0  0  0  0  0  0
   -4.0780    0.6100   -1.2860 N   0  0  0  0  0  0  0  0  0  0  0  0
   -3.8130   -0.7730   -1.5530 C   0  0  0  0  0  0  0  0  0  0  0  0
   -2.8350   -1.3700   -0.5450 C   0  0  0  0  0  0  0  0  0  0  0  0
   -3.3910   -1.2760    0.8490 C   0  0  0  0  0  0  0  0  0  0  0  0
   -2.4700   -1.8470    1.8850 C   0  0  2  0  0  0  0  0  0  0  0  0
   -1.1990   -1.2010    1.9420 N   0  0  0  0  0  0  0  0  0  0  0  0
   -2.3730   -3.3090    1.6760 C   0  0  0  0  0  0  0  0  0  0  0  0
   -3.4770   -3.9420    1.6220 O   0  0  0  0  0  0  0  0  0  0  0  0
   -1.2020   -4.0120    1.5390 O   0  0  0  0  0  0  0  0  0  0  0  0
   -3.9210    3.0900   -0.1920 H   0  0  0  0  0  0  0  0  0  0  0  0
   -2.1560    3.2510   -0.3660 H   0  0  0  0  0  0  0  0  0  0  0  0
   -2.1230    0.6390   -3.0300 H   0  0  0  0  0  0  0  0  0  0  0  0
   -5.0110    0.9390   -0.9620 H   0  0  0  0  0  0  0  0  0  0  0  0
   -4.7640   -1.3400   -1.5670 H   0  0  0  0  0  0  0  0  0  0  0  0
   -3.3720   -0.8900   -2.5600 H   0  0  0  0  0  0  0  0  0  0  0  0
   -2.7270   -2.4390   -0.8290 H   0  0  0  0  0  0  0  0  0  0  0  0
   -1.8460   -0.8760   -0.6250 H   0  0  0  0  0  0  0  0  0  0  0  0
   -3.6780   -0.2330    1.1000 H   0  0  0  0  0  0  0  0  0  0  0  0
   -4.3360   -1.8740    0.8840 H   0  0  0  0  0  0  0  0  0  0  0  0
   -3.0020   -1.6980    2.8710 H   0  0  0  0  0  0  0  0  0  0  0  0
   -0.5590   -1.2390    1.1210 H   0  0  0  0  0  0  0  0  0  0  0  0
  1  2  1  0  0  0  0
  2  4  1  0  0  0  0
  2  3  2  0  0  0  0
  4  5  1  0  0  0  0
  5 14  1  0  0  0  0
  5  6  1  0  0  0  0
  6 16  1  6  0  0  0
  6  7  1  0  0  0  0
  6  8  1  0  0  0  0
  7 17  1  0  0  0  0
  8 22  1  0  0  0  0
  8  9  2  0  0  0  0
 10  1  1  0  0  0  0
 11  1  1  0  0  0  0
 12  4  1  0  0  0  0
 13  4  1  0  0  0  0
 15  5  1  0  0  0  0
 18  7  1  0  0  0  0
 19 25  1  0  0  0  0
 20 19  1  0  0  0  0
 20 26  1  0  0  0  0
 21 20  1  0  0  0  0
 21 28  1  1  0  0  0
 22 21  1  0  0  0  0
 23 21  1  0  0  0  0
 23 24  2  0  0  0  0
 27 20  1  0  0  0  0
 29 22  1  0  0  0  0
 30 43  1  0  0  0  0
 30 42  1  0  0  0  0
 31 33  1  0  0  0  0
 31 30  1  0  0  0  0
 32 31  2  0  0  0  0
 33 45  1  0  0  0  0
 34 33  1  0  0  0  0
 34 35  1  0  0  0  0
 35 36  1  0  0  0  0
 36 51  1  0  0  0  0
 36 50  1  0  0  0  0
 36 37  1  0  0  0  0
 37 38  1  0  0  0  0
 37 52  1  1  0  0  0
 38 23  1  0  0  0  0
 39 37  1  0  0  0  0
 40 39  1  0  0  0  0
 41 39  2  0  0  0  0
 44 32  1  0  0  0  0
 46 34  1  0  0  0  0
 47 34  1  0  0  0  0
 48 35  1  0  0  0  0
 49 35  1  0  0  0  0
 53 38  1  0  0  0  0
M  END
$$$$
