QSV.pdb
 OpenBabel07022418343D

 46 45  0  0  1  0  0  0  0  0999 V2000
    0.6270   -6.2700    3.9530 N   0  0  0  0  0  0  0  0  0  0  0  0
    0.8130   -4.8620    4.1080 C   0  0  0  0  0  0  0  0  0  0  0  0
   -0.0890   -4.2150    4.6620 O   0  0  0  0  0  0  0  0  0  0  0  0
    2.0650   -4.2720    3.6010 C   0  0  0  0  0  0  0  0  0  0  0  0
    2.1000   -2.7710    3.6370 C   0  0  0  0  0  0  0  0  0  0  0  0
    1.0190   -2.1820    2.7660 C   0  0  2  0  0  0  0  0  0  0  0  0
    1.2210   -2.6280    1.3890 N   0  0  0  0  0  0  0  0  0  0  0  0
    0.9920   -0.7020    2.8460 C   0  0  0  0  0  0  0  0  0  0  0  0
    0.8270   -0.1620    3.9580 O   0  0  0  0  0  0  0  0  0  0  0  0
    1.0800   -6.9220    4.6220 H   0  0  0  0  0  0  0  0  0  0  0  0
    0.0480   -6.6630    3.1850 H   0  0  0  0  0  0  0  0  0  0  0  0
    2.1170   -4.5730    2.5140 H   0  0  0  0  0  0  0  0  0  0  0  0
    2.9630   -4.7300    4.0660 H   0  0  0  0  0  0  0  0  0  0  0  0
    3.0670   -2.3810    3.2790 H   0  0  0  0  0  0  0  0  0  0  0  0
    1.9210   -2.4690    4.6990 H   0  0  0  0  0  0  0  0  0  0  0  0
    0.0470   -2.5860    3.0960 H   0  0  0  0  0  0  0  0  0  0  0  0
    0.4710   -3.2580    1.0650 H   0  0  0  0  0  0  0  0  0  0  0  0
    2.1770   -2.9710    1.2420 H   0  0  0  0  0  0  0  0  0  0  0  0
    2.7980    1.5920   -0.0640 O   0  0  0  0  0  0  0  0  0  0  0  0
    2.4870    2.0650    1.2090 C   0  0  0  0  0  0  0  0  0  0  0  0
    1.1450    1.4930    1.6250 C   0  0  2  0  0  0  0  0  0  0  0  0
    1.1550    0.0520    1.6620 N   0  0  0  0  0  0  0  0  0  0  0  0
    0.0900    2.0230    0.7220 C   0  0  0  0  0  0  0  0  0  0  0  0
   -0.0730    3.2590    0.5590 O   0  0  0  0  0  0  0  0  0  0  0  0
    2.1640    0.9290   -0.4100 H   0  0  0  0  0  0  0  0  0  0  0  0
    2.4080    3.1620    1.1260 H   0  0  0  0  0  0  0  0  0  0  0  0
    3.2900    1.7940    1.9170 H   0  0  0  0  0  0  0  0  0  0  0  0
    0.9870    1.8560    2.6820 H   0  0  0  0  0  0  0  0  0  0  0  0
    1.2880   -0.4760    0.7740 H   0  0  0  0  0  0  0  0  0  0  0  0
   -2.7540    1.6380   -3.2090 C   0  0  0  0  0  0  0  0  0  0  0  0
   -1.7020    1.1040   -2.2890 C   0  0  0  0  0  0  0  0  0  0  0  0
   -0.3100    1.5120   -2.7860 C   0  0  0  0  0  0  0  0  0  0  0  0
   -1.8240    1.6870   -0.8860 C   0  0  2  0  0  0  0  0  0  0  0  0
   -0.7980    1.1570   -0.0090 N   0  0  0  0  0  0  0  0  0  0  0  0
   -3.1600    1.2580   -0.3610 C   0  0  0  0  0  0  0  0  0  0  0  0
   -3.2460    0.5520    0.6830 O   0  0  0  0  0  0  0  0  0  0  0  0
   -4.3320    1.6140   -0.9940 O   0  0  0  0  0  0  0  0  0  0  0  0
   -2.3850    1.6790   -4.2570 H   0  0  0  0  0  0  0  0  0  0  0  0
   -3.2000    2.5740   -2.8680 H   0  0  0  0  0  0  0  0  0  0  0  0
   -3.5840    0.8740   -3.2300 H   0  0  0  0  0  0  0  0  0  0  0  0
   -1.7070    0.0140   -2.2310 H   0  0  0  0  0  0  0  0  0  0  0  0
   -0.2940    2.5680   -3.0920 H   0  0  0  0  0  0  0  0  0  0  0  0
    0.3520    1.4070   -1.9050 H   0  0  0  0  0  0  0  0  0  0  0  0
    0.0100    0.9120   -3.6450 H   0  0  0  0  0  0  0  0  0  0  0  0
   -1.7980    2.7820   -0.8890 H   0  0  0  0  0  0  0  0  0  0  0  0
   -0.6630    0.1310    0.1260 H   0  0  0  0  0  0  0  0  0  0  0  0
  1  2  1  0  0  0  0
  1 10  1  0  0  0  0
  2  3  2  0  0  0  0
  4  5  1  0  0  0  0
  4 13  1  0  0  0  0
  4  2  1  0  0  0  0
  5 15  1  0  0  0  0
  6  8  1  0  0  0  0
  6 16  1  1  0  0  0
  6  5  1  0  0  0  0
  7  6  1  0  0  0  0
  8  9  2  0  0  0  0
 11  1  1  0  0  0  0
 12  4  1  0  0  0  0
 14  5  1  0  0  0  0
 17  7  1  0  0  0  0
 18  7  1  0  0  0  0
 19 20  1  0  0  0  0
 20 21  1  0  0  0  0
 20 27  1  0  0  0  0
 21 22  1  0  0  0  0
 21 28  1  1  0  0  0
 22  8  1  0  0  0  0
 23 21  1  0  0  0  0
 24 23  2  0  0  0  0
 25 19  1  0  0  0  0
 26 20  1  0  0  0  0
 29 22  1  0  0  0  0
 30 39  1  0  0  0  0
 30 31  1  0  0  0  0
 31 41  1  0  0  0  0
 31 33  1  0  0  0  0
 32 31  1  0  0  0  0
 32 43  1  0  0  0  0
 33 45  1  6  0  0  0
 33 35  1  0  0  0  0
 33 34  1  0  0  0  0
 34 46  1  0  0  0  0
 34 23  1  0  0  0  0
 35 36  1  0  0  0  0
 37 35  2  0  0  0  0
 38 30  1  0  0  0  0
 40 30  1  0  0  0  0
 42 32  1  0  0  0  0
 44 32  1  0  0  0  0
M  END
$$$$
