QSW.pdb
 OpenBabel07022418333D

 54 55  0  0  1  0  0  0  0  0999 V2000
    1.5540   -4.0930    2.3440 N   0  0  0  0  0  0  0  0  0  0  0  0
    2.3320   -3.3020    1.4600 C   0  0  0  0  0  0  0  0  0  0  0  0
    3.5600   -3.5000    1.4080 O   0  0  0  0  0  0  0  0  0  0  0  0
    1.6560   -2.2910    0.6500 C   0  0  0  0  0  0  0  0  0  0  0  0
    2.5100   -1.3620   -0.1130 C   0  0  0  0  0  0  0  0  0  0  0  0
    3.4290   -0.4700    0.6210 C   0  0  2  0  0  0  0  0  0  0  0  0
    4.4200   -1.0510    1.4390 N   0  0  0  0  0  0  0  0  0  0  0  0
    2.7470    0.6160    1.3670 C   0  0  0  0  0  0  0  0  0  0  0  0
    3.1100    0.8490    2.5400 O   0  0  0  0  0  0  0  0  0  0  0  0
    0.6240   -4.4880    2.0290 H   0  0  0  0  0  0  0  0  0  0  0  0
    1.8530   -4.3130    3.3090 H   0  0  0  0  0  0  0  0  0  0  0  0
    1.0600   -2.8770   -0.1200 H   0  0  0  0  0  0  0  0  0  0  0  0
    0.8340   -1.7680    1.2240 H   0  0  0  0  0  0  0  0  0  0  0  0
    1.8710   -0.7620   -0.7890 H   0  0  0  0  0  0  0  0  0  0  0  0
    3.1490   -1.9940   -0.8010 H   0  0  0  0  0  0  0  0  0  0  0  0
    4.0030    0.0950   -0.1880 H   0  0  0  0  0  0  0  0  0  0  0  0
    4.2790   -1.0270    2.4490 H   0  0  0  0  0  0  0  0  0  0  0  0
    5.3780   -1.0390    1.0990 H   0  0  0  0  0  0  0  0  0  0  0  0
    0.7700    3.9190   -0.3020 O   0  0  0  0  0  0  0  0  0  0  0  0
    1.2800    3.8190    0.9710 C   0  0  0  0  0  0  0  0  0  0  0  0
    1.0760    2.4490    1.5820 C   0  0  2  0  0  0  0  0  0  0  0  0
    1.7070    1.4010    0.8150 N   0  0  0  0  0  0  0  0  0  0  0  0
   -0.3660    2.1660    1.8000 C   0  0  0  0  0  0  0  0  0  0  0  0
   -1.1070    2.9820    2.4460 O   0  0  0  0  0  0  0  0  0  0  0  0
    0.1150    3.2040   -0.4880 H   0  0  0  0  0  0  0  0  0  0  0  0
    0.7760    4.5450    1.6520 H   0  0  0  0  0  0  0  0  0  0  0  0
    2.3490    4.1010    0.9450 H   0  0  0  0  0  0  0  0  0  0  0  0
    1.5410    2.4930    2.5880 H   0  0  0  0  0  0  0  0  0  0  0  0
    1.4210    1.1880   -0.1650 H   0  0  0  0  0  0  0  0  0  0  0  0
   -0.8920    0.9630    1.2690 N   0  0  0  0  0  0  0  0  0  0  0  0
   -2.3000    0.6520    1.4610 C   0  0  1  0  0  0  0  0  0  0  0  0
   -3.0210    0.6250    0.1420 C   0  0  0  0  0  0  0  0  0  0  0  0
   -2.4960   -0.3400   -0.8360 C   0  0  0  0  0  0  0  0  0  0  0  0
   -1.5930   -0.0180   -1.8590 C   0  0  0  0  0  0  0  0  0  0  0  0
   -1.2960   -1.1290   -2.5390 N   0  0  0  0  0  0  0  0  0  0  0  0
   -1.9670   -2.1890   -2.0150 C   0  0  0  0  0  0  0  0  0  0  0  0
   -2.0160   -3.5250   -2.3450 C   0  0  0  0  0  0  0  0  0  0  0  0
   -2.7990   -4.4190   -1.6490 C   0  0  0  0  0  0  0  0  0  0  0  0
   -3.5420   -3.9310   -0.5980 C   0  0  0  0  0  0  0  0  0  0  0  0
   -3.4930   -2.6020   -0.2690 C   0  0  0  0  0  0  0  0  0  0  0  0
   -2.7110   -1.6850   -0.9550 C   0  0  0  0  0  0  0  0  0  0  0  0
   -2.5210   -0.4840    2.3450 C   0  0  0  0  0  0  0  0  0  0  0  0
   -3.6890   -0.7790    2.6970 O   0  0  0  0  0  0  0  0  0  0  0  0
   -1.5040   -1.2930    2.8440 O   0  0  0  0  0  0  0  0  0  0  0  0
   -0.3150    0.2780    0.7390 H   0  0  0  0  0  0  0  0  0  0  0  0
   -2.7370    1.5540    2.0040 H   0  0  0  0  0  0  0  0  0  0  0  0
   -2.9860    1.6660   -0.2800 H   0  0  0  0  0  0  0  0  0  0  0  0
   -4.0910    0.3750    0.3820 H   0  0  0  0  0  0  0  0  0  0  0  0
   -1.1830    0.9640   -2.0850 H   0  0  0  0  0  0  0  0  0  0  0  0
   -0.6650   -1.2390   -3.3490 H   0  0  0  0  0  0  0  0  0  0  0  0
   -1.4200   -3.8650   -3.1730 H   0  0  0  0  0  0  0  0  0  0  0  0
   -2.8420   -5.4770   -1.9060 H   0  0  0  0  0  0  0  0  0  0  0  0
   -4.1710   -4.6360   -0.0360 H   0  0  0  0  0  0  0  0  0  0  0  0
   -4.0940   -2.2310    0.5510 H   0  0  0  0  0  0  0  0  0  0  0  0
  1 11  1  0  0  0  0
  2  1  1  0  0  0  0
  3  2  2  0  0  0  0
  4 13  1  0  0  0  0
  4  2  1  0  0  0  0
  5  6  1  0  0  0  0
  5  4  1  0  0  0  0
  6 16  1  6  0  0  0
  6  8  1  0  0  0  0
  6  7  1  0  0  0  0
  7 17  1  0  0  0  0
  8  9  2  0  0  0  0
 10  1  1  0  0  0  0
 12  4  1  0  0  0  0
 14  5  1  0  0  0  0
 15  5  1  0  0  0  0
 18  7  1  0  0  0  0
 19 20  1  0  0  0  0
 20 21  1  0  0  0  0
 20 26  1  0  0  0  0
 21 23  1  0  0  0  0
 21 28  1  1  0  0  0
 22  8  1  0  0  0  0
 22 21  1  0  0  0  0
 23 24  2  0  0  0  0
 25 19  1  0  0  0  0
 27 20  1  0  0  0  0
 29 22  1  0  0  0  0
 30 31  1  0  0  0  0
 30 23  1  0  0  0  0
 31 46  1  1  0  0  0
 31 42  1  0  0  0  0
 32 48  1  0  0  0  0
 32 31  1  0  0  0  0
 33 32  1  0  0  0  0
 34 33  2  0  0  0  0
 35 36  1  0  0  0  0
 35 34  1  0  0  0  0
 36 41  1  0  0  0  0
 37 36  2  0  0  0  0
 37 38  1  0  0  0  0
 38 39  2  0  0  0  0
 39 40  1  0  0  0  0
 39 53  1  0  0  0  0
 40 54  1  0  0  0  0
 41 33  1  0  0  0  0
 41 40  2  0  0  0  0
 42 43  2  0  0  0  0
 42 44  1  0  0  0  0
 45 30  1  0  0  0  0
 47 32  1  0  0  0  0
 49 34  1  0  0  0  0
 50 35  1  0  0  0  0
 51 37  1  0  0  0  0
 52 38  1  0  0  0  0
M  END
$$$$
