QTF.pdb
 OpenBabel07022418343D

 53 53  0  0  1  0  0  0  0  0999 V2000
    2.6080   -2.0190    5.9260 N   0  0  0  0  0  0  0  0  0  0  0  0
    3.3920   -1.2170    5.0110 C   0  0  0  0  0  0  0  0  0  0  0  0
    4.0170   -0.2910    5.5750 O   0  0  0  0  0  0  0  0  0  0  0  0
    3.4280   -1.4920    3.5790 C   0  0  0  0  0  0  0  0  0  0  0  0
    4.0320   -0.4960    2.6850 C   0  0  0  0  0  0  0  0  0  0  0  0
    3.4510    0.8490    2.5790 C   0  0  2  0  0  0  0  0  0  0  0  0
    3.4540    1.5300    3.8440 N   0  0  0  0  0  0  0  0  0  0  0  0
    2.1530    0.9280    1.8960 C   0  0  0  0  0  0  0  0  0  0  0  0
    1.2220    1.5480    2.4490 O   0  0  0  0  0  0  0  0  0  0  0  0
    2.5130   -3.0470    5.7580 H   0  0  0  0  0  0  0  0  0  0  0  0
    2.1370   -1.6160    6.7420 H   0  0  0  0  0  0  0  0  0  0  0  0
    2.4280   -1.7660    3.1600 H   0  0  0  0  0  0  0  0  0  0  0  0
    4.0170   -2.4530    3.4200 H   0  0  0  0  0  0  0  0  0  0  0  0
    5.1100   -0.3820    2.9780 H   0  0  0  0  0  0  0  0  0  0  0  0
    4.0860   -0.9470    1.6590 H   0  0  0  0  0  0  0  0  0  0  0  0
    4.1640    1.4530    1.9280 H   0  0  0  0  0  0  0  0  0  0  0  0
    2.6840    2.2270    3.9500 H   0  0  0  0  0  0  0  0  0  0  0  0
    4.3500    2.0350    4.0080 H   0  0  0  0  0  0  0  0  0  0  0  0
    1.9250    0.5740   -2.1990 C   0  0  0  0  0  0  0  0  0  0  0  0
    0.8200    1.1390   -1.3340 C   0  0  1  0  0  0  0  0  0  0  0  0
   -0.2980    1.2780   -2.1050 O   0  0  0  0  0  0  0  0  0  0  0  0
    0.6360    0.3990   -0.0570 C   0  0  2  0  0  0  0  0  0  0  0  0
    1.9050    0.3370    0.6400 N   0  0  0  0  0  0  0  0  0  0  0  0
    0.0800   -0.9350   -0.1500 C   0  0  0  0  0  0  0  0  0  0  0  0
    0.7230   -1.8920    0.3480 O   0  0  0  0  0  0  0  0  0  0  0  0
    1.7950   -0.5110   -2.2750 H   0  0  0  0  0  0  0  0  0  0  0  0
    2.9300    0.8810   -1.8580 H   0  0  0  0  0  0  0  0  0  0  0  0
    1.7660    0.9930   -3.2250 H   0  0  0  0  0  0  0  0  0  0  0  0
    1.1620    2.1790   -1.0580 H   0  0  0  0  0  0  0  0  0  0  0  0
   -0.2530    0.7410   -2.9320 H   0  0  0  0  0  0  0  0  0  0  0  0
   -0.0400    0.9980    0.6230 H   0  0  0  0  0  0  0  0  0  0  0  0
    2.6980   -0.1880    0.1740 H   0  0  0  0  0  0  0  0  0  0  0  0
   -1.1600   -1.2210   -0.7780 N   0  0  0  0  0  0  0  0  0  0  0  0
   -1.6410   -2.5640   -0.8290 C   0  0  1  0  0  0  0  0  0  0  0  0
   -2.9400   -2.7420   -0.0570 C   0  0  0  0  0  0  0  0  0  0  0  0
   -4.0300   -1.8910   -0.5720 C   0  0  0  0  0  0  0  0  0  0  0  0
   -4.1840   -0.6150   -0.0440 C   0  0  0  0  0  0  0  0  0  0  0  0
   -5.1840    0.2290   -0.4820 C   0  0  0  0  0  0  0  0  0  0  0  0
   -6.0700   -0.1570   -1.4600 C   0  0  0  0  0  0  0  0  0  0  0  0
   -5.9260   -1.4210   -1.9910 C   0  0  0  0  0  0  0  0  0  0  0  0
   -4.9230   -2.2700   -1.5520 C   0  0  0  0  0  0  0  0  0  0  0  0
   -1.8830   -3.0530   -2.1940 C   0  0  0  0  0  0  0  0  0  0  0  0
   -2.2960   -4.2130   -2.3760 O   0  0  0  0  0  0  0  0  0  0  0  0
   -1.6530   -2.2320   -3.2740 O   0  0  0  0  0  0  0  0  0  0  0  0
   -1.7330   -0.4440   -1.2100 H   0  0  0  0  0  0  0  0  0  0  0  0
   -0.8920   -3.2270   -0.3170 H   0  0  0  0  0  0  0  0  0  0  0  0
   -2.7420   -2.5700    1.0120 H   0  0  0  0  0  0  0  0  0  0  0  0
   -3.2190   -3.8280   -0.1500 H   0  0  0  0  0  0  0  0  0  0  0  0
   -3.5190   -0.2360    0.7360 H   0  0  0  0  0  0  0  0  0  0  0  0
   -5.2970    1.2250   -0.0630 H   0  0  0  0  0  0  0  0  0  0  0  0
   -6.8510    0.5260   -1.7890 H   0  0  0  0  0  0  0  0  0  0  0  0
   -6.6170   -1.7280   -2.7560 H   0  0  0  0  0  0  0  0  0  0  0  0
   -4.8350   -3.2560   -1.9870 H   0  0  0  0  0  0  0  0  0  0  0  0
  1 11  1  0  0  0  0
  2  3  2  0  0  0  0
  2  1  1  0  0  0  0
  4  2  1  0  0  0  0
  5 14  1  0  0  0  0
  5  4  1  0  0  0  0
  6 16  1  6  0  0  0
  6  5  1  0  0  0  0
  6  7  1  0  0  0  0
  7 17  1  0  0  0  0
  7 18  1  0  0  0  0
  8  9  2  0  0  0  0
  8  6  1  0  0  0  0
 10  1  1  0  0  0  0
 12  4  1  0  0  0  0
 13  4  1  0  0  0  0
 15  5  1  0  0  0  0
 19 27  1  0  0  0  0
 19 20  1  0  0  0  0
 20 29  1  1  0  0  0
 20 22  1  0  0  0  0
 21 20  1  0  0  0  0
 22 31  1  1  0  0  0
 22 23  1  0  0  0  0
 23  8  1  0  0  0  0
 24 22  1  0  0  0  0
 24 25  2  0  0  0  0
 26 19  1  0  0  0  0
 28 19  1  0  0  0  0
 30 21  1  0  0  0  0
 32 23  1  0  0  0  0
 33 24  1  0  0  0  0
 34 33  1  0  0  0  0
 34 46  1  1  0  0  0
 34 35  1  0  0  0  0
 35 47  1  0  0  0  0
 36 35  1  0  0  0  0
 36 37  1  0  0  0  0
 37 49  1  0  0  0  0
 38 50  1  0  0  0  0
 38 37  2  0  0  0  0
 39 38  1  0  0  0  0
 40 41  1  0  0  0  0
 40 39  2  0  0  0  0
 41 36  2  0  0  0  0
 42 34  1  0  0  0  0
 43 42  1  0  0  0  0
 44 42  2  0  0  0  0
 45 33  1  0  0  0  0
 48 35  1  0  0  0  0
 51 39  1  0  0  0  0
 52 40  1  0  0  0  0
 53 41  1  0  0  0  0
M  END
$$$$
