QTG.pdb
 OpenBabel07022418343D

 40 39  0  0  1  0  0  0  0  0999 V2000
    0.9120   -6.6750    1.5820 N   0  0  0  0  0  0  0  0  0  0  0  0
    0.8900   -5.2780    1.8450 C   0  0  0  0  0  0  0  0  0  0  0  0
    1.6490   -4.8130    2.7150 O   0  0  0  0  0  0  0  0  0  0  0  0
   -0.0230   -4.4070    1.0970 C   0  0  0  0  0  0  0  0  0  0  0  0
    0.2710   -2.9530    1.1720 C   0  0  0  0  0  0  0  0  0  0  0  0
    1.5600   -2.4830    0.6150 C   0  0  2  0  0  0  0  0  0  0  0  0
    2.7350   -3.0460    1.2270 N   0  0  0  0  0  0  0  0  0  0  0  0
    1.6050   -0.9740    0.6730 C   0  0  0  0  0  0  0  0  0  0  0  0
    2.5860   -0.4050    1.2400 O   0  0  0  0  0  0  0  0  0  0  0  0
    1.1820   -7.3470    2.3410 H   0  0  0  0  0  0  0  0  0  0  0  0
    0.6730   -7.0970    0.6630 H   0  0  0  0  0  0  0  0  0  0  0  0
   -0.1420   -4.7310    0.0320 H   0  0  0  0  0  0  0  0  0  0  0  0
   -1.0330   -4.5400    1.6020 H   0  0  0  0  0  0  0  0  0  0  0  0
    0.2510   -2.6970    2.2780 H   0  0  0  0  0  0  0  0  0  0  0  0
   -0.5510   -2.3630    0.6940 H   0  0  0  0  0  0  0  0  0  0  0  0
    1.6630   -2.7100   -0.4860 H   0  0  0  0  0  0  0  0  0  0  0  0
    3.0630   -2.5190    2.0650 H   0  0  0  0  0  0  0  0  0  0  0  0
    3.5450   -3.1390    0.5940 H   0  0  0  0  0  0  0  0  0  0  0  0
    1.9190    1.4480   -1.9710 C   0  0  0  0  0  0  0  0  0  0  0  0
    0.7040    1.8570   -1.2070 C   0  0  1  0  0  0  0  0  0  0  0  0
   -0.4820    1.4610   -1.8460 O   0  0  0  0  0  0  0  0  0  0  0  0
    0.6540    1.2710    0.1850 C   0  0  2  0  0  0  0  0  0  0  0  0
    0.5660   -0.1970    0.1030 N   0  0  0  0  0  0  0  0  0  0  0  0
   -0.5880    1.7440    0.8520 C   0  0  0  0  0  0  0  0  0  0  0  0
   -1.4970    0.9330    1.2390 O   0  0  0  0  0  0  0  0  0  0  0  0
    1.6730    0.5430   -2.5940 H   0  0  0  0  0  0  0  0  0  0  0  0
    2.8110    1.3040   -1.3620 H   0  0  0  0  0  0  0  0  0  0  0  0
    2.1350    2.2530   -2.7200 H   0  0  0  0  0  0  0  0  0  0  0  0
    0.6410    2.9570   -1.0920 H   0  0  0  0  0  0  0  0  0  0  0  0
   -1.2080    1.4200   -1.1730 H   0  0  0  0  0  0  0  0  0  0  0  0
    1.5720    1.5740    0.7110 H   0  0  0  0  0  0  0  0  0  0  0  0
   -0.2400   -0.6610   -0.3640 H   0  0  0  0  0  0  0  0  0  0  0  0
   -0.8500    3.1160    1.1020 N   0  0  0  0  0  0  0  0  0  0  0  0
   -2.0610    3.5790    1.7510 C   0  0  0  0  0  0  0  0  0  0  0  0
   -2.2210    3.0280    3.1040 C   0  0  0  0  0  0  0  0  0  0  0  0
   -3.2360    3.3590    3.7670 O   0  0  0  0  0  0  0  0  0  0  0  0
   -1.3200    2.1610    3.7010 O   0  0  0  0  0  0  0  0  0  0  0  0
   -0.1100    3.7920    0.7880 H   0  0  0  0  0  0  0  0  0  0  0  0
   -2.9500    3.3070    1.1140 H   0  0  0  0  0  0  0  0  0  0  0  0
   -2.0500    4.6710    1.8010 H   0  0  0  0  0  0  0  0  0  0  0  0
  1  2  1  0  0  0  0
  1 10  1  0  0  0  0
  2  3  2  0  0  0  0
  4  5  1  0  0  0  0
  4 13  1  0  0  0  0
  4  2  1  0  0  0  0
  5 14  1  0  0  0  0
  6 16  1  6  0  0  0
  6  8  1  0  0  0  0
  6  5  1  0  0  0  0
  6  7  1  0  0  0  0
  7 17  1  0  0  0  0
  8  9  2  0  0  0  0
 11  1  1  0  0  0  0
 12  4  1  0  0  0  0
 15  5  1  0  0  0  0
 18  7  1  0  0  0  0
 19 27  1  0  0  0  0
 19 20  1  0  0  0  0
 20 29  1  1  0  0  0
 20 22  1  0  0  0  0
 21 20  1  0  0  0  0
 21 30  1  0  0  0  0
 22 31  1  1  0  0  0
 22 24  1  0  0  0  0
 23 22  1  0  0  0  0
 23  8  1  0  0  0  0
 24 33  1  0  0  0  0
 24 25  2  0  0  0  0
 26 19  1  0  0  0  0
 28 19  1  0  0  0  0
 32 23  1  0  0  0  0
 33 34  1  0  0  0  0
 34 40  1  0  0  0  0
 34 35  1  0  0  0  0
 35 37  2  0  0  0  0
 35 36  1  0  0  0  0
 38 33  1  0  0  0  0
 39 34  1  0  0  0  0
M  END
$$$$
