QTH.pdb
 OpenBabel07022418343D

 50 50  0  0  1  0  0  0  0  0999 V2000
    2.8270   -4.1840    2.3400 N   0  0  0  0  0  0  0  0  0  0  0  0
    3.0690   -2.8130    2.1200 C   0  0  0  0  0  0  0  0  0  0  0  0
    4.0310   -2.3310    2.7750 O   0  0  0  0  0  0  0  0  0  0  0  0
    2.3280   -1.9440    1.2320 C   0  0  0  0  0  0  0  0  0  0  0  0
    2.5690   -0.5110    1.2110 C   0  0  0  0  0  0  0  0  0  0  0  0
    2.3480    0.3260    2.3990 C   0  0  2  0  0  0  0  0  0  0  0  0
    3.1340   -0.0120    3.5630 N   0  0  0  0  0  0  0  0  0  0  0  0
    0.9120    0.5190    2.7480 C   0  0  0  0  0  0  0  0  0  0  0  0
    0.4630    0.3910    3.9110 O   0  0  0  0  0  0  0  0  0  0  0  0
    2.8400   -4.8440    1.5430 H   0  0  0  0  0  0  0  0  0  0  0  0
    2.6370   -4.5130    3.3050 H   0  0  0  0  0  0  0  0  0  0  0  0
    2.5210   -2.3300    0.1820 H   0  0  0  0  0  0  0  0  0  0  0  0
    1.2200   -2.1640    1.3450 H   0  0  0  0  0  0  0  0  0  0  0  0
    3.6340   -0.3350    0.8610 H   0  0  0  0  0  0  0  0  0  0  0  0
    1.9720   -0.0870    0.3480 H   0  0  0  0  0  0  0  0  0  0  0  0
    2.6970    1.3680    2.1150 H   0  0  0  0  0  0  0  0  0  0  0  0
    2.5910   -0.2410    4.4000 H   0  0  0  0  0  0  0  0  0  0  0  0
    3.9180    0.6530    3.7210 H   0  0  0  0  0  0  0  0  0  0  0  0
   -0.8000    3.4060    2.5560 C   0  0  0  0  0  0  0  0  0  0  0  0
   -1.7190    2.5420    1.7310 C   0  0  1  0  0  0  0  0  0  0  0  0
   -1.3880    2.7680    0.3820 O   0  0  0  0  0  0  0  0  0  0  0  0
   -1.4320    1.0700    2.0000 C   0  0  2  0  0  0  0  0  0  0  0  0
   -0.0200    0.8650    1.7380 N   0  0  0  0  0  0  0  0  0  0  0  0
   -2.2970    0.2040    1.2030 C   0  0  0  0  0  0  0  0  0  0  0  0
   -3.5410    0.2840    1.3350 O   0  0  0  0  0  0  0  0  0  0  0  0
    0.2080    3.4970    2.0590 H   0  0  0  0  0  0  0  0  0  0  0  0
   -0.7080    3.0060    3.5870 H   0  0  0  0  0  0  0  0  0  0  0  0
   -1.1930    4.4390    2.6630 H   0  0  0  0  0  0  0  0  0  0  0  0
   -2.7580    2.8060    1.9560 H   0  0  0  0  0  0  0  0  0  0  0  0
   -0.4390    2.9850    0.2750 H   0  0  0  0  0  0  0  0  0  0  0  0
   -1.5710    0.9070    3.1100 H   0  0  0  0  0  0  0  0  0  0  0  0
    0.2970    0.9840    0.7610 H   0  0  0  0  0  0  0  0  0  0  0  0
   -1.7890   -0.7410    0.2690 N   0  0  0  0  0  0  0  0  0  0  0  0
   -2.7060   -1.5610   -0.4820 C   0  0  1  0  0  0  0  0  0  0  0  0
   -2.6080   -1.3420   -1.9560 C   0  0  0  0  0  0  0  0  0  0  0  0
   -1.2720   -1.6420   -2.5200 C   0  0  0  0  0  0  0  0  0  0  0  0
   -0.8820   -1.5350   -3.8350 C   0  0  0  0  0  0  0  0  0  0  0  0
    0.4030   -1.9050   -3.8940 N   0  0  0  0  0  0  0  0  0  0  0  0
    0.8390   -2.2430   -2.6650 C   0  0  0  0  0  0  0  0  0  0  0  0
   -0.1980   -2.0750   -1.8440 N   0  0  0  0  0  0  0  0  0  0  0  0
   -2.4760   -2.9970   -0.1720 C   0  0  0  0  0  0  0  0  0  0  0  0
   -3.1920   -3.8560   -0.7440 O   0  0  0  0  0  0  0  0  0  0  0  0
   -1.5160   -3.4220    0.7110 O   0  0  0  0  0  0  0  0  0  0  0  0
   -0.7610   -0.8630    0.1060 H   0  0  0  0  0  0  0  0  0  0  0  0
   -3.7560   -1.3060   -0.1920 H   0  0  0  0  0  0  0  0  0  0  0  0
   -3.3940   -1.9700   -2.4380 H   0  0  0  0  0  0  0  0  0  0  0  0
   -2.8650   -0.2580   -2.1430 H   0  0  0  0  0  0  0  0  0  0  0  0
   -1.4830   -1.2110   -4.6950 H   0  0  0  0  0  0  0  0  0  0  0  0
    1.0020   -1.9380   -4.7520 H   0  0  0  0  0  0  0  0  0  0  0  0
    1.8330   -2.5840   -2.3880 H   0  0  0  0  0  0  0  0  0  0  0  0
  1 11  1  0  0  0  0
  2  1  1  0  0  0  0
  2  3  2  0  0  0  0
  4 13  1  0  0  0  0
  4  2  1  0  0  0  0
  5  4  1  0  0  0  0
  5  6  1  0  0  0  0
  6 16  1  6  0  0  0
  6  8  1  0  0  0  0
  6  7  1  0  0  0  0
  7 18  1  0  0  0  0
  7 17  1  0  0  0  0
  8  9  2  0  0  0  0
 10  1  1  0  0  0  0
 12  4  1  0  0  0  0
 14  5  1  0  0  0  0
 15  5  1  0  0  0  0
 19 28  1  0  0  0  0
 19 27  1  0  0  0  0
 20 29  1  1  0  0  0
 20 22  1  0  0  0  0
 20 19  1  0  0  0  0
 21 20  1  0  0  0  0
 22 31  1  1  0  0  0
 23 22  1  0  0  0  0
 23  8  1  0  0  0  0
 24 25  2  0  0  0  0
 24 22  1  0  0  0  0
 26 19  1  0  0  0  0
 30 21  1  0  0  0  0
 32 23  1  0  0  0  0
 33 24  1  0  0  0  0
 34 45  1  1  0  0  0
 34 41  1  0  0  0  0
 34 33  1  0  0  0  0
 35 34  1  0  0  0  0
 36 35  1  0  0  0  0
 36 40  1  0  0  0  0
 37 36  2  0  0  0  0
 38 37  1  0  0  0  0
 38 39  1  0  0  0  0
 39 50  1  0  0  0  0
 39 40  2  0  0  0  0
 41 43  1  0  0  0  0
 42 41  2  0  0  0  0
 44 33  1  0  0  0  0
 46 35  1  0  0  0  0
 47 35  1  0  0  0  0
 48 37  1  0  0  0  0
 49 38  1  0  0  0  0
M  END
$$$$
