QTI.pdb
 OpenBabel07022418343D

 52 51  0  0  1  0  0  0  0  0999 V2000
    5.4910   -2.4740    4.0990 N   0  0  0  0  0  0  0  0  0  0  0  0
    4.8570   -1.2180    3.9040 C   0  0  0  0  0  0  0  0  0  0  0  0
    5.6220   -0.2090    3.7330 O   0  0  0  0  0  0  0  0  0  0  0  0
    3.3780   -1.0690    3.8970 C   0  0  0  0  0  0  0  0  0  0  0  0
    3.0220    0.3800    3.6670 C   0  0  0  0  0  0  0  0  0  0  0  0
    1.5350    0.6070    3.6480 C   0  0  2  0  0  0  0  0  0  0  0  0
    0.8830    0.2370    4.8610 N   0  0  0  0  0  0  0  0  0  0  0  0
    1.0030   -0.1560    2.4660 C   0  0  0  0  0  0  0  0  0  0  0  0
    0.0960   -0.9830    2.6940 O   0  0  0  0  0  0  0  0  0  0  0  0
    5.0380   -3.1580    4.7750 H   0  0  0  0  0  0  0  0  0  0  0  0
    6.3640   -2.7590    3.6220 H   0  0  0  0  0  0  0  0  0  0  0  0
    3.0340   -1.3650    4.9300 H   0  0  0  0  0  0  0  0  0  0  0  0
    2.9460   -1.7160    3.1250 H   0  0  0  0  0  0  0  0  0  0  0  0
    3.4510    0.9860    4.4790 H   0  0  0  0  0  0  0  0  0  0  0  0
    3.4570    0.7090    2.7220 H   0  0  0  0  0  0  0  0  0  0  0  0
    1.3830    1.7030    3.4890 H   0  0  0  0  0  0  0  0  0  0  0  0
    0.0320    0.7920    5.0850 H   0  0  0  0  0  0  0  0  0  0  0  0
    1.5250    0.1310    5.6760 H   0  0  0  0  0  0  0  0  0  0  0  0
    0.9560   -3.0250   -0.8540 C   0  0  0  0  0  0  0  0  0  0  0  0
    1.3280   -2.1160    0.2790 C   0  0  1  0  0  0  0  0  0  0  0  0
    2.7510   -2.1560    0.3420 O   0  0  0  0  0  0  0  0  0  0  0  0
    0.9900   -0.6760    0.0610 C   0  0  2  0  0  0  0  0  0  0  0  0
    1.5340    0.0840    1.1780 N   0  0  0  0  0  0  0  0  0  0  0  0
   -0.4280   -0.3610   -0.1050 C   0  0  0  0  0  0  0  0  0  0  0  0
   -0.9390    0.4360    0.7580 O   0  0  0  0  0  0  0  0  0  0  0  0
    1.1710   -2.6040   -1.8460 H   0  0  0  0  0  0  0  0  0  0  0  0
   -0.0540   -3.4330   -0.8210 H   0  0  0  0  0  0  0  0  0  0  0  0
    1.6280   -3.9380   -0.7470 H   0  0  0  0  0  0  0  0  0  0  0  0
    0.9920   -2.5360    1.2260 H   0  0  0  0  0  0  0  0  0  0  0  0
    3.0560   -2.8300    0.9930 H   0  0  0  0  0  0  0  0  0  0  0  0
    1.5260   -0.3340   -0.8610 H   0  0  0  0  0  0  0  0  0  0  0  0
    2.3010    0.7960    1.0430 H   0  0  0  0  0  0  0  0  0  0  0  0
   -4.9110    1.5900   -1.4220 C   0  0  0  0  0  0  0  0  0  0  0  0
   -4.4080    0.7520   -2.5500 C   0  0  0  0  0  0  0  0  0  0  0  0
   -2.9900    0.2850   -2.4190 C   0  0  2  0  0  0  0  0  0  0  0  0
   -2.6080   -0.5510   -3.6330 C   0  0  0  0  0  0  0  0  0  0  0  0
   -2.6750   -0.4480   -1.1540 C   0  0  2  0  0  0  0  0  0  0  0  0
   -1.2730   -0.8540   -1.1230 N   0  0  0  0  0  0  0  0  0  0  0  0
   -3.5510   -1.6210   -0.9440 C   0  0  0  0  0  0  0  0  0  0  0  0
   -3.1000   -2.7860   -0.7980 O   0  0  0  0  0  0  0  0  0  0  0  0
   -4.9160   -1.4390   -0.9030 O   0  0  0  0  0  0  0  0  0  0  0  0
   -4.5590    1.2250   -0.4450 H   0  0  0  0  0  0  0  0  0  0  0  0
   -4.5570    2.6460   -1.5720 H   0  0  0  0  0  0  0  0  0  0  0  0
   -6.0270    1.6620   -1.4080 H   0  0  0  0  0  0  0  0  0  0  0  0
   -5.1280   -0.0990   -2.7450 H   0  0  0  0  0  0  0  0  0  0  0  0
   -4.4660    1.4330   -3.4670 H   0  0  0  0  0  0  0  0  0  0  0  0
   -2.3510    1.2030   -2.4790 H   0  0  0  0  0  0  0  0  0  0  0  0
   -2.5170   -1.6380   -3.3470 H   0  0  0  0  0  0  0  0  0  0  0  0
   -3.3910   -0.5000   -4.4110 H   0  0  0  0  0  0  0  0  0  0  0  0
   -1.6030   -0.2700   -4.0100 H   0  0  0  0  0  0  0  0  0  0  0  0
   -2.8400    0.2320   -0.3000 H   0  0  0  0  0  0  0  0  0  0  0  0
   -0.9130   -1.4940   -1.8550 H   0  0  0  0  0  0  0  0  0  0  0  0
  1 10  1  0  0  0  0
  2  1  1  0  0  0  0
  3  2  2  0  0  0  0
  4  2  1  0  0  0  0
  4 12  1  0  0  0  0
  5  4  1  0  0  0  0
  5 14  1  0  0  0  0
  6 16  1  6  0  0  0
  6  5  1  0  0  0  0
  6  7  1  0  0  0  0
  7 17  1  0  0  0  0
  7 18  1  0  0  0  0
  8  9  2  0  0  0  0
  8  6  1  0  0  0  0
 11  1  1  0  0  0  0
 13  4  1  0  0  0  0
 15  5  1  0  0  0  0
 19 27  1  0  0  0  0
 19 28  1  0  0  0  0
 19 20  1  0  0  0  0
 20 21  1  0  0  0  0
 20 29  1  1  0  0  0
 21 30  1  0  0  0  0
 22 31  1  6  0  0  0
 22 20  1  0  0  0  0
 22 23  1  0  0  0  0
 23  8  1  0  0  0  0
 24 22  1  0  0  0  0
 24 25  2  0  0  0  0
 26 19  1  0  0  0  0
 32 23  1  0  0  0  0
 33 44  1  0  0  0  0
 33 42  1  0  0  0  0
 34 35  1  0  0  0  0
 34 33  1  0  0  0  0
 35 47  1  6  0  0  0
 35 37  1  0  0  0  0
 36 48  1  0  0  0  0
 36 35  1  0  0  0  0
 37 38  1  0  0  0  0
 37 39  1  0  0  0  0
 37 51  1  1  0  0  0
 38 24  1  0  0  0  0
 39 41  2  0  0  0  0
 39 40  1  0  0  0  0
 43 33  1  0  0  0  0
 45 34  1  0  0  0  0
 46 34  1  0  0  0  0
 49 36  1  0  0  0  0
 50 36  1  0  0  0  0
 52 38  1  0  0  0  0
M  END
$$$$
