QTK.pdb
 OpenBabel07022418343D

 54 53  0  0  1  0  0  0  0  0999 V2000
    2.4720    4.7800   -2.1990 N   0  0  0  0  0  0  0  0  0  0  0  0
    2.1050    3.5090   -1.6520 C   0  0  0  0  0  0  0  0  0  0  0  0
    2.1490    3.4230   -0.4030 O   0  0  0  0  0  0  0  0  0  0  0  0
    1.7000    2.3730   -2.4730 C   0  0  0  0  0  0  0  0  0  0  0  0
    1.5580    1.0630   -1.7510 C   0  0  0  0  0  0  0  0  0  0  0  0
    2.8670    0.6650   -1.1750 C   0  0  2  0  0  0  0  0  0  0  0  0
    3.8040    0.5430   -2.2960 N   0  0  0  0  0  0  0  0  0  0  0  0
    2.8110   -0.6040   -0.4020 C   0  0  0  0  0  0  0  0  0  0  0  0
    3.5440   -1.5330   -0.8120 O   0  0  0  0  0  0  0  0  0  0  0  0
    2.8470    5.5600   -1.6480 H   0  0  0  0  0  0  0  0  0  0  0  0
    2.3430    4.8990   -3.2270 H   0  0  0  0  0  0  0  0  0  0  0  0
    0.7630    2.6170   -3.0620 H   0  0  0  0  0  0  0  0  0  0  0  0
    2.4840    2.2580   -3.2840 H   0  0  0  0  0  0  0  0  0  0  0  0
    1.1730    0.3320   -2.5070 H   0  0  0  0  0  0  0  0  0  0  0  0
    0.7720    1.2090   -0.9780 H   0  0  0  0  0  0  0  0  0  0  0  0
    3.2120    1.4300   -0.4620 H   0  0  0  0  0  0  0  0  0  0  0  0
    4.5410   -0.1720   -2.0920 H   0  0  0  0  0  0  0  0  0  0  0  0
    3.2960    0.3040   -3.1790 H   0  0  0  0  0  0  0  0  0  0  0  0
    2.3980   -3.3020    3.5240 C   0  0  0  0  0  0  0  0  0  0  0  0
    2.4020   -1.9510    2.8620 C   0  0  1  0  0  0  0  0  0  0  0  0
    3.6570   -1.3640    3.0040 O   0  0  0  0  0  0  0  0  0  0  0  0
    2.0370   -2.1090    1.4090 C   0  0  2  0  0  0  0  0  0  0  0  0
    2.0040   -0.8120    0.7330 N   0  0  0  0  0  0  0  0  0  0  0  0
    0.7010   -2.7600    1.3300 C   0  0  0  0  0  0  0  0  0  0  0  0
    0.5280   -3.8730    1.8450 O   0  0  0  0  0  0  0  0  0  0  0  0
    2.6460   -4.1220    2.8030 H   0  0  0  0  0  0  0  0  0  0  0  0
    1.4250   -3.5670    3.9830 H   0  0  0  0  0  0  0  0  0  0  0  0
    3.1610   -3.3670    4.3270 H   0  0  0  0  0  0  0  0  0  0  0  0
    1.6760   -1.3080    3.3740 H   0  0  0  0  0  0  0  0  0  0  0  0
    3.6150   -0.3860    2.8290 H   0  0  0  0  0  0  0  0  0  0  0  0
    2.7460   -2.7800    0.8910 H   0  0  0  0  0  0  0  0  0  0  0  0
    1.4060   -0.0340    1.0570 H   0  0  0  0  0  0  0  0  0  0  0  0
   -0.3720   -2.1180    0.6730 N   0  0  0  0  0  0  0  0  0  0  0  0
   -1.6670   -2.8080    0.6260 C   0  0  1  0  0  0  0  0  0  0  0  0
   -2.5980   -1.9230    1.4260 C   0  0  0  0  0  0  0  0  0  0  0  0
   -4.0000   -2.4270    1.5310 C   0  0  0  0  0  0  0  0  0  0  0  0
   -4.8260   -1.4670    2.3860 C   0  0  0  0  0  0  0  0  0  0  0  0
   -4.8760   -0.0920    1.8070 C   0  0  0  0  0  0  0  0  0  0  0  0
   -5.6960    0.7450    2.6960 N   0  0  0  0  0  0  0  0  0  0  0  0
   -2.1380   -2.9350   -0.7550 C   0  0  0  0  0  0  0  0  0  0  0  0
   -3.1900   -3.5460   -1.0180 O   0  0  0  0  0  0  0  0  0  0  0  0
   -1.4030   -2.3690   -1.7790 O   0  0  0  0  0  0  0  0  0  0  0  0
   -0.3110   -1.2020    0.2240 H   0  0  0  0  0  0  0  0  0  0  0  0
   -1.5530   -3.7640    1.1420 H   0  0  0  0  0  0  0  0  0  0  0  0
   -2.1830   -1.8660    2.4590 H   0  0  0  0  0  0  0  0  0  0  0  0
   -2.5690   -0.9290    0.9210 H   0  0  0  0  0  0  0  0  0  0  0  0
   -4.0160   -3.4120    2.0190 H   0  0  0  0  0  0  0  0  0  0  0  0
   -4.4570   -2.4940    0.5160 H   0  0  0  0  0  0  0  0  0  0  0  0
   -5.8490   -1.8950    2.4880 H   0  0  0  0  0  0  0  0  0  0  0  0
   -4.3870   -1.4800    3.4000 H   0  0  0  0  0  0  0  0  0  0  0  0
   -3.8500    0.3430    1.8120 H   0  0  0  0  0  0  0  0  0  0  0  0
   -5.3270   -0.0880    0.8090 H   0  0  0  0  0  0  0  0  0  0  0  0
   -6.6810    0.7330    2.3680 H   0  0  0  0  0  0  0  0  0  0  0  0
   -5.3390    1.7250    2.7310 H   0  0  0  0  0  0  0  0  0  0  0  0
  1  2  1  0  0  0  0
  1 10  1  0  0  0  0
  2  3  2  0  0  0  0
  4  5  1  0  0  0  0
  4  2  1  0  0  0  0
  5  6  1  0  0  0  0
  5 15  1  0  0  0  0
  6 16  1  1  0  0  0
  6  8  1  0  0  0  0
  7 17  1  0  0  0  0
  7  6  1  0  0  0  0
  8 23  1  0  0  0  0
  9  8  2  0  0  0  0
 11  1  1  0  0  0  0
 12  4  1  0  0  0  0
 13  4  1  0  0  0  0
 14  5  1  0  0  0  0
 18  7  1  0  0  0  0
 19 27  1  0  0  0  0
 19 28  1  0  0  0  0
 20 21  1  0  0  0  0
 20 29  1  1  0  0  0
 20 19  1  0  0  0  0
 22 31  1  6  0  0  0
 22 20  1  0  0  0  0
 23 32  1  0  0  0  0
 23 22  1  0  0  0  0
 24 22  1  0  0  0  0
 24 25  2  0  0  0  0
 26 19  1  0  0  0  0
 30 21  1  0  0  0  0
 33 24  1  0  0  0  0
 34 33  1  0  0  0  0
 34 44  1  1  0  0  0
 34 35  1  0  0  0  0
 35 36  1  0  0  0  0
 35 45  1  0  0  0  0
 36 47  1  0  0  0  0
 36 37  1  0  0  0  0
 37 49  1  0  0  0  0
 37 50  1  0  0  0  0
 38 51  1  0  0  0  0
 38 37  1  0  0  0  0
 38 39  1  0  0  0  0
 39 54  1  0  0  0  0
 40 34  1  0  0  0  0
 41 40  1  0  0  0  0
 42 40  2  0  0  0  0
 43 33  1  0  0  0  0
 46 35  1  0  0  0  0
 48 36  1  0  0  0  0
 52 38  1  0  0  0  0
 53 39  1  0  0  0  0
M  END
$$$$
