QTL.pdb
 OpenBabel07022418343D

 52 51  0  0  1  0  0  0  0  0999 V2000
    0.0200   -0.2830    6.1560 N   0  0  0  0  0  0  0  0  0  0  0  0
    1.1460    0.0180    5.3770 C   0  0  0  0  0  0  0  0  0  0  0  0
    2.2380   -0.5260    5.6260 O   0  0  0  0  0  0  0  0  0  0  0  0
    1.0380    0.9780    4.2660 C   0  0  0  0  0  0  0  0  0  0  0  0
    2.3560    1.1140    3.5840 C   0  0  0  0  0  0  0  0  0  0  0  0
    2.3790    2.0620    2.4350 C   0  0  2  0  0  0  0  0  0  0  0  0
    2.0210    3.3940    2.8420 N   0  0  0  0  0  0  0  0  0  0  0  0
    1.6290    1.6030    1.2500 C   0  0  0  0  0  0  0  0  0  0  0  0
    0.7860    2.2940    0.6260 O   0  0  0  0  0  0  0  0  0  0  0  0
   -0.6060    0.4740    6.4730 H   0  0  0  0  0  0  0  0  0  0  0  0
   -0.1880   -1.2620    6.4170 H   0  0  0  0  0  0  0  0  0  0  0  0
    0.2580    0.5530    3.5670 H   0  0  0  0  0  0  0  0  0  0  0  0
    0.6700    1.9360    4.7100 H   0  0  0  0  0  0  0  0  0  0  0  0
    2.6650    0.0970    3.2580 H   0  0  0  0  0  0  0  0  0  0  0  0
    3.1050    1.4400    4.3290 H   0  0  0  0  0  0  0  0  0  0  0  0
    3.4550    2.1340    2.0960 H   0  0  0  0  0  0  0  0  0  0  0  0
    1.0210    3.4410    3.1070 H   0  0  0  0  0  0  0  0  0  0  0  0
    2.2030    4.0940    2.0900 H   0  0  0  0  0  0  0  0  0  0  0  0
    3.0230    0.5820   -1.7860 C   0  0  0  0  0  0  0  0  0  0  0  0
    2.1090   -0.5850   -1.4790 C   0  0  1  0  0  0  0  0  0  0  0  0
    2.9410   -1.6180   -1.0160 O   0  0  0  0  0  0  0  0  0  0  0  0
    1.1300   -0.1900   -0.4170 C   0  0  2  0  0  0  0  0  0  0  0  0
    1.8590    0.2690    0.7470 N   0  0  0  0  0  0  0  0  0  0  0  0
    0.2400   -1.2860   -0.0070 C   0  0  0  0  0  0  0  0  0  0  0  0
    0.2080   -1.6700    1.1850 O   0  0  0  0  0  0  0  0  0  0  0  0
    2.4660    1.4060   -2.2780 H   0  0  0  0  0  0  0  0  0  0  0  0
    3.8310    0.2930   -2.4950 H   0  0  0  0  0  0  0  0  0  0  0  0
    3.5080    0.9840   -0.8810 H   0  0  0  0  0  0  0  0  0  0  0  0
    1.6340   -0.9250   -2.4040 H   0  0  0  0  0  0  0  0  0  0  0  0
    3.1200   -2.2740   -1.7510 H   0  0  0  0  0  0  0  0  0  0  0  0
    0.4970    0.6400   -0.8020 H   0  0  0  0  0  0  0  0  0  0  0  0
    2.5490   -0.3410    1.2350 H   0  0  0  0  0  0  0  0  0  0  0  0
   -3.1230   -0.9080   -2.0240 C   0  0  0  0  0  0  0  0  0  0  0  0
   -3.6720   -2.1950   -1.5100 C   0  0  0  0  0  0  0  0  0  0  0  0
   -5.1450   -2.0080   -1.1810 C   0  0  0  0  0  0  0  0  0  0  0  0
   -2.9000   -2.6820   -0.3350 C   0  0  0  0  0  0  0  0  0  0  0  0
   -1.4610   -2.9890   -0.5280 C   0  0  2  0  0  0  0  0  0  0  0  0
   -0.6110   -1.9360   -0.9640 N   0  0  0  0  0  0  0  0  0  0  0  0
   -1.2770   -4.2040   -1.3800 C   0  0  0  0  0  0  0  0  0  0  0  0
   -0.4460   -4.1690   -2.3220 O   0  0  0  0  0  0  0  0  0  0  0  0
   -1.9950   -5.3560   -1.1560 O   0  0  0  0  0  0  0  0  0  0  0  0
   -2.4470   -0.4320   -1.3110 H   0  0  0  0  0  0  0  0  0  0  0  0
   -2.5980   -1.1050   -2.9850 H   0  0  0  0  0  0  0  0  0  0  0  0
   -3.9670   -0.1860   -2.1920 H   0  0  0  0  0  0  0  0  0  0  0  0
   -3.6470   -2.9910   -2.3120 H   0  0  0  0  0  0  0  0  0  0  0  0
   -5.6870   -2.9750   -1.1670 H   0  0  0  0  0  0  0  0  0  0  0  0
   -5.3050   -1.5120   -0.2080 H   0  0  0  0  0  0  0  0  0  0  0  0
   -5.6390   -1.3880   -1.9580 H   0  0  0  0  0  0  0  0  0  0  0  0
   -3.3960   -3.6540   -0.0190 H   0  0  0  0  0  0  0  0  0  0  0  0
   -3.0580   -2.0070    0.5420 H   0  0  0  0  0  0  0  0  0  0  0  0
   -1.0950   -3.2940    0.5150 H   0  0  0  0  0  0  0  0  0  0  0  0
   -0.5530   -1.6100   -1.9810 H   0  0  0  0  0  0  0  0  0  0  0  0
  1 11  1  0  0  0  0
  1 10  1  0  0  0  0
  2  3  2  0  0  0  0
  2  1  1  0  0  0  0
  4 13  1  0  0  0  0
  4  2  1  0  0  0  0
  5  4  1  0  0  0  0
  5 15  1  0  0  0  0
  6 16  1  6  0  0  0
  6  7  1  0  0  0  0
  6  5  1  0  0  0  0
  7 17  1  0  0  0  0
  8  6  1  0  0  0  0
  9  8  2  0  0  0  0
 12  4  1  0  0  0  0
 14  5  1  0  0  0  0
 18  7  1  0  0  0  0
 19 20  1  0  0  0  0
 19 28  1  0  0  0  0
 20 29  1  6  0  0  0
 20 21  1  0  0  0  0
 20 22  1  0  0  0  0
 22 31  1  6  0  0  0
 22 24  1  0  0  0  0
 22 23  1  0  0  0  0
 23 32  1  0  0  0  0
 23  8  1  0  0  0  0
 24 25  2  0  0  0  0
 26 19  1  0  0  0  0
 27 19  1  0  0  0  0
 30 21  1  0  0  0  0
 33 34  1  0  0  0  0
 33 42  1  0  0  0  0
 34 35  1  0  0  0  0
 34 36  1  0  0  0  0
 35 46  1  0  0  0  0
 35 47  1  0  0  0  0
 36 49  1  0  0  0  0
 36 50  1  0  0  0  0
 37 36  1  0  0  0  0
 37 51  1  1  0  0  0
 38 37  1  0  0  0  0
 38 24  1  0  0  0  0
 39 41  1  0  0  0  0
 39 37  1  0  0  0  0
 40 39  2  0  0  0  0
 43 33  1  0  0  0  0
 44 33  1  0  0  0  0
 45 34  1  0  0  0  0
 48 35  1  0  0  0  0
 52 38  1  0  0  0  0
M  END
$$$$
