QTM.pdb
 OpenBabel07022418343D

 50 49  0  0  1  0  0  0  0  0999 V2000
    0.8400   -4.2670   -0.3200 N   0  0  0  0  0  0  0  0  0  0  0  0
    2.0770   -3.7110    0.0790 C   0  0  0  0  0  0  0  0  0  0  0  0
    3.0280   -3.7110   -0.7340 O   0  0  0  0  0  0  0  0  0  0  0  0
    2.2470   -3.1380    1.4330 C   0  0  0  0  0  0  0  0  0  0  0  0
    3.5920   -2.5500    1.6720 C   0  0  0  0  0  0  0  0  0  0  0  0
    3.9870   -1.4240    0.7610 C   0  0  2  0  0  0  0  0  0  0  0  0
    5.3490   -1.0440    1.2160 N   0  0  0  0  0  0  0  0  0  0  0  0
    3.1460   -0.2240    0.8530 C   0  0  0  0  0  0  0  0  0  0  0  0
    3.6240    0.7930    1.4640 O   0  0  0  0  0  0  0  0  0  0  0  0
    0.6410   -4.4590   -1.3110 H   0  0  0  0  0  0  0  0  0  0  0  0
    0.0770   -4.5040    0.3820 H   0  0  0  0  0  0  0  0  0  0  0  0
    2.1140   -3.9470    2.2200 H   0  0  0  0  0  0  0  0  0  0  0  0
    1.4470   -2.4100    1.6750 H   0  0  0  0  0  0  0  0  0  0  0  0
    3.5940   -2.1860    2.7390 H   0  0  0  0  0  0  0  0  0  0  0  0
    4.3310   -3.3770    1.6500 H   0  0  0  0  0  0  0  0  0  0  0  0
    4.1100   -1.7110   -0.2810 H   0  0  0  0  0  0  0  0  0  0  0  0
    5.6540   -0.1850    0.7000 H   0  0  0  0  0  0  0  0  0  0  0  0
    6.0070   -1.8290    1.0820 H   0  0  0  0  0  0  0  0  0  0  0  0
    0.4280    1.1890   -1.9300 C   0  0  0  0  0  0  0  0  0  0  0  0
    1.1280    1.9610   -0.8380 C   0  0  1  0  0  0  0  0  0  0  0  0
    0.4470    3.1340   -0.6390 O   0  0  0  0  0  0  0  0  0  0  0  0
    1.1110    1.1890    0.4790 C   0  0  2  0  0  0  0  0  0  0  0  0
    1.8300   -0.0760    0.3170 N   0  0  0  0  0  0  0  0  0  0  0  0
   -0.2620    1.0360    0.9670 C   0  0  0  0  0  0  0  0  0  0  0  0
   -1.0020    2.0480    1.2260 O   0  0  0  0  0  0  0  0  0  0  0  0
   -0.0130    1.9310   -2.6260 H   0  0  0  0  0  0  0  0  0  0  0  0
   -0.4310    0.6250   -1.5030 H   0  0  0  0  0  0  0  0  0  0  0  0
    1.1110    0.5690   -2.5200 H   0  0  0  0  0  0  0  0  0  0  0  0
    2.1750    2.1580   -1.1200 H   0  0  0  0  0  0  0  0  0  0  0  0
    0.8370    3.9210   -1.0620 H   0  0  0  0  0  0  0  0  0  0  0  0
    1.6960    1.8230    1.1740 H   0  0  0  0  0  0  0  0  0  0  0  0
    1.4320   -0.8990   -0.1820 H   0  0  0  0  0  0  0  0  0  0  0  0
   -5.4410    1.5090    0.1880 C   0  0  0  0  0  0  0  0  0  0  0  0
   -5.2170    0.4330    1.6110 S   0  0  0  0  0  0  0  0  0  0  0  0
   -4.5090   -1.1760    1.1620 C   0  0  0  0  0  0  0  0  0  0  0  0
   -3.1050   -1.0150    0.6600 C   0  0  0  0  0  0  0  0  0  0  0  0
   -2.2420   -0.3720    1.6770 C   0  0  2  0  0  0  0  0  0  0  0  0
   -0.8670   -0.2070    1.1860 N   0  0  0  0  0  0  0  0  0  0  0  0
   -2.2410   -1.0200    2.9780 C   0  0  0  0  0  0  0  0  0  0  0  0
   -3.2480   -1.2380    3.6690 O   0  0  0  0  0  0  0  0  0  0  0  0
   -1.0040   -1.4400    3.5110 O   0  0  0  0  0  0  0  0  0  0  0  0
   -6.4700    1.3160   -0.2120 H   0  0  0  0  0  0  0  0  0  0  0  0
   -5.3430    2.5850    0.4340 H   0  0  0  0  0  0  0  0  0  0  0  0
   -4.7490    1.3010   -0.6400 H   0  0  0  0  0  0  0  0  0  0  0  0
   -4.6090   -1.8540    2.0220 H   0  0  0  0  0  0  0  0  0  0  0  0
   -5.1680   -1.6400    0.3710 H   0  0  0  0  0  0  0  0  0  0  0  0
   -3.1790   -0.4100   -0.2710 H   0  0  0  0  0  0  0  0  0  0  0  0
   -2.7360   -2.0110    0.3220 H   0  0  0  0  0  0  0  0  0  0  0  0
   -2.6270    0.6770    1.8200 H   0  0  0  0  0  0  0  0  0  0  0  0
   -0.3750   -1.1040    1.0070 H   0  0  0  0  0  0  0  0  0  0  0  0
  1  2  1  0  0  0  0
  1 11  1  0  0  0  0
  2  4  1  0  0  0  0
  3  2  2  0  0  0  0
  4  5  1  0  0  0  0
  4 13  1  0  0  0  0
  4 12  1  0  0  0  0
  5 14  1  0  0  0  0
  6 16  1  6  0  0  0
  6  8  1  0  0  0  0
  6  7  1  0  0  0  0
  6  5  1  0  0  0  0
  8  9  2  0  0  0  0
 10  1  1  0  0  0  0
 15  5  1  0  0  0  0
 17  7  1  0  0  0  0
 18  7  1  0  0  0  0
 19 27  1  0  0  0  0
 19 20  1  0  0  0  0
 20 29  1  6  0  0  0
 20 21  1  0  0  0  0
 20 22  1  0  0  0  0
 22 24  1  0  0  0  0
 22 31  1  1  0  0  0
 23 22  1  0  0  0  0
 23  8  1  0  0  0  0
 24 38  1  0  0  0  0
 24 25  2  0  0  0  0
 26 19  1  0  0  0  0
 28 19  1  0  0  0  0
 30 21  1  0  0  0  0
 32 23  1  0  0  0  0
 33 43  1  0  0  0  0
 33 34  1  0  0  0  0
 35 34  1  0  0  0  0
 35 45  1  0  0  0  0
 36 35  1  0  0  0  0
 36 37  1  0  0  0  0
 37 49  1  1  0  0  0
 37 39  1  0  0  0  0
 38 37  1  0  0  0  0
 39 41  2  0  0  0  0
 39 40  1  0  0  0  0
 42 33  1  0  0  0  0
 44 33  1  0  0  0  0
 46 35  1  0  0  0  0
 47 36  1  0  0  0  0
 48 36  1  0  0  0  0
 50 38  1  0  0  0  0
M  END
$$$$
