QTR.pdb
 OpenBabel07022418343D

 56 55  0  0  1  0  0  0  0  0999 V2000
    1.0170   -4.5760    6.5250 N   0  0  0  0  0  0  0  0  0  0  0  0
    1.0910   -3.4200    5.7200 C   0  0  0  0  0  0  0  0  0  0  0  0
    1.1140   -2.2530    6.2230 O   0  0  0  0  0  0  0  0  0  0  0  0
    1.1420   -3.6210    4.2380 C   0  0  0  0  0  0  0  0  0  0  0  0
    1.2200   -2.2410    3.5700 C   0  0  0  0  0  0  0  0  0  0  0  0
    1.2700   -2.4880    2.0900 C   0  0  2  0  0  0  0  0  0  0  0  0
    2.4430   -3.2820    1.8050 N   0  0  0  0  0  0  0  0  0  0  0  0
    1.2970   -1.2670    1.2790 C   0  0  0  0  0  0  0  0  0  0  0  0
    2.2770   -1.1050    0.5060 O   0  0  0  0  0  0  0  0  0  0  0  0
    0.4910   -4.5430    7.4130 H   0  0  0  0  0  0  0  0  0  0  0  0
    1.4870   -5.4440    6.2230 H   0  0  0  0  0  0  0  0  0  0  0  0
    0.2690   -4.1880    3.9040 H   0  0  0  0  0  0  0  0  0  0  0  0
    2.0480   -4.1830    3.9270 H   0  0  0  0  0  0  0  0  0  0  0  0
    0.4160   -1.5870    3.8990 H   0  0  0  0  0  0  0  0  0  0  0  0
    2.1800   -1.8080    3.9190 H   0  0  0  0  0  0  0  0  0  0  0  0
    0.3950   -3.0920    1.7490 H   0  0  0  0  0  0  0  0  0  0  0  0
    2.8010   -3.0530    0.8430 H   0  0  0  0  0  0  0  0  0  0  0  0
    3.1940   -3.0070    2.4820 H   0  0  0  0  0  0  0  0  0  0  0  0
    2.5740    1.7630    1.1600 C   0  0  0  0  0  0  0  0  0  0  0  0
    1.1050    2.0560    1.0150 C   0  0  1  0  0  0  0  0  0  0  0  0
    0.9840    3.1720    0.1660 O   0  0  0  0  0  0  0  0  0  0  0  0
    0.2590    0.9370    0.5450 C   0  0  2  0  0  0  0  0  0  0  0  0
    0.2840   -0.2690    1.3210 N   0  0  0  0  0  0  0  0  0  0  0  0
    0.3530    0.6790   -0.9410 C   0  0  0  0  0  0  0  0  0  0  0  0
    0.5640    1.6150   -1.7400 O   0  0  0  0  0  0  0  0  0  0  0  0
    3.0670    2.7510    1.4250 H   0  0  0  0  0  0  0  0  0  0  0  0
    2.8310    1.1030    1.9930 H   0  0  0  0  0  0  0  0  0  0  0  0
    3.0310    1.4880    0.1810 H   0  0  0  0  0  0  0  0  0  0  0  0
    0.7550    2.3350    2.0540 H   0  0  0  0  0  0  0  0  0  0  0  0
    1.2780    4.0050    0.6430 H   0  0  0  0  0  0  0  0  0  0  0  0
   -0.8220    1.3660    0.5850 H   0  0  0  0  0  0  0  0  0  0  0  0
   -0.5040   -0.4660    1.9940 H   0  0  0  0  0  0  0  0  0  0  0  0
   -6.0630   -0.4710   -0.5510 N   0  0  0  0  0  0  0  0  0  0  0  0
   -4.7730    0.0680   -0.7760 C   0  0  0  0  0  0  0  0  0  0  0  0
   -4.2210    0.8240    0.1220 N   0  0  0  0  0  0  0  0  0  0  0  0
   -4.0340   -0.1700   -1.9460 N   0  0  0  0  0  0  0  0  0  0  0  0
   -2.5770    0.0240   -2.0220 C   0  0  0  0  0  0  0  0  0  0  0  0
   -2.0930   -0.3070   -3.3780 C   0  0  0  0  0  0  0  0  0  0  0  0
   -0.6560   -0.1380   -3.6750 C   0  0  0  0  0  0  0  0  0  0  0  0
    0.2800   -0.9480   -2.8520 C   0  0  2  0  0  0  0  0  0  0  0  0
    0.1990   -0.6330   -1.4620 N   0  0  0  0  0  0  0  0  0  0  0  0
    1.6730   -0.9130   -3.3660 C   0  0  0  0  0  0  0  0  0  0  0  0
    2.6180   -0.6310   -2.6040 O   0  0  0  0  0  0  0  0  0  0  0  0
    1.9190   -1.1950   -4.6940 O   0  0  0  0  0  0  0  0  0  0  0  0
   -6.9140    0.0610   -0.8110 H   0  0  0  0  0  0  0  0  0  0  0  0
   -6.2050   -1.4280   -0.1130 H   0  0  0  0  0  0  0  0  0  0  0  0
   -4.7100    1.0430    1.0130 H   0  0  0  0  0  0  0  0  0  0  0  0
   -4.5080   -0.4970   -2.8050 H   0  0  0  0  0  0  0  0  0  0  0  0
   -2.3780    1.0640   -1.7770 H   0  0  0  0  0  0  0  0  0  0  0  0
   -2.1390   -0.6380   -1.2250 H   0  0  0  0  0  0  0  0  0  0  0  0
   -2.3910   -1.3940   -3.5660 H   0  0  0  0  0  0  0  0  0  0  0  0
   -2.6860    0.2260   -4.1810 H   0  0  0  0  0  0  0  0  0  0  0  0
   -0.4220    0.9740   -3.6620 H   0  0  0  0  0  0  0  0  0  0  0  0
   -0.4520   -0.4730   -4.7580 H   0  0  0  0  0  0  0  0  0  0  0  0
   -0.0990   -2.0280   -2.9610 H   0  0  0  0  0  0  0  0  0  0  0  0
    0.0090   -1.4270   -0.7950 H   0  0  0  0  0  0  0  0  0  0  0  0
  1 10  1  0  0  0  0
  2  3  2  0  0  0  0
  2  1  1  0  0  0  0
  4  2  1  0  0  0  0
  5 14  1  0  0  0  0
  5 15  1  0  0  0  0
  5  4  1  0  0  0  0
  6 16  1  6  0  0  0
  6  5  1  0  0  0  0
  7  6  1  0  0  0  0
  7 18  1  0  0  0  0
  8 23  1  0  0  0  0
  8  6  1  0  0  0  0
  9  8  2  0  0  0  0
 11  1  1  0  0  0  0
 12  4  1  0  0  0  0
 13  4  1  0  0  0  0
 17  7  1  0  0  0  0
 19 26  1  0  0  0  0
 19 27  1  0  0  0  0
 20 19  1  0  0  0  0
 20 29  1  1  0  0  0
 21 30  1  0  0  0  0
 21 20  1  0  0  0  0
 22 31  1  1  0  0  0
 22 20  1  0  0  0  0
 22 23  1  0  0  0  0
 23 32  1  0  0  0  0
 24 22  1  0  0  0  0
 25 24  2  0  0  0  0
 28 19  1  0  0  0  0
 33 46  1  0  0  0  0
 34 33  1  0  0  0  0
 34 35  2  0  0  0  0
 35 47  1  0  0  0  0
 36 34  1  0  0  0  0
 37 36  1  0  0  0  0
 37 49  1  0  0  0  0
 37 50  1  0  0  0  0
 38 37  1  0  0  0  0
 39 53  1  0  0  0  0
 39 38  1  0  0  0  0
 39 40  1  0  0  0  0
 40 55  1  6  0  0  0
 40 41  1  0  0  0  0
 41 24  1  0  0  0  0
 41 56  1  0  0  0  0
 42 40  1  0  0  0  0
 42 43  1  0  0  0  0
 44 42  2  0  0  0  0
 45 33  1  0  0  0  0
 48 36  1  0  0  0  0
 51 38  1  0  0  0  0
 52 38  1  0  0  0  0
 54 39  1  0  0  0  0
M  END
$$$$
