QTT.pdb
 OpenBabel07022418343D

 47 46  0  0  1  0  0  0  0  0999 V2000
    2.9690   -4.3230    1.8570 N   0  0  0  0  0  0  0  0  0  0  0  0
    3.5550   -3.0530    1.6300 C   0  0  0  0  0  0  0  0  0  0  0  0
    3.1590   -2.0840    2.3220 O   0  0  0  0  0  0  0  0  0  0  0  0
    4.6130   -2.8210    0.6230 C   0  0  0  0  0  0  0  0  0  0  0  0
    4.7690   -1.4330    0.1560 C   0  0  0  0  0  0  0  0  0  0  0  0
    3.5950   -0.9470   -0.6340 C   0  0  2  0  0  0  0  0  0  0  0  0
    3.7980    0.4580   -1.0250 N   0  0  0  0  0  0  0  0  0  0  0  0
    2.2590   -1.2000   -0.1390 C   0  0  0  0  0  0  0  0  0  0  0  0
    1.6890   -2.3470   -0.2110 O   0  0  0  0  0  0  0  0  0  0  0  0
    2.0070   -4.3910    2.2440 H   0  0  0  0  0  0  0  0  0  0  0  0
    3.4820   -5.2210    1.6420 H   0  0  0  0  0  0  0  0  0  0  0  0
    4.4340   -3.5490   -0.2270 H   0  0  0  0  0  0  0  0  0  0  0  0
    5.5760   -3.1980    1.0650 H   0  0  0  0  0  0  0  0  0  0  0  0
    4.7920   -0.7770    1.0880 H   0  0  0  0  0  0  0  0  0  0  0  0
    5.7080   -1.2550   -0.4200 H   0  0  0  0  0  0  0  0  0  0  0  0
    3.6660   -1.5290   -1.6210 H   0  0  0  0  0  0  0  0  0  0  0  0
    4.8400    0.5860   -1.1270 H   0  0  0  0  0  0  0  0  0  0  0  0
    3.4220    0.5950   -2.0080 H   0  0  0  0  0  0  0  0  0  0  0  0
    0.3990    1.1900    2.7900 C   0  0  0  0  0  0  0  0  0  0  0  0
    0.0390   -0.2420    2.4650 C   0  0  1  0  0  0  0  0  0  0  0  0
   -1.2020   -0.5070    3.0110 O   0  0  0  0  0  0  0  0  0  0  0  0
    0.0870   -0.4980    0.9680 C   0  0  2  0  0  0  0  0  0  0  0  0
    1.4300   -0.2000    0.4830 N   0  0  0  0  0  0  0  0  0  0  0  0
   -0.9210    0.3600    0.3230 C   0  0  0  0  0  0  0  0  0  0  0  0
   -0.6030    1.2830   -0.4850 O   0  0  0  0  0  0  0  0  0  0  0  0
   -0.0330    1.9050    2.0690 H   0  0  0  0  0  0  0  0  0  0  0  0
   -0.0600    1.4210    3.7800 H   0  0  0  0  0  0  0  0  0  0  0  0
    1.4980    1.3260    2.9370 H   0  0  0  0  0  0  0  0  0  0  0  0
    0.7880   -0.8770    3.0080 H   0  0  0  0  0  0  0  0  0  0  0  0
   -1.6070    0.3000    3.4160 H   0  0  0  0  0  0  0  0  0  0  0  0
   -0.1980   -1.5520    0.8080 H   0  0  0  0  0  0  0  0  0  0  0  0
    1.8260    0.7570    0.5770 H   0  0  0  0  0  0  0  0  0  0  0  0
   -4.8890   -0.9000    0.1680 C   0  0  0  0  0  0  0  0  0  0  0  0
   -4.2320    0.0440   -0.8140 C   0  0  1  0  0  0  0  0  0  0  0  0
   -5.2390    0.7820   -1.4260 O   0  0  0  0  0  0  0  0  0  0  0  0
   -3.3290    0.9910   -0.0160 C   0  0  2  0  0  0  0  0  0  0  0  0
   -2.2930    0.1580    0.6030 N   0  0  0  0  0  0  0  0  0  0  0  0
   -4.1420    1.6150    1.0500 C   0  0  0  0  0  0  0  0  0  0  0  0
   -3.8590    1.3680    2.2440 O   0  0  0  0  0  0  0  0  0  0  0  0
   -5.2100    2.4660    0.8130 O   0  0  0  0  0  0  0  0  0  0  0  0
   -4.1930   -1.6940    0.5050 H   0  0  0  0  0  0  0  0  0  0  0  0
   -5.8250   -1.3220   -0.2590 H   0  0  0  0  0  0  0  0  0  0  0  0
   -5.1910   -0.3040    1.0590 H   0  0  0  0  0  0  0  0  0  0  0  0
   -3.6430   -0.5240   -1.5630 H   0  0  0  0  0  0  0  0  0  0  0  0
   -5.4780    0.2720   -2.2580 H   0  0  0  0  0  0  0  0  0  0  0  0
   -2.8670    1.7460   -0.6890 H   0  0  0  0  0  0  0  0  0  0  0  0
   -2.6390   -0.5830    1.2450 H   0  0  0  0  0  0  0  0  0  0  0  0
  1 10  1  0  0  0  0
  2  1  1  0  0  0  0
  2  3  2  0  0  0  0
  4 13  1  0  0  0  0
  4  2  1  0  0  0  0
  5  4  1  0  0  0  0
  5 14  1  0  0  0  0
  6 16  1  6  0  0  0
  6  8  1  0  0  0  0
  6  5  1  0  0  0  0
  7  6  1  0  0  0  0
  8 23  1  0  0  0  0
  9  8  2  0  0  0  0
 11  1  1  0  0  0  0
 12  4  1  0  0  0  0
 15  5  1  0  0  0  0
 17  7  1  0  0  0  0
 18  7  1  0  0  0  0
 19 28  1  0  0  0  0
 19 27  1  0  0  0  0
 20 19  1  0  0  0  0
 20 29  1  1  0  0  0
 20 21  1  0  0  0  0
 21 30  1  0  0  0  0
 22 31  1  6  0  0  0
 22 20  1  0  0  0  0
 23 32  1  0  0  0  0
 23 22  1  0  0  0  0
 24 37  1  0  0  0  0
 24 22  1  0  0  0  0
 25 24  2  0  0  0  0
 26 19  1  0  0  0  0
 33 41  1  0  0  0  0
 33 43  1  0  0  0  0
 34 44  1  6  0  0  0
 34 36  1  0  0  0  0
 34 33  1  0  0  0  0
 35 34  1  0  0  0  0
 36 46  1  6  0  0  0
 36 37  1  0  0  0  0
 36 38  1  0  0  0  0
 37 47  1  0  0  0  0
 38 39  1  0  0  0  0
 40 38  2  0  0  0  0
 42 33  1  0  0  0  0
 45 35  1  0  0  0  0
M  END
$$$$
