QTV.pdb
 OpenBabel07022418343D

 49 48  0  0  1  0  0  0  0  0999 V2000
    2.1260   -6.3730    5.3320 N   0  0  0  0  0  0  0  0  0  0  0  0
    2.0020   -5.0500    4.8360 C   0  0  0  0  0  0  0  0  0  0  0  0
    2.2540   -4.0840    5.5940 O   0  0  0  0  0  0  0  0  0  0  0  0
    1.5710   -4.8770    3.4210 C   0  0  0  0  0  0  0  0  0  0  0  0
    1.4880   -3.4100    3.0520 C   0  0  0  0  0  0  0  0  0  0  0  0
    1.0460   -3.3380    1.6040 C   0  0  2  0  0  0  0  0  0  0  0  0
    2.0150   -4.0170    0.8050 N   0  0  0  0  0  0  0  0  0  0  0  0
    0.8660   -1.9260    1.1590 C   0  0  0  0  0  0  0  0  0  0  0  0
    1.5470   -1.5320    0.1970 O   0  0  0  0  0  0  0  0  0  0  0  0
    1.6580   -6.6910    6.2230 H   0  0  0  0  0  0  0  0  0  0  0  0
    2.6940   -7.1010    4.8320 H   0  0  0  0  0  0  0  0  0  0  0  0
    0.5620   -5.3170    3.2850 H   0  0  0  0  0  0  0  0  0  0  0  0
    2.2410   -5.4340    2.7310 H   0  0  0  0  0  0  0  0  0  0  0  0
    2.4540   -2.8940    3.1790 H   0  0  0  0  0  0  0  0  0  0  0  0
    0.7000   -2.9640    3.6990 H   0  0  0  0  0  0  0  0  0  0  0  0
    0.0880   -3.9140    1.5450 H   0  0  0  0  0  0  0  0  0  0  0  0
    1.6070   -4.5750    0.0380 H   0  0  0  0  0  0  0  0  0  0  0  0
    2.8300   -3.4450    0.5340 H   0  0  0  0  0  0  0  0  0  0  0  0
    2.1420    0.9880    1.7440 C   0  0  0  0  0  0  0  0  0  0  0  0
    0.6950    1.2590    2.0000 C   0  0  1  0  0  0  0  0  0  0  0  0
    0.4770    2.5910    1.6720 O   0  0  0  0  0  0  0  0  0  0  0  0
   -0.2910    0.3270    1.4340 C   0  0  2  0  0  0  0  0  0  0  0  0
   -0.0430   -1.0650    1.8040 N   0  0  0  0  0  0  0  0  0  0  0  0
   -0.5810    0.4000   -0.0020 C   0  0  0  0  0  0  0  0  0  0  0  0
   -0.6180   -0.6290   -0.6990 O   0  0  0  0  0  0  0  0  0  0  0  0
    2.4600    0.9870    0.7100 H   0  0  0  0  0  0  0  0  0  0  0  0
    2.7750    1.7750    2.2540 H   0  0  0  0  0  0  0  0  0  0  0  0
    2.4650    0.0450    2.2270 H   0  0  0  0  0  0  0  0  0  0  0  0
    0.5560    1.2320    3.1270 H   0  0  0  0  0  0  0  0  0  0  0  0
    1.2880    3.1400    1.8070 H   0  0  0  0  0  0  0  0  0  0  0  0
   -1.2730    0.5550    2.0000 H   0  0  0  0  0  0  0  0  0  0  0  0
   -0.5630   -1.5210    2.6220 H   0  0  0  0  0  0  0  0  0  0  0  0
   -3.5650    1.4340   -1.6430 C   0  0  0  0  0  0  0  0  0  0  0  0
   -2.5130    2.2830   -2.3080 C   0  0  0  0  0  0  0  0  0  0  0  0
   -2.8440    2.3700   -3.7700 C   0  0  0  0  0  0  0  0  0  0  0  0
   -1.1180    1.6960   -2.0910 C   0  0  2  0  0  0  0  0  0  0  0  0
   -0.8300    1.6320   -0.6510 N   0  0  0  0  0  0  0  0  0  0  0  0
   -0.1170    2.5640   -2.7540 C   0  0  0  0  0  0  0  0  0  0  0  0
    0.8210    3.1350   -2.1090 O   0  0  0  0  0  0  0  0  0  0  0  0
   -0.1480    2.8030   -4.1160 O   0  0  0  0  0  0  0  0  0  0  0  0
   -3.1120    0.4440   -1.3690 H   0  0  0  0  0  0  0  0  0  0  0  0
   -3.9110    1.8810   -0.6930 H   0  0  0  0  0  0  0  0  0  0  0  0
   -4.4130    1.1890   -2.3230 H   0  0  0  0  0  0  0  0  0  0  0  0
   -2.5600    3.3150   -1.8540 H   0  0  0  0  0  0  0  0  0  0  0  0
   -2.2210    1.6380   -4.3380 H   0  0  0  0  0  0  0  0  0  0  0  0
   -3.9310    2.1800   -3.9700 H   0  0  0  0  0  0  0  0  0  0  0  0
   -2.6090    3.3740   -4.1960 H   0  0  0  0  0  0  0  0  0  0  0  0
   -1.1130    0.7070   -2.5690 H   0  0  0  0  0  0  0  0  0  0  0  0
   -0.8340    2.5520   -0.1740 H   0  0  0  0  0  0  0  0  0  0  0  0
  1 10  1  0  0  0  0
  2  1  1  0  0  0  0
  2  3  2  0  0  0  0
  4  2  1  0  0  0  0
  5 14  1  0  0  0  0
  5  4  1  0  0  0  0
  5 15  1  0  0  0  0
  6 16  1  6  0  0  0
  6  5  1  0  0  0  0
  7  6  1  0  0  0  0
  8  6  1  0  0  0  0
  8 23  1  0  0  0  0
  9  8  2  0  0  0  0
 11  1  1  0  0  0  0
 12  4  1  0  0  0  0
 13  4  1  0  0  0  0
 17  7  1  0  0  0  0
 18  7  1  0  0  0  0
 19 20  1  0  0  0  0
 19 28  1  0  0  0  0
 19 27  1  0  0  0  0
 20 29  1  1  0  0  0
 21 30  1  0  0  0  0
 21 20  1  0  0  0  0
 22 23  1  0  0  0  0
 22 20  1  0  0  0  0
 22 31  1  1  0  0  0
 23 32  1  0  0  0  0
 24 22  1  0  0  0  0
 25 24  2  0  0  0  0
 26 19  1  0  0  0  0
 33 41  1  0  0  0  0
 33 42  1  0  0  0  0
 34 36  1  0  0  0  0
 34 44  1  0  0  0  0
 34 33  1  0  0  0  0
 35 34  1  0  0  0  0
 36 48  1  6  0  0  0
 36 37  1  0  0  0  0
 37 49  1  0  0  0  0
 37 24  1  0  0  0  0
 38 39  1  0  0  0  0
 38 36  1  0  0  0  0
 40 38  2  0  0  0  0
 43 33  1  0  0  0  0
 45 35  1  0  0  0  0
 46 35  1  0  0  0  0
 47 35  1  0  0  0  0
M  END
$$$$
