QTW.pdb
 OpenBabel07022418343D

 57 58  0  0  1  0  0  0  0  0999 V2000
    6.8030   -0.2040    2.1560 N   0  0  0  0  0  0  0  0  0  0  0  0
    6.0060   -0.0540    0.9920 C   0  0  0  0  0  0  0  0  0  0  0  0
    5.7590   -1.0950    0.3330 O   0  0  0  0  0  0  0  0  0  0  0  0
    5.5180    1.2910    0.6240 C   0  0  0  0  0  0  0  0  0  0  0  0
    4.6520    1.3350   -0.5810 C   0  0  0  0  0  0  0  0  0  0  0  0
    3.3970    0.5470   -0.5180 C   0  0  2  0  0  0  0  0  0  0  0  0
    2.6740    0.6990   -1.7660 N   0  0  0  0  0  0  0  0  0  0  0  0
    2.5440    0.8670    0.6520 C   0  0  0  0  0  0  0  0  0  0  0  0
    3.0010    0.8170    1.8220 O   0  0  0  0  0  0  0  0  0  0  0  0
    6.6820   -1.0440    2.7590 H   0  0  0  0  0  0  0  0  0  0  0  0
    7.5110    0.5140    2.4190 H   0  0  0  0  0  0  0  0  0  0  0  0
    5.0990    1.7970    1.5150 H   0  0  0  0  0  0  0  0  0  0  0  0
    6.4470    1.8850    0.3720 H   0  0  0  0  0  0  0  0  0  0  0  0
    4.4230    2.4020   -0.8240 H   0  0  0  0  0  0  0  0  0  0  0  0
    5.2680    0.9790   -1.4450 H   0  0  0  0  0  0  0  0  0  0  0  0
    3.6510   -0.5330   -0.4570 H   0  0  0  0  0  0  0  0  0  0  0  0
    2.9170    1.6020   -2.2350 H   0  0  0  0  0  0  0  0  0  0  0  0
    2.9060   -0.0580   -2.4510 H   0  0  0  0  0  0  0  0  0  0  0  0
   -1.1680    3.1160    2.8280 C   0  0  0  0  0  0  0  0  0  0  0  0
   -0.3020    2.8850    1.6120 C   0  0  1  0  0  0  0  0  0  0  0  0
    0.6140    3.9300    1.4480 O   0  0  0  0  0  0  0  0  0  0  0  0
    0.3880    1.5510    1.7230 C   0  0  2  0  0  0  0  0  0  0  0  0
    1.1770    1.2470    0.5390 N   0  0  0  0  0  0  0  0  0  0  0  0
   -0.6690    0.4920    1.8440 C   0  0  0  0  0  0  0  0  0  0  0  0
   -1.4730    0.5570    2.8270 O   0  0  0  0  0  0  0  0  0  0  0  0
   -0.6960    2.5830    3.6780 H   0  0  0  0  0  0  0  0  0  0  0  0
   -1.1360    4.2120    3.0810 H   0  0  0  0  0  0  0  0  0  0  0  0
   -2.2050    2.7650    2.7010 H   0  0  0  0  0  0  0  0  0  0  0  0
   -0.9760    2.9150    0.7320 H   0  0  0  0  0  0  0  0  0  0  0  0
    0.6480    4.2190    0.5010 H   0  0  0  0  0  0  0  0  0  0  0  0
    0.9730    1.4800    2.6450 H   0  0  0  0  0  0  0  0  0  0  0  0
    0.7250    1.3120   -0.4000 H   0  0  0  0  0  0  0  0  0  0  0  0
   -0.7730   -0.5530    0.8930 N   0  0  0  0  0  0  0  0  0  0  0  0
   -1.8180   -1.5610    1.0590 C   0  0  1  0  0  0  0  0  0  0  0  0
   -2.7240   -1.3900   -0.1240 C   0  0  0  0  0  0  0  0  0  0  0  0
   -3.8630   -2.3070   -0.2220 C   0  0  0  0  0  0  0  0  0  0  0  0
   -5.1500   -2.0980    0.2660 C   0  0  0  0  0  0  0  0  0  0  0  0
   -5.9200   -3.1680    0.0260 N   0  0  0  0  0  0  0  0  0  0  0  0
   -5.1660   -4.0750   -0.6100 C   0  0  0  0  0  0  0  0  0  0  0  0
   -5.4220   -5.3230   -1.1060 C   0  0  0  0  0  0  0  0  0  0  0  0
   -4.4980   -6.0990   -1.7540 C   0  0  0  0  0  0  0  0  0  0  0  0
   -3.2380   -5.5920   -1.9170 C   0  0  0  0  0  0  0  0  0  0  0  0
   -2.9430   -4.3480   -1.4350 C   0  0  0  0  0  0  0  0  0  0  0  0
   -3.8760   -3.5640   -0.7790 C   0  0  0  0  0  0  0  0  0  0  0  0
   -1.2620   -2.8940    1.1680 C   0  0  0  0  0  0  0  0  0  0  0  0
   -1.8930   -3.9390    1.4480 O   0  0  0  0  0  0  0  0  0  0  0  0
    0.1100   -3.0670    0.9440 O   0  0  0  0  0  0  0  0  0  0  0  0
   -0.1000   -0.5840    0.0920 H   0  0  0  0  0  0  0  0  0  0  0  0
   -2.3590   -1.2840    2.0150 H   0  0  0  0  0  0  0  0  0  0  0  0
   -3.0750   -0.3190   -0.2000 H   0  0  0  0  0  0  0  0  0  0  0  0
   -2.1020   -1.5000   -1.0630 H   0  0  0  0  0  0  0  0  0  0  0  0
   -5.4850   -1.2060    0.7660 H   0  0  0  0  0  0  0  0  0  0  0  0
   -6.9300   -3.3320    0.2640 H   0  0  0  0  0  0  0  0  0  0  0  0
   -6.4190   -5.7280   -0.9780 H   0  0  0  0  0  0  0  0  0  0  0  0
   -4.7020   -7.0870   -2.1460 H   0  0  0  0  0  0  0  0  0  0  0  0
   -2.4400   -6.1410   -2.4230 H   0  0  0  0  0  0  0  0  0  0  0  0
   -1.9320   -3.9500   -1.5700 H   0  0  0  0  0  0  0  0  0  0  0  0
  1 11  1  0  0  0  0
  1 10  1  0  0  0  0
  2  1  1  0  0  0  0
  3  2  2  0  0  0  0
  4  2  1  0  0  0  0
  4 12  1  0  0  0  0
  5  6  1  0  0  0  0
  5  4  1  0  0  0  0
  6 16  1  1  0  0  0
  6  8  1  0  0  0  0
  7  6  1  0  0  0  0
  8  9  2  0  0  0  0
 13  4  1  0  0  0  0
 14  5  1  0  0  0  0
 15  5  1  0  0  0  0
 17  7  1  0  0  0  0
 18  7  1  0  0  0  0
 19 27  1  0  0  0  0
 19 26  1  0  0  0  0
 20 29  1  6  0  0  0
 20 22  1  0  0  0  0
 20 19  1  0  0  0  0
 21 20  1  0  0  0  0
 22 24  1  0  0  0  0
 22 31  1  1  0  0  0
 23  8  1  0  0  0  0
 23 22  1  0  0  0  0
 24 25  2  0  0  0  0
 28 19  1  0  0  0  0
 30 21  1  0  0  0  0
 32 23  1  0  0  0  0
 33 34  1  0  0  0  0
 33 24  1  0  0  0  0
 34 45  1  0  0  0  0
 34 49  1  1  0  0  0
 35 34  1  0  0  0  0
 36 35  1  0  0  0  0
 36 37  2  0  0  0  0
 37 52  1  0  0  0  0
 38 53  1  0  0  0  0
 38 37  1  0  0  0  0
 39 38  1  0  0  0  0
 40 54  1  0  0  0  0
 40 39  2  0  0  0  0
 41 40  1  0  0  0  0
 42 41  2  0  0  0  0
 42 43  1  0  0  0  0
 43 44  2  0  0  0  0
 44 39  1  0  0  0  0
 44 36  1  0  0  0  0
 45 46  1  0  0  0  0
 47 45  2  0  0  0  0
 48 33  1  0  0  0  0
 50 35  1  0  0  0  0
 51 35  1  0  0  0  0
 55 41  1  0  0  0  0
 56 42  1  0  0  0  0
 57 43  1  0  0  0  0
M  END
$$$$
