QVA.pdb
 OpenBabel07022418343D

 45 44  0  0  1  0  0  0  0  0999 V2000
   -2.8590   -4.8680    3.1310 N   0  0  0  0  0  0  0  0  0  0  0  0
   -2.1070   -3.9260    2.3600 C   0  0  0  0  0  0  0  0  0  0  0  0
   -0.8820   -3.8110    2.7020 O   0  0  0  0  0  0  0  0  0  0  0  0
   -2.6970   -3.1460    1.2560 C   0  0  0  0  0  0  0  0  0  0  0  0
   -1.6090   -2.2660    0.6850 C   0  0  0  0  0  0  0  0  0  0  0  0
   -2.1520   -1.4200   -0.4760 C   0  0  2  0  0  0  0  0  0  0  0  0
   -2.6250   -2.3240   -1.4760 N   0  0  0  0  0  0  0  0  0  0  0  0
   -0.9900   -0.6570   -0.9960 C   0  0  0  0  0  0  0  0  0  0  0  0
   -0.5950   -0.8810   -2.1590 O   0  0  0  0  0  0  0  0  0  0  0  0
   -3.8010   -4.6430    3.5120 H   0  0  0  0  0  0  0  0  0  0  0  0
   -2.4370   -5.8200    3.3140 H   0  0  0  0  0  0  0  0  0  0  0  0
   -3.5600   -2.5640    1.6250 H   0  0  0  0  0  0  0  0  0  0  0  0
   -2.9990   -3.8610    0.4570 H   0  0  0  0  0  0  0  0  0  0  0  0
   -0.8120   -2.9380    0.3060 H   0  0  0  0  0  0  0  0  0  0  0  0
   -1.1660   -1.6380    1.4730 H   0  0  0  0  0  0  0  0  0  0  0  0
   -2.9590   -0.7500   -0.1200 H   0  0  0  0  0  0  0  0  0  0  0  0
   -1.7960   -2.7280   -1.9740 H   0  0  0  0  0  0  0  0  0  0  0  0
   -3.1540   -1.7500   -2.1920 H   0  0  0  0  0  0  0  0  0  0  0  0
    1.8080    3.1520   -1.4070 C   0  0  0  0  0  0  0  0  0  0  0  0
    0.5640    2.5200   -0.8170 C   0  0  0  0  0  0  0  0  0  0  0  0
    0.3270    3.1570    0.5200 C   0  0  0  0  0  0  0  0  0  0  0  0
    0.7910    1.0330   -0.7310 C   0  0  2  0  0  0  0  0  0  0  0  0
   -0.3210    0.3240   -0.1880 N   0  0  0  0  0  0  0  0  0  0  0  0
    1.9870    0.8120    0.1110 C   0  0  0  0  0  0  0  0  0  0  0  0
    3.1010    1.3310   -0.1540 O   0  0  0  0  0  0  0  0  0  0  0  0
    2.5040    3.5350   -0.6460 H   0  0  0  0  0  0  0  0  0  0  0  0
    2.3720    2.4610   -2.0630 H   0  0  0  0  0  0  0  0  0  0  0  0
    1.5240    4.0560   -2.0230 H   0  0  0  0  0  0  0  0  0  0  0  0
   -0.2740    2.7900   -1.4860 H   0  0  0  0  0  0  0  0  0  0  0  0
    0.3160    4.2580    0.3620 H   0  0  0  0  0  0  0  0  0  0  0  0
    1.1670    2.9620    1.2260 H   0  0  0  0  0  0  0  0  0  0  0  0
   -0.6590    2.9040    0.9560 H   0  0  0  0  0  0  0  0  0  0  0  0
    0.9910    0.6990   -1.7920 H   0  0  0  0  0  0  0  0  0  0  0  0
   -0.7110    0.4480    0.7600 H   0  0  0  0  0  0  0  0  0  0  0  0
    2.7030    0.2160    3.5410 C   0  0  0  0  0  0  0  0  0  0  0  0
    2.9560   -0.2960    2.1400 C   0  0  2  0  0  0  0  0  0  0  0  0
    1.8550   -0.0160    1.2540 N   0  0  0  0  0  0  0  0  0  0  0  0
    3.2680   -1.7460    2.1460 C   0  0  0  0  0  0  0  0  0  0  0  0
    4.1870   -2.2420    2.8380 O   0  0  0  0  0  0  0  0  0  0  0  0
    2.5110   -2.5900    1.3510 O   0  0  0  0  0  0  0  0  0  0  0  0
    3.1520   -0.5230    4.2420 H   0  0  0  0  0  0  0  0  0  0  0  0
    3.2250    1.1790    3.6950 H   0  0  0  0  0  0  0  0  0  0  0  0
    1.6230    0.3260    3.7650 H   0  0  0  0  0  0  0  0  0  0  0  0
    3.8470    0.2490    1.7390 H   0  0  0  0  0  0  0  0  0  0  0  0
    0.9340   -0.4780    1.5200 H   0  0  0  0  0  0  0  0  0  0  0  0
  1 11  1  0  0  0  0
  1 10  1  0  0  0  0
  2  3  2  0  0  0  0
  2  1  1  0  0  0  0
  4 12  1  0  0  0  0
  4  2  1  0  0  0  0
  5  4  1  0  0  0  0
  5 15  1  0  0  0  0
  6 16  1  1  0  0  0
  6  5  1  0  0  0  0
  7  6  1  0  0  0  0
  8  6  1  0  0  0  0
  8 23  1  0  0  0  0
  9  8  2  0  0  0  0
 13  4  1  0  0  0  0
 14  5  1  0  0  0  0
 17  7  1  0  0  0  0
 18  7  1  0  0  0  0
 19 20  1  0  0  0  0
 19 26  1  0  0  0  0
 20 22  1  0  0  0  0
 20 21  1  0  0  0  0
 21 32  1  0  0  0  0
 21 31  1  0  0  0  0
 22 33  1  6  0  0  0
 22 23  1  0  0  0  0
 22 24  1  0  0  0  0
 23 34  1  0  0  0  0
 24 37  1  0  0  0  0
 25 24  2  0  0  0  0
 27 19  1  0  0  0  0
 28 19  1  0  0  0  0
 29 20  1  0  0  0  0
 30 21  1  0  0  0  0
 35 42  1  0  0  0  0
 35 43  1  0  0  0  0
 35 41  1  0  0  0  0
 36 44  1  6  0  0  0
 36 38  1  0  0  0  0
 36 35  1  0  0  0  0
 37 45  1  0  0  0  0
 37 36  1  0  0  0  0
 38 39  1  0  0  0  0
 40 38  2  0  0  0  0
M  END
$$$$
