QVC.pdb
 OpenBabel07022418343D

 46 45  0  0  1  0  0  0  0  0999 V2000
    0.7150   -4.9660    5.6470 N   0  0  0  0  0  0  0  0  0  0  0  0
    0.9920   -3.6640    5.1370 C   0  0  0  0  0  0  0  0  0  0  0  0
    0.2570   -2.7410    5.5280 O   0  0  0  0  0  0  0  0  0  0  0  0
    2.0930   -3.4170    4.1960 C   0  0  0  0  0  0  0  0  0  0  0  0
    2.1130   -2.0500    3.6060 C   0  0  0  0  0  0  0  0  0  0  0  0
    0.8770   -1.7990    2.8140 C   0  0  2  0  0  0  0  0  0  0  0  0
    0.7950   -2.7780    1.7460 N   0  0  0  0  0  0  0  0  0  0  0  0
    0.8500   -0.4110    2.2640 C   0  0  0  0  0  0  0  0  0  0  0  0
    0.9130    0.5510    3.0370 O   0  0  0  0  0  0  0  0  0  0  0  0
    1.1140   -5.2620    6.5740 H   0  0  0  0  0  0  0  0  0  0  0  0
    0.1190   -5.5920    5.0810 H   0  0  0  0  0  0  0  0  0  0  0  0
    1.9420   -4.1280    3.3260 H   0  0  0  0  0  0  0  0  0  0  0  0
    3.0590   -3.6730    4.7080 H   0  0  0  0  0  0  0  0  0  0  0  0
    3.0410   -1.9600    2.9910 H   0  0  0  0  0  0  0  0  0  0  0  0
    2.1650   -1.2680    4.4070 H   0  0  0  0  0  0  0  0  0  0  0  0
   -0.0120   -1.9080    3.4450 H   0  0  0  0  0  0  0  0  0  0  0  0
   -0.0880   -2.7280    1.2160 H   0  0  0  0  0  0  0  0  0  0  0  0
    1.6550   -2.8140    1.1720 H   0  0  0  0  0  0  0  0  0  0  0  0
    2.1500    2.8030   -0.9260 C   0  0  0  0  0  0  0  0  0  0  0  0
    2.0410    1.4090   -0.3790 C   0  0  0  0  0  0  0  0  0  0  0  0
    2.1480    0.3430   -1.4250 C   0  0  0  0  0  0  0  0  0  0  0  0
    0.7350    1.2150    0.4100 C   0  0  2  0  0  0  0  0  0  0  0  0
    0.7560   -0.1440    0.8740 N   0  0  0  0  0  0  0  0  0  0  0  0
   -0.4310    1.5620   -0.3960 C   0  0  0  0  0  0  0  0  0  0  0  0
   -0.5450    2.7240   -0.8490 O   0  0  0  0  0  0  0  0  0  0  0  0
    3.2250    3.0970   -1.0230 H   0  0  0  0  0  0  0  0  0  0  0  0
    1.7490    2.7770   -1.9670 H   0  0  0  0  0  0  0  0  0  0  0  0
    1.6570    3.5560   -0.2990 H   0  0  0  0  0  0  0  0  0  0  0  0
    2.8590    1.2430    0.3600 H   0  0  0  0  0  0  0  0  0  0  0  0
    1.1730   -0.0830   -1.7350 H   0  0  0  0  0  0  0  0  0  0  0  0
    2.6890    0.6820   -2.3370 H   0  0  0  0  0  0  0  0  0  0  0  0
    2.7500   -0.5240   -1.0380 H   0  0  0  0  0  0  0  0  0  0  0  0
    0.8000    1.9510    1.2450 H   0  0  0  0  0  0  0  0  0  0  0  0
    0.7010   -0.9210    0.1800 H   0  0  0  0  0  0  0  0  0  0  0  0
   -1.4710    0.6480   -0.7100 N   0  0  0  0  0  0  0  0  0  0  0  0
   -2.5870    1.0580   -1.5080 C   0  0  1  0  0  0  0  0  0  0  0  0
   -2.8120    0.1880   -2.7190 C   0  0  0  0  0  0  0  0  0  0  0  0
   -4.2270    0.7840   -3.6470 S   0  0  0  0  0  0  0  0  0  0  0  0
   -3.8230    0.9430   -0.6670 C   0  0  0  0  0  0  0  0  0  0  0  0
   -4.9560    1.2420   -1.1220 O   0  0  0  0  0  0  0  0  0  0  0  0
   -3.7640    0.5010    0.6480 O   0  0  0  0  0  0  0  0  0  0  0  0
   -1.4430   -0.3600   -0.3600 H   0  0  0  0  0  0  0  0  0  0  0  0
   -2.4720    2.1260   -1.7940 H   0  0  0  0  0  0  0  0  0  0  0  0
   -1.9370    0.0890   -3.3670 H   0  0  0  0  0  0  0  0  0  0  0  0
   -3.0480   -0.8430   -2.3410 H   0  0  0  0  0  0  0  0  0  0  0  0
   -5.3840    0.1580   -3.1540 H   0  0  0  0  0  0  0  0  0  0  0  0
  1 10  1  0  0  0  0
  2  3  2  0  0  0  0
  2  1  1  0  0  0  0
  4 13  1  0  0  0  0
  4  2  1  0  0  0  0
  5  4  1  0  0  0  0
  5 15  1  0  0  0  0
  6 16  1  1  0  0  0
  6  5  1  0  0  0  0
  7  6  1  0  0  0  0
  8  6  1  0  0  0  0
  8  9  2  0  0  0  0
 11  1  1  0  0  0  0
 12  4  1  0  0  0  0
 14  5  1  0  0  0  0
 17  7  1  0  0  0  0
 18  7  1  0  0  0  0
 19 20  1  0  0  0  0
 19 28  1  0  0  0  0
 20 29  1  0  0  0  0
 20 22  1  0  0  0  0
 21 32  1  0  0  0  0
 21 20  1  0  0  0  0
 22 23  1  0  0  0  0
 22 33  1  1  0  0  0
 23  8  1  0  0  0  0
 24 22  1  0  0  0  0
 25 24  2  0  0  0  0
 26 19  1  0  0  0  0
 27 19  1  0  0  0  0
 30 21  1  0  0  0  0
 31 21  1  0  0  0  0
 34 23  1  0  0  0  0
 35 24  1  0  0  0  0
 35 42  1  0  0  0  0
 36 43  1  6  0  0  0
 36 35  1  0  0  0  0
 36 39  1  0  0  0  0
 37 45  1  0  0  0  0
 37 36  1  0  0  0  0
 38 46  1  0  0  0  0
 38 37  1  0  0  0  0
 39 41  1  0  0  0  0
 40 39  2  0  0  0  0
 44 37  1  0  0  0  0
M  END
$$$$
