QVD.pdb
 OpenBabel07022418343D

 48 47  0  0  1  0  0  0  0  0999 V2000
    3.2090   -7.0370    0.3700 N   0  0  0  0  0  0  0  0  0  0  0  0
    2.4300   -5.9140    0.7630 C   0  0  0  0  0  0  0  0  0  0  0  0
    1.2540   -5.9950    1.1490 O   0  0  0  0  0  0  0  0  0  0  0  0
    3.0890   -4.5750    0.7010 C   0  0  0  0  0  0  0  0  0  0  0  0
    2.1410   -3.4890    1.1750 C   0  0  0  0  0  0  0  0  0  0  0  0
    2.8760   -2.1740    1.0800 C   0  0  2  0  0  0  0  0  0  0  0  0
    4.0760   -2.2670    1.9490 N   0  0  0  0  0  0  0  0  0  0  0  0
    2.0710   -1.0320    1.4980 C   0  0  0  0  0  0  0  0  0  0  0  0
    2.3340   -0.4190    2.5510 O   0  0  0  0  0  0  0  0  0  0  0  0
    2.8950   -7.6060   -0.4840 H   0  0  0  0  0  0  0  0  0  0  0  0
    4.0560   -7.3540    0.8340 H   0  0  0  0  0  0  0  0  0  0  0  0
    4.0320   -4.5880    1.2970 H   0  0  0  0  0  0  0  0  0  0  0  0
    3.3890   -4.3650   -0.3390 H   0  0  0  0  0  0  0  0  0  0  0  0
    1.2500   -3.4690    0.5230 H   0  0  0  0  0  0  0  0  0  0  0  0
    1.9030   -3.6780    2.2460 H   0  0  0  0  0  0  0  0  0  0  0  0
    3.2590   -2.0210    0.0630 H   0  0  0  0  0  0  0  0  0  0  0  0
    4.8470   -2.7290    1.3800 H   0  0  0  0  0  0  0  0  0  0  0  0
    4.3100   -1.2650    2.1300 H   0  0  0  0  0  0  0  0  0  0  0  0
    0.0950    1.8560   -1.0350 C   0  0  0  0  0  0  0  0  0  0  0  0
    0.4180    1.8630    0.4100 C   0  0  0  0  0  0  0  0  0  0  0  0
    1.9510    2.1650    0.4720 C   0  0  0  0  0  0  0  0  0  0  0  0
    0.1730    0.6090    1.1800 C   0  0  2  0  0  0  0  0  0  0  0  0
    0.9480   -0.5300    0.7510 N   0  0  0  0  0  0  0  0  0  0  0  0
   -1.2950    0.2270    1.2680 C   0  0  0  0  0  0  0  0  0  0  0  0
   -1.5960   -0.9540    1.2050 O   0  0  0  0  0  0  0  0  0  0  0  0
   -0.8510    2.4890   -1.1490 H   0  0  0  0  0  0  0  0  0  0  0  0
   -0.1740    0.8800   -1.4770 H   0  0  0  0  0  0  0  0  0  0  0  0
    0.8230    2.4500   -1.6570 H   0  0  0  0  0  0  0  0  0  0  0  0
   -0.0590    2.7180    0.9190 H   0  0  0  0  0  0  0  0  0  0  0  0
    2.2140    2.8490   -0.3560 H   0  0  0  0  0  0  0  0  0  0  0  0
    2.4900    1.2140    0.3700 H   0  0  0  0  0  0  0  0  0  0  0  0
    2.1410    2.6370    1.4480 H   0  0  0  0  0  0  0  0  0  0  0  0
    0.4860    0.8430    2.2240 H   0  0  0  0  0  0  0  0  0  0  0  0
    0.7170   -1.0520   -0.1370 H   0  0  0  0  0  0  0  0  0  0  0  0
   -2.3010    1.2190    1.4190 N   0  0  0  0  0  0  0  0  0  0  0  0
   -3.6740    1.1080    1.5530 C   0  0  1  0  0  0  0  0  0  0  0  0
   -4.4530    2.2870    0.9760 C   0  0  0  0  0  0  0  0  0  0  0  0
   -4.1660    2.3580   -0.5120 C   0  0  0  0  0  0  0  0  0  0  0  0
   -3.3690    1.5310   -0.9810 O   0  0  0  0  0  0  0  0  0  0  0  0
   -4.3280   -0.1520    1.2050 C   0  0  0  0  0  0  0  0  0  0  0  0
   -5.6370   -0.0580    1.1010 O   0  0  0  0  0  0  0  0  0  0  0  0
   -4.7700    3.3030   -1.3360 O   0  0  0  0  0  0  0  0  0  0  0  0
   -3.8530   -1.4070    0.9780 O   0  0  0  0  0  0  0  0  0  0  0  0
   -1.9080    2.2500    1.4490 H   0  0  0  0  0  0  0  0  0  0  0  0
   -3.8650    1.1500    2.7130 H   0  0  0  0  0  0  0  0  0  0  0  0
   -5.5190    2.0550    1.0790 H   0  0  0  0  0  0  0  0  0  0  0  0
   -4.2270    3.1990    1.5140 H   0  0  0  0  0  0  0  0  0  0  0  0
   -4.8210    3.0450   -2.3360 H   0  0  0  0  0  0  0  0  0  0  0  0
  1  2  1  0  0  0  0
  1 11  1  0  0  0  0
  2  3  2  0  0  0  0
  4  2  1  0  0  0  0
  4  5  1  0  0  0  0
  4 12  1  0  0  0  0
  5 15  1  0  0  0  0
  6 16  1  6  0  0  0
  6  5  1  0  0  0  0
  6  8  1  0  0  0  0
  6  7  1  0  0  0  0
  7 18  1  0  0  0  0
  8  9  2  0  0  0  0
 10  1  1  0  0  0  0
 13  4  1  0  0  0  0
 14  5  1  0  0  0  0
 17  7  1  0  0  0  0
 19 20  1  0  0  0  0
 20 21  1  0  0  0  0
 20 29  1  0  0  0  0
 20 22  1  0  0  0  0
 21 32  1  0  0  0  0
 22 24  1  0  0  0  0
 22 33  1  1  0  0  0
 23 22  1  0  0  0  0
 23  8  1  0  0  0  0
 24 35  1  0  0  0  0
 25 24  2  0  0  0  0
 26 19  1  0  0  0  0
 27 19  1  0  0  0  0
 28 19  1  0  0  0  0
 30 21  1  0  0  0  0
 31 21  1  0  0  0  0
 34 23  1  0  0  0  0
 35 44  1  0  0  0  0
 35 36  1  0  0  0  0
 36 45  1  1  0  0  0
 37 46  1  0  0  0  0
 37 47  1  0  0  0  0
 37 36  1  0  0  0  0
 38 37  1  0  0  0  0
 39 38  2  0  0  0  0
 40 36  1  0  0  0  0
 41 40  1  0  0  0  0
 42 38  1  0  0  0  0
 43 40  2  0  0  0  0
 48 42  1  0  0  0  0
M  END
$$$$
