QVE.pdb
 OpenBabel07022418343D

 51 50  0  0  1  0  0  0  0  0999 V2000
    1.7540   -3.4370    4.5510 N   0  0  0  0  0  0  0  0  0  0  0  0
    2.1970   -2.0980    4.4890 C   0  0  0  0  0  0  0  0  0  0  0  0
    2.4040   -1.4320    5.5300 O   0  0  0  0  0  0  0  0  0  0  0  0
    2.4060   -1.5200    3.1090 C   0  0  0  0  0  0  0  0  0  0  0  0
    2.9010   -0.1260    3.3120 C   0  0  0  0  0  0  0  0  0  0  0  0
    3.2080    0.6370    2.0650 C   0  0  2  0  0  0  0  0  0  0  0  0
    3.6840    1.9910    2.4600 N   0  0  0  0  0  0  0  0  0  0  0  0
    2.1020    0.8220    1.1210 C   0  0  0  0  0  0  0  0  0  0  0  0
    1.5390    1.9750    0.9920 O   0  0  0  0  0  0  0  0  0  0  0  0
    0.9220   -3.7380    4.0210 H   0  0  0  0  0  0  0  0  0  0  0  0
    2.2710   -4.1150    5.1330 H   0  0  0  0  0  0  0  0  0  0  0  0
    1.4140   -1.5600    2.6040 H   0  0  0  0  0  0  0  0  0  0  0  0
    3.1000   -2.1390    2.5390 H   0  0  0  0  0  0  0  0  0  0  0  0
    3.8810   -0.2240    3.8720 H   0  0  0  0  0  0  0  0  0  0  0  0
    2.2270    0.4630    3.9720 H   0  0  0  0  0  0  0  0  0  0  0  0
    4.1140    0.1600    1.5950 H   0  0  0  0  0  0  0  0  0  0  0  0
    4.1490    2.4620    1.6450 H   0  0  0  0  0  0  0  0  0  0  0  0
    2.8660    2.5770    2.7420 H   0  0  0  0  0  0  0  0  0  0  0  0
    0.0110    0.1070   -3.1170 C   0  0  0  0  0  0  0  0  0  0  0  0
    1.0060   -0.1460   -2.0450 C   0  0  0  0  0  0  0  0  0  0  0  0
    2.1920    0.7670   -2.2780 C   0  0  0  0  0  0  0  0  0  0  0  0
    0.4840    0.0420   -0.6320 C   0  0  2  0  0  0  0  0  0  0  0  0
    1.6020   -0.2310    0.3080 N   0  0  0  0  0  0  0  0  0  0  0  0
   -0.6100   -0.8620   -0.2660 C   0  0  0  0  0  0  0  0  0  0  0  0
   -0.4370   -1.7190    0.6510 O   0  0  0  0  0  0  0  0  0  0  0  0
   -0.6440   -0.7150   -3.3940 H   0  0  0  0  0  0  0  0  0  0  0  0
   -0.5710    1.0290   -2.9190 H   0  0  0  0  0  0  0  0  0  0  0  0
    0.6130    0.3250   -4.0560 H   0  0  0  0  0  0  0  0  0  0  0  0
    1.4090   -1.1840   -2.1080 H   0  0  0  0  0  0  0  0  0  0  0  0
    2.5050    0.6220   -3.3490 H   0  0  0  0  0  0  0  0  0  0  0  0
    3.0140    0.4090   -1.6500 H   0  0  0  0  0  0  0  0  0  0  0  0
    1.9220    1.8240   -2.1180 H   0  0  0  0  0  0  0  0  0  0  0  0
    0.1850    1.1010   -0.5130 H   0  0  0  0  0  0  0  0  0  0  0  0
    2.0410   -1.1660    0.3870 H   0  0  0  0  0  0  0  0  0  0  0  0
   -1.9000   -0.8770   -0.8560 N   0  0  0  0  0  0  0  0  0  0  0  0
   -2.9400   -1.8080   -0.4330 C   0  0  1  0  0  0  0  0  0  0  0  0
   -4.2140   -1.0660   -0.1000 C   0  0  0  0  0  0  0  0  0  0  0  0
   -4.0830   -0.0650    0.9930 C   0  0  0  0  0  0  0  0  0  0  0  0
   -3.6700   -0.6650    2.2770 C   0  0  0  0  0  0  0  0  0  0  0  0
   -3.4490    0.1120    3.2660 O   0  0  0  0  0  0  0  0  0  0  0  0
   -3.2560   -2.6880   -1.5780 C   0  0  0  0  0  0  0  0  0  0  0  0
   -4.1330   -3.6060   -1.4980 O   0  0  0  0  0  0  0  0  0  0  0  0
   -3.5180   -2.0220    2.4390 O   0  0  0  0  0  0  0  0  0  0  0  0
   -2.5920   -2.5240   -2.7750 O   0  0  0  0  0  0  0  0  0  0  0  0
   -2.1030   -0.2090   -1.5960 H   0  0  0  0  0  0  0  0  0  0  0  0
   -2.5770   -2.4580    0.3850 H   0  0  0  0  0  0  0  0  0  0  0  0
   -4.9520   -1.8590    0.2130 H   0  0  0  0  0  0  0  0  0  0  0  0
   -4.5920   -0.5980   -1.0340 H   0  0  0  0  0  0  0  0  0  0  0  0
   -3.3450    0.7380    0.7150 H   0  0  0  0  0  0  0  0  0  0  0  0
   -5.0990    0.3980    1.1240 H   0  0  0  0  0  0  0  0  0  0  0  0
   -3.4140   -2.4590    3.3590 H   0  0  0  0  0  0  0  0  0  0  0  0
  1 11  1  0  0  0  0
  2  1  1  0  0  0  0
  2  3  2  0  0  0  0
  4  5  1  0  0  0  0
  4  2  1  0  0  0  0
  5 14  1  0  0  0  0
  5 15  1  0  0  0  0
  6 16  1  6  0  0  0
  6  7  1  0  0  0  0
  6  5  1  0  0  0  0
  7 18  1  0  0  0  0
  8  6  1  0  0  0  0
  9  8  2  0  0  0  0
 10  1  1  0  0  0  0
 12  4  1  0  0  0  0
 13  4  1  0  0  0  0
 17  7  1  0  0  0  0
 19 27  1  0  0  0  0
 19 20  1  0  0  0  0
 20 22  1  0  0  0  0
 21 32  1  0  0  0  0
 21 20  1  0  0  0  0
 21 31  1  0  0  0  0
 22 33  1  1  0  0  0
 22 24  1  0  0  0  0
 22 23  1  0  0  0  0
 23 34  1  0  0  0  0
 23  8  1  0  0  0  0
 24 25  2  0  0  0  0
 26 19  1  0  0  0  0
 28 19  1  0  0  0  0
 29 20  1  0  0  0  0
 30 21  1  0  0  0  0
 35 36  1  0  0  0  0
 35 24  1  0  0  0  0
 36 37  1  0  0  0  0
 36 46  1  1  0  0  0
 37 47  1  0  0  0  0
 37 38  1  0  0  0  0
 38 50  1  0  0  0  0
 38 39  1  0  0  0  0
 39 43  1  0  0  0  0
 39 40  2  0  0  0  0
 41 42  1  0  0  0  0
 41 36  1  0  0  0  0
 43 51  1  0  0  0  0
 44 41  2  0  0  0  0
 45 35  1  0  0  0  0
 48 37  1  0  0  0  0
 49 38  1  0  0  0  0
M  END
$$$$
