QVH.pdb
 OpenBabel07022418343D

 52 52  0  0  1  0  0  0  0  0999 V2000
    5.9230   -1.5200    4.5680 N   0  0  0  0  0  0  0  0  0  0  0  0
    5.4300   -0.9100    3.4110 C   0  0  0  0  0  0  0  0  0  0  0  0
    5.8300    0.2390    3.1240 O   0  0  0  0  0  0  0  0  0  0  0  0
    4.4480   -1.5530    2.4890 C   0  0  0  0  0  0  0  0  0  0  0  0
    4.1180   -0.6580    1.3470 C   0  0  0  0  0  0  0  0  0  0  0  0
    3.1410   -1.2690    0.3760 C   0  0  2  0  0  0  0  0  0  0  0  0
    2.8900   -0.3230   -0.7070 N   0  0  0  0  0  0  0  0  0  0  0  0
    1.8540   -1.4940    1.0640 C   0  0  0  0  0  0  0  0  0  0  0  0
    1.7360   -2.3600    1.9650 O   0  0  0  0  0  0  0  0  0  0  0  0
    6.8970   -1.3550    4.8800 H   0  0  0  0  0  0  0  0  0  0  0  0
    5.3220   -2.1470    5.1350 H   0  0  0  0  0  0  0  0  0  0  0  0
    4.9140   -2.5020    2.1460 H   0  0  0  0  0  0  0  0  0  0  0  0
    3.6010   -1.8430    3.1310 H   0  0  0  0  0  0  0  0  0  0  0  0
    3.8100    0.3590    1.6700 H   0  0  0  0  0  0  0  0  0  0  0  0
    5.0590   -0.4870    0.7570 H   0  0  0  0  0  0  0  0  0  0  0  0
    3.5910   -2.1940   -0.0120 H   0  0  0  0  0  0  0  0  0  0  0  0
    2.7440    0.6330   -0.3700 H   0  0  0  0  0  0  0  0  0  0  0  0
    2.2270   -0.6760   -1.4030 H   0  0  0  0  0  0  0  0  0  0  0  0
   -1.0400    1.5110    0.8550 C   0  0  0  0  0  0  0  0  0  0  0  0
   -0.9420    0.4670    1.9430 C   0  0  0  0  0  0  0  0  0  0  0  0
    0.1620    0.8840    2.9060 C   0  0  0  0  0  0  0  0  0  0  0  0
   -0.5600   -0.8940    1.3460 C   0  0  2  0  0  0  0  0  0  0  0  0
    0.7180   -0.7130    0.7030 N   0  0  0  0  0  0  0  0  0  0  0  0
   -1.6060   -1.1970    0.3120 C   0  0  0  0  0  0  0  0  0  0  0  0
   -1.2250   -1.2400   -0.8600 O   0  0  0  0  0  0  0  0  0  0  0  0
   -2.0130    2.0410    0.9260 H   0  0  0  0  0  0  0  0  0  0  0  0
   -0.9180    1.0930   -0.1600 H   0  0  0  0  0  0  0  0  0  0  0  0
   -0.2550    2.2930    0.9830 H   0  0  0  0  0  0  0  0  0  0  0  0
   -1.8970    0.3910    2.5070 H   0  0  0  0  0  0  0  0  0  0  0  0
    1.0950    0.9340    2.3350 H   0  0  0  0  0  0  0  0  0  0  0  0
   -0.1390    1.8730    3.3130 H   0  0  0  0  0  0  0  0  0  0  0  0
    0.1770    0.0960    3.6990 H   0  0  0  0  0  0  0  0  0  0  0  0
   -0.5440   -1.6720    2.1080 H   0  0  0  0  0  0  0  0  0  0  0  0
    0.8070    0.0080   -0.0430 H   0  0  0  0  0  0  0  0  0  0  0  0
   -2.9470   -1.4190    0.6680 N   0  0  0  0  0  0  0  0  0  0  0  0
   -4.0700   -1.6910   -0.1410 C   0  0  1  0  0  0  0  0  0  0  0  0
   -3.8220   -1.7630   -1.6400 C   0  0  0  0  0  0  0  0  0  0  0  0
   -3.3990   -0.4860   -2.2320 C   0  0  0  0  0  0  0  0  0  0  0  0
   -3.0780   -0.3430   -3.5850 C   0  0  0  0  0  0  0  0  0  0  0  0
   -2.7330    0.9360   -3.8090 N   0  0  0  0  0  0  0  0  0  0  0  0
   -2.8220    1.6090   -2.6510 C   0  0  0  0  0  0  0  0  0  0  0  0
   -3.2230    0.7480   -1.7110 N   0  0  0  0  0  0  0  0  0  0  0  0
   -4.8070   -2.8700    0.2860 C   0  0  0  0  0  0  0  0  0  0  0  0
   -5.8450   -3.2100   -0.3760 O   0  0  0  0  0  0  0  0  0  0  0  0
   -4.4910   -3.6800    1.3630 O   0  0  0  0  0  0  0  0  0  0  0  0
   -3.1320   -1.3720    1.7250 H   0  0  0  0  0  0  0  0  0  0  0  0
   -4.8000   -0.7860   -0.0840 H   0  0  0  0  0  0  0  0  0  0  0  0
   -4.7200   -2.1230   -2.1560 H   0  0  0  0  0  0  0  0  0  0  0  0
   -3.0440   -2.5620   -1.7760 H   0  0  0  0  0  0  0  0  0  0  0  0
   -3.1060   -1.1400   -4.3230 H   0  0  0  0  0  0  0  0  0  0  0  0
   -2.4420    1.3410   -4.7320 H   0  0  0  0  0  0  0  0  0  0  0  0
   -2.5940    2.6770   -2.5560 H   0  0  0  0  0  0  0  0  0  0  0  0
  1 10  1  0  0  0  0
  1 11  1  0  0  0  0
  2  1  1  0  0  0  0
  3  2  2  0  0  0  0
  4 13  1  0  0  0  0
  4  2  1  0  0  0  0
  5 14  1  0  0  0  0
  5  4  1  0  0  0  0
  6 16  1  6  0  0  0
  6  8  1  0  0  0  0
  6  5  1  0  0  0  0
  7 17  1  0  0  0  0
  7  6  1  0  0  0  0
  8  9  2  0  0  0  0
 12  4  1  0  0  0  0
 15  5  1  0  0  0  0
 18  7  1  0  0  0  0
 19 26  1  0  0  0  0
 19 28  1  0  0  0  0
 19 20  1  0  0  0  0
 20 29  1  0  0  0  0
 20 21  1  0  0  0  0
 21 31  1  0  0  0  0
 21 32  1  0  0  0  0
 22 20  1  0  0  0  0
 22 33  1  1  0  0  0
 23  8  1  0  0  0  0
 23 22  1  0  0  0  0
 24 35  1  0  0  0  0
 24 22  1  0  0  0  0
 25 24  2  0  0  0  0
 27 19  1  0  0  0  0
 30 21  1  0  0  0  0
 34 23  1  0  0  0  0
 35 46  1  0  0  0  0
 36 47  1  1  0  0  0
 36 43  1  0  0  0  0
 36 35  1  0  0  0  0
 37 36  1  0  0  0  0
 38 42  1  0  0  0  0
 38 37  1  0  0  0  0
 39 38  2  0  0  0  0
 40 39  1  0  0  0  0
 40 41  1  0  0  0  0
 41 52  1  0  0  0  0
 41 42  2  0  0  0  0
 43 45  1  0  0  0  0
 44 43  2  0  0  0  0
 48 37  1  0  0  0  0
 49 37  1  0  0  0  0
 50 39  1  0  0  0  0
 51 40  1  0  0  0  0
M  END
$$$$
