QVI.pdb
 OpenBabel07022418343D

 54 53  0  0  1  0  0  0  0  0999 V2000
   -2.1780    1.6740    4.9340 N   0  0  0  0  0  0  0  0  0  0  0  0
   -0.7690    1.5020    4.9470 C   0  0  0  0  0  0  0  0  0  0  0  0
   -0.0550    2.3820    5.4680 O   0  0  0  0  0  0  0  0  0  0  0  0
   -0.1890    0.3110    4.3580 C   0  0  0  0  0  0  0  0  0  0  0  0
    1.2740    0.2280    4.2200 C   0  0  0  0  0  0  0  0  0  0  0  0
    1.9720    1.2190    3.3760 C   0  0  2  0  0  0  0  0  0  0  0  0
    1.8660    2.5860    3.7170 N   0  0  0  0  0  0  0  0  0  0  0  0
    1.6440    1.0620    1.9180 C   0  0  0  0  0  0  0  0  0  0  0  0
    1.3300    2.0750    1.2520 O   0  0  0  0  0  0  0  0  0  0  0  0
   -2.6720    2.3890    5.5120 H   0  0  0  0  0  0  0  0  0  0  0  0
   -2.8100    1.0780    4.3290 H   0  0  0  0  0  0  0  0  0  0  0  0
   -0.6640    0.0680    3.3560 H   0  0  0  0  0  0  0  0  0  0  0  0
   -0.5500   -0.5560    4.9950 H   0  0  0  0  0  0  0  0  0  0  0  0
    1.7230    0.2080    5.2590 H   0  0  0  0  0  0  0  0  0  0  0  0
    1.5410   -0.7920    3.8240 H   0  0  0  0  0  0  0  0  0  0  0  0
    3.0760    0.9540    3.4190 H   0  0  0  0  0  0  0  0  0  0  0  0
    2.7150    2.9140    4.2230 H   0  0  0  0  0  0  0  0  0  0  0  0
    1.7550    3.1850    2.8700 H   0  0  0  0  0  0  0  0  0  0  0  0
    2.9790   -2.2290   -0.2370 C   0  0  0  0  0  0  0  0  0  0  0  0
    2.5940   -0.8950   -0.8370 C   0  0  0  0  0  0  0  0  0  0  0  0
    3.7190    0.0860   -0.6100 C   0  0  0  0  0  0  0  0  0  0  0  0
    1.3630   -0.3570   -0.1430 C   0  0  2  0  0  0  0  0  0  0  0  0
    1.6770   -0.1970    1.2610 N   0  0  0  0  0  0  0  0  0  0  0  0
    0.1860   -1.2420   -0.3480 C   0  0  0  0  0  0  0  0  0  0  0  0
   -0.3590   -1.7180    0.6950 O   0  0  0  0  0  0  0  0  0  0  0  0
    4.0080   -2.1720    0.2070 H   0  0  0  0  0  0  0  0  0  0  0  0
    3.0500   -2.9740   -1.0520 H   0  0  0  0  0  0  0  0  0  0  0  0
    2.2380   -2.5560    0.5260 H   0  0  0  0  0  0  0  0  0  0  0  0
    2.4460   -0.9710   -1.9310 H   0  0  0  0  0  0  0  0  0  0  0  0
    4.3840    0.1430   -1.4980 H   0  0  0  0  0  0  0  0  0  0  0  0
    3.3370    1.1110   -0.4400 H   0  0  0  0  0  0  0  0  0  0  0  0
    4.3390   -0.2150    0.2520 H   0  0  0  0  0  0  0  0  0  0  0  0
    1.1150    0.6400   -0.5490 H   0  0  0  0  0  0  0  0  0  0  0  0
    1.9450   -1.0240    1.8490 H   0  0  0  0  0  0  0  0  0  0  0  0
   -3.6260   -0.6750   -0.5600 C   0  0  0  0  0  0  0  0  0  0  0  0
   -3.0170   -0.4560   -1.9050 C   0  0  0  0  0  0  0  0  0  0  0  0
   -2.5420   -1.7140   -2.5790 C   0  0  2  0  0  0  0  0  0  0  0  0
   -3.6750   -2.6700   -2.7830 C   0  0  0  0  0  0  0  0  0  0  0  0
   -1.4560   -2.4110   -1.7940 C   0  0  2  0  0  0  0  0  0  0  0  0
   -0.3090   -1.5460   -1.6320 N   0  0  0  0  0  0  0  0  0  0  0  0
   -1.0430   -3.6110   -2.5660 C   0  0  0  0  0  0  0  0  0  0  0  0
    0.1620   -3.7400   -2.9640 O   0  0  0  0  0  0  0  0  0  0  0  0
   -1.8990   -4.6420   -2.9010 O   0  0  0  0  0  0  0  0  0  0  0  0
   -3.2500    0.0940    0.1760 H   0  0  0  0  0  0  0  0  0  0  0  0
   -4.7420   -0.5130   -0.5810 H   0  0  0  0  0  0  0  0  0  0  0  0
   -3.4910   -1.6890   -0.1510 H   0  0  0  0  0  0  0  0  0  0  0  0
   -2.1680    0.2580   -1.8810 H   0  0  0  0  0  0  0  0  0  0  0  0
   -3.7850   -0.0000   -2.5620 H   0  0  0  0  0  0  0  0  0  0  0  0
   -2.1190   -1.4240   -3.5580 H   0  0  0  0  0  0  0  0  0  0  0  0
   -3.6490   -3.1490   -3.7770 H   0  0  0  0  0  0  0  0  0  0  0  0
   -3.6490   -3.4220   -1.9520 H   0  0  0  0  0  0  0  0  0  0  0  0
   -4.6320   -2.0890   -2.6850 H   0  0  0  0  0  0  0  0  0  0  0  0
   -1.8260   -2.7490   -0.8030 H   0  0  0  0  0  0  0  0  0  0  0  0
    0.1490   -1.1500   -2.4560 H   0  0  0  0  0  0  0  0  0  0  0  0
  1  2  1  0  0  0  0
  1 10  1  0  0  0  0
  2  3  2  0  0  0  0
  4  2  1  0  0  0  0
  4 13  1  0  0  0  0
  5  4  1  0  0  0  0
  5 14  1  0  0  0  0
  6 16  1  1  0  0  0
  6  7  1  0  0  0  0
  6  5  1  0  0  0  0
  7 17  1  0  0  0  0
  8  6  1  0  0  0  0
  9  8  2  0  0  0  0
 11  1  1  0  0  0  0
 12  4  1  0  0  0  0
 15  5  1  0  0  0  0
 18  7  1  0  0  0  0
 19 26  1  0  0  0  0
 19 28  1  0  0  0  0
 20 21  1  0  0  0  0
 20 19  1  0  0  0  0
 20 22  1  0  0  0  0
 21 31  1  0  0  0  0
 21 32  1  0  0  0  0
 22 33  1  6  0  0  0
 22 23  1  0  0  0  0
 23 34  1  0  0  0  0
 23  8  1  0  0  0  0
 24 22  1  0  0  0  0
 24 25  2  0  0  0  0
 27 19  1  0  0  0  0
 29 20  1  0  0  0  0
 30 21  1  0  0  0  0
 35 46  1  0  0  0  0
 35 44  1  0  0  0  0
 36 47  1  0  0  0  0
 36 35  1  0  0  0  0
 37 49  1  6  0  0  0
 37 36  1  0  0  0  0
 37 39  1  0  0  0  0
 38 52  1  0  0  0  0
 38 37  1  0  0  0  0
 38 51  1  0  0  0  0
 39 40  1  0  0  0  0
 39 53  1  1  0  0  0
 40 24  1  0  0  0  0
 41 39  1  0  0  0  0
 42 41  2  0  0  0  0
 43 41  1  0  0  0  0
 45 35  1  0  0  0  0
 48 36  1  0  0  0  0
 50 38  1  0  0  0  0
 54 40  1  0  0  0  0
M  END
$$$$
