QVK.pdb
 OpenBabel07022418343D

 56 55  0  0  1  0  0  0  0  0999 V2000
    0.7540    0.5280    7.1990 N   0  0  0  0  0  0  0  0  0  0  0  0
    1.7600    0.0730    6.3090 C   0  0  0  0  0  0  0  0  0  0  0  0
    2.1010   -1.1320    6.4120 O   0  0  0  0  0  0  0  0  0  0  0  0
    2.4000    0.9200    5.3070 C   0  0  0  0  0  0  0  0  0  0  0  0
    3.3990    0.2690    4.4280 C   0  0  0  0  0  0  0  0  0  0  0  0
    2.9220   -0.8570    3.5830 C   0  0  2  0  0  0  0  0  0  0  0  0
    4.0520   -1.3460    2.8060 N   0  0  0  0  0  0  0  0  0  0  0  0
    1.7750   -0.5350    2.7220 C   0  0  0  0  0  0  0  0  0  0  0  0
    0.7170   -0.1150    3.2430 O   0  0  0  0  0  0  0  0  0  0  0  0
   -0.0580   -0.1050    7.3680 H   0  0  0  0  0  0  0  0  0  0  0  0
    0.8060    1.4490    7.6710 H   0  0  0  0  0  0  0  0  0  0  0  0
    2.9490    1.7250    5.8810 H   0  0  0  0  0  0  0  0  0  0  0  0
    1.6100    1.4410    4.7300 H   0  0  0  0  0  0  0  0  0  0  0  0
    4.2040   -0.1540    5.0960 H   0  0  0  0  0  0  0  0  0  0  0  0
    3.9180    1.0630    3.8490 H   0  0  0  0  0  0  0  0  0  0  0  0
    2.6130   -1.6970    4.2310 H   0  0  0  0  0  0  0  0  0  0  0  0
    4.3620   -0.5720    2.1530 H   0  0  0  0  0  0  0  0  0  0  0  0
    3.7790   -2.1980    2.2760 H   0  0  0  0  0  0  0  0  0  0  0  0
    2.3580    0.4490   -1.3580 C   0  0  0  0  0  0  0  0  0  0  0  0
    1.1510    0.7090   -0.5200 C   0  0  0  0  0  0  0  0  0  0  0  0
    1.3330    1.9920    0.2380 C   0  0  0  0  0  0  0  0  0  0  0  0
    0.7830   -0.4050    0.4050 C   0  0  2  0  0  0  0  0  0  0  0  0
    1.8420   -0.6900    1.3290 N   0  0  0  0  0  0  0  0  0  0  0  0
    0.3260   -1.6170   -0.3220 C   0  0  0  0  0  0  0  0  0  0  0  0
    0.8600   -2.7300   -0.0870 O   0  0  0  0  0  0  0  0  0  0  0  0
    2.8960    1.4100   -1.5130 H   0  0  0  0  0  0  0  0  0  0  0  0
    2.0670    0.1210   -2.4000 H   0  0  0  0  0  0  0  0  0  0  0  0
    3.0880   -0.2470   -0.9170 H   0  0  0  0  0  0  0  0  0  0  0  0
    0.2910    0.8690   -1.2200 H   0  0  0  0  0  0  0  0  0  0  0  0
    0.3760    2.5150    0.4320 H   0  0  0  0  0  0  0  0  0  0  0  0
    1.9050    1.7800    1.1660 H   0  0  0  0  0  0  0  0  0  0  0  0
    1.9690    2.6790   -0.3810 H   0  0  0  0  0  0  0  0  0  0  0  0
   -0.0880   -0.0500    1.0100 H   0  0  0  0  0  0  0  0  0  0  0  0
    2.7430   -1.0430    0.9280 H   0  0  0  0  0  0  0  0  0  0  0  0
   -0.7090   -1.5670   -1.2890 N   0  0  0  0  0  0  0  0  0  0  0  0
   -1.1490   -2.7510   -1.9930 C   0  0  1  0  0  0  0  0  0  0  0  0
   -2.6280   -2.9770   -1.8650 C   0  0  0  0  0  0  0  0  0  0  0  0
   -3.4370   -1.8370   -2.4160 C   0  0  0  0  0  0  0  0  0  0  0  0
   -4.9070   -2.1520   -2.2440 C   0  0  0  0  0  0  0  0  0  0  0  0
   -5.7820   -1.0410   -2.7800 C   0  0  0  0  0  0  0  0  0  0  0  0
   -5.5550   -0.8160   -4.1950 N   0  0  0  0  0  0  0  0  0  0  0  0
   -0.8670   -2.5770   -3.4610 C   0  0  0  0  0  0  0  0  0  0  0  0
   -0.3330   -1.5420   -3.9270 O   0  0  0  0  0  0  0  0  0  0  0  0
   -1.2000   -3.5810   -4.3590 O   0  0  0  0  0  0  0  0  0  0  0  0
   -1.1550   -0.6530   -1.4890 H   0  0  0  0  0  0  0  0  0  0  0  0
   -0.6040   -3.6450   -1.6840 H   0  0  0  0  0  0  0  0  0  0  0  0
   -2.8610   -3.1690   -0.8130 H   0  0  0  0  0  0  0  0  0  0  0  0
   -2.8590   -3.9250   -2.4150 H   0  0  0  0  0  0  0  0  0  0  0  0
   -3.1410   -0.9060   -1.9300 H   0  0  0  0  0  0  0  0  0  0  0  0
   -3.2030   -1.7560   -3.5030 H   0  0  0  0  0  0  0  0  0  0  0  0
   -5.1340   -2.2630   -1.1650 H   0  0  0  0  0  0  0  0  0  0  0  0
   -5.1510   -3.1100   -2.7430 H   0  0  0  0  0  0  0  0  0  0  0  0
   -6.8340   -1.3540   -2.6570 H   0  0  0  0  0  0  0  0  0  0  0  0
   -5.5900   -0.1100   -2.2180 H   0  0  0  0  0  0  0  0  0  0  0  0
   -4.8450   -0.0440   -4.2670 H   0  0  0  0  0  0  0  0  0  0  0  0
   -5.1320   -1.6540   -4.6520 H   0  0  0  0  0  0  0  0  0  0  0  0
  1 10  1  0  0  0  0
  1 11  1  0  0  0  0
  2  3  2  0  0  0  0
  2  1  1  0  0  0  0
  4 12  1  0  0  0  0
  4  2  1  0  0  0  0
  5 14  1  0  0  0  0
  5  4  1  0  0  0  0
  6 16  1  1  0  0  0
  6  5  1  0  0  0  0
  7  6  1  0  0  0  0
  8  9  2  0  0  0  0
  8  6  1  0  0  0  0
 13  4  1  0  0  0  0
 15  5  1  0  0  0  0
 17  7  1  0  0  0  0
 18  7  1  0  0  0  0
 19 28  1  0  0  0  0
 19 20  1  0  0  0  0
 20 21  1  0  0  0  0
 20 22  1  0  0  0  0
 21 30  1  0  0  0  0
 21 31  1  0  0  0  0
 22 33  1  1  0  0  0
 22 23  1  0  0  0  0
 23  8  1  0  0  0  0
 24 25  2  0  0  0  0
 24 22  1  0  0  0  0
 26 19  1  0  0  0  0
 27 19  1  0  0  0  0
 29 20  1  0  0  0  0
 32 21  1  0  0  0  0
 34 23  1  0  0  0  0
 35 24  1  0  0  0  0
 36 37  1  0  0  0  0
 36 46  1  1  0  0  0
 36 35  1  0  0  0  0
 37 47  1  0  0  0  0
 38 39  1  0  0  0  0
 38 49  1  0  0  0  0
 38 37  1  0  0  0  0
 39 51  1  0  0  0  0
 40 53  1  0  0  0  0
 40 39  1  0  0  0  0
 40 54  1  0  0  0  0
 41 40  1  0  0  0  0
 42 36  1  0  0  0  0
 43 42  1  0  0  0  0
 44 42  2  0  0  0  0
 45 35  1  0  0  0  0
 48 37  1  0  0  0  0
 50 38  1  0  0  0  0
 52 39  1  0  0  0  0
 55 41  1  0  0  0  0
 56 41  1  0  0  0  0
M  END
$$$$
