QVL.pdb
 OpenBabel07022418343D

 54 53  0  0  1  0  0  0  0  0999 V2000
   -0.5490   -4.9880    4.3390 N   0  0  0  0  0  0  0  0  0  0  0  0
   -0.5490   -3.7390    3.6660 C   0  0  0  0  0  0  0  0  0  0  0  0
   -1.4230   -3.5130    2.8180 O   0  0  0  0  0  0  0  0  0  0  0  0
    0.4900   -2.6910    3.9660 C   0  0  0  0  0  0  0  0  0  0  0  0
    0.2620   -1.4660    3.1070 C   0  0  0  0  0  0  0  0  0  0  0  0
    1.2780   -0.4200    3.3890 C   0  0  2  0  0  0  0  0  0  0  0  0
    1.1800   -0.0440    4.7870 N   0  0  0  0  0  0  0  0  0  0  0  0
    1.2600    0.7310    2.4870 C   0  0  0  0  0  0  0  0  0  0  0  0
    1.1650    1.8850    3.0000 O   0  0  0  0  0  0  0  0  0  0  0  0
   -0.4990   -5.0130    5.3800 H   0  0  0  0  0  0  0  0  0  0  0  0
   -0.5950   -5.9050    3.8470 H   0  0  0  0  0  0  0  0  0  0  0  0
    1.4790   -3.1660    3.7750 H   0  0  0  0  0  0  0  0  0  0  0  0
    0.4340   -2.4660    5.0430 H   0  0  0  0  0  0  0  0  0  0  0  0
    0.3780   -1.8090    2.0400 H   0  0  0  0  0  0  0  0  0  0  0  0
   -0.7740   -1.1650    3.2300 H   0  0  0  0  0  0  0  0  0  0  0  0
    2.2920   -0.9050    3.2810 H   0  0  0  0  0  0  0  0  0  0  0  0
    1.5190    0.9400    4.8790 H   0  0  0  0  0  0  0  0  0  0  0  0
    0.1630   -0.0100    5.1000 H   0  0  0  0  0  0  0  0  0  0  0  0
    2.7270    0.4860   -1.4550 C   0  0  0  0  0  0  0  0  0  0  0  0
    2.6030    1.7620   -0.6570 C   0  0  0  0  0  0  0  0  0  0  0  0
    3.8260    1.9380    0.2210 C   0  0  0  0  0  0  0  0  0  0  0  0
    1.3290    1.7360    0.1660 C   0  0  2  0  0  0  0  0  0  0  0  0
    1.3440    0.6200    1.0750 N   0  0  0  0  0  0  0  0  0  0  0  0
    0.1900    1.6610   -0.7860 C   0  0  0  0  0  0  0  0  0  0  0  0
    0.0810    2.5970   -1.6360 O   0  0  0  0  0  0  0  0  0  0  0  0
    3.6620   -0.0780   -1.1850 H   0  0  0  0  0  0  0  0  0  0  0  0
    2.7760    0.7010   -2.5520 H   0  0  0  0  0  0  0  0  0  0  0  0
    1.8600   -0.1820   -1.3170 H   0  0  0  0  0  0  0  0  0  0  0  0
    2.5580    2.6140   -1.3700 H   0  0  0  0  0  0  0  0  0  0  0  0
    3.9930    3.0150    0.3860 H   0  0  0  0  0  0  0  0  0  0  0  0
    4.6840    1.5200   -0.3150 H   0  0  0  0  0  0  0  0  0  0  0  0
    3.6810    1.3910    1.1800 H   0  0  0  0  0  0  0  0  0  0  0  0
    1.2450    2.7070    0.7040 H   0  0  0  0  0  0  0  0  0  0  0  0
    1.4210   -0.3480    0.6960 H   0  0  0  0  0  0  0  0  0  0  0  0
   -2.9970   -2.2920   -0.9090 C   0  0  0  0  0  0  0  0  0  0  0  0
   -1.8460   -1.9890   -1.7970 C   0  0  0  0  0  0  0  0  0  0  0  0
   -1.8090   -3.1150   -2.8480 C   0  0  0  0  0  0  0  0  0  0  0  0
   -1.8470   -0.7130   -2.5350 C   0  0  0  0  0  0  0  0  0  0  0  0
   -1.8710    0.5110   -1.6960 C   0  0  2  0  0  0  0  0  0  0  0  0
   -0.7580    0.6060   -0.7830 N   0  0  0  0  0  0  0  0  0  0  0  0
   -3.1410    0.6480   -0.9760 C   0  0  0  0  0  0  0  0  0  0  0  0
   -3.1150    0.8050    0.2710 O   0  0  0  0  0  0  0  0  0  0  0  0
   -4.3940    0.6210   -1.5720 O   0  0  0  0  0  0  0  0  0  0  0  0
   -3.9750   -2.0080   -1.3080 H   0  0  0  0  0  0  0  0  0  0  0  0
   -3.0590   -3.4120   -0.7120 H   0  0  0  0  0  0  0  0  0  0  0  0
   -2.8710   -1.8670    0.1070 H   0  0  0  0  0  0  0  0  0  0  0  0
   -0.8740   -2.1020   -1.2180 H   0  0  0  0  0  0  0  0  0  0  0  0
   -2.8360   -3.1040   -3.3100 H   0  0  0  0  0  0  0  0  0  0  0  0
   -1.6120   -4.0430   -2.3130 H   0  0  0  0  0  0  0  0  0  0  0  0
   -1.0810   -2.8880   -3.6260 H   0  0  0  0  0  0  0  0  0  0  0  0
   -2.8050   -0.6990   -3.1490 H   0  0  0  0  0  0  0  0  0  0  0  0
   -1.0120   -0.6220   -3.2700 H   0  0  0  0  0  0  0  0  0  0  0  0
   -1.8060    1.4280   -2.3770 H   0  0  0  0  0  0  0  0  0  0  0  0
   -0.6360   -0.1420   -0.0730 H   0  0  0  0  0  0  0  0  0  0  0  0
  1 10  1  0  0  0  0
  2  4  1  0  0  0  0
  2  1  1  0  0  0  0
  3  2  2  0  0  0  0
  4 13  1  0  0  0  0
  5 15  1  0  0  0  0
  5  6  1  0  0  0  0
  5  4  1  0  0  0  0
  6 16  1  6  0  0  0
  6  7  1  0  0  0  0
  7 17  1  0  0  0  0
  7 18  1  0  0  0  0
  8  9  2  0  0  0  0
  8  6  1  0  0  0  0
 11  1  1  0  0  0  0
 12  4  1  0  0  0  0
 14  5  1  0  0  0  0
 19 28  1  0  0  0  0
 19 26  1  0  0  0  0
 19 20  1  0  0  0  0
 20 22  1  0  0  0  0
 20 21  1  0  0  0  0
 21 30  1  0  0  0  0
 21 32  1  0  0  0  0
 22 33  1  1  0  0  0
 22 23  1  0  0  0  0
 23  8  1  0  0  0  0
 24 40  1  0  0  0  0
 24 22  1  0  0  0  0
 25 24  2  0  0  0  0
 27 19  1  0  0  0  0
 29 20  1  0  0  0  0
 31 21  1  0  0  0  0
 34 23  1  0  0  0  0
 35 45  1  0  0  0  0
 35 46  1  0  0  0  0
 36 47  1  0  0  0  0
 36 35  1  0  0  0  0
 37 49  1  0  0  0  0
 37 36  1  0  0  0  0
 38 36  1  0  0  0  0
 38 39  1  0  0  0  0
 39 53  1  6  0  0  0
 39 41  1  0  0  0  0
 39 40  1  0  0  0  0
 40 54  1  0  0  0  0
 41 42  1  0  0  0  0
 43 41  2  0  0  0  0
 44 35  1  0  0  0  0
 48 37  1  0  0  0  0
 50 37  1  0  0  0  0
 51 38  1  0  0  0  0
 52 38  1  0  0  0  0
M  END
$$$$
