QVN.pdb
 OpenBabel07022418343D

 49 48  0  0  1  0  0  0  0  0999 V2000
    1.6530   -1.7180    5.5160 N   0  0  0  0  0  0  0  0  0  0  0  0
    2.3180   -0.6940    4.7960 C   0  0  0  0  0  0  0  0  0  0  0  0
    2.7090    0.3170    5.4150 O   0  0  0  0  0  0  0  0  0  0  0  0
    2.5600   -0.8080    3.3080 C   0  0  0  0  0  0  0  0  0  0  0  0
    3.2740    0.3950    2.8070 C   0  0  0  0  0  0  0  0  0  0  0  0
    3.6000    0.4240    1.3540 C   0  0  2  0  0  0  0  0  0  0  0  0
    4.2980    1.7170    1.1450 N   0  0  0  0  0  0  0  0  0  0  0  0
    2.4380    0.4440    0.4410 C   0  0  0  0  0  0  0  0  0  0  0  0
    2.1080    1.5250   -0.1640 O   0  0  0  0  0  0  0  0  0  0  0  0
    0.6190   -1.7050    5.6880 H   0  0  0  0  0  0  0  0  0  0  0  0
    2.1560   -2.5540    5.9220 H   0  0  0  0  0  0  0  0  0  0  0  0
    3.1520   -1.7280    3.1490 H   0  0  0  0  0  0  0  0  0  0  0  0
    1.5670   -0.9680    2.8580 H   0  0  0  0  0  0  0  0  0  0  0  0
    4.2650    0.4350    3.3480 H   0  0  0  0  0  0  0  0  0  0  0  0
    2.7750    1.3500    3.1210 H   0  0  0  0  0  0  0  0  0  0  0  0
    4.3080   -0.3850    1.0980 H   0  0  0  0  0  0  0  0  0  0  0  0
    3.5610    2.4360    1.3250 H   0  0  0  0  0  0  0  0  0  0  0  0
    5.0250    1.8540    1.8900 H   0  0  0  0  0  0  0  0  0  0  0  0
    2.1560   -1.1550   -2.4360 C   0  0  0  0  0  0  0  0  0  0  0  0
    0.8450   -1.6470   -1.8040 C   0  0  0  0  0  0  0  0  0  0  0  0
   -0.1980   -1.8460   -2.8500 C   0  0  0  0  0  0  0  0  0  0  0  0
    0.4880   -0.6300   -0.7400 C   0  0  2  0  0  0  0  0  0  0  0  0
    1.6330   -0.6690    0.1680 N   0  0  0  0  0  0  0  0  0  0  0  0
   -0.7180   -0.9390    0.0210 C   0  0  0  0  0  0  0  0  0  0  0  0
   -0.6270   -1.2090    1.2500 O   0  0  0  0  0  0  0  0  0  0  0  0
    2.8450   -0.7470   -1.6700 H   0  0  0  0  0  0  0  0  0  0  0  0
    1.9750   -0.3520   -3.1730 H   0  0  0  0  0  0  0  0  0  0  0  0
    2.6930   -2.0230   -2.8870 H   0  0  0  0  0  0  0  0  0  0  0  0
    1.0790   -2.5910   -1.2780 H   0  0  0  0  0  0  0  0  0  0  0  0
   -0.9720   -2.5520   -2.5420 H   0  0  0  0  0  0  0  0  0  0  0  0
   -0.5470   -0.8940   -3.2740 H   0  0  0  0  0  0  0  0  0  0  0  0
    0.3270   -2.3570   -3.7150 H   0  0  0  0  0  0  0  0  0  0  0  0
    0.3700    0.4010   -1.1700 H   0  0  0  0  0  0  0  0  0  0  0  0
    1.8320   -1.5860    0.6070 H   0  0  0  0  0  0  0  0  0  0  0  0
   -4.5840    2.2240    0.8330 N   0  0  0  0  0  0  0  0  0  0  0  0
   -3.7340    1.0940    0.7850 C   0  0  0  0  0  0  0  0  0  0  0  0
   -2.5550    1.2150    1.1950 O   0  0  0  0  0  0  0  0  0  0  0  0
   -4.2360   -0.1760    0.2670 C   0  0  0  0  0  0  0  0  0  0  0  0
   -3.2060   -1.2780    0.2860 C   0  0  2  0  0  0  0  0  0  0  0  0
   -2.0460   -0.9680   -0.5020 N   0  0  0  0  0  0  0  0  0  0  0  0
   -3.8670   -2.5100   -0.2240 C   0  0  0  0  0  0  0  0  0  0  0  0
   -4.9050   -2.9690    0.3170 O   0  0  0  0  0  0  0  0  0  0  0  0
   -3.3470   -3.1810   -1.3160 O   0  0  0  0  0  0  0  0  0  0  0  0
   -4.2390    3.1760    1.0620 H   0  0  0  0  0  0  0  0  0  0  0  0
   -5.6220    2.1510    0.6360 H   0  0  0  0  0  0  0  0  0  0  0  0
   -4.5120   -0.0050   -0.8140 H   0  0  0  0  0  0  0  0  0  0  0  0
   -5.1680   -0.5360    0.7470 H   0  0  0  0  0  0  0  0  0  0  0  0
   -2.9580   -1.4880    1.3510 H   0  0  0  0  0  0  0  0  0  0  0  0
   -2.1510   -0.7460   -1.5120 H   0  0  0  0  0  0  0  0  0  0  0  0
  1 10  1  0  0  0  0
  1 11  1  0  0  0  0
  2  3  2  0  0  0  0
  2  1  1  0  0  0  0
  4  2  1  0  0  0  0
  5 15  1  0  0  0  0
  5  4  1  0  0  0  0
  5 14  1  0  0  0  0
  6 16  1  6  0  0  0
  6  5  1  0  0  0  0
  7 17  1  0  0  0  0
  7  6  1  0  0  0  0
  7 18  1  0  0  0  0
  8  6  1  0  0  0  0
  9  8  2  0  0  0  0
 12  4  1  0  0  0  0
 13  4  1  0  0  0  0
 19 20  1  0  0  0  0
 19 26  1  0  0  0  0
 20 29  1  0  0  0  0
 20 22  1  0  0  0  0
 21 30  1  0  0  0  0
 21 20  1  0  0  0  0
 22 33  1  6  0  0  0
 22 24  1  0  0  0  0
 22 23  1  0  0  0  0
 23  8  1  0  0  0  0
 23 34  1  0  0  0  0
 24 25  2  0  0  0  0
 27 19  1  0  0  0  0
 28 19  1  0  0  0  0
 31 21  1  0  0  0  0
 32 21  1  0  0  0  0
 35 44  1  0  0  0  0
 36 35  1  0  0  0  0
 36 37  2  0  0  0  0
 38 39  1  0  0  0  0
 38 47  1  0  0  0  0
 38 36  1  0  0  0  0
 39 48  1  1  0  0  0
 40 24  1  0  0  0  0
 40 39  1  0  0  0  0
 41 39  1  0  0  0  0
 41 42  1  0  0  0  0
 43 41  2  0  0  0  0
 45 35  1  0  0  0  0
 46 38  1  0  0  0  0
 49 40  1  0  0  0  0
M  END
$$$$
