QVP.pdb
 OpenBabel07022418343D

 49 49  0  0  1  0  0  0  0  0999 V2000
    2.9580   -4.2590    2.3210 N   0  0  0  0  0  0  0  0  0  0  0  0
    1.6420   -4.5740    1.8870 C   0  0  0  0  0  0  0  0  0  0  0  0
    0.8710   -5.1300    2.6930 O   0  0  0  0  0  0  0  0  0  0  0  0
    1.1730   -4.2610    0.5180 C   0  0  0  0  0  0  0  0  0  0  0  0
   -0.2310   -4.6410    0.2450 C   0  0  0  0  0  0  0  0  0  0  0  0
   -1.2880   -4.0190    1.0860 C   0  0  2  0  0  0  0  0  0  0  0  0
   -2.5650   -4.5840    0.5840 N   0  0  0  0  0  0  0  0  0  0  0  0
   -1.4010   -2.5590    0.9490 C   0  0  0  0  0  0  0  0  0  0  0  0
   -2.4010   -2.0880    0.3590 O   0  0  0  0  0  0  0  0  0  0  0  0
    3.2310   -3.8300    3.2060 H   0  0  0  0  0  0  0  0  0  0  0  0
    3.7520   -4.4940    1.6570 H   0  0  0  0  0  0  0  0  0  0  0  0
    1.8020   -4.9080   -0.1840 H   0  0  0  0  0  0  0  0  0  0  0  0
    1.4120   -3.2130    0.1970 H   0  0  0  0  0  0  0  0  0  0  0  0
   -0.5080   -4.5250   -0.8440 H   0  0  0  0  0  0  0  0  0  0  0  0
   -0.3150   -5.7570    0.4110 H   0  0  0  0  0  0  0  0  0  0  0  0
   -1.2270   -4.3620    2.1340 H   0  0  0  0  0  0  0  0  0  0  0  0
   -3.3600   -3.9700    0.7870 H   0  0  0  0  0  0  0  0  0  0  0  0
   -2.4960   -4.7980   -0.4250 H   0  0  0  0  0  0  0  0  0  0  0  0
    0.6650    0.2940    3.3600 C   0  0  0  0  0  0  0  0  0  0  0  0
   -0.6120    0.4990    2.5880 C   0  0  0  0  0  0  0  0  0  0  0  0
   -0.8420    1.9730    2.5380 C   0  0  0  0  0  0  0  0  0  0  0  0
   -0.6470   -0.1420    1.2520 C   0  0  2  0  0  0  0  0  0  0  0  0
   -0.4640   -1.6160    1.4340 N   0  0  0  0  0  0  0  0  0  0  0  0
    0.3300    0.3210    0.2550 C   0  0  0  0  0  0  0  0  0  0  0  0
    1.4520   -0.2600    0.0930 O   0  0  0  0  0  0  0  0  0  0  0  0
    0.4510   -0.4160    4.1830 H   0  0  0  0  0  0  0  0  0  0  0  0
    1.5070   -0.0410    2.7190 H   0  0  0  0  0  0  0  0  0  0  0  0
    1.0240    1.2200    3.8550 H   0  0  0  0  0  0  0  0  0  0  0  0
   -1.4720    0.0660    3.1610 H   0  0  0  0  0  0  0  0  0  0  0  0
   -0.7720    2.4270    3.5790 H   0  0  0  0  0  0  0  0  0  0  0  0
   -1.8290    2.2000    2.1010 H   0  0  0  0  0  0  0  0  0  0  0  0
   -0.0610    2.4880    1.9410 H   0  0  0  0  0  0  0  0  0  0  0  0
   -1.6360   -0.0390    0.8230 H   0  0  0  0  0  0  0  0  0  0  0  0
    0.3570   -2.0020    1.9310 H   0  0  0  0  0  0  0  0  0  0  0  0
    0.0740    1.4240   -0.5840 N   0  0  0  0  0  0  0  0  0  0  0  0
   -1.1670    2.1920   -0.6090 C   0  0  0  0  0  0  0  0  0  0  0  0
   -1.2290    2.5930   -2.1060 C   0  0  0  0  0  0  0  0  0  0  0  0
    0.2110    3.0780   -2.2340 C   0  0  0  0  0  0  0  0  0  0  0  0
    0.9790    1.9740   -1.5880 C   0  0  1  0  0  0  0  0  0  0  0  0
    2.2700    2.4100   -1.0310 C   0  0  0  0  0  0  0  0  0  0  0  0
    2.5060    2.2630    0.1730 O   0  0  0  0  0  0  0  0  0  0  0  0
    3.1860    2.9760   -1.8820 O   0  0  0  0  0  0  0  0  0  0  0  0
   -2.0630    1.6060   -0.4200 H   0  0  0  0  0  0  0  0  0  0  0  0
   -1.0930    3.1560   -0.0770 H   0  0  0  0  0  0  0  0  0  0  0  0
   -1.9640    3.3740   -2.2780 H   0  0  0  0  0  0  0  0  0  0  0  0
   -1.3140    1.6890   -2.7060 H   0  0  0  0  0  0  0  0  0  0  0  0
    0.3070    4.0480   -1.6680 H   0  0  0  0  0  0  0  0  0  0  0  0
    0.4850    3.2440   -3.2980 H   0  0  0  0  0  0  0  0  0  0  0  0
    1.0900    1.1690   -2.3490 H   0  0  0  0  0  0  0  0  0  0  0  0
  1 10  1  0  0  0  0
  2  1  1  0  0  0  0
  2  3  2  0  0  0  0
  4  2  1  0  0  0  0
  5 15  1  0  0  0  0
  5  4  1  0  0  0  0
  5  6  1  0  0  0  0
  6 16  1  1  0  0  0
  7 17  1  0  0  0  0
  7  6  1  0  0  0  0
  8  6  1  0  0  0  0
  8 23  1  0  0  0  0
  9  8  2  0  0  0  0
 11  1  1  0  0  0  0
 12  4  1  0  0  0  0
 13  4  1  0  0  0  0
 14  5  1  0  0  0  0
 18  7  1  0  0  0  0
 19 28  1  0  0  0  0
 19 26  1  0  0  0  0
 20 29  1  0  0  0  0
 20 19  1  0  0  0  0
 21 20  1  0  0  0  0
 21 30  1  0  0  0  0
 22 33  1  6  0  0  0
 22 23  1  0  0  0  0
 22 20  1  0  0  0  0
 23 34  1  0  0  0  0
 24 22  1  0  0  0  0
 25 24  2  0  0  0  0
 27 19  1  0  0  0  0
 31 21  1  0  0  0  0
 32 21  1  0  0  0  0
 35 24  1  0  0  0  0
 36 35  1  0  0  0  0
 36 43  1  0  0  0  0
 36 44  1  0  0  0  0
 37 36  1  0  0  0  0
 38 37  1  0  0  0  0
 38 47  1  0  0  0  0
 38 39  1  0  0  0  0
 39 49  1  6  0  0  0
 39 40  1  0  0  0  0
 39 35  1  0  0  0  0
 40 41  1  0  0  0  0
 42 40  2  0  0  0  0
 45 37  1  0  0  0  0
 46 37  1  0  0  0  0
 48 38  1  0  0  0  0
M  END
$$$$
