QVW.pdb
 OpenBabel07022418343D

 59 60  0  0  1  0  0  0  0  0999 V2000
    0.7600   -2.9360    1.6590 N   0  0  0  0  0  0  0  0  0  0  0  0
    1.6820   -2.0530    2.2960 C   0  0  0  0  0  0  0  0  0  0  0  0
    2.8900   -2.2240    2.0460 O   0  0  0  0  0  0  0  0  0  0  0  0
    1.2450   -0.9860    3.2080 C   0  0  0  0  0  0  0  0  0  0  0  0
    2.3660   -0.1230    3.6840 C   0  0  0  0  0  0  0  0  0  0  0  0
    3.0730    0.6200    2.5870 C   0  0  2  0  0  0  0  0  0  0  0  0
    4.1460    1.4040    3.2800 N   0  0  0  0  0  0  0  0  0  0  0  0
    2.2330    1.5480    1.8240 C   0  0  0  0  0  0  0  0  0  0  0  0
    2.2330    2.7870    2.0940 O   0  0  0  0  0  0  0  0  0  0  0  0
    1.0730   -3.8640    1.3150 H   0  0  0  0  0  0  0  0  0  0  0  0
   -0.2470   -2.6820    1.5210 H   0  0  0  0  0  0  0  0  0  0  0  0
    0.7300   -1.4250    4.1230 H   0  0  0  0  0  0  0  0  0  0  0  0
    0.5180   -0.3440    2.6530 H   0  0  0  0  0  0  0  0  0  0  0  0
    2.0590    0.5480    4.5190 H   0  0  0  0  0  0  0  0  0  0  0  0
    3.1440   -0.8350    4.1040 H   0  0  0  0  0  0  0  0  0  0  0  0
    3.6280   -0.0860    1.9670 H   0  0  0  0  0  0  0  0  0  0  0  0
    4.8290    0.7360    3.7100 H   0  0  0  0  0  0  0  0  0  0  0  0
    4.5710    2.0620    2.6050 H   0  0  0  0  0  0  0  0  0  0  0  0
    1.2870    1.2170   -2.2080 C   0  0  0  0  0  0  0  0  0  0  0  0
    1.1600    2.4230   -1.3220 C   0  0  0  0  0  0  0  0  0  0  0  0
    0.2250    3.4010   -1.9980 C   0  0  0  0  0  0  0  0  0  0  0  0
    0.5760    2.1050    0.0390 C   0  0  2  0  0  0  0  0  0  0  0  0
    1.3910    1.1570    0.7670 N   0  0  0  0  0  0  0  0  0  0  0  0
   -0.7800    1.5830   -0.1450 C   0  0  0  0  0  0  0  0  0  0  0  0
   -1.6870    2.3500   -0.6350 O   0  0  0  0  0  0  0  0  0  0  0  0
    1.8760    0.4030   -1.7930 H   0  0  0  0  0  0  0  0  0  0  0  0
    1.7720    1.5620   -3.1580 H   0  0  0  0  0  0  0  0  0  0  0  0
    0.3030    0.8150   -2.5220 H   0  0  0  0  0  0  0  0  0  0  0  0
    2.1220    2.9520   -1.1800 H   0  0  0  0  0  0  0  0  0  0  0  0
   -0.5310    2.8520   -2.5980 H   0  0  0  0  0  0  0  0  0  0  0  0
    0.7830    4.0350   -2.7490 H   0  0  0  0  0  0  0  0  0  0  0  0
   -0.2550    4.0860   -1.2420 H   0  0  0  0  0  0  0  0  0  0  0  0
    0.6010    3.0590    0.6030 H   0  0  0  0  0  0  0  0  0  0  0  0
    1.3500    0.1620    0.4870 H   0  0  0  0  0  0  0  0  0  0  0  0
   -1.2350    0.2790    0.1630 N   0  0  0  0  0  0  0  0  0  0  0  0
   -2.6370   -0.1130   -0.0650 C   0  0  1  0  0  0  0  0  0  0  0  0
   -2.6180   -0.9910   -1.2810 C   0  0  0  0  0  0  0  0  0  0  0  0
   -1.7970   -2.2060   -1.1910 C   0  0  0  0  0  0  0  0  0  0  0  0
   -0.4730   -2.3080   -1.6410 C   0  0  0  0  0  0  0  0  0  0  0  0
    0.0170   -3.5250   -1.3980 N   0  0  0  0  0  0  0  0  0  0  0  0
   -0.9440   -4.2710   -0.7880 C   0  0  0  0  0  0  0  0  0  0  0  0
   -0.9800   -5.5590   -0.3390 C   0  0  0  0  0  0  0  0  0  0  0  0
   -2.1260   -6.0810    0.2490 C   0  0  0  0  0  0  0  0  0  0  0  0
   -3.2280   -5.2760    0.3720 C   0  0  0  0  0  0  0  0  0  0  0  0
   -3.1860   -3.9860   -0.0800 C   0  0  0  0  0  0  0  0  0  0  0  0
   -2.0600   -3.4520   -0.6630 C   0  0  0  0  0  0  0  0  0  0  0  0
   -3.1450   -0.7740    1.1330 C   0  0  0  0  0  0  0  0  0  0  0  0
   -2.3740   -1.0530    2.1150 O   0  0  0  0  0  0  0  0  0  0  0  0
   -4.4650   -1.1520    1.3300 O   0  0  0  0  0  0  0  0  0  0  0  0
   -0.6120   -0.4410    0.5540 H   0  0  0  0  0  0  0  0  0  0  0  0
   -3.2340    0.8240   -0.2870 H   0  0  0  0  0  0  0  0  0  0  0  0
   -2.3300   -0.4220   -2.2020 H   0  0  0  0  0  0  0  0  0  0  0  0
   -3.6920   -1.3340   -1.4240 H   0  0  0  0  0  0  0  0  0  0  0  0
    0.1090   -1.5360   -2.1220 H   0  0  0  0  0  0  0  0  0  0  0  0
    0.9600   -3.9210   -1.6060 H   0  0  0  0  0  0  0  0  0  0  0  0
   -0.1160   -6.2230   -0.4230 H   0  0  0  0  0  0  0  0  0  0  0  0
   -2.1570   -7.0860    0.6020 H   0  0  0  0  0  0  0  0  0  0  0  0
   -4.1240   -5.6730    0.8270 H   0  0  0  0  0  0  0  0  0  0  0  0
   -4.0720   -3.3870    0.0150 H   0  0  0  0  0  0  0  0  0  0  0  0
  1  2  1  0  0  0  0
  2  4  1  0  0  0  0
  3  2  2  0  0  0  0
  4  5  1  0  0  0  0
  4 12  1  0  0  0  0
  5 15  1  0  0  0  0
  5 14  1  0  0  0  0
  6 16  1  6  0  0  0
  6  7  1  0  0  0  0
  6  5  1  0  0  0  0
  7 17  1  0  0  0  0
  8  9  2  0  0  0  0
  8  6  1  0  0  0  0
 10  1  1  0  0  0  0
 11  1  1  0  0  0  0
 13  4  1  0  0  0  0
 18  7  1  0  0  0  0
 19 26  1  0  0  0  0
 19 20  1  0  0  0  0
 20 29  1  0  0  0  0
 20 22  1  0  0  0  0
 21 20  1  0  0  0  0
 21 32  1  0  0  0  0
 22 33  1  1  0  0  0
 22 23  1  0  0  0  0
 23  8  1  0  0  0  0
 24 22  1  0  0  0  0
 24 35  1  0  0  0  0
 25 24  2  0  0  0  0
 27 19  1  0  0  0  0
 28 19  1  0  0  0  0
 30 21  1  0  0  0  0
 31 21  1  0  0  0  0
 34 23  1  0  0  0  0
 35 50  1  0  0  0  0
 36 51  1  6  0  0  0
 36 35  1  0  0  0  0
 36 47  1  0  0  0  0
 37 38  1  0  0  0  0
 37 36  1  0  0  0  0
 38 46  1  0  0  0  0
 39 40  1  0  0  0  0
 39 38  2  0  0  0  0
 40 41  1  0  0  0  0
 41 46  2  0  0  0  0
 41 42  1  0  0  0  0
 42 43  2  0  0  0  0
 43 44  1  0  0  0  0
 43 57  1  0  0  0  0
 44 58  1  0  0  0  0
 45 59  1  0  0  0  0
 45 44  2  0  0  0  0
 46 45  1  0  0  0  0
 47 49  2  0  0  0  0
 47 48  1  0  0  0  0
 52 37  1  0  0  0  0
 53 37  1  0  0  0  0
 54 39  1  0  0  0  0
 55 40  1  0  0  0  0
 56 42  1  0  0  0  0
M  END
$$$$
