QVY.pdb
 OpenBabel07022418343D

 56 56  0  0  1  0  0  0  0  0999 V2000
   -1.4680   -0.4610    5.8250 N   0  0  0  0  0  0  0  0  0  0  0  0
   -0.1270   -0.4690    5.3090 C   0  0  0  0  0  0  0  0  0  0  0  0
    0.7520   -0.0150    6.0680 O   0  0  0  0  0  0  0  0  0  0  0  0
    0.0850   -0.9980    3.9740 C   0  0  0  0  0  0  0  0  0  0  0  0
    1.4230   -0.8310    3.3640 C   0  0  0  0  0  0  0  0  0  0  0  0
    1.9150    0.5440    3.1310 C   0  0  2  0  0  0  0  0  0  0  0  0
    2.0420    1.3590    4.2880 N   0  0  0  0  0  0  0  0  0  0  0  0
    1.1590    1.2510    2.0410 C   0  0  0  0  0  0  0  0  0  0  0  0
    0.7110    2.4180    2.1980 O   0  0  0  0  0  0  0  0  0  0  0  0
   -2.0660   -1.2960    5.6240 H   0  0  0  0  0  0  0  0  0  0  0  0
   -1.8510    0.3210    6.3730 H   0  0  0  0  0  0  0  0  0  0  0  0
   -0.7290   -0.6880    3.2500 H   0  0  0  0  0  0  0  0  0  0  0  0
   -0.0820   -2.1190    4.0490 H   0  0  0  0  0  0  0  0  0  0  0  0
    1.4550   -1.4380    2.4330 H   0  0  0  0  0  0  0  0  0  0  0  0
    2.1610   -1.3200    4.0690 H   0  0  0  0  0  0  0  0  0  0  0  0
    2.9610    0.4370    2.7060 H   0  0  0  0  0  0  0  0  0  0  0  0
    2.1370    2.3560    3.9870 H   0  0  0  0  0  0  0  0  0  0  0  0
    2.9360    1.1270    4.7770 H   0  0  0  0  0  0  0  0  0  0  0  0
    1.6270    0.1420   -2.0950 C   0  0  0  0  0  0  0  0  0  0  0  0
    1.0560    1.3940   -1.5360 C   0  0  0  0  0  0  0  0  0  0  0  0
    0.2330    2.1330   -2.5700 C   0  0  0  0  0  0  0  0  0  0  0  0
    0.2190    1.2010   -0.3040 C   0  0  2  0  0  0  0  0  0  0  0  0
    0.9240    0.6150    0.7910 N   0  0  0  0  0  0  0  0  0  0  0  0
   -0.9810    0.3980   -0.6160 C   0  0  0  0  0  0  0  0  0  0  0  0
   -1.7370    0.7620   -1.5670 O   0  0  0  0  0  0  0  0  0  0  0  0
    1.8780   -0.6220   -1.3320 H   0  0  0  0  0  0  0  0  0  0  0  0
    2.5890    0.3330   -2.6430 H   0  0  0  0  0  0  0  0  0  0  0  0
    0.9200   -0.2810   -2.8390 H   0  0  0  0  0  0  0  0  0  0  0  0
    1.9080    2.0780   -1.2720 H   0  0  0  0  0  0  0  0  0  0  0  0
   -0.2960    1.4760   -3.2630 H   0  0  0  0  0  0  0  0  0  0  0  0
    0.8900    2.7920   -3.2000 H   0  0  0  0  0  0  0  0  0  0  0  0
   -0.5150    2.8090   -2.0900 H   0  0  0  0  0  0  0  0  0  0  0  0
   -0.1190    2.2370   -0.0020 H   0  0  0  0  0  0  0  0  0  0  0  0
    1.2980   -0.3590    0.6630 H   0  0  0  0  0  0  0  0  0  0  0  0
    1.4990   -3.5580   -4.7520 O   0  0  0  0  0  0  0  0  0  0  0  0
    0.6280   -3.4070   -3.6830 C   0  0  0  0  0  0  0  0  0  0  0  0
   -0.7370   -3.4700   -3.9310 C   0  0  0  0  0  0  0  0  0  0  0  0
   -1.6180   -3.3200   -2.8660 C   0  0  0  0  0  0  0  0  0  0  0  0
   -1.1560   -3.1130   -1.5910 C   0  0  0  0  0  0  0  0  0  0  0  0
   -2.0870   -2.9590   -0.4790 C   0  0  0  0  0  0  0  0  0  0  0  0
   -2.5160   -1.5550   -0.2110 C   0  0  2  0  0  0  0  0  0  0  0  0
   -1.3280   -0.7640    0.1000 N   0  0  0  0  0  0  0  0  0  0  0  0
   -3.4690   -1.4970    0.9230 C   0  0  0  0  0  0  0  0  0  0  0  0
   -4.5560   -2.1160    0.8470 O   0  0  0  0  0  0  0  0  0  0  0  0
    0.2010   -3.0470   -1.3290 C   0  0  0  0  0  0  0  0  0  0  0  0
    1.0790   -3.1980   -2.3960 C   0  0  0  0  0  0  0  0  0  0  0  0
   -3.2140   -0.7820    2.0790 O   0  0  0  0  0  0  0  0  0  0  0  0
    1.5850   -4.4620   -5.1990 H   0  0  0  0  0  0  0  0  0  0  0  0
   -1.1410   -3.6320   -4.9190 H   0  0  0  0  0  0  0  0  0  0  0  0
   -2.6900   -3.3610   -3.0020 H   0  0  0  0  0  0  0  0  0  0  0  0
   -1.7030   -3.4340    0.4300 H   0  0  0  0  0  0  0  0  0  0  0  0
   -3.0210   -3.5360   -0.7480 H   0  0  0  0  0  0  0  0  0  0  0  0
   -3.0520   -1.1030   -1.0780 H   0  0  0  0  0  0  0  0  0  0  0  0
   -0.7450   -1.1100    0.8890 H   0  0  0  0  0  0  0  0  0  0  0  0
    0.6140   -2.8860   -0.3440 H   0  0  0  0  0  0  0  0  0  0  0  0
    2.1500   -3.1570   -2.2600 H   0  0  0  0  0  0  0  0  0  0  0  0
  1 11  1  0  0  0  0
  2  1  1  0  0  0  0
  2  3  2  0  0  0  0
  4 13  1  0  0  0  0
  4  2  1  0  0  0  0
  5  4  1  0  0  0  0
  5 15  1  0  0  0  0
  6 16  1  6  0  0  0
  6  5  1  0  0  0  0
  6  7  1  0  0  0  0
  7 18  1  0  0  0  0
  8  9  2  0  0  0  0
  8  6  1  0  0  0  0
 10  1  1  0  0  0  0
 12  4  1  0  0  0  0
 14  5  1  0  0  0  0
 17  7  1  0  0  0  0
 19 20  1  0  0  0  0
 19 26  1  0  0  0  0
 20 29  1  0  0  0  0
 20 22  1  0  0  0  0
 21 32  1  0  0  0  0
 21 20  1  0  0  0  0
 22 33  1  1  0  0  0
 22 23  1  0  0  0  0
 23  8  1  0  0  0  0
 24 22  1  0  0  0  0
 24 42  1  0  0  0  0
 25 24  2  0  0  0  0
 27 19  1  0  0  0  0
 28 19  1  0  0  0  0
 30 21  1  0  0  0  0
 31 21  1  0  0  0  0
 34 23  1  0  0  0  0
 35 36  1  0  0  0  0
 36 46  1  0  0  0  0
 37 36  2  0  0  0  0
 37 38  1  0  0  0  0
 38 39  2  0  0  0  0
 39 45  1  0  0  0  0
 39 40  1  0  0  0  0
 40 41  1  0  0  0  0
 40 51  1  0  0  0  0
 41 53  1  6  0  0  0
 41 42  1  0  0  0  0
 41 43  1  0  0  0  0
 42 54  1  0  0  0  0
 43 47  1  0  0  0  0
 44 43  2  0  0  0  0
 45 55  1  0  0  0  0
 46 56  1  0  0  0  0
 46 45  2  0  0  0  0
 48 35  1  0  0  0  0
 49 37  1  0  0  0  0
 50 38  1  0  0  0  0
 52 40  1  0  0  0  0
M  END
$$$$
