QWC.pdb
 OpenBabel07022418343D

 54 55  0  0  1  0  0  0  0  0999 V2000
   -0.3000   -3.0840    6.8050 N   0  0  0  0  0  0  0  0  0  0  0  0
    0.3890   -2.1460    6.0070 C   0  0  0  0  0  0  0  0  0  0  0  0
    1.6310   -2.1600    5.9660 O   0  0  0  0  0  0  0  0  0  0  0  0
   -0.3760   -1.1610    5.2320 C   0  0  0  0  0  0  0  0  0  0  0  0
    0.4170   -0.2430    4.3790 C   0  0  0  0  0  0  0  0  0  0  0  0
    1.2480   -0.8700    3.3150 C   0  0  2  0  0  0  0  0  0  0  0  0
    1.9250    0.2320    2.6150 N   0  0  0  0  0  0  0  0  0  0  0  0
    0.3340   -1.5340    2.3190 C   0  0  0  0  0  0  0  0  0  0  0  0
   -0.3350   -2.5440    2.6210 O   0  0  0  0  0  0  0  0  0  0  0  0
   -1.0990   -3.6670    6.4490 H   0  0  0  0  0  0  0  0  0  0  0  0
   -0.0210   -3.2150    7.7810 H   0  0  0  0  0  0  0  0  0  0  0  0
   -0.9440   -0.5200    5.9650 H   0  0  0  0  0  0  0  0  0  0  0  0
   -1.1600   -1.7260    4.6850 H   0  0  0  0  0  0  0  0  0  0  0  0
    1.0670    0.3710    5.0560 H   0  0  0  0  0  0  0  0  0  0  0  0
   -0.3080    0.4600    3.8860 H   0  0  0  0  0  0  0  0  0  0  0  0
    1.9660   -1.5630    3.7580 H   0  0  0  0  0  0  0  0  0  0  0  0
    2.4070    0.8170    3.3500 H   0  0  0  0  0  0  0  0  0  0  0  0
    2.7110   -0.1800    2.0300 H   0  0  0  0  0  0  0  0  0  0  0  0
    0.1920   -1.0450    0.9990 N   0  0  0  0  0  0  0  0  0  0  0  0
   -0.6680   -1.6750    0.0690 C   0  0  1  0  0  0  0  0  0  0  0  0
   -1.8810   -0.9000   -0.3210 C   0  0  0  0  0  0  0  0  0  0  0  0
   -1.6520    0.3920   -0.9550 C   0  0  0  0  0  0  0  0  0  0  0  0
   -0.5490    1.0060   -1.4950 C   0  0  0  0  0  0  0  0  0  0  0  0
   -0.8880    2.2160   -1.9640 N   0  0  0  0  0  0  0  0  0  0  0  0
   -2.1890    2.4410   -1.7580 C   0  0  0  0  0  0  0  0  0  0  0  0
   -3.0620    3.4850   -2.0240 C   0  0  0  0  0  0  0  0  0  0  0  0
   -4.3810    3.4480   -1.6930 C   0  0  0  0  0  0  0  0  0  0  0  0
   -4.8970    2.3180   -1.0570 C   0  0  0  0  0  0  0  0  0  0  0  0
   -4.0290    1.2920   -0.7990 C   0  0  0  0  0  0  0  0  0  0  0  0
   -2.6840    1.3240   -1.1340 C   0  0  0  0  0  0  0  0  0  0  0  0
    0.0290   -2.1630   -1.1490 C   0  0  0  0  0  0  0  0  0  0  0  0
   -0.5450   -2.7150   -2.1110 O   0  0  0  0  0  0  0  0  0  0  0  0
    0.7280   -0.2040    0.6950 H   0  0  0  0  0  0  0  0  0  0  0  0
   -1.0790   -2.6150    0.5580 H   0  0  0  0  0  0  0  0  0  0  0  0
   -2.4360   -1.5400   -1.0680 H   0  0  0  0  0  0  0  0  0  0  0  0
   -2.6140   -0.8400    0.5380 H   0  0  0  0  0  0  0  0  0  0  0  0
    0.4290    0.5660   -1.5310 H   0  0  0  0  0  0  0  0  0  0  0  0
   -0.2400    2.8960   -2.4280 H   0  0  0  0  0  0  0  0  0  0  0  0
   -2.6610    4.3620   -2.5180 H   0  0  0  0  0  0  0  0  0  0  0  0
   -5.0740    4.2710   -1.9010 H   0  0  0  0  0  0  0  0  0  0  0  0
   -5.9350    2.2630   -0.7840 H   0  0  0  0  0  0  0  0  0  0  0  0
   -4.4490    0.4150   -0.3000 H   0  0  0  0  0  0  0  0  0  0  0  0
    1.4400   -1.9910   -1.2260 N   0  0  0  0  0  0  0  0  0  0  0  0
    2.2220   -2.4230   -2.3630 C   0  0  1  0  0  0  0  0  0  0  0  0
    2.9010   -1.2410   -3.0160 C   0  0  0  0  0  0  0  0  0  0  0  0
    3.8730   -1.8200   -4.4340 S   0  0  0  0  0  0  0  0  0  0  0  0
    3.2020   -3.4830   -2.0030 C   0  0  0  0  0  0  0  0  0  0  0  0
    3.9650   -3.9580   -2.8810 O   0  0  0  0  0  0  0  0  0  0  0  0
    3.3210   -3.9860   -0.7140 O   0  0  0  0  0  0  0  0  0  0  0  0
    1.9820   -1.5300   -0.4330 H   0  0  0  0  0  0  0  0  0  0  0  0
    1.5190   -2.8570   -3.1030 H   0  0  0  0  0  0  0  0  0  0  0  0
    3.5880   -0.7190   -2.2900 H   0  0  0  0  0  0  0  0  0  0  0  0
    2.1220   -0.5350   -3.3580 H   0  0  0  0  0  0  0  0  0  0  0  0
    3.0040   -1.7830   -5.5530 H   0  0  0  0  0  0  0  0  0  0  0  0
  1 11  1  0  0  0  0
  2  1  1  0  0  0  0
  3  2  2  0  0  0  0
  4 12  1  0  0  0  0
  4  2  1  0  0  0  0
  5 14  1  0  0  0  0
  5  4  1  0  0  0  0
  6 16  1  1  0  0  0
  6  5  1  0  0  0  0
  7  6  1  0  0  0  0
  7 17  1  0  0  0  0
  8  9  2  0  0  0  0
  8  6  1  0  0  0  0
 10  1  1  0  0  0  0
 13  4  1  0  0  0  0
 15  5  1  0  0  0  0
 18  7  1  0  0  0  0
 19  8  1  0  0  0  0
 20 34  1  1  0  0  0
 20 19  1  0  0  0  0
 21 20  1  0  0  0  0
 21 36  1  0  0  0  0
 22 21  1  0  0  0  0
 23 22  2  0  0  0  0
 24 25  1  0  0  0  0
 24 23  1  0  0  0  0
 25 30  1  0  0  0  0
 26 25  2  0  0  0  0
 26 27  1  0  0  0  0
 27 28  2  0  0  0  0
 28 29  1  0  0  0  0
 28 41  1  0  0  0  0
 29 42  1  0  0  0  0
 30 22  1  0  0  0  0
 30 29  2  0  0  0  0
 31 20  1  0  0  0  0
 32 31  2  0  0  0  0
 33 19  1  0  0  0  0
 35 21  1  0  0  0  0
 37 23  1  0  0  0  0
 38 24  1  0  0  0  0
 39 26  1  0  0  0  0
 40 27  1  0  0  0  0
 43 31  1  0  0  0  0
 43 50  1  0  0  0  0
 44 51  1  6  0  0  0
 44 47  1  0  0  0  0
 44 43  1  0  0  0  0
 45 44  1  0  0  0  0
 45 52  1  0  0  0  0
 46 45  1  0  0  0  0
 47 49  1  0  0  0  0
 48 47  2  0  0  0  0
 53 45  1  0  0  0  0
 54 46  1  0  0  0  0
M  END
$$$$
