QWE.pdb
 OpenBabel07022418343D

 59 60  0  0  1  0  0  0  0  0999 V2000
    6.0850   -0.9020    1.8890 N   0  0  0  0  0  0  0  0  0  0  0  0
    5.1820    0.0160    2.4650 C   0  0  0  0  0  0  0  0  0  0  0  0
    5.1740    0.1340    3.7070 O   0  0  0  0  0  0  0  0  0  0  0  0
    4.3000    0.7920    1.6190 C   0  0  0  0  0  0  0  0  0  0  0  0
    3.2360    1.6020    2.2370 C   0  0  0  0  0  0  0  0  0  0  0  0
    2.1810    0.9300    3.0240 C   0  0  2  0  0  0  0  0  0  0  0  0
    2.6180    0.1830    4.1780 N   0  0  0  0  0  0  0  0  0  0  0  0
    1.2340    0.1400    2.1890 C   0  0  0  0  0  0  0  0  0  0  0  0
    0.9370   -1.0210    2.5830 O   0  0  0  0  0  0  0  0  0  0  0  0
    6.9570   -1.1600    2.3730 H   0  0  0  0  0  0  0  0  0  0  0  0
    5.8680   -1.3200    0.9710 H   0  0  0  0  0  0  0  0  0  0  0  0
    3.8670    0.0630    0.8610 H   0  0  0  0  0  0  0  0  0  0  0  0
    4.8990    1.4800    0.9400 H   0  0  0  0  0  0  0  0  0  0  0  0
    2.7110    2.1610    1.4040 H   0  0  0  0  0  0  0  0  0  0  0  0
    3.6870    2.4550    2.8340 H   0  0  0  0  0  0  0  0  0  0  0  0
    1.5300    1.7590    3.4440 H   0  0  0  0  0  0  0  0  0  0  0  0
    1.7740   -0.3290    4.5370 H   0  0  0  0  0  0  0  0  0  0  0  0
    2.8410    0.8980    4.9320 H   0  0  0  0  0  0  0  0  0  0  0  0
    0.6550    0.5980    1.0010 N   0  0  0  0  0  0  0  0  0  0  0  0
   -0.2570   -0.1990    0.2220 C   0  0  1  0  0  0  0  0  0  0  0  0
   -1.6140    0.4250    0.0800 C   0  0  0  0  0  0  0  0  0  0  0  0
   -2.2460    0.6220    1.4060 C   0  0  0  0  0  0  0  0  0  0  0  0
   -2.3490    1.8330    2.0540 C   0  0  0  0  0  0  0  0  0  0  0  0
   -2.9860    1.6370    3.2390 N   0  0  0  0  0  0  0  0  0  0  0  0
   -3.3050    0.3360    3.3920 C   0  0  0  0  0  0  0  0  0  0  0  0
   -3.9430   -0.3660    4.3930 C   0  0  0  0  0  0  0  0  0  0  0  0
   -4.1450   -1.7260    4.2900 C   0  0  0  0  0  0  0  0  0  0  0  0
   -3.6760   -2.3360    3.1410 C   0  0  0  0  0  0  0  0  0  0  0  0
   -3.0370   -1.6460    2.1340 C   0  0  0  0  0  0  0  0  0  0  0  0
   -2.8390   -0.2930    2.2420 C   0  0  0  0  0  0  0  0  0  0  0  0
    0.3180   -0.5740   -1.1010 C   0  0  0  0  0  0  0  0  0  0  0  0
    1.4730   -0.2200   -1.4460 O   0  0  0  0  0  0  0  0  0  0  0  0
    0.9050    1.5740    0.6720 H   0  0  0  0  0  0  0  0  0  0  0  0
   -0.4010   -1.1820    0.7620 H   0  0  0  0  0  0  0  0  0  0  0  0
   -2.2700   -0.2510   -0.5330 H   0  0  0  0  0  0  0  0  0  0  0  0
   -1.5360    1.4060   -0.4440 H   0  0  0  0  0  0  0  0  0  0  0  0
   -1.9700    2.7750    1.6530 H   0  0  0  0  0  0  0  0  0  0  0  0
   -3.2040    2.3760    3.9420 H   0  0  0  0  0  0  0  0  0  0  0  0
   -4.3060    0.1210    5.2860 H   0  0  0  0  0  0  0  0  0  0  0  0
   -4.6440   -2.3080    5.0610 H   0  0  0  0  0  0  0  0  0  0  0  0
   -3.8260   -3.4030    3.0440 H   0  0  0  0  0  0  0  0  0  0  0  0
   -2.6700   -2.1230    1.2350 H   0  0  0  0  0  0  0  0  0  0  0  0
   -0.4150   -1.3500   -2.0310 N   0  0  0  0  0  0  0  0  0  0  0  0
    0.0590   -1.7590   -3.3290 C   0  0  1  0  0  0  0  0  0  0  0  0
    0.1940   -3.2090   -3.5140 C   0  0  0  0  0  0  0  0  0  0  0  0
   -0.9710   -4.0880   -3.3160 C   0  0  0  0  0  0  0  0  0  0  0  0
   -2.1520   -3.9630   -4.1210 C   0  0  0  0  0  0  0  0  0  0  0  0
   -2.3930   -3.2000   -5.0620 O   0  0  0  0  0  0  0  0  0  0  0  0
   -0.6930   -1.0890   -4.3820 C   0  0  0  0  0  0  0  0  0  0  0  0
   -1.7060   -0.3740   -4.0900 O   0  0  0  0  0  0  0  0  0  0  0  0
   -3.2260   -4.8400   -3.8080 O   0  0  0  0  0  0  0  0  0  0  0  0
   -0.3760   -1.1670   -5.7390 O   0  0  0  0  0  0  0  0  0  0  0  0
   -1.3740   -1.6500   -1.7590 H   0  0  0  0  0  0  0  0  0  0  0  0
    1.1410   -1.3530   -3.4550 H   0  0  0  0  0  0  0  0  0  0  0  0
    1.1260   -3.6210   -2.9980 H   0  0  0  0  0  0  0  0  0  0  0  0
    0.5010   -3.3460   -4.6080 H   0  0  0  0  0  0  0  0  0  0  0  0
   -0.6600   -5.1940   -3.3660 H   0  0  0  0  0  0  0  0  0  0  0  0
   -1.2110   -4.0200   -2.1900 H   0  0  0  0  0  0  0  0  0  0  0  0
   -3.9540   -5.0250   -4.4870 H   0  0  0  0  0  0  0  0  0  0  0  0
  1 10  1  0  0  0  0
  1  2  1  0  0  0  0
  2  3  2  0  0  0  0
  4  5  1  0  0  0  0
  4  2  1  0  0  0  0
  5 15  1  0  0  0  0
  5  6  1  0  0  0  0
  6 16  1  1  0  0  0
  6  7  1  0  0  0  0
  7 17  1  0  0  0  0
  7 18  1  0  0  0  0
  8  9  2  0  0  0  0
  8  6  1  0  0  0  0
 11  1  1  0  0  0  0
 12  4  1  0  0  0  0
 13  4  1  0  0  0  0
 14  5  1  0  0  0  0
 19  8  1  0  0  0  0
 20 34  1  1  0  0  0
 20 19  1  0  0  0  0
 21 20  1  0  0  0  0
 21 22  1  0  0  0  0
 22 23  2  0  0  0  0
 22 30  1  0  0  0  0
 23 24  1  0  0  0  0
 24 25  1  0  0  0  0
 24 38  1  0  0  0  0
 25 26  1  0  0  0  0
 26 39  1  0  0  0  0
 27 26  2  0  0  0  0
 27 40  1  0  0  0  0
 28 27  1  0  0  0  0
 29 30  1  0  0  0  0
 29 28  2  0  0  0  0
 30 25  2  0  0  0  0
 31 20  1  0  0  0  0
 32 31  2  0  0  0  0
 33 19  1  0  0  0  0
 35 21  1  0  0  0  0
 36 21  1  0  0  0  0
 37 23  1  0  0  0  0
 41 28  1  0  0  0  0
 42 29  1  0  0  0  0
 43 53  1  0  0  0  0
 43 31  1  0  0  0  0
 44 54  1  6  0  0  0
 44 43  1  0  0  0  0
 45 44  1  0  0  0  0
 45 46  1  0  0  0  0
 45 55  1  0  0  0  0
 46 58  1  0  0  0  0
 47 51  1  0  0  0  0
 47 46  1  0  0  0  0
 48 47  2  0  0  0  0
 49 50  1  0  0  0  0
 49 44  1  0  0  0  0
 52 49  2  0  0  0  0
 56 45  1  0  0  0  0
 57 46  1  0  0  0  0
 59 51  1  0  0  0  0
M  END
$$$$
