QWF.pdb
 OpenBabel07022418343D

 63 65  0  0  1  0  0  0  0  0999 V2000
    1.1470   -2.5010    5.6980 N   0  0  0  0  0  0  0  0  0  0  0  0
    2.0140   -1.8800    4.7770 C   0  0  0  0  0  0  0  0  0  0  0  0
    2.9270   -2.6040    4.2870 O   0  0  0  0  0  0  0  0  0  0  0  0
    1.9290   -0.4820    4.3570 C   0  0  0  0  0  0  0  0  0  0  0  0
    2.9160   -0.0490    3.3400 C   0  0  0  0  0  0  0  0  0  0  0  0
    2.8790   -0.7590    2.0290 C   0  0  2  0  0  0  0  0  0  0  0  0
    3.9370   -0.1580    1.2010 N   0  0  0  0  0  0  0  0  0  0  0  0
    1.5960   -0.6720    1.3310 C   0  0  0  0  0  0  0  0  0  0  0  0
    0.5560   -1.1210    1.8720 O   0  0  0  0  0  0  0  0  0  0  0  0
    0.2000   -2.0950    5.8400 H   0  0  0  0  0  0  0  0  0  0  0  0
    1.4050   -3.3470    6.2470 H   0  0  0  0  0  0  0  0  0  0  0  0
    0.8840   -0.1900    4.0570 H   0  0  0  0  0  0  0  0  0  0  0  0
    2.1210    0.1450    5.2760 H   0  0  0  0  0  0  0  0  0  0  0  0
    2.8270    1.0490    3.2160 H   0  0  0  0  0  0  0  0  0  0  0  0
    3.9480   -0.2050    3.7630 H   0  0  0  0  0  0  0  0  0  0  0  0
    3.1810   -1.8200    2.1220 H   0  0  0  0  0  0  0  0  0  0  0  0
    4.7910   -0.7170    1.1760 H   0  0  0  0  0  0  0  0  0  0  0  0
    4.0620    0.8490    1.4220 H   0  0  0  0  0  0  0  0  0  0  0  0
    1.4580   -0.0920    0.0420 N   0  0  0  0  0  0  0  0  0  0  0  0
    0.2070   -0.0030   -0.6460 C   0  0  1  0  0  0  0  0  0  0  0  0
   -0.2220    1.4540   -0.8530 C   0  0  0  0  0  0  0  0  0  0  0  0
   -0.3680    2.1340    0.4630 C   0  0  0  0  0  0  0  0  0  0  0  0
    0.5080    3.0390    1.0440 C   0  0  0  0  0  0  0  0  0  0  0  0
    0.0160    3.4200    2.2300 N   0  0  0  0  0  0  0  0  0  0  0  0
   -1.1600    2.8130    2.4850 C   0  0  0  0  0  0  0  0  0  0  0  0
   -2.0470    2.8630    3.5400 C   0  0  0  0  0  0  0  0  0  0  0  0
   -3.2040    2.1140    3.5320 C   0  0  0  0  0  0  0  0  0  0  0  0
   -3.4540    1.3110    2.4380 C   0  0  0  0  0  0  0  0  0  0  0  0
   -2.5620    1.2660    1.3870 C   0  0  0  0  0  0  0  0  0  0  0  0
   -1.3980    2.0070    1.3730 C   0  0  0  0  0  0  0  0  0  0  0  0
    0.1720   -0.7570   -1.9080 C   0  0  0  0  0  0  0  0  0  0  0  0
    1.1690   -1.4230   -2.3440 O   0  0  0  0  0  0  0  0  0  0  0  0
    2.3270    0.2830   -0.4100 H   0  0  0  0  0  0  0  0  0  0  0  0
   -0.5750   -0.4510    0.0160 H   0  0  0  0  0  0  0  0  0  0  0  0
    0.6230    1.9350   -1.3980 H   0  0  0  0  0  0  0  0  0  0  0  0
   -1.1680    1.5110   -1.3910 H   0  0  0  0  0  0  0  0  0  0  0  0
    1.4290    3.3440    0.5550 H   0  0  0  0  0  0  0  0  0  0  0  0
    0.4780    4.0960    2.8770 H   0  0  0  0  0  0  0  0  0  0  0  0
   -1.8680    3.4860    4.4040 H   0  0  0  0  0  0  0  0  0  0  0  0
   -3.9170    2.1470    4.3680 H   0  0  0  0  0  0  0  0  0  0  0  0
   -4.3500    0.7070    2.3910 H   0  0  0  0  0  0  0  0  0  0  0  0
   -2.7300    0.6400    0.5050 H   0  0  0  0  0  0  0  0  0  0  0  0
   -0.9870   -0.7840   -2.7200 N   0  0  0  0  0  0  0  0  0  0  0  0
   -1.0690   -1.5090   -3.9640 C   0  0  1  0  0  0  0  0  0  0  0  0
   -2.1390   -2.5810   -3.7710 C   0  0  0  0  0  0  0  0  0  0  0  0
   -1.7330   -3.4750   -2.6560 C   0  0  0  0  0  0  0  0  0  0  0  0
   -0.9690   -4.6210   -2.8560 C   0  0  0  0  0  0  0  0  0  0  0  0
   -0.6030   -5.4370   -1.8090 C   0  0  0  0  0  0  0  0  0  0  0  0
   -0.9980   -5.1250   -0.5070 C   0  0  0  0  0  0  0  0  0  0  0  0
   -1.7510   -4.0020   -0.2870 C   0  0  0  0  0  0  0  0  0  0  0  0
   -2.1040   -3.2020   -1.3550 C   0  0  0  0  0  0  0  0  0  0  0  0
   -1.3890   -0.6300   -5.1090 C   0  0  0  0  0  0  0  0  0  0  0  0
   -1.5090   -1.0480   -6.2840 O   0  0  0  0  0  0  0  0  0  0  0  0
   -1.5750    0.7440   -4.9100 O   0  0  0  0  0  0  0  0  0  0  0  0
   -1.8220   -0.2580   -2.4070 H   0  0  0  0  0  0  0  0  0  0  0  0
   -0.1080   -2.0280   -4.1890 H   0  0  0  0  0  0  0  0  0  0  0  0
   -2.1600   -3.2180   -4.6860 H   0  0  0  0  0  0  0  0  0  0  0  0
   -3.0940   -2.0890   -3.5570 H   0  0  0  0  0  0  0  0  0  0  0  0
   -0.6490   -4.8860   -3.8530 H   0  0  0  0  0  0  0  0  0  0  0  0
   -0.0110   -6.3330   -1.9250 H   0  0  0  0  0  0  0  0  0  0  0  0
   -0.7240   -5.7510    0.3380 H   0  0  0  0  0  0  0  0  0  0  0  0
   -2.0660   -3.7470    0.7180 H   0  0  0  0  0  0  0  0  0  0  0  0
   -2.6990   -2.3190   -1.1630 H   0  0  0  0  0  0  0  0  0  0  0  0
  1 10  1  0  0  0  0
  1 11  1  0  0  0  0
  2  1  1  0  0  0  0
  3  2  2  0  0  0  0
  4  2  1  0  0  0  0
  4 13  1  0  0  0  0
  5 15  1  0  0  0  0
  5  4  1  0  0  0  0
  6 16  1  1  0  0  0
  6  5  1  0  0  0  0
  7 18  1  0  0  0  0
  7  6  1  0  0  0  0
  8  9  2  0  0  0  0
  8  6  1  0  0  0  0
 12  4  1  0  0  0  0
 14  5  1  0  0  0  0
 17  7  1  0  0  0  0
 19  8  1  0  0  0  0
 20 34  1  1  0  0  0
 20 19  1  0  0  0  0
 21 20  1  0  0  0  0
 21 22  1  0  0  0  0
 22 23  2  0  0  0  0
 22 30  1  0  0  0  0
 23 24  1  0  0  0  0
 24 25  1  0  0  0  0
 24 38  1  0  0  0  0
 25 26  1  0  0  0  0
 26 39  1  0  0  0  0
 27 26  2  0  0  0  0
 27 40  1  0  0  0  0
 28 27  1  0  0  0  0
 29 28  2  0  0  0  0
 30 29  1  0  0  0  0
 30 25  2  0  0  0  0
 31 20  1  0  0  0  0
 32 31  2  0  0  0  0
 33 19  1  0  0  0  0
 35 21  1  0  0  0  0
 36 21  1  0  0  0  0
 37 23  1  0  0  0  0
 41 28  1  0  0  0  0
 42 29  1  0  0  0  0
 43 55  1  0  0  0  0
 43 31  1  0  0  0  0
 44 56  1  6  0  0  0
 44 45  1  0  0  0  0
 44 43  1  0  0  0  0
 45 58  1  0  0  0  0
 45 46  1  0  0  0  0
 46 51  1  0  0  0  0
 47 46  2  0  0  0  0
 47 48  1  0  0  0  0
 48 49  2  0  0  0  0
 49 50  1  0  0  0  0
 49 61  1  0  0  0  0
 50 62  1  0  0  0  0
 51 63  1  0  0  0  0
 51 50  2  0  0  0  0
 52 54  1  0  0  0  0
 52 44  1  0  0  0  0
 53 52  2  0  0  0  0
 57 45  1  0  0  0  0
 59 47  1  0  0  0  0
 60 48  1  0  0  0  0
M  END
$$$$
