QWG.pdb
 OpenBabel07022418343D

 50 51  0  0  1  0  0  0  0  0999 V2000
    4.6370   -6.3400    0.1510 N   0  0  0  0  0  0  0  0  0  0  0  0
    3.6430   -5.3500    0.3270 C   0  0  0  0  0  0  0  0  0  0  0  0
    2.4720   -5.6570   -0.0530 O   0  0  0  0  0  0  0  0  0  0  0  0
    3.8790   -4.0260    0.9070 C   0  0  0  0  0  0  0  0  0  0  0  0
    2.6310   -3.1860    0.9850 C   0  0  0  0  0  0  0  0  0  0  0  0
    2.9460   -1.8250    1.5950 C   0  0  2  0  0  0  0  0  0  0  0  0
    3.4760   -2.1070    2.9330 N   0  0  0  0  0  0  0  0  0  0  0  0
    1.7360   -0.9890    1.6880 C   0  0  0  0  0  0  0  0  0  0  0  0
    1.2120   -0.5710    2.7330 O   0  0  0  0  0  0  0  0  0  0  0  0
    5.0420   -6.8680    0.9740 H   0  0  0  0  0  0  0  0  0  0  0  0
    5.0090   -6.5870   -0.7950 H   0  0  0  0  0  0  0  0  0  0  0  0
    4.6620   -3.4910    0.3100 H   0  0  0  0  0  0  0  0  0  0  0  0
    4.3040   -4.1560    1.9230 H   0  0  0  0  0  0  0  0  0  0  0  0
    1.9130   -3.6760    1.6820 H   0  0  0  0  0  0  0  0  0  0  0  0
    2.1270   -3.0600    0.0290 H   0  0  0  0  0  0  0  0  0  0  0  0
    3.7060   -1.3200    0.9560 H   0  0  0  0  0  0  0  0  0  0  0  0
    4.4800   -2.3550    2.8820 H   0  0  0  0  0  0  0  0  0  0  0  0
    2.9270   -2.9210    3.2980 H   0  0  0  0  0  0  0  0  0  0  0  0
    1.1060   -0.6260    0.4450 N   0  0  0  0  0  0  0  0  0  0  0  0
   -0.0730    0.1800    0.4020 C   0  0  1  0  0  0  0  0  0  0  0  0
    0.1670    1.5390   -0.2240 C   0  0  0  0  0  0  0  0  0  0  0  0
   -1.0960    2.3390   -0.2480 C   0  0  0  0  0  0  0  0  0  0  0  0
   -1.9060    2.5900   -1.3320 C   0  0  0  0  0  0  0  0  0  0  0  0
   -2.9330    3.3440   -0.9230 N   0  0  0  0  0  0  0  0  0  0  0  0
   -2.8370    3.6040    0.3940 C   0  0  0  0  0  0  0  0  0  0  0  0
   -3.6460    4.3300    1.2660 C   0  0  0  0  0  0  0  0  0  0  0  0
   -3.3060    4.4360    2.5930 C   0  0  0  0  0  0  0  0  0  0  0  0
   -2.1600    3.8090    3.0150 C   0  0  0  0  0  0  0  0  0  0  0  0
   -1.3560    3.0900    2.1600 C   0  0  0  0  0  0  0  0  0  0  0  0
   -1.6880    2.9760    0.8230 C   0  0  0  0  0  0  0  0  0  0  0  0
   -1.2210   -0.5160   -0.2160 C   0  0  0  0  0  0  0  0  0  0  0  0
   -2.3490   -0.0170   -0.3600 O   0  0  0  0  0  0  0  0  0  0  0  0
    1.5060   -0.9530   -0.4770 H   0  0  0  0  0  0  0  0  0  0  0  0
   -0.3620    0.4030    1.4630 H   0  0  0  0  0  0  0  0  0  0  0  0
    0.8930    2.1350    0.3660 H   0  0  0  0  0  0  0  0  0  0  0  0
    0.5910    1.4670   -1.2470 H   0  0  0  0  0  0  0  0  0  0  0  0
   -1.7350    2.2310   -2.3550 H   0  0  0  0  0  0  0  0  0  0  0  0
   -3.7120    3.6900   -1.5380 H   0  0  0  0  0  0  0  0  0  0  0  0
   -4.5310    4.8030    0.8950 H   0  0  0  0  0  0  0  0  0  0  0  0
   -3.9390    5.0080    3.2930 H   0  0  0  0  0  0  0  0  0  0  0  0
   -1.9160    3.9130    4.0800 H   0  0  0  0  0  0  0  0  0  0  0  0
   -0.4420    2.5950    2.5160 H   0  0  0  0  0  0  0  0  0  0  0  0
   -1.0190   -1.8490   -0.6780 N   0  0  0  0  0  0  0  0  0  0  0  0
   -2.1080   -2.5820   -1.2920 C   0  0  0  0  0  0  0  0  0  0  0  0
   -3.2050   -2.6980   -0.3110 C   0  0  0  0  0  0  0  0  0  0  0  0
   -4.2570   -3.2880   -0.6310 O   0  0  0  0  0  0  0  0  0  0  0  0
   -3.0920   -2.1680    0.9530 O   0  0  0  0  0  0  0  0  0  0  0  0
   -0.0690   -2.3180   -0.5760 H   0  0  0  0  0  0  0  0  0  0  0  0
   -1.7600   -3.5960   -1.5710 H   0  0  0  0  0  0  0  0  0  0  0  0
   -2.4290   -2.0610   -2.2220 H   0  0  0  0  0  0  0  0  0  0  0  0
  1  2  1  0  0  0  0
  1 10  1  0  0  0  0
  2  4  1  0  0  0  0
  3  2  2  0  0  0  0
  4  5  1  0  0  0  0
  4 13  1  0  0  0  0
  5  6  1  0  0  0  0
  5 14  1  0  0  0  0
  6 16  1  6  0  0  0
  6  8  1  0  0  0  0
  6  7  1  0  0  0  0
  7 18  1  0  0  0  0
  8  9  2  0  0  0  0
 11  1  1  0  0  0  0
 12  4  1  0  0  0  0
 15  5  1  0  0  0  0
 17  7  1  0  0  0  0
 19  8  1  0  0  0  0
 20 19  1  0  0  0  0
 20 34  1  1  0  0  0
 21 35  1  0  0  0  0
 21 20  1  0  0  0  0
 22 21  1  0  0  0  0
 22 30  1  0  0  0  0
 23 24  1  0  0  0  0
 23 22  2  0  0  0  0
 24 25  1  0  0  0  0
 25 30  2  0  0  0  0
 25 26  1  0  0  0  0
 26 27  2  0  0  0  0
 27 28  1  0  0  0  0
 27 40  1  0  0  0  0
 28 41  1  0  0  0  0
 29 42  1  0  0  0  0
 29 28  2  0  0  0  0
 30 29  1  0  0  0  0
 31 20  1  0  0  0  0
 32 31  2  0  0  0  0
 33 19  1  0  0  0  0
 36 21  1  0  0  0  0
 37 23  1  0  0  0  0
 38 24  1  0  0  0  0
 39 26  1  0  0  0  0
 43 48  1  0  0  0  0
 43 31  1  0  0  0  0
 44 43  1  0  0  0  0
 44 45  1  0  0  0  0
 45 47  1  0  0  0  0
 46 45  2  0  0  0  0
 49 44  1  0  0  0  0
 50 44  1  0  0  0  0
M  END
$$$$
