QWH.pdb
 OpenBabel07022418343D

 60 62  0  0  1  0  0  0  0  0999 V2000
    5.3370   -0.4670    6.3560 N   0  0  0  0  0  0  0  0  0  0  0  0
    4.2400   -0.5940    5.4770 C   0  0  0  0  0  0  0  0  0  0  0  0
    3.1210   -0.9220    5.9160 O   0  0  0  0  0  0  0  0  0  0  0  0
    4.4290   -0.3340    4.0400 C   0  0  0  0  0  0  0  0  0  0  0  0
    3.1390   -0.5530    3.3230 C   0  0  0  0  0  0  0  0  0  0  0  0
    3.2490   -0.3060    1.8360 C   0  0  2  0  0  0  0  0  0  0  0  0
    3.6520    1.0430    1.5580 N   0  0  0  0  0  0  0  0  0  0  0  0
    2.0190   -0.6890    1.1150 C   0  0  0  0  0  0  0  0  0  0  0  0
    1.5040   -1.8350    1.2470 O   0  0  0  0  0  0  0  0  0  0  0  0
    6.1530    0.1730    6.1370 H   0  0  0  0  0  0  0  0  0  0  0  0
    5.4220   -0.9830    7.2640 H   0  0  0  0  0  0  0  0  0  0  0  0
    5.2200   -0.9730    3.5850 H   0  0  0  0  0  0  0  0  0  0  0  0
    4.7590    0.7280    3.9180 H   0  0  0  0  0  0  0  0  0  0  0  0
    2.3990    0.1870    3.7340 H   0  0  0  0  0  0  0  0  0  0  0  0
    2.7060   -1.5530    3.5170 H   0  0  0  0  0  0  0  0  0  0  0  0
    4.0820   -0.9710    1.4820 H   0  0  0  0  0  0  0  0  0  0  0  0
    4.2780    1.1190    0.7270 H   0  0  0  0  0  0  0  0  0  0  0  0
    2.9050    1.7450    1.6060 H   0  0  0  0  0  0  0  0  0  0  0  0
    1.3210    0.1890    0.2230 N   0  0  0  0  0  0  0  0  0  0  0  0
    0.1150   -0.2040   -0.4780 C   0  0  1  0  0  0  0  0  0  0  0  0
   -1.0780    0.6170   -0.0400 C   0  0  0  0  0  0  0  0  0  0  0  0
   -1.3180    0.4400    1.4150 C   0  0  0  0  0  0  0  0  0  0  0  0
   -0.9910    1.3690    2.3790 C   0  0  0  0  0  0  0  0  0  0  0  0
   -1.3540    0.8730    3.5900 N   0  0  0  0  0  0  0  0  0  0  0  0
   -1.9060   -0.3470    3.4520 C   0  0  0  0  0  0  0  0  0  0  0  0
   -2.4270   -1.2550    4.3570 C   0  0  0  0  0  0  0  0  0  0  0  0
   -2.9400   -2.4600    3.9200 C   0  0  0  0  0  0  0  0  0  0  0  0
   -2.9170   -2.7300    2.5630 C   0  0  0  0  0  0  0  0  0  0  0  0
   -2.3930   -1.8150    1.6590 C   0  0  0  0  0  0  0  0  0  0  0  0
   -1.8820   -0.6160    2.0890 C   0  0  0  0  0  0  0  0  0  0  0  0
    0.2880   -0.2180   -1.9370 C   0  0  0  0  0  0  0  0  0  0  0  0
    1.3850    0.0870   -2.4830 O   0  0  0  0  0  0  0  0  0  0  0  0
    1.6850    1.1380    0.0680 H   0  0  0  0  0  0  0  0  0  0  0  0
   -0.0960   -1.2560   -0.1660 H   0  0  0  0  0  0  0  0  0  0  0  0
   -1.9640    0.3260   -0.6370 H   0  0  0  0  0  0  0  0  0  0  0  0
   -0.8690    1.6650   -0.2650 H   0  0  0  0  0  0  0  0  0  0  0  0
   -0.5280    2.3400    2.2690 H   0  0  0  0  0  0  0  0  0  0  0  0
   -1.2330    1.3500    4.5100 H   0  0  0  0  0  0  0  0  0  0  0  0
   -2.4530   -1.0620    5.4200 H   0  0  0  0  0  0  0  0  0  0  0  0
   -3.3570   -3.1950    4.6120 H   0  0  0  0  0  0  0  0  0  0  0  0
   -3.3070   -3.6660    2.1470 H   0  0  0  0  0  0  0  0  0  0  0  0
   -2.3680   -2.0130    0.5900 H   0  0  0  0  0  0  0  0  0  0  0  0
   -0.7980   -0.5830   -2.7780 N   0  0  0  0  0  0  0  0  0  0  0  0
   -0.7350   -0.6280   -4.2130 C   0  0  1  0  0  0  0  0  0  0  0  0
   -1.0040   -2.0730   -4.6250 C   0  0  0  0  0  0  0  0  0  0  0  0
   -2.3230   -2.5340   -4.1750 C   0  0  0  0  0  0  0  0  0  0  0  0
   -2.6600   -3.1510   -2.9790 C   0  0  0  0  0  0  0  0  0  0  0  0
   -3.9620   -3.4170   -2.9420 N   0  0  0  0  0  0  0  0  0  0  0  0
   -4.4720   -2.9760   -4.1060 C   0  0  0  0  0  0  0  0  0  0  0  0
   -3.4760   -2.4380   -4.8590 N   0  0  0  0  0  0  0  0  0  0  0  0
   -1.7800    0.2540   -4.7880 C   0  0  0  0  0  0  0  0  0  0  0  0
   -2.5360    0.8890   -4.0080 O   0  0  0  0  0  0  0  0  0  0  0  0
   -1.9300    0.3850   -6.1840 O   0  0  0  0  0  0  0  0  0  0  0  0
   -1.7020   -0.8330   -2.2910 H   0  0  0  0  0  0  0  0  0  0  0  0
    0.2420   -0.3590   -4.6100 H   0  0  0  0  0  0  0  0  0  0  0  0
   -0.8620   -2.2080   -5.7170 H   0  0  0  0  0  0  0  0  0  0  0  0
   -0.2390   -2.6930   -4.1230 H   0  0  0  0  0  0  0  0  0  0  0  0
   -1.9680   -3.3910   -2.1730 H   0  0  0  0  0  0  0  0  0  0  0  0
   -4.4960   -3.8730   -2.1760 H   0  0  0  0  0  0  0  0  0  0  0  0
   -5.5080   -3.0420   -4.3920 H   0  0  0  0  0  0  0  0  0  0  0  0
  1 11  1  0  0  0  0
  2  3  2  0  0  0  0
  2  1  1  0  0  0  0
  4  2  1  0  0  0  0
  5 15  1  0  0  0  0
  5 14  1  0  0  0  0
  5  4  1  0  0  0  0
  6 16  1  6  0  0  0
  6  5  1  0  0  0  0
  7 18  1  0  0  0  0
  7  6  1  0  0  0  0
  8  9  2  0  0  0  0
  8  6  1  0  0  0  0
 10  1  1  0  0  0  0
 12  4  1  0  0  0  0
 13  4  1  0  0  0  0
 17  7  1  0  0  0  0
 19  8  1  0  0  0  0
 20 34  1  1  0  0  0
 20 21  1  0  0  0  0
 20 19  1  0  0  0  0
 21 22  1  0  0  0  0
 22 30  1  0  0  0  0
 22 23  2  0  0  0  0
 23 24  1  0  0  0  0
 24 38  1  0  0  0  0
 25 24  1  0  0  0  0
 25 26  1  0  0  0  0
 26 39  1  0  0  0  0
 27 26  2  0  0  0  0
 27 40  1  0  0  0  0
 28 27  1  0  0  0  0
 29 30  1  0  0  0  0
 29 28  2  0  0  0  0
 30 25  2  0  0  0  0
 31 20  1  0  0  0  0
 32 31  2  0  0  0  0
 33 19  1  0  0  0  0
 35 21  1  0  0  0  0
 36 21  1  0  0  0  0
 37 23  1  0  0  0  0
 41 28  1  0  0  0  0
 42 29  1  0  0  0  0
 43 54  1  0  0  0  0
 43 31  1  0  0  0  0
 44 55  1  6  0  0  0
 44 43  1  0  0  0  0
 45 44  1  0  0  0  0
 45 46  1  0  0  0  0
 45 57  1  0  0  0  0
 46 47  2  0  0  0  0
 47 48  1  0  0  0  0
 47 58  1  0  0  0  0
 48 59  1  0  0  0  0
 49 48  1  0  0  0  0
 50 46  1  0  0  0  0
 50 49  2  0  0  0  0
 51 44  1  0  0  0  0
 51 52  1  0  0  0  0
 53 51  2  0  0  0  0
 56 45  1  0  0  0  0
 60 49  1  0  0  0  0
M  END
$$$$
