QWL.pdb
 OpenBabel07022418343D

 62 63  0  0  1  0  0  0  0  0999 V2000
    4.6370   -2.0200    5.4980 N   0  0  0  0  0  0  0  0  0  0  0  0
    4.9500   -1.4030    4.2670 C   0  0  0  0  0  0  0  0  0  0  0  0
    5.8280   -0.5110    4.1620 O   0  0  0  0  0  0  0  0  0  0  0  0
    4.1660   -1.8740    3.0630 C   0  0  0  0  0  0  0  0  0  0  0  0
    4.6100   -1.1390    1.8380 C   0  0  0  0  0  0  0  0  0  0  0  0
    3.8830   -1.5750    0.5930 C   0  0  2  0  0  0  0  0  0  0  0  0
    4.3910   -0.8120   -0.5490 N   0  0  0  0  0  0  0  0  0  0  0  0
    2.4560   -1.1620    0.7200 C   0  0  0  0  0  0  0  0  0  0  0  0
    1.7450   -1.7460    1.5530 O   0  0  0  0  0  0  0  0  0  0  0  0
    4.9790   -2.9740    5.6920 H   0  0  0  0  0  0  0  0  0  0  0  0
    4.0720   -1.5220    6.1980 H   0  0  0  0  0  0  0  0  0  0  0  0
    3.1160   -1.7080    3.3470 H   0  0  0  0  0  0  0  0  0  0  0  0
    4.2840   -2.9790    2.9590 H   0  0  0  0  0  0  0  0  0  0  0  0
    5.7120   -1.1760    1.7090 H   0  0  0  0  0  0  0  0  0  0  0  0
    4.3670   -0.0590    2.0130 H   0  0  0  0  0  0  0  0  0  0  0  0
    4.0210   -2.6550    0.4640 H   0  0  0  0  0  0  0  0  0  0  0  0
    4.5930    0.1480   -0.1930 H   0  0  0  0  0  0  0  0  0  0  0  0
    5.2460   -1.3150   -0.8740 H   0  0  0  0  0  0  0  0  0  0  0  0
    1.8620   -0.1550   -0.0410 N   0  0  0  0  0  0  0  0  0  0  0  0
    0.4570    0.1710    0.1630 C   0  0  1  0  0  0  0  0  0  0  0  0
    0.2340    1.5900    0.4470 C   0  0  0  0  0  0  0  0  0  0  0  0
   -1.1780    1.9080    0.6680 C   0  0  0  0  0  0  0  0  0  0  0  0
   -2.0670    2.6120   -0.1200 C   0  0  0  0  0  0  0  0  0  0  0  0
   -3.2610    2.7020    0.4920 N   0  0  0  0  0  0  0  0  0  0  0  0
   -3.1670    2.0670    1.6690 C   0  0  0  0  0  0  0  0  0  0  0  0
   -4.1150    1.8900    2.6490 C   0  0  0  0  0  0  0  0  0  0  0  0
   -3.7630    1.1930    3.7870 C   0  0  0  0  0  0  0  0  0  0  0  0
   -2.4840    0.6760    3.9540 C   0  0  0  0  0  0  0  0  0  0  0  0
   -1.5340    0.8570    2.9670 C   0  0  0  0  0  0  0  0  0  0  0  0
   -1.8900    1.5640    1.8090 C   0  0  0  0  0  0  0  0  0  0  0  0
   -0.2230   -0.2350   -1.0800 C   0  0  0  0  0  0  0  0  0  0  0  0
    0.5090   -0.5400   -2.0960 O   0  0  0  0  0  0  0  0  0  0  0  0
    2.3880    0.3720   -0.7490 H   0  0  0  0  0  0  0  0  0  0  0  0
    0.0320   -0.4640    0.9660 H   0  0  0  0  0  0  0  0  0  0  0  0
    0.7510    1.9750    1.3610 H   0  0  0  0  0  0  0  0  0  0  0  0
    0.6730    2.1840   -0.3980 H   0  0  0  0  0  0  0  0  0  0  0  0
   -1.7740    3.0100   -1.0900 H   0  0  0  0  0  0  0  0  0  0  0  0
   -4.0780    3.1960    0.0660 H   0  0  0  0  0  0  0  0  0  0  0  0
   -5.1320    2.2790    2.5580 H   0  0  0  0  0  0  0  0  0  0  0  0
   -4.5010    1.0490    4.5590 H   0  0  0  0  0  0  0  0  0  0  0  0
   -2.2040    0.1280    4.8470 H   0  0  0  0  0  0  0  0  0  0  0  0
   -0.5290    0.4760    3.0600 H   0  0  0  0  0  0  0  0  0  0  0  0
   -3.2500   -4.2270   -1.3040 C   0  0  0  0  0  0  0  0  0  0  0  0
   -2.2760   -3.0880   -1.6130 C   0  0  0  0  0  0  0  0  0  0  0  0
   -1.2950   -3.6760   -2.6340 C   0  0  0  0  0  0  0  0  0  0  0  0
   -3.0430   -1.9760   -2.2570 C   0  0  0  0  0  0  0  0  0  0  0  0
   -2.1430   -0.7790   -2.5900 C   0  0  2  0  0  0  0  0  0  0  0  0
   -1.6060   -0.3460   -1.3130 N   0  0  0  0  0  0  0  0  0  0  0  0
   -3.0100    0.1970   -3.2630 C   0  0  0  0  0  0  0  0  0  0  0  0
   -3.2530    1.2990   -2.7510 O   0  0  0  0  0  0  0  0  0  0  0  0
   -3.5650   -0.1160   -4.4900 O   0  0  0  0  0  0  0  0  0  0  0  0
   -2.7660   -4.9200   -0.5590 H   0  0  0  0  0  0  0  0  0  0  0  0
   -4.1750   -3.8270   -0.8670 H   0  0  0  0  0  0  0  0  0  0  0  0
   -3.5150   -4.7710   -2.2280 H   0  0  0  0  0  0  0  0  0  0  0  0
   -1.6910   -2.7760   -0.7420 H   0  0  0  0  0  0  0  0  0  0  0  0
   -1.8270   -3.8890   -3.5950 H   0  0  0  0  0  0  0  0  0  0  0  0
   -0.8560   -4.6120   -2.2750 H   0  0  0  0  0  0  0  0  0  0  0  0
   -0.5090   -2.9530   -2.8230 H   0  0  0  0  0  0  0  0  0  0  0  0
   -3.7910   -1.5690   -1.5250 H   0  0  0  0  0  0  0  0  0  0  0  0
   -3.6150   -2.2990   -3.1300 H   0  0  0  0  0  0  0  0  0  0  0  0
   -1.3010   -1.0640   -3.2600 H   0  0  0  0  0  0  0  0  0  0  0  0
   -2.2610   -0.1340   -0.5570 H   0  0  0  0  0  0  0  0  0  0  0  0
  1 10  1  0  0  0  0
  1 11  1  0  0  0  0
  2  1  1  0  0  0  0
  3  2  2  0  0  0  0
  4 12  1  0  0  0  0
  4  2  1  0  0  0  0
  5 15  1  0  0  0  0
  5  4  1  0  0  0  0
  6 16  1  6  0  0  0
  6  8  1  0  0  0  0
  6  5  1  0  0  0  0
  7 17  1  0  0  0  0
  7  6  1  0  0  0  0
  8  9  2  0  0  0  0
 13  4  1  0  0  0  0
 14  5  1  0  0  0  0
 18  7  1  0  0  0  0
 19 20  1  0  0  0  0
 19  8  1  0  0  0  0
 20 21  1  0  0  0  0
 20 34  1  1  0  0  0
 21 22  1  0  0  0  0
 21 35  1  0  0  0  0
 22 30  1  0  0  0  0
 23 24  1  0  0  0  0
 23 22  2  0  0  0  0
 24 25  1  0  0  0  0
 25 30  2  0  0  0  0
 25 26  1  0  0  0  0
 26 27  2  0  0  0  0
 27 28  1  0  0  0  0
 27 40  1  0  0  0  0
 28 41  1  0  0  0  0
 29 42  1  0  0  0  0
 29 28  2  0  0  0  0
 30 29  1  0  0  0  0
 31 20  1  0  0  0  0
 32 31  2  0  0  0  0
 33 19  1  0  0  0  0
 36 21  1  0  0  0  0
 37 23  1  0  0  0  0
 38 24  1  0  0  0  0
 39 26  1  0  0  0  0
 43 53  1  0  0  0  0
 43 52  1  0  0  0  0
 44 43  1  0  0  0  0
 44 55  1  0  0  0  0
 45 57  1  0  0  0  0
 45 44  1  0  0  0  0
 46 44  1  0  0  0  0
 46 59  1  0  0  0  0
 47 61  1  6  0  0  0
 47 46  1  0  0  0  0
 47 48  1  0  0  0  0
 48 31  1  0  0  0  0
 48 62  1  0  0  0  0
 49 50  1  0  0  0  0
 49 47  1  0  0  0  0
 51 49  2  0  0  0  0
 54 43  1  0  0  0  0
 56 45  1  0  0  0  0
 58 45  1  0  0  0  0
 60 46  1  0  0  0  0
M  END
$$$$
