QWM.pdb
 OpenBabel07022418343D

 60 61  0  0  1  0  0  0  0  0999 V2000
    4.0180    1.6980    6.6650 N   0  0  0  0  0  0  0  0  0  0  0  0
    4.2510    1.6650    5.2670 C   0  0  0  0  0  0  0  0  0  0  0  0
    4.7590    2.6860    4.7300 O   0  0  0  0  0  0  0  0  0  0  0  0
    3.8960    0.4390    4.4590 C   0  0  0  0  0  0  0  0  0  0  0  0
    4.2430    0.7360    3.0290 C   0  0  0  0  0  0  0  0  0  0  0  0
    3.9560   -0.4240    2.1390 C   0  0  2  0  0  0  0  0  0  0  0  0
    4.3270   -0.0640    0.7580 N   0  0  0  0  0  0  0  0  0  0  0  0
    2.5030   -0.7630    2.1420 C   0  0  0  0  0  0  0  0  0  0  0  0
    1.9220   -1.2590    3.1450 O   0  0  0  0  0  0  0  0  0  0  0  0
    3.8750    2.6160    7.1370 H   0  0  0  0  0  0  0  0  0  0  0  0
    3.9930    0.7960    7.2080 H   0  0  0  0  0  0  0  0  0  0  0  0
    2.8040    0.2660    4.5470 H   0  0  0  0  0  0  0  0  0  0  0  0
    4.5140   -0.3720    4.8680 H   0  0  0  0  0  0  0  0  0  0  0  0
    3.7230    1.6530    2.6550 H   0  0  0  0  0  0  0  0  0  0  0  0
    5.3460    0.9690    2.9490 H   0  0  0  0  0  0  0  0  0  0  0  0
    4.6000   -1.2740    2.4300 H   0  0  0  0  0  0  0  0  0  0  0  0
    5.2820    0.3540    0.7520 H   0  0  0  0  0  0  0  0  0  0  0  0
    4.3920   -0.9480    0.1960 H   0  0  0  0  0  0  0  0  0  0  0  0
    1.7190   -0.5340    1.0030 N   0  0  0  0  0  0  0  0  0  0  0  0
    0.2620   -0.8480    0.9320 C   0  0  1  0  0  0  0  0  0  0  0  0
   -0.3880    0.4640    0.9470 C   0  0  0  0  0  0  0  0  0  0  0  0
   -1.8470    0.5330    0.8470 C   0  0  0  0  0  0  0  0  0  0  0  0
   -2.7940    0.4650    1.8740 C   0  0  0  0  0  0  0  0  0  0  0  0
   -4.0190    0.5470    1.3420 N   0  0  0  0  0  0  0  0  0  0  0  0
   -3.9020    0.6690   -0.0140 C   0  0  0  0  0  0  0  0  0  0  0  0
   -4.8540    0.8200   -1.0010 C   0  0  0  0  0  0  0  0  0  0  0  0
   -4.4460    0.9650   -2.3070 C   0  0  0  0  0  0  0  0  0  0  0  0
   -3.0990    0.9550   -2.5980 C   0  0  0  0  0  0  0  0  0  0  0  0
   -2.1420    0.8030   -1.6190 C   0  0  0  0  0  0  0  0  0  0  0  0
   -2.5570    0.6580   -0.3090 C   0  0  0  0  0  0  0  0  0  0  0  0
    0.0920   -1.8320   -0.1000 C   0  0  0  0  0  0  0  0  0  0  0  0
    1.0500   -2.0340   -0.9300 O   0  0  0  0  0  0  0  0  0  0  0  0
    2.1230   -0.1310    0.1470 H   0  0  0  0  0  0  0  0  0  0  0  0
    0.0800   -1.2860    1.9710 H   0  0  0  0  0  0  0  0  0  0  0  0
    0.0890    1.1990    0.2260 H   0  0  0  0  0  0  0  0  0  0  0  0
   -0.1530    0.9750    1.9490 H   0  0  0  0  0  0  0  0  0  0  0  0
   -2.5700    0.3630    2.9150 H   0  0  0  0  0  0  0  0  0  0  0  0
   -4.9370    0.5280    1.8210 H   0  0  0  0  0  0  0  0  0  0  0  0
   -5.9110    0.8250   -0.7580 H   0  0  0  0  0  0  0  0  0  0  0  0
   -5.1760    1.0890   -3.1240 H   0  0  0  0  0  0  0  0  0  0  0  0
   -2.7880    1.0720   -3.6410 H   0  0  0  0  0  0  0  0  0  0  0  0
   -1.0880    0.7940   -1.8280 H   0  0  0  0  0  0  0  0  0  0  0  0
   -3.8270   -2.2960   -2.9330 C   0  0  0  0  0  0  0  0  0  0  0  0
   -2.4810   -2.3200   -4.0750 S   0  0  0  0  0  0  0  0  0  0  0  0
   -0.8170   -2.2670   -3.4170 C   0  0  0  0  0  0  0  0  0  0  0  0
   -0.3940   -3.4580   -2.6260 C   0  0  0  0  0  0  0  0  0  0  0  0
   -1.1400   -3.6730   -1.3590 C   0  0  2  0  0  0  0  0  0  0  0  0
   -1.0410   -2.6780   -0.3440 N   0  0  0  0  0  0  0  0  0  0  0  0
   -0.9460   -5.0510   -0.8500 C   0  0  0  0  0  0  0  0  0  0  0  0
   -1.0030   -6.0360   -1.6130 O   0  0  0  0  0  0  0  0  0  0  0  0
   -0.6990   -5.2360    0.4930 O   0  0  0  0  0  0  0  0  0  0  0  0
   -4.6910   -1.6940   -3.3870 H   0  0  0  0  0  0  0  0  0  0  0  0
   -3.5650   -1.7950   -2.0010 H   0  0  0  0  0  0  0  0  0  0  0  0
   -4.2890   -3.2960   -2.7300 H   0  0  0  0  0  0  0  0  0  0  0  0
   -0.6730   -1.3050   -2.8820 H   0  0  0  0  0  0  0  0  0  0  0  0
   -0.1350   -2.1850   -4.3260 H   0  0  0  0  0  0  0  0  0  0  0  0
    0.7060   -3.5800   -2.5710 H   0  0  0  0  0  0  0  0  0  0  0  0
   -0.6920   -4.3530   -3.2760 H   0  0  0  0  0  0  0  0  0  0  0  0
   -2.2300   -3.6420   -1.7020 H   0  0  0  0  0  0  0  0  0  0  0  0
   -1.8450   -2.5160    0.3100 H   0  0  0  0  0  0  0  0  0  0  0  0
  1 10  1  0  0  0  0
  1 11  1  0  0  0  0
  2  1  1  0  0  0  0
  3  2  2  0  0  0  0
  4 12  1  0  0  0  0
  4 13  1  0  0  0  0
  4  2  1  0  0  0  0
  5  4  1  0  0  0  0
  6  8  1  0  0  0  0
  6 16  1  1  0  0  0
  6  5  1  0  0  0  0
  7  6  1  0  0  0  0
  8  9  2  0  0  0  0
 14  5  1  0  0  0  0
 15  5  1  0  0  0  0
 17  7  1  0  0  0  0
 18  7  1  0  0  0  0
 19  8  1  0  0  0  0
 20 21  1  0  0  0  0
 20 19  1  0  0  0  0
 20 34  1  1  0  0  0
 21 36  1  0  0  0  0
 22 21  1  0  0  0  0
 22 23  2  0  0  0  0
 23 37  1  0  0  0  0
 24 38  1  0  0  0  0
 24 23  1  0  0  0  0
 25 24  1  0  0  0  0
 26 39  1  0  0  0  0
 26 25  2  0  0  0  0
 27 26  1  0  0  0  0
 28 27  2  0  0  0  0
 28 29  1  0  0  0  0
 29 30  2  0  0  0  0
 30 25  1  0  0  0  0
 30 22  1  0  0  0  0
 31 20  1  0  0  0  0
 32 31  2  0  0  0  0
 33 19  1  0  0  0  0
 35 21  1  0  0  0  0
 40 27  1  0  0  0  0
 41 28  1  0  0  0  0
 42 29  1  0  0  0  0
 43 54  1  0  0  0  0
 43 53  1  0  0  0  0
 44 45  1  0  0  0  0
 44 43  1  0  0  0  0
 45 55  1  0  0  0  0
 45 46  1  0  0  0  0
 46 57  1  0  0  0  0
 46 47  1  0  0  0  0
 47 59  1  6  0  0  0
 47 49  1  0  0  0  0
 47 48  1  0  0  0  0
 48 31  1  0  0  0  0
 48 60  1  0  0  0  0
 49 51  1  0  0  0  0
 50 49  2  0  0  0  0
 52 43  1  0  0  0  0
 56 45  1  0  0  0  0
 58 46  1  0  0  0  0
M  END
$$$$
