QWN.pdb
 OpenBabel07022418343D

 57 58  0  0  1  0  0  0  0  0999 V2000
    3.7970   -4.4690    2.0050 N   0  0  0  0  0  0  0  0  0  0  0  0
    3.8030   -3.3990    2.9250 C   0  0  0  0  0  0  0  0  0  0  0  0
    4.0990   -3.6270    4.1170 O   0  0  0  0  0  0  0  0  0  0  0  0
    3.4730   -1.9780    2.5590 C   0  0  0  0  0  0  0  0  0  0  0  0
    3.5180   -1.0880    3.7720 C   0  0  0  0  0  0  0  0  0  0  0  0
    3.2170    0.3330    3.3580 C   0  0  2  0  0  0  0  0  0  0  0  0
    3.2510    1.1980    4.5530 N   0  0  0  0  0  0  0  0  0  0  0  0
    1.9090    0.3890    2.7070 C   0  0  0  0  0  0  0  0  0  0  0  0
    0.8920    0.7530    3.4060 O   0  0  0  0  0  0  0  0  0  0  0  0
    4.6460   -4.8580    1.5400 H   0  0  0  0  0  0  0  0  0  0  0  0
    2.8910   -4.9310    1.7470 H   0  0  0  0  0  0  0  0  0  0  0  0
    2.4050   -2.0530    2.1810 H   0  0  0  0  0  0  0  0  0  0  0  0
    4.0730   -1.5840    1.7430 H   0  0  0  0  0  0  0  0  0  0  0  0
    2.6670   -1.4020    4.4260 H   0  0  0  0  0  0  0  0  0  0  0  0
    4.4870   -1.1680    4.3090 H   0  0  0  0  0  0  0  0  0  0  0  0
    4.0620    0.6730    2.7270 H   0  0  0  0  0  0  0  0  0  0  0  0
    4.1580    0.9670    5.0340 H   0  0  0  0  0  0  0  0  0  0  0  0
    3.3780    2.1870    4.2020 H   0  0  0  0  0  0  0  0  0  0  0  0
    1.6130    0.0920    1.3660 N   0  0  0  0  0  0  0  0  0  0  0  0
    0.2060    0.2070    0.8260 C   0  0  1  0  0  0  0  0  0  0  0  0
    0.0820    1.5270    0.1840 C   0  0  0  0  0  0  0  0  0  0  0  0
   -1.2070    1.8640   -0.3860 C   0  0  0  0  0  0  0  0  0  0  0  0
   -2.2250    2.4840    0.3690 C   0  0  0  0  0  0  0  0  0  0  0  0
   -3.3220    2.6530   -0.3880 N   0  0  0  0  0  0  0  0  0  0  0  0
   -3.0980    2.1770   -1.6230 C   0  0  0  0  0  0  0  0  0  0  0  0
   -3.8690    2.1260   -2.7620 C   0  0  0  0  0  0  0  0  0  0  0  0
   -3.3390    1.5870   -3.9150 C   0  0  0  0  0  0  0  0  0  0  0  0
   -2.0450    1.1040   -3.9200 C   0  0  0  0  0  0  0  0  0  0  0  0
   -1.2920    1.1600   -2.7820 C   0  0  0  0  0  0  0  0  0  0  0  0
   -1.8030    1.6960   -1.6160 C   0  0  0  0  0  0  0  0  0  0  0  0
   -0.0390   -1.0340    0.1590 C   0  0  0  0  0  0  0  0  0  0  0  0
    0.8980   -1.9000    0.0030 O   0  0  0  0  0  0  0  0  0  0  0  0
    2.3460   -0.2040    0.7130 H   0  0  0  0  0  0  0  0  0  0  0  0
   -0.4640    0.2860    1.7630 H   0  0  0  0  0  0  0  0  0  0  0  0
    0.3390    2.3340    0.9300 H   0  0  0  0  0  0  0  0  0  0  0  0
    0.8410    1.6320   -0.6800 H   0  0  0  0  0  0  0  0  0  0  0  0
   -2.1370    2.7800    1.4020 H   0  0  0  0  0  0  0  0  0  0  0  0
   -4.2130    3.0880   -0.0640 H   0  0  0  0  0  0  0  0  0  0  0  0
   -4.8840    2.4890   -2.8130 H   0  0  0  0  0  0  0  0  0  0  0  0
   -3.9200    1.5320   -4.8370 H   0  0  0  0  0  0  0  0  0  0  0  0
   -1.6610    0.6890   -4.8410 H   0  0  0  0  0  0  0  0  0  0  0  0
   -0.2680    0.7840   -2.7630 H   0  0  0  0  0  0  0  0  0  0  0  0
   -1.4870   -3.2180    1.7790 N   0  0  0  0  0  0  0  0  0  0  0  0
   -2.6090   -3.6600    1.0270 C   0  0  0  0  0  0  0  0  0  0  0  0
   -3.5370   -4.2540    1.6120 O   0  0  0  0  0  0  0  0  0  0  0  0
   -2.7350   -3.4470   -0.4410 C   0  0  0  0  0  0  0  0  0  0  0  0
   -1.5030   -2.7210   -0.9780 C   0  0  2  0  0  0  0  0  0  0  0  0
   -1.3130   -1.4390   -0.3740 N   0  0  0  0  0  0  0  0  0  0  0  0
   -1.3940   -2.8370   -2.4240 C   0  0  0  0  0  0  0  0  0  0  0  0
   -1.6370   -4.0170   -2.8950 O   0  0  0  0  0  0  0  0  0  0  0  0
   -1.0750   -1.9070   -3.3580 O   0  0  0  0  0  0  0  0  0  0  0  0
   -0.5180   -3.5830    1.6280 H   0  0  0  0  0  0  0  0  0  0  0  0
   -1.6070   -2.4990    2.5200 H   0  0  0  0  0  0  0  0  0  0  0  0
   -2.6880   -4.4700   -0.9040 H   0  0  0  0  0  0  0  0  0  0  0  0
   -3.6610   -2.9490   -0.7200 H   0  0  0  0  0  0  0  0  0  0  0  0
   -0.6280   -3.3550   -0.5840 H   0  0  0  0  0  0  0  0  0  0  0  0
   -2.0790   -0.7430   -0.2740 H   0  0  0  0  0  0  0  0  0  0  0  0
  1  2  1  0  0  0  0
  2  3  2  0  0  0  0
  4  2  1  0  0  0  0
  4  5  1  0  0  0  0
  5 15  1  0  0  0  0
  5 14  1  0  0  0  0
  6 16  1  6  0  0  0
  6  5  1  0  0  0  0
  6  7  1  0  0  0  0
  7 17  1  0  0  0  0
  8  6  1  0  0  0  0
  8  9  2  0  0  0  0
 10  1  1  0  0  0  0
 11  1  1  0  0  0  0
 12  4  1  0  0  0  0
 13  4  1  0  0  0  0
 18  7  1  0  0  0  0
 19  8  1  0  0  0  0
 20 19  1  0  0  0  0
 20 34  1  1  0  0  0
 21 20  1  0  0  0  0
 21 35  1  0  0  0  0
 22 21  1  0  0  0  0
 22 23  2  0  0  0  0
 23 37  1  0  0  0  0
 24 38  1  0  0  0  0
 24 23  1  0  0  0  0
 25 30  1  0  0  0  0
 25 24  1  0  0  0  0
 26 25  2  0  0  0  0
 27 26  1  0  0  0  0
 28 27  2  0  0  0  0
 28 29  1  0  0  0  0
 29 42  1  0  0  0  0
 29 30  2  0  0  0  0
 30 22  1  0  0  0  0
 31 20  1  0  0  0  0
 32 31  2  0  0  0  0
 33 19  1  0  0  0  0
 36 21  1  0  0  0  0
 39 26  1  0  0  0  0
 40 27  1  0  0  0  0
 41 28  1  0  0  0  0
 43 53  1  0  0  0  0
 44 45  2  0  0  0  0
 44 43  1  0  0  0  0
 46 44  1  0  0  0  0
 47 56  1  1  0  0  0
 47 46  1  0  0  0  0
 47 48  1  0  0  0  0
 48 57  1  0  0  0  0
 48 31  1  0  0  0  0
 49 47  1  0  0  0  0
 50 49  1  0  0  0  0
 51 49  2  0  0  0  0
 52 43  1  0  0  0  0
 54 46  1  0  0  0  0
 55 46  1  0  0  0  0
M  END
$$$$
