QWQ.pdb
 OpenBabel07022418343D

 60 61  0  0  1  0  0  0  0  0999 V2000
    1.7910   -5.7590   -4.5840 N   0  0  0  0  0  0  0  0  0  0  0  0
    1.4910   -5.1220   -3.3190 C   0  0  0  0  0  0  0  0  0  0  0  0
    2.2420   -5.4800   -2.3820 O   0  0  0  0  0  0  0  0  0  0  0  0
    0.4020   -4.1600   -3.1910 C   0  0  0  0  0  0  0  0  0  0  0  0
    0.4230   -3.2570   -2.0070 C   0  0  0  0  0  0  0  0  0  0  0  0
    1.5950   -2.3510   -1.9990 C   0  0  2  0  0  0  0  0  0  0  0  0
    2.8360   -3.0490   -1.9730 N   0  0  0  0  0  0  0  0  0  0  0  0
    1.5100   -1.3070   -0.9340 C   0  0  0  0  0  0  0  0  0  0  0  0
    2.4500   -1.0970   -0.1160 O   0  0  0  0  0  0  0  0  0  0  0  0
    2.1300   -6.7350   -4.6370 H   0  0  0  0  0  0  0  0  0  0  0  0
    1.6570   -5.2090   -5.4510 H   0  0  0  0  0  0  0  0  0  0  0  0
   -0.5580   -4.7670   -3.2180 H   0  0  0  0  0  0  0  0  0  0  0  0
    0.3480   -3.5720   -4.1630 H   0  0  0  0  0  0  0  0  0  0  0  0
   -0.5470   -2.6950   -1.9820 H   0  0  0  0  0  0  0  0  0  0  0  0
    0.3710   -3.9130   -1.0970 H   0  0  0  0  0  0  0  0  0  0  0  0
    1.5490   -1.7600   -2.9620 H   0  0  0  0  0  0  0  0  0  0  0  0
    3.5730   -2.4960   -2.4840 H   0  0  0  0  0  0  0  0  0  0  0  0
    3.1350   -3.1530   -0.9690 H   0  0  0  0  0  0  0  0  0  0  0  0
    0.3590   -0.4850   -0.7800 N   0  0  0  0  0  0  0  0  0  0  0  0
    0.2460    0.5280    0.2350 C   0  0  1  0  0  0  0  0  0  0  0  0
    0.0770    1.9130   -0.3430 C   0  0  0  0  0  0  0  0  0  0  0  0
   -0.0330    2.9070    0.7570 C   0  0  0  0  0  0  0  0  0  0  0  0
   -1.1840    3.5300    1.1930 C   0  0  0  0  0  0  0  0  0  0  0  0
   -0.8660    4.3630    2.2130 N   0  0  0  0  0  0  0  0  0  0  0  0
    0.4520    4.3130    2.4650 C   0  0  0  0  0  0  0  0  0  0  0  0
    1.2470    4.9620    3.3880 C   0  0  0  0  0  0  0  0  0  0  0  0
    2.6030    4.7090    3.4190 C   0  0  0  0  0  0  0  0  0  0  0  0
    3.1200    3.8050    2.5160 C   0  0  0  0  0  0  0  0  0  0  0  0
    2.3270    3.1540    1.5920 C   0  0  0  0  0  0  0  0  0  0  0  0
    0.9750    3.4120    1.5660 C   0  0  0  0  0  0  0  0  0  0  0  0
   -0.8800    0.1430    1.1300 C   0  0  0  0  0  0  0  0  0  0  0  0
   -1.1250    0.9170    2.0820 O   0  0  0  0  0  0  0  0  0  0  0  0
   -0.4490   -0.6130   -1.4270 H   0  0  0  0  0  0  0  0  0  0  0  0
    1.1690    0.5790    0.8780 H   0  0  0  0  0  0  0  0  0  0  0  0
    0.9990    2.1350   -0.9110 H   0  0  0  0  0  0  0  0  0  0  0  0
   -0.8090    2.0190   -0.9740 H   0  0  0  0  0  0  0  0  0  0  0  0
   -2.1850    3.3740    0.7820 H   0  0  0  0  0  0  0  0  0  0  0  0
   -1.5120    4.9820    2.7630 H   0  0  0  0  0  0  0  0  0  0  0  0
    0.8650    5.6740    4.1060 H   0  0  0  0  0  0  0  0  0  0  0  0
    3.2640    5.2100    4.1420 H   0  0  0  0  0  0  0  0  0  0  0  0
    4.1950    3.6000    2.5350 H   0  0  0  0  0  0  0  0  0  0  0  0
    2.7240    2.4440    0.8790 H   0  0  0  0  0  0  0  0  0  0  0  0
   -1.6210   -5.7210    1.4010 N   0  0  0  0  0  0  0  0  0  0  0  0
   -2.2980   -4.5400    1.7970 C   0  0  0  0  0  0  0  0  0  0  0  0
   -3.4600   -4.3510    1.3860 O   0  0  0  0  0  0  0  0  0  0  0  0
   -1.6530   -3.5560    2.6730 C   0  0  0  0  0  0  0  0  0  0  0  0
   -2.4470   -2.3010    2.9100 C   0  0  0  0  0  0  0  0  0  0  0  0
   -2.7440   -1.5050    1.6960 C   0  0  2  0  0  0  0  0  0  0  0  0
   -1.6490   -1.0190    0.9470 N   0  0  0  0  0  0  0  0  0  0  0  0
   -3.6710   -0.3600    2.0330 C   0  0  0  0  0  0  0  0  0  0  0  0
   -4.6400   -0.6640    2.8120 O   0  0  0  0  0  0  0  0  0  0  0  0
   -3.5550    0.9140    1.5840 O   0  0  0  0  0  0  0  0  0  0  0  0
   -0.7160   -5.9760    1.8490 H   0  0  0  0  0  0  0  0  0  0  0  0
   -1.9800   -6.3710    0.6690 H   0  0  0  0  0  0  0  0  0  0  0  0
   -1.4580   -4.0960    3.6470 H   0  0  0  0  0  0  0  0  0  0  0  0
   -0.6270   -3.3410    2.2920 H   0  0  0  0  0  0  0  0  0  0  0  0
   -3.4410   -2.6660    3.3170 H   0  0  0  0  0  0  0  0  0  0  0  0
   -2.0400   -1.7000    3.7520 H   0  0  0  0  0  0  0  0  0  0  0  0
   -3.4210   -2.1000    0.9820 H   0  0  0  0  0  0  0  0  0  0  0  0
   -1.3420   -1.6140    0.1100 H   0  0  0  0  0  0  0  0  0  0  0  0
  1  2  1  0  0  0  0
  2  4  1  0  0  0  0
  2  3  2  0  0  0  0
  4  5  1  0  0  0  0
  5  6  1  0  0  0  0
  5 14  1  0  0  0  0
  5 15  1  0  0  0  0
  6 16  1  6  0  0  0
  6  7  1  0  0  0  0
  6  8  1  0  0  0  0
  7 18  1  0  0  0  0
  8 19  1  0  0  0  0
  8  9  2  0  0  0  0
 10  1  1  0  0  0  0
 11  1  1  0  0  0  0
 12  4  1  0  0  0  0
 13  4  1  0  0  0  0
 17  7  1  0  0  0  0
 19 20  1  0  0  0  0
 20 34  1  1  0  0  0
 20 31  1  0  0  0  0
 21 20  1  0  0  0  0
 21 22  1  0  0  0  0
 22 23  2  0  0  0  0
 22 30  1  0  0  0  0
 23 24  1  0  0  0  0
 24 25  1  0  0  0  0
 24 38  1  0  0  0  0
 25 26  1  0  0  0  0
 26 27  2  0  0  0  0
 26 39  1  0  0  0  0
 27 40  1  0  0  0  0
 28 41  1  0  0  0  0
 28 27  1  0  0  0  0
 29 28  2  0  0  0  0
 30 29  1  0  0  0  0
 30 25  2  0  0  0  0
 31 32  2  0  0  0  0
 33 19  1  0  0  0  0
 35 21  1  0  0  0  0
 36 21  1  0  0  0  0
 37 23  1  0  0  0  0
 42 29  1  0  0  0  0
 43 44  1  0  0  0  0
 43 53  1  0  0  0  0
 44 46  1  0  0  0  0
 45 44  2  0  0  0  0
 46 47  1  0  0  0  0
 46 55  1  0  0  0  0
 47 57  1  0  0  0  0
 47 58  1  0  0  0  0
 48 59  1  6  0  0  0
 48 50  1  0  0  0  0
 48 47  1  0  0  0  0
 49 31  1  0  0  0  0
 49 48  1  0  0  0  0
 50 51  1  0  0  0  0
 52 50  2  0  0  0  0
 54 43  1  0  0  0  0
 56 46  1  0  0  0  0
 60 49  1  0  0  0  0
M  END
$$$$
