QWR.pdb
 OpenBabel07022418343D

 66 67  0  0  1  0  0  0  0  0999 V2000
    7.2110   -0.1770   -0.6240 N   0  0  0  0  0  0  0  0  0  0  0  0
    6.0160   -0.9550   -0.7660 C   0  0  0  0  0  0  0  0  0  0  0  0
    5.8570   -2.0110   -0.1030 O   0  0  0  0  0  0  0  0  0  0  0  0
    4.9350   -0.5530   -1.6880 C   0  0  0  0  0  0  0  0  0  0  0  0
    3.6940   -1.3600   -1.6030 C   0  0  0  0  0  0  0  0  0  0  0  0
    3.0500   -1.3210   -0.2630 C   0  0  2  0  0  0  0  0  0  0  0  0
    1.8470   -2.1700   -0.3560 N   0  0  0  0  0  0  0  0  0  0  0  0
    2.6220    0.0660    0.1060 C   0  0  0  0  0  0  0  0  0  0  0  0
    3.3990    1.0100    0.3290 O   0  0  0  0  0  0  0  0  0  0  0  0
    8.1640   -0.5380   -0.8400 H   0  0  0  0  0  0  0  0  0  0  0  0
    7.1350    0.7990   -0.2870 H   0  0  0  0  0  0  0  0  0  0  0  0
    4.7000    0.5100   -1.4850 H   0  0  0  0  0  0  0  0  0  0  0  0
    5.3290   -0.6370   -2.7480 H   0  0  0  0  0  0  0  0  0  0  0  0
    2.9560   -0.8910   -2.3210 H   0  0  0  0  0  0  0  0  0  0  0  0
    3.8120   -2.3980   -1.9960 H   0  0  0  0  0  0  0  0  0  0  0  0
    3.6770   -1.7340    0.5380 H   0  0  0  0  0  0  0  0  0  0  0  0
    2.1310   -3.1210   -0.0640 H   0  0  0  0  0  0  0  0  0  0  0  0
    1.5410   -2.2360   -1.3440 H   0  0  0  0  0  0  0  0  0  0  0  0
    1.2190    0.3760    0.2230 N   0  0  0  0  0  0  0  0  0  0  0  0
    0.7620    1.6950    0.5770 C   0  0  1  0  0  0  0  0  0  0  0  0
    0.0270    2.3420   -0.5710 C   0  0  0  0  0  0  0  0  0  0  0  0
   -1.1670    1.6120   -1.0360 C   0  0  0  0  0  0  0  0  0  0  0  0
   -2.4680    1.8920   -0.6320 C   0  0  0  0  0  0  0  0  0  0  0  0
   -3.2680    1.0140   -1.2340 N   0  0  0  0  0  0  0  0  0  0  0  0
   -2.5620    0.1770   -2.0090 C   0  0  0  0  0  0  0  0  0  0  0  0
   -2.9780   -0.8830   -2.8260 C   0  0  0  0  0  0  0  0  0  0  0  0
   -2.0350   -1.5880   -3.5410 C   0  0  0  0  0  0  0  0  0  0  0  0
   -0.7090   -1.2010   -3.4100 C   0  0  0  0  0  0  0  0  0  0  0  0
   -0.2850   -0.1690   -2.6180 C   0  0  0  0  0  0  0  0  0  0  0  0
   -1.2460    0.5420   -1.8940 C   0  0  0  0  0  0  0  0  0  0  0  0
   -0.1080    1.5900    1.7720 C   0  0  0  0  0  0  0  0  0  0  0  0
   -0.6930    2.5800    2.2850 O   0  0  0  0  0  0  0  0  0  0  0  0
    0.5710   -0.4190    0.0460 H   0  0  0  0  0  0  0  0  0  0  0  0
    1.6690    2.3340    0.8350 H   0  0  0  0  0  0  0  0  0  0  0  0
    0.6960    2.4580   -1.4600 H   0  0  0  0  0  0  0  0  0  0  0  0
   -0.2520    3.4010   -0.3040 H   0  0  0  0  0  0  0  0  0  0  0  0
   -2.7510    2.7030    0.0650 H   0  0  0  0  0  0  0  0  0  0  0  0
   -4.3220    0.9720   -1.1220 H   0  0  0  0  0  0  0  0  0  0  0  0
   -4.0290   -1.1590   -2.9040 H   0  0  0  0  0  0  0  0  0  0  0  0
   -2.2700   -2.4180   -4.1930 H   0  0  0  0  0  0  0  0  0  0  0  0
    0.0390   -1.7570   -3.9760 H   0  0  0  0  0  0  0  0  0  0  0  0
    0.7480    0.1290   -2.5200 H   0  0  0  0  0  0  0  0  0  0  0  0
   -2.1430   -4.2220    1.4840 N   0  0  0  0  0  0  0  0  0  0  0  0
   -3.1930   -3.2830    1.6230 C   0  0  0  0  0  0  0  0  0  0  0  0
   -3.5460   -2.4610    0.6590 N   0  0  0  0  0  0  0  0  0  0  0  0
   -3.9390   -3.1760    2.8320 N   0  0  0  0  0  0  0  0  0  0  0  0
   -4.3950   -1.9490    3.4150 C   0  0  0  0  0  0  0  0  0  0  0  0
   -3.2760   -1.1530    4.0030 C   0  0  0  0  0  0  0  0  0  0  0  0
   -2.2650   -0.7840    3.0020 C   0  0  0  0  0  0  0  0  0  0  0  0
   -1.1360    0.1200    3.5520 C   0  0  2  0  0  0  0  0  0  0  0  0
   -0.3000    0.3290    2.3770 N   0  0  0  0  0  0  0  0  0  0  0  0
   -0.4580   -0.6000    4.6130 C   0  0  0  0  0  0  0  0  0  0  0  0
   -1.0460   -0.7790    5.7090 O   0  0  0  0  0  0  0  0  0  0  0  0
    0.8230   -1.1310    4.5310 O   0  0  0  0  0  0  0  0  0  0  0  0
   -1.3910   -4.1230    0.7710 H   0  0  0  0  0  0  0  0  0  0  0  0
   -2.1320   -5.0400    2.1270 H   0  0  0  0  0  0  0  0  0  0  0  0
   -3.0050   -2.5390   -0.2240 H   0  0  0  0  0  0  0  0  0  0  0  0
   -4.1420   -4.1170    3.2950 H   0  0  0  0  0  0  0  0  0  0  0  0
   -5.1810   -2.1600    4.2120 H   0  0  0  0  0  0  0  0  0  0  0  0
   -4.9180   -1.3550    2.6200 H   0  0  0  0  0  0  0  0  0  0  0  0
   -3.6400   -0.2920    4.6150 H   0  0  0  0  0  0  0  0  0  0  0  0
   -2.7910   -1.8370    4.7700 H   0  0  0  0  0  0  0  0  0  0  0  0
   -1.7610   -1.7030    2.5960 H   0  0  0  0  0  0  0  0  0  0  0  0
   -2.7210   -0.1960    2.1850 H   0  0  0  0  0  0  0  0  0  0  0  0
   -1.6360    1.0450    3.8900 H   0  0  0  0  0  0  0  0  0  0  0  0
    0.1540   -0.5420    2.0140 H   0  0  0  0  0  0  0  0  0  0  0  0
  1 11  1  0  0  0  0
  2  1  1  0  0  0  0
  2  3  2  0  0  0  0
  4  5  1  0  0  0  0
  4 12  1  0  0  0  0
  4  2  1  0  0  0  0
  5  6  1  0  0  0  0
  6  8  1  0  0  0  0
  6 16  1  1  0  0  0
  7  6  1  0  0  0  0
  7 17  1  0  0  0  0
  8 19  1  0  0  0  0
  8  9  2  0  0  0  0
 10  1  1  0  0  0  0
 13  4  1  0  0  0  0
 14  5  1  0  0  0  0
 15  5  1  0  0  0  0
 18  7  1  0  0  0  0
 19 20  1  0  0  0  0
 20 34  1  1  0  0  0
 20 31  1  0  0  0  0
 21 36  1  0  0  0  0
 21 20  1  0  0  0  0
 22 23  2  0  0  0  0
 22 21  1  0  0  0  0
 23 37  1  0  0  0  0
 24 38  1  0  0  0  0
 24 23  1  0  0  0  0
 25 30  1  0  0  0  0
 25 24  1  0  0  0  0
 26 25  2  0  0  0  0
 27 28  2  0  0  0  0
 27 26  1  0  0  0  0
 28 29  1  0  0  0  0
 29 42  1  0  0  0  0
 29 30  2  0  0  0  0
 30 22  1  0  0  0  0
 31 32  2  0  0  0  0
 31 51  1  0  0  0  0
 33 19  1  0  0  0  0
 35 21  1  0  0  0  0
 39 26  1  0  0  0  0
 40 27  1  0  0  0  0
 41 28  1  0  0  0  0
 43 44  1  0  0  0  0
 43 56  1  0  0  0  0
 44 46  1  0  0  0  0
 45 44  2  0  0  0  0
 46 58  1  0  0  0  0
 46 47  1  0  0  0  0
 47 48  1  0  0  0  0
 47 59  1  0  0  0  0
 48 61  1  0  0  0  0
 48 62  1  0  0  0  0
 49 50  1  0  0  0  0
 49 48  1  0  0  0  0
 50 65  1  1  0  0  0
 50 52  1  0  0  0  0
 51 50  1  0  0  0  0
 52 53  1  0  0  0  0
 54 52  2  0  0  0  0
 55 43  1  0  0  0  0
 57 45  1  0  0  0  0
 60 47  1  0  0  0  0
 63 49  1  0  0  0  0
 64 49  1  0  0  0  0
 66 51  1  0  0  0  0
M  END
$$$$
