QWS.pdb
 OpenBabel07022418343D

 54 55  0  0  1  0  0  0  0  0999 V2000
   -2.3940    1.4710    6.7250 N   0  0  0  0  0  0  0  0  0  0  0  0
   -1.9600    0.4910    5.7930 C   0  0  0  0  0  0  0  0  0  0  0  0
   -2.7760    0.1320    4.9190 O   0  0  0  0  0  0  0  0  0  0  0  0
   -0.6230   -0.0560    5.8790 C   0  0  0  0  0  0  0  0  0  0  0  0
   -0.0470   -0.7030    4.6790 C   0  0  0  0  0  0  0  0  0  0  0  0
    0.1370    0.2390    3.5200 C   0  0  2  0  0  0  0  0  0  0  0  0
   -1.0970    0.7940    3.1020 N   0  0  0  0  0  0  0  0  0  0  0  0
    0.8420   -0.4080    2.3950 C   0  0  0  0  0  0  0  0  0  0  0  0
    1.9220   -0.9920    2.6680 O   0  0  0  0  0  0  0  0  0  0  0  0
   -2.3790    2.4680    6.4680 H   0  0  0  0  0  0  0  0  0  0  0  0
   -2.7220    1.1780    7.6550 H   0  0  0  0  0  0  0  0  0  0  0  0
   -0.5420   -0.7860    6.7380 H   0  0  0  0  0  0  0  0  0  0  0  0
    0.0870    0.7840    6.1760 H   0  0  0  0  0  0  0  0  0  0  0  0
   -0.7450   -1.5080    4.3010 H   0  0  0  0  0  0  0  0  0  0  0  0
    0.8940   -1.2700    4.9020 H   0  0  0  0  0  0  0  0  0  0  0  0
    0.8390    1.0880    3.8320 H   0  0  0  0  0  0  0  0  0  0  0  0
   -1.0700    1.7710    2.7620 H   0  0  0  0  0  0  0  0  0  0  0  0
   -1.6240    0.1520    2.4700 H   0  0  0  0  0  0  0  0  0  0  0  0
    0.4240   -0.4350    1.0440 N   0  0  0  0  0  0  0  0  0  0  0  0
    1.1650   -1.0890   -0.0080 C   0  0  1  0  0  0  0  0  0  0  0  0
    0.5300   -2.3030   -0.5800 C   0  0  0  0  0  0  0  0  0  0  0  0
   -0.7790   -2.1700   -1.1900 C   0  0  0  0  0  0  0  0  0  0  0  0
   -1.0370   -2.0890   -2.5400 C   0  0  0  0  0  0  0  0  0  0  0  0
   -2.3680   -1.9620   -2.6640 N   0  0  0  0  0  0  0  0  0  0  0  0
   -2.9820   -1.9580   -1.4710 C   0  0  0  0  0  0  0  0  0  0  0  0
   -4.2970   -1.8610   -1.0630 C   0  0  0  0  0  0  0  0  0  0  0  0
   -4.6270   -1.8950    0.2850 C   0  0  0  0  0  0  0  0  0  0  0  0
   -3.6560   -2.0270    1.2570 C   0  0  0  0  0  0  0  0  0  0  0  0
   -2.3510   -2.1210    0.8240 C   0  0  0  0  0  0  0  0  0  0  0  0
   -1.9780   -2.0910   -0.5160 C   0  0  0  0  0  0  0  0  0  0  0  0
    1.7020   -0.1260   -1.0020 C   0  0  0  0  0  0  0  0  0  0  0  0
    1.4780    1.1250   -0.9050 O   0  0  0  0  0  0  0  0  0  0  0  0
   -0.4850    0.0710    0.8320 H   0  0  0  0  0  0  0  0  0  0  0  0
    2.1000   -1.4900    0.5050 H   0  0  0  0  0  0  0  0  0  0  0  0
    1.2630   -2.7060   -1.3420 H   0  0  0  0  0  0  0  0  0  0  0  0
    0.5640   -3.1000    0.2240 H   0  0  0  0  0  0  0  0  0  0  0  0
   -0.3560   -2.1170   -3.3800 H   0  0  0  0  0  0  0  0  0  0  0  0
   -2.9090   -1.8740   -3.5750 H   0  0  0  0  0  0  0  0  0  0  0  0
   -5.0450   -1.7590   -1.8390 H   0  0  0  0  0  0  0  0  0  0  0  0
   -5.6760   -1.8140    0.5210 H   0  0  0  0  0  0  0  0  0  0  0  0
   -3.9600   -2.0490    2.2930 H   0  0  0  0  0  0  0  0  0  0  0  0
   -1.6070   -2.2290    1.5960 H   0  0  0  0  0  0  0  0  0  0  0  0
    5.0460   -0.7090   -3.3390 O   0  0  0  0  0  0  0  0  0  0  0  0
    4.5130    0.5280   -3.0000 C   0  0  0  0  0  0  0  0  0  0  0  0
    2.9980    0.5160   -3.0650 C   0  0  2  0  0  0  0  0  0  0  0  0
    2.4950   -0.4910   -2.1240 N   0  0  0  0  0  0  0  0  0  0  0  0
    2.5290    0.1630   -4.4170 C   0  0  0  0  0  0  0  0  0  0  0  0
    2.8400    0.9040   -5.3790 O   0  0  0  0  0  0  0  0  0  0  0  0
    1.7640   -0.9520   -4.6450 O   0  0  0  0  0  0  0  0  0  0  0  0
    5.6470   -0.6520   -4.1290 H   0  0  0  0  0  0  0  0  0  0  0  0
    4.9020    1.3510   -3.6020 H   0  0  0  0  0  0  0  0  0  0  0  0
    4.7750    0.7300   -1.9360 H   0  0  0  0  0  0  0  0  0  0  0  0
    2.6230    1.5090   -2.7670 H   0  0  0  0  0  0  0  0  0  0  0  0
    2.7200   -1.4980   -2.2740 H   0  0  0  0  0  0  0  0  0  0  0  0
  1 11  1  0  0  0  0
  2  4  1  0  0  0  0
  2  1  1  0  0  0  0
  3  2  2  0  0  0  0
  4 13  1  0  0  0  0
  4 12  1  0  0  0  0
  5 15  1  0  0  0  0
  5  4  1  0  0  0  0
  6 16  1  1  0  0  0
  6  5  1  0  0  0  0
  7  6  1  0  0  0  0
  8  9  2  0  0  0  0
  8  6  1  0  0  0  0
 10  1  1  0  0  0  0
 14  5  1  0  0  0  0
 17  7  1  0  0  0  0
 18  7  1  0  0  0  0
 19  8  1  0  0  0  0
 20 34  1  1  0  0  0
 20 19  1  0  0  0  0
 21 20  1  0  0  0  0
 21 36  1  0  0  0  0
 22 21  1  0  0  0  0
 22 30  1  0  0  0  0
 23 22  2  0  0  0  0
 24 23  1  0  0  0  0
 24 25  1  0  0  0  0
 25 26  2  0  0  0  0
 25 30  1  0  0  0  0
 26 27  1  0  0  0  0
 27 40  1  0  0  0  0
 27 28  2  0  0  0  0
 28 41  1  0  0  0  0
 29 28  1  0  0  0  0
 29 42  1  0  0  0  0
 30 29  2  0  0  0  0
 31 32  2  0  0  0  0
 31 20  1  0  0  0  0
 33 19  1  0  0  0  0
 35 21  1  0  0  0  0
 37 23  1  0  0  0  0
 38 24  1  0  0  0  0
 39 26  1  0  0  0  0
 43 44  1  0  0  0  0
 44 52  1  0  0  0  0
 45 44  1  0  0  0  0
 45 53  1  1  0  0  0
 45 46  1  0  0  0  0
 46 31  1  0  0  0  0
 47 45  1  0  0  0  0
 48 47  2  0  0  0  0
 49 47  1  0  0  0  0
 50 43  1  0  0  0  0
 51 44  1  0  0  0  0
 54 46  1  0  0  0  0
M  END
$$$$
