QWT.pdb
 OpenBabel07022418343D

 57 58  0  0  1  0  0  0  0  0999 V2000
   -2.6100   -0.7700    5.2960 N   0  0  0  0  0  0  0  0  0  0  0  0
   -1.3130   -1.1140    4.8260 C   0  0  0  0  0  0  0  0  0  0  0  0
   -1.0170   -2.3380    4.8480 O   0  0  0  0  0  0  0  0  0  0  0  0
   -0.3450   -0.1300    4.3380 C   0  0  0  0  0  0  0  0  0  0  0  0
    0.9180   -0.7050    3.7720 C   0  0  0  0  0  0  0  0  0  0  0  0
    0.7410   -1.5980    2.5930 C   0  0  2  0  0  0  0  0  0  0  0  0
    2.0220   -2.1030    2.1140 N   0  0  0  0  0  0  0  0  0  0  0  0
   -0.0470   -0.9960    1.4890 C   0  0  0  0  0  0  0  0  0  0  0  0
   -1.1800   -0.5550    1.7090 O   0  0  0  0  0  0  0  0  0  0  0  0
   -2.7910   -0.1130    6.0770 H   0  0  0  0  0  0  0  0  0  0  0  0
   -3.4240   -1.2080    4.8230 H   0  0  0  0  0  0  0  0  0  0  0  0
   -0.8280    0.6220    3.6640 H   0  0  0  0  0  0  0  0  0  0  0  0
   -0.0530    0.4880    5.2460 H   0  0  0  0  0  0  0  0  0  0  0  0
    1.6150    0.1370    3.5330 H   0  0  0  0  0  0  0  0  0  0  0  0
    1.3610   -1.3400    4.5890 H   0  0  0  0  0  0  0  0  0  0  0  0
    0.1800   -2.5000    2.9090 H   0  0  0  0  0  0  0  0  0  0  0  0
    2.5930   -1.3610    1.6580 H   0  0  0  0  0  0  0  0  0  0  0  0
    1.9160   -2.9660    1.5450 H   0  0  0  0  0  0  0  0  0  0  0  0
    0.4460   -0.8970    0.1580 N   0  0  0  0  0  0  0  0  0  0  0  0
   -0.3140   -0.3170   -0.9060 C   0  0  1  0  0  0  0  0  0  0  0  0
    0.3630    0.8830   -1.5340 C   0  0  0  0  0  0  0  0  0  0  0  0
    0.5830    1.9560   -0.5260 C   0  0  0  0  0  0  0  0  0  0  0  0
    1.7450    2.3340    0.1150 C   0  0  0  0  0  0  0  0  0  0  0  0
    1.5100    3.3510    0.9530 N   0  0  0  0  0  0  0  0  0  0  0  0
    0.1900    3.6640    0.8830 C   0  0  0  0  0  0  0  0  0  0  0  0
   -0.5270    4.6330    1.5520 C   0  0  0  0  0  0  0  0  0  0  0  0
   -1.8820    4.7500    1.2990 C   0  0  0  0  0  0  0  0  0  0  0  0
   -2.4720    3.8830    0.3750 C   0  0  0  0  0  0  0  0  0  0  0  0
   -1.7580    2.9320   -0.2790 C   0  0  0  0  0  0  0  0  0  0  0  0
   -0.3970    2.7970   -0.0400 C   0  0  0  0  0  0  0  0  0  0  0  0
   -0.5560   -1.3340   -1.9640 C   0  0  0  0  0  0  0  0  0  0  0  0
   -1.2070   -1.0640   -3.0090 O   0  0  0  0  0  0  0  0  0  0  0  0
    1.4030   -1.2720   -0.0160 H   0  0  0  0  0  0  0  0  0  0  0  0
   -1.3200    0.0350   -0.5770 H   0  0  0  0  0  0  0  0  0  0  0  0
    1.3080    0.5970   -2.0520 H   0  0  0  0  0  0  0  0  0  0  0  0
   -0.2910    1.3150   -2.3190 H   0  0  0  0  0  0  0  0  0  0  0  0
    2.6910    1.8490   -0.0660 H   0  0  0  0  0  0  0  0  0  0  0  0
    2.2410    3.8060    1.5490 H   0  0  0  0  0  0  0  0  0  0  0  0
   -0.0360    5.2890    2.2620 H   0  0  0  0  0  0  0  0  0  0  0  0
   -2.4400    5.5080    1.8240 H   0  0  0  0  0  0  0  0  0  0  0  0
   -3.5260    3.9740    0.1790 H   0  0  0  0  0  0  0  0  0  0  0  0
   -2.1720    2.2370   -1.0030 H   0  0  0  0  0  0  0  0  0  0  0  0
    1.8670   -4.8630   -2.1940 C   0  0  0  0  0  0  0  0  0  0  0  0
    1.0830   -4.2160   -3.3100 C   0  0  1  0  0  0  0  0  0  0  0  0
    0.8290   -5.2100   -4.2630 O   0  0  0  0  0  0  0  0  0  0  0  0
   -0.2560   -3.6960   -2.8230 C   0  0  2  0  0  0  0  0  0  0  0  0
   -0.0530   -2.6510   -1.8220 N   0  0  0  0  0  0  0  0  0  0  0  0
   -0.9560   -4.8440   -2.1950 C   0  0  0  0  0  0  0  0  0  0  0  0
   -1.2390   -5.8650   -2.8650 O   0  0  0  0  0  0  0  0  0  0  0  0
   -1.3170   -4.8240   -0.8590 O   0  0  0  0  0  0  0  0  0  0  0  0
    1.1870   -5.3440   -1.4620 H   0  0  0  0  0  0  0  0  0  0  0  0
    2.4980   -5.6560   -2.6520 H   0  0  0  0  0  0  0  0  0  0  0  0
    2.5310   -4.1810   -1.6590 H   0  0  0  0  0  0  0  0  0  0  0  0
    1.6920   -3.4390   -3.7920 H   0  0  0  0  0  0  0  0  0  0  0  0
    1.0720   -6.1070   -3.9560 H   0  0  0  0  0  0  0  0  0  0  0  0
   -0.8370   -3.3380   -3.6760 H   0  0  0  0  0  0  0  0  0  0  0  0
    0.4860   -2.8710   -0.9570 H   0  0  0  0  0  0  0  0  0  0  0  0
  1 10  1  0  0  0  0
  2  3  2  0  0  0  0
  2  1  1  0  0  0  0
  4  2  1  0  0  0  0
  4 13  1  0  0  0  0
  5  4  1  0  0  0  0
  5 15  1  0  0  0  0
  6 16  1  1  0  0  0
  6  5  1  0  0  0  0
  7  6  1  0  0  0  0
  8  9  2  0  0  0  0
  8  6  1  0  0  0  0
 11  1  1  0  0  0  0
 12  4  1  0  0  0  0
 14  5  1  0  0  0  0
 17  7  1  0  0  0  0
 18  7  1  0  0  0  0
 19  8  1  0  0  0  0
 20 34  1  1  0  0  0
 20 19  1  0  0  0  0
 21 20  1  0  0  0  0
 21 22  1  0  0  0  0
 22 30  1  0  0  0  0
 22 23  2  0  0  0  0
 23 24  1  0  0  0  0
 24 38  1  0  0  0  0
 25 24  1  0  0  0  0
 25 26  1  0  0  0  0
 26 39  1  0  0  0  0
 27 26  2  0  0  0  0
 27 40  1  0  0  0  0
 28 27  1  0  0  0  0
 29 30  1  0  0  0  0
 29 28  2  0  0  0  0
 30 25  2  0  0  0  0
 31 47  1  0  0  0  0
 31 20  1  0  0  0  0
 32 31  2  0  0  0  0
 33 19  1  0  0  0  0
 35 21  1  0  0  0  0
 36 21  1  0  0  0  0
 37 23  1  0  0  0  0
 41 28  1  0  0  0  0
 42 29  1  0  0  0  0
 43 53  1  0  0  0  0
 43 51  1  0  0  0  0
 44 54  1  6  0  0  0
 44 46  1  0  0  0  0
 44 43  1  0  0  0  0
 45 55  1  0  0  0  0
 45 44  1  0  0  0  0
 46 56  1  6  0  0  0
 46 48  1  0  0  0  0
 46 47  1  0  0  0  0
 47 57  1  0  0  0  0
 48 50  1  0  0  0  0
 49 48  2  0  0  0  0
 52 43  1  0  0  0  0
M  END
$$$$
