QYD.pdb
 OpenBabel07022418343D

 53 53  0  0  1  0  0  0  0  0999 V2000
   -4.4920   -1.3730    5.0370 N   0  0  0  0  0  0  0  0  0  0  0  0
   -3.0910   -1.3800    5.2470 C   0  0  0  0  0  0  0  0  0  0  0  0
   -2.5840   -2.4590    5.6360 O   0  0  0  0  0  0  0  0  0  0  0  0
   -2.2430   -0.1800    5.0250 C   0  0  0  0  0  0  0  0  0  0  0  0
   -0.7810   -0.4960    5.0670 C   0  0  0  0  0  0  0  0  0  0  0  0
   -0.4210   -1.4970    4.0080 C   0  0  2  0  0  0  0  0  0  0  0  0
    1.0360   -1.7930    4.1000 N   0  0  0  0  0  0  0  0  0  0  0  0
   -0.6870   -0.9090    2.6670 C   0  0  0  0  0  0  0  0  0  0  0  0
   -1.8230   -0.6490    2.2090 O   0  0  0  0  0  0  0  0  0  0  0  0
   -5.1040   -0.9360    5.7650 H   0  0  0  0  0  0  0  0  0  0  0  0
   -4.9410   -1.7880    4.1810 H   0  0  0  0  0  0  0  0  0  0  0  0
   -2.5010    0.6110    5.7980 H   0  0  0  0  0  0  0  0  0  0  0  0
   -2.4900    0.3070    4.0690 H   0  0  0  0  0  0  0  0  0  0  0  0
   -0.2390    0.4600    4.8660 H   0  0  0  0  0  0  0  0  0  0  0  0
   -0.5400   -0.8810    6.0870 H   0  0  0  0  0  0  0  0  0  0  0  0
   -0.8890   -2.4860    4.1310 H   0  0  0  0  0  0  0  0  0  0  0  0
    1.3270   -2.4390    3.3450 H   0  0  0  0  0  0  0  0  0  0  0  0
    1.5800   -0.9100    4.1620 H   0  0  0  0  0  0  0  0  0  0  0  0
   -0.0120    3.5860   -4.8540 O   0  0  0  0  0  0  0  0  0  0  0  0
    0.2180    3.0150   -3.5880 C   0  0  0  0  0  0  0  0  0  0  0  0
    1.3080    2.2080   -3.3530 C   0  0  0  0  0  0  0  0  0  0  0  0
    1.5340    1.6490   -2.1140 C   0  0  0  0  0  0  0  0  0  0  0  0
    0.6820    1.8680   -1.0490 C   0  0  0  0  0  0  0  0  0  0  0  0
    0.9050    1.2730    0.2830 C   0  0  0  0  0  0  0  0  0  0  0  0
    0.1820   -0.0130    0.4570 C   0  0  2  0  0  0  0  0  0  0  0  0
    0.4110   -0.5930    1.7800 N   0  0  0  0  0  0  0  0  0  0  0  0
    0.4570   -1.0430   -0.5720 C   0  0  0  0  0  0  0  0  0  0  0  0
    0.2880   -0.7220   -1.7540 O   0  0  0  0  0  0  0  0  0  0  0  0
   -0.4220    2.6890   -1.3000 C   0  0  0  0  0  0  0  0  0  0  0  0
   -0.6460    3.2480   -2.5390 C   0  0  0  0  0  0  0  0  0  0  0  0
    0.6450    3.4070   -5.6010 H   0  0  0  0  0  0  0  0  0  0  0  0
    1.9860    2.0240   -4.1680 H   0  0  0  0  0  0  0  0  0  0  0  0
    2.4020    1.0200   -1.9660 H   0  0  0  0  0  0  0  0  0  0  0  0
    1.9910    1.1950    0.5030 H   0  0  0  0  0  0  0  0  0  0  0  0
    0.4900    1.9830    1.0470 H   0  0  0  0  0  0  0  0  0  0  0  0
   -0.9260    0.2030    0.3430 H   0  0  0  0  0  0  0  0  0  0  0  0
    1.3650   -0.8010    2.1350 H   0  0  0  0  0  0  0  0  0  0  0  0
   -1.1150    2.8860   -0.4910 H   0  0  0  0  0  0  0  0  0  0  0  0
   -1.5030    3.8880   -2.7440 H   0  0  0  0  0  0  0  0  0  0  0  0
    0.8860   -2.3180   -0.1910 N   0  0  0  0  0  0  0  0  0  0  0  0
    1.1700   -3.4430   -1.0370 C   0  0  1  0  0  0  0  0  0  0  0  0
    0.9520   -3.1970   -2.5280 C   0  0  0  0  0  0  0  0  0  0  0  0
   -0.4730   -2.9430   -2.8580 C   0  0  0  0  0  0  0  0  0  0  0  0
   -1.4260   -3.0920   -2.0210 O   0  0  0  0  0  0  0  0  0  0  0  0
    2.3590   -4.2040   -0.7150 C   0  0  0  0  0  0  0  0  0  0  0  0
    3.1090   -3.8780    0.2690 O   0  0  0  0  0  0  0  0  0  0  0  0
   -0.8620   -2.5190   -4.1260 O   0  0  0  0  0  0  0  0  0  0  0  0
    2.7920   -5.3270   -1.4150 O   0  0  0  0  0  0  0  0  0  0  0  0
    1.0170   -2.4620    0.8850 H   0  0  0  0  0  0  0  0  0  0  0  0
    0.2480   -4.1560   -0.8420 H   0  0  0  0  0  0  0  0  0  0  0  0
    1.5470   -2.3410   -2.8890 H   0  0  0  0  0  0  0  0  0  0  0  0
    1.2300   -4.1280   -3.0840 H   0  0  0  0  0  0  0  0  0  0  0  0
   -1.8160   -2.2390   -4.3510 H   0  0  0  0  0  0  0  0  0  0  0  0
  1  2  1  0  0  0  0
  1 10  1  0  0  0  0
  2  3  2  0  0  0  0
  4  5  1  0  0  0  0
  4  2  1  0  0  0  0
  4 12  1  0  0  0  0
  5 15  1  0  0  0  0
  6  7  1  0  0  0  0
  6 16  1  1  0  0  0
  6  5  1  0  0  0  0
  7 18  1  0  0  0  0
  8  6  1  0  0  0  0
  9  8  2  0  0  0  0
 11  1  1  0  0  0  0
 13  4  1  0  0  0  0
 14  5  1  0  0  0  0
 17  7  1  0  0  0  0
 19 20  1  0  0  0  0
 20 21  2  0  0  0  0
 20 30  1  0  0  0  0
 21 22  1  0  0  0  0
 22 33  1  0  0  0  0
 22 23  2  0  0  0  0
 23 24  1  0  0  0  0
 24 25  1  0  0  0  0
 24 34  1  0  0  0  0
 24 35  1  0  0  0  0
 25 36  1  6  0  0  0
 25 26  1  0  0  0  0
 26 37  1  0  0  0  0
 26  8  1  0  0  0  0
 27 40  1  0  0  0  0
 27 25  1  0  0  0  0
 28 27  2  0  0  0  0
 29 23  1  0  0  0  0
 29 38  1  0  0  0  0
 30 29  2  0  0  0  0
 31 19  1  0  0  0  0
 32 21  1  0  0  0  0
 39 30  1  0  0  0  0
 40 49  1  0  0  0  0
 41 50  1  1  0  0  0
 41 45  1  0  0  0  0
 41 40  1  0  0  0  0
 42 41  1  0  0  0  0
 43 42  1  0  0  0  0
 43 44  2  0  0  0  0
 45 46  1  0  0  0  0
 47 43  1  0  0  0  0
 48 45  2  0  0  0  0
 51 42  1  0  0  0  0
 52 42  1  0  0  0  0
 53 47  1  0  0  0  0
M  END
$$$$
