QYE.pdb
 OpenBabel07022418343D

 56 56  0  0  1  0  0  0  0  0999 V2000
   -2.9300    2.1250    6.5080 N   0  0  0  0  0  0  0  0  0  0  0  0
   -1.6100    1.8670    6.0830 C   0  0  0  0  0  0  0  0  0  0  0  0
   -0.6760    2.6370    6.3800 O   0  0  0  0  0  0  0  0  0  0  0  0
   -1.3010    0.6580    5.2640 C   0  0  0  0  0  0  0  0  0  0  0  0
    0.1380    0.5750    4.9060 C   0  0  0  0  0  0  0  0  0  0  0  0
    0.4570   -0.6500    4.1110 C   0  0  2  0  0  0  0  0  0  0  0  0
    1.8870   -0.6870    3.7880 N   0  0  0  0  0  0  0  0  0  0  0  0
   -0.3440   -0.7480    2.8670 C   0  0  0  0  0  0  0  0  0  0  0  0
   -1.5750   -0.8610    2.8460 O   0  0  0  0  0  0  0  0  0  0  0  0
   -3.7490    1.7550    5.9750 H   0  0  0  0  0  0  0  0  0  0  0  0
   -3.1320    2.6910    7.3630 H   0  0  0  0  0  0  0  0  0  0  0  0
   -1.8950    0.8030    4.3300 H   0  0  0  0  0  0  0  0  0  0  0  0
   -1.6610   -0.2520    5.7500 H   0  0  0  0  0  0  0  0  0  0  0  0
    0.4750    1.4820    4.3610 H   0  0  0  0  0  0  0  0  0  0  0  0
    0.7310    0.5200    5.8610 H   0  0  0  0  0  0  0  0  0  0  0  0
    0.2520   -1.5430    4.7540 H   0  0  0  0  0  0  0  0  0  0  0  0
    2.1630    0.1450    3.2580 H   0  0  0  0  0  0  0  0  0  0  0  0
    2.0630   -1.5390    3.2290 H   0  0  0  0  0  0  0  0  0  0  0  0
    5.0610    2.3280   -1.0380 O   0  0  0  0  0  0  0  0  0  0  0  0
    3.7510    1.8880   -0.8840 C   0  0  0  0  0  0  0  0  0  0  0  0
    3.0450    2.1400    0.2800 C   0  0  0  0  0  0  0  0  0  0  0  0
    1.7520    1.7220    0.4670 C   0  0  0  0  0  0  0  0  0  0  0  0
    1.0920    1.0190   -0.5160 C   0  0  0  0  0  0  0  0  0  0  0  0
   -0.3100    0.5730   -0.3030 C   0  0  0  0  0  0  0  0  0  0  0  0
   -0.3960   -0.8040    0.3310 C   0  0  2  0  0  0  0  0  0  0  0  0
    0.2820   -0.7160    1.5900 N   0  0  0  0  0  0  0  0  0  0  0  0
    0.0020   -1.8800   -0.5410 C   0  0  0  0  0  0  0  0  0  0  0  0
    0.9130   -2.6770   -0.2350 O   0  0  0  0  0  0  0  0  0  0  0  0
    1.7630    0.7500   -1.6860 C   0  0  0  0  0  0  0  0  0  0  0  0
    3.0710    1.1830   -1.8560 C   0  0  0  0  0  0  0  0  0  0  0  0
    5.4760    2.1840   -1.9540 H   0  0  0  0  0  0  0  0  0  0  0  0
    3.5560    2.6970    1.0710 H   0  0  0  0  0  0  0  0  0  0  0  0
    1.2170    1.9350    1.3990 H   0  0  0  0  0  0  0  0  0  0  0  0
   -0.8080    1.2740    0.4250 H   0  0  0  0  0  0  0  0  0  0  0  0
   -0.8670    0.6130   -1.2580 H   0  0  0  0  0  0  0  0  0  0  0  0
   -1.4940   -0.9010    0.6030 H   0  0  0  0  0  0  0  0  0  0  0  0
    1.3190   -0.6210    1.5630 H   0  0  0  0  0  0  0  0  0  0  0  0
    1.2340    0.2010   -2.4460 H   0  0  0  0  0  0  0  0  0  0  0  0
    3.5840    0.9650   -2.7780 H   0  0  0  0  0  0  0  0  0  0  0  0
   -0.6270   -2.0810   -1.7900 N   0  0  0  0  0  0  0  0  0  0  0  0
   -0.2400   -3.1480   -2.6600 C   0  0  1  0  0  0  0  0  0  0  0  0
   -1.3230   -4.1930   -2.8240 C   0  0  0  0  0  0  0  0  0  0  0  0
   -2.5900   -3.6320   -3.4010 C   0  0  0  0  0  0  0  0  0  0  0  0
   -3.5930   -4.7140   -3.5270 C   0  0  0  0  0  0  0  0  0  0  0  0
   -3.2950   -5.8790   -3.1730 O   0  0  0  0  0  0  0  0  0  0  0  0
    0.2130   -2.6820   -4.0060 C   0  0  0  0  0  0  0  0  0  0  0  0
    0.2450   -1.4810   -4.3590 O   0  0  0  0  0  0  0  0  0  0  0  0
   -4.8700   -4.5090   -4.0250 O   0  0  0  0  0  0  0  0  0  0  0  0
    0.6270   -3.6380   -4.9240 O   0  0  0  0  0  0  0  0  0  0  0  0
   -1.4120   -1.4530   -2.1370 H   0  0  0  0  0  0  0  0  0  0  0  0
    0.6150   -3.6810   -2.2010 H   0  0  0  0  0  0  0  0  0  0  0  0
   -0.9320   -4.9740   -3.4990 H   0  0  0  0  0  0  0  0  0  0  0  0
   -1.5720   -4.6740   -1.8580 H   0  0  0  0  0  0  0  0  0  0  0  0
   -2.4550   -3.2030   -4.4120 H   0  0  0  0  0  0  0  0  0  0  0  0
   -3.0180   -2.8300   -2.7740 H   0  0  0  0  0  0  0  0  0  0  0  0
   -5.6130   -5.1790   -4.0050 H   0  0  0  0  0  0  0  0  0  0  0  0
  1 11  1  0  0  0  0
  2  3  2  0  0  0  0
  2  1  1  0  0  0  0
  4 13  1  0  0  0  0
  4  2  1  0  0  0  0
  5  4  1  0  0  0  0
  5 15  1  0  0  0  0
  6 16  1  1  0  0  0
  6  5  1  0  0  0  0
  7  6  1  0  0  0  0
  8  6  1  0  0  0  0
  9  8  2  0  0  0  0
 10  1  1  0  0  0  0
 12  4  1  0  0  0  0
 14  5  1  0  0  0  0
 17  7  1  0  0  0  0
 18  7  1  0  0  0  0
 19 20  1  0  0  0  0
 20 21  1  0  0  0  0
 21 22  2  0  0  0  0
 21 32  1  0  0  0  0
 22 33  1  0  0  0  0
 23 24  1  0  0  0  0
 23 22  1  0  0  0  0
 24 25  1  0  0  0  0
 24 34  1  0  0  0  0
 25 36  1  1  0  0  0
 25 26  1  0  0  0  0
 26  8  1  0  0  0  0
 27 28  2  0  0  0  0
 27 25  1  0  0  0  0
 29 23  2  0  0  0  0
 30 29  1  0  0  0  0
 30 20  2  0  0  0  0
 31 19  1  0  0  0  0
 35 24  1  0  0  0  0
 37 26  1  0  0  0  0
 38 29  1  0  0  0  0
 39 30  1  0  0  0  0
 40 27  1  0  0  0  0
 41 51  1  1  0  0  0
 41 40  1  0  0  0  0
 42 41  1  0  0  0  0
 42 53  1  0  0  0  0
 43 42  1  0  0  0  0
 43 55  1  0  0  0  0
 44 43  1  0  0  0  0
 44 45  2  0  0  0  0
 46 41  1  0  0  0  0
 47 46  1  0  0  0  0
 48 56  1  0  0  0  0
 48 44  1  0  0  0  0
 49 46  2  0  0  0  0
 50 40  1  0  0  0  0
 52 42  1  0  0  0  0
 54 43  1  0  0  0  0
M  END
$$$$
