QYG.pdb
 OpenBabel07022418343D

 47 47  0  0  1  0  0  0  0  0999 V2000
    1.7540   -3.8510    1.4280 N   0  0  0  0  0  0  0  0  0  0  0  0
    2.5770   -2.6710    1.4420 C   0  0  0  0  0  0  0  0  0  0  0  0
    2.4970   -1.9400    2.4380 O   0  0  0  0  0  0  0  0  0  0  0  0
    3.4350   -2.4370    0.2930 C   0  0  0  0  0  0  0  0  0  0  0  0
    4.1050   -1.1260    0.1610 C   0  0  0  0  0  0  0  0  0  0  0  0
    3.2740    0.0830   -0.0670 C   0  0  2  0  0  0  0  0  0  0  0  0
    4.2600    1.2100   -0.1450 N   0  0  0  0  0  0  0  0  0  0  0  0
    2.2840    0.4260    0.9350 C   0  0  0  0  0  0  0  0  0  0  0  0
    2.6400    1.0980    1.9580 O   0  0  0  0  0  0  0  0  0  0  0  0
    2.0310   -4.6220    2.0550 H   0  0  0  0  0  0  0  0  0  0  0  0
    0.9280   -3.9240    0.8210 H   0  0  0  0  0  0  0  0  0  0  0  0
    2.8040   -2.6350   -0.6360 H   0  0  0  0  0  0  0  0  0  0  0  0
    4.1780   -3.2920    0.2590 H   0  0  0  0  0  0  0  0  0  0  0  0
    4.7990   -1.1860   -0.7520 H   0  0  0  0  0  0  0  0  0  0  0  0
    4.7900   -0.9610    1.0560 H   0  0  0  0  0  0  0  0  0  0  0  0
    2.8330   -0.0170   -1.1050 H   0  0  0  0  0  0  0  0  0  0  0  0
    3.7980    2.0510   -0.5030 H   0  0  0  0  0  0  0  0  0  0  0  0
    4.7400    1.3110    0.7540 H   0  0  0  0  0  0  0  0  0  0  0  0
   -3.5130    0.1030   -3.5010 O   0  0  0  0  0  0  0  0  0  0  0  0
   -2.8430    0.4700   -2.3210 C   0  0  0  0  0  0  0  0  0  0  0  0
   -3.4750    0.3750   -1.0990 C   0  0  0  0  0  0  0  0  0  0  0  0
   -2.8360    0.7290    0.0640 C   0  0  0  0  0  0  0  0  0  0  0  0
   -1.5500    1.1890    0.0480 C   0  0  0  0  0  0  0  0  0  0  0  0
   -0.8220    1.5840    1.2920 C   0  0  0  0  0  0  0  0  0  0  0  0
   -0.0360    0.4700    1.8880 C   0  0  2  0  0  0  0  0  0  0  0  0
    0.9270    0.0690    0.8410 N   0  0  0  0  0  0  0  0  0  0  0  0
   -0.7660   -0.7110    2.3140 C   0  0  0  0  0  0  0  0  0  0  0  0
   -0.5480   -1.8280    1.7980 O   0  0  0  0  0  0  0  0  0  0  0  0
   -0.9080    1.2870   -1.1820 C   0  0  0  0  0  0  0  0  0  0  0  0
   -1.5460    0.9330   -2.3450 C   0  0  0  0  0  0  0  0  0  0  0  0
   -3.9040    0.8300   -4.1040 H   0  0  0  0  0  0  0  0  0  0  0  0
   -4.5160    0.0070   -1.0370 H   0  0  0  0  0  0  0  0  0  0  0  0
   -3.3360    0.6540    1.0390 H   0  0  0  0  0  0  0  0  0  0  0  0
   -1.4970    2.0920    2.0100 H   0  0  0  0  0  0  0  0  0  0  0  0
   -0.0950    2.3680    0.9750 H   0  0  0  0  0  0  0  0  0  0  0  0
    0.5380    0.9120    2.7490 H   0  0  0  0  0  0  0  0  0  0  0  0
    0.5710   -0.4750    0.0520 H   0  0  0  0  0  0  0  0  0  0  0  0
    0.1240    1.6560   -1.2080 H   0  0  0  0  0  0  0  0  0  0  0  0
   -1.0520    1.0060   -3.3150 H   0  0  0  0  0  0  0  0  0  0  0  0
   -1.7610   -0.6710    3.3350 N   0  0  0  0  0  0  0  0  0  0  0  0
   -2.5060   -1.7930    3.8180 C   0  0  0  0  0  0  0  0  0  0  0  0
   -3.2980   -2.4860    2.7900 C   0  0  0  0  0  0  0  0  0  0  0  0
   -3.9960   -3.4660    3.1250 O   0  0  0  0  0  0  0  0  0  0  0  0
   -3.2960   -2.0970    1.4850 O   0  0  0  0  0  0  0  0  0  0  0  0
   -1.9250    0.2830    3.7340 H   0  0  0  0  0  0  0  0  0  0  0  0
   -1.8590   -2.5330    4.3550 H   0  0  0  0  0  0  0  0  0  0  0  0
   -3.1810   -1.4100    4.6440 H   0  0  0  0  0  0  0  0  0  0  0  0
  1  2  1  0  0  0  0
  1 10  1  0  0  0  0
  2  3  2  0  0  0  0
  4  2  1  0  0  0  0
  5  4  1  0  0  0  0
  5 15  1  0  0  0  0
  6 16  1  6  0  0  0
  6  5  1  0  0  0  0
  6  8  1  0  0  0  0
  7  6  1  0  0  0  0
  7 18  1  0  0  0  0
  8  9  2  0  0  0  0
 11  1  1  0  0  0  0
 12  4  1  0  0  0  0
 13  4  1  0  0  0  0
 14  5  1  0  0  0  0
 17  7  1  0  0  0  0
 19 20  1  0  0  0  0
 20 21  1  0  0  0  0
 21 32  1  0  0  0  0
 21 22  2  0  0  0  0
 22 33  1  0  0  0  0
 23 22  1  0  0  0  0
 23 24  1  0  0  0  0
 24 25  1  0  0  0  0
 24 34  1  0  0  0  0
 25 27  1  0  0  0  0
 25 36  1  1  0  0  0
 26  8  1  0  0  0  0
 26 25  1  0  0  0  0
 27 40  1  0  0  0  0
 28 27  2  0  0  0  0
 29 23  2  0  0  0  0
 30 20  2  0  0  0  0
 30 29  1  0  0  0  0
 31 19  1  0  0  0  0
 35 24  1  0  0  0  0
 37 26  1  0  0  0  0
 38 29  1  0  0  0  0
 39 30  1  0  0  0  0
 40 45  1  0  0  0  0
 40 41  1  0  0  0  0
 41 46  1  0  0  0  0
 41 47  1  0  0  0  0
 42 43  1  0  0  0  0
 42 41  1  0  0  0  0
 44 42  2  0  0  0  0
M  END
$$$$
