QYH.pdb
 OpenBabel07022418343D

 57 58  0  0  1  0  0  0  0  0999 V2000
   -0.7180   -3.1220    3.0360 N   0  0  0  0  0  0  0  0  0  0  0  0
    0.0160   -2.1030    3.6990 C   0  0  0  0  0  0  0  0  0  0  0  0
   -0.5630   -1.0880    4.1130 O   0  0  0  0  0  0  0  0  0  0  0  0
    1.4550   -2.2920    3.8770 C   0  0  0  0  0  0  0  0  0  0  0  0
    2.2440   -1.1250    4.3020 C   0  0  0  0  0  0  0  0  0  0  0  0
    2.3770    0.0160    3.3730 C   0  0  2  0  0  0  0  0  0  0  0  0
    3.2210    1.0240    4.1080 N   0  0  0  0  0  0  0  0  0  0  0  0
    1.1800    0.6890    2.9060 C   0  0  0  0  0  0  0  0  0  0  0  0
    0.6850    1.6430    3.5900 O   0  0  0  0  0  0  0  0  0  0  0  0
   -1.6120   -3.5140    3.3950 H   0  0  0  0  0  0  0  0  0  0  0  0
   -0.3290   -3.4910    2.1430 H   0  0  0  0  0  0  0  0  0  0  0  0
    1.8760   -2.6830    2.8850 H   0  0  0  0  0  0  0  0  0  0  0  0
    1.5970   -3.1580    4.5890 H   0  0  0  0  0  0  0  0  0  0  0  0
    3.2960   -1.4850    4.5860 H   0  0  0  0  0  0  0  0  0  0  0  0
    1.8280   -0.7090    5.2780 H   0  0  0  0  0  0  0  0  0  0  0  0
    3.0370   -0.2440    2.5060 H   0  0  0  0  0  0  0  0  0  0  0  0
    2.8970    1.0000    5.0990 H   0  0  0  0  0  0  0  0  0  0  0  0
    4.2260    0.7060    4.0540 H   0  0  0  0  0  0  0  0  0  0  0  0
    2.2970    0.0950   -4.3040 O   0  0  0  0  0  0  0  0  0  0  0  0
    1.7000    0.6020   -3.1610 C   0  0  0  0  0  0  0  0  0  0  0  0
    2.4230    0.8460   -2.0100 C   0  0  0  0  0  0  0  0  0  0  0  0
    1.8300    1.3530   -0.8650 C   0  0  0  0  0  0  0  0  0  0  0  0
    0.4720    1.6280   -0.8650 C   0  0  0  0  0  0  0  0  0  0  0  0
   -0.1910    2.1870    0.3280 C   0  0  0  0  0  0  0  0  0  0  0  0
   -0.6820    1.0990    1.2850 C   0  0  2  0  0  0  0  0  0  0  0  0
    0.4900    0.3610    1.6800 N   0  0  0  0  0  0  0  0  0  0  0  0
   -1.7420    0.3150    0.6440 C   0  0  0  0  0  0  0  0  0  0  0  0
   -2.7850    0.9500    0.2360 O   0  0  0  0  0  0  0  0  0  0  0  0
   -0.2560    1.3870   -2.0120 C   0  0  0  0  0  0  0  0  0  0  0  0
    0.3530    0.8790   -3.1470 C   0  0  0  0  0  0  0  0  0  0  0  0
    3.1510    0.4740   -4.6970 H   0  0  0  0  0  0  0  0  0  0  0  0
    3.4870    0.6330   -2.0020 H   0  0  0  0  0  0  0  0  0  0  0  0
    2.3900    1.5470    0.0440 H   0  0  0  0  0  0  0  0  0  0  0  0
    0.4460    2.9240    0.8620 H   0  0  0  0  0  0  0  0  0  0  0  0
   -1.0840    2.7460   -0.0190 H   0  0  0  0  0  0  0  0  0  0  0  0
   -1.0340    1.6830    2.1760 H   0  0  0  0  0  0  0  0  0  0  0  0
    0.8760   -0.4080    1.1250 H   0  0  0  0  0  0  0  0  0  0  0  0
   -1.3200    1.6110   -1.9870 H   0  0  0  0  0  0  0  0  0  0  0  0
   -0.2640    0.7060   -4.0280 H   0  0  0  0  0  0  0  0  0  0  0  0
   -1.7190   -1.0880    0.4340 N   0  0  0  0  0  0  0  0  0  0  0  0
   -2.8210   -1.7510   -0.2070 C   0  0  1  0  0  0  0  0  0  0  0  0
   -2.4670   -2.9280   -1.0450 C   0  0  0  0  0  0  0  0  0  0  0  0
   -1.5620   -2.6900   -2.1620 C   0  0  0  0  0  0  0  0  0  0  0  0
   -1.9210   -2.3540   -3.4490 C   0  0  0  0  0  0  0  0  0  0  0  0
   -0.7930   -2.2340   -4.1750 N   0  0  0  0  0  0  0  0  0  0  0  0
    0.2560   -2.4800   -3.3940 C   0  0  0  0  0  0  0  0  0  0  0  0
   -0.2250   -2.7610   -2.1540 N   0  0  0  0  0  0  0  0  0  0  0  0
   -3.7650   -2.1740    0.9080 C   0  0  0  0  0  0  0  0  0  0  0  0
   -4.8000   -2.7940    0.6040 O   0  0  0  0  0  0  0  0  0  0  0  0
   -3.4660   -1.8710    2.2060 O   0  0  0  0  0  0  0  0  0  0  0  0
   -0.9020   -1.6350    0.7370 H   0  0  0  0  0  0  0  0  0  0  0  0
   -3.4550   -0.9890   -0.7590 H   0  0  0  0  0  0  0  0  0  0  0  0
   -3.4410   -3.3980   -1.3820 H   0  0  0  0  0  0  0  0  0  0  0  0
   -2.0690   -3.7110   -0.3280 H   0  0  0  0  0  0  0  0  0  0  0  0
   -2.9170   -2.1990   -3.8700 H   0  0  0  0  0  0  0  0  0  0  0  0
   -0.7440   -1.9870   -5.1890 H   0  0  0  0  0  0  0  0  0  0  0  0
    1.2910   -2.4550   -3.7150 H   0  0  0  0  0  0  0  0  0  0  0  0
  1 10  1  0  0  0  0
  1  2  1  0  0  0  0
  2  4  1  0  0  0  0
  2  3  2  0  0  0  0
  4  5  1  0  0  0  0
  4 13  1  0  0  0  0
  5 14  1  0  0  0  0
  5 15  1  0  0  0  0
  6 16  1  6  0  0  0
  6  7  1  0  0  0  0
  6  5  1  0  0  0  0
  7 17  1  0  0  0  0
  8  6  1  0  0  0  0
  8  9  2  0  0  0  0
 11  1  1  0  0  0  0
 12  4  1  0  0  0  0
 18  7  1  0  0  0  0
 19 20  1  0  0  0  0
 20 30  2  0  0  0  0
 20 21  1  0  0  0  0
 21 32  1  0  0  0  0
 21 22  2  0  0  0  0
 22 23  1  0  0  0  0
 22 33  1  0  0  0  0
 23 24  1  0  0  0  0
 24 34  1  0  0  0  0
 24 25  1  0  0  0  0
 25 26  1  0  0  0  0
 25 36  1  1  0  0  0
 26  8  1  0  0  0  0
 27 25  1  0  0  0  0
 28 27  2  0  0  0  0
 29 38  1  0  0  0  0
 29 23  2  0  0  0  0
 30 29  1  0  0  0  0
 31 19  1  0  0  0  0
 35 24  1  0  0  0  0
 37 26  1  0  0  0  0
 39 30  1  0  0  0  0
 40 27  1  0  0  0  0
 40 51  1  0  0  0  0
 41 52  1  6  0  0  0
 41 40  1  0  0  0  0
 41 48  1  0  0  0  0
 42 54  1  0  0  0  0
 42 41  1  0  0  0  0
 43 47  1  0  0  0  0
 43 42  1  0  0  0  0
 44 43  2  0  0  0  0
 45 44  1  0  0  0  0
 45 46  1  0  0  0  0
 46 47  2  0  0  0  0
 48 50  1  0  0  0  0
 49 48  2  0  0  0  0
 53 42  1  0  0  0  0
 55 44  1  0  0  0  0
 56 45  1  0  0  0  0
 57 46  1  0  0  0  0
M  END
$$$$
