QYI.pdb
 OpenBabel07022418343D

 59 59  0  0  1  0  0  0  0  0999 V2000
   -0.4490    4.5840   -3.4870 N   0  0  0  0  0  0  0  0  0  0  0  0
   -1.0290    3.2990   -3.3560 C   0  0  0  0  0  0  0  0  0  0  0  0
   -2.2380    3.1590   -3.6580 O   0  0  0  0  0  0  0  0  0  0  0  0
   -0.1940    2.1500   -2.8650 C   0  0  0  0  0  0  0  0  0  0  0  0
   -1.0720    0.9500   -2.7600 C   0  0  0  0  0  0  0  0  0  0  0  0
   -0.3710   -0.3050   -2.2850 C   0  0  2  0  0  0  0  0  0  0  0  0
   -1.4420   -1.3250   -2.2700 N   0  0  0  0  0  0  0  0  0  0  0  0
    0.1650   -0.0800   -0.9430 C   0  0  0  0  0  0  0  0  0  0  0  0
    1.1650    0.6540   -0.7410 O   0  0  0  0  0  0  0  0  0  0  0  0
    0.5410    4.6830   -3.8320 H   0  0  0  0  0  0  0  0  0  0  0  0
   -1.0330    5.4110   -3.2320 H   0  0  0  0  0  0  0  0  0  0  0  0
    0.5820    1.9360   -3.6560 H   0  0  0  0  0  0  0  0  0  0  0  0
    0.3290    2.4150   -1.9490 H   0  0  0  0  0  0  0  0  0  0  0  0
   -1.8670    1.1370   -1.9760 H   0  0  0  0  0  0  0  0  0  0  0  0
   -1.6100    0.7170   -3.6920 H   0  0  0  0  0  0  0  0  0  0  0  0
    0.3730   -0.6830   -3.0080 H   0  0  0  0  0  0  0  0  0  0  0  0
   -2.0660   -1.2090   -3.0860 H   0  0  0  0  0  0  0  0  0  0  0  0
   -1.0570   -2.2800   -2.1560 H   0  0  0  0  0  0  0  0  0  0  0  0
   -2.2300    5.3540    0.3040 O   0  0  0  0  0  0  0  0  0  0  0  0
   -1.8470    4.1310    0.8430 C   0  0  0  0  0  0  0  0  0  0  0  0
   -0.7310    4.0510    1.6560 C   0  0  0  0  0  0  0  0  0  0  0  0
   -0.3700    2.8270    2.1810 C   0  0  0  0  0  0  0  0  0  0  0  0
   -1.0970    1.6900    1.9110 C   0  0  0  0  0  0  0  0  0  0  0  0
   -0.7520    0.3750    2.4410 C   0  0  0  0  0  0  0  0  0  0  0  0
    0.1750   -0.4190    1.5530 C   0  0  2  0  0  0  0  0  0  0  0  0
   -0.3890   -0.6670    0.2470 N   0  0  0  0  0  0  0  0  0  0  0  0
    0.5360   -1.6740    2.2750 C   0  0  0  0  0  0  0  0  0  0  0  0
    1.0470   -1.6060    3.4060 O   0  0  0  0  0  0  0  0  0  0  0  0
   -2.2000    1.8130    1.0970 C   0  0  0  0  0  0  0  0  0  0  0  0
   -2.6010    3.0150    0.5500 C   0  0  0  0  0  0  0  0  0  0  0  0
   -1.5190    5.9350   -0.1660 H   0  0  0  0  0  0  0  0  0  0  0  0
   -0.1570    4.9660    1.8670 H   0  0  0  0  0  0  0  0  0  0  0  0
    0.5250    2.7910    2.8270 H   0  0  0  0  0  0  0  0  0  0  0  0
   -1.6740   -0.2290    2.5740 H   0  0  0  0  0  0  0  0  0  0  0  0
   -0.2330    0.4750    3.4240 H   0  0  0  0  0  0  0  0  0  0  0  0
    1.0880    0.1800    1.4470 H   0  0  0  0  0  0  0  0  0  0  0  0
   -1.2190   -1.2790    0.1020 H   0  0  0  0  0  0  0  0  0  0  0  0
   -2.8240    0.9400    0.8420 H   0  0  0  0  0  0  0  0  0  0  0  0
   -3.4860    3.0830   -0.0970 H   0  0  0  0  0  0  0  0  0  0  0  0
    1.2460   -5.9150   -0.0240 C   0  0  0  0  0  0  0  0  0  0  0  0
    2.2080   -4.9090    0.5600 C   0  0  0  0  0  0  0  0  0  0  0  0
    1.9670   -4.7430    2.0600 C   0  0  2  0  0  0  0  0  0  0  0  0
    2.1870   -6.1070    2.6960 C   0  0  0  0  0  0  0  0  0  0  0  0
    0.5950   -4.2220    2.2970 C   0  0  2  0  0  0  0  0  0  0  0  0
    0.3080   -2.9490    1.7000 N   0  0  0  0  0  0  0  0  0  0  0  0
    0.2150   -4.2620    3.7410 C   0  0  0  0  0  0  0  0  0  0  0  0
   -0.3840   -3.3670    4.3650 O   0  0  0  0  0  0  0  0  0  0  0  0
    0.5410   -5.3940    4.5180 O   0  0  0  0  0  0  0  0  0  0  0  0
    0.7260   -6.4790    0.7680 H   0  0  0  0  0  0  0  0  0  0  0  0
    0.4600   -5.4370   -0.6440 H   0  0  0  0  0  0  0  0  0  0  0  0
    1.7970   -6.6320   -0.6490 H   0  0  0  0  0  0  0  0  0  0  0  0
    3.2450   -5.3380    0.4790 H   0  0  0  0  0  0  0  0  0  0  0  0
    2.1230   -3.9430    0.0380 H   0  0  0  0  0  0  0  0  0  0  0  0
    2.7280   -4.0610    2.4530 H   0  0  0  0  0  0  0  0  0  0  0  0
    1.2590   -6.7000    2.7280 H   0  0  0  0  0  0  0  0  0  0  0  0
    2.6310   -6.0090    3.6980 H   0  0  0  0  0  0  0  0  0  0  0  0
    2.9690   -6.6250    2.0790 H   0  0  0  0  0  0  0  0  0  0  0  0
   -0.1810   -4.9380    1.8290 H   0  0  0  0  0  0  0  0  0  0  0  0
   -0.1190   -2.9600    0.7170 H   0  0  0  0  0  0  0  0  0  0  0  0
  1  2  1  0  0  0  0
  1 11  1  0  0  0  0
  2  4  1  0  0  0  0
  3  2  2  0  0  0  0
  4  5  1  0  0  0  0
  4 13  1  0  0  0  0
  5  6  1  0  0  0  0
  5 14  1  0  0  0  0
  6 16  1  6  0  0  0
  6  7  1  0  0  0  0
  6  8  1  0  0  0  0
  7 18  1  0  0  0  0
  8  9  2  0  0  0  0
  8 26  1  0  0  0  0
 10  1  1  0  0  0  0
 12  4  1  0  0  0  0
 15  5  1  0  0  0  0
 17  7  1  0  0  0  0
 19 20  1  0  0  0  0
 20 21  1  0  0  0  0
 21 32  1  0  0  0  0
 21 22  2  0  0  0  0
 22 33  1  0  0  0  0
 23 22  1  0  0  0  0
 23 24  1  0  0  0  0
 24 34  1  0  0  0  0
 24 35  1  0  0  0  0
 25 36  1  6  0  0  0
 25 27  1  0  0  0  0
 25 24  1  0  0  0  0
 26 25  1  0  0  0  0
 27 28  2  0  0  0  0
 29 23  2  0  0  0  0
 30 20  2  0  0  0  0
 30 29  1  0  0  0  0
 31 19  1  0  0  0  0
 37 26  1  0  0  0  0
 38 29  1  0  0  0  0
 39 30  1  0  0  0  0
 40 41  1  0  0  0  0
 40 49  1  0  0  0  0
 41 42  1  0  0  0  0
 42 44  1  0  0  0  0
 42 54  1  1  0  0  0
 42 43  1  0  0  0  0
 43 55  1  0  0  0  0
 43 56  1  0  0  0  0
 44 58  1  6  0  0  0
 44 46  1  0  0  0  0
 45 27  1  0  0  0  0
 45 44  1  0  0  0  0
 46 47  2  0  0  0  0
 46 48  1  0  0  0  0
 50 40  1  0  0  0  0
 51 40  1  0  0  0  0
 52 41  1  0  0  0  0
 53 41  1  0  0  0  0
 57 43  1  0  0  0  0
 59 45  1  0  0  0  0
M  END
$$$$
