QYM.pdb
 OpenBabel07022418343D

 57 57  0  0  1  0  0  0  0  0999 V2000
   -4.2000   -1.6370    2.6840 N   0  0  0  0  0  0  0  0  0  0  0  0
   -2.9400   -1.0770    3.0630 C   0  0  0  0  0  0  0  0  0  0  0  0
   -1.9420   -1.5110    2.4650 O   0  0  0  0  0  0  0  0  0  0  0  0
   -2.8370   -0.0560    4.0960 C   0  0  0  0  0  0  0  0  0  0  0  0
   -1.5860    0.7410    4.1830 C   0  0  0  0  0  0  0  0  0  0  0  0
   -1.2260    1.5910    3.0260 C   0  0  2  0  0  0  0  0  0  0  0  0
   -2.3180    2.5480    2.7600 N   0  0  0  0  0  0  0  0  0  0  0  0
   -0.8570    0.9490    1.7710 C   0  0  0  0  0  0  0  0  0  0  0  0
   -1.6170    1.0340    0.7760 O   0  0  0  0  0  0  0  0  0  0  0  0
   -4.3260   -2.6580    2.8190 H   0  0  0  0  0  0  0  0  0  0  0  0
   -4.9670   -1.0810    2.2930 H   0  0  0  0  0  0  0  0  0  0  0  0
   -3.0640   -0.5640    5.0860 H   0  0  0  0  0  0  0  0  0  0  0  0
   -3.7400    0.6310    3.9700 H   0  0  0  0  0  0  0  0  0  0  0  0
   -0.7380    0.0110    4.3800 H   0  0  0  0  0  0  0  0  0  0  0  0
   -1.6630    1.3580    5.1330 H   0  0  0  0  0  0  0  0  0  0  0  0
   -0.3570    2.2630    3.3730 H   0  0  0  0  0  0  0  0  0  0  0  0
   -3.0880    2.4800    3.4300 H   0  0  0  0  0  0  0  0  0  0  0  0
   -2.7030    2.4260    1.7980 H   0  0  0  0  0  0  0  0  0  0  0  0
    0.9270    5.7960   -0.9200 O   0  0  0  0  0  0  0  0  0  0  0  0
    1.1700    4.4380   -0.7760 C   0  0  0  0  0  0  0  0  0  0  0  0
    0.9510    3.5760   -1.8020 C   0  0  0  0  0  0  0  0  0  0  0  0
    1.2100    2.2260   -1.6050 C   0  0  0  0  0  0  0  0  0  0  0  0
    1.6780    1.7440   -0.4100 C   0  0  0  0  0  0  0  0  0  0  0  0
    1.9550    0.3170   -0.1930 C   0  0  0  0  0  0  0  0  0  0  0  0
    0.7140   -0.4190    0.3320 C   0  0  2  0  0  0  0  0  0  0  0  0
    0.3610    0.2010    1.5690 N   0  0  0  0  0  0  0  0  0  0  0  0
    1.1110   -1.8440    0.4980 C   0  0  0  0  0  0  0  0  0  0  0  0
    1.1160   -2.4060    1.6460 O   0  0  0  0  0  0  0  0  0  0  0  0
    1.8920    2.6330    0.6130 C   0  0  0  0  0  0  0  0  0  0  0  0
    1.6380    4.0040    0.4410 C   0  0  0  0  0  0  0  0  0  0  0  0
    0.4830    6.2120   -1.7150 H   0  0  0  0  0  0  0  0  0  0  0  0
    0.5830    3.9400   -2.7490 H   0  0  0  0  0  0  0  0  0  0  0  0
    1.0360    1.5400   -2.4210 H   0  0  0  0  0  0  0  0  0  0  0  0
    2.8070    0.1690    0.5340 H   0  0  0  0  0  0  0  0  0  0  0  0
    2.3110   -0.1260   -1.1450 H   0  0  0  0  0  0  0  0  0  0  0  0
   -0.0460   -0.2800   -0.4660 H   0  0  0  0  0  0  0  0  0  0  0  0
    0.9930    0.1300    2.3920 H   0  0  0  0  0  0  0  0  0  0  0  0
    2.2600    2.3060    1.5750 H   0  0  0  0  0  0  0  0  0  0  0  0
    1.8210    4.6620    1.2730 H   0  0  0  0  0  0  0  0  0  0  0  0
   -1.7680   -5.0190   -3.5550 C   0  0  0  0  0  0  0  0  0  0  0  0
   -1.6580   -5.5760   -1.8550 S   0  0  0  0  0  0  0  0  0  0  0  0
   -0.4830   -4.6510   -0.8620 C   0  0  0  0  0  0  0  0  0  0  0  0
    0.9450   -4.8600   -1.3280 C   0  0  0  0  0  0  0  0  0  0  0  0
    1.8950   -4.0520   -0.4490 C   0  0  2  0  0  0  0  0  0  0  0  0
    1.5050   -2.6640   -0.5880 N   0  0  0  0  0  0  0  0  0  0  0  0
    3.2590   -4.2950   -0.9800 C   0  0  0  0  0  0  0  0  0  0  0  0
    3.8790   -3.3180   -1.4620 O   0  0  0  0  0  0  0  0  0  0  0  0
    3.8660   -5.5360   -0.9640 O   0  0  0  0  0  0  0  0  0  0  0  0
   -0.7860   -4.7490   -3.9940 H   0  0  0  0  0  0  0  0  0  0  0  0
   -2.1250   -5.8990   -4.1650 H   0  0  0  0  0  0  0  0  0  0  0  0
   -2.5130   -4.2050   -3.7050 H   0  0  0  0  0  0  0  0  0  0  0  0
   -0.6860   -3.5680   -0.8350 H   0  0  0  0  0  0  0  0  0  0  0  0
   -0.5460   -5.0390    0.1750 H   0  0  0  0  0  0  0  0  0  0  0  0
    1.2150   -5.9290   -1.3610 H   0  0  0  0  0  0  0  0  0  0  0  0
    1.0010   -4.4860   -2.3710 H   0  0  0  0  0  0  0  0  0  0  0  0
    1.8520   -4.3940    0.6020 H   0  0  0  0  0  0  0  0  0  0  0  0
    1.5200   -2.2640   -1.5460 H   0  0  0  0  0  0  0  0  0  0  0  0
  1 10  1  0  0  0  0
  1  2  1  0  0  0  0
  2  4  1  0  0  0  0
  3  2  2  0  0  0  0
  4  5  1  0  0  0  0
  4 12  1  0  0  0  0
  5 14  1  0  0  0  0
  5 15  1  0  0  0  0
  6 16  1  1  0  0  0
  6  5  1  0  0  0  0
  7  6  1  0  0  0  0
  7 17  1  0  0  0  0
  8  6  1  0  0  0  0
  9  8  2  0  0  0  0
 11  1  1  0  0  0  0
 13  4  1  0  0  0  0
 18  7  1  0  0  0  0
 19 20  1  0  0  0  0
 20 30  1  0  0  0  0
 21 22  1  0  0  0  0
 21 20  2  0  0  0  0
 22 23  2  0  0  0  0
 23 24  1  0  0  0  0
 23 29  1  0  0  0  0
 24 25  1  0  0  0  0
 24 34  1  0  0  0  0
 25 36  1  6  0  0  0
 25 27  1  0  0  0  0
 25 26  1  0  0  0  0
 26  8  1  0  0  0  0
 26 37  1  0  0  0  0
 27 28  2  0  0  0  0
 29 38  1  0  0  0  0
 30 29  2  0  0  0  0
 30 39  1  0  0  0  0
 31 19  1  0  0  0  0
 32 21  1  0  0  0  0
 33 22  1  0  0  0  0
 35 24  1  0  0  0  0
 40 41  1  0  0  0  0
 41 42  1  0  0  0  0
 42 52  1  0  0  0  0
 42 53  1  0  0  0  0
 43 42  1  0  0  0  0
 43 44  1  0  0  0  0
 44 56  1  1  0  0  0
 45 44  1  0  0  0  0
 45 27  1  0  0  0  0
 46 48  1  0  0  0  0
 46 44  1  0  0  0  0
 47 46  2  0  0  0  0
 49 40  1  0  0  0  0
 50 40  1  0  0  0  0
 51 40  1  0  0  0  0
 54 43  1  0  0  0  0
 55 43  1  0  0  0  0
 57 45  1  0  0  0  0
M  END
$$$$
