QYN.pdb
 OpenBabel07022418343D

 54 54  0  0  1  0  0  0  0  0999 V2000
   -0.9940    2.8170    7.2300 N   0  0  0  0  0  0  0  0  0  0  0  0
   -0.8950    2.2010    5.9550 C   0  0  0  0  0  0  0  0  0  0  0  0
   -0.7660    2.9060    4.9300 O   0  0  0  0  0  0  0  0  0  0  0  0
   -0.9440    0.7320    5.8610 C   0  0  0  0  0  0  0  0  0  0  0  0
   -0.9370    0.1860    4.4750 C   0  0  0  0  0  0  0  0  0  0  0  0
   -2.1200    0.6420    3.6670 C   0  0  2  0  0  0  0  0  0  0  0  0
   -3.3370    0.1960    4.3280 N   0  0  0  0  0  0  0  0  0  0  0  0
   -2.0390    0.0150    2.3100 C   0  0  0  0  0  0  0  0  0  0  0  0
   -2.9540   -0.7690    1.9510 O   0  0  0  0  0  0  0  0  0  0  0  0
   -1.8850    3.2190    7.6020 H   0  0  0  0  0  0  0  0  0  0  0  0
   -0.1620    2.9020    7.8750 H   0  0  0  0  0  0  0  0  0  0  0  0
   -1.8470    0.3190    6.3900 H   0  0  0  0  0  0  0  0  0  0  0  0
   -0.0460    0.3010    6.3920 H   0  0  0  0  0  0  0  0  0  0  0  0
   -0.0010    0.4810    3.9300 H   0  0  0  0  0  0  0  0  0  0  0  0
   -0.9440   -0.9300    4.4850 H   0  0  0  0  0  0  0  0  0  0  0  0
   -2.1860    1.7220    3.5710 H   0  0  0  0  0  0  0  0  0  0  0  0
   -3.6270    0.8530    5.0870 H   0  0  0  0  0  0  0  0  0  0  0  0
   -4.0670    0.1370    3.5810 H   0  0  0  0  0  0  0  0  0  0  0  0
   -0.7750   -0.2240   -6.3280 O   0  0  0  0  0  0  0  0  0  0  0  0
   -0.8230    0.0360   -4.9670 C   0  0  0  0  0  0  0  0  0  0  0  0
    0.3290    0.3720   -4.3010 C   0  0  0  0  0  0  0  0  0  0  0  0
    0.2820    0.6280   -2.9630 C   0  0  0  0  0  0  0  0  0  0  0  0
   -0.8900    0.5550   -2.2770 C   0  0  0  0  0  0  0  0  0  0  0  0
   -0.9420    0.8250   -0.8510 C   0  0  0  0  0  0  0  0  0  0  0  0
   -0.8560   -0.3180    0.0870 C   0  0  2  0  0  0  0  0  0  0  0  0
   -0.9530    0.2970    1.4400 N   0  0  0  0  0  0  0  0  0  0  0  0
    0.3600   -1.1240    0.0880 C   0  0  0  0  0  0  0  0  0  0  0  0
    1.1530   -1.1370    1.1120 O   0  0  0  0  0  0  0  0  0  0  0  0
   -2.0540    0.2140   -2.9600 C   0  0  0  0  0  0  0  0  0  0  0  0
   -2.0280   -0.0470   -4.3060 C   0  0  0  0  0  0  0  0  0  0  0  0
    0.0700   -0.0620   -6.8540 H   0  0  0  0  0  0  0  0  0  0  0  0
    1.2750    0.4340   -4.8380 H   0  0  0  0  0  0  0  0  0  0  0  0
    1.1840    0.8880   -2.4550 H   0  0  0  0  0  0  0  0  0  0  0  0
   -0.0850    1.5280   -0.6020 H   0  0  0  0  0  0  0  0  0  0  0  0
   -1.8440    1.4410   -0.6200 H   0  0  0  0  0  0  0  0  0  0  0  0
   -1.7750   -0.9770    0.0290 H   0  0  0  0  0  0  0  0  0  0  0  0
   -0.2220    0.9530    1.7860 H   0  0  0  0  0  0  0  0  0  0  0  0
   -2.9780    0.1560   -2.4240 H   0  0  0  0  0  0  0  0  0  0  0  0
   -2.9500   -0.3110   -4.8160 H   0  0  0  0  0  0  0  0  0  0  0  0
    3.5750   -5.2160    0.5550 N   0  0  0  0  0  0  0  0  0  0  0  0
    2.9900   -4.9940   -0.7150 C   0  0  0  0  0  0  0  0  0  0  0  0
    3.5600   -5.4490   -1.7480 O   0  0  0  0  0  0  0  0  0  0  0  0
    1.7240   -4.2340   -0.7930 C   0  0  0  0  0  0  0  0  0  0  0  0
    2.0200   -2.7510   -0.8800 C   0  0  2  0  0  0  0  0  0  0  0  0
    0.8220   -1.9660   -0.9600 N   0  0  0  0  0  0  0  0  0  0  0  0
    2.9740   -2.3960   -1.9260 C   0  0  0  0  0  0  0  0  0  0  0  0
    4.1230   -2.9320   -2.0190 O   0  0  0  0  0  0  0  0  0  0  0  0
    2.6560   -1.4500   -2.8670 O   0  0  0  0  0  0  0  0  0  0  0  0
    4.6330   -5.2360    0.5890 H   0  0  0  0  0  0  0  0  0  0  0  0
    3.0390   -5.3570    1.4390 H   0  0  0  0  0  0  0  0  0  0  0  0
    1.1430   -4.4850    0.1080 H   0  0  0  0  0  0  0  0  0  0  0  0
    1.2120   -4.5490   -1.7320 H   0  0  0  0  0  0  0  0  0  0  0  0
    2.5150   -2.5020    0.1060 H   0  0  0  0  0  0  0  0  0  0  0  0
    0.2520   -2.0130   -1.8270 H   0  0  0  0  0  0  0  0  0  0  0  0
  1 10  1  0  0  0  0
  1 11  1  0  0  0  0
  2  1  1  0  0  0  0
  3  2  2  0  0  0  0
  4  2  1  0  0  0  0
  4 12  1  0  0  0  0
  4 13  1  0  0  0  0
  5 15  1  0  0  0  0
  5  4  1  0  0  0  0
  6 16  1  6  0  0  0
  6  7  1  0  0  0  0
  6  5  1  0  0  0  0
  7 17  1  0  0  0  0
  8  6  1  0  0  0  0
  9  8  2  0  0  0  0
 14  5  1  0  0  0  0
 18  7  1  0  0  0  0
 19 20  1  0  0  0  0
 20 30  2  0  0  0  0
 20 21  1  0  0  0  0
 21 22  2  0  0  0  0
 22 33  1  0  0  0  0
 22 23  1  0  0  0  0
 23 24  1  0  0  0  0
 24 35  1  0  0  0  0
 24 34  1  0  0  0  0
 24 25  1  0  0  0  0
 25 36  1  6  0  0  0
 25 27  1  0  0  0  0
 25 26  1  0  0  0  0
 26 37  1  0  0  0  0
 26  8  1  0  0  0  0
 27 28  2  0  0  0  0
 29 38  1  0  0  0  0
 29 23  2  0  0  0  0
 30 29  1  0  0  0  0
 31 19  1  0  0  0  0
 32 21  1  0  0  0  0
 39 30  1  0  0  0  0
 40 49  1  0  0  0  0
 40 50  1  0  0  0  0
 41 40  1  0  0  0  0
 42 41  2  0  0  0  0
 43 41  1  0  0  0  0
 43 51  1  0  0  0  0
 44 43  1  0  0  0  0
 44 53  1  1  0  0  0
 45 44  1  0  0  0  0
 45 27  1  0  0  0  0
 46 44  1  0  0  0  0
 47 46  1  0  0  0  0
 48 46  2  0  0  0  0
 52 43  1  0  0  0  0
 54 45  1  0  0  0  0
M  END
$$$$
