QYQ.pdb
 OpenBabel07022418343D

 57 57  0  0  1  0  0  0  0  0999 V2000
   -2.1010    0.0300    5.4340 N   0  0  0  0  0  0  0  0  0  0  0  0
   -0.8510    0.4440    4.9560 C   0  0  0  0  0  0  0  0  0  0  0  0
   -0.8770    1.2290    3.9360 O   0  0  0  0  0  0  0  0  0  0  0  0
    0.4490    0.0860    5.4920 C   0  0  0  0  0  0  0  0  0  0  0  0
    1.5920   -0.0380    4.5730 C   0  0  0  0  0  0  0  0  0  0  0  0
    1.5720   -1.1450    3.5690 C   0  0  2  0  0  0  0  0  0  0  0  0
    2.8120   -0.9840    2.7980 N   0  0  0  0  0  0  0  0  0  0  0  0
    0.3940   -1.1300    2.7000 C   0  0  0  0  0  0  0  0  0  0  0  0
   -0.7320   -1.5490    3.0750 O   0  0  0  0  0  0  0  0  0  0  0  0
   -2.7660    0.6520    5.9670 H   0  0  0  0  0  0  0  0  0  0  0  0
   -2.4670   -0.9510    5.2870 H   0  0  0  0  0  0  0  0  0  0  0  0
    0.7070    0.7330    6.3900 H   0  0  0  0  0  0  0  0  0  0  0  0
    0.3200   -0.9330    5.9840 H   0  0  0  0  0  0  0  0  0  0  0  0
    2.5260   -0.1690    5.2100 H   0  0  0  0  0  0  0  0  0  0  0  0
    1.8180    0.9000    4.0040 H   0  0  0  0  0  0  0  0  0  0  0  0
    1.6240   -2.0970    4.1550 H   0  0  0  0  0  0  0  0  0  0  0  0
    2.8990    0.0060    2.4660 H   0  0  0  0  0  0  0  0  0  0  0  0
    3.6380   -1.3100    3.3460 H   0  0  0  0  0  0  0  0  0  0  0  0
    3.8780    3.3050   -2.1850 O   0  0  0  0  0  0  0  0  0  0  0  0
    2.7260    2.7020   -1.6950 C   0  0  0  0  0  0  0  0  0  0  0  0
    2.4870    2.7380   -0.3190 C   0  0  0  0  0  0  0  0  0  0  0  0
    1.3650    2.1620    0.2510 C   0  0  0  0  0  0  0  0  0  0  0  0
    0.4470    1.5300   -0.5450 C   0  0  0  0  0  0  0  0  0  0  0  0
   -0.7610    0.9020    0.0500 C   0  0  0  0  0  0  0  0  0  0  0  0
   -0.5620   -0.5460    0.4210 C   0  0  2  0  0  0  0  0  0  0  0  0
    0.5020   -0.6250    1.3710 N   0  0  0  0  0  0  0  0  0  0  0  0
   -0.3750   -1.4460   -0.7370 C   0  0  0  0  0  0  0  0  0  0  0  0
    0.6420   -2.1790   -0.7500 O   0  0  0  0  0  0  0  0  0  0  0  0
    0.6970    1.5010   -1.9140 C   0  0  0  0  0  0  0  0  0  0  0  0
    1.8010    2.0660   -2.4950 C   0  0  0  0  0  0  0  0  0  0  0  0
    3.8840    3.8360   -3.0510 H   0  0  0  0  0  0  0  0  0  0  0  0
    3.2240    3.2420    0.2950 H   0  0  0  0  0  0  0  0  0  0  0  0
    1.2070    2.2120    1.3440 H   0  0  0  0  0  0  0  0  0  0  0  0
   -1.0610    1.4260    0.9900 H   0  0  0  0  0  0  0  0  0  0  0  0
   -1.6090    0.9630   -0.6860 H   0  0  0  0  0  0  0  0  0  0  0  0
   -1.4970   -0.8410    0.9850 H   0  0  0  0  0  0  0  0  0  0  0  0
    1.4510   -0.2790    1.0630 H   0  0  0  0  0  0  0  0  0  0  0  0
   -0.0530    0.9950   -2.4980 H   0  0  0  0  0  0  0  0  0  0  0  0
    1.9830    2.0350   -3.5510 H   0  0  0  0  0  0  0  0  0  0  0  0
   -2.2430   -4.6450    0.6220 N   0  0  0  0  0  0  0  0  0  0  0  0
   -2.5510   -3.9520   -0.5950 C   0  0  0  0  0  0  0  0  0  0  0  0
   -3.2060   -2.8980   -0.5110 O   0  0  0  0  0  0  0  0  0  0  0  0
   -2.1000   -4.4980   -1.8730 C   0  0  0  0  0  0  0  0  0  0  0  0
   -2.0190   -3.5780   -3.0230 C   0  0  0  0  0  0  0  0  0  0  0  0
   -1.0280   -2.4490   -2.9260 C   0  0  2  0  0  0  0  0  0  0  0  0
   -1.2740   -1.5400   -1.8390 N   0  0  0  0  0  0  0  0  0  0  0  0
   -1.0260   -1.7840   -4.2500 C   0  0  0  0  0  0  0  0  0  0  0  0
   -0.8160   -2.4790   -5.2730 O   0  0  0  0  0  0  0  0  0  0  0  0
   -1.2390   -0.4310   -4.4680 O   0  0  0  0  0  0  0  0  0  0  0  0
   -1.3800   -4.4360    1.1460 H   0  0  0  0  0  0  0  0  0  0  0  0
   -2.9110   -5.3730    0.9810 H   0  0  0  0  0  0  0  0  0  0  0  0
   -1.0820   -5.0000   -1.7630 H   0  0  0  0  0  0  0  0  0  0  0  0
   -2.7590   -5.3920   -2.1470 H   0  0  0  0  0  0  0  0  0  0  0  0
   -1.7620   -4.1470   -3.9650 H   0  0  0  0  0  0  0  0  0  0  0  0
   -3.0420   -3.1620   -3.2190 H   0  0  0  0  0  0  0  0  0  0  0  0
   -0.0090   -2.9180   -2.7520 H   0  0  0  0  0  0  0  0  0  0  0  0
   -2.0920   -0.8890   -1.7940 H   0  0  0  0  0  0  0  0  0  0  0  0
  1 10  1  0  0  0  0
  2  1  1  0  0  0  0
  2  4  1  0  0  0  0
  3  2  2  0  0  0  0
  4 13  1  0  0  0  0
  4 12  1  0  0  0  0
  5 14  1  0  0  0  0
  5  4  1  0  0  0  0
  6 16  1  1  0  0  0
  6  5  1  0  0  0  0
  7 18  1  0  0  0  0
  7  6  1  0  0  0  0
  8  9  2  0  0  0  0
  8  6  1  0  0  0  0
 11  1  1  0  0  0  0
 15  5  1  0  0  0  0
 17  7  1  0  0  0  0
 19 20  1  0  0  0  0
 20 21  1  0  0  0  0
 21 22  2  0  0  0  0
 21 32  1  0  0  0  0
 22 33  1  0  0  0  0
 23 24  1  0  0  0  0
 23 22  1  0  0  0  0
 24 25  1  0  0  0  0
 24 34  1  0  0  0  0
 25 36  1  1  0  0  0
 25 26  1  0  0  0  0
 26  8  1  0  0  0  0
 27 25  1  0  0  0  0
 28 27  2  0  0  0  0
 29 23  2  0  0  0  0
 30 29  1  0  0  0  0
 30 20  2  0  0  0  0
 31 19  1  0  0  0  0
 35 24  1  0  0  0  0
 37 26  1  0  0  0  0
 38 29  1  0  0  0  0
 39 30  1  0  0  0  0
 40 51  1  0  0  0  0
 40 50  1  0  0  0  0
 41 42  2  0  0  0  0
 41 40  1  0  0  0  0
 43 52  1  0  0  0  0
 43 41  1  0  0  0  0
 44 45  1  0  0  0  0
 44 43  1  0  0  0  0
 45 56  1  1  0  0  0
 45 46  1  0  0  0  0
 46 57  1  0  0  0  0
 46 27  1  0  0  0  0
 47 45  1  0  0  0  0
 48 47  2  0  0  0  0
 49 47  1  0  0  0  0
 53 43  1  0  0  0  0
 54 44  1  0  0  0  0
 55 44  1  0  0  0  0
M  END
$$$$
