QYR.pdb
 OpenBabel07022418343D

 63 63  0  0  1  0  0  0  0  0999 V2000
    2.3600    0.4020    5.7870 N   0  0  0  0  0  0  0  0  0  0  0  0
    2.9600    0.3630    4.5050 C   0  0  0  0  0  0  0  0  0  0  0  0
    2.5520    1.2330    3.6560 O   0  0  0  0  0  0  0  0  0  0  0  0
    4.0080   -0.6060    4.1210 C   0  0  0  0  0  0  0  0  0  0  0  0
    4.1230   -0.8280    2.6580 C   0  0  0  0  0  0  0  0  0  0  0  0
    2.9530   -1.5020    2.0000 C   0  0  2  0  0  0  0  0  0  0  0  0
    3.2250   -1.5860    0.5640 N   0  0  0  0  0  0  0  0  0  0  0  0
    1.6180   -1.0210    2.3290 C   0  0  0  0  0  0  0  0  0  0  0  0
    1.0510   -1.2880    3.4520 O   0  0  0  0  0  0  0  0  0  0  0  0
    1.4980    0.9460    5.9620 H   0  0  0  0  0  0  0  0  0  0  0  0
    2.7540   -0.1110    6.6150 H   0  0  0  0  0  0  0  0  0  0  0  0
    5.0010   -0.2660    4.4900 H   0  0  0  0  0  0  0  0  0  0  0  0
    3.7300   -1.5780    4.5950 H   0  0  0  0  0  0  0  0  0  0  0  0
    5.0900   -1.3060    2.3650 H   0  0  0  0  0  0  0  0  0  0  0  0
    4.1540    0.2100    2.1940 H   0  0  0  0  0  0  0  0  0  0  0  0
    2.9960   -2.5740    2.3820 H   0  0  0  0  0  0  0  0  0  0  0  0
    4.0360   -2.2410    0.4240 H   0  0  0  0  0  0  0  0  0  0  0  0
    3.6000   -0.6300    0.2830 H   0  0  0  0  0  0  0  0  0  0  0  0
    0.9170    4.7560   -2.5710 O   0  0  0  0  0  0  0  0  0  0  0  0
    0.5920    4.0140   -1.4450 C   0  0  0  0  0  0  0  0  0  0  0  0
   -0.7360    3.7310   -1.2120 C   0  0  0  0  0  0  0  0  0  0  0  0
   -1.1080    2.9920   -0.0990 C   0  0  0  0  0  0  0  0  0  0  0  0
   -0.1750    2.5240    0.7980 C   0  0  0  0  0  0  0  0  0  0  0  0
   -0.5540    1.7420    1.9610 C   0  0  0  0  0  0  0  0  0  0  0  0
   -0.5160    0.2480    1.8070 C   0  0  2  0  0  0  0  0  0  0  0  0
    0.8090   -0.2220    1.4710 N   0  0  0  0  0  0  0  0  0  0  0  0
   -1.5280   -0.2100    0.8100 C   0  0  0  0  0  0  0  0  0  0  0  0
   -2.7300    0.1350    0.9010 O   0  0  0  0  0  0  0  0  0  0  0  0
    1.1500    2.8150    0.5540 C   0  0  0  0  0  0  0  0  0  0  0  0
    1.5290    3.5540   -0.5590 C   0  0  0  0  0  0  0  0  0  0  0  0
    0.5720    5.7170   -2.5830 H   0  0  0  0  0  0  0  0  0  0  0  0
   -1.4740    4.0890   -1.9040 H   0  0  0  0  0  0  0  0  0  0  0  0
   -2.1740    2.8190    0.0150 H   0  0  0  0  0  0  0  0  0  0  0  0
    0.0430    2.0280    2.8800 H   0  0  0  0  0  0  0  0  0  0  0  0
   -1.6150    1.9780    2.2770 H   0  0  0  0  0  0  0  0  0  0  0  0
   -0.8150   -0.1390    2.8360 H   0  0  0  0  0  0  0  0  0  0  0  0
    1.1960    0.0410    0.5450 H   0  0  0  0  0  0  0  0  0  0  0  0
    1.9540    2.4910    1.2010 H   0  0  0  0  0  0  0  0  0  0  0  0
    2.5570    3.7660   -0.7270 H   0  0  0  0  0  0  0  0  0  0  0  0
   -4.4830   -4.8760   -3.1340 N   0  0  0  0  0  0  0  0  0  0  0  0
   -3.1020   -4.5950   -2.9800 C   0  0  0  0  0  0  0  0  0  0  0  0
   -2.5190   -3.7260   -3.7480 N   0  0  0  0  0  0  0  0  0  0  0  0
   -2.2900   -5.2180   -2.0210 N   0  0  0  0  0  0  0  0  0  0  0  0
   -1.3640   -4.5820   -1.1320 C   0  0  0  0  0  0  0  0  0  0  0  0
   -2.1000   -3.7830   -0.1020 C   0  0  0  0  0  0  0  0  0  0  0  0
   -2.8720   -2.6460   -0.6490 C   0  0  0  0  0  0  0  0  0  0  0  0
   -2.0340   -1.5690   -1.2930 C   0  0  2  0  0  0  0  0  0  0  0  0
   -1.1580   -1.0550   -0.2710 N   0  0  0  0  0  0  0  0  0  0  0  0
   -2.9470   -0.5670   -1.8890 C   0  0  0  0  0  0  0  0  0  0  0  0
   -3.8080   -0.9140   -2.7620 O   0  0  0  0  0  0  0  0  0  0  0  0
   -2.9510    0.7720   -1.5760 O   0  0  0  0  0  0  0  0  0  0  0  0
   -5.0660   -4.2290   -3.6850 H   0  0  0  0  0  0  0  0  0  0  0  0
   -4.9120   -5.7130   -2.7070 H   0  0  0  0  0  0  0  0  0  0  0  0
   -2.9600   -3.1910   -4.4930 H   0  0  0  0  0  0  0  0  0  0  0  0
   -2.3790   -6.2790   -1.9380 H   0  0  0  0  0  0  0  0  0  0  0  0
   -0.6990   -3.8560   -1.6690 H   0  0  0  0  0  0  0  0  0  0  0  0
   -0.7380   -5.3180   -0.5750 H   0  0  0  0  0  0  0  0  0  0  0  0
   -1.3800   -3.4140    0.6630 H   0  0  0  0  0  0  0  0  0  0  0  0
   -2.8070   -4.4420    0.4920 H   0  0  0  0  0  0  0  0  0  0  0  0
   -3.7200   -2.9260   -1.2920 H   0  0  0  0  0  0  0  0  0  0  0  0
   -3.3590   -2.1330    0.2390 H   0  0  0  0  0  0  0  0  0  0  0  0
   -1.3740   -1.9490   -2.1220 H   0  0  0  0  0  0  0  0  0  0  0  0
   -0.1220   -1.3040   -0.2790 H   0  0  0  0  0  0  0  0  0  0  0  0
  1 10  1  0  0  0  0
  1 11  1  0  0  0  0
  2  1  1  0  0  0  0
  3  2  2  0  0  0  0
  4 12  1  0  0  0  0
  4  2  1  0  0  0  0
  4 13  1  0  0  0  0
  5  4  1  0  0  0  0
  6  8  1  0  0  0  0
  6 16  1  1  0  0  0
  6  5  1  0  0  0  0
  7  6  1  0  0  0  0
  8  9  2  0  0  0  0
 14  5  1  0  0  0  0
 15  5  1  0  0  0  0
 17  7  1  0  0  0  0
 18  7  1  0  0  0  0
 19 20  1  0  0  0  0
 20 21  2  0  0  0  0
 20 30  1  0  0  0  0
 21 22  1  0  0  0  0
 22 33  1  0  0  0  0
 22 23  2  0  0  0  0
 23 24  1  0  0  0  0
 24 35  1  0  0  0  0
 24 34  1  0  0  0  0
 25 24  1  0  0  0  0
 25 36  1  1  0  0  0
 26 25  1  0  0  0  0
 26  8  1  0  0  0  0
 27 28  2  0  0  0  0
 27 25  1  0  0  0  0
 29 23  1  0  0  0  0
 29 38  1  0  0  0  0
 30 29  2  0  0  0  0
 31 19  1  0  0  0  0
 32 21  1  0  0  0  0
 37 26  1  0  0  0  0
 39 30  1  0  0  0  0
 40 41  1  0  0  0  0
 40 53  1  0  0  0  0
 41 43  1  0  0  0  0
 42 41  2  0  0  0  0
 43 55  1  0  0  0  0
 43 44  1  0  0  0  0
 44 57  1  0  0  0  0
 44 45  1  0  0  0  0
 45 59  1  0  0  0  0
 45 58  1  0  0  0  0
 46 45  1  0  0  0  0
 46 61  1  0  0  0  0
 47 62  1  6  0  0  0
 47 46  1  0  0  0  0
 47 48  1  0  0  0  0
 48 27  1  0  0  0  0
 49 51  1  0  0  0  0
 49 47  1  0  0  0  0
 50 49  2  0  0  0  0
 52 40  1  0  0  0  0
 54 42  1  0  0  0  0
 56 44  1  0  0  0  0
 60 46  1  0  0  0  0
 63 48  1  0  0  0  0
M  END
$$$$
