QYY.pdb
 OpenBabel07022418343D

 61 62  0  0  1  0  0  0  0  0999 V2000
    1.5440   -0.9020    6.3260 N   0  0  0  0  0  0  0  0  0  0  0  0
    1.7340    0.1000    5.3390 C   0  0  0  0  0  0  0  0  0  0  0  0
    0.7210    0.4650    4.6540 O   0  0  0  0  0  0  0  0  0  0  0  0
    3.0350    0.7070    5.1050 C   0  0  0  0  0  0  0  0  0  0  0  0
    3.3440    1.2110    3.7560 C   0  0  0  0  0  0  0  0  0  0  0  0
    3.4660    0.2660    2.6280 C   0  0  2  0  0  0  0  0  0  0  0  0
    3.7460    1.1200    1.4430 N   0  0  0  0  0  0  0  0  0  0  0  0
    2.2670   -0.4970    2.3610 C   0  0  0  0  0  0  0  0  0  0  0  0
    1.9520   -1.5740    2.9610 O   0  0  0  0  0  0  0  0  0  0  0  0
    1.7970   -0.7260    7.3330 H   0  0  0  0  0  0  0  0  0  0  0  0
    1.1450   -1.8150    6.0170 H   0  0  0  0  0  0  0  0  0  0  0  0
    3.0850    1.6060    5.7980 H   0  0  0  0  0  0  0  0  0  0  0  0
    3.8750    0.0560    5.4480 H   0  0  0  0  0  0  0  0  0  0  0  0
    2.6310    2.0200    3.4250 H   0  0  0  0  0  0  0  0  0  0  0  0
    4.3380    1.7500    3.8350 H   0  0  0  0  0  0  0  0  0  0  0  0
    4.3910   -0.3710    2.6850 H   0  0  0  0  0  0  0  0  0  0  0  0
    3.1800    1.9970    1.4870 H   0  0  0  0  0  0  0  0  0  0  0  0
    3.6060    0.5750    0.5640 H   0  0  0  0  0  0  0  0  0  0  0  0
   -0.4450    5.1840   -1.4830 O   0  0  0  0  0  0  0  0  0  0  0  0
   -0.5780    3.9740   -0.7790 C   0  0  0  0  0  0  0  0  0  0  0  0
    0.0310    3.7950    0.4470 C   0  0  0  0  0  0  0  0  0  0  0  0
   -0.0810    2.6270    1.1550 C   0  0  0  0  0  0  0  0  0  0  0  0
   -0.8180    1.5910    0.6430 C   0  0  0  0  0  0  0  0  0  0  0  0
   -0.9750    0.2970    1.3750 C   0  0  0  0  0  0  0  0  0  0  0  0
    0.1490   -0.6790    0.9990 C   0  0  2  0  0  0  0  0  0  0  0  0
    1.3640   -0.0190    1.3570 N   0  0  0  0  0  0  0  0  0  0  0  0
    0.1240   -0.9220   -0.4560 C   0  0  0  0  0  0  0  0  0  0  0  0
    1.0770   -0.4710   -1.1540 O   0  0  0  0  0  0  0  0  0  0  0  0
   -1.4370    1.7320   -0.5730 C   0  0  0  0  0  0  0  0  0  0  0  0
   -1.3110    2.9160   -1.2680 C   0  0  0  0  0  0  0  0  0  0  0  0
   -0.7930    5.2420   -2.4200 H   0  0  0  0  0  0  0  0  0  0  0  0
    0.6150    4.6290    0.8450 H   0  0  0  0  0  0  0  0  0  0  0  0
    0.4100    2.5000    2.1320 H   0  0  0  0  0  0  0  0  0  0  0  0
   -0.9230    0.5360    2.4560 H   0  0  0  0  0  0  0  0  0  0  0  0
   -1.9650   -0.1300    1.1800 H   0  0  0  0  0  0  0  0  0  0  0  0
   -0.0250   -1.6040    1.5880 H   0  0  0  0  0  0  0  0  0  0  0  0
    1.6090    0.8620    0.8560 H   0  0  0  0  0  0  0  0  0  0  0  0
   -2.0380    0.9170   -1.0090 H   0  0  0  0  0  0  0  0  0  0  0  0
   -1.8080    3.0080   -2.2270 H   0  0  0  0  0  0  0  0  0  0  0  0
   -4.4850   -6.6820   -0.5500 O   0  0  0  0  0  0  0  0  0  0  0  0
   -3.5640   -5.8470   -1.1750 C   0  0  0  0  0  0  0  0  0  0  0  0
   -2.4230   -5.4930   -0.4520 C   0  0  0  0  0  0  0  0  0  0  0  0
   -1.4710   -4.6730   -1.0050 C   0  0  0  0  0  0  0  0  0  0  0  0
   -1.6310   -4.1810   -2.2960 C   0  0  0  0  0  0  0  0  0  0  0  0
   -0.5700   -3.2980   -2.8520 C   0  0  0  0  0  0  0  0  0  0  0  0
   -0.8680   -1.8380   -2.5110 C   0  0  2  0  0  0  0  0  0  0  0  0
   -0.9240   -1.6420   -1.0920 N   0  0  0  0  0  0  0  0  0  0  0  0
   -2.1510   -1.4810   -3.1470 C   0  0  0  0  0  0  0  0  0  0  0  0
   -2.3120   -1.5360   -4.4010 O   0  0  0  0  0  0  0  0  0  0  0  0
   -2.7640   -4.5500   -2.9760 C   0  0  0  0  0  0  0  0  0  0  0  0
   -3.7380   -5.3690   -2.4550 C   0  0  0  0  0  0  0  0  0  0  0  0
   -3.2430   -1.0710   -2.4150 O   0  0  0  0  0  0  0  0  0  0  0  0
   -5.4370   -6.3880   -0.3880 H   0  0  0  0  0  0  0  0  0  0  0  0
   -2.3060   -5.8840    0.5620 H   0  0  0  0  0  0  0  0  0  0  0  0
   -0.5700   -4.3860   -0.4490 H   0  0  0  0  0  0  0  0  0  0  0  0
   -0.5680   -3.3720   -3.9450 H   0  0  0  0  0  0  0  0  0  0  0  0
    0.3930   -3.5470   -2.3800 H   0  0  0  0  0  0  0  0  0  0  0  0
   -0.0220   -1.2520   -2.9610 H   0  0  0  0  0  0  0  0  0  0  0  0
   -1.7130   -2.0170   -0.5350 H   0  0  0  0  0  0  0  0  0  0  0  0
   -2.9000   -4.1740   -3.9880 H   0  0  0  0  0  0  0  0  0  0  0  0
   -4.6280   -5.6600   -2.9870 H   0  0  0  0  0  0  0  0  0  0  0  0
  1 10  1  0  0  0  0
  2  1  1  0  0  0  0
  3  2  2  0  0  0  0
  4  2  1  0  0  0  0
  4 13  1  0  0  0  0
  4 12  1  0  0  0  0
  5 15  1  0  0  0  0
  5  4  1  0  0  0  0
  6 16  1  1  0  0  0
  6  5  1  0  0  0  0
  7 17  1  0  0  0  0
  7  6  1  0  0  0  0
  8  6  1  0  0  0  0
  8  9  2  0  0  0  0
 11  1  1  0  0  0  0
 14  5  1  0  0  0  0
 18  7  1  0  0  0  0
 19 20  1  0  0  0  0
 20 21  1  0  0  0  0
 21 32  1  0  0  0  0
 21 22  2  0  0  0  0
 22 33  1  0  0  0  0
 23 22  1  0  0  0  0
 23 24  1  0  0  0  0
 24 34  1  0  0  0  0
 25 26  1  0  0  0  0
 25 24  1  0  0  0  0
 25 36  1  1  0  0  0
 26  8  1  0  0  0  0
 27 25  1  0  0  0  0
 28 27  2  0  0  0  0
 29 23  2  0  0  0  0
 30 20  2  0  0  0  0
 30 29  1  0  0  0  0
 31 19  1  0  0  0  0
 35 24  1  0  0  0  0
 37 26  1  0  0  0  0
 38 29  1  0  0  0  0
 39 30  1  0  0  0  0
 40 53  1  0  0  0  0
 41 40  1  0  0  0  0
 41 42  1  0  0  0  0
 42 54  1  0  0  0  0
 43 42  2  0  0  0  0
 43 55  1  0  0  0  0
 44 43  1  0  0  0  0
 45 46  1  0  0  0  0
 45 57  1  0  0  0  0
 45 44  1  0  0  0  0
 46 58  1  6  0  0  0
 46 47  1  0  0  0  0
 47 59  1  0  0  0  0
 47 27  1  0  0  0  0
 48 46  1  0  0  0  0
 48 52  1  0  0  0  0
 49 48  2  0  0  0  0
 50 51  1  0  0  0  0
 50 44  2  0  0  0  0
 51 41  2  0  0  0  0
 56 45  1  0  0  0  0
 60 50  1  0  0  0  0
 61 51  1  0  0  0  0
M  END
$$$$
