RAC.pdb
 OpenBabel07022418033D

 46 45  0  0  1  0  0  0  0  0999 V2000
    2.2290   -6.8960    1.1840 N   0  0  0  0  0  0  0  0  0  0  0  0
    2.7910   -5.5860    1.2270 C   0  0  0  0  0  0  0  0  0  0  0  0
    2.5080   -4.7800    2.1800 N   0  0  0  0  0  0  0  0  0  0  0  0
    3.6850   -5.1040    0.2340 N   0  0  0  0  0  0  0  0  0  0  0  0
    3.9660   -3.7190    0.1600 C   0  0  0  0  0  0  0  0  0  0  0  0
    2.8190   -2.8530   -0.2760 C   0  0  0  0  0  0  0  0  0  0  0  0
    3.3120   -1.4260   -0.2890 C   0  0  0  0  0  0  0  0  0  0  0  0
    2.3110   -0.4130   -0.7110 C   0  0  2  0  0  0  0  0  0  0  0  0
    2.9740    0.9020   -0.6570 N   0  0  0  0  0  0  0  0  0  0  0  0
    1.0570   -0.3760    0.0300 C   0  0  0  0  0  0  0  0  0  0  0  0
    0.3290   -1.3940    0.0840 O   0  0  0  0  0  0  0  0  0  0  0  0
    2.7750   -7.7570    1.0830 H   0  0  0  0  0  0  0  0  0  0  0  0
    1.1900   -6.9600    1.2620 H   0  0  0  0  0  0  0  0  0  0  0  0
    1.8430   -5.1020    2.9430 H   0  0  0  0  0  0  0  0  0  0  0  0
    4.1310   -5.7670   -0.4370 H   0  0  0  0  0  0  0  0  0  0  0  0
    4.8050   -3.5380   -0.5400 H   0  0  0  0  0  0  0  0  0  0  0  0
    4.2880   -3.3420    1.1660 H   0  0  0  0  0  0  0  0  0  0  0  0
    2.0200   -2.9000    0.5190 H   0  0  0  0  0  0  0  0  0  0  0  0
    2.4140   -3.0790   -1.2600 H   0  0  0  0  0  0  0  0  0  0  0  0
    4.2090   -1.3190   -0.9600 H   0  0  0  0  0  0  0  0  0  0  0  0
    3.7070   -1.1250    0.7260 H   0  0  0  0  0  0  0  0  0  0  0  0
    2.0930   -0.5690   -1.7930 H   0  0  0  0  0  0  0  0  0  0  0  0
    2.6360    1.5250   -1.4050 H   0  0  0  0  0  0  0  0  0  0  0  0
    4.0080    0.7770   -0.6740 H   0  0  0  0  0  0  0  0  0  0  0  0
   -0.4490    1.0280    2.9210 C   0  0  0  0  0  0  0  0  0  0  0  0
   -0.6490    0.7590    1.4290 C   0  0  2  0  0  0  0  0  0  0  0  0
    0.5950    0.7790    0.7160 N   0  0  0  0  0  0  0  0  0  0  0  0
   -1.6140    1.7590    0.9250 C   0  0  0  0  0  0  0  0  0  0  0  0
   -1.2950    2.5020   -0.0320 O   0  0  0  0  0  0  0  0  0  0  0  0
   -0.2130    0.0850    3.4470 H   0  0  0  0  0  0  0  0  0  0  0  0
   -1.3610    1.4420    3.3880 H   0  0  0  0  0  0  0  0  0  0  0  0
    0.3730    1.7460    3.0820 H   0  0  0  0  0  0  0  0  0  0  0  0
   -1.0890   -0.2590    1.3370 H   0  0  0  0  0  0  0  0  0  0  0  0
    1.1490    1.6700    0.7160 H   0  0  0  0  0  0  0  0  0  0  0  0
   -2.9020    1.9050    1.4970 N   0  0  0  0  0  0  0  0  0  0  0  0
   -3.7920    2.9070    0.9450 C   0  0  1  0  0  0  0  0  0  0  0  0
   -5.0650    2.1860    0.5360 C   0  0  0  0  0  0  0  0  0  0  0  0
   -6.2900    3.2890   -0.1750 S   0  0  0  0  0  0  0  0  0  0  0  0
   -4.1580    3.9020    1.9840 C   0  0  0  0  0  0  0  0  0  0  0  0
   -4.9170    4.8520    1.7030 O   0  0  0  0  0  0  0  0  0  0  0  0
   -3.6490    3.7660    3.2690 O   0  0  0  0  0  0  0  0  0  0  0  0
   -3.2320    1.3120    2.3050 H   0  0  0  0  0  0  0  0  0  0  0  0
   -3.3230    3.4290    0.1010 H   0  0  0  0  0  0  0  0  0  0  0  0
   -5.4740    1.7280    1.4390 H   0  0  0  0  0  0  0  0  0  0  0  0
   -4.8730    1.3680   -0.1900 H   0  0  0  0  0  0  0  0  0  0  0  0
   -7.1110    2.5860   -1.0930 H   0  0  0  0  0  0  0  0  0  0  0  0
  1  2  1  0  0  0  0
  1 13  1  0  0  0  0
  2  3  2  0  0  0  0
  3 14  1  0  0  0  0
  4  2  1  0  0  0  0
  5  4  1  0  0  0  0
  5 17  1  0  0  0  0
  6  5  1  0  0  0  0
  6 18  1  0  0  0  0
  7  6  1  0  0  0  0
  7 21  1  0  0  0  0
  8 22  1  6  0  0  0
  8  9  1  0  0  0  0
  8  7  1  0  0  0  0
  8 10  1  0  0  0  0
 10 11  2  0  0  0  0
 10 27  1  0  0  0  0
 12  1  1  0  0  0  0
 15  4  1  0  0  0  0
 16  5  1  0  0  0  0
 19  6  1  0  0  0  0
 20  7  1  0  0  0  0
 23  9  1  0  0  0  0
 24  9  1  0  0  0  0
 25 32  1  0  0  0  0
 25 31  1  0  0  0  0
 25 30  1  0  0  0  0
 26 33  1  6  0  0  0
 26 25  1  0  0  0  0
 27 34  1  0  0  0  0
 27 26  1  0  0  0  0
 28 26  1  0  0  0  0
 28 35  1  0  0  0  0
 29 28  2  0  0  0  0
 35 42  1  0  0  0  0
 36 43  1  6  0  0  0
 36 35  1  0  0  0  0
 36 39  1  0  0  0  0
 37 36  1  0  0  0  0
 37 44  1  0  0  0  0
 38 37  1  0  0  0  0
 39 41  1  0  0  0  0
 40 39  2  0  0  0  0
 45 37  1  0  0  0  0
 46 38  1  0  0  0  0
M  END
$$$$
