RAD.pdb
 OpenBabel07022418033D

 48 47  0  0  1  0  0  0  0  0999 V2000
    5.1180   -3.8750    3.2330 N   0  0  0  0  0  0  0  0  0  0  0  0
    4.9380   -2.6350    2.5860 C   0  0  0  0  0  0  0  0  0  0  0  0
    5.2310   -1.5150    3.1980 N   0  0  0  0  0  0  0  0  0  0  0  0
    4.4430   -2.5050    1.2640 N   0  0  0  0  0  0  0  0  0  0  0  0
    4.2200   -1.2000    0.6590 C   0  0  0  0  0  0  0  0  0  0  0  0
    3.6940   -1.3030   -0.7290 C   0  0  0  0  0  0  0  0  0  0  0  0
    3.4410   -0.0450   -1.4550 C   0  0  0  0  0  0  0  0  0  0  0  0
    2.4660    0.9090   -0.8790 C   0  0  2  0  0  0  0  0  0  0  0  0
    2.8880    1.3380    0.4170 N   0  0  0  0  0  0  0  0  0  0  0  0
    1.1000    0.3250   -0.8580 C   0  0  0  0  0  0  0  0  0  0  0  0
    0.5940   -0.0990   -1.9170 O   0  0  0  0  0  0  0  0  0  0  0  0
    4.3630   -4.2620    3.8330 H   0  0  0  0  0  0  0  0  0  0  0  0
    5.9910   -4.4150    3.1260 H   0  0  0  0  0  0  0  0  0  0  0  0
    5.5970   -1.5540    4.1680 H   0  0  0  0  0  0  0  0  0  0  0  0
    4.2310   -3.3470    0.7090 H   0  0  0  0  0  0  0  0  0  0  0  0
    5.1070   -0.5470    0.7010 H   0  0  0  0  0  0  0  0  0  0  0  0
    3.4710   -0.7150    1.3560 H   0  0  0  0  0  0  0  0  0  0  0  0
    2.7870   -1.9680   -0.7980 H   0  0  0  0  0  0  0  0  0  0  0  0
    4.4720   -1.8710   -1.3200 H   0  0  0  0  0  0  0  0  0  0  0  0
    3.0490   -0.3270   -2.4770 H   0  0  0  0  0  0  0  0  0  0  0  0
    4.4020    0.5110   -1.6650 H   0  0  0  0  0  0  0  0  0  0  0  0
    2.3920    1.8280   -1.5110 H   0  0  0  0  0  0  0  0  0  0  0  0
    3.8210    1.7680    0.4000 H   0  0  0  0  0  0  0  0  0  0  0  0
    2.2300    2.0010    0.8800 H   0  0  0  0  0  0  0  0  0  0  0  0
   -0.9760   -1.6620    1.0460 C   0  0  0  0  0  0  0  0  0  0  0  0
   -0.9790   -0.3550    0.2570 C   0  0  2  0  0  0  0  0  0  0  0  0
    0.3110    0.2130    0.3110 N   0  0  0  0  0  0  0  0  0  0  0  0
   -2.0850    0.4550    0.7540 C   0  0  0  0  0  0  0  0  0  0  0  0
   -2.0180    1.6190    1.2200 O   0  0  0  0  0  0  0  0  0  0  0  0
   -1.3680   -1.4740    2.0540 H   0  0  0  0  0  0  0  0  0  0  0  0
   -1.5890   -2.4480    0.5280 H   0  0  0  0  0  0  0  0  0  0  0  0
    0.0680   -2.0310    1.0780 H   0  0  0  0  0  0  0  0  0  0  0  0
   -1.2270   -0.6710   -0.8010 H   0  0  0  0  0  0  0  0  0  0  0  0
    0.6870    0.5530    1.2240 H   0  0  0  0  0  0  0  0  0  0  0  0
   -3.3880   -0.1250    0.7140 N   0  0  0  0  0  0  0  0  0  0  0  0
   -4.5390    0.5950    1.1800 C   0  0  1  0  0  0  0  0  0  0  0  0
   -5.5610    0.8600    0.1100 C   0  0  0  0  0  0  0  0  0  0  0  0
   -6.1140   -0.3530   -0.5100 C   0  0  0  0  0  0  0  0  0  0  0  0
   -6.9370   -0.2540   -1.4450 O   0  0  0  0  0  0  0  0  0  0  0  0
   -5.0980   -0.1020    2.3480 C   0  0  0  0  0  0  0  0  0  0  0  0
   -4.5800   -1.1480    2.7860 O   0  0  0  0  0  0  0  0  0  0  0  0
   -5.7410   -1.6040   -0.0770 O   0  0  0  0  0  0  0  0  0  0  0  0
   -6.2160    0.4080    2.9740 O   0  0  0  0  0  0  0  0  0  0  0  0
   -3.5200   -1.1110    0.3320 H   0  0  0  0  0  0  0  0  0  0  0  0
   -4.2020    1.6170    1.5250 H   0  0  0  0  0  0  0  0  0  0  0  0
   -6.4450    1.3920    0.5740 H   0  0  0  0  0  0  0  0  0  0  0  0
   -5.1830    1.5920   -0.6390 H   0  0  0  0  0  0  0  0  0  0  0  0
   -5.8810   -2.4000   -0.6860 H   0  0  0  0  0  0  0  0  0  0  0  0
  1 12  1  0  0  0  0
  2  3  2  0  0  0  0
  2  1  1  0  0  0  0
  3 14  1  0  0  0  0
  4  2  1  0  0  0  0
  5 16  1  0  0  0  0
  5  4  1  0  0  0  0
  5 17  1  0  0  0  0
  6  5  1  0  0  0  0
  7  8  1  0  0  0  0
  7  6  1  0  0  0  0
  8 22  1  6  0  0  0
  8 10  1  0  0  0  0
  8  9  1  0  0  0  0
  9 24  1  0  0  0  0
 10 27  1  0  0  0  0
 11 10  2  0  0  0  0
 13  1  1  0  0  0  0
 15  4  1  0  0  0  0
 18  6  1  0  0  0  0
 19  6  1  0  0  0  0
 20  7  1  0  0  0  0
 21  7  1  0  0  0  0
 23  9  1  0  0  0  0
 25 32  1  0  0  0  0
 25 30  1  0  0  0  0
 26 33  1  6  0  0  0
 26 27  1  0  0  0  0
 26 28  1  0  0  0  0
 26 25  1  0  0  0  0
 27 34  1  0  0  0  0
 28 29  2  0  0  0  0
 31 25  1  0  0  0  0
 35 28  1  0  0  0  0
 35 36  1  0  0  0  0
 36 45  1  1  0  0  0
 36 40  1  0  0  0  0
 37 46  1  0  0  0  0
 37 36  1  0  0  0  0
 38 42  1  0  0  0  0
 38 37  1  0  0  0  0
 39 38  2  0  0  0  0
 40 41  2  0  0  0  0
 40 43  1  0  0  0  0
 44 35  1  0  0  0  0
 47 37  1  0  0  0  0
 48 42  1  0  0  0  0
M  END
$$$$
