RAI.pdb
 OpenBabel07022418033D

 54 53  0  0  1  0  0  0  0  0999 V2000
    3.9390   -4.1850    4.3540 N   0  0  0  0  0  0  0  0  0  0  0  0
    4.7060   -3.1890    3.6870 C   0  0  0  0  0  0  0  0  0  0  0  0
    5.1610   -2.1830    4.3910 N   0  0  0  0  0  0  0  0  0  0  0  0
    4.9600   -3.2970    2.3030 N   0  0  0  0  0  0  0  0  0  0  0  0
    5.3490   -2.1430    1.5340 C   0  0  0  0  0  0  0  0  0  0  0  0
    4.1350   -1.2210    1.4900 C   0  0  0  0  0  0  0  0  0  0  0  0
    4.4480    0.0220    0.7000 C   0  0  0  0  0  0  0  0  0  0  0  0
    3.2570    0.9320    0.6540 C   0  0  2  0  0  0  0  0  0  0  0  0
    2.8860    1.3150    1.9910 N   0  0  0  0  0  0  0  0  0  0  0  0
    2.1320    0.1740    0.0100 C   0  0  0  0  0  0  0  0  0  0  0  0
    2.2540   -0.2550   -1.1590 O   0  0  0  0  0  0  0  0  0  0  0  0
    3.3910   -4.0350    5.2110 H   0  0  0  0  0  0  0  0  0  0  0  0
    3.9230   -5.1620    3.9450 H   0  0  0  0  0  0  0  0  0  0  0  0
    4.9680   -2.1140    5.4070 H   0  0  0  0  0  0  0  0  0  0  0  0
    4.8660   -4.2130    1.8360 H   0  0  0  0  0  0  0  0  0  0  0  0
    6.1990   -1.6500    2.0490 H   0  0  0  0  0  0  0  0  0  0  0  0
    5.6210   -2.4450    0.5070 H   0  0  0  0  0  0  0  0  0  0  0  0
    3.3110   -1.8190    1.0530 H   0  0  0  0  0  0  0  0  0  0  0  0
    3.9390   -0.9480    2.5590 H   0  0  0  0  0  0  0  0  0  0  0  0
    5.3380    0.4870    1.1540 H   0  0  0  0  0  0  0  0  0  0  0  0
    4.7250   -0.2820   -0.3320 H   0  0  0  0  0  0  0  0  0  0  0  0
    3.4910    1.8550    0.0850 H   0  0  0  0  0  0  0  0  0  0  0  0
    2.2740    2.1610    2.0050 H   0  0  0  0  0  0  0  0  0  0  0  0
    2.5560    0.5500    2.5870 H   0  0  0  0  0  0  0  0  0  0  0  0
   -0.3690   -2.0800    0.8330 C   0  0  0  0  0  0  0  0  0  0  0  0
   -0.1340   -0.8170    0.0130 C   0  0  2  0  0  0  0  0  0  0  0  0
    0.9150   -0.0820    0.6810 N   0  0  0  0  0  0  0  0  0  0  0  0
   -1.4180   -0.0600    0.0120 C   0  0  0  0  0  0  0  0  0  0  0  0
   -1.4280    1.0690    0.5640 O   0  0  0  0  0  0  0  0  0  0  0  0
    0.6010   -2.5990    1.0580 H   0  0  0  0  0  0  0  0  0  0  0  0
   -0.8040   -1.8470    1.8340 H   0  0  0  0  0  0  0  0  0  0  0  0
   -0.9780   -2.8280    0.2750 H   0  0  0  0  0  0  0  0  0  0  0  0
    0.1220   -1.1250   -0.9990 H   0  0  0  0  0  0  0  0  0  0  0  0
    0.7650    0.2560    1.6570 H   0  0  0  0  0  0  0  0  0  0  0  0
   -5.5880    2.5230   -1.2170 C   0  0  0  0  0  0  0  0  0  0  0  0
   -5.5740    1.2650   -2.0460 C   0  0  0  0  0  0  0  0  0  0  0  0
   -4.2850    0.5170   -1.9950 C   0  0  2  0  0  0  0  0  0  0  0  0
   -4.4240   -0.7120   -2.8670 C   0  0  0  0  0  0  0  0  0  0  0  0
   -3.8560    0.1620   -0.5900 C   0  0  2  0  0  0  0  0  0  0  0  0
   -2.6020   -0.5620   -0.5800 N   0  0  0  0  0  0  0  0  0  0  0  0
   -4.8670   -0.6480    0.1190 C   0  0  0  0  0  0  0  0  0  0  0  0
   -6.0340   -0.2240    0.2440 O   0  0  0  0  0  0  0  0  0  0  0  0
   -4.5170   -1.8780    0.6430 O   0  0  0  0  0  0  0  0  0  0  0  0
   -5.0480    3.3480   -1.7170 H   0  0  0  0  0  0  0  0  0  0  0  0
   -6.6690    2.8470   -1.1730 H   0  0  0  0  0  0  0  0  0  0  0  0
   -5.2770    2.3870   -0.1810 H   0  0  0  0  0  0  0  0  0  0  0  0
   -6.4770    0.6630   -1.8620 H   0  0  0  0  0  0  0  0  0  0  0  0
   -5.6850    1.6170   -3.1160 H   0  0  0  0  0  0  0  0  0  0  0  0
   -3.5100    1.1500   -2.4730 H   0  0  0  0  0  0  0  0  0  0  0  0
   -3.4420   -1.0720   -3.1880 H   0  0  0  0  0  0  0  0  0  0  0  0
   -4.9980   -0.3800   -3.7810 H   0  0  0  0  0  0  0  0  0  0  0  0
   -5.0470   -1.4910   -2.3860 H   0  0  0  0  0  0  0  0  0  0  0  0
   -3.6730    1.1360   -0.0560 H   0  0  0  0  0  0  0  0  0  0  0  0
   -2.5270   -1.5150   -1.0280 H   0  0  0  0  0  0  0  0  0  0  0  0
  1 12  1  0  0  0  0
  2  1  1  0  0  0  0
  2  3  2  0  0  0  0
  3 14  1  0  0  0  0
  4  2  1  0  0  0  0
  5 16  1  0  0  0  0
  5  4  1  0  0  0  0
  6  5  1  0  0  0  0
  6 19  1  0  0  0  0
  7 20  1  0  0  0  0
  7  6  1  0  0  0  0
  8 22  1  6  0  0  0
  8  7  1  0  0  0  0
  8  9  1  0  0  0  0
  9 23  1  0  0  0  0
  9 24  1  0  0  0  0
 10  8  1  0  0  0  0
 10 27  1  0  0  0  0
 11 10  2  0  0  0  0
 13  1  1  0  0  0  0
 15  4  1  0  0  0  0
 17  5  1  0  0  0  0
 18  6  1  0  0  0  0
 21  7  1  0  0  0  0
 25 30  1  0  0  0  0
 25 31  1  0  0  0  0
 26 33  1  6  0  0  0
 26 27  1  0  0  0  0
 26 25  1  0  0  0  0
 27 34  1  0  0  0  0
 28 26  1  0  0  0  0
 28 29  2  0  0  0  0
 32 25  1  0  0  0  0
 35 45  1  0  0  0  0
 35 46  1  0  0  0  0
 36 37  1  0  0  0  0
 36 47  1  0  0  0  0
 36 35  1  0  0  0  0
 37 49  1  6  0  0  0
 37 39  1  0  0  0  0
 38 52  1  0  0  0  0
 38 37  1  0  0  0  0
 39 40  1  0  0  0  0
 39 53  1  1  0  0  0
 39 41  1  0  0  0  0
 40 28  1  0  0  0  0
 41 42  2  0  0  0  0
 41 43  1  0  0  0  0
 44 35  1  0  0  0  0
 48 36  1  0  0  0  0
 50 38  1  0  0  0  0
 51 38  1  0  0  0  0
 54 40  1  0  0  0  0
M  END
$$$$
