RAM.pdb
 OpenBabel07022418033D

 52 51  0  0  1  0  0  0  0  0999 V2000
    0.4370   -5.1420    1.1790 N   0  0  0  0  0  0  0  0  0  0  0  0
    1.5280   -4.2040    1.2140 C   0  0  0  0  0  0  0  0  0  0  0  0
    1.6790   -3.3990    2.2090 N   0  0  0  0  0  0  0  0  0  0  0  0
    2.4700   -4.1360    0.1600 N   0  0  0  0  0  0  0  0  0  0  0  0
    3.2310   -2.9150   -0.0770 C   0  0  0  0  0  0  0  0  0  0  0  0
    2.2810   -1.8730   -0.5590 C   0  0  0  0  0  0  0  0  0  0  0  0
    2.8550   -0.5420   -0.8690 C   0  0  0  0  0  0  0  0  0  0  0  0
    3.5240    0.1890    0.2350 C   0  0  2  0  0  0  0  0  0  0  0  0
    4.6420   -0.4420    0.8430 N   0  0  0  0  0  0  0  0  0  0  0  0
    2.5640    0.6060    1.3070 C   0  0  0  0  0  0  0  0  0  0  0  0
    2.8200    0.3710    2.5380 O   0  0  0  0  0  0  0  0  0  0  0  0
   -0.4210   -4.9870    1.7500 H   0  0  0  0  0  0  0  0  0  0  0  0
    0.4770   -5.9950    0.5860 H   0  0  0  0  0  0  0  0  0  0  0  0
    0.9980   -3.4410    2.9820 H   0  0  0  0  0  0  0  0  0  0  0  0
    2.6140   -4.9660   -0.4450 H   0  0  0  0  0  0  0  0  0  0  0  0
    3.8330   -2.6400    0.8090 H   0  0  0  0  0  0  0  0  0  0  0  0
    3.9550   -3.1380   -0.8860 H   0  0  0  0  0  0  0  0  0  0  0  0
    1.8600   -2.2630   -1.5340 H   0  0  0  0  0  0  0  0  0  0  0  0
    1.3660   -1.8030    0.0970 H   0  0  0  0  0  0  0  0  0  0  0  0
    3.4960   -0.6490   -1.7790 H   0  0  0  0  0  0  0  0  0  0  0  0
    2.0020    0.1060   -1.2230 H   0  0  0  0  0  0  0  0  0  0  0  0
    3.8780    1.1680   -0.2140 H   0  0  0  0  0  0  0  0  0  0  0  0
    5.4780    0.1750    0.7710 H   0  0  0  0  0  0  0  0  0  0  0  0
    4.4800   -0.5860    1.8620 H   0  0  0  0  0  0  0  0  0  0  0  0
    0.2180    3.1700    2.1230 C   0  0  0  0  0  0  0  0  0  0  0  0
    0.4290    1.6700    2.0780 C   0  0  2  0  0  0  0  0  0  0  0  0
    1.3400    1.2710    1.0530 N   0  0  0  0  0  0  0  0  0  0  0  0
   -0.8990    1.0510    1.8980 C   0  0  0  0  0  0  0  0  0  0  0  0
   -1.8650    1.2780    2.6910 O   0  0  0  0  0  0  0  0  0  0  0  0
   -0.3230    3.5130    1.2150 H   0  0  0  0  0  0  0  0  0  0  0  0
   -0.4670    3.3700    2.9750 H   0  0  0  0  0  0  0  0  0  0  0  0
    1.1380    3.7360    2.3150 H   0  0  0  0  0  0  0  0  0  0  0  0
    0.7870    1.3860    3.1030 H   0  0  0  0  0  0  0  0  0  0  0  0
    1.1110    1.4710    0.0540 H   0  0  0  0  0  0  0  0  0  0  0  0
   -5.8100    1.6640   -0.0630 C   0  0  0  0  0  0  0  0  0  0  0  0
   -5.5560   -0.1160    0.2560 S   0  0  0  0  0  0  0  0  0  0  0  0
   -4.3510   -0.7560   -0.9420 C   0  0  0  0  0  0  0  0  0  0  0  0
   -3.0050   -0.1640   -0.7330 C   0  0  0  0  0  0  0  0  0  0  0  0
   -2.4820   -0.4470    0.6460 C   0  0  2  0  0  0  0  0  0  0  0  0
   -1.1510    0.1640    0.8170 N   0  0  0  0  0  0  0  0  0  0  0  0
   -2.3090   -1.9000    0.8110 C   0  0  0  0  0  0  0  0  0  0  0  0
   -1.1580   -2.3660    0.9970 O   0  0  0  0  0  0  0  0  0  0  0  0
   -3.3480   -2.7890    0.7750 O   0  0  0  0  0  0  0  0  0  0  0  0
   -4.8400    2.1420   -0.3130 H   0  0  0  0  0  0  0  0  0  0  0  0
   -6.5260    1.8230   -0.8860 H   0  0  0  0  0  0  0  0  0  0  0  0
   -6.2400    2.1760    0.8400 H   0  0  0  0  0  0  0  0  0  0  0  0
   -4.7060   -0.4100   -1.9640 H   0  0  0  0  0  0  0  0  0  0  0  0
   -4.4210   -1.8390   -0.9670 H   0  0  0  0  0  0  0  0  0  0  0  0
   -2.2990   -0.6980   -1.4380 H   0  0  0  0  0  0  0  0  0  0  0  0
   -2.9460    0.9100   -1.0030 H   0  0  0  0  0  0  0  0  0  0  0  0
   -3.1650   -0.0750    1.4440 H   0  0  0  0  0  0  0  0  0  0  0  0
   -0.3760   -0.0400    0.1540 H   0  0  0  0  0  0  0  0  0  0  0  0
  1  2  1  0  0  0  0
  1 12  1  0  0  0  0
  2  3  2  0  0  0  0
  3 14  1  0  0  0  0
  4  2  1  0  0  0  0
  5  4  1  0  0  0  0
  5 16  1  0  0  0  0
  6  5  1  0  0  0  0
  6 19  1  0  0  0  0
  7  6  1  0  0  0  0
  7  8  1  0  0  0  0
  8 22  1  6  0  0  0
  8  9  1  0  0  0  0
  8 10  1  0  0  0  0
  9 24  1  0  0  0  0
 10 11  2  0  0  0  0
 13  1  1  0  0  0  0
 15  4  1  0  0  0  0
 17  5  1  0  0  0  0
 18  6  1  0  0  0  0
 20  7  1  0  0  0  0
 21  7  1  0  0  0  0
 23  9  1  0  0  0  0
 25 32  1  0  0  0  0
 25 31  1  0  0  0  0
 26 25  1  0  0  0  0
 26 33  1  1  0  0  0
 27 10  1  0  0  0  0
 27 26  1  0  0  0  0
 28 26  1  0  0  0  0
 28 29  2  0  0  0  0
 30 25  1  0  0  0  0
 34 27  1  0  0  0  0
 35 36  1  0  0  0  0
 35 46  1  0  0  0  0
 37 38  1  0  0  0  0
 37 36  1  0  0  0  0
 38 39  1  0  0  0  0
 39 41  1  0  0  0  0
 39 40  1  0  0  0  0
 39 51  1  1  0  0  0
 40 28  1  0  0  0  0
 41 42  1  0  0  0  0
 43 41  2  0  0  0  0
 44 35  1  0  0  0  0
 45 35  1  0  0  0  0
 47 37  1  0  0  0  0
 48 37  1  0  0  0  0
 49 38  1  0  0  0  0
 50 38  1  0  0  0  0
 52 40  1  0  0  0  0
M  END
$$$$
