RAN.pdb
 OpenBabel07022418033D

 49 48  0  0  1  0  0  0  0  0999 V2000
    2.1970   -6.1480    2.6900 N   0  0  0  0  0  0  0  0  0  0  0  0
    3.0470   -5.0120    2.7280 C   0  0  0  0  0  0  0  0  0  0  0  0
    3.9790   -4.8950    3.6060 N   0  0  0  0  0  0  0  0  0  0  0  0
    2.9030   -3.9440    1.7840 N   0  0  0  0  0  0  0  0  0  0  0  0
    3.4170   -2.5920    2.0710 C   0  0  0  0  0  0  0  0  0  0  0  0
    3.1150   -1.7520    0.8800 C   0  0  0  0  0  0  0  0  0  0  0  0
    3.5500   -0.3350    0.9290 C   0  0  0  0  0  0  0  0  0  0  0  0
    2.9770    0.5140    2.0070 C   0  0  2  0  0  0  0  0  0  0  0  0
    3.3100   -0.0120    3.2850 N   0  0  0  0  0  0  0  0  0  0  0  0
    1.5150    0.7390    1.8360 C   0  0  0  0  0  0  0  0  0  0  0  0
    0.7510    0.3830    2.7670 O   0  0  0  0  0  0  0  0  0  0  0  0
    1.2550   -6.1130    3.1080 H   0  0  0  0  0  0  0  0  0  0  0  0
    2.5460   -7.0190    2.2320 H   0  0  0  0  0  0  0  0  0  0  0  0
    4.1000   -5.6590    4.2970 H   0  0  0  0  0  0  0  0  0  0  0  0
    2.4190   -4.1730    0.8910 H   0  0  0  0  0  0  0  0  0  0  0  0
    4.4920   -2.6790    2.2880 H   0  0  0  0  0  0  0  0  0  0  0  0
    2.8610   -2.2800    2.9840 H   0  0  0  0  0  0  0  0  0  0  0  0
    3.6710   -2.2240    0.0150 H   0  0  0  0  0  0  0  0  0  0  0  0
    2.0460   -1.8890    0.6010 H   0  0  0  0  0  0  0  0  0  0  0  0
    3.3310    0.1230   -0.0510 H   0  0  0  0  0  0  0  0  0  0  0  0
    4.6610   -0.3320    1.0330 H   0  0  0  0  0  0  0  0  0  0  0  0
    3.4590    1.5240    1.9110 H   0  0  0  0  0  0  0  0  0  0  0  0
    2.7460    0.3440    4.0760 H   0  0  0  0  0  0  0  0  0  0  0  0
    4.3220   -0.0530    3.4700 H   0  0  0  0  0  0  0  0  0  0  0  0
   -0.7770    3.0100    0.5270 C   0  0  0  0  0  0  0  0  0  0  0  0
   -0.4600    1.5100    0.5770 C   0  0  2  0  0  0  0  0  0  0  0  0
    0.9540    1.3230    0.6960 N   0  0  0  0  0  0  0  0  0  0  0  0
   -1.0320    0.9020   -0.6240 C   0  0  0  0  0  0  0  0  0  0  0  0
   -0.3080    0.2800   -1.4220 O   0  0  0  0  0  0  0  0  0  0  0  0
   -1.0770    3.2920   -0.4960 H   0  0  0  0  0  0  0  0  0  0  0  0
   -1.6220    3.2140    1.2320 H   0  0  0  0  0  0  0  0  0  0  0  0
    0.1230    3.5520    0.8150 H   0  0  0  0  0  0  0  0  0  0  0  0
   -0.9490    1.0830    1.4900 H   0  0  0  0  0  0  0  0  0  0  0  0
    1.5550    1.6400   -0.1010 H   0  0  0  0  0  0  0  0  0  0  0  0
   -5.0180   -0.4320    0.5750 N   0  0  0  0  0  0  0  0  0  0  0  0
   -5.0310   -0.1950   -0.8300 C   0  0  0  0  0  0  0  0  0  0  0  0
   -6.0050    0.4240   -1.3130 O   0  0  0  0  0  0  0  0  0  0  0  0
   -3.9190   -0.6790   -1.6480 C   0  0  0  0  0  0  0  0  0  0  0  0
   -2.9660    0.4090   -2.0830 C   0  0  2  0  0  0  0  0  0  0  0  0
   -2.4150    1.0210   -0.8840 N   0  0  0  0  0  0  0  0  0  0  0  0
   -3.6300    1.4210   -2.9380 C   0  0  0  0  0  0  0  0  0  0  0  0
   -3.6750    2.6290   -2.5900 O   0  0  0  0  0  0  0  0  0  0  0  0
   -4.2070    1.0390   -4.1360 O   0  0  0  0  0  0  0  0  0  0  0  0
   -5.1350    0.3280    1.2890 H   0  0  0  0  0  0  0  0  0  0  0  0
   -4.8880   -1.4020    0.9770 H   0  0  0  0  0  0  0  0  0  0  0  0
   -4.2870   -1.2380   -2.5580 H   0  0  0  0  0  0  0  0  0  0  0  0
   -3.3460   -1.4390   -1.0780 H   0  0  0  0  0  0  0  0  0  0  0  0
   -2.1340   -0.0890   -2.6160 H   0  0  0  0  0  0  0  0  0  0  0  0
   -3.0840    1.5430   -0.2410 H   0  0  0  0  0  0  0  0  0  0  0  0
  1  2  1  0  0  0  0
  1 12  1  0  0  0  0
  2  3  2  0  0  0  0
  3 14  1  0  0  0  0
  4  5  1  0  0  0  0
  4  2  1  0  0  0  0
  5 16  1  0  0  0  0
  5 17  1  0  0  0  0
  6  7  1  0  0  0  0
  6  5  1  0  0  0  0
  7 21  1  0  0  0  0
  7  8  1  0  0  0  0
  8 22  1  6  0  0  0
  8  9  1  0  0  0  0
  9 24  1  0  0  0  0
  9 23  1  0  0  0  0
 10  8  1  0  0  0  0
 10 11  2  0  0  0  0
 13  1  1  0  0  0  0
 15  4  1  0  0  0  0
 18  6  1  0  0  0  0
 19  6  1  0  0  0  0
 20  7  1  0  0  0  0
 25 26  1  0  0  0  0
 25 32  1  0  0  0  0
 25 31  1  0  0  0  0
 26 27  1  0  0  0  0
 26 33  1  1  0  0  0
 27 10  1  0  0  0  0
 28 26  1  0  0  0  0
 29 28  2  0  0  0  0
 30 25  1  0  0  0  0
 34 27  1  0  0  0  0
 35 45  1  0  0  0  0
 35 44  1  0  0  0  0
 36 35  1  0  0  0  0
 37 36  2  0  0  0  0
 38 47  1  0  0  0  0
 38 36  1  0  0  0  0
 39 48  1  6  0  0  0
 39 38  1  0  0  0  0
 39 40  1  0  0  0  0
 40 28  1  0  0  0  0
 40 49  1  0  0  0  0
 41 42  1  0  0  0  0
 41 39  1  0  0  0  0
 43 41  2  0  0  0  0
 46 38  1  0  0  0  0
M  END
$$$$
