RAP.pdb
 OpenBabel07022418033D

 49 49  0  0  1  0  0  0  0  0999 V2000
    1.1010   -5.0890    3.7150 N   0  0  0  0  0  0  0  0  0  0  0  0
    1.8720   -3.9190    3.9120 C   0  0  0  0  0  0  0  0  0  0  0  0
    2.8080   -3.8540    4.8050 N   0  0  0  0  0  0  0  0  0  0  0  0
    1.5980   -2.7710    3.0870 N   0  0  0  0  0  0  0  0  0  0  0  0
    2.6660   -1.8350    2.8510 C   0  0  0  0  0  0  0  0  0  0  0  0
    3.7900   -2.3450    2.0290 C   0  0  0  0  0  0  0  0  0  0  0  0
    3.5050   -2.7750    0.6470 C   0  0  0  0  0  0  0  0  0  0  0  0
    2.9680   -1.7780   -0.3070 C   0  0  2  0  0  0  0  0  0  0  0  0
    3.8040   -0.6320   -0.5220 N   0  0  0  0  0  0  0  0  0  0  0  0
    1.5420   -1.4690   -0.0640 C   0  0  0  0  0  0  0  0  0  0  0  0
    0.7480   -2.4450    0.0430 O   0  0  0  0  0  0  0  0  0  0  0  0
    0.1180   -5.1640    4.0280 H   0  0  0  0  0  0  0  0  0  0  0  0
    1.5390   -5.8980    3.2400 H   0  0  0  0  0  0  0  0  0  0  0  0
    2.9760   -4.7020    5.3800 H   0  0  0  0  0  0  0  0  0  0  0  0
    0.6270   -2.7060    2.7260 H   0  0  0  0  0  0  0  0  0  0  0  0
    2.1970   -0.9080    2.4700 H   0  0  0  0  0  0  0  0  0  0  0  0
    3.1030   -1.5610    3.8560 H   0  0  0  0  0  0  0  0  0  0  0  0
    4.1590   -3.2720    2.5740 H   0  0  0  0  0  0  0  0  0  0  0  0
    4.7040   -1.6800    2.0950 H   0  0  0  0  0  0  0  0  0  0  0  0
    2.7790   -3.6410    0.7130 H   0  0  0  0  0  0  0  0  0  0  0  0
    4.4420   -3.2710    0.2520 H   0  0  0  0  0  0  0  0  0  0  0  0
    2.9670   -2.2970   -1.3220 H   0  0  0  0  0  0  0  0  0  0  0  0
    4.5230   -0.7750   -1.2710 H   0  0  0  0  0  0  0  0  0  0  0  0
    4.2730   -0.2620    0.3070 H   0  0  0  0  0  0  0  0  0  0  0  0
   -0.6220    0.8230    1.6040 C   0  0  0  0  0  0  0  0  0  0  0  0
   -0.4040    0.1100    0.2980 C   0  0  2  0  0  0  0  0  0  0  0  0
    0.9960   -0.1790    0.0580 N   0  0  0  0  0  0  0  0  0  0  0  0
   -1.0320    0.7830   -0.8610 C   0  0  0  0  0  0  0  0  0  0  0  0
   -0.3130    1.0240   -1.8580 O   0  0  0  0  0  0  0  0  0  0  0  0
   -0.8260    1.9000    1.4640 H   0  0  0  0  0  0  0  0  0  0  0  0
   -1.4810    0.3960    2.1600 H   0  0  0  0  0  0  0  0  0  0  0  0
    0.2660    0.6400    2.2450 H   0  0  0  0  0  0  0  0  0  0  0  0
   -0.9120   -0.8920    0.3840 H   0  0  0  0  0  0  0  0  0  0  0  0
    1.6450    0.6340   -0.0310 H   0  0  0  0  0  0  0  0  0  0  0  0
   -2.4020    1.1780   -0.9220 N   0  0  0  0  0  0  0  0  0  0  0  0
   -3.2810    0.9120    0.2070 C   0  0  0  0  0  0  0  0  0  0  0  0
   -4.6830    1.1040   -0.3380 C   0  0  0  0  0  0  0  0  0  0  0  0
   -4.4410    2.2300   -1.3340 C   0  0  0  0  0  0  0  0  0  0  0  0
   -3.1330    1.8190   -1.9520 C   0  0  1  0  0  0  0  0  0  0  0  0
   -2.4490    2.9670   -2.5980 C   0  0  0  0  0  0  0  0  0  0  0  0
   -1.3480    3.3780   -2.2340 O   0  0  0  0  0  0  0  0  0  0  0  0
   -3.1010    3.5840   -3.6560 O   0  0  0  0  0  0  0  0  0  0  0  0
   -3.1800   -0.1270    0.5530 H   0  0  0  0  0  0  0  0  0  0  0  0
   -3.1670    1.6640    1.0200 H   0  0  0  0  0  0  0  0  0  0  0  0
   -5.4100    1.3840    0.4300 H   0  0  0  0  0  0  0  0  0  0  0  0
   -4.9810    0.2110   -0.9280 H   0  0  0  0  0  0  0  0  0  0  0  0
   -5.2670    2.2710   -2.0690 H   0  0  0  0  0  0  0  0  0  0  0  0
   -4.2880    3.1940   -0.7970 H   0  0  0  0  0  0  0  0  0  0  0  0
   -3.3750    1.0550   -2.7310 H   0  0  0  0  0  0  0  0  0  0  0  0
  1  2  1  0  0  0  0
  1 12  1  0  0  0  0
  2  3  2  0  0  0  0
  3 14  1  0  0  0  0
  4  2  1  0  0  0  0
  5  4  1  0  0  0  0
  5 17  1  0  0  0  0
  6 19  1  0  0  0  0
  6 18  1  0  0  0  0
  6  5  1  0  0  0  0
  7 20  1  0  0  0  0
  7  6  1  0  0  0  0
  8 22  1  6  0  0  0
  8 10  1  0  0  0  0
  8  7  1  0  0  0  0
  9  8  1  0  0  0  0
  9 24  1  0  0  0  0
 10 11  2  0  0  0  0
 10 27  1  0  0  0  0
 13  1  1  0  0  0  0
 15  4  1  0  0  0  0
 16  5  1  0  0  0  0
 21  7  1  0  0  0  0
 23  9  1  0  0  0  0
 25 31  1  0  0  0  0
 25 32  1  0  0  0  0
 26 33  1  1  0  0  0
 26 25  1  0  0  0  0
 27 26  1  0  0  0  0
 28 26  1  0  0  0  0
 29 28  2  0  0  0  0
 30 25  1  0  0  0  0
 34 27  1  0  0  0  0
 35 28  1  0  0  0  0
 35 36  1  0  0  0  0
 36 43  1  0  0  0  0
 36 44  1  0  0  0  0
 37 36  1  0  0  0  0
 37 45  1  0  0  0  0
 38 48  1  0  0  0  0
 38 37  1  0  0  0  0
 39 49  1  6  0  0  0
 39 38  1  0  0  0  0
 39 35  1  0  0  0  0
 40 41  1  0  0  0  0
 40 39  1  0  0  0  0
 42 40  2  0  0  0  0
 46 37  1  0  0  0  0
 47 38  1  0  0  0  0
M  END
$$$$
