RAQ.pdb
 OpenBabel07022418033D

 52 51  0  0  1  0  0  0  0  0999 V2000
    5.0500   -5.8980    0.9190 N   0  0  0  0  0  0  0  0  0  0  0  0
    4.4780   -5.0520   -0.0460 C   0  0  0  0  0  0  0  0  0  0  0  0
    3.4010   -5.4150   -0.6490 N   0  0  0  0  0  0  0  0  0  0  0  0
    5.0800   -3.8030   -0.3590 N   0  0  0  0  0  0  0  0  0  0  0  0
    4.4900   -2.8600   -1.2670 C   0  0  0  0  0  0  0  0  0  0  0  0
    3.2130   -2.2540   -0.7180 C   0  0  0  0  0  0  0  0  0  0  0  0
    3.4490   -1.5270    0.5730 C   0  0  0  0  0  0  0  0  0  0  0  0
    2.1690   -0.9200    1.1250 C   0  0  2  0  0  0  0  0  0  0  0  0
    1.2080   -1.9630    1.3610 N   0  0  0  0  0  0  0  0  0  0  0  0
    1.6450    0.1420    0.2370 C   0  0  0  0  0  0  0  0  0  0  0  0
    2.3520    1.1430   -0.0290 O   0  0  0  0  0  0  0  0  0  0  0  0
    5.4210   -6.8580    0.6710 H   0  0  0  0  0  0  0  0  0  0  0  0
    5.0990   -5.5500    1.9010 H   0  0  0  0  0  0  0  0  0  0  0  0
    2.9320   -6.3260   -0.4450 H   0  0  0  0  0  0  0  0  0  0  0  0
    6.0000   -3.5950    0.1150 H   0  0  0  0  0  0  0  0  0  0  0  0
    4.2770   -3.4300   -2.2130 H   0  0  0  0  0  0  0  0  0  0  0  0
    5.2300   -2.0870   -1.5540 H   0  0  0  0  0  0  0  0  0  0  0  0
    2.7680   -1.5980   -1.4960 H   0  0  0  0  0  0  0  0  0  0  0  0
    2.5170   -3.0860   -0.5440 H   0  0  0  0  0  0  0  0  0  0  0  0
    4.2200   -0.7540    0.3890 H   0  0  0  0  0  0  0  0  0  0  0  0
    3.8760   -2.2420    1.2940 H   0  0  0  0  0  0  0  0  0  0  0  0
    2.4490   -0.5070    2.1370 H   0  0  0  0  0  0  0  0  0  0  0  0
    0.4180   -1.6790    1.9640 H   0  0  0  0  0  0  0  0  0  0  0  0
    1.6130   -2.8870    1.5700 H   0  0  0  0  0  0  0  0  0  0  0  0
   -0.5670    0.5060   -2.5620 C   0  0  0  0  0  0  0  0  0  0  0  0
   -0.1890    1.0890   -1.2020 C   0  0  2  0  0  0  0  0  0  0  0  0
    0.3500    0.0640   -0.3310 N   0  0  0  0  0  0  0  0  0  0  0  0
   -1.4420    1.6280   -0.6220 C   0  0  0  0  0  0  0  0  0  0  0  0
   -2.0780    2.5400   -1.2020 O   0  0  0  0  0  0  0  0  0  0  0  0
   -1.2270    1.2430   -3.0470 H   0  0  0  0  0  0  0  0  0  0  0  0
   -1.1640   -0.4110   -2.4030 H   0  0  0  0  0  0  0  0  0  0  0  0
    0.3030    0.3200   -3.2040 H   0  0  0  0  0  0  0  0  0  0  0  0
    0.5280    1.9280   -1.3400 H   0  0  0  0  0  0  0  0  0  0  0  0
   -0.2350   -0.7850   -0.0990 H   0  0  0  0  0  0  0  0  0  0  0  0
   -6.4360    1.6930    3.8180 N   0  0  0  0  0  0  0  0  0  0  0  0
   -5.5150    0.9680    3.0330 C   0  0  0  0  0  0  0  0  0  0  0  0
   -4.6040    0.3330    3.6760 O   0  0  0  0  0  0  0  0  0  0  0  0
   -5.4930    0.8580    1.5770 C   0  0  0  0  0  0  0  0  0  0  0  0
   -4.1550    0.5480    1.0170 C   0  0  0  0  0  0  0  0  0  0  0  0
   -3.1670    1.6470    1.1600 C   0  0  2  0  0  0  0  0  0  0  0  0
   -1.9160    1.1070    0.5850 N   0  0  0  0  0  0  0  0  0  0  0  0
   -2.8970    2.2290    2.4500 C   0  0  0  0  0  0  0  0  0  0  0  0
   -1.7630    1.9800    2.9960 O   0  0  0  0  0  0  0  0  0  0  0  0
   -3.7160    3.0540    3.2030 O   0  0  0  0  0  0  0  0  0  0  0  0
   -6.6360    2.6780    3.5890 H   0  0  0  0  0  0  0  0  0  0  0  0
   -6.8990    1.2290    4.6160 H   0  0  0  0  0  0  0  0  0  0  0  0
   -5.9260    1.7640    1.0710 H   0  0  0  0  0  0  0  0  0  0  0  0
   -6.1810    0.0220    1.2360 H   0  0  0  0  0  0  0  0  0  0  0  0
   -3.7570   -0.4380    1.3700 H   0  0  0  0  0  0  0  0  0  0  0  0
   -4.3260    0.3530   -0.0930 H   0  0  0  0  0  0  0  0  0  0  0  0
   -3.4750    2.5020    0.4770 H   0  0  0  0  0  0  0  0  0  0  0  0
   -1.4580    0.3580    1.1320 H   0  0  0  0  0  0  0  0  0  0  0  0
  1 13  1  0  0  0  0
  2  1  1  0  0  0  0
  3 14  1  0  0  0  0
  3  2  2  0  0  0  0
  4  2  1  0  0  0  0
  4 15  1  0  0  0  0
  5  6  1  0  0  0  0
  5  4  1  0  0  0  0
  6 19  1  0  0  0  0
  6  7  1  0  0  0  0
  7  8  1  0  0  0  0
  7 21  1  0  0  0  0
  8  9  1  0  0  0  0
  8 22  1  1  0  0  0
  9 24  1  0  0  0  0
  9 23  1  0  0  0  0
 10  8  1  0  0  0  0
 11 10  2  0  0  0  0
 12  1  1  0  0  0  0
 16  5  1  0  0  0  0
 17  5  1  0  0  0  0
 18  6  1  0  0  0  0
 20  7  1  0  0  0  0
 25 31  1  0  0  0  0
 25 26  1  0  0  0  0
 26 33  1  6  0  0  0
 26 28  1  0  0  0  0
 26 27  1  0  0  0  0
 27 34  1  0  0  0  0
 27 10  1  0  0  0  0
 28 41  1  0  0  0  0
 29 28  2  0  0  0  0
 30 25  1  0  0  0  0
 32 25  1  0  0  0  0
 35 46  1  0  0  0  0
 36 37  2  0  0  0  0
 36 35  1  0  0  0  0
 38 36  1  0  0  0  0
 39 40  1  0  0  0  0
 39 49  1  0  0  0  0
 39 38  1  0  0  0  0
 40 51  1  6  0  0  0
 40 42  1  0  0  0  0
 41 52  1  0  0  0  0
 41 40  1  0  0  0  0
 42 43  2  0  0  0  0
 42 44  1  0  0  0  0
 45 35  1  0  0  0  0
 47 38  1  0  0  0  0
 48 38  1  0  0  0  0
 50 39  1  0  0  0  0
M  END
$$$$
