RAS.pdb
 OpenBabel07022418033D

 46 45  0  0  1  0  0  0  0  0999 V2000
   -2.8630   -3.6810   -0.0050 N   0  0  0  0  0  0  0  0  0  0  0  0
   -1.6520   -2.9030   -0.0550 C   0  0  0  0  0  0  0  0  0  0  0  0
   -1.6400   -1.7790   -0.6720 N   0  0  0  0  0  0  0  0  0  0  0  0
   -0.4600   -3.3310    0.5540 N   0  0  0  0  0  0  0  0  0  0  0  0
    0.7580   -2.5600    0.3570 C   0  0  0  0  0  0  0  0  0  0  0  0
    1.2530   -2.6240   -1.0340 C   0  0  0  0  0  0  0  0  0  0  0  0
    2.4870   -1.8900   -1.2860 C   0  0  0  0  0  0  0  0  0  0  0  0
    2.6000   -0.4310   -1.1390 C   0  0  2  0  0  0  0  0  0  0  0  0
    4.0520   -0.1540   -1.5300 N   0  0  0  0  0  0  0  0  0  0  0  0
    2.5440    0.1590    0.2080 C   0  0  0  0  0  0  0  0  0  0  0  0
    3.4980    0.0180    1.0420 O   0  0  0  0  0  0  0  0  0  0  0  0
   -2.8760   -4.6930    0.1070 H   0  0  0  0  0  0  0  0  0  0  0  0
   -3.7600   -3.1610   -0.0900 H   0  0  0  0  0  0  0  0  0  0  0  0
   -2.5120   -1.4430   -1.1310 H   0  0  0  0  0  0  0  0  0  0  0  0
   -0.4250   -4.1830    1.1420 H   0  0  0  0  0  0  0  0  0  0  0  0
    1.5430   -3.0420    1.0070 H   0  0  0  0  0  0  0  0  0  0  0  0
    0.5650   -1.5850    0.7890 H   0  0  0  0  0  0  0  0  0  0  0  0
    0.4580   -2.3860   -1.7930 H   0  0  0  0  0  0  0  0  0  0  0  0
    1.4820   -3.7270   -1.2260 H   0  0  0  0  0  0  0  0  0  0  0  0
    3.3440   -2.3570   -0.7070 H   0  0  0  0  0  0  0  0  0  0  0  0
    2.8080   -2.1140   -2.3680 H   0  0  0  0  0  0  0  0  0  0  0  0
    1.9860    0.1220   -1.8760 H   0  0  0  0  0  0  0  0  0  0  0  0
    4.1300    0.8920   -1.6430 H   0  0  0  0  0  0  0  0  0  0  0  0
    4.1800   -0.6260   -2.4590 H   0  0  0  0  0  0  0  0  0  0  0  0
    1.9310    2.9630    1.9050 C   0  0  0  0  0  0  0  0  0  0  0  0
    1.4770    1.4960    1.9790 C   0  0  2  0  0  0  0  0  0  0  0  0
    1.4380    0.9270    0.6510 N   0  0  0  0  0  0  0  0  0  0  0  0
    0.2230    1.3660    2.6950 C   0  0  0  0  0  0  0  0  0  0  0  0
    0.1250    1.8620    3.8510 O   0  0  0  0  0  0  0  0  0  0  0  0
    2.7330    3.1890    2.6330 H   0  0  0  0  0  0  0  0  0  0  0  0
    1.0960    3.6560    2.1500 H   0  0  0  0  0  0  0  0  0  0  0  0
    2.3290    3.1850    0.8990 H   0  0  0  0  0  0  0  0  0  0  0  0
    2.2950    1.0180    2.5960 H   0  0  0  0  0  0  0  0  0  0  0  0
    0.5970    1.0900    0.0340 H   0  0  0  0  0  0  0  0  0  0  0  0
   -3.0070    2.5390    1.7740 O   0  0  0  0  0  0  0  0  0  0  0  0
   -3.2490    1.2200    2.0700 C   0  0  0  0  0  0  0  0  0  0  0  0
   -2.1650    0.6140    2.9210 C   0  0  2  0  0  0  0  0  0  0  0  0
   -0.9040    0.7130    2.1710 N   0  0  0  0  0  0  0  0  0  0  0  0
   -2.4160   -0.7750    3.3060 C   0  0  0  0  0  0  0  0  0  0  0  0
   -3.4670   -1.0590    3.9310 O   0  0  0  0  0  0  0  0  0  0  0  0
   -1.5460   -1.8000    3.0160 O   0  0  0  0  0  0  0  0  0  0  0  0
   -2.5060    2.5980    0.9390 H   0  0  0  0  0  0  0  0  0  0  0  0
   -3.3640    0.6270    1.1220 H   0  0  0  0  0  0  0  0  0  0  0  0
   -4.2220    1.1530    2.6260 H   0  0  0  0  0  0  0  0  0  0  0  0
   -2.0260    1.2760    3.8110 H   0  0  0  0  0  0  0  0  0  0  0  0
   -0.8400    0.2900    1.2220 H   0  0  0  0  0  0  0  0  0  0  0  0
  1 12  1  0  0  0  0
  2  1  1  0  0  0  0
  2  4  1  0  0  0  0
  3  2  2  0  0  0  0
  4 15  1  0  0  0  0
  5  4  1  0  0  0  0
  5 17  1  0  0  0  0
  5 16  1  0  0  0  0
  6  5  1  0  0  0  0
  7  8  1  0  0  0  0
  7  6  1  0  0  0  0
  7 20  1  0  0  0  0
  8 22  1  6  0  0  0
  8 10  1  0  0  0  0
  9  8  1  0  0  0  0
 10 27  1  0  0  0  0
 10 11  2  0  0  0  0
 13  1  1  0  0  0  0
 14  3  1  0  0  0  0
 18  6  1  0  0  0  0
 19  6  1  0  0  0  0
 21  7  1  0  0  0  0
 23  9  1  0  0  0  0
 24  9  1  0  0  0  0
 25 26  1  0  0  0  0
 25 31  1  0  0  0  0
 25 30  1  0  0  0  0
 26 33  1  1  0  0  0
 26 28  1  0  0  0  0
 27 26  1  0  0  0  0
 28 29  2  0  0  0  0
 32 25  1  0  0  0  0
 34 27  1  0  0  0  0
 35 36  1  0  0  0  0
 36 44  1  0  0  0  0
 36 37  1  0  0  0  0
 37 39  1  0  0  0  0
 37 45  1  1  0  0  0
 38 28  1  0  0  0  0
 38 37  1  0  0  0  0
 39 40  1  0  0  0  0
 41 39  2  0  0  0  0
 42 35  1  0  0  0  0
 43 36  1  0  0  0  0
 46 38  1  0  0  0  0
M  END
$$$$
