RAT.pdb
 OpenBabel07022418033D

 49 48  0  0  1  0  0  0  0  0999 V2000
   -0.5330   -3.7880    0.6760 N   0  0  0  0  0  0  0  0  0  0  0  0
    0.7410   -3.2730    1.0140 C   0  0  0  0  0  0  0  0  0  0  0  0
    1.2830   -3.6630    2.1200 N   0  0  0  0  0  0  0  0  0  0  0  0
    1.4040   -2.3480    0.1500 N   0  0  0  0  0  0  0  0  0  0  0  0
    2.8520   -2.3180    0.2550 C   0  0  0  0  0  0  0  0  0  0  0  0
    3.5120   -1.3350   -0.6480 C   0  0  0  0  0  0  0  0  0  0  0  0
    3.1440    0.0880   -0.5150 C   0  0  0  0  0  0  0  0  0  0  0  0
    3.3620    0.7200    0.8360 C   0  0  2  0  0  0  0  0  0  0  0  0
    4.7130    0.6330    1.2800 N   0  0  0  0  0  0  0  0  0  0  0  0
    2.3810    0.3360    1.8640 C   0  0  0  0  0  0  0  0  0  0  0  0
    2.6470   -0.2150    2.9680 O   0  0  0  0  0  0  0  0  0  0  0  0
   -0.8090   -4.1610   -0.2440 H   0  0  0  0  0  0  0  0  0  0  0  0
   -1.2900   -3.8020    1.4200 H   0  0  0  0  0  0  0  0  0  0  0  0
    0.8190   -4.3370    2.7660 H   0  0  0  0  0  0  0  0  0  0  0  0
    0.9020   -1.7440   -0.5000 H   0  0  0  0  0  0  0  0  0  0  0  0
    3.1120   -2.2240    1.3120 H   0  0  0  0  0  0  0  0  0  0  0  0
    3.2470   -3.3590   -0.0400 H   0  0  0  0  0  0  0  0  0  0  0  0
    3.2090   -1.6460   -1.7000 H   0  0  0  0  0  0  0  0  0  0  0  0
    4.6290   -1.4950   -0.6450 H   0  0  0  0  0  0  0  0  0  0  0  0
    3.5910    0.7300   -1.3300 H   0  0  0  0  0  0  0  0  0  0  0  0
    2.0260    0.1510   -0.7040 H   0  0  0  0  0  0  0  0  0  0  0  0
    3.1900    1.8410    0.6530 H   0  0  0  0  0  0  0  0  0  0  0  0
    5.3540    0.8030    0.4840 H   0  0  0  0  0  0  0  0  0  0  0  0
    4.9380   -0.1920    1.8550 H   0  0  0  0  0  0  0  0  0  0  0  0
   -0.3520    1.4240    3.5390 C   0  0  0  0  0  0  0  0  0  0  0  0
   -0.0080    0.2110    2.6430 C   0  0  2  0  0  0  0  0  0  0  0  0
    0.9650    0.5830    1.6650 N   0  0  0  0  0  0  0  0  0  0  0  0
   -1.2450   -0.2180    1.9970 C   0  0  0  0  0  0  0  0  0  0  0  0
   -2.1590   -0.6470    2.7900 O   0  0  0  0  0  0  0  0  0  0  0  0
   -0.6980    2.2460    2.9120 H   0  0  0  0  0  0  0  0  0  0  0  0
   -1.1540    1.0560    4.2120 H   0  0  0  0  0  0  0  0  0  0  0  0
    0.5340    1.6240    4.1470 H   0  0  0  0  0  0  0  0  0  0  0  0
    0.3480   -0.5410    3.3700 H   0  0  0  0  0  0  0  0  0  0  0  0
    0.7070    1.0520    0.7780 H   0  0  0  0  0  0  0  0  0  0  0  0
   -3.0120    1.4460   -1.2710 C   0  0  0  0  0  0  0  0  0  0  0  0
   -3.6910    0.5560   -0.2850 C   0  0  1  0  0  0  0  0  0  0  0  0
   -4.9080    0.1080   -0.7790 O   0  0  0  0  0  0  0  0  0  0  0  0
   -2.8330   -0.6560    0.1000 C   0  0  2  0  0  0  0  0  0  0  0  0
   -1.5540   -0.2110    0.6190 N   0  0  0  0  0  0  0  0  0  0  0  0
   -2.7440   -1.5620   -1.0500 C   0  0  0  0  0  0  0  0  0  0  0  0
   -1.6190   -1.8540   -1.5170 O   0  0  0  0  0  0  0  0  0  0  0  0
   -3.8460   -2.1300   -1.6700 O   0  0  0  0  0  0  0  0  0  0  0  0
   -2.4720    2.2840   -0.8160 H   0  0  0  0  0  0  0  0  0  0  0  0
   -2.3740    0.8610   -1.9770 H   0  0  0  0  0  0  0  0  0  0  0  0
   -3.8070    1.9020   -1.9190 H   0  0  0  0  0  0  0  0  0  0  0  0
   -3.9260    1.1610    0.6250 H   0  0  0  0  0  0  0  0  0  0  0  0
   -5.6640    0.6560   -0.4840 H   0  0  0  0  0  0  0  0  0  0  0  0
   -3.4050   -1.1400    0.9130 H   0  0  0  0  0  0  0  0  0  0  0  0
   -0.8260    0.1260   -0.0450 H   0  0  0  0  0  0  0  0  0  0  0  0
  1  2  1  0  0  0  0
  1 13  1  0  0  0  0
  2  3  2  0  0  0  0
  3 14  1  0  0  0  0
  4  5  1  0  0  0  0
  4  2  1  0  0  0  0
  5 16  1  0  0  0  0
  6 19  1  0  0  0  0
  6  7  1  0  0  0  0
  6  5  1  0  0  0  0
  7  8  1  0  0  0  0
  8 22  1  6  0  0  0
  8  9  1  0  0  0  0
  8 10  1  0  0  0  0
  9 24  1  0  0  0  0
 10 11  2  0  0  0  0
 12  1  1  0  0  0  0
 15  4  1  0  0  0  0
 17  5  1  0  0  0  0
 18  6  1  0  0  0  0
 20  7  1  0  0  0  0
 21  7  1  0  0  0  0
 23  9  1  0  0  0  0
 25 32  1  0  0  0  0
 25 31  1  0  0  0  0
 26 33  1  1  0  0  0
 26 25  1  0  0  0  0
 27 10  1  0  0  0  0
 27 26  1  0  0  0  0
 28 26  1  0  0  0  0
 28 29  2  0  0  0  0
 30 25  1  0  0  0  0
 34 27  1  0  0  0  0
 35 43  1  0  0  0  0
 35 36  1  0  0  0  0
 36 38  1  0  0  0  0
 36 46  1  1  0  0  0
 37 47  1  0  0  0  0
 37 36  1  0  0  0  0
 38 39  1  0  0  0  0
 38 48  1  1  0  0  0
 39 28  1  0  0  0  0
 40 38  1  0  0  0  0
 41 40  1  0  0  0  0
 42 40  2  0  0  0  0
 44 35  1  0  0  0  0
 45 35  1  0  0  0  0
 49 39  1  0  0  0  0
M  END
$$$$
