RAV.pdb
 OpenBabel07022418033D

 51 50  0  0  1  0  0  0  0  0999 V2000
    1.1180   -4.9680    4.7830 N   0  0  0  0  0  0  0  0  0  0  0  0
    2.1630   -4.0940    4.3850 C   0  0  0  0  0  0  0  0  0  0  0  0
    3.3410   -4.2860    4.8510 N   0  0  0  0  0  0  0  0  0  0  0  0
    1.9350   -3.0020    3.4740 N   0  0  0  0  0  0  0  0  0  0  0  0
    3.0290   -2.2110    2.9620 C   0  0  0  0  0  0  0  0  0  0  0  0
    3.9410   -2.9610    2.0390 C   0  0  0  0  0  0  0  0  0  0  0  0
    3.3440   -3.4890    0.8000 C   0  0  0  0  0  0  0  0  0  0  0  0
    2.7640   -2.5350   -0.1690 C   0  0  2  0  0  0  0  0  0  0  0  0
    3.6950   -1.5530   -0.6710 N   0  0  0  0  0  0  0  0  0  0  0  0
    1.4530   -1.9780    0.2150 C   0  0  0  0  0  0  0  0  0  0  0  0
    0.4840   -2.6810    0.5960 O   0  0  0  0  0  0  0  0  0  0  0  0
    0.6640   -4.8500    5.7140 H   0  0  0  0  0  0  0  0  0  0  0  0
    0.7820   -5.7340    4.1700 H   0  0  0  0  0  0  0  0  0  0  0  0
    3.6040   -5.0360    5.5050 H   0  0  0  0  0  0  0  0  0  0  0  0
    0.9340   -2.8500    3.2440 H   0  0  0  0  0  0  0  0  0  0  0  0
    2.5660   -1.3120    2.4790 H   0  0  0  0  0  0  0  0  0  0  0  0
    3.6540   -1.8170    3.7960 H   0  0  0  0  0  0  0  0  0  0  0  0
    4.2980   -3.8520    2.6460 H   0  0  0  0  0  0  0  0  0  0  0  0
    4.9070   -2.4010    1.8680 H   0  0  0  0  0  0  0  0  0  0  0  0
    2.5140   -4.1930    1.1090 H   0  0  0  0  0  0  0  0  0  0  0  0
    4.0870   -4.1900    0.3170 H   0  0  0  0  0  0  0  0  0  0  0  0
    2.5370   -3.1620   -1.1000 H   0  0  0  0  0  0  0  0  0  0  0  0
    4.4060   -1.9480   -1.2980 H   0  0  0  0  0  0  0  0  0  0  0  0
    4.1360   -0.9700    0.0390 H   0  0  0  0  0  0  0  0  0  0  0  0
    0.0440    0.9490    1.7390 C   0  0  0  0  0  0  0  0  0  0  0  0
   -0.0580    0.0310    0.5340 C   0  0  2  0  0  0  0  0  0  0  0  0
    1.1920   -0.5600    0.1750 N   0  0  0  0  0  0  0  0  0  0  0  0
   -0.7320    0.6990   -0.6100 C   0  0  0  0  0  0  0  0  0  0  0  0
   -0.2160    0.7160   -1.7640 O   0  0  0  0  0  0  0  0  0  0  0  0
    0.5030    1.9200    1.4950 H   0  0  0  0  0  0  0  0  0  0  0  0
    0.5910    0.3890    2.5210 H   0  0  0  0  0  0  0  0  0  0  0  0
   -1.0050    1.0760    2.1200 H   0  0  0  0  0  0  0  0  0  0  0  0
   -0.7460   -0.8040    0.8440 H   0  0  0  0  0  0  0  0  0  0  0  0
    2.0130    0.0250   -0.1480 H   0  0  0  0  0  0  0  0  0  0  0  0
   -4.8530    1.3390   -0.6360 C   0  0  0  0  0  0  0  0  0  0  0  0
   -3.9370    1.2660   -1.8390 C   0  0  0  0  0  0  0  0  0  0  0  0
   -4.6760    1.8030   -3.0290 C   0  0  0  0  0  0  0  0  0  0  0  0
   -2.6310    1.9930   -1.5880 C   0  0  2  0  0  0  0  0  0  0  0  0
   -1.9880    1.3420   -0.4380 N   0  0  0  0  0  0  0  0  0  0  0  0
   -2.8410    3.4290   -1.3240 C   0  0  0  0  0  0  0  0  0  0  0  0
   -2.4820    3.9170   -0.2290 O   0  0  0  0  0  0  0  0  0  0  0  0
   -3.4240    4.2490   -2.2620 O   0  0  0  0  0  0  0  0  0  0  0  0
   -4.4110    0.8440    0.2420 H   0  0  0  0  0  0  0  0  0  0  0  0
   -5.1650    2.3850   -0.4560 H   0  0  0  0  0  0  0  0  0  0  0  0
   -5.7690    0.7680   -0.8990 H   0  0  0  0  0  0  0  0  0  0  0  0
   -3.7380    0.1920   -2.0360 H   0  0  0  0  0  0  0  0  0  0  0  0
   -5.4020    0.9970   -3.3440 H   0  0  0  0  0  0  0  0  0  0  0  0
   -5.3260    2.6740   -2.7840 H   0  0  0  0  0  0  0  0  0  0  0  0
   -3.9980    2.0260   -3.8890 H   0  0  0  0  0  0  0  0  0  0  0  0
   -2.0060    1.8870   -2.4940 H   0  0  0  0  0  0  0  0  0  0  0  0
   -2.4500    1.3520    0.4970 H   0  0  0  0  0  0  0  0  0  0  0  0
  1 12  1  0  0  0  0
  2  1  1  0  0  0  0
  2  3  2  0  0  0  0
  3 14  1  0  0  0  0
  4  2  1  0  0  0  0
  5  4  1  0  0  0  0
  5 17  1  0  0  0  0
  6 18  1  0  0  0  0
  6  5  1  0  0  0  0
  7 20  1  0  0  0  0
  7  6  1  0  0  0  0
  8 22  1  6  0  0  0
  8 10  1  0  0  0  0
  8  7  1  0  0  0  0
  9  8  1  0  0  0  0
  9 24  1  0  0  0  0
 10 11  2  0  0  0  0
 13  1  1  0  0  0  0
 15  4  1  0  0  0  0
 16  5  1  0  0  0  0
 19  6  1  0  0  0  0
 21  7  1  0  0  0  0
 23  9  1  0  0  0  0
 25 32  1  0  0  0  0
 25 31  1  0  0  0  0
 26 33  1  1  0  0  0
 26 25  1  0  0  0  0
 27 10  1  0  0  0  0
 27 26  1  0  0  0  0
 28 39  1  0  0  0  0
 28 26  1  0  0  0  0
 29 28  2  0  0  0  0
 30 25  1  0  0  0  0
 34 27  1  0  0  0  0
 35 44  1  0  0  0  0
 35 43  1  0  0  0  0
 36 38  1  0  0  0  0
 36 35  1  0  0  0  0
 37 48  1  0  0  0  0
 37 36  1  0  0  0  0
 38 50  1  6  0  0  0
 38 40  1  0  0  0  0
 38 39  1  0  0  0  0
 39 51  1  0  0  0  0
 40 41  1  0  0  0  0
 42 40  2  0  0  0  0
 45 35  1  0  0  0  0
 46 36  1  0  0  0  0
 47 37  1  0  0  0  0
 49 37  1  0  0  0  0
M  END
$$$$
