RAW.pdb
 OpenBabel07022418033D

 59 60  0  0  1  0  0  0  0  0999 V2000
    2.5110    0.0010   -3.8450 N   0  0  0  0  0  0  0  0  0  0  0  0
    2.9370    0.5230   -2.5820 C   0  0  0  0  0  0  0  0  0  0  0  0
    2.6760   -0.0720   -1.4730 N   0  0  0  0  0  0  0  0  0  0  0  0
    3.6700    1.7350   -2.5210 N   0  0  0  0  0  0  0  0  0  0  0  0
    4.5310    1.9720   -1.3900 C   0  0  0  0  0  0  0  0  0  0  0  0
    3.8360    2.1890   -0.0880 C   0  0  0  0  0  0  0  0  0  0  0  0
    2.9080    3.3760   -0.1030 C   0  0  0  0  0  0  0  0  0  0  0  0
    2.2400    3.5730    1.2400 C   0  0  2  0  0  0  0  0  0  0  0  0
    3.2720    3.7920    2.2540 N   0  0  0  0  0  0  0  0  0  0  0  0
    1.3700    2.4470    1.6440 C   0  0  0  0  0  0  0  0  0  0  0  0
    1.6370    1.8190    2.7050 O   0  0  0  0  0  0  0  0  0  0  0  0
    3.0560    0.2340   -4.6840 H   0  0  0  0  0  0  0  0  0  0  0  0
    1.6530   -0.6150   -3.9140 H   0  0  0  0  0  0  0  0  0  0  0  0
    2.1360   -0.9630   -1.5230 H   0  0  0  0  0  0  0  0  0  0  0  0
    3.5930    2.4630   -3.2960 H   0  0  0  0  0  0  0  0  0  0  0  0
    5.1880    2.8400   -1.6510 H   0  0  0  0  0  0  0  0  0  0  0  0
    5.2080    1.0670   -1.3100 H   0  0  0  0  0  0  0  0  0  0  0  0
    4.6540    2.4370    0.6560 H   0  0  0  0  0  0  0  0  0  0  0  0
    3.3780    1.2730    0.3260 H   0  0  0  0  0  0  0  0  0  0  0  0
    2.1550    3.3310   -0.8990 H   0  0  0  0  0  0  0  0  0  0  0  0
    3.5140    4.2880   -0.2840 H   0  0  0  0  0  0  0  0  0  0  0  0
    1.5970    4.4770    1.1730 H   0  0  0  0  0  0  0  0  0  0  0  0
    3.6070    4.7700    2.2140 H   0  0  0  0  0  0  0  0  0  0  0  0
    2.8200    3.6120    3.1980 H   0  0  0  0  0  0  0  0  0  0  0  0
   -1.9280    1.3810    1.8890 C   0  0  0  0  0  0  0  0  0  0  0  0
   -0.5520    0.9020    1.3930 C   0  0  2  0  0  0  0  0  0  0  0  0
    0.2310    2.0080    0.9150 N   0  0  0  0  0  0  0  0  0  0  0  0
   -0.8200   -0.0600    0.3010 C   0  0  0  0  0  0  0  0  0  0  0  0
   -0.3980    0.1680   -0.8740 O   0  0  0  0  0  0  0  0  0  0  0  0
   -2.5370    0.4800    2.0340 H   0  0  0  0  0  0  0  0  0  0  0  0
   -2.3930    2.0560    1.1480 H   0  0  0  0  0  0  0  0  0  0  0  0
   -1.8490    1.9210    2.8360 H   0  0  0  0  0  0  0  0  0  0  0  0
   -0.0860    0.4620    2.2930 H   0  0  0  0  0  0  0  0  0  0  0  0
    0.0100    2.5280    0.0390 H   0  0  0  0  0  0  0  0  0  0  0  0
   -1.5390   -1.2630    0.4800 N   0  0  0  0  0  0  0  0  0  0  0  0
   -1.8070   -2.2190   -0.6100 C   0  0  1  0  0  0  0  0  0  0  0  0
   -1.0840   -3.4970   -0.3750 C   0  0  0  0  0  0  0  0  0  0  0  0
   -1.4430   -4.1430    0.9090 C   0  0  0  0  0  0  0  0  0  0  0  0
   -0.7260   -3.9800    2.0930 C   0  0  0  0  0  0  0  0  0  0  0  0
   -1.3420   -4.6550    3.0370 N   0  0  0  0  0  0  0  0  0  0  0  0
   -2.4450   -5.2680    2.5370 C   0  0  0  0  0  0  0  0  0  0  0  0
   -3.3910   -6.0860    3.1320 C   0  0  0  0  0  0  0  0  0  0  0  0
   -4.4090   -6.5850    2.3720 C   0  0  0  0  0  0  0  0  0  0  0  0
   -4.4940   -6.2810    1.0360 C   0  0  0  0  0  0  0  0  0  0  0  0
   -3.5560   -5.4740    0.4580 C   0  0  0  0  0  0  0  0  0  0  0  0
   -2.5160   -4.9530    1.2020 C   0  0  0  0  0  0  0  0  0  0  0  0
   -3.2530   -2.2780   -0.7990 C   0  0  0  0  0  0  0  0  0  0  0  0
   -3.7770   -2.9120   -1.7500 O   0  0  0  0  0  0  0  0  0  0  0  0
   -4.1660   -1.6390    0.0540 O   0  0  0  0  0  0  0  0  0  0  0  0
   -1.9100   -1.5110    1.4090 H   0  0  0  0  0  0  0  0  0  0  0  0
   -1.3900   -1.7530   -1.5680 H   0  0  0  0  0  0  0  0  0  0  0  0
    0.0060   -3.3210   -0.4080 H   0  0  0  0  0  0  0  0  0  0  0  0
   -1.3610   -4.2240   -1.1850 H   0  0  0  0  0  0  0  0  0  0  0  0
    0.1920   -3.3750    2.1630 H   0  0  0  0  0  0  0  0  0  0  0  0
   -1.0690   -4.7420    4.0340 H   0  0  0  0  0  0  0  0  0  0  0  0
   -3.3090   -6.3150    4.1820 H   0  0  0  0  0  0  0  0  0  0  0  0
   -5.1640   -7.2350    2.8360 H   0  0  0  0  0  0  0  0  0  0  0  0
   -5.2940   -6.6720    0.4290 H   0  0  0  0  0  0  0  0  0  0  0  0
   -3.5980   -5.2450   -0.5790 H   0  0  0  0  0  0  0  0  0  0  0  0
  1  2  1  0  0  0  0
  2  4  1  0  0  0  0
  2  3  2  0  0  0  0
  4  5  1  0  0  0  0
  5 17  1  0  0  0  0
  5  6  1  0  0  0  0
  6 19  1  0  0  0  0
  6 18  1  0  0  0  0
  7  6  1  0  0  0  0
  7  8  1  0  0  0  0
  8 22  1  6  0  0  0
  8 10  1  0  0  0  0
  8  9  1  0  0  0  0
  9 24  1  0  0  0  0
 10 11  2  0  0  0  0
 12  1  1  0  0  0  0
 13  1  1  0  0  0  0
 14  3  1  0  0  0  0
 15  4  1  0  0  0  0
 16  5  1  0  0  0  0
 20  7  1  0  0  0  0
 21  7  1  0  0  0  0
 23  9  1  0  0  0  0
 25 30  1  0  0  0  0
 25 32  1  0  0  0  0
 26 25  1  0  0  0  0
 26 33  1  1  0  0  0
 27 26  1  0  0  0  0
 27 10  1  0  0  0  0
 28 35  1  0  0  0  0
 28 26  1  0  0  0  0
 29 28  2  0  0  0  0
 31 25  1  0  0  0  0
 34 27  1  0  0  0  0
 35 50  1  0  0  0  0
 36 51  1  6  0  0  0
 36 37  1  0  0  0  0
 36 35  1  0  0  0  0
 37 38  1  0  0  0  0
 38 46  1  0  0  0  0
 38 39  2  0  0  0  0
 39 54  1  0  0  0  0
 39 40  1  0  0  0  0
 40 55  1  0  0  0  0
 41 40  1  0  0  0  0
 41 42  1  0  0  0  0
 42 56  1  0  0  0  0
 43 57  1  0  0  0  0
 43 42  2  0  0  0  0
 44 43  1  0  0  0  0
 45 44  2  0  0  0  0
 45 46  1  0  0  0  0
 46 41  2  0  0  0  0
 47 36  1  0  0  0  0
 47 49  1  0  0  0  0
 48 47  2  0  0  0  0
 52 37  1  0  0  0  0
 53 37  1  0  0  0  0
 58 44  1  0  0  0  0
 59 45  1  0  0  0  0
M  END
$$$$
