RAY.pdb
 OpenBabel07022418033D

 56 56  0  0  1  0  0  0  0  0999 V2000
    1.7810   -4.0940    4.4130 N   0  0  0  0  0  0  0  0  0  0  0  0
    1.7580   -2.8980    5.1680 C   0  0  0  0  0  0  0  0  0  0  0  0
    1.3590   -2.8830    6.3970 N   0  0  0  0  0  0  0  0  0  0  0  0
    2.1710   -1.6290    4.6270 N   0  0  0  0  0  0  0  0  0  0  0  0
    1.6500   -0.4030    5.1100 C   0  0  0  0  0  0  0  0  0  0  0  0
    2.0370    0.8480    4.4440 C   0  0  0  0  0  0  0  0  0  0  0  0
    1.6600    1.0990    3.0420 C   0  0  0  0  0  0  0  0  0  0  0  0
    2.1840    0.1990    1.9710 C   0  0  2  0  0  0  0  0  0  0  0  0
    3.6600    0.2520    1.9990 N   0  0  0  0  0  0  0  0  0  0  0  0
    1.8470    0.7410    0.6130 C   0  0  0  0  0  0  0  0  0  0  0  0
    2.4430    1.8110    0.2300 O   0  0  0  0  0  0  0  0  0  0  0  0
    2.4420   -4.8780    4.6190 H   0  0  0  0  0  0  0  0  0  0  0  0
    1.1290   -4.2750    3.5960 H   0  0  0  0  0  0  0  0  0  0  0  0
    1.0310   -3.7450    6.9070 H   0  0  0  0  0  0  0  0  0  0  0  0
    2.8900   -1.6740    3.8830 H   0  0  0  0  0  0  0  0  0  0  0  0
    2.0020   -0.3290    6.1940 H   0  0  0  0  0  0  0  0  0  0  0  0
    0.5270   -0.4260    5.2190 H   0  0  0  0  0  0  0  0  0  0  0  0
    3.1650    1.0290    4.5250 H   0  0  0  0  0  0  0  0  0  0  0  0
    1.6240    1.7320    5.0420 H   0  0  0  0  0  0  0  0  0  0  0  0
    0.5360    1.2200    2.9650 H   0  0  0  0  0  0  0  0  0  0  0  0
    2.0320    2.1490    2.7980 H   0  0  0  0  0  0  0  0  0  0  0  0
    1.8630   -0.8160    2.1050 H   0  0  0  0  0  0  0  0  0  0  0  0
    4.0680    0.1520    2.9200 H   0  0  0  0  0  0  0  0  0  0  0  0
    3.9860    1.0880    1.4770 H   0  0  0  0  0  0  0  0  0  0  0  0
    1.3230    0.0090   -2.7050 C   0  0  0  0  0  0  0  0  0  0  0  0
    0.6340    0.7610   -1.5750 C   0  0  2  0  0  0  0  0  0  0  0  0
    0.9300    0.1750   -0.2850 N   0  0  0  0  0  0  0  0  0  0  0  0
   -0.8480    0.7940   -1.8230 C   0  0  0  0  0  0  0  0  0  0  0  0
   -1.3070    1.2740   -2.8810 O   0  0  0  0  0  0  0  0  0  0  0  0
    2.0870    0.6660   -3.1330 H   0  0  0  0  0  0  0  0  0  0  0  0
    1.6990   -0.9780   -2.4230 H   0  0  0  0  0  0  0  0  0  0  0  0
    0.5360   -0.1220   -3.5080 H   0  0  0  0  0  0  0  0  0  0  0  0
    1.0490    1.7860   -1.5760 H   0  0  0  0  0  0  0  0  0  0  0  0
    0.4510   -0.7120   -0.0140 H   0  0  0  0  0  0  0  0  0  0  0  0
   -0.8460   -3.6230   -5.6610 O   0  0  0  0  0  0  0  0  0  0  0  0
   -1.5110   -3.0220   -4.5810 C   0  0  0  0  0  0  0  0  0  0  0  0
   -2.7130   -2.3660   -4.7590 C   0  0  0  0  0  0  0  0  0  0  0  0
   -3.3580   -1.7790   -3.6890 C   0  0  0  0  0  0  0  0  0  0  0  0
   -2.8360   -1.8190   -2.4000 C   0  0  0  0  0  0  0  0  0  0  0  0
   -3.5920   -1.1650   -1.3030 C   0  0  0  0  0  0  0  0  0  0  0  0
   -3.1860    0.3190   -1.1700 C   0  0  2  0  0  0  0  0  0  0  0  0
   -1.7560    0.2840   -0.8780 N   0  0  0  0  0  0  0  0  0  0  0  0
   -3.9100    0.8790   -0.0120 C   0  0  0  0  0  0  0  0  0  0  0  0
   -3.2910    1.2340    1.0510 O   0  0  0  0  0  0  0  0  0  0  0  0
   -1.6390   -2.4750   -2.2310 C   0  0  0  0  0  0  0  0  0  0  0  0
   -0.9820   -3.0710   -3.3150 C   0  0  0  0  0  0  0  0  0  0  0  0
   -5.2830    1.0590    0.0140 O   0  0  0  0  0  0  0  0  0  0  0  0
    0.0720   -3.9890   -5.5840 H   0  0  0  0  0  0  0  0  0  0  0  0
   -3.1250   -2.3230   -5.7400 H   0  0  0  0  0  0  0  0  0  0  0  0
   -4.3130   -1.2620   -3.8510 H   0  0  0  0  0  0  0  0  0  0  0  0
   -3.3920   -1.7120   -0.3530 H   0  0  0  0  0  0  0  0  0  0  0  0
   -4.6840   -1.2700   -1.4820 H   0  0  0  0  0  0  0  0  0  0  0  0
   -3.3860    0.8330   -2.1320 H   0  0  0  0  0  0  0  0  0  0  0  0
   -1.4680   -0.1290    0.0330 H   0  0  0  0  0  0  0  0  0  0  0  0
   -1.2160   -2.5250   -1.2420 H   0  0  0  0  0  0  0  0  0  0  0  0
   -0.0510   -3.5750   -3.1640 H   0  0  0  0  0  0  0  0  0  0  0  0
  1 12  1  0  0  0  0
  1  2  1  0  0  0  0
  2  3  2  0  0  0  0
  3 14  1  0  0  0  0
  4  5  1  0  0  0  0
  4  2  1  0  0  0  0
  5 17  1  0  0  0  0
  5 16  1  0  0  0  0
  6 18  1  0  0  0  0
  6 19  1  0  0  0  0
  6  5  1  0  0  0  0
  7  6  1  0  0  0  0
  8  9  1  0  0  0  0
  8 22  1  1  0  0  0
  8  7  1  0  0  0  0
  9 23  1  0  0  0  0
 10  8  1  0  0  0  0
 11 10  2  0  0  0  0
 13  1  1  0  0  0  0
 15  4  1  0  0  0  0
 20  7  1  0  0  0  0
 21  7  1  0  0  0  0
 24  9  1  0  0  0  0
 25 31  1  0  0  0  0
 25 26  1  0  0  0  0
 26 33  1  6  0  0  0
 26 27  1  0  0  0  0
 27 34  1  0  0  0  0
 27 10  1  0  0  0  0
 28 26  1  0  0  0  0
 28 42  1  0  0  0  0
 29 28  2  0  0  0  0
 30 25  1  0  0  0  0
 32 25  1  0  0  0  0
 35 48  1  0  0  0  0
 35 36  1  0  0  0  0
 36 46  1  0  0  0  0
 37 36  2  0  0  0  0
 37 38  1  0  0  0  0
 38 39  2  0  0  0  0
 39 45  1  0  0  0  0
 39 40  1  0  0  0  0
 40 41  1  0  0  0  0
 40 51  1  0  0  0  0
 41 53  1  6  0  0  0
 41 42  1  0  0  0  0
 41 43  1  0  0  0  0
 42 54  1  0  0  0  0
 43 47  2  0  0  0  0
 43 44  1  0  0  0  0
 45 55  1  0  0  0  0
 46 56  1  0  0  0  0
 46 45  2  0  0  0  0
 49 37  1  0  0  0  0
 50 38  1  0  0  0  0
 52 40  1  0  0  0  0
M  END
$$$$
