RCA.pdb
 OpenBabel07022418043D

 46 45  0  0  1  0  0  0  0  0999 V2000
   -3.3980   -4.1640   -0.6360 N   0  0  0  0  0  0  0  0  0  0  0  0
   -2.0020   -4.0090   -0.8250 C   0  0  0  0  0  0  0  0  0  0  0  0
   -1.3740   -4.5790   -1.7910 N   0  0  0  0  0  0  0  0  0  0  0  0
   -1.2060   -3.2040    0.0470 N   0  0  0  0  0  0  0  0  0  0  0  0
    0.1900   -2.9150   -0.1870 C   0  0  0  0  0  0  0  0  0  0  0  0
    0.3190   -2.0360   -1.3860 C   0  0  0  0  0  0  0  0  0  0  0  0
    1.6990   -1.6540   -1.7690 C   0  0  0  0  0  0  0  0  0  0  0  0
    2.5270   -0.9210   -0.7890 C   0  0  2  0  0  0  0  0  0  0  0  0
    2.7370   -1.6500    0.4570 N   0  0  0  0  0  0  0  0  0  0  0  0
    2.1130    0.4980   -0.5480 C   0  0  0  0  0  0  0  0  0  0  0  0
    2.2130    1.3000   -1.5030 O   0  0  0  0  0  0  0  0  0  0  0  0
   -3.7830   -4.9610   -0.0890 H   0  0  0  0  0  0  0  0  0  0  0  0
   -4.0430   -3.4550   -1.0540 H   0  0  0  0  0  0  0  0  0  0  0  0
   -1.8230   -5.1910   -2.5050 H   0  0  0  0  0  0  0  0  0  0  0  0
   -1.7300   -2.8310    0.9010 H   0  0  0  0  0  0  0  0  0  0  0  0
    0.7200   -3.8790   -0.2640 H   0  0  0  0  0  0  0  0  0  0  0  0
    0.5520   -2.4520    0.7500 H   0  0  0  0  0  0  0  0  0  0  0  0
   -0.3080   -1.1250   -1.2990 H   0  0  0  0  0  0  0  0  0  0  0  0
   -0.1020   -2.6080   -2.2410 H   0  0  0  0  0  0  0  0  0  0  0  0
    2.2490   -2.5580   -2.1040 H   0  0  0  0  0  0  0  0  0  0  0  0
    1.6120   -1.0020   -2.6720 H   0  0  0  0  0  0  0  0  0  0  0  0
    3.5380   -0.8610   -1.2250 H   0  0  0  0  0  0  0  0  0  0  0  0
    3.3580   -1.0480    1.0600 H   0  0  0  0  0  0  0  0  0  0  0  0
    3.2700   -2.5220    0.2000 H   0  0  0  0  0  0  0  0  0  0  0  0
    1.6270    0.9340    0.6970 N   0  0  0  0  0  0  0  0  0  0  0  0
    1.2170    2.2190    1.1310 C   0  0  1  0  0  0  0  0  0  0  0  0
    0.9890    3.2930    0.0920 C   0  0  0  0  0  0  0  0  0  0  0  0
    2.5250    3.6870   -0.7300 S   0  0  0  0  0  0  0  0  0  0  0  0
    0.2050    2.2430    2.2030 C   0  0  0  0  0  0  0  0  0  0  0  0
   -0.2040    3.3800    2.6370 O   0  0  0  0  0  0  0  0  0  0  0  0
    1.5760    0.1060    1.4310 H   0  0  0  0  0  0  0  0  0  0  0  0
    2.2030    2.6590    1.6160 H   0  0  0  0  0  0  0  0  0  0  0  0
    0.1630    3.0340   -0.6030 H   0  0  0  0  0  0  0  0  0  0  0  0
    0.6480    4.2000    0.6530 H   0  0  0  0  0  0  0  0  0  0  0  0
    3.5350    3.7960    0.2650 H   0  0  0  0  0  0  0  0  0  0  0  0
   -2.6550    0.5830    3.3270 C   0  0  0  0  0  0  0  0  0  0  0  0
   -1.3970    1.2650    3.8760 C   0  0  2  0  0  0  0  0  0  0  0  0
   -0.3840    1.1140    2.8170 N   0  0  0  0  0  0  0  0  0  0  0  0
   -0.9520    0.5000    5.0690 C   0  0  0  0  0  0  0  0  0  0  0  0
   -1.7160    0.5350    6.0990 O   0  0  0  0  0  0  0  0  0  0  0  0
    0.2080   -0.2330    5.1380 O   0  0  0  0  0  0  0  0  0  0  0  0
   -2.3860   -0.4660    3.0720 H   0  0  0  0  0  0  0  0  0  0  0  0
   -3.4700    0.5680    4.1020 H   0  0  0  0  0  0  0  0  0  0  0  0
   -2.9780    1.1010    2.4030 H   0  0  0  0  0  0  0  0  0  0  0  0
   -1.5780    2.3180    4.1280 H   0  0  0  0  0  0  0  0  0  0  0  0
   -0.0910    0.1620    2.5170 H   0  0  0  0  0  0  0  0  0  0  0  0
  1 12  1  0  0  0  0
  2  1  1  0  0  0  0
  2  4  1  0  0  0  0
  3  2  2  0  0  0  0
  4 15  1  0  0  0  0
  5  4  1  0  0  0  0
  5 17  1  0  0  0  0
  6 18  1  0  0  0  0
  6  5  1  0  0  0  0
  7  6  1  0  0  0  0
  7  8  1  0  0  0  0
  8 22  1  6  0  0  0
  8 10  1  0  0  0  0
  8  9  1  0  0  0  0
  9 23  1  0  0  0  0
 10 25  1  0  0  0  0
 11 10  2  0  0  0  0
 13  1  1  0  0  0  0
 14  3  1  0  0  0  0
 16  5  1  0  0  0  0
 19  6  1  0  0  0  0
 20  7  1  0  0  0  0
 21  7  1  0  0  0  0
 24  9  1  0  0  0  0
 25 26  1  0  0  0  0
 25 31  1  0  0  0  0
 26 32  1  1  0  0  0
 26 29  1  0  0  0  0
 27 34  1  0  0  0  0
 27 26  1  0  0  0  0
 28 27  1  0  0  0  0
 28 35  1  0  0  0  0
 29 30  2  0  0  0  0
 29 38  1  0  0  0  0
 33 27  1  0  0  0  0
 36 37  1  0  0  0  0
 36 43  1  0  0  0  0
 37 45  1  1  0  0  0
 37 39  1  0  0  0  0
 38 37  1  0  0  0  0
 39 41  2  0  0  0  0
 39 40  1  0  0  0  0
 42 36  1  0  0  0  0
 44 36  1  0  0  0  0
 46 38  1  0  0  0  0
M  END
$$$$
