RCC.pdb
 OpenBabel07022418043D

 47 46  0  0  1  0  0  0  0  0999 V2000
    1.1890   -6.0920   -2.3690 N   0  0  0  0  0  0  0  0  0  0  0  0
    2.1700   -5.0690   -2.3230 C   0  0  0  0  0  0  0  0  0  0  0  0
    2.8730   -4.7830   -3.3670 N   0  0  0  0  0  0  0  0  0  0  0  0
    2.3750   -4.3550   -1.1140 N   0  0  0  0  0  0  0  0  0  0  0  0
    3.5040   -3.4780   -0.9270 C   0  0  0  0  0  0  0  0  0  0  0  0
    3.4580   -2.2570   -1.7790 C   0  0  0  0  0  0  0  0  0  0  0  0
    2.2830   -1.3620   -1.5800 C   0  0  0  0  0  0  0  0  0  0  0  0
    2.1290   -0.7880   -0.2040 C   0  0  2  0  0  0  0  0  0  0  0  0
    1.9710   -1.7960    0.8210 N   0  0  0  0  0  0  0  0  0  0  0  0
    0.9760    0.1420   -0.1920 C   0  0  0  0  0  0  0  0  0  0  0  0
    0.8610    1.1060   -0.9910 O   0  0  0  0  0  0  0  0  0  0  0  0
    0.9990   -6.6240   -1.4890 H   0  0  0  0  0  0  0  0  0  0  0  0
    0.6610   -6.3270   -3.2380 H   0  0  0  0  0  0  0  0  0  0  0  0
    2.7170   -5.3080   -4.2440 H   0  0  0  0  0  0  0  0  0  0  0  0
    1.6850   -4.4740   -0.3430 H   0  0  0  0  0  0  0  0  0  0  0  0
    3.6780   -3.2570    0.1250 H   0  0  0  0  0  0  0  0  0  0  0  0
    4.4060   -4.0920   -1.2420 H   0  0  0  0  0  0  0  0  0  0  0  0
    3.4680   -2.5380   -2.8640 H   0  0  0  0  0  0  0  0  0  0  0  0
    4.3710   -1.6390   -1.5370 H   0  0  0  0  0  0  0  0  0  0  0  0
    2.4350   -0.4770   -2.2650 H   0  0  0  0  0  0  0  0  0  0  0  0
    1.3850   -1.9000   -1.9270 H   0  0  0  0  0  0  0  0  0  0  0  0
    3.0310   -0.2000    0.0990 H   0  0  0  0  0  0  0  0  0  0  0  0
    2.0430   -1.4310    1.7730 H   0  0  0  0  0  0  0  0  0  0  0  0
    1.1370   -2.3950    0.6950 H   0  0  0  0  0  0  0  0  0  0  0  0
   -0.0470   -0.0450    0.7460 N   0  0  0  0  0  0  0  0  0  0  0  0
   -1.2150    0.7540    0.8890 C   0  0  1  0  0  0  0  0  0  0  0  0
   -2.5010    0.0570    0.6230 C   0  0  0  0  0  0  0  0  0  0  0  0
   -2.8420   -1.3400    1.6710 S   0  0  0  0  0  0  0  0  0  0  0  0
   -1.1590    1.4310    2.2000 C   0  0  0  0  0  0  0  0  0  0  0  0
   -0.1740    1.2180    2.9420 O   0  0  0  0  0  0  0  0  0  0  0  0
    0.0380   -0.8580    1.4290 H   0  0  0  0  0  0  0  0  0  0  0  0
   -1.1370    1.5710    0.1100 H   0  0  0  0  0  0  0  0  0  0  0  0
   -3.3190    0.7910    0.6960 H   0  0  0  0  0  0  0  0  0  0  0  0
   -2.4840   -0.2870   -0.4410 H   0  0  0  0  0  0  0  0  0  0  0  0
   -2.1050   -2.4760    1.3900 H   0  0  0  0  0  0  0  0  0  0  0  0
   -2.1690    2.3170    2.6680 N   0  0  0  0  0  0  0  0  0  0  0  0
   -2.1000    2.9750    3.9610 C   0  0  1  0  0  0  0  0  0  0  0  0
   -2.0980    4.4790    3.8320 C   0  0  0  0  0  0  0  0  0  0  0  0
   -3.6060    4.9990    3.0140 S   0  0  0  0  0  0  0  0  0  0  0  0
   -3.2490    2.5880    4.7940 C   0  0  0  0  0  0  0  0  0  0  0  0
   -3.3790    3.0430    5.9450 O   0  0  0  0  0  0  0  0  0  0  0  0
   -4.1960    1.7180    4.3090 O   0  0  0  0  0  0  0  0  0  0  0  0
   -2.9630    2.4550    2.0070 H   0  0  0  0  0  0  0  0  0  0  0  0
   -1.1800    2.6950    4.5140 H   0  0  0  0  0  0  0  0  0  0  0  0
   -2.1160    4.8780    4.8790 H   0  0  0  0  0  0  0  0  0  0  0  0
   -1.1790    4.8730    3.3710 H   0  0  0  0  0  0  0  0  0  0  0  0
   -4.7030    4.6510    3.8240 H   0  0  0  0  0  0  0  0  0  0  0  0
  1  2  1  0  0  0  0
  1 12  1  0  0  0  0
  2  4  1  0  0  0  0
  3  2  2  0  0  0  0
  4  5  1  0  0  0  0
  4 15  1  0  0  0  0
  5 16  1  0  0  0  0
  6  7  1  0  0  0  0
  6 19  1  0  0  0  0
  6  5  1  0  0  0  0
  7  8  1  0  0  0  0
  8 10  1  0  0  0  0
  8 22  1  1  0  0  0
  8  9  1  0  0  0  0
  9 23  1  0  0  0  0
 10 25  1  0  0  0  0
 11 10  2  0  0  0  0
 13  1  1  0  0  0  0
 14  3  1  0  0  0  0
 17  5  1  0  0  0  0
 18  6  1  0  0  0  0
 20  7  1  0  0  0  0
 21  7  1  0  0  0  0
 24  9  1  0  0  0  0
 25 26  1  0  0  0  0
 25 31  1  0  0  0  0
 26 32  1  6  0  0  0
 26 29  1  0  0  0  0
 27 33  1  0  0  0  0
 27 26  1  0  0  0  0
 27 28  1  0  0  0  0
 29 36  1  0  0  0  0
 29 30  2  0  0  0  0
 34 27  1  0  0  0  0
 35 28  1  0  0  0  0
 36 37  1  0  0  0  0
 37 44  1  1  0  0  0
 37 40  1  0  0  0  0
 38 37  1  0  0  0  0
 38 45  1  0  0  0  0
 39 47  1  0  0  0  0
 39 38  1  0  0  0  0
 40 41  1  0  0  0  0
 42 40  2  0  0  0  0
 43 36  1  0  0  0  0
 46 38  1  0  0  0  0
M  END
$$$$
