RCD.pdb
 OpenBabel07022418043D

 49 48  0  0  1  0  0  0  0  0999 V2000
    2.8280   -4.8870    4.2530 N   0  0  0  0  0  0  0  0  0  0  0  0
    3.0120   -3.5400    3.7680 C   0  0  0  0  0  0  0  0  0  0  0  0
    3.8150   -2.7580    4.3710 N   0  0  0  0  0  0  0  0  0  0  0  0
    2.3100   -3.0710    2.6280 N   0  0  0  0  0  0  0  0  0  0  0  0
    2.9390   -2.1180    1.7240 C   0  0  0  0  0  0  0  0  0  0  0  0
    1.9880   -1.8020    0.6080 C   0  0  0  0  0  0  0  0  0  0  0  0
    2.4730   -0.8500   -0.4140 C   0  0  0  0  0  0  0  0  0  0  0  0
    2.8490    0.5120    0.0270 C   0  0  2  0  0  0  0  0  0  0  0  0
    3.9280    0.5410    1.0050 N   0  0  0  0  0  0  0  0  0  0  0  0
    1.7020    1.3470    0.4740 C   0  0  0  0  0  0  0  0  0  0  0  0
    1.7370    1.9640    1.5930 O   0  0  0  0  0  0  0  0  0  0  0  0
    2.0870   -5.5040    3.8620 H   0  0  0  0  0  0  0  0  0  0  0  0
    3.4500   -5.2450    5.0090 H   0  0  0  0  0  0  0  0  0  0  0  0
    4.0080   -1.7930    4.1010 H   0  0  0  0  0  0  0  0  0  0  0  0
    1.3380   -3.4360    2.4670 H   0  0  0  0  0  0  0  0  0  0  0  0
    3.1680   -1.2320    2.3530 H   0  0  0  0  0  0  0  0  0  0  0  0
    3.8170   -2.6080    1.2890 H   0  0  0  0  0  0  0  0  0  0  0  0
    1.7990   -2.7790    0.0710 H   0  0  0  0  0  0  0  0  0  0  0  0
    0.9650   -1.5270    1.0000 H   0  0  0  0  0  0  0  0  0  0  0  0
    3.3470   -1.3000   -0.9460 H   0  0  0  0  0  0  0  0  0  0  0  0
    1.6860   -0.7530   -1.1900 H   0  0  0  0  0  0  0  0  0  0  0  0
    3.2720    1.0410   -0.8780 H   0  0  0  0  0  0  0  0  0  0  0  0
    3.8970    1.4890    1.4420 H   0  0  0  0  0  0  0  0  0  0  0  0
    4.8730    0.4940    0.5330 H   0  0  0  0  0  0  0  0  0  0  0  0
    0.5330    1.5070   -0.2900 N   0  0  0  0  0  0  0  0  0  0  0  0
   -0.5930    2.3300    0.1490 C   0  0  1  0  0  0  0  0  0  0  0  0
   -0.7300    3.4720   -0.8130 C   0  0  0  0  0  0  0  0  0  0  0  0
   -2.0790    4.5800   -0.4060 S   0  0  0  0  0  0  0  0  0  0  0  0
   -1.8340    1.5200    0.2220 C   0  0  0  0  0  0  0  0  0  0  0  0
   -2.9310    2.0500    0.5890 O   0  0  0  0  0  0  0  0  0  0  0  0
    0.4480    1.0280   -1.2080 H   0  0  0  0  0  0  0  0  0  0  0  0
   -0.3510    2.7820    1.1550 H   0  0  0  0  0  0  0  0  0  0  0  0
   -0.9030    3.0170   -1.8270 H   0  0  0  0  0  0  0  0  0  0  0  0
    0.2380    4.0350   -0.8120 H   0  0  0  0  0  0  0  0  0  0  0  0
   -2.9500    4.6980   -1.4990 H   0  0  0  0  0  0  0  0  0  0  0  0
   -1.8970    0.1390   -0.0980 N   0  0  0  0  0  0  0  0  0  0  0  0
   -3.1790   -0.6170   -0.0010 C   0  0  1  0  0  0  0  0  0  0  0  0
   -3.4970   -1.2290   -1.3240 C   0  0  0  0  0  0  0  0  0  0  0  0
   -4.7700   -1.9480   -1.2970 C   0  0  0  0  0  0  0  0  0  0  0  0
   -5.5080   -1.9190   -0.2990 O   0  0  0  0  0  0  0  0  0  0  0  0
   -2.9630   -1.6270    1.0810 C   0  0  0  0  0  0  0  0  0  0  0  0
   -3.8120   -2.4420    1.4750 O   0  0  0  0  0  0  0  0  0  0  0  0
   -5.1770   -2.6830   -2.4000 O   0  0  0  0  0  0  0  0  0  0  0  0
   -1.7170   -1.7010    1.7350 O   0  0  0  0  0  0  0  0  0  0  0  0
   -1.0230   -0.3290   -0.4030 H   0  0  0  0  0  0  0  0  0  0  0  0
   -3.9400    0.0950    0.3510 H   0  0  0  0  0  0  0  0  0  0  0  0
   -3.4940   -0.4020   -2.0770 H   0  0  0  0  0  0  0  0  0  0  0  0
   -2.6430   -1.9300   -1.5630 H   0  0  0  0  0  0  0  0  0  0  0  0
   -6.1680   -2.7140   -2.6810 H   0  0  0  0  0  0  0  0  0  0  0  0
  1 13  1  0  0  0  0
  2  1  1  0  0  0  0
  2  3  2  0  0  0  0
  4  2  1  0  0  0  0
  5 16  1  0  0  0  0
  5  4  1  0  0  0  0
  6 19  1  0  0  0  0
  6  5  1  0  0  0  0
  7  8  1  0  0  0  0
  7  6  1  0  0  0  0
  8 22  1  6  0  0  0
  8 10  1  0  0  0  0
  8  9  1  0  0  0  0
  9 23  1  0  0  0  0
 10 11  2  0  0  0  0
 12  1  1  0  0  0  0
 14  3  1  0  0  0  0
 15  4  1  0  0  0  0
 17  5  1  0  0  0  0
 18  6  1  0  0  0  0
 20  7  1  0  0  0  0
 21  7  1  0  0  0  0
 24  9  1  0  0  0  0
 25 26  1  0  0  0  0
 25 10  1  0  0  0  0
 26 29  1  0  0  0  0
 26 32  1  1  0  0  0
 27 34  1  0  0  0  0
 27 28  1  0  0  0  0
 27 26  1  0  0  0  0
 29 30  2  0  0  0  0
 31 25  1  0  0  0  0
 33 27  1  0  0  0  0
 35 28  1  0  0  0  0
 36 37  1  0  0  0  0
 36 29  1  0  0  0  0
 37 46  1  1  0  0  0
 37 41  1  0  0  0  0
 38 39  1  0  0  0  0
 38 37  1  0  0  0  0
 39 40  2  0  0  0  0
 41 42  2  0  0  0  0
 41 44  1  0  0  0  0
 43 39  1  0  0  0  0
 45 36  1  0  0  0  0
 47 38  1  0  0  0  0
 48 38  1  0  0  0  0
 49 43  1  0  0  0  0
M  END
$$$$
