RCE.pdb
 OpenBabel07022418043D

 52 51  0  0  1  0  0  0  0  0999 V2000
    6.9600   -4.1790    2.3600 N   0  0  0  0  0  0  0  0  0  0  0  0
    5.6840   -3.6270    2.0800 C   0  0  0  0  0  0  0  0  0  0  0  0
    4.8360   -4.3630    1.4390 N   0  0  0  0  0  0  0  0  0  0  0  0
    5.3350   -2.3270    2.4780 N   0  0  0  0  0  0  0  0  0  0  0  0
    4.2600   -1.5810    1.8130 C   0  0  0  0  0  0  0  0  0  0  0  0
    4.0770   -0.2370    2.4160 C   0  0  0  0  0  0  0  0  0  0  0  0
    3.0490    0.6560    1.8090 C   0  0  0  0  0  0  0  0  0  0  0  0
    1.6940    0.0760    1.8540 C   0  0  2  0  0  0  0  0  0  0  0  0
    1.6190   -1.1540    1.1140 N   0  0  0  0  0  0  0  0  0  0  0  0
    0.6690    1.0600    1.3940 C   0  0  0  0  0  0  0  0  0  0  0  0
    0.5620    2.2020    1.9030 O   0  0  0  0  0  0  0  0  0  0  0  0
    7.6540   -3.6870    2.9760 H   0  0  0  0  0  0  0  0  0  0  0  0
    7.2610   -5.0880    1.9700 H   0  0  0  0  0  0  0  0  0  0  0  0
    5.0490   -5.3280    1.1250 H   0  0  0  0  0  0  0  0  0  0  0  0
    5.8250   -1.8640    3.2490 H   0  0  0  0  0  0  0  0  0  0  0  0
    4.4890   -1.5940    0.7360 H   0  0  0  0  0  0  0  0  0  0  0  0
    3.3550   -2.2050    2.0340 H   0  0  0  0  0  0  0  0  0  0  0  0
    5.0850    0.2600    2.4160 H   0  0  0  0  0  0  0  0  0  0  0  0
    3.8340   -0.4070    3.5120 H   0  0  0  0  0  0  0  0  0  0  0  0
    3.3670    0.8360    0.7320 H   0  0  0  0  0  0  0  0  0  0  0  0
    3.1220    1.6360    2.3670 H   0  0  0  0  0  0  0  0  0  0  0  0
    1.4310   -0.1910    2.9130 H   0  0  0  0  0  0  0  0  0  0  0  0
    0.6990   -1.5920    1.2520 H   0  0  0  0  0  0  0  0  0  0  0  0
    1.7510   -1.0320    0.0910 H   0  0  0  0  0  0  0  0  0  0  0  0
   -0.2360    0.7380    0.3510 N   0  0  0  0  0  0  0  0  0  0  0  0
   -1.2310    1.6840   -0.0980 C   0  0  1  0  0  0  0  0  0  0  0  0
   -0.8210    2.0710   -1.5250 C   0  0  0  0  0  0  0  0  0  0  0  0
   -2.0230    3.2480   -2.1410 S   0  0  0  0  0  0  0  0  0  0  0  0
   -2.5930    1.1430   -0.0740 C   0  0  0  0  0  0  0  0  0  0  0  0
   -3.5410    1.8850   -0.4300 O   0  0  0  0  0  0  0  0  0  0  0  0
   -0.2230   -0.1870   -0.1330 H   0  0  0  0  0  0  0  0  0  0  0  0
   -1.1160    2.6060    0.5040 H   0  0  0  0  0  0  0  0  0  0  0  0
    0.2120    2.4470   -1.5030 H   0  0  0  0  0  0  0  0  0  0  0  0
   -0.9290    1.1280   -2.1100 H   0  0  0  0  0  0  0  0  0  0  0  0
   -2.6100    3.9360   -1.0710 H   0  0  0  0  0  0  0  0  0  0  0  0
   -2.9120   -0.1790    0.3300 N   0  0  0  0  0  0  0  0  0  0  0  0
   -4.2730   -0.7100    0.3530 C   0  0  1  0  0  0  0  0  0  0  0  0
   -4.3690   -1.9860   -0.4520 C   0  0  0  0  0  0  0  0  0  0  0  0
   -4.0100   -1.8360   -1.8870 C   0  0  0  0  0  0  0  0  0  0  0  0
   -4.8640   -0.8790   -2.6320 C   0  0  0  0  0  0  0  0  0  0  0  0
   -4.5910   -0.6910   -3.8640 O   0  0  0  0  0  0  0  0  0  0  0  0
   -4.6240   -1.0680    1.7480 C   0  0  0  0  0  0  0  0  0  0  0  0
   -3.7990   -0.8990    2.6720 O   0  0  0  0  0  0  0  0  0  0  0  0
   -5.9230   -0.1900   -2.0770 O   0  0  0  0  0  0  0  0  0  0  0  0
   -5.8640   -1.5930    2.0550 O   0  0  0  0  0  0  0  0  0  0  0  0
   -2.1250   -0.7970    0.6240 H   0  0  0  0  0  0  0  0  0  0  0  0
   -5.0080    0.0570    0.0400 H   0  0  0  0  0  0  0  0  0  0  0  0
   -3.7030   -2.7370    0.0240 H   0  0  0  0  0  0  0  0  0  0  0  0
   -5.3900   -2.4140   -0.3970 H   0  0  0  0  0  0  0  0  0  0  0  0
   -4.1190   -2.8140   -2.4110 H   0  0  0  0  0  0  0  0  0  0  0  0
   -2.9630   -1.5250   -2.0620 H   0  0  0  0  0  0  0  0  0  0  0  0
   -6.4140    0.5020   -2.6550 H   0  0  0  0  0  0  0  0  0  0  0  0
  1 12  1  0  0  0  0
  2  1  1  0  0  0  0
  2  4  1  0  0  0  0
  3  2  2  0  0  0  0
  4 15  1  0  0  0  0
  5 17  1  0  0  0  0
  5  6  1  0  0  0  0
  5  4  1  0  0  0  0
  6 18  1  0  0  0  0
  6 19  1  0  0  0  0
  7  8  1  0  0  0  0
  7 21  1  0  0  0  0
  7  6  1  0  0  0  0
  8 22  1  1  0  0  0
  9 23  1  0  0  0  0
  9  8  1  0  0  0  0
 10  8  1  0  0  0  0
 10 11  2  0  0  0  0
 13  1  1  0  0  0  0
 14  3  1  0  0  0  0
 16  5  1  0  0  0  0
 20  7  1  0  0  0  0
 24  9  1  0  0  0  0
 25 10  1  0  0  0  0
 26 29  1  0  0  0  0
 26 25  1  0  0  0  0
 26 32  1  1  0  0  0
 27 33  1  0  0  0  0
 27 26  1  0  0  0  0
 28 27  1  0  0  0  0
 28 35  1  0  0  0  0
 29 36  1  0  0  0  0
 30 29  2  0  0  0  0
 31 25  1  0  0  0  0
 34 27  1  0  0  0  0
 36 37  1  0  0  0  0
 36 46  1  0  0  0  0
 37 47  1  6  0  0  0
 37 42  1  0  0  0  0
 38 49  1  0  0  0  0
 38 48  1  0  0  0  0
 38 37  1  0  0  0  0
 39 38  1  0  0  0  0
 40 44  1  0  0  0  0
 40 39  1  0  0  0  0
 41 40  2  0  0  0  0
 42 45  2  0  0  0  0
 42 43  1  0  0  0  0
 50 39  1  0  0  0  0
 51 39  1  0  0  0  0
 52 44  1  0  0  0  0
M  END
$$$$
