RCF.pdb
 OpenBabel07022418053D

 56 56  0  0  1  0  0  0  0  0999 V2000
    4.5360   -3.0740   -0.7770 N   0  0  0  0  0  0  0  0  0  0  0  0
    5.0130   -2.0650    0.1020 C   0  0  0  0  0  0  0  0  0  0  0  0
    6.1860   -2.1500    0.6330 N   0  0  0  0  0  0  0  0  0  0  0  0
    4.1910   -0.9310    0.4070 N   0  0  0  0  0  0  0  0  0  0  0  0
    4.5400   -0.0720    1.5140 C   0  0  0  0  0  0  0  0  0  0  0  0
    3.6000    1.0940    1.6670 C   0  0  0  0  0  0  0  0  0  0  0  0
    2.1580    0.6790    1.9020 C   0  0  0  0  0  0  0  0  0  0  0  0
    1.3160    1.9230    2.0360 C   0  0  2  0  0  0  0  0  0  0  0  0
    1.7650    2.7390    3.1590 N   0  0  0  0  0  0  0  0  0  0  0  0
   -0.1220    1.6960    2.1070 C   0  0  0  0  0  0  0  0  0  0  0  0
   -0.7660    2.1020    3.1260 O   0  0  0  0  0  0  0  0  0  0  0  0
    4.7030   -4.0830   -0.5320 H   0  0  0  0  0  0  0  0  0  0  0  0
    4.0290   -2.8790   -1.6530 H   0  0  0  0  0  0  0  0  0  0  0  0
    6.7760   -2.9780    0.4020 H   0  0  0  0  0  0  0  0  0  0  0  0
    3.3370   -0.7010   -0.1450 H   0  0  0  0  0  0  0  0  0  0  0  0
    4.5060   -0.6490    2.4780 H   0  0  0  0  0  0  0  0  0  0  0  0
    5.5520    0.3470    1.3340 H   0  0  0  0  0  0  0  0  0  0  0  0
    3.6790    1.7010    0.7260 H   0  0  0  0  0  0  0  0  0  0  0  0
    3.9830    1.7030    2.5160 H   0  0  0  0  0  0  0  0  0  0  0  0
    2.0830    0.1280    2.8650 H   0  0  0  0  0  0  0  0  0  0  0  0
    1.8600    0.0290    1.0890 H   0  0  0  0  0  0  0  0  0  0  0  0
    1.5230    2.5300    1.1180 H   0  0  0  0  0  0  0  0  0  0  0  0
    2.5440    3.3650    2.8560 H   0  0  0  0  0  0  0  0  0  0  0  0
    0.9690    3.3670    3.4040 H   0  0  0  0  0  0  0  0  0  0  0  0
   -0.9010    1.0480    1.1210 N   0  0  0  0  0  0  0  0  0  0  0  0
   -2.3210    0.8400    1.2230 C   0  0  1  0  0  0  0  0  0  0  0  0
   -3.0880    1.7390    0.2660 C   0  0  0  0  0  0  0  0  0  0  0  0
   -2.6720    3.4520    0.7330 S   0  0  0  0  0  0  0  0  0  0  0  0
   -2.7210   -0.5650    1.0660 C   0  0  0  0  0  0  0  0  0  0  0  0
   -3.9210   -0.9060    1.1490 O   0  0  0  0  0  0  0  0  0  0  0  0
   -0.3890    0.7090    0.2760 H   0  0  0  0  0  0  0  0  0  0  0  0
   -2.6310    1.1750    2.2320 H   0  0  0  0  0  0  0  0  0  0  0  0
   -2.7860    1.6090   -0.7770 H   0  0  0  0  0  0  0  0  0  0  0  0
   -4.1510    1.5770    0.4500 H   0  0  0  0  0  0  0  0  0  0  0  0
   -3.8570    4.2050    0.8720 H   0  0  0  0  0  0  0  0  0  0  0  0
   -1.7980   -1.5960    0.8150 N   0  0  0  0  0  0  0  0  0  0  0  0
   -2.0970   -2.9740    0.6440 C   0  0  1  0  0  0  0  0  0  0  0  0
   -1.7970   -3.5870   -0.6710 C   0  0  0  0  0  0  0  0  0  0  0  0
   -2.5680   -2.8690   -1.7240 C   0  0  0  0  0  0  0  0  0  0  0  0
   -2.0310   -1.7580   -2.3720 C   0  0  0  0  0  0  0  0  0  0  0  0
   -2.7470   -1.0920   -3.3380 C   0  0  0  0  0  0  0  0  0  0  0  0
   -4.0170   -1.4770   -3.7180 C   0  0  0  0  0  0  0  0  0  0  0  0
   -4.5520   -2.5820   -3.0750 C   0  0  0  0  0  0  0  0  0  0  0  0
   -3.8340   -3.2590   -2.0980 C   0  0  0  0  0  0  0  0  0  0  0  0
   -1.3840   -3.7220    1.7110 C   0  0  0  0  0  0  0  0  0  0  0  0
   -0.6540   -3.1430    2.5600 O   0  0  0  0  0  0  0  0  0  0  0  0
   -1.4700   -5.1000    1.8480 O   0  0  0  0  0  0  0  0  0  0  0  0
   -0.7880   -1.3380    0.7450 H   0  0  0  0  0  0  0  0  0  0  0  0
   -3.1850   -3.1020    0.8300 H   0  0  0  0  0  0  0  0  0  0  0  0
   -0.7420   -3.7250   -0.9150 H   0  0  0  0  0  0  0  0  0  0  0  0
   -2.2310   -4.6140   -0.6690 H   0  0  0  0  0  0  0  0  0  0  0  0
   -1.0400   -1.4790   -2.0570 H   0  0  0  0  0  0  0  0  0  0  0  0
   -2.2740   -0.2190   -3.8150 H   0  0  0  0  0  0  0  0  0  0  0  0
   -4.5510   -0.9260   -4.4830 H   0  0  0  0  0  0  0  0  0  0  0  0
   -5.5510   -2.9000   -3.3610 H   0  0  0  0  0  0  0  0  0  0  0  0
   -4.2700   -4.1280   -1.5990 H   0  0  0  0  0  0  0  0  0  0  0  0
  1 12  1  0  0  0  0
  1  2  1  0  0  0  0
  2  4  1  0  0  0  0
  2  3  2  0  0  0  0
  4  5  1  0  0  0  0
  5  6  1  0  0  0  0
  5 16  1  0  0  0  0
  6  7  1  0  0  0  0
  6 19  1  0  0  0  0
  7  8  1  0  0  0  0
  7 20  1  0  0  0  0
  8 22  1  6  0  0  0
  8 10  1  0  0  0  0
  8  9  1  0  0  0  0
  9 24  1  0  0  0  0
 10 11  2  0  0  0  0
 13  1  1  0  0  0  0
 14  3  1  0  0  0  0
 15  4  1  0  0  0  0
 17  5  1  0  0  0  0
 18  6  1  0  0  0  0
 21  7  1  0  0  0  0
 23  9  1  0  0  0  0
 25 26  1  0  0  0  0
 25 10  1  0  0  0  0
 26 32  1  1  0  0  0
 27 34  1  0  0  0  0
 27 28  1  0  0  0  0
 27 26  1  0  0  0  0
 28 35  1  0  0  0  0
 29 30  2  0  0  0  0
 29 26  1  0  0  0  0
 31 25  1  0  0  0  0
 33 27  1  0  0  0  0
 36 29  1  0  0  0  0
 37 36  1  0  0  0  0
 37 49  1  1  0  0  0
 37 45  1  0  0  0  0
 38 51  1  0  0  0  0
 38 37  1  0  0  0  0
 39 38  1  0  0  0  0
 40 52  1  0  0  0  0
 40 39  2  0  0  0  0
 41 40  1  0  0  0  0
 42 41  2  0  0  0  0
 42 43  1  0  0  0  0
 43 44  2  0  0  0  0
 44 39  1  0  0  0  0
 44 56  1  0  0  0  0
 45 47  2  0  0  0  0
 45 46  1  0  0  0  0
 48 36  1  0  0  0  0
 50 38  1  0  0  0  0
 53 41  1  0  0  0  0
 54 42  1  0  0  0  0
 55 43  1  0  0  0  0
M  END
$$$$
