RCG.pdb
 OpenBabel07022418043D

 43 42  0  0  1  0  0  0  0  0999 V2000
   -1.2870   -4.7620    0.1790 N   0  0  0  0  0  0  0  0  0  0  0  0
   -0.5770   -3.5730    0.4950 C   0  0  0  0  0  0  0  0  0  0  0  0
   -1.2160   -2.4440    0.5560 N   0  0  0  0  0  0  0  0  0  0  0  0
    0.8240   -3.5800    0.7530 N   0  0  0  0  0  0  0  0  0  0  0  0
    1.6280   -2.4190    0.3590 C   0  0  0  0  0  0  0  0  0  0  0  0
    1.6640   -2.3630   -1.1430 C   0  0  0  0  0  0  0  0  0  0  0  0
    2.4670   -1.2780   -1.7450 C   0  0  0  0  0  0  0  0  0  0  0  0
    2.0680    0.1440   -1.4500 C   0  0  2  0  0  0  0  0  0  0  0  0
    3.0870    0.9370   -2.2100 N   0  0  0  0  0  0  0  0  0  0  0  0
    2.1560    0.5170   -0.0210 C   0  0  0  0  0  0  0  0  0  0  0  0
    3.2090    0.3060    0.6280 O   0  0  0  0  0  0  0  0  0  0  0  0
   -2.2960   -4.8840    0.4580 H   0  0  0  0  0  0  0  0  0  0  0  0
   -0.8140   -5.5250   -0.3320 H   0  0  0  0  0  0  0  0  0  0  0  0
   -2.2620   -2.4680    0.3610 H   0  0  0  0  0  0  0  0  0  0  0  0
    1.2430   -4.4150    1.2160 H   0  0  0  0  0  0  0  0  0  0  0  0
    2.6660   -2.5120    0.7390 H   0  0  0  0  0  0  0  0  0  0  0  0
    1.1560   -1.5690    0.8500 H   0  0  0  0  0  0  0  0  0  0  0  0
    0.5950   -2.2080   -1.4590 H   0  0  0  0  0  0  0  0  0  0  0  0
    1.9740   -3.3630   -1.5610 H   0  0  0  0  0  0  0  0  0  0  0  0
    2.4850   -1.3780   -2.8740 H   0  0  0  0  0  0  0  0  0  0  0  0
    3.5530   -1.4300   -1.4400 H   0  0  0  0  0  0  0  0  0  0  0  0
    1.0970    0.3400   -1.8790 H   0  0  0  0  0  0  0  0  0  0  0  0
    2.7970    1.9280   -2.2280 H   0  0  0  0  0  0  0  0  0  0  0  0
    4.0090    0.7640   -1.7780 H   0  0  0  0  0  0  0  0  0  0  0  0
    1.0730    1.1370    0.7070 N   0  0  0  0  0  0  0  0  0  0  0  0
    1.2700    1.4530    2.0990 C   0  0  1  0  0  0  0  0  0  0  0  0
    1.4720    2.9680    2.1990 C   0  0  0  0  0  0  0  0  0  0  0  0
    0.0070    3.8100    1.5590 S   0  0  0  0  0  0  0  0  0  0  0  0
    0.0890    1.1470    2.9290 C   0  0  0  0  0  0  0  0  0  0  0  0
    0.1100    1.2690    4.1930 O   0  0  0  0  0  0  0  0  0  0  0  0
    0.2160    1.3180    0.1610 H   0  0  0  0  0  0  0  0  0  0  0  0
    2.2190    1.0200    2.4590 H   0  0  0  0  0  0  0  0  0  0  0  0
    1.6520    3.2530    3.2390 H   0  0  0  0  0  0  0  0  0  0  0  0
    2.3300    3.2010    1.5460 H   0  0  0  0  0  0  0  0  0  0  0  0
   -0.9370    4.1060    2.5300 H   0  0  0  0  0  0  0  0  0  0  0  0
   -1.1330    0.7040    2.3800 N   0  0  0  0  0  0  0  0  0  0  0  0
   -2.3000    0.3970    3.1740 C   0  0  0  0  0  0  0  0  0  0  0  0
   -3.3910    0.0020    2.2720 C   0  0  0  0  0  0  0  0  0  0  0  0
   -4.4860   -0.3490    2.7540 O   0  0  0  0  0  0  0  0  0  0  0  0
   -3.2230    0.0160    0.9100 O   0  0  0  0  0  0  0  0  0  0  0  0
   -1.2050    0.5890    1.3510 H   0  0  0  0  0  0  0  0  0  0  0  0
   -2.0700   -0.4760    3.8520 H   0  0  0  0  0  0  0  0  0  0  0  0
   -2.5770    1.2360    3.8500 H   0  0  0  0  0  0  0  0  0  0  0  0
  1 12  1  0  0  0  0
  1  2  1  0  0  0  0
  2  3  2  0  0  0  0
  2  4  1  0  0  0  0
  4 15  1  0  0  0  0
  5 16  1  0  0  0  0
  5  4  1  0  0  0  0
  5 17  1  0  0  0  0
  6  5  1  0  0  0  0
  7  8  1  0  0  0  0
  7 21  1  0  0  0  0
  7  6  1  0  0  0  0
  8 22  1  6  0  0  0
  8 10  1  0  0  0  0
  9 24  1  0  0  0  0
  9  8  1  0  0  0  0
 10 11  2  0  0  0  0
 10 25  1  0  0  0  0
 13  1  1  0  0  0  0
 14  3  1  0  0  0  0
 18  6  1  0  0  0  0
 19  6  1  0  0  0  0
 20  7  1  0  0  0  0
 23  9  1  0  0  0  0
 25 26  1  0  0  0  0
 26 27  1  0  0  0  0
 26 32  1  1  0  0  0
 26 29  1  0  0  0  0
 27 33  1  0  0  0  0
 28 27  1  0  0  0  0
 28 35  1  0  0  0  0
 29 30  2  0  0  0  0
 31 25  1  0  0  0  0
 34 27  1  0  0  0  0
 36 29  1  0  0  0  0
 36 37  1  0  0  0  0
 37 43  1  0  0  0  0
 37 42  1  0  0  0  0
 38 39  1  0  0  0  0
 38 37  1  0  0  0  0
 40 38  2  0  0  0  0
 41 36  1  0  0  0  0
M  END
$$$$
