RCH.pdb
 OpenBabel07022418043D

 53 53  0  0  1  0  0  0  0  0999 V2000
    2.4790   -4.9520    3.7720 N   0  0  0  0  0  0  0  0  0  0  0  0
    3.3490   -4.0010    3.1930 C   0  0  0  0  0  0  0  0  0  0  0  0
    4.3260   -4.4000    2.4720 N   0  0  0  0  0  0  0  0  0  0  0  0
    3.1740   -2.6040    3.3900 N   0  0  0  0  0  0  0  0  0  0  0  0
    4.2000   -1.6360    3.2020 C   0  0  0  0  0  0  0  0  0  0  0  0
    3.7630   -0.2170    3.2450 C   0  0  0  0  0  0  0  0  0  0  0  0
    2.9240    0.3280    2.1540 C   0  0  0  0  0  0  0  0  0  0  0  0
    1.6580   -0.3160    1.8000 C   0  0  2  0  0  0  0  0  0  0  0  0
    1.8410   -1.6450    1.3080 N   0  0  0  0  0  0  0  0  0  0  0  0
    0.9470    0.5460    0.7900 C   0  0  0  0  0  0  0  0  0  0  0  0
    0.6840    1.7500    1.0430 O   0  0  0  0  0  0  0  0  0  0  0  0
    2.7720   -5.6500    4.4910 H   0  0  0  0  0  0  0  0  0  0  0  0
    1.4790   -4.9460    3.4490 H   0  0  0  0  0  0  0  0  0  0  0  0
    4.5780   -5.3720    2.2430 H   0  0  0  0  0  0  0  0  0  0  0  0
    2.2340   -2.3040    3.7400 H   0  0  0  0  0  0  0  0  0  0  0  0
    4.9740   -1.8370    3.9960 H   0  0  0  0  0  0  0  0  0  0  0  0
    4.7620   -1.7700    2.2430 H   0  0  0  0  0  0  0  0  0  0  0  0
    3.1670   -0.0120    4.2080 H   0  0  0  0  0  0  0  0  0  0  0  0
    4.6700    0.4550    3.4320 H   0  0  0  0  0  0  0  0  0  0  0  0
    2.6720    1.4080    2.4720 H   0  0  0  0  0  0  0  0  0  0  0  0
    3.5770    0.4850    1.2370 H   0  0  0  0  0  0  0  0  0  0  0  0
    1.0230   -0.4090    2.7210 H   0  0  0  0  0  0  0  0  0  0  0  0
    2.4110   -1.5570    0.4150 H   0  0  0  0  0  0  0  0  0  0  0  0
    0.9460   -2.0710    1.0300 H   0  0  0  0  0  0  0  0  0  0  0  0
    0.5400    0.0520   -0.4830 N   0  0  0  0  0  0  0  0  0  0  0  0
   -0.1470    0.8920   -1.4420 C   0  0  1  0  0  0  0  0  0  0  0  0
    0.6850    1.1370   -2.6810 C   0  0  0  0  0  0  0  0  0  0  0  0
   -0.2720    2.2030   -3.8230 S   0  0  0  0  0  0  0  0  0  0  0  0
   -1.5020    0.3880   -1.7890 C   0  0  0  0  0  0  0  0  0  0  0  0
   -2.1860    1.0680   -2.5840 O   0  0  0  0  0  0  0  0  0  0  0  0
    0.7460   -0.9380   -0.7160 H   0  0  0  0  0  0  0  0  0  0  0  0
   -0.2790    1.8880   -0.9690 H   0  0  0  0  0  0  0  0  0  0  0  0
    0.8440    0.1780   -3.2090 H   0  0  0  0  0  0  0  0  0  0  0  0
    1.6130    1.6640   -2.4780 H   0  0  0  0  0  0  0  0  0  0  0  0
   -0.9510    3.1590   -3.0100 H   0  0  0  0  0  0  0  0  0  0  0  0
   -1.9720   -0.8200   -1.2250 N   0  0  0  0  0  0  0  0  0  0  0  0
   -3.2390   -1.4110   -1.4620 C   0  0  1  0  0  0  0  0  0  0  0  0
   -4.3900   -0.4250   -1.5160 C   0  0  0  0  0  0  0  0  0  0  0  0
   -4.4910    0.2610   -0.1930 C   0  0  0  0  0  0  0  0  0  0  0  0
   -3.9250    1.4260    0.2370 C   0  0  0  0  0  0  0  0  0  0  0  0
   -4.3080    1.6680    1.5110 N   0  0  0  0  0  0  0  0  0  0  0  0
   -5.1040    0.6480    1.8450 C   0  0  0  0  0  0  0  0  0  0  0  0
   -5.2360   -0.2160    0.8440 N   0  0  0  0  0  0  0  0  0  0  0  0
   -3.2670   -2.3760   -2.5650 C   0  0  0  0  0  0  0  0  0  0  0  0
   -4.3220   -2.9700   -2.8660 O   0  0  0  0  0  0  0  0  0  0  0  0
   -2.1210   -2.6370   -3.2870 O   0  0  0  0  0  0  0  0  0  0  0  0
   -1.2950   -1.3200   -0.5650 H   0  0  0  0  0  0  0  0  0  0  0  0
   -3.4910   -2.0100   -0.5060 H   0  0  0  0  0  0  0  0  0  0  0  0
   -5.3230   -1.0430   -1.6570 H   0  0  0  0  0  0  0  0  0  0  0  0
   -4.3090    0.3110   -2.3270 H   0  0  0  0  0  0  0  0  0  0  0  0
   -3.2790    2.0780   -0.3230 H   0  0  0  0  0  0  0  0  0  0  0  0
   -4.0040    2.5130    2.0780 H   0  0  0  0  0  0  0  0  0  0  0  0
   -5.5650    0.5790    2.8360 H   0  0  0  0  0  0  0  0  0  0  0  0
  1 12  1  0  0  0  0
  2  4  1  0  0  0  0
  2  1  1  0  0  0  0
  3  2  2  0  0  0  0
  4 15  1  0  0  0  0
  5  6  1  0  0  0  0
  5  4  1  0  0  0  0
  5 16  1  0  0  0  0
  6 19  1  0  0  0  0
  6 18  1  0  0  0  0
  7 20  1  0  0  0  0
  7  6  1  0  0  0  0
  8  7  1  0  0  0  0
  8 22  1  1  0  0  0
  9  8  1  0  0  0  0
 10 11  2  0  0  0  0
 10  8  1  0  0  0  0
 13  1  1  0  0  0  0
 14  3  1  0  0  0  0
 17  5  1  0  0  0  0
 21  7  1  0  0  0  0
 23  9  1  0  0  0  0
 24  9  1  0  0  0  0
 25 10  1  0  0  0  0
 26 32  1  1  0  0  0
 26 25  1  0  0  0  0
 27 34  1  0  0  0  0
 27 26  1  0  0  0  0
 28 35  1  0  0  0  0
 28 27  1  0  0  0  0
 29 26  1  0  0  0  0
 29 36  1  0  0  0  0
 30 29  2  0  0  0  0
 31 25  1  0  0  0  0
 33 27  1  0  0  0  0
 36 47  1  0  0  0  0
 37 36  1  0  0  0  0
 37 48  1  1  0  0  0
 38 37  1  0  0  0  0
 38 39  1  0  0  0  0
 39 40  2  0  0  0  0
 39 43  1  0  0  0  0
 40 41  1  0  0  0  0
 41 42  1  0  0  0  0
 41 52  1  0  0  0  0
 42 53  1  0  0  0  0
 43 42  2  0  0  0  0
 44 37  1  0  0  0  0
 45 44  1  0  0  0  0
 46 44  2  0  0  0  0
 49 38  1  0  0  0  0
 50 38  1  0  0  0  0
 51 40  1  0  0  0  0
M  END
$$$$
