RCI.pdb
 OpenBabel07022418043D

 55 54  0  0  1  0  0  0  0  0999 V2000
    4.7190   -1.1720    5.5860 N   0  0  0  0  0  0  0  0  0  0  0  0
    4.5430   -0.3050    4.4540 C   0  0  0  0  0  0  0  0  0  0  0  0
    5.0370    0.8830    4.4930 N   0  0  0  0  0  0  0  0  0  0  0  0
    3.8390   -0.7220    3.2890 N   0  0  0  0  0  0  0  0  0  0  0  0
    4.0440   -0.0590    1.9990 C   0  0  0  0  0  0  0  0  0  0  0  0
    3.1560   -0.7370    0.9870 C   0  0  0  0  0  0  0  0  0  0  0  0
    3.2510   -0.1970   -0.3880 C   0  0  0  0  0  0  0  0  0  0  0  0
    2.9040    1.2330   -0.5870 C   0  0  2  0  0  0  0  0  0  0  0  0
    3.7080    2.1600    0.1410 N   0  0  0  0  0  0  0  0  0  0  0  0
    1.4510    1.5060   -0.4250 C   0  0  0  0  0  0  0  0  0  0  0  0
    1.0720    2.4630    0.2910 O   0  0  0  0  0  0  0  0  0  0  0  0
    4.0370   -1.9160    5.8300 H   0  0  0  0  0  0  0  0  0  0  0  0
    5.5610   -1.0480    6.1810 H   0  0  0  0  0  0  0  0  0  0  0  0
    4.9370    1.5490    3.6990 H   0  0  0  0  0  0  0  0  0  0  0  0
    3.1810   -1.5050    3.3850 H   0  0  0  0  0  0  0  0  0  0  0  0
    5.0840   -0.1270    1.6510 H   0  0  0  0  0  0  0  0  0  0  0  0
    3.7050    1.0010    2.1620 H   0  0  0  0  0  0  0  0  0  0  0  0
    3.5320   -1.8020    0.9370 H   0  0  0  0  0  0  0  0  0  0  0  0
    2.1190   -0.8330    1.3710 H   0  0  0  0  0  0  0  0  0  0  0  0
    4.3330   -0.3050   -0.7040 H   0  0  0  0  0  0  0  0  0  0  0  0
    2.7070   -0.8760   -1.0820 H   0  0  0  0  0  0  0  0  0  0  0  0
    3.0990    1.4510   -1.6820 H   0  0  0  0  0  0  0  0  0  0  0  0
    3.2990    3.0910    0.2600 H   0  0  0  0  0  0  0  0  0  0  0  0
    4.7010    2.1160   -0.1250 H   0  0  0  0  0  0  0  0  0  0  0  0
    0.5140    0.6730   -1.0890 N   0  0  0  0  0  0  0  0  0  0  0  0
   -0.9130    0.8940   -0.9670 C   0  0  1  0  0  0  0  0  0  0  0  0
   -1.4410    1.2480   -2.3420 C   0  0  0  0  0  0  0  0  0  0  0  0
   -0.6620    2.7280   -2.9820 S   0  0  0  0  0  0  0  0  0  0  0  0
   -1.5940   -0.3540   -0.4630 C   0  0  0  0  0  0  0  0  0  0  0  0
   -0.9170   -1.3750   -0.2180 O   0  0  0  0  0  0  0  0  0  0  0  0
    0.8920   -0.1240   -1.6830 H   0  0  0  0  0  0  0  0  0  0  0  0
   -1.1180    1.7590   -0.3080 H   0  0  0  0  0  0  0  0  0  0  0  0
   -2.5480    1.3160   -2.2820 H   0  0  0  0  0  0  0  0  0  0  0  0
   -1.2310    0.3470   -2.9830 H   0  0  0  0  0  0  0  0  0  0  0  0
   -0.3360    2.5260   -4.3250 H   0  0  0  0  0  0  0  0  0  0  0  0
   -4.1850   -3.7720   -1.8170 C   0  0  0  0  0  0  0  0  0  0  0  0
   -2.8990   -3.3800   -1.0820 C   0  0  0  0  0  0  0  0  0  0  0  0
   -3.3140   -2.7700    0.2340 C   0  0  2  0  0  0  0  0  0  0  0  0
   -4.1380   -3.7760    0.9840 C   0  0  0  0  0  0  0  0  0  0  0  0
   -3.8580   -1.3930    0.1620 C   0  0  2  0  0  0  0  0  0  0  0  0
   -2.9880   -0.3390   -0.2780 N   0  0  0  0  0  0  0  0  0  0  0  0
   -4.7870   -1.0010    1.2190 C   0  0  0  0  0  0  0  0  0  0  0  0
   -4.8150    0.1840    1.7050 O   0  0  0  0  0  0  0  0  0  0  0  0
   -5.7130   -1.8680    1.7860 O   0  0  0  0  0  0  0  0  0  0  0  0
   -4.1690   -3.3810   -2.8430 H   0  0  0  0  0  0  0  0  0  0  0  0
   -5.0550   -3.3950   -1.2910 H   0  0  0  0  0  0  0  0  0  0  0  0
   -4.2380   -4.8870   -1.9160 H   0  0  0  0  0  0  0  0  0  0  0  0
   -2.2030   -4.2080   -0.9780 H   0  0  0  0  0  0  0  0  0  0  0  0
   -2.4810   -2.5730   -1.7290 H   0  0  0  0  0  0  0  0  0  0  0  0
   -2.3540   -2.7020    0.8510 H   0  0  0  0  0  0  0  0  0  0  0  0
   -5.1800   -3.8570    0.6870 H   0  0  0  0  0  0  0  0  0  0  0  0
   -3.6480   -4.7750    0.7870 H   0  0  0  0  0  0  0  0  0  0  0  0
   -4.0900   -3.6530    2.0860 H   0  0  0  0  0  0  0  0  0  0  0  0
   -4.5470   -1.5080   -0.8030 H   0  0  0  0  0  0  0  0  0  0  0  0
   -3.4440    0.6270   -0.5140 H   0  0  0  0  0  0  0  0  0  0  0  0
  1 12  1  0  0  0  0
  1 13  1  0  0  0  0
  2  3  2  0  0  0  0
  2  1  1  0  0  0  0
  4 15  1  0  0  0  0
  4  2  1  0  0  0  0
  5 17  1  0  0  0  0
  5  4  1  0  0  0  0
  6 19  1  0  0  0  0
  6  5  1  0  0  0  0
  7  6  1  0  0  0  0
  8 22  1  6  0  0  0
  8 10  1  0  0  0  0
  8  7  1  0  0  0  0
  8  9  1  0  0  0  0
  9 23  1  0  0  0  0
 10 11  2  0  0  0  0
 14  3  1  0  0  0  0
 16  5  1  0  0  0  0
 18  6  1  0  0  0  0
 20  7  1  0  0  0  0
 21  7  1  0  0  0  0
 24  9  1  0  0  0  0
 25 26  1  0  0  0  0
 25 10  1  0  0  0  0
 26 29  1  0  0  0  0
 26 32  1  1  0  0  0
 27 33  1  0  0  0  0
 27 26  1  0  0  0  0
 28 27  1  0  0  0  0
 29 41  1  0  0  0  0
 29 30  2  0  0  0  0
 31 25  1  0  0  0  0
 34 27  1  0  0  0  0
 35 28  1  0  0  0  0
 36 46  1  0  0  0  0
 36 37  1  0  0  0  0
 37 48  1  0  0  0  0
 37 38  1  0  0  0  0
 38 50  1  1  0  0  0
 38 39  1  0  0  0  0
 39 53  1  0  0  0  0
 40 54  1  6  0  0  0
 40 38  1  0  0  0  0
 40 42  1  0  0  0  0
 41 40  1  0  0  0  0
 42 43  2  0  0  0  0
 42 44  1  0  0  0  0
 45 36  1  0  0  0  0
 47 36  1  0  0  0  0
 49 37  1  0  0  0  0
 51 39  1  0  0  0  0
 52 39  1  0  0  0  0
 55 41  1  0  0  0  0
M  END
$$$$
