RCK.pdb
 OpenBabel07022418053D

 57 56  0  0  1  0  0  0  0  0999 V2000
    3.8030   -5.0170   -0.1560 N   0  0  0  0  0  0  0  0  0  0  0  0
    4.2280   -4.3190    1.0030 C   0  0  0  0  0  0  0  0  0  0  0  0
    4.4390   -4.9290    2.1040 N   0  0  0  0  0  0  0  0  0  0  0  0
    4.4430   -2.8890    0.9930 N   0  0  0  0  0  0  0  0  0  0  0  0
    5.0070   -2.2130    2.1080 C   0  0  0  0  0  0  0  0  0  0  0  0
    5.0760   -0.7500    2.0280 C   0  0  0  0  0  0  0  0  0  0  0  0
    3.8690    0.0740    1.9760 C   0  0  0  0  0  0  0  0  0  0  0  0
    2.9580   -0.1140    0.8360 C   0  0  2  0  0  0  0  0  0  0  0  0
    3.6610    0.1620   -0.4280 N   0  0  0  0  0  0  0  0  0  0  0  0
    1.8660    0.9510    0.8450 C   0  0  0  0  0  0  0  0  0  0  0  0
    2.1120    2.0320    1.4420 O   0  0  0  0  0  0  0  0  0  0  0  0
    4.2200   -4.8060   -1.1010 H   0  0  0  0  0  0  0  0  0  0  0  0
    3.0720   -5.7600   -0.1390 H   0  0  0  0  0  0  0  0  0  0  0  0
    4.2960   -5.9680    2.1530 H   0  0  0  0  0  0  0  0  0  0  0  0
    4.1710   -2.4400    0.1010 H   0  0  0  0  0  0  0  0  0  0  0  0
    4.5860   -2.5770    3.0880 H   0  0  0  0  0  0  0  0  0  0  0  0
    6.0850   -2.5870    2.1700 H   0  0  0  0  0  0  0  0  0  0  0  0
    5.7420   -0.4080    2.9020 H   0  0  0  0  0  0  0  0  0  0  0  0
    5.7480   -0.5060    1.1510 H   0  0  0  0  0  0  0  0  0  0  0  0
    4.2160    1.1610    1.9250 H   0  0  0  0  0  0  0  0  0  0  0  0
    3.2810    0.0100    2.9360 H   0  0  0  0  0  0  0  0  0  0  0  0
    2.4980   -1.1050    0.8550 H   0  0  0  0  0  0  0  0  0  0  0  0
    3.0410    0.6330   -1.1250 H   0  0  0  0  0  0  0  0  0  0  0  0
    4.4740    0.7980   -0.2800 H   0  0  0  0  0  0  0  0  0  0  0  0
    0.6160    0.7670    0.2170 N   0  0  0  0  0  0  0  0  0  0  0  0
   -0.4330    1.7520    0.1990 C   0  0  1  0  0  0  0  0  0  0  0  0
   -0.6940    2.2680   -1.2060 C   0  0  0  0  0  0  0  0  0  0  0  0
   -2.0260    3.4980   -1.1370 S   0  0  0  0  0  0  0  0  0  0  0  0
   -1.7170    1.2920    0.7580 C   0  0  0  0  0  0  0  0  0  0  0  0
   -2.6990    2.1020    0.8370 O   0  0  0  0  0  0  0  0  0  0  0  0
    0.4830   -0.1750   -0.2570 H   0  0  0  0  0  0  0  0  0  0  0  0
   -0.0980    2.6310    0.7800 H   0  0  0  0  0  0  0  0  0  0  0  0
   -1.0630    1.4480   -1.8540 H   0  0  0  0  0  0  0  0  0  0  0  0
    0.1830    2.7520   -1.6460 H   0  0  0  0  0  0  0  0  0  0  0  0
   -1.9640    4.2950    0.0310 H   0  0  0  0  0  0  0  0  0  0  0  0
   -1.9720   -0.0170    1.2330 N   0  0  0  0  0  0  0  0  0  0  0  0
   -3.2630   -0.3860    1.7650 C   0  0  1  0  0  0  0  0  0  0  0  0
   -4.0310   -1.2820    0.8100 C   0  0  0  0  0  0  0  0  0  0  0  0
   -4.2740   -0.5980   -0.5150 C   0  0  0  0  0  0  0  0  0  0  0  0
   -5.0510   -1.5190   -1.4120 C   0  0  0  0  0  0  0  0  0  0  0  0
   -5.3150   -0.8650   -2.7660 C   0  0  0  0  0  0  0  0  0  0  0  0
   -4.0830   -0.5380   -3.4360 N   0  0  0  0  0  0  0  0  0  0  0  0
   -3.1020   -1.0950    3.0510 C   0  0  0  0  0  0  0  0  0  0  0  0
   -4.0950   -1.5510    3.7030 O   0  0  0  0  0  0  0  0  0  0  0  0
   -1.8560   -1.3190    3.6560 O   0  0  0  0  0  0  0  0  0  0  0  0
   -1.2220   -0.7280    1.2010 H   0  0  0  0  0  0  0  0  0  0  0  0
   -3.8900    0.5480    1.8540 H   0  0  0  0  0  0  0  0  0  0  0  0
   -4.9770   -1.5710    1.2920 H   0  0  0  0  0  0  0  0  0  0  0  0
   -3.4520   -2.2110    0.6210 H   0  0  0  0  0  0  0  0  0  0  0  0
   -3.2820   -0.4360   -1.0000 H   0  0  0  0  0  0  0  0  0  0  0  0
   -4.8320    0.3500   -0.4010 H   0  0  0  0  0  0  0  0  0  0  0  0
   -4.5130   -2.4870   -1.5590 H   0  0  0  0  0  0  0  0  0  0  0  0
   -6.0170   -1.7640   -0.9420 H   0  0  0  0  0  0  0  0  0  0  0  0
   -5.9610   -1.4710   -3.4080 H   0  0  0  0  0  0  0  0  0  0  0  0
   -5.8390    0.1130   -2.5440 H   0  0  0  0  0  0  0  0  0  0  0  0
   -3.4250   -1.3540   -3.4290 H   0  0  0  0  0  0  0  0  0  0  0  0
   -3.6350    0.3250   -3.0610 H   0  0  0  0  0  0  0  0  0  0  0  0
  1 13  1  0  0  0  0
  1  2  1  0  0  0  0
  2  3  2  0  0  0  0
  3 14  1  0  0  0  0
  4  2  1  0  0  0  0
  4  5  1  0  0  0  0
  5 17  1  0  0  0  0
  5 16  1  0  0  0  0
  6  5  1  0  0  0  0
  6 18  1  0  0  0  0
  7  6  1  0  0  0  0
  7 21  1  0  0  0  0
  8 10  1  0  0  0  0
  8 22  1  1  0  0  0
  8  7  1  0  0  0  0
  9 24  1  0  0  0  0
  9  8  1  0  0  0  0
 10 11  2  0  0  0  0
 12  1  1  0  0  0  0
 15  4  1  0  0  0  0
 19  6  1  0  0  0  0
 20  7  1  0  0  0  0
 23  9  1  0  0  0  0
 25 10  1  0  0  0  0
 26 25  1  0  0  0  0
 26 29  1  0  0  0  0
 26 32  1  1  0  0  0
 27 28  1  0  0  0  0
 27 26  1  0  0  0  0
 28 35  1  0  0  0  0
 29 30  2  0  0  0  0
 29 36  1  0  0  0  0
 31 25  1  0  0  0  0
 33 27  1  0  0  0  0
 34 27  1  0  0  0  0
 36 37  1  0  0  0  0
 37 47  1  1  0  0  0
 37 43  1  0  0  0  0
 38 48  1  0  0  0  0
 38 37  1  0  0  0  0
 39 51  1  0  0  0  0
 39 38  1  0  0  0  0
 40 53  1  0  0  0  0
 40 39  1  0  0  0  0
 41 55  1  0  0  0  0
 41 40  1  0  0  0  0
 42 56  1  0  0  0  0
 42 57  1  0  0  0  0
 42 41  1  0  0  0  0
 43 45  2  0  0  0  0
 43 44  1  0  0  0  0
 46 36  1  0  0  0  0
 49 38  1  0  0  0  0
 50 39  1  0  0  0  0
 52 40  1  0  0  0  0
 54 41  1  0  0  0  0
M  END
$$$$
