RCM.pdb
 OpenBabel07022418053D

 53 52  0  0  1  0  0  0  0  0999 V2000
   -1.5490   -2.2100    5.3140 N   0  0  0  0  0  0  0  0  0  0  0  0
   -0.9080   -1.3070    4.4230 C   0  0  0  0  0  0  0  0  0  0  0  0
   -1.5080   -0.2380    4.0160 N   0  0  0  0  0  0  0  0  0  0  0  0
    0.4030   -1.5990    3.9850 N   0  0  0  0  0  0  0  0  0  0  0  0
    1.0120   -0.9530    2.8430 C   0  0  0  0  0  0  0  0  0  0  0  0
    2.3900   -1.4660    2.6260 C   0  0  0  0  0  0  0  0  0  0  0  0
    3.1380   -0.9040    1.4900 C   0  0  0  0  0  0  0  0  0  0  0  0
    3.3920    0.5460    1.4560 C   0  0  2  0  0  0  0  0  0  0  0  0
    4.1450    1.0320    2.6050 N   0  0  0  0  0  0  0  0  0  0  0  0
    2.2580    1.4190    1.1010 C   0  0  0  0  0  0  0  0  0  0  0  0
    1.9670    2.4240    1.8030 O   0  0  0  0  0  0  0  0  0  0  0  0
   -2.0290   -3.0510    4.9300 H   0  0  0  0  0  0  0  0  0  0  0  0
   -1.5660   -2.0760    6.3470 H   0  0  0  0  0  0  0  0  0  0  0  0
   -1.0230    0.3940    3.3750 H   0  0  0  0  0  0  0  0  0  0  0  0
    0.9490   -2.3080    4.5090 H   0  0  0  0  0  0  0  0  0  0  0  0
    0.9510    0.1520    2.9300 H   0  0  0  0  0  0  0  0  0  0  0  0
    0.3880   -1.2040    1.9590 H   0  0  0  0  0  0  0  0  0  0  0  0
    2.3560   -2.5770    2.4920 H   0  0  0  0  0  0  0  0  0  0  0  0
    2.9840   -1.3250    3.5740 H   0  0  0  0  0  0  0  0  0  0  0  0
    2.6570   -1.1790    0.5050 H   0  0  0  0  0  0  0  0  0  0  0  0
    4.1310   -1.4260    1.4400 H   0  0  0  0  0  0  0  0  0  0  0  0
    4.1330    0.7080    0.6010 H   0  0  0  0  0  0  0  0  0  0  0  0
    3.4950    1.6580    3.1360 H   0  0  0  0  0  0  0  0  0  0  0  0
    4.4250    0.2390    3.2420 H   0  0  0  0  0  0  0  0  0  0  0  0
    1.4330    1.1880   -0.0420 N   0  0  0  0  0  0  0  0  0  0  0  0
    0.3400    2.0220   -0.4120 C   0  0  1  0  0  0  0  0  0  0  0  0
    0.7830    2.7750   -1.6880 C   0  0  0  0  0  0  0  0  0  0  0  0
   -0.5350    3.8820   -2.2650 S   0  0  0  0  0  0  0  0  0  0  0  0
   -0.8220    1.2220   -0.8300 C   0  0  0  0  0  0  0  0  0  0  0  0
   -1.8840    1.8420   -1.2240 O   0  0  0  0  0  0  0  0  0  0  0  0
    1.6490    0.3590   -0.6370 H   0  0  0  0  0  0  0  0  0  0  0  0
    0.1420    2.7590    0.3900 H   0  0  0  0  0  0  0  0  0  0  0  0
    1.6610    3.3950   -1.4870 H   0  0  0  0  0  0  0  0  0  0  0  0
    0.9410    2.0160   -2.4790 H   0  0  0  0  0  0  0  0  0  0  0  0
   -0.4700    4.0480   -3.6700 H   0  0  0  0  0  0  0  0  0  0  0  0
   -2.4350   -5.1520   -1.7930 C   0  0  0  0  0  0  0  0  0  0  0  0
   -3.5220   -3.8180   -2.2810 S   0  0  0  0  0  0  0  0  0  0  0  0
   -2.7140   -2.5170   -3.1850 C   0  0  0  0  0  0  0  0  0  0  0  0
   -1.7100   -1.7050   -2.4700 C   0  0  0  0  0  0  0  0  0  0  0  0
   -2.1420   -0.8740   -1.3110 C   0  0  2  0  0  0  0  0  0  0  0  0
   -0.8960   -0.1960   -0.8460 N   0  0  0  0  0  0  0  0  0  0  0  0
   -2.7080   -1.6320   -0.1780 C   0  0  0  0  0  0  0  0  0  0  0  0
   -2.0400   -1.7430    0.9030 O   0  0  0  0  0  0  0  0  0  0  0  0
   -3.9330   -2.2530   -0.1610 O   0  0  0  0  0  0  0  0  0  0  0  0
   -2.1490   -5.8210   -2.6460 H   0  0  0  0  0  0  0  0  0  0  0  0
   -2.9970   -5.8100   -1.0830 H   0  0  0  0  0  0  0  0  0  0  0  0
   -1.5280   -4.8370   -1.2510 H   0  0  0  0  0  0  0  0  0  0  0  0
   -3.5220   -1.8160   -3.5740 H   0  0  0  0  0  0  0  0  0  0  0  0
   -2.2760   -2.9110   -4.1580 H   0  0  0  0  0  0  0  0  0  0  0  0
   -1.2730   -0.9660   -3.2220 H   0  0  0  0  0  0  0  0  0  0  0  0
   -0.8000   -2.3190   -2.1960 H   0  0  0  0  0  0  0  0  0  0  0  0
   -2.8380   -0.0750   -1.6610 H   0  0  0  0  0  0  0  0  0  0  0  0
   -0.0680   -0.7340   -0.5300 H   0  0  0  0  0  0  0  0  0  0  0  0
  1 13  1  0  0  0  0
  2  1  1  0  0  0  0
  3  2  2  0  0  0  0
  4  2  1  0  0  0  0
  4 15  1  0  0  0  0
  5 16  1  0  0  0  0
  5  4  1  0  0  0  0
  6  5  1  0  0  0  0
  6 19  1  0  0  0  0
  7  6  1  0  0  0  0
  8 22  1  6  0  0  0
  8  7  1  0  0  0  0
  8  9  1  0  0  0  0
  9 23  1  0  0  0  0
  9 24  1  0  0  0  0
 10  8  1  0  0  0  0
 10 11  2  0  0  0  0
 12  1  1  0  0  0  0
 14  3  1  0  0  0  0
 17  5  1  0  0  0  0
 18  6  1  0  0  0  0
 20  7  1  0  0  0  0
 21  7  1  0  0  0  0
 25 10  1  0  0  0  0
 26 25  1  0  0  0  0
 26 32  1  1  0  0  0
 27 33  1  0  0  0  0
 27 26  1  0  0  0  0
 28 27  1  0  0  0  0
 29 26  1  0  0  0  0
 30 29  2  0  0  0  0
 31 25  1  0  0  0  0
 34 27  1  0  0  0  0
 35 28  1  0  0  0  0
 36 47  1  0  0  0  0
 36 46  1  0  0  0  0
 37 36  1  0  0  0  0
 38 39  1  0  0  0  0
 38 37  1  0  0  0  0
 39 51  1  0  0  0  0
 39 40  1  0  0  0  0
 40 52  1  6  0  0  0
 40 41  1  0  0  0  0
 40 42  1  0  0  0  0
 41 29  1  0  0  0  0
 41 53  1  0  0  0  0
 42 44  2  0  0  0  0
 42 43  1  0  0  0  0
 45 36  1  0  0  0  0
 48 38  1  0  0  0  0
 49 38  1  0  0  0  0
 50 39  1  0  0  0  0
M  END
$$$$
