RCN.pdb
 OpenBabel07022418043D

 50 49  0  0  1  0  0  0  0  0999 V2000
    6.5530   -3.7920    2.8220 N   0  0  0  0  0  0  0  0  0  0  0  0
    5.2390   -3.2970    2.8830 C   0  0  0  0  0  0  0  0  0  0  0  0
    4.6520   -3.2800    4.0520 N   0  0  0  0  0  0  0  0  0  0  0  0
    4.5370   -2.8260    1.7550 N   0  0  0  0  0  0  0  0  0  0  0  0
    3.1240   -2.5760    1.8540 C   0  0  0  0  0  0  0  0  0  0  0  0
    2.5110   -2.0800    0.5860 C   0  0  0  0  0  0  0  0  0  0  0  0
    3.0630   -0.8070    0.0670 C   0  0  0  0  0  0  0  0  0  0  0  0
    2.9470    0.3760    0.9690 C   0  0  2  0  0  0  0  0  0  0  0  0
    3.6080    0.2260    2.2270 N   0  0  0  0  0  0  0  0  0  0  0  0
    1.5740    0.8410    1.1810 C   0  0  0  0  0  0  0  0  0  0  0  0
    1.1770    1.0290    2.3620 O   0  0  0  0  0  0  0  0  0  0  0  0
    6.8580   -4.3470    2.0090 H   0  0  0  0  0  0  0  0  0  0  0  0
    7.2130   -3.6000    3.5900 H   0  0  0  0  0  0  0  0  0  0  0  0
    5.1220   -3.6140    4.9140 H   0  0  0  0  0  0  0  0  0  0  0  0
    5.0280   -2.6610    0.8670 H   0  0  0  0  0  0  0  0  0  0  0  0
    2.8540   -1.9690    2.7420 H   0  0  0  0  0  0  0  0  0  0  0  0
    2.6510   -3.5830    2.0600 H   0  0  0  0  0  0  0  0  0  0  0  0
    2.7040   -2.8630   -0.1960 H   0  0  0  0  0  0  0  0  0  0  0  0
    1.4070   -2.0780    0.7160 H   0  0  0  0  0  0  0  0  0  0  0  0
    2.5450   -0.5600   -0.8810 H   0  0  0  0  0  0  0  0  0  0  0  0
    4.1330   -0.9580   -0.1820 H   0  0  0  0  0  0  0  0  0  0  0  0
    3.4800    1.2210    0.4340 H   0  0  0  0  0  0  0  0  0  0  0  0
    3.4200    1.0900    2.7880 H   0  0  0  0  0  0  0  0  0  0  0  0
    4.6480    0.2550    2.0350 H   0  0  0  0  0  0  0  0  0  0  0  0
    0.6730    1.0880    0.0820 N   0  0  0  0  0  0  0  0  0  0  0  0
   -0.6710    1.5480    0.4020 C   0  0  1  0  0  0  0  0  0  0  0  0
   -0.8210    2.9000   -0.3040 C   0  0  0  0  0  0  0  0  0  0  0  0
   -2.4250    3.6370   -0.0180 S   0  0  0  0  0  0  0  0  0  0  0  0
   -1.6320    0.6220   -0.2420 C   0  0  0  0  0  0  0  0  0  0  0  0
   -1.1590   -0.2980   -0.9630 O   0  0  0  0  0  0  0  0  0  0  0  0
    1.0380    0.9230   -0.8550 H   0  0  0  0  0  0  0  0  0  0  0  0
   -0.8260    1.6450    1.4850 H   0  0  0  0  0  0  0  0  0  0  0  0
   -0.7320    2.6870   -1.3910 H   0  0  0  0  0  0  0  0  0  0  0  0
   -0.0310    3.6060    0.0240 H   0  0  0  0  0  0  0  0  0  0  0  0
   -2.5340    4.1880    1.2750 H   0  0  0  0  0  0  0  0  0  0  0  0
   -6.3590   -2.8700    0.6190 N   0  0  0  0  0  0  0  0  0  0  0  0
   -5.5300   -2.1440   -0.3090 C   0  0  0  0  0  0  0  0  0  0  0  0
   -5.6250   -2.4670   -1.5060 O   0  0  0  0  0  0  0  0  0  0  0  0
   -4.6480   -1.0960    0.2000 C   0  0  0  0  0  0  0  0  0  0  0  0
   -3.8900   -0.3040   -0.8130 C   0  0  2  0  0  0  0  0  0  0  0  0
   -3.0230    0.6850   -0.1130 N   0  0  0  0  0  0  0  0  0  0  0  0
   -4.7180    0.4260   -1.7870 C   0  0  0  0  0  0  0  0  0  0  0  0
   -4.6450    1.6980   -1.9050 O   0  0  0  0  0  0  0  0  0  0  0  0
   -5.6030   -0.2030   -2.6140 O   0  0  0  0  0  0  0  0  0  0  0  0
   -6.6110   -3.8540    0.4550 H   0  0  0  0  0  0  0  0  0  0  0  0
   -6.6920   -2.3590    1.4590 H   0  0  0  0  0  0  0  0  0  0  0  0
   -5.2480   -0.3380    0.7960 H   0  0  0  0  0  0  0  0  0  0  0  0
   -3.9330   -1.6160    0.9040 H   0  0  0  0  0  0  0  0  0  0  0  0
   -3.2070   -0.9700   -1.3580 H   0  0  0  0  0  0  0  0  0  0  0  0
   -3.4650    1.4160    0.4750 H   0  0  0  0  0  0  0  0  0  0  0  0
  1  2  1  0  0  0  0
  1 13  1  0  0  0  0
  2  3  2  0  0  0  0
  3 14  1  0  0  0  0
  4  5  1  0  0  0  0
  4  2  1  0  0  0  0
  5 17  1  0  0  0  0
  5 16  1  0  0  0  0
  6 19  1  0  0  0  0
  6  5  1  0  0  0  0
  7  6  1  0  0  0  0
  7  8  1  0  0  0  0
  8 22  1  6  0  0  0
  8 10  1  0  0  0  0
  8  9  1  0  0  0  0
  9 23  1  0  0  0  0
 10 11  2  0  0  0  0
 12  1  1  0  0  0  0
 15  4  1  0  0  0  0
 18  6  1  0  0  0  0
 20  7  1  0  0  0  0
 21  7  1  0  0  0  0
 24  9  1  0  0  0  0
 25 26  1  0  0  0  0
 25 10  1  0  0  0  0
 26 32  1  1  0  0  0
 27 28  1  0  0  0  0
 27 34  1  0  0  0  0
 27 26  1  0  0  0  0
 28 35  1  0  0  0  0
 29 41  1  0  0  0  0
 29 26  1  0  0  0  0
 30 29  2  0  0  0  0
 31 25  1  0  0  0  0
 33 27  1  0  0  0  0
 36 46  1  0  0  0  0
 37 39  1  0  0  0  0
 37 36  1  0  0  0  0
 38 37  2  0  0  0  0
 39 47  1  0  0  0  0
 39 48  1  0  0  0  0
 40 49  1  6  0  0  0
 40 41  1  0  0  0  0
 40 39  1  0  0  0  0
 41 50  1  0  0  0  0
 42 40  1  0  0  0  0
 43 42  1  0  0  0  0
 44 42  2  0  0  0  0
 45 36  1  0  0  0  0
M  END
$$$$
