RCP.pdb
 OpenBabel07022418053D

 50 50  0  0  1  0  0  0  0  0999 V2000
    3.3220   -6.4280    1.5060 N   0  0  0  0  0  0  0  0  0  0  0  0
    2.9500   -5.0660    1.6950 C   0  0  0  0  0  0  0  0  0  0  0  0
    1.8560   -4.7830    2.3310 N   0  0  0  0  0  0  0  0  0  0  0  0
    3.7810   -4.0590    1.1860 N   0  0  0  0  0  0  0  0  0  0  0  0
    3.2070   -2.7180    0.9610 C   0  0  0  0  0  0  0  0  0  0  0  0
    4.3080   -1.8590    0.4290 C   0  0  0  0  0  0  0  0  0  0  0  0
    3.9400   -0.4690    0.2020 C   0  0  0  0  0  0  0  0  0  0  0  0
    2.9100   -0.0430   -0.7720 C   0  0  2  0  0  0  0  0  0  0  0  0
    2.9500    1.4720   -0.6290 N   0  0  0  0  0  0  0  0  0  0  0  0
    1.5160   -0.4190   -0.5340 C   0  0  0  0  0  0  0  0  0  0  0  0
    0.9040   -1.3850   -1.0470 O   0  0  0  0  0  0  0  0  0  0  0  0
    2.6090   -7.0890    1.1700 H   0  0  0  0  0  0  0  0  0  0  0  0
    4.2800   -6.7750    1.6920 H   0  0  0  0  0  0  0  0  0  0  0  0
    1.2620   -5.5330    2.6960 H   0  0  0  0  0  0  0  0  0  0  0  0
    4.7590   -4.2270    0.9710 H   0  0  0  0  0  0  0  0  0  0  0  0
    2.7600   -2.3310    1.8870 H   0  0  0  0  0  0  0  0  0  0  0  0
    2.4320   -2.8850    0.2160 H   0  0  0  0  0  0  0  0  0  0  0  0
    5.1640   -1.8660    1.1890 H   0  0  0  0  0  0  0  0  0  0  0  0
    4.7990   -2.3500   -0.4660 H   0  0  0  0  0  0  0  0  0  0  0  0
    3.6620   -0.0460    1.2460 H   0  0  0  0  0  0  0  0  0  0  0  0
    4.9020    0.1510    0.0240 H   0  0  0  0  0  0  0  0  0  0  0  0
    3.2670   -0.2250   -1.8010 H   0  0  0  0  0  0  0  0  0  0  0  0
    3.0480    1.6990    0.3670 H   0  0  0  0  0  0  0  0  0  0  0  0
    2.0810    1.8290   -1.0690 H   0  0  0  0  0  0  0  0  0  0  0  0
    0.7260    0.3710    0.3760 N   0  0  0  0  0  0  0  0  0  0  0  0
   -0.6920    0.0390    0.6580 C   0  0  1  0  0  0  0  0  0  0  0  0
   -0.6960   -0.2150    2.1650 C   0  0  0  0  0  0  0  0  0  0  0  0
   -0.1260    1.3180    3.0060 S   0  0  0  0  0  0  0  0  0  0  0  0
   -1.4980    1.2300    0.4210 C   0  0  0  0  0  0  0  0  0  0  0  0
   -0.7920    2.2790    0.0860 O   0  0  0  0  0  0  0  0  0  0  0  0
    1.1060    1.1950    0.8690 H   0  0  0  0  0  0  0  0  0  0  0  0
   -0.8900   -0.8290    0.0500 H   0  0  0  0  0  0  0  0  0  0  0  0
   -1.6790   -0.5170    2.5590 H   0  0  0  0  0  0  0  0  0  0  0  0
    0.0360   -0.9980    2.4520 H   0  0  0  0  0  0  0  0  0  0  0  0
   -1.0760    1.6640    3.9830 H   0  0  0  0  0  0  0  0  0  0  0  0
   -2.8700    1.4440    0.4900 N   0  0  0  0  0  0  0  0  0  0  0  0
   -3.3920    2.8400    0.2340 C   0  0  0  0  0  0  0  0  0  0  0  0
   -4.3560    2.5290   -0.8880 C   0  0  0  0  0  0  0  0  0  0  0  0
   -4.9230    1.1800   -0.5160 C   0  0  0  0  0  0  0  0  0  0  0  0
   -4.0880    0.7640    0.7440 C   0  0  1  0  0  0  0  0  0  0  0  0
   -4.1610   -0.6570    0.9110 C   0  0  0  0  0  0  0  0  0  0  0  0
   -3.2880   -1.4720    0.6720 O   0  0  0  0  0  0  0  0  0  0  0  0
   -5.3760   -1.1810    1.4060 O   0  0  0  0  0  0  0  0  0  0  0  0
   -3.9650    3.1110    1.1230 H   0  0  0  0  0  0  0  0  0  0  0  0
   -2.5990    3.5190   -0.0470 H   0  0  0  0  0  0  0  0  0  0  0  0
   -3.7420    2.4680   -1.8230 H   0  0  0  0  0  0  0  0  0  0  0  0
   -5.1390    3.3020   -0.9960 H   0  0  0  0  0  0  0  0  0  0  0  0
   -4.7940    0.4270   -1.3020 H   0  0  0  0  0  0  0  0  0  0  0  0
   -5.9620    1.3050   -0.1960 H   0  0  0  0  0  0  0  0  0  0  0  0
   -4.6100    1.3340    1.5720 H   0  0  0  0  0  0  0  0  0  0  0  0
  1 13  1  0  0  0  0
  1  2  1  0  0  0  0
  2  3  2  0  0  0  0
  3 14  1  0  0  0  0
  4  2  1  0  0  0  0
  5  4  1  0  0  0  0
  5 16  1  0  0  0  0
  6  5  1  0  0  0  0
  6 18  1  0  0  0  0
  7  6  1  0  0  0  0
  7 20  1  0  0  0  0
  8 22  1  6  0  0  0
  8  9  1  0  0  0  0
  8 10  1  0  0  0  0
  8  7  1  0  0  0  0
  9 23  1  0  0  0  0
 10 25  1  0  0  0  0
 11 10  2  0  0  0  0
 12  1  1  0  0  0  0
 15  4  1  0  0  0  0
 17  5  1  0  0  0  0
 19  6  1  0  0  0  0
 21  7  1  0  0  0  0
 24  9  1  0  0  0  0
 25 26  1  0  0  0  0
 25 31  1  0  0  0  0
 26 32  1  6  0  0  0
 26 27  1  0  0  0  0
 27 34  1  0  0  0  0
 27 33  1  0  0  0  0
 27 28  1  0  0  0  0
 28 35  1  0  0  0  0
 29 36  1  0  0  0  0
 29 26  1  0  0  0  0
 30 29  2  0  0  0  0
 36 40  1  0  0  0  0
 37 36  1  0  0  0  0
 37 44  1  0  0  0  0
 38 39  1  0  0  0  0
 38 37  1  0  0  0  0
 39 49  1  0  0  0  0
 39 40  1  0  0  0  0
 40 41  1  0  0  0  0
 40 50  1  1  0  0  0
 41 43  1  0  0  0  0
 42 41  2  0  0  0  0
 45 37  1  0  0  0  0
 46 38  1  0  0  0  0
 47 38  1  0  0  0  0
 48 39  1  0  0  0  0
M  END
$$$$
