RCQ.pdb
 OpenBabel07022418043D

 53 52  0  0  1  0  0  0  0  0999 V2000
    0.5900   -3.0110    4.9260 N   0  0  0  0  0  0  0  0  0  0  0  0
    1.0410   -2.4440    3.7100 C   0  0  0  0  0  0  0  0  0  0  0  0
    1.7760   -3.1710    2.9290 N   0  0  0  0  0  0  0  0  0  0  0  0
    0.6890   -1.1080    3.3660 N   0  0  0  0  0  0  0  0  0  0  0  0
    1.2980   -0.4750    2.1860 C   0  0  0  0  0  0  0  0  0  0  0  0
    2.7640   -0.2410    2.4280 C   0  0  0  0  0  0  0  0  0  0  0  0
    3.4930    0.3950    1.2910 C   0  0  0  0  0  0  0  0  0  0  0  0
    3.0650    1.7490    0.8760 C   0  0  2  0  0  0  0  0  0  0  0  0
    3.2140    2.6390    2.0230 N   0  0  0  0  0  0  0  0  0  0  0  0
    1.7220    1.9080    0.3210 C   0  0  0  0  0  0  0  0  0  0  0  0
    0.9530    2.7970    0.8350 O   0  0  0  0  0  0  0  0  0  0  0  0
    1.1770   -2.9700    5.7730 H   0  0  0  0  0  0  0  0  0  0  0  0
   -0.3370   -3.4650    4.9460 H   0  0  0  0  0  0  0  0  0  0  0  0
    2.0170   -4.1400    3.2060 H   0  0  0  0  0  0  0  0  0  0  0  0
    0.0020   -0.6160    3.9660 H   0  0  0  0  0  0  0  0  0  0  0  0
    1.2440   -1.2260    1.3480 H   0  0  0  0  0  0  0  0  0  0  0  0
    0.7080    0.4280    1.9890 H   0  0  0  0  0  0  0  0  0  0  0  0
    3.2410   -1.2220    2.7250 H   0  0  0  0  0  0  0  0  0  0  0  0
    2.8720    0.3720    3.3800 H   0  0  0  0  0  0  0  0  0  0  0  0
    3.4870   -0.3490    0.4550 H   0  0  0  0  0  0  0  0  0  0  0  0
    4.5680    0.4970    1.6510 H   0  0  0  0  0  0  0  0  0  0  0  0
    3.8410    2.1800    0.1310 H   0  0  0  0  0  0  0  0  0  0  0  0
    3.8440    3.4360    1.8660 H   0  0  0  0  0  0  0  0  0  0  0  0
    2.2820    3.0370    2.2800 H   0  0  0  0  0  0  0  0  0  0  0  0
    1.1900    1.1470   -0.7590 N   0  0  0  0  0  0  0  0  0  0  0  0
   -0.1550    1.4140   -1.1980 C   0  0  1  0  0  0  0  0  0  0  0  0
   -0.1340    2.0870   -2.5860 C   0  0  0  0  0  0  0  0  0  0  0  0
    0.7740    3.6520   -2.5190 S   0  0  0  0  0  0  0  0  0  0  0  0
   -0.9930    0.2100   -1.3580 C   0  0  0  0  0  0  0  0  0  0  0  0
   -2.1920    0.4120   -1.6790 O   0  0  0  0  0  0  0  0  0  0  0  0
    1.8100    0.4310   -1.1760 H   0  0  0  0  0  0  0  0  0  0  0  0
   -0.6900    2.1270   -0.5470 H   0  0  0  0  0  0  0  0  0  0  0  0
   -1.1550    2.3190   -2.9170 H   0  0  0  0  0  0  0  0  0  0  0  0
    0.3310    1.4370   -3.3360 H   0  0  0  0  0  0  0  0  0  0  0  0
    0.3270    4.3860   -1.4190 H   0  0  0  0  0  0  0  0  0  0  0  0
   -5.2180   -4.2710    1.1210 N   0  0  0  0  0  0  0  0  0  0  0  0
   -4.2430   -3.2680    0.9280 C   0  0  0  0  0  0  0  0  0  0  0  0
   -4.1670   -2.2960    1.7010 O   0  0  0  0  0  0  0  0  0  0  0  0
   -3.3140   -3.4390   -0.2460 C   0  0  0  0  0  0  0  0  0  0  0  0
   -2.3590   -2.2890   -0.2560 C   0  0  0  0  0  0  0  0  0  0  0  0
   -1.3490   -2.2790   -1.3350 C   0  0  2  0  0  0  0  0  0  0  0  0
   -0.5200   -1.1070   -1.1720 N   0  0  0  0  0  0  0  0  0  0  0  0
   -1.9990   -2.2470   -2.6930 C   0  0  0  0  0  0  0  0  0  0  0  0
   -2.7960   -3.1310   -3.0900 O   0  0  0  0  0  0  0  0  0  0  0  0
   -1.7470   -1.2200   -3.5990 O   0  0  0  0  0  0  0  0  0  0  0  0
   -5.9470   -4.1760    1.8840 H   0  0  0  0  0  0  0  0  0  0  0  0
   -5.2840   -5.1370    0.5480 H   0  0  0  0  0  0  0  0  0  0  0  0
   -3.9070   -3.5820   -1.1470 H   0  0  0  0  0  0  0  0  0  0  0  0
   -2.7880   -4.4090   -0.0450 H   0  0  0  0  0  0  0  0  0  0  0  0
   -2.8860   -1.3110   -0.2560 H   0  0  0  0  0  0  0  0  0  0  0  0
   -1.7920   -2.3430    0.7220 H   0  0  0  0  0  0  0  0  0  0  0  0
   -0.7180   -3.2080   -1.3790 H   0  0  0  0  0  0  0  0  0  0  0  0
    0.4890   -1.2550   -0.9050 H   0  0  0  0  0  0  0  0  0  0  0  0
  1 13  1  0  0  0  0
  1 12  1  0  0  0  0
  2  1  1  0  0  0  0
  3 14  1  0  0  0  0
  3  2  2  0  0  0  0
  4  2  1  0  0  0  0
  4 15  1  0  0  0  0
  5  6  1  0  0  0  0
  5  4  1  0  0  0  0
  6 18  1  0  0  0  0
  6 19  1  0  0  0  0
  7 21  1  0  0  0  0
  7  6  1  0  0  0  0
  8 22  1  6  0  0  0
  8  7  1  0  0  0  0
  8  9  1  0  0  0  0
  9 24  1  0  0  0  0
 10 11  2  0  0  0  0
 10  8  1  0  0  0  0
 16  5  1  0  0  0  0
 17  5  1  0  0  0  0
 20  7  1  0  0  0  0
 23  9  1  0  0  0  0
 25 10  1  0  0  0  0
 26 25  1  0  0  0  0
 26 32  1  1  0  0  0
 27 28  1  0  0  0  0
 27 26  1  0  0  0  0
 28 35  1  0  0  0  0
 29 26  1  0  0  0  0
 29 42  1  0  0  0  0
 30 29  2  0  0  0  0
 31 25  1  0  0  0  0
 33 27  1  0  0  0  0
 34 27  1  0  0  0  0
 36 46  1  0  0  0  0
 37 36  1  0  0  0  0
 37 38  2  0  0  0  0
 39 49  1  0  0  0  0
 39 37  1  0  0  0  0
 40 50  1  0  0  0  0
 40 39  1  0  0  0  0
 40 51  1  0  0  0  0
 41 52  1  1  0  0  0
 41 42  1  0  0  0  0
 41 40  1  0  0  0  0
 42 53  1  0  0  0  0
 43 41  1  0  0  0  0
 44 43  1  0  0  0  0
 45 43  2  0  0  0  0
 47 36  1  0  0  0  0
 48 39  1  0  0  0  0
M  END
$$$$
