RCS.pdb
 OpenBabel07022418053D

 47 46  0  0  1  0  0  0  0  0999 V2000
   -2.5520   -4.4370   -1.7430 N   0  0  0  0  0  0  0  0  0  0  0  0
   -1.7770   -3.3960   -1.1970 C   0  0  0  0  0  0  0  0  0  0  0  0
   -1.6930   -3.3110    0.0950 N   0  0  0  0  0  0  0  0  0  0  0  0
   -1.0960   -2.4530   -2.0400 N   0  0  0  0  0  0  0  0  0  0  0  0
   -0.1290   -1.5910   -1.3550 C   0  0  0  0  0  0  0  0  0  0  0  0
    0.5380   -0.6440   -2.2780 C   0  0  0  0  0  0  0  0  0  0  0  0
    1.5260    0.2920   -1.7080 C   0  0  0  0  0  0  0  0  0  0  0  0
    2.7050   -0.2830   -1.0160 C   0  0  2  0  0  0  0  0  0  0  0  0
    3.4530   -1.1220   -1.9070 N   0  0  0  0  0  0  0  0  0  0  0  0
    2.4660   -0.8590    0.3150 C   0  0  0  0  0  0  0  0  0  0  0  0
    2.8020   -2.0450    0.6360 O   0  0  0  0  0  0  0  0  0  0  0  0
   -3.4020   -4.7520   -1.2400 H   0  0  0  0  0  0  0  0  0  0  0  0
   -2.3070   -4.9060   -2.6360 H   0  0  0  0  0  0  0  0  0  0  0  0
   -2.1710   -3.9740    0.7210 H   0  0  0  0  0  0  0  0  0  0  0  0
   -1.2870   -2.4030   -3.0430 H   0  0  0  0  0  0  0  0  0  0  0  0
   -0.6410   -1.1540   -0.5080 H   0  0  0  0  0  0  0  0  0  0  0  0
    0.6640   -2.3240   -1.0150 H   0  0  0  0  0  0  0  0  0  0  0  0
    0.9600   -1.1980   -3.1580 H   0  0  0  0  0  0  0  0  0  0  0  0
   -0.2770   -0.0100   -2.7400 H   0  0  0  0  0  0  0  0  0  0  0  0
    1.8490    0.9820   -2.5310 H   0  0  0  0  0  0  0  0  0  0  0  0
    1.0220    0.9850   -0.9700 H   0  0  0  0  0  0  0  0  0  0  0  0
    3.4000    0.6030   -0.8190 H   0  0  0  0  0  0  0  0  0  0  0  0
    3.2490   -0.9540   -2.8980 H   0  0  0  0  0  0  0  0  0  0  0  0
    4.4310   -1.2750   -1.6560 H   0  0  0  0  0  0  0  0  0  0  0  0
    1.8310   -0.1220    1.3700 N   0  0  0  0  0  0  0  0  0  0  0  0
    1.5970   -0.6730    2.6700 C   0  0  1  0  0  0  0  0  0  0  0  0
    2.5980   -0.1530    3.6970 C   0  0  0  0  0  0  0  0  0  0  0  0
    2.5220    1.6380    3.8670 S   0  0  0  0  0  0  0  0  0  0  0  0
    0.2440   -0.3320    3.1390 C   0  0  0  0  0  0  0  0  0  0  0  0
   -0.1550   -0.7490    4.2870 O   0  0  0  0  0  0  0  0  0  0  0  0
    1.5440    0.8540    1.1370 H   0  0  0  0  0  0  0  0  0  0  0  0
    1.7870   -1.7640    2.6330 H   0  0  0  0  0  0  0  0  0  0  0  0
    3.6110   -0.5380    3.5100 H   0  0  0  0  0  0  0  0  0  0  0  0
    2.2700   -0.5920    4.6740 H   0  0  0  0  0  0  0  0  0  0  0  0
    3.6660    2.0390    4.6000 H   0  0  0  0  0  0  0  0  0  0  0  0
   -2.0750    2.9240    2.0330 O   0  0  0  0  0  0  0  0  0  0  0  0
   -2.1900    2.2130    3.2410 C   0  0  0  0  0  0  0  0  0  0  0  0
   -2.0060    0.7240    3.0000 C   0  0  2  0  0  0  0  0  0  0  0  0
   -0.7100    0.4430    2.4380 N   0  0  0  0  0  0  0  0  0  0  0  0
   -3.0480    0.3000    2.0490 C   0  0  0  0  0  0  0  0  0  0  0  0
   -2.7180   -0.2080    0.9570 O   0  0  0  0  0  0  0  0  0  0  0  0
   -4.4090    0.4330    2.2960 O   0  0  0  0  0  0  0  0  0  0  0  0
   -2.9210    2.8660    1.5040 H   0  0  0  0  0  0  0  0  0  0  0  0
   -1.5140    2.6150    4.0000 H   0  0  0  0  0  0  0  0  0  0  0  0
   -3.2260    2.3540    3.5910 H   0  0  0  0  0  0  0  0  0  0  0  0
   -2.1320    0.2530    4.0030 H   0  0  0  0  0  0  0  0  0  0  0  0
   -0.4700    0.8120    1.5040 H   0  0  0  0  0  0  0  0  0  0  0  0
  1 12  1  0  0  0  0
  1  2  1  0  0  0  0
  2  3  2  0  0  0  0
  3 14  1  0  0  0  0
  4  5  1  0  0  0  0
  4  2  1  0  0  0  0
  5 17  1  0  0  0  0
  5 16  1  0  0  0  0
  6  7  1  0  0  0  0
  6  5  1  0  0  0  0
  7  8  1  0  0  0  0
  7 21  1  0  0  0  0
  8 22  1  1  0  0  0
  8 10  1  0  0  0  0
  9 24  1  0  0  0  0
  9  8  1  0  0  0  0
 10 11  2  0  0  0  0
 10 25  1  0  0  0  0
 13  1  1  0  0  0  0
 15  4  1  0  0  0  0
 18  6  1  0  0  0  0
 19  6  1  0  0  0  0
 20  7  1  0  0  0  0
 23  9  1  0  0  0  0
 25 26  1  0  0  0  0
 26 32  1  6  0  0  0
 26 29  1  0  0  0  0
 26 27  1  0  0  0  0
 27 28  1  0  0  0  0
 27 34  1  0  0  0  0
 28 35  1  0  0  0  0
 29 30  2  0  0  0  0
 31 25  1  0  0  0  0
 33 27  1  0  0  0  0
 36 37  1  0  0  0  0
 37 45  1  0  0  0  0
 37 44  1  0  0  0  0
 38 37  1  0  0  0  0
 38 46  1  1  0  0  0
 39 38  1  0  0  0  0
 39 29  1  0  0  0  0
 40 42  1  0  0  0  0
 40 38  1  0  0  0  0
 41 40  2  0  0  0  0
 43 36  1  0  0  0  0
 47 39  1  0  0  0  0
M  END
$$$$
