RCT.pdb
 OpenBabel07022418053D

 50 49  0  0  1  0  0  0  0  0999 V2000
    4.1410   -3.8520    4.8980 N   0  0  0  0  0  0  0  0  0  0  0  0
    4.3560   -2.7080    4.0770 C   0  0  0  0  0  0  0  0  0  0  0  0
    4.6600   -1.5810    4.6030 N   0  0  0  0  0  0  0  0  0  0  0  0
    4.2450   -2.7680    2.6560 N   0  0  0  0  0  0  0  0  0  0  0  0
    4.2480   -1.5480    1.8320 C   0  0  0  0  0  0  0  0  0  0  0  0
    4.1170   -1.9750    0.4150 C   0  0  0  0  0  0  0  0  0  0  0  0
    4.1070   -0.9090   -0.6130 C   0  0  0  0  0  0  0  0  0  0  0  0
    3.0260    0.1070   -0.5310 C   0  0  2  0  0  0  0  0  0  0  0  0
    3.0970    0.8040    0.7130 N   0  0  0  0  0  0  0  0  0  0  0  0
    1.6760   -0.4640   -0.7810 C   0  0  0  0  0  0  0  0  0  0  0  0
    1.4510   -1.1050   -1.8290 O   0  0  0  0  0  0  0  0  0  0  0  0
    3.2320   -3.9980    5.3770 H   0  0  0  0  0  0  0  0  0  0  0  0
    4.8790   -4.5750    5.0450 H   0  0  0  0  0  0  0  0  0  0  0  0
    4.7510   -1.4960    5.6270 H   0  0  0  0  0  0  0  0  0  0  0  0
    4.1620   -3.7120    2.2270 H   0  0  0  0  0  0  0  0  0  0  0  0
    5.2260   -1.0680    2.0270 H   0  0  0  0  0  0  0  0  0  0  0  0
    3.3900   -0.9650    2.2270 H   0  0  0  0  0  0  0  0  0  0  0  0
    5.0240   -2.6140    0.1940 H   0  0  0  0  0  0  0  0  0  0  0  0
    3.2670   -2.6930    0.3280 H   0  0  0  0  0  0  0  0  0  0  0  0
    5.0910   -0.3740   -0.5510 H   0  0  0  0  0  0  0  0  0  0  0  0
    4.0940   -1.4090   -1.6100 H   0  0  0  0  0  0  0  0  0  0  0  0
    3.2400    0.8660   -1.3380 H   0  0  0  0  0  0  0  0  0  0  0  0
    4.0550    1.0070    1.0360 H   0  0  0  0  0  0  0  0  0  0  0  0
    2.4040    1.5430    0.8560 H   0  0  0  0  0  0  0  0  0  0  0  0
    0.5970   -0.3160    0.1350 N   0  0  0  0  0  0  0  0  0  0  0  0
   -0.7190   -0.8970   -0.1550 C   0  0  1  0  0  0  0  0  0  0  0  0
   -0.9690   -1.9650    0.8920 C   0  0  0  0  0  0  0  0  0  0  0  0
   -0.9580   -1.2520    2.5660 S   0  0  0  0  0  0  0  0  0  0  0  0
   -1.7760    0.1430   -0.0810 C   0  0  0  0  0  0  0  0  0  0  0  0
   -1.4730    1.3390    0.2030 O   0  0  0  0  0  0  0  0  0  0  0  0
    0.7710    0.2170    1.0130 H   0  0  0  0  0  0  0  0  0  0  0  0
   -0.7080   -1.4230   -1.1320 H   0  0  0  0  0  0  0  0  0  0  0  0
   -1.9010   -2.5260    0.6930 H   0  0  0  0  0  0  0  0  0  0  0  0
   -0.1440   -2.7060    0.8660 H   0  0  0  0  0  0  0  0  0  0  0  0
   -2.2160   -0.7010    2.8140 H   0  0  0  0  0  0  0  0  0  0  0  0
   -5.9540    1.9410   -1.6740 C   0  0  0  0  0  0  0  0  0  0  0  0
   -4.8650    0.9280   -1.5930 C   0  0  1  0  0  0  0  0  0  0  0  0
   -3.9120    1.2420   -2.5810 O   0  0  0  0  0  0  0  0  0  0  0  0
   -4.1740    0.9010   -0.2400 C   0  0  2  0  0  0  0  0  0  0  0  0
   -3.1450   -0.1160   -0.3130 N   0  0  0  0  0  0  0  0  0  0  0  0
   -5.1830    0.4440    0.7440 C   0  0  0  0  0  0  0  0  0  0  0  0
   -5.0250   -0.6500    1.3210 O   0  0  0  0  0  0  0  0  0  0  0  0
   -6.3140    1.1880    1.0600 O   0  0  0  0  0  0  0  0  0  0  0  0
   -5.8570    2.6030   -2.5570 H   0  0  0  0  0  0  0  0  0  0  0  0
   -6.9530    1.4310   -1.7960 H   0  0  0  0  0  0  0  0  0  0  0  0
   -6.0350    2.5930   -0.7930 H   0  0  0  0  0  0  0  0  0  0  0  0
   -5.2430   -0.0800   -1.8520 H   0  0  0  0  0  0  0  0  0  0  0  0
   -3.2150    0.5510   -2.5570 H   0  0  0  0  0  0  0  0  0  0  0  0
   -3.7450    1.8850    0.0180 H   0  0  0  0  0  0  0  0  0  0  0  0
   -3.4460   -1.0830   -0.5500 H   0  0  0  0  0  0  0  0  0  0  0  0
  1 13  1  0  0  0  0
  1 12  1  0  0  0  0
  2  3  2  0  0  0  0
  2  1  1  0  0  0  0
  3 14  1  0  0  0  0
  4  2  1  0  0  0  0
  5 16  1  0  0  0  0
  5 17  1  0  0  0  0
  5  4  1  0  0  0  0
  6  5  1  0  0  0  0
  7 20  1  0  0  0  0
  7  8  1  0  0  0  0
  7  6  1  0  0  0  0
  8 22  1  6  0  0  0
  8  9  1  0  0  0  0
  9 24  1  0  0  0  0
  9 23  1  0  0  0  0
 10  8  1  0  0  0  0
 10 25  1  0  0  0  0
 11 10  2  0  0  0  0
 15  4  1  0  0  0  0
 18  6  1  0  0  0  0
 19  6  1  0  0  0  0
 21  7  1  0  0  0  0
 25 31  1  0  0  0  0
 26 32  1  6  0  0  0
 26 29  1  0  0  0  0
 26 25  1  0  0  0  0
 26 27  1  0  0  0  0
 27 28  1  0  0  0  0
 28 35  1  0  0  0  0
 29 30  2  0  0  0  0
 33 27  1  0  0  0  0
 34 27  1  0  0  0  0
 36 37  1  0  0  0  0
 36 46  1  0  0  0  0
 37 47  1  6  0  0  0
 37 39  1  0  0  0  0
 38 48  1  0  0  0  0
 38 37  1  0  0  0  0
 39 49  1  1  0  0  0
 39 41  1  0  0  0  0
 40 39  1  0  0  0  0
 40 29  1  0  0  0  0
 41 43  2  0  0  0  0
 41 42  1  0  0  0  0
 44 36  1  0  0  0  0
 45 36  1  0  0  0  0
 50 40  1  0  0  0  0
M  END
$$$$
