RCV.pdb
 OpenBabel07022418053D

 52 51  0  0  1  0  0  0  0  0999 V2000
    5.6210   -3.2560    4.1030 N   0  0  0  0  0  0  0  0  0  0  0  0
    4.7660   -2.8050    3.0660 C   0  0  0  0  0  0  0  0  0  0  0  0
    5.0740   -1.7800    2.3400 N   0  0  0  0  0  0  0  0  0  0  0  0
    3.5340   -3.4600    2.7790 N   0  0  0  0  0  0  0  0  0  0  0  0
    2.9010   -3.3690    1.4500 C   0  0  0  0  0  0  0  0  0  0  0  0
    1.6360   -4.1440    1.4780 C   0  0  0  0  0  0  0  0  0  0  0  0
    0.8210   -4.2070    0.2620 C   0  0  0  0  0  0  0  0  0  0  0  0
    0.2920   -2.9630   -0.3320 C   0  0  2  0  0  0  0  0  0  0  0  0
    1.3380   -2.0860   -0.7060 N   0  0  0  0  0  0  0  0  0  0  0  0
   -0.7920   -2.3740    0.4760 C   0  0  0  0  0  0  0  0  0  0  0  0
   -1.7220   -3.1290    0.9280 O   0  0  0  0  0  0  0  0  0  0  0  0
    5.3280   -3.1310    5.0950 H   0  0  0  0  0  0  0  0  0  0  0  0
    6.5340   -3.7090    3.8830 H   0  0  0  0  0  0  0  0  0  0  0  0
    5.9760   -1.2920    2.5420 H   0  0  0  0  0  0  0  0  0  0  0  0
    3.0840   -4.0120    3.5380 H   0  0  0  0  0  0  0  0  0  0  0  0
    3.6590   -3.8420    0.7680 H   0  0  0  0  0  0  0  0  0  0  0  0
    2.8430   -2.3230    1.1610 H   0  0  0  0  0  0  0  0  0  0  0  0
    1.9400   -5.2120    1.7140 H   0  0  0  0  0  0  0  0  0  0  0  0
    1.0310   -3.8680    2.3930 H   0  0  0  0  0  0  0  0  0  0  0  0
   -0.0460   -4.8950    0.4610 H   0  0  0  0  0  0  0  0  0  0  0  0
    1.4050   -4.7470   -0.5380 H   0  0  0  0  0  0  0  0  0  0  0  0
   -0.2170   -3.2660   -1.3040 H   0  0  0  0  0  0  0  0  0  0  0  0
    2.1610   -2.5130   -1.1260 H   0  0  0  0  0  0  0  0  0  0  0  0
    1.3900   -1.1580   -0.3150 H   0  0  0  0  0  0  0  0  0  0  0  0
   -0.9360   -1.0140    0.8270 N   0  0  0  0  0  0  0  0  0  0  0  0
   -2.0380   -0.5260    1.6330 C   0  0  1  0  0  0  0  0  0  0  0  0
   -1.4370    0.0200    2.9110 C   0  0  0  0  0  0  0  0  0  0  0  0
   -2.7930    0.6430    3.9480 S   0  0  0  0  0  0  0  0  0  0  0  0
   -2.8040    0.5450    0.9780 C   0  0  0  0  0  0  0  0  0  0  0  0
   -3.7760    1.1180    1.5350 O   0  0  0  0  0  0  0  0  0  0  0  0
   -0.2190   -0.3370    0.4910 H   0  0  0  0  0  0  0  0  0  0  0  0
   -2.7030   -1.3760    1.9610 H   0  0  0  0  0  0  0  0  0  0  0  0
   -0.9180   -0.8170    3.4280 H   0  0  0  0  0  0  0  0  0  0  0  0
   -0.7350    0.8500    2.6790 H   0  0  0  0  0  0  0  0  0  0  0  0
   -2.3140    1.5330    4.9380 H   0  0  0  0  0  0  0  0  0  0  0  0
   -1.2230    2.2400   -2.4780 C   0  0  0  0  0  0  0  0  0  0  0  0
   -2.1430    3.0020   -1.5480 C   0  0  0  0  0  0  0  0  0  0  0  0
   -1.3330    3.5340   -0.3960 C   0  0  0  0  0  0  0  0  0  0  0  0
   -3.1810    2.0280   -1.0340 C   0  0  2  0  0  0  0  0  0  0  0  0
   -2.4690    0.9770   -0.3290 N   0  0  0  0  0  0  0  0  0  0  0  0
   -3.8820    1.5000   -2.2300 C   0  0  0  0  0  0  0  0  0  0  0  0
   -3.8400    0.2950   -2.5650 O   0  0  0  0  0  0  0  0  0  0  0  0
   -4.6110    2.3770   -3.0060 O   0  0  0  0  0  0  0  0  0  0  0  0
   -1.1170    2.7430   -3.4720 H   0  0  0  0  0  0  0  0  0  0  0  0
   -1.6140    1.2180   -2.7000 H   0  0  0  0  0  0  0  0  0  0  0  0
   -0.2070    2.0970   -2.0560 H   0  0  0  0  0  0  0  0  0  0  0  0
   -2.6010    3.8110   -2.1600 H   0  0  0  0  0  0  0  0  0  0  0  0
   -0.9230    4.5490   -0.5970 H   0  0  0  0  0  0  0  0  0  0  0  0
   -0.4960    2.8150   -0.2110 H   0  0  0  0  0  0  0  0  0  0  0  0
   -1.9830    3.5600    0.5000 H   0  0  0  0  0  0  0  0  0  0  0  0
   -3.9600    2.4920   -0.4060 H   0  0  0  0  0  0  0  0  0  0  0  0
   -1.6670    0.5050   -0.7970 H   0  0  0  0  0  0  0  0  0  0  0  0
  1 12  1  0  0  0  0
  2  1  1  0  0  0  0
  3 14  1  0  0  0  0
  3  2  2  0  0  0  0
  4  2  1  0  0  0  0
  4 15  1  0  0  0  0
  5  6  1  0  0  0  0
  5  4  1  0  0  0  0
  6 18  1  0  0  0  0
  6 19  1  0  0  0  0
  7 20  1  0  0  0  0
  7  6  1  0  0  0  0
  8 22  1  6  0  0  0
  8  7  1  0  0  0  0
  8 10  1  0  0  0  0
  9  8  1  0  0  0  0
  9 24  1  0  0  0  0
 10 25  1  0  0  0  0
 10 11  2  0  0  0  0
 13  1  1  0  0  0  0
 16  5  1  0  0  0  0
 17  5  1  0  0  0  0
 21  7  1  0  0  0  0
 23  9  1  0  0  0  0
 25 26  1  0  0  0  0
 26 32  1  1  0  0  0
 26 27  1  0  0  0  0
 27 33  1  0  0  0  0
 27 28  1  0  0  0  0
 28 35  1  0  0  0  0
 29 30  2  0  0  0  0
 29 26  1  0  0  0  0
 31 25  1  0  0  0  0
 34 27  1  0  0  0  0
 36 46  1  0  0  0  0
 36 37  1  0  0  0  0
 37 39  1  0  0  0  0
 37 38  1  0  0  0  0
 38 49  1  0  0  0  0
 38 50  1  0  0  0  0
 39 51  1  1  0  0  0
 39 40  1  0  0  0  0
 40 29  1  0  0  0  0
 41 39  1  0  0  0  0
 42 41  1  0  0  0  0
 43 41  2  0  0  0  0
 44 36  1  0  0  0  0
 45 36  1  0  0  0  0
 47 37  1  0  0  0  0
 48 38  1  0  0  0  0
 52 40  1  0  0  0  0
M  END
$$$$
