RDA.pdb
 OpenBabel07022418043D

 48 47  0  0  1  0  0  0  0  0999 V2000
    4.1220   -1.7760    4.9940 N   0  0  0  0  0  0  0  0  0  0  0  0
    4.3330   -0.9080    3.8620 C   0  0  0  0  0  0  0  0  0  0  0  0
    4.7190    0.2890    4.0260 N   0  0  0  0  0  0  0  0  0  0  0  0
    4.1030   -1.4030    2.5460 N   0  0  0  0  0  0  0  0  0  0  0  0
    3.9360   -0.4830    1.4050 C   0  0  0  0  0  0  0  0  0  0  0  0
    3.7130   -1.3570    0.2090 C   0  0  0  0  0  0  0  0  0  0  0  0
    3.5240   -0.7040   -1.0900 C   0  0  0  0  0  0  0  0  0  0  0  0
    2.3630    0.2370   -1.2320 C   0  0  2  0  0  0  0  0  0  0  0  0
    2.5220    1.3040   -0.2940 N   0  0  0  0  0  0  0  0  0  0  0  0
    1.0710   -0.4820   -1.0780 C   0  0  0  0  0  0  0  0  0  0  0  0
    0.8400   -1.4390   -1.8500 O   0  0  0  0  0  0  0  0  0  0  0  0
    3.2220   -2.2260    5.1860 H   0  0  0  0  0  0  0  0  0  0  0  0
    4.9140   -1.9610    5.6510 H   0  0  0  0  0  0  0  0  0  0  0  0
    4.8850    0.6470    4.9890 H   0  0  0  0  0  0  0  0  0  0  0  0
    4.0620   -2.4380    2.4430 H   0  0  0  0  0  0  0  0  0  0  0  0
    3.0720    0.1680    1.6630 H   0  0  0  0  0  0  0  0  0  0  0  0
    4.8890    0.0660    1.3360 H   0  0  0  0  0  0  0  0  0  0  0  0
    2.9250   -2.0820    0.5010 H   0  0  0  0  0  0  0  0  0  0  0  0
    4.6440   -1.9980    0.1330 H   0  0  0  0  0  0  0  0  0  0  0  0
    4.4920   -0.2250   -1.3930 H   0  0  0  0  0  0  0  0  0  0  0  0
    3.3740   -1.5150   -1.8640 H   0  0  0  0  0  0  0  0  0  0  0  0
    2.3370    0.6920   -2.2460 H   0  0  0  0  0  0  0  0  0  0  0  0
    3.4690    1.6530   -0.1780 H   0  0  0  0  0  0  0  0  0  0  0  0
    1.7510    1.9610   -0.2180 H   0  0  0  0  0  0  0  0  0  0  0  0
    0.0940   -0.1580   -0.1230 N   0  0  0  0  0  0  0  0  0  0  0  0
   -1.1360   -0.9840   -0.1100 C   0  0  1  0  0  0  0  0  0  0  0  0
   -1.0560   -1.6320    1.2580 C   0  0  0  0  0  0  0  0  0  0  0  0
   -2.0690   -2.5630    1.6620 C   0  0  0  0  0  0  0  0  0  0  0  0
   -3.0070   -3.0130    0.9760 O   0  0  0  0  0  0  0  0  0  0  0  0
   -2.3170   -0.1160   -0.1480 C   0  0  0  0  0  0  0  0  0  0  0  0
   -2.2400    1.1280    0.1840 O   0  0  0  0  0  0  0  0  0  0  0  0
   -1.9810   -3.0200    3.0130 O   0  0  0  0  0  0  0  0  0  0  0  0
    0.2100    0.6170    0.5480 H   0  0  0  0  0  0  0  0  0  0  0  0
   -1.1370   -1.7710   -0.8570 H   0  0  0  0  0  0  0  0  0  0  0  0
   -0.0690   -2.2110    1.2590 H   0  0  0  0  0  0  0  0  0  0  0  0
   -0.8290   -0.8420    2.0420 H   0  0  0  0  0  0  0  0  0  0  0  0
   -2.8020   -3.4690    3.4220 H   0  0  0  0  0  0  0  0  0  0  0  0
   -5.3510    0.5520   -1.8950 C   0  0  0  0  0  0  0  0  0  0  0  0
   -4.7500    0.4010   -0.5430 C   0  0  2  0  0  0  0  0  0  0  0  0
   -3.6030   -0.5200   -0.5400 N   0  0  0  0  0  0  0  0  0  0  0  0
   -5.7490   -0.0090    0.4750 C   0  0  0  0  0  0  0  0  0  0  0  0
   -5.5090   -1.0280    1.1670 O   0  0  0  0  0  0  0  0  0  0  0  0
   -6.9320    0.6670    0.7080 O   0  0  0  0  0  0  0  0  0  0  0  0
   -5.4890    1.5870   -2.2350 H   0  0  0  0  0  0  0  0  0  0  0  0
   -6.3700    0.0720   -1.9600 H   0  0  0  0  0  0  0  0  0  0  0  0
   -4.7240   -0.0040   -2.6180 H   0  0  0  0  0  0  0  0  0  0  0  0
   -4.3710    1.3870   -0.2140 H   0  0  0  0  0  0  0  0  0  0  0  0
   -3.7670   -1.4960   -0.8790 H   0  0  0  0  0  0  0  0  0  0  0  0
  1 12  1  0  0  0  0
  1 13  1  0  0  0  0
  2  3  2  0  0  0  0
  2  1  1  0  0  0  0
  3 14  1  0  0  0  0
  4  2  1  0  0  0  0
  5 16  1  0  0  0  0
  5  4  1  0  0  0  0
  6 18  1  0  0  0  0
  6  5  1  0  0  0  0
  7  6  1  0  0  0  0
  8 22  1  6  0  0  0
  8  7  1  0  0  0  0
  8 10  1  0  0  0  0
  8  9  1  0  0  0  0
  9 24  1  0  0  0  0
  9 23  1  0  0  0  0
 10 25  1  0  0  0  0
 11 10  2  0  0  0  0
 15  4  1  0  0  0  0
 17  5  1  0  0  0  0
 19  6  1  0  0  0  0
 20  7  1  0  0  0  0
 21  7  1  0  0  0  0
 25 26  1  0  0  0  0
 25 33  1  0  0  0  0
 26 34  1  6  0  0  0
 26 27  1  0  0  0  0
 27 35  1  0  0  0  0
 27 28  1  0  0  0  0
 27 36  1  0  0  0  0
 28 32  1  0  0  0  0
 29 28  2  0  0  0  0
 30 26  1  0  0  0  0
 30 31  2  0  0  0  0
 32 37  1  0  0  0  0
 38 39  1  0  0  0  0
 39 40  1  0  0  0  0
 39 47  1  1  0  0  0
 39 41  1  0  0  0  0
 40 30  1  0  0  0  0
 41 43  2  0  0  0  0
 41 42  1  0  0  0  0
 44 38  1  0  0  0  0
 45 38  1  0  0  0  0
 46 38  1  0  0  0  0
 48 40  1  0  0  0  0
M  END
$$$$
