RDC.pdb
 OpenBabel07022418043D

 49 48  0  0  1  0  0  0  0  0999 V2000
    3.4830   -4.2980   -2.6900 N   0  0  0  0  0  0  0  0  0  0  0  0
    3.1050   -2.9460   -2.8880 C   0  0  0  0  0  0  0  0  0  0  0  0
    2.4000   -2.5740   -3.9010 N   0  0  0  0  0  0  0  0  0  0  0  0
    3.5180   -1.9670   -1.9400 N   0  0  0  0  0  0  0  0  0  0  0  0
    2.8410   -0.7000   -1.8230 C   0  0  0  0  0  0  0  0  0  0  0  0
    3.4450    0.1800   -0.7640 C   0  0  0  0  0  0  0  0  0  0  0  0
    3.4510   -0.3790    0.6080 C   0  0  0  0  0  0  0  0  0  0  0  0
    2.1370   -0.7140    1.2170 C   0  0  2  0  0  0  0  0  0  0  0  0
    1.3810   -1.7090    0.4870 N   0  0  0  0  0  0  0  0  0  0  0  0
    1.2900    0.5040    1.4530 C   0  0  0  0  0  0  0  0  0  0  0  0
    1.7700    1.4620    2.0730 O   0  0  0  0  0  0  0  0  0  0  0  0
    3.4750   -5.0000   -3.4730 H   0  0  0  0  0  0  0  0  0  0  0  0
    3.7830   -4.6550   -1.7710 H   0  0  0  0  0  0  0  0  0  0  0  0
    2.1090   -3.3070   -4.5830 H   0  0  0  0  0  0  0  0  0  0  0  0
    4.3300   -2.1670   -1.3130 H   0  0  0  0  0  0  0  0  0  0  0  0
    1.7680   -0.8850   -1.6560 H   0  0  0  0  0  0  0  0  0  0  0  0
    2.9080   -0.2300   -2.8360 H   0  0  0  0  0  0  0  0  0  0  0  0
    4.5270    0.3120   -1.0720 H   0  0  0  0  0  0  0  0  0  0  0  0
    3.0440    1.2260   -0.8180 H   0  0  0  0  0  0  0  0  0  0  0  0
    4.0290   -1.3530    0.5500 H   0  0  0  0  0  0  0  0  0  0  0  0
    4.0930    0.2360    1.2980 H   0  0  0  0  0  0  0  0  0  0  0  0
    2.3680   -1.1930    2.2150 H   0  0  0  0  0  0  0  0  0  0  0  0
    0.5930   -2.0050    1.1320 H   0  0  0  0  0  0  0  0  0  0  0  0
    1.9960   -2.5520    0.4130 H   0  0  0  0  0  0  0  0  0  0  0  0
   -0.0270    0.5860    0.9930 N   0  0  0  0  0  0  0  0  0  0  0  0
   -0.9270    1.6740    1.1490 C   0  0  1  0  0  0  0  0  0  0  0  0
   -1.3850    2.3230   -0.1130 C   0  0  0  0  0  0  0  0  0  0  0  0
   -2.0960    1.4220   -1.0330 C   0  0  0  0  0  0  0  0  0  0  0  0
   -2.5110    1.9140   -2.1160 O   0  0  0  0  0  0  0  0  0  0  0  0
   -2.1110    1.3390    1.9880 C   0  0  0  0  0  0  0  0  0  0  0  0
   -2.9760    2.2370    2.1840 O   0  0  0  0  0  0  0  0  0  0  0  0
   -2.3430    0.0890   -0.8070 O   0  0  0  0  0  0  0  0  0  0  0  0
   -0.4010   -0.2560    0.4670 H   0  0  0  0  0  0  0  0  0  0  0  0
   -0.3710    2.4690    1.7260 H   0  0  0  0  0  0  0  0  0  0  0  0
   -2.1350    3.1070    0.1910 H   0  0  0  0  0  0  0  0  0  0  0  0
   -0.5700    2.9040   -0.6060 H   0  0  0  0  0  0  0  0  0  0  0  0
   -3.0920   -0.4300   -1.2210 H   0  0  0  0  0  0  0  0  0  0  0  0
   -2.3360    0.0840    2.5830 N   0  0  0  0  0  0  0  0  0  0  0  0
   -3.4910   -0.2250    3.3940 C   0  0  1  0  0  0  0  0  0  0  0  0
   -4.2490   -1.4290    2.8960 C   0  0  0  0  0  0  0  0  0  0  0  0
   -3.1640   -2.8780    2.9100 S   0  0  0  0  0  0  0  0  0  0  0  0
   -3.0800   -0.5190    4.7930 C   0  0  0  0  0  0  0  0  0  0  0  0
   -3.8950   -0.8150    5.6940 O   0  0  0  0  0  0  0  0  0  0  0  0
   -1.7310   -0.4610    5.1090 O   0  0  0  0  0  0  0  0  0  0  0  0
   -1.6220   -0.6590    2.4230 H   0  0  0  0  0  0  0  0  0  0  0  0
   -4.1840    0.6540    3.4730 H   0  0  0  0  0  0  0  0  0  0  0  0
   -5.0630   -1.6230    3.6260 H   0  0  0  0  0  0  0  0  0  0  0  0
   -4.7230   -1.2620    1.9130 H   0  0  0  0  0  0  0  0  0  0  0  0
   -3.0840   -3.4240    1.6170 H   0  0  0  0  0  0  0  0  0  0  0  0
  1 13  1  0  0  0  0
  2  1  1  0  0  0  0
  2  4  1  0  0  0  0
  3  2  2  0  0  0  0
  4  5  1  0  0  0  0
  4 15  1  0  0  0  0
  5 16  1  0  0  0  0
  5  6  1  0  0  0  0
  6  7  1  0  0  0  0
  7  8  1  0  0  0  0
  7 21  1  0  0  0  0
  8 10  1  0  0  0  0
  8 22  1  1  0  0  0
  9 23  1  0  0  0  0
  9  8  1  0  0  0  0
 10 11  2  0  0  0  0
 12  1  1  0  0  0  0
 14  3  1  0  0  0  0
 17  5  1  0  0  0  0
 18  6  1  0  0  0  0
 19  6  1  0  0  0  0
 20  7  1  0  0  0  0
 24  9  1  0  0  0  0
 25 26  1  0  0  0  0
 25 10  1  0  0  0  0
 26 34  1  1  0  0  0
 26 30  1  0  0  0  0
 27 35  1  0  0  0  0
 27 26  1  0  0  0  0
 28 32  1  0  0  0  0
 28 27  1  0  0  0  0
 29 28  2  0  0  0  0
 30 31  2  0  0  0  0
 30 38  1  0  0  0  0
 33 25  1  0  0  0  0
 36 27  1  0  0  0  0
 37 32  1  0  0  0  0
 38 39  1  0  0  0  0
 39 46  1  1  0  0  0
 39 42  1  0  0  0  0
 40 41  1  0  0  0  0
 40 39  1  0  0  0  0
 40 47  1  0  0  0  0
 42 44  2  0  0  0  0
 42 43  1  0  0  0  0
 45 38  1  0  0  0  0
 48 40  1  0  0  0  0
 49 41  1  0  0  0  0
M  END
$$$$
