RDD.pdb
 OpenBabel07022418043D

 51 50  0  0  1  0  0  0  0  0999 V2000
    5.9020   -2.7690    0.8380 N   0  0  0  0  0  0  0  0  0  0  0  0
    4.5510   -3.0710    1.1350 C   0  0  0  0  0  0  0  0  0  0  0  0
    4.2330   -3.7050    2.2320 N   0  0  0  0  0  0  0  0  0  0  0  0
    3.5230   -2.6800    0.2300 N   0  0  0  0  0  0  0  0  0  0  0  0
    2.2930   -3.4450    0.1900 C   0  0  0  0  0  0  0  0  0  0  0  0
    1.3540   -2.8460   -0.8420 C   0  0  0  0  0  0  0  0  0  0  0  0
    0.0790   -3.6560   -0.8680 C   0  0  0  0  0  0  0  0  0  0  0  0
   -0.9030   -3.1060   -1.8820 C   0  0  2  0  0  0  0  0  0  0  0  0
   -0.2730   -3.1590   -3.1860 N   0  0  0  0  0  0  0  0  0  0  0  0
   -1.1810   -1.6760   -1.5220 C   0  0  0  0  0  0  0  0  0  0  0  0
   -0.8630   -0.7580   -2.3250 O   0  0  0  0  0  0  0  0  0  0  0  0
    6.2850   -1.8180    0.9460 H   0  0  0  0  0  0  0  0  0  0  0  0
    6.5240   -3.5260    0.5020 H   0  0  0  0  0  0  0  0  0  0  0  0
    4.9920   -3.9860    2.8870 H   0  0  0  0  0  0  0  0  0  0  0  0
    3.6670   -1.8460   -0.3950 H   0  0  0  0  0  0  0  0  0  0  0  0
    1.7980   -3.5450    1.1550 H   0  0  0  0  0  0  0  0  0  0  0  0
    2.5630   -4.4740   -0.1700 H   0  0  0  0  0  0  0  0  0  0  0  0
    1.0800   -1.8180   -0.4660 H   0  0  0  0  0  0  0  0  0  0  0  0
    1.8340   -2.7940   -1.8370 H   0  0  0  0  0  0  0  0  0  0  0  0
   -0.3520   -3.6390    0.1440 H   0  0  0  0  0  0  0  0  0  0  0  0
    0.3020   -4.7130   -1.1540 H   0  0  0  0  0  0  0  0  0  0  0  0
   -1.8170   -3.7110   -1.9300 H   0  0  0  0  0  0  0  0  0  0  0  0
   -0.6420   -2.4460   -3.8470 H   0  0  0  0  0  0  0  0  0  0  0  0
   -0.3060   -4.1260   -3.5680 H   0  0  0  0  0  0  0  0  0  0  0  0
   -1.7890   -1.3220   -0.3080 N   0  0  0  0  0  0  0  0  0  0  0  0
   -2.0920    0.0220    0.1160 C   0  0  1  0  0  0  0  0  0  0  0  0
   -3.5440    0.2340    0.4060 C   0  0  0  0  0  0  0  0  0  0  0  0
   -4.4040   -0.0230   -0.7780 C   0  0  0  0  0  0  0  0  0  0  0  0
   -3.9060   -0.3790   -1.8770 O   0  0  0  0  0  0  0  0  0  0  0  0
   -1.3010    0.4140    1.3130 C   0  0  0  0  0  0  0  0  0  0  0  0
   -0.5050   -0.4370    1.7850 O   0  0  0  0  0  0  0  0  0  0  0  0
   -5.7780    0.1170   -0.7190 O   0  0  0  0  0  0  0  0  0  0  0  0
   -2.0530   -2.0950    0.3600 H   0  0  0  0  0  0  0  0  0  0  0  0
   -1.7550    0.6980   -0.7050 H   0  0  0  0  0  0  0  0  0  0  0  0
   -3.8490   -0.3700    1.2830 H   0  0  0  0  0  0  0  0  0  0  0  0
   -3.6890    1.2930    0.6930 H   0  0  0  0  0  0  0  0  0  0  0  0
   -6.3950   -0.5330   -1.1990 H   0  0  0  0  0  0  0  0  0  0  0  0
   -1.4630    1.7050    1.8710 N   0  0  0  0  0  0  0  0  0  0  0  0
   -0.6830    2.0640    3.0330 C   0  0  1  0  0  0  0  0  0  0  0  0
    0.1330    3.3010    2.7900 C   0  0  0  0  0  0  0  0  0  0  0  0
    1.0850    3.1480    1.6740 C   0  0  0  0  0  0  0  0  0  0  0  0
    1.1480    2.0700    1.0420 O   0  0  0  0  0  0  0  0  0  0  0  0
   -1.6030    2.2840    4.1940 C   0  0  0  0  0  0  0  0  0  0  0  0
   -2.8310    2.1460    4.0460 O   0  0  0  0  0  0  0  0  0  0  0  0
    1.9100    4.1930    1.3220 O   0  0  0  0  0  0  0  0  0  0  0  0
   -1.0040    2.6400    5.4010 O   0  0  0  0  0  0  0  0  0  0  0  0
   -2.1360    2.3770    1.4450 H   0  0  0  0  0  0  0  0  0  0  0  0
   -0.0000    1.2540    3.3470 H   0  0  0  0  0  0  0  0  0  0  0  0
   -0.5940    4.1430    2.5990 H   0  0  0  0  0  0  0  0  0  0  0  0
    0.7050    3.6180    3.6820 H   0  0  0  0  0  0  0  0  0  0  0  0
    2.7110    4.0990    0.6960 H   0  0  0  0  0  0  0  0  0  0  0  0
  1 12  1  0  0  0  0
  1  2  1  0  0  0  0
  2  3  2  0  0  0  0
  3 14  1  0  0  0  0
  4  2  1  0  0  0  0
  5  4  1  0  0  0  0
  5 16  1  0  0  0  0
  6 18  1  0  0  0  0
  6  5  1  0  0  0  0
  7  6  1  0  0  0  0
  7 20  1  0  0  0  0
  8 22  1  1  0  0  0
  8 10  1  0  0  0  0
  8  7  1  0  0  0  0
  9  8  1  0  0  0  0
 10 25  1  0  0  0  0
 11 10  2  0  0  0  0
 13  1  1  0  0  0  0
 15  4  1  0  0  0  0
 17  5  1  0  0  0  0
 19  6  1  0  0  0  0
 21  7  1  0  0  0  0
 23  9  1  0  0  0  0
 24  9  1  0  0  0  0
 25 26  1  0  0  0  0
 25 33  1  0  0  0  0
 26 34  1  6  0  0  0
 26 27  1  0  0  0  0
 26 30  1  0  0  0  0
 27 36  1  0  0  0  0
 27 35  1  0  0  0  0
 28 32  1  0  0  0  0
 28 27  1  0  0  0  0
 29 28  2  0  0  0  0
 30 31  2  0  0  0  0
 30 38  1  0  0  0  0
 37 32  1  0  0  0  0
 38 39  1  0  0  0  0
 39 48  1  1  0  0  0
 39 43  1  0  0  0  0
 40 39  1  0  0  0  0
 40 50  1  0  0  0  0
 41 40  1  0  0  0  0
 42 41  2  0  0  0  0
 43 46  1  0  0  0  0
 44 43  2  0  0  0  0
 45 41  1  0  0  0  0
 47 38  1  0  0  0  0
 49 40  1  0  0  0  0
 51 45  1  0  0  0  0
M  END
$$$$
