RDE.pdb
 OpenBabel07022418043D

 54 53  0  0  1  0  0  0  0  0999 V2000
    3.1760   -2.2280    6.7870 N   0  0  0  0  0  0  0  0  0  0  0  0
    2.6490   -1.2160    5.9080 C   0  0  0  0  0  0  0  0  0  0  0  0
    1.3980   -0.9030    5.9920 N   0  0  0  0  0  0  0  0  0  0  0  0
    3.4520   -0.5550    4.9600 N   0  0  0  0  0  0  0  0  0  0  0  0
    2.8430    0.0750    3.7810 C   0  0  0  0  0  0  0  0  0  0  0  0
    3.9400    0.6750    2.9970 C   0  0  0  0  0  0  0  0  0  0  0  0
    3.6580    1.4170    1.7560 C   0  0  0  0  0  0  0  0  0  0  0  0
    3.0840    0.7960    0.5730 C   0  0  2  0  0  0  0  0  0  0  0  0
    2.9420    1.8680   -0.4990 N   0  0  0  0  0  0  0  0  0  0  0  0
    1.8220    0.1040    0.5600 C   0  0  0  0  0  0  0  0  0  0  0  0
    1.7370   -1.0930    0.9150 O   0  0  0  0  0  0  0  0  0  0  0  0
    2.5030   -2.8870    7.2550 H   0  0  0  0  0  0  0  0  0  0  0  0
    4.1790   -2.3420    6.9830 H   0  0  0  0  0  0  0  0  0  0  0  0
    0.7320   -1.3410    6.6650 H   0  0  0  0  0  0  0  0  0  0  0  0
    4.4640   -0.5060    5.0780 H   0  0  0  0  0  0  0  0  0  0  0  0
    2.0950    0.8400    4.1450 H   0  0  0  0  0  0  0  0  0  0  0  0
    2.2500   -0.7150    3.3410 H   0  0  0  0  0  0  0  0  0  0  0  0
    4.6990   -0.1480    2.8330 H   0  0  0  0  0  0  0  0  0  0  0  0
    4.4720    1.3880    3.7230 H   0  0  0  0  0  0  0  0  0  0  0  0
    3.1760    2.4150    2.0190 H   0  0  0  0  0  0  0  0  0  0  0  0
    4.6940    1.8050    1.4180 H   0  0  0  0  0  0  0  0  0  0  0  0
    3.8590    0.1240    0.0980 H   0  0  0  0  0  0  0  0  0  0  0  0
    3.9180    2.1470   -0.7610 H   0  0  0  0  0  0  0  0  0  0  0  0
    2.5420    1.3180   -1.2990 H   0  0  0  0  0  0  0  0  0  0  0  0
    0.5770    0.6840    0.1550 N   0  0  0  0  0  0  0  0  0  0  0  0
   -0.6830    0.0200    0.1340 C   0  0  1  0  0  0  0  0  0  0  0  0
   -1.7250    0.6960    1.0010 C   0  0  0  0  0  0  0  0  0  0  0  0
   -1.3410    0.7670    2.4250 C   0  0  0  0  0  0  0  0  0  0  0  0
   -0.2510    0.2950    2.8180 O   0  0  0  0  0  0  0  0  0  0  0  0
   -1.1960   -0.2600   -1.2160 C   0  0  0  0  0  0  0  0  0  0  0  0
   -0.5320    0.0810   -2.2090 O   0  0  0  0  0  0  0  0  0  0  0  0
   -2.1690    1.3530    3.3630 O   0  0  0  0  0  0  0  0  0  0  0  0
    0.6500    1.6920   -0.1460 H   0  0  0  0  0  0  0  0  0  0  0  0
   -0.5040   -1.0040    0.5830 H   0  0  0  0  0  0  0  0  0  0  0  0
   -1.8940    1.7520    0.6380 H   0  0  0  0  0  0  0  0  0  0  0  0
   -2.7160    0.2060    0.8820 H   0  0  0  0  0  0  0  0  0  0  0  0
   -1.8320    1.8180    4.1960 H   0  0  0  0  0  0  0  0  0  0  0  0
   -2.4290   -0.9080   -1.3830 N   0  0  0  0  0  0  0  0  0  0  0  0
   -2.9650   -1.2000   -2.7260 C   0  0  1  0  0  0  0  0  0  0  0  0
   -3.0350   -2.6830   -2.9410 C   0  0  0  0  0  0  0  0  0  0  0  0
   -3.5640   -3.0940   -4.2840 C   0  0  0  0  0  0  0  0  0  0  0  0
   -3.5510   -4.5990   -4.3380 C   0  0  0  0  0  0  0  0  0  0  0  0
   -3.1410   -5.2570   -3.3590 O   0  0  0  0  0  0  0  0  0  0  0  0
   -4.2390   -0.4910   -2.8800 C   0  0  0  0  0  0  0  0  0  0  0  0
   -4.7020    0.1760   -1.9270 O   0  0  0  0  0  0  0  0  0  0  0  0
   -3.9860   -5.2890   -5.4560 O   0  0  0  0  0  0  0  0  0  0  0  0
   -4.9640   -0.5250   -4.0520 O   0  0  0  0  0  0  0  0  0  0  0  0
   -3.0090   -1.2060   -0.5670 H   0  0  0  0  0  0  0  0  0  0  0  0
   -2.2030   -0.8100   -3.4430 H   0  0  0  0  0  0  0  0  0  0  0  0
   -2.0210   -3.1450   -2.8510 H   0  0  0  0  0  0  0  0  0  0  0  0
   -3.7350   -3.1390   -2.1820 H   0  0  0  0  0  0  0  0  0  0  0  0
   -2.9390   -2.6720   -5.1160 H   0  0  0  0  0  0  0  0  0  0  0  0
   -4.5990   -2.7310   -4.4650 H   0  0  0  0  0  0  0  0  0  0  0  0
   -3.6820   -6.2360   -5.6700 H   0  0  0  0  0  0  0  0  0  0  0  0
  1 13  1  0  0  0  0
  1 12  1  0  0  0  0
  2  3  2  0  0  0  0
  2  1  1  0  0  0  0
  3 14  1  0  0  0  0
  4 15  1  0  0  0  0
  4  2  1  0  0  0  0
  5 16  1  0  0  0  0
  5  4  1  0  0  0  0
  6 19  1  0  0  0  0
  6  5  1  0  0  0  0
  7 20  1  0  0  0  0
  7  6  1  0  0  0  0
  8 22  1  6  0  0  0
  8  7  1  0  0  0  0
  9  8  1  0  0  0  0
 10  8  1  0  0  0  0
 10 11  2  0  0  0  0
 17  5  1  0  0  0  0
 18  6  1  0  0  0  0
 21  7  1  0  0  0  0
 23  9  1  0  0  0  0
 24  9  1  0  0  0  0
 25 10  1  0  0  0  0
 26 25  1  0  0  0  0
 26 34  1  1  0  0  0
 26 27  1  0  0  0  0
 27 28  1  0  0  0  0
 28 29  2  0  0  0  0
 28 32  1  0  0  0  0
 30 26  1  0  0  0  0
 31 30  2  0  0  0  0
 32 37  1  0  0  0  0
 33 25  1  0  0  0  0
 35 27  1  0  0  0  0
 36 27  1  0  0  0  0
 38 30  1  0  0  0  0
 38 48  1  0  0  0  0
 39 49  1  6  0  0  0
 39 38  1  0  0  0  0
 40 50  1  0  0  0  0
 40 39  1  0  0  0  0
 40 51  1  0  0  0  0
 41 40  1  0  0  0  0
 42 41  1  0  0  0  0
 42 43  2  0  0  0  0
 44 39  1  0  0  0  0
 44 45  1  0  0  0  0
 46 42  1  0  0  0  0
 47 44  2  0  0  0  0
 52 41  1  0  0  0  0
 53 41  1  0  0  0  0
 54 46  1  0  0  0  0
M  END
$$$$
