RDF.pdb
 OpenBabel07022418043D

 58 58  0  0  1  0  0  0  0  0999 V2000
    2.3370   -0.4530    5.3290 N   0  0  0  0  0  0  0  0  0  0  0  0
    3.1730   -0.5740    4.1750 C   0  0  0  0  0  0  0  0  0  0  0  0
    4.2810    0.0780    4.1100 N   0  0  0  0  0  0  0  0  0  0  0  0
    2.7920   -1.4080    3.0990 N   0  0  0  0  0  0  0  0  0  0  0  0
    3.5290   -1.4670    1.8540 C   0  0  0  0  0  0  0  0  0  0  0  0
    3.3440   -0.1320    1.1640 C   0  0  0  0  0  0  0  0  0  0  0  0
    1.8780    0.1430    0.8860 C   0  0  0  0  0  0  0  0  0  0  0  0
    1.8250    1.4930    0.2020 C   0  0  2  0  0  0  0  0  0  0  0  0
    2.3780    2.5360    1.0370 N   0  0  0  0  0  0  0  0  0  0  0  0
    0.4440    1.8730   -0.1730 C   0  0  0  0  0  0  0  0  0  0  0  0
   -0.0070    2.9550    0.2720 O   0  0  0  0  0  0  0  0  0  0  0  0
    1.8330   -1.2790    5.7170 H   0  0  0  0  0  0  0  0  0  0  0  0
    2.2210    0.4640    5.7980 H   0  0  0  0  0  0  0  0  0  0  0  0
    4.5790    0.6970    4.8940 H   0  0  0  0  0  0  0  0  0  0  0  0
    1.9210   -1.9970    3.2540 H   0  0  0  0  0  0  0  0  0  0  0  0
    3.0860   -2.2320    1.2080 H   0  0  0  0  0  0  0  0  0  0  0  0
    4.5790   -1.6270    2.0960 H   0  0  0  0  0  0  0  0  0  0  0  0
    3.8520   -0.1760    0.1700 H   0  0  0  0  0  0  0  0  0  0  0  0
    3.7310    0.6860    1.8040 H   0  0  0  0  0  0  0  0  0  0  0  0
    1.2540    0.0840    1.7840 H   0  0  0  0  0  0  0  0  0  0  0  0
    1.5250   -0.6400    0.1870 H   0  0  0  0  0  0  0  0  0  0  0  0
    2.3940    1.3960   -0.7550 H   0  0  0  0  0  0  0  0  0  0  0  0
    1.8060    2.5400    1.9310 H   0  0  0  0  0  0  0  0  0  0  0  0
    2.1750    3.4540    0.5470 H   0  0  0  0  0  0  0  0  0  0  0  0
   -0.3590    1.0480   -1.0100 N   0  0  0  0  0  0  0  0  0  0  0  0
   -1.7090    1.3950   -1.3910 C   0  0  1  0  0  0  0  0  0  0  0  0
   -1.8260    1.6170   -2.8830 C   0  0  0  0  0  0  0  0  0  0  0  0
   -3.1770    1.9710   -3.3120 C   0  0  0  0  0  0  0  0  0  0  0  0
   -3.6110    3.1440   -3.2280 O   0  0  0  0  0  0  0  0  0  0  0  0
   -2.6330    0.3790   -0.8890 C   0  0  0  0  0  0  0  0  0  0  0  0
   -3.8690    0.5030   -1.0670 O   0  0  0  0  0  0  0  0  0  0  0  0
   -4.0420    1.0140   -3.8330 O   0  0  0  0  0  0  0  0  0  0  0  0
    0.0370    0.1620   -1.3640 H   0  0  0  0  0  0  0  0  0  0  0  0
   -1.9300    2.3840   -0.9070 H   0  0  0  0  0  0  0  0  0  0  0  0
   -1.5180    0.6470   -3.3600 H   0  0  0  0  0  0  0  0  0  0  0  0
   -1.1010    2.3770   -3.2350 H   0  0  0  0  0  0  0  0  0  0  0  0
   -4.9570    1.2920   -4.1610 H   0  0  0  0  0  0  0  0  0  0  0  0
   -2.1780   -0.7700   -0.1910 N   0  0  0  0  0  0  0  0  0  0  0  0
   -3.0740   -1.7950    0.3230 C   0  0  1  0  0  0  0  0  0  0  0  0
   -2.8120   -3.0600   -0.4960 C   0  0  0  0  0  0  0  0  0  0  0  0
   -1.3770   -3.4410   -0.3230 C   0  0  0  0  0  0  0  0  0  0  0  0
   -0.4020   -2.9430   -1.1720 C   0  0  0  0  0  0  0  0  0  0  0  0
    0.9210   -3.2840   -1.0370 C   0  0  0  0  0  0  0  0  0  0  0  0
    1.3130   -4.1490   -0.0300 C   0  0  0  0  0  0  0  0  0  0  0  0
    0.3540   -4.6440    0.8130 C   0  0  0  0  0  0  0  0  0  0  0  0
   -0.9730   -4.2980    0.6720 C   0  0  0  0  0  0  0  0  0  0  0  0
   -2.8310   -2.1320    1.7380 C   0  0  0  0  0  0  0  0  0  0  0  0
   -1.9400   -1.6180    2.4460 O   0  0  0  0  0  0  0  0  0  0  0  0
   -3.6590   -3.0890    2.3070 O   0  0  0  0  0  0  0  0  0  0  0  0
   -1.1470   -0.8580   -0.0550 H   0  0  0  0  0  0  0  0  0  0  0  0
   -4.1400   -1.5030    0.1840 H   0  0  0  0  0  0  0  0  0  0  0  0
   -2.9640   -2.7960   -1.5550 H   0  0  0  0  0  0  0  0  0  0  0  0
   -3.4890   -3.8720   -0.1550 H   0  0  0  0  0  0  0  0  0  0  0  0
   -0.7310   -2.2700   -1.9500 H   0  0  0  0  0  0  0  0  0  0  0  0
    1.6970   -2.9000   -1.6980 H   0  0  0  0  0  0  0  0  0  0  0  0
    2.3740   -4.3980    0.0470 H   0  0  0  0  0  0  0  0  0  0  0  0
    0.6970   -5.3300    1.6040 H   0  0  0  0  0  0  0  0  0  0  0  0
   -1.6800   -4.7300    1.3750 H   0  0  0  0  0  0  0  0  0  0  0  0
  1 12  1  0  0  0  0
  1 13  1  0  0  0  0
  2  1  1  0  0  0  0
  3  2  2  0  0  0  0
  3 14  1  0  0  0  0
  4 15  1  0  0  0  0
  4  2  1  0  0  0  0
  5 17  1  0  0  0  0
  5  4  1  0  0  0  0
  6 19  1  0  0  0  0
  6  5  1  0  0  0  0
  7  6  1  0  0  0  0
  7 20  1  0  0  0  0
  8 22  1  6  0  0  0
  8  7  1  0  0  0  0
  8  9  1  0  0  0  0
  9 23  1  0  0  0  0
 10  8  1  0  0  0  0
 10 11  2  0  0  0  0
 16  5  1  0  0  0  0
 18  6  1  0  0  0  0
 21  7  1  0  0  0  0
 24  9  1  0  0  0  0
 25 10  1  0  0  0  0
 26 25  1  0  0  0  0
 26 34  1  1  0  0  0
 26 30  1  0  0  0  0
 27 26  1  0  0  0  0
 28 29  2  0  0  0  0
 28 27  1  0  0  0  0
 30 38  1  0  0  0  0
 31 30  2  0  0  0  0
 32 28  1  0  0  0  0
 33 25  1  0  0  0  0
 35 27  1  0  0  0  0
 36 27  1  0  0  0  0
 37 32  1  0  0  0  0
 38 50  1  0  0  0  0
 38 39  1  0  0  0  0
 39 51  1  6  0  0  0
 39 47  1  0  0  0  0
 40 41  1  0  0  0  0
 40 53  1  0  0  0  0
 40 39  1  0  0  0  0
 41 46  1  0  0  0  0
 42 43  1  0  0  0  0
 42 41  2  0  0  0  0
 43 44  2  0  0  0  0
 44 56  1  0  0  0  0
 44 45  1  0  0  0  0
 45 57  1  0  0  0  0
 46 45  2  0  0  0  0
 46 58  1  0  0  0  0
 47 49  2  0  0  0  0
 47 48  1  0  0  0  0
 52 40  1  0  0  0  0
 54 42  1  0  0  0  0
 55 43  1  0  0  0  0
M  END
$$$$
