RDH.pdb
 OpenBabel07022418043D

 55 55  0  0  1  0  0  0  0  0999 V2000
    2.4440   -2.9350    5.6450 N   0  0  0  0  0  0  0  0  0  0  0  0
    2.7900   -1.5530    5.7000 C   0  0  0  0  0  0  0  0  0  0  0  0
    2.0130   -0.6730    6.2340 N   0  0  0  0  0  0  0  0  0  0  0  0
    4.0340   -1.1490    5.1450 N   0  0  0  0  0  0  0  0  0  0  0  0
    4.2020    0.1580    4.5470 C   0  0  0  0  0  0  0  0  0  0  0  0
    3.4010    0.2870    3.2600 C   0  0  0  0  0  0  0  0  0  0  0  0
    3.8580   -0.7670    2.2780 C   0  0  0  0  0  0  0  0  0  0  0  0
    3.1150   -0.6980    0.9830 C   0  0  2  0  0  0  0  0  0  0  0  0
    3.2710    0.5550    0.3040 N   0  0  0  0  0  0  0  0  0  0  0  0
    1.6810   -1.0540    1.1730 C   0  0  0  0  0  0  0  0  0  0  0  0
    1.2920   -2.0600    1.8110 O   0  0  0  0  0  0  0  0  0  0  0  0
    3.1980   -3.6640    5.6570 H   0  0  0  0  0  0  0  0  0  0  0  0
    1.4290   -3.1720    5.5950 H   0  0  0  0  0  0  0  0  0  0  0  0
    1.0980   -0.8670    6.6590 H   0  0  0  0  0  0  0  0  0  0  0  0
    4.8680   -1.7860    5.1500 H   0  0  0  0  0  0  0  0  0  0  0  0
    3.8170    0.9200    5.2780 H   0  0  0  0  0  0  0  0  0  0  0  0
    5.2680    0.4020    4.3950 H   0  0  0  0  0  0  0  0  0  0  0  0
    3.5050    1.2980    2.8620 H   0  0  0  0  0  0  0  0  0  0  0  0
    2.3240    0.1400    3.5340 H   0  0  0  0  0  0  0  0  0  0  0  0
    4.9470   -0.5670    2.0930 H   0  0  0  0  0  0  0  0  0  0  0  0
    3.7670   -1.7640    2.7370 H   0  0  0  0  0  0  0  0  0  0  0  0
    3.5360   -1.4900    0.3110 H   0  0  0  0  0  0  0  0  0  0  0  0
    4.1210    0.5950   -0.2790 H   0  0  0  0  0  0  0  0  0  0  0  0
    3.0720    1.3960    0.8660 H   0  0  0  0  0  0  0  0  0  0  0  0
    0.7120   -0.1890    0.5900 N   0  0  0  0  0  0  0  0  0  0  0  0
   -0.6880   -0.4170    0.7010 C   0  0  1  0  0  0  0  0  0  0  0  0
   -1.4660    0.6950    1.3300 C   0  0  0  0  0  0  0  0  0  0  0  0
   -1.3720    1.9830    0.5990 C   0  0  0  0  0  0  0  0  0  0  0  0
   -0.7080    2.1180   -0.4570 O   0  0  0  0  0  0  0  0  0  0  0  0
   -1.2970   -0.8970   -0.5770 C   0  0  0  0  0  0  0  0  0  0  0  0
   -0.6360   -1.0800   -1.6190 O   0  0  0  0  0  0  0  0  0  0  0  0
   -2.0270    3.1210    1.0600 O   0  0  0  0  0  0  0  0  0  0  0  0
    1.0270    0.6710    0.0430 H   0  0  0  0  0  0  0  0  0  0  0  0
   -0.8140   -1.3050    1.3990 H   0  0  0  0  0  0  0  0  0  0  0  0
   -2.5490    0.4600    1.4140 H   0  0  0  0  0  0  0  0  0  0  0  0
   -1.1460    0.8580    2.3990 H   0  0  0  0  0  0  0  0  0  0  0  0
   -1.9770    3.9940    0.5490 H   0  0  0  0  0  0  0  0  0  0  0  0
   -2.6870   -1.1540   -0.5920 N   0  0  0  0  0  0  0  0  0  0  0  0
   -3.2990   -1.6450   -1.8540 C   0  0  1  0  0  0  0  0  0  0  0  0
   -3.2500   -0.6220   -2.9080 C   0  0  0  0  0  0  0  0  0  0  0  0
   -3.8950   -0.9040   -4.1850 C   0  0  0  0  0  0  0  0  0  0  0  0
   -4.7130   -1.9000   -4.6570 C   0  0  0  0  0  0  0  0  0  0  0  0
   -5.0970   -1.6440   -5.9240 N   0  0  0  0  0  0  0  0  0  0  0  0
   -4.5150   -0.4820   -6.2360 C   0  0  0  0  0  0  0  0  0  0  0  0
   -3.8020   -0.0230   -5.2320 N   0  0  0  0  0  0  0  0  0  0  0  0
   -2.5650   -2.9080   -2.2120 C   0  0  0  0  0  0  0  0  0  0  0  0
   -1.7600   -3.3780   -1.3830 O   0  0  0  0  0  0  0  0  0  0  0  0
   -2.7610   -3.5250   -3.3980 O   0  0  0  0  0  0  0  0  0  0  0  0
   -3.3070   -1.0140    0.2450 H   0  0  0  0  0  0  0  0  0  0  0  0
   -4.3130   -1.9580   -1.6020 H   0  0  0  0  0  0  0  0  0  0  0  0
   -2.1940   -0.2750   -3.1410 H   0  0  0  0  0  0  0  0  0  0  0  0
   -3.7170    0.3490   -2.5310 H   0  0  0  0  0  0  0  0  0  0  0  0
   -5.0670   -2.7790   -4.1300 H   0  0  0  0  0  0  0  0  0  0  0  0
   -5.7180   -2.2150   -6.5520 H   0  0  0  0  0  0  0  0  0  0  0  0
   -4.6070    0.0380   -7.2020 H   0  0  0  0  0  0  0  0  0  0  0  0
  1 12  1  0  0  0  0
  1  2  1  0  0  0  0
  2  3  2  0  0  0  0
  3 14  1  0  0  0  0
  4 15  1  0  0  0  0
  4  2  1  0  0  0  0
  5  4  1  0  0  0  0
  5 16  1  0  0  0  0
  6 19  1  0  0  0  0
  6  5  1  0  0  0  0
  7 21  1  0  0  0  0
  7  6  1  0  0  0  0
  8 22  1  6  0  0  0
  8 10  1  0  0  0  0
  8  7  1  0  0  0  0
  9 24  1  0  0  0  0
  9  8  1  0  0  0  0
 10 11  2  0  0  0  0
 13  1  1  0  0  0  0
 17  5  1  0  0  0  0
 18  6  1  0  0  0  0
 20  7  1  0  0  0  0
 23  9  1  0  0  0  0
 25 26  1  0  0  0  0
 25 10  1  0  0  0  0
 26 27  1  0  0  0  0
 26 34  1  1  0  0  0
 27 35  1  0  0  0  0
 27 36  1  0  0  0  0
 28 32  1  0  0  0  0
 28 27  1  0  0  0  0
 29 28  2  0  0  0  0
 30 26  1  0  0  0  0
 31 30  2  0  0  0  0
 33 25  1  0  0  0  0
 37 32  1  0  0  0  0
 38 30  1  0  0  0  0
 38 49  1  0  0  0  0
 39 50  1  1  0  0  0
 39 38  1  0  0  0  0
 40 52  1  0  0  0  0
 40 39  1  0  0  0  0
 41 40  1  0  0  0  0
 42 41  2  0  0  0  0
 42 53  1  0  0  0  0
 43 42  1  0  0  0  0
 44 43  1  0  0  0  0
 44 45  2  0  0  0  0
 45 41  1  0  0  0  0
 46 39  1  0  0  0  0
 46 47  1  0  0  0  0
 48 46  2  0  0  0  0
 51 40  1  0  0  0  0
 54 43  1  0  0  0  0
 55 44  1  0  0  0  0
M  END
$$$$
