RDI.pdb
 OpenBabel07022418043D

 57 56  0  0  1  0  0  0  0  0999 V2000
   -0.9760   -0.6540    7.5190 N   0  0  0  0  0  0  0  0  0  0  0  0
    0.3700   -0.9660    7.1630 C   0  0  0  0  0  0  0  0  0  0  0  0
    0.7880   -2.1720    7.4180 N   0  0  0  0  0  0  0  0  0  0  0  0
    1.2010    0.0070    6.5600 N   0  0  0  0  0  0  0  0  0  0  0  0
    2.3640   -0.4120    5.8120 C   0  0  0  0  0  0  0  0  0  0  0  0
    1.9470   -1.1360    4.5380 C   0  0  0  0  0  0  0  0  0  0  0  0
    1.1130   -0.2040    3.6580 C   0  0  0  0  0  0  0  0  0  0  0  0
    0.6880   -0.9030    2.3930 C   0  0  2  0  0  0  0  0  0  0  0  0
    1.8020   -1.3440    1.6080 N   0  0  0  0  0  0  0  0  0  0  0  0
   -0.1760    0.0630    1.6290 C   0  0  0  0  0  0  0  0  0  0  0  0
   -1.2060    0.5560    2.1550 O   0  0  0  0  0  0  0  0  0  0  0  0
   -1.2070   -0.0640    8.3480 H   0  0  0  0  0  0  0  0  0  0  0  0
   -1.7560   -1.0080    6.9560 H   0  0  0  0  0  0  0  0  0  0  0  0
    1.7550   -2.4270    7.1720 H   0  0  0  0  0  0  0  0  0  0  0  0
    0.9340    1.0090    6.6830 H   0  0  0  0  0  0  0  0  0  0  0  0
    2.9500    0.5060    5.5230 H   0  0  0  0  0  0  0  0  0  0  0  0
    3.0230   -1.0220    6.4270 H   0  0  0  0  0  0  0  0  0  0  0  0
    2.8740   -1.3980    4.0120 H   0  0  0  0  0  0  0  0  0  0  0  0
    1.3960   -2.0530    4.7890 H   0  0  0  0  0  0  0  0  0  0  0  0
    0.2470    0.0960    4.2670 H   0  0  0  0  0  0  0  0  0  0  0  0
    1.7010    0.7120    3.4620 H   0  0  0  0  0  0  0  0  0  0  0  0
    0.1130   -1.8050    2.7000 H   0  0  0  0  0  0  0  0  0  0  0  0
    2.4850   -0.5780    1.4160 H   0  0  0  0  0  0  0  0  0  0  0  0
    1.4900   -1.7070    0.6950 H   0  0  0  0  0  0  0  0  0  0  0  0
    0.1220    0.4540    0.3080 N   0  0  0  0  0  0  0  0  0  0  0  0
   -0.7210    1.4060   -0.4590 C   0  0  1  0  0  0  0  0  0  0  0  0
    0.1250    2.4750   -1.0570 C   0  0  0  0  0  0  0  0  0  0  0  0
   -0.6690    3.4650   -1.7850 C   0  0  0  0  0  0  0  0  0  0  0  0
   -1.9140    3.4370   -1.7580 O   0  0  0  0  0  0  0  0  0  0  0  0
   -1.2670    0.5520   -1.5810 C   0  0  0  0  0  0  0  0  0  0  0  0
   -2.0420    1.0290   -2.4390 O   0  0  0  0  0  0  0  0  0  0  0  0
   -0.0830    4.4750   -2.5360 O   0  0  0  0  0  0  0  0  0  0  0  0
    0.9590    0.0820   -0.1760 H   0  0  0  0  0  0  0  0  0  0  0  0
   -1.5580    1.7870    0.1090 H   0  0  0  0  0  0  0  0  0  0  0  0
    0.8430    2.0130   -1.8040 H   0  0  0  0  0  0  0  0  0  0  0  0
    0.7100    3.0420   -0.2890 H   0  0  0  0  0  0  0  0  0  0  0  0
   -0.5130    5.4040   -2.6560 H   0  0  0  0  0  0  0  0  0  0  0  0
   -1.5770   -2.3190   -5.6890 C   0  0  0  0  0  0  0  0  0  0  0  0
   -0.6040   -2.9860   -4.7690 C   0  0  0  0  0  0  0  0  0  0  0  0
   -0.2470   -2.1010   -3.6050 C   0  0  2  0  0  0  0  0  0  0  0  0
    0.7540   -2.8150   -2.7030 C   0  0  0  0  0  0  0  0  0  0  0  0
   -1.4480   -1.6620   -2.7960 C   0  0  2  0  0  0  0  0  0  0  0  0
   -0.9410   -0.8190   -1.7330 N   0  0  0  0  0  0  0  0  0  0  0  0
   -2.1980   -2.8200   -2.2500 C   0  0  0  0  0  0  0  0  0  0  0  0
   -2.3240   -2.9680   -0.9900 O   0  0  0  0  0  0  0  0  0  0  0  0
   -2.7880   -3.7820   -3.0460 O   0  0  0  0  0  0  0  0  0  0  0  0
   -1.5550   -1.2010   -5.5890 H   0  0  0  0  0  0  0  0  0  0  0  0
   -2.6130   -2.6370   -5.5130 H   0  0  0  0  0  0  0  0  0  0  0  0
   -1.3540   -2.5520   -6.7710 H   0  0  0  0  0  0  0  0  0  0  0  0
    0.3550   -3.1530   -5.3280 H   0  0  0  0  0  0  0  0  0  0  0  0
   -0.9550   -3.9850   -4.4770 H   0  0  0  0  0  0  0  0  0  0  0  0
    0.2490   -1.1940   -3.9900 H   0  0  0  0  0  0  0  0  0  0  0  0
    0.2260   -3.1250   -1.7600 H   0  0  0  0  0  0  0  0  0  0  0  0
    1.1380   -3.7090   -3.2280 H   0  0  0  0  0  0  0  0  0  0  0  0
    1.5770   -2.1390   -2.4810 H   0  0  0  0  0  0  0  0  0  0  0  0
   -2.1190   -1.0840   -3.4560 H   0  0  0  0  0  0  0  0  0  0  0  0
   -0.3010   -1.2510   -1.0410 H   0  0  0  0  0  0  0  0  0  0  0  0
  1 12  1  0  0  0  0
  2  3  2  0  0  0  0
  2  1  1  0  0  0  0
  4 15  1  0  0  0  0
  4  2  1  0  0  0  0
  5 17  1  0  0  0  0
  5  4  1  0  0  0  0
  6 19  1  0  0  0  0
  6  5  1  0  0  0  0
  7 20  1  0  0  0  0
  7  6  1  0  0  0  0
  8 22  1  1  0  0  0
  8  7  1  0  0  0  0
  9  8  1  0  0  0  0
 10 11  2  0  0  0  0
 10  8  1  0  0  0  0
 13  1  1  0  0  0  0
 14  3  1  0  0  0  0
 16  5  1  0  0  0  0
 18  6  1  0  0  0  0
 21  7  1  0  0  0  0
 23  9  1  0  0  0  0
 24  9  1  0  0  0  0
 25 10  1  0  0  0  0
 26 34  1  1  0  0  0
 26 25  1  0  0  0  0
 27 26  1  0  0  0  0
 27 36  1  0  0  0  0
 28 29  2  0  0  0  0
 28 27  1  0  0  0  0
 30 26  1  0  0  0  0
 31 30  2  0  0  0  0
 32 28  1  0  0  0  0
 33 25  1  0  0  0  0
 35 27  1  0  0  0  0
 37 32  1  0  0  0  0
 38 47  1  0  0  0  0
 38 48  1  0  0  0  0
 38 39  1  0  0  0  0
 39 51  1  0  0  0  0
 39 40  1  0  0  0  0
 40 52  1  6  0  0  0
 40 42  1  0  0  0  0
 40 41  1  0  0  0  0
 41 55  1  0  0  0  0
 41 53  1  0  0  0  0
 42 56  1  6  0  0  0
 42 44  1  0  0  0  0
 42 43  1  0  0  0  0
 43 30  1  0  0  0  0
 43 57  1  0  0  0  0
 44 45  1  0  0  0  0
 46 44  2  0  0  0  0
 49 38  1  0  0  0  0
 50 39  1  0  0  0  0
 54 41  1  0  0  0  0
M  END
$$$$
