RDP.pdb
 OpenBabel07022418043D

 52 52  0  0  1  0  0  0  0  0999 V2000
    1.3270   -4.2400    4.1420 N   0  0  0  0  0  0  0  0  0  0  0  0
    2.3830   -3.3710    3.7790 C   0  0  0  0  0  0  0  0  0  0  0  0
    3.4700   -3.8730    3.3130 N   0  0  0  0  0  0  0  0  0  0  0  0
    2.2440   -1.9880    3.9250 N   0  0  0  0  0  0  0  0  0  0  0  0
    3.3250   -1.0360    3.7860 C   0  0  0  0  0  0  0  0  0  0  0  0
    2.9200    0.3830    3.7690 C   0  0  0  0  0  0  0  0  0  0  0  0
    2.1780    0.9640    2.6570 C   0  0  0  0  0  0  0  0  0  0  0  0
    0.9160    0.3380    2.2150 C   0  0  2  0  0  0  0  0  0  0  0  0
    1.1910   -0.9780    1.7120 N   0  0  0  0  0  0  0  0  0  0  0  0
    0.1730    1.1210    1.2100 C   0  0  0  0  0  0  0  0  0  0  0  0
   -0.3530    2.2390    1.4700 O   0  0  0  0  0  0  0  0  0  0  0  0
    1.4080   -4.9970    4.8670 H   0  0  0  0  0  0  0  0  0  0  0  0
    0.3740   -4.1560    3.6740 H   0  0  0  0  0  0  0  0  0  0  0  0
    3.5880   -4.9000    3.1970 H   0  0  0  0  0  0  0  0  0  0  0  0
    1.2870   -1.6080    4.2020 H   0  0  0  0  0  0  0  0  0  0  0  0
    3.9760   -1.2200    4.7000 H   0  0  0  0  0  0  0  0  0  0  0  0
    4.0010   -1.3070    2.9440 H   0  0  0  0  0  0  0  0  0  0  0  0
    2.4250    0.5880    4.7770 H   0  0  0  0  0  0  0  0  0  0  0  0
    3.8780    1.0160    3.8920 H   0  0  0  0  0  0  0  0  0  0  0  0
    2.8940    1.1190    1.7890 H   0  0  0  0  0  0  0  0  0  0  0  0
    1.9120    2.0350    2.9600 H   0  0  0  0  0  0  0  0  0  0  0  0
    0.2330    0.2210    3.0990 H   0  0  0  0  0  0  0  0  0  0  0  0
    1.9700   -1.0160    1.0270 H   0  0  0  0  0  0  0  0  0  0  0  0
    0.3750   -1.5360    1.4720 H   0  0  0  0  0  0  0  0  0  0  0  0
    0.0490    0.5850   -0.1140 N   0  0  0  0  0  0  0  0  0  0  0  0
   -0.6260    1.2020   -1.1880 C   0  0  1  0  0  0  0  0  0  0  0  0
    0.3230    1.7040   -2.2730 C   0  0  0  0  0  0  0  0  0  0  0  0
    1.2220    2.7030   -1.6900 C   0  0  0  0  0  0  0  0  0  0  0  0
    0.6750    3.6420   -1.0120 O   0  0  0  0  0  0  0  0  0  0  0  0
   -1.7960    0.5410   -1.7620 C   0  0  0  0  0  0  0  0  0  0  0  0
   -2.3680    1.2420   -2.6970 O   0  0  0  0  0  0  0  0  0  0  0  0
    2.5820    2.7280   -1.8000 O   0  0  0  0  0  0  0  0  0  0  0  0
    0.5230   -0.3260   -0.2860 H   0  0  0  0  0  0  0  0  0  0  0  0
   -1.0310    2.1830   -0.7650 H   0  0  0  0  0  0  0  0  0  0  0  0
    0.7910    0.9220   -2.8630 H   0  0  0  0  0  0  0  0  0  0  0  0
   -0.3550    2.2570   -2.9950 H   0  0  0  0  0  0  0  0  0  0  0  0
    3.1250    3.3590   -1.1990 H   0  0  0  0  0  0  0  0  0  0  0  0
   -2.3910   -0.6980   -1.4800 N   0  0  0  0  0  0  0  0  0  0  0  0
   -2.1000   -1.7660   -0.5630 C   0  0  0  0  0  0  0  0  0  0  0  0
   -2.6360   -3.0350   -1.2390 C   0  0  0  0  0  0  0  0  0  0  0  0
   -3.2150   -2.5650   -2.5540 C   0  0  0  0  0  0  0  0  0  0  0  0
   -3.5890   -1.1460   -2.1980 C   0  0  1  0  0  0  0  0  0  0  0  0
   -4.7820   -1.1770   -1.3390 C   0  0  0  0  0  0  0  0  0  0  0  0
   -4.7630   -0.7550   -0.1580 O   0  0  0  0  0  0  0  0  0  0  0  0
   -6.0110   -1.6830   -1.7960 O   0  0  0  0  0  0  0  0  0  0  0  0
   -1.0270   -1.9600   -0.3900 H   0  0  0  0  0  0  0  0  0  0  0  0
   -2.6500   -1.5740    0.3840 H   0  0  0  0  0  0  0  0  0  0  0  0
   -3.3600   -3.4900   -0.5620 H   0  0  0  0  0  0  0  0  0  0  0  0
   -1.8200   -3.7730   -1.4150 H   0  0  0  0  0  0  0  0  0  0  0  0
   -2.5200   -2.6380   -3.4010 H   0  0  0  0  0  0  0  0  0  0  0  0
   -4.1290   -3.1740   -2.7520 H   0  0  0  0  0  0  0  0  0  0  0  0
   -3.7500   -0.5280   -3.1170 H   0  0  0  0  0  0  0  0  0  0  0  0
  1 12  1  0  0  0  0
  2  4  1  0  0  0  0
  2  1  1  0  0  0  0
  3  2  2  0  0  0  0
  4 15  1  0  0  0  0
  5  4  1  0  0  0  0
  5 16  1  0  0  0  0
  6  5  1  0  0  0  0
  6 19  1  0  0  0  0
  6 18  1  0  0  0  0
  7 21  1  0  0  0  0
  7  6  1  0  0  0  0
  8  7  1  0  0  0  0
  8 22  1  1  0  0  0
  9  8  1  0  0  0  0
 10 11  2  0  0  0  0
 10  8  1  0  0  0  0
 13  1  1  0  0  0  0
 14  3  1  0  0  0  0
 17  5  1  0  0  0  0
 20  7  1  0  0  0  0
 23  9  1  0  0  0  0
 24  9  1  0  0  0  0
 25 10  1  0  0  0  0
 26 34  1  1  0  0  0
 26 25  1  0  0  0  0
 27 28  1  0  0  0  0
 27 26  1  0  0  0  0
 28 29  2  0  0  0  0
 30 38  1  0  0  0  0
 30 26  1  0  0  0  0
 31 30  2  0  0  0  0
 32 28  1  0  0  0  0
 32 37  1  0  0  0  0
 33 25  1  0  0  0  0
 35 27  1  0  0  0  0
 36 27  1  0  0  0  0
 38 39  1  0  0  0  0
 39 46  1  0  0  0  0
 39 47  1  0  0  0  0
 40 39  1  0  0  0  0
 40 48  1  0  0  0  0
 41 42  1  0  0  0  0
 41 40  1  0  0  0  0
 42 52  1  6  0  0  0
 42 38  1  0  0  0  0
 42 43  1  0  0  0  0
 43 44  1  0  0  0  0
 45 43  2  0  0  0  0
 49 40  1  0  0  0  0
 50 41  1  0  0  0  0
 51 41  1  0  0  0  0
M  END
$$$$
