RDR.pdb
 OpenBabel07022418043D

 61 60  0  0  1  0  0  0  0  0999 V2000
    1.1100   -2.5100    3.2860 N   0  0  0  0  0  0  0  0  0  0  0  0
    2.2530   -1.7210    3.5120 C   0  0  0  0  0  0  0  0  0  0  0  0
    2.3130   -0.8840    4.5120 N   0  0  0  0  0  0  0  0  0  0  0  0
    3.4030   -1.7910    2.6630 N   0  0  0  0  0  0  0  0  0  0  0  0
    4.2530   -0.6350    2.6030 C   0  0  0  0  0  0  0  0  0  0  0  0
    3.5930    0.5350    1.9220 C   0  0  0  0  0  0  0  0  0  0  0  0
    3.2360    0.2070    0.4790 C   0  0  0  0  0  0  0  0  0  0  0  0
    2.5890    1.4130   -0.1860 C   0  0  2  0  0  0  0  0  0  0  0  0
    3.5440    2.5350   -0.1180 N   0  0  0  0  0  0  0  0  0  0  0  0
    1.2990    1.7920    0.3910 C   0  0  0  0  0  0  0  0  0  0  0  0
    1.2430    2.7190    1.2190 O   0  0  0  0  0  0  0  0  0  0  0  0
    0.6420   -2.4960    2.3720 H   0  0  0  0  0  0  0  0  0  0  0  0
    0.7500   -3.1050    4.0630 H   0  0  0  0  0  0  0  0  0  0  0  0
    1.5060   -0.7910    5.1600 H   0  0  0  0  0  0  0  0  0  0  0  0
    3.5920   -2.6490    2.1270 H   0  0  0  0  0  0  0  0  0  0  0  0
    5.2170   -0.9040    2.1170 H   0  0  0  0  0  0  0  0  0  0  0  0
    4.5310   -0.3130    3.6350 H   0  0  0  0  0  0  0  0  0  0  0  0
    4.2940    1.3940    1.9780 H   0  0  0  0  0  0  0  0  0  0  0  0
    2.7020    0.8230    2.5090 H   0  0  0  0  0  0  0  0  0  0  0  0
    2.5810   -0.6700    0.4880 H   0  0  0  0  0  0  0  0  0  0  0  0
    4.1770   -0.0660   -0.0300 H   0  0  0  0  0  0  0  0  0  0  0  0
    2.4800    1.1520   -1.2610 H   0  0  0  0  0  0  0  0  0  0  0  0
    3.5180    2.9580    0.8350 H   0  0  0  0  0  0  0  0  0  0  0  0
    3.3290    3.2360   -0.8630 H   0  0  0  0  0  0  0  0  0  0  0  0
    0.0930    1.1520    0.0460 N   0  0  0  0  0  0  0  0  0  0  0  0
   -1.1880    1.4200    0.5200 C   0  0  1  0  0  0  0  0  0  0  0  0
   -2.0360    2.4120   -0.2030 C   0  0  0  0  0  0  0  0  0  0  0  0
   -2.2780    2.0550   -1.6200 C   0  0  0  0  0  0  0  0  0  0  0  0
   -1.7680    1.0630   -2.1710 O   0  0  0  0  0  0  0  0  0  0  0  0
   -1.9590    0.2520    0.8680 C   0  0  0  0  0  0  0  0  0  0  0  0
   -3.1590    0.4290    1.2540 O   0  0  0  0  0  0  0  0  0  0  0  0
   -3.1170    2.8330   -2.4420 O   0  0  0  0  0  0  0  0  0  0  0  0
    0.1820    0.3670   -0.6680 H   0  0  0  0  0  0  0  0  0  0  0  0
   -1.0000    1.9610    1.5420 H   0  0  0  0  0  0  0  0  0  0  0  0
   -1.7290    3.4670   -0.0650 H   0  0  0  0  0  0  0  0  0  0  0  0
   -3.0430    2.3630    0.3020 H   0  0  0  0  0  0  0  0  0  0  0  0
   -3.2670    2.5840   -3.4110 H   0  0  0  0  0  0  0  0  0  0  0  0
   -2.4290   -1.2680   -3.9900 N   0  0  0  0  0  0  0  0  0  0  0  0
   -2.5250   -2.0360   -2.8080 C   0  0  0  0  0  0  0  0  0  0  0  0
   -3.6540   -2.5700   -2.4490 N   0  0  0  0  0  0  0  0  0  0  0  0
   -1.3470   -2.2280   -1.9930 N   0  0  0  0  0  0  0  0  0  0  0  0
   -1.1170   -3.5200   -1.4500 C   0  0  0  0  0  0  0  0  0  0  0  0
   -2.0120   -4.0380   -0.4150 C   0  0  0  0  0  0  0  0  0  0  0  0
   -2.0950   -3.5140    0.9350 C   0  0  0  0  0  0  0  0  0  0  0  0
   -2.4010   -2.1410    1.2460 C   0  0  2  0  0  0  0  0  0  0  0  0
   -1.4980   -1.0960    0.8280 N   0  0  0  0  0  0  0  0  0  0  0  0
   -2.5300   -2.0380    2.7820 C   0  0  0  0  0  0  0  0  0  0  0  0
   -1.8960   -1.1420    3.3360 O   0  0  0  0  0  0  0  0  0  0  0  0
   -3.3190   -2.9140    3.4680 O   0  0  0  0  0  0  0  0  0  0  0  0
   -1.7980   -1.4770   -4.7840 H   0  0  0  0  0  0  0  0  0  0  0  0
   -3.0310   -0.4050   -4.1180 H   0  0  0  0  0  0  0  0  0  0  0  0
   -4.4850   -2.4200   -3.0510 H   0  0  0  0  0  0  0  0  0  0  0  0
   -0.7050   -1.4420   -1.8380 H   0  0  0  0  0  0  0  0  0  0  0  0
   -0.9100   -4.2750   -2.2700 H   0  0  0  0  0  0  0  0  0  0  0  0
   -0.0750   -3.4600   -0.9640 H   0  0  0  0  0  0  0  0  0  0  0  0
   -3.0810   -4.1690   -0.8140 H   0  0  0  0  0  0  0  0  0  0  0  0
   -1.7180   -5.1570   -0.2960 H   0  0  0  0  0  0  0  0  0  0  0  0
   -1.1240   -3.7820    1.5060 H   0  0  0  0  0  0  0  0  0  0  0  0
   -2.8340   -4.1870    1.5630 H   0  0  0  0  0  0  0  0  0  0  0  0
   -3.4350   -1.7720    0.9380 H   0  0  0  0  0  0  0  0  0  0  0  0
   -0.5290   -1.2750    0.5080 H   0  0  0  0  0  0  0  0  0  0  0  0
  1  2  1  0  0  0  0
  1 13  1  0  0  0  0
  2  3  2  0  0  0  0
  3 14  1  0  0  0  0
  4  2  1  0  0  0  0
  5  4  1  0  0  0  0
  5 17  1  0  0  0  0
  6 18  1  0  0  0  0
  6 19  1  0  0  0  0
  6  5  1  0  0  0  0
  7 20  1  0  0  0  0
  7  6  1  0  0  0  0
  8 22  1  6  0  0  0
  8  9  1  0  0  0  0
  8 10  1  0  0  0  0
  8  7  1  0  0  0  0
  9 23  1  0  0  0  0
 10 11  2  0  0  0  0
 12  1  1  0  0  0  0
 15  4  1  0  0  0  0
 16  5  1  0  0  0  0
 21  7  1  0  0  0  0
 24  9  1  0  0  0  0
 25 10  1  0  0  0  0
 25 26  1  0  0  0  0
 26 30  1  0  0  0  0
 26 34  1  1  0  0  0
 27 35  1  0  0  0  0
 27 36  1  0  0  0  0
 27 26  1  0  0  0  0
 28 27  1  0  0  0  0
 29 28  2  0  0  0  0
 30 31  2  0  0  0  0
 32 28  1  0  0  0  0
 33 25  1  0  0  0  0
 37 32  1  0  0  0  0
 38 39  1  0  0  0  0
 39 40  2  0  0  0  0
 39 41  1  0  0  0  0
 41 53  1  0  0  0  0
 41 42  1  0  0  0  0
 42 55  1  0  0  0  0
 42 43  1  0  0  0  0
 43 57  1  0  0  0  0
 43 44  1  0  0  0  0
 44 45  1  0  0  0  0
 44 58  1  0  0  0  0
 44 59  1  0  0  0  0
 45 60  1  6  0  0  0
 45 47  1  0  0  0  0
 46 30  1  0  0  0  0
 46 45  1  0  0  0  0
 47 48  2  0  0  0  0
 47 49  1  0  0  0  0
 50 38  1  0  0  0  0
 51 38  1  0  0  0  0
 52 40  1  0  0  0  0
 54 42  1  0  0  0  0
 56 43  1  0  0  0  0
 61 46  1  0  0  0  0
M  END
$$$$
