RDT.pdb
 OpenBabel07022418043D

 52 51  0  0  1  0  0  0  0  0999 V2000
    3.0010   -4.4510    6.4790 N   0  0  0  0  0  0  0  0  0  0  0  0
    2.1280   -3.5910    5.7480 C   0  0  0  0  0  0  0  0  0  0  0  0
    0.9230   -3.6030    5.9220 N   0  0  0  0  0  0  0  0  0  0  0  0
    2.6920   -2.6940    4.7620 N   0  0  0  0  0  0  0  0  0  0  0  0
    1.8830   -1.7970    3.9590 C   0  0  0  0  0  0  0  0  0  0  0  0
    2.8200   -1.1310    2.9940 C   0  0  0  0  0  0  0  0  0  0  0  0
    2.1380   -0.1650    2.0500 C   0  0  0  0  0  0  0  0  0  0  0  0
    1.0720   -0.9040    1.2450 C   0  0  2  0  0  0  0  0  0  0  0  0
    1.8170   -1.9660    0.5470 N   0  0  0  0  0  0  0  0  0  0  0  0
    0.5930    0.0020    0.1940 C   0  0  0  0  0  0  0  0  0  0  0  0
    0.7560   -0.2760   -1.0190 O   0  0  0  0  0  0  0  0  0  0  0  0
    4.0070   -4.2270    6.5960 H   0  0  0  0  0  0  0  0  0  0  0  0
    2.6240   -5.3120    6.9010 H   0  0  0  0  0  0  0  0  0  0  0  0
    0.0150   -3.6220    6.0630 H   0  0  0  0  0  0  0  0  0  0  0  0
    3.7470   -2.7430    4.6730 H   0  0  0  0  0  0  0  0  0  0  0  0
    1.4400   -1.0470    4.6680 H   0  0  0  0  0  0  0  0  0  0  0  0
    1.0940   -2.4050    3.4790 H   0  0  0  0  0  0  0  0  0  0  0  0
    3.5700   -0.5670    3.5920 H   0  0  0  0  0  0  0  0  0  0  0  0
    3.3640   -1.9230    2.4450 H   0  0  0  0  0  0  0  0  0  0  0  0
    2.9010    0.1700    1.3210 H   0  0  0  0  0  0  0  0  0  0  0  0
    1.7510    0.7080    2.5890 H   0  0  0  0  0  0  0  0  0  0  0  0
    0.3140   -1.2860    1.9230 H   0  0  0  0  0  0  0  0  0  0  0  0
    1.3770   -2.2270   -0.3360 H   0  0  0  0  0  0  0  0  0  0  0  0
    2.8020   -1.6550    0.3560 H   0  0  0  0  0  0  0  0  0  0  0  0
   -0.0810    1.2550    0.4630 N   0  0  0  0  0  0  0  0  0  0  0  0
   -0.5270    2.0950   -0.6130 C   0  0  1  0  0  0  0  0  0  0  0  0
    0.4500    3.0650   -1.1490 C   0  0  0  0  0  0  0  0  0  0  0  0
   -0.0850    3.8860   -2.2410 C   0  0  0  0  0  0  0  0  0  0  0  0
    0.2630    3.5840   -3.4460 O   0  0  0  0  0  0  0  0  0  0  0  0
   -1.2470    1.3030   -1.6680 C   0  0  0  0  0  0  0  0  0  0  0  0
   -1.3670    1.6670   -2.8550 O   0  0  0  0  0  0  0  0  0  0  0  0
   -0.9250    4.9620   -2.1530 O   0  0  0  0  0  0  0  0  0  0  0  0
   -0.2080    1.4820    1.4700 H   0  0  0  0  0  0  0  0  0  0  0  0
   -1.4060    2.6780   -0.1530 H   0  0  0  0  0  0  0  0  0  0  0  0
    0.9110    3.7080   -0.3370 H   0  0  0  0  0  0  0  0  0  0  0  0
    1.3520    2.5090   -1.5680 H   0  0  0  0  0  0  0  0  0  0  0  0
   -1.6470    5.0920   -2.8890 H   0  0  0  0  0  0  0  0  0  0  0  0
   -2.9110   -2.5410   -0.7600 C   0  0  0  0  0  0  0  0  0  0  0  0
   -2.2480   -2.1810   -2.1100 C   0  0  1  0  0  0  0  0  0  0  0  0
   -2.8400   -2.9970   -3.0820 O   0  0  0  0  0  0  0  0  0  0  0  0
   -2.5320   -0.7120   -2.3820 C   0  0  2  0  0  0  0  0  0  0  0  0
   -1.8570    0.0440   -1.3360 N   0  0  0  0  0  0  0  0  0  0  0  0
   -4.0090   -0.5270   -2.2990 C   0  0  0  0  0  0  0  0  0  0  0  0
   -4.4710    0.1900   -1.3860 O   0  0  0  0  0  0  0  0  0  0  0  0
   -4.8520   -1.1260   -3.2010 O   0  0  0  0  0  0  0  0  0  0  0  0
   -2.2340   -2.2620    0.0630 H   0  0  0  0  0  0  0  0  0  0  0  0
   -3.8900   -1.9720   -0.7320 H   0  0  0  0  0  0  0  0  0  0  0  0
   -3.1340   -3.6270   -0.7950 H   0  0  0  0  0  0  0  0  0  0  0  0
   -1.1960   -2.3980   -2.0190 H   0  0  0  0  0  0  0  0  0  0  0  0
   -2.6750   -3.9340   -2.7700 H   0  0  0  0  0  0  0  0  0  0  0  0
   -2.2320   -0.4250   -3.3900 H   0  0  0  0  0  0  0  0  0  0  0  0
   -1.8340   -0.3160   -0.3730 H   0  0  0  0  0  0  0  0  0  0  0  0
  1 12  1  0  0  0  0
  1 13  1  0  0  0  0
  2  3  2  0  0  0  0
  2  1  1  0  0  0  0
  3 14  1  0  0  0  0
  4  2  1  0  0  0  0
  5 16  1  0  0  0  0
  5  4  1  0  0  0  0
  6 18  1  0  0  0  0
  6  5  1  0  0  0  0
  7 21  1  0  0  0  0
  7  6  1  0  0  0  0
  8 22  1  1  0  0  0
  8  7  1  0  0  0  0
  9  8  1  0  0  0  0
 10 25  1  0  0  0  0
 10  8  1  0  0  0  0
 11 10  2  0  0  0  0
 15  4  1  0  0  0  0
 17  5  1  0  0  0  0
 19  6  1  0  0  0  0
 20  7  1  0  0  0  0
 23  9  1  0  0  0  0
 24  9  1  0  0  0  0
 25 33  1  0  0  0  0
 26 34  1  1  0  0  0
 26 25  1  0  0  0  0
 27 26  1  0  0  0  0
 27 35  1  0  0  0  0
 28 32  1  0  0  0  0
 28 27  1  0  0  0  0
 29 28  2  0  0  0  0
 30 42  1  0  0  0  0
 30 26  1  0  0  0  0
 31 30  2  0  0  0  0
 36 27  1  0  0  0  0
 37 32  1  0  0  0  0
 38 47  1  0  0  0  0
 38 46  1  0  0  0  0
 39 49  1  1  0  0  0
 39 38  1  0  0  0  0
 40 50  1  0  0  0  0
 40 39  1  0  0  0  0
 41 51  1  6  0  0  0
 41 43  1  0  0  0  0
 41 39  1  0  0  0  0
 41 42  1  0  0  0  0
 42 52  1  0  0  0  0
 43 44  1  0  0  0  0
 45 43  2  0  0  0  0
 48 38  1  0  0  0  0
M  END
$$$$
