RDV.pdb
 OpenBabel07022418043D

 54 53  0  0  1  0  0  0  0  0999 V2000
    7.8050   -0.8780    1.6090 N   0  0  0  0  0  0  0  0  0  0  0  0
    6.5250   -0.7910    1.0460 C   0  0  0  0  0  0  0  0  0  0  0  0
    5.8880   -1.8860    0.7350 N   0  0  0  0  0  0  0  0  0  0  0  0
    5.8510    0.4190    0.7700 N   0  0  0  0  0  0  0  0  0  0  0  0
    4.3910    0.5010    0.5870 C   0  0  0  0  0  0  0  0  0  0  0  0
    3.7290    0.2380    1.8930 C   0  0  0  0  0  0  0  0  0  0  0  0
    2.2540    0.3060    1.9310 C   0  0  0  0  0  0  0  0  0  0  0  0
    1.4980   -0.6560    1.0680 C   0  0  2  0  0  0  0  0  0  0  0  0
    1.8830   -0.4400   -0.3150 N   0  0  0  0  0  0  0  0  0  0  0  0
    0.0210   -0.3300    1.1160 C   0  0  0  0  0  0  0  0  0  0  0  0
   -0.5240    0.1830    0.1190 O   0  0  0  0  0  0  0  0  0  0  0  0
    8.3580   -0.0290    1.8050 H   0  0  0  0  0  0  0  0  0  0  0  0
    8.2190   -1.8050    1.8370 H   0  0  0  0  0  0  0  0  0  0  0  0
    6.2810   -2.8260    0.8850 H   0  0  0  0  0  0  0  0  0  0  0  0
    6.4500    1.2800    0.6980 H   0  0  0  0  0  0  0  0  0  0  0  0
    4.1900    1.4970    0.1510 H   0  0  0  0  0  0  0  0  0  0  0  0
    4.1740   -0.2630   -0.1930 H   0  0  0  0  0  0  0  0  0  0  0  0
    4.1350   -0.7320    2.3010 H   0  0  0  0  0  0  0  0  0  0  0  0
    4.1090    1.0230    2.6110 H   0  0  0  0  0  0  0  0  0  0  0  0
    1.9200    1.3680    1.8040 H   0  0  0  0  0  0  0  0  0  0  0  0
    1.9470    0.0570    2.9930 H   0  0  0  0  0  0  0  0  0  0  0  0
    1.6850   -1.6700    1.4260 H   0  0  0  0  0  0  0  0  0  0  0  0
    1.6930   -1.2970   -0.8930 H   0  0  0  0  0  0  0  0  0  0  0  0
    1.3090    0.3220   -0.7380 H   0  0  0  0  0  0  0  0  0  0  0  0
   -0.7800   -0.5850    2.2560 N   0  0  0  0  0  0  0  0  0  0  0  0
   -2.1700   -0.3380    2.4190 C   0  0  1  0  0  0  0  0  0  0  0  0
   -2.5320    1.0800    2.7990 C   0  0  0  0  0  0  0  0  0  0  0  0
   -2.1110    2.1010    1.8480 C   0  0  0  0  0  0  0  0  0  0  0  0
   -1.1300    2.8480    2.1790 O   0  0  0  0  0  0  0  0  0  0  0  0
   -3.0770   -0.8760    1.3920 C   0  0  0  0  0  0  0  0  0  0  0  0
   -4.3110   -0.5090    1.4530 O   0  0  0  0  0  0  0  0  0  0  0  0
   -2.6940    2.3100    0.6280 O   0  0  0  0  0  0  0  0  0  0  0  0
   -0.2420   -1.0100    3.0690 H   0  0  0  0  0  0  0  0  0  0  0  0
   -2.4240   -0.9140    3.4090 H   0  0  0  0  0  0  0  0  0  0  0  0
   -3.6430    1.0860    2.9540 H   0  0  0  0  0  0  0  0  0  0  0  0
   -2.1260    1.2610    3.8340 H   0  0  0  0  0  0  0  0  0  0  0  0
   -2.2500    2.9380   -0.0420 H   0  0  0  0  0  0  0  0  0  0  0  0
   -4.7090   -2.1880   -2.9010 C   0  0  0  0  0  0  0  0  0  0  0  0
   -3.5910   -1.6880   -2.0080 C   0  0  0  0  0  0  0  0  0  0  0  0
   -3.6370   -0.1760   -2.0320 C   0  0  0  0  0  0  0  0  0  0  0  0
   -3.8060   -2.2010   -0.6130 C   0  0  2  0  0  0  0  0  0  0  0  0
   -2.7820   -1.7580    0.3320 N   0  0  0  0  0  0  0  0  0  0  0  0
   -3.9320   -3.6610   -0.6200 C   0  0  0  0  0  0  0  0  0  0  0  0
   -4.7930   -4.2060   -1.3420 O   0  0  0  0  0  0  0  0  0  0  0  0
   -3.1370   -4.5160    0.1420 O   0  0  0  0  0  0  0  0  0  0  0  0
   -4.9610   -1.3780   -3.6520 H   0  0  0  0  0  0  0  0  0  0  0  0
   -4.4340   -3.0960   -3.4450 H   0  0  0  0  0  0  0  0  0  0  0  0
   -5.6710   -2.3390   -2.3560 H   0  0  0  0  0  0  0  0  0  0  0  0
   -2.6150   -2.0900   -2.3590 H   0  0  0  0  0  0  0  0  0  0  0  0
   -2.8630    0.1970   -1.3140 H   0  0  0  0  0  0  0  0  0  0  0  0
   -4.6600    0.1170   -1.7300 H   0  0  0  0  0  0  0  0  0  0  0  0
   -3.4540    0.2540   -3.0370 H   0  0  0  0  0  0  0  0  0  0  0  0
   -4.7760   -1.7680   -0.2780 H   0  0  0  0  0  0  0  0  0  0  0  0
   -1.8080   -2.1100    0.2410 H   0  0  0  0  0  0  0  0  0  0  0  0
  1 12  1  0  0  0  0
  1 13  1  0  0  0  0
  2  1  1  0  0  0  0
  3 14  1  0  0  0  0
  3  2  2  0  0  0  0
  4  2  1  0  0  0  0
  5  4  1  0  0  0  0
  5  6  1  0  0  0  0
  6  7  1  0  0  0  0
  6 18  1  0  0  0  0
  6 19  1  0  0  0  0
  7 21  1  0  0  0  0
  8 10  1  0  0  0  0
  8 22  1  1  0  0  0
  8  7  1  0  0  0  0
  9  8  1  0  0  0  0
 10 25  1  0  0  0  0
 11 10  2  0  0  0  0
 15  4  1  0  0  0  0
 16  5  1  0  0  0  0
 17  5  1  0  0  0  0
 20  7  1  0  0  0  0
 23  9  1  0  0  0  0
 24  9  1  0  0  0  0
 25 26  1  0  0  0  0
 25 33  1  0  0  0  0
 26 27  1  0  0  0  0
 26 34  1  1  0  0  0
 27 35  1  0  0  0  0
 27 36  1  0  0  0  0
 28 29  2  0  0  0  0
 28 27  1  0  0  0  0
 30 31  2  0  0  0  0
 30 26  1  0  0  0  0
 32 28  1  0  0  0  0
 37 32  1  0  0  0  0
 38 48  1  0  0  0  0
 38 39  1  0  0  0  0
 39 41  1  0  0  0  0
 40 39  1  0  0  0  0
 40 51  1  0  0  0  0
 40 50  1  0  0  0  0
 41 53  1  1  0  0  0
 41 42  1  0  0  0  0
 42 30  1  0  0  0  0
 43 41  1  0  0  0  0
 43 45  1  0  0  0  0
 44 43  2  0  0  0  0
 46 38  1  0  0  0  0
 47 38  1  0  0  0  0
 49 39  1  0  0  0  0
 52 40  1  0  0  0  0
 54 42  1  0  0  0  0
M  END
$$$$
