RDY.pdb
 OpenBabel07022418043D

 59 59  0  0  1  0  0  0  0  0999 V2000
    3.7860   -0.0100    5.9380 N   0  0  0  0  0  0  0  0  0  0  0  0
    4.8410    0.0820    5.0040 C   0  0  0  0  0  0  0  0  0  0  0  0
    5.7810    0.9290    5.2010 N   0  0  0  0  0  0  0  0  0  0  0  0
    4.8920   -0.7350    3.8480 N   0  0  0  0  0  0  0  0  0  0  0  0
    5.6070   -0.3230    2.6440 C   0  0  0  0  0  0  0  0  0  0  0  0
    4.8830    0.8500    2.0110 C   0  0  0  0  0  0  0  0  0  0  0  0
    3.4730    0.4240    1.6380 C   0  0  0  0  0  0  0  0  0  0  0  0
    2.7540    1.5840    1.0180 C   0  0  2  0  0  0  0  0  0  0  0  0
    2.7200    2.6560    2.0120 N   0  0  0  0  0  0  0  0  0  0  0  0
    1.4240    1.2810    0.5100 C   0  0  0  0  0  0  0  0  0  0  0  0
    0.4430    1.9010    1.0150 O   0  0  0  0  0  0  0  0  0  0  0  0
    3.2870   -0.8940    6.1730 H   0  0  0  0  0  0  0  0  0  0  0  0
    3.4510    0.8510    6.4550 H   0  0  0  0  0  0  0  0  0  0  0  0
    5.7740    1.5430    6.0350 H   0  0  0  0  0  0  0  0  0  0  0  0
    4.4120   -1.6510    3.8480 H   0  0  0  0  0  0  0  0  0  0  0  0
    5.6310   -1.1360    1.8950 H   0  0  0  0  0  0  0  0  0  0  0  0
    6.6330   -0.0490    2.9240 H   0  0  0  0  0  0  0  0  0  0  0  0
    4.8660    1.7220    2.7210 H   0  0  0  0  0  0  0  0  0  0  0  0
    5.4680    1.1950    1.1380 H   0  0  0  0  0  0  0  0  0  0  0  0
    3.5950   -0.4030    0.8970 H   0  0  0  0  0  0  0  0  0  0  0  0
    2.9960   -0.0000    2.5190 H   0  0  0  0  0  0  0  0  0  0  0  0
    3.3770    1.9590    0.1790 H   0  0  0  0  0  0  0  0  0  0  0  0
    2.6380    3.5840    1.5620 H   0  0  0  0  0  0  0  0  0  0  0  0
    1.9270    2.4650    2.6820 H   0  0  0  0  0  0  0  0  0  0  0  0
    1.1200    0.3440   -0.5120 N   0  0  0  0  0  0  0  0  0  0  0  0
   -0.2520    0.1350   -0.9280 C   0  0  1  0  0  0  0  0  0  0  0  0
   -0.4650    0.5390   -2.3730 C   0  0  0  0  0  0  0  0  0  0  0  0
    0.3670   -0.2130   -3.3220 C   0  0  0  0  0  0  0  0  0  0  0  0
    1.1440   -1.0980   -2.8990 O   0  0  0  0  0  0  0  0  0  0  0  0
   -0.5500   -1.3130   -0.8290 C   0  0  0  0  0  0  0  0  0  0  0  0
    0.3400   -2.1210   -0.4370 O   0  0  0  0  0  0  0  0  0  0  0  0
    0.2660    0.0820   -4.6710 O   0  0  0  0  0  0  0  0  0  0  0  0
    1.9330   -0.1630   -0.9230 H   0  0  0  0  0  0  0  0  0  0  0  0
   -0.9200    0.7360   -0.2820 H   0  0  0  0  0  0  0  0  0  0  0  0
   -0.2980    1.6320   -2.4140 H   0  0  0  0  0  0  0  0  0  0  0  0
   -1.5240    0.3700   -2.6410 H   0  0  0  0  0  0  0  0  0  0  0  0
    0.5750   -0.5780   -5.3810 H   0  0  0  0  0  0  0  0  0  0  0  0
   -8.0620   -1.0800   -0.5660 O   0  0  0  0  0  0  0  0  0  0  0  0
   -6.8180   -1.6800   -0.4060 C   0  0  0  0  0  0  0  0  0  0  0  0
   -6.6310   -2.9200   -0.9830 C   0  0  0  0  0  0  0  0  0  0  0  0
   -5.4090   -3.5470   -0.8460 C   0  0  0  0  0  0  0  0  0  0  0  0
   -4.4080   -2.9520   -0.1540 C   0  0  0  0  0  0  0  0  0  0  0  0
   -3.0920   -3.5820    0.0190 C   0  0  0  0  0  0  0  0  0  0  0  0
   -2.0940   -3.2430   -1.0640 C   0  0  2  0  0  0  0  0  0  0  0  0
   -1.8270   -1.8480   -1.1640 N   0  0  0  0  0  0  0  0  0  0  0  0
   -2.5110   -3.8660   -2.3250 C   0  0  0  0  0  0  0  0  0  0  0  0
   -2.7780   -5.0940   -2.3700 O   0  0  0  0  0  0  0  0  0  0  0  0
   -4.5860   -1.6950    0.4350 C   0  0  0  0  0  0  0  0  0  0  0  0
   -5.8010   -1.0590    0.3050 C   0  0  0  0  0  0  0  0  0  0  0  0
   -2.6390   -3.1630   -3.5310 O   0  0  0  0  0  0  0  0  0  0  0  0
   -8.3230   -0.3460    0.1030 H   0  0  0  0  0  0  0  0  0  0  0  0
   -7.4140   -3.4120   -1.5390 H   0  0  0  0  0  0  0  0  0  0  0  0
   -5.2780   -4.5060   -1.2980 H   0  0  0  0  0  0  0  0  0  0  0  0
   -2.7120   -3.3180    1.0250 H   0  0  0  0  0  0  0  0  0  0  0  0
   -3.1850   -4.6980    0.0160 H   0  0  0  0  0  0  0  0  0  0  0  0
   -1.1420   -3.7510   -0.7330 H   0  0  0  0  0  0  0  0  0  0  0  0
   -2.5380   -1.1310   -1.4850 H   0  0  0  0  0  0  0  0  0  0  0  0
   -3.7770   -1.2220    0.9880 H   0  0  0  0  0  0  0  0  0  0  0  0
   -6.0000   -0.0850    0.7360 H   0  0  0  0  0  0  0  0  0  0  0  0
  1 12  1  0  0  0  0
  1 13  1  0  0  0  0
  2  3  2  0  0  0  0
  2  1  1  0  0  0  0
  3 14  1  0  0  0  0
  4  2  1  0  0  0  0
  5 17  1  0  0  0  0
  5  4  1  0  0  0  0
  6  5  1  0  0  0  0
  6 18  1  0  0  0  0
  7  6  1  0  0  0  0
  7 21  1  0  0  0  0
  8 22  1  6  0  0  0
  8  7  1  0  0  0  0
  8  9  1  0  0  0  0
  9 24  1  0  0  0  0
 10 11  2  0  0  0  0
 10  8  1  0  0  0  0
 15  4  1  0  0  0  0
 16  5  1  0  0  0  0
 19  6  1  0  0  0  0
 20  7  1  0  0  0  0
 23  9  1  0  0  0  0
 25 10  1  0  0  0  0
 26 30  1  0  0  0  0
 26 25  1  0  0  0  0
 26 34  1  1  0  0  0
 27 26  1  0  0  0  0
 28 29  2  0  0  0  0
 28 27  1  0  0  0  0
 30 31  2  0  0  0  0
 32 28  1  0  0  0  0
 33 25  1  0  0  0  0
 35 27  1  0  0  0  0
 36 27  1  0  0  0  0
 37 32  1  0  0  0  0
 38 39  1  0  0  0  0
 38 51  1  0  0  0  0
 39 49  1  0  0  0  0
 40 41  1  0  0  0  0
 40 39  2  0  0  0  0
 41 42  2  0  0  0  0
 42 43  1  0  0  0  0
 42 48  1  0  0  0  0
 43 54  1  0  0  0  0
 44 56  1  1  0  0  0
 44 43  1  0  0  0  0
 45 44  1  0  0  0  0
 45 30  1  0  0  0  0
 46 44  1  0  0  0  0
 47 46  1  0  0  0  0
 48 58  1  0  0  0  0
 49 48  2  0  0  0  0
 49 59  1  0  0  0  0
 50 46  2  0  0  0  0
 52 40  1  0  0  0  0
 53 41  1  0  0  0  0
 55 43  1  0  0  0  0
 57 45  1  0  0  0  0
M  END
$$$$
