REC.pdb
 OpenBabel07022418043D

 52 51  0  0  1  0  0  0  0  0999 V2000
    3.6460    1.9870    5.7190 N   0  0  0  0  0  0  0  0  0  0  0  0
    3.4990    1.7900    4.3260 C   0  0  0  0  0  0  0  0  0  0  0  0
    2.8830    2.6460    3.5990 N   0  0  0  0  0  0  0  0  0  0  0  0
    4.0440    0.6260    3.7380 N   0  0  0  0  0  0  0  0  0  0  0  0
    4.1870    0.4320    2.3170 C   0  0  0  0  0  0  0  0  0  0  0  0
    2.8530    0.2890    1.6040 C   0  0  0  0  0  0  0  0  0  0  0  0
    3.1200    0.0860    0.1320 C   0  0  0  0  0  0  0  0  0  0  0  0
    1.8660   -0.0700   -0.6880 C   0  0  2  0  0  0  0  0  0  0  0  0
    1.0700    1.1270   -0.5480 N   0  0  0  0  0  0  0  0  0  0  0  0
    1.0900   -1.2890   -0.3610 C   0  0  0  0  0  0  0  0  0  0  0  0
    1.7220   -2.3780   -0.3810 O   0  0  0  0  0  0  0  0  0  0  0  0
    4.5040    2.4200    6.1140 H   0  0  0  0  0  0  0  0  0  0  0  0
    2.9060    1.7090    6.4050 H   0  0  0  0  0  0  0  0  0  0  0  0
    2.4910    3.4930    4.0510 H   0  0  0  0  0  0  0  0  0  0  0  0
    4.3600   -0.1340    4.3790 H   0  0  0  0  0  0  0  0  0  0  0  0
    4.7930   -0.4690    2.1200 H   0  0  0  0  0  0  0  0  0  0  0  0
    4.7410    1.3220    1.9070 H   0  0  0  0  0  0  0  0  0  0  0  0
    2.3270   -0.6220    1.9550 H   0  0  0  0  0  0  0  0  0  0  0  0
    2.2770    1.1930    1.8180 H   0  0  0  0  0  0  0  0  0  0  0  0
    3.7880   -0.7940    0.0170 H   0  0  0  0  0  0  0  0  0  0  0  0
    3.6790    0.9490   -0.3070 H   0  0  0  0  0  0  0  0  0  0  0  0
    2.2020   -0.0800   -1.7570 H   0  0  0  0  0  0  0  0  0  0  0  0
    1.6130    1.9390   -0.9120 H   0  0  0  0  0  0  0  0  0  0  0  0
    0.7900    1.3050    0.4390 H   0  0  0  0  0  0  0  0  0  0  0  0
   -0.2750   -1.3290   -0.0360 N   0  0  0  0  0  0  0  0  0  0  0  0
   -1.0210   -2.5090    0.2770 C   0  0  1  0  0  0  0  0  0  0  0  0
   -1.2940   -2.7800    1.6890 C   0  0  0  0  0  0  0  0  0  0  0  0
   -2.0390   -1.8470    2.5350 C   0  0  0  0  0  0  0  0  0  0  0  0
   -1.4430   -0.5280    2.8020 C   0  0  0  0  0  0  0  0  0  0  0  0
   -0.3110   -0.1310    2.4960 O   0  0  0  0  0  0  0  0  0  0  0  0
   -2.1790   -2.7080   -0.6350 C   0  0  0  0  0  0  0  0  0  0  0  0
   -2.9550   -3.6770   -0.4800 O   0  0  0  0  0  0  0  0  0  0  0  0
   -2.2760    0.3790    3.4900 O   0  0  0  0  0  0  0  0  0  0  0  0
   -0.7950   -0.4040   -0.0530 H   0  0  0  0  0  0  0  0  0  0  0  0
   -0.2990   -3.3590   -0.0230 H   0  0  0  0  0  0  0  0  0  0  0  0
   -1.7690   -3.8110    1.7970 H   0  0  0  0  0  0  0  0  0  0  0  0
   -0.2820   -2.9520    2.1900 H   0  0  0  0  0  0  0  0  0  0  0  0
   -2.1030   -2.3320    3.5650 H   0  0  0  0  0  0  0  0  0  0  0  0
   -3.1260   -1.7550    2.2710 H   0  0  0  0  0  0  0  0  0  0  0  0
   -1.9350    1.2490    3.8520 H   0  0  0  0  0  0  0  0  0  0  0  0
   -2.4470   -1.8210   -1.7040 N   0  0  0  0  0  0  0  0  0  0  0  0
   -3.5880   -2.0700   -2.5520 C   0  0  1  0  0  0  0  0  0  0  0  0
   -4.5330   -0.8840   -2.5890 C   0  0  0  0  0  0  0  0  0  0  0  0
   -5.9360   -1.2430   -3.6560 S   0  0  0  0  0  0  0  0  0  0  0  0
   -3.1760   -2.4510   -3.9310 C   0  0  0  0  0  0  0  0  0  0  0  0
   -1.9580   -2.5120   -4.1850 O   0  0  0  0  0  0  0  0  0  0  0  0
   -4.1450   -2.7240   -4.8820 O   0  0  0  0  0  0  0  0  0  0  0  0
   -1.8110   -0.9800   -1.8760 H   0  0  0  0  0  0  0  0  0  0  0  0
   -4.1420   -2.9340   -2.1520 H   0  0  0  0  0  0  0  0  0  0  0  0
   -4.9060   -0.6670   -1.5690 H   0  0  0  0  0  0  0  0  0  0  0  0
   -4.0020    0.0430   -2.9160 H   0  0  0  0  0  0  0  0  0  0  0  0
   -6.2300   -2.6280   -3.5470 H   0  0  0  0  0  0  0  0  0  0  0  0
  1 12  1  0  0  0  0
  1 13  1  0  0  0  0
  2  1  1  0  0  0  0
  3 14  1  0  0  0  0
  3  2  2  0  0  0  0
  4  2  1  0  0  0  0
  4 15  1  0  0  0  0
  5  4  1  0  0  0  0
  6 19  1  0  0  0  0
  6 18  1  0  0  0  0
  6  5  1  0  0  0  0
  7  6  1  0  0  0  0
  8 22  1  6  0  0  0
  8  9  1  0  0  0  0
  8 10  1  0  0  0  0
  8  7  1  0  0  0  0
  9 24  1  0  0  0  0
 10 25  1  0  0  0  0
 11 10  2  0  0  0  0
 16  5  1  0  0  0  0
 17  5  1  0  0  0  0
 20  7  1  0  0  0  0
 21  7  1  0  0  0  0
 23  9  1  0  0  0  0
 25 26  1  0  0  0  0
 26 35  1  6  0  0  0
 26 27  1  0  0  0  0
 27 36  1  0  0  0  0
 27 37  1  0  0  0  0
 27 28  1  0  0  0  0
 28 29  1  0  0  0  0
 28 38  1  0  0  0  0
 29 33  1  0  0  0  0
 30 29  2  0  0  0  0
 31 32  2  0  0  0  0
 31 26  1  0  0  0  0
 33 40  1  0  0  0  0
 34 25  1  0  0  0  0
 39 28  1  0  0  0  0
 41 31  1  0  0  0  0
 42 49  1  1  0  0  0
 42 41  1  0  0  0  0
 43 42  1  0  0  0  0
 43 50  1  0  0  0  0
 44 52  1  0  0  0  0
 44 43  1  0  0  0  0
 45 42  1  0  0  0  0
 46 45  1  0  0  0  0
 47 45  2  0  0  0  0
 48 41  1  0  0  0  0
 51 43  1  0  0  0  0
M  END
$$$$
