RED.pdb
 OpenBabel07022418043D

 54 53  0  0  1  0  0  0  0  0999 V2000
    4.5070   -5.3110    4.2630 N   0  0  0  0  0  0  0  0  0  0  0  0
    3.4580   -4.3470    4.2850 C   0  0  0  0  0  0  0  0  0  0  0  0
    2.2870   -4.6640    4.7320 N   0  0  0  0  0  0  0  0  0  0  0  0
    3.6530   -3.0190    3.8300 N   0  0  0  0  0  0  0  0  0  0  0  0
    2.5980   -2.2420    3.2040 C   0  0  0  0  0  0  0  0  0  0  0  0
    3.1050   -0.8650    2.8430 C   0  0  0  0  0  0  0  0  0  0  0  0
    2.0550    0.0010    2.1950 C   0  0  0  0  0  0  0  0  0  0  0  0
    1.5230   -0.5700    0.9270 C   0  0  2  0  0  0  0  0  0  0  0  0
    2.5820   -0.7400   -0.0490 N   0  0  0  0  0  0  0  0  0  0  0  0
    0.4410    0.2120    0.3090 C   0  0  0  0  0  0  0  0  0  0  0  0
    0.5930    0.6100   -0.8720 O   0  0  0  0  0  0  0  0  0  0  0  0
    4.2660   -6.3340    4.2540 H   0  0  0  0  0  0  0  0  0  0  0  0
    5.5080   -5.0580    4.2550 H   0  0  0  0  0  0  0  0  0  0  0  0
    2.1170   -5.6300    5.0770 H   0  0  0  0  0  0  0  0  0  0  0  0
    4.6010   -2.5840    3.9530 H   0  0  0  0  0  0  0  0  0  0  0  0
    1.7100   -2.1610    3.8410 H   0  0  0  0  0  0  0  0  0  0  0  0
    2.3670   -2.7550    2.2500 H   0  0  0  0  0  0  0  0  0  0  0  0
    4.0320   -0.9110    2.2600 H   0  0  0  0  0  0  0  0  0  0  0  0
    3.3640   -0.3850    3.8330 H   0  0  0  0  0  0  0  0  0  0  0  0
    1.3220    0.2720    2.9410 H   0  0  0  0  0  0  0  0  0  0  0  0
    2.5900    0.9600    1.9190 H   0  0  0  0  0  0  0  0  0  0  0  0
    1.1230   -1.5790    1.1440 H   0  0  0  0  0  0  0  0  0  0  0  0
    3.4710   -0.4180    0.3620 H   0  0  0  0  0  0  0  0  0  0  0  0
    2.4030   -0.1910   -0.9400 H   0  0  0  0  0  0  0  0  0  0  0  0
   -0.7620    0.5460    0.9630 N   0  0  0  0  0  0  0  0  0  0  0  0
   -1.8420    1.3050    0.4250 C   0  0  1  0  0  0  0  0  0  0  0  0
   -1.3410    2.6610    0.0250 C   0  0  0  0  0  0  0  0  0  0  0  0
   -2.3400    3.5930   -0.5600 C   0  0  0  0  0  0  0  0  0  0  0  0
   -3.4860    3.9350    0.2980 C   0  0  0  0  0  0  0  0  0  0  0  0
   -3.6050    3.5160    1.4640 O   0  0  0  0  0  0  0  0  0  0  0  0
   -2.5660    0.6590   -0.6620 C   0  0  0  0  0  0  0  0  0  0  0  0
   -3.5470    1.1990   -1.2480 O   0  0  0  0  0  0  0  0  0  0  0  0
   -4.4770    4.7580   -0.2060 O   0  0  0  0  0  0  0  0  0  0  0  0
   -0.8220    0.1760    1.9410 H   0  0  0  0  0  0  0  0  0  0  0  0
   -2.5270    1.5180    1.3140 H   0  0  0  0  0  0  0  0  0  0  0  0
   -0.4660    2.5720   -0.6590 H   0  0  0  0  0  0  0  0  0  0  0  0
   -0.9110    3.1290    0.9570 H   0  0  0  0  0  0  0  0  0  0  0  0
   -1.7710    4.5640   -0.7780 H   0  0  0  0  0  0  0  0  0  0  0  0
   -2.6630    3.2600   -1.5820 H   0  0  0  0  0  0  0  0  0  0  0  0
   -5.4510    4.6960    0.0860 H   0  0  0  0  0  0  0  0  0  0  0  0
   -2.2480   -0.6420   -1.1810 N   0  0  0  0  0  0  0  0  0  0  0  0
   -2.9880   -1.2530   -2.2750 C   0  0  1  0  0  0  0  0  0  0  0  0
   -2.1130   -1.3200   -3.5230 C   0  0  0  0  0  0  0  0  0  0  0  0
   -0.9010   -2.1380   -3.2420 C   0  0  0  0  0  0  0  0  0  0  0  0
   -0.9950   -3.3200   -2.7790 O   0  0  0  0  0  0  0  0  0  0  0  0
   -3.4180   -2.5920   -1.8620 C   0  0  0  0  0  0  0  0  0  0  0  0
   -4.0680   -3.3060   -2.6490 O   0  0  0  0  0  0  0  0  0  0  0  0
    0.3750   -1.6500   -3.4690 O   0  0  0  0  0  0  0  0  0  0  0  0
   -3.1070   -3.0710   -0.6120 O   0  0  0  0  0  0  0  0  0  0  0  0
   -1.4640   -1.1610   -0.7540 H   0  0  0  0  0  0  0  0  0  0  0  0
   -3.8440   -0.5890   -2.5850 H   0  0  0  0  0  0  0  0  0  0  0  0
   -1.8080   -0.3250   -3.8650 H   0  0  0  0  0  0  0  0  0  0  0  0
   -2.6540   -1.8240   -4.3550 H   0  0  0  0  0  0  0  0  0  0  0  0
    1.1350   -2.0600   -2.9470 H   0  0  0  0  0  0  0  0  0  0  0  0
  1  2  1  0  0  0  0
  2  3  2  0  0  0  0
  3 14  1  0  0  0  0
  4 15  1  0  0  0  0
  4  2  1  0  0  0  0
  5  4  1  0  0  0  0
  5 16  1  0  0  0  0
  6  5  1  0  0  0  0
  6 19  1  0  0  0  0
  7  6  1  0  0  0  0
  7 20  1  0  0  0  0
  8 22  1  1  0  0  0
  8  7  1  0  0  0  0
  9 23  1  0  0  0  0
  9  8  1  0  0  0  0
 10  8  1  0  0  0  0
 10 25  1  0  0  0  0
 11 10  2  0  0  0  0
 12  1  1  0  0  0  0
 13  1  1  0  0  0  0
 17  5  1  0  0  0  0
 18  6  1  0  0  0  0
 21  7  1  0  0  0  0
 24  9  1  0  0  0  0
 25 34  1  0  0  0  0
 26 25  1  0  0  0  0
 26 35  1  1  0  0  0
 27 26  1  0  0  0  0
 27 37  1  0  0  0  0
 28 27  1  0  0  0  0
 28 29  1  0  0  0  0
 29 30  2  0  0  0  0
 31 26  1  0  0  0  0
 32 31  2  0  0  0  0
 33 40  1  0  0  0  0
 33 29  1  0  0  0  0
 36 27  1  0  0  0  0
 38 28  1  0  0  0  0
 39 28  1  0  0  0  0
 41 50  1  0  0  0  0
 41 31  1  0  0  0  0
 42 51  1  6  0  0  0
 42 46  1  0  0  0  0
 42 41  1  0  0  0  0
 43 44  1  0  0  0  0
 43 42  1  0  0  0  0
 44 45  2  0  0  0  0
 46 49  1  0  0  0  0
 47 46  2  0  0  0  0
 48 44  1  0  0  0  0
 48 54  1  0  0  0  0
 52 43  1  0  0  0  0
 53 43  1  0  0  0  0
M  END
$$$$
