REE.pdb
 OpenBabel07022418043D

 57 56  0  0  1  0  0  0  0  0999 V2000
    2.8360   -5.0160    2.5770 N   0  0  0  0  0  0  0  0  0  0  0  0
    3.4840   -3.7760    2.8310 C   0  0  0  0  0  0  0  0  0  0  0  0
    4.5100   -3.7700    3.5830 N   0  0  0  0  0  0  0  0  0  0  0  0
    3.0050   -2.5670    2.2640 N   0  0  0  0  0  0  0  0  0  0  0  0
    3.2890   -1.3250    2.9520 C   0  0  0  0  0  0  0  0  0  0  0  0
    2.7200   -0.1360    2.2350 C   0  0  0  0  0  0  0  0  0  0  0  0
    3.3320   -0.0680    0.8420 C   0  0  0  0  0  0  0  0  0  0  0  0
    2.7920    1.1220    0.0640 C   0  0  2  0  0  0  0  0  0  0  0  0
    3.0870    2.3650    0.7340 N   0  0  0  0  0  0  0  0  0  0  0  0
    1.3430    0.9600   -0.2460 C   0  0  0  0  0  0  0  0  0  0  0  0
    0.9920   -0.0900   -0.8330 O   0  0  0  0  0  0  0  0  0  0  0  0
    2.7430   -5.6970    3.3390 H   0  0  0  0  0  0  0  0  0  0  0  0
    2.4730   -5.2090    1.6370 H   0  0  0  0  0  0  0  0  0  0  0  0
    4.9010   -4.6140    4.0200 H   0  0  0  0  0  0  0  0  0  0  0  0
    2.4650   -2.6210    1.3720 H   0  0  0  0  0  0  0  0  0  0  0  0
    2.9640   -1.4070    3.9910 H   0  0  0  0  0  0  0  0  0  0  0  0
    4.4100   -1.1840    2.9560 H   0  0  0  0  0  0  0  0  0  0  0  0
    1.6330   -0.0910    2.2380 H   0  0  0  0  0  0  0  0  0  0  0  0
    3.1200    0.7740    2.7710 H   0  0  0  0  0  0  0  0  0  0  0  0
    4.4240    0.0420    0.9980 H   0  0  0  0  0  0  0  0  0  0  0  0
    3.1880   -1.0060    0.2920 H   0  0  0  0  0  0  0  0  0  0  0  0
    3.3550    1.1300   -0.9000 H   0  0  0  0  0  0  0  0  0  0  0  0
    4.0420    2.2680    1.1470 H   0  0  0  0  0  0  0  0  0  0  0  0
    3.1680    3.1040   -0.0010 H   0  0  0  0  0  0  0  0  0  0  0  0
    0.3720    1.9260    0.0910 N   0  0  0  0  0  0  0  0  0  0  0  0
   -1.0350    1.8110   -0.1790 C   0  0  1  0  0  0  0  0  0  0  0  0
   -1.4600    2.2450   -1.5150 C   0  0  0  0  0  0  0  0  0  0  0  0
   -0.8750    1.5450   -2.6790 C   0  0  0  0  0  0  0  0  0  0  0  0
   -1.4300    2.1170   -3.9590 C   0  0  0  0  0  0  0  0  0  0  0  0
   -2.2520    3.0410   -3.9030 O   0  0  0  0  0  0  0  0  0  0  0  0
   -1.5510    0.5100    0.3040 C   0  0  0  0  0  0  0  0  0  0  0  0
   -0.7800   -0.2390    0.9380 O   0  0  0  0  0  0  0  0  0  0  0  0
   -1.0350    1.6280   -5.1970 O   0  0  0  0  0  0  0  0  0  0  0  0
    0.7660    2.7960    0.5830 H   0  0  0  0  0  0  0  0  0  0  0  0
   -1.5400    2.5470    0.5570 H   0  0  0  0  0  0  0  0  0  0  0  0
   -2.5710    2.2500   -1.6440 H   0  0  0  0  0  0  0  0  0  0  0  0
   -1.1840    3.3370   -1.6130 H   0  0  0  0  0  0  0  0  0  0  0  0
   -1.1230    0.4650   -2.7120 H   0  0  0  0  0  0  0  0  0  0  0  0
    0.2220    1.6630   -2.7850 H   0  0  0  0  0  0  0  0  0  0  0  0
   -1.4570    2.0500   -6.0310 H   0  0  0  0  0  0  0  0  0  0  0  0
   -2.8790    0.0790    0.0770 N   0  0  0  0  0  0  0  0  0  0  0  0
   -3.2980   -1.2080    0.5910 C   0  0  1  0  0  0  0  0  0  0  0  0
   -2.5970   -2.3050   -0.1310 C   0  0  0  0  0  0  0  0  0  0  0  0
   -2.9220   -3.6910    0.2840 C   0  0  0  0  0  0  0  0  0  0  0  0
   -4.3340   -4.0850    0.1210 C   0  0  0  0  0  0  0  0  0  0  0  0
   -5.1560   -3.2810   -0.3730 O   0  0  0  0  0  0  0  0  0  0  0  0
   -3.0630   -1.2240    2.0670 C   0  0  0  0  0  0  0  0  0  0  0  0
   -3.3190   -2.2760    2.7020 O   0  0  0  0  0  0  0  0  0  0  0  0
   -4.8000   -5.3350    0.4970 O   0  0  0  0  0  0  0  0  0  0  0  0
   -2.5790   -0.1390    2.7700 O   0  0  0  0  0  0  0  0  0  0  0  0
   -3.5150    0.7130   -0.4590 H   0  0  0  0  0  0  0  0  0  0  0  0
   -4.4170   -1.2880    0.4810 H   0  0  0  0  0  0  0  0  0  0  0  0
   -2.8630   -2.2150   -1.2160 H   0  0  0  0  0  0  0  0  0  0  0  0
   -1.4890   -2.1910   -0.0860 H   0  0  0  0  0  0  0  0  0  0  0  0
   -2.5260   -3.9540    1.2930 H   0  0  0  0  0  0  0  0  0  0  0  0
   -2.3320   -4.3690   -0.4050 H   0  0  0  0  0  0  0  0  0  0  0  0
   -5.5690   -5.7950    0.0120 H   0  0  0  0  0  0  0  0  0  0  0  0
  1  2  1  0  0  0  0
  1 12  1  0  0  0  0
  2  3  2  0  0  0  0
  3 14  1  0  0  0  0
  4  2  1  0  0  0  0
  4  5  1  0  0  0  0
  5 17  1  0  0  0  0
  5 16  1  0  0  0  0
  6 18  1  0  0  0  0
  6 19  1  0  0  0  0
  6  5  1  0  0  0  0
  7 20  1  0  0  0  0
  7  6  1  0  0  0  0
  8 22  1  6  0  0  0
  8  9  1  0  0  0  0
  8  7  1  0  0  0  0
  9 23  1  0  0  0  0
 10  8  1  0  0  0  0
 10 25  1  0  0  0  0
 11 10  2  0  0  0  0
 13  1  1  0  0  0  0
 15  4  1  0  0  0  0
 21  7  1  0  0  0  0
 24  9  1  0  0  0  0
 25 34  1  0  0  0  0
 26 25  1  0  0  0  0
 26 31  1  0  0  0  0
 26 35  1  1  0  0  0
 27 26  1  0  0  0  0
 28 27  1  0  0  0  0
 29 30  2  0  0  0  0
 29 28  1  0  0  0  0
 31 32  2  0  0  0  0
 33 29  1  0  0  0  0
 36 27  1  0  0  0  0
 37 27  1  0  0  0  0
 38 28  1  0  0  0  0
 39 28  1  0  0  0  0
 40 33  1  0  0  0  0
 41 31  1  0  0  0  0
 41 42  1  0  0  0  0
 42 52  1  6  0  0  0
 42 47  1  0  0  0  0
 43 54  1  0  0  0  0
 43 44  1  0  0  0  0
 43 42  1  0  0  0  0
 44 55  1  0  0  0  0
 45 44  1  0  0  0  0
 45 49  1  0  0  0  0
 46 45  2  0  0  0  0
 47 48  2  0  0  0  0
 47 50  1  0  0  0  0
 51 41  1  0  0  0  0
 53 43  1  0  0  0  0
 56 44  1  0  0  0  0
 57 49  1  0  0  0  0
M  END
$$$$
