REG.pdb
 OpenBabel07022418043D

 48 47  0  0  1  0  0  0  0  0999 V2000
    3.6070   -2.5550    5.3990 N   0  0  0  0  0  0  0  0  0  0  0  0
    3.4330   -1.7720    4.2280 C   0  0  0  0  0  0  0  0  0  0  0  0
    3.5440   -0.4920    4.2330 N   0  0  0  0  0  0  0  0  0  0  0  0
    3.1240   -2.4040    2.9910 N   0  0  0  0  0  0  0  0  0  0  0  0
    3.2230   -1.7150    1.7100 C   0  0  0  0  0  0  0  0  0  0  0  0
    2.8420   -2.6650    0.6360 C   0  0  0  0  0  0  0  0  0  0  0  0
    2.8820   -2.1960   -0.7590 C   0  0  0  0  0  0  0  0  0  0  0  0
    2.0270   -1.0620   -1.1560 C   0  0  2  0  0  0  0  0  0  0  0  0
    2.3750    0.1170   -0.3900 N   0  0  0  0  0  0  0  0  0  0  0  0
    0.5730   -1.3240   -1.0010 C   0  0  0  0  0  0  0  0  0  0  0  0
    0.0520   -2.3090   -1.5760 O   0  0  0  0  0  0  0  0  0  0  0  0
    2.7820   -2.8300    5.9740 H   0  0  0  0  0  0  0  0  0  0  0  0
    4.5360   -2.8880    5.7410 H   0  0  0  0  0  0  0  0  0  0  0  0
    3.7700   -0.0330    5.1390 H   0  0  0  0  0  0  0  0  0  0  0  0
    2.8180   -3.3930    3.0070 H   0  0  0  0  0  0  0  0  0  0  0  0
    4.2930   -1.4130    1.5710 H   0  0  0  0  0  0  0  0  0  0  0  0
    2.6610   -0.7600    1.7350 H   0  0  0  0  0  0  0  0  0  0  0  0
    3.5850   -3.5210    0.7020 H   0  0  0  0  0  0  0  0  0  0  0  0
    1.8830   -3.1580    0.9250 H   0  0  0  0  0  0  0  0  0  0  0  0
    2.6190   -3.0860   -1.4080 H   0  0  0  0  0  0  0  0  0  0  0  0
    3.9690   -2.0250   -1.0200 H   0  0  0  0  0  0  0  0  0  0  0  0
    2.1980   -0.7890   -2.2250 H   0  0  0  0  0  0  0  0  0  0  0  0
    3.4090    0.2470   -0.3150 H   0  0  0  0  0  0  0  0  0  0  0  0
    1.8540    0.9600   -0.6690 H   0  0  0  0  0  0  0  0  0  0  0  0
   -0.2580   -0.4910   -0.2160 N   0  0  0  0  0  0  0  0  0  0  0  0
   -1.6840   -0.8040   -0.1030 C   0  0  1  0  0  0  0  0  0  0  0  0
   -1.9380   -1.1460    1.3430 C   0  0  0  0  0  0  0  0  0  0  0  0
   -1.6080   -0.0550    2.2960 C   0  0  0  0  0  0  0  0  0  0  0  0
   -2.3490    1.1940    2.1350 C   0  0  0  0  0  0  0  0  0  0  0  0
   -3.6070    1.2510    2.1870 O   0  0  0  0  0  0  0  0  0  0  0  0
   -2.5100    0.2630   -0.6500 C   0  0  0  0  0  0  0  0  0  0  0  0
   -1.9570    1.3210   -1.0950 O   0  0  0  0  0  0  0  0  0  0  0  0
   -1.6760    2.3890    1.9130 O   0  0  0  0  0  0  0  0  0  0  0  0
    0.1480    0.3360    0.2720 H   0  0  0  0  0  0  0  0  0  0  0  0
   -1.9100   -1.7280   -0.6950 H   0  0  0  0  0  0  0  0  0  0  0  0
   -2.9750   -1.4980    1.5130 H   0  0  0  0  0  0  0  0  0  0  0  0
   -1.2760   -2.0100    1.5850 H   0  0  0  0  0  0  0  0  0  0  0  0
   -1.8370   -0.4660    3.3280 H   0  0  0  0  0  0  0  0  0  0  0  0
   -0.5170    0.1690    2.3520 H   0  0  0  0  0  0  0  0  0  0  0  0
   -2.1040    3.0710    1.2660 H   0  0  0  0  0  0  0  0  0  0  0  0
   -3.9060    0.1960   -0.7180 N   0  0  0  0  0  0  0  0  0  0  0  0
   -4.7450    1.2480   -1.2590 C   0  0  0  0  0  0  0  0  0  0  0  0
   -4.3670    1.4650   -2.6620 C   0  0  0  0  0  0  0  0  0  0  0  0
   -4.9680    2.3240   -3.3360 O   0  0  0  0  0  0  0  0  0  0  0  0
   -3.3620    0.7320   -3.2370 O   0  0  0  0  0  0  0  0  0  0  0  0
   -4.4000   -0.6650   -0.3620 H   0  0  0  0  0  0  0  0  0  0  0  0
   -5.8230    0.9670   -1.2000 H   0  0  0  0  0  0  0  0  0  0  0  0
   -4.6690    2.1790   -0.6500 H   0  0  0  0  0  0  0  0  0  0  0  0
  1 13  1  0  0  0  0
  1 12  1  0  0  0  0
  2  3  2  0  0  0  0
  2  1  1  0  0  0  0
  3 14  1  0  0  0  0
  4 15  1  0  0  0  0
  4  2  1  0  0  0  0
  5 17  1  0  0  0  0
  5  4  1  0  0  0  0
  6 18  1  0  0  0  0
  6 19  1  0  0  0  0
  6  5  1  0  0  0  0
  7  6  1  0  0  0  0
  8 22  1  6  0  0  0
  8 10  1  0  0  0  0
  8  7  1  0  0  0  0
  8  9  1  0  0  0  0
  9 23  1  0  0  0  0
 10 25  1  0  0  0  0
 11 10  2  0  0  0  0
 16  5  1  0  0  0  0
 20  7  1  0  0  0  0
 21  7  1  0  0  0  0
 24  9  1  0  0  0  0
 25 26  1  0  0  0  0
 25 34  1  0  0  0  0
 26 35  1  6  0  0  0
 26 27  1  0  0  0  0
 27 36  1  0  0  0  0
 27 37  1  0  0  0  0
 27 28  1  0  0  0  0
 28 39  1  0  0  0  0
 28 38  1  0  0  0  0
 29 30  2  0  0  0  0
 29 28  1  0  0  0  0
 31 26  1  0  0  0  0
 32 31  2  0  0  0  0
 33 29  1  0  0  0  0
 40 33  1  0  0  0  0
 41 31  1  0  0  0  0
 41 46  1  0  0  0  0
 42 47  1  0  0  0  0
 42 41  1  0  0  0  0
 42 48  1  0  0  0  0
 43 42  1  0  0  0  0
 44 43  2  0  0  0  0
 45 43  1  0  0  0  0
M  END
$$$$
