REH.pdb
 OpenBabel07022418043D

 58 58  0  0  1  0  0  0  0  0999 V2000
   -0.5970    0.8800    4.9770 N   0  0  0  0  0  0  0  0  0  0  0  0
    0.7500    0.5750    5.2520 C   0  0  0  0  0  0  0  0  0  0  0  0
    1.1760    0.3010    6.4540 N   0  0  0  0  0  0  0  0  0  0  0  0
    1.7810    0.5410    4.2270 N   0  0  0  0  0  0  0  0  0  0  0  0
    2.8730   -0.3430    4.4290 C   0  0  0  0  0  0  0  0  0  0  0  0
    3.8980   -0.2950    3.3670 C   0  0  0  0  0  0  0  0  0  0  0  0
    3.5630   -0.6890    1.9850 C   0  0  0  0  0  0  0  0  0  0  0  0
    2.5950    0.0160    1.1630 C   0  0  2  0  0  0  0  0  0  0  0  0
    2.8460    1.3980    0.9120 N   0  0  0  0  0  0  0  0  0  0  0  0
    1.1900   -0.4230    1.1320 C   0  0  0  0  0  0  0  0  0  0  0  0
    0.6730   -1.2550    1.9150 O   0  0  0  0  0  0  0  0  0  0  0  0
   -1.2300    0.2450    4.4670 H   0  0  0  0  0  0  0  0  0  0  0  0
   -0.9800    1.7940    5.3030 H   0  0  0  0  0  0  0  0  0  0  0  0
    0.4590    0.3200    7.2100 H   0  0  0  0  0  0  0  0  0  0  0  0
    1.6730    1.1640    3.4140 H   0  0  0  0  0  0  0  0  0  0  0  0
    2.4710   -1.4060    4.5360 H   0  0  0  0  0  0  0  0  0  0  0  0
    3.3550   -0.1890    5.4410 H   0  0  0  0  0  0  0  0  0  0  0  0
    4.7660   -0.9460    3.7650 H   0  0  0  0  0  0  0  0  0  0  0  0
    4.3300    0.7600    3.4090 H   0  0  0  0  0  0  0  0  0  0  0  0
    3.3540   -1.8110    2.0420 H   0  0  0  0  0  0  0  0  0  0  0  0
    4.5970   -0.7360    1.4520 H   0  0  0  0  0  0  0  0  0  0  0  0
    2.9100   -0.4020    0.0520 H   0  0  0  0  0  0  0  0  0  0  0  0
    3.3290    1.8960    1.6870 H   0  0  0  0  0  0  0  0  0  0  0  0
    2.0760    1.9140    0.4820 H   0  0  0  0  0  0  0  0  0  0  0  0
    0.2930    0.1140    0.1300 N   0  0  0  0  0  0  0  0  0  0  0  0
   -1.0770   -0.2280   -0.0040 C   0  0  1  0  0  0  0  0  0  0  0  0
   -1.9250    0.7900   -0.6610 C   0  0  0  0  0  0  0  0  0  0  0  0
   -1.9870    2.1270    0.0050 C   0  0  0  0  0  0  0  0  0  0  0  0
   -2.5200    2.1260    1.3710 C   0  0  0  0  0  0  0  0  0  0  0  0
   -1.7290    1.8590    2.3030 O   0  0  0  0  0  0  0  0  0  0  0  0
   -1.1530   -1.5420   -0.7780 C   0  0  0  0  0  0  0  0  0  0  0  0
   -0.0840   -2.0340   -1.1290 O   0  0  0  0  0  0  0  0  0  0  0  0
   -3.8360    2.4000    1.6970 O   0  0  0  0  0  0  0  0  0  0  0  0
    0.7060    0.8080   -0.5380 H   0  0  0  0  0  0  0  0  0  0  0  0
   -1.4830   -0.5210    0.9830 H   0  0  0  0  0  0  0  0  0  0  0  0
   -2.9410    0.3810   -0.8520 H   0  0  0  0  0  0  0  0  0  0  0  0
   -1.5210    0.9890   -1.7010 H   0  0  0  0  0  0  0  0  0  0  0  0
   -0.9990    2.6720   -0.0610 H   0  0  0  0  0  0  0  0  0  0  0  0
   -2.6750    2.7920   -0.5980 H   0  0  0  0  0  0  0  0  0  0  0  0
   -4.1930    2.3150    2.6480 H   0  0  0  0  0  0  0  0  0  0  0  0
   -2.3780   -2.1680   -1.0800 N   0  0  0  0  0  0  0  0  0  0  0  0
   -2.5310   -3.4110   -1.7920 C   0  0  1  0  0  0  0  0  0  0  0  0
   -2.4970   -3.3110   -3.2720 C   0  0  0  0  0  0  0  0  0  0  0  0
   -1.2510   -2.7610   -3.8380 C   0  0  0  0  0  0  0  0  0  0  0  0
   -0.1180   -3.4420   -4.2250 C   0  0  0  0  0  0  0  0  0  0  0  0
    0.7620   -2.5350   -4.6840 N   0  0  0  0  0  0  0  0  0  0  0  0
    0.2160   -1.3170   -4.5960 C   0  0  0  0  0  0  0  0  0  0  0  0
   -1.0030   -1.4680   -4.0820 N   0  0  0  0  0  0  0  0  0  0  0  0
   -1.5750   -4.4290   -1.2330 C   0  0  0  0  0  0  0  0  0  0  0  0
   -0.8400   -4.2460   -0.2430 O   0  0  0  0  0  0  0  0  0  0  0  0
   -1.4700   -5.6890   -1.8360 O   0  0  0  0  0  0  0  0  0  0  0  0
   -3.2560   -1.6420   -0.7330 H   0  0  0  0  0  0  0  0  0  0  0  0
   -3.5380   -3.8210   -1.4620 H   0  0  0  0  0  0  0  0  0  0  0  0
   -2.6420   -4.3480   -3.6960 H   0  0  0  0  0  0  0  0  0  0  0  0
   -3.4020   -2.7600   -3.6210 H   0  0  0  0  0  0  0  0  0  0  0  0
    0.0600   -4.5110   -4.1800 H   0  0  0  0  0  0  0  0  0  0  0  0
    1.7320   -2.7020   -5.0620 H   0  0  0  0  0  0  0  0  0  0  0  0
    0.6770   -0.3700   -4.8890 H   0  0  0  0  0  0  0  0  0  0  0  0
  1  2  1  0  0  0  0
  1 13  1  0  0  0  0
  2  3  2  0  0  0  0
  3 14  1  0  0  0  0
  4  5  1  0  0  0  0
  4  2  1  0  0  0  0
  5 16  1  0  0  0  0
  5 17  1  0  0  0  0
  6 19  1  0  0  0  0
  6 18  1  0  0  0  0
  6  5  1  0  0  0  0
  7 20  1  0  0  0  0
  7  6  1  0  0  0  0
  8 22  1  6  0  0  0
  8  7  1  0  0  0  0
  9  8  1  0  0  0  0
  9 23  1  0  0  0  0
 10  8  1  0  0  0  0
 10 11  2  0  0  0  0
 12  1  1  0  0  0  0
 15  4  1  0  0  0  0
 21  7  1  0  0  0  0
 24  9  1  0  0  0  0
 25 10  1  0  0  0  0
 26 25  1  0  0  0  0
 26 35  1  1  0  0  0
 27 26  1  0  0  0  0
 27 28  1  0  0  0  0
 28 29  1  0  0  0  0
 29 33  1  0  0  0  0
 29 30  2  0  0  0  0
 31 26  1  0  0  0  0
 32 31  2  0  0  0  0
 33 40  1  0  0  0  0
 34 25  1  0  0  0  0
 36 27  1  0  0  0  0
 37 27  1  0  0  0  0
 38 28  1  0  0  0  0
 39 28  1  0  0  0  0
 41 31  1  0  0  0  0
 41 52  1  0  0  0  0
 42 53  1  1  0  0  0
 42 49  1  0  0  0  0
 42 41  1  0  0  0  0
 43 42  1  0  0  0  0
 44 43  1  0  0  0  0
 45 56  1  0  0  0  0
 45 44  2  0  0  0  0
 46 47  1  0  0  0  0
 46 45  1  0  0  0  0
 47 48  2  0  0  0  0
 48 44  1  0  0  0  0
 49 50  1  0  0  0  0
 51 49  2  0  0  0  0
 54 43  1  0  0  0  0
 55 43  1  0  0  0  0
 57 46  1  0  0  0  0
 58 47  1  0  0  0  0
M  END
$$$$
