REI.pdb
 OpenBabel07022418043D

 60 59  0  0  1  0  0  0  0  0999 V2000
   -0.1550   -2.2530    3.5170 N   0  0  0  0  0  0  0  0  0  0  0  0
    0.8700   -1.5820    4.2230 C   0  0  0  0  0  0  0  0  0  0  0  0
    0.9520   -1.7330    5.5200 N   0  0  0  0  0  0  0  0  0  0  0  0
    1.8350   -0.7360    3.5970 N   0  0  0  0  0  0  0  0  0  0  0  0
    2.3470    0.3840    4.3340 C   0  0  0  0  0  0  0  0  0  0  0  0
    3.2970    1.2570    3.6560 C   0  0  0  0  0  0  0  0  0  0  0  0
    3.0090    2.1090    2.5020 C   0  0  0  0  0  0  0  0  0  0  0  0
    2.4390    1.5850    1.2460 C   0  0  2  0  0  0  0  0  0  0  0  0
    2.4350    2.6670    0.1990 N   0  0  0  0  0  0  0  0  0  0  0  0
    0.9630    1.3090    1.4340 C   0  0  0  0  0  0  0  0  0  0  0  0
    0.3300    1.4230    2.4850 O   0  0  0  0  0  0  0  0  0  0  0  0
   -0.9300   -1.6990    3.1190 H   0  0  0  0  0  0  0  0  0  0  0  0
   -0.1690   -3.2910    3.3760 H   0  0  0  0  0  0  0  0  0  0  0  0
    0.2700   -2.3410    6.0310 H   0  0  0  0  0  0  0  0  0  0  0  0
    2.1160   -0.9860    2.6420 H   0  0  0  0  0  0  0  0  0  0  0  0
    2.8560   -0.1060    5.2500 H   0  0  0  0  0  0  0  0  0  0  0  0
    1.5410    1.0110    4.8150 H   0  0  0  0  0  0  0  0  0  0  0  0
    4.2550    0.6180    3.4240 H   0  0  0  0  0  0  0  0  0  0  0  0
    3.7250    1.9560    4.4660 H   0  0  0  0  0  0  0  0  0  0  0  0
    2.3630    2.9900    2.8920 H   0  0  0  0  0  0  0  0  0  0  0  0
    3.9400    2.6970    2.1880 H   0  0  0  0  0  0  0  0  0  0  0  0
    3.0060    0.7730    0.8330 H   0  0  0  0  0  0  0  0  0  0  0  0
    3.4700    2.8720    0.0850 H   0  0  0  0  0  0  0  0  0  0  0  0
    2.1660    2.1730   -0.6890 H   0  0  0  0  0  0  0  0  0  0  0  0
    0.1870    0.8700    0.3000 N   0  0  0  0  0  0  0  0  0  0  0  0
   -1.2570    0.5800    0.4280 C   0  0  1  0  0  0  0  0  0  0  0  0
   -2.0100    1.6370   -0.2790 C   0  0  0  0  0  0  0  0  0  0  0  0
   -3.4740    1.5050   -0.3110 C   0  0  0  0  0  0  0  0  0  0  0  0
   -4.0040    0.4050   -1.1370 C   0  0  0  0  0  0  0  0  0  0  0  0
   -3.2830   -0.0940   -2.0420 O   0  0  0  0  0  0  0  0  0  0  0  0
   -1.4910   -0.8210    0.1650 C   0  0  0  0  0  0  0  0  0  0  0  0
   -2.5980   -1.3840    0.4070 O   0  0  0  0  0  0  0  0  0  0  0  0
   -5.2760   -0.0960   -0.9480 O   0  0  0  0  0  0  0  0  0  0  0  0
    0.6720    0.7740   -0.6070 H   0  0  0  0  0  0  0  0  0  0  0  0
   -1.5290    0.7240    1.5310 H   0  0  0  0  0  0  0  0  0  0  0  0
   -1.7710    2.6050    0.2740 H   0  0  0  0  0  0  0  0  0  0  0  0
   -1.5780    1.7630   -1.3100 H   0  0  0  0  0  0  0  0  0  0  0  0
   -3.9660    2.4580   -0.6900 H   0  0  0  0  0  0  0  0  0  0  0  0
   -3.8760    1.3890    0.7370 H   0  0  0  0  0  0  0  0  0  0  0  0
   -5.5290   -0.9330   -1.4380 H   0  0  0  0  0  0  0  0  0  0  0  0
   -1.1690   -2.8190   -4.4870 C   0  0  0  0  0  0  0  0  0  0  0  0
   -1.3480   -2.5340   -3.0310 C   0  0  0  0  0  0  0  0  0  0  0  0
   -0.4280   -3.3490   -2.1580 C   0  0  2  0  0  0  0  0  0  0  0  0
   -0.7510   -4.8030   -2.4250 C   0  0  0  0  0  0  0  0  0  0  0  0
   -0.6790   -3.0720   -0.6700 C   0  0  2  0  0  0  0  0  0  0  0  0
   -0.4550   -1.6500   -0.3940 N   0  0  0  0  0  0  0  0  0  0  0  0
    0.3100   -3.8600    0.1090 C   0  0  0  0  0  0  0  0  0  0  0  0
    0.3270   -5.1080    0.0880 O   0  0  0  0  0  0  0  0  0  0  0  0
    1.2410   -3.1920    0.8790 O   0  0  0  0  0  0  0  0  0  0  0  0
   -0.2170   -3.3470   -4.7130 H   0  0  0  0  0  0  0  0  0  0  0  0
   -1.2020   -1.9090   -5.1260 H   0  0  0  0  0  0  0  0  0  0  0  0
   -2.0010   -3.4690   -4.8250 H   0  0  0  0  0  0  0  0  0  0  0  0
   -2.4070   -2.6680   -2.7650 H   0  0  0  0  0  0  0  0  0  0  0  0
   -1.0830   -1.4640   -2.8700 H   0  0  0  0  0  0  0  0  0  0  0  0
    0.6350   -3.2040   -2.4080 H   0  0  0  0  0  0  0  0  0  0  0  0
   -0.9490   -4.9100   -3.5260 H   0  0  0  0  0  0  0  0  0  0  0  0
   -1.6590   -5.1430   -1.8590 H   0  0  0  0  0  0  0  0  0  0  0  0
    0.1380   -5.4380   -2.2140 H   0  0  0  0  0  0  0  0  0  0  0  0
   -1.6990   -3.3750   -0.4320 H   0  0  0  0  0  0  0  0  0  0  0  0
    0.4530   -1.1930   -0.5880 H   0  0  0  0  0  0  0  0  0  0  0  0
  1  2  1  0  0  0  0
  2  3  2  0  0  0  0
  3 14  1  0  0  0  0
  4  2  1  0  0  0  0
  4  5  1  0  0  0  0
  5 17  1  0  0  0  0
  5 16  1  0  0  0  0
  6  5  1  0  0  0  0
  6 19  1  0  0  0  0
  7 20  1  0  0  0  0
  7  6  1  0  0  0  0
  8 22  1  6  0  0  0
  8 10  1  0  0  0  0
  8  7  1  0  0  0  0
  9  8  1  0  0  0  0
 10 11  2  0  0  0  0
 12  1  1  0  0  0  0
 13  1  1  0  0  0  0
 15  4  1  0  0  0  0
 18  6  1  0  0  0  0
 21  7  1  0  0  0  0
 23  9  1  0  0  0  0
 24  9  1  0  0  0  0
 25 26  1  0  0  0  0
 25 10  1  0  0  0  0
 26 35  1  1  0  0  0
 27 36  1  0  0  0  0
 27 26  1  0  0  0  0
 28 27  1  0  0  0  0
 28 39  1  0  0  0  0
 29 33  1  0  0  0  0
 29 28  1  0  0  0  0
 30 29  2  0  0  0  0
 31 32  2  0  0  0  0
 31 26  1  0  0  0  0
 34 25  1  0  0  0  0
 37 27  1  0  0  0  0
 38 28  1  0  0  0  0
 40 33  1  0  0  0  0
 41 42  1  0  0  0  0
 42 54  1  0  0  0  0
 42 53  1  0  0  0  0
 42 43  1  0  0  0  0
 43 55  1  6  0  0  0
 43 45  1  0  0  0  0
 44 58  1  0  0  0  0
 44 43  1  0  0  0  0
 44 57  1  0  0  0  0
 45 59  1  1  0  0  0
 45 46  1  0  0  0  0
 45 47  1  0  0  0  0
 46 31  1  0  0  0  0
 47 49  1  0  0  0  0
 48 47  2  0  0  0  0
 50 41  1  0  0  0  0
 51 41  1  0  0  0  0
 52 41  1  0  0  0  0
 56 44  1  0  0  0  0
 60 46  1  0  0  0  0
M  END
$$$$
