REK.pdb
 OpenBabel07022418043D

 62 61  0  0  1  0  0  0  0  0999 V2000
    4.5760   -2.8320    2.4020 N   0  0  0  0  0  0  0  0  0  0  0  0
    5.0480   -1.6550    3.0380 C   0  0  0  0  0  0  0  0  0  0  0  0
    5.6070   -1.7320    4.2110 N   0  0  0  0  0  0  0  0  0  0  0  0
    4.8980   -0.4000    2.3780 N   0  0  0  0  0  0  0  0  0  0  0  0
    4.6840    0.7890    3.1430 C   0  0  0  0  0  0  0  0  0  0  0  0
    3.3350    0.8130    3.8280 C   0  0  0  0  0  0  0  0  0  0  0  0
    2.2000    0.7370    2.8490 C   0  0  0  0  0  0  0  0  0  0  0  0
    2.2240    1.9060    1.8840 C   0  0  2  0  0  0  0  0  0  0  0  0
    2.1100    3.1520    2.5890 N   0  0  0  0  0  0  0  0  0  0  0  0
    1.1470    1.7930    0.8920 C   0  0  0  0  0  0  0  0  0  0  0  0
    0.2870    2.7000    0.8160 O   0  0  0  0  0  0  0  0  0  0  0  0
    3.5690   -3.1050    2.5320 H   0  0  0  0  0  0  0  0  0  0  0  0
    5.1570   -3.4510    1.8090 H   0  0  0  0  0  0  0  0  0  0  0  0
    5.6910   -2.6730    4.6480 H   0  0  0  0  0  0  0  0  0  0  0  0
    4.9440   -0.3480    1.3450 H   0  0  0  0  0  0  0  0  0  0  0  0
    4.8030    1.7160    2.5750 H   0  0  0  0  0  0  0  0  0  0  0  0
    5.4480    0.8080    3.9630 H   0  0  0  0  0  0  0  0  0  0  0  0
    3.2760   -0.0790    4.4840 H   0  0  0  0  0  0  0  0  0  0  0  0
    3.3100    1.7210    4.4550 H   0  0  0  0  0  0  0  0  0  0  0  0
    1.2490    0.7590    3.4030 H   0  0  0  0  0  0  0  0  0  0  0  0
    2.3380   -0.1780    2.2480 H   0  0  0  0  0  0  0  0  0  0  0  0
    3.1910    1.8190    1.3240 H   0  0  0  0  0  0  0  0  0  0  0  0
    1.7120    3.8610    1.9040 H   0  0  0  0  0  0  0  0  0  0  0  0
    2.9920    3.4740    3.0090 H   0  0  0  0  0  0  0  0  0  0  0  0
    0.9900    0.7210   -0.0090 N   0  0  0  0  0  0  0  0  0  0  0  0
   -0.0800    0.6810   -0.9410 C   0  0  1  0  0  0  0  0  0  0  0  0
    0.3080    0.7580   -2.3790 C   0  0  0  0  0  0  0  0  0  0  0  0
    1.2110   -0.3560   -2.8360 C   0  0  0  0  0  0  0  0  0  0  0  0
    1.5420   -0.1960   -4.2790 C   0  0  0  0  0  0  0  0  0  0  0  0
    1.0670    0.7800   -4.9150 O   0  0  0  0  0  0  0  0  0  0  0  0
   -0.9450   -0.4800   -0.6270 C   0  0  0  0  0  0  0  0  0  0  0  0
   -0.6300   -1.2070    0.3400 O   0  0  0  0  0  0  0  0  0  0  0  0
    2.3560   -1.0750   -4.9720 O   0  0  0  0  0  0  0  0  0  0  0  0
    1.6740   -0.0700    0.0010 H   0  0  0  0  0  0  0  0  0  0  0  0
   -0.7210    1.5810   -0.7570 H   0  0  0  0  0  0  0  0  0  0  0  0
   -0.6180    0.6840   -2.9890 H   0  0  0  0  0  0  0  0  0  0  0  0
    0.7270    1.7600   -2.5830 H   0  0  0  0  0  0  0  0  0  0  0  0
    0.6820   -1.3280   -2.7540 H   0  0  0  0  0  0  0  0  0  0  0  0
    2.1220   -0.4530   -2.2040 H   0  0  0  0  0  0  0  0  0  0  0  0
    2.1490   -1.2890   -5.9290 H   0  0  0  0  0  0  0  0  0  0  0  0
   -2.1010   -0.7990   -1.3670 N   0  0  0  0  0  0  0  0  0  0  0  0
   -2.8730   -1.9620   -0.9690 C   0  0  1  0  0  0  0  0  0  0  0  0
   -4.2770   -1.5650   -0.5840 C   0  0  0  0  0  0  0  0  0  0  0  0
   -5.0530   -2.7790   -0.1730 C   0  0  0  0  0  0  0  0  0  0  0  0
   -6.4670   -2.4190    0.2610 C   0  0  0  0  0  0  0  0  0  0  0  0
   -6.4520   -1.4740    1.4380 C   0  0  0  0  0  0  0  0  0  0  0  0
   -5.7630   -2.1320    2.5420 N   0  0  0  0  0  0  0  0  0  0  0  0
   -2.7810   -2.9300   -2.0720 C   0  0  0  0  0  0  0  0  0  0  0  0
   -2.1730   -2.6140   -3.1250 O   0  0  0  0  0  0  0  0  0  0  0  0
   -3.3230   -4.2020   -2.0490 O   0  0  0  0  0  0  0  0  0  0  0  0
   -2.3850   -0.1970   -2.1880 H   0  0  0  0  0  0  0  0  0  0  0  0
   -2.3690   -2.4260   -0.0990 H   0  0  0  0  0  0  0  0  0  0  0  0
   -4.7540   -1.0970   -1.4710 H   0  0  0  0  0  0  0  0  0  0  0  0
   -4.1970   -0.8420    0.2480 H   0  0  0  0  0  0  0  0  0  0  0  0
   -4.5960   -3.3400    0.6620 H   0  0  0  0  0  0  0  0  0  0  0  0
   -5.1830   -3.4750   -1.0380 H   0  0  0  0  0  0  0  0  0  0  0  0
   -6.9600   -1.8970   -0.5820 H   0  0  0  0  0  0  0  0  0  0  0  0
   -7.0550   -3.3280    0.4770 H   0  0  0  0  0  0  0  0  0  0  0  0
   -5.9900   -0.5060    1.1910 H   0  0  0  0  0  0  0  0  0  0  0  0
   -7.4860   -1.2790    1.7840 H   0  0  0  0  0  0  0  0  0  0  0  0
   -6.0370   -1.7150    3.4640 H   0  0  0  0  0  0  0  0  0  0  0  0
   -5.9920   -3.1620    2.5050 H   0  0  0  0  0  0  0  0  0  0  0  0
  1 12  1  0  0  0  0
  1  2  1  0  0  0  0
  2  3  2  0  0  0  0
  3 14  1  0  0  0  0
  4  2  1  0  0  0  0
  4  5  1  0  0  0  0
  5  6  1  0  0  0  0
  5 17  1  0  0  0  0
  6 19  1  0  0  0  0
  6 18  1  0  0  0  0
  7 20  1  0  0  0  0
  7  6  1  0  0  0  0
  8 22  1  6  0  0  0
  8  9  1  0  0  0  0
  8  7  1  0  0  0  0
  9 24  1  0  0  0  0
 10  8  1  0  0  0  0
 11 10  2  0  0  0  0
 13  1  1  0  0  0  0
 15  4  1  0  0  0  0
 16  5  1  0  0  0  0
 21  7  1  0  0  0  0
 23  9  1  0  0  0  0
 25 34  1  0  0  0  0
 25 10  1  0  0  0  0
 26 35  1  1  0  0  0
 26 31  1  0  0  0  0
 26 25  1  0  0  0  0
 27 26  1  0  0  0  0
 28 38  1  0  0  0  0
 28 27  1  0  0  0  0
 28 39  1  0  0  0  0
 29 28  1  0  0  0  0
 30 29  2  0  0  0  0
 31 32  2  0  0  0  0
 33 29  1  0  0  0  0
 36 27  1  0  0  0  0
 37 27  1  0  0  0  0
 40 33  1  0  0  0  0
 41 42  1  0  0  0  0
 41 31  1  0  0  0  0
 42 43  1  0  0  0  0
 42 52  1  1  0  0  0
 43 44  1  0  0  0  0
 43 54  1  0  0  0  0
 44 45  1  0  0  0  0
 44 55  1  0  0  0  0
 45 58  1  0  0  0  0
 45 46  1  0  0  0  0
 46 60  1  0  0  0  0
 46 47  1  0  0  0  0
 47 61  1  0  0  0  0
 48 50  1  0  0  0  0
 48 42  1  0  0  0  0
 49 48  2  0  0  0  0
 51 41  1  0  0  0  0
 53 43  1  0  0  0  0
 56 44  1  0  0  0  0
 57 45  1  0  0  0  0
 59 46  1  0  0  0  0
 62 47  1  0  0  0  0
M  END
$$$$
