REL.pdb
 OpenBabel07022418043D

 60 59  0  0  1  0  0  0  0  0999 V2000
    1.5810   -3.2180    6.4250 N   0  0  0  0  0  0  0  0  0  0  0  0
    2.1560   -1.9690    6.0670 C   0  0  0  0  0  0  0  0  0  0  0  0
    2.6900   -1.2330    6.9670 N   0  0  0  0  0  0  0  0  0  0  0  0
    2.1270   -1.5610    4.7070 N   0  0  0  0  0  0  0  0  0  0  0  0
    2.3530   -0.1810    4.3230 C   0  0  0  0  0  0  0  0  0  0  0  0
    2.2580   -0.0730    2.8160 C   0  0  0  0  0  0  0  0  0  0  0  0
    2.4780    1.3230    2.3250 C   0  0  0  0  0  0  0  0  0  0  0  0
    2.3660    1.4060    0.8520 C   0  0  2  0  0  0  0  0  0  0  0  0
    2.6040    2.7410    0.3040 N   0  0  0  0  0  0  0  0  0  0  0  0
    1.0770    0.9340    0.2850 C   0  0  0  0  0  0  0  0  0  0  0  0
    1.1170    0.5700   -0.9280 O   0  0  0  0  0  0  0  0  0  0  0  0
    0.6100   -3.2130    6.8040 H   0  0  0  0  0  0  0  0  0  0  0  0
    2.0660   -4.1340    6.3330 H   0  0  0  0  0  0  0  0  0  0  0  0
    2.7100   -1.5340    7.9620 H   0  0  0  0  0  0  0  0  0  0  0  0
    1.9350   -2.2970    3.9930 H   0  0  0  0  0  0  0  0  0  0  0  0
    3.3680    0.0810    4.6880 H   0  0  0  0  0  0  0  0  0  0  0  0
    1.6540    0.5050    4.8370 H   0  0  0  0  0  0  0  0  0  0  0  0
    1.3310   -0.5380    2.4510 H   0  0  0  0  0  0  0  0  0  0  0  0
    3.0740   -0.7680    2.4380 H   0  0  0  0  0  0  0  0  0  0  0  0
    3.5530    1.5720    2.5750 H   0  0  0  0  0  0  0  0  0  0  0  0
    1.8910    2.0770    2.8780 H   0  0  0  0  0  0  0  0  0  0  0  0
    3.1740    0.7560    0.4210 H   0  0  0  0  0  0  0  0  0  0  0  0
    3.6350    2.9100    0.2890 H   0  0  0  0  0  0  0  0  0  0  0  0
    2.3040    2.6920   -0.6970 H   0  0  0  0  0  0  0  0  0  0  0  0
   -0.1340    0.8740    0.9910 N   0  0  0  0  0  0  0  0  0  0  0  0
   -1.4020    0.3860    0.3810 C   0  0  1  0  0  0  0  0  0  0  0  0
   -1.7450    1.3850   -0.6460 C   0  0  0  0  0  0  0  0  0  0  0  0
   -2.9920    1.1970   -1.4410 C   0  0  0  0  0  0  0  0  0  0  0  0
   -3.1280    2.3750   -2.3970 C   0  0  0  0  0  0  0  0  0  0  0  0
   -2.2520    3.2750   -2.3980 O   0  0  0  0  0  0  0  0  0  0  0  0
   -1.2230   -1.0050    0.0210 C   0  0  0  0  0  0  0  0  0  0  0  0
   -0.0330   -1.4910    0.1810 O   0  0  0  0  0  0  0  0  0  0  0  0
   -4.1840    2.4800   -3.2600 O   0  0  0  0  0  0  0  0  0  0  0  0
   -0.1320    1.2020    1.9860 H   0  0  0  0  0  0  0  0  0  0  0  0
   -2.1530    0.4600    1.2220 H   0  0  0  0  0  0  0  0  0  0  0  0
   -0.9040    1.6000   -1.3640 H   0  0  0  0  0  0  0  0  0  0  0  0
   -1.8620    2.3940   -0.1270 H   0  0  0  0  0  0  0  0  0  0  0  0
   -3.9190    1.2630   -0.8150 H   0  0  0  0  0  0  0  0  0  0  0  0
   -3.0630    0.2670   -2.0130 H   0  0  0  0  0  0  0  0  0  0  0  0
   -4.4340    3.2880   -3.7790 H   0  0  0  0  0  0  0  0  0  0  0  0
   -1.5960   -1.7090   -3.4920 C   0  0  0  0  0  0  0  0  0  0  0  0
   -1.3370   -3.1580   -3.2430 C   0  0  0  0  0  0  0  0  0  0  0  0
   -0.1590   -3.5500   -4.1530 C   0  0  0  0  0  0  0  0  0  0  0  0
   -0.9450   -3.5300   -1.8580 C   0  0  0  0  0  0  0  0  0  0  0  0
   -1.8750   -3.2420   -0.7580 C   0  0  2  0  0  0  0  0  0  0  0  0
   -2.2330   -1.8790   -0.4830 N   0  0  0  0  0  0  0  0  0  0  0  0
   -1.2860   -3.8310    0.5080 C   0  0  0  0  0  0  0  0  0  0  0  0
   -0.8310   -5.0250    0.4720 O   0  0  0  0  0  0  0  0  0  0  0  0
   -1.2050   -3.1750    1.6980 O   0  0  0  0  0  0  0  0  0  0  0  0
   -1.2330   -1.3960   -4.5260 H   0  0  0  0  0  0  0  0  0  0  0  0
   -1.0100   -1.0950   -2.8090 H   0  0  0  0  0  0  0  0  0  0  0  0
   -2.6840   -1.4780   -3.5340 H   0  0  0  0  0  0  0  0  0  0  0  0
   -2.2370   -3.7740   -3.5430 H   0  0  0  0  0  0  0  0  0  0  0  0
    0.7750   -3.3610   -3.5530 H   0  0  0  0  0  0  0  0  0  0  0  0
   -0.0880   -2.8750   -5.0260 H   0  0  0  0  0  0  0  0  0  0  0  0
   -0.1810   -4.6120   -4.3940 H   0  0  0  0  0  0  0  0  0  0  0  0
   -0.7610   -4.6560   -1.8780 H   0  0  0  0  0  0  0  0  0  0  0  0
    0.0990   -3.1440   -1.6390 H   0  0  0  0  0  0  0  0  0  0  0  0
   -2.8160   -3.8680   -0.9110 H   0  0  0  0  0  0  0  0  0  0  0  0
   -3.1970   -1.5190   -0.6200 H   0  0  0  0  0  0  0  0  0  0  0  0
  1 12  1  0  0  0  0
  2  1  1  0  0  0  0
  2  3  2  0  0  0  0
  3 14  1  0  0  0  0
  4  2  1  0  0  0  0
  5 16  1  0  0  0  0
  5  4  1  0  0  0  0
  5 17  1  0  0  0  0
  6  5  1  0  0  0  0
  7 20  1  0  0  0  0
  7  6  1  0  0  0  0
  7 21  1  0  0  0  0
  8 22  1  6  0  0  0
  8  7  1  0  0  0  0
  9  8  1  0  0  0  0
 10  8  1  0  0  0  0
 10 25  1  0  0  0  0
 11 10  2  0  0  0  0
 13  1  1  0  0  0  0
 15  4  1  0  0  0  0
 18  6  1  0  0  0  0
 19  6  1  0  0  0  0
 23  9  1  0  0  0  0
 24  9  1  0  0  0  0
 25 34  1  0  0  0  0
 26 25  1  0  0  0  0
 26 35  1  1  0  0  0
 27 37  1  0  0  0  0
 27 26  1  0  0  0  0
 28 38  1  0  0  0  0
 28 27  1  0  0  0  0
 29 28  1  0  0  0  0
 30 29  2  0  0  0  0
 31 32  2  0  0  0  0
 31 26  1  0  0  0  0
 33 29  1  0  0  0  0
 36 27  1  0  0  0  0
 39 28  1  0  0  0  0
 40 33  1  0  0  0  0
 41 42  1  0  0  0  0
 41 51  1  0  0  0  0
 42 44  1  0  0  0  0
 43 54  1  0  0  0  0
 43 42  1  0  0  0  0
 44 58  1  0  0  0  0
 44 45  1  0  0  0  0
 45 59  1  6  0  0  0
 45 46  1  0  0  0  0
 45 47  1  0  0  0  0
 46 31  1  0  0  0  0
 47 49  1  0  0  0  0
 48 47  2  0  0  0  0
 50 41  1  0  0  0  0
 52 41  1  0  0  0  0
 53 42  1  0  0  0  0
 55 43  1  0  0  0  0
 56 43  1  0  0  0  0
 57 44  1  0  0  0  0
 60 46  1  0  0  0  0
M  END
$$$$
