REM.pdb
 OpenBabel07022418043D

 58 57  0  0  1  0  0  0  0  0999 V2000
    2.8820   -2.4770    4.2040 N   0  0  0  0  0  0  0  0  0  0  0  0
    3.9620   -2.0270    3.3960 C   0  0  0  0  0  0  0  0  0  0  0  0
    5.0790   -1.6910    3.9750 N   0  0  0  0  0  0  0  0  0  0  0  0
    3.8520   -1.9340    1.9840 N   0  0  0  0  0  0  0  0  0  0  0  0
    4.5610   -0.8900    1.2780 C   0  0  0  0  0  0  0  0  0  0  0  0
    4.3440   -0.9230   -0.1940 C   0  0  0  0  0  0  0  0  0  0  0  0
    2.9450   -0.7950   -0.6700 C   0  0  0  0  0  0  0  0  0  0  0  0
    2.2800    0.4660   -0.2660 C   0  0  2  0  0  0  0  0  0  0  0  0
    2.2010    0.6010    1.1720 N   0  0  0  0  0  0  0  0  0  0  0  0
    0.8970    0.5960   -0.8000 C   0  0  0  0  0  0  0  0  0  0  0  0
    0.7440    0.5430   -2.0440 O   0  0  0  0  0  0  0  0  0  0  0  0
    2.0480   -1.8960    4.4260 H   0  0  0  0  0  0  0  0  0  0  0  0
    2.9110   -3.4380    4.6020 H   0  0  0  0  0  0  0  0  0  0  0  0
    5.2230   -1.7360    5.0030 H   0  0  0  0  0  0  0  0  0  0  0  0
    3.2540   -2.6310    1.5020 H   0  0  0  0  0  0  0  0  0  0  0  0
    5.6640   -1.0860    1.5010 H   0  0  0  0  0  0  0  0  0  0  0  0
    4.3970    0.1140    1.7130 H   0  0  0  0  0  0  0  0  0  0  0  0
    4.9230   -0.0860   -0.6940 H   0  0  0  0  0  0  0  0  0  0  0  0
    4.8100   -1.8430   -0.6590 H   0  0  0  0  0  0  0  0  0  0  0  0
    2.3640   -1.7100   -0.4100 H   0  0  0  0  0  0  0  0  0  0  0  0
    2.9500   -0.8070   -1.8030 H   0  0  0  0  0  0  0  0  0  0  0  0
    2.9130    1.3390   -0.6070 H   0  0  0  0  0  0  0  0  0  0  0  0
    1.6680   -0.1980    1.6080 H   0  0  0  0  0  0  0  0  0  0  0  0
    1.8610    1.5160    1.4840 H   0  0  0  0  0  0  0  0  0  0  0  0
   -0.2410    0.7740   -0.0050 N   0  0  0  0  0  0  0  0  0  0  0  0
   -1.5940    0.9300   -0.3850 C   0  0  1  0  0  0  0  0  0  0  0  0
   -1.8560    1.4080   -1.7910 C   0  0  0  0  0  0  0  0  0  0  0  0
   -1.3110    2.7870   -2.0480 C   0  0  0  0  0  0  0  0  0  0  0  0
   -1.9540    3.7990   -1.1380 C   0  0  0  0  0  0  0  0  0  0  0  0
   -1.4440    4.0700   -0.0300 O   0  0  0  0  0  0  0  0  0  0  0  0
   -2.4250   -0.1950    0.0480 C   0  0  0  0  0  0  0  0  0  0  0  0
   -3.6590   -0.2930   -0.1790 O   0  0  0  0  0  0  0  0  0  0  0  0
   -3.1030    4.4150   -1.5430 O   0  0  0  0  0  0  0  0  0  0  0  0
   -0.0420    0.7930    1.0470 H   0  0  0  0  0  0  0  0  0  0  0  0
   -1.9660    1.8490    0.2230 H   0  0  0  0  0  0  0  0  0  0  0  0
   -2.9790    1.5190   -1.8540 H   0  0  0  0  0  0  0  0  0  0  0  0
   -1.5940    0.6830   -2.5620 H   0  0  0  0  0  0  0  0  0  0  0  0
   -0.2310    2.9140   -1.8580 H   0  0  0  0  0  0  0  0  0  0  0  0
   -1.5760    3.1350   -3.0910 H   0  0  0  0  0  0  0  0  0  0  0  0
   -3.5810    5.0770   -0.9340 H   0  0  0  0  0  0  0  0  0  0  0  0
   -3.4770   -3.0440   -1.9400 C   0  0  0  0  0  0  0  0  0  0  0  0
   -2.8860   -4.5870   -1.2680 S   0  0  0  0  0  0  0  0  0  0  0  0
   -1.6150   -4.3530   -0.0280 C   0  0  0  0  0  0  0  0  0  0  0  0
   -2.1070   -3.7610    1.2550 C   0  0  0  0  0  0  0  0  0  0  0  0
   -2.6770   -2.4260    1.2220 C   0  0  2  0  0  0  0  0  0  0  0  0
   -1.9050   -1.3170    0.7870 N   0  0  0  0  0  0  0  0  0  0  0  0
   -3.0460   -2.0910    2.6730 C   0  0  0  0  0  0  0  0  0  0  0  0
   -3.7310   -2.8770    3.3630 O   0  0  0  0  0  0  0  0  0  0  0  0
   -2.6380   -0.9120    3.2710 O   0  0  0  0  0  0  0  0  0  0  0  0
   -2.6920   -2.2830   -1.8180 H   0  0  0  0  0  0  0  0  0  0  0  0
   -3.6870   -3.2180   -3.0320 H   0  0  0  0  0  0  0  0  0  0  0  0
   -4.4350   -2.7720   -1.4530 H   0  0  0  0  0  0  0  0  0  0  0  0
   -1.1680   -5.3860    0.1460 H   0  0  0  0  0  0  0  0  0  0  0  0
   -0.7310   -3.7900   -0.4360 H   0  0  0  0  0  0  0  0  0  0  0  0
   -1.3990   -3.9560    2.1040 H   0  0  0  0  0  0  0  0  0  0  0  0
   -2.9750   -4.4460    1.5620 H   0  0  0  0  0  0  0  0  0  0  0  0
   -3.6580   -2.4100    0.7220 H   0  0  0  0  0  0  0  0  0  0  0  0
   -0.8900   -1.3170    1.0210 H   0  0  0  0  0  0  0  0  0  0  0  0
  1 12  1  0  0  0  0
  1 13  1  0  0  0  0
  2  3  2  0  0  0  0
  2  1  1  0  0  0  0
  3 14  1  0  0  0  0
  4  2  1  0  0  0  0
  5 16  1  0  0  0  0
  5 17  1  0  0  0  0
  5  4  1  0  0  0  0
  6  5  1  0  0  0  0
  7 20  1  0  0  0  0
  7  8  1  0  0  0  0
  7  6  1  0  0  0  0
  8 22  1  6  0  0  0
  8  9  1  0  0  0  0
  9 24  1  0  0  0  0
  9 23  1  0  0  0  0
 10  8  1  0  0  0  0
 10 25  1  0  0  0  0
 11 10  2  0  0  0  0
 15  4  1  0  0  0  0
 18  6  1  0  0  0  0
 19  6  1  0  0  0  0
 21  7  1  0  0  0  0
 25 34  1  0  0  0  0
 26 25  1  0  0  0  0
 26 31  1  0  0  0  0
 26 35  1  1  0  0  0
 27 26  1  0  0  0  0
 28 38  1  0  0  0  0
 28 27  1  0  0  0  0
 28 29  1  0  0  0  0
 29 30  2  0  0  0  0
 31 46  1  0  0  0  0
 32 31  2  0  0  0  0
 33 29  1  0  0  0  0
 33 40  1  0  0  0  0
 36 27  1  0  0  0  0
 37 27  1  0  0  0  0
 39 28  1  0  0  0  0
 41 50  1  0  0  0  0
 41 52  1  0  0  0  0
 41 42  1  0  0  0  0
 42 43  1  0  0  0  0
 43 53  1  0  0  0  0
 43 44  1  0  0  0  0
 44 56  1  0  0  0  0
 44 55  1  0  0  0  0
 45 57  1  6  0  0  0
 45 44  1  0  0  0  0
 45 47  1  0  0  0  0
 46 58  1  0  0  0  0
 46 45  1  0  0  0  0
 47 49  2  0  0  0  0
 47 48  1  0  0  0  0
 51 41  1  0  0  0  0
 54 43  1  0  0  0  0
M  END
$$$$
