RER.pdb
 OpenBabel07022418043D

 64 63  0  0  1  0  0  0  0  0999 V2000
    4.6800   -3.8260    1.1400 N   0  0  0  0  0  0  0  0  0  0  0  0
    5.3570   -2.7450    1.8100 C   0  0  0  0  0  0  0  0  0  0  0  0
    6.0390   -2.9960    2.8980 N   0  0  0  0  0  0  0  0  0  0  0  0
    5.2620   -1.4430    1.2720 N   0  0  0  0  0  0  0  0  0  0  0  0
    5.2890   -0.3160    2.1770 C   0  0  0  0  0  0  0  0  0  0  0  0
    5.1890    1.0020    1.4770 C   0  0  0  0  0  0  0  0  0  0  0  0
    3.9550    1.1350    0.6680 C   0  0  0  0  0  0  0  0  0  0  0  0
    2.6550    1.0040    1.4140 C   0  0  2  0  0  0  0  0  0  0  0  0
    2.5260   -0.2800    2.0340 N   0  0  0  0  0  0  0  0  0  0  0  0
    1.5780    1.2790    0.4280 C   0  0  0  0  0  0  0  0  0  0  0  0
    1.5930    2.3960   -0.1390 O   0  0  0  0  0  0  0  0  0  0  0  0
    5.1780   -4.6040    0.6690 H   0  0  0  0  0  0  0  0  0  0  0  0
    3.6210   -3.8400    1.1210 H   0  0  0  0  0  0  0  0  0  0  0  0
    6.0780   -3.9720    3.2550 H   0  0  0  0  0  0  0  0  0  0  0  0
    5.1750   -1.3030    0.2510 H   0  0  0  0  0  0  0  0  0  0  0  0
    6.3280   -0.3820    2.6590 H   0  0  0  0  0  0  0  0  0  0  0  0
    4.6070   -0.4220    3.0280 H   0  0  0  0  0  0  0  0  0  0  0  0
    6.0580    1.0600    0.7500 H   0  0  0  0  0  0  0  0  0  0  0  0
    5.2690    1.8550    2.2000 H   0  0  0  0  0  0  0  0  0  0  0  0
    3.8990    0.3970   -0.1740 H   0  0  0  0  0  0  0  0  0  0  0  0
    3.8950    2.1320    0.1340 H   0  0  0  0  0  0  0  0  0  0  0  0
    2.5980    1.7510    2.2600 H   0  0  0  0  0  0  0  0  0  0  0  0
    2.3910   -1.0660    1.3850 H   0  0  0  0  0  0  0  0  0  0  0  0
    1.8970   -0.3190    2.8440 H   0  0  0  0  0  0  0  0  0  0  0  0
    0.5970    0.3100    0.1610 N   0  0  0  0  0  0  0  0  0  0  0  0
   -0.5060    0.5830   -0.8420 C   0  0  1  0  0  0  0  0  0  0  0  0
   -0.3230   -0.3630   -1.9410 C   0  0  0  0  0  0  0  0  0  0  0  0
   -1.1710   -0.3860   -3.1340 C   0  0  0  0  0  0  0  0  0  0  0  0
   -2.5740   -0.6910   -3.1080 C   0  0  0  0  0  0  0  0  0  0  0  0
   -3.4490    0.1280   -3.4370 O   0  0  0  0  0  0  0  0  0  0  0  0
   -1.7030    0.5940   -0.0110 C   0  0  0  0  0  0  0  0  0  0  0  0
   -1.5630    0.1590    1.1870 O   0  0  0  0  0  0  0  0  0  0  0  0
   -3.0160   -1.9430   -2.7070 O   0  0  0  0  0  0  0  0  0  0  0  0
    0.5470   -0.6190    0.6000 H   0  0  0  0  0  0  0  0  0  0  0  0
   -0.3070    1.6190   -1.1860 H   0  0  0  0  0  0  0  0  0  0  0  0
   -0.2100   -1.4400   -1.5520 H   0  0  0  0  0  0  0  0  0  0  0  0
    0.7540   -0.2250   -2.3550 H   0  0  0  0  0  0  0  0  0  0  0  0
   -0.6780   -1.0460   -3.9470 H   0  0  0  0  0  0  0  0  0  0  0  0
   -1.0140    0.6500   -3.6410 H   0  0  0  0  0  0  0  0  0  0  0  0
   -3.9310   -2.2560   -3.0430 H   0  0  0  0  0  0  0  0  0  0  0  0
   -2.0970   -3.9740   -0.5610 N   0  0  0  0  0  0  0  0  0  0  0  0
   -2.2260   -3.2190    0.6220 C   0  0  0  0  0  0  0  0  0  0  0  0
   -1.4660   -3.3760    1.6460 N   0  0  0  0  0  0  0  0  0  0  0  0
   -3.2390   -2.2190    0.7370 N   0  0  0  0  0  0  0  0  0  0  0  0
   -3.7250   -1.8630    2.0440 C   0  0  0  0  0  0  0  0  0  0  0  0
   -4.7330   -0.8240    2.0270 C   0  0  0  0  0  0  0  0  0  0  0  0
   -4.6120    0.5530    1.6020 C   0  0  0  0  0  0  0  0  0  0  0  0
   -4.2220    1.0760    0.3170 C   0  0  2  0  0  0  0  0  0  0  0  0
   -2.9920    1.0240   -0.3320 N   0  0  0  0  0  0  0  0  0  0  0  0
   -4.9750    2.3650    0.0340 C   0  0  0  0  0  0  0  0  0  0  0  0
   -6.0900    2.5910    0.5230 O   0  0  0  0  0  0  0  0  0  0  0  0
   -4.3280    3.2610   -0.8030 O   0  0  0  0  0  0  0  0  0  0  0  0
   -2.6620   -4.8240   -0.7330 H   0  0  0  0  0  0  0  0  0  0  0  0
   -1.4020   -3.6490   -1.2780 H   0  0  0  0  0  0  0  0  0  0  0  0
   -0.7210   -4.0950    1.5960 H   0  0  0  0  0  0  0  0  0  0  0  0
   -3.6370   -1.7410   -0.0960 H   0  0  0  0  0  0  0  0  0  0  0  0
   -4.1820   -2.8340    2.4640 H   0  0  0  0  0  0  0  0  0  0  0  0
   -2.9000   -1.5740    2.7400 H   0  0  0  0  0  0  0  0  0  0  0  0
   -5.1300   -0.7560    3.1310 H   0  0  0  0  0  0  0  0  0  0  0  0
   -5.7400   -1.2710    1.5810 H   0  0  0  0  0  0  0  0  0  0  0  0
   -4.0380    1.0840    2.4650 H   0  0  0  0  0  0  0  0  0  0  0  0
   -5.6640    1.0180    1.8270 H   0  0  0  0  0  0  0  0  0  0  0  0
   -4.8870    0.3430   -0.3990 H   0  0  0  0  0  0  0  0  0  0  0  0
   -2.9770    1.4770   -1.3450 H   0  0  0  0  0  0  0  0  0  0  0  0
  1  2  1  0  0  0  0
  2  3  2  0  0  0  0
  3 14  1  0  0  0  0
  4  2  1  0  0  0  0
  4  5  1  0  0  0  0
  5 16  1  0  0  0  0
  5 17  1  0  0  0  0
  6  5  1  0  0  0  0
  6 19  1  0  0  0  0
  7  8  1  0  0  0  0
  7  6  1  0  0  0  0
  8  9  1  0  0  0  0
  8 22  1  1  0  0  0
  9 24  1  0  0  0  0
 10  8  1  0  0  0  0
 11 10  2  0  0  0  0
 12  1  1  0  0  0  0
 13  1  1  0  0  0  0
 15  4  1  0  0  0  0
 18  6  1  0  0  0  0
 20  7  1  0  0  0  0
 21  7  1  0  0  0  0
 23  9  1  0  0  0  0
 25 10  1  0  0  0  0
 25 34  1  0  0  0  0
 26 35  1  6  0  0  0
 26 31  1  0  0  0  0
 26 25  1  0  0  0  0
 27 36  1  0  0  0  0
 27 26  1  0  0  0  0
 28 29  1  0  0  0  0
 28 27  1  0  0  0  0
 29 33  1  0  0  0  0
 30 29  2  0  0  0  0
 31 32  2  0  0  0  0
 37 27  1  0  0  0  0
 38 28  1  0  0  0  0
 39 28  1  0  0  0  0
 40 33  1  0  0  0  0
 41 42  1  0  0  0  0
 42 44  1  0  0  0  0
 42 43  2  0  0  0  0
 44 45  1  0  0  0  0
 45 57  1  0  0  0  0
 45 58  1  0  0  0  0
 46 45  1  0  0  0  0
 46 59  1  0  0  0  0
 47 62  1  0  0  0  0
 47 46  1  0  0  0  0
 47 61  1  0  0  0  0
 48 63  1  6  0  0  0
 48 47  1  0  0  0  0
 49 31  1  0  0  0  0
 49 48  1  0  0  0  0
 50 48  1  0  0  0  0
 50 51  1  0  0  0  0
 52 50  2  0  0  0  0
 53 41  1  0  0  0  0
 54 41  1  0  0  0  0
 55 43  1  0  0  0  0
 56 44  1  0  0  0  0
 60 46  1  0  0  0  0
 64 49  1  0  0  0  0
M  END
$$$$
