RES.pdb
 OpenBabel07022418043D

 52 51  0  0  1  0  0  0  0  0999 V2000
    2.8760   -3.3120    3.5520 N   0  0  0  0  0  0  0  0  0  0  0  0
    2.4240   -1.9640    3.5130 C   0  0  0  0  0  0  0  0  0  0  0  0
    1.2450   -1.7130    3.9980 N   0  0  0  0  0  0  0  0  0  0  0  0
    3.1650   -0.8950    2.9860 N   0  0  0  0  0  0  0  0  0  0  0  0
    2.5760    0.4520    2.9860 C   0  0  0  0  0  0  0  0  0  0  0  0
    3.4900    1.4690    2.3940 C   0  0  0  0  0  0  0  0  0  0  0  0
    3.8990    1.3030    0.9850 C   0  0  0  0  0  0  0  0  0  0  0  0
    2.8590    1.3570   -0.0720 C   0  0  2  0  0  0  0  0  0  0  0  0
    2.1550    2.6400   -0.0280 N   0  0  0  0  0  0  0  0  0  0  0  0
    1.8930    0.2590    0.0130 C   0  0  0  0  0  0  0  0  0  0  0  0
    2.2390   -0.9680    0.0630 O   0  0  0  0  0  0  0  0  0  0  0  0
    3.8920   -3.5510    3.5540 H   0  0  0  0  0  0  0  0  0  0  0  0
    2.1950   -4.0960    3.5800 H   0  0  0  0  0  0  0  0  0  0  0  0
    0.6350   -2.4460    4.4060 H   0  0  0  0  0  0  0  0  0  0  0  0
    4.1130   -1.0640    2.6040 H   0  0  0  0  0  0  0  0  0  0  0  0
    1.5920    0.4830    2.5290 H   0  0  0  0  0  0  0  0  0  0  0  0
    2.4140    0.7480    4.0580 H   0  0  0  0  0  0  0  0  0  0  0  0
    4.3880    1.5490    3.0810 H   0  0  0  0  0  0  0  0  0  0  0  0
    2.9790    2.4670    2.5570 H   0  0  0  0  0  0  0  0  0  0  0  0
    4.6890    2.0680    0.7530 H   0  0  0  0  0  0  0  0  0  0  0  0
    4.4870    0.3300    0.9240 H   0  0  0  0  0  0  0  0  0  0  0  0
    3.3510    1.3630   -1.1030 H   0  0  0  0  0  0  0  0  0  0  0  0
    2.9010    3.3910   -0.0350 H   0  0  0  0  0  0  0  0  0  0  0  0
    1.6290    2.7410   -0.9400 H   0  0  0  0  0  0  0  0  0  0  0  0
    0.4770    0.4660    0.0410 N   0  0  0  0  0  0  0  0  0  0  0  0
   -0.4710   -0.6720    0.1170 C   0  0  1  0  0  0  0  0  0  0  0  0
   -1.3080   -0.3900    1.3150 C   0  0  0  0  0  0  0  0  0  0  0  0
   -2.3740   -1.3520    1.6720 C   0  0  0  0  0  0  0  0  0  0  0  0
   -3.0370   -0.8750    2.9140 C   0  0  0  0  0  0  0  0  0  0  0  0
   -2.6470    0.1770    3.4460 O   0  0  0  0  0  0  0  0  0  0  0  0
   -1.3230   -0.6920   -1.0900 C   0  0  0  0  0  0  0  0  0  0  0  0
   -1.2710    0.3230   -1.8610 O   0  0  0  0  0  0  0  0  0  0  0  0
   -4.0760   -1.5780    3.4830 O   0  0  0  0  0  0  0  0  0  0  0  0
    0.1560    1.4490    0.0060 H   0  0  0  0  0  0  0  0  0  0  0  0
    0.0780   -1.6170    0.2160 H   0  0  0  0  0  0  0  0  0  0  0  0
   -0.5930   -0.3670    2.1940 H   0  0  0  0  0  0  0  0  0  0  0  0
   -1.7080    0.6560    1.2640 H   0  0  0  0  0  0  0  0  0  0  0  0
   -1.9440   -2.3440    1.8960 H   0  0  0  0  0  0  0  0  0  0  0  0
   -3.1570   -1.4650    0.8830 H   0  0  0  0  0  0  0  0  0  0  0  0
   -4.7600   -1.0890    4.0510 H   0  0  0  0  0  0  0  0  0  0  0  0
   -3.4570   -2.6040   -4.7910 O   0  0  0  0  0  0  0  0  0  0  0  0
   -2.6240   -2.7520   -3.6820 C   0  0  0  0  0  0  0  0  0  0  0  0
   -3.0000   -1.6620   -2.7030 C   0  0  2  0  0  0  0  0  0  0  0  0
   -2.1940   -1.7140   -1.4990 N   0  0  0  0  0  0  0  0  0  0  0  0
   -4.4150   -1.8470   -2.3520 C   0  0  0  0  0  0  0  0  0  0  0  0
   -5.2670   -1.8180   -3.3000 O   0  0  0  0  0  0  0  0  0  0  0  0
   -4.9220   -2.0500   -1.0910 O   0  0  0  0  0  0  0  0  0  0  0  0
   -3.4510   -1.6480   -5.0450 H   0  0  0  0  0  0  0  0  0  0  0  0
   -1.5770   -2.5610   -4.0610 H   0  0  0  0  0  0  0  0  0  0  0  0
   -2.7270   -3.7610   -3.2760 H   0  0  0  0  0  0  0  0  0  0  0  0
   -2.8750   -0.6960   -3.2350 H   0  0  0  0  0  0  0  0  0  0  0  0
   -2.2610   -2.5740   -0.9190 H   0  0  0  0  0  0  0  0  0  0  0  0
  1 12  1  0  0  0  0
  1 13  1  0  0  0  0
  2  1  1  0  0  0  0
  2  3  2  0  0  0  0
  3 14  1  0  0  0  0
  4  5  1  0  0  0  0
  4  2  1  0  0  0  0
  5 17  1  0  0  0  0
  6 19  1  0  0  0  0
  6  5  1  0  0  0  0
  6 18  1  0  0  0  0
  7  6  1  0  0  0  0
  8 22  1  6  0  0  0
  8  9  1  0  0  0  0
  8 10  1  0  0  0  0
  8  7  1  0  0  0  0
 10 25  1  0  0  0  0
 10 11  2  0  0  0  0
 15  4  1  0  0  0  0
 16  5  1  0  0  0  0
 20  7  1  0  0  0  0
 21  7  1  0  0  0  0
 23  9  1  0  0  0  0
 24  9  1  0  0  0  0
 25 26  1  0  0  0  0
 26 35  1  1  0  0  0
 26 27  1  0  0  0  0
 27 28  1  0  0  0  0
 27 36  1  0  0  0  0
 28 38  1  0  0  0  0
 28 29  1  0  0  0  0
 29 30  2  0  0  0  0
 29 33  1  0  0  0  0
 31 26  1  0  0  0  0
 32 31  2  0  0  0  0
 33 40  1  0  0  0  0
 34 25  1  0  0  0  0
 37 27  1  0  0  0  0
 39 28  1  0  0  0  0
 41 42  1  0  0  0  0
 42 50  1  0  0  0  0
 42 43  1  0  0  0  0
 43 51  1  6  0  0  0
 43 45  1  0  0  0  0
 43 44  1  0  0  0  0
 44 31  1  0  0  0  0
 44 52  1  0  0  0  0
 45 47  1  0  0  0  0
 46 45  2  0  0  0  0
 48 41  1  0  0  0  0
 49 42  1  0  0  0  0
M  END
$$$$
