REY.pdb
 OpenBabel07022418043D

 62 62  0  0  1  0  0  0  0  0999 V2000
    3.7420    3.4480    3.5650 N   0  0  0  0  0  0  0  0  0  0  0  0
    4.3320    2.5350    2.6500 C   0  0  0  0  0  0  0  0  0  0  0  0
    4.1980    1.2620    2.9250 N   0  0  0  0  0  0  0  0  0  0  0  0
    5.0340    2.9480    1.4930 N   0  0  0  0  0  0  0  0  0  0  0  0
    5.2790    2.0550    0.3900 C   0  0  0  0  0  0  0  0  0  0  0  0
    3.9460    1.7630   -0.2620 C   0  0  0  0  0  0  0  0  0  0  0  0
    4.1410    0.8350   -1.4240 C   0  0  0  0  0  0  0  0  0  0  0  0
    2.8200    0.5220   -2.1050 C   0  0  2  0  0  0  0  0  0  0  0  0
    2.1820    1.7070   -2.6090 N   0  0  0  0  0  0  0  0  0  0  0  0
    1.9270   -0.3020   -1.2840 C   0  0  0  0  0  0  0  0  0  0  0  0
    2.3940   -1.3720   -0.8040 O   0  0  0  0  0  0  0  0  0  0  0  0
    4.2710    4.2620    3.9410 H   0  0  0  0  0  0  0  0  0  0  0  0
    2.7570    3.3520    3.9050 H   0  0  0  0  0  0  0  0  0  0  0  0
    3.6870    0.9340    3.7690 H   0  0  0  0  0  0  0  0  0  0  0  0
    5.3800    3.9190    1.4410 H   0  0  0  0  0  0  0  0  0  0  0  0
    5.9870    2.5290   -0.3200 H   0  0  0  0  0  0  0  0  0  0  0  0
    5.7390    1.1380    0.8190 H   0  0  0  0  0  0  0  0  0  0  0  0
    3.5430    2.7190   -0.6150 H   0  0  0  0  0  0  0  0  0  0  0  0
    3.2810    1.3720    0.5130 H   0  0  0  0  0  0  0  0  0  0  0  0
    4.6370   -0.0870   -1.0670 H   0  0  0  0  0  0  0  0  0  0  0  0
    4.8110    1.3130   -2.1430 H   0  0  0  0  0  0  0  0  0  0  0  0
    3.0950   -0.1010   -3.0080 H   0  0  0  0  0  0  0  0  0  0  0  0
    1.7320    1.5480   -3.5430 H   0  0  0  0  0  0  0  0  0  0  0  0
    2.8890    2.4540   -2.6510 H   0  0  0  0  0  0  0  0  0  0  0  0
    0.5620    0.0600   -1.0100 N   0  0  0  0  0  0  0  0  0  0  0  0
   -0.3150   -0.7370   -0.2120 C   0  0  1  0  0  0  0  0  0  0  0  0
   -0.5550   -0.3300    1.1780 C   0  0  0  0  0  0  0  0  0  0  0  0
   -1.1270    0.9560    1.5420 C   0  0  0  0  0  0  0  0  0  0  0  0
   -0.4370    2.1910    1.2380 C   0  0  0  0  0  0  0  0  0  0  0  0
    0.7070    2.3050    0.7510 O   0  0  0  0  0  0  0  0  0  0  0  0
   -1.5390   -1.1460   -0.9740 C   0  0  0  0  0  0  0  0  0  0  0  0
   -1.6990   -0.7510   -2.1830 O   0  0  0  0  0  0  0  0  0  0  0  0
   -1.0980    3.3930    1.5080 O   0  0  0  0  0  0  0  0  0  0  0  0
    0.2800    0.9690   -1.4860 H   0  0  0  0  0  0  0  0  0  0  0  0
    0.2380   -1.7380   -0.0970 H   0  0  0  0  0  0  0  0  0  0  0  0
    0.4410   -0.4390    1.7270 H   0  0  0  0  0  0  0  0  0  0  0  0
   -1.1620   -1.1460    1.6720 H   0  0  0  0  0  0  0  0  0  0  0  0
   -1.2720    0.9560    2.6720 H   0  0  0  0  0  0  0  0  0  0  0  0
   -2.2170    0.9750    1.2080 H   0  0  0  0  0  0  0  0  0  0  0  0
   -0.6450    4.2850    1.3620 H   0  0  0  0  0  0  0  0  0  0  0  0
   -3.9940   -6.4910    3.7730 O   0  0  0  0  0  0  0  0  0  0  0  0
   -3.9270   -5.8440    2.5310 C   0  0  0  0  0  0  0  0  0  0  0  0
   -2.7300   -5.5830    1.9020 C   0  0  0  0  0  0  0  0  0  0  0  0
   -2.6690   -4.9480    0.6850 C   0  0  0  0  0  0  0  0  0  0  0  0
   -3.8300   -4.5570    0.0680 C   0  0  0  0  0  0  0  0  0  0  0  0
   -3.8070   -3.8680   -1.2500 C   0  0  0  0  0  0  0  0  0  0  0  0
   -3.7220   -2.3750   -1.1040 C   0  0  2  0  0  0  0  0  0  0  0  0
   -2.5200   -1.9600   -0.3910 N   0  0  0  0  0  0  0  0  0  0  0  0
   -4.9130   -1.7820   -0.4480 C   0  0  0  0  0  0  0  0  0  0  0  0
   -4.8570   -1.0570    0.5650 O   0  0  0  0  0  0  0  0  0  0  0  0
   -5.0280   -4.8020    0.6670 C   0  0  0  0  0  0  0  0  0  0  0  0
   -5.0660   -5.4420    1.8910 C   0  0  0  0  0  0  0  0  0  0  0  0
   -6.1570   -2.0600   -1.0090 O   0  0  0  0  0  0  0  0  0  0  0  0
   -4.1990   -5.9760    4.6140 H   0  0  0  0  0  0  0  0  0  0  0  0
   -1.8080   -5.9010    2.4070 H   0  0  0  0  0  0  0  0  0  0  0  0
   -1.6990   -4.7750    0.2470 H   0  0  0  0  0  0  0  0  0  0  0  0
   -4.7160   -4.0900   -1.8340 H   0  0  0  0  0  0  0  0  0  0  0  0
   -2.9390   -4.1900   -1.8520 H   0  0  0  0  0  0  0  0  0  0  0  0
   -3.6780   -1.9360   -2.1210 H   0  0  0  0  0  0  0  0  0  0  0  0
   -2.3910   -2.2860    0.5860 H   0  0  0  0  0  0  0  0  0  0  0  0
   -5.9880   -4.5100    0.2150 H   0  0  0  0  0  0  0  0  0  0  0  0
   -6.0380   -5.6220    2.3420 H   0  0  0  0  0  0  0  0  0  0  0  0
  1 13  1  0  0  0  0
  1 12  1  0  0  0  0
  2  3  2  0  0  0  0
  2  1  1  0  0  0  0
  3 14  1  0  0  0  0
  4  2  1  0  0  0  0
  5 17  1  0  0  0  0
  5  4  1  0  0  0  0
  6  5  1  0  0  0  0
  6 19  1  0  0  0  0
  7 20  1  0  0  0  0
  7  6  1  0  0  0  0
  8 22  1  6  0  0  0
  8  7  1  0  0  0  0
  8 10  1  0  0  0  0
  9  8  1  0  0  0  0
 10 25  1  0  0  0  0
 10 11  2  0  0  0  0
 15  4  1  0  0  0  0
 16  5  1  0  0  0  0
 18  6  1  0  0  0  0
 21  7  1  0  0  0  0
 23  9  1  0  0  0  0
 24  9  1  0  0  0  0
 25 26  1  0  0  0  0
 26 35  1  1  0  0  0
 26 27  1  0  0  0  0
 27 28  1  0  0  0  0
 27 37  1  0  0  0  0
 27 36  1  0  0  0  0
 28 38  1  0  0  0  0
 29 33  1  0  0  0  0
 29 28  1  0  0  0  0
 30 29  2  0  0  0  0
 31 48  1  0  0  0  0
 31 26  1  0  0  0  0
 32 31  2  0  0  0  0
 34 25  1  0  0  0  0
 39 28  1  0  0  0  0
 40 33  1  0  0  0  0
 41 54  1  0  0  0  0
 42 41  1  0  0  0  0
 43 55  1  0  0  0  0
 43 42  1  0  0  0  0
 44 43  2  0  0  0  0
 45 51  2  0  0  0  0
 45 44  1  0  0  0  0
 46 47  1  0  0  0  0
 46 45  1  0  0  0  0
 47 59  1  6  0  0  0
 47 49  1  0  0  0  0
 47 48  1  0  0  0  0
 48 60  1  0  0  0  0
 49 50  1  0  0  0  0
 51 52  1  0  0  0  0
 52 62  1  0  0  0  0
 52 42  2  0  0  0  0
 53 49  2  0  0  0  0
 56 44  1  0  0  0  0
 57 46  1  0  0  0  0
 58 46  1  0  0  0  0
 61 51  1  0  0  0  0
M  END
$$$$
