RFA.pdb
 OpenBabel07022418063D

 55 55  0  0  1  0  0  0  0  0999 V2000
    2.6840   -4.2940    5.0970 N   0  0  0  0  0  0  0  0  0  0  0  0
    3.4310   -3.8490    3.9800 C   0  0  0  0  0  0  0  0  0  0  0  0
    4.5030   -4.4770    3.6600 N   0  0  0  0  0  0  0  0  0  0  0  0
    2.9920   -2.7120    3.2220 N   0  0  0  0  0  0  0  0  0  0  0  0
    3.9700   -2.0610    2.4080 C   0  0  0  0  0  0  0  0  0  0  0  0
    3.4580   -0.8820    1.6380 C   0  0  0  0  0  0  0  0  0  0  0  0
    2.9070    0.2140    2.4550 C   0  0  0  0  0  0  0  0  0  0  0  0
    2.4320    1.3740    1.6070 C   0  0  2  0  0  0  0  0  0  0  0  0
    1.9280    2.3580    2.6010 N   0  0  0  0  0  0  0  0  0  0  0  0
    1.3250    1.0170    0.6920 C   0  0  0  0  0  0  0  0  0  0  0  0
    1.5730    0.3000   -0.3020 O   0  0  0  0  0  0  0  0  0  0  0  0
    2.0880   -5.1420    5.0720 H   0  0  0  0  0  0  0  0  0  0  0  0
    2.7300   -3.7530    5.9820 H   0  0  0  0  0  0  0  0  0  0  0  0
    4.8000   -5.2960    4.2240 H   0  0  0  0  0  0  0  0  0  0  0  0
    2.0030   -2.4540    3.3230 H   0  0  0  0  0  0  0  0  0  0  0  0
    4.8150   -1.7580    3.0600 H   0  0  0  0  0  0  0  0  0  0  0  0
    4.3760   -2.7970    1.6830 H   0  0  0  0  0  0  0  0  0  0  0  0
    2.6510   -1.2500    0.9370 H   0  0  0  0  0  0  0  0  0  0  0  0
    4.2590   -0.4870    0.9850 H   0  0  0  0  0  0  0  0  0  0  0  0
    2.0080   -0.0840    3.0630 H   0  0  0  0  0  0  0  0  0  0  0  0
    3.6870    0.5520    3.1680 H   0  0  0  0  0  0  0  0  0  0  0  0
    3.2480    1.8670    1.0650 H   0  0  0  0  0  0  0  0  0  0  0  0
    1.3360    1.7780    3.2600 H   0  0  0  0  0  0  0  0  0  0  0  0
    2.7890    2.6130    3.1590 H   0  0  0  0  0  0  0  0  0  0  0  0
    0.0070    1.4860    0.9440 N   0  0  0  0  0  0  0  0  0  0  0  0
   -1.1260    1.1430    0.0400 C   0  0  1  0  0  0  0  0  0  0  0  0
   -0.9030    1.7650   -1.2820 C   0  0  0  0  0  0  0  0  0  0  0  0
   -1.9770    1.4730   -2.2390 C   0  0  0  0  0  0  0  0  0  0  0  0
   -3.1230    2.2580   -2.2110 C   0  0  0  0  0  0  0  0  0  0  0  0
   -4.1120    2.0280   -3.1300 C   0  0  0  0  0  0  0  0  0  0  0  0
   -4.0110    1.0360   -4.0910 C   0  0  0  0  0  0  0  0  0  0  0  0
   -2.8630    0.2730   -4.0950 C   0  0  0  0  0  0  0  0  0  0  0  0
   -1.8620    0.4870   -3.1850 C   0  0  0  0  0  0  0  0  0  0  0  0
   -1.3480   -0.3100    0.0780 C   0  0  0  0  0  0  0  0  0  0  0  0
   -0.4670   -1.0250    0.6770 O   0  0  0  0  0  0  0  0  0  0  0  0
   -0.1270    2.0800    1.7900 H   0  0  0  0  0  0  0  0  0  0  0  0
   -2.0160    1.6170    0.5220 H   0  0  0  0  0  0  0  0  0  0  0  0
    0.0880    1.4430   -1.6950 H   0  0  0  0  0  0  0  0  0  0  0  0
   -0.7750    2.8690   -1.1190 H   0  0  0  0  0  0  0  0  0  0  0  0
   -3.2410    3.0500   -1.4700 H   0  0  0  0  0  0  0  0  0  0  0  0
   -5.0380    2.6130   -3.1590 H   0  0  0  0  0  0  0  0  0  0  0  0
   -4.7830    0.8510   -4.8150 H   0  0  0  0  0  0  0  0  0  0  0  0
   -2.7480   -0.5270   -4.8470 H   0  0  0  0  0  0  0  0  0  0  0  0
   -0.9510   -0.1350   -3.2040 H   0  0  0  0  0  0  0  0  0  0  0  0
   -3.7330   -2.8460    0.4770 C   0  0  0  0  0  0  0  0  0  0  0  0
   -2.5060   -2.4510   -0.3400 C   0  0  2  0  0  0  0  0  0  0  0  0
   -2.4260   -1.0220   -0.4630 N   0  0  0  0  0  0  0  0  0  0  0  0
   -2.6020   -3.1770   -1.6190 C   0  0  0  0  0  0  0  0  0  0  0  0
   -2.6140   -2.6320   -2.7270 O   0  0  0  0  0  0  0  0  0  0  0  0
   -2.6870   -4.5740   -1.6010 O   0  0  0  0  0  0  0  0  0  0  0  0
   -3.8690   -2.2270    1.3660 H   0  0  0  0  0  0  0  0  0  0  0  0
   -3.5730   -3.8890    0.8130 H   0  0  0  0  0  0  0  0  0  0  0  0
   -4.6290   -2.7650   -0.1720 H   0  0  0  0  0  0  0  0  0  0  0  0
   -1.6180   -2.8500    0.2340 H   0  0  0  0  0  0  0  0  0  0  0  0
   -3.1800   -0.5140   -0.9410 H   0  0  0  0  0  0  0  0  0  0  0  0
  1 13  1  0  0  0  0
  2  1  1  0  0  0  0
  3  2  2  0  0  0  0
  3 14  1  0  0  0  0
  4 15  1  0  0  0  0
  4  2  1  0  0  0  0
  5 16  1  0  0  0  0
  5  4  1  0  0  0  0
  6  5  1  0  0  0  0
  6  7  1  0  0  0  0
  7 20  1  0  0  0  0
  7 21  1  0  0  0  0
  8 22  1  6  0  0  0
  8  7  1  0  0  0  0
  8  9  1  0  0  0  0
  9 24  1  0  0  0  0
  9 23  1  0  0  0  0
 10 25  1  0  0  0  0
 10  8  1  0  0  0  0
 11 10  2  0  0  0  0
 12  1  1  0  0  0  0
 17  5  1  0  0  0  0
 18  6  1  0  0  0  0
 19  6  1  0  0  0  0
 25 36  1  0  0  0  0
 26 34  1  0  0  0  0
 26 37  1  1  0  0  0
 26 25  1  0  0  0  0
 27 39  1  0  0  0  0
 27 26  1  0  0  0  0
 28 29  1  0  0  0  0
 28 27  1  0  0  0  0
 29 40  1  0  0  0  0
 30 29  2  0  0  0  0
 31 30  1  0  0  0  0
 32 31  2  0  0  0  0
 32 33  1  0  0  0  0
 33 28  2  0  0  0  0
 34 35  2  0  0  0  0
 38 27  1  0  0  0  0
 41 30  1  0  0  0  0
 42 31  1  0  0  0  0
 43 32  1  0  0  0  0
 44 33  1  0  0  0  0
 45 52  1  0  0  0  0
 45 51  1  0  0  0  0
 46 54  1  1  0  0  0
 46 45  1  0  0  0  0
 47 46  1  0  0  0  0
 47 34  1  0  0  0  0
 48 50  1  0  0  0  0
 48 46  1  0  0  0  0
 49 48  2  0  0  0  0
 53 45  1  0  0  0  0
 55 47  1  0  0  0  0
M  END
$$$$
