RFC.pdb
 OpenBabel07022418063D

 56 56  0  0  1  0  0  0  0  0999 V2000
    0.3780   -2.7780    2.7610 N   0  0  0  0  0  0  0  0  0  0  0  0
    1.4450   -2.0410    3.3420 C   0  0  0  0  0  0  0  0  0  0  0  0
    1.5920   -2.0530    4.6320 N   0  0  0  0  0  0  0  0  0  0  0  0
    2.3780   -1.2760    2.5820 N   0  0  0  0  0  0  0  0  0  0  0  0
    3.1000   -0.1970    3.2190 C   0  0  0  0  0  0  0  0  0  0  0  0
    4.0030    0.5910    2.3890 C   0  0  0  0  0  0  0  0  0  0  0  0
    3.5970    1.4690    1.2880 C   0  0  0  0  0  0  0  0  0  0  0  0
    2.7890    0.9990    0.1650 C   0  0  2  0  0  0  0  0  0  0  0  0
    2.6880    2.1000   -0.8810 N   0  0  0  0  0  0  0  0  0  0  0  0
    1.3340    0.8080    0.5440 C   0  0  0  0  0  0  0  0  0  0  0  0
    0.8460    0.9980    1.6640 O   0  0  0  0  0  0  0  0  0  0  0  0
   -0.4620   -2.2400    2.4560 H   0  0  0  0  0  0  0  0  0  0  0  0
    0.3670   -3.8010    2.6160 H   0  0  0  0  0  0  0  0  0  0  0  0
    0.9400   -2.5930    5.2340 H   0  0  0  0  0  0  0  0  0  0  0  0
    2.4990   -1.5510    1.5870 H   0  0  0  0  0  0  0  0  0  0  0  0
    3.6790   -0.7200    4.0650 H   0  0  0  0  0  0  0  0  0  0  0  0
    2.3540    0.3910    3.8040 H   0  0  0  0  0  0  0  0  0  0  0  0
    4.8450   -0.0840    1.9990 H   0  0  0  0  0  0  0  0  0  0  0  0
    4.5970    1.2850    3.1110 H   0  0  0  0  0  0  0  0  0  0  0  0
    3.2230    2.4770    1.6870 H   0  0  0  0  0  0  0  0  0  0  0  0
    4.5950    1.8210    0.8130 H   0  0  0  0  0  0  0  0  0  0  0  0
    3.2300    0.1620   -0.3520 H   0  0  0  0  0  0  0  0  0  0  0  0
    3.6730    2.3260   -1.1300 H   0  0  0  0  0  0  0  0  0  0  0  0
    2.2840    1.5870   -1.6970 H   0  0  0  0  0  0  0  0  0  0  0  0
    0.4270    0.3680   -0.4760 N   0  0  0  0  0  0  0  0  0  0  0  0
   -0.9790    0.1770   -0.1250 C   0  0  1  0  0  0  0  0  0  0  0  0
   -1.8640    1.0910   -0.9010 C   0  0  0  0  0  0  0  0  0  0  0  0
   -3.2860    0.8960   -0.5500 C   0  0  0  0  0  0  0  0  0  0  0  0
   -3.8100    1.5740    0.5410 C   0  0  0  0  0  0  0  0  0  0  0  0
   -5.1250    1.4780    0.9400 C   0  0  0  0  0  0  0  0  0  0  0  0
   -5.9510    0.6600    0.2030 C   0  0  0  0  0  0  0  0  0  0  0  0
   -5.4700   -0.0380   -0.8970 C   0  0  0  0  0  0  0  0  0  0  0  0
   -4.1540    0.0970   -1.2460 C   0  0  0  0  0  0  0  0  0  0  0  0
   -1.3050   -1.2390   -0.3890 C   0  0  0  0  0  0  0  0  0  0  0  0
   -2.4570   -1.7350   -0.1370 O   0  0  0  0  0  0  0  0  0  0  0  0
    0.7360    0.1910   -1.4470 H   0  0  0  0  0  0  0  0  0  0  0  0
   -1.1440    0.4070    0.9540 H   0  0  0  0  0  0  0  0  0  0  0  0
   -1.5710    2.1530   -0.6850 H   0  0  0  0  0  0  0  0  0  0  0  0
   -1.7000    0.9460   -1.9870 H   0  0  0  0  0  0  0  0  0  0  0  0
   -3.1230    2.2190    1.1080 H   0  0  0  0  0  0  0  0  0  0  0  0
   -5.4980    2.0230    1.7980 H   0  0  0  0  0  0  0  0  0  0  0  0
   -6.9810    0.5780    0.5070 H   0  0  0  0  0  0  0  0  0  0  0  0
   -6.1790   -0.6760   -1.4460 H   0  0  0  0  0  0  0  0  0  0  0  0
   -3.7920   -0.4400   -2.1040 H   0  0  0  0  0  0  0  0  0  0  0  0
   -0.3570   -2.1440   -0.9420 N   0  0  0  0  0  0  0  0  0  0  0  0
   -0.7080   -3.5480   -1.1970 C   0  0  1  0  0  0  0  0  0  0  0  0
   -0.5780   -3.7150   -2.7190 C   0  0  0  0  0  0  0  0  0  0  0  0
   -0.9710   -5.3860   -3.2380 S   0  0  0  0  0  0  0  0  0  0  0  0
    0.3000   -4.4680   -0.6150 C   0  0  0  0  0  0  0  0  0  0  0  0
    0.1680   -5.7090   -0.7260 O   0  0  0  0  0  0  0  0  0  0  0  0
    1.4220   -4.0170    0.0680 O   0  0  0  0  0  0  0  0  0  0  0  0
    0.5900   -1.7780   -1.1550 H   0  0  0  0  0  0  0  0  0  0  0  0
   -1.7250   -3.7730   -0.8970 H   0  0  0  0  0  0  0  0  0  0  0  0
    0.4810   -3.4270   -2.9480 H   0  0  0  0  0  0  0  0  0  0  0  0
   -1.2410   -2.9480   -3.1620 H   0  0  0  0  0  0  0  0  0  0  0  0
   -2.3760   -5.4630   -3.4040 H   0  0  0  0  0  0  0  0  0  0  0  0
  1  2  1  0  0  0  0
  2  3  2  0  0  0  0
  3 14  1  0  0  0  0
  4  5  1  0  0  0  0
  4  2  1  0  0  0  0
  5 17  1  0  0  0  0
  5 16  1  0  0  0  0
  6 19  1  0  0  0  0
  6  5  1  0  0  0  0
  7 20  1  0  0  0  0
  7  6  1  0  0  0  0
  8 22  1  6  0  0  0
  8 10  1  0  0  0  0
  8  7  1  0  0  0  0
  9  8  1  0  0  0  0
 10 11  2  0  0  0  0
 12  1  1  0  0  0  0
 13  1  1  0  0  0  0
 15  4  1  0  0  0  0
 18  6  1  0  0  0  0
 21  7  1  0  0  0  0
 23  9  1  0  0  0  0
 24  9  1  0  0  0  0
 25 26  1  0  0  0  0
 25 10  1  0  0  0  0
 26 37  1  1  0  0  0
 27 38  1  0  0  0  0
 27 28  1  0  0  0  0
 27 26  1  0  0  0  0
 28 29  1  0  0  0  0
 29 30  2  0  0  0  0
 29 40  1  0  0  0  0
 30 41  1  0  0  0  0
 31 42  1  0  0  0  0
 31 30  1  0  0  0  0
 32 31  2  0  0  0  0
 33 32  1  0  0  0  0
 33 28  2  0  0  0  0
 34 35  2  0  0  0  0
 34 26  1  0  0  0  0
 36 25  1  0  0  0  0
 39 27  1  0  0  0  0
 43 32  1  0  0  0  0
 44 33  1  0  0  0  0
 45 34  1  0  0  0  0
 46 45  1  0  0  0  0
 46 53  1  1  0  0  0
 46 49  1  0  0  0  0
 47 46  1  0  0  0  0
 48 47  1  0  0  0  0
 49 51  1  0  0  0  0
 50 49  2  0  0  0  0
 52 45  1  0  0  0  0
 54 47  1  0  0  0  0
 55 47  1  0  0  0  0
 56 48  1  0  0  0  0
M  END
$$$$
