RFG.pdb
 OpenBabel07022418063D

 52 52  0  0  1  0  0  0  0  0999 V2000
    3.8300   -0.7010    6.4320 N   0  0  0  0  0  0  0  0  0  0  0  0
    3.8780   -0.9890    5.0430 C   0  0  0  0  0  0  0  0  0  0  0  0
    4.4990   -0.2210    4.2180 N   0  0  0  0  0  0  0  0  0  0  0  0
    3.2060   -2.1740    4.6000 N   0  0  0  0  0  0  0  0  0  0  0  0
    3.4130   -2.6620    3.2770 C   0  0  0  0  0  0  0  0  0  0  0  0
    2.8390   -1.7800    2.1870 C   0  0  0  0  0  0  0  0  0  0  0  0
    3.1280   -2.4200    0.8460 C   0  0  0  0  0  0  0  0  0  0  0  0
    2.6090   -1.6480   -0.3220 C   0  0  2  0  0  0  0  0  0  0  0  0
    3.1510   -0.3370   -0.4210 N   0  0  0  0  0  0  0  0  0  0  0  0
    1.1280   -1.7020   -0.3760 C   0  0  0  0  0  0  0  0  0  0  0  0
    0.6020   -2.8400   -0.2830 O   0  0  0  0  0  0  0  0  0  0  0  0
    4.2700    0.1820    6.7630 H   0  0  0  0  0  0  0  0  0  0  0  0
    3.3850   -1.3160    7.1320 H   0  0  0  0  0  0  0  0  0  0  0  0
    4.9750    0.6310    4.5900 H   0  0  0  0  0  0  0  0  0  0  0  0
    2.5570   -2.6680    5.2840 H   0  0  0  0  0  0  0  0  0  0  0  0
    4.4670   -2.9030    3.1130 H   0  0  0  0  0  0  0  0  0  0  0  0
    2.8610   -3.6400    3.1810 H   0  0  0  0  0  0  0  0  0  0  0  0
    3.3930   -0.8230    2.2150 H   0  0  0  0  0  0  0  0  0  0  0  0
    1.7790   -1.5670    2.3350 H   0  0  0  0  0  0  0  0  0  0  0  0
    4.2050   -2.5900    0.7010 H   0  0  0  0  0  0  0  0  0  0  0  0
    2.6570   -3.4380    0.8460 H   0  0  0  0  0  0  0  0  0  0  0  0
    2.9600   -2.2140   -1.2360 H   0  0  0  0  0  0  0  0  0  0  0  0
    3.3140    0.1730    0.4500 H   0  0  0  0  0  0  0  0  0  0  0  0
    2.7330    0.1950   -1.1920 H   0  0  0  0  0  0  0  0  0  0  0  0
    0.2870   -0.5810   -0.5230 N   0  0  0  0  0  0  0  0  0  0  0  0
   -1.1730   -0.7630   -0.5640 C   0  0  1  0  0  0  0  0  0  0  0  0
   -1.8070   -0.1040    0.6430 C   0  0  0  0  0  0  0  0  0  0  0  0
   -3.2620   -0.2790    0.6230 C   0  0  0  0  0  0  0  0  0  0  0  0
   -3.7360   -1.4610    1.2090 C   0  0  0  0  0  0  0  0  0  0  0  0
   -5.0860   -1.7050    1.2490 C   0  0  0  0  0  0  0  0  0  0  0  0
   -5.9990   -0.7930    0.7130 C   0  0  0  0  0  0  0  0  0  0  0  0
   -5.4910    0.3610    0.1450 C   0  0  0  0  0  0  0  0  0  0  0  0
   -4.1520    0.6180    0.0970 C   0  0  0  0  0  0  0  0  0  0  0  0
   -1.7060   -0.2820   -1.8570 C   0  0  0  0  0  0  0  0  0  0  0  0
   -2.9250   -0.3820   -2.1120 O   0  0  0  0  0  0  0  0  0  0  0  0
    0.7060    0.3690   -0.6020 H   0  0  0  0  0  0  0  0  0  0  0  0
   -1.3540   -1.8490   -0.4430 H   0  0  0  0  0  0  0  0  0  0  0  0
   -1.3980   -0.5770    1.5610 H   0  0  0  0  0  0  0  0  0  0  0  0
   -1.5030    0.9670    0.7230 H   0  0  0  0  0  0  0  0  0  0  0  0
   -3.0580   -2.1890    1.6330 H   0  0  0  0  0  0  0  0  0  0  0  0
   -5.4930   -2.6150    1.6970 H   0  0  0  0  0  0  0  0  0  0  0  0
   -7.0560   -1.0170    0.7620 H   0  0  0  0  0  0  0  0  0  0  0  0
   -6.2480    1.0460   -0.2620 H   0  0  0  0  0  0  0  0  0  0  0  0
   -3.7920    1.5220   -0.3470 H   0  0  0  0  0  0  0  0  0  0  0  0
   -0.8810    0.3050   -2.8560 N   0  0  0  0  0  0  0  0  0  0  0  0
   -1.4120    0.7700   -4.1200 C   0  0  0  0  0  0  0  0  0  0  0  0
   -2.4300    1.8190   -3.9960 C   0  0  0  0  0  0  0  0  0  0  0  0
   -2.9480    2.2660   -5.0480 O   0  0  0  0  0  0  0  0  0  0  0  0
   -2.8400    2.3320   -2.7850 O   0  0  0  0  0  0  0  0  0  0  0  0
    0.1450    0.4090   -2.6840 H   0  0  0  0  0  0  0  0  0  0  0  0
   -1.8040   -0.1350   -4.6420 H   0  0  0  0  0  0  0  0  0  0  0  0
   -0.5790    1.1250   -4.7950 H   0  0  0  0  0  0  0  0  0  0  0  0
  1 12  1  0  0  0  0
  1 13  1  0  0  0  0
  2  1  1  0  0  0  0
  3 14  1  0  0  0  0
  3  2  2  0  0  0  0
  4  2  1  0  0  0  0
  4 15  1  0  0  0  0
  5  4  1  0  0  0  0
  6 18  1  0  0  0  0
  6 19  1  0  0  0  0
  6  5  1  0  0  0  0
  7  6  1  0  0  0  0
  8 22  1  6  0  0  0
  8  7  1  0  0  0  0
  9  8  1  0  0  0  0
  9 23  1  0  0  0  0
 10  8  1  0  0  0  0
 10 11  2  0  0  0  0
 16  5  1  0  0  0  0
 17  5  1  0  0  0  0
 20  7  1  0  0  0  0
 21  7  1  0  0  0  0
 24  9  1  0  0  0  0
 25 10  1  0  0  0  0
 26 25  1  0  0  0  0
 26 37  1  1  0  0  0
 26 27  1  0  0  0  0
 27 39  1  0  0  0  0
 27 38  1  0  0  0  0
 28 27  1  0  0  0  0
 28 29  1  0  0  0  0
 29 30  2  0  0  0  0
 29 40  1  0  0  0  0
 30 41  1  0  0  0  0
 31 42  1  0  0  0  0
 31 30  1  0  0  0  0
 32 31  2  0  0  0  0
 33 32  1  0  0  0  0
 33 28  2  0  0  0  0
 34 26  1  0  0  0  0
 35 34  2  0  0  0  0
 36 25  1  0  0  0  0
 43 32  1  0  0  0  0
 44 33  1  0  0  0  0
 45 50  1  0  0  0  0
 45 34  1  0  0  0  0
 46 47  1  0  0  0  0
 46 45  1  0  0  0  0
 47 49  1  0  0  0  0
 48 47  2  0  0  0  0
 51 46  1  0  0  0  0
 52 46  1  0  0  0  0
M  END
$$$$
