RFH.pdb
 OpenBabel07022418063D

 62 63  0  0  1  0  0  0  0  0999 V2000
    4.3720   -2.3000    4.2650 N   0  0  0  0  0  0  0  0  0  0  0  0
    4.5610   -0.9150    4.0110 C   0  0  0  0  0  0  0  0  0  0  0  0
    5.7020   -0.4400    3.6100 N   0  0  0  0  0  0  0  0  0  0  0  0
    3.4970    0.0160    4.1890 N   0  0  0  0  0  0  0  0  0  0  0  0
    3.4860    1.2600    3.4610 C   0  0  0  0  0  0  0  0  0  0  0  0
    3.2670    1.0020    1.9910 C   0  0  0  0  0  0  0  0  0  0  0  0
    3.2530    2.3030    1.2160 C   0  0  0  0  0  0  0  0  0  0  0  0
    3.0330    2.0940   -0.2480 C   0  0  2  0  0  0  0  0  0  0  0  0
    3.0470    3.4010   -0.9010 N   0  0  0  0  0  0  0  0  0  0  0  0
    1.7700    1.3690   -0.5380 C   0  0  0  0  0  0  0  0  0  0  0  0
    1.6570    0.6900   -1.5900 O   0  0  0  0  0  0  0  0  0  0  0  0
    3.5870   -2.8290    3.8470 H   0  0  0  0  0  0  0  0  0  0  0  0
    5.0730   -2.7630    4.9020 H   0  0  0  0  0  0  0  0  0  0  0  0
    6.4820   -1.1160    3.4790 H   0  0  0  0  0  0  0  0  0  0  0  0
    2.7420   -0.2550    4.8680 H   0  0  0  0  0  0  0  0  0  0  0  0
    2.6420    1.8870    3.8410 H   0  0  0  0  0  0  0  0  0  0  0  0
    4.4130    1.8600    3.6420 H   0  0  0  0  0  0  0  0  0  0  0  0
    2.3830    0.3840    1.8580 H   0  0  0  0  0  0  0  0  0  0  0  0
    4.1400    0.3630    1.6660 H   0  0  0  0  0  0  0  0  0  0  0  0
    2.4780    2.9620    1.6830 H   0  0  0  0  0  0  0  0  0  0  0  0
    4.2240    2.7960    1.4260 H   0  0  0  0  0  0  0  0  0  0  0  0
    3.8950    1.5400   -0.6490 H   0  0  0  0  0  0  0  0  0  0  0  0
    2.8410    4.1480   -0.1850 H   0  0  0  0  0  0  0  0  0  0  0  0
    2.3530    3.4430   -1.6800 H   0  0  0  0  0  0  0  0  0  0  0  0
    0.6550    1.4090    0.3380 N   0  0  0  0  0  0  0  0  0  0  0  0
   -0.5970    0.6620    0.0080 C   0  0  1  0  0  0  0  0  0  0  0  0
   -1.2100    1.3290   -1.1560 C   0  0  0  0  0  0  0  0  0  0  0  0
   -2.4710    0.7610   -1.6570 C   0  0  0  0  0  0  0  0  0  0  0  0
   -3.6520    1.1460   -1.0430 C   0  0  0  0  0  0  0  0  0  0  0  0
   -4.8480    0.6620   -1.5130 C   0  0  0  0  0  0  0  0  0  0  0  0
   -4.9390   -0.2020   -2.5790 C   0  0  0  0  0  0  0  0  0  0  0  0
   -3.7520   -0.5730   -3.1760 C   0  0  0  0  0  0  0  0  0  0  0  0
   -2.5520   -0.0990   -2.7190 C   0  0  0  0  0  0  0  0  0  0  0  0
   -0.3330   -0.7590   -0.0250 C   0  0  0  0  0  0  0  0  0  0  0  0
    0.8730   -1.1510    0.1080 O   0  0  0  0  0  0  0  0  0  0  0  0
    0.7300    1.9680    1.2040 H   0  0  0  0  0  0  0  0  0  0  0  0
   -1.2780    0.8420    0.8960 H   0  0  0  0  0  0  0  0  0  0  0  0
   -0.4850    1.5170   -1.9940 H   0  0  0  0  0  0  0  0  0  0  0  0
   -1.4640    2.3860   -0.8220 H   0  0  0  0  0  0  0  0  0  0  0  0
   -3.6440    1.8210   -0.2020 H   0  0  0  0  0  0  0  0  0  0  0  0
   -5.7940    0.9480   -1.0490 H   0  0  0  0  0  0  0  0  0  0  0  0
   -5.8670   -0.5930   -2.9640 H   0  0  0  0  0  0  0  0  0  0  0  0
   -3.7690   -1.2620   -4.0340 H   0  0  0  0  0  0  0  0  0  0  0  0
   -1.5980   -0.3840   -3.1820 H   0  0  0  0  0  0  0  0  0  0  0  0
   -1.2530   -1.8200   -0.1810 N   0  0  0  0  0  0  0  0  0  0  0  0
   -0.8880   -3.2000   -0.1790 C   0  0  1  0  0  0  0  0  0  0  0  0
   -1.4440   -3.9850    0.9830 C   0  0  0  0  0  0  0  0  0  0  0  0
   -2.9420   -3.9720    1.0170 C   0  0  0  0  0  0  0  0  0  0  0  0
   -3.7970   -4.8860    0.4030 C   0  0  0  0  0  0  0  0  0  0  0  0
   -5.0590   -4.5580    0.6500 N   0  0  0  0  0  0  0  0  0  0  0  0
   -5.0060   -3.4500    1.4100 C   0  0  0  0  0  0  0  0  0  0  0  0
   -3.7340   -3.0850    1.6400 N   0  0  0  0  0  0  0  0  0  0  0  0
   -1.3460   -3.8580   -1.4010 C   0  0  0  0  0  0  0  0  0  0  0  0
   -1.1160   -5.1000   -1.6180 O   0  0  0  0  0  0  0  0  0  0  0  0
   -2.0440   -3.2120   -2.3910 O   0  0  0  0  0  0  0  0  0  0  0  0
   -2.2560   -1.5750   -0.2970 H   0  0  0  0  0  0  0  0  0  0  0  0
    0.2310   -3.3430   -0.1090 H   0  0  0  0  0  0  0  0  0  0  0  0
   -1.0020   -3.7110    1.9510 H   0  0  0  0  0  0  0  0  0  0  0  0
   -1.1550   -5.0430    0.8020 H   0  0  0  0  0  0  0  0  0  0  0  0
   -3.4180   -5.7240   -0.1800 H   0  0  0  0  0  0  0  0  0  0  0  0
   -5.8810   -5.0940    0.2950 H   0  0  0  0  0  0  0  0  0  0  0  0
   -5.9200   -2.9550    1.7670 H   0  0  0  0  0  0  0  0  0  0  0  0
  1 13  1  0  0  0  0
  2  4  1  0  0  0  0
  2  1  1  0  0  0  0
  3  2  2  0  0  0  0
  4 15  1  0  0  0  0
  5 17  1  0  0  0  0
  5 16  1  0  0  0  0
  5  4  1  0  0  0  0
  6  5  1  0  0  0  0
  7 21  1  0  0  0  0
  7 20  1  0  0  0  0
  7  6  1  0  0  0  0
  8 22  1  6  0  0  0
  8  7  1  0  0  0  0
  9  8  1  0  0  0  0
  9 23  1  0  0  0  0
 10  8  1  0  0  0  0
 10 25  1  0  0  0  0
 11 10  2  0  0  0  0
 12  1  1  0  0  0  0
 14  3  1  0  0  0  0
 18  6  1  0  0  0  0
 19  6  1  0  0  0  0
 24  9  1  0  0  0  0
 25 36  1  0  0  0  0
 26 25  1  0  0  0  0
 26 37  1  1  0  0  0
 27 39  1  0  0  0  0
 27 26  1  0  0  0  0
 28 27  1  0  0  0  0
 28 29  1  0  0  0  0
 29 40  1  0  0  0  0
 30 41  1  0  0  0  0
 30 29  2  0  0  0  0
 31 30  1  0  0  0  0
 32 33  1  0  0  0  0
 32 31  2  0  0  0  0
 33 28  2  0  0  0  0
 34 26  1  0  0  0  0
 34 35  2  0  0  0  0
 38 27  1  0  0  0  0
 42 31  1  0  0  0  0
 43 32  1  0  0  0  0
 44 33  1  0  0  0  0
 45 46  1  0  0  0  0
 45 34  1  0  0  0  0
 46 57  1  1  0  0  0
 46 47  1  0  0  0  0
 47 48  1  0  0  0  0
 47 58  1  0  0  0  0
 48 52  1  0  0  0  0
 49 50  1  0  0  0  0
 49 48  2  0  0  0  0
 50 51  1  0  0  0  0
 51 52  2  0  0  0  0
 51 62  1  0  0  0  0
 53 46  1  0  0  0  0
 54 53  1  0  0  0  0
 55 53  2  0  0  0  0
 56 45  1  0  0  0  0
 59 47  1  0  0  0  0
 60 49  1  0  0  0  0
 61 50  1  0  0  0  0
M  END
$$$$
