RFL.pdb
 OpenBabel07022418063D

 64 64  0  0  1  0  0  0  0  0999 V2000
    0.8890   -3.3000    3.9760 N   0  0  0  0  0  0  0  0  0  0  0  0
    1.9630   -2.3860    3.9210 C   0  0  0  0  0  0  0  0  0  0  0  0
    3.0920   -2.6480    4.5050 N   0  0  0  0  0  0  0  0  0  0  0  0
    1.8690   -1.1390    3.2320 N   0  0  0  0  0  0  0  0  0  0  0  0
    2.5760    0.0330    3.6540 C   0  0  0  0  0  0  0  0  0  0  0  0
    2.2910    1.1690    2.7120 C   0  0  0  0  0  0  0  0  0  0  0  0
    2.7310    0.8130    1.3320 C   0  0  0  0  0  0  0  0  0  0  0  0
    2.5120    1.9400    0.3400 C   0  0  2  0  0  0  0  0  0  0  0  0
    3.2580    3.1250    0.7480 N   0  0  0  0  0  0  0  0  0  0  0  0
    1.1010    2.3000    0.1370 C   0  0  0  0  0  0  0  0  0  0  0  0
    0.7140    3.4390    0.5000 O   0  0  0  0  0  0  0  0  0  0  0  0
    1.0340   -4.3050    3.7440 H   0  0  0  0  0  0  0  0  0  0  0  0
   -0.0740   -3.0180    4.2440 H   0  0  0  0  0  0  0  0  0  0  0  0
    3.1940   -3.5440    5.0160 H   0  0  0  0  0  0  0  0  0  0  0  0
    1.2610   -1.0990    2.4000 H   0  0  0  0  0  0  0  0  0  0  0  0
    3.6620   -0.2350    3.6420 H   0  0  0  0  0  0  0  0  0  0  0  0
    2.2470    0.2540    4.6950 H   0  0  0  0  0  0  0  0  0  0  0  0
    2.8570    2.0500    3.0870 H   0  0  0  0  0  0  0  0  0  0  0  0
    1.1830    1.3510    2.7650 H   0  0  0  0  0  0  0  0  0  0  0  0
    3.8030    0.5330    1.3840 H   0  0  0  0  0  0  0  0  0  0  0  0
    2.2010   -0.0560    0.9350 H   0  0  0  0  0  0  0  0  0  0  0  0
    2.9760    1.6030   -0.6180 H   0  0  0  0  0  0  0  0  0  0  0  0
    2.6920    3.9760    0.8000 H   0  0  0  0  0  0  0  0  0  0  0  0
    4.1180    3.2610    0.2060 H   0  0  0  0  0  0  0  0  0  0  0  0
    0.1110    1.4780   -0.4420 N   0  0  0  0  0  0  0  0  0  0  0  0
   -1.2450    1.7980   -0.6560 C   0  0  1  0  0  0  0  0  0  0  0  0
   -1.7640    1.9660   -2.0170 C   0  0  0  0  0  0  0  0  0  0  0  0
   -1.6560    0.7950   -2.9180 C   0  0  0  0  0  0  0  0  0  0  0  0
   -0.5150    0.5940   -3.6770 C   0  0  0  0  0  0  0  0  0  0  0  0
   -0.3730   -0.4770   -4.5390 C   0  0  0  0  0  0  0  0  0  0  0  0
   -1.3930   -1.3970   -4.6680 C   0  0  0  0  0  0  0  0  0  0  0  0
   -2.5390   -1.2240   -3.9280 C   0  0  0  0  0  0  0  0  0  0  0  0
   -2.6480   -0.1500   -3.0810 C   0  0  0  0  0  0  0  0  0  0  0  0
   -2.0730    0.8130    0.0560 C   0  0  0  0  0  0  0  0  0  0  0  0
   -3.3470    0.8450    0.0460 O   0  0  0  0  0  0  0  0  0  0  0  0
    0.4130    0.5270   -0.7470 H   0  0  0  0  0  0  0  0  0  0  0  0
   -1.3870    2.7980   -0.1300 H   0  0  0  0  0  0  0  0  0  0  0  0
   -1.4030    2.8410   -2.5850 H   0  0  0  0  0  0  0  0  0  0  0  0
   -2.8760    2.1640   -1.9220 H   0  0  0  0  0  0  0  0  0  0  0  0
    0.3230    1.2740   -3.6260 H   0  0  0  0  0  0  0  0  0  0  0  0
    0.5330   -0.6200   -5.1290 H   0  0  0  0  0  0  0  0  0  0  0  0
   -1.3160   -2.2550   -5.3390 H   0  0  0  0  0  0  0  0  0  0  0  0
   -3.3320   -1.9580   -4.0420 H   0  0  0  0  0  0  0  0  0  0  0  0
   -3.5700   -0.0600   -2.5240 H   0  0  0  0  0  0  0  0  0  0  0  0
   -0.8780   -2.6280   -0.9280 C   0  0  0  0  0  0  0  0  0  0  0  0
   -1.8300   -3.2290    0.0440 C   0  0  0  0  0  0  0  0  0  0  0  0
   -1.4010   -4.6910    0.2340 C   0  0  0  0  0  0  0  0  0  0  0  0
   -1.8940   -2.6180    1.3880 C   0  0  0  0  0  0  0  0  0  0  0  0
   -2.3000   -1.1960    1.4910 C   0  0  2  0  0  0  0  0  0  0  0  0
   -1.4870   -0.2450    0.8050 N   0  0  0  0  0  0  0  0  0  0  0  0
   -2.3270   -0.8280    2.9670 C   0  0  0  0  0  0  0  0  0  0  0  0
   -2.9920   -1.5470    3.7460 O   0  0  0  0  0  0  0  0  0  0  0  0
   -1.6550    0.2550    3.4720 O   0  0  0  0  0  0  0  0  0  0  0  0
    0.1880   -2.8340   -0.6830 H   0  0  0  0  0  0  0  0  0  0  0  0
   -1.0720   -1.5750   -1.1480 H   0  0  0  0  0  0  0  0  0  0  0  0
   -1.0430   -3.1680   -1.9070 H   0  0  0  0  0  0  0  0  0  0  0  0
   -2.8170   -3.3000   -0.4680 H   0  0  0  0  0  0  0  0  0  0  0  0
   -1.9190   -5.1410    1.1070 H   0  0  0  0  0  0  0  0  0  0  0  0
   -1.6200   -5.2910   -0.6580 H   0  0  0  0  0  0  0  0  0  0  0  0
   -0.3080   -4.7130    0.3990 H   0  0  0  0  0  0  0  0  0  0  0  0
   -0.9230   -2.8270    1.9280 H   0  0  0  0  0  0  0  0  0  0  0  0
   -2.6310   -3.2370    1.9850 H   0  0  0  0  0  0  0  0  0  0  0  0
   -3.3620   -1.0330    1.1850 H   0  0  0  0  0  0  0  0  0  0  0  0
   -0.4370   -0.3630    0.8800 H   0  0  0  0  0  0  0  0  0  0  0  0
  1 13  1  0  0  0  0
  2  1  1  0  0  0  0
  2  3  2  0  0  0  0
  3 14  1  0  0  0  0
  4  5  1  0  0  0  0
  4  2  1  0  0  0  0
  5 17  1  0  0  0  0
  6 19  1  0  0  0  0
  6 18  1  0  0  0  0
  6  5  1  0  0  0  0
  7 20  1  0  0  0  0
  7  6  1  0  0  0  0
  8 22  1  6  0  0  0
  8  9  1  0  0  0  0
  8  7  1  0  0  0  0
  9 23  1  0  0  0  0
 10  8  1  0  0  0  0
 10 11  2  0  0  0  0
 12  1  1  0  0  0  0
 15  4  1  0  0  0  0
 16  5  1  0  0  0  0
 21  7  1  0  0  0  0
 24  9  1  0  0  0  0
 25 10  1  0  0  0  0
 26 25  1  0  0  0  0
 26 37  1  1  0  0  0
 26 34  1  0  0  0  0
 27 39  1  0  0  0  0
 27 26  1  0  0  0  0
 28 27  1  0  0  0  0
 29 40  1  0  0  0  0
 29 28  2  0  0  0  0
 30 29  1  0  0  0  0
 31 30  2  0  0  0  0
 31 32  1  0  0  0  0
 32 33  2  0  0  0  0
 33 28  1  0  0  0  0
 33 44  1  0  0  0  0
 34 50  1  0  0  0  0
 35 34  2  0  0  0  0
 36 25  1  0  0  0  0
 38 27  1  0  0  0  0
 41 30  1  0  0  0  0
 42 31  1  0  0  0  0
 43 32  1  0  0  0  0
 45 54  1  0  0  0  0
 45 46  1  0  0  0  0
 46 47  1  0  0  0  0
 46 48  1  0  0  0  0
 47 60  1  0  0  0  0
 47 58  1  0  0  0  0
 48 49  1  0  0  0  0
 48 61  1  0  0  0  0
 48 62  1  0  0  0  0
 49 63  1  6  0  0  0
 49 51  1  0  0  0  0
 50 64  1  0  0  0  0
 50 49  1  0  0  0  0
 51 53  2  0  0  0  0
 51 52  1  0  0  0  0
 55 45  1  0  0  0  0
 56 45  1  0  0  0  0
 57 46  1  0  0  0  0
 59 47  1  0  0  0  0
M  END
$$$$
