RFN.pdb
 OpenBabel07022418063D

 59 59  0  0  1  0  0  0  0  0999 V2000
    3.6550   -2.2150    5.3000 N   0  0  0  0  0  0  0  0  0  0  0  0
    4.1660   -1.2180    4.4470 C   0  0  0  0  0  0  0  0  0  0  0  0
    4.5110   -0.0740    4.9320 N   0  0  0  0  0  0  0  0  0  0  0  0
    4.3300   -1.3980    3.0460 N   0  0  0  0  0  0  0  0  0  0  0  0
    4.4130   -0.2600    2.1550 C   0  0  0  0  0  0  0  0  0  0  0  0
    3.0780    0.4560    2.0950 C   0  0  0  0  0  0  0  0  0  0  0  0
    3.1750    1.6380    1.1700 C   0  0  0  0  0  0  0  0  0  0  0  0
    1.8510    2.3640    1.1010 C   0  0  2  0  0  0  0  0  0  0  0  0
    1.4550    2.8360    2.3910 N   0  0  0  0  0  0  0  0  0  0  0  0
    0.7960    1.5950    0.4020 C   0  0  0  0  0  0  0  0  0  0  0  0
    1.0130    1.1360   -0.7490 O   0  0  0  0  0  0  0  0  0  0  0  0
    2.7350   -2.0970    5.8030 H   0  0  0  0  0  0  0  0  0  0  0  0
    4.1600   -3.1090    5.4730 H   0  0  0  0  0  0  0  0  0  0  0  0
    4.4100    0.1080    5.9500 H   0  0  0  0  0  0  0  0  0  0  0  0
    4.3910   -2.3430    2.6540 H   0  0  0  0  0  0  0  0  0  0  0  0
    4.7870   -0.5660    1.1620 H   0  0  0  0  0  0  0  0  0  0  0  0
    5.2060    0.4130    2.5870 H   0  0  0  0  0  0  0  0  0  0  0  0
    2.9030    0.8720    3.1230 H   0  0  0  0  0  0  0  0  0  0  0  0
    2.3290   -0.2830    1.8090 H   0  0  0  0  0  0  0  0  0  0  0  0
    3.5500    1.3620    0.1630 H   0  0  0  0  0  0  0  0  0  0  0  0
    3.9390    2.3170    1.6010 H   0  0  0  0  0  0  0  0  0  0  0  0
    2.0540    3.2860    0.4790 H   0  0  0  0  0  0  0  0  0  0  0  0
    0.9250    3.7170    2.3990 H   0  0  0  0  0  0  0  0  0  0  0  0
    2.2530    2.9390    3.0560 H   0  0  0  0  0  0  0  0  0  0  0  0
   -0.4770    1.3410    0.9720 N   0  0  0  0  0  0  0  0  0  0  0  0
   -1.4910    0.5690    0.2280 C   0  0  1  0  0  0  0  0  0  0  0  0
   -2.0310    1.3600   -0.8920 C   0  0  0  0  0  0  0  0  0  0  0  0
   -3.0510    0.7690   -1.7600 C   0  0  0  0  0  0  0  0  0  0  0  0
   -2.7170    0.1780   -2.9590 C   0  0  0  0  0  0  0  0  0  0  0  0
   -3.6660   -0.3850   -3.7990 C   0  0  0  0  0  0  0  0  0  0  0  0
   -4.9810   -0.3720   -3.4610 C   0  0  0  0  0  0  0  0  0  0  0  0
   -5.3610    0.2110   -2.2670 C   0  0  0  0  0  0  0  0  0  0  0  0
   -4.4080    0.7660   -1.4410 C   0  0  0  0  0  0  0  0  0  0  0  0
   -1.0290   -0.7960   -0.0130 C   0  0  0  0  0  0  0  0  0  0  0  0
    0.1750   -1.0850    0.3120 O   0  0  0  0  0  0  0  0  0  0  0  0
   -0.6600    1.7190    1.9220 H   0  0  0  0  0  0  0  0  0  0  0  0
   -2.3370    0.4410    0.9800 H   0  0  0  0  0  0  0  0  0  0  0  0
   -2.5130    2.3130   -0.4840 H   0  0  0  0  0  0  0  0  0  0  0  0
   -1.1970    1.8280   -1.5210 H   0  0  0  0  0  0  0  0  0  0  0  0
   -1.6990    0.1380   -3.2760 H   0  0  0  0  0  0  0  0  0  0  0  0
   -3.3790   -0.8530   -4.7550 H   0  0  0  0  0  0  0  0  0  0  0  0
   -5.7380   -0.8120   -4.1150 H   0  0  0  0  0  0  0  0  0  0  0  0
   -6.4030    0.2250   -1.9910 H   0  0  0  0  0  0  0  0  0  0  0  0
   -4.7480    1.2120   -0.5170 H   0  0  0  0  0  0  0  0  0  0  0  0
   -0.3820   -5.8510    0.8780 N   0  0  0  0  0  0  0  0  0  0  0  0
   -1.4620   -5.4400    0.0460 C   0  0  0  0  0  0  0  0  0  0  0  0
   -1.9350   -6.2470   -0.7820 O   0  0  0  0  0  0  0  0  0  0  0  0
   -1.9960   -4.0880    0.1750 C   0  0  0  0  0  0  0  0  0  0  0  0
   -1.2490   -3.1300   -0.7430 C   0  0  2  0  0  0  0  0  0  0  0  0
   -1.8320   -1.7920   -0.5680 N   0  0  0  0  0  0  0  0  0  0  0  0
   -1.1860   -3.5680   -2.1340 C   0  0  0  0  0  0  0  0  0  0  0  0
   -0.6780   -4.7020   -2.4470 O   0  0  0  0  0  0  0  0  0  0  0  0
   -1.6490   -2.8370   -3.2140 O   0  0  0  0  0  0  0  0  0  0  0  0
   -0.2380   -5.4720    1.8430 H   0  0  0  0  0  0  0  0  0  0  0  0
    0.2810   -6.5600    0.4900 H   0  0  0  0  0  0  0  0  0  0  0  0
   -1.8390   -3.7340    1.2020 H   0  0  0  0  0  0  0  0  0  0  0  0
   -3.0900   -4.0580   -0.0180 H   0  0  0  0  0  0  0  0  0  0  0  0
   -0.1900   -3.1430   -0.3500 H   0  0  0  0  0  0  0  0  0  0  0  0
   -2.8200   -1.6750   -0.8590 H   0  0  0  0  0  0  0  0  0  0  0  0
  1 13  1  0  0  0  0
  1 12  1  0  0  0  0
  2  3  2  0  0  0  0
  2  1  1  0  0  0  0
  3 14  1  0  0  0  0
  4  2  1  0  0  0  0
  5 17  1  0  0  0  0
  5  4  1  0  0  0  0
  6  5  1  0  0  0  0
  6 18  1  0  0  0  0
  7 21  1  0  0  0  0
  7  6  1  0  0  0  0
  8 22  1  6  0  0  0
  8  7  1  0  0  0  0
  8  9  1  0  0  0  0
  9 23  1  0  0  0  0
  9 24  1  0  0  0  0
 10 25  1  0  0  0  0
 10  8  1  0  0  0  0
 11 10  2  0  0  0  0
 15  4  1  0  0  0  0
 16  5  1  0  0  0  0
 19  6  1  0  0  0  0
 20  7  1  0  0  0  0
 25 36  1  0  0  0  0
 26 25  1  0  0  0  0
 26 37  1  1  0  0  0
 27 38  1  0  0  0  0
 27 26  1  0  0  0  0
 28 33  1  0  0  0  0
 28 27  1  0  0  0  0
 29 28  2  0  0  0  0
 30 31  2  0  0  0  0
 30 29  1  0  0  0  0
 31 32  1  0  0  0  0
 32 43  1  0  0  0  0
 32 33  2  0  0  0  0
 33 44  1  0  0  0  0
 34 26  1  0  0  0  0
 34 35  2  0  0  0  0
 39 27  1  0  0  0  0
 40 29  1  0  0  0  0
 41 30  1  0  0  0  0
 42 31  1  0  0  0  0
 45 54  1  0  0  0  0
 46 48  1  0  0  0  0
 46 45  1  0  0  0  0
 47 46  2  0  0  0  0
 48 56  1  0  0  0  0
 49 50  1  0  0  0  0
 49 58  1  1  0  0  0
 49 48  1  0  0  0  0
 50 34  1  0  0  0  0
 51 49  1  0  0  0  0
 52 51  1  0  0  0  0
 53 51  2  0  0  0  0
 55 45  1  0  0  0  0
 57 48  1  0  0  0  0
 59 50  1  0  0  0  0
M  END
$$$$
