RFQ.pdb
 OpenBabel07022418063D

 62 62  0  0  1  0  0  0  0  0999 V2000
    2.6510   -1.5510    5.7210 N   0  0  0  0  0  0  0  0  0  0  0  0
    3.4300   -0.4470    5.2650 C   0  0  0  0  0  0  0  0  0  0  0  0
    4.0460    0.2900    6.1070 N   0  0  0  0  0  0  0  0  0  0  0  0
    3.5170   -0.1620    3.8410 N   0  0  0  0  0  0  0  0  0  0  0  0
    4.1810    1.0380    3.4900 C   0  0  0  0  0  0  0  0  0  0  0  0
    4.1620    1.4470    2.0660 C   0  0  0  0  0  0  0  0  0  0  0  0
    2.8340    1.8150    1.5030 C   0  0  0  0  0  0  0  0  0  0  0  0
    1.7660    0.8020    1.4790 C   0  0  2  0  0  0  0  0  0  0  0  0
    2.1210   -0.3740    0.7070 N   0  0  0  0  0  0  0  0  0  0  0  0
    0.4790    1.3550    0.9330 C   0  0  0  0  0  0  0  0  0  0  0  0
   -0.0010    2.4380    1.3370 O   0  0  0  0  0  0  0  0  0  0  0  0
    2.5680   -2.4400    5.1550 H   0  0  0  0  0  0  0  0  0  0  0  0
    2.1350   -1.5320    6.6240 H   0  0  0  0  0  0  0  0  0  0  0  0
    3.9810    0.0840    7.1230 H   0  0  0  0  0  0  0  0  0  0  0  0
    3.1030   -0.8940    3.2410 H   0  0  0  0  0  0  0  0  0  0  0  0
    5.2580    1.0100    3.8730 H   0  0  0  0  0  0  0  0  0  0  0  0
    3.7630    1.9170    4.0790 H   0  0  0  0  0  0  0  0  0  0  0  0
    4.6160    0.6200    1.4130 H   0  0  0  0  0  0  0  0  0  0  0  0
    4.9130    2.2880    1.8820 H   0  0  0  0  0  0  0  0  0  0  0  0
    2.9680    2.2400    0.4550 H   0  0  0  0  0  0  0  0  0  0  0  0
    2.4260    2.6950    2.0970 H   0  0  0  0  0  0  0  0  0  0  0  0
    1.5220    0.4770    2.5080 H   0  0  0  0  0  0  0  0  0  0  0  0
    3.1100   -0.6650    0.9070 H   0  0  0  0  0  0  0  0  0  0  0  0
    2.0890   -0.1430   -0.3190 H   0  0  0  0  0  0  0  0  0  0  0  0
   -0.2460    0.6700   -0.0650 N   0  0  0  0  0  0  0  0  0  0  0  0
   -1.4870    1.1410   -0.6380 C   0  0  1  0  0  0  0  0  0  0  0  0
   -1.4770    1.4200   -2.0840 C   0  0  0  0  0  0  0  0  0  0  0  0
   -1.1410    0.2610   -2.9420 C   0  0  0  0  0  0  0  0  0  0  0  0
    0.1860   -0.0410   -3.2550 C   0  0  0  0  0  0  0  0  0  0  0  0
    0.5260   -1.0920   -4.0670 C   0  0  0  0  0  0  0  0  0  0  0  0
   -0.4480   -1.9050   -4.6170 C   0  0  0  0  0  0  0  0  0  0  0  0
   -1.7670   -1.6180   -4.3160 C   0  0  0  0  0  0  0  0  0  0  0  0
   -2.1080   -0.5680   -3.5030 C   0  0  0  0  0  0  0  0  0  0  0  0
   -2.6020    0.2200   -0.2940 C   0  0  0  0  0  0  0  0  0  0  0  0
   -3.7680    0.3700   -0.7390 O   0  0  0  0  0  0  0  0  0  0  0  0
    0.1010   -0.2540   -0.4460 H   0  0  0  0  0  0  0  0  0  0  0  0
   -1.6770    2.1450   -0.1190 H   0  0  0  0  0  0  0  0  0  0  0  0
   -0.8960    2.3200   -2.3810 H   0  0  0  0  0  0  0  0  0  0  0  0
   -2.5400    1.6950   -2.3690 H   0  0  0  0  0  0  0  0  0  0  0  0
    0.9850    0.5790   -2.8410 H   0  0  0  0  0  0  0  0  0  0  0  0
    1.5600   -1.3030   -4.2930 H   0  0  0  0  0  0  0  0  0  0  0  0
   -0.2220   -2.7460   -5.2640 H   0  0  0  0  0  0  0  0  0  0  0  0
   -2.5260   -2.2480   -4.7470 H   0  0  0  0  0  0  0  0  0  0  0  0
   -3.1490   -0.3880   -3.3010 H   0  0  0  0  0  0  0  0  0  0  0  0
   -3.3510   -4.0930   -2.8390 N   0  0  0  0  0  0  0  0  0  0  0  0
   -3.6120   -3.6710   -1.5110 C   0  0  0  0  0  0  0  0  0  0  0  0
   -4.7500   -3.2790   -1.1860 O   0  0  0  0  0  0  0  0  0  0  0  0
   -2.5350   -3.6960   -0.5070 C   0  0  0  0  0  0  0  0  0  0  0  0
   -2.9430   -3.2450    0.8460 C   0  0  0  0  0  0  0  0  0  0  0  0
   -3.4200   -1.8320    0.9730 C   0  0  2  0  0  0  0  0  0  0  0  0
   -2.3980   -0.9030    0.5820 N   0  0  0  0  0  0  0  0  0  0  0  0
   -3.8220   -1.6100    2.4060 C   0  0  0  0  0  0  0  0  0  0  0  0
   -4.7140   -2.3760    2.8430 O   0  0  0  0  0  0  0  0  0  0  0  0
   -3.2860   -0.6570    3.2230 O   0  0  0  0  0  0  0  0  0  0  0  0
   -2.3510   -4.2830   -3.1490 H   0  0  0  0  0  0  0  0  0  0  0  0
   -4.1100   -4.2300   -3.5450 H   0  0  0  0  0  0  0  0  0  0  0  0
   -2.2170   -4.7640   -0.4090 H   0  0  0  0  0  0  0  0  0  0  0  0
   -1.6610   -3.0750   -0.8590 H   0  0  0  0  0  0  0  0  0  0  0  0
   -2.0350   -3.4050    1.5120 H   0  0  0  0  0  0  0  0  0  0  0  0
   -3.7080   -3.9600    1.2640 H   0  0  0  0  0  0  0  0  0  0  0  0
   -4.3520   -1.7000    0.4010 H   0  0  0  0  0  0  0  0  0  0  0  0
   -1.4180   -1.0060    0.9320 H   0  0  0  0  0  0  0  0  0  0  0  0
  1 13  1  0  0  0  0
  2  1  1  0  0  0  0
  2  3  2  0  0  0  0
  3 14  1  0  0  0  0
  4  2  1  0  0  0  0
  5  4  1  0  0  0  0
  5 16  1  0  0  0  0
  5 17  1  0  0  0  0
  6  5  1  0  0  0  0
  7  6  1  0  0  0  0
  7 21  1  0  0  0  0
  8  7  1  0  0  0  0
  8 22  1  1  0  0  0
  9 23  1  0  0  0  0
  9  8  1  0  0  0  0
 10 11  2  0  0  0  0
 10  8  1  0  0  0  0
 12  1  1  0  0  0  0
 15  4  1  0  0  0  0
 18  6  1  0  0  0  0
 19  6  1  0  0  0  0
 20  7  1  0  0  0  0
 24  9  1  0  0  0  0
 25 10  1  0  0  0  0
 26 34  1  0  0  0  0
 26 37  1  1  0  0  0
 26 25  1  0  0  0  0
 27 26  1  0  0  0  0
 28 27  1  0  0  0  0
 29 28  1  0  0  0  0
 29 40  1  0  0  0  0
 30 29  2  0  0  0  0
 31 32  2  0  0  0  0
 31 30  1  0  0  0  0
 32 33  1  0  0  0  0
 33 44  1  0  0  0  0
 33 28  2  0  0  0  0
 34 51  1  0  0  0  0
 35 34  2  0  0  0  0
 36 25  1  0  0  0  0
 38 27  1  0  0  0  0
 39 27  1  0  0  0  0
 41 30  1  0  0  0  0
 42 31  1  0  0  0  0
 43 32  1  0  0  0  0
 45 46  1  0  0  0  0
 46 47  2  0  0  0  0
 46 48  1  0  0  0  0
 48 57  1  0  0  0  0
 48 49  1  0  0  0  0
 49 50  1  0  0  0  0
 49 60  1  0  0  0  0
 49 59  1  0  0  0  0
 50 61  1  6  0  0  0
 50 52  1  0  0  0  0
 51 62  1  0  0  0  0
 51 50  1  0  0  0  0
 52 53  2  0  0  0  0
 52 54  1  0  0  0  0
 55 45  1  0  0  0  0
 56 45  1  0  0  0  0
 58 48  1  0  0  0  0
M  END
$$$$
