RFR.pdb
 OpenBabel07022418063D

 68 68  0  0  1  0  0  0  0  0999 V2000
    4.9680   -1.3430    5.6630 N   0  0  0  0  0  0  0  0  0  0  0  0
    5.0500   -0.1780    4.8510 C   0  0  0  0  0  0  0  0  0  0  0  0
    4.8050    1.0210    5.3270 N   0  0  0  0  0  0  0  0  0  0  0  0
    5.4110   -0.2490    3.4800 N   0  0  0  0  0  0  0  0  0  0  0  0
    4.7540    0.5580    2.4860 C   0  0  0  0  0  0  0  0  0  0  0  0
    3.3420    0.1720    2.1950 C   0  0  0  0  0  0  0  0  0  0  0  0
    2.4440    0.2540    3.3810 C   0  0  0  0  0  0  0  0  0  0  0  0
    0.9980   -0.1200    3.0020 C   0  0  2  0  0  0  0  0  0  0  0  0
    1.0050   -1.4510    2.5020 N   0  0  0  0  0  0  0  0  0  0  0  0
    0.4910    0.8910    2.0750 C   0  0  0  0  0  0  0  0  0  0  0  0
    0.4930    2.1230    2.4020 O   0  0  0  0  0  0  0  0  0  0  0  0
    4.1340   -1.9620    5.5740 H   0  0  0  0  0  0  0  0  0  0  0  0
    5.7670   -1.5270    6.3220 H   0  0  0  0  0  0  0  0  0  0  0  0
    4.5440    1.0660    6.3500 H   0  0  0  0  0  0  0  0  0  0  0  0
    6.1860   -0.9290    3.2240 H   0  0  0  0  0  0  0  0  0  0  0  0
    4.7670    1.6110    2.9190 H   0  0  0  0  0  0  0  0  0  0  0  0
    5.3690    0.6620    1.5580 H   0  0  0  0  0  0  0  0  0  0  0  0
    3.3110   -0.8710    1.7500 H   0  0  0  0  0  0  0  0  0  0  0  0
    2.9630    0.8120    1.3410 H   0  0  0  0  0  0  0  0  0  0  0  0
    2.4520    1.2520    3.8550 H   0  0  0  0  0  0  0  0  0  0  0  0
    2.7800   -0.4740    4.1660 H   0  0  0  0  0  0  0  0  0  0  0  0
    0.4500   -0.1390    3.9790 H   0  0  0  0  0  0  0  0  0  0  0  0
    1.7310   -2.0290    2.9970 H   0  0  0  0  0  0  0  0  0  0  0  0
    0.0910   -1.9140    2.4350 H   0  0  0  0  0  0  0  0  0  0  0  0
   -0.0340    0.6100    0.7740 N   0  0  0  0  0  0  0  0  0  0  0  0
   -0.5310    1.6310   -0.1270 C   0  0  1  0  0  0  0  0  0  0  0  0
    0.1830    1.7480   -1.4150 C   0  0  0  0  0  0  0  0  0  0  0  0
    0.1920    0.5380   -2.2640 C   0  0  0  0  0  0  0  0  0  0  0  0
    1.1950   -0.3980   -2.1290 C   0  0  0  0  0  0  0  0  0  0  0  0
    1.2470   -1.5130   -2.9160 C   0  0  0  0  0  0  0  0  0  0  0  0
    0.2770   -1.7350   -3.8880 C   0  0  0  0  0  0  0  0  0  0  0  0
   -0.7040   -0.7960   -4.0020 C   0  0  0  0  0  0  0  0  0  0  0  0
   -0.7750    0.3300   -3.2210 C   0  0  0  0  0  0  0  0  0  0  0  0
   -1.9840    1.4620   -0.3310 C   0  0  0  0  0  0  0  0  0  0  0  0
   -2.6160    2.1800   -1.1430 O   0  0  0  0  0  0  0  0  0  0  0  0
   -0.0390   -0.4180    0.5010 H   0  0  0  0  0  0  0  0  0  0  0  0
   -0.3420    2.6140    0.4230 H   0  0  0  0  0  0  0  0  0  0  0  0
    1.2060    2.1770   -1.3210 H   0  0  0  0  0  0  0  0  0  0  0  0
   -0.3750    2.5300   -2.0120 H   0  0  0  0  0  0  0  0  0  0  0  0
    1.9500   -0.2250   -1.3720 H   0  0  0  0  0  0  0  0  0  0  0  0
    2.0550   -2.2490   -2.7950 H   0  0  0  0  0  0  0  0  0  0  0  0
    0.3420   -2.6210   -4.5040 H   0  0  0  0  0  0  0  0  0  0  0  0
   -1.4680   -0.9680   -4.7630 H   0  0  0  0  0  0  0  0  0  0  0  0
   -1.5820    1.0070   -3.3880 H   0  0  0  0  0  0  0  0  0  0  0  0
   -1.4960   -4.5280   -3.6850 N   0  0  0  0  0  0  0  0  0  0  0  0
   -2.1330   -3.8790   -2.5800 C   0  0  0  0  0  0  0  0  0  0  0  0
   -1.3990   -3.4530   -1.6200 N   0  0  0  0  0  0  0  0  0  0  0  0
   -3.5240   -3.6990   -2.5080 N   0  0  0  0  0  0  0  0  0  0  0  0
   -4.1480   -3.1730   -1.3310 C   0  0  0  0  0  0  0  0  0  0  0  0
   -3.7670   -1.6950   -1.1840 C   0  0  0  0  0  0  0  0  0  0  0  0
   -4.4330   -1.1620    0.0510 C   0  0  0  0  0  0  0  0  0  0  0  0
   -4.1240    0.2820    0.2510 C   0  0  2  0  0  0  0  0  0  0  0  0
   -2.7120    0.4860    0.3920 N   0  0  0  0  0  0  0  0  0  0  0  0
   -4.8590    0.8090    1.4420 C   0  0  0  0  0  0  0  0  0  0  0  0
   -6.0940    0.7120    1.4680 O   0  0  0  0  0  0  0  0  0  0  0  0
   -4.1760    1.3840    2.4780 O   0  0  0  0  0  0  0  0  0  0  0  0
   -1.8300   -4.4500   -4.6580 H   0  0  0  0  0  0  0  0  0  0  0  0
   -0.6580   -5.1000   -3.4820 H   0  0  0  0  0  0  0  0  0  0  0  0
   -0.3660   -3.5580   -1.6120 H   0  0  0  0  0  0  0  0  0  0  0  0
   -4.1330   -3.9460   -3.3150 H   0  0  0  0  0  0  0  0  0  0  0  0
   -5.2540   -3.1970   -1.3950 H   0  0  0  0  0  0  0  0  0  0  0  0
   -3.8720   -3.7160   -0.4010 H   0  0  0  0  0  0  0  0  0  0  0  0
   -4.2230   -1.1850   -2.0580 H   0  0  0  0  0  0  0  0  0  0  0  0
   -2.6940   -1.5260   -1.2260 H   0  0  0  0  0  0  0  0  0  0  0  0
   -4.1210   -1.7820    0.9260 H   0  0  0  0  0  0  0  0  0  0  0  0
   -5.5340   -1.2570   -0.1280 H   0  0  0  0  0  0  0  0  0  0  0  0
   -4.4340    0.8580   -0.6570 H   0  0  0  0  0  0  0  0  0  0  0  0
   -2.1950   -0.1190    1.0640 H   0  0  0  0  0  0  0  0  0  0  0  0
  1 13  1  0  0  0  0
  2  3  2  0  0  0  0
  2  1  1  0  0  0  0
  3 14  1  0  0  0  0
  4  2  1  0  0  0  0
  5 16  1  0  0  0  0
  5  4  1  0  0  0  0
  6  5  1  0  0  0  0
  6  7  1  0  0  0  0
  7 20  1  0  0  0  0
  7 21  1  0  0  0  0
  8  7  1  0  0  0  0
  8 22  1  1  0  0  0
  9 23  1  0  0  0  0
  9  8  1  0  0  0  0
 10 11  2  0  0  0  0
 10  8  1  0  0  0  0
 12  1  1  0  0  0  0
 15  4  1  0  0  0  0
 17  5  1  0  0  0  0
 18  6  1  0  0  0  0
 19  6  1  0  0  0  0
 24  9  1  0  0  0  0
 25 10  1  0  0  0  0
 26 37  1  1  0  0  0
 26 25  1  0  0  0  0
 27 38  1  0  0  0  0
 27 26  1  0  0  0  0
 28 29  1  0  0  0  0
 28 27  1  0  0  0  0
 29 40  1  0  0  0  0
 30 41  1  0  0  0  0
 30 29  2  0  0  0  0
 31 30  1  0  0  0  0
 32 31  2  0  0  0  0
 32 33  1  0  0  0  0
 33 28  2  0  0  0  0
 34 26  1  0  0  0  0
 34 53  1  0  0  0  0
 35 34  2  0  0  0  0
 36 25  1  0  0  0  0
 39 27  1  0  0  0  0
 42 31  1  0  0  0  0
 43 32  1  0  0  0  0
 44 33  1  0  0  0  0
 45 58  1  0  0  0  0
 45 46  1  0  0  0  0
 46 48  1  0  0  0  0
 46 47  2  0  0  0  0
 47 59  1  0  0  0  0
 48 49  1  0  0  0  0
 49 50  1  0  0  0  0
 49 62  1  0  0  0  0
 50 51  1  0  0  0  0
 51 52  1  0  0  0  0
 51 65  1  0  0  0  0
 52 67  1  6  0  0  0
 52 53  1  0  0  0  0
 52 54  1  0  0  0  0
 53 68  1  0  0  0  0
 54 55  2  0  0  0  0
 54 56  1  0  0  0  0
 57 45  1  0  0  0  0
 60 48  1  0  0  0  0
 61 49  1  0  0  0  0
 63 50  1  0  0  0  0
 64 50  1  0  0  0  0
 66 51  1  0  0  0  0
M  END
$$$$
