RFT.pdb
 OpenBabel07022418063D

 59 59  0  0  1  0  0  0  0  0999 V2000
    3.0820   -3.1700    5.1730 N   0  0  0  0  0  0  0  0  0  0  0  0
    3.8400   -2.4880    4.1830 C   0  0  0  0  0  0  0  0  0  0  0  0
    5.0580   -2.8990    3.9660 N   0  0  0  0  0  0  0  0  0  0  0  0
    3.2750   -1.4060    3.4670 N   0  0  0  0  0  0  0  0  0  0  0  0
    3.9530   -0.8630    2.3450 C   0  0  0  0  0  0  0  0  0  0  0  0
    3.2700    0.2720    1.6680 C   0  0  0  0  0  0  0  0  0  0  0  0
    1.9070   -0.0640    1.1300 C   0  0  0  0  0  0  0  0  0  0  0  0
    1.2620    1.1290    0.4540 C   0  0  2  0  0  0  0  0  0  0  0  0
    1.1370    2.1900    1.4400 N   0  0  0  0  0  0  0  0  0  0  0  0
   -0.0640    0.7570   -0.1260 C   0  0  0  0  0  0  0  0  0  0  0  0
   -0.0850   -0.1330   -0.9760 O   0  0  0  0  0  0  0  0  0  0  0  0
    3.3430   -4.1130    5.5280 H   0  0  0  0  0  0  0  0  0  0  0  0
    2.2380   -2.7240    5.5630 H   0  0  0  0  0  0  0  0  0  0  0  0
    5.4710   -3.6960    4.4940 H   0  0  0  0  0  0  0  0  0  0  0  0
    2.3640   -1.0300    3.7890 H   0  0  0  0  0  0  0  0  0  0  0  0
    4.9670   -0.4790    2.6640 H   0  0  0  0  0  0  0  0  0  0  0  0
    4.1870   -1.6740    1.6170 H   0  0  0  0  0  0  0  0  0  0  0  0
    3.9280    0.6290    0.8500 H   0  0  0  0  0  0  0  0  0  0  0  0
    3.1450    1.1350    2.3550 H   0  0  0  0  0  0  0  0  0  0  0  0
    2.0550   -0.8580    0.3380 H   0  0  0  0  0  0  0  0  0  0  0  0
    1.2290   -0.4920    1.8630 H   0  0  0  0  0  0  0  0  0  0  0  0
    1.9210    1.5300   -0.3490 H   0  0  0  0  0  0  0  0  0  0  0  0
    1.1560    1.8280    2.4170 H   0  0  0  0  0  0  0  0  0  0  0  0
    1.7660    2.9840    1.2680 H   0  0  0  0  0  0  0  0  0  0  0  0
   -1.2830    1.3920    0.2690 N   0  0  0  0  0  0  0  0  0  0  0  0
   -2.5740    1.0930   -0.2230 C   0  0  1  0  0  0  0  0  0  0  0  0
   -3.0140    1.7620   -1.4750 C   0  0  0  0  0  0  0  0  0  0  0  0
   -2.1050    1.4590   -2.6400 C   0  0  0  0  0  0  0  0  0  0  0  0
   -1.0270    2.2560   -2.9170 C   0  0  0  0  0  0  0  0  0  0  0  0
   -0.2090    1.9790   -3.9750 C   0  0  0  0  0  0  0  0  0  0  0  0
   -0.4670    0.8810   -4.7810 C   0  0  0  0  0  0  0  0  0  0  0  0
   -1.5550    0.0870   -4.4910 C   0  0  0  0  0  0  0  0  0  0  0  0
   -2.3800    0.3680   -3.4220 C   0  0  0  0  0  0  0  0  0  0  0  0
   -2.9900   -0.3420   -0.1110 C   0  0  0  0  0  0  0  0  0  0  0  0
   -4.0690   -0.7330   -0.6650 O   0  0  0  0  0  0  0  0  0  0  0  0
   -1.1130    2.1470    1.0040 H   0  0  0  0  0  0  0  0  0  0  0  0
   -3.2830    1.5540    0.5840 H   0  0  0  0  0  0  0  0  0  0  0  0
   -4.0200    1.4360   -1.8130 H   0  0  0  0  0  0  0  0  0  0  0  0
   -3.1190    2.8750   -1.3610 H   0  0  0  0  0  0  0  0  0  0  0  0
   -0.7930    3.1360   -2.2980 H   0  0  0  0  0  0  0  0  0  0  0  0
    0.6650    2.6120   -4.2140 H   0  0  0  0  0  0  0  0  0  0  0  0
    0.1840    0.6660   -5.6170 H   0  0  0  0  0  0  0  0  0  0  0  0
   -1.8020   -0.7950   -5.0990 H   0  0  0  0  0  0  0  0  0  0  0  0
   -3.2470   -0.2900   -3.2200 H   0  0  0  0  0  0  0  0  0  0  0  0
   -0.4250   -3.6760    0.5800 C   0  0  0  0  0  0  0  0  0  0  0  0
   -1.7740   -3.6460   -0.0810 C   0  0  1  0  0  0  0  0  0  0  0  0
   -2.3230   -4.9330    0.0370 O   0  0  0  0  0  0  0  0  0  0  0  0
   -2.7450   -2.7140    0.6340 C   0  0  2  0  0  0  0  0  0  0  0  0
   -2.2760   -1.3370    0.5770 N   0  0  0  0  0  0  0  0  0  0  0  0
   -2.9460   -3.1600    2.0150 C   0  0  0  0  0  0  0  0  0  0  0  0
   -2.7110   -2.3670    2.9580 O   0  0  0  0  0  0  0  0  0  0  0  0
   -3.3900   -4.4330    2.3290 O   0  0  0  0  0  0  0  0  0  0  0  0
   -0.4280   -3.2780    1.6140 H   0  0  0  0  0  0  0  0  0  0  0  0
   -0.0320   -4.7340    0.5910 H   0  0  0  0  0  0  0  0  0  0  0  0
    0.3190   -3.1100   -0.0370 H   0  0  0  0  0  0  0  0  0  0  0  0
   -1.7080   -3.4160   -1.1480 H   0  0  0  0  0  0  0  0  0  0  0  0
   -1.6510   -5.6150    0.2390 H   0  0  0  0  0  0  0  0  0  0  0  0
   -3.7020   -2.7870    0.0640 H   0  0  0  0  0  0  0  0  0  0  0  0
   -1.4130   -1.1250    1.0740 H   0  0  0  0  0  0  0  0  0  0  0  0
  1 12  1  0  0  0  0
  1 13  1  0  0  0  0
  2  1  1  0  0  0  0
  3  2  2  0  0  0  0
  3 14  1  0  0  0  0
  4 15  1  0  0  0  0
  4  2  1  0  0  0  0
  5 16  1  0  0  0  0
  5  4  1  0  0  0  0
  6  5  1  0  0  0  0
  6 19  1  0  0  0  0
  7  6  1  0  0  0  0
  7 21  1  0  0  0  0
  8 22  1  6  0  0  0
  8  7  1  0  0  0  0
  8  9  1  0  0  0  0
  9 23  1  0  0  0  0
 10 25  1  0  0  0  0
 10  8  1  0  0  0  0
 11 10  2  0  0  0  0
 17  5  1  0  0  0  0
 18  6  1  0  0  0  0
 20  7  1  0  0  0  0
 24  9  1  0  0  0  0
 25 36  1  0  0  0  0
 26 34  1  0  0  0  0
 26 25  1  0  0  0  0
 26 37  1  1  0  0  0
 27 39  1  0  0  0  0
 27 26  1  0  0  0  0
 28 27  1  0  0  0  0
 29 28  1  0  0  0  0
 29 40  1  0  0  0  0
 30 29  2  0  0  0  0
 31 32  2  0  0  0  0
 31 30  1  0  0  0  0
 32 33  1  0  0  0  0
 33 44  1  0  0  0  0
 33 28  2  0  0  0  0
 34 49  1  0  0  0  0
 35 34  2  0  0  0  0
 38 27  1  0  0  0  0
 41 30  1  0  0  0  0
 42 31  1  0  0  0  0
 43 32  1  0  0  0  0
 45 54  1  0  0  0  0
 45 53  1  0  0  0  0
 46 56  1  6  0  0  0
 46 47  1  0  0  0  0
 46 45  1  0  0  0  0
 46 48  1  0  0  0  0
 47 57  1  0  0  0  0
 48 58  1  6  0  0  0
 48 50  1  0  0  0  0
 49 48  1  0  0  0  0
 49 59  1  0  0  0  0
 50 52  2  0  0  0  0
 50 51  1  0  0  0  0
 55 45  1  0  0  0  0
M  END
$$$$
