RFW.pdb
 OpenBabel07022418063D

 69 71  0  0  1  0  0  0  0  0999 V2000
    3.7510    1.0960    2.9100 N   0  0  0  0  0  0  0  0  0  0  0  0
    4.6680    0.5660    1.9620 C   0  0  0  0  0  0  0  0  0  0  0  0
    5.0210   -0.6950    1.9890 N   0  0  0  0  0  0  0  0  0  0  0  0
    5.2480    1.3620    0.9400 N   0  0  0  0  0  0  0  0  0  0  0  0
    5.6270    0.6940   -0.2870 C   0  0  0  0  0  0  0  0  0  0  0  0
    4.3750    0.2190   -1.0420 C   0  0  0  0  0  0  0  0  0  0  0  0
    3.5740    1.4320   -1.3390 C   0  0  0  0  0  0  0  0  0  0  0  0
    2.3040    1.2940   -2.0440 C   0  0  2  0  0  0  0  0  0  0  0  0
    1.7750    2.6720   -2.2750 N   0  0  0  0  0  0  0  0  0  0  0  0
    1.1850    0.5930   -1.4330 C   0  0  0  0  0  0  0  0  0  0  0  0
    0.0770    0.7010   -2.1050 O   0  0  0  0  0  0  0  0  0  0  0  0
    3.0310    0.4250    3.2800 H   0  0  0  0  0  0  0  0  0  0  0  0
    3.8170    2.0810    3.1940 H   0  0  0  0  0  0  0  0  0  0  0  0
    4.6270   -1.3420    2.7230 H   0  0  0  0  0  0  0  0  0  0  0  0
    5.3710    2.3820    1.1220 H   0  0  0  0  0  0  0  0  0  0  0  0
    6.1970    1.4190   -0.9010 H   0  0  0  0  0  0  0  0  0  0  0  0
    6.3170   -0.1680   -0.1030 H   0  0  0  0  0  0  0  0  0  0  0  0
    3.9230   -0.6410   -0.6010 H   0  0  0  0  0  0  0  0  0  0  0  0
    4.8090   -0.1650   -2.0340 H   0  0  0  0  0  0  0  0  0  0  0  0
    4.2410    2.0850   -1.9960 H   0  0  0  0  0  0  0  0  0  0  0  0
    3.4640    2.0980   -0.4210 H   0  0  0  0  0  0  0  0  0  0  0  0
    2.4580    0.9070   -3.0790 H   0  0  0  0  0  0  0  0  0  0  0  0
    1.3110    2.7410   -3.1870 H   0  0  0  0  0  0  0  0  0  0  0  0
    1.1790    2.9470   -1.4690 H   0  0  0  0  0  0  0  0  0  0  0  0
    1.1260   -0.1600   -0.2500 N   0  0  0  0  0  0  0  0  0  0  0  0
   -0.1400   -0.7860    0.1500 C   0  0  1  0  0  0  0  0  0  0  0  0
    0.0540   -2.2330    0.4930 C   0  0  0  0  0  0  0  0  0  0  0  0
    0.5820   -3.0500   -0.6100 C   0  0  0  0  0  0  0  0  0  0  0  0
   -0.2050   -3.6930   -1.5210 C   0  0  0  0  0  0  0  0  0  0  0  0
    0.3620   -4.4510   -2.5370 C   0  0  0  0  0  0  0  0  0  0  0  0
    1.7410   -4.5420   -2.6080 C   0  0  0  0  0  0  0  0  0  0  0  0
    2.5630   -3.9030   -1.7000 C   0  0  0  0  0  0  0  0  0  0  0  0
    1.9640   -3.1540   -0.6980 C   0  0  0  0  0  0  0  0  0  0  0  0
   -0.6540   -0.1130    1.3750 C   0  0  0  0  0  0  0  0  0  0  0  0
   -0.0580    0.8200    1.9500 O   0  0  0  0  0  0  0  0  0  0  0  0
    1.9750   -0.2440    0.3320 H   0  0  0  0  0  0  0  0  0  0  0  0
   -0.8980   -0.5860   -0.6260 H   0  0  0  0  0  0  0  0  0  0  0  0
   -0.9030   -2.6470    0.8370 H   0  0  0  0  0  0  0  0  0  0  0  0
    0.7500   -2.2680    1.3620 H   0  0  0  0  0  0  0  0  0  0  0  0
   -1.2800   -3.5850   -1.4170 H   0  0  0  0  0  0  0  0  0  0  0  0
   -0.2930   -4.9450   -3.2400 H   0  0  0  0  0  0  0  0  0  0  0  0
    2.1530   -5.1500   -3.4260 H   0  0  0  0  0  0  0  0  0  0  0  0
    3.6160   -4.0080   -1.8040 H   0  0  0  0  0  0  0  0  0  0  0  0
    2.6360   -2.6630    0.0000 H   0  0  0  0  0  0  0  0  0  0  0  0
   -1.9100   -0.5870    1.8980 N   0  0  0  0  0  0  0  0  0  0  0  0
   -2.4670    0.0090    3.0680 C   0  0  1  0  0  0  0  0  0  0  0  0
   -3.6780    0.8330    2.7140 C   0  0  0  0  0  0  0  0  0  0  0  0
   -4.7600    0.0790    2.0700 C   0  0  0  0  0  0  0  0  0  0  0  0
   -5.8860   -0.4660    2.7070 C   0  0  0  0  0  0  0  0  0  0  0  0
   -6.6270   -1.1040    1.7990 N   0  0  0  0  0  0  0  0  0  0  0  0
   -6.0460   -1.0080    0.5900 C   0  0  0  0  0  0  0  0  0  0  0  0
   -6.4710   -1.5130   -0.6410 C   0  0  0  0  0  0  0  0  0  0  0  0
   -5.6910   -1.2600   -1.7410 C   0  0  0  0  0  0  0  0  0  0  0  0
   -4.5310   -0.5280   -1.5980 C   0  0  0  0  0  0  0  0  0  0  0  0
   -4.1300   -0.0420   -0.3830 C   0  0  0  0  0  0  0  0  0  0  0  0
   -4.9000   -0.2850    0.7420 C   0  0  0  0  0  0  0  0  0  0  0  0
   -2.8870   -0.9950    4.0810 C   0  0  0  0  0  0  0  0  0  0  0  0
   -2.7390   -2.2220    3.8640 O   0  0  0  0  0  0  0  0  0  0  0  0
   -3.4500   -0.6160    5.2880 O   0  0  0  0  0  0  0  0  0  0  0  0
   -2.3810   -1.3760    1.4020 H   0  0  0  0  0  0  0  0  0  0  0  0
   -1.7440    0.7510    3.5350 H   0  0  0  0  0  0  0  0  0  0  0  0
   -4.1200    1.2910    3.6460 H   0  0  0  0  0  0  0  0  0  0  0  0
   -3.4200    1.6900    2.0520 H   0  0  0  0  0  0  0  0  0  0  0  0
   -6.0740   -0.3550    3.7700 H   0  0  0  0  0  0  0  0  0  0  0  0
   -7.5290   -1.6130    1.9700 H   0  0  0  0  0  0  0  0  0  0  0  0
   -7.3780   -2.0820   -0.7410 H   0  0  0  0  0  0  0  0  0  0  0  0
   -5.9980   -1.6430   -2.7240 H   0  0  0  0  0  0  0  0  0  0  0  0
   -3.9270   -0.3410   -2.4970 H   0  0  0  0  0  0  0  0  0  0  0  0
   -3.2210    0.5410   -0.2550 H   0  0  0  0  0  0  0  0  0  0  0  0
  1 13  1  0  0  0  0
  1 12  1  0  0  0  0
  2  3  2  0  0  0  0
  2  1  1  0  0  0  0
  3 14  1  0  0  0  0
  4 15  1  0  0  0  0
  4  2  1  0  0  0  0
  5 17  1  0  0  0  0
  5  4  1  0  0  0  0
  6 18  1  0  0  0  0
  6  5  1  0  0  0  0
  7  6  1  0  0  0  0
  7 21  1  0  0  0  0
  8 22  1  6  0  0  0
  8 10  1  0  0  0  0
  8  7  1  0  0  0  0
  9  8  1  0  0  0  0
  9 24  1  0  0  0  0
 10 25  1  0  0  0  0
 11 10  2  0  0  0  0
 16  5  1  0  0  0  0
 19  6  1  0  0  0  0
 20  7  1  0  0  0  0
 23  9  1  0  0  0  0
 25 26  1  0  0  0  0
 25 36  1  0  0  0  0
 26 37  1  6  0  0  0
 26 27  1  0  0  0  0
 26 34  1  0  0  0  0
 27 38  1  0  0  0  0
 27 39  1  0  0  0  0
 28 27  1  0  0  0  0
 29 40  1  0  0  0  0
 29 28  2  0  0  0  0
 30 29  1  0  0  0  0
 31 30  2  0  0  0  0
 31 32  1  0  0  0  0
 32 33  2  0  0  0  0
 33 28  1  0  0  0  0
 33 44  1  0  0  0  0
 34 45  1  0  0  0  0
 34 35  2  0  0  0  0
 41 30  1  0  0  0  0
 42 31  1  0  0  0  0
 43 32  1  0  0  0  0
 45 46  1  0  0  0  0
 46 61  1  1  0  0  0
 46 57  1  0  0  0  0
 47 46  1  0  0  0  0
 47 62  1  0  0  0  0
 48 49  2  0  0  0  0
 48 47  1  0  0  0  0
 49 64  1  0  0  0  0
 50 65  1  0  0  0  0
 50 49  1  0  0  0  0
 51 56  1  0  0  0  0
 51 50  1  0  0  0  0
 52 51  2  0  0  0  0
 53 54  2  0  0  0  0
 53 52  1  0  0  0  0
 54 55  1  0  0  0  0
 55 69  1  0  0  0  0
 55 56  2  0  0  0  0
 56 48  1  0  0  0  0
 57 59  1  0  0  0  0
 58 57  2  0  0  0  0
 60 45  1  0  0  0  0
 63 47  1  0  0  0  0
 66 52  1  0  0  0  0
 67 53  1  0  0  0  0
 68 54  1  0  0  0  0
M  END
$$$$
