RGC.pdb
 OpenBabel07022418043D

 43 42  0  0  1  0  0  0  0  0999 V2000
    1.8330   -7.0670    0.0300 N   0  0  0  0  0  0  0  0  0  0  0  0
    2.2110   -5.7370    0.2700 C   0  0  0  0  0  0  0  0  0  0  0  0
    2.6310   -5.4050    1.4390 N   0  0  0  0  0  0  0  0  0  0  0  0
    2.1350   -4.7640   -0.7540 N   0  0  0  0  0  0  0  0  0  0  0  0
    2.0310   -3.3380   -0.4390 C   0  0  0  0  0  0  0  0  0  0  0  0
    1.9670   -2.5220   -1.6860 C   0  0  0  0  0  0  0  0  0  0  0  0
    1.8710   -1.0520   -1.3900 C   0  0  0  0  0  0  0  0  0  0  0  0
    0.6460   -0.6730   -0.5890 C   0  0  2  0  0  0  0  0  0  0  0  0
   -0.5610   -1.0480   -1.3210 N   0  0  0  0  0  0  0  0  0  0  0  0
    0.5820    0.8000   -0.3740 C   0  0  0  0  0  0  0  0  0  0  0  0
   -0.3970    1.4760   -0.8020 O   0  0  0  0  0  0  0  0  0  0  0  0
    2.1170   -7.6000   -0.8090 H   0  0  0  0  0  0  0  0  0  0  0  0
    1.2230   -7.5250    0.7660 H   0  0  0  0  0  0  0  0  0  0  0  0
    2.7090   -6.0750    2.2340 H   0  0  0  0  0  0  0  0  0  0  0  0
    2.1490   -5.0200   -1.7620 H   0  0  0  0  0  0  0  0  0  0  0  0
    2.9050   -3.0250    0.1770 H   0  0  0  0  0  0  0  0  0  0  0  0
    1.0940   -3.1790    0.1380 H   0  0  0  0  0  0  0  0  0  0  0  0
    1.0380   -2.8500   -2.2420 H   0  0  0  0  0  0  0  0  0  0  0  0
    2.8080   -2.7520   -2.3820 H   0  0  0  0  0  0  0  0  0  0  0  0
    2.7980   -0.7550   -0.8600 H   0  0  0  0  0  0  0  0  0  0  0  0
    1.8680   -0.5340   -2.3890 H   0  0  0  0  0  0  0  0  0  0  0  0
    0.6550   -1.2370    0.3440 H   0  0  0  0  0  0  0  0  0  0  0  0
   -1.3730   -0.5400   -0.9340 H   0  0  0  0  0  0  0  0  0  0  0  0
   -0.4400   -0.8140   -2.3380 H   0  0  0  0  0  0  0  0  0  0  0  0
    1.5970    1.5140    0.3110 N   0  0  0  0  0  0  0  0  0  0  0  0
    1.5840    2.9330    0.5590 C   0  0  0  0  0  0  0  0  0  0  0  0
    0.4410    3.2980    1.4280 C   0  0  0  0  0  0  0  0  0  0  0  0
    0.2520    4.5380    1.7100 O   0  0  0  0  0  0  0  0  0  0  0  0
    2.4070    0.9540    0.6540 H   0  0  0  0  0  0  0  0  0  0  0  0
    2.5250    3.2520    1.0670 H   0  0  0  0  0  0  0  0  0  0  0  0
    1.4790    3.4900   -0.3990 H   0  0  0  0  0  0  0  0  0  0  0  0
   -0.4850    2.4150    1.9970 N   0  0  0  0  0  0  0  0  0  0  0  0
   -1.5890    2.8580    2.8400 C   0  0  1  0  0  0  0  0  0  0  0  0
   -2.9190    2.5570    2.1920 C   0  0  0  0  0  0  0  0  0  0  0  0
   -4.2270    3.1410    3.3070 S   0  0  0  0  0  0  0  0  0  0  0  0
   -1.4870    2.2800    4.2050 C   0  0  0  0  0  0  0  0  0  0  0  0
   -0.5400    1.5150    4.5150 O   0  0  0  0  0  0  0  0  0  0  0  0
   -2.4310    2.5690    5.1680 O   0  0  0  0  0  0  0  0  0  0  0  0
   -0.4030    1.3930    1.8450 H   0  0  0  0  0  0  0  0  0  0  0  0
   -1.5100    3.9620    2.9090 H   0  0  0  0  0  0  0  0  0  0  0  0
   -3.0460    1.4970    1.9460 H   0  0  0  0  0  0  0  0  0  0  0  0
   -2.9640    3.1810    1.2670 H   0  0  0  0  0  0  0  0  0  0  0  0
   -5.4990    2.7580    2.8650 H   0  0  0  0  0  0  0  0  0  0  0  0
  1  2  1  0  0  0  0
  1 13  1  0  0  0  0
  2  3  2  0  0  0  0
  3 14  1  0  0  0  0
  4  5  1  0  0  0  0
  4  2  1  0  0  0  0
  5 17  1  0  0  0  0
  5 16  1  0  0  0  0
  6  7  1  0  0  0  0
  6  5  1  0  0  0  0
  7 20  1  0  0  0  0
  7  8  1  0  0  0  0
  8 10  1  0  0  0  0
  8 22  1  1  0  0  0
  9 23  1  0  0  0  0
  9  8  1  0  0  0  0
 10 25  1  0  0  0  0
 11 10  2  0  0  0  0
 12  1  1  0  0  0  0
 15  4  1  0  0  0  0
 18  6  1  0  0  0  0
 19  6  1  0  0  0  0
 21  7  1  0  0  0  0
 24  9  1  0  0  0  0
 25 26  1  0  0  0  0
 25 29  1  0  0  0  0
 26 30  1  0  0  0  0
 26 27  1  0  0  0  0
 27 28  2  0  0  0  0
 27 32  1  0  0  0  0
 31 26  1  0  0  0  0
 32 33  1  0  0  0  0
 33 40  1  1  0  0  0
 33 36  1  0  0  0  0
 34 33  1  0  0  0  0
 34 35  1  0  0  0  0
 36 37  2  0  0  0  0
 36 38  1  0  0  0  0
 39 32  1  0  0  0  0
 41 34  1  0  0  0  0
 42 34  1  0  0  0  0
 43 35  1  0  0  0  0
M  END
$$$$
