RGE.pdb
 OpenBabel07022418043D

 48 47  0  0  1  0  0  0  0  0999 V2000
    2.8840   -6.2730    0.3760 N   0  0  0  0  0  0  0  0  0  0  0  0
    2.3490   -4.9480    0.3780 C   0  0  0  0  0  0  0  0  0  0  0  0
    1.1580   -4.7460    0.8430 N   0  0  0  0  0  0  0  0  0  0  0  0
    3.0780   -3.8340   -0.1110 N   0  0  0  0  0  0  0  0  0  0  0  0
    2.4010   -2.7190   -0.7780 C   0  0  0  0  0  0  0  0  0  0  0  0
    3.3660   -1.6330   -1.1450 C   0  0  0  0  0  0  0  0  0  0  0  0
    4.0870   -1.0140   -0.0060 C   0  0  0  0  0  0  0  0  0  0  0  0
    3.2660   -0.3310    1.0330 C   0  0  2  0  0  0  0  0  0  0  0  0
    2.3060   -1.1790    1.6870 N   0  0  0  0  0  0  0  0  0  0  0  0
    2.6980    0.9820    0.6430 C   0  0  0  0  0  0  0  0  0  0  0  0
    3.3630    1.9120    0.1140 O   0  0  0  0  0  0  0  0  0  0  0  0
    2.3240   -7.0890    0.6690 H   0  0  0  0  0  0  0  0  0  0  0  0
    3.8750   -6.3780    0.0620 H   0  0  0  0  0  0  0  0  0  0  0  0
    0.5650   -5.5170    1.2210 H   0  0  0  0  0  0  0  0  0  0  0  0
    4.1100   -3.8370    0.0100 H   0  0  0  0  0  0  0  0  0  0  0  0
    1.5290   -2.4480   -0.2130 H   0  0  0  0  0  0  0  0  0  0  0  0
    2.0680   -3.1580   -1.7560 H   0  0  0  0  0  0  0  0  0  0  0  0
    4.1450   -2.1330   -1.7710 H   0  0  0  0  0  0  0  0  0  0  0  0
    2.9140   -0.8760   -1.8200 H   0  0  0  0  0  0  0  0  0  0  0  0
    4.7850   -0.2550   -0.4290 H   0  0  0  0  0  0  0  0  0  0  0  0
    4.7160   -1.7660    0.4960 H   0  0  0  0  0  0  0  0  0  0  0  0
    4.0220   -0.0800    1.8490 H   0  0  0  0  0  0  0  0  0  0  0  0
    2.6810   -2.0690    2.0270 H   0  0  0  0  0  0  0  0  0  0  0  0
    1.9990   -0.6460    2.5530 H   0  0  0  0  0  0  0  0  0  0  0  0
    1.2990    1.3050    0.8480 N   0  0  0  0  0  0  0  0  0  0  0  0
    0.7320    2.5490    0.4900 C   0  0  0  0  0  0  0  0  0  0  0  0
   -0.7110    2.6520    0.7920 C   0  0  0  0  0  0  0  0  0  0  0  0
   -1.3610    3.7140    0.5430 O   0  0  0  0  0  0  0  0  0  0  0  0
    0.7550    0.5580    1.2760 H   0  0  0  0  0  0  0  0  0  0  0  0
    1.1990    3.4220    1.0440 H   0  0  0  0  0  0  0  0  0  0  0  0
    0.9400    2.8260   -0.5900 H   0  0  0  0  0  0  0  0  0  0  0  0
   -1.4950    1.6180    1.3710 N   0  0  0  0  0  0  0  0  0  0  0  0
   -2.9310    1.7800    1.6540 C   0  0  1  0  0  0  0  0  0  0  0  0
   -3.6060    0.8380    0.6840 C   0  0  0  0  0  0  0  0  0  0  0  0
   -5.0910    0.7920    0.7840 C   0  0  0  0  0  0  0  0  0  0  0  0
   -5.5650   -0.1830   -0.2600 C   0  0  0  0  0  0  0  0  0  0  0  0
   -5.1630   -0.0120   -1.4460 O   0  0  0  0  0  0  0  0  0  0  0  0
   -3.1670    1.4470    3.0740 C   0  0  0  0  0  0  0  0  0  0  0  0
   -2.2250    1.0770    3.8310 O   0  0  0  0  0  0  0  0  0  0  0  0
   -6.4030   -1.2440    0.0050 O   0  0  0  0  0  0  0  0  0  0  0  0
   -4.4160    1.5120    3.6700 O   0  0  0  0  0  0  0  0  0  0  0  0
   -1.1160    0.6940    1.6270 H   0  0  0  0  0  0  0  0  0  0  0  0
   -3.2070    2.8260    1.4000 H   0  0  0  0  0  0  0  0  0  0  0  0
   -3.3330    1.1670   -0.3360 H   0  0  0  0  0  0  0  0  0  0  0  0
   -3.1740   -0.1830    0.8210 H   0  0  0  0  0  0  0  0  0  0  0  0
   -5.4680    0.3840    1.7360 H   0  0  0  0  0  0  0  0  0  0  0  0
   -5.5370    1.7650    0.5260 H   0  0  0  0  0  0  0  0  0  0  0  0
   -6.4070   -2.1080   -0.5440 H   0  0  0  0  0  0  0  0  0  0  0  0
  1  2  1  0  0  0  0
  1 12  1  0  0  0  0
  2  3  2  0  0  0  0
  3 14  1  0  0  0  0
  4 15  1  0  0  0  0
  4  2  1  0  0  0  0
  5 16  1  0  0  0  0
  5  4  1  0  0  0  0
  6  5  1  0  0  0  0
  6  7  1  0  0  0  0
  7 21  1  0  0  0  0
  7  8  1  0  0  0  0
  8  9  1  0  0  0  0
  8 22  1  1  0  0  0
  9 23  1  0  0  0  0
  9 24  1  0  0  0  0
 10 25  1  0  0  0  0
 10  8  1  0  0  0  0
 11 10  2  0  0  0  0
 13  1  1  0  0  0  0
 17  5  1  0  0  0  0
 18  6  1  0  0  0  0
 19  6  1  0  0  0  0
 20  7  1  0  0  0  0
 25 29  1  0  0  0  0
 26 27  1  0  0  0  0
 26 25  1  0  0  0  0
 26 30  1  0  0  0  0
 27 32  1  0  0  0  0
 28 27  2  0  0  0  0
 31 26  1  0  0  0  0
 32 42  1  0  0  0  0
 32 33  1  0  0  0  0
 33 43  1  6  0  0  0
 33 38  1  0  0  0  0
 34 35  1  0  0  0  0
 34 45  1  0  0  0  0
 34 33  1  0  0  0  0
 35 46  1  0  0  0  0
 36 40  1  0  0  0  0
 36 35  1  0  0  0  0
 37 36  2  0  0  0  0
 38 41  2  0  0  0  0
 38 39  1  0  0  0  0
 44 34  1  0  0  0  0
 47 35  1  0  0  0  0
 48 40  1  0  0  0  0
M  END
$$$$
