RGF.pdb
 OpenBabel07022418043D

 52 52  0  0  1  0  0  0  0  0999 V2000
    5.7610   -1.7830    7.4500 N   0  0  0  0  0  0  0  0  0  0  0  0
    4.9100   -1.8890    6.3150 C   0  0  0  0  0  0  0  0  0  0  0  0
    3.6550   -1.7730    6.4740 N   0  0  0  0  0  0  0  0  0  0  0  0
    5.4610   -2.1200    5.0420 N   0  0  0  0  0  0  0  0  0  0  0  0
    4.6290   -2.1550    3.8250 C   0  0  0  0  0  0  0  0  0  0  0  0
    4.0810   -0.8020    3.5200 C   0  0  0  0  0  0  0  0  0  0  0  0
    3.2380   -0.6780    2.3030 C   0  0  0  0  0  0  0  0  0  0  0  0
    1.9950   -1.4960    2.2510 C   0  0  2  0  0  0  0  0  0  0  0  0
    2.2430   -2.9180    2.3240 N   0  0  0  0  0  0  0  0  0  0  0  0
    1.2040   -1.2420    1.0120 C   0  0  0  0  0  0  0  0  0  0  0  0
    0.8930   -2.1980    0.2590 O   0  0  0  0  0  0  0  0  0  0  0  0
    6.7940   -1.8840    7.3580 H   0  0  0  0  0  0  0  0  0  0  0  0
    5.4050   -1.6020    8.4130 H   0  0  0  0  0  0  0  0  0  0  0  0
    3.1790   -1.6030    7.3840 H   0  0  0  0  0  0  0  0  0  0  0  0
    6.4840   -2.2670    4.9790 H   0  0  0  0  0  0  0  0  0  0  0  0
    5.2960   -2.4890    3.0090 H   0  0  0  0  0  0  0  0  0  0  0  0
    3.8570   -2.9440    3.9550 H   0  0  0  0  0  0  0  0  0  0  0  0
    4.9440   -0.0810    3.3760 H   0  0  0  0  0  0  0  0  0  0  0  0
    3.5690   -0.3690    4.4360 H   0  0  0  0  0  0  0  0  0  0  0  0
    3.9050   -0.8510    1.4160 H   0  0  0  0  0  0  0  0  0  0  0  0
    2.9190    0.4040    2.2430 H   0  0  0  0  0  0  0  0  0  0  0  0
    1.4010   -1.2130    3.1630 H   0  0  0  0  0  0  0  0  0  0  0  0
    2.9920   -3.1160    1.5950 H   0  0  0  0  0  0  0  0  0  0  0  0
    1.3890   -3.4310    1.9740 H   0  0  0  0  0  0  0  0  0  0  0  0
    0.7730    0.0440    0.6260 N   0  0  0  0  0  0  0  0  0  0  0  0
    0.0050    0.3050   -0.5730 C   0  0  0  0  0  0  0  0  0  0  0  0
   -1.2640   -0.4430   -0.4910 C   0  0  0  0  0  0  0  0  0  0  0  0
   -1.4960   -1.1430    0.5180 O   0  0  0  0  0  0  0  0  0  0  0  0
    1.0160    0.8510    1.2290 H   0  0  0  0  0  0  0  0  0  0  0  0
   -0.2560    1.3750   -0.6730 H   0  0  0  0  0  0  0  0  0  0  0  0
    0.5800    0.0170   -1.4900 H   0  0  0  0  0  0  0  0  0  0  0  0
   -2.2430   -0.4040   -1.5140 N   0  0  0  0  0  0  0  0  0  0  0  0
   -3.4850   -1.1330   -1.4390 C   0  0  1  0  0  0  0  0  0  0  0  0
   -4.6390   -0.1540   -1.3630 C   0  0  0  0  0  0  0  0  0  0  0  0
   -4.6860    0.7280   -2.5510 C   0  0  0  0  0  0  0  0  0  0  0  0
   -4.0100    1.9240   -2.5450 C   0  0  0  0  0  0  0  0  0  0  0  0
   -4.0360    2.7640   -3.6390 C   0  0  0  0  0  0  0  0  0  0  0  0
   -4.7380    2.4270   -4.7640 C   0  0  0  0  0  0  0  0  0  0  0  0
   -5.4130    1.2420   -4.7830 C   0  0  0  0  0  0  0  0  0  0  0  0
   -5.3950    0.3800   -3.6780 C   0  0  0  0  0  0  0  0  0  0  0  0
   -3.6550   -2.0630   -2.5820 C   0  0  0  0  0  0  0  0  0  0  0  0
   -2.7680   -2.1420   -3.4670 O   0  0  0  0  0  0  0  0  0  0  0  0
   -4.7750   -2.8640   -2.7180 O   0  0  0  0  0  0  0  0  0  0  0  0
   -2.0590    0.1740   -2.3530 H   0  0  0  0  0  0  0  0  0  0  0  0
   -3.4830   -1.6870   -0.4730 H   0  0  0  0  0  0  0  0  0  0  0  0
   -5.5660   -0.7730   -1.3780 H   0  0  0  0  0  0  0  0  0  0  0  0
   -4.6580    0.3960   -0.4080 H   0  0  0  0  0  0  0  0  0  0  0  0
   -3.4300    2.2560   -1.6810 H   0  0  0  0  0  0  0  0  0  0  0  0
   -3.4880    3.7210   -3.6180 H   0  0  0  0  0  0  0  0  0  0  0  0
   -4.7580    3.0750   -5.6110 H   0  0  0  0  0  0  0  0  0  0  0  0
   -5.9830    0.9240   -5.6390 H   0  0  0  0  0  0  0  0  0  0  0  0
   -5.9420   -0.5530   -3.7280 H   0  0  0  0  0  0  0  0  0  0  0  0
  1 13  1  0  0  0  0
  2  3  2  0  0  0  0
  2  1  1  0  0  0  0
  3 14  1  0  0  0  0
  4  2  1  0  0  0  0
  5 17  1  0  0  0  0
  5  4  1  0  0  0  0
  6  5  1  0  0  0  0
  6 19  1  0  0  0  0
  7  6  1  0  0  0  0
  8  7  1  0  0  0  0
  8  9  1  0  0  0  0
  8 22  1  1  0  0  0
 10  8  1  0  0  0  0
 11 10  2  0  0  0  0
 12  1  1  0  0  0  0
 15  4  1  0  0  0  0
 16  5  1  0  0  0  0
 18  6  1  0  0  0  0
 20  7  1  0  0  0  0
 21  7  1  0  0  0  0
 23  9  1  0  0  0  0
 24  9  1  0  0  0  0
 25 10  1  0  0  0  0
 25 29  1  0  0  0  0
 26 27  1  0  0  0  0
 26 25  1  0  0  0  0
 27 28  2  0  0  0  0
 30 26  1  0  0  0  0
 31 26  1  0  0  0  0
 32 33  1  0  0  0  0
 32 27  1  0  0  0  0
 33 34  1  0  0  0  0
 33 45  1  1  0  0  0
 34 47  1  0  0  0  0
 35 36  1  0  0  0  0
 35 34  1  0  0  0  0
 36 48  1  0  0  0  0
 37 49  1  0  0  0  0
 37 36  2  0  0  0  0
 38 37  1  0  0  0  0
 39 38  2  0  0  0  0
 39 40  1  0  0  0  0
 40 35  2  0  0  0  0
 41 33  1  0  0  0  0
 42 41  2  0  0  0  0
 43 41  1  0  0  0  0
 44 32  1  0  0  0  0
 46 34  1  0  0  0  0
 50 38  1  0  0  0  0
 51 39  1  0  0  0  0
 52 40  1  0  0  0  0
M  END
$$$$
