RGG.pdb
 OpenBabel07022418043D

 39 38  0  0  1  0  0  0  0  0999 V2000
   -0.8730   -2.0890    2.6100 N   0  0  0  0  0  0  0  0  0  0  0  0
   -0.2980   -3.0440    1.7560 C   0  0  0  0  0  0  0  0  0  0  0  0
   -1.0710   -3.8060    1.0300 N   0  0  0  0  0  0  0  0  0  0  0  0
    1.1000   -3.2340    1.6360 N   0  0  0  0  0  0  0  0  0  0  0  0
    1.7630   -3.5080    0.3930 C   0  0  0  0  0  0  0  0  0  0  0  0
    1.8100   -2.3750   -0.5860 C   0  0  0  0  0  0  0  0  0  0  0  0
    0.4600   -1.8940   -0.9990 C   0  0  0  0  0  0  0  0  0  0  0  0
    0.5780   -0.7450   -2.0230 C   0  0  2  0  0  0  0  0  0  0  0  0
    1.2770   -1.1840   -3.1940 N   0  0  0  0  0  0  0  0  0  0  0  0
    1.2870    0.3390   -1.3070 C   0  0  0  0  0  0  0  0  0  0  0  0
    2.3920    0.7290   -1.7420 O   0  0  0  0  0  0  0  0  0  0  0  0
   -0.2920   -1.4450    3.1840 H   0  0  0  0  0  0  0  0  0  0  0  0
   -1.8980   -1.9950    2.6980 H   0  0  0  0  0  0  0  0  0  0  0  0
   -0.7080   -4.5180    0.3910 H   0  0  0  0  0  0  0  0  0  0  0  0
    1.6420   -3.1530    2.5570 H   0  0  0  0  0  0  0  0  0  0  0  0
    2.8090   -3.8320    0.6560 H   0  0  0  0  0  0  0  0  0  0  0  0
    1.2950   -4.4250   -0.0720 H   0  0  0  0  0  0  0  0  0  0  0  0
    2.4610   -1.5470   -0.2150 H   0  0  0  0  0  0  0  0  0  0  0  0
    2.2980   -2.7740   -1.5270 H   0  0  0  0  0  0  0  0  0  0  0  0
   -0.0460   -1.4840   -0.0760 H   0  0  0  0  0  0  0  0  0  0  0  0
   -0.1740   -2.7040   -1.3660 H   0  0  0  0  0  0  0  0  0  0  0  0
   -0.4640   -0.4680   -2.2990 H   0  0  0  0  0  0  0  0  0  0  0  0
    2.2460   -0.8270   -3.2860 H   0  0  0  0  0  0  0  0  0  0  0  0
    0.7460   -0.8780   -4.0630 H   0  0  0  0  0  0  0  0  0  0  0  0
    0.7860    0.9820   -0.1310 N   0  0  0  0  0  0  0  0  0  0  0  0
    1.4930    2.0290    0.5440 C   0  0  0  0  0  0  0  0  0  0  0  0
    0.7820    2.5280    1.7100 C   0  0  0  0  0  0  0  0  0  0  0  0
    1.3380    3.4760    2.3950 O   0  0  0  0  0  0  0  0  0  0  0  0
   -0.1270    0.6260    0.1870 H   0  0  0  0  0  0  0  0  0  0  0  0
    1.6520    2.9180   -0.1480 H   0  0  0  0  0  0  0  0  0  0  0  0
    2.5530    1.7330    0.7790 H   0  0  0  0  0  0  0  0  0  0  0  0
   -0.4560    2.0790    2.1650 N   0  0  0  0  0  0  0  0  0  0  0  0
   -1.1020    2.6510    3.3660 C   0  0  0  0  0  0  0  0  0  0  0  0
   -2.4080    1.9940    3.6230 C   0  0  0  0  0  0  0  0  0  0  0  0
   -3.0860    2.3590    4.6070 O   0  0  0  0  0  0  0  0  0  0  0  0
   -2.9160    0.9870    2.8180 O   0  0  0  0  0  0  0  0  0  0  0  0
   -0.9730    1.3330    1.6880 H   0  0  0  0  0  0  0  0  0  0  0  0
   -1.3330    3.7230    3.1250 H   0  0  0  0  0  0  0  0  0  0  0  0
   -0.4370    2.6030    4.2390 H   0  0  0  0  0  0  0  0  0  0  0  0
  1 13  1  0  0  0  0
  1 12  1  0  0  0  0
  2  1  1  0  0  0  0
  3  2  2  0  0  0  0
  4  2  1  0  0  0  0
  4 15  1  0  0  0  0
  5 16  1  0  0  0  0
  5  4  1  0  0  0  0
  6 18  1  0  0  0  0
  6  5  1  0  0  0  0
  7  6  1  0  0  0  0
  7 20  1  0  0  0  0
  8 22  1  6  0  0  0
  8 10  1  0  0  0  0
  8  7  1  0  0  0  0
  9  8  1  0  0  0  0
 10 25  1  0  0  0  0
 11 10  2  0  0  0  0
 14  3  1  0  0  0  0
 17  5  1  0  0  0  0
 19  6  1  0  0  0  0
 21  7  1  0  0  0  0
 23  9  1  0  0  0  0
 24  9  1  0  0  0  0
 25 29  1  0  0  0  0
 25 26  1  0  0  0  0
 26 31  1  0  0  0  0
 26 27  1  0  0  0  0
 27 32  1  0  0  0  0
 27 28  2  0  0  0  0
 30 26  1  0  0  0  0
 32 33  1  0  0  0  0
 33 34  1  0  0  0  0
 33 39  1  0  0  0  0
 34 35  1  0  0  0  0
 36 34  2  0  0  0  0
 37 32  1  0  0  0  0
 38 33  1  0  0  0  0
M  END
$$$$
