RGI.pdb
 OpenBabel07022418043D

 51 50  0  0  1  0  0  0  0  0999 V2000
    4.2360   -3.6350    6.3160 N   0  0  0  0  0  0  0  0  0  0  0  0
    3.4290   -2.7580    5.5440 C   0  0  0  0  0  0  0  0  0  0  0  0
    3.0770   -1.6280    6.0600 N   0  0  0  0  0  0  0  0  0  0  0  0
    3.0230   -3.1170    4.2410 N   0  0  0  0  0  0  0  0  0  0  0  0
    2.4470   -2.0770    3.3750 C   0  0  0  0  0  0  0  0  0  0  0  0
    2.0790   -2.6470    2.0340 C   0  0  0  0  0  0  0  0  0  0  0  0
    1.4810   -1.6860    1.0760 C   0  0  0  0  0  0  0  0  0  0  0  0
    2.3040   -0.5150    0.6920 C   0  0  2  0  0  0  0  0  0  0  0  0
    2.7020    0.3600    1.7260 N   0  0  0  0  0  0  0  0  0  0  0  0
    1.6160    0.2550   -0.4000 C   0  0  0  0  0  0  0  0  0  0  0  0
    1.1730   -0.3160   -1.4230 O   0  0  0  0  0  0  0  0  0  0  0  0
    4.2840   -3.5410    7.3540 H   0  0  0  0  0  0  0  0  0  0  0  0
    4.8040   -4.3970    5.8830 H   0  0  0  0  0  0  0  0  0  0  0  0
    3.3490   -1.3210    7.0090 H   0  0  0  0  0  0  0  0  0  0  0  0
    3.1150   -4.0960    3.8650 H   0  0  0  0  0  0  0  0  0  0  0  0
    1.6000   -1.6560    3.9160 H   0  0  0  0  0  0  0  0  0  0  0  0
    3.2970   -1.3650    3.2210 H   0  0  0  0  0  0  0  0  0  0  0  0
    1.2880   -3.4280    2.2380 H   0  0  0  0  0  0  0  0  0  0  0  0
    2.9110   -3.2130    1.5710 H   0  0  0  0  0  0  0  0  0  0  0  0
    1.1830   -2.2710    0.1660 H   0  0  0  0  0  0  0  0  0  0  0  0
    0.5000   -1.3290    1.4930 H   0  0  0  0  0  0  0  0  0  0  0  0
    3.2440   -0.9090    0.2090 H   0  0  0  0  0  0  0  0  0  0  0  0
    3.5750    0.8700    1.5930 H   0  0  0  0  0  0  0  0  0  0  0  0
    1.9770    0.7880    2.2960 H   0  0  0  0  0  0  0  0  0  0  0  0
    1.4470    1.6680   -0.2990 N   0  0  0  0  0  0  0  0  0  0  0  0
    0.7860    2.4460   -1.3130 C   0  0  0  0  0  0  0  0  0  0  0  0
   -0.6420    2.1000   -1.5080 C   0  0  0  0  0  0  0  0  0  0  0  0
   -1.3410    2.6810   -2.3940 O   0  0  0  0  0  0  0  0  0  0  0  0
    1.8400    2.1350    0.5790 H   0  0  0  0  0  0  0  0  0  0  0  0
    1.3450    2.3330   -2.2750 H   0  0  0  0  0  0  0  0  0  0  0  0
    0.8010    3.5130   -0.9890 H   0  0  0  0  0  0  0  0  0  0  0  0
   -2.6830   -2.2190   -3.2250 C   0  0  0  0  0  0  0  0  0  0  0  0
   -2.3300   -0.8480   -2.6930 C   0  0  0  0  0  0  0  0  0  0  0  0
   -3.0540   -0.5630   -1.3830 C   0  0  2  0  0  0  0  0  0  0  0  0
   -4.5340   -0.6400   -1.6920 C   0  0  0  0  0  0  0  0  0  0  0  0
   -2.7380    0.8280   -0.9840 C   0  0  2  0  0  0  0  0  0  0  0  0
   -1.3590    1.1320   -0.7650 N   0  0  0  0  0  0  0  0  0  0  0  0
   -3.5800    1.1800    0.2040 C   0  0  0  0  0  0  0  0  0  0  0  0
   -3.0600    1.6740    1.2500 O   0  0  0  0  0  0  0  0  0  0  0  0
   -4.9520    0.9920    0.2360 O   0  0  0  0  0  0  0  0  0  0  0  0
   -3.4540   -2.1690   -4.0160 H   0  0  0  0  0  0  0  0  0  0  0  0
   -3.0300   -2.8130   -2.3350 H   0  0  0  0  0  0  0  0  0  0  0  0
   -1.7720   -2.6510   -3.6820 H   0  0  0  0  0  0  0  0  0  0  0  0
   -2.7320   -0.1040   -3.4280 H   0  0  0  0  0  0  0  0  0  0  0  0
   -1.2530   -0.7380   -2.6080 H   0  0  0  0  0  0  0  0  0  0  0  0
   -2.8610   -1.3310   -0.6290 H   0  0  0  0  0  0  0  0  0  0  0  0
   -5.0500   -1.0700   -0.8220 H   0  0  0  0  0  0  0  0  0  0  0  0
   -4.6570   -1.3930   -2.5090 H   0  0  0  0  0  0  0  0  0  0  0  0
   -4.9470    0.3360   -2.0120 H   0  0  0  0  0  0  0  0  0  0  0  0
   -3.0880    1.4950   -1.8020 H   0  0  0  0  0  0  0  0  0  0  0  0
   -0.8860    0.6030    0.0000 H   0  0  0  0  0  0  0  0  0  0  0  0
  1 12  1  0  0  0  0
  2  3  2  0  0  0  0
  2  1  1  0  0  0  0
  3 14  1  0  0  0  0
  4  2  1  0  0  0  0
  5 16  1  0  0  0  0
  5  4  1  0  0  0  0
  6 18  1  0  0  0  0
  6  5  1  0  0  0  0
  7 21  1  0  0  0  0
  7  6  1  0  0  0  0
  8 22  1  6  0  0  0
  8  7  1  0  0  0  0
  8  9  1  0  0  0  0
  9 24  1  0  0  0  0
 10 25  1  0  0  0  0
 10  8  1  0  0  0  0
 11 10  2  0  0  0  0
 13  1  1  0  0  0  0
 15  4  1  0  0  0  0
 17  5  1  0  0  0  0
 19  6  1  0  0  0  0
 20  7  1  0  0  0  0
 23  9  1  0  0  0  0
 25 29  1  0  0  0  0
 26 31  1  0  0  0  0
 26 25  1  0  0  0  0
 27 26  1  0  0  0  0
 27 37  1  0  0  0  0
 28 27  2  0  0  0  0
 30 26  1  0  0  0  0
 32 33  1  0  0  0  0
 32 42  1  0  0  0  0
 33 45  1  0  0  0  0
 33 34  1  0  0  0  0
 34 36  1  0  0  0  0
 34 46  1  1  0  0  0
 35 34  1  0  0  0  0
 35 47  1  0  0  0  0
 36 50  1  6  0  0  0
 36 37  1  0  0  0  0
 36 38  1  0  0  0  0
 37 51  1  0  0  0  0
 38 40  2  0  0  0  0
 38 39  1  0  0  0  0
 41 32  1  0  0  0  0
 43 32  1  0  0  0  0
 44 33  1  0  0  0  0
 48 35  1  0  0  0  0
 49 35  1  0  0  0  0
M  END
$$$$
