RGK.pdb
 OpenBabel07022418043D

 53 52  0  0  1  0  0  0  0  0999 V2000
    2.3040   -5.5960    0.8870 N   0  0  0  0  0  0  0  0  0  0  0  0
    2.8970   -4.3170    0.8920 C   0  0  0  0  0  0  0  0  0  0  0  0
    4.0170   -4.1860    1.5590 N   0  0  0  0  0  0  0  0  0  0  0  0
    2.3470   -3.1950    0.2220 N   0  0  0  0  0  0  0  0  0  0  0  0
    2.9580   -1.8800    0.4460 C   0  0  0  0  0  0  0  0  0  0  0  0
    2.2000   -0.8630   -0.3690 C   0  0  0  0  0  0  0  0  0  0  0  0
    2.6830    0.5280   -0.2740 C   0  0  0  0  0  0  0  0  0  0  0  0
    2.6990    1.1800    1.0560 C   0  0  2  0  0  0  0  0  0  0  0  0
    3.5170    0.5200    2.0160 N   0  0  0  0  0  0  0  0  0  0  0  0
    1.4000    1.5760    1.6100 C   0  0  0  0  0  0  0  0  0  0  0  0
    0.5720    2.1340    0.8460 O   0  0  0  0  0  0  0  0  0  0  0  0
    1.2730   -5.6900    0.8800 H   0  0  0  0  0  0  0  0  0  0  0  0
    2.8960   -6.4460    0.8910 H   0  0  0  0  0  0  0  0  0  0  0  0
    4.4860   -3.2730    1.5910 H   0  0  0  0  0  0  0  0  0  0  0  0
    1.5290   -3.3470   -0.4060 H   0  0  0  0  0  0  0  0  0  0  0  0
    3.9930   -1.9480    0.1240 H   0  0  0  0  0  0  0  0  0  0  0  0
    2.7930   -1.6890    1.5260 H   0  0  0  0  0  0  0  0  0  0  0  0
    2.3820   -1.1830   -1.4470 H   0  0  0  0  0  0  0  0  0  0  0  0
    1.1150   -0.9560   -0.2510 H   0  0  0  0  0  0  0  0  0  0  0  0
    3.7180    0.5960   -0.6880 H   0  0  0  0  0  0  0  0  0  0  0  0
    2.0530    1.1550   -0.9470 H   0  0  0  0  0  0  0  0  0  0  0  0
    3.2330    2.1780    0.8780 H   0  0  0  0  0  0  0  0  0  0  0  0
    4.3730    0.0860    1.6440 H   0  0  0  0  0  0  0  0  0  0  0  0
    3.6170    0.9880    2.9240 H   0  0  0  0  0  0  0  0  0  0  0  0
    1.0530    1.3540    2.9720 N   0  0  0  0  0  0  0  0  0  0  0  0
   -0.2110    1.7430    3.5020 C   0  0  0  0  0  0  0  0  0  0  0  0
   -1.3080    1.0000    2.8600 C   0  0  0  0  0  0  0  0  0  0  0  0
   -2.5330    1.2570    3.1700 O   0  0  0  0  0  0  0  0  0  0  0  0
    1.7320    0.8860    3.6420 H   0  0  0  0  0  0  0  0  0  0  0  0
   -0.3670    2.8490    3.3320 H   0  0  0  0  0  0  0  0  0  0  0  0
   -0.2340    1.6450    4.6140 H   0  0  0  0  0  0  0  0  0  0  0  0
   -1.1180   -0.0030    1.9090 N   0  0  0  0  0  0  0  0  0  0  0  0
   -2.2850   -0.7050    1.3000 C   0  0  1  0  0  0  0  0  0  0  0  0
   -2.2380   -0.4030   -0.2010 C   0  0  0  0  0  0  0  0  0  0  0  0
   -3.3800   -1.0510   -0.8760 C   0  0  0  0  0  0  0  0  0  0  0  0
   -3.3990   -0.7890   -2.3640 C   0  0  0  0  0  0  0  0  0  0  0  0
   -3.5100    0.6880   -2.6130 C   0  0  0  0  0  0  0  0  0  0  0  0
   -4.7510    1.1320   -1.9710 N   0  0  0  0  0  0  0  0  0  0  0  0
   -2.0550   -2.1480    1.4830 C   0  0  0  0  0  0  0  0  0  0  0  0
   -0.9370   -2.5120    1.9990 O   0  0  0  0  0  0  0  0  0  0  0  0
   -2.9450   -3.1580    1.1500 O   0  0  0  0  0  0  0  0  0  0  0  0
   -0.1750   -0.2940    1.6180 H   0  0  0  0  0  0  0  0  0  0  0  0
   -3.2250   -0.3330    1.7090 H   0  0  0  0  0  0  0  0  0  0  0  0
   -1.2580   -0.8390   -0.5390 H   0  0  0  0  0  0  0  0  0  0  0  0
   -2.2390    0.7050   -0.3510 H   0  0  0  0  0  0  0  0  0  0  0  0
   -3.4060   -2.1580   -0.7730 H   0  0  0  0  0  0  0  0  0  0  0  0
   -4.3570   -0.7170   -0.4280 H   0  0  0  0  0  0  0  0  0  0  0  0
   -2.4670   -1.2110   -2.8080 H   0  0  0  0  0  0  0  0  0  0  0  0
   -4.2540   -1.3530   -2.8280 H   0  0  0  0  0  0  0  0  0  0  0  0
   -3.5760    0.8730   -3.7210 H   0  0  0  0  0  0  0  0  0  0  0  0
   -2.6430    1.1980   -2.1950 H   0  0  0  0  0  0  0  0  0  0  0  0
   -5.5140    0.4410   -2.1120 H   0  0  0  0  0  0  0  0  0  0  0  0
   -5.0240    2.0200   -2.4450 H   0  0  0  0  0  0  0  0  0  0  0  0
  1 13  1  0  0  0  0
  1  2  1  0  0  0  0
  2  3  2  0  0  0  0
  3 14  1  0  0  0  0
  4  5  1  0  0  0  0
  4  2  1  0  0  0  0
  5 17  1  0  0  0  0
  6  7  1  0  0  0  0
  6 19  1  0  0  0  0
  6  5  1  0  0  0  0
  7  8  1  0  0  0  0
  8 22  1  6  0  0  0
  8 10  1  0  0  0  0
  8  9  1  0  0  0  0
  9 24  1  0  0  0  0
 10 25  1  0  0  0  0
 11 10  2  0  0  0  0
 12  1  1  0  0  0  0
 15  4  1  0  0  0  0
 16  5  1  0  0  0  0
 18  6  1  0  0  0  0
 20  7  1  0  0  0  0
 21  7  1  0  0  0  0
 23  9  1  0  0  0  0
 25 26  1  0  0  0  0
 25 29  1  0  0  0  0
 26 31  1  0  0  0  0
 27 28  2  0  0  0  0
 27 26  1  0  0  0  0
 30 26  1  0  0  0  0
 32 27  1  0  0  0  0
 33 39  1  0  0  0  0
 33 43  1  1  0  0  0
 33 32  1  0  0  0  0
 34 33  1  0  0  0  0
 35 46  1  0  0  0  0
 35 47  1  0  0  0  0
 35 34  1  0  0  0  0
 36 35  1  0  0  0  0
 37 36  1  0  0  0  0
 37 51  1  0  0  0  0
 37 38  1  0  0  0  0
 39 40  1  0  0  0  0
 41 39  2  0  0  0  0
 42 32  1  0  0  0  0
 44 34  1  0  0  0  0
 45 34  1  0  0  0  0
 48 36  1  0  0  0  0
 49 36  1  0  0  0  0
 50 37  1  0  0  0  0
 52 38  1  0  0  0  0
 53 38  1  0  0  0  0
M  END
$$$$
