RGM.pdb
 OpenBabel07022418043D

 49 48  0  0  1  0  0  0  0  0999 V2000
    1.1390   -4.8520    2.9670 N   0  0  0  0  0  0  0  0  0  0  0  0
    2.1760   -4.0420    2.4120 C   0  0  0  0  0  0  0  0  0  0  0  0
    3.2340   -3.8520    3.1380 N   0  0  0  0  0  0  0  0  0  0  0  0
    2.0770   -3.4620    1.1300 N   0  0  0  0  0  0  0  0  0  0  0  0
    3.2850   -3.0120    0.4690 C   0  0  0  0  0  0  0  0  0  0  0  0
    2.9940   -2.4210   -0.8870 C   0  0  0  0  0  0  0  0  0  0  0  0
    2.0750   -1.2640   -0.8750 C   0  0  0  0  0  0  0  0  0  0  0  0
    2.4930   -0.0670   -0.1090 C   0  0  2  0  0  0  0  0  0  0  0  0
    2.7060   -0.2260    1.2860 N   0  0  0  0  0  0  0  0  0  0  0  0
    1.5160    1.0330   -0.3290 C   0  0  0  0  0  0  0  0  0  0  0  0
    1.1930    1.3300   -1.5070 O   0  0  0  0  0  0  0  0  0  0  0  0
    1.0530   -5.0400    3.9710 H   0  0  0  0  0  0  0  0  0  0  0  0
    0.4530   -5.2550    2.2750 H   0  0  0  0  0  0  0  0  0  0  0  0
    3.3570   -4.2490    4.0740 H   0  0  0  0  0  0  0  0  0  0  0  0
    1.1370   -3.3700    0.6850 H   0  0  0  0  0  0  0  0  0  0  0  0
    3.7620   -2.2470    1.0930 H   0  0  0  0  0  0  0  0  0  0  0  0
    3.9580   -3.9170    0.3610 H   0  0  0  0  0  0  0  0  0  0  0  0
    2.5280   -3.2690   -1.4770 H   0  0  0  0  0  0  0  0  0  0  0  0
    3.9440   -2.2220   -1.4410 H   0  0  0  0  0  0  0  0  0  0  0  0
    1.0890   -1.6220   -0.4940 H   0  0  0  0  0  0  0  0  0  0  0  0
    1.9150   -0.9310   -1.9360 H   0  0  0  0  0  0  0  0  0  0  0  0
    3.4770    0.2700   -0.5480 H   0  0  0  0  0  0  0  0  0  0  0  0
    3.2800    0.5460    1.6550 H   0  0  0  0  0  0  0  0  0  0  0  0
    1.8770   -0.4760    1.8380 H   0  0  0  0  0  0  0  0  0  0  0  0
    0.9290    1.7670    0.7340 N   0  0  0  0  0  0  0  0  0  0  0  0
   -0.0230    2.8200    0.5120 C   0  0  0  0  0  0  0  0  0  0  0  0
   -1.2530    2.3320   -0.1000 C   0  0  0  0  0  0  0  0  0  0  0  0
   -2.2110    3.1060   -0.4460 O   0  0  0  0  0  0  0  0  0  0  0  0
    1.2410    1.4830    1.7110 H   0  0  0  0  0  0  0  0  0  0  0  0
    0.4270    3.6850   -0.0320 H   0  0  0  0  0  0  0  0  0  0  0  0
   -0.3170    3.2280    1.5240 H   0  0  0  0  0  0  0  0  0  0  0  0
   -1.6830   -0.5930    3.5990 C   0  0  0  0  0  0  0  0  0  0  0  0
   -2.0120    0.3720    2.1010 S   0  0  0  0  0  0  0  0  0  0  0  0
   -3.4990   -0.2240    1.2610 C   0  0  0  0  0  0  0  0  0  0  0  0
   -3.7920    0.5670    0.0100 C   0  0  0  0  0  0  0  0  0  0  0  0
   -2.6570    0.4450   -0.9520 C   0  0  2  0  0  0  0  0  0  0  0  0
   -1.4540    0.9540   -0.3400 N   0  0  0  0  0  0  0  0  0  0  0  0
   -2.9330    1.0680   -2.2660 C   0  0  0  0  0  0  0  0  0  0  0  0
   -3.9560    0.7560   -2.9190 O   0  0  0  0  0  0  0  0  0  0  0  0
   -2.0710    2.0050   -2.8000 O   0  0  0  0  0  0  0  0  0  0  0  0
   -0.5940   -0.6350    3.8340 H   0  0  0  0  0  0  0  0  0  0  0  0
   -2.1660   -0.0330    4.4470 H   0  0  0  0  0  0  0  0  0  0  0  0
   -2.1200   -1.6040    3.5580 H   0  0  0  0  0  0  0  0  0  0  0  0
   -3.3050   -1.3070    1.0030 H   0  0  0  0  0  0  0  0  0  0  0  0
   -4.3390   -0.1460    1.9900 H   0  0  0  0  0  0  0  0  0  0  0  0
   -4.7620    0.2730   -0.4470 H   0  0  0  0  0  0  0  0  0  0  0  0
   -3.8410    1.6470    0.3380 H   0  0  0  0  0  0  0  0  0  0  0  0
   -2.4900   -0.6580   -1.1410 H   0  0  0  0  0  0  0  0  0  0  0  0
   -0.7340    0.2210   -0.0640 H   0  0  0  0  0  0  0  0  0  0  0  0
  1 12  1  0  0  0  0
  2  1  1  0  0  0  0
  2  3  2  0  0  0  0
  3 14  1  0  0  0  0
  4  2  1  0  0  0  0
  5 16  1  0  0  0  0
  5  4  1  0  0  0  0
  6  7  1  0  0  0  0
  6  5  1  0  0  0  0
  7 20  1  0  0  0  0
  7  8  1  0  0  0  0
  8 22  1  6  0  0  0
  8  9  1  0  0  0  0
  9 23  1  0  0  0  0
  9 24  1  0  0  0  0
 10  8  1  0  0  0  0
 10 25  1  0  0  0  0
 11 10  2  0  0  0  0
 13  1  1  0  0  0  0
 15  4  1  0  0  0  0
 17  5  1  0  0  0  0
 18  6  1  0  0  0  0
 19  6  1  0  0  0  0
 21  7  1  0  0  0  0
 25 29  1  0  0  0  0
 26 25  1  0  0  0  0
 26 31  1  0  0  0  0
 27 26  1  0  0  0  0
 28 27  2  0  0  0  0
 30 26  1  0  0  0  0
 32 41  1  0  0  0  0
 32 42  1  0  0  0  0
 33 32  1  0  0  0  0
 34 45  1  0  0  0  0
 34 33  1  0  0  0  0
 35 47  1  0  0  0  0
 35 34  1  0  0  0  0
 36 48  1  6  0  0  0
 36 37  1  0  0  0  0
 36 35  1  0  0  0  0
 37 27  1  0  0  0  0
 37 49  1  0  0  0  0
 38 36  1  0  0  0  0
 39 38  2  0  0  0  0
 40 38  1  0  0  0  0
 43 32  1  0  0  0  0
 44 34  1  0  0  0  0
 46 35  1  0  0  0  0
M  END
$$$$
