RGS.pdb
 OpenBabel07022418043D

 43 42  0  0  1  0  0  0  0  0999 V2000
   -1.5700   -5.3340   -2.8070 N   0  0  0  0  0  0  0  0  0  0  0  0
   -1.0580   -4.2090   -2.0970 C   0  0  0  0  0  0  0  0  0  0  0  0
   -1.7800   -3.6240   -1.2110 N   0  0  0  0  0  0  0  0  0  0  0  0
    0.2500   -3.7210   -2.3560 N   0  0  0  0  0  0  0  0  0  0  0  0
    0.6740   -2.4060   -1.7740 C   0  0  0  0  0  0  0  0  0  0  0  0
   -0.0990   -1.3290   -2.4300 C   0  0  0  0  0  0  0  0  0  0  0  0
    0.1290    0.0730   -2.1120 C   0  0  0  0  0  0  0  0  0  0  0  0
   -0.1110    0.6170   -0.7460 C   0  0  2  0  0  0  0  0  0  0  0  0
    0.2170    2.0920   -0.8910 N   0  0  0  0  0  0  0  0  0  0  0  0
    0.7350    0.1190    0.3450 C   0  0  0  0  0  0  0  0  0  0  0  0
    0.4740   -0.8460    1.0970 O   0  0  0  0  0  0  0  0  0  0  0  0
   -1.5510   -5.4050   -3.8440 H   0  0  0  0  0  0  0  0  0  0  0  0
   -1.9860   -6.1270   -2.2360 H   0  0  0  0  0  0  0  0  0  0  0  0
   -2.7450   -3.9630   -1.0010 H   0  0  0  0  0  0  0  0  0  0  0  0
    0.9300   -4.2400   -2.9350 H   0  0  0  0  0  0  0  0  0  0  0  0
    1.7620   -2.3070   -1.9080 H   0  0  0  0  0  0  0  0  0  0  0  0
    0.4810   -2.5730   -0.7000 H   0  0  0  0  0  0  0  0  0  0  0  0
   -1.1900   -1.5500   -2.2130 H   0  0  0  0  0  0  0  0  0  0  0  0
   -0.0570   -1.5250   -3.5620 H   0  0  0  0  0  0  0  0  0  0  0  0
   -0.5940    0.6740   -2.7810 H   0  0  0  0  0  0  0  0  0  0  0  0
    1.1610    0.4020   -2.4900 H   0  0  0  0  0  0  0  0  0  0  0  0
   -1.1940    0.6180   -0.5370 H   0  0  0  0  0  0  0  0  0  0  0  0
   -0.6160    2.5870   -1.2270 H   0  0  0  0  0  0  0  0  0  0  0  0
    1.0400    2.1700   -1.5330 H   0  0  0  0  0  0  0  0  0  0  0  0
    1.9870    0.7710    0.6070 N   0  0  0  0  0  0  0  0  0  0  0  0
    2.8610    0.3560    1.6540 C   0  0  0  0  0  0  0  0  0  0  0  0
    2.3420    0.4720    3.0180 C   0  0  0  0  0  0  0  0  0  0  0  0
    3.0620    0.0770    3.9880 O   0  0  0  0  0  0  0  0  0  0  0  0
    2.2460    1.5760   -0.0020 H   0  0  0  0  0  0  0  0  0  0  0  0
    3.2030   -0.7000    1.4330 H   0  0  0  0  0  0  0  0  0  0  0  0
    3.8180    0.9410    1.6090 H   0  0  0  0  0  0  0  0  0  0  0  0
    1.5910    3.2120    4.9350 O   0  0  0  0  0  0  0  0  0  0  0  0
    0.3930    2.5200    5.0730 C   0  0  0  0  0  0  0  0  0  0  0  0
    0.6290    1.0930    4.6450 C   0  0  2  0  0  0  0  0  0  0  0  0
    1.0670    1.0140    3.2730 N   0  0  0  0  0  0  0  0  0  0  0  0
   -0.5570    0.2400    4.8300 C   0  0  0  0  0  0  0  0  0  0  0  0
   -1.1510    0.1090    5.9340 O   0  0  0  0  0  0  0  0  0  0  0  0
   -1.0520   -0.4540    3.7440 O   0  0  0  0  0  0  0  0  0  0  0  0
    2.0900    3.2810    5.7840 H   0  0  0  0  0  0  0  0  0  0  0  0
   -0.4430    2.9930    4.5210 H   0  0  0  0  0  0  0  0  0  0  0  0
    0.1160    2.5300    6.1460 H   0  0  0  0  0  0  0  0  0  0  0  0
    1.4040    0.6930    5.3460 H   0  0  0  0  0  0  0  0  0  0  0  0
    0.4060    1.3780    2.5610 H   0  0  0  0  0  0  0  0  0  0  0  0
  1 13  1  0  0  0  0
  1  2  1  0  0  0  0
  2  3  2  0  0  0  0
  3 14  1  0  0  0  0
  4  2  1  0  0  0  0
  4  5  1  0  0  0  0
  5 17  1  0  0  0  0
  6 18  1  0  0  0  0
  6  7  1  0  0  0  0
  6  5  1  0  0  0  0
  7  8  1  0  0  0  0
  8 22  1  1  0  0  0
  8 10  1  0  0  0  0
  9  8  1  0  0  0  0
 10 25  1  0  0  0  0
 10 11  2  0  0  0  0
 12  1  1  0  0  0  0
 15  4  1  0  0  0  0
 16  5  1  0  0  0  0
 19  6  1  0  0  0  0
 20  7  1  0  0  0  0
 21  7  1  0  0  0  0
 23  9  1  0  0  0  0
 24  9  1  0  0  0  0
 25 26  1  0  0  0  0
 26 27  1  0  0  0  0
 27 35  1  0  0  0  0
 27 28  2  0  0  0  0
 29 25  1  0  0  0  0
 30 26  1  0  0  0  0
 31 26  1  0  0  0  0
 32 33  1  0  0  0  0
 32 39  1  0  0  0  0
 33 41  1  0  0  0  0
 34 36  1  0  0  0  0
 34 33  1  0  0  0  0
 34 42  1  1  0  0  0
 35 34  1  0  0  0  0
 36 37  1  0  0  0  0
 38 36  2  0  0  0  0
 40 33  1  0  0  0  0
 43 35  1  0  0  0  0
M  END
$$$$
