RGT.pdb
 OpenBabel07022418043D

 46 45  0  0  1  0  0  0  0  0999 V2000
    1.2710   -3.8130    1.1190 N   0  0  0  0  0  0  0  0  0  0  0  0
    2.2670   -3.0800    0.4090 C   0  0  0  0  0  0  0  0  0  0  0  0
    2.8890   -3.5600   -0.6090 N   0  0  0  0  0  0  0  0  0  0  0  0
    2.5510   -1.7540    0.8970 N   0  0  0  0  0  0  0  0  0  0  0  0
    3.8240   -1.1360    0.6380 C   0  0  0  0  0  0  0  0  0  0  0  0
    4.1040   -0.7690   -0.7620 C   0  0  0  0  0  0  0  0  0  0  0  0
    3.2180    0.1960   -1.4380 C   0  0  0  0  0  0  0  0  0  0  0  0
    3.1160    1.5640   -0.8350 C   0  0  2  0  0  0  0  0  0  0  0  0
    4.3590    2.2530   -0.7510 N   0  0  0  0  0  0  0  0  0  0  0  0
    2.2670    1.6550    0.3750 C   0  0  0  0  0  0  0  0  0  0  0  0
    2.6960    2.1690    1.4350 O   0  0  0  0  0  0  0  0  0  0  0  0
    1.0840   -3.6830    2.1270 H   0  0  0  0  0  0  0  0  0  0  0  0
    0.7020   -4.5130    0.6030 H   0  0  0  0  0  0  0  0  0  0  0  0
    2.6410   -4.5270   -0.9140 H   0  0  0  0  0  0  0  0  0  0  0  0
    1.8120   -1.2550    1.4440 H   0  0  0  0  0  0  0  0  0  0  0  0
    4.6110   -1.8680    0.9980 H   0  0  0  0  0  0  0  0  0  0  0  0
    3.9260   -0.2780    1.3390 H   0  0  0  0  0  0  0  0  0  0  0  0
    5.1630   -0.3850   -0.8490 H   0  0  0  0  0  0  0  0  0  0  0  0
    4.0980   -1.7050   -1.3950 H   0  0  0  0  0  0  0  0  0  0  0  0
    3.5510    0.2770   -2.4920 H   0  0  0  0  0  0  0  0  0  0  0  0
    2.1780   -0.2380   -1.4940 H   0  0  0  0  0  0  0  0  0  0  0  0
    2.5170    2.1560   -1.6050 H   0  0  0  0  0  0  0  0  0  0  0  0
    5.1830    1.7040   -1.0660 H   0  0  0  0  0  0  0  0  0  0  0  0
    4.5170    2.8050    0.1010 H   0  0  0  0  0  0  0  0  0  0  0  0
    0.9240    1.1640    0.3860 N   0  0  0  0  0  0  0  0  0  0  0  0
    0.0660    1.2310    1.5370 C   0  0  0  0  0  0  0  0  0  0  0  0
   -1.2480    0.6430    1.1740 C   0  0  0  0  0  0  0  0  0  0  0  0
   -1.4540    0.1950    0.0100 O   0  0  0  0  0  0  0  0  0  0  0  0
    0.6000    0.7450   -0.5130 H   0  0  0  0  0  0  0  0  0  0  0  0
   -0.0770    2.2730    1.8790 H   0  0  0  0  0  0  0  0  0  0  0  0
    0.5100    0.5890    2.3280 H   0  0  0  0  0  0  0  0  0  0  0  0
   -5.1530   -1.9730    2.0860 C   0  0  0  0  0  0  0  0  0  0  0  0
   -3.8670   -1.3190    2.4970 C   0  0  1  0  0  0  0  0  0  0  0  0
   -2.7940   -2.1790    2.1690 O   0  0  0  0  0  0  0  0  0  0  0  0
   -3.6120   -0.0360    1.6970 C   0  0  2  0  0  0  0  0  0  0  0  0
   -2.3360    0.5440    2.0830 N   0  0  0  0  0  0  0  0  0  0  0  0
   -4.7550    0.8640    1.9340 C   0  0  0  0  0  0  0  0  0  0  0  0
   -4.5790    1.9980    2.4200 O   0  0  0  0  0  0  0  0  0  0  0  0
   -6.0240    0.4450    1.6150 O   0  0  0  0  0  0  0  0  0  0  0  0
   -5.4580   -1.7470    1.0410 H   0  0  0  0  0  0  0  0  0  0  0  0
   -5.9690   -1.7430    2.8200 H   0  0  0  0  0  0  0  0  0  0  0  0
   -5.0420   -3.0960    2.1150 H   0  0  0  0  0  0  0  0  0  0  0  0
   -3.8890   -1.1090    3.5810 H   0  0  0  0  0  0  0  0  0  0  0  0
   -3.1600   -3.1010    2.2750 H   0  0  0  0  0  0  0  0  0  0  0  0
   -3.5680   -0.2870    0.6260 H   0  0  0  0  0  0  0  0  0  0  0  0
   -2.2000    0.9050    3.0640 H   0  0  0  0  0  0  0  0  0  0  0  0
  1 12  1  0  0  0  0
  2  4  1  0  0  0  0
  2  1  1  0  0  0  0
  3  2  2  0  0  0  0
  4 15  1  0  0  0  0
  5  4  1  0  0  0  0
  5 16  1  0  0  0  0
  5 17  1  0  0  0  0
  6  5  1  0  0  0  0
  7  8  1  0  0  0  0
  7  6  1  0  0  0  0
  8 22  1  6  0  0  0
  8  9  1  0  0  0  0
  8 10  1  0  0  0  0
  9 24  1  0  0  0  0
 10 25  1  0  0  0  0
 10 11  2  0  0  0  0
 13  1  1  0  0  0  0
 14  3  1  0  0  0  0
 18  6  1  0  0  0  0
 19  6  1  0  0  0  0
 20  7  1  0  0  0  0
 21  7  1  0  0  0  0
 23  9  1  0  0  0  0
 25 26  1  0  0  0  0
 26 30  1  0  0  0  0
 26 31  1  0  0  0  0
 27 26  1  0  0  0  0
 27 36  1  0  0  0  0
 28 27  2  0  0  0  0
 29 25  1  0  0  0  0
 32 42  1  0  0  0  0
 32 33  1  0  0  0  0
 32 41  1  0  0  0  0
 33 43  1  1  0  0  0
 34 44  1  0  0  0  0
 34 33  1  0  0  0  0
 35 45  1  6  0  0  0
 35 37  1  0  0  0  0
 35 36  1  0  0  0  0
 35 33  1  0  0  0  0
 36 46  1  0  0  0  0
 37 38  1  0  0  0  0
 39 37  2  0  0  0  0
 40 32  1  0  0  0  0
M  END
$$$$
