RGV.pdb
 OpenBabel07022418043D

 48 47  0  0  1  0  0  0  0  0999 V2000
    1.5170   -4.3180    3.4700 N   0  0  0  0  0  0  0  0  0  0  0  0
    2.3550   -3.6930    2.5240 C   0  0  0  0  0  0  0  0  0  0  0  0
    3.0980   -4.4380    1.7590 N   0  0  0  0  0  0  0  0  0  0  0  0
    2.4210   -2.2880    2.3690 N   0  0  0  0  0  0  0  0  0  0  0  0
    2.7520   -1.6780    1.0780 C   0  0  0  0  0  0  0  0  0  0  0  0
    1.6300   -1.9160    0.1010 C   0  0  0  0  0  0  0  0  0  0  0  0
    1.8290   -1.3720   -1.2580 C   0  0  0  0  0  0  0  0  0  0  0  0
    2.0190    0.0970   -1.3910 C   0  0  2  0  0  0  0  0  0  0  0  0
    3.1750    0.6160   -0.6720 N   0  0  0  0  0  0  0  0  0  0  0  0
    0.8250    0.9190   -1.1780 C   0  0  0  0  0  0  0  0  0  0  0  0
   -0.2640    0.6710   -1.7410 O   0  0  0  0  0  0  0  0  0  0  0  0
    1.6520   -4.2070    4.4900 H   0  0  0  0  0  0  0  0  0  0  0  0
    0.7320   -4.9120    3.1280 H   0  0  0  0  0  0  0  0  0  0  0  0
    3.0920   -5.4720    1.8260 H   0  0  0  0  0  0  0  0  0  0  0  0
    2.2280   -1.6910    3.1980 H   0  0  0  0  0  0  0  0  0  0  0  0
    3.7130   -2.1330    0.7250 H   0  0  0  0  0  0  0  0  0  0  0  0
    2.9610   -0.6260    1.2790 H   0  0  0  0  0  0  0  0  0  0  0  0
    0.6680   -1.6460    0.5740 H   0  0  0  0  0  0  0  0  0  0  0  0
    1.5790   -3.0440   -0.0090 H   0  0  0  0  0  0  0  0  0  0  0  0
    0.9290   -1.6320   -1.8670 H   0  0  0  0  0  0  0  0  0  0  0  0
    2.7050   -1.8800   -1.7260 H   0  0  0  0  0  0  0  0  0  0  0  0
    2.3020    0.2610   -2.4860 H   0  0  0  0  0  0  0  0  0  0  0  0
    3.3600    1.5590   -1.0970 H   0  0  0  0  0  0  0  0  0  0  0  0
    3.9930    0.0230   -0.9770 H   0  0  0  0  0  0  0  0  0  0  0  0
    0.8950    2.0360   -0.3060 N   0  0  0  0  0  0  0  0  0  0  0  0
   -0.1970    2.9260   -0.0040 C   0  0  0  0  0  0  0  0  0  0  0  0
   -1.3380    2.3150    0.6540 C   0  0  0  0  0  0  0  0  0  0  0  0
   -2.3380    3.0460    0.9110 O   0  0  0  0  0  0  0  0  0  0  0  0
    1.8230    2.2440    0.1700 H   0  0  0  0  0  0  0  0  0  0  0  0
    0.1650    3.7770    0.6360 H   0  0  0  0  0  0  0  0  0  0  0  0
   -0.5280    3.4340   -0.9530 H   0  0  0  0  0  0  0  0  0  0  0  0
   -2.3160   -1.7010    0.3660 C   0  0  0  0  0  0  0  0  0  0  0  0
   -3.2660   -0.5760    0.7320 C   0  0  0  0  0  0  0  0  0  0  0  0
   -3.6560    0.1060   -0.5550 C   0  0  0  0  0  0  0  0  0  0  0  0
   -2.6020    0.4080    1.6880 C   0  0  2  0  0  0  0  0  0  0  0  0
   -1.4290    0.9700    1.0350 N   0  0  0  0  0  0  0  0  0  0  0  0
   -2.3070   -0.1820    2.9850 C   0  0  0  0  0  0  0  0  0  0  0  0
   -1.1440   -0.1780    3.4450 O   0  0  0  0  0  0  0  0  0  0  0  0
   -3.3080   -0.7620    3.7370 O   0  0  0  0  0  0  0  0  0  0  0  0
   -1.9000   -2.1870    1.2640 H   0  0  0  0  0  0  0  0  0  0  0  0
   -2.8950   -2.4340   -0.2450 H   0  0  0  0  0  0  0  0  0  0  0  0
   -1.5320   -1.2600   -0.2670 H   0  0  0  0  0  0  0  0  0  0  0  0
   -4.2100   -0.9740    1.1880 H   0  0  0  0  0  0  0  0  0  0  0  0
   -3.1090    1.0240   -0.7620 H   0  0  0  0  0  0  0  0  0  0  0  0
   -3.4540   -0.5710   -1.4360 H   0  0  0  0  0  0  0  0  0  0  0  0
   -4.7450    0.3730   -0.5550 H   0  0  0  0  0  0  0  0  0  0  0  0
   -3.3380    1.2640    1.7640 H   0  0  0  0  0  0  0  0  0  0  0  0
   -0.6370    0.3260    0.8710 H   0  0  0  0  0  0  0  0  0  0  0  0
  1 12  1  0  0  0  0
  2  1  1  0  0  0  0
  3 14  1  0  0  0  0
  3  2  2  0  0  0  0
  4  2  1  0  0  0  0
  4 15  1  0  0  0  0
  5 17  1  0  0  0  0
  5  4  1  0  0  0  0
  6 18  1  0  0  0  0
  6  5  1  0  0  0  0
  7  6  1  0  0  0  0
  8 22  1  6  0  0  0
  8  7  1  0  0  0  0
  8 10  1  0  0  0  0
  8  9  1  0  0  0  0
 10 25  1  0  0  0  0
 11 10  2  0  0  0  0
 13  1  1  0  0  0  0
 16  5  1  0  0  0  0
 19  6  1  0  0  0  0
 20  7  1  0  0  0  0
 21  7  1  0  0  0  0
 23  9  1  0  0  0  0
 24  9  1  0  0  0  0
 25 26  1  0  0  0  0
 25 29  1  0  0  0  0
 26 30  1  0  0  0  0
 26 27  1  0  0  0  0
 27 28  2  0  0  0  0
 27 36  1  0  0  0  0
 31 26  1  0  0  0  0
 32 33  1  0  0  0  0
 32 40  1  0  0  0  0
 33 43  1  0  0  0  0
 33 35  1  0  0  0  0
 34 33  1  0  0  0  0
 35 47  1  1  0  0  0
 35 37  1  0  0  0  0
 36 35  1  0  0  0  0
 37 38  2  0  0  0  0
 37 39  1  0  0  0  0
 41 32  1  0  0  0  0
 42 32  1  0  0  0  0
 44 34  1  0  0  0  0
 45 34  1  0  0  0  0
 46 34  1  0  0  0  0
 48 36  1  0  0  0  0
M  END
$$$$
