RGY.pdb
 OpenBabel07022418043D

 53 53  0  0  1  0  0  0  0  0999 V2000
    2.9660   -2.5920    4.5450 N   0  0  0  0  0  0  0  0  0  0  0  0
    3.2220   -1.7140    3.4320 C   0  0  0  0  0  0  0  0  0  0  0  0
    2.5080   -1.7870    2.3690 N   0  0  0  0  0  0  0  0  0  0  0  0
    4.2610   -0.7480    3.4770 N   0  0  0  0  0  0  0  0  0  0  0  0
    4.1660    0.5250    2.8070 C   0  0  0  0  0  0  0  0  0  0  0  0
    4.1880    0.4690    1.3260 C   0  0  0  0  0  0  0  0  0  0  0  0
    4.1110    1.7440    0.5900 C   0  0  0  0  0  0  0  0  0  0  0  0
    2.9280    2.6040    0.7730 C   0  0  2  0  0  0  0  0  0  0  0  0
    2.6640    3.0790    2.0910 N   0  0  0  0  0  0  0  0  0  0  0  0
    1.6900    2.0180    0.1800 C   0  0  0  0  0  0  0  0  0  0  0  0
    1.7120    1.5530   -0.9830 O   0  0  0  0  0  0  0  0  0  0  0  0
    3.5940   -2.5570    5.3710 H   0  0  0  0  0  0  0  0  0  0  0  0
    2.1760   -3.2570    4.5500 H   0  0  0  0  0  0  0  0  0  0  0  0
    1.7360   -2.4940    2.3210 H   0  0  0  0  0  0  0  0  0  0  0  0
    5.1230   -1.0250    4.0420 H   0  0  0  0  0  0  0  0  0  0  0  0
    3.2760    1.1060    3.1650 H   0  0  0  0  0  0  0  0  0  0  0  0
    5.0640    1.1240    3.1410 H   0  0  0  0  0  0  0  0  0  0  0  0
    5.1790   -0.0060    1.0440 H   0  0  0  0  0  0  0  0  0  0  0  0
    3.4290   -0.2160    0.8980 H   0  0  0  0  0  0  0  0  0  0  0  0
    5.0240    2.3880    0.7180 H   0  0  0  0  0  0  0  0  0  0  0  0
    4.1460    1.4820   -0.5110 H   0  0  0  0  0  0  0  0  0  0  0  0
    3.1150    3.5310    0.1440 H   0  0  0  0  0  0  0  0  0  0  0  0
    1.8950    3.7620    2.0940 H   0  0  0  0  0  0  0  0  0  0  0  0
    3.5400    3.4700    2.5030 H   0  0  0  0  0  0  0  0  0  0  0  0
    0.4820    1.9770    0.9090 N   0  0  0  0  0  0  0  0  0  0  0  0
   -0.6920    1.3990    0.2910 C   0  0  0  0  0  0  0  0  0  0  0  0
   -0.4910   -0.0080   -0.0730 C   0  0  0  0  0  0  0  0  0  0  0  0
    0.6260   -0.5240    0.1860 O   0  0  0  0  0  0  0  0  0  0  0  0
    0.4190    2.3620    1.9010 H   0  0  0  0  0  0  0  0  0  0  0  0
   -1.5670    1.4500    1.0010 H   0  0  0  0  0  0  0  0  0  0  0  0
   -0.9850    2.0420   -0.5610 H   0  0  0  0  0  0  0  0  0  0  0  0
   -7.7630   -2.1180   -1.3470 O   0  0  0  0  0  0  0  0  0  0  0  0
   -6.4020   -2.3870   -1.1380 C   0  0  0  0  0  0  0  0  0  0  0  0
   -5.7180   -1.8380   -0.0770 C   0  0  0  0  0  0  0  0  0  0  0  0
   -4.3760   -2.1100    0.1190 C   0  0  0  0  0  0  0  0  0  0  0  0
   -3.6570   -2.9320   -0.7220 C   0  0  0  0  0  0  0  0  0  0  0  0
   -2.2250   -3.1720   -0.4380 C   0  0  0  0  0  0  0  0  0  0  0  0
   -1.2810   -2.2090   -1.0600 C   0  0  2  0  0  0  0  0  0  0  0  0
   -1.4460   -0.8390   -0.6930 N   0  0  0  0  0  0  0  0  0  0  0  0
   -1.3650   -2.3640   -2.5340 C   0  0  0  0  0  0  0  0  0  0  0  0
   -1.5690   -1.3690   -3.2640 O   0  0  0  0  0  0  0  0  0  0  0  0
   -4.3550   -3.4730   -1.7790 C   0  0  0  0  0  0  0  0  0  0  0  0
   -5.6990   -3.2110   -1.9900 C   0  0  0  0  0  0  0  0  0  0  0  0
   -1.2140   -3.6270   -3.0880 O   0  0  0  0  0  0  0  0  0  0  0  0
   -8.3910   -2.0630   -0.5740 H   0  0  0  0  0  0  0  0  0  0  0  0
   -6.2770   -1.1930    0.5870 H   0  0  0  0  0  0  0  0  0  0  0  0
   -3.8560   -1.6680    0.9630 H   0  0  0  0  0  0  0  0  0  0  0  0
   -2.0510   -3.3440    0.6470 H   0  0  0  0  0  0  0  0  0  0  0  0
   -1.9860   -4.1770   -0.9040 H   0  0  0  0  0  0  0  0  0  0  0  0
   -0.2470   -2.5850   -0.7900 H   0  0  0  0  0  0  0  0  0  0  0  0
   -2.3690   -0.3920   -0.9000 H   0  0  0  0  0  0  0  0  0  0  0  0
   -3.8320   -4.1210   -2.4590 H   0  0  0  0  0  0  0  0  0  0  0  0
   -6.1790   -3.6670   -2.8340 H   0  0  0  0  0  0  0  0  0  0  0  0
  1 13  1  0  0  0  0
  1 12  1  0  0  0  0
  2  4  1  0  0  0  0
  2  1  1  0  0  0  0
  3  2  2  0  0  0  0
  4 15  1  0  0  0  0
  5 17  1  0  0  0  0
  5 16  1  0  0  0  0
  5  4  1  0  0  0  0
  6  5  1  0  0  0  0
  7 20  1  0  0  0  0
  7  8  1  0  0  0  0
  7  6  1  0  0  0  0
  8 22  1  6  0  0  0
  8  9  1  0  0  0  0
  9 23  1  0  0  0  0
  9 24  1  0  0  0  0
 10  8  1  0  0  0  0
 10 25  1  0  0  0  0
 11 10  2  0  0  0  0
 14  3  1  0  0  0  0
 18  6  1  0  0  0  0
 19  6  1  0  0  0  0
 21  7  1  0  0  0  0
 25 29  1  0  0  0  0
 26 25  1  0  0  0  0
 26 30  1  0  0  0  0
 27 28  2  0  0  0  0
 27 26  1  0  0  0  0
 31 26  1  0  0  0  0
 32 33  1  0  0  0  0
 32 45  1  0  0  0  0
 33 34  1  0  0  0  0
 34 35  2  0  0  0  0
 34 46  1  0  0  0  0
 35 47  1  0  0  0  0
 36 37  1  0  0  0  0
 36 35  1  0  0  0  0
 37 48  1  0  0  0  0
 38 50  1  1  0  0  0
 38 39  1  0  0  0  0
 38 37  1  0  0  0  0
 39 27  1  0  0  0  0
 40 38  1  0  0  0  0
 41 40  2  0  0  0  0
 42 36  2  0  0  0  0
 43 42  1  0  0  0  0
 43 33  2  0  0  0  0
 44 40  1  0  0  0  0
 49 37  1  0  0  0  0
 51 39  1  0  0  0  0
 52 42  1  0  0  0  0
 53 43  1  0  0  0  0
M  END
$$$$
