RHA.pdb
 OpenBabel07022418053D

 52 52  0  0  1  0  0  0  0  0999 V2000
    2.1850   -5.3180    1.1310 N   0  0  0  0  0  0  0  0  0  0  0  0
    2.5110   -4.3580    0.1100 C   0  0  0  0  0  0  0  0  0  0  0  0
    1.7090   -4.1270   -0.8810 N   0  0  0  0  0  0  0  0  0  0  0  0
    3.7430   -3.6710    0.2220 N   0  0  0  0  0  0  0  0  0  0  0  0
    3.8410   -2.3130   -0.2990 C   0  0  0  0  0  0  0  0  0  0  0  0
    2.9790   -1.3710    0.5590 C   0  0  0  0  0  0  0  0  0  0  0  0
    3.1280   -0.0060   -0.0100 C   0  0  0  0  0  0  0  0  0  0  0  0
    2.3840    1.0860    0.6650 C   0  0  2  0  0  0  0  0  0  0  0  0
    2.7970    1.1840    2.0550 N   0  0  0  0  0  0  0  0  0  0  0  0
    0.9310    1.1160    0.4790 C   0  0  0  0  0  0  0  0  0  0  0  0
    0.4120    1.0480   -0.6730 O   0  0  0  0  0  0  0  0  0  0  0  0
    2.8190   -6.0930    1.3780 H   0  0  0  0  0  0  0  0  0  0  0  0
    1.2810   -5.2300    1.6400 H   0  0  0  0  0  0  0  0  0  0  0  0
    0.8070   -4.6500   -0.9410 H   0  0  0  0  0  0  0  0  0  0  0  0
    4.5830   -4.1380    0.6780 H   0  0  0  0  0  0  0  0  0  0  0  0
    4.9060   -2.0100   -0.2740 H   0  0  0  0  0  0  0  0  0  0  0  0
    3.4610   -2.3350   -1.3410 H   0  0  0  0  0  0  0  0  0  0  0  0
    3.4610   -1.3830    1.5600 H   0  0  0  0  0  0  0  0  0  0  0  0
    1.9540   -1.7310    0.5570 H   0  0  0  0  0  0  0  0  0  0  0  0
    2.8630   -0.0020   -1.1040 H   0  0  0  0  0  0  0  0  0  0  0  0
    4.2270    0.2420    0.0080 H   0  0  0  0  0  0  0  0  0  0  0  0
    2.7830    2.0630    0.2080 H   0  0  0  0  0  0  0  0  0  0  0  0
    2.4040    2.0820    2.4490 H   0  0  0  0  0  0  0  0  0  0  0  0
    3.8410    1.3710    2.0430 H   0  0  0  0  0  0  0  0  0  0  0  0
    0.0830    1.2290    1.6150 N   0  0  0  0  0  0  0  0  0  0  0  0
   -1.3480    1.2880    1.4710 C   0  0  1  0  0  0  0  0  0  0  0  0
   -1.7710    2.5470    0.7260 C   0  0  0  0  0  0  0  0  0  0  0  0
   -3.2350    2.5980    0.5840 C   0  0  0  0  0  0  0  0  0  0  0  0
   -4.1430    3.1410    1.4580 C   0  0  0  0  0  0  0  0  0  0  0  0
   -5.4030    2.9880    0.9670 N   0  0  0  0  0  0  0  0  0  0  0  0
   -5.2770    2.3530   -0.2070 C   0  0  0  0  0  0  0  0  0  0  0  0
   -3.9730    2.1210   -0.4340 N   0  0  0  0  0  0  0  0  0  0  0  0
   -1.9990    0.0660    1.0280 C   0  0  0  0  0  0  0  0  0  0  0  0
   -3.2730    0.0160    0.9120 O   0  0  0  0  0  0  0  0  0  0  0  0
    0.5570    1.2650    2.5730 H   0  0  0  0  0  0  0  0  0  0  0  0
   -1.7410    1.4730    2.5270 H   0  0  0  0  0  0  0  0  0  0  0  0
   -1.2760    2.5520   -0.2760 H   0  0  0  0  0  0  0  0  0  0  0  0
   -1.3800    3.4480    1.2450 H   0  0  0  0  0  0  0  0  0  0  0  0
   -3.8750    3.6200    2.4030 H   0  0  0  0  0  0  0  0  0  0  0  0
   -6.2660    3.3180    1.4480 H   0  0  0  0  0  0  0  0  0  0  0  0
   -6.0810    2.0730   -0.8640 H   0  0  0  0  0  0  0  0  0  0  0  0
   -1.7850   -2.4820   -1.2380 C   0  0  0  0  0  0  0  0  0  0  0  0
   -2.0800   -2.3370    0.2480 C   0  0  2  0  0  0  0  0  0  0  0  0
   -1.3490   -1.1610    0.6860 N   0  0  0  0  0  0  0  0  0  0  0  0
   -1.7970   -3.5380    1.0250 C   0  0  0  0  0  0  0  0  0  0  0  0
   -2.3600   -4.6190    0.7470 O   0  0  0  0  0  0  0  0  0  0  0  0
   -0.9050   -3.5080    2.0790 O   0  0  0  0  0  0  0  0  0  0  0  0
   -2.6370   -3.0610   -1.6770 H   0  0  0  0  0  0  0  0  0  0  0  0
   -0.8670   -3.0190   -1.4630 H   0  0  0  0  0  0  0  0  0  0  0  0
   -1.7970   -1.4280   -1.6460 H   0  0  0  0  0  0  0  0  0  0  0  0
   -3.1810   -2.0880    0.2800 H   0  0  0  0  0  0  0  0  0  0  0  0
   -0.3120   -1.1640    0.7720 H   0  0  0  0  0  0  0  0  0  0  0  0
  1 12  1  0  0  0  0
  1 13  1  0  0  0  0
  2  4  1  0  0  0  0
  2  1  1  0  0  0  0
  3  2  2  0  0  0  0
  4 15  1  0  0  0  0
  5 16  1  0  0  0  0
  5  4  1  0  0  0  0
  5  6  1  0  0  0  0
  6 18  1  0  0  0  0
  7 21  1  0  0  0  0
  7  6  1  0  0  0  0
  7  8  1  0  0  0  0
  8 22  1  6  0  0  0
  8  9  1  0  0  0  0
  9 23  1  0  0  0  0
 10  8  1  0  0  0  0
 10 25  1  0  0  0  0
 11 10  2  0  0  0  0
 14  3  1  0  0  0  0
 17  5  1  0  0  0  0
 19  6  1  0  0  0  0
 20  7  1  0  0  0  0
 24  9  1  0  0  0  0
 25 35  1  0  0  0  0
 26 25  1  0  0  0  0
 26 36  1  1  0  0  0
 27 38  1  0  0  0  0
 27 26  1  0  0  0  0
 28 27  1  0  0  0  0
 28 29  2  0  0  0  0
 29 39  1  0  0  0  0
 30 40  1  0  0  0  0
 30 29  1  0  0  0  0
 31 30  1  0  0  0  0
 32 31  2  0  0  0  0
 32 28  1  0  0  0  0
 33 26  1  0  0  0  0
 34 33  2  0  0  0  0
 37 27  1  0  0  0  0
 41 31  1  0  0  0  0
 42 43  1  0  0  0  0
 43 51  1  1  0  0  0
 43 44  1  0  0  0  0
 43 45  1  0  0  0  0
 44 52  1  0  0  0  0
 44 33  1  0  0  0  0
 45 47  1  0  0  0  0
 46 45  2  0  0  0  0
 48 42  1  0  0  0  0
 49 42  1  0  0  0  0
 50 42  1  0  0  0  0
M  END
$$$$
