RHE.pdb
 OpenBabel07022418053D

 58 58  0  0  1  0  0  0  0  0999 V2000
    2.8250    1.5220    7.0380 N   0  0  0  0  0  0  0  0  0  0  0  0
    3.7310    1.3980    5.9490 C   0  0  0  0  0  0  0  0  0  0  0  0
    4.9620    1.0500    6.2250 N   0  0  0  0  0  0  0  0  0  0  0  0
    3.3680    1.6290    4.6060 N   0  0  0  0  0  0  0  0  0  0  0  0
    4.3660    1.5020    3.5920 C   0  0  0  0  0  0  0  0  0  0  0  0
    3.8520    1.7650    2.1990 C   0  0  0  0  0  0  0  0  0  0  0  0
    2.7460    0.7760    1.8650 C   0  0  0  0  0  0  0  0  0  0  0  0
    2.2130    1.0160    0.4610 C   0  0  2  0  0  0  0  0  0  0  0  0
    1.6750    2.3320    0.3270 N   0  0  0  0  0  0  0  0  0  0  0  0
    1.2510   -0.0740    0.1550 C   0  0  0  0  0  0  0  0  0  0  0  0
    1.6640   -1.2490    0.3060 O   0  0  0  0  0  0  0  0  0  0  0  0
    2.0610    0.8270    7.1520 H   0  0  0  0  0  0  0  0  0  0  0  0
    2.9140    2.2970    7.7240 H   0  0  0  0  0  0  0  0  0  0  0  0
    5.2710    0.8700    7.1970 H   0  0  0  0  0  0  0  0  0  0  0  0
    2.3850    1.8850    4.3920 H   0  0  0  0  0  0  0  0  0  0  0  0
    4.6870    0.4190    3.5960 H   0  0  0  0  0  0  0  0  0  0  0  0
    5.2930    2.0740    3.7820 H   0  0  0  0  0  0  0  0  0  0  0  0
    4.6930    1.5130    1.4990 H   0  0  0  0  0  0  0  0  0  0  0  0
    3.5550    2.7980    2.0470 H   0  0  0  0  0  0  0  0  0  0  0  0
    3.1210   -0.2610    1.9830 H   0  0  0  0  0  0  0  0  0  0  0  0
    1.9630    0.9160    2.6390 H   0  0  0  0  0  0  0  0  0  0  0  0
    3.1140    0.9520   -0.2000 H   0  0  0  0  0  0  0  0  0  0  0  0
    1.0120    2.6160    1.0720 H   0  0  0  0  0  0  0  0  0  0  0  0
    2.3520    3.0490    0.0560 H   0  0  0  0  0  0  0  0  0  0  0  0
   -0.0790    0.1280   -0.2890 N   0  0  0  0  0  0  0  0  0  0  0  0
   -0.9970   -0.9490   -0.5810 C   0  0  1  0  0  0  0  0  0  0  0  0
   -2.2210   -0.7830    0.2900 C   0  0  0  0  0  0  0  0  0  0  0  0
   -1.9050   -0.8190    1.7240 C   0  0  0  0  0  0  0  0  0  0  0  0
   -1.5840    0.2690    2.5160 C   0  0  0  0  0  0  0  0  0  0  0  0
   -1.3620   -0.1620    3.7670 N   0  0  0  0  0  0  0  0  0  0  0  0
   -1.5360   -1.4970    3.7820 C   0  0  0  0  0  0  0  0  0  0  0  0
   -1.8640   -1.8780    2.5360 N   0  0  0  0  0  0  0  0  0  0  0  0
   -1.3820   -0.9630   -2.0250 C   0  0  0  0  0  0  0  0  0  0  0  0
   -0.9490   -0.1300   -2.8460 O   0  0  0  0  0  0  0  0  0  0  0  0
   -0.3770    1.1220   -0.3990 H   0  0  0  0  0  0  0  0  0  0  0  0
   -0.5740   -1.9430   -0.3830 H   0  0  0  0  0  0  0  0  0  0  0  0
   -2.9470   -1.5700   -0.0050 H   0  0  0  0  0  0  0  0  0  0  0  0
   -2.7390    0.1910    0.0830 H   0  0  0  0  0  0  0  0  0  0  0  0
   -1.5220    1.2990    2.1800 H   0  0  0  0  0  0  0  0  0  0  0  0
   -1.1010    0.3800    4.6160 H   0  0  0  0  0  0  0  0  0  0  0  0
   -1.4290   -2.1590    4.6550 H   0  0  0  0  0  0  0  0  0  0  0  0
   -2.2760   -1.9650   -2.4860 N   0  0  0  0  0  0  0  0  0  0  0  0
   -2.6780   -2.0150   -3.9030 C   0  0  1  0  0  0  0  0  0  0  0  0
   -2.1440   -3.3320   -4.4250 C   0  0  0  0  0  0  0  0  0  0  0  0
   -2.6980   -4.5200   -3.6990 C   0  0  0  0  0  0  0  0  0  0  0  0
   -2.0910   -5.7420   -4.3090 C   0  0  0  0  0  0  0  0  0  0  0  0
   -2.4640   -6.2010   -5.4110 O   0  0  0  0  0  0  0  0  0  0  0  0
   -4.1410   -2.0030   -3.9850 C   0  0  0  0  0  0  0  0  0  0  0  0
   -4.7530   -2.0290   -5.0750 O   0  0  0  0  0  0  0  0  0  0  0  0
   -1.0660   -6.4250   -3.6560 O   0  0  0  0  0  0  0  0  0  0  0  0
   -4.9200   -1.9610   -2.8310 O   0  0  0  0  0  0  0  0  0  0  0  0
   -2.6620   -2.6780   -1.8290 H   0  0  0  0  0  0  0  0  0  0  0  0
   -2.2050   -1.1940   -4.4670 H   0  0  0  0  0  0  0  0  0  0  0  0
   -2.3020   -3.4060   -5.5070 H   0  0  0  0  0  0  0  0  0  0  0  0
   -1.0270   -3.3390   -4.2660 H   0  0  0  0  0  0  0  0  0  0  0  0
   -2.4300   -4.5290   -2.6380 H   0  0  0  0  0  0  0  0  0  0  0  0
   -3.8030   -4.6080   -3.8440 H   0  0  0  0  0  0  0  0  0  0  0  0
   -0.3140   -6.8980   -4.1420 H   0  0  0  0  0  0  0  0  0  0  0  0
  1 12  1  0  0  0  0
  1 13  1  0  0  0  0
  2  3  2  0  0  0  0
  2  1  1  0  0  0  0
  3 14  1  0  0  0  0
  4  2  1  0  0  0  0
  5 16  1  0  0  0  0
  5 17  1  0  0  0  0
  5  4  1  0  0  0  0
  6  5  1  0  0  0  0
  7 20  1  0  0  0  0
  7  6  1  0  0  0  0
  7 21  1  0  0  0  0
  8 22  1  6  0  0  0
  8  7  1  0  0  0  0
  9  8  1  0  0  0  0
  9 23  1  0  0  0  0
 10 11  2  0  0  0  0
 10  8  1  0  0  0  0
 15  4  1  0  0  0  0
 18  6  1  0  0  0  0
 19  6  1  0  0  0  0
 24  9  1  0  0  0  0
 25 10  1  0  0  0  0
 26 36  1  1  0  0  0
 26 25  1  0  0  0  0
 26 27  1  0  0  0  0
 27 28  1  0  0  0  0
 28 29  2  0  0  0  0
 28 32  1  0  0  0  0
 29 30  1  0  0  0  0
 30 31  1  0  0  0  0
 30 40  1  0  0  0  0
 31 41  1  0  0  0  0
 32 31  2  0  0  0  0
 33 26  1  0  0  0  0
 34 33  2  0  0  0  0
 35 25  1  0  0  0  0
 37 27  1  0  0  0  0
 38 27  1  0  0  0  0
 39 29  1  0  0  0  0
 42 33  1  0  0  0  0
 42 52  1  0  0  0  0
 43 53  1  6  0  0  0
 43 42  1  0  0  0  0
 44 55  1  0  0  0  0
 44 43  1  0  0  0  0
 44 45  1  0  0  0  0
 45 56  1  0  0  0  0
 46 45  1  0  0  0  0
 46 50  1  0  0  0  0
 47 46  2  0  0  0  0
 48 43  1  0  0  0  0
 48 51  1  0  0  0  0
 49 48  2  0  0  0  0
 54 44  1  0  0  0  0
 57 45  1  0  0  0  0
 58 50  1  0  0  0  0
M  END
$$$$
