RHH.pdb
 OpenBabel07022418053D

 59 60  0  0  1  0  0  0  0  0999 V2000
    3.0040    0.0410    6.0830 N   0  0  0  0  0  0  0  0  0  0  0  0
    2.8940    1.1060    5.1470 C   0  0  0  0  0  0  0  0  0  0  0  0
    2.3970    2.2600    5.4700 N   0  0  0  0  0  0  0  0  0  0  0  0
    3.3470    0.8790    3.8350 N   0  0  0  0  0  0  0  0  0  0  0  0
    3.0190    1.7950    2.7310 C   0  0  0  0  0  0  0  0  0  0  0  0
    3.6600    1.2520    1.4850 C   0  0  0  0  0  0  0  0  0  0  0  0
    3.4690    2.0610    0.2640 C   0  0  0  0  0  0  0  0  0  0  0  0
    2.0620    2.2850   -0.2050 C   0  0  2  0  0  0  0  0  0  0  0  0
    1.2990    2.9690    0.7630 N   0  0  0  0  0  0  0  0  0  0  0  0
    1.5180    0.9560   -0.5820 C   0  0  0  0  0  0  0  0  0  0  0  0
    2.1560    0.3010   -1.4460 O   0  0  0  0  0  0  0  0  0  0  0  0
    3.8590   -0.5500    6.1530 H   0  0  0  0  0  0  0  0  0  0  0  0
    2.1570   -0.1070    6.7010 H   0  0  0  0  0  0  0  0  0  0  0  0
    2.0770    2.3750    6.4560 H   0  0  0  0  0  0  0  0  0  0  0  0
    3.9260    0.0470    3.6290 H   0  0  0  0  0  0  0  0  0  0  0  0
    3.4160    2.7710    3.0330 H   0  0  0  0  0  0  0  0  0  0  0  0
    1.9120    1.8740    2.6440 H   0  0  0  0  0  0  0  0  0  0  0  0
    3.4080    0.1740    1.3270 H   0  0  0  0  0  0  0  0  0  0  0  0
    4.7710    1.2330    1.6890 H   0  0  0  0  0  0  0  0  0  0  0  0
    4.0890    1.5890   -0.5640 H   0  0  0  0  0  0  0  0  0  0  0  0
    3.9920    3.0520    0.4560 H   0  0  0  0  0  0  0  0  0  0  0  0
    2.1340    2.9580   -1.1090 H   0  0  0  0  0  0  0  0  0  0  0  0
    0.2900    3.0150    0.6160 H   0  0  0  0  0  0  0  0  0  0  0  0
    1.7360    3.7810    1.2030 H   0  0  0  0  0  0  0  0  0  0  0  0
    0.3240    0.4130   -0.0110 N   0  0  0  0  0  0  0  0  0  0  0  0
   -0.1060   -0.8840   -0.4550 C   0  0  1  0  0  0  0  0  0  0  0  0
   -0.2180   -1.8050    0.7380 C   0  0  0  0  0  0  0  0  0  0  0  0
   -1.1970   -1.2950    1.7160 C   0  0  0  0  0  0  0  0  0  0  0  0
   -1.5250   -1.9060    2.9110 C   0  0  0  0  0  0  0  0  0  0  0  0
   -2.4480   -1.1420    3.5200 N   0  0  0  0  0  0  0  0  0  0  0  0
   -2.7150   -0.0630    2.7450 C   0  0  0  0  0  0  0  0  0  0  0  0
   -1.9380   -0.1940    1.6630 N   0  0  0  0  0  0  0  0  0  0  0  0
   -1.4760   -0.8180   -1.0650 C   0  0  0  0  0  0  0  0  0  0  0  0
   -2.1180    0.2590   -1.1490 O   0  0  0  0  0  0  0  0  0  0  0  0
   -0.1460    1.0010    0.6870 H   0  0  0  0  0  0  0  0  0  0  0  0
    0.5650   -1.3050   -1.2140 H   0  0  0  0  0  0  0  0  0  0  0  0
   -0.4260   -2.8550    0.4300 H   0  0  0  0  0  0  0  0  0  0  0  0
    0.8130   -1.8400    1.1920 H   0  0  0  0  0  0  0  0  0  0  0  0
   -1.1130   -2.8300    3.2870 H   0  0  0  0  0  0  0  0  0  0  0  0
   -2.9210   -1.2950    4.4380 H   0  0  0  0  0  0  0  0  0  0  0  0
   -3.3990    0.7490    2.9220 H   0  0  0  0  0  0  0  0  0  0  0  0
   -2.0550   -1.9960   -1.5560 N   0  0  0  0  0  0  0  0  0  0  0  0
   -3.3560   -2.0860   -2.1640 C   0  0  1  0  0  0  0  0  0  0  0  0
   -3.1550   -2.4120   -3.6460 C   0  0  0  0  0  0  0  0  0  0  0  0
   -2.4400   -3.6910   -3.8270 C   0  0  0  0  0  0  0  0  0  0  0  0
   -1.0850   -3.8930   -3.9180 C   0  0  0  0  0  0  0  0  0  0  0  0
   -0.8450   -5.2010   -4.0800 N   0  0  0  0  0  0  0  0  0  0  0  0
   -2.0470   -5.7930   -4.0870 C   0  0  0  0  0  0  0  0  0  0  0  0
   -3.0210   -4.8900   -3.9350 N   0  0  0  0  0  0  0  0  0  0  0  0
   -4.2530   -3.0250   -1.4980 C   0  0  0  0  0  0  0  0  0  0  0  0
   -5.4170   -3.1890   -1.9400 O   0  0  0  0  0  0  0  0  0  0  0  0
   -3.8830   -3.7560   -0.3880 O   0  0  0  0  0  0  0  0  0  0  0  0
   -1.5080   -2.8880   -1.4790 H   0  0  0  0  0  0  0  0  0  0  0  0
   -3.7830   -1.0490   -2.1560 H   0  0  0  0  0  0  0  0  0  0  0  0
   -2.5760   -1.5380   -4.0550 H   0  0  0  0  0  0  0  0  0  0  0  0
   -4.1280   -2.4100   -4.1740 H   0  0  0  0  0  0  0  0  0  0  0  0
   -0.3090   -3.1350   -3.8710 H   0  0  0  0  0  0  0  0  0  0  0  0
    0.0540   -5.7040   -4.1820 H   0  0  0  0  0  0  0  0  0  0  0  0
   -2.2550   -6.8550   -4.1970 H   0  0  0  0  0  0  0  0  0  0  0  0
  1 12  1  0  0  0  0
  1 13  1  0  0  0  0
  2  3  2  0  0  0  0
  2  1  1  0  0  0  0
  3 14  1  0  0  0  0
  4  2  1  0  0  0  0
  5 16  1  0  0  0  0
  5  4  1  0  0  0  0
  6 19  1  0  0  0  0
  6  5  1  0  0  0  0
  7 21  1  0  0  0  0
  7  6  1  0  0  0  0
  8 22  1  6  0  0  0
  8  7  1  0  0  0  0
  8  9  1  0  0  0  0
  9 24  1  0  0  0  0
 10  8  1  0  0  0  0
 10 25  1  0  0  0  0
 11 10  2  0  0  0  0
 15  4  1  0  0  0  0
 17  5  1  0  0  0  0
 18  6  1  0  0  0  0
 20  7  1  0  0  0  0
 23  9  1  0  0  0  0
 25 35  1  0  0  0  0
 26 36  1  6  0  0  0
 26 25  1  0  0  0  0
 26 27  1  0  0  0  0
 27 38  1  0  0  0  0
 27 28  1  0  0  0  0
 28 29  2  0  0  0  0
 29 39  1  0  0  0  0
 29 30  1  0  0  0  0
 30 40  1  0  0  0  0
 31 41  1  0  0  0  0
 31 30  1  0  0  0  0
 32 28  1  0  0  0  0
 32 31  2  0  0  0  0
 33 26  1  0  0  0  0
 34 33  2  0  0  0  0
 37 27  1  0  0  0  0
 42 53  1  0  0  0  0
 42 33  1  0  0  0  0
 43 54  1  1  0  0  0
 43 42  1  0  0  0  0
 43 50  1  0  0  0  0
 44 43  1  0  0  0  0
 45 44  1  0  0  0  0
 46 57  1  0  0  0  0
 46 45  2  0  0  0  0
 47 46  1  0  0  0  0
 48 47  1  0  0  0  0
 48 49  2  0  0  0  0
 49 45  1  0  0  0  0
 50 52  1  0  0  0  0
 51 50  2  0  0  0  0
 55 44  1  0  0  0  0
 56 44  1  0  0  0  0
 58 47  1  0  0  0  0
 59 48  1  0  0  0  0
M  END
$$$$
