RHK.pdb
 OpenBabel07022418053D

 63 63  0  0  1  0  0  0  0  0999 V2000
   -1.1290    1.2200   -6.0100 N   0  0  0  0  0  0  0  0  0  0  0  0
    0.0810    1.1590   -5.2620 C   0  0  0  0  0  0  0  0  0  0  0  0
    0.2360    1.9780   -4.2850 N   0  0  0  0  0  0  0  0  0  0  0  0
    1.1150    0.2310   -5.5640 N   0  0  0  0  0  0  0  0  0  0  0  0
    2.1610   -0.1460   -4.6480 C   0  0  0  0  0  0  0  0  0  0  0  0
    1.5120   -0.9630   -3.5260 C   0  0  0  0  0  0  0  0  0  0  0  0
    2.5210   -1.3940   -2.5190 C   0  0  0  0  0  0  0  0  0  0  0  0
    1.9120   -2.1970   -1.4290 C   0  0  2  0  0  0  0  0  0  0  0  0
    1.2950   -3.3870   -1.9740 N   0  0  0  0  0  0  0  0  0  0  0  0
    0.9880   -1.4720   -0.5330 C   0  0  0  0  0  0  0  0  0  0  0  0
    1.2850   -0.3190   -0.1540 O   0  0  0  0  0  0  0  0  0  0  0  0
   -1.2150    0.9610   -7.0140 H   0  0  0  0  0  0  0  0  0  0  0  0
   -1.9850    1.5470   -5.5190 H   0  0  0  0  0  0  0  0  0  0  0  0
    1.0990    1.9550   -3.7310 H   0  0  0  0  0  0  0  0  0  0  0  0
    1.1100   -0.2020   -6.5130 H   0  0  0  0  0  0  0  0  0  0  0  0
    2.9270   -0.7450   -5.1730 H   0  0  0  0  0  0  0  0  0  0  0  0
    2.6600    0.7500   -4.2100 H   0  0  0  0  0  0  0  0  0  0  0  0
    0.7550   -0.3010   -3.0660 H   0  0  0  0  0  0  0  0  0  0  0  0
    0.9770   -1.7940   -3.9970 H   0  0  0  0  0  0  0  0  0  0  0  0
    3.2510   -2.0740   -3.0450 H   0  0  0  0  0  0  0  0  0  0  0  0
    3.1200   -0.5330   -2.1610 H   0  0  0  0  0  0  0  0  0  0  0  0
    2.7860   -2.6080   -0.8050 H   0  0  0  0  0  0  0  0  0  0  0  0
    1.2170   -4.1650   -1.2950 H   0  0  0  0  0  0  0  0  0  0  0  0
    1.6530   -3.6570   -2.9020 H   0  0  0  0  0  0  0  0  0  0  0  0
   -0.2330   -2.0350   -0.0760 N   0  0  0  0  0  0  0  0  0  0  0  0
   -1.1410   -1.3370    0.8090 C   0  0  1  0  0  0  0  0  0  0  0  0
   -2.5660   -1.5380    0.4540 C   0  0  0  0  0  0  0  0  0  0  0  0
   -2.9890   -1.1000   -0.8680 C   0  0  0  0  0  0  0  0  0  0  0  0
   -2.3430   -0.5090   -1.9120 C   0  0  0  0  0  0  0  0  0  0  0  0
   -3.1880   -0.2940   -2.9410 N   0  0  0  0  0  0  0  0  0  0  0  0
   -4.3720   -0.7600   -2.5220 C   0  0  0  0  0  0  0  0  0  0  0  0
   -4.2840   -1.2510   -1.2820 N   0  0  0  0  0  0  0  0  0  0  0  0
   -0.8470   -1.8450    2.1970 C   0  0  0  0  0  0  0  0  0  0  0  0
    0.0370   -2.7140    2.3780 O   0  0  0  0  0  0  0  0  0  0  0  0
   -0.5350   -3.0050   -0.3690 H   0  0  0  0  0  0  0  0  0  0  0  0
   -0.8050   -0.2800    0.8490 H   0  0  0  0  0  0  0  0  0  0  0  0
   -2.8450   -2.6280    0.5450 H   0  0  0  0  0  0  0  0  0  0  0  0
   -3.2060   -0.9970    1.2080 H   0  0  0  0  0  0  0  0  0  0  0  0
   -1.3140   -0.2540   -1.9050 H   0  0  0  0  0  0  0  0  0  0  0  0
   -2.9120    0.1410   -3.8290 H   0  0  0  0  0  0  0  0  0  0  0  0
   -5.2620   -0.7240   -3.1440 H   0  0  0  0  0  0  0  0  0  0  0  0
   -1.6090   -1.2990    3.2580 N   0  0  0  0  0  0  0  0  0  0  0  0
   -1.3840   -1.7380    4.6210 C   0  0  1  0  0  0  0  0  0  0  0  0
   -0.8670   -0.5660    5.4620 C   0  0  0  0  0  0  0  0  0  0  0  0
    0.4410   -0.0530    4.8790 C   0  0  0  0  0  0  0  0  0  0  0  0
    0.9480    1.0960    5.7020 C   0  0  0  0  0  0  0  0  0  0  0  0
    2.2560    1.5860    5.0940 C   0  0  0  0  0  0  0  0  0  0  0  0
    2.7560    2.6980    5.8830 N   0  0  0  0  0  0  0  0  0  0  0  0
   -2.6470   -2.2520    5.1870 C   0  0  0  0  0  0  0  0  0  0  0  0
   -3.7000   -2.2700    4.5250 O   0  0  0  0  0  0  0  0  0  0  0  0
   -2.6530   -2.7250    6.4880 O   0  0  0  0  0  0  0  0  0  0  0  0
   -2.3280   -0.5800    3.0510 H   0  0  0  0  0  0  0  0  0  0  0  0
   -0.5850   -2.5060    4.6620 H   0  0  0  0  0  0  0  0  0  0  0  0
   -1.6260    0.2390    5.5070 H   0  0  0  0  0  0  0  0  0  0  0  0
   -0.7020   -0.9170    6.4980 H   0  0  0  0  0  0  0  0  0  0  0  0
    0.2790    0.2360    3.8380 H   0  0  0  0  0  0  0  0  0  0  0  0
    1.1700   -0.8980    4.8880 H   0  0  0  0  0  0  0  0  0  0  0  0
    0.2270    1.9360    5.6350 H   0  0  0  0  0  0  0  0  0  0  0  0
    1.1680    0.7870    6.7340 H   0  0  0  0  0  0  0  0  0  0  0  0
    2.1320    1.9460    4.0610 H   0  0  0  0  0  0  0  0  0  0  0  0
    3.0290    0.7730    5.1120 H   0  0  0  0  0  0  0  0  0  0  0  0
    3.2970    2.3550    6.7000 H   0  0  0  0  0  0  0  0  0  0  0  0
    3.3590    3.3370    5.3220 H   0  0  0  0  0  0  0  0  0  0  0  0
  1 13  1  0  0  0  0
  1  2  1  0  0  0  0
  2  3  2  0  0  0  0
  3 14  1  0  0  0  0
  4  2  1  0  0  0  0
  4  5  1  0  0  0  0
  5 17  1  0  0  0  0
  5  6  1  0  0  0  0
  6 18  1  0  0  0  0
  6  7  1  0  0  0  0
  7 21  1  0  0  0  0
  7  8  1  0  0  0  0
  8 22  1  1  0  0  0
  8 10  1  0  0  0  0
  9  8  1  0  0  0  0
  9 23  1  0  0  0  0
 10 11  2  0  0  0  0
 10 25  1  0  0  0  0
 12  1  1  0  0  0  0
 15  4  1  0  0  0  0
 16  5  1  0  0  0  0
 19  6  1  0  0  0  0
 20  7  1  0  0  0  0
 24  9  1  0  0  0  0
 25 26  1  0  0  0  0
 26 36  1  6  0  0  0
 26 33  1  0  0  0  0
 27 37  1  0  0  0  0
 27 26  1  0  0  0  0
 27 38  1  0  0  0  0
 28 27  1  0  0  0  0
 29 39  1  0  0  0  0
 29 28  2  0  0  0  0
 30 31  1  0  0  0  0
 30 29  1  0  0  0  0
 31 32  2  0  0  0  0
 32 28  1  0  0  0  0
 33 34  2  0  0  0  0
 33 42  1  0  0  0  0
 35 25  1  0  0  0  0
 40 30  1  0  0  0  0
 41 31  1  0  0  0  0
 42 43  1  0  0  0  0
 43 53  1  1  0  0  0
 43 49  1  0  0  0  0
 43 44  1  0  0  0  0
 44 54  1  0  0  0  0
 44 55  1  0  0  0  0
 45 57  1  0  0  0  0
 45 44  1  0  0  0  0
 45 46  1  0  0  0  0
 46 59  1  0  0  0  0
 47 61  1  0  0  0  0
 47 46  1  0  0  0  0
 47 48  1  0  0  0  0
 48 62  1  0  0  0  0
 49 51  1  0  0  0  0
 50 49  2  0  0  0  0
 52 42  1  0  0  0  0
 56 45  1  0  0  0  0
 58 46  1  0  0  0  0
 60 47  1  0  0  0  0
 63 48  1  0  0  0  0
M  END
$$$$
