RHL.pdb
 OpenBabel07022418053D

 61 61  0  0  1  0  0  0  0  0999 V2000
    1.3520   -2.6400    5.7420 N   0  0  0  0  0  0  0  0  0  0  0  0
    2.4950   -2.5520    4.8770 C   0  0  0  0  0  0  0  0  0  0  0  0
    3.3140   -3.5480    4.9300 N   0  0  0  0  0  0  0  0  0  0  0  0
    2.7110   -1.4380    4.0180 N   0  0  0  0  0  0  0  0  0  0  0  0
    3.4640   -1.6550    2.8160 C   0  0  0  0  0  0  0  0  0  0  0  0
    3.6360   -0.4300    1.9830 C   0  0  0  0  0  0  0  0  0  0  0  0
    2.3270    0.1650    1.5270 C   0  0  0  0  0  0  0  0  0  0  0  0
    2.6130    1.3990    0.6930 C   0  0  2  0  0  0  0  0  0  0  0  0
    3.3310    2.4000    1.4250 N   0  0  0  0  0  0  0  0  0  0  0  0
    1.3510    1.9950    0.1830 C   0  0  0  0  0  0  0  0  0  0  0  0
    1.0590    3.2140    0.4220 O   0  0  0  0  0  0  0  0  0  0  0  0
    0.5720   -3.2610    5.4430 H   0  0  0  0  0  0  0  0  0  0  0  0
    1.3190   -2.1040    6.6210 H   0  0  0  0  0  0  0  0  0  0  0  0
    4.1790   -3.6040    4.3530 H   0  0  0  0  0  0  0  0  0  0  0  0
    2.3080   -0.5280    4.3130 H   0  0  0  0  0  0  0  0  0  0  0  0
    4.4700   -2.0100    3.1130 H   0  0  0  0  0  0  0  0  0  0  0  0
    3.0030   -2.4810    2.2370 H   0  0  0  0  0  0  0  0  0  0  0  0
    4.1920   -0.7200    1.0640 H   0  0  0  0  0  0  0  0  0  0  0  0
    4.2310    0.3290    2.4920 H   0  0  0  0  0  0  0  0  0  0  0  0
    1.7730   -0.5550    0.8930 H   0  0  0  0  0  0  0  0  0  0  0  0
    1.6640    0.4450    2.3540 H   0  0  0  0  0  0  0  0  0  0  0  0
    3.2440    1.1120   -0.1950 H   0  0  0  0  0  0  0  0  0  0  0  0
    3.5760    3.1660    0.7750 H   0  0  0  0  0  0  0  0  0  0  0  0
    2.7440    2.7420    2.2060 H   0  0  0  0  0  0  0  0  0  0  0  0
    0.4880    1.1630   -0.5740 N   0  0  0  0  0  0  0  0  0  0  0  0
   -0.7450    1.6170   -1.1140 C   0  0  1  0  0  0  0  0  0  0  0  0
   -0.7940    1.6790   -2.6190 C   0  0  0  0  0  0  0  0  0  0  0  0
   -0.5620    0.3910   -3.2810 C   0  0  0  0  0  0  0  0  0  0  0  0
   -0.5760    0.2660   -4.6660 C   0  0  0  0  0  0  0  0  0  0  0  0
   -0.3320   -1.0250   -4.9500 N   0  0  0  0  0  0  0  0  0  0  0  0
   -0.1650   -1.7190   -3.7990 C   0  0  0  0  0  0  0  0  0  0  0  0
   -0.3120   -0.8270   -2.8290 N   0  0  0  0  0  0  0  0  0  0  0  0
   -1.9490    0.9880   -0.5420 C   0  0  0  0  0  0  0  0  0  0  0  0
   -3.0790    1.3150   -0.9850 O   0  0  0  0  0  0  0  0  0  0  0  0
    0.7830    0.1800   -0.7330 H   0  0  0  0  0  0  0  0  0  0  0  0
   -0.8240    2.7130   -0.7970 H   0  0  0  0  0  0  0  0  0  0  0  0
   -0.0780    2.4510   -2.9960 H   0  0  0  0  0  0  0  0  0  0  0  0
   -1.8100    2.0880   -2.8780 H   0  0  0  0  0  0  0  0  0  0  0  0
   -0.7450    1.0250   -5.4130 H   0  0  0  0  0  0  0  0  0  0  0  0
   -0.2820   -1.4200   -5.9050 H   0  0  0  0  0  0  0  0  0  0  0  0
    0.0420   -2.7620   -3.6710 H   0  0  0  0  0  0  0  0  0  0  0  0
   -3.9760   -2.2440   -1.2440 C   0  0  0  0  0  0  0  0  0  0  0  0
   -2.7450   -2.5920   -0.4580 C   0  0  0  0  0  0  0  0  0  0  0  0
   -2.6350   -4.1230   -0.4670 C   0  0  0  0  0  0  0  0  0  0  0  0
   -2.8200   -2.1140    0.9680 C   0  0  0  0  0  0  0  0  0  0  0  0
   -2.9740   -0.6240    1.1050 C   0  0  2  0  0  0  0  0  0  0  0  0
   -1.8300    0.0310    0.4910 N   0  0  0  0  0  0  0  0  0  0  0  0
   -3.0790   -0.2440    2.5450 C   0  0  0  0  0  0  0  0  0  0  0  0
   -2.2420    0.5340    3.0360 O   0  0  0  0  0  0  0  0  0  0  0  0
   -4.1040   -0.7670    3.2940 O   0  0  0  0  0  0  0  0  0  0  0  0
   -4.8400   -2.8490   -0.8760 H   0  0  0  0  0  0  0  0  0  0  0  0
   -3.7770   -2.5560   -2.3050 H   0  0  0  0  0  0  0  0  0  0  0  0
   -4.2020   -1.1720   -1.2280 H   0  0  0  0  0  0  0  0  0  0  0  0
   -1.8790   -2.2010   -0.9980 H   0  0  0  0  0  0  0  0  0  0  0  0
   -1.5810   -4.3920   -0.3010 H   0  0  0  0  0  0  0  0  0  0  0  0
   -3.0600   -4.4950   -1.4100 H   0  0  0  0  0  0  0  0  0  0  0  0
   -3.2820   -4.4940    0.3770 H   0  0  0  0  0  0  0  0  0  0  0  0
   -3.7540   -2.5620    1.4100 H   0  0  0  0  0  0  0  0  0  0  0  0
   -1.9540   -2.4980    1.5460 H   0  0  0  0  0  0  0  0  0  0  0  0
   -3.9220   -0.3380    0.6070 H   0  0  0  0  0  0  0  0  0  0  0  0
   -0.8660   -0.2000    0.8120 H   0  0  0  0  0  0  0  0  0  0  0  0
  1 13  1  0  0  0  0
  2  3  2  0  0  0  0
  2  1  1  0  0  0  0
  4 15  1  0  0  0  0
  4  2  1  0  0  0  0
  5 16  1  0  0  0  0
  5  4  1  0  0  0  0
  6 19  1  0  0  0  0
  6  5  1  0  0  0  0
  7  6  1  0  0  0  0
  7 21  1  0  0  0  0
  8 22  1  6  0  0  0
  8  9  1  0  0  0  0
  8  7  1  0  0  0  0
  9 24  1  0  0  0  0
 10 11  2  0  0  0  0
 10  8  1  0  0  0  0
 12  1  1  0  0  0  0
 14  3  1  0  0  0  0
 17  5  1  0  0  0  0
 18  6  1  0  0  0  0
 20  7  1  0  0  0  0
 23  9  1  0  0  0  0
 25 10  1  0  0  0  0
 26 36  1  1  0  0  0
 26 25  1  0  0  0  0
 26 33  1  0  0  0  0
 27 26  1  0  0  0  0
 28 32  1  0  0  0  0
 28 27  1  0  0  0  0
 29 28  2  0  0  0  0
 30 29  1  0  0  0  0
 30 31  1  0  0  0  0
 31 41  1  0  0  0  0
 31 32  2  0  0  0  0
 33 47  1  0  0  0  0
 34 33  2  0  0  0  0
 35 25  1  0  0  0  0
 37 27  1  0  0  0  0
 38 27  1  0  0  0  0
 39 29  1  0  0  0  0
 40 30  1  0  0  0  0
 42 53  1  0  0  0  0
 42 51  1  0  0  0  0
 42 43  1  0  0  0  0
 43 45  1  0  0  0  0
 44 43  1  0  0  0  0
 44 55  1  0  0  0  0
 44 57  1  0  0  0  0
 45 46  1  0  0  0  0
 45 58  1  0  0  0  0
 45 59  1  0  0  0  0
 46 60  1  6  0  0  0
 46 48  1  0  0  0  0
 47 61  1  0  0  0  0
 47 46  1  0  0  0  0
 48 49  2  0  0  0  0
 48 50  1  0  0  0  0
 52 42  1  0  0  0  0
 54 43  1  0  0  0  0
 56 44  1  0  0  0  0
M  END
$$$$
