RHP.pdb
 OpenBabel07022418053D

 56 57  0  0  1  0  0  0  0  0999 V2000
   -1.0940   -1.1590    4.8630 N   0  0  0  0  0  0  0  0  0  0  0  0
   -0.3220   -0.2680    4.0370 C   0  0  0  0  0  0  0  0  0  0  0  0
   -0.7880    0.8850    3.7030 N   0  0  0  0  0  0  0  0  0  0  0  0
    0.9750   -0.6220    3.5680 N   0  0  0  0  0  0  0  0  0  0  0  0
    2.0120    0.3810    3.4660 C   0  0  0  0  0  0  0  0  0  0  0  0
    3.3190   -0.0860    3.0360 C   0  0  0  0  0  0  0  0  0  0  0  0
    3.6910   -0.6620    1.7610 C   0  0  0  0  0  0  0  0  0  0  0  0
    3.0730   -1.8270    1.1550 C   0  0  2  0  0  0  0  0  0  0  0  0
    3.9690   -2.1880   -0.0780 N   0  0  0  0  0  0  0  0  0  0  0  0
    1.8000   -1.6910    0.3920 C   0  0  0  0  0  0  0  0  0  0  0  0
    1.5200   -2.6610   -0.4450 O   0  0  0  0  0  0  0  0  0  0  0  0
   -0.8710   -2.1750    4.9170 H   0  0  0  0  0  0  0  0  0  0  0  0
   -1.8890   -0.7750    5.4130 H   0  0  0  0  0  0  0  0  0  0  0  0
   -1.7340    1.1630    4.0400 H   0  0  0  0  0  0  0  0  0  0  0  0
    1.1390   -1.6250    3.3070 H   0  0  0  0  0  0  0  0  0  0  0  0
    2.1320    0.8130    4.5180 H   0  0  0  0  0  0  0  0  0  0  0  0
    1.6400    1.2830    2.9020 H   0  0  0  0  0  0  0  0  0  0  0  0
    3.6380   -0.8620    3.8580 H   0  0  0  0  0  0  0  0  0  0  0  0
    4.1210    0.7360    3.2580 H   0  0  0  0  0  0  0  0  0  0  0  0
    3.7080    0.1550    0.9280 H   0  0  0  0  0  0  0  0  0  0  0  0
    4.8340   -0.9020    1.7830 H   0  0  0  0  0  0  0  0  0  0  0  0
    3.1640   -2.7300    1.7530 H   0  0  0  0  0  0  0  0  0  0  0  0
    4.8580   -2.4600    0.4090 H   0  0  0  0  0  0  0  0  0  0  0  0
    3.5210   -3.0780   -0.3810 H   0  0  0  0  0  0  0  0  0  0  0  0
    0.8450   -0.6870    0.4070 N   0  0  0  0  0  0  0  0  0  0  0  0
   -0.3580   -0.7450   -0.4620 C   0  0  1  0  0  0  0  0  0  0  0  0
   -1.5990   -0.7010    0.4030 C   0  0  0  0  0  0  0  0  0  0  0  0
   -1.7340   -1.8200    1.3420 C   0  0  0  0  0  0  0  0  0  0  0  0
   -2.7640   -2.0850    2.2310 C   0  0  0  0  0  0  0  0  0  0  0  0
   -2.4490   -3.2280    2.8540 N   0  0  0  0  0  0  0  0  0  0  0  0
   -1.2830   -3.7020    2.4120 C   0  0  0  0  0  0  0  0  0  0  0  0
   -0.8670   -2.8280    1.4920 N   0  0  0  0  0  0  0  0  0  0  0  0
   -0.3270    0.3650   -1.4240 C   0  0  0  0  0  0  0  0  0  0  0  0
    0.5000    1.2930   -1.2470 O   0  0  0  0  0  0  0  0  0  0  0  0
    0.9200    0.1460    0.9770 H   0  0  0  0  0  0  0  0  0  0  0  0
   -0.3240   -1.7200   -0.9660 H   0  0  0  0  0  0  0  0  0  0  0  0
   -2.5190   -0.4530   -0.1370 H   0  0  0  0  0  0  0  0  0  0  0  0
   -1.4530    0.2230    1.0770 H   0  0  0  0  0  0  0  0  0  0  0  0
   -3.6340   -1.4510    2.3570 H   0  0  0  0  0  0  0  0  0  0  0  0
   -3.0260   -3.7040    3.5920 H   0  0  0  0  0  0  0  0  0  0  0  0
   -0.7280   -4.5960    2.6910 H   0  0  0  0  0  0  0  0  0  0  0  0
   -1.1870    0.4320   -2.5390 N   0  0  0  0  0  0  0  0  0  0  0  0
   -1.2790    1.5310   -3.5110 C   0  0  0  0  0  0  0  0  0  0  0  0
   -2.5570    1.2770   -4.2350 C   0  0  0  0  0  0  0  0  0  0  0  0
   -3.3090    0.2620   -3.3560 C   0  0  0  0  0  0  0  0  0  0  0  0
   -2.1090   -0.6060   -2.9480 C   0  0  1  0  0  0  0  0  0  0  0  0
   -1.5500   -1.1930   -4.2100 C   0  0  0  0  0  0  0  0  0  0  0  0
   -2.1890   -2.1090   -4.7910 O   0  0  0  0  0  0  0  0  0  0  0  0
   -0.3570   -0.7770   -4.7740 O   0  0  0  0  0  0  0  0  0  0  0  0
   -1.2960    2.5190   -2.9910 H   0  0  0  0  0  0  0  0  0  0  0  0
   -0.3840    1.4520   -4.1530 H   0  0  0  0  0  0  0  0  0  0  0  0
   -3.1480    2.1940   -4.3850 H   0  0  0  0  0  0  0  0  0  0  0  0
   -2.3670    0.8110   -5.2470 H   0  0  0  0  0  0  0  0  0  0  0  0
   -4.0500   -0.3010   -3.9240 H   0  0  0  0  0  0  0  0  0  0  0  0
   -3.6800    0.8030   -2.4850 H   0  0  0  0  0  0  0  0  0  0  0  0
   -2.3400   -1.3620   -2.2160 H   0  0  0  0  0  0  0  0  0  0  0  0
  1 12  1  0  0  0  0
  1 13  1  0  0  0  0
  2  1  1  0  0  0  0
  3  2  2  0  0  0  0
  3 14  1  0  0  0  0
  4  2  1  0  0  0  0
  5  4  1  0  0  0  0
  5 16  1  0  0  0  0
  6 19  1  0  0  0  0
  6  5  1  0  0  0  0
  6 18  1  0  0  0  0
  7 21  1  0  0  0  0
  7  6  1  0  0  0  0
  8 22  1  1  0  0  0
  8  7  1  0  0  0  0
  9 23  1  0  0  0  0
  9  8  1  0  0  0  0
 10 25  1  0  0  0  0
 10  8  1  0  0  0  0
 11 10  2  0  0  0  0
 15  4  1  0  0  0  0
 17  5  1  0  0  0  0
 20  7  1  0  0  0  0
 24  9  1  0  0  0  0
 25 35  1  0  0  0  0
 26 36  1  6  0  0  0
 26 27  1  0  0  0  0
 26 25  1  0  0  0  0
 27 38  1  0  0  0  0
 27 28  1  0  0  0  0
 28 32  1  0  0  0  0
 28 29  2  0  0  0  0
 29 39  1  0  0  0  0
 29 30  1  0  0  0  0
 30 40  1  0  0  0  0
 31 41  1  0  0  0  0
 31 30  1  0  0  0  0
 32 31  2  0  0  0  0
 33 34  2  0  0  0  0
 33 26  1  0  0  0  0
 37 27  1  0  0  0  0
 42 33  1  0  0  0  0
 43 50  1  0  0  0  0
 43 42  1  0  0  0  0
 44 43  1  0  0  0  0
 44 45  1  0  0  0  0
 45 46  1  0  0  0  0
 45 55  1  0  0  0  0
 46 42  1  0  0  0  0
 46 56  1  1  0  0  0
 47 46  1  0  0  0  0
 48 47  2  0  0  0  0
 49 47  1  0  0  0  0
 51 43  1  0  0  0  0
 52 44  1  0  0  0  0
 53 44  1  0  0  0  0
 54 45  1  0  0  0  0
M  END
$$$$
