RHQ.pdb
 OpenBabel07022418053D

 59 59  0  0  1  0  0  0  0  0999 V2000
    3.4360    1.9510    7.3700 N   0  0  0  0  0  0  0  0  0  0  0  0
    4.1210    1.7460    6.1320 C   0  0  0  0  0  0  0  0  0  0  0  0
    5.3900    1.6000    6.1470 N   0  0  0  0  0  0  0  0  0  0  0  0
    3.4120    1.7020    4.8990 N   0  0  0  0  0  0  0  0  0  0  0  0
    4.0120    1.0290    3.7650 C   0  0  0  0  0  0  0  0  0  0  0  0
    3.0570    1.1260    2.5710 C   0  0  0  0  0  0  0  0  0  0  0  0
    3.6750    0.4260    1.3870 C   0  0  0  0  0  0  0  0  0  0  0  0
    2.8340    0.4520    0.1430 C   0  0  2  0  0  0  0  0  0  0  0  0
    2.5200    1.7640   -0.3420 N   0  0  0  0  0  0  0  0  0  0  0  0
    1.6620   -0.4540    0.2550 C   0  0  0  0  0  0  0  0  0  0  0  0
    1.7850   -1.5980    0.7640 O   0  0  0  0  0  0  0  0  0  0  0  0
    3.5310    1.3150    8.1800 H   0  0  0  0  0  0  0  0  0  0  0  0
    2.8150    2.7840    7.4480 H   0  0  0  0  0  0  0  0  0  0  0  0
    5.9300    1.6270    7.0230 H   0  0  0  0  0  0  0  0  0  0  0  0
    2.4780    2.1590    4.8520 H   0  0  0  0  0  0  0  0  0  0  0  0
    4.3040   -0.0060    3.9750 H   0  0  0  0  0  0  0  0  0  0  0  0
    4.9320    1.6150    3.5190 H   0  0  0  0  0  0  0  0  0  0  0  0
    2.9960    2.2150    2.3090 H   0  0  0  0  0  0  0  0  0  0  0  0
    2.0620    0.7610    2.8180 H   0  0  0  0  0  0  0  0  0  0  0  0
    3.8080   -0.6460    1.7200 H   0  0  0  0  0  0  0  0  0  0  0  0
    4.7080    0.7870    1.2060 H   0  0  0  0  0  0  0  0  0  0  0  0
    3.4950   -0.0370   -0.6470 H   0  0  0  0  0  0  0  0  0  0  0  0
    2.0960    2.3900    0.3580 H   0  0  0  0  0  0  0  0  0  0  0  0
    3.3050    2.1960   -0.8570 H   0  0  0  0  0  0  0  0  0  0  0  0
    0.3680   -0.0980   -0.1980 N   0  0  0  0  0  0  0  0  0  0  0  0
   -0.8140   -0.9130   -0.1440 C   0  0  1  0  0  0  0  0  0  0  0  0
   -1.9910   -0.1440    0.3520 C   0  0  0  0  0  0  0  0  0  0  0  0
   -1.8960    0.3910    1.7190 C   0  0  0  0  0  0  0  0  0  0  0  0
   -0.8930    0.2110    2.6380 C   0  0  0  0  0  0  0  0  0  0  0  0
   -1.2010    0.8440    3.8010 N   0  0  0  0  0  0  0  0  0  0  0  0
   -2.3910    1.4070    3.5880 C   0  0  0  0  0  0  0  0  0  0  0  0
   -2.8290    1.1570    2.3620 N   0  0  0  0  0  0  0  0  0  0  0  0
   -1.1750   -1.4230   -1.5080 C   0  0  0  0  0  0  0  0  0  0  0  0
   -0.4390   -1.0870   -2.4690 O   0  0  0  0  0  0  0  0  0  0  0  0
    0.3220    0.8890   -0.6120 H   0  0  0  0  0  0  0  0  0  0  0  0
   -0.6350   -1.7740    0.5460 H   0  0  0  0  0  0  0  0  0  0  0  0
   -2.9460   -0.7360    0.2600 H   0  0  0  0  0  0  0  0  0  0  0  0
   -2.2000    0.7550   -0.3090 H   0  0  0  0  0  0  0  0  0  0  0  0
    0.0130   -0.3420    2.5310 H   0  0  0  0  0  0  0  0  0  0  0  0
   -0.6270    0.8820    4.6760 H   0  0  0  0  0  0  0  0  0  0  0  0
   -2.9390    1.9990    4.3230 H   0  0  0  0  0  0  0  0  0  0  0  0
   -4.5600   -5.4610   -5.7660 N   0  0  0  0  0  0  0  0  0  0  0  0
   -4.0200   -5.1890   -4.4820 C   0  0  0  0  0  0  0  0  0  0  0  0
   -4.8320   -5.0500   -3.5090 O   0  0  0  0  0  0  0  0  0  0  0  0
   -2.5760   -5.0630   -4.1980 C   0  0  0  0  0  0  0  0  0  0  0  0
   -2.3100   -4.2090   -3.0270 C   0  0  0  0  0  0  0  0  0  0  0  0
   -2.6230   -2.7450   -3.1250 C   0  0  2  0  0  0  0  0  0  0  0  0
   -2.2750   -2.2430   -1.7700 N   0  0  0  0  0  0  0  0  0  0  0  0
   -3.9590   -2.3500   -3.5090 C   0  0  0  0  0  0  0  0  0  0  0  0
   -4.7920   -1.8540   -2.6860 O   0  0  0  0  0  0  0  0  0  0  0  0
   -4.4100   -2.4840   -4.8140 O   0  0  0  0  0  0  0  0  0  0  0  0
   -4.0670   -6.0630   -6.4720 H   0  0  0  0  0  0  0  0  0  0  0  0
   -5.4800   -5.0710   -6.0660 H   0  0  0  0  0  0  0  0  0  0  0  0
   -2.2420   -6.1090   -3.9180 H   0  0  0  0  0  0  0  0  0  0  0  0
   -2.0350   -4.7270   -5.1100 H   0  0  0  0  0  0  0  0  0  0  0  0
   -1.2100   -4.2450   -2.7320 H   0  0  0  0  0  0  0  0  0  0  0  0
   -2.8160   -4.6060   -2.0910 H   0  0  0  0  0  0  0  0  0  0  0  0
   -1.8400   -2.3330   -3.8450 H   0  0  0  0  0  0  0  0  0  0  0  0
   -2.9010   -2.5380   -1.0040 H   0  0  0  0  0  0  0  0  0  0  0  0
  1 13  1  0  0  0  0
  1 12  1  0  0  0  0
  2  3  2  0  0  0  0
  2  1  1  0  0  0  0
  3 14  1  0  0  0  0
  4  2  1  0  0  0  0
  5 16  1  0  0  0  0
  5  4  1  0  0  0  0
  6 19  1  0  0  0  0
  6  5  1  0  0  0  0
  7 20  1  0  0  0  0
  7  6  1  0  0  0  0
  8 22  1  6  0  0  0
  8 10  1  0  0  0  0
  8  7  1  0  0  0  0
  9  8  1  0  0  0  0
  9 23  1  0  0  0  0
 10 11  2  0  0  0  0
 15  4  1  0  0  0  0
 17  5  1  0  0  0  0
 18  6  1  0  0  0  0
 21  7  1  0  0  0  0
 24  9  1  0  0  0  0
 25 26  1  0  0  0  0
 25 10  1  0  0  0  0
 26 27  1  0  0  0  0
 26 36  1  1  0  0  0
 27 28  1  0  0  0  0
 28 32  1  0  0  0  0
 28 29  2  0  0  0  0
 29 30  1  0  0  0  0
 30 40  1  0  0  0  0
 31 30  1  0  0  0  0
 31 41  1  0  0  0  0
 32 31  2  0  0  0  0
 33 26  1  0  0  0  0
 34 33  2  0  0  0  0
 35 25  1  0  0  0  0
 37 27  1  0  0  0  0
 38 27  1  0  0  0  0
 39 29  1  0  0  0  0
 42 43  1  0  0  0  0
 43 45  1  0  0  0  0
 43 44  2  0  0  0  0
 45 54  1  0  0  0  0
 45 46  1  0  0  0  0
 46 56  1  0  0  0  0
 46 57  1  0  0  0  0
 47 58  1  6  0  0  0
 47 46  1  0  0  0  0
 47 48  1  0  0  0  0
 48 33  1  0  0  0  0
 48 59  1  0  0  0  0
 49 47  1  0  0  0  0
 49 50  1  0  0  0  0
 51 49  2  0  0  0  0
 52 42  1  0  0  0  0
 53 42  1  0  0  0  0
 55 45  1  0  0  0  0
M  END
$$$$
