RHV.pdb
 OpenBabel07022418053D

 58 58  0  0  1  0  0  0  0  0999 V2000
    3.2480   -2.1010    3.4530 N   0  0  0  0  0  0  0  0  0  0  0  0
    3.0960   -0.8320    4.0530 C   0  0  0  0  0  0  0  0  0  0  0  0
    2.7020   -0.7650    5.2930 N   0  0  0  0  0  0  0  0  0  0  0  0
    3.3500    0.3950    3.3790 N   0  0  0  0  0  0  0  0  0  0  0  0
    2.7110    1.6310    3.7530 C   0  0  0  0  0  0  0  0  0  0  0  0
    3.0670    2.7370    2.8280 C   0  0  0  0  0  0  0  0  0  0  0  0
    2.6240    2.7620    1.4430 C   0  0  0  0  0  0  0  0  0  0  0  0
    2.8820    1.7310    0.4350 C   0  0  2  0  0  0  0  0  0  0  0  0
    2.2900    2.2800   -0.8770 N   0  0  0  0  0  0  0  0  0  0  0  0
    2.0150    0.4910    0.5340 C   0  0  0  0  0  0  0  0  0  0  0  0
    2.4530   -0.6530    0.7770 O   0  0  0  0  0  0  0  0  0  0  0  0
    4.1420   -2.3960    3.0240 H   0  0  0  0  0  0  0  0  0  0  0  0
    2.4630   -2.8080    3.4120 H   0  0  0  0  0  0  0  0  0  0  0  0
    2.5000   -1.6310    5.8380 H   0  0  0  0  0  0  0  0  0  0  0  0
    4.0510    0.3700    2.5990 H   0  0  0  0  0  0  0  0  0  0  0  0
    2.9860    1.8660    4.8110 H   0  0  0  0  0  0  0  0  0  0  0  0
    1.5960    1.4700    3.7880 H   0  0  0  0  0  0  0  0  0  0  0  0
    4.2120    2.8730    2.9020 H   0  0  0  0  0  0  0  0  0  0  0  0
    2.7340    3.6970    3.3870 H   0  0  0  0  0  0  0  0  0  0  0  0
    1.5070    3.0830    1.3760 H   0  0  0  0  0  0  0  0  0  0  0  0
    3.0880    3.7300    0.9950 H   0  0  0  0  0  0  0  0  0  0  0  0
    3.9100    1.5400    0.2030 H   0  0  0  0  0  0  0  0  0  0  0  0
    2.9010    3.0840   -1.1350 H   0  0  0  0  0  0  0  0  0  0  0  0
    2.5720    1.5040   -1.5400 H   0  0  0  0  0  0  0  0  0  0  0  0
    0.6180    0.5910    0.3470 N   0  0  0  0  0  0  0  0  0  0  0  0
   -0.2540   -0.6400    0.4440 C   0  0  1  0  0  0  0  0  0  0  0  0
   -1.1250   -0.3970    1.6550 C   0  0  0  0  0  0  0  0  0  0  0  0
   -2.0190   -1.5160    1.9590 C   0  0  0  0  0  0  0  0  0  0  0  0
   -2.9240   -1.4390    3.0550 C   0  0  0  0  0  0  0  0  0  0  0  0
   -3.5960   -2.5820    3.0870 N   0  0  0  0  0  0  0  0  0  0  0  0
   -3.2040   -3.3990    2.1040 C   0  0  0  0  0  0  0  0  0  0  0  0
   -2.2550   -2.7090    1.4550 N   0  0  0  0  0  0  0  0  0  0  0  0
   -1.0370   -0.6950   -0.7990 C   0  0  0  0  0  0  0  0  0  0  0  0
   -1.1690    0.4110   -1.4590 O   0  0  0  0  0  0  0  0  0  0  0  0
    0.1480    1.4560    0.1470 H   0  0  0  0  0  0  0  0  0  0  0  0
    0.4220   -1.4570    0.6500 H   0  0  0  0  0  0  0  0  0  0  0  0
   -1.7260    0.5410    1.4820 H   0  0  0  0  0  0  0  0  0  0  0  0
   -0.4870   -0.2290    2.5610 H   0  0  0  0  0  0  0  0  0  0  0  0
   -3.0320   -0.6100    3.7190 H   0  0  0  0  0  0  0  0  0  0  0  0
   -4.3410   -2.7850    3.8170 H   0  0  0  0  0  0  0  0  0  0  0  0
   -3.6020   -4.3810    1.9240 H   0  0  0  0  0  0  0  0  0  0  0  0
   -0.4150   -2.1390   -4.0530 C   0  0  0  0  0  0  0  0  0  0  0  0
   -1.8490   -2.5400   -3.7370 C   0  0  0  0  0  0  0  0  0  0  0  0
   -1.9680   -4.0130   -3.4640 C   0  0  0  0  0  0  0  0  0  0  0  0
   -2.4340   -1.6780   -2.6440 C   0  0  2  0  0  0  0  0  0  0  0  0
   -1.6770   -1.7810   -1.4070 N   0  0  0  0  0  0  0  0  0  0  0  0
   -3.8370   -2.1140   -2.4290 C   0  0  0  0  0  0  0  0  0  0  0  0
   -4.6750   -2.1090   -3.3400 O   0  0  0  0  0  0  0  0  0  0  0  0
   -4.2660   -2.5540   -1.1650 O   0  0  0  0  0  0  0  0  0  0  0  0
    0.2880   -2.3490   -3.2510 H   0  0  0  0  0  0  0  0  0  0  0  0
   -0.1470   -2.6860   -4.9800 H   0  0  0  0  0  0  0  0  0  0  0  0
   -0.4500   -1.0660   -4.3280 H   0  0  0  0  0  0  0  0  0  0  0  0
   -2.4350   -2.3270   -4.6550 H   0  0  0  0  0  0  0  0  0  0  0  0
   -1.1940   -4.5130   -4.1160 H   0  0  0  0  0  0  0  0  0  0  0  0
   -1.8400   -4.2300   -2.4050 H   0  0  0  0  0  0  0  0  0  0  0  0
   -2.9680   -4.4200   -3.7680 H   0  0  0  0  0  0  0  0  0  0  0  0
   -2.4590   -0.6500   -3.0370 H   0  0  0  0  0  0  0  0  0  0  0  0
   -1.6020   -2.7270   -1.0040 H   0  0  0  0  0  0  0  0  0  0  0  0
  1  2  1  0  0  0  0
  2  3  2  0  0  0  0
  3 14  1  0  0  0  0
  4  5  1  0  0  0  0
  4  2  1  0  0  0  0
  5 17  1  0  0  0  0
  5 16  1  0  0  0  0
  6 18  1  0  0  0  0
  6 19  1  0  0  0  0
  6  5  1  0  0  0  0
  7  6  1  0  0  0  0
  8 22  1  6  0  0  0
  8 10  1  0  0  0  0
  8  7  1  0  0  0  0
  9  8  1  0  0  0  0
 10 11  2  0  0  0  0
 12  1  1  0  0  0  0
 13  1  1  0  0  0  0
 15  4  1  0  0  0  0
 20  7  1  0  0  0  0
 21  7  1  0  0  0  0
 23  9  1  0  0  0  0
 24  9  1  0  0  0  0
 25 26  1  0  0  0  0
 25 10  1  0  0  0  0
 26 36  1  1  0  0  0
 26 27  1  0  0  0  0
 27 28  1  0  0  0  0
 27 38  1  0  0  0  0
 28 29  2  0  0  0  0
 29 30  1  0  0  0  0
 29 39  1  0  0  0  0
 30 40  1  0  0  0  0
 31 30  1  0  0  0  0
 32 28  1  0  0  0  0
 32 31  2  0  0  0  0
 33 26  1  0  0  0  0
 34 33  2  0  0  0  0
 35 25  1  0  0  0  0
 37 27  1  0  0  0  0
 41 31  1  0  0  0  0
 42 43  1  0  0  0  0
 42 50  1  0  0  0  0
 43 44  1  0  0  0  0
 43 45  1  0  0  0  0
 44 55  1  0  0  0  0
 45 57  1  6  0  0  0
 45 47  1  0  0  0  0
 45 46  1  0  0  0  0
 46 58  1  0  0  0  0
 46 33  1  0  0  0  0
 47 49  1  0  0  0  0
 48 47  2  0  0  0  0
 51 42  1  0  0  0  0
 52 42  1  0  0  0  0
 53 43  1  0  0  0  0
 54 44  1  0  0  0  0
 56 44  1  0  0  0  0
M  END
$$$$
