RIC.pdb
 OpenBabel07022418053D

 55 54  0  0  1  0  0  0  0  0999 V2000
    5.4380   -3.0720    3.8670 N   0  0  0  0  0  0  0  0  0  0  0  0
    4.1730   -2.6060    4.3820 C   0  0  0  0  0  0  0  0  0  0  0  0
    4.0970   -1.4200    4.8630 N   0  0  0  0  0  0  0  0  0  0  0  0
    3.0390   -3.4530    4.3510 N   0  0  0  0  0  0  0  0  0  0  0  0
    1.7270   -2.9140    4.1810 C   0  0  0  0  0  0  0  0  0  0  0  0
    1.5820   -2.3400    2.7710 C   0  0  0  0  0  0  0  0  0  0  0  0
    1.7960   -3.3890    1.7280 C   0  0  0  0  0  0  0  0  0  0  0  0
    1.6410   -2.7700    0.3660 C   0  0  2  0  0  0  0  0  0  0  0  0
    2.6240   -1.7170    0.2340 N   0  0  0  0  0  0  0  0  0  0  0  0
    0.2770   -2.2920    0.0690 C   0  0  0  0  0  0  0  0  0  0  0  0
   -0.6950   -3.0800    0.1440 O   0  0  0  0  0  0  0  0  0  0  0  0
    5.5470   -4.0230    3.4830 H   0  0  0  0  0  0  0  0  0  0  0  0
    6.2630   -2.4460    3.8780 H   0  0  0  0  0  0  0  0  0  0  0  0
    3.1960   -1.0650    5.2390 H   0  0  0  0  0  0  0  0  0  0  0  0
    3.1840   -4.4780    4.4550 H   0  0  0  0  0  0  0  0  0  0  0  0
    1.4900   -2.0970    4.8880 H   0  0  0  0  0  0  0  0  0  0  0  0
    0.9340   -3.6890    4.3610 H   0  0  0  0  0  0  0  0  0  0  0  0
    0.6010   -1.8890    2.6450 H   0  0  0  0  0  0  0  0  0  0  0  0
    2.4050   -1.5850    2.6670 H   0  0  0  0  0  0  0  0  0  0  0  0
    1.0920   -4.2430    1.8210 H   0  0  0  0  0  0  0  0  0  0  0  0
    2.8010   -3.8150    1.8880 H   0  0  0  0  0  0  0  0  0  0  0  0
    1.9590   -3.5470   -0.3980 H   0  0  0  0  0  0  0  0  0  0  0  0
    3.4950   -1.9140    0.7750 H   0  0  0  0  0  0  0  0  0  0  0  0
    2.9440   -1.6550   -0.7760 H   0  0  0  0  0  0  0  0  0  0  0  0
    0.2290    1.5610    1.3100 C   0  0  0  0  0  0  0  0  0  0  0  0
   -1.0880    1.7250    0.6390 C   0  0  0  0  0  0  0  0  0  0  0  0
   -1.8710    0.4690    0.4080 C   0  0  2  0  0  0  0  0  0  0  0  0
   -2.1330   -0.1990    1.7390 C   0  0  0  0  0  0  0  0  0  0  0  0
   -1.3290   -0.4730   -0.6050 C   0  0  2  0  0  0  0  0  0  0  0  0
   -0.0150   -0.9540   -0.3080 N   0  0  0  0  0  0  0  0  0  0  0  0
   -1.4670    0.0070   -2.0000 C   0  0  0  0  0  0  0  0  0  0  0  0
   -0.4770   -0.0260   -2.7780 O   0  0  0  0  0  0  0  0  0  0  0  0
    0.3500    2.3470    2.1240 H   0  0  0  0  0  0  0  0  0  0  0  0
    0.4300    0.5980    1.7760 H   0  0  0  0  0  0  0  0  0  0  0  0
    1.0650    1.8270    0.6040 H   0  0  0  0  0  0  0  0  0  0  0  0
   -1.7360    2.3710    1.3050 H   0  0  0  0  0  0  0  0  0  0  0  0
   -1.0190    2.3470   -0.3010 H   0  0  0  0  0  0  0  0  0  0  0  0
   -2.9020    0.8460    0.0960 H   0  0  0  0  0  0  0  0  0  0  0  0
   -1.5010   -1.1010    1.8530 H   0  0  0  0  0  0  0  0  0  0  0  0
   -1.9230    0.4660    2.6040 H   0  0  0  0  0  0  0  0  0  0  0  0
   -3.2060   -0.4990    1.8690 H   0  0  0  0  0  0  0  0  0  0  0  0
   -1.9950   -1.3930   -0.5420 H   0  0  0  0  0  0  0  0  0  0  0  0
    0.7840   -0.2980   -0.3810 H   0  0  0  0  0  0  0  0  0  0  0  0
   -2.7060    0.5050   -2.4780 N   0  0  0  0  0  0  0  0  0  0  0  0
   -2.8850    0.9840   -3.8400 C   0  0  1  0  0  0  0  0  0  0  0  0
   -3.8700    0.1620   -4.6150 C   0  0  0  0  0  0  0  0  0  0  0  0
   -5.5090    0.1390   -3.8930 S   0  0  0  0  0  0  0  0  0  0  0  0
   -3.2030    2.4190   -3.8950 C   0  0  0  0  0  0  0  0  0  0  0  0
   -3.3890    2.9920   -4.9900 O   0  0  0  0  0  0  0  0  0  0  0  0
   -3.3000    3.1540   -2.7310 O   0  0  0  0  0  0  0  0  0  0  0  0
   -3.5030    0.5150   -1.8060 H   0  0  0  0  0  0  0  0  0  0  0  0
   -1.8930    0.8650   -4.3680 H   0  0  0  0  0  0  0  0  0  0  0  0
   -3.9610    0.6610   -5.6210 H   0  0  0  0  0  0  0  0  0  0  0  0
   -3.4660   -0.8510   -4.8210 H   0  0  0  0  0  0  0  0  0  0  0  0
   -5.8250    1.4220   -3.4270 H   0  0  0  0  0  0  0  0  0  0  0  0
  1 13  1  0  0  0  0
  1  2  1  0  0  0  0
  2  3  2  0  0  0  0
  3 14  1  0  0  0  0
  4  2  1  0  0  0  0
  4 15  1  0  0  0  0
  5  4  1  0  0  0  0
  5 17  1  0  0  0  0
  5 16  1  0  0  0  0
  6  5  1  0  0  0  0
  7 20  1  0  0  0  0
  7 21  1  0  0  0  0
  7  6  1  0  0  0  0
  8 22  1  6  0  0  0
  8  7  1  0  0  0  0
  9  8  1  0  0  0  0
  9 23  1  0  0  0  0
 10 11  2  0  0  0  0
 10  8  1  0  0  0  0
 12  1  1  0  0  0  0
 18  6  1  0  0  0  0
 19  6  1  0  0  0  0
 24  9  1  0  0  0  0
 25 34  1  0  0  0  0
 25 33  1  0  0  0  0
 26 36  1  0  0  0  0
 26 25  1  0  0  0  0
 27 38  1  6  0  0  0
 27 26  1  0  0  0  0
 27 28  1  0  0  0  0
 28 39  1  0  0  0  0
 28 41  1  0  0  0  0
 28 40  1  0  0  0  0
 29 42  1  1  0  0  0
 29 30  1  0  0  0  0
 29 27  1  0  0  0  0
 30 10  1  0  0  0  0
 31 29  1  0  0  0  0
 32 31  2  0  0  0  0
 35 25  1  0  0  0  0
 37 26  1  0  0  0  0
 43 30  1  0  0  0  0
 44 31  1  0  0  0  0
 44 51  1  0  0  0  0
 45 52  1  6  0  0  0
 45 44  1  0  0  0  0
 46 47  1  0  0  0  0
 46 45  1  0  0  0  0
 47 55  1  0  0  0  0
 48 45  1  0  0  0  0
 48 50  1  0  0  0  0
 49 48  2  0  0  0  0
 53 46  1  0  0  0  0
 54 46  1  0  0  0  0
M  END
$$$$
