RIE.pdb
 OpenBabel07022418053D

 60 59  0  0  1  0  0  0  0  0999 V2000
    1.8080    2.2610    6.7110 N   0  0  0  0  0  0  0  0  0  0  0  0
    2.5490    2.4290    5.5180 C   0  0  0  0  0  0  0  0  0  0  0  0
    2.9810    3.5920    5.1040 N   0  0  0  0  0  0  0  0  0  0  0  0
    2.8350    1.2430    4.7270 N   0  0  0  0  0  0  0  0  0  0  0  0
    3.6040    1.4280    3.5530 C   0  0  0  0  0  0  0  0  0  0  0  0
    3.7960    0.2580    2.6580 C   0  0  0  0  0  0  0  0  0  0  0  0
    2.6310   -0.3240    1.9720 C   0  0  0  0  0  0  0  0  0  0  0  0
    1.5170   -0.8670    2.7800 C   0  0  2  0  0  0  0  0  0  0  0  0
    1.9730   -1.9330    3.6500 N   0  0  0  0  0  0  0  0  0  0  0  0
    0.4670   -1.4990    1.9000 C   0  0  0  0  0  0  0  0  0  0  0  0
    0.1330   -2.7020    2.0310 O   0  0  0  0  0  0  0  0  0  0  0  0
    1.9930    1.5140    7.4050 H   0  0  0  0  0  0  0  0  0  0  0  0
    1.0340    2.9240    6.9050 H   0  0  0  0  0  0  0  0  0  0  0  0
    2.7420    4.4020    5.7160 H   0  0  0  0  0  0  0  0  0  0  0  0
    2.4790    0.3410    5.0900 H   0  0  0  0  0  0  0  0  0  0  0  0
    4.6320    1.8470    3.8140 H   0  0  0  0  0  0  0  0  0  0  0  0
    3.1630    2.2430    2.9140 H   0  0  0  0  0  0  0  0  0  0  0  0
    4.3900   -0.5600    3.1580 H   0  0  0  0  0  0  0  0  0  0  0  0
    4.5130    0.5980    1.8340 H   0  0  0  0  0  0  0  0  0  0  0  0
    2.2380    0.3660    1.1710 H   0  0  0  0  0  0  0  0  0  0  0  0
    3.0340   -1.2040    1.3640 H   0  0  0  0  0  0  0  0  0  0  0  0
    1.0460   -0.0920    3.4130 H   0  0  0  0  0  0  0  0  0  0  0  0
    1.5030   -2.8410    3.4940 H   0  0  0  0  0  0  0  0  0  0  0  0
    3.0100   -2.0040    3.6140 H   0  0  0  0  0  0  0  0  0  0  0  0
   -3.8990    1.3770    0.0040 C   0  0  0  0  0  0  0  0  0  0  0  0
   -2.4940    0.8250   -0.1330 C   0  0  0  0  0  0  0  0  0  0  0  0
   -2.5470   -0.6480    0.1800 C   0  0  2  0  0  0  0  0  0  0  0  0
   -3.0420   -0.9240    1.5700 C   0  0  0  0  0  0  0  0  0  0  0  0
   -1.2010   -1.3190    0.0180 C   0  0  2  0  0  0  0  0  0  0  0  0
   -0.1980   -0.7680    0.8780 N   0  0  0  0  0  0  0  0  0  0  0  0
   -0.7740   -1.3470   -1.4110 C   0  0  0  0  0  0  0  0  0  0  0  0
    0.3680   -0.9220   -1.7880 O   0  0  0  0  0  0  0  0  0  0  0  0
   -4.0140    2.0310    0.8970 H   0  0  0  0  0  0  0  0  0  0  0  0
   -4.2050    1.9680   -0.8990 H   0  0  0  0  0  0  0  0  0  0  0  0
   -4.6580    0.5810    0.1160 H   0  0  0  0  0  0  0  0  0  0  0  0
   -2.1830    0.9900   -1.1830 H   0  0  0  0  0  0  0  0  0  0  0  0
   -1.7930    1.3820    0.5170 H   0  0  0  0  0  0  0  0  0  0  0  0
   -3.2350   -1.1230   -0.5450 H   0  0  0  0  0  0  0  0  0  0  0  0
   -3.1460   -2.0270    1.6840 H   0  0  0  0  0  0  0  0  0  0  0  0
   -2.3170   -0.6060    2.3410 H   0  0  0  0  0  0  0  0  0  0  0  0
   -4.0680   -0.5110    1.7410 H   0  0  0  0  0  0  0  0  0  0  0  0
   -1.3520   -2.3770    0.3170 H   0  0  0  0  0  0  0  0  0  0  0  0
    0.0730    0.2430    0.7550 H   0  0  0  0  0  0  0  0  0  0  0  0
   -1.6110   -1.8480   -2.4430 N   0  0  0  0  0  0  0  0  0  0  0  0
   -1.1810   -1.8670   -3.8260 C   0  0  1  0  0  0  0  0  0  0  0  0
   -1.1130   -3.3120   -4.2740 C   0  0  0  0  0  0  0  0  0  0  0  0
   -0.1120   -4.0190   -3.3780 C   0  0  0  0  0  0  0  0  0  0  0  0
    0.0210   -5.4550   -3.7490 C   0  0  0  0  0  0  0  0  0  0  0  0
    0.8280   -6.1410   -3.0580 O   0  0  0  0  0  0  0  0  0  0  0  0
   -2.0590   -1.0500   -4.6950 C   0  0  0  0  0  0  0  0  0  0  0  0
   -1.7800   -0.9940   -5.9190 O   0  0  0  0  0  0  0  0  0  0  0  0
   -0.6840   -6.0420   -4.7880 O   0  0  0  0  0  0  0  0  0  0  0  0
   -3.1570   -0.3530   -4.2410 O   0  0  0  0  0  0  0  0  0  0  0  0
   -2.5520   -2.2050   -2.1710 H   0  0  0  0  0  0  0  0  0  0  0  0
   -0.1580   -1.4510   -3.9320 H   0  0  0  0  0  0  0  0  0  0  0  0
   -0.7950   -3.3520   -5.3170 H   0  0  0  0  0  0  0  0  0  0  0  0
   -2.1390   -3.7290   -4.1050 H   0  0  0  0  0  0  0  0  0  0  0  0
   -0.4080   -3.9950   -2.3230 H   0  0  0  0  0  0  0  0  0  0  0  0
    0.8670   -3.5300   -3.4780 H   0  0  0  0  0  0  0  0  0  0  0  0
   -0.9090   -7.0410   -4.6690 H   0  0  0  0  0  0  0  0  0  0  0  0
  1 13  1  0  0  0  0
  1 12  1  0  0  0  0
  2  1  1  0  0  0  0
  3  2  2  0  0  0  0
  3 14  1  0  0  0  0
  4 15  1  0  0  0  0
  4  2  1  0  0  0  0
  5 16  1  0  0  0  0
  5  4  1  0  0  0  0
  6 18  1  0  0  0  0
  6  5  1  0  0  0  0
  7  6  1  0  0  0  0
  7  8  1  0  0  0  0
  8 22  1  1  0  0  0
  8  9  1  0  0  0  0
 10 11  2  0  0  0  0
 10  8  1  0  0  0  0
 17  5  1  0  0  0  0
 19  6  1  0  0  0  0
 20  7  1  0  0  0  0
 21  7  1  0  0  0  0
 23  9  1  0  0  0  0
 24  9  1  0  0  0  0
 25 35  1  0  0  0  0
 25 33  1  0  0  0  0
 26 25  1  0  0  0  0
 26 27  1  0  0  0  0
 26 37  1  0  0  0  0
 27 38  1  6  0  0  0
 27 28  1  0  0  0  0
 28 39  1  0  0  0  0
 28 41  1  0  0  0  0
 28 40  1  0  0  0  0
 29 27  1  0  0  0  0
 29 42  1  1  0  0  0
 29 30  1  0  0  0  0
 30 10  1  0  0  0  0
 31 29  1  0  0  0  0
 32 31  2  0  0  0  0
 34 25  1  0  0  0  0
 36 26  1  0  0  0  0
 43 30  1  0  0  0  0
 44 54  1  0  0  0  0
 44 31  1  0  0  0  0
 45 55  1  6  0  0  0
 45 44  1  0  0  0  0
 46 57  1  0  0  0  0
 46 45  1  0  0  0  0
 46 47  1  0  0  0  0
 47 58  1  0  0  0  0
 48 47  1  0  0  0  0
 48 49  2  0  0  0  0
 50 53  1  0  0  0  0
 50 45  1  0  0  0  0
 51 50  2  0  0  0  0
 52 60  1  0  0  0  0
 52 48  1  0  0  0  0
 56 46  1  0  0  0  0
 59 47  1  0  0  0  0
M  END
$$$$
