RIF.pdb
 OpenBabel07022418053D

 64 64  0  0  1  0  0  0  0  0999 V2000
    1.4330    1.3130    7.7780 N   0  0  0  0  0  0  0  0  0  0  0  0
    2.7270    1.3130    7.1860 C   0  0  0  0  0  0  0  0  0  0  0  0
    3.8030    1.1380    7.8640 N   0  0  0  0  0  0  0  0  0  0  0  0
    2.8580    1.5160    5.7830 N   0  0  0  0  0  0  0  0  0  0  0  0
    4.0910    1.1600    5.1010 C   0  0  0  0  0  0  0  0  0  0  0  0
    3.9920    1.4590    3.6230 C   0  0  0  0  0  0  0  0  0  0  0  0
    2.8790    0.6890    2.9700 C   0  0  0  0  0  0  0  0  0  0  0  0
    2.7800    0.9900    1.4870 C   0  0  2  0  0  0  0  0  0  0  0  0
    2.5320    2.3550    1.2070 N   0  0  0  0  0  0  0  0  0  0  0  0
    1.7960    0.0520    0.9060 C   0  0  0  0  0  0  0  0  0  0  0  0
    1.9730   -1.1750    1.1280 O   0  0  0  0  0  0  0  0  0  0  0  0
    0.6410    0.8790    7.2500 H   0  0  0  0  0  0  0  0  0  0  0  0
    1.3050    1.7480    8.7290 H   0  0  0  0  0  0  0  0  0  0  0  0
    3.7050    0.9890    8.8980 H   0  0  0  0  0  0  0  0  0  0  0  0
    2.0650    1.9180    5.2630 H   0  0  0  0  0  0  0  0  0  0  0  0
    4.1730    0.0460    5.2040 H   0  0  0  0  0  0  0  0  0  0  0  0
    4.9660    1.6230    5.5640 H   0  0  0  0  0  0  0  0  0  0  0  0
    4.9820    1.2330    3.1800 H   0  0  0  0  0  0  0  0  0  0  0  0
    3.8560    2.5590    3.5330 H   0  0  0  0  0  0  0  0  0  0  0  0
    3.0750   -0.3860    3.1570 H   0  0  0  0  0  0  0  0  0  0  0  0
    1.9370    0.9260    3.4970 H   0  0  0  0  0  0  0  0  0  0  0  0
    3.7910    0.7320    1.0530 H   0  0  0  0  0  0  0  0  0  0  0  0
    1.8770    2.8350    1.8500 H   0  0  0  0  0  0  0  0  0  0  0  0
    3.3240    2.9130    0.8810 H   0  0  0  0  0  0  0  0  0  0  0  0
   -3.5110    1.2440    0.5670 C   0  0  0  0  0  0  0  0  0  0  0  0
   -2.1100    1.1610   -0.0170 C   0  0  0  0  0  0  0  0  0  0  0  0
   -1.6070   -0.2470    0.2030 C   0  0  2  0  0  0  0  0  0  0  0  0
   -1.5620   -0.5930    1.6760 C   0  0  0  0  0  0  0  0  0  0  0  0
   -0.2760   -0.4940   -0.4370 C   0  0  2  0  0  0  0  0  0  0  0  0
    0.6840    0.4220    0.1290 N   0  0  0  0  0  0  0  0  0  0  0  0
   -0.3170   -0.4480   -1.9080 C   0  0  0  0  0  0  0  0  0  0  0  0
    0.4310    0.3290   -2.5550 O   0  0  0  0  0  0  0  0  0  0  0  0
   -4.0050    0.2760    0.3390 H   0  0  0  0  0  0  0  0  0  0  0  0
   -3.5030    1.4350    1.6480 H   0  0  0  0  0  0  0  0  0  0  0  0
   -4.1120    2.0280    0.0840 H   0  0  0  0  0  0  0  0  0  0  0  0
   -2.2150    1.3680   -1.0990 H   0  0  0  0  0  0  0  0  0  0  0  0
   -1.4830    1.9330    0.4230 H   0  0  0  0  0  0  0  0  0  0  0  0
   -2.3590   -0.9250   -0.2600 H   0  0  0  0  0  0  0  0  0  0  0  0
   -1.2320    0.2480    2.2920 H   0  0  0  0  0  0  0  0  0  0  0  0
   -0.7840   -1.3920    1.7900 H   0  0  0  0  0  0  0  0  0  0  0  0
   -2.5160   -1.0530    2.0080 H   0  0  0  0  0  0  0  0  0  0  0  0
    0.0480   -1.5190   -0.1300 H   0  0  0  0  0  0  0  0  0  0  0  0
    0.5270    1.4360   -0.0610 H   0  0  0  0  0  0  0  0  0  0  0  0
   -1.1970   -1.2730   -2.6260 N   0  0  0  0  0  0  0  0  0  0  0  0
   -1.3060   -1.2960   -4.0660 C   0  0  1  0  0  0  0  0  0  0  0  0
   -0.9080   -2.6950   -4.5140 C   0  0  0  0  0  0  0  0  0  0  0  0
   -1.7960   -3.7160   -3.9230 C   0  0  0  0  0  0  0  0  0  0  0  0
   -1.5440   -4.3280   -2.7120 C   0  0  0  0  0  0  0  0  0  0  0  0
   -2.3830   -5.2800   -2.1730 C   0  0  0  0  0  0  0  0  0  0  0  0
   -3.5260   -5.6460   -2.8640 C   0  0  0  0  0  0  0  0  0  0  0  0
   -3.7850   -5.0290   -4.0890 C   0  0  0  0  0  0  0  0  0  0  0  0
   -2.9330   -4.0800   -4.6100 C   0  0  0  0  0  0  0  0  0  0  0  0
   -2.6420   -0.9420   -4.5510 C   0  0  0  0  0  0  0  0  0  0  0  0
   -2.8370   -0.9330   -5.7940 O   0  0  0  0  0  0  0  0  0  0  0  0
   -3.7220   -0.6120   -3.7450 O   0  0  0  0  0  0  0  0  0  0  0  0
   -1.8280   -1.9270   -2.0970 H   0  0  0  0  0  0  0  0  0  0  0  0
   -0.5880   -0.5680   -4.4640 H   0  0  0  0  0  0  0  0  0  0  0  0
    0.1140   -2.8860   -4.1120 H   0  0  0  0  0  0  0  0  0  0  0  0
   -0.8570   -2.7810   -5.6190 H   0  0  0  0  0  0  0  0  0  0  0  0
   -0.6610   -4.0660   -2.1470 H   0  0  0  0  0  0  0  0  0  0  0  0
   -2.2020   -5.7700   -1.2260 H   0  0  0  0  0  0  0  0  0  0  0  0
   -4.2240   -6.3900   -2.4890 H   0  0  0  0  0  0  0  0  0  0  0  0
   -4.6780   -5.3200   -4.6220 H   0  0  0  0  0  0  0  0  0  0  0  0
   -3.2100   -3.6480   -5.5730 H   0  0  0  0  0  0  0  0  0  0  0  0
  1 13  1  0  0  0  0
  2  1  1  0  0  0  0
  2  3  2  0  0  0  0
  3 14  1  0  0  0  0
  4  2  1  0  0  0  0
  5 16  1  0  0  0  0
  5 17  1  0  0  0  0
  5  4  1  0  0  0  0
  6  5  1  0  0  0  0
  7 20  1  0  0  0  0
  7 21  1  0  0  0  0
  7  6  1  0  0  0  0
  8 22  1  6  0  0  0
  8  7  1  0  0  0  0
  9  8  1  0  0  0  0
  9 23  1  0  0  0  0
 10 11  2  0  0  0  0
 10  8  1  0  0  0  0
 12  1  1  0  0  0  0
 15  4  1  0  0  0  0
 18  6  1  0  0  0  0
 19  6  1  0  0  0  0
 24  9  1  0  0  0  0
 25 34  1  0  0  0  0
 26 27  1  0  0  0  0
 26 37  1  0  0  0  0
 26 25  1  0  0  0  0
 27 38  1  6  0  0  0
 27 28  1  0  0  0  0
 28 40  1  0  0  0  0
 28 41  1  0  0  0  0
 28 39  1  0  0  0  0
 29 42  1  1  0  0  0
 29 30  1  0  0  0  0
 29 27  1  0  0  0  0
 30 10  1  0  0  0  0
 31 29  1  0  0  0  0
 32 31  2  0  0  0  0
 33 25  1  0  0  0  0
 35 25  1  0  0  0  0
 36 26  1  0  0  0  0
 43 30  1  0  0  0  0
 44 56  1  0  0  0  0
 44 31  1  0  0  0  0
 45 57  1  6  0  0  0
 45 44  1  0  0  0  0
 46 58  1  0  0  0  0
 46 45  1  0  0  0  0
 46 47  1  0  0  0  0
 47 48  1  0  0  0  0
 48 49  2  0  0  0  0
 48 60  1  0  0  0  0
 49 61  1  0  0  0  0
 50 62  1  0  0  0  0
 50 49  1  0  0  0  0
 51 50  2  0  0  0  0
 52 51  1  0  0  0  0
 52 47  2  0  0  0  0
 53 45  1  0  0  0  0
 53 55  1  0  0  0  0
 54 53  2  0  0  0  0
 59 46  1  0  0  0  0
 63 51  1  0  0  0  0
 64 52  1  0  0  0  0
M  END
$$$$
