RIG.pdb
 OpenBabel07022418053D

 51 50  0  0  1  0  0  0  0  0999 V2000
    0.7540   -5.9540    1.0970 N   0  0  0  0  0  0  0  0  0  0  0  0
    2.0860   -5.4820    1.0150 C   0  0  0  0  0  0  0  0  0  0  0  0
    3.0120   -6.0860    1.6610 N   0  0  0  0  0  0  0  0  0  0  0  0
    2.4200   -4.3490    0.2300 N   0  0  0  0  0  0  0  0  0  0  0  0
    3.6530   -3.6180    0.4900 C   0  0  0  0  0  0  0  0  0  0  0  0
    3.7780   -2.4760   -0.4620 C   0  0  0  0  0  0  0  0  0  0  0  0
    2.7020   -1.4670   -0.4540 C   0  0  0  0  0  0  0  0  0  0  0  0
    2.4680   -0.6890    0.8030 C   0  0  2  0  0  0  0  0  0  0  0  0
    2.1280   -1.5390    1.9110 N   0  0  0  0  0  0  0  0  0  0  0  0
    1.3580    0.2950    0.4750 C   0  0  0  0  0  0  0  0  0  0  0  0
    1.7300    1.2750   -0.1940 O   0  0  0  0  0  0  0  0  0  0  0  0
    0.0460   -5.3940    1.6120 H   0  0  0  0  0  0  0  0  0  0  0  0
    0.4350   -6.8460    0.6640 H   0  0  0  0  0  0  0  0  0  0  0  0
    2.8030   -6.9160    2.2440 H   0  0  0  0  0  0  0  0  0  0  0  0
    1.7620   -4.0690   -0.5220 H   0  0  0  0  0  0  0  0  0  0  0  0
    3.8050   -3.4080    1.5400 H   0  0  0  0  0  0  0  0  0  0  0  0
    4.4640   -4.3540    0.1770 H   0  0  0  0  0  0  0  0  0  0  0  0
    3.7740   -2.9430   -1.4970 H   0  0  0  0  0  0  0  0  0  0  0  0
    4.8050   -2.0340   -0.3850 H   0  0  0  0  0  0  0  0  0  0  0  0
    1.7390   -2.0130   -0.7150 H   0  0  0  0  0  0  0  0  0  0  0  0
    2.7890   -0.7270   -1.2970 H   0  0  0  0  0  0  0  0  0  0  0  0
    3.3700   -0.0940    1.0630 H   0  0  0  0  0  0  0  0  0  0  0  0
    2.9680   -1.5630    2.5880 H   0  0  0  0  0  0  0  0  0  0  0  0
    1.3820   -1.1270    2.5500 H   0  0  0  0  0  0  0  0  0  0  0  0
   -0.9900    3.6870    2.2750 C   0  0  0  0  0  0  0  0  0  0  0  0
   -0.0840    3.2050    1.1190 C   0  0  0  0  0  0  0  0  0  0  0  0
   -0.8660    2.2930    0.2070 C   0  0  2  0  0  0  0  0  0  0  0  0
   -2.0440    3.0710   -0.3080 C   0  0  0  0  0  0  0  0  0  0  0  0
   -1.1200    0.9250    0.7050 C   0  0  2  0  0  0  0  0  0  0  0  0
    0.0530    0.0920    0.8940 N   0  0  0  0  0  0  0  0  0  0  0  0
   -2.2230    0.2140    0.0790 C   0  0  0  0  0  0  0  0  0  0  0  0
   -2.0720   -0.8820   -0.5560 O   0  0  0  0  0  0  0  0  0  0  0  0
   -1.4180    4.6960    2.0400 H   0  0  0  0  0  0  0  0  0  0  0  0
   -0.3670    3.8170    3.1620 H   0  0  0  0  0  0  0  0  0  0  0  0
   -1.8580    3.0210    2.4000 H   0  0  0  0  0  0  0  0  0  0  0  0
    0.8310    2.8210    1.5450 H   0  0  0  0  0  0  0  0  0  0  0  0
    0.1530    4.1170    0.5390 H   0  0  0  0  0  0  0  0  0  0  0  0
   -0.1980    2.2020   -0.7190 H   0  0  0  0  0  0  0  0  0  0  0  0
   -2.6770    2.5470   -1.0260 H   0  0  0  0  0  0  0  0  0  0  0  0
   -1.6510    4.0340   -0.7780 H   0  0  0  0  0  0  0  0  0  0  0  0
   -2.6190    3.4440    0.5590 H   0  0  0  0  0  0  0  0  0  0  0  0
   -1.4390    1.1290    1.8030 H   0  0  0  0  0  0  0  0  0  0  0  0
   -0.1100   -0.8320    1.4250 H   0  0  0  0  0  0  0  0  0  0  0  0
   -3.5670    0.6650    0.1220 N   0  0  0  0  0  0  0  0  0  0  0  0
   -4.6530   -0.0700   -0.5260 C   0  0  0  0  0  0  0  0  0  0  0  0
   -4.7670   -1.4350    0.0450 C   0  0  0  0  0  0  0  0  0  0  0  0
   -5.6300   -2.2390   -0.3750 O   0  0  0  0  0  0  0  0  0  0  0  0
   -3.9050   -1.8340    1.0630 O   0  0  0  0  0  0  0  0  0  0  0  0
   -3.8480    1.5150    0.6360 H   0  0  0  0  0  0  0  0  0  0  0  0
   -5.6130    0.4760   -0.4670 H   0  0  0  0  0  0  0  0  0  0  0  0
   -4.4440   -0.1630   -1.6310 H   0  0  0  0  0  0  0  0  0  0  0  0
  1 12  1  0  0  0  0
  2  1  1  0  0  0  0
  2  3  2  0  0  0  0
  3 14  1  0  0  0  0
  4  5  1  0  0  0  0
  4  2  1  0  0  0  0
  5 16  1  0  0  0  0
  6  7  1  0  0  0  0
  6 19  1  0  0  0  0
  6  5  1  0  0  0  0
  7  8  1  0  0  0  0
  8 22  1  1  0  0  0
  8  9  1  0  0  0  0
  9 24  1  0  0  0  0
  9 23  1  0  0  0  0
 10  8  1  0  0  0  0
 10 30  1  0  0  0  0
 11 10  2  0  0  0  0
 13  1  1  0  0  0  0
 15  4  1  0  0  0  0
 17  5  1  0  0  0  0
 18  6  1  0  0  0  0
 20  7  1  0  0  0  0
 21  7  1  0  0  0  0
 25 35  1  0  0  0  0
 25 34  1  0  0  0  0
 26 36  1  0  0  0  0
 26 25  1  0  0  0  0
 27 38  1  6  0  0  0
 27 29  1  0  0  0  0
 27 26  1  0  0  0  0
 28 27  1  0  0  0  0
 28 41  1  0  0  0  0
 29 30  1  0  0  0  0
 29 42  1  1  0  0  0
 30 43  1  0  0  0  0
 31 44  1  0  0  0  0
 31 29  1  0  0  0  0
 32 31  2  0  0  0  0
 33 25  1  0  0  0  0
 37 26  1  0  0  0  0
 39 28  1  0  0  0  0
 40 28  1  0  0  0  0
 44 49  1  0  0  0  0
 45 50  1  0  0  0  0
 45 46  1  0  0  0  0
 45 44  1  0  0  0  0
 46 48  1  0  0  0  0
 47 46  2  0  0  0  0
 51 45  1  0  0  0  0
M  END
$$$$
