RIH.pdb
 OpenBabel07022418053D

 61 61  0  0  1  0  0  0  0  0999 V2000
    1.2420   -5.3060   -0.9610 N   0  0  0  0  0  0  0  0  0  0  0  0
    2.3420   -4.8280   -0.2240 C   0  0  0  0  0  0  0  0  0  0  0  0
    3.2200   -5.6410    0.2160 N   0  0  0  0  0  0  0  0  0  0  0  0
    2.4750   -3.4460    0.0290 N   0  0  0  0  0  0  0  0  0  0  0  0
    3.3820   -2.9990    1.0440 C   0  0  0  0  0  0  0  0  0  0  0  0
    3.3780   -1.4860    1.1580 C   0  0  0  0  0  0  0  0  0  0  0  0
    3.7920   -0.8680   -0.1450 C   0  0  0  0  0  0  0  0  0  0  0  0
    3.7840    0.6380   -0.0170 C   0  0  2  0  0  0  0  0  0  0  0  0
    4.7240    0.9760    1.0290 N   0  0  0  0  0  0  0  0  0  0  0  0
    2.4360    1.1640    0.2930 C   0  0  0  0  0  0  0  0  0  0  0  0
    2.2800    1.8070    1.3540 O   0  0  0  0  0  0  0  0  0  0  0  0
    1.4270   -5.8160   -1.8480 H   0  0  0  0  0  0  0  0  0  0  0  0
    0.2380   -5.1750   -0.6640 H   0  0  0  0  0  0  0  0  0  0  0  0
    3.1360   -6.6470    0.0390 H   0  0  0  0  0  0  0  0  0  0  0  0
    1.9260   -2.7380   -0.5070 H   0  0  0  0  0  0  0  0  0  0  0  0
    3.0480   -3.3840    2.0440 H   0  0  0  0  0  0  0  0  0  0  0  0
    4.4090   -3.3790    0.9030 H   0  0  0  0  0  0  0  0  0  0  0  0
    4.0750   -1.1410    1.9460 H   0  0  0  0  0  0  0  0  0  0  0  0
    2.3610   -1.1730    1.4770 H   0  0  0  0  0  0  0  0  0  0  0  0
    3.2010   -1.2290   -1.0030 H   0  0  0  0  0  0  0  0  0  0  0  0
    4.8460   -1.1710   -0.3370 H   0  0  0  0  0  0  0  0  0  0  0  0
    4.1280    1.1440   -0.9310 H   0  0  0  0  0  0  0  0  0  0  0  0
    5.6770    1.1430    0.6750 H   0  0  0  0  0  0  0  0  0  0  0  0
    4.3600    1.6800    1.6870 H   0  0  0  0  0  0  0  0  0  0  0  0
   -2.9660    2.4660   -1.4370 C   0  0  0  0  0  0  0  0  0  0  0  0
   -1.7530    3.2150   -1.0320 C   0  0  0  0  0  0  0  0  0  0  0  0
   -0.4370    2.5460   -1.1460 C   0  0  2  0  0  0  0  0  0  0  0  0
   -0.2480    2.1100   -2.5940 C   0  0  0  0  0  0  0  0  0  0  0  0
   -0.0350    1.5210   -0.2080 C   0  0  2  0  0  0  0  0  0  0  0  0
    1.3140    0.9940   -0.5200 N   0  0  0  0  0  0  0  0  0  0  0  0
   -0.8410    0.3560    0.1030 C   0  0  0  0  0  0  0  0  0  0  0  0
   -0.3790   -0.8270   -0.1970 O   0  0  0  0  0  0  0  0  0  0  0  0
   -3.4910    2.9710   -2.3250 H   0  0  0  0  0  0  0  0  0  0  0  0
   -3.7350    2.5750   -0.6430 H   0  0  0  0  0  0  0  0  0  0  0  0
   -2.8460    1.3980   -1.6440 H   0  0  0  0  0  0  0  0  0  0  0  0
   -1.7930    4.2010   -1.5670 H   0  0  0  0  0  0  0  0  0  0  0  0
   -1.8980    3.5320    0.0590 H   0  0  0  0  0  0  0  0  0  0  0  0
    0.2920    3.4700   -1.0040 H   0  0  0  0  0  0  0  0  0  0  0  0
   -0.7120    1.1080   -2.6990 H   0  0  0  0  0  0  0  0  0  0  0  0
    0.8140    1.9990   -2.8660 H   0  0  0  0  0  0  0  0  0  0  0  0
   -0.6790    2.8460   -3.3040 H   0  0  0  0  0  0  0  0  0  0  0  0
    0.1480    2.0420    0.7890 H   0  0  0  0  0  0  0  0  0  0  0  0
    1.3650    0.4710   -1.4180 H   0  0  0  0  0  0  0  0  0  0  0  0
   -2.1100    0.2870    0.7230 N   0  0  0  0  0  0  0  0  0  0  0  0
   -2.7710   -1.0170    0.9790 C   0  0  1  0  0  0  0  0  0  0  0  0
   -2.7650   -1.0930    2.5070 C   0  0  0  0  0  0  0  0  0  0  0  0
   -3.3410   -2.3290    3.0400 C   0  0  0  0  0  0  0  0  0  0  0  0
   -3.4350   -2.5660    4.4030 C   0  0  0  0  0  0  0  0  0  0  0  0
   -3.9990   -3.7640    4.5610 N   0  0  0  0  0  0  0  0  0  0  0  0
   -4.2530   -4.2710    3.3510 C   0  0  0  0  0  0  0  0  0  0  0  0
   -3.8520   -3.3960    2.4390 N   0  0  0  0  0  0  0  0  0  0  0  0
   -4.1670   -0.9610    0.5300 C   0  0  0  0  0  0  0  0  0  0  0  0
   -4.8970   -1.9690    0.5900 O   0  0  0  0  0  0  0  0  0  0  0  0
   -4.7270    0.1910    0.0300 O   0  0  0  0  0  0  0  0  0  0  0  0
   -2.6040    1.1320    1.0230 H   0  0  0  0  0  0  0  0  0  0  0  0
   -2.1760   -1.8490    0.5500 H   0  0  0  0  0  0  0  0  0  0  0  0
   -3.2940   -0.2370    2.9500 H   0  0  0  0  0  0  0  0  0  0  0  0
   -1.7140   -1.0310    2.8920 H   0  0  0  0  0  0  0  0  0  0  0  0
   -3.1020   -1.8790    5.1780 H   0  0  0  0  0  0  0  0  0  0  0  0
   -4.2070   -4.2290    5.4640 H   0  0  0  0  0  0  0  0  0  0  0  0
   -4.7160   -5.2460    3.1720 H   0  0  0  0  0  0  0  0  0  0  0  0
  1 13  1  0  0  0  0
  1  2  1  0  0  0  0
  2  4  1  0  0  0  0
  2  3  2  0  0  0  0
  4  5  1  0  0  0  0
  5  6  1  0  0  0  0
  5 16  1  0  0  0  0
  6 19  1  0  0  0  0
  6 18  1  0  0  0  0
  7  8  1  0  0  0  0
  7  6  1  0  0  0  0
  8 22  1  6  0  0  0
  8 10  1  0  0  0  0
  8  9  1  0  0  0  0
  9 24  1  0  0  0  0
 10 11  2  0  0  0  0
 12  1  1  0  0  0  0
 14  3  1  0  0  0  0
 15  4  1  0  0  0  0
 17  5  1  0  0  0  0
 20  7  1  0  0  0  0
 21  7  1  0  0  0  0
 23  9  1  0  0  0  0
 25 26  1  0  0  0  0
 25 34  1  0  0  0  0
 26 37  1  0  0  0  0
 27 26  1  0  0  0  0
 27 38  1  1  0  0  0
 27 29  1  0  0  0  0
 28 27  1  0  0  0  0
 29 31  1  0  0  0  0
 29 42  1  1  0  0  0
 30 29  1  0  0  0  0
 30 10  1  0  0  0  0
 31 44  1  0  0  0  0
 32 31  2  0  0  0  0
 33 25  1  0  0  0  0
 35 25  1  0  0  0  0
 36 26  1  0  0  0  0
 39 28  1  0  0  0  0
 40 28  1  0  0  0  0
 41 28  1  0  0  0  0
 43 30  1  0  0  0  0
 44 45  1  0  0  0  0
 44 55  1  0  0  0  0
 45 56  1  6  0  0  0
 45 46  1  0  0  0  0
 46 58  1  0  0  0  0
 46 57  1  0  0  0  0
 46 47  1  0  0  0  0
 47 48  2  0  0  0  0
 48 49  1  0  0  0  0
 48 59  1  0  0  0  0
 49 60  1  0  0  0  0
 50 49  1  0  0  0  0
 51 47  1  0  0  0  0
 51 50  2  0  0  0  0
 52 53  1  0  0  0  0
 52 45  1  0  0  0  0
 54 52  2  0  0  0  0
 61 50  1  0  0  0  0
M  END
$$$$
