RII.pdb
 OpenBabel07022418053D

 63 62  0  0  1  0  0  0  0  0999 V2000
    2.3870   -2.8860    4.5760 N   0  0  0  0  0  0  0  0  0  0  0  0
    2.6080   -2.0470    3.4210 C   0  0  0  0  0  0  0  0  0  0  0  0
    2.7760   -2.5650    2.2500 N   0  0  0  0  0  0  0  0  0  0  0  0
    2.6490   -0.6430    3.5190 N   0  0  0  0  0  0  0  0  0  0  0  0
    2.5760    0.2720    2.3830 C   0  0  0  0  0  0  0  0  0  0  0  0
    3.7710    0.1920    1.5170 C   0  0  0  0  0  0  0  0  0  0  0  0
    3.7620    1.1510    0.3950 C   0  0  0  0  0  0  0  0  0  0  0  0
    2.6920    1.0940   -0.6370 C   0  0  2  0  0  0  0  0  0  0  0  0
    2.9940    2.1600   -1.6550 N   0  0  0  0  0  0  0  0  0  0  0  0
    1.3540    1.4160   -0.0780 C   0  0  0  0  0  0  0  0  0  0  0  0
    1.1560    2.3870    0.6920 O   0  0  0  0  0  0  0  0  0  0  0  0
    1.4050   -3.1120    4.8740 H   0  0  0  0  0  0  0  0  0  0  0  0
    3.1560   -3.2830    5.1370 H   0  0  0  0  0  0  0  0  0  0  0  0
    2.7490   -3.5960    2.1610 H   0  0  0  0  0  0  0  0  0  0  0  0
    2.7390   -0.2270    4.4660 H   0  0  0  0  0  0  0  0  0  0  0  0
    1.6860   -0.0580    1.7750 H   0  0  0  0  0  0  0  0  0  0  0  0
    2.4720    1.2890    2.7930 H   0  0  0  0  0  0  0  0  0  0  0  0
    4.7200    0.3240    2.1250 H   0  0  0  0  0  0  0  0  0  0  0  0
    3.8630   -0.8400    1.0310 H   0  0  0  0  0  0  0  0  0  0  0  0
    4.7930    1.1660   -0.1230 H   0  0  0  0  0  0  0  0  0  0  0  0
    3.7460    2.1970    0.8610 H   0  0  0  0  0  0  0  0  0  0  0  0
    2.7510    0.1540   -1.1880 H   0  0  0  0  0  0  0  0  0  0  0  0
    4.0140    2.0240   -1.8680 H   0  0  0  0  0  0  0  0  0  0  0  0
    2.4500    1.8650   -2.4870 H   0  0  0  0  0  0  0  0  0  0  0  0
   -3.3140    3.0010    0.7550 C   0  0  0  0  0  0  0  0  0  0  0  0
   -3.1900    2.2530   -0.5260 C   0  0  0  0  0  0  0  0  0  0  0  0
   -1.8290    1.7970   -0.9010 C   0  0  2  0  0  0  0  0  0  0  0  0
   -1.8780    1.0630   -2.2180 C   0  0  0  0  0  0  0  0  0  0  0  0
   -1.1110    0.9810    0.1650 C   0  0  2  0  0  0  0  0  0  0  0  0
    0.1750    0.6340   -0.3880 N   0  0  0  0  0  0  0  0  0  0  0  0
   -1.8600   -0.1790    0.6000 C   0  0  0  0  0  0  0  0  0  0  0  0
   -3.0350    0.0030    1.1000 O   0  0  0  0  0  0  0  0  0  0  0  0
   -3.4610    4.1110    0.5840 H   0  0  0  0  0  0  0  0  0  0  0  0
   -4.2800    2.7060    1.2620 H   0  0  0  0  0  0  0  0  0  0  0  0
   -2.4600    2.9360    1.4300 H   0  0  0  0  0  0  0  0  0  0  0  0
   -3.5190    2.9610   -1.3460 H   0  0  0  0  0  0  0  0  0  0  0  0
   -3.9580    1.4400   -0.5690 H   0  0  0  0  0  0  0  0  0  0  0  0
   -1.2030    2.7080   -1.0800 H   0  0  0  0  0  0  0  0  0  0  0  0
   -2.9360    0.8260   -2.4450 H   0  0  0  0  0  0  0  0  0  0  0  0
   -1.3390    0.1000   -2.1970 H   0  0  0  0  0  0  0  0  0  0  0  0
   -1.4630    1.6590   -3.0550 H   0  0  0  0  0  0  0  0  0  0  0  0
   -0.9140    1.7160    1.0040 H   0  0  0  0  0  0  0  0  0  0  0  0
    0.3120   -0.1760   -1.0290 H   0  0  0  0  0  0  0  0  0  0  0  0
   -0.6110   -3.2560   -1.8890 C   0  0  0  0  0  0  0  0  0  0  0  0
   -1.3540   -4.1580   -0.9690 C   0  0  0  0  0  0  0  0  0  0  0  0
   -2.4730   -3.5670   -0.1990 C   0  0  2  0  0  0  0  0  0  0  0  0
   -3.5600   -2.9750   -1.0660 C   0  0  0  0  0  0  0  0  0  0  0  0
   -2.1290   -2.6580    0.9260 C   0  0  2  0  0  0  0  0  0  0  0  0
   -1.3750   -1.5040    0.5050 N   0  0  0  0  0  0  0  0  0  0  0  0
   -1.5010   -3.4140    2.0410 C   0  0  0  0  0  0  0  0  0  0  0  0
   -2.1270   -4.4320    2.4400 O   0  0  0  0  0  0  0  0  0  0  0  0
   -0.3270   -3.1110    2.6610 O   0  0  0  0  0  0  0  0  0  0  0  0
   -1.0560   -2.2760   -2.0690 H   0  0  0  0  0  0  0  0  0  0  0  0
   -0.4650   -3.7120   -2.9120 H   0  0  0  0  0  0  0  0  0  0  0  0
    0.4320   -3.1100   -1.5230 H   0  0  0  0  0  0  0  0  0  0  0  0
   -1.7480   -5.0110   -1.6020 H   0  0  0  0  0  0  0  0  0  0  0  0
   -0.6630   -4.7030   -0.2540 H   0  0  0  0  0  0  0  0  0  0  0  0
   -3.0010   -4.4620    0.2890 H   0  0  0  0  0  0  0  0  0  0  0  0
   -3.9550   -3.7280   -1.7800 H   0  0  0  0  0  0  0  0  0  0  0  0
   -3.2990   -2.0160   -1.5170 H   0  0  0  0  0  0  0  0  0  0  0  0
   -4.4200   -2.7640   -0.3660 H   0  0  0  0  0  0  0  0  0  0  0  0
   -3.0890   -2.2300    1.3720 H   0  0  0  0  0  0  0  0  0  0  0  0
   -0.4260   -1.6370    0.1220 H   0  0  0  0  0  0  0  0  0  0  0  0
  1 12  1  0  0  0  0
  1 13  1  0  0  0  0
  2  4  1  0  0  0  0
  2  1  1  0  0  0  0
  3  2  2  0  0  0  0
  4 15  1  0  0  0  0
  5 17  1  0  0  0  0
  5  4  1  0  0  0  0
  6 18  1  0  0  0  0
  6  5  1  0  0  0  0
  7 21  1  0  0  0  0
  7  6  1  0  0  0  0
  8 22  1  6  0  0  0
  8 10  1  0  0  0  0
  8  7  1  0  0  0  0
  9  8  1  0  0  0  0
 10 11  2  0  0  0  0
 14  3  1  0  0  0  0
 16  5  1  0  0  0  0
 19  6  1  0  0  0  0
 20  7  1  0  0  0  0
 23  9  1  0  0  0  0
 24  9  1  0  0  0  0
 25 34  1  0  0  0  0
 25 35  1  0  0  0  0
 26 25  1  0  0  0  0
 27 38  1  6  0  0  0
 27 26  1  0  0  0  0
 27 29  1  0  0  0  0
 28 40  1  0  0  0  0
 28 27  1  0  0  0  0
 29 31  1  0  0  0  0
 29 42  1  1  0  0  0
 30 10  1  0  0  0  0
 30 29  1  0  0  0  0
 31 32  2  0  0  0  0
 33 25  1  0  0  0  0
 36 26  1  0  0  0  0
 37 26  1  0  0  0  0
 39 28  1  0  0  0  0
 41 28  1  0  0  0  0
 43 30  1  0  0  0  0
 44 55  1  0  0  0  0
 44 45  1  0  0  0  0
 45 57  1  0  0  0  0
 45 46  1  0  0  0  0
 46 58  1  1  0  0  0
 46 48  1  0  0  0  0
 47 61  1  0  0  0  0
 47 46  1  0  0  0  0
 48 62  1  1  0  0  0
 48 50  1  0  0  0  0
 49 31  1  0  0  0  0
 49 48  1  0  0  0  0
 50 51  2  0  0  0  0
 50 52  1  0  0  0  0
 53 44  1  0  0  0  0
 54 44  1  0  0  0  0
 56 45  1  0  0  0  0
 59 47  1  0  0  0  0
 60 47  1  0  0  0  0
 63 49  1  0  0  0  0
M  END
$$$$
