RIL.pdb
 OpenBabel07022418053D

 63 62  0  0  1  0  0  0  0  0999 V2000
    1.2260   -4.8220    1.3140 N   0  0  0  0  0  0  0  0  0  0  0  0
    2.4080   -4.0420    1.5310 C   0  0  0  0  0  0  0  0  0  0  0  0
    3.4410   -4.6170    1.9980 N   0  0  0  0  0  0  0  0  0  0  0  0
    2.4270   -2.6520    1.2320 N   0  0  0  0  0  0  0  0  0  0  0  0
    3.3790   -1.7550    1.8330 C   0  0  0  0  0  0  0  0  0  0  0  0
    3.2170   -0.3380    1.3790 C   0  0  0  0  0  0  0  0  0  0  0  0
    3.3750   -0.1670   -0.0950 C   0  0  0  0  0  0  0  0  0  0  0  0
    3.2240    1.2680   -0.5340 C   0  0  2  0  0  0  0  0  0  0  0  0
    4.2720    2.0200    0.1630 N   0  0  0  0  0  0  0  0  0  0  0  0
    1.9080    1.8320   -0.1550 C   0  0  0  0  0  0  0  0  0  0  0  0
    1.8530    2.8220    0.6510 O   0  0  0  0  0  0  0  0  0  0  0  0
    0.2900   -4.5510    1.6810 H   0  0  0  0  0  0  0  0  0  0  0  0
    1.2710   -5.7040    0.7670 H   0  0  0  0  0  0  0  0  0  0  0  0
    3.4230   -5.6330    2.2150 H   0  0  0  0  0  0  0  0  0  0  0  0
    1.7320   -2.2810    0.5590 H   0  0  0  0  0  0  0  0  0  0  0  0
    3.2940   -1.8240    2.9400 H   0  0  0  0  0  0  0  0  0  0  0  0
    4.4110   -2.1190    1.5960 H   0  0  0  0  0  0  0  0  0  0  0  0
    3.9440    0.2960    1.9440 H   0  0  0  0  0  0  0  0  0  0  0  0
    2.2070    0.0270    1.6700 H   0  0  0  0  0  0  0  0  0  0  0  0
    4.3910   -0.5150   -0.4020 H   0  0  0  0  0  0  0  0  0  0  0  0
    2.6620   -0.8290   -0.6180 H   0  0  0  0  0  0  0  0  0  0  0  0
    3.3630    1.3590   -1.6350 H   0  0  0  0  0  0  0  0  0  0  0  0
    4.0310    3.0530    0.1990 H   0  0  0  0  0  0  0  0  0  0  0  0
    5.1820    1.9180   -0.3470 H   0  0  0  0  0  0  0  0  0  0  0  0
   -2.4440    4.2600    0.0890 C   0  0  0  0  0  0  0  0  0  0  0  0
   -2.6390    3.2130   -0.9880 C   0  0  0  0  0  0  0  0  0  0  0  0
   -1.3450    2.5410   -1.3640 C   0  0  2  0  0  0  0  0  0  0  0  0
   -1.6370    1.5200   -2.4360 C   0  0  0  0  0  0  0  0  0  0  0  0
   -0.5970    1.9860   -0.2040 C   0  0  2  0  0  0  0  0  0  0  0  0
    0.6590    1.3540   -0.6280 N   0  0  0  0  0  0  0  0  0  0  0  0
   -1.4220    0.9630    0.4790 C   0  0  0  0  0  0  0  0  0  0  0  0
   -2.5630    1.1920    0.9600 O   0  0  0  0  0  0  0  0  0  0  0  0
   -3.0400    5.1670   -0.1500 H   0  0  0  0  0  0  0  0  0  0  0  0
   -2.8080    3.9160    1.0780 H   0  0  0  0  0  0  0  0  0  0  0  0
   -1.3690    4.5350    0.1360 H   0  0  0  0  0  0  0  0  0  0  0  0
   -3.0470    3.7490   -1.8920 H   0  0  0  0  0  0  0  0  0  0  0  0
   -3.4390    2.5270   -0.6860 H   0  0  0  0  0  0  0  0  0  0  0  0
   -0.7230    3.3370   -1.8670 H   0  0  0  0  0  0  0  0  0  0  0  0
   -2.1600    0.6250   -2.0470 H   0  0  0  0  0  0  0  0  0  0  0  0
   -2.3290    2.0000   -3.1650 H   0  0  0  0  0  0  0  0  0  0  0  0
   -0.7440    1.2100   -2.9980 H   0  0  0  0  0  0  0  0  0  0  0  0
   -0.3450    2.8100    0.4820 H   0  0  0  0  0  0  0  0  0  0  0  0
    0.6740    0.5420   -1.2840 H   0  0  0  0  0  0  0  0  0  0  0  0
   -2.8350   -4.6790   -0.3510 C   0  0  0  0  0  0  0  0  0  0  0  0
   -2.7390   -3.6570    0.7800 C   0  0  0  0  0  0  0  0  0  0  0  0
   -4.1390   -3.2150    1.1260 C   0  0  0  0  0  0  0  0  0  0  0  0
   -1.9280   -2.5000    0.2910 C   0  0  0  0  0  0  0  0  0  0  0  0
   -1.7400   -1.3980    1.2930 C   0  0  2  0  0  0  0  0  0  0  0  0
   -0.9310   -0.3750    0.6210 N   0  0  0  0  0  0  0  0  0  0  0  0
   -1.0120   -1.8020    2.5140 C   0  0  0  0  0  0  0  0  0  0  0  0
    0.0890   -1.3010    2.8240 O   0  0  0  0  0  0  0  0  0  0  0  0
   -1.5620   -2.7620    3.3400 O   0  0  0  0  0  0  0  0  0  0  0  0
   -3.8540   -4.6550   -0.7850 H   0  0  0  0  0  0  0  0  0  0  0  0
   -2.6930   -5.7040    0.0530 H   0  0  0  0  0  0  0  0  0  0  0  0
   -2.0480   -4.4690   -1.1270 H   0  0  0  0  0  0  0  0  0  0  0  0
   -2.3360   -4.1690    1.6670 H   0  0  0  0  0  0  0  0  0  0  0  0
   -4.3230   -2.2540    0.5650 H   0  0  0  0  0  0  0  0  0  0  0  0
   -4.8690   -3.9610    0.7440 H   0  0  0  0  0  0  0  0  0  0  0  0
   -4.2760   -3.0450    2.2050 H   0  0  0  0  0  0  0  0  0  0  0  0
   -2.5200   -2.0480   -0.5590 H   0  0  0  0  0  0  0  0  0  0  0  0
   -0.9720   -2.8110   -0.1820 H   0  0  0  0  0  0  0  0  0  0  0  0
   -2.7150   -0.9180    1.5450 H   0  0  0  0  0  0  0  0  0  0  0  0
   -0.0020   -0.6660    0.2620 H   0  0  0  0  0  0  0  0  0  0  0  0
  1  2  1  0  0  0  0
  1 12  1  0  0  0  0
  2  3  2  0  0  0  0
  3 14  1  0  0  0  0
  4  2  1  0  0  0  0
  4  5  1  0  0  0  0
  5 16  1  0  0  0  0
  6 19  1  0  0  0  0
  6  5  1  0  0  0  0
  6 18  1  0  0  0  0
  7  6  1  0  0  0  0
  8 22  1  6  0  0  0
  8 10  1  0  0  0  0
  8  7  1  0  0  0  0
  8  9  1  0  0  0  0
  9 23  1  0  0  0  0
 10 11  2  0  0  0  0
 13  1  1  0  0  0  0
 15  4  1  0  0  0  0
 17  5  1  0  0  0  0
 20  7  1  0  0  0  0
 21  7  1  0  0  0  0
 24  9  1  0  0  0  0
 25 35  1  0  0  0  0
 25 34  1  0  0  0  0
 26 37  1  0  0  0  0
 26 25  1  0  0  0  0
 27 38  1  6  0  0  0
 27 26  1  0  0  0  0
 27 29  1  0  0  0  0
 28 39  1  0  0  0  0
 28 27  1  0  0  0  0
 29 31  1  0  0  0  0
 29 42  1  1  0  0  0
 30 29  1  0  0  0  0
 30 10  1  0  0  0  0
 31 49  1  0  0  0  0
 31 32  2  0  0  0  0
 33 25  1  0  0  0  0
 36 26  1  0  0  0  0
 40 28  1  0  0  0  0
 41 28  1  0  0  0  0
 43 30  1  0  0  0  0
 44 54  1  0  0  0  0
 44 45  1  0  0  0  0
 45 46  1  0  0  0  0
 45 56  1  0  0  0  0
 46 59  1  0  0  0  0
 47 45  1  0  0  0  0
 47 48  1  0  0  0  0
 48 62  1  1  0  0  0
 48 50  1  0  0  0  0
 49 48  1  0  0  0  0
 50 51  2  0  0  0  0
 50 52  1  0  0  0  0
 53 44  1  0  0  0  0
 55 44  1  0  0  0  0
 57 46  1  0  0  0  0
 58 46  1  0  0  0  0
 60 47  1  0  0  0  0
 61 47  1  0  0  0  0
 63 49  1  0  0  0  0
M  END
$$$$
