RIM.pdb
 OpenBabel07022418053D

 61 60  0  0  1  0  0  0  0  0999 V2000
    2.0100   -3.4850    4.1600 N   0  0  0  0  0  0  0  0  0  0  0  0
    2.8030   -2.4240    3.6780 C   0  0  0  0  0  0  0  0  0  0  0  0
    3.9550   -2.6980    3.2040 N   0  0  0  0  0  0  0  0  0  0  0  0
    2.3780   -1.0540    3.6970 N   0  0  0  0  0  0  0  0  0  0  0  0
    3.3370   -0.0010    3.6650 C   0  0  0  0  0  0  0  0  0  0  0  0
    4.1420    0.1990    2.4760 C   0  0  0  0  0  0  0  0  0  0  0  0
    3.6980    0.6290    1.1500 C   0  0  0  0  0  0  0  0  0  0  0  0
    2.6230   -0.0310    0.4180 C   0  0  2  0  0  0  0  0  0  0  0  0
    2.5670    0.5090   -1.0040 N   0  0  0  0  0  0  0  0  0  0  0  0
    1.2810    0.4320    0.9480 C   0  0  0  0  0  0  0  0  0  0  0  0
    1.0770    0.9790    2.0010 O   0  0  0  0  0  0  0  0  0  0  0  0
    1.2740   -3.3320    4.8800 H   0  0  0  0  0  0  0  0  0  0  0  0
    2.1400   -4.4570    3.8040 H   0  0  0  0  0  0  0  0  0  0  0  0
    4.3530   -3.6440    3.1450 H   0  0  0  0  0  0  0  0  0  0  0  0
    1.3680   -0.8910    3.7560 H   0  0  0  0  0  0  0  0  0  0  0  0
    2.8830    0.9820    3.9680 H   0  0  0  0  0  0  0  0  0  0  0  0
    4.0400   -0.2080    4.5470 H   0  0  0  0  0  0  0  0  0  0  0  0
    4.9410    0.9990    2.7870 H   0  0  0  0  0  0  0  0  0  0  0  0
    4.8960   -0.6990    2.3530 H   0  0  0  0  0  0  0  0  0  0  0  0
    4.6100    0.6470    0.4310 H   0  0  0  0  0  0  0  0  0  0  0  0
    3.4750    1.7630    1.2270 H   0  0  0  0  0  0  0  0  0  0  0  0
    2.7140   -1.0880    0.3290 H   0  0  0  0  0  0  0  0  0  0  0  0
    3.5780    0.5650   -1.2740 H   0  0  0  0  0  0  0  0  0  0  0  0
    2.1650   -0.2740   -1.6020 H   0  0  0  0  0  0  0  0  0  0  0  0
   -3.6570    3.3200   -0.5210 C   0  0  0  0  0  0  0  0  0  0  0  0
   -3.1820    1.9940    0.1200 C   0  0  0  0  0  0  0  0  0  0  0  0
   -1.7690    1.6940   -0.3180 C   0  0  2  0  0  0  0  0  0  0  0  0
   -1.7530    1.5510   -1.8070 C   0  0  0  0  0  0  0  0  0  0  0  0
   -1.2090    0.5790    0.4620 C   0  0  2  0  0  0  0  0  0  0  0  0
    0.1370    0.2050    0.1210 N   0  0  0  0  0  0  0  0  0  0  0  0
   -2.0560   -0.6180    0.5920 C   0  0  0  0  0  0  0  0  0  0  0  0
   -3.2850   -0.5760    0.9200 O   0  0  0  0  0  0  0  0  0  0  0  0
   -4.7420    3.4440   -0.3660 H   0  0  0  0  0  0  0  0  0  0  0  0
   -3.0740    4.1600   -0.0890 H   0  0  0  0  0  0  0  0  0  0  0  0
   -3.4380    3.3000   -1.6050 H   0  0  0  0  0  0  0  0  0  0  0  0
   -3.9110    1.2200   -0.2580 H   0  0  0  0  0  0  0  0  0  0  0  0
   -3.2630    2.1640    1.2080 H   0  0  0  0  0  0  0  0  0  0  0  0
   -1.2160    2.6410   -0.0040 H   0  0  0  0  0  0  0  0  0  0  0  0
   -2.6630    1.0610   -2.2060 H   0  0  0  0  0  0  0  0  0  0  0  0
   -0.8800    0.9520   -2.1660 H   0  0  0  0  0  0  0  0  0  0  0  0
   -1.6940    2.5520   -2.3260 H   0  0  0  0  0  0  0  0  0  0  0  0
   -1.1210    0.9740    1.5320 H   0  0  0  0  0  0  0  0  0  0  0  0
    0.2910   -0.2650   -0.7920 H   0  0  0  0  0  0  0  0  0  0  0  0
   -2.0910   -1.1620   -3.9540 C   0  0  0  0  0  0  0  0  0  0  0  0
   -1.6480   -1.9170   -2.3610 S   0  0  0  0  0  0  0  0  0  0  0  0
   -2.7000   -3.3340   -1.9960 C   0  0  0  0  0  0  0  0  0  0  0  0
   -2.3350   -3.9840   -0.6960 C   0  0  0  0  0  0  0  0  0  0  0  0
   -2.4570   -3.1050    0.5120 C   0  0  2  0  0  0  0  0  0  0  0  0
   -1.5800   -1.9630    0.3630 N   0  0  0  0  0  0  0  0  0  0  0  0
   -1.9800   -3.9540    1.6730 C   0  0  0  0  0  0  0  0  0  0  0  0
   -2.5910   -5.0010    1.9930 O   0  0  0  0  0  0  0  0  0  0  0  0
   -0.8650   -3.6210    2.4230 O   0  0  0  0  0  0  0  0  0  0  0  0
   -3.1030   -0.7020   -3.8590 H   0  0  0  0  0  0  0  0  0  0  0  0
   -2.1460   -1.9400   -4.7560 H   0  0  0  0  0  0  0  0  0  0  0  0
   -1.3710   -0.3850   -4.2480 H   0  0  0  0  0  0  0  0  0  0  0  0
   -2.5960   -4.0810   -2.8040 H   0  0  0  0  0  0  0  0  0  0  0  0
   -3.7890   -3.0510   -1.9890 H   0  0  0  0  0  0  0  0  0  0  0  0
   -1.2400   -4.2530   -0.7640 H   0  0  0  0  0  0  0  0  0  0  0  0
   -2.8440   -4.9640   -0.5630 H   0  0  0  0  0  0  0  0  0  0  0  0
   -3.5090   -2.7930    0.6970 H   0  0  0  0  0  0  0  0  0  0  0  0
   -0.5790   -2.0430    0.0880 H   0  0  0  0  0  0  0  0  0  0  0  0
  1 12  1  0  0  0  0
  2  4  1  0  0  0  0
  2  1  1  0  0  0  0
  3  2  2  0  0  0  0
  4 15  1  0  0  0  0
  5  4  1  0  0  0  0
  5 16  1  0  0  0  0
  5 17  1  0  0  0  0
  6 18  1  0  0  0  0
  6  5  1  0  0  0  0
  7 21  1  0  0  0  0
  7  6  1  0  0  0  0
  8 22  1  1  0  0  0
  8 10  1  0  0  0  0
  8  7  1  0  0  0  0
  9  8  1  0  0  0  0
 10 11  2  0  0  0  0
 13  1  1  0  0  0  0
 14  3  1  0  0  0  0
 19  6  1  0  0  0  0
 20  7  1  0  0  0  0
 23  9  1  0  0  0  0
 24  9  1  0  0  0  0
 25 33  1  0  0  0  0
 25 34  1  0  0  0  0
 25 26  1  0  0  0  0
 26 37  1  0  0  0  0
 27 38  1  1  0  0  0
 27 26  1  0  0  0  0
 27 29  1  0  0  0  0
 28 27  1  0  0  0  0
 29 31  1  0  0  0  0
 29 42  1  1  0  0  0
 30 29  1  0  0  0  0
 30 10  1  0  0  0  0
 31 32  2  0  0  0  0
 35 25  1  0  0  0  0
 36 26  1  0  0  0  0
 39 28  1  0  0  0  0
 40 28  1  0  0  0  0
 41 28  1  0  0  0  0
 43 30  1  0  0  0  0
 44 53  1  0  0  0  0
 44 45  1  0  0  0  0
 45 46  1  0  0  0  0
 46 57  1  0  0  0  0
 46 47  1  0  0  0  0
 47 59  1  0  0  0  0
 47 48  1  0  0  0  0
 48 60  1  1  0  0  0
 48 50  1  0  0  0  0
 49 48  1  0  0  0  0
 49 31  1  0  0  0  0
 50 51  2  0  0  0  0
 50 52  1  0  0  0  0
 54 44  1  0  0  0  0
 55 44  1  0  0  0  0
 56 46  1  0  0  0  0
 58 47  1  0  0  0  0
 61 49  1  0  0  0  0
M  END
$$$$
