RIN.pdb
 OpenBabel07022418053D

 58 57  0  0  1  0  0  0  0  0999 V2000
    3.5000   -2.3840    7.3390 N   0  0  0  0  0  0  0  0  0  0  0  0
    3.0110   -2.2200    6.0230 C   0  0  0  0  0  0  0  0  0  0  0  0
    2.4710   -3.2620    5.4860 N   0  0  0  0  0  0  0  0  0  0  0  0
    3.1020   -0.9820    5.3170 N   0  0  0  0  0  0  0  0  0  0  0  0
    2.2360   -0.7920    4.1700 C   0  0  0  0  0  0  0  0  0  0  0  0
    2.4370    0.5650    3.5410 C   0  0  0  0  0  0  0  0  0  0  0  0
    1.5600    0.8030    2.3570 C   0  0  0  0  0  0  0  0  0  0  0  0
    1.7640   -0.1720    1.2450 C   0  0  2  0  0  0  0  0  0  0  0  0
    3.1100   -0.1620    0.7250 N   0  0  0  0  0  0  0  0  0  0  0  0
    0.8320    0.0830    0.0980 C   0  0  0  0  0  0  0  0  0  0  0  0
    1.2600    0.2520   -1.0720 O   0  0  0  0  0  0  0  0  0  0  0  0
    4.5110   -2.4630    7.5060 H   0  0  0  0  0  0  0  0  0  0  0  0
    2.8380   -2.4230    8.1260 H   0  0  0  0  0  0  0  0  0  0  0  0
    2.1010   -3.1810    4.5220 H   0  0  0  0  0  0  0  0  0  0  0  0
    3.7810   -0.2660    5.6470 H   0  0  0  0  0  0  0  0  0  0  0  0
    2.5610   -1.5510    3.4090 H   0  0  0  0  0  0  0  0  0  0  0  0
    1.2040   -0.9040    4.4980 H   0  0  0  0  0  0  0  0  0  0  0  0
    2.3030    1.3960    4.2600 H   0  0  0  0  0  0  0  0  0  0  0  0
    3.5130    0.6070    3.2250 H   0  0  0  0  0  0  0  0  0  0  0  0
    0.4910    0.9260    2.6230 H   0  0  0  0  0  0  0  0  0  0  0  0
    1.8610    1.8140    1.9440 H   0  0  0  0  0  0  0  0  0  0  0  0
    1.5910   -1.2000    1.6640 H   0  0  0  0  0  0  0  0  0  0  0  0
    3.1660   -0.2510   -0.2960 H   0  0  0  0  0  0  0  0  0  0  0  0
    3.7460   -0.8080    1.2410 H   0  0  0  0  0  0  0  0  0  0  0  0
   -0.2480    3.0310    0.1180 C   0  0  0  0  0  0  0  0  0  0  0  0
   -1.2330    2.8710   -0.9780 C   0  0  0  0  0  0  0  0  0  0  0  0
   -1.2830    1.5290   -1.6520 C   0  0  2  0  0  0  0  0  0  0  0  0
   -2.3760    1.6660   -2.7250 C   0  0  0  0  0  0  0  0  0  0  0  0
   -1.5470    0.3790   -0.7490 C   0  0  2  0  0  0  0  0  0  0  0  0
   -0.5800    0.1430    0.2870 N   0  0  0  0  0  0  0  0  0  0  0  0
   -1.8730   -0.9010   -1.4790 C   0  0  0  0  0  0  0  0  0  0  0  0
   -2.7170   -0.8300   -2.3620 O   0  0  0  0  0  0  0  0  0  0  0  0
   -0.3020    4.1140    0.4770 H   0  0  0  0  0  0  0  0  0  0  0  0
   -0.4510    2.4470    1.0310 H   0  0  0  0  0  0  0  0  0  0  0  0
    0.7920    2.9070   -0.2000 H   0  0  0  0  0  0  0  0  0  0  0  0
   -2.2670    3.0740   -0.5570 H   0  0  0  0  0  0  0  0  0  0  0  0
   -1.0830    3.6980   -1.7120 H   0  0  0  0  0  0  0  0  0  0  0  0
   -0.3370    1.4360   -2.2410 H   0  0  0  0  0  0  0  0  0  0  0  0
   -3.3520    1.3940   -2.2830 H   0  0  0  0  0  0  0  0  0  0  0  0
   -2.2000    1.0480   -3.6010 H   0  0  0  0  0  0  0  0  0  0  0  0
   -2.4780    2.7370   -3.0350 H   0  0  0  0  0  0  0  0  0  0  0  0
   -2.5000    0.6720   -0.1940 H   0  0  0  0  0  0  0  0  0  0  0  0
   -0.8730   -0.0100    1.3050 H   0  0  0  0  0  0  0  0  0  0  0  0
   -4.3580   -2.9880   -3.9510 N   0  0  0  0  0  0  0  0  0  0  0  0
   -3.5290   -3.2750   -2.8210 C   0  0  0  0  0  0  0  0  0  0  0  0
   -4.0260   -3.2420   -1.6380 O   0  0  0  0  0  0  0  0  0  0  0  0
   -2.1010   -3.6130   -2.9510 C   0  0  0  0  0  0  0  0  0  0  0  0
   -1.3800   -3.4090   -1.6590 C   0  0  2  0  0  0  0  0  0  0  0  0
   -1.2320   -2.0930   -1.1470 N   0  0  0  0  0  0  0  0  0  0  0  0
   -0.1790   -4.2470   -1.5260 C   0  0  0  0  0  0  0  0  0  0  0  0
    0.8550   -3.7770   -0.9930 O   0  0  0  0  0  0  0  0  0  0  0  0
   -0.1400   -5.5540   -1.9710 O   0  0  0  0  0  0  0  0  0  0  0  0
   -5.1440   -2.3170   -3.8330 H   0  0  0  0  0  0  0  0  0  0  0  0
   -4.1400   -3.4590   -4.8350 H   0  0  0  0  0  0  0  0  0  0  0  0
   -1.6410   -3.0440   -3.7940 H   0  0  0  0  0  0  0  0  0  0  0  0
   -2.0490   -4.7020   -3.1770 H   0  0  0  0  0  0  0  0  0  0  0  0
   -2.2060   -3.8580   -0.9210 H   0  0  0  0  0  0  0  0  0  0  0  0
   -0.4740   -1.9780   -0.3420 H   0  0  0  0  0  0  0  0  0  0  0  0
  1 12  1  0  0  0  0
  1 13  1  0  0  0  0
  2  1  1  0  0  0  0
  3  2  2  0  0  0  0
  4 15  1  0  0  0  0
  4  2  1  0  0  0  0
  5 17  1  0  0  0  0
  5  4  1  0  0  0  0
  6  5  1  0  0  0  0
  6 18  1  0  0  0  0
  7 20  1  0  0  0  0
  7  6  1  0  0  0  0
  8 22  1  1  0  0  0
  8  7  1  0  0  0  0
  9 24  1  0  0  0  0
  9  8  1  0  0  0  0
 10 30  1  0  0  0  0
 10  8  1  0  0  0  0
 11 10  2  0  0  0  0
 14  3  1  0  0  0  0
 16  5  1  0  0  0  0
 19  6  1  0  0  0  0
 21  7  1  0  0  0  0
 23  9  1  0  0  0  0
 25 33  1  0  0  0  0
 25 34  1  0  0  0  0
 26 36  1  0  0  0  0
 26 25  1  0  0  0  0
 27 38  1  6  0  0  0
 27 26  1  0  0  0  0
 27 29  1  0  0  0  0
 28 39  1  0  0  0  0
 28 27  1  0  0  0  0
 29 42  1  1  0  0  0
 29 30  1  0  0  0  0
 30 43  1  0  0  0  0
 31 49  1  0  0  0  0
 31 29  1  0  0  0  0
 32 31  2  0  0  0  0
 35 25  1  0  0  0  0
 37 26  1  0  0  0  0
 40 28  1  0  0  0  0
 41 28  1  0  0  0  0
 44 53  1  0  0  0  0
 44 45  1  0  0  0  0
 45 46  2  0  0  0  0
 47 45  1  0  0  0  0
 47 48  1  0  0  0  0
 48 50  1  0  0  0  0
 48 49  1  0  0  0  0
 48 57  1  1  0  0  0
 49 58  1  0  0  0  0
 50 51  1  0  0  0  0
 52 50  2  0  0  0  0
 54 44  1  0  0  0  0
 55 47  1  0  0  0  0
 56 47  1  0  0  0  0
M  END
$$$$
