RIP.pdb
 OpenBabel07022418053D

 58 58  0  0  1  0  0  0  0  0999 V2000
    2.6000   -2.1050    4.0030 N   0  0  0  0  0  0  0  0  0  0  0  0
    2.5250   -1.5660    2.6770 C   0  0  0  0  0  0  0  0  0  0  0  0
    2.1180   -2.3280    1.7230 N   0  0  0  0  0  0  0  0  0  0  0  0
    2.8830   -0.2290    2.3860 N   0  0  0  0  0  0  0  0  0  0  0  0
    3.3250    0.1610    1.0540 C   0  0  0  0  0  0  0  0  0  0  0  0
    3.7010    1.5820    0.9540 C   0  0  0  0  0  0  0  0  0  0  0  0
    2.7750    2.6610    1.2590 C   0  0  0  0  0  0  0  0  0  0  0  0
    1.5370    2.9130    0.5110 C   0  0  2  0  0  0  0  0  0  0  0  0
    0.9140    4.1480    1.1360 N   0  0  0  0  0  0  0  0  0  0  0  0
    0.4680    1.8800    0.7290 C   0  0  0  0  0  0  0  0  0  0  0  0
   -0.2990    1.9780    1.7130 O   0  0  0  0  0  0  0  0  0  0  0  0
    2.7220   -1.4920    4.8220 H   0  0  0  0  0  0  0  0  0  0  0  0
    2.5320   -3.1290    4.1550 H   0  0  0  0  0  0  0  0  0  0  0  0
    1.8380   -3.3230    1.8610 H   0  0  0  0  0  0  0  0  0  0  0  0
    2.8230    0.4760    3.1460 H   0  0  0  0  0  0  0  0  0  0  0  0
    4.2820   -0.4670    0.9250 H   0  0  0  0  0  0  0  0  0  0  0  0
    2.6780   -0.2310    0.2710 H   0  0  0  0  0  0  0  0  0  0  0  0
    4.0980    1.7540   -0.0970 H   0  0  0  0  0  0  0  0  0  0  0  0
    4.6730    1.7270    1.5590 H   0  0  0  0  0  0  0  0  0  0  0  0
    3.3810    3.6390    1.2150 H   0  0  0  0  0  0  0  0  0  0  0  0
    2.5540    2.6520    2.4010 H   0  0  0  0  0  0  0  0  0  0  0  0
    1.7230    3.1450   -0.5330 H   0  0  0  0  0  0  0  0  0  0  0  0
    0.5440    3.8750    2.0790 H   0  0  0  0  0  0  0  0  0  0  0  0
    0.1280    4.4240    0.5060 H   0  0  0  0  0  0  0  0  0  0  0  0
   -1.9720   -0.1800    3.4200 C   0  0  0  0  0  0  0  0  0  0  0  0
   -1.0930   -0.5580    2.2610 C   0  0  0  0  0  0  0  0  0  0  0  0
   -1.6600   -0.3170    0.9170 C   0  0  2  0  0  0  0  0  0  0  0  0
   -2.8980   -1.0510    0.5450 C   0  0  0  0  0  0  0  0  0  0  0  0
   -0.6230   -0.2960   -0.1470 C   0  0  2  0  0  0  0  0  0  0  0  0
    0.2930    0.8080   -0.1430 N   0  0  0  0  0  0  0  0  0  0  0  0
   -1.0490   -0.6790   -1.4970 C   0  0  0  0  0  0  0  0  0  0  0  0
   -1.0570    0.2310   -2.4270 O   0  0  0  0  0  0  0  0  0  0  0  0
   -2.8680   -0.8290    3.4290 H   0  0  0  0  0  0  0  0  0  0  0  0
   -1.4060   -0.4070    4.3470 H   0  0  0  0  0  0  0  0  0  0  0  0
   -2.2070    0.8990    3.4560 H   0  0  0  0  0  0  0  0  0  0  0  0
   -0.0450   -0.3270    2.3940 H   0  0  0  0  0  0  0  0  0  0  0  0
   -1.0580   -1.7410    2.3910 H   0  0  0  0  0  0  0  0  0  0  0  0
   -2.0850    0.7860    1.0050 H   0  0  0  0  0  0  0  0  0  0  0  0
   -2.9470   -2.1020    0.9070 H   0  0  0  0  0  0  0  0  0  0  0  0
   -3.1130   -1.0510   -0.5400 H   0  0  0  0  0  0  0  0  0  0  0  0
   -3.8240   -0.5810    0.9910 H   0  0  0  0  0  0  0  0  0  0  0  0
    0.0620   -1.1660    0.2290 H   0  0  0  0  0  0  0  0  0  0  0  0
    0.9840    0.8110   -0.9980 H   0  0  0  0  0  0  0  0  0  0  0  0
   -1.4570   -1.9500   -1.9330 N   0  0  0  0  0  0  0  0  0  0  0  0
   -1.9850   -2.3270   -3.2350 C   0  0  0  0  0  0  0  0  0  0  0  0
   -2.8570   -3.5410   -2.9840 C   0  0  0  0  0  0  0  0  0  0  0  0
   -2.6970   -3.9050   -1.5180 C   0  0  0  0  0  0  0  0  0  0  0  0
   -1.3730   -3.1960   -1.2190 C   0  0  1  0  0  0  0  0  0  0  0  0
   -0.2920   -4.0740   -1.8160 C   0  0  0  0  0  0  0  0  0  0  0  0
    0.3990   -3.6990   -2.7720 O   0  0  0  0  0  0  0  0  0  0  0  0
   -0.1300   -5.3140   -1.2240 O   0  0  0  0  0  0  0  0  0  0  0  0
   -1.2240   -2.5530   -3.9760 H   0  0  0  0  0  0  0  0  0  0  0  0
   -2.6530   -1.5390   -3.6480 H   0  0  0  0  0  0  0  0  0  0  0  0
   -2.5500   -4.4190   -3.5870 H   0  0  0  0  0  0  0  0  0  0  0  0
   -3.9210   -3.3470   -3.1840 H   0  0  0  0  0  0  0  0  0  0  0  0
   -3.5330   -3.5040   -0.9450 H   0  0  0  0  0  0  0  0  0  0  0  0
   -2.5330   -4.9760   -1.3590 H   0  0  0  0  0  0  0  0  0  0  0  0
   -1.1420   -3.1470   -0.1660 H   0  0  0  0  0  0  0  0  0  0  0  0
  1 13  1  0  0  0  0
  1 12  1  0  0  0  0
  2  1  1  0  0  0  0
  3 14  1  0  0  0  0
  3  2  2  0  0  0  0
  4  2  1  0  0  0  0
  4 15  1  0  0  0  0
  5  4  1  0  0  0  0
  6  5  1  0  0  0  0
  6  7  1  0  0  0  0
  6 19  1  0  0  0  0
  7 21  1  0  0  0  0
  8 22  1  6  0  0  0
  8 10  1  0  0  0  0
  8  9  1  0  0  0  0
  8  7  1  0  0  0  0
  9 23  1  0  0  0  0
 10 11  2  0  0  0  0
 16  5  1  0  0  0  0
 17  5  1  0  0  0  0
 18  6  1  0  0  0  0
 20  7  1  0  0  0  0
 24  9  1  0  0  0  0
 25 33  1  0  0  0  0
 25 35  1  0  0  0  0
 25 34  1  0  0  0  0
 26 37  1  0  0  0  0
 26 36  1  0  0  0  0
 26 25  1  0  0  0  0
 27 38  1  1  0  0  0
 27 26  1  0  0  0  0
 28 39  1  0  0  0  0
 28 27  1  0  0  0  0
 28 41  1  0  0  0  0
 29 30  1  0  0  0  0
 29 42  1  1  0  0  0
 29 27  1  0  0  0  0
 30 10  1  0  0  0  0
 31 29  1  0  0  0  0
 32 31  2  0  0  0  0
 40 28  1  0  0  0  0
 43 30  1  0  0  0  0
 44 31  1  0  0  0  0
 44 48  1  0  0  0  0
 45 46  1  0  0  0  0
 45 44  1  0  0  0  0
 46 47  1  0  0  0  0
 47 57  1  0  0  0  0
 47 48  1  0  0  0  0
 47 56  1  0  0  0  0
 48 58  1  1  0  0  0
 49 51  1  0  0  0  0
 49 48  1  0  0  0  0
 50 49  2  0  0  0  0
 52 45  1  0  0  0  0
 53 45  1  0  0  0  0
 54 46  1  0  0  0  0
 55 46  1  0  0  0  0
M  END
$$$$
