RIQ.pdb
 OpenBabel07022418053D

 61 60  0  0  1  0  0  0  0  0999 V2000
    6.0550   -3.5780    4.5840 N   0  0  0  0  0  0  0  0  0  0  0  0
    4.8670   -2.9120    4.1770 C   0  0  0  0  0  0  0  0  0  0  0  0
    3.7070   -3.4130    4.4610 N   0  0  0  0  0  0  0  0  0  0  0  0
    4.8850   -1.6900    3.4540 N   0  0  0  0  0  0  0  0  0  0  0  0
    3.7860   -1.2000    2.6480 C   0  0  0  0  0  0  0  0  0  0  0  0
    2.6020   -0.7960    3.4630 C   0  0  0  0  0  0  0  0  0  0  0  0
    1.4390   -0.2880    2.6530 C   0  0  0  0  0  0  0  0  0  0  0  0
    1.7920    0.9150    1.8530 C   0  0  2  0  0  0  0  0  0  0  0  0
    2.2290    1.9890    2.7470 N   0  0  0  0  0  0  0  0  0  0  0  0
    0.6240    1.4550    1.0920 C   0  0  0  0  0  0  0  0  0  0  0  0
    0.1870    2.6210    1.2690 O   0  0  0  0  0  0  0  0  0  0  0  0
    6.9920   -3.3120    4.2320 H   0  0  0  0  0  0  0  0  0  0  0  0
    5.9870   -4.3610    5.2600 H   0  0  0  0  0  0  0  0  0  0  0  0
    3.5510   -4.2910    4.9780 H   0  0  0  0  0  0  0  0  0  0  0  0
    5.7640   -1.1170    3.5180 H   0  0  0  0  0  0  0  0  0  0  0  0
    3.4440   -2.0130    1.9570 H   0  0  0  0  0  0  0  0  0  0  0  0
    4.1160   -0.3820    1.9760 H   0  0  0  0  0  0  0  0  0  0  0  0
    2.9330    0.0840    4.0950 H   0  0  0  0  0  0  0  0  0  0  0  0
    2.2950   -1.5520    4.2030 H   0  0  0  0  0  0  0  0  0  0  0  0
    0.6620    0.0280    3.4120 H   0  0  0  0  0  0  0  0  0  0  0  0
    0.9430   -1.0860    2.0710 H   0  0  0  0  0  0  0  0  0  0  0  0
    2.6460    0.7070    1.1800 H   0  0  0  0  0  0  0  0  0  0  0  0
    3.2250    1.9000    3.0020 H   0  0  0  0  0  0  0  0  0  0  0  0
    1.9950    2.9160    2.3080 H   0  0  0  0  0  0  0  0  0  0  0  0
   -1.3270    2.0360   -4.3740 C   0  0  0  0  0  0  0  0  0  0  0  0
   -1.8530    1.7080   -2.9940 C   0  0  0  0  0  0  0  0  0  0  0  0
   -0.7780    1.2160   -2.0770 C   0  0  2  0  0  0  0  0  0  0  0  0
   -0.1180   -0.0410   -2.5880 C   0  0  0  0  0  0  0  0  0  0  0  0
   -1.1870    1.1370   -0.6450 C   0  0  2  0  0  0  0  0  0  0  0  0
   -0.0390    0.6440    0.1230 N   0  0  0  0  0  0  0  0  0  0  0  0
   -2.3650    0.3130   -0.3650 C   0  0  0  0  0  0  0  0  0  0  0  0
   -3.4700    0.6050   -0.9360 O   0  0  0  0  0  0  0  0  0  0  0  0
   -0.3120    2.4600   -4.2960 H   0  0  0  0  0  0  0  0  0  0  0  0
   -1.2960    1.1570   -5.0330 H   0  0  0  0  0  0  0  0  0  0  0  0
   -1.9960    2.7840   -4.8400 H   0  0  0  0  0  0  0  0  0  0  0  0
   -2.3510    2.6150   -2.6030 H   0  0  0  0  0  0  0  0  0  0  0  0
   -2.6270    0.8970   -3.0770 H   0  0  0  0  0  0  0  0  0  0  0  0
    0.0320    2.0070   -2.1220 H   0  0  0  0  0  0  0  0  0  0  0  0
   -0.7760   -0.9190   -2.5500 H   0  0  0  0  0  0  0  0  0  0  0  0
    0.1720    0.0940   -3.6500 H   0  0  0  0  0  0  0  0  0  0  0  0
    0.8320   -0.1770   -2.0250 H   0  0  0  0  0  0  0  0  0  0  0  0
   -1.3710    2.1880   -0.2960 H   0  0  0  0  0  0  0  0  0  0  0  0
    0.3330   -0.3240   -0.0150 H   0  0  0  0  0  0  0  0  0  0  0  0
   -3.7150   -2.9100   -3.4240 N   0  0  0  0  0  0  0  0  0  0  0  0
   -4.0030   -2.8050   -2.0400 C   0  0  0  0  0  0  0  0  0  0  0  0
   -5.0970   -2.3100   -1.6880 O   0  0  0  0  0  0  0  0  0  0  0  0
   -3.0320   -3.2690   -1.0490 C   0  0  0  0  0  0  0  0  0  0  0  0
   -3.4140   -2.9900    0.3580 C   0  0  0  0  0  0  0  0  0  0  0  0
   -3.5760   -1.5410    0.7130 C   0  0  2  0  0  0  0  0  0  0  0  0
   -2.3530   -0.7890    0.5030 N   0  0  0  0  0  0  0  0  0  0  0  0
   -3.9690   -1.4850    2.1360 C   0  0  0  0  0  0  0  0  0  0  0  0
   -4.9950   -2.0720    2.5170 O   0  0  0  0  0  0  0  0  0  0  0  0
   -3.1960   -0.7830    3.0260 O   0  0  0  0  0  0  0  0  0  0  0  0
   -3.2130   -3.7050   -3.8650 H   0  0  0  0  0  0  0  0  0  0  0  0
   -4.0280   -2.1360   -4.0440 H   0  0  0  0  0  0  0  0  0  0  0  0
   -2.0000   -2.8750   -1.2380 H   0  0  0  0  0  0  0  0  0  0  0  0
   -2.9940   -4.3950   -1.1470 H   0  0  0  0  0  0  0  0  0  0  0  0
   -4.4150   -3.4700    0.5480 H   0  0  0  0  0  0  0  0  0  0  0  0
   -2.7140   -3.5220    1.0390 H   0  0  0  0  0  0  0  0  0  0  0  0
   -4.3880   -1.1060    0.1280 H   0  0  0  0  0  0  0  0  0  0  0  0
   -1.4730   -1.0540    0.9830 H   0  0  0  0  0  0  0  0  0  0  0  0
  1 13  1  0  0  0  0
  2  3  2  0  0  0  0
  2  1  1  0  0  0  0
  3 14  1  0  0  0  0
  4 15  1  0  0  0  0
  4  2  1  0  0  0  0
  5  4  1  0  0  0  0
  5  6  1  0  0  0  0
  6 18  1  0  0  0  0
  6 19  1  0  0  0  0
  7 20  1  0  0  0  0
  7  6  1  0  0  0  0
  8 22  1  6  0  0  0
  8  7  1  0  0  0  0
  8  9  1  0  0  0  0
  9 23  1  0  0  0  0
 10 11  2  0  0  0  0
 10  8  1  0  0  0  0
 12  1  1  0  0  0  0
 16  5  1  0  0  0  0
 17  5  1  0  0  0  0
 21  7  1  0  0  0  0
 24  9  1  0  0  0  0
 25 33  1  0  0  0  0
 25 26  1  0  0  0  0
 26 36  1  0  0  0  0
 26 27  1  0  0  0  0
 27 38  1  6  0  0  0
 27 29  1  0  0  0  0
 28 39  1  0  0  0  0
 28 27  1  0  0  0  0
 28 41  1  0  0  0  0
 29 31  1  0  0  0  0
 29 42  1  1  0  0  0
 29 30  1  0  0  0  0
 30 10  1  0  0  0  0
 31 50  1  0  0  0  0
 32 31  2  0  0  0  0
 34 25  1  0  0  0  0
 35 25  1  0  0  0  0
 37 26  1  0  0  0  0
 40 28  1  0  0  0  0
 43 30  1  0  0  0  0
 44 45  1  0  0  0  0
 45 46  2  0  0  0  0
 45 47  1  0  0  0  0
 47 48  1  0  0  0  0
 48 58  1  0  0  0  0
 48 49  1  0  0  0  0
 48 59  1  0  0  0  0
 49 60  1  6  0  0  0
 49 51  1  0  0  0  0
 50 49  1  0  0  0  0
 50 61  1  0  0  0  0
 51 52  2  0  0  0  0
 51 53  1  0  0  0  0
 54 44  1  0  0  0  0
 55 44  1  0  0  0  0
 56 47  1  0  0  0  0
 57 47  1  0  0  0  0
M  END
$$$$
