RIR.pdb
 OpenBabel07022418053D

 67 66  0  0  1  0  0  0  0  0999 V2000
   -1.8420    5.0470    4.8870 N   0  0  0  0  0  0  0  0  0  0  0  0
   -0.8870    4.2590    4.1980 C   0  0  0  0  0  0  0  0  0  0  0  0
   -1.2290    3.1030    3.7360 N   0  0  0  0  0  0  0  0  0  0  0  0
    0.4440    4.6780    3.9880 N   0  0  0  0  0  0  0  0  0  0  0  0
    1.5540    3.8180    3.7030 C   0  0  0  0  0  0  0  0  0  0  0  0
    1.4610    3.1700    2.3310 C   0  0  0  0  0  0  0  0  0  0  0  0
    2.6660    2.2890    2.0940 C   0  0  0  0  0  0  0  0  0  0  0  0
    2.6440    1.6130    0.7560 C   0  0  2  0  0  0  0  0  0  0  0  0
    2.6140    2.5660   -0.3130 N   0  0  0  0  0  0  0  0  0  0  0  0
    1.5420    0.6280    0.5980 C   0  0  0  0  0  0  0  0  0  0  0  0
    1.4190   -0.2200    1.5080 O   0  0  0  0  0  0  0  0  0  0  0  0
   -1.5680    5.8970    5.4130 H   0  0  0  0  0  0  0  0  0  0  0  0
   -2.8450    4.7770    4.8700 H   0  0  0  0  0  0  0  0  0  0  0  0
   -2.2010    2.7530    3.8690 H   0  0  0  0  0  0  0  0  0  0  0  0
    0.5990    5.7260    4.0530 H   0  0  0  0  0  0  0  0  0  0  0  0
    2.5010    4.3840    3.8030 H   0  0  0  0  0  0  0  0  0  0  0  0
    1.5780    3.0300    4.4950 H   0  0  0  0  0  0  0  0  0  0  0  0
    1.4640    4.0120    1.5940 H   0  0  0  0  0  0  0  0  0  0  0  0
    0.5480    2.5610    2.2830 H   0  0  0  0  0  0  0  0  0  0  0  0
    3.5520    2.9610    2.1410 H   0  0  0  0  0  0  0  0  0  0  0  0
    2.7700    1.5640    2.9300 H   0  0  0  0  0  0  0  0  0  0  0  0
    3.5960    1.0080    0.6640 H   0  0  0  0  0  0  0  0  0  0  0  0
    1.8190    3.2110   -0.2470 H   0  0  0  0  0  0  0  0  0  0  0  0
    2.6100    2.0810   -1.2380 H   0  0  0  0  0  0  0  0  0  0  0  0
   -1.8410    0.2910    1.9480 C   0  0  0  0  0  0  0  0  0  0  0  0
   -1.8540    1.1130    0.7070 C   0  0  0  0  0  0  0  0  0  0  0  0
   -1.7370    0.2930   -0.5650 C   0  0  2  0  0  0  0  0  0  0  0  0
   -2.8860   -0.6550   -0.6290 C   0  0  0  0  0  0  0  0  0  0  0  0
   -0.4040   -0.4290   -0.5500 C   0  0  2  0  0  0  0  0  0  0  0  0
    0.6620    0.5930   -0.4770 N   0  0  0  0  0  0  0  0  0  0  0  0
   -0.1860   -1.2750   -1.7300 C   0  0  0  0  0  0  0  0  0  0  0  0
    0.6610   -0.9420   -2.6420 O   0  0  0  0  0  0  0  0  0  0  0  0
   -2.7550    0.4600    2.5870 H   0  0  0  0  0  0  0  0  0  0  0  0
   -1.7920   -0.8020    1.7890 H   0  0  0  0  0  0  0  0  0  0  0  0
   -0.9760    0.5750    2.5790 H   0  0  0  0  0  0  0  0  0  0  0  0
   -2.8730    1.5980    0.6390 H   0  0  0  0  0  0  0  0  0  0  0  0
   -1.1370    1.9450    0.7010 H   0  0  0  0  0  0  0  0  0  0  0  0
   -1.7540    1.0380   -1.4060 H   0  0  0  0  0  0  0  0  0  0  0  0
   -2.8010   -1.4430    0.1220 H   0  0  0  0  0  0  0  0  0  0  0  0
   -3.0040   -1.0820   -1.6420 H   0  0  0  0  0  0  0  0  0  0  0  0
   -3.8620   -0.0940   -0.4370 H   0  0  0  0  0  0  0  0  0  0  0  0
   -0.3440   -1.0100    0.3750 H   0  0  0  0  0  0  0  0  0  0  0  0
    0.7210    1.2660   -1.2500 H   0  0  0  0  0  0  0  0  0  0  0  0
    2.4470   -5.1800    1.2640 N   0  0  0  0  0  0  0  0  0  0  0  0
    1.2190   -5.5770    0.6510 C   0  0  0  0  0  0  0  0  0  0  0  0
    0.0750   -5.3340    1.2210 N   0  0  0  0  0  0  0  0  0  0  0  0
    1.1640   -6.2520   -0.5970 N   0  0  0  0  0  0  0  0  0  0  0  0
   -0.0700   -6.5420   -1.2530 C   0  0  0  0  0  0  0  0  0  0  0  0
   -0.7350   -5.2610   -1.7340 C   0  0  0  0  0  0  0  0  0  0  0  0
    0.1430   -4.5180   -2.7050 C   0  0  0  0  0  0  0  0  0  0  0  0
   -0.6080   -3.2920   -3.1610 C   0  0  2  0  0  0  0  0  0  0  0  0
   -0.8670   -2.4960   -1.9490 N   0  0  0  0  0  0  0  0  0  0  0  0
   -1.8470   -3.7460   -3.8000 C   0  0  0  0  0  0  0  0  0  0  0  0
   -1.7470   -4.4410   -4.8440 O   0  0  0  0  0  0  0  0  0  0  0  0
   -3.1380   -3.4900   -3.3730 O   0  0  0  0  0  0  0  0  0  0  0  0
    2.4280   -4.8940    2.2630 H   0  0  0  0  0  0  0  0  0  0  0  0
    3.2900   -5.2020    0.6670 H   0  0  0  0  0  0  0  0  0  0  0  0
    0.0410   -4.8420    2.1370 H   0  0  0  0  0  0  0  0  0  0  0  0
    2.0570   -6.5500   -1.0560 H   0  0  0  0  0  0  0  0  0  0  0  0
    0.0170   -7.2060   -2.1130 H   0  0  0  0  0  0  0  0  0  0  0  0
   -0.7770   -7.0090   -0.5420 H   0  0  0  0  0  0  0  0  0  0  0  0
   -0.8790   -4.5920   -0.8350 H   0  0  0  0  0  0  0  0  0  0  0  0
   -1.7230   -5.4780   -2.1350 H   0  0  0  0  0  0  0  0  0  0  0  0
    1.0870   -4.2200   -2.1760 H   0  0  0  0  0  0  0  0  0  0  0  0
    0.4100   -5.1760   -3.5780 H   0  0  0  0  0  0  0  0  0  0  0  0
    0.0350   -2.6820   -3.8610 H   0  0  0  0  0  0  0  0  0  0  0  0
   -1.5520   -2.8340   -1.2460 H   0  0  0  0  0  0  0  0  0  0  0  0
  1 12  1  0  0  0  0
  2  1  1  0  0  0  0
  3 14  1  0  0  0  0
  3  2  2  0  0  0  0
  4 15  1  0  0  0  0
  4  2  1  0  0  0  0
  5 16  1  0  0  0  0
  5  4  1  0  0  0  0
  5 17  1  0  0  0  0
  6  5  1  0  0  0  0
  7 20  1  0  0  0  0
  7  6  1  0  0  0  0
  7 21  1  0  0  0  0
  8 22  1  6  0  0  0
  8  7  1  0  0  0  0
  9 23  1  0  0  0  0
  9  8  1  0  0  0  0
 10  8  1  0  0  0  0
 10 11  2  0  0  0  0
 13  1  1  0  0  0  0
 18  6  1  0  0  0  0
 19  6  1  0  0  0  0
 24  9  1  0  0  0  0
 25 35  1  0  0  0  0
 25 33  1  0  0  0  0
 26 25  1  0  0  0  0
 27 38  1  6  0  0  0
 27 29  1  0  0  0  0
 27 26  1  0  0  0  0
 28 27  1  0  0  0  0
 28 41  1  0  0  0  0
 28 39  1  0  0  0  0
 29 30  1  0  0  0  0
 29 42  1  1  0  0  0
 30 10  1  0  0  0  0
 31 29  1  0  0  0  0
 32 31  2  0  0  0  0
 34 25  1  0  0  0  0
 36 26  1  0  0  0  0
 37 26  1  0  0  0  0
 40 28  1  0  0  0  0
 43 30  1  0  0  0  0
 44 56  1  0  0  0  0
 45 46  2  0  0  0  0
 45 44  1  0  0  0  0
 46 58  1  0  0  0  0
 47 45  1  0  0  0  0
 48 47  1  0  0  0  0
 48 61  1  0  0  0  0
 49 48  1  0  0  0  0
 49 62  1  0  0  0  0
 50 64  1  0  0  0  0
 50 49  1  0  0  0  0
 51 66  1  6  0  0  0
 51 50  1  0  0  0  0
 51 52  1  0  0  0  0
 52 31  1  0  0  0  0
 52 67  1  0  0  0  0
 53 55  1  0  0  0  0
 53 51  1  0  0  0  0
 54 53  2  0  0  0  0
 57 44  1  0  0  0  0
 59 47  1  0  0  0  0
 60 48  1  0  0  0  0
 63 49  1  0  0  0  0
 65 50  1  0  0  0  0
M  END
$$$$
