RIS.pdb
 OpenBabel07022418053D

 55 54  0  0  1  0  0  0  0  0999 V2000
    2.3890   -5.0880    5.2020 N   0  0  0  0  0  0  0  0  0  0  0  0
    1.4870   -5.1930    4.1260 C   0  0  0  0  0  0  0  0  0  0  0  0
    0.3200   -5.7000    4.3100 N   0  0  0  0  0  0  0  0  0  0  0  0
    1.8520   -4.7450    2.8410 N   0  0  0  0  0  0  0  0  0  0  0  0
    0.8690   -4.2120    1.9030 C   0  0  0  0  0  0  0  0  0  0  0  0
    0.3310   -2.8780    2.3990 C   0  0  0  0  0  0  0  0  0  0  0  0
    1.4400   -1.8660    2.5410 C   0  0  0  0  0  0  0  0  0  0  0  0
    0.9450   -0.5350    3.0310 C   0  0  2  0  0  0  0  0  0  0  0  0
    0.3160   -0.6680    4.3350 N   0  0  0  0  0  0  0  0  0  0  0  0
   -0.0380    0.0750    2.1100 C   0  0  0  0  0  0  0  0  0  0  0  0
   -1.1520    0.4090    2.5200 O   0  0  0  0  0  0  0  0  0  0  0  0
    3.1720   -5.7650    5.2780 H   0  0  0  0  0  0  0  0  0  0  0  0
    2.2610   -4.3360    5.9050 H   0  0  0  0  0  0  0  0  0  0  0  0
   -0.3880   -5.8000    3.5450 H   0  0  0  0  0  0  0  0  0  0  0  0
    2.8670   -4.7980    2.5570 H   0  0  0  0  0  0  0  0  0  0  0  0
    0.0390   -4.9290    1.7540 H   0  0  0  0  0  0  0  0  0  0  0  0
    1.3670   -4.0810    0.9230 H   0  0  0  0  0  0  0  0  0  0  0  0
   -0.3790   -2.5020    1.6380 H   0  0  0  0  0  0  0  0  0  0  0  0
   -0.2130   -3.0100    3.3520 H   0  0  0  0  0  0  0  0  0  0  0  0
    1.9550   -1.7380    1.5800 H   0  0  0  0  0  0  0  0  0  0  0  0
    2.2160   -2.2160    3.2680 H   0  0  0  0  0  0  0  0  0  0  0  0
    1.8400    0.1250    3.1160 H   0  0  0  0  0  0  0  0  0  0  0  0
   -0.2700    0.2000    4.4630 H   0  0  0  0  0  0  0  0  0  0  0  0
    1.0510   -0.7190    5.0590 H   0  0  0  0  0  0  0  0  0  0  0  0
    2.3260    2.1280   -0.5840 C   0  0  0  0  0  0  0  0  0  0  0  0
    1.0930    2.3440   -1.3880 C   0  0  0  0  0  0  0  0  0  0  0  0
   -0.2040    2.2020   -0.6950 C   0  0  2  0  0  0  0  0  0  0  0  0
   -0.2670    3.2020    0.4530 C   0  0  0  0  0  0  0  0  0  0  0  0
   -0.6230    0.8740   -0.2100 C   0  0  2  0  0  0  0  0  0  0  0  0
    0.2690    0.2910    0.7400 N   0  0  0  0  0  0  0  0  0  0  0  0
   -1.0490   -0.0700   -1.2710 C   0  0  0  0  0  0  0  0  0  0  0  0
   -0.6740   -1.2710   -1.3350 O   0  0  0  0  0  0  0  0  0  0  0  0
    2.1620    2.1580    0.5120 H   0  0  0  0  0  0  0  0  0  0  0  0
    2.8590    1.1690   -0.7890 H   0  0  0  0  0  0  0  0  0  0  0  0
    3.0860    2.9560   -0.7580 H   0  0  0  0  0  0  0  0  0  0  0  0
    1.1270    3.4180   -1.7510 H   0  0  0  0  0  0  0  0  0  0  0  0
    1.1140    1.7670   -2.3650 H   0  0  0  0  0  0  0  0  0  0  0  0
   -0.9780    2.6190   -1.4300 H   0  0  0  0  0  0  0  0  0  0  0  0
    0.2530    2.7790    1.3290 H   0  0  0  0  0  0  0  0  0  0  0  0
    0.0660    4.2020    0.1580 H   0  0  0  0  0  0  0  0  0  0  0  0
   -1.3490    3.2890    0.7180 H   0  0  0  0  0  0  0  0  0  0  0  0
   -1.5800    1.0730    0.3770 H   0  0  0  0  0  0  0  0  0  0  0  0
    1.2210   -0.0180    0.4420 H   0  0  0  0  0  0  0  0  0  0  0  0
   -4.2670   -1.1530   -2.0200 O   0  0  0  0  0  0  0  0  0  0  0  0
   -3.8980   -0.6550   -3.2580 C   0  0  0  0  0  0  0  0  0  0  0  0
   -2.3740   -0.5560   -3.3630 C   0  0  2  0  0  0  0  0  0  0  0  0
   -1.9350    0.3400   -2.3110 N   0  0  0  0  0  0  0  0  0  0  0  0
   -1.9680   -0.0750   -4.7010 C   0  0  0  0  0  0  0  0  0  0  0  0
   -1.3260    0.9980   -4.7790 O   0  0  0  0  0  0  0  0  0  0  0  0
   -2.2580   -0.7450   -5.8760 O   0  0  0  0  0  0  0  0  0  0  0  0
   -5.0960   -0.7210   -1.6610 H   0  0  0  0  0  0  0  0  0  0  0  0
   -4.3110   -1.2430   -4.1110 H   0  0  0  0  0  0  0  0  0  0  0  0
   -4.3620    0.3570   -3.3600 H   0  0  0  0  0  0  0  0  0  0  0  0
   -1.9670   -1.5700   -3.2500 H   0  0  0  0  0  0  0  0  0  0  0  0
   -2.2950    1.3200   -2.3350 H   0  0  0  0  0  0  0  0  0  0  0  0
  1 12  1  0  0  0  0
  1 13  1  0  0  0  0
  2  3  2  0  0  0  0
  2  1  1  0  0  0  0
  4  2  1  0  0  0  0
  5  6  1  0  0  0  0
  5  4  1  0  0  0  0
  6  7  1  0  0  0  0
  6 19  1  0  0  0  0
  7  8  1  0  0  0  0
  7 21  1  0  0  0  0
  8 22  1  1  0  0  0
  8  9  1  0  0  0  0
  9 23  1  0  0  0  0
  9 24  1  0  0  0  0
 10 11  2  0  0  0  0
 10  8  1  0  0  0  0
 14  3  1  0  0  0  0
 15  4  1  0  0  0  0
 16  5  1  0  0  0  0
 17  5  1  0  0  0  0
 18  6  1  0  0  0  0
 20  7  1  0  0  0  0
 25 33  1  0  0  0  0
 26 27  1  0  0  0  0
 26 25  1  0  0  0  0
 27 38  1  6  0  0  0
 27 29  1  0  0  0  0
 27 28  1  0  0  0  0
 28 41  1  0  0  0  0
 28 39  1  0  0  0  0
 29 42  1  1  0  0  0
 29 30  1  0  0  0  0
 30 10  1  0  0  0  0
 31 29  1  0  0  0  0
 32 31  2  0  0  0  0
 34 25  1  0  0  0  0
 35 25  1  0  0  0  0
 36 26  1  0  0  0  0
 37 26  1  0  0  0  0
 40 28  1  0  0  0  0
 43 30  1  0  0  0  0
 44 51  1  0  0  0  0
 45 44  1  0  0  0  0
 46 45  1  0  0  0  0
 46 54  1  1  0  0  0
 46 47  1  0  0  0  0
 47 31  1  0  0  0  0
 48 46  1  0  0  0  0
 49 48  1  0  0  0  0
 50 48  2  0  0  0  0
 52 45  1  0  0  0  0
 53 45  1  0  0  0  0
 55 47  1  0  0  0  0
M  END
$$$$
