RIV.pdb
 OpenBabel07022418053D

 60 59  0  0  1  0  0  0  0  0999 V2000
    3.1200   -5.1780    1.9090 N   0  0  0  0  0  0  0  0  0  0  0  0
    3.1720   -4.1250    0.9760 C   0  0  0  0  0  0  0  0  0  0  0  0
    2.1450   -3.8510    0.2440 N   0  0  0  0  0  0  0  0  0  0  0  0
    4.3300   -3.3430    0.8080 N   0  0  0  0  0  0  0  0  0  0  0  0
    4.3690   -2.0530    0.1910 C   0  0  0  0  0  0  0  0  0  0  0  0
    3.6420   -1.0340    1.0710 C   0  0  0  0  0  0  0  0  0  0  0  0
    3.7050    0.3320    0.3900 C   0  0  0  0  0  0  0  0  0  0  0  0
    3.0100    1.3810    1.2250 C   0  0  2  0  0  0  0  0  0  0  0  0
    3.7180    1.4040    2.5080 N   0  0  0  0  0  0  0  0  0  0  0  0
    1.5960    0.9920    1.4060 C   0  0  0  0  0  0  0  0  0  0  0  0
    1.1220    0.6650    2.5410 O   0  0  0  0  0  0  0  0  0  0  0  0
    3.5550   -5.0680    2.8700 H   0  0  0  0  0  0  0  0  0  0  0  0
    2.6710   -6.1070    1.7400 H   0  0  0  0  0  0  0  0  0  0  0  0
    1.2460   -4.4060    0.3250 H   0  0  0  0  0  0  0  0  0  0  0  0
    5.2430   -3.7450    1.1690 H   0  0  0  0  0  0  0  0  0  0  0  0
    5.4160   -1.7020    0.0980 H   0  0  0  0  0  0  0  0  0  0  0  0
    3.9060   -2.0690   -0.8160 H   0  0  0  0  0  0  0  0  0  0  0  0
    2.5870   -1.3190    1.2470 H   0  0  0  0  0  0  0  0  0  0  0  0
    4.1320   -0.9800    2.0630 H   0  0  0  0  0  0  0  0  0  0  0  0
    3.2990    0.2470   -0.6380 H   0  0  0  0  0  0  0  0  0  0  0  0
    4.7690    0.6250    0.2750 H   0  0  0  0  0  0  0  0  0  0  0  0
    3.1220    2.3930    0.8000 H   0  0  0  0  0  0  0  0  0  0  0  0
    3.9210    2.3830    2.8110 H   0  0  0  0  0  0  0  0  0  0  0  0
    3.1480    0.8900    3.2090 H   0  0  0  0  0  0  0  0  0  0  0  0
   -1.6930    4.2410    1.0470 C   0  0  0  0  0  0  0  0  0  0  0  0
   -1.0450    2.9100    1.3020 C   0  0  0  0  0  0  0  0  0  0  0  0
   -1.5270    1.8560    0.3030 C   0  0  2  0  0  0  0  0  0  0  0  0
   -3.0140    1.7000    0.4310 C   0  0  0  0  0  0  0  0  0  0  0  0
   -0.7520    0.5660    0.5470 C   0  0  2  0  0  0  0  0  0  0  0  0
    0.6610    0.9540    0.3380 N   0  0  0  0  0  0  0  0  0  0  0  0
   -1.1180   -0.5210   -0.3780 C   0  0  0  0  0  0  0  0  0  0  0  0
   -0.2680   -0.9020   -1.2540 O   0  0  0  0  0  0  0  0  0  0  0  0
   -0.9590    5.0660    1.0910 H   0  0  0  0  0  0  0  0  0  0  0  0
   -2.1190    4.2550    0.0060 H   0  0  0  0  0  0  0  0  0  0  0  0
   -2.5730    4.4180    1.7310 H   0  0  0  0  0  0  0  0  0  0  0  0
    0.0620    2.9620    1.2130 H   0  0  0  0  0  0  0  0  0  0  0  0
   -1.2990    2.6020    2.3380 H   0  0  0  0  0  0  0  0  0  0  0  0
   -1.3010    2.2530   -0.7070 H   0  0  0  0  0  0  0  0  0  0  0  0
   -3.3320    1.2180    1.3680 H   0  0  0  0  0  0  0  0  0  0  0  0
   -3.4650    1.2800   -0.4690 H   0  0  0  0  0  0  0  0  0  0  0  0
   -3.4090    2.7630    0.5230 H   0  0  0  0  0  0  0  0  0  0  0  0
   -0.9510    0.2720    1.5890 H   0  0  0  0  0  0  0  0  0  0  0  0
    0.9610    1.2030   -0.6260 H   0  0  0  0  0  0  0  0  0  0  0  0
   -4.3230   -3.3730    0.2440 C   0  0  0  0  0  0  0  0  0  0  0  0
   -3.0960   -3.5290   -0.6440 C   0  0  0  0  0  0  0  0  0  0  0  0
   -1.9960   -4.2120    0.0950 C   0  0  0  0  0  0  0  0  0  0  0  0
   -2.6990   -2.2500   -1.2930 C   0  0  2  0  0  0  0  0  0  0  0  0
   -2.3690   -1.1880   -0.3660 N   0  0  0  0  0  0  0  0  0  0  0  0
   -3.7600   -1.7990   -2.2620 C   0  0  0  0  0  0  0  0  0  0  0  0
   -4.2590   -0.6630   -2.2420 O   0  0  0  0  0  0  0  0  0  0  0  0
   -4.2100   -2.6920   -3.2280 O   0  0  0  0  0  0  0  0  0  0  0  0
   -5.0330   -2.6190   -0.1570 H   0  0  0  0  0  0  0  0  0  0  0  0
   -4.0400   -3.1680    1.3030 H   0  0  0  0  0  0  0  0  0  0  0  0
   -4.9120   -4.3320    0.2950 H   0  0  0  0  0  0  0  0  0  0  0  0
   -3.4290   -4.2440   -1.4530 H   0  0  0  0  0  0  0  0  0  0  0  0
   -2.2920   -4.3310    1.1770 H   0  0  0  0  0  0  0  0  0  0  0  0
   -1.0260   -3.7190    0.0300 H   0  0  0  0  0  0  0  0  0  0  0  0
   -1.8270   -5.2750   -0.2470 H   0  0  0  0  0  0  0  0  0  0  0  0
   -1.8030   -2.4230   -1.9230 H   0  0  0  0  0  0  0  0  0  0  0  0
   -3.0570   -0.8900    0.3580 H   0  0  0  0  0  0  0  0  0  0  0  0
  1 12  1  0  0  0  0
  2  1  1  0  0  0  0
  3 14  1  0  0  0  0
  3  2  2  0  0  0  0
  4  2  1  0  0  0  0
  4 15  1  0  0  0  0
  5  4  1  0  0  0  0
  5  6  1  0  0  0  0
  6 18  1  0  0  0  0
  6 19  1  0  0  0  0
  7  6  1  0  0  0  0
  7  8  1  0  0  0  0
  8 22  1  6  0  0  0
  8 10  1  0  0  0  0
  8  9  1  0  0  0  0
  9 23  1  0  0  0  0
  9 24  1  0  0  0  0
 10 11  2  0  0  0  0
 13  1  1  0  0  0  0
 16  5  1  0  0  0  0
 17  5  1  0  0  0  0
 20  7  1  0  0  0  0
 21  7  1  0  0  0  0
 25 33  1  0  0  0  0
 25 26  1  0  0  0  0
 25 35  1  0  0  0  0
 26 37  1  0  0  0  0
 27 38  1  6  0  0  0
 27 28  1  0  0  0  0
 27 29  1  0  0  0  0
 27 26  1  0  0  0  0
 28 41  1  0  0  0  0
 28 39  1  0  0  0  0
 29 42  1  1  0  0  0
 30 29  1  0  0  0  0
 30 10  1  0  0  0  0
 31 48  1  0  0  0  0
 31 29  1  0  0  0  0
 32 31  2  0  0  0  0
 34 25  1  0  0  0  0
 36 26  1  0  0  0  0
 40 28  1  0  0  0  0
 43 30  1  0  0  0  0
 44 54  1  0  0  0  0
 44 53  1  0  0  0  0
 45 46  1  0  0  0  0
 45 44  1  0  0  0  0
 46 56  1  0  0  0  0
 47 59  1  6  0  0  0
 47 45  1  0  0  0  0
 47 48  1  0  0  0  0
 48 60  1  0  0  0  0
 49 50  1  0  0  0  0
 49 47  1  0  0  0  0
 51 49  2  0  0  0  0
 52 44  1  0  0  0  0
 55 45  1  0  0  0  0
 57 46  1  0  0  0  0
 58 46  1  0  0  0  0
M  END
$$$$
