RIW.pdb
 OpenBabel07022418053D

 68 69  0  0  1  0  0  0  0  0999 V2000
    4.9140   -1.2810    3.8410 N   0  0  0  0  0  0  0  0  0  0  0  0
    4.0840   -0.3490    4.5110 C   0  0  0  0  0  0  0  0  0  0  0  0
    3.6140   -0.6430    5.6710 N   0  0  0  0  0  0  0  0  0  0  0  0
    3.7960    0.8800    3.8820 N   0  0  0  0  0  0  0  0  0  0  0  0
    2.8570    1.8410    4.4220 C   0  0  0  0  0  0  0  0  0  0  0  0
    2.7380    3.0510    3.5640 C   0  0  0  0  0  0  0  0  0  0  0  0
    2.2850    2.8380    2.1690 C   0  0  0  0  0  0  0  0  0  0  0  0
    0.9340    2.2210    2.0340 C   0  0  2  0  0  0  0  0  0  0  0  0
    0.9440    0.9250    2.6740 N   0  0  0  0  0  0  0  0  0  0  0  0
    0.5310    2.0360    0.6210 C   0  0  0  0  0  0  0  0  0  0  0  0
    0.4550    3.0070   -0.1980 O   0  0  0  0  0  0  0  0  0  0  0  0
    5.1850   -1.1750    2.8380 H   0  0  0  0  0  0  0  0  0  0  0  0
    5.2930   -2.1250    4.3350 H   0  0  0  0  0  0  0  0  0  0  0  0
    3.8170   -1.5370    6.1390 H   0  0  0  0  0  0  0  0  0  0  0  0
    4.2740    1.1120    2.9930 H   0  0  0  0  0  0  0  0  0  0  0  0
    1.9080    1.3990    4.7680 H   0  0  0  0  0  0  0  0  0  0  0  0
    3.3500    2.1970    5.3820 H   0  0  0  0  0  0  0  0  0  0  0  0
    3.7360    3.5600    3.5660 H   0  0  0  0  0  0  0  0  0  0  0  0
    2.0580    3.7690    4.1080 H   0  0  0  0  0  0  0  0  0  0  0  0
    3.0760    2.2300    1.6490 H   0  0  0  0  0  0  0  0  0  0  0  0
    2.3410    3.8410    1.6540 H   0  0  0  0  0  0  0  0  0  0  0  0
    0.1900    2.8610    2.5570 H   0  0  0  0  0  0  0  0  0  0  0  0
    1.6250    0.2830    2.2190 H   0  0  0  0  0  0  0  0  0  0  0  0
    0.0030    0.5230    2.7970 H   0  0  0  0  0  0  0  0  0  0  0  0
    2.7120   -1.4160   -2.7560 C   0  0  0  0  0  0  0  0  0  0  0  0
    2.0630   -0.2850   -1.9910 C   0  0  0  0  0  0  0  0  0  0  0  0
    0.5730   -0.5490   -1.9550 C   0  0  2  0  0  0  0  0  0  0  0  0
    0.1120   -0.5900   -3.4080 C   0  0  0  0  0  0  0  0  0  0  0  0
   -0.1890    0.5420   -1.2780 C   0  0  2  0  0  0  0  0  0  0  0  0
    0.2060    0.7510    0.0990 N   0  0  0  0  0  0  0  0  0  0  0  0
   -1.6360    0.1270   -1.2480 C   0  0  0  0  0  0  0  0  0  0  0  0
   -2.1940   -0.1150   -2.3450 O   0  0  0  0  0  0  0  0  0  0  0  0
    2.0740   -2.3230   -2.7810 H   0  0  0  0  0  0  0  0  0  0  0  0
    3.6580   -1.6920   -2.2510 H   0  0  0  0  0  0  0  0  0  0  0  0
    2.9870   -1.1030   -3.7840 H   0  0  0  0  0  0  0  0  0  0  0  0
    2.5060   -0.2550   -0.9870 H   0  0  0  0  0  0  0  0  0  0  0  0
    2.2610    0.6530   -2.5710 H   0  0  0  0  0  0  0  0  0  0  0  0
    0.3830   -1.5090   -1.4680 H   0  0  0  0  0  0  0  0  0  0  0  0
    0.9590   -0.7760   -4.1050 H   0  0  0  0  0  0  0  0  0  0  0  0
   -0.3400    0.3750   -3.7190 H   0  0  0  0  0  0  0  0  0  0  0  0
   -0.6370   -1.3880   -3.5710 H   0  0  0  0  0  0  0  0  0  0  0  0
   -0.1830    1.4960   -1.8420 H   0  0  0  0  0  0  0  0  0  0  0  0
    0.2580   -0.0670    0.7440 H   0  0  0  0  0  0  0  0  0  0  0  0
   -2.3640    0.0060   -0.0580 N   0  0  0  0  0  0  0  0  0  0  0  0
   -3.7470   -0.3950   -0.1040 C   0  0  1  0  0  0  0  0  0  0  0  0
   -4.0510   -1.6230    0.7010 C   0  0  0  0  0  0  0  0  0  0  0  0
   -3.2710   -2.8040    0.2330 C   0  0  0  0  0  0  0  0  0  0  0  0
   -2.1700   -3.2970    0.8990 C   0  0  0  0  0  0  0  0  0  0  0  0
   -1.7180   -4.3580    0.2030 N   0  0  0  0  0  0  0  0  0  0  0  0
   -2.4870   -4.5510   -0.8700 C   0  0  0  0  0  0  0  0  0  0  0  0
   -2.4240   -5.5070   -1.8770 C   0  0  0  0  0  0  0  0  0  0  0  0
   -3.3600   -5.4820   -2.8870 C   0  0  0  0  0  0  0  0  0  0  0  0
   -4.3290   -4.5180   -2.8750 C   0  0  0  0  0  0  0  0  0  0  0  0
   -4.4120   -3.5470   -1.8710 C   0  0  0  0  0  0  0  0  0  0  0  0
   -3.4710   -3.5850   -0.8710 C   0  0  0  0  0  0  0  0  0  0  0  0
   -4.6300    0.7040    0.4110 C   0  0  0  0  0  0  0  0  0  0  0  0
   -5.8680    0.4730    0.4230 O   0  0  0  0  0  0  0  0  0  0  0  0
   -4.1540    1.9120    0.8550 O   0  0  0  0  0  0  0  0  0  0  0  0
   -1.9120    0.2030    0.8560 H   0  0  0  0  0  0  0  0  0  0  0  0
   -4.0920   -0.5760   -1.1470 H   0  0  0  0  0  0  0  0  0  0  0  0
   -5.1180   -1.8660    0.5470 H   0  0  0  0  0  0  0  0  0  0  0  0
   -3.9110   -1.4560    1.7890 H   0  0  0  0  0  0  0  0  0  0  0  0
   -1.7210   -2.9190    1.8250 H   0  0  0  0  0  0  0  0  0  0  0  0
   -0.8790   -4.9220    0.4980 H   0  0  0  0  0  0  0  0  0  0  0  0
   -1.6340   -6.2390   -1.8270 H   0  0  0  0  0  0  0  0  0  0  0  0
   -3.2920   -6.2450   -3.6730 H   0  0  0  0  0  0  0  0  0  0  0  0
   -5.0610   -4.4940   -3.6590 H   0  0  0  0  0  0  0  0  0  0  0  0
   -5.1870   -2.7950   -1.8820 H   0  0  0  0  0  0  0  0  0  0  0  0
  1 13  1  0  0  0  0
  1  2  1  0  0  0  0
  2  3  2  0  0  0  0
  3 14  1  0  0  0  0
  4  5  1  0  0  0  0
  4  2  1  0  0  0  0
  5 16  1  0  0  0  0
  5 17  1  0  0  0  0
  6 18  1  0  0  0  0
  6 19  1  0  0  0  0
  6  5  1  0  0  0  0
  7  6  1  0  0  0  0
  8  7  1  0  0  0  0
  8 22  1  1  0  0  0
  8  9  1  0  0  0  0
  9 24  1  0  0  0  0
 10  8  1  0  0  0  0
 11 10  2  0  0  0  0
 12  1  1  0  0  0  0
 15  4  1  0  0  0  0
 20  7  1  0  0  0  0
 21  7  1  0  0  0  0
 23  9  1  0  0  0  0
 25 34  1  0  0  0  0
 25 26  1  0  0  0  0
 26 27  1  0  0  0  0
 26 36  1  0  0  0  0
 27 38  1  1  0  0  0
 27 29  1  0  0  0  0
 28 27  1  0  0  0  0
 29 42  1  6  0  0  0
 29 31  1  0  0  0  0
 29 30  1  0  0  0  0
 30 10  1  0  0  0  0
 30 43  1  0  0  0  0
 31 44  1  0  0  0  0
 32 31  2  0  0  0  0
 33 25  1  0  0  0  0
 35 25  1  0  0  0  0
 37 26  1  0  0  0  0
 39 28  1  0  0  0  0
 40 28  1  0  0  0  0
 41 28  1  0  0  0  0
 44 59  1  0  0  0  0
 45 60  1  6  0  0  0
 45 44  1  0  0  0  0
 45 56  1  0  0  0  0
 45 46  1  0  0  0  0
 46 62  1  0  0  0  0
 47 46  1  0  0  0  0
 47 48  2  0  0  0  0
 48 63  1  0  0  0  0
 49 64  1  0  0  0  0
 49 48  1  0  0  0  0
 50 49  1  0  0  0  0
 51 65  1  0  0  0  0
 51 50  2  0  0  0  0
 52 53  2  0  0  0  0
 52 51  1  0  0  0  0
 53 54  1  0  0  0  0
 54 55  2  0  0  0  0
 55 50  1  0  0  0  0
 55 47  1  0  0  0  0
 56 57  2  0  0  0  0
 56 58  1  0  0  0  0
 61 46  1  0  0  0  0
 66 52  1  0  0  0  0
 67 53  1  0  0  0  0
 68 54  1  0  0  0  0
M  END
$$$$
