RKE.pdb
 OpenBabel07022418063D

 62 61  0  0  1  0  0  0  0  0999 V2000
   -0.1310    4.4870    4.9260 N   0  0  0  0  0  0  0  0  0  0  0  0
    1.0810    3.8230    4.5890 C   0  0  0  0  0  0  0  0  0  0  0  0
    1.9480    4.3960    3.8260 N   0  0  0  0  0  0  0  0  0  0  0  0
    1.4060    2.5230    5.0640 N   0  0  0  0  0  0  0  0  0  0  0  0
    2.5290    1.7660    4.5620 C   0  0  0  0  0  0  0  0  0  0  0  0
    2.2170    1.3960    3.1230 C   0  0  0  0  0  0  0  0  0  0  0  0
    3.2950    0.6060    2.4840 C   0  0  0  0  0  0  0  0  0  0  0  0
    2.9520    0.2470    1.0710 C   0  0  2  0  0  0  0  0  0  0  0  0
    2.7530    1.4250    0.2480 N   0  0  0  0  0  0  0  0  0  0  0  0
    1.7670   -0.6520    0.9580 C   0  0  0  0  0  0  0  0  0  0  0  0
    1.6520   -1.5780    1.7840 O   0  0  0  0  0  0  0  0  0  0  0  0
   -0.3760    5.3710    4.4260 H   0  0  0  0  0  0  0  0  0  0  0  0
   -0.7950    4.1370    5.6500 H   0  0  0  0  0  0  0  0  0  0  0  0
    1.7350    5.3510    3.4660 H   0  0  0  0  0  0  0  0  0  0  0  0
    0.8120    2.1080    5.8000 H   0  0  0  0  0  0  0  0  0  0  0  0
    3.4130    2.4480    4.5910 H   0  0  0  0  0  0  0  0  0  0  0  0
    2.7380    0.8880    5.1830 H   0  0  0  0  0  0  0  0  0  0  0  0
    1.2690    0.8230    3.1340 H   0  0  0  0  0  0  0  0  0  0  0  0
    2.0570    2.3750    2.6110 H   0  0  0  0  0  0  0  0  0  0  0  0
    4.2390    1.1910    2.4590 H   0  0  0  0  0  0  0  0  0  0  0  0
    3.4880   -0.3190    3.0830 H   0  0  0  0  0  0  0  0  0  0  0  0
    3.8220   -0.3490    0.6520 H   0  0  0  0  0  0  0  0  0  0  0  0
    1.9530    1.9610    0.6510 H   0  0  0  0  0  0  0  0  0  0  0  0
    3.5990    1.9980    0.2590 H   0  0  0  0  0  0  0  0  0  0  0  0
    0.7600   -0.5260   -0.0280 N   0  0  0  0  0  0  0  0  0  0  0  0
   -0.3400   -1.4300   -0.0500 C   0  0  1  0  0  0  0  0  0  0  0  0
   -1.6590   -0.8370   -0.1610 C   0  0  0  0  0  0  0  0  0  0  0  0
   -2.1710   -0.0530   -1.2620 C   0  0  0  0  0  0  0  0  0  0  0  0
   -1.5800    1.2100   -1.7140 C   0  0  0  0  0  0  0  0  0  0  0  0
   -2.5090    1.7030   -2.8720 C   0  0  0  0  0  0  0  0  0  0  0  0
   -2.0490    2.9390   -3.4180 N   0  0  0  0  0  0  0  0  0  0  0  0
   -0.0790   -2.5890   -0.9590 C   0  0  0  0  0  0  0  0  0  0  0  0
    1.0040   -2.7620   -1.5540 O   0  0  0  0  0  0  0  0  0  0  0  0
    0.8470    0.2260   -0.7230 H   0  0  0  0  0  0  0  0  0  0  0  0
   -0.3300   -1.9460    0.9820 H   0  0  0  0  0  0  0  0  0  0  0  0
   -1.7770   -0.1710    0.7900 H   0  0  0  0  0  0  0  0  0  0  0  0
   -2.4480   -1.6270    0.0810 H   0  0  0  0  0  0  0  0  0  0  0  0
   -2.3820   -0.6970   -2.2060 H   0  0  0  0  0  0  0  0  0  0  0  0
   -3.2600    0.2070   -0.9930 H   0  0  0  0  0  0  0  0  0  0  0  0
   -1.6240    2.0190   -0.9670 H   0  0  0  0  0  0  0  0  0  0  0  0
   -0.5510    1.1800   -2.1270 H   0  0  0  0  0  0  0  0  0  0  0  0
   -3.5460    1.7400   -2.4730 H   0  0  0  0  0  0  0  0  0  0  0  0
   -2.5170    0.9400   -3.6700 H   0  0  0  0  0  0  0  0  0  0  0  0
   -1.9080    2.8770   -4.4520 H   0  0  0  0  0  0  0  0  0  0  0  0
   -1.2330    3.2910   -2.8930 H   0  0  0  0  0  0  0  0  0  0  0  0
   -1.0950   -3.5470   -1.1640 N   0  0  0  0  0  0  0  0  0  0  0  0
   -0.9910   -4.6970   -1.9910 C   0  0  1  0  0  0  0  0  0  0  0  0
   -0.9120   -5.9790   -1.2300 C   0  0  0  0  0  0  0  0  0  0  0  0
   -2.0590   -6.3230   -0.3570 C   0  0  0  0  0  0  0  0  0  0  0  0
   -2.2500   -5.3500    0.7170 C   0  0  0  0  0  0  0  0  0  0  0  0
   -3.4150   -4.9910    1.0330 O   0  0  0  0  0  0  0  0  0  0  0  0
   -2.0220   -4.8080   -3.0310 C   0  0  0  0  0  0  0  0  0  0  0  0
   -1.9710   -5.7940   -3.7990 O   0  0  0  0  0  0  0  0  0  0  0  0
   -1.1840   -4.7820    1.4380 O   0  0  0  0  0  0  0  0  0  0  0  0
   -3.0550   -3.9080   -3.2360 O   0  0  0  0  0  0  0  0  0  0  0  0
   -2.0380   -3.4190   -0.7010 H   0  0  0  0  0  0  0  0  0  0  0  0
    0.0130   -4.6070   -2.5180 H   0  0  0  0  0  0  0  0  0  0  0  0
    0.0440   -5.9650   -0.6150 H   0  0  0  0  0  0  0  0  0  0  0  0
   -0.7190   -6.8060   -1.9860 H   0  0  0  0  0  0  0  0  0  0  0  0
   -3.0200   -6.4040   -0.9330 H   0  0  0  0  0  0  0  0  0  0  0  0
   -1.8460   -7.3550    0.0570 H   0  0  0  0  0  0  0  0  0  0  0  0
   -1.3450   -4.1300    2.1900 H   0  0  0  0  0  0  0  0  0  0  0  0
  1 13  1  0  0  0  0
  2  1  1  0  0  0  0
  2  4  1  0  0  0  0
  3  2  2  0  0  0  0
  4 15  1  0  0  0  0
  5 16  1  0  0  0  0
  5  4  1  0  0  0  0
  5 17  1  0  0  0  0
  6 18  1  0  0  0  0
  6  5  1  0  0  0  0
  7 21  1  0  0  0  0
  7  6  1  0  0  0  0
  8 22  1  6  0  0  0
  8  7  1  0  0  0  0
  9 24  1  0  0  0  0
  9 23  1  0  0  0  0
  9  8  1  0  0  0  0
 10  8  1  0  0  0  0
 10 11  2  0  0  0  0
 12  1  1  0  0  0  0
 14  3  1  0  0  0  0
 19  6  1  0  0  0  0
 20  7  1  0  0  0  0
 25 10  1  0  0  0  0
 26 25  1  0  0  0  0
 26 35  1  1  0  0  0
 27 26  1  0  0  0  0
 27 37  1  0  0  0  0
 27 36  1  0  0  0  0
 28 39  1  0  0  0  0
 28 27  1  0  0  0  0
 29 28  1  0  0  0  0
 29 40  1  0  0  0  0
 30 42  1  0  0  0  0
 30 29  1  0  0  0  0
 31 45  1  0  0  0  0
 31 30  1  0  0  0  0
 32 26  1  0  0  0  0
 33 32  2  0  0  0  0
 34 25  1  0  0  0  0
 38 28  1  0  0  0  0
 41 29  1  0  0  0  0
 43 30  1  0  0  0  0
 44 31  1  0  0  0  0
 46 32  1  0  0  0  0
 46 56  1  0  0  0  0
 47 57  1  6  0  0  0
 47 48  1  0  0  0  0
 47 46  1  0  0  0  0
 48 58  1  0  0  0  0
 48 49  1  0  0  0  0
 49 61  1  0  0  0  0
 49 50  1  0  0  0  0
 50 51  2  0  0  0  0
 50 54  1  0  0  0  0
 52 47  1  0  0  0  0
 53 52  2  0  0  0  0
 54 62  1  0  0  0  0
 55 52  1  0  0  0  0
 59 48  1  0  0  0  0
 60 49  1  0  0  0  0
M  END
$$$$
