RKH.pdb
 OpenBabel07022418063D

 63 63  0  0  1  0  0  0  0  0999 V2000
    2.4930   -0.1290    6.2250 N   0  0  0  0  0  0  0  0  0  0  0  0
    2.9020   -0.7980    5.0230 C   0  0  0  0  0  0  0  0  0  0  0  0
    3.1790   -2.0560    5.0090 N   0  0  0  0  0  0  0  0  0  0  0  0
    3.0200   -0.0990    3.7890 N   0  0  0  0  0  0  0  0  0  0  0  0
    3.5690   -0.7610    2.6350 C   0  0  0  0  0  0  0  0  0  0  0  0
    3.5730    0.1860    1.4660 C   0  0  0  0  0  0  0  0  0  0  0  0
    2.1600    0.6090    1.1730 C   0  0  0  0  0  0  0  0  0  0  0  0
    2.1420    1.5710   -0.0140 C   0  0  2  0  0  0  0  0  0  0  0  0
    2.9210    2.7300    0.2820 N   0  0  0  0  0  0  0  0  0  0  0  0
    0.7460    1.8940   -0.4020 C   0  0  0  0  0  0  0  0  0  0  0  0
    0.3910    3.0690   -0.4370 O   0  0  0  0  0  0  0  0  0  0  0  0
    2.9390    0.7480    6.5660 H   0  0  0  0  0  0  0  0  0  0  0  0
    1.7190   -0.5280    6.7890 H   0  0  0  0  0  0  0  0  0  0  0  0
    3.0960   -2.5760    5.9080 H   0  0  0  0  0  0  0  0  0  0  0  0
    2.7080    0.8830    3.7470 H   0  0  0  0  0  0  0  0  0  0  0  0
    2.9790   -1.6530    2.3300 H   0  0  0  0  0  0  0  0  0  0  0  0
    4.6450   -1.0590    2.8030 H   0  0  0  0  0  0  0  0  0  0  0  0
    4.2080    1.0630    1.7710 H   0  0  0  0  0  0  0  0  0  0  0  0
    4.0640   -0.2340    0.5790 H   0  0  0  0  0  0  0  0  0  0  0  0
    1.5810   -0.2980    0.8980 H   0  0  0  0  0  0  0  0  0  0  0  0
    1.6420    1.0570    2.0370 H   0  0  0  0  0  0  0  0  0  0  0  0
    2.6730    1.0120   -0.8400 H   0  0  0  0  0  0  0  0  0  0  0  0
    3.0070    2.9350    1.2990 H   0  0  0  0  0  0  0  0  0  0  0  0
    2.6630    3.5610   -0.2860 H   0  0  0  0  0  0  0  0  0  0  0  0
   -0.2150    0.9080   -0.7410 N   0  0  0  0  0  0  0  0  0  0  0  0
   -1.5410    1.0840   -1.1170 C   0  0  1  0  0  0  0  0  0  0  0  0
   -2.1010    0.9700   -2.4410 C   0  0  0  0  0  0  0  0  0  0  0  0
   -2.0100   -0.3080   -3.2080 C   0  0  0  0  0  0  0  0  0  0  0  0
   -0.6510   -0.7970   -3.5660 C   0  0  0  0  0  0  0  0  0  0  0  0
   -0.7270   -2.0880   -4.3560 C   0  0  0  0  0  0  0  0  0  0  0  0
    0.6190   -2.5200   -4.6770 N   0  0  0  0  0  0  0  0  0  0  0  0
   -2.4320    0.3890   -0.1160 C   0  0  0  0  0  0  0  0  0  0  0  0
   -3.6840    0.3810   -0.2380 O   0  0  0  0  0  0  0  0  0  0  0  0
    0.1540   -0.0680   -0.6620 H   0  0  0  0  0  0  0  0  0  0  0  0
   -1.7250    2.2000   -0.8110 H   0  0  0  0  0  0  0  0  0  0  0  0
   -1.8930    1.8400   -3.1360 H   0  0  0  0  0  0  0  0  0  0  0  0
   -3.2370    1.1200   -2.3370 H   0  0  0  0  0  0  0  0  0  0  0  0
   -2.6230   -1.1250   -2.7110 H   0  0  0  0  0  0  0  0  0  0  0  0
   -2.5450   -0.2230   -4.2120 H   0  0  0  0  0  0  0  0  0  0  0  0
    0.0720   -0.8980   -2.7510 H   0  0  0  0  0  0  0  0  0  0  0  0
   -0.2090   -0.0160   -4.2570 H   0  0  0  0  0  0  0  0  0  0  0  0
   -1.3030   -2.8130   -3.7830 H   0  0  0  0  0  0  0  0  0  0  0  0
   -1.2070   -1.8240   -5.3300 H   0  0  0  0  0  0  0  0  0  0  0  0
    1.2110   -2.6160   -3.8050 H   0  0  0  0  0  0  0  0  0  0  0  0
    0.6190   -3.4390   -5.1640 H   0  0  0  0  0  0  0  0  0  0  0  0
   -1.9060   -0.2920    1.0180 N   0  0  0  0  0  0  0  0  0  0  0  0
   -2.7500   -0.9600    1.9890 C   0  0  1  0  0  0  0  0  0  0  0  0
   -2.3590   -2.4020    2.1190 C   0  0  0  0  0  0  0  0  0  0  0  0
   -2.4810   -3.1490    0.8570 C   0  0  0  0  0  0  0  0  0  0  0  0
   -3.6080   -3.8390    0.3950 C   0  0  0  0  0  0  0  0  0  0  0  0
   -3.3490   -4.4040   -0.7970 N   0  0  0  0  0  0  0  0  0  0  0  0
   -2.0750   -4.0850   -1.1040 C   0  0  0  0  0  0  0  0  0  0  0  0
   -1.5580   -3.3340   -0.1140 N   0  0  0  0  0  0  0  0  0  0  0  0
   -2.6300   -0.2360    3.2760 C   0  0  0  0  0  0  0  0  0  0  0  0
   -3.2430   -0.5730    4.3180 O   0  0  0  0  0  0  0  0  0  0  0  0
   -1.8060    0.8690    3.3530 O   0  0  0  0  0  0  0  0  0  0  0  0
   -0.8790   -0.3100    1.1520 H   0  0  0  0  0  0  0  0  0  0  0  0
   -3.8290   -0.9010    1.6940 H   0  0  0  0  0  0  0  0  0  0  0  0
   -1.2680   -2.4100    2.3960 H   0  0  0  0  0  0  0  0  0  0  0  0
   -2.9270   -2.9220    2.9060 H   0  0  0  0  0  0  0  0  0  0  0  0
   -4.5430   -3.9120    0.9100 H   0  0  0  0  0  0  0  0  0  0  0  0
   -3.9780   -4.9710   -1.3820 H   0  0  0  0  0  0  0  0  0  0  0  0
   -1.5600   -4.3920   -2.0070 H   0  0  0  0  0  0  0  0  0  0  0  0
  1 12  1  0  0  0  0
  1 13  1  0  0  0  0
  2  1  1  0  0  0  0
  3  2  2  0  0  0  0
  3 14  1  0  0  0  0
  4  2  1  0  0  0  0
  5 17  1  0  0  0  0
  5  4  1  0  0  0  0
  6 18  1  0  0  0  0
  6  5  1  0  0  0  0
  7  6  1  0  0  0  0
  7 21  1  0  0  0  0
  8 22  1  6  0  0  0
  8  9  1  0  0  0  0
  8  7  1  0  0  0  0
  9 23  1  0  0  0  0
 10  8  1  0  0  0  0
 11 10  2  0  0  0  0
 15  4  1  0  0  0  0
 16  5  1  0  0  0  0
 19  6  1  0  0  0  0
 20  7  1  0  0  0  0
 24  9  1  0  0  0  0
 25 34  1  0  0  0  0
 25 10  1  0  0  0  0
 26 35  1  1  0  0  0
 26 25  1  0  0  0  0
 26 32  1  0  0  0  0
 27 37  1  0  0  0  0
 27 26  1  0  0  0  0
 28 38  1  0  0  0  0
 28 27  1  0  0  0  0
 29 28  1  0  0  0  0
 29 40  1  0  0  0  0
 30 42  1  0  0  0  0
 30 29  1  0  0  0  0
 31 30  1  0  0  0  0
 31 44  1  0  0  0  0
 32 46  1  0  0  0  0
 33 32  2  0  0  0  0
 36 27  1  0  0  0  0
 39 28  1  0  0  0  0
 41 29  1  0  0  0  0
 43 30  1  0  0  0  0
 45 31  1  0  0  0  0
 46 57  1  0  0  0  0
 46 47  1  0  0  0  0
 47 58  1  6  0  0  0
 47 48  1  0  0  0  0
 47 54  1  0  0  0  0
 48 59  1  0  0  0  0
 48 60  1  0  0  0  0
 49 48  1  0  0  0  0
 50 49  2  0  0  0  0
 50 61  1  0  0  0  0
 51 50  1  0  0  0  0
 52 51  1  0  0  0  0
 52 53  2  0  0  0  0
 53 49  1  0  0  0  0
 54 56  2  0  0  0  0
 54 55  1  0  0  0  0
 62 51  1  0  0  0  0
 63 52  1  0  0  0  0
M  END
$$$$
