RKK.pdb
 OpenBabel07022418063D

 67 66  0  0  1  0  0  0  0  0999 V2000
    6.5520   -1.7210    0.3590 N   0  0  0  0  0  0  0  0  0  0  0  0
    6.1650   -0.3900    0.0960 C   0  0  0  0  0  0  0  0  0  0  0  0
    6.9410    0.4790   -0.4900 N   0  0  0  0  0  0  0  0  0  0  0  0
    4.8600    0.0730    0.4780 N   0  0  0  0  0  0  0  0  0  0  0  0
    4.6140    1.4970    0.7520 C   0  0  0  0  0  0  0  0  0  0  0  0
    3.1740    1.6130    1.1260 C   0  0  0  0  0  0  0  0  0  0  0  0
    2.6910    2.9880    1.4570 C   0  0  0  0  0  0  0  0  0  0  0  0
    1.1990    2.8110    1.8030 C   0  0  2  0  0  0  0  0  0  0  0  0
    1.2200    1.8830    2.9390 N   0  0  0  0  0  0  0  0  0  0  0  0
    0.5480    2.1600    0.6400 C   0  0  0  0  0  0  0  0  0  0  0  0
    0.3680    2.8090   -0.4450 O   0  0  0  0  0  0  0  0  0  0  0  0
    6.6670   -2.0530    1.3310 H   0  0  0  0  0  0  0  0  0  0  0  0
    6.7230   -2.3750   -0.4230 H   0  0  0  0  0  0  0  0  0  0  0  0
    7.8860    0.1230   -0.7590 H   0  0  0  0  0  0  0  0  0  0  0  0
    4.1120   -0.6550    0.5470 H   0  0  0  0  0  0  0  0  0  0  0  0
    5.3190    1.9100    1.4840 H   0  0  0  0  0  0  0  0  0  0  0  0
    4.7310    1.9850   -0.2620 H   0  0  0  0  0  0  0  0  0  0  0  0
    2.5810    1.2730    0.2280 H   0  0  0  0  0  0  0  0  0  0  0  0
    2.9820    0.9670    2.0050 H   0  0  0  0  0  0  0  0  0  0  0  0
    3.2360    3.5010    2.2450 H   0  0  0  0  0  0  0  0  0  0  0  0
    2.6900    3.6140    0.5160 H   0  0  0  0  0  0  0  0  0  0  0  0
    0.7420    3.7450    2.1230 H   0  0  0  0  0  0  0  0  0  0  0  0
    0.3790    1.9920    3.5310 H   0  0  0  0  0  0  0  0  0  0  0  0
    2.0470    2.0950    3.5440 H   0  0  0  0  0  0  0  0  0  0  0  0
    0.0820    0.8190    0.6180 N   0  0  0  0  0  0  0  0  0  0  0  0
   -0.5530    0.2400   -0.5620 C   0  0  1  0  0  0  0  0  0  0  0  0
    0.3120   -0.8490   -1.1550 C   0  0  0  0  0  0  0  0  0  0  0  0
   -0.2430   -1.5030   -2.3670 C   0  0  0  0  0  0  0  0  0  0  0  0
    0.6670   -2.5830   -2.9260 C   0  0  0  0  0  0  0  0  0  0  0  0
    2.0240   -2.0590   -3.3260 C   0  0  0  0  0  0  0  0  0  0  0  0
    2.7560   -3.2190   -3.8430 N   0  0  0  0  0  0  0  0  0  0  0  0
   -1.9360   -0.1930   -0.2650 C   0  0  0  0  0  0  0  0  0  0  0  0
   -2.7240   -0.6920   -1.1050 O   0  0  0  0  0  0  0  0  0  0  0  0
    0.2080    0.2460    1.4800 H   0  0  0  0  0  0  0  0  0  0  0  0
   -0.6170    1.0350   -1.3320 H   0  0  0  0  0  0  0  0  0  0  0  0
    0.5260   -1.6550   -0.4040 H   0  0  0  0  0  0  0  0  0  0  0  0
    1.3180   -0.4400   -1.4220 H   0  0  0  0  0  0  0  0  0  0  0  0
   -1.2120   -2.0220   -2.1960 H   0  0  0  0  0  0  0  0  0  0  0  0
   -0.4320   -0.7890   -3.2050 H   0  0  0  0  0  0  0  0  0  0  0  0
    0.7420   -3.4570   -2.2450 H   0  0  0  0  0  0  0  0  0  0  0  0
    0.2230   -3.0020   -3.8750 H   0  0  0  0  0  0  0  0  0  0  0  0
    2.5680   -1.6070   -2.4710 H   0  0  0  0  0  0  0  0  0  0  0  0
    1.8830   -1.3550   -4.1690 H   0  0  0  0  0  0  0  0  0  0  0  0
    2.2950   -3.4710   -4.7520 H   0  0  0  0  0  0  0  0  0  0  0  0
    2.5720   -3.9980   -3.1550 H   0  0  0  0  0  0  0  0  0  0  0  0
   -2.4410   -0.0490    1.0590 N   0  0  0  0  0  0  0  0  0  0  0  0
   -3.7990   -0.4710    1.3660 C   0  0  1  0  0  0  0  0  0  0  0  0
   -3.6720   -1.5820    2.3820 C   0  0  0  0  0  0  0  0  0  0  0  0
   -4.9770   -2.1540    2.8320 C   0  0  0  0  0  0  0  0  0  0  0  0
   -5.7930   -2.7440    1.7140 C   0  0  0  0  0  0  0  0  0  0  0  0
   -5.0840   -3.8600    1.0000 C   0  0  0  0  0  0  0  0  0  0  0  0
   -4.7550   -4.9560    1.8930 N   0  0  0  0  0  0  0  0  0  0  0  0
   -4.6040    0.6640    1.8930 C   0  0  0  0  0  0  0  0  0  0  0  0
   -4.0940    1.8270    2.0320 O   0  0  0  0  0  0  0  0  0  0  0  0
   -5.9330    0.5290    2.2580 O   0  0  0  0  0  0  0  0  0  0  0  0
   -1.8060    0.3630    1.7760 H   0  0  0  0  0  0  0  0  0  0  0  0
   -4.3230   -0.8720    0.5010 H   0  0  0  0  0  0  0  0  0  0  0  0
   -3.1970   -1.1120    3.2910 H   0  0  0  0  0  0  0  0  0  0  0  0
   -2.9980   -2.3750    2.0650 H   0  0  0  0  0  0  0  0  0  0  0  0
   -4.7180   -3.0150    3.5130 H   0  0  0  0  0  0  0  0  0  0  0  0
   -5.5670   -1.4640    3.4350 H   0  0  0  0  0  0  0  0  0  0  0  0
   -6.1860   -2.0260    0.9970 H   0  0  0  0  0  0  0  0  0  0  0  0
   -6.6900   -3.2260    2.2110 H   0  0  0  0  0  0  0  0  0  0  0  0
   -5.8350   -4.2820    0.2680 H   0  0  0  0  0  0  0  0  0  0  0  0
   -4.2360   -3.5160    0.3860 H   0  0  0  0  0  0  0  0  0  0  0  0
   -4.8540   -5.8910    1.4420 H   0  0  0  0  0  0  0  0  0  0  0  0
   -3.7340   -4.8670    2.1480 H   0  0  0  0  0  0  0  0  0  0  0  0
  1 12  1  0  0  0  0
  2  1  1  0  0  0  0
  2  4  1  0  0  0  0
  3  2  2  0  0  0  0
  4 15  1  0  0  0  0
  4  5  1  0  0  0  0
  5  6  1  0  0  0  0
  5 16  1  0  0  0  0
  6  7  1  0  0  0  0
  6 19  1  0  0  0  0
  7  8  1  0  0  0  0
  7 20  1  0  0  0  0
  8 22  1  1  0  0  0
  8  9  1  0  0  0  0
  9 23  1  0  0  0  0
  9 24  1  0  0  0  0
 10  8  1  0  0  0  0
 11 10  2  0  0  0  0
 13  1  1  0  0  0  0
 14  3  1  0  0  0  0
 17  5  1  0  0  0  0
 18  6  1  0  0  0  0
 21  7  1  0  0  0  0
 25 10  1  0  0  0  0
 25 34  1  0  0  0  0
 26 35  1  6  0  0  0
 26 32  1  0  0  0  0
 26 25  1  0  0  0  0
 27 26  1  0  0  0  0
 27 36  1  0  0  0  0
 28 38  1  0  0  0  0
 28 27  1  0  0  0  0
 29 28  1  0  0  0  0
 29 40  1  0  0  0  0
 30 29  1  0  0  0  0
 30 42  1  0  0  0  0
 31 30  1  0  0  0  0
 31 45  1  0  0  0  0
 32 46  1  0  0  0  0
 33 32  2  0  0  0  0
 37 27  1  0  0  0  0
 39 28  1  0  0  0  0
 41 29  1  0  0  0  0
 43 30  1  0  0  0  0
 44 31  1  0  0  0  0
 46 47  1  0  0  0  0
 46 56  1  0  0  0  0
 47 57  1  6  0  0  0
 47 53  1  0  0  0  0
 47 48  1  0  0  0  0
 48 49  1  0  0  0  0
 48 58  1  0  0  0  0
 49 61  1  0  0  0  0
 49 60  1  0  0  0  0
 50 63  1  0  0  0  0
 50 49  1  0  0  0  0
 51 50  1  0  0  0  0
 51 52  1  0  0  0  0
 52 67  1  0  0  0  0
 53 54  2  0  0  0  0
 53 55  1  0  0  0  0
 59 48  1  0  0  0  0
 62 50  1  0  0  0  0
 64 51  1  0  0  0  0
 65 51  1  0  0  0  0
 66 52  1  0  0  0  0
M  END
$$$$
