RKL.pdb
 OpenBabel07022418063D

 65 64  0  0  1  0  0  0  0  0999 V2000
    3.1490   -4.8720    2.5270 N   0  0  0  0  0  0  0  0  0  0  0  0
    4.1800   -4.1350    1.8640 C   0  0  0  0  0  0  0  0  0  0  0  0
    5.3620   -4.0500    2.3530 N   0  0  0  0  0  0  0  0  0  0  0  0
    3.8460   -3.5020    0.6430 N   0  0  0  0  0  0  0  0  0  0  0  0
    4.7760   -2.5580    0.0430 C   0  0  0  0  0  0  0  0  0  0  0  0
    4.2130   -2.0080   -1.2490 C   0  0  0  0  0  0  0  0  0  0  0  0
    2.9050   -1.2880   -1.0200 C   0  0  0  0  0  0  0  0  0  0  0  0
    2.3290   -0.7340   -2.2880 C   0  0  2  0  0  0  0  0  0  0  0  0
    3.2620    0.2000   -2.8590 N   0  0  0  0  0  0  0  0  0  0  0  0
    1.0900    0.0260   -1.9020 C   0  0  0  0  0  0  0  0  0  0  0  0
    1.0020    1.2670   -2.0970 O   0  0  0  0  0  0  0  0  0  0  0  0
    2.3220   -4.3730    2.9600 H   0  0  0  0  0  0  0  0  0  0  0  0
    3.2140   -5.9050    2.5810 H   0  0  0  0  0  0  0  0  0  0  0  0
    5.5770   -4.5310    3.2600 H   0  0  0  0  0  0  0  0  0  0  0  0
    2.9450   -3.7170    0.1890 H   0  0  0  0  0  0  0  0  0  0  0  0
    5.7540   -3.0300   -0.0890 H   0  0  0  0  0  0  0  0  0  0  0  0
    4.9150   -1.7370    0.7820 H   0  0  0  0  0  0  0  0  0  0  0  0
    4.0530   -2.8360   -1.9610 H   0  0  0  0  0  0  0  0  0  0  0  0
    4.9890   -1.3280   -1.6680 H   0  0  0  0  0  0  0  0  0  0  0  0
    3.0990   -0.5000   -0.2660 H   0  0  0  0  0  0  0  0  0  0  0  0
    2.1930   -1.9900   -0.5900 H   0  0  0  0  0  0  0  0  0  0  0  0
    2.0830   -1.5690   -2.9660 H   0  0  0  0  0  0  0  0  0  0  0  0
    3.9400    0.5370   -2.1320 H   0  0  0  0  0  0  0  0  0  0  0  0
    3.7740   -0.2490   -3.6570 H   0  0  0  0  0  0  0  0  0  0  0  0
   -0.0230   -0.6120   -1.3090 N   0  0  0  0  0  0  0  0  0  0  0  0
   -1.1960    0.1310   -0.9490 C   0  0  1  0  0  0  0  0  0  0  0  0
   -2.4880   -0.4570   -1.3810 C   0  0  0  0  0  0  0  0  0  0  0  0
   -2.7010   -0.6530   -2.8280 C   0  0  0  0  0  0  0  0  0  0  0  0
   -1.7800   -1.5770   -3.5380 C   0  0  0  0  0  0  0  0  0  0  0  0
   -1.8350   -2.9910   -2.9990 C   0  0  0  0  0  0  0  0  0  0  0  0
   -0.9270   -3.8440   -3.7070 N   0  0  0  0  0  0  0  0  0  0  0  0
   -1.2220    0.2030    0.5630 C   0  0  0  0  0  0  0  0  0  0  0  0
   -0.3090   -0.3420    1.2270 O   0  0  0  0  0  0  0  0  0  0  0  0
    0.0170   -1.6270   -1.1310 H   0  0  0  0  0  0  0  0  0  0  0  0
   -1.1140    1.2030   -1.2620 H   0  0  0  0  0  0  0  0  0  0  0  0
   -3.2950    0.2520   -1.0210 H   0  0  0  0  0  0  0  0  0  0  0  0
   -2.6520   -1.4180   -0.8420 H   0  0  0  0  0  0  0  0  0  0  0  0
   -2.7740    0.3130   -3.3760 H   0  0  0  0  0  0  0  0  0  0  0  0
   -3.7380   -1.0950   -2.9440 H   0  0  0  0  0  0  0  0  0  0  0  0
   -0.7480   -1.2640   -3.6560 H   0  0  0  0  0  0  0  0  0  0  0  0
   -2.1770   -1.6590   -4.6000 H   0  0  0  0  0  0  0  0  0  0  0  0
   -2.8630   -3.4120   -3.1900 H   0  0  0  0  0  0  0  0  0  0  0  0
   -1.6720   -3.0790   -1.9280 H   0  0  0  0  0  0  0  0  0  0  0  0
   -1.2420   -4.8390   -3.7730 H   0  0  0  0  0  0  0  0  0  0  0  0
    0.0570   -3.7930   -3.3640 H   0  0  0  0  0  0  0  0  0  0  0  0
   -1.8500    4.1810    4.7750 C   0  0  0  0  0  0  0  0  0  0  0  0
   -2.1030    2.6460    4.6000 C   0  0  0  0  0  0  0  0  0  0  0  0
   -3.4390    2.3960    5.3140 C   0  0  0  0  0  0  0  0  0  0  0  0
   -2.1240    2.3400    3.1500 C   0  0  0  0  0  0  0  0  0  0  0  0
   -2.2600    0.9310    2.7690 C   0  0  2  0  0  0  0  0  0  0  0  0
   -2.2440    0.8660    1.2580 N   0  0  0  0  0  0  0  0  0  0  0  0
   -3.5070    0.2870    3.1290 C   0  0  0  0  0  0  0  0  0  0  0  0
   -4.4090    0.1390    2.2200 O   0  0  0  0  0  0  0  0  0  0  0  0
   -3.8870   -0.2260    4.3580 O   0  0  0  0  0  0  0  0  0  0  0  0
   -1.3820    4.3720    5.7560 H   0  0  0  0  0  0  0  0  0  0  0  0
   -1.1770    4.4690    3.9590 H   0  0  0  0  0  0  0  0  0  0  0  0
   -2.8380    4.6730    4.6800 H   0  0  0  0  0  0  0  0  0  0  0  0
   -1.3250    2.1620    5.2010 H   0  0  0  0  0  0  0  0  0  0  0  0
   -3.6810    3.3620    5.8980 H   0  0  0  0  0  0  0  0  0  0  0  0
   -3.3820    1.6160    6.0750 H   0  0  0  0  0  0  0  0  0  0  0  0
   -4.2470    2.3270    4.5870 H   0  0  0  0  0  0  0  0  0  0  0  0
   -2.9850    2.9380    2.7140 H   0  0  0  0  0  0  0  0  0  0  0  0
   -1.2050    2.8160    2.6760 H   0  0  0  0  0  0  0  0  0  0  0  0
   -1.3530    0.3760    3.1050 H   0  0  0  0  0  0  0  0  0  0  0  0
   -3.0070    1.3240    0.7620 H   0  0  0  0  0  0  0  0  0  0  0  0
  1 13  1  0  0  0  0
  1 12  1  0  0  0  0
  2  3  2  0  0  0  0
  2  1  1  0  0  0  0
  3 14  1  0  0  0  0
  4  2  1  0  0  0  0
  5  4  1  0  0  0  0
  5 17  1  0  0  0  0
  6  7  1  0  0  0  0
  6  5  1  0  0  0  0
  7 21  1  0  0  0  0
  7 20  1  0  0  0  0
  8 22  1  6  0  0  0
  8 10  1  0  0  0  0
  8  7  1  0  0  0  0
  9  8  1  0  0  0  0
  9 23  1  0  0  0  0
 10 25  1  0  0  0  0
 11 10  2  0  0  0  0
 15  4  1  0  0  0  0
 16  5  1  0  0  0  0
 18  6  1  0  0  0  0
 19  6  1  0  0  0  0
 24  9  1  0  0  0  0
 25 34  1  0  0  0  0
 25 26  1  0  0  0  0
 26 35  1  6  0  0  0
 26 32  1  0  0  0  0
 27 36  1  0  0  0  0
 27 26  1  0  0  0  0
 27 37  1  0  0  0  0
 28 27  1  0  0  0  0
 29 30  1  0  0  0  0
 29 28  1  0  0  0  0
 30 43  1  0  0  0  0
 31 45  1  0  0  0  0
 31 30  1  0  0  0  0
 32 33  2  0  0  0  0
 32 51  1  0  0  0  0
 38 28  1  0  0  0  0
 39 28  1  0  0  0  0
 40 29  1  0  0  0  0
 41 29  1  0  0  0  0
 42 30  1  0  0  0  0
 44 31  1  0  0  0  0
 46 55  1  0  0  0  0
 47 46  1  0  0  0  0
 47 58  1  0  0  0  0
 47 48  1  0  0  0  0
 48 59  1  0  0  0  0
 48 60  1  0  0  0  0
 49 47  1  0  0  0  0
 50 64  1  1  0  0  0
 50 52  1  0  0  0  0
 50 49  1  0  0  0  0
 51 50  1  0  0  0  0
 52 54  1  0  0  0  0
 53 52  2  0  0  0  0
 56 46  1  0  0  0  0
 57 46  1  0  0  0  0
 61 48  1  0  0  0  0
 62 49  1  0  0  0  0
 63 49  1  0  0  0  0
 65 51  1  0  0  0  0
M  END
$$$$
