RKP.pdb
 OpenBabel07022418063D

 60 60  0  0  1  0  0  0  0  0999 V2000
   -1.2380    2.2820    6.7370 N   0  0  0  0  0  0  0  0  0  0  0  0
   -0.0580    2.0900    5.9860 C   0  0  0  0  0  0  0  0  0  0  0  0
    0.6150    3.0960    5.5240 N   0  0  0  0  0  0  0  0  0  0  0  0
    0.4680    0.8000    5.6880 N   0  0  0  0  0  0  0  0  0  0  0  0
    1.9010    0.5870    5.4960 C   0  0  0  0  0  0  0  0  0  0  0  0
    2.1720   -0.8390    5.1590 C   0  0  0  0  0  0  0  0  0  0  0  0
    1.4640   -1.2740    3.9370 C   0  0  0  0  0  0  0  0  0  0  0  0
    1.8070   -0.5820    2.6600 C   0  0  2  0  0  0  0  0  0  0  0  0
    1.5840    0.8170    2.5940 N   0  0  0  0  0  0  0  0  0  0  0  0
    1.1400   -1.3280    1.5480 C   0  0  0  0  0  0  0  0  0  0  0  0
    1.0840   -2.5740    1.6520 O   0  0  0  0  0  0  0  0  0  0  0  0
   -1.3060    3.1260    7.3260 H   0  0  0  0  0  0  0  0  0  0  0  0
   -2.0370    1.6210    6.7250 H   0  0  0  0  0  0  0  0  0  0  0  0
    0.2640    4.0470    5.7180 H   0  0  0  0  0  0  0  0  0  0  0  0
   -0.2120    0.0050    5.6170 H   0  0  0  0  0  0  0  0  0  0  0  0
    2.2540    1.2460    4.7020 H   0  0  0  0  0  0  0  0  0  0  0  0
    2.3520    0.8560    6.4940 H   0  0  0  0  0  0  0  0  0  0  0  0
    3.2640   -1.0220    5.1300 H   0  0  0  0  0  0  0  0  0  0  0  0
    1.7820   -1.4730    6.0070 H   0  0  0  0  0  0  0  0  0  0  0  0
    0.3610   -1.2280    4.1080 H   0  0  0  0  0  0  0  0  0  0  0  0
    1.6260   -2.3910    3.7460 H   0  0  0  0  0  0  0  0  0  0  0  0
    2.9060   -0.7520    2.4920 H   0  0  0  0  0  0  0  0  0  0  0  0
    0.6110    1.1340    2.6960 H   0  0  0  0  0  0  0  0  0  0  0  0
    2.1800    1.3390    1.9420 H   0  0  0  0  0  0  0  0  0  0  0  0
    0.5860   -0.7310    0.4140 N   0  0  0  0  0  0  0  0  0  0  0  0
   -0.0750   -1.4690   -0.6900 C   0  0  1  0  0  0  0  0  0  0  0  0
   -1.3550   -0.8240   -1.0750 C   0  0  0  0  0  0  0  0  0  0  0  0
   -2.3100   -0.7350    0.1490 C   0  0  0  0  0  0  0  0  0  0  0  0
   -3.6020   -0.0620   -0.2630 C   0  0  0  0  0  0  0  0  0  0  0  0
   -4.3420   -0.7830   -1.3350 C   0  0  0  0  0  0  0  0  0  0  0  0
   -5.5620   -0.0440   -1.6400 N   0  0  0  0  0  0  0  0  0  0  0  0
    0.8940   -1.7630   -1.7440 C   0  0  0  0  0  0  0  0  0  0  0  0
    2.1180   -1.5240   -1.3990 O   0  0  0  0  0  0  0  0  0  0  0  0
    0.6270    0.2990    0.3140 H   0  0  0  0  0  0  0  0  0  0  0  0
   -0.3420   -2.4500   -0.1860 H   0  0  0  0  0  0  0  0  0  0  0  0
   -1.2810    0.1620   -1.5210 H   0  0  0  0  0  0  0  0  0  0  0  0
   -1.9660   -1.4770   -1.7540 H   0  0  0  0  0  0  0  0  0  0  0  0
   -2.5590   -1.7650    0.4720 H   0  0  0  0  0  0  0  0  0  0  0  0
   -1.8690   -0.1290    0.9510 H   0  0  0  0  0  0  0  0  0  0  0  0
   -3.3290    0.9470   -0.6720 H   0  0  0  0  0  0  0  0  0  0  0  0
   -4.2300    0.0240    0.6410 H   0  0  0  0  0  0  0  0  0  0  0  0
   -4.5440   -1.8480   -1.1010 H   0  0  0  0  0  0  0  0  0  0  0  0
   -3.7720   -0.7890   -2.2990 H   0  0  0  0  0  0  0  0  0  0  0  0
   -5.8980   -0.2790   -2.6030 H   0  0  0  0  0  0  0  0  0  0  0  0
   -6.2920   -0.2150   -0.9290 H   0  0  0  0  0  0  0  0  0  0  0  0
    0.7220   -2.2540   -3.0410 N   0  0  0  0  0  0  0  0  0  0  0  0
   -0.5740   -2.4630   -3.7370 C   0  0  0  0  0  0  0  0  0  0  0  0
   -0.2500   -2.6770   -5.2150 C   0  0  0  0  0  0  0  0  0  0  0  0
    1.2050   -2.1600   -5.3160 C   0  0  0  0  0  0  0  0  0  0  0  0
    1.6750   -2.7430   -3.9830 C   0  0  1  0  0  0  0  0  0  0  0  0
    3.0850   -2.7400   -3.7730 C   0  0  0  0  0  0  0  0  0  0  0  0
    3.8450   -3.1390   -4.7650 O   0  0  0  0  0  0  0  0  0  0  0  0
    3.8640   -2.3910   -2.6880 O   0  0  0  0  0  0  0  0  0  0  0  0
   -1.1300   -3.3050   -3.3850 H   0  0  0  0  0  0  0  0  0  0  0  0
   -1.1260   -1.4720   -3.7590 H   0  0  0  0  0  0  0  0  0  0  0  0
   -0.3140   -3.7190   -5.5330 H   0  0  0  0  0  0  0  0  0  0  0  0
   -0.8410   -2.0600   -5.8920 H   0  0  0  0  0  0  0  0  0  0  0  0
    1.2610   -1.0860   -5.3810 H   0  0  0  0  0  0  0  0  0  0  0  0
    1.7070   -2.7100   -6.1230 H   0  0  0  0  0  0  0  0  0  0  0  0
    1.3980   -3.8610   -4.1260 H   0  0  0  0  0  0  0  0  0  0  0  0
  1 12  1  0  0  0  0
  2  1  1  0  0  0  0
  3 14  1  0  0  0  0
  3  2  2  0  0  0  0
  4  2  1  0  0  0  0
  5  4  1  0  0  0  0
  5 17  1  0  0  0  0
  6  5  1  0  0  0  0
  6 19  1  0  0  0  0
  7 20  1  0  0  0  0
  7  6  1  0  0  0  0
  8 22  1  6  0  0  0
  8  7  1  0  0  0  0
  9  8  1  0  0  0  0
  9 23  1  0  0  0  0
 10 11  2  0  0  0  0
 10  8  1  0  0  0  0
 13  1  1  0  0  0  0
 15  4  1  0  0  0  0
 16  5  1  0  0  0  0
 18  6  1  0  0  0  0
 21  7  1  0  0  0  0
 24  9  1  0  0  0  0
 25 10  1  0  0  0  0
 26 35  1  1  0  0  0
 26 25  1  0  0  0  0
 27 26  1  0  0  0  0
 27 28  1  0  0  0  0
 28 38  1  0  0  0  0
 28 39  1  0  0  0  0
 29 28  1  0  0  0  0
 29 41  1  0  0  0  0
 30 42  1  0  0  0  0
 30 29  1  0  0  0  0
 31 30  1  0  0  0  0
 31 45  1  0  0  0  0
 32 33  2  0  0  0  0
 32 26  1  0  0  0  0
 34 25  1  0  0  0  0
 36 27  1  0  0  0  0
 37 27  1  0  0  0  0
 40 29  1  0  0  0  0
 43 30  1  0  0  0  0
 44 31  1  0  0  0  0
 46 32  1  0  0  0  0
 47 54  1  0  0  0  0
 47 46  1  0  0  0  0
 48 47  1  0  0  0  0
 49 48  1  0  0  0  0
 49 50  1  0  0  0  0
 50 60  1  6  0  0  0
 50 51  1  0  0  0  0
 50 46  1  0  0  0  0
 51 53  1  0  0  0  0
 52 51  2  0  0  0  0
 55 47  1  0  0  0  0
 56 48  1  0  0  0  0
 57 48  1  0  0  0  0
 58 49  1  0  0  0  0
 59 49  1  0  0  0  0
M  END
$$$$
