RKQ.pdb
 OpenBabel07022418063D

 63 62  0  0  1  0  0  0  0  0999 V2000
    2.7420   -0.3230    6.6790 N   0  0  0  0  0  0  0  0  0  0  0  0
    3.6570    0.3050    5.7950 C   0  0  0  0  0  0  0  0  0  0  0  0
    4.9120    0.1420    5.9250 N   0  0  0  0  0  0  0  0  0  0  0  0
    3.1880    1.1420    4.7350 N   0  0  0  0  0  0  0  0  0  0  0  0
    4.0790    1.7620    3.7930 C   0  0  0  0  0  0  0  0  0  0  0  0
    3.3380    2.5870    2.7640 C   0  0  0  0  0  0  0  0  0  0  0  0
    2.4070    1.6880    2.0100 C   0  0  0  0  0  0  0  0  0  0  0  0
    1.6210    2.3860    0.9520 C   0  0  2  0  0  0  0  0  0  0  0  0
    0.7760    3.4450    1.3980 N   0  0  0  0  0  0  0  0  0  0  0  0
    0.8650    1.3400    0.1700 C   0  0  0  0  0  0  0  0  0  0  0  0
    1.4540    0.3040   -0.2320 O   0  0  0  0  0  0  0  0  0  0  0  0
    3.0610   -0.9060    7.4750 H   0  0  0  0  0  0  0  0  0  0  0  0
    1.7000   -0.2210    6.5600 H   0  0  0  0  0  0  0  0  0  0  0  0
    5.3680   -0.4370    6.6520 H   0  0  0  0  0  0  0  0  0  0  0  0
    2.1630    1.2770    4.6840 H   0  0  0  0  0  0  0  0  0  0  0  0
    4.7520    2.4520    4.3570 H   0  0  0  0  0  0  0  0  0  0  0  0
    4.6640    0.9490    3.2990 H   0  0  0  0  0  0  0  0  0  0  0  0
    4.0740    2.9720    2.0000 H   0  0  0  0  0  0  0  0  0  0  0  0
    2.8420    3.4570    3.2190 H   0  0  0  0  0  0  0  0  0  0  0  0
    3.0580    0.9370    1.4770 H   0  0  0  0  0  0  0  0  0  0  0  0
    1.7230    1.1870    2.7060 H   0  0  0  0  0  0  0  0  0  0  0  0
    2.3390    2.8260    0.2050 H   0  0  0  0  0  0  0  0  0  0  0  0
    1.1270    4.3830    1.1100 H   0  0  0  0  0  0  0  0  0  0  0  0
    0.6620    3.4200    2.4410 H   0  0  0  0  0  0  0  0  0  0  0  0
   -0.5140    1.5250   -0.1130 N   0  0  0  0  0  0  0  0  0  0  0  0
   -1.3070    0.5310   -0.8760 C   0  0  1  0  0  0  0  0  0  0  0  0
   -0.8290    0.5000   -2.2810 C   0  0  0  0  0  0  0  0  0  0  0  0
   -1.4640   -0.4330   -3.2280 C   0  0  0  0  0  0  0  0  0  0  0  0
   -0.9130   -0.3410   -4.6350 C   0  0  0  0  0  0  0  0  0  0  0  0
   -1.0650    0.9940   -5.2660 C   0  0  0  0  0  0  0  0  0  0  0  0
   -0.4730    0.8870   -6.6100 N   0  0  0  0  0  0  0  0  0  0  0  0
   -1.3360   -0.7520   -0.1570 C   0  0  0  0  0  0  0  0  0  0  0  0
   -0.5900   -0.9030    0.8350 O   0  0  0  0  0  0  0  0  0  0  0  0
   -0.9350    2.4070    0.2500 H   0  0  0  0  0  0  0  0  0  0  0  0
   -2.3680    0.9170   -0.8210 H   0  0  0  0  0  0  0  0  0  0  0  0
    0.2940    0.3860   -2.2320 H   0  0  0  0  0  0  0  0  0  0  0  0
   -0.9360    1.5390   -2.7220 H   0  0  0  0  0  0  0  0  0  0  0  0
   -1.2200   -1.5050   -2.9310 H   0  0  0  0  0  0  0  0  0  0  0  0
   -2.5590   -0.3750   -3.2710 H   0  0  0  0  0  0  0  0  0  0  0  0
    0.1600   -0.6130   -4.6110 H   0  0  0  0  0  0  0  0  0  0  0  0
   -1.4240   -1.0910   -5.2690 H   0  0  0  0  0  0  0  0  0  0  0  0
   -0.4820    1.7980   -4.7680 H   0  0  0  0  0  0  0  0  0  0  0  0
   -2.1180    1.2840   -5.4440 H   0  0  0  0  0  0  0  0  0  0  0  0
   -0.7200   -0.0320   -7.0450 H   0  0  0  0  0  0  0  0  0  0  0  0
    0.5880    0.8440   -6.4930 H   0  0  0  0  0  0  0  0  0  0  0  0
   -3.6380   -6.9200    1.5370 N   0  0  0  0  0  0  0  0  0  0  0  0
   -3.8720   -5.6580    0.9570 C   0  0  0  0  0  0  0  0  0  0  0  0
   -4.2350   -5.5580   -0.2650 O   0  0  0  0  0  0  0  0  0  0  0  0
   -3.7130   -4.4070    1.7340 C   0  0  0  0  0  0  0  0  0  0  0  0
   -3.4600   -3.1880    0.9400 C   0  0  0  0  0  0  0  0  0  0  0  0
   -2.1460   -3.0930    0.2340 C   0  0  2  0  0  0  0  0  0  0  0  0
   -2.1690   -1.8210   -0.5290 N   0  0  0  0  0  0  0  0  0  0  0  0
   -1.7060   -4.2060   -0.5660 C   0  0  0  0  0  0  0  0  0  0  0  0
   -1.6060   -4.2120   -1.8280 O   0  0  0  0  0  0  0  0  0  0  0  0
   -1.3360   -5.4060    0.0430 O   0  0  0  0  0  0  0  0  0  0  0  0
   -4.4000   -7.4350    2.0020 H   0  0  0  0  0  0  0  0  0  0  0  0
   -2.6970   -7.3380    1.4970 H   0  0  0  0  0  0  0  0  0  0  0  0
   -2.8740   -4.5580    2.4700 H   0  0  0  0  0  0  0  0  0  0  0  0
   -4.6520   -4.3300    2.3570 H   0  0  0  0  0  0  0  0  0  0  0  0
   -4.2420   -3.0510    0.1240 H   0  0  0  0  0  0  0  0  0  0  0  0
   -3.5070   -2.2680    1.6120 H   0  0  0  0  0  0  0  0  0  0  0  0
   -1.3540   -2.9430    1.0410 H   0  0  0  0  0  0  0  0  0  0  0  0
   -2.8380   -1.7660   -1.3270 H   0  0  0  0  0  0  0  0  0  0  0  0
  1 12  1  0  0  0  0
  2  3  2  0  0  0  0
  2  1  1  0  0  0  0
  3 14  1  0  0  0  0
  4  2  1  0  0  0  0
  5 16  1  0  0  0  0
  5  4  1  0  0  0  0
  6 19  1  0  0  0  0
  6  5  1  0  0  0  0
  7 21  1  0  0  0  0
  7  6  1  0  0  0  0
  8 22  1  6  0  0  0
  8  9  1  0  0  0  0
  8  7  1  0  0  0  0
  9 24  1  0  0  0  0
 10  8  1  0  0  0  0
 11 10  2  0  0  0  0
 13  1  1  0  0  0  0
 15  4  1  0  0  0  0
 17  5  1  0  0  0  0
 18  6  1  0  0  0  0
 20  7  1  0  0  0  0
 23  9  1  0  0  0  0
 25 10  1  0  0  0  0
 25 34  1  0  0  0  0
 26 35  1  6  0  0  0
 26 32  1  0  0  0  0
 26 25  1  0  0  0  0
 27 36  1  0  0  0  0
 27 26  1  0  0  0  0
 28 38  1  0  0  0  0
 28 27  1  0  0  0  0
 29 40  1  0  0  0  0
 29 28  1  0  0  0  0
 30 42  1  0  0  0  0
 30 29  1  0  0  0  0
 31 45  1  0  0  0  0
 31 30  1  0  0  0  0
 32 33  2  0  0  0  0
 37 27  1  0  0  0  0
 39 28  1  0  0  0  0
 41 29  1  0  0  0  0
 43 30  1  0  0  0  0
 44 31  1  0  0  0  0
 46 56  1  0  0  0  0
 47 46  1  0  0  0  0
 47 49  1  0  0  0  0
 48 47  2  0  0  0  0
 49 59  1  0  0  0  0
 49 58  1  0  0  0  0
 50 61  1  0  0  0  0
 50 49  1  0  0  0  0
 51 50  1  0  0  0  0
 51 62  1  1  0  0  0
 52 32  1  0  0  0  0
 52 51  1  0  0  0  0
 53 55  1  0  0  0  0
 53 51  1  0  0  0  0
 54 53  2  0  0  0  0
 57 46  1  0  0  0  0
 60 50  1  0  0  0  0
 63 52  1  0  0  0  0
M  END
$$$$
