RKR.pdb
 OpenBabel07022418063D

 69 68  0  0  1  0  0  0  0  0999 V2000
    6.0230   -1.4080    1.0520 N   0  0  0  0  0  0  0  0  0  0  0  0
    6.2320   -0.0330    1.4330 C   0  0  0  0  0  0  0  0  0  0  0  0
    6.5470    0.2060    2.6400 N   0  0  0  0  0  0  0  0  0  0  0  0
    6.0890    1.0170    0.4850 N   0  0  0  0  0  0  0  0  0  0  0  0
    5.8070    2.3610    0.9310 C   0  0  0  0  0  0  0  0  0  0  0  0
    4.3920    2.4380    1.5260 C   0  0  0  0  0  0  0  0  0  0  0  0
    3.4630    2.0270    0.4040 C   0  0  0  0  0  0  0  0  0  0  0  0
    2.0100    2.0460    0.8240 C   0  0  2  0  0  0  0  0  0  0  0  0
    1.8010    1.1140    1.9420 N   0  0  0  0  0  0  0  0  0  0  0  0
    1.1600    1.6510   -0.3110 C   0  0  0  0  0  0  0  0  0  0  0  0
    1.1710    2.3440   -1.3610 O   0  0  0  0  0  0  0  0  0  0  0  0
    6.1810   -1.7500    0.0880 H   0  0  0  0  0  0  0  0  0  0  0  0
    5.7020   -2.1020    1.7520 H   0  0  0  0  0  0  0  0  0  0  0  0
    6.6540   -0.5540    3.3340 H   0  0  0  0  0  0  0  0  0  0  0  0
    6.1950    0.7750   -0.5190 H   0  0  0  0  0  0  0  0  0  0  0  0
    5.7810    3.0570    0.0620 H   0  0  0  0  0  0  0  0  0  0  0  0
    6.4980    2.7140    1.7090 H   0  0  0  0  0  0  0  0  0  0  0  0
    4.2880    1.7290    2.3750 H   0  0  0  0  0  0  0  0  0  0  0  0
    4.2280    3.4950    1.8150 H   0  0  0  0  0  0  0  0  0  0  0  0
    3.7990    1.0150    0.0820 H   0  0  0  0  0  0  0  0  0  0  0  0
    3.5590    2.7540   -0.4290 H   0  0  0  0  0  0  0  0  0  0  0  0
    1.7930    3.0540    1.2200 H   0  0  0  0  0  0  0  0  0  0  0  0
    2.1670    0.1960    1.6660 H   0  0  0  0  0  0  0  0  0  0  0  0
    2.2930    1.5160    2.7770 H   0  0  0  0  0  0  0  0  0  0  0  0
    0.3070    0.4940   -0.2710 N   0  0  0  0  0  0  0  0  0  0  0  0
   -0.5190    0.1290   -1.4000 C   0  0  1  0  0  0  0  0  0  0  0  0
   -0.0760   -1.2200   -1.9180 C   0  0  0  0  0  0  0  0  0  0  0  0
   -0.2130   -2.2870   -0.8490 C   0  0  0  0  0  0  0  0  0  0  0  0
    0.2140   -3.6370   -1.3130 C   0  0  0  0  0  0  0  0  0  0  0  0
    1.6610   -3.6910   -1.7510 C   0  0  0  0  0  0  0  0  0  0  0  0
    1.9230   -5.0560   -2.1680 N   0  0  0  0  0  0  0  0  0  0  0  0
   -1.9440    0.1110   -0.9720 C   0  0  0  0  0  0  0  0  0  0  0  0
   -2.1920    0.3690    0.2080 O   0  0  0  0  0  0  0  0  0  0  0  0
    0.2930   -0.0840    0.5970 H   0  0  0  0  0  0  0  0  0  0  0  0
   -0.4230    0.8430   -2.2270 H   0  0  0  0  0  0  0  0  0  0  0  0
   -0.5630   -1.5210   -2.8420 H   0  0  0  0  0  0  0  0  0  0  0  0
    1.0100   -1.1290   -2.1300 H   0  0  0  0  0  0  0  0  0  0  0  0
    0.3820   -2.0410    0.0540 H   0  0  0  0  0  0  0  0  0  0  0  0
   -1.3070   -2.3490   -0.6250 H   0  0  0  0  0  0  0  0  0  0  0  0
    0.1260   -4.3310   -0.4500 H   0  0  0  0  0  0  0  0  0  0  0  0
   -0.3880   -4.0620   -2.1210 H   0  0  0  0  0  0  0  0  0  0  0  0
    1.8660   -2.9910   -2.5880 H   0  0  0  0  0  0  0  0  0  0  0  0
    2.3020   -3.4920   -0.8620 H   0  0  0  0  0  0  0  0  0  0  0  0
    1.5860   -5.6710   -1.3760 H   0  0  0  0  0  0  0  0  0  0  0  0
    1.2730   -5.2430   -2.9650 H   0  0  0  0  0  0  0  0  0  0  0  0
   -4.5850   -2.8810    5.3430 N   0  0  0  0  0  0  0  0  0  0  0  0
   -5.2140   -2.0890    4.3200 C   0  0  0  0  0  0  0  0  0  0  0  0
   -6.1990   -1.3060    4.6440 N   0  0  0  0  0  0  0  0  0  0  0  0
   -4.7320   -2.1920    2.9870 N   0  0  0  0  0  0  0  0  0  0  0  0
   -5.0690   -1.1290    2.0670 C   0  0  0  0  0  0  0  0  0  0  0  0
   -4.4670   -1.3980    0.6820 C   0  0  0  0  0  0  0  0  0  0  0  0
   -4.8620   -0.2580   -0.1820 C   0  0  0  0  0  0  0  0  0  0  0  0
   -4.3590   -0.2630   -1.5860 C   0  0  2  0  0  0  0  0  0  0  0  0
   -2.9910   -0.1830   -1.8450 N   0  0  0  0  0  0  0  0  0  0  0  0
   -5.1470    0.6290   -2.4210 C   0  0  0  0  0  0  0  0  0  0  0  0
   -6.4180    0.6760   -2.3150 O   0  0  0  0  0  0  0  0  0  0  0  0
   -4.5810    1.4840   -3.3810 O   0  0  0  0  0  0  0  0  0  0  0  0
   -3.6490   -2.6350    5.6790 H   0  0  0  0  0  0  0  0  0  0  0  0
   -5.0760   -3.6940    5.7360 H   0  0  0  0  0  0  0  0  0  0  0  0
   -6.6610   -0.7290    3.9150 H   0  0  0  0  0  0  0  0  0  0  0  0
   -4.1640   -2.9840    2.6740 H   0  0  0  0  0  0  0  0  0  0  0  0
   -6.1700   -1.1570    1.9240 H   0  0  0  0  0  0  0  0  0  0  0  0
   -4.8230   -0.1200    2.4330 H   0  0  0  0  0  0  0  0  0  0  0  0
   -3.4640   -1.7660    0.6880 H   0  0  0  0  0  0  0  0  0  0  0  0
   -5.0800   -2.3210    0.3400 H   0  0  0  0  0  0  0  0  0  0  0  0
   -5.9910   -0.2910   -0.2610 H   0  0  0  0  0  0  0  0  0  0  0  0
   -4.6650    0.7400    0.2820 H   0  0  0  0  0  0  0  0  0  0  0  0
   -4.6440   -1.3560   -1.9170 H   0  0  0  0  0  0  0  0  0  0  0  0
   -2.6970   -0.3740   -2.8530 H   0  0  0  0  0  0  0  0  0  0  0  0
  1  2  1  0  0  0  0
  1 13  1  0  0  0  0
  2  3  2  0  0  0  0
  3 14  1  0  0  0  0
  4  5  1  0  0  0  0
  4  2  1  0  0  0  0
  5  6  1  0  0  0  0
  5 17  1  0  0  0  0
  6 19  1  0  0  0  0
  6 18  1  0  0  0  0
  7  8  1  0  0  0  0
  7  6  1  0  0  0  0
  8 22  1  1  0  0  0
  8  9  1  0  0  0  0
  9 24  1  0  0  0  0
 10 25  1  0  0  0  0
 10  8  1  0  0  0  0
 11 10  2  0  0  0  0
 12  1  1  0  0  0  0
 15  4  1  0  0  0  0
 16  5  1  0  0  0  0
 20  7  1  0  0  0  0
 21  7  1  0  0  0  0
 23  9  1  0  0  0  0
 25 34  1  0  0  0  0
 26 35  1  6  0  0  0
 26 32  1  0  0  0  0
 26 25  1  0  0  0  0
 27 26  1  0  0  0  0
 27 28  1  0  0  0  0
 28 39  1  0  0  0  0
 28 38  1  0  0  0  0
 29 28  1  0  0  0  0
 29 40  1  0  0  0  0
 30 29  1  0  0  0  0
 30 43  1  0  0  0  0
 31 30  1  0  0  0  0
 31 44  1  0  0  0  0
 32 33  2  0  0  0  0
 36 27  1  0  0  0  0
 37 27  1  0  0  0  0
 41 29  1  0  0  0  0
 42 30  1  0  0  0  0
 45 31  1  0  0  0  0
 46 58  1  0  0  0  0
 46 59  1  0  0  0  0
 47 48  2  0  0  0  0
 47 46  1  0  0  0  0
 49 47  1  0  0  0  0
 50 63  1  0  0  0  0
 50 49  1  0  0  0  0
 51 64  1  0  0  0  0
 51 50  1  0  0  0  0
 52 67  1  0  0  0  0
 52 51  1  0  0  0  0
 53 68  1  6  0  0  0
 53 52  1  0  0  0  0
 54 53  1  0  0  0  0
 54 32  1  0  0  0  0
 55 56  1  0  0  0  0
 55 53  1  0  0  0  0
 57 55  2  0  0  0  0
 60 48  1  0  0  0  0
 61 49  1  0  0  0  0
 62 50  1  0  0  0  0
 65 51  1  0  0  0  0
 66 52  1  0  0  0  0
 69 54  1  0  0  0  0
M  END
$$$$
