RKS.pdb
 OpenBabel07022418063D

 57 56  0  0  1  0  0  0  0  0999 V2000
    0.2070   -3.6350    4.7500 N   0  0  0  0  0  0  0  0  0  0  0  0
    0.9100   -3.3630    3.5380 C   0  0  0  0  0  0  0  0  0  0  0  0
    0.4780   -3.9200    2.4680 N   0  0  0  0  0  0  0  0  0  0  0  0
    2.0410   -2.5230    3.4770 N   0  0  0  0  0  0  0  0  0  0  0  0
    2.5090   -1.9550    2.1980 C   0  0  0  0  0  0  0  0  0  0  0  0
    3.7270   -1.1300    2.4330 C   0  0  0  0  0  0  0  0  0  0  0  0
    4.3360   -0.4890    1.2500 C   0  0  0  0  0  0  0  0  0  0  0  0
    3.5070    0.5010    0.4970 C   0  0  2  0  0  0  0  0  0  0  0  0
    3.1280    1.5910    1.3570 N   0  0  0  0  0  0  0  0  0  0  0  0
    2.3740   -0.1690   -0.1710 C   0  0  0  0  0  0  0  0  0  0  0  0
    2.5320   -1.2650   -0.7220 O   0  0  0  0  0  0  0  0  0  0  0  0
    0.5970   -4.2520    5.5090 H   0  0  0  0  0  0  0  0  0  0  0  0
   -0.7350   -3.2200    4.9210 H   0  0  0  0  0  0  0  0  0  0  0  0
   -0.3440   -4.5560    2.4050 H   0  0  0  0  0  0  0  0  0  0  0  0
    2.5420   -2.3120    4.3670 H   0  0  0  0  0  0  0  0  0  0  0  0
    2.6820   -2.8130    1.5280 H   0  0  0  0  0  0  0  0  0  0  0  0
    1.6880   -1.2840    1.8880 H   0  0  0  0  0  0  0  0  0  0  0  0
    4.5060   -1.8370    2.8540 H   0  0  0  0  0  0  0  0  0  0  0  0
    3.5550   -0.4070    3.2780 H   0  0  0  0  0  0  0  0  0  0  0  0
    4.6480   -1.3290    0.5470 H   0  0  0  0  0  0  0  0  0  0  0  0
    5.3470   -0.0440    1.5250 H   0  0  0  0  0  0  0  0  0  0  0  0
    4.1630    0.9960   -0.3180 H   0  0  0  0  0  0  0  0  0  0  0  0
    3.6010    2.4950    1.1340 H   0  0  0  0  0  0  0  0  0  0  0  0
    3.1170    1.3610    2.3650 H   0  0  0  0  0  0  0  0  0  0  0  0
    1.0610    0.4260   -0.2080 N   0  0  0  0  0  0  0  0  0  0  0  0
   -0.0710   -0.2010   -0.8550 C   0  0  1  0  0  0  0  0  0  0  0  0
   -1.3040   -0.1040   -0.0090 C   0  0  0  0  0  0  0  0  0  0  0  0
   -1.2100   -0.7390    1.3380 C   0  0  0  0  0  0  0  0  0  0  0  0
   -2.5450   -0.5780    2.0800 C   0  0  0  0  0  0  0  0  0  0  0  0
   -2.4020   -1.2370    3.4310 C   0  0  0  0  0  0  0  0  0  0  0  0
   -3.6330   -1.1110    4.1680 N   0  0  0  0  0  0  0  0  0  0  0  0
   -0.4020    0.5290   -2.1310 C   0  0  0  0  0  0  0  0  0  0  0  0
    0.2990    1.5140   -2.4640 O   0  0  0  0  0  0  0  0  0  0  0  0
    0.9850    1.3490    0.2710 H   0  0  0  0  0  0  0  0  0  0  0  0
    0.1240   -1.2730   -1.0780 H   0  0  0  0  0  0  0  0  0  0  0  0
   -1.5830    0.9820    0.1470 H   0  0  0  0  0  0  0  0  0  0  0  0
   -2.2020   -0.5290   -0.5170 H   0  0  0  0  0  0  0  0  0  0  0  0
   -0.4090   -0.2220    1.9460 H   0  0  0  0  0  0  0  0  0  0  0  0
   -0.9110   -1.8010    1.2870 H   0  0  0  0  0  0  0  0  0  0  0  0
   -3.3130   -1.1100    1.4820 H   0  0  0  0  0  0  0  0  0  0  0  0
   -2.7850    0.4990    2.1520 H   0  0  0  0  0  0  0  0  0  0  0  0
   -2.1890   -2.3150    3.2290 H   0  0  0  0  0  0  0  0  0  0  0  0
   -1.5310   -0.8350    3.9500 H   0  0  0  0  0  0  0  0  0  0  0  0
   -4.0930   -2.0430    4.2400 H   0  0  0  0  0  0  0  0  0  0  0  0
   -4.2600   -0.4250    3.6890 H   0  0  0  0  0  0  0  0  0  0  0  0
   -2.4430   -1.3460   -5.0260 O   0  0  0  0  0  0  0  0  0  0  0  0
   -1.6140   -0.2450   -5.2940 C   0  0  0  0  0  0  0  0  0  0  0  0
   -1.8260    0.8230   -4.2090 C   0  0  2  0  0  0  0  0  0  0  0  0
   -1.4630    0.1570   -2.9690 N   0  0  0  0  0  0  0  0  0  0  0  0
   -3.2480    1.2070   -4.2370 C   0  0  0  0  0  0  0  0  0  0  0  0
   -3.7160    1.7920   -5.2280 O   0  0  0  0  0  0  0  0  0  0  0  0
   -4.0520    0.9130   -3.1630 O   0  0  0  0  0  0  0  0  0  0  0  0
   -2.0690   -1.9080   -4.3090 H   0  0  0  0  0  0  0  0  0  0  0  0
   -1.7280    0.1430   -6.3040 H   0  0  0  0  0  0  0  0  0  0  0  0
   -0.5670   -0.6140   -5.1840 H   0  0  0  0  0  0  0  0  0  0  0  0
   -1.1540    1.6650   -4.4450 H   0  0  0  0  0  0  0  0  0  0  0  0
   -2.0490   -0.6630   -2.6930 H   0  0  0  0  0  0  0  0  0  0  0  0
  1 13  1  0  0  0  0
  1 12  1  0  0  0  0
  2  1  1  0  0  0  0
  3  2  2  0  0  0  0
  4  2  1  0  0  0  0
  4 15  1  0  0  0  0
  5  6  1  0  0  0  0
  5  4  1  0  0  0  0
  6 18  1  0  0  0  0
  6 19  1  0  0  0  0
  7 21  1  0  0  0  0
  7  6  1  0  0  0  0
  8 22  1  6  0  0  0
  8  7  1  0  0  0  0
  8  9  1  0  0  0  0
  9 24  1  0  0  0  0
 10  8  1  0  0  0  0
 11 10  2  0  0  0  0
 14  3  1  0  0  0  0
 16  5  1  0  0  0  0
 17  5  1  0  0  0  0
 20  7  1  0  0  0  0
 23  9  1  0  0  0  0
 25 10  1  0  0  0  0
 25 34  1  0  0  0  0
 26 35  1  6  0  0  0
 26 25  1  0  0  0  0
 26 27  1  0  0  0  0
 27 36  1  0  0  0  0
 27 28  1  0  0  0  0
 28 38  1  0  0  0  0
 28 29  1  0  0  0  0
 29 41  1  0  0  0  0
 29 30  1  0  0  0  0
 30 43  1  0  0  0  0
 30 31  1  0  0  0  0
 31 44  1  0  0  0  0
 32 26  1  0  0  0  0
 33 32  2  0  0  0  0
 37 27  1  0  0  0  0
 39 28  1  0  0  0  0
 40 29  1  0  0  0  0
 42 30  1  0  0  0  0
 45 31  1  0  0  0  0
 46 53  1  0  0  0  0
 47 55  1  0  0  0  0
 47 46  1  0  0  0  0
 47 48  1  0  0  0  0
 48 56  1  6  0  0  0
 48 49  1  0  0  0  0
 49 57  1  0  0  0  0
 49 32  1  0  0  0  0
 50 48  1  0  0  0  0
 50 52  1  0  0  0  0
 51 50  2  0  0  0  0
 54 47  1  0  0  0  0
M  END
$$$$
