RKT.pdb
 OpenBabel07022418063D

 60 59  0  0  1  0  0  0  0  0999 V2000
   -1.3540   -2.7910    4.5170 N   0  0  0  0  0  0  0  0  0  0  0  0
   -0.1330   -2.6210    3.8120 C   0  0  0  0  0  0  0  0  0  0  0  0
    0.0140   -3.2100    2.6690 N   0  0  0  0  0  0  0  0  0  0  0  0
    0.8980   -1.8270    4.3440 N   0  0  0  0  0  0  0  0  0  0  0  0
    2.1690   -1.6570    3.7200 C   0  0  0  0  0  0  0  0  0  0  0  0
    2.2350   -0.9480    2.4330 C   0  0  0  0  0  0  0  0  0  0  0  0
    1.8240    0.4380    2.2680 C   0  0  0  0  0  0  0  0  0  0  0  0
    0.4460    0.8920    2.4790 C   0  0  2  0  0  0  0  0  0  0  0  0
   -0.0290    0.6670    3.8040 N   0  0  0  0  0  0  0  0  0  0  0  0
   -0.4660    0.2330    1.4880 C   0  0  0  0  0  0  0  0  0  0  0  0
   -1.4620   -0.3940    1.8940 O   0  0  0  0  0  0  0  0  0  0  0  0
   -1.4420   -2.4270    5.4800 H   0  0  0  0  0  0  0  0  0  0  0  0
   -2.1770   -3.2770    4.0900 H   0  0  0  0  0  0  0  0  0  0  0  0
   -0.7420   -3.8010    2.2630 H   0  0  0  0  0  0  0  0  0  0  0  0
    0.6920   -1.3710    5.2850 H   0  0  0  0  0  0  0  0  0  0  0  0
    2.5980   -2.7140    3.6030 H   0  0  0  0  0  0  0  0  0  0  0  0
    2.8910   -1.1850    4.4480 H   0  0  0  0  0  0  0  0  0  0  0  0
    3.3340   -0.9970    2.0850 H   0  0  0  0  0  0  0  0  0  0  0  0
    1.7570   -1.6530    1.6830 H   0  0  0  0  0  0  0  0  0  0  0  0
    2.1030    0.7810    1.2060 H   0  0  0  0  0  0  0  0  0  0  0  0
    2.5020    1.1070    2.9150 H   0  0  0  0  0  0  0  0  0  0  0  0
    0.4220    1.9980    2.2480 H   0  0  0  0  0  0  0  0  0  0  0  0
    0.2130    1.4330    4.4780 H   0  0  0  0  0  0  0  0  0  0  0  0
   -1.0660    0.4660    3.8410 H   0  0  0  0  0  0  0  0  0  0  0  0
   -0.2580    0.2820    0.0990 N   0  0  0  0  0  0  0  0  0  0  0  0
   -1.1430   -0.3490   -0.8180 C   0  0  1  0  0  0  0  0  0  0  0  0
   -1.5350    0.6420   -1.8660 C   0  0  0  0  0  0  0  0  0  0  0  0
   -2.2030    1.8950   -1.4910 C   0  0  0  0  0  0  0  0  0  0  0  0
   -3.5290    1.9470   -0.8720 C   0  0  0  0  0  0  0  0  0  0  0  0
   -3.7930    1.3300    0.4490 C   0  0  0  0  0  0  0  0  0  0  0  0
   -5.2120    1.6270    0.8220 N   0  0  0  0  0  0  0  0  0  0  0  0
   -0.4900   -1.4910   -1.5490 C   0  0  0  0  0  0  0  0  0  0  0  0
   -1.2420   -2.0790   -2.3600 O   0  0  0  0  0  0  0  0  0  0  0  0
    0.5660    0.7950   -0.2720 H   0  0  0  0  0  0  0  0  0  0  0  0
   -2.0160   -0.8030   -0.3600 H   0  0  0  0  0  0  0  0  0  0  0  0
   -2.1660    0.1310   -2.6730 H   0  0  0  0  0  0  0  0  0  0  0  0
   -0.6170    0.9370   -2.4880 H   0  0  0  0  0  0  0  0  0  0  0  0
   -1.4960    2.4270   -0.7350 H   0  0  0  0  0  0  0  0  0  0  0  0
   -2.1560    2.6540   -2.3490 H   0  0  0  0  0  0  0  0  0  0  0  0
   -4.2630    1.4340   -1.5960 H   0  0  0  0  0  0  0  0  0  0  0  0
   -3.9130    3.0170   -0.7890 H   0  0  0  0  0  0  0  0  0  0  0  0
   -3.6970    0.2230    0.4600 H   0  0  0  0  0  0  0  0  0  0  0  0
   -3.1760    1.7220    1.2740 H   0  0  0  0  0  0  0  0  0  0  0  0
   -5.8440    1.0660    0.2270 H   0  0  0  0  0  0  0  0  0  0  0  0
   -5.3630    2.6500    0.6940 H   0  0  0  0  0  0  0  0  0  0  0  0
    2.2010   -1.7270   -4.1220 C   0  0  0  0  0  0  0  0  0  0  0  0
    2.5450   -2.6440   -2.9950 C   0  0  1  0  0  0  0  0  0  0  0  0
    3.6160   -2.1490   -2.2460 O   0  0  0  0  0  0  0  0  0  0  0  0
    1.3660   -3.0030   -2.1220 C   0  0  2  0  0  0  0  0  0  0  0  0
    0.8420   -1.9050   -1.3760 N   0  0  0  0  0  0  0  0  0  0  0  0
    1.8600   -4.0760   -1.2010 C   0  0  0  0  0  0  0  0  0  0  0  0
    2.3630   -5.1380   -1.6510 O   0  0  0  0  0  0  0  0  0  0  0  0
    1.7880   -3.9520    0.1790 O   0  0  0  0  0  0  0  0  0  0  0  0
    3.1690   -1.2520   -4.4580 H   0  0  0  0  0  0  0  0  0  0  0  0
    1.4520   -0.9540   -3.8610 H   0  0  0  0  0  0  0  0  0  0  0  0
    1.8570   -2.3170   -5.0010 H   0  0  0  0  0  0  0  0  0  0  0  0
    2.9080   -3.5970   -3.4360 H   0  0  0  0  0  0  0  0  0  0  0  0
    3.7930   -2.6600   -1.4430 H   0  0  0  0  0  0  0  0  0  0  0  0
    0.5780   -3.3950   -2.7880 H   0  0  0  0  0  0  0  0  0  0  0  0
    1.4200   -1.3560   -0.6690 H   0  0  0  0  0  0  0  0  0  0  0  0
  1 12  1  0  0  0  0
  2  4  1  0  0  0  0
  2  1  1  0  0  0  0
  3  2  2  0  0  0  0
  4 15  1  0  0  0  0
  5  4  1  0  0  0  0
  5 17  1  0  0  0  0
  6  5  1  0  0  0  0
  7  6  1  0  0  0  0
  7  8  1  0  0  0  0
  7 21  1  0  0  0  0
  8 22  1  6  0  0  0
  8  9  1  0  0  0  0
  9 24  1  0  0  0  0
  9 23  1  0  0  0  0
 10 11  2  0  0  0  0
 10  8  1  0  0  0  0
 13  1  1  0  0  0  0
 14  3  1  0  0  0  0
 16  5  1  0  0  0  0
 18  6  1  0  0  0  0
 19  6  1  0  0  0  0
 20  7  1  0  0  0  0
 25 10  1  0  0  0  0
 26 35  1  1  0  0  0
 26 25  1  0  0  0  0
 27 28  1  0  0  0  0
 27 26  1  0  0  0  0
 28 29  1  0  0  0  0
 28 38  1  0  0  0  0
 29 41  1  0  0  0  0
 29 30  1  0  0  0  0
 30 42  1  0  0  0  0
 30 31  1  0  0  0  0
 30 43  1  0  0  0  0
 32 50  1  0  0  0  0
 32 26  1  0  0  0  0
 33 32  2  0  0  0  0
 34 25  1  0  0  0  0
 36 27  1  0  0  0  0
 37 27  1  0  0  0  0
 39 28  1  0  0  0  0
 40 29  1  0  0  0  0
 44 31  1  0  0  0  0
 45 31  1  0  0  0  0
 46 55  1  0  0  0  0
 46 47  1  0  0  0  0
 47 57  1  6  0  0  0
 47 48  1  0  0  0  0
 47 49  1  0  0  0  0
 48 58  1  0  0  0  0
 49 59  1  6  0  0  0
 49 50  1  0  0  0  0
 49 51  1  0  0  0  0
 50 60  1  0  0  0  0
 51 53  1  0  0  0  0
 52 51  2  0  0  0  0
 54 46  1  0  0  0  0
 56 46  1  0  0  0  0
M  END
$$$$
