RKV.pdb
 OpenBabel07022418063D

 62 61  0  0  1  0  0  0  0  0999 V2000
    2.6340   -0.4100    4.6350 N   0  0  0  0  0  0  0  0  0  0  0  0
    3.2910   -0.2740    3.3660 C   0  0  0  0  0  0  0  0  0  0  0  0
    3.2690   -1.1900    2.4690 N   0  0  0  0  0  0  0  0  0  0  0  0
    3.9850    0.9590    3.1500 N   0  0  0  0  0  0  0  0  0  0  0  0
    4.5170    1.2230    1.8480 C   0  0  0  0  0  0  0  0  0  0  0  0
    3.5140    1.3810    0.7980 C   0  0  0  0  0  0  0  0  0  0  0  0
    2.4930    2.4210    0.8030 C   0  0  0  0  0  0  0  0  0  0  0  0
    1.4640    2.5010    1.8590 C   0  0  2  0  0  0  0  0  0  0  0  0
    1.8810    2.6970    3.1950 N   0  0  0  0  0  0  0  0  0  0  0  0
    0.4550    1.3920    1.7320 C   0  0  0  0  0  0  0  0  0  0  0  0
    0.1560    0.7830    2.7760 O   0  0  0  0  0  0  0  0  0  0  0  0
    3.1520   -0.2300    5.5020 H   0  0  0  0  0  0  0  0  0  0  0  0
    1.6310   -0.6890    4.7010 H   0  0  0  0  0  0  0  0  0  0  0  0
    2.7680   -2.0710    2.6330 H   0  0  0  0  0  0  0  0  0  0  0  0
    4.1380    1.6490    3.9400 H   0  0  0  0  0  0  0  0  0  0  0  0
    5.2840    2.0480    1.8730 H   0  0  0  0  0  0  0  0  0  0  0  0
    5.1760    0.3140    1.6250 H   0  0  0  0  0  0  0  0  0  0  0  0
    4.0960    1.5340   -0.1900 H   0  0  0  0  0  0  0  0  0  0  0  0
    3.0350    0.3710    0.5740 H   0  0  0  0  0  0  0  0  0  0  0  0
    1.9170    2.3090   -0.1800 H   0  0  0  0  0  0  0  0  0  0  0  0
    2.9650    3.4420    0.6500 H   0  0  0  0  0  0  0  0  0  0  0  0
    0.8380    3.4200    1.5980 H   0  0  0  0  0  0  0  0  0  0  0  0
    2.0600    3.6890    3.4600 H   0  0  0  0  0  0  0  0  0  0  0  0
    1.3590    2.1580    3.9120 H   0  0  0  0  0  0  0  0  0  0  0  0
   -0.1290    1.0480    0.5070 N   0  0  0  0  0  0  0  0  0  0  0  0
   -1.1070   -0.0490    0.4680 C   0  0  1  0  0  0  0  0  0  0  0  0
   -2.4420    0.6130    0.1380 C   0  0  0  0  0  0  0  0  0  0  0  0
   -3.5160   -0.3940    0.0500 C   0  0  0  0  0  0  0  0  0  0  0  0
   -4.8810    0.2320   -0.2260 C   0  0  0  0  0  0  0  0  0  0  0  0
   -4.8800    0.9910   -1.5320 C   0  0  0  0  0  0  0  0  0  0  0  0
   -4.5660    0.1370   -2.6500 N   0  0  0  0  0  0  0  0  0  0  0  0
   -0.7020   -1.0550   -0.5070 C   0  0  0  0  0  0  0  0  0  0  0  0
    0.2200   -0.7450   -1.3400 O   0  0  0  0  0  0  0  0  0  0  0  0
    0.0770    1.5210   -0.4030 H   0  0  0  0  0  0  0  0  0  0  0  0
   -1.2100   -0.4340    1.4990 H   0  0  0  0  0  0  0  0  0  0  0  0
   -2.6570    1.3620    0.9250 H   0  0  0  0  0  0  0  0  0  0  0  0
   -2.2660    1.1850   -0.7960 H   0  0  0  0  0  0  0  0  0  0  0  0
   -3.5990   -0.9620    0.9800 H   0  0  0  0  0  0  0  0  0  0  0  0
   -3.3420   -1.1120   -0.7930 H   0  0  0  0  0  0  0  0  0  0  0  0
   -5.1990    0.8680    0.6040 H   0  0  0  0  0  0  0  0  0  0  0  0
   -5.5920   -0.6090   -0.3350 H   0  0  0  0  0  0  0  0  0  0  0  0
   -5.9310    1.3370   -1.6880 H   0  0  0  0  0  0  0  0  0  0  0  0
   -4.2520    1.8900   -1.5090 H   0  0  0  0  0  0  0  0  0  0  0  0
   -3.5550    0.2800   -2.9370 H   0  0  0  0  0  0  0  0  0  0  0  0
   -4.7760   -0.8680   -2.4660 H   0  0  0  0  0  0  0  0  0  0  0  0
    0.9770   -4.2530   -0.1150 C   0  0  0  0  0  0  0  0  0  0  0  0
   -0.1690   -4.5470   -1.0610 C   0  0  0  0  0  0  0  0  0  0  0  0
   -1.2580   -5.2090   -0.2380 C   0  0  0  0  0  0  0  0  0  0  0  0
   -0.7150   -3.2790   -1.6840 C   0  0  2  0  0  0  0  0  0  0  0  0
   -1.2110   -2.3670   -0.6480 N   0  0  0  0  0  0  0  0  0  0  0  0
   -1.8120   -3.6780   -2.6120 C   0  0  0  0  0  0  0  0  0  0  0  0
   -2.9850   -3.2600   -2.4640 O   0  0  0  0  0  0  0  0  0  0  0  0
   -1.5130   -4.5330   -3.6630 O   0  0  0  0  0  0  0  0  0  0  0  0
    1.4710   -5.2380    0.0720 H   0  0  0  0  0  0  0  0  0  0  0  0
    1.7290   -3.6250   -0.6070 H   0  0  0  0  0  0  0  0  0  0  0  0
    0.6220   -3.8710    0.8570 H   0  0  0  0  0  0  0  0  0  0  0  0
    0.1640   -5.2460   -1.8270 H   0  0  0  0  0  0  0  0  0  0  0  0
   -2.2200   -4.8480   -0.6260 H   0  0  0  0  0  0  0  0  0  0  0  0
   -1.1420   -4.9890    0.8450 H   0  0  0  0  0  0  0  0  0  0  0  0
   -1.2640   -6.3300   -0.3900 H   0  0  0  0  0  0  0  0  0  0  0  0
    0.0370   -2.7400   -2.2570 H   0  0  0  0  0  0  0  0  0  0  0  0
   -1.9420   -2.6880    0.0250 H   0  0  0  0  0  0  0  0  0  0  0  0
  1 13  1  0  0  0  0
  1 12  1  0  0  0  0
  2  1  1  0  0  0  0
  3 14  1  0  0  0  0
  3  2  2  0  0  0  0
  4  2  1  0  0  0  0
  4 15  1  0  0  0  0
  5 16  1  0  0  0  0
  5  4  1  0  0  0  0
  6  7  1  0  0  0  0
  6  5  1  0  0  0  0
  7  8  1  0  0  0  0
  8 22  1  6  0  0  0
  8  9  1  0  0  0  0
  9 23  1  0  0  0  0
  9 24  1  0  0  0  0
 10  8  1  0  0  0  0
 10 11  2  0  0  0  0
 17  5  1  0  0  0  0
 18  6  1  0  0  0  0
 19  6  1  0  0  0  0
 20  7  1  0  0  0  0
 21  7  1  0  0  0  0
 25 10  1  0  0  0  0
 26 25  1  0  0  0  0
 26 35  1  1  0  0  0
 27 26  1  0  0  0  0
 27 36  1  0  0  0  0
 28 27  1  0  0  0  0
 28 38  1  0  0  0  0
 29 28  1  0  0  0  0
 29 40  1  0  0  0  0
 30 43  1  0  0  0  0
 30 29  1  0  0  0  0
 31 45  1  0  0  0  0
 31 30  1  0  0  0  0
 32 26  1  0  0  0  0
 33 32  2  0  0  0  0
 34 25  1  0  0  0  0
 37 27  1  0  0  0  0
 39 28  1  0  0  0  0
 41 29  1  0  0  0  0
 42 30  1  0  0  0  0
 44 31  1  0  0  0  0
 46 54  1  0  0  0  0
 46 56  1  0  0  0  0
 47 48  1  0  0  0  0
 47 46  1  0  0  0  0
 48 59  1  0  0  0  0
 49 61  1  6  0  0  0
 49 47  1  0  0  0  0
 49 50  1  0  0  0  0
 50 32  1  0  0  0  0
 50 62  1  0  0  0  0
 51 52  1  0  0  0  0
 51 49  1  0  0  0  0
 53 51  2  0  0  0  0
 55 46  1  0  0  0  0
 57 47  1  0  0  0  0
 58 48  1  0  0  0  0
 60 48  1  0  0  0  0
M  END
$$$$
