RKY.pdb
 OpenBabel07022418063D

 67 67  0  0  1  0  0  0  0  0999 V2000
    5.5250   -0.0450    3.8120 N   0  0  0  0  0  0  0  0  0  0  0  0
    4.9140    1.2360    3.9490 C   0  0  0  0  0  0  0  0  0  0  0  0
    5.6250    2.3270    4.1020 N   0  0  0  0  0  0  0  0  0  0  0  0
    3.4950    1.2970    3.9140 N   0  0  0  0  0  0  0  0  0  0  0  0
    2.7770    2.5490    3.9560 C   0  0  0  0  0  0  0  0  0  0  0  0
    2.9530    3.3860    2.7340 C   0  0  0  0  0  0  0  0  0  0  0  0
    2.5210    2.7730    1.4530 C   0  0  0  0  0  0  0  0  0  0  0  0
    1.0770    2.3900    1.3820 C   0  0  2  0  0  0  0  0  0  0  0  0
    0.6620    1.4290    2.3570 N   0  0  0  0  0  0  0  0  0  0  0  0
    0.7610    1.9120   -0.0120 C   0  0  0  0  0  0  0  0  0  0  0  0
    1.0250    2.6660   -0.9860 O   0  0  0  0  0  0  0  0  0  0  0  0
    5.6090   -0.6910    4.6310 H   0  0  0  0  0  0  0  0  0  0  0  0
    5.9060   -0.3800    2.9000 H   0  0  0  0  0  0  0  0  0  0  0  0
    6.6570    2.2100    4.1180 H   0  0  0  0  0  0  0  0  0  0  0  0
    2.9580    0.4070    3.8560 H   0  0  0  0  0  0  0  0  0  0  0  0
    1.7090    2.4110    4.2250 H   0  0  0  0  0  0  0  0  0  0  0  0
    3.1950    3.1220    4.8430 H   0  0  0  0  0  0  0  0  0  0  0  0
    4.0490    3.6370    2.6540 H   0  0  0  0  0  0  0  0  0  0  0  0
    2.4660    4.3740    2.9190 H   0  0  0  0  0  0  0  0  0  0  0  0
    2.6730    3.5620    0.6590 H   0  0  0  0  0  0  0  0  0  0  0  0
    3.1630    1.9100    1.1860 H   0  0  0  0  0  0  0  0  0  0  0  0
    0.4720    3.3100    1.5400 H   0  0  0  0  0  0  0  0  0  0  0  0
   -0.3650    1.3770    2.4130 H   0  0  0  0  0  0  0  0  0  0  0  0
    1.1460    0.5210    2.2930 H   0  0  0  0  0  0  0  0  0  0  0  0
    0.1760    0.6350   -0.2280 N   0  0  0  0  0  0  0  0  0  0  0  0
   -0.1200    0.1920   -1.5500 C   0  0  1  0  0  0  0  0  0  0  0  0
    0.7710   -0.9380   -2.0010 C   0  0  0  0  0  0  0  0  0  0  0  0
    0.6930   -2.1650   -1.1400 C   0  0  0  0  0  0  0  0  0  0  0  0
    1.6300   -3.2540   -1.6630 C   0  0  0  0  0  0  0  0  0  0  0  0
    1.5660   -4.4900   -0.7960 C   0  0  0  0  0  0  0  0  0  0  0  0
    0.2340   -5.0140   -0.7790 N   0  0  0  0  0  0  0  0  0  0  0  0
   -1.5590   -0.0380   -1.8260 C   0  0  0  0  0  0  0  0  0  0  0  0
   -1.9040   -0.4620   -2.9590 O   0  0  0  0  0  0  0  0  0  0  0  0
   -0.0120    0.0700    0.6390 H   0  0  0  0  0  0  0  0  0  0  0  0
    0.1530    1.0540   -2.2470 H   0  0  0  0  0  0  0  0  0  0  0  0
    0.4650   -1.1600   -3.0640 H   0  0  0  0  0  0  0  0  0  0  0  0
    1.8020   -0.5280   -2.0310 H   0  0  0  0  0  0  0  0  0  0  0  0
    1.0070   -1.9090   -0.1130 H   0  0  0  0  0  0  0  0  0  0  0  0
   -0.3070   -2.6040   -1.0970 H   0  0  0  0  0  0  0  0  0  0  0  0
    1.3180   -3.5730   -2.6840 H   0  0  0  0  0  0  0  0  0  0  0  0
    2.6440   -2.8280   -1.7290 H   0  0  0  0  0  0  0  0  0  0  0  0
    1.8910   -4.2500    0.2430 H   0  0  0  0  0  0  0  0  0  0  0  0
    2.2940   -5.2220   -1.2380 H   0  0  0  0  0  0  0  0  0  0  0  0
    0.0270   -5.6240   -1.5940 H   0  0  0  0  0  0  0  0  0  0  0  0
   -0.0290   -5.4530    0.1330 H   0  0  0  0  0  0  0  0  0  0  0  0
   -2.6320   -6.2040   -0.3360 O   0  0  0  0  0  0  0  0  0  0  0  0
   -3.1280   -4.9150   -0.3020 C   0  0  0  0  0  0  0  0  0  0  0  0
   -4.1560   -4.5750   -1.1550 C   0  0  0  0  0  0  0  0  0  0  0  0
   -4.6510   -3.2810   -1.1170 C   0  0  0  0  0  0  0  0  0  0  0  0
   -4.1210   -2.3480   -0.2360 C   0  0  0  0  0  0  0  0  0  0  0  0
   -4.6490   -0.9750   -0.1770 C   0  0  0  0  0  0  0  0  0  0  0  0
   -3.9910    0.0020   -1.0920 C   0  0  2  0  0  0  0  0  0  0  0  0
   -2.5920    0.1960   -0.8820 N   0  0  0  0  0  0  0  0  0  0  0  0
   -4.7360    1.2860   -1.1670 C   0  0  0  0  0  0  0  0  0  0  0  0
   -4.1480    2.3820   -1.0510 O   0  0  0  0  0  0  0  0  0  0  0  0
   -3.0970   -2.7060    0.6080 C   0  0  0  0  0  0  0  0  0  0  0  0
   -2.5790   -3.9890    0.5950 C   0  0  0  0  0  0  0  0  0  0  0  0
   -6.1010    1.2970   -1.3680 O   0  0  0  0  0  0  0  0  0  0  0  0
   -2.1480   -6.5800    0.4670 H   0  0  0  0  0  0  0  0  0  0  0  0
   -4.5320   -5.3380   -1.8210 H   0  0  0  0  0  0  0  0  0  0  0  0
   -5.4600   -2.9970   -1.7820 H   0  0  0  0  0  0  0  0  0  0  0  0
   -5.7520   -1.0070   -0.3980 H   0  0  0  0  0  0  0  0  0  0  0  0
   -4.6120   -0.5780    0.8790 H   0  0  0  0  0  0  0  0  0  0  0  0
   -4.0850   -0.4260   -2.1380 H   0  0  0  0  0  0  0  0  0  0  0  0
   -2.2880    0.5430    0.0530 H   0  0  0  0  0  0  0  0  0  0  0  0
   -2.7040   -1.9720    1.2770 H   0  0  0  0  0  0  0  0  0  0  0  0
   -1.7750   -4.2400    1.2690 H   0  0  0  0  0  0  0  0  0  0  0  0
  1  2  1  0  0  0  0
  1 12  1  0  0  0  0
  2  3  2  0  0  0  0
  3 14  1  0  0  0  0
  4  2  1  0  0  0  0
  4  5  1  0  0  0  0
  5 16  1  0  0  0  0
  5 17  1  0  0  0  0
  6 19  1  0  0  0  0
  6  5  1  0  0  0  0
  7  6  1  0  0  0  0
  8  7  1  0  0  0  0
  8 22  1  1  0  0  0
  8  9  1  0  0  0  0
  9 23  1  0  0  0  0
 10  8  1  0  0  0  0
 11 10  2  0  0  0  0
 13  1  1  0  0  0  0
 15  4  1  0  0  0  0
 18  6  1  0  0  0  0
 20  7  1  0  0  0  0
 21  7  1  0  0  0  0
 24  9  1  0  0  0  0
 25 10  1  0  0  0  0
 25 34  1  0  0  0  0
 26 35  1  6  0  0  0
 26 25  1  0  0  0  0
 27 26  1  0  0  0  0
 27 28  1  0  0  0  0
 28 39  1  0  0  0  0
 28 38  1  0  0  0  0
 29 28  1  0  0  0  0
 29 30  1  0  0  0  0
 30 31  1  0  0  0  0
 30 42  1  0  0  0  0
 31 45  1  0  0  0  0
 32 26  1  0  0  0  0
 32 53  1  0  0  0  0
 33 32  2  0  0  0  0
 36 27  1  0  0  0  0
 37 27  1  0  0  0  0
 40 29  1  0  0  0  0
 41 29  1  0  0  0  0
 43 30  1  0  0  0  0
 44 31  1  0  0  0  0
 46 47  1  0  0  0  0
 46 59  1  0  0  0  0
 47 57  1  0  0  0  0
 48 49  1  0  0  0  0
 48 47  2  0  0  0  0
 49 50  2  0  0  0  0
 50 51  1  0  0  0  0
 50 56  1  0  0  0  0
 51 63  1  0  0  0  0
 52 64  1  6  0  0  0
 52 53  1  0  0  0  0
 52 51  1  0  0  0  0
 53 65  1  0  0  0  0
 54 52  1  0  0  0  0
 54 55  1  0  0  0  0
 56 66  1  0  0  0  0
 57 56  2  0  0  0  0
 57 67  1  0  0  0  0
 58 54  2  0  0  0  0
 60 48  1  0  0  0  0
 61 49  1  0  0  0  0
 62 51  1  0  0  0  0
M  END
$$$$
