RLC.pdb
 OpenBabel07022418053D

 55 54  0  0  1  0  0  0  0  0999 V2000
    2.6320   -2.5860    6.5790 N   0  0  0  0  0  0  0  0  0  0  0  0
    2.6380   -1.7180    5.4550 C   0  0  0  0  0  0  0  0  0  0  0  0
    2.3020   -0.4710    5.6420 N   0  0  0  0  0  0  0  0  0  0  0  0
    2.9920   -2.1510    4.1520 N   0  0  0  0  0  0  0  0  0  0  0  0
    3.3440   -1.1930    3.0890 C   0  0  0  0  0  0  0  0  0  0  0  0
    3.6760   -1.9280    1.8300 C   0  0  0  0  0  0  0  0  0  0  0  0
    4.0600   -1.1030    0.6680 C   0  0  0  0  0  0  0  0  0  0  0  0
    3.0740   -0.1180    0.1600 C   0  0  2  0  0  0  0  0  0  0  0  0
    2.6890    0.8790    1.1170 N   0  0  0  0  0  0  0  0  0  0  0  0
    1.8980   -0.7440   -0.5050 C   0  0  0  0  0  0  0  0  0  0  0  0
    2.0350   -1.6640   -1.3500 O   0  0  0  0  0  0  0  0  0  0  0  0
    2.3480   -3.5800    6.5030 H   0  0  0  0  0  0  0  0  0  0  0  0
    2.9240   -2.1900    7.4960 H   0  0  0  0  0  0  0  0  0  0  0  0
    2.2840    0.2210    4.8630 H   0  0  0  0  0  0  0  0  0  0  0  0
    2.9940   -3.1810    3.9710 H   0  0  0  0  0  0  0  0  0  0  0  0
    2.3970   -0.6290    2.9100 H   0  0  0  0  0  0  0  0  0  0  0  0
    4.0980   -0.4790    3.4150 H   0  0  0  0  0  0  0  0  0  0  0  0
    4.5650   -2.5810    2.0730 H   0  0  0  0  0  0  0  0  0  0  0  0
    2.8530   -2.6460    1.6340 H   0  0  0  0  0  0  0  0  0  0  0  0
    5.0020   -0.5590    0.8940 H   0  0  0  0  0  0  0  0  0  0  0  0
    4.3020   -1.7950   -0.1840 H   0  0  0  0  0  0  0  0  0  0  0  0
    3.5960    0.4480   -0.6710 H   0  0  0  0  0  0  0  0  0  0  0  0
    3.4560    1.1730    1.7440 H   0  0  0  0  0  0  0  0  0  0  0  0
    2.1390    1.6560    0.7220 H   0  0  0  0  0  0  0  0  0  0  0  0
   -1.1480   -0.5670    2.2440 C   0  0  0  0  0  0  0  0  0  0  0  0
   -2.0860   -1.1250    1.2060 C   0  0  0  0  0  0  0  0  0  0  0  0
   -3.2170   -0.1600    0.9020 C   0  0  0  0  0  0  0  0  0  0  0  0
   -1.4540   -1.7410    0.0220 C   0  0  0  0  0  0  0  0  0  0  0  0
   -0.5830   -0.9320   -0.8530 C   0  0  2  0  0  0  0  0  0  0  0  0
    0.5580   -0.3510   -0.2340 N   0  0  0  0  0  0  0  0  0  0  0  0
   -1.3550   -0.0110   -1.7110 C   0  0  0  0  0  0  0  0  0  0  0  0
   -1.1170    1.2160   -1.8480 O   0  0  0  0  0  0  0  0  0  0  0  0
   -1.1670    0.5410    2.1920 H   0  0  0  0  0  0  0  0  0  0  0  0
   -0.1630   -1.0310    2.2300 H   0  0  0  0  0  0  0  0  0  0  0  0
   -1.5430   -0.7810    3.2880 H   0  0  0  0  0  0  0  0  0  0  0  0
   -2.6010   -1.9900    1.7380 H   0  0  0  0  0  0  0  0  0  0  0  0
   -2.9670    0.5230    0.0720 H   0  0  0  0  0  0  0  0  0  0  0  0
   -3.4880    0.4390    1.7970 H   0  0  0  0  0  0  0  0  0  0  0  0
   -4.1170   -0.7550    0.6630 H   0  0  0  0  0  0  0  0  0  0  0  0
   -0.9150   -2.6670    0.4080 H   0  0  0  0  0  0  0  0  0  0  0  0
   -2.2960   -2.1960   -0.5730 H   0  0  0  0  0  0  0  0  0  0  0  0
   -0.1560   -1.6780   -1.6070 H   0  0  0  0  0  0  0  0  0  0  0  0
    0.4310    0.4180    0.4570 H   0  0  0  0  0  0  0  0  0  0  0  0
   -2.4440   -0.5570   -2.4360 N   0  0  0  0  0  0  0  0  0  0  0  0
   -3.2230    0.3400   -3.3000 C   0  0  1  0  0  0  0  0  0  0  0  0
   -3.0710   -0.0840   -4.7540 C   0  0  0  0  0  0  0  0  0  0  0  0
   -4.0070    0.9850   -5.8520 S   0  0  0  0  0  0  0  0  0  0  0  0
   -4.6170    0.2970   -2.8670 C   0  0  0  0  0  0  0  0  0  0  0  0
   -4.9770   -0.4320   -1.9110 O   0  0  0  0  0  0  0  0  0  0  0  0
   -5.6350    1.0410   -3.4640 O   0  0  0  0  0  0  0  0  0  0  0  0
   -2.7530   -1.5540   -2.4190 H   0  0  0  0  0  0  0  0  0  0  0  0
   -2.8500    1.3670   -3.2320 H   0  0  0  0  0  0  0  0  0  0  0  0
   -2.0010   -0.0960   -5.0380 H   0  0  0  0  0  0  0  0  0  0  0  0
   -3.4460   -1.1360   -4.8390 H   0  0  0  0  0  0  0  0  0  0  0  0
   -4.7160    0.2230   -6.7870 H   0  0  0  0  0  0  0  0  0  0  0  0
  1 13  1  0  0  0  0
  2  3  2  0  0  0  0
  2  1  1  0  0  0  0
  4  2  1  0  0  0  0
  5 17  1  0  0  0  0
  5  4  1  0  0  0  0
  6 18  1  0  0  0  0
  6  5  1  0  0  0  0
  7 20  1  0  0  0  0
  7  6  1  0  0  0  0
  8 22  1  6  0  0  0
  8  7  1  0  0  0  0
  8  9  1  0  0  0  0
  9 23  1  0  0  0  0
 10 30  1  0  0  0  0
 10  8  1  0  0  0  0
 11 10  2  0  0  0  0
 12  1  1  0  0  0  0
 14  3  1  0  0  0  0
 15  4  1  0  0  0  0
 16  5  1  0  0  0  0
 19  6  1  0  0  0  0
 21  7  1  0  0  0  0
 24  9  1  0  0  0  0
 25 35  1  0  0  0  0
 26 36  1  0  0  0  0
 26 25  1  0  0  0  0
 27 26  1  0  0  0  0
 27 38  1  0  0  0  0
 28 40  1  0  0  0  0
 28 26  1  0  0  0  0
 29 42  1  6  0  0  0
 29 30  1  0  0  0  0
 29 28  1  0  0  0  0
 30 43  1  0  0  0  0
 31 29  1  0  0  0  0
 32 31  2  0  0  0  0
 33 25  1  0  0  0  0
 34 25  1  0  0  0  0
 37 27  1  0  0  0  0
 39 27  1  0  0  0  0
 41 28  1  0  0  0  0
 44 51  1  0  0  0  0
 44 31  1  0  0  0  0
 45 52  1  1  0  0  0
 45 48  1  0  0  0  0
 45 44  1  0  0  0  0
 46 45  1  0  0  0  0
 47 46  1  0  0  0  0
 48 49  1  0  0  0  0
 50 48  2  0  0  0  0
 53 46  1  0  0  0  0
 54 46  1  0  0  0  0
 55 47  1  0  0  0  0
M  END
$$$$
