RLE.pdb
 OpenBabel07022418053D

 60 59  0  0  1  0  0  0  0  0999 V2000
    3.1590   -1.5340    5.9250 N   0  0  0  0  0  0  0  0  0  0  0  0
    3.1550   -0.1410    5.6620 C   0  0  0  0  0  0  0  0  0  0  0  0
    3.0190    0.7020    6.6250 N   0  0  0  0  0  0  0  0  0  0  0  0
    3.3040    0.3110    4.3100 N   0  0  0  0  0  0  0  0  0  0  0  0
    3.0010    1.6760    4.0140 C   0  0  0  0  0  0  0  0  0  0  0  0
    3.0190    2.1060    2.6070 C   0  0  0  0  0  0  0  0  0  0  0  0
    2.0060    1.5280    1.6870 C   0  0  0  0  0  0  0  0  0  0  0  0
    1.9990    0.0650    1.4880 C   0  0  2  0  0  0  0  0  0  0  0  0
    3.2450   -0.4470    0.9570 N   0  0  0  0  0  0  0  0  0  0  0  0
    0.9250   -0.3190    0.4720 C   0  0  0  0  0  0  0  0  0  0  0  0
    1.2230   -0.9320   -0.5720 O   0  0  0  0  0  0  0  0  0  0  0  0
    2.3100   -2.1280    5.8140 H   0  0  0  0  0  0  0  0  0  0  0  0
    4.0590   -1.9880    6.2470 H   0  0  0  0  0  0  0  0  0  0  0  0
    2.9120    0.3530    7.6010 H   0  0  0  0  0  0  0  0  0  0  0  0
    3.6570   -0.4080    3.6540 H   0  0  0  0  0  0  0  0  0  0  0  0
    3.7610    2.2900    4.5670 H   0  0  0  0  0  0  0  0  0  0  0  0
    2.0230    1.9840    4.4770 H   0  0  0  0  0  0  0  0  0  0  0  0
    4.0650    1.8820    2.2050 H   0  0  0  0  0  0  0  0  0  0  0  0
    3.0040    3.2390    2.5380 H   0  0  0  0  0  0  0  0  0  0  0  0
    2.2410    1.9820    0.6630 H   0  0  0  0  0  0  0  0  0  0  0  0
    0.9720    1.8680    1.9770 H   0  0  0  0  0  0  0  0  0  0  0  0
    1.7770   -0.4610    2.4360 H   0  0  0  0  0  0  0  0  0  0  0  0
    4.0820    0.0910    1.2570 H   0  0  0  0  0  0  0  0  0  0  0  0
    3.2690   -0.5010   -0.0790 H   0  0  0  0  0  0  0  0  0  0  0  0
   -0.9560    2.7130   -0.1450 C   0  0  0  0  0  0  0  0  0  0  0  0
   -2.0140    2.0270   -0.9240 C   0  0  0  0  0  0  0  0  0  0  0  0
   -2.3070    2.8920   -2.1550 C   0  0  0  0  0  0  0  0  0  0  0  0
   -1.7390    0.6050   -1.3240 C   0  0  0  0  0  0  0  0  0  0  0  0
   -1.5370   -0.2880   -0.1630 C   0  0  2  0  0  0  0  0  0  0  0  0
   -0.4370    0.0240    0.7110 N   0  0  0  0  0  0  0  0  0  0  0  0
   -1.5820   -1.7570   -0.5160 C   0  0  0  0  0  0  0  0  0  0  0  0
   -0.7060   -2.4740    0.0180 O   0  0  0  0  0  0  0  0  0  0  0  0
    0.0250    2.2680   -0.2960 H   0  0  0  0  0  0  0  0  0  0  0  0
   -1.1650    2.7310    0.9600 H   0  0  0  0  0  0  0  0  0  0  0  0
   -0.9290    3.8100   -0.4140 H   0  0  0  0  0  0  0  0  0  0  0  0
   -2.9690    2.0740   -0.3180 H   0  0  0  0  0  0  0  0  0  0  0  0
   -3.0780    3.6690   -1.9170 H   0  0  0  0  0  0  0  0  0  0  0  0
   -2.7140    2.2780   -2.9780 H   0  0  0  0  0  0  0  0  0  0  0  0
   -1.4110    3.4180   -2.5050 H   0  0  0  0  0  0  0  0  0  0  0  0
   -2.6670    0.2570   -1.8560 H   0  0  0  0  0  0  0  0  0  0  0  0
   -0.9080    0.5860   -2.0630 H   0  0  0  0  0  0  0  0  0  0  0  0
   -2.4720   -0.1190    0.4940 H   0  0  0  0  0  0  0  0  0  0  0  0
   -0.5810    0.5480    1.6330 H   0  0  0  0  0  0  0  0  0  0  0  0
   -2.5340   -2.3190   -1.3850 N   0  0  0  0  0  0  0  0  0  0  0  0
   -2.5550   -3.7570   -1.7090 C   0  0  1  0  0  0  0  0  0  0  0  0
   -1.3740   -4.1500   -2.5110 C   0  0  0  0  0  0  0  0  0  0  0  0
   -1.3080   -5.5810   -2.8880 C   0  0  0  0  0  0  0  0  0  0  0  0
   -2.4240   -6.0950   -3.6880 C   0  0  0  0  0  0  0  0  0  0  0  0
   -2.4580   -7.3250   -4.0080 O   0  0  0  0  0  0  0  0  0  0  0  0
   -2.6790   -4.5630   -0.4840 C   0  0  0  0  0  0  0  0  0  0  0  0
   -2.7380   -5.8020   -0.5420 O   0  0  0  0  0  0  0  0  0  0  0  0
   -3.4850   -5.3340   -4.1460 O   0  0  0  0  0  0  0  0  0  0  0  0
   -2.7320   -3.9400    0.7450 O   0  0  0  0  0  0  0  0  0  0  0  0
   -3.2420   -1.6610   -1.7970 H   0  0  0  0  0  0  0  0  0  0  0  0
   -3.4750   -3.8920   -2.3490 H   0  0  0  0  0  0  0  0  0  0  0  0
   -1.2830   -3.5350   -3.4570 H   0  0  0  0  0  0  0  0  0  0  0  0
   -0.3960   -3.9190   -1.9900 H   0  0  0  0  0  0  0  0  0  0  0  0
   -1.1140   -6.2860   -2.0470 H   0  0  0  0  0  0  0  0  0  0  0  0
   -0.3820   -5.7360   -3.5490 H   0  0  0  0  0  0  0  0  0  0  0  0
   -4.3990   -5.8080   -4.1540 H   0  0  0  0  0  0  0  0  0  0  0  0
  1 13  1  0  0  0  0
  2  1  1  0  0  0  0
  2  3  2  0  0  0  0
  3 14  1  0  0  0  0
  4  2  1  0  0  0  0
  5  4  1  0  0  0  0
  5 17  1  0  0  0  0
  5 16  1  0  0  0  0
  6  5  1  0  0  0  0
  7 21  1  0  0  0  0
  7  6  1  0  0  0  0
  8  7  1  0  0  0  0
  8 22  1  1  0  0  0
  9 23  1  0  0  0  0
  9  8  1  0  0  0  0
 10 30  1  0  0  0  0
 10  8  1  0  0  0  0
 11 10  2  0  0  0  0
 12  1  1  0  0  0  0
 15  4  1  0  0  0  0
 18  6  1  0  0  0  0
 19  6  1  0  0  0  0
 20  7  1  0  0  0  0
 24  9  1  0  0  0  0
 25 34  1  0  0  0  0
 26 36  1  0  0  0  0
 26 25  1  0  0  0  0
 27 37  1  0  0  0  0
 27 26  1  0  0  0  0
 28 26  1  0  0  0  0
 28 29  1  0  0  0  0
 29 42  1  1  0  0  0
 29 30  1  0  0  0  0
 30 43  1  0  0  0  0
 31 29  1  0  0  0  0
 31 32  2  0  0  0  0
 33 25  1  0  0  0  0
 35 25  1  0  0  0  0
 38 27  1  0  0  0  0
 39 27  1  0  0  0  0
 40 28  1  0  0  0  0
 41 28  1  0  0  0  0
 44 31  1  0  0  0  0
 45 55  1  6  0  0  0
 45 44  1  0  0  0  0
 45 50  1  0  0  0  0
 46 57  1  0  0  0  0
 46 45  1  0  0  0  0
 47 46  1  0  0  0  0
 47 58  1  0  0  0  0
 48 47  1  0  0  0  0
 49 48  2  0  0  0  0
 50 53  1  0  0  0  0
 51 50  2  0  0  0  0
 52 48  1  0  0  0  0
 54 44  1  0  0  0  0
 56 46  1  0  0  0  0
 59 47  1  0  0  0  0
 60 52  1  0  0  0  0
M  END
$$$$
