RLF.pdb
 OpenBabel07022418053D

 64 64  0  0  1  0  0  0  0  0999 V2000
    0.6430    4.3010    6.7220 N   0  0  0  0  0  0  0  0  0  0  0  0
    1.8180    3.7980    6.1110 C   0  0  0  0  0  0  0  0  0  0  0  0
    2.9550    3.8120    6.7320 N   0  0  0  0  0  0  0  0  0  0  0  0
    1.7880    3.2610    4.7940 N   0  0  0  0  0  0  0  0  0  0  0  0
    2.7670    2.2950    4.3330 C   0  0  0  0  0  0  0  0  0  0  0  0
    2.4700    1.9250    2.8950 C   0  0  0  0  0  0  0  0  0  0  0  0
    3.4380    0.9320    2.3520 C   0  0  0  0  0  0  0  0  0  0  0  0
    3.2030    0.5370    0.9220 C   0  0  2  0  0  0  0  0  0  0  0  0
    3.2830    1.6590    0.0210 N   0  0  0  0  0  0  0  0  0  0  0  0
    1.9860   -0.2530    0.7040 C   0  0  0  0  0  0  0  0  0  0  0  0
    1.6440   -1.1540    1.4830 O   0  0  0  0  0  0  0  0  0  0  0  0
   -0.2830    4.0670    6.3280 H   0  0  0  0  0  0  0  0  0  0  0  0
    0.7440    4.9020    7.5640 H   0  0  0  0  0  0  0  0  0  0  0  0
    3.0070    4.1950    7.6870 H   0  0  0  0  0  0  0  0  0  0  0  0
    1.0390    3.5780    4.1540 H   0  0  0  0  0  0  0  0  0  0  0  0
    2.7550    1.3690    4.9280 H   0  0  0  0  0  0  0  0  0  0  0  0
    3.7790    2.7620    4.4060 H   0  0  0  0  0  0  0  0  0  0  0  0
    2.4200    2.8390    2.2850 H   0  0  0  0  0  0  0  0  0  0  0  0
    1.4520    1.4630    2.8990 H   0  0  0  0  0  0  0  0  0  0  0  0
    4.4610    1.3920    2.3870 H   0  0  0  0  0  0  0  0  0  0  0  0
    3.4570    0.0080    2.9820 H   0  0  0  0  0  0  0  0  0  0  0  0
    4.0720   -0.1360    0.6130 H   0  0  0  0  0  0  0  0  0  0  0  0
    2.7540    2.4880    0.3060 H   0  0  0  0  0  0  0  0  0  0  0  0
    4.2210    1.8280   -0.3560 H   0  0  0  0  0  0  0  0  0  0  0  0
   -1.9600    0.4900    1.4030 C   0  0  0  0  0  0  0  0  0  0  0  0
   -1.5900    1.0900    0.0810 C   0  0  0  0  0  0  0  0  0  0  0  0
   -0.6370    2.2200    0.2900 C   0  0  0  0  0  0  0  0  0  0  0  0
   -1.2040    0.1080   -0.9600 C   0  0  0  0  0  0  0  0  0  0  0  0
   -0.0490   -0.7700   -0.6660 C   0  0  2  0  0  0  0  0  0  0  0  0
    1.1550   -0.0010   -0.4270 N   0  0  0  0  0  0  0  0  0  0  0  0
    0.2020   -1.7550   -1.7730 C   0  0  0  0  0  0  0  0  0  0  0  0
    1.3170   -1.8590   -2.3450 O   0  0  0  0  0  0  0  0  0  0  0  0
   -2.5400   -0.4440    1.3110 H   0  0  0  0  0  0  0  0  0  0  0  0
   -2.6020    1.2210    1.9370 H   0  0  0  0  0  0  0  0  0  0  0  0
   -1.0550    0.3530    2.0560 H   0  0  0  0  0  0  0  0  0  0  0  0
   -2.5510    1.5760   -0.2940 H   0  0  0  0  0  0  0  0  0  0  0  0
   -1.2220    3.0750    0.7420 H   0  0  0  0  0  0  0  0  0  0  0  0
    0.1490    1.9640    0.9940 H   0  0  0  0  0  0  0  0  0  0  0  0
   -0.2590    2.6270   -0.6720 H   0  0  0  0  0  0  0  0  0  0  0  0
   -2.1190   -0.4890   -1.2170 H   0  0  0  0  0  0  0  0  0  0  0  0
   -0.9620    0.6860   -1.8860 H   0  0  0  0  0  0  0  0  0  0  0  0
   -0.2450   -1.3620    0.2470 H   0  0  0  0  0  0  0  0  0  0  0  0
    1.4360    0.7560   -1.0860 H   0  0  0  0  0  0  0  0  0  0  0  0
   -0.8670   -2.6000   -2.1840 N   0  0  0  0  0  0  0  0  0  0  0  0
   -0.7220   -3.5810   -3.2400 C   0  0  1  0  0  0  0  0  0  0  0  0
   -0.9870   -4.9870   -2.7290 C   0  0  0  0  0  0  0  0  0  0  0  0
   -2.3640   -5.1120   -2.1900 C   0  0  0  0  0  0  0  0  0  0  0  0
   -3.4420   -5.4870   -2.9660 C   0  0  0  0  0  0  0  0  0  0  0  0
   -4.7190   -5.5960   -2.4430 C   0  0  0  0  0  0  0  0  0  0  0  0
   -4.9260   -5.3220   -1.0990 C   0  0  0  0  0  0  0  0  0  0  0  0
   -3.8520   -4.9410   -0.2950 C   0  0  0  0  0  0  0  0  0  0  0  0
   -2.5760   -4.8410   -0.8560 C   0  0  0  0  0  0  0  0  0  0  0  0
   -1.5600   -3.2740   -4.4120 C   0  0  0  0  0  0  0  0  0  0  0  0
   -1.5350   -4.0320   -5.3990 O   0  0  0  0  0  0  0  0  0  0  0  0
   -2.3670   -2.1620   -4.4260 O   0  0  0  0  0  0  0  0  0  0  0  0
   -1.7820   -2.4940   -1.6950 H   0  0  0  0  0  0  0  0  0  0  0  0
    0.3290   -3.5600   -3.5930 H   0  0  0  0  0  0  0  0  0  0  0  0
   -0.2210   -5.1820   -1.9360 H   0  0  0  0  0  0  0  0  0  0  0  0
   -0.7810   -5.7140   -3.5400 H   0  0  0  0  0  0  0  0  0  0  0  0
   -3.2970   -5.7060   -4.0230 H   0  0  0  0  0  0  0  0  0  0  0  0
   -5.5850   -5.8860   -3.0190 H   0  0  0  0  0  0  0  0  0  0  0  0
   -5.9010   -5.3910   -0.6420 H   0  0  0  0  0  0  0  0  0  0  0  0
   -4.0370   -4.7330    0.7450 H   0  0  0  0  0  0  0  0  0  0  0  0
   -1.7840   -4.5420   -0.1840 H   0  0  0  0  0  0  0  0  0  0  0  0
  1 13  1  0  0  0  0
  2  1  1  0  0  0  0
  2  3  2  0  0  0  0
  3 14  1  0  0  0  0
  4  2  1  0  0  0  0
  5 17  1  0  0  0  0
  5  4  1  0  0  0  0
  5 16  1  0  0  0  0
  6 19  1  0  0  0  0
  6  5  1  0  0  0  0
  7 20  1  0  0  0  0
  7  6  1  0  0  0  0
  7 21  1  0  0  0  0
  8 22  1  6  0  0  0
  8  7  1  0  0  0  0
  9 23  1  0  0  0  0
  9  8  1  0  0  0  0
 10  8  1  0  0  0  0
 10 11  2  0  0  0  0
 12  1  1  0  0  0  0
 15  4  1  0  0  0  0
 18  6  1  0  0  0  0
 24  9  1  0  0  0  0
 25 34  1  0  0  0  0
 25 35  1  0  0  0  0
 26 27  1  0  0  0  0
 26 25  1  0  0  0  0
 27 37  1  0  0  0  0
 27 38  1  0  0  0  0
 28 29  1  0  0  0  0
 28 26  1  0  0  0  0
 29 30  1  0  0  0  0
 29 42  1  1  0  0  0
 30 10  1  0  0  0  0
 31 29  1  0  0  0  0
 32 31  2  0  0  0  0
 33 25  1  0  0  0  0
 36 26  1  0  0  0  0
 39 27  1  0  0  0  0
 40 28  1  0  0  0  0
 41 28  1  0  0  0  0
 43 30  1  0  0  0  0
 44 31  1  0  0  0  0
 44 56  1  0  0  0  0
 45 57  1  6  0  0  0
 45 46  1  0  0  0  0
 45 44  1  0  0  0  0
 46 47  1  0  0  0  0
 46 58  1  0  0  0  0
 47 52  1  0  0  0  0
 48 49  1  0  0  0  0
 48 47  2  0  0  0  0
 49 50  2  0  0  0  0
 50 62  1  0  0  0  0
 50 51  1  0  0  0  0
 51 63  1  0  0  0  0
 52 51  2  0  0  0  0
 52 64  1  0  0  0  0
 53 45  1  0  0  0  0
 54 53  2  0  0  0  0
 55 53  1  0  0  0  0
 59 46  1  0  0  0  0
 60 48  1  0  0  0  0
 61 49  1  0  0  0  0
M  END
$$$$
