RLG.pdb
 OpenBabel07022418053D

 51 50  0  0  1  0  0  0  0  0999 V2000
   -0.8040   -5.0000   -2.2320 N   0  0  0  0  0  0  0  0  0  0  0  0
    0.5430   -4.6450   -1.9960 C   0  0  0  0  0  0  0  0  0  0  0  0
    1.4860   -5.3590   -2.4950 N   0  0  0  0  0  0  0  0  0  0  0  0
    0.9030   -3.5090   -1.2120 N   0  0  0  0  0  0  0  0  0  0  0  0
    2.2150   -3.4040   -0.6120 C   0  0  0  0  0  0  0  0  0  0  0  0
    2.4130   -2.1580    0.1840 C   0  0  0  0  0  0  0  0  0  0  0  0
    2.2410   -0.9000   -0.6090 C   0  0  0  0  0  0  0  0  0  0  0  0
    2.4610    0.3580    0.1460 C   0  0  2  0  0  0  0  0  0  0  0  0
    3.7880    0.4750    0.7060 N   0  0  0  0  0  0  0  0  0  0  0  0
    1.4060    0.6200    1.1330 C   0  0  0  0  0  0  0  0  0  0  0  0
    1.6730    0.9260    2.3510 O   0  0  0  0  0  0  0  0  0  0  0  0
   -1.5190   -4.8660   -1.4990 H   0  0  0  0  0  0  0  0  0  0  0  0
   -1.0820   -5.3980   -3.1430 H   0  0  0  0  0  0  0  0  0  0  0  0
    1.2370   -6.1890   -3.0680 H   0  0  0  0  0  0  0  0  0  0  0  0
    0.1600   -2.7840   -1.1170 H   0  0  0  0  0  0  0  0  0  0  0  0
    2.9860   -3.5630   -1.3920 H   0  0  0  0  0  0  0  0  0  0  0  0
    2.2860   -4.2650    0.1150 H   0  0  0  0  0  0  0  0  0  0  0  0
    1.6970   -2.2050    1.0430 H   0  0  0  0  0  0  0  0  0  0  0  0
    3.4150   -2.1090    0.6580 H   0  0  0  0  0  0  0  0  0  0  0  0
    1.2070   -0.9180   -1.0270 H   0  0  0  0  0  0  0  0  0  0  0  0
    2.9060   -0.9530   -1.5110 H   0  0  0  0  0  0  0  0  0  0  0  0
    2.3890    1.1970   -0.6090 H   0  0  0  0  0  0  0  0  0  0  0  0
    4.4640    0.4840   -0.0660 H   0  0  0  0  0  0  0  0  0  0  0  0
    3.7970    1.3150    1.3140 H   0  0  0  0  0  0  0  0  0  0  0  0
   -2.3810    4.3770    1.0910 C   0  0  0  0  0  0  0  0  0  0  0  0
   -1.3260    3.3170    1.3840 C   0  0  0  0  0  0  0  0  0  0  0  0
   -0.2540    3.4480    0.3650 C   0  0  0  0  0  0  0  0  0  0  0  0
   -1.9340    1.9690    1.5520 C   0  0  0  0  0  0  0  0  0  0  0  0
   -0.9900    0.8420    1.8600 C   0  0  2  0  0  0  0  0  0  0  0  0
    0.0080    0.5720    0.8750 N   0  0  0  0  0  0  0  0  0  0  0  0
   -1.7320   -0.4260    2.1120 C   0  0  0  0  0  0  0  0  0  0  0  0
   -2.6720   -0.4310    2.9360 O   0  0  0  0  0  0  0  0  0  0  0  0
   -3.3020    4.2200    1.6580 H   0  0  0  0  0  0  0  0  0  0  0  0
   -1.9530    5.3480    1.4120 H   0  0  0  0  0  0  0  0  0  0  0  0
   -2.5250    4.4240   -0.0100 H   0  0  0  0  0  0  0  0  0  0  0  0
   -0.9070    3.6080    2.3910 H   0  0  0  0  0  0  0  0  0  0  0  0
   -0.3310    4.4490   -0.1570 H   0  0  0  0  0  0  0  0  0  0  0  0
   -0.3210    2.6240   -0.3650 H   0  0  0  0  0  0  0  0  0  0  0  0
    0.7620    3.3810    0.8340 H   0  0  0  0  0  0  0  0  0  0  0  0
   -2.6400    2.0520    2.4370 H   0  0  0  0  0  0  0  0  0  0  0  0
   -2.5550    1.7060    0.6370 H   0  0  0  0  0  0  0  0  0  0  0  0
   -0.5390    1.1100    2.8550 H   0  0  0  0  0  0  0  0  0  0  0  0
   -0.2890    0.3090   -0.1000 H   0  0  0  0  0  0  0  0  0  0  0  0
   -1.4040   -1.6290    1.4440 N   0  0  0  0  0  0  0  0  0  0  0  0
   -2.1070   -2.8770    1.6670 C   0  0  0  0  0  0  0  0  0  0  0  0
   -2.0000   -3.2910    3.0970 C   0  0  0  0  0  0  0  0  0  0  0  0
   -1.3770   -2.6220    3.9620 O   0  0  0  0  0  0  0  0  0  0  0  0
   -2.6070   -4.4640    3.5200 O   0  0  0  0  0  0  0  0  0  0  0  0
   -0.5930   -1.5520    0.7590 H   0  0  0  0  0  0  0  0  0  0  0  0
   -1.5960   -3.6500    1.0750 H   0  0  0  0  0  0  0  0  0  0  0  0
   -3.1830   -2.8070    1.4130 H   0  0  0  0  0  0  0  0  0  0  0  0
  1  2  1  0  0  0  0
  1 12  1  0  0  0  0
  2  4  1  0  0  0  0
  3  2  2  0  0  0  0
  4 15  1  0  0  0  0
  4  5  1  0  0  0  0
  5 17  1  0  0  0  0
  5  6  1  0  0  0  0
  6 19  1  0  0  0  0
  6 18  1  0  0  0  0
  7  8  1  0  0  0  0
  7  6  1  0  0  0  0
  8 22  1  6  0  0  0
  8  9  1  0  0  0  0
  8 10  1  0  0  0  0
  9 24  1  0  0  0  0
 10 11  2  0  0  0  0
 13  1  1  0  0  0  0
 14  3  1  0  0  0  0
 16  5  1  0  0  0  0
 20  7  1  0  0  0  0
 21  7  1  0  0  0  0
 23  9  1  0  0  0  0
 25 26  1  0  0  0  0
 25 34  1  0  0  0  0
 25 33  1  0  0  0  0
 26 28  1  0  0  0  0
 26 36  1  0  0  0  0
 27 39  1  0  0  0  0
 27 26  1  0  0  0  0
 28 29  1  0  0  0  0
 28 40  1  0  0  0  0
 29 31  1  0  0  0  0
 29 42  1  1  0  0  0
 30 10  1  0  0  0  0
 30 29  1  0  0  0  0
 31 32  2  0  0  0  0
 35 25  1  0  0  0  0
 37 27  1  0  0  0  0
 38 27  1  0  0  0  0
 41 28  1  0  0  0  0
 43 30  1  0  0  0  0
 44 45  1  0  0  0  0
 44 31  1  0  0  0  0
 45 46  1  0  0  0  0
 46 48  2  0  0  0  0
 46 47  1  0  0  0  0
 49 44  1  0  0  0  0
 50 45  1  0  0  0  0
 51 45  1  0  0  0  0
M  END
$$$$
