RLI.pdb
 OpenBabel07022418053D

 63 62  0  0  1  0  0  0  0  0999 V2000
   -1.9800   -3.2370    3.5620 N   0  0  0  0  0  0  0  0  0  0  0  0
   -0.6250   -2.8910    3.7580 C   0  0  0  0  0  0  0  0  0  0  0  0
    0.2580   -3.7890    3.9640 N   0  0  0  0  0  0  0  0  0  0  0  0
   -0.1730   -1.5490    3.7450 N   0  0  0  0  0  0  0  0  0  0  0  0
    0.8860   -1.0050    4.4750 C   0  0  0  0  0  0  0  0  0  0  0  0
    2.2780   -1.2940    4.2720 C   0  0  0  0  0  0  0  0  0  0  0  0
    2.9890   -1.0070    3.0090 C   0  0  0  0  0  0  0  0  0  0  0  0
    3.0340    0.4150    2.5550 C   0  0  2  0  0  0  0  0  0  0  0  0
    3.6270    1.2900    3.5040 N   0  0  0  0  0  0  0  0  0  0  0  0
    1.8070    0.9840    2.0090 C   0  0  0  0  0  0  0  0  0  0  0  0
    1.2230    1.9540    2.6070 O   0  0  0  0  0  0  0  0  0  0  0  0
   -2.7150   -2.6720    4.0380 H   0  0  0  0  0  0  0  0  0  0  0  0
   -2.3310   -4.0240    2.9750 H   0  0  0  0  0  0  0  0  0  0  0  0
   -0.0170   -4.7780    3.9880 H   0  0  0  0  0  0  0  0  0  0  0  0
   -0.7080   -0.8990    3.1040 H   0  0  0  0  0  0  0  0  0  0  0  0
    0.6440   -1.2760    5.5670 H   0  0  0  0  0  0  0  0  0  0  0  0
    0.7430    0.1150    4.5250 H   0  0  0  0  0  0  0  0  0  0  0  0
    2.8520   -0.6860    5.0530 H   0  0  0  0  0  0  0  0  0  0  0  0
    2.6020   -2.3350    4.5840 H   0  0  0  0  0  0  0  0  0  0  0  0
    4.0690   -1.3120    3.1790 H   0  0  0  0  0  0  0  0  0  0  0  0
    2.6870   -1.6310    2.1440 H   0  0  0  0  0  0  0  0  0  0  0  0
    3.7610    0.4250    1.6710 H   0  0  0  0  0  0  0  0  0  0  0  0
    3.2160    2.2280    3.5850 H   0  0  0  0  0  0  0  0  0  0  0  0
    4.6400    1.2180    3.6350 H   0  0  0  0  0  0  0  0  0  0  0  0
   -0.0430    3.7650   -2.4890 C   0  0  0  0  0  0  0  0  0  0  0  0
   -0.7010    2.8360   -1.4540 C   0  0  0  0  0  0  0  0  0  0  0  0
   -1.6170    3.5860   -0.5520 C   0  0  0  0  0  0  0  0  0  0  0  0
    0.4050    2.1090   -0.7850 C   0  0  0  0  0  0  0  0  0  0  0  0
   -0.0510    1.1310    0.3050 C   0  0  2  0  0  0  0  0  0  0  0  0
    1.1730    0.5440    0.8130 N   0  0  0  0  0  0  0  0  0  0  0  0
   -0.9590    0.1380   -0.3000 C   0  0  0  0  0  0  0  0  0  0  0  0
   -2.1270    0.5230   -0.6570 O   0  0  0  0  0  0  0  0  0  0  0  0
    0.3460    3.0990   -3.2870 H   0  0  0  0  0  0  0  0  0  0  0  0
    0.8380    4.2520   -1.9790 H   0  0  0  0  0  0  0  0  0  0  0  0
   -0.7480    4.5220   -2.8610 H   0  0  0  0  0  0  0  0  0  0  0  0
   -1.3160    2.1220   -2.0690 H   0  0  0  0  0  0  0  0  0  0  0  0
   -1.5550    4.6780   -0.8350 H   0  0  0  0  0  0  0  0  0  0  0  0
   -1.3190    3.5590    0.5170 H   0  0  0  0  0  0  0  0  0  0  0  0
   -2.6580    3.2990   -0.7210 H   0  0  0  0  0  0  0  0  0  0  0  0
    1.0790    2.8290   -0.2550 H   0  0  0  0  0  0  0  0  0  0  0  0
    0.9580    1.5330   -1.5460 H   0  0  0  0  0  0  0  0  0  0  0  0
   -0.6000    1.7180    1.0700 H   0  0  0  0  0  0  0  0  0  0  0  0
    1.6170   -0.2160    0.3020 H   0  0  0  0  0  0  0  0  0  0  0  0
   -3.4770   -2.6850   -3.4380 C   0  0  0  0  0  0  0  0  0  0  0  0
   -2.0800   -3.2080   -3.3540 C   0  0  0  0  0  0  0  0  0  0  0  0
   -1.1620   -2.3310   -2.5570 C   0  0  2  0  0  0  0  0  0  0  0  0
    0.2000   -2.9740   -2.5580 C   0  0  0  0  0  0  0  0  0  0  0  0
   -1.6380   -2.0860   -1.1330 C   0  0  2  0  0  0  0  0  0  0  0  0
   -0.6410   -1.2230   -0.5230 N   0  0  0  0  0  0  0  0  0  0  0  0
   -1.7960   -3.3480   -0.3990 C   0  0  0  0  0  0  0  0  0  0  0  0
   -1.0740   -3.5810    0.5900 O   0  0  0  0  0  0  0  0  0  0  0  0
   -2.7290   -4.2810   -0.7860 O   0  0  0  0  0  0  0  0  0  0  0  0
   -4.2190   -3.2200   -2.8240 H   0  0  0  0  0  0  0  0  0  0  0  0
   -3.8370   -2.8230   -4.5000 H   0  0  0  0  0  0  0  0  0  0  0  0
   -3.4880   -1.5840   -3.2380 H   0  0  0  0  0  0  0  0  0  0  0  0
   -1.6590   -3.2320   -4.3960 H   0  0  0  0  0  0  0  0  0  0  0  0
   -2.0980   -4.2590   -3.0170 H   0  0  0  0  0  0  0  0  0  0  0  0
   -1.1000   -1.3430   -3.0510 H   0  0  0  0  0  0  0  0  0  0  0  0
    1.0030   -2.1980   -2.4300 H   0  0  0  0  0  0  0  0  0  0  0  0
    0.3110   -3.6630   -1.7150 H   0  0  0  0  0  0  0  0  0  0  0  0
    0.3720   -3.5160   -3.5240 H   0  0  0  0  0  0  0  0  0  0  0  0
   -2.5900   -1.5460   -1.1750 H   0  0  0  0  0  0  0  0  0  0  0  0
    0.3020   -1.5880   -0.2460 H   0  0  0  0  0  0  0  0  0  0  0  0
  1  2  1  0  0  0  0
  1 12  1  0  0  0  0
  2  3  2  0  0  0  0
  3 14  1  0  0  0  0
  4  2  1  0  0  0  0
  4  5  1  0  0  0  0
  5 17  1  0  0  0  0
  5 16  1  0  0  0  0
  6  5  1  0  0  0  0
  6 19  1  0  0  0  0
  6 18  1  0  0  0  0
  7 20  1  0  0  0  0
  7  6  1  0  0  0  0
  8 22  1  6  0  0  0
  8  7  1  0  0  0  0
  8  9  1  0  0  0  0
  9 23  1  0  0  0  0
  9 24  1  0  0  0  0
 10  8  1  0  0  0  0
 10 11  2  0  0  0  0
 13  1  1  0  0  0  0
 15  4  1  0  0  0  0
 21  7  1  0  0  0  0
 25 34  1  0  0  0  0
 25 26  1  0  0  0  0
 26 28  1  0  0  0  0
 26 27  1  0  0  0  0
 27 38  1  0  0  0  0
 28 40  1  0  0  0  0
 28 29  1  0  0  0  0
 29 30  1  0  0  0  0
 29 42  1  1  0  0  0
 30 10  1  0  0  0  0
 31 29  1  0  0  0  0
 32 31  2  0  0  0  0
 33 25  1  0  0  0  0
 35 25  1  0  0  0  0
 36 26  1  0  0  0  0
 37 27  1  0  0  0  0
 39 27  1  0  0  0  0
 41 28  1  0  0  0  0
 43 30  1  0  0  0  0
 44 45  1  0  0  0  0
 44 55  1  0  0  0  0
 44 53  1  0  0  0  0
 45 57  1  0  0  0  0
 45 46  1  0  0  0  0
 46 58  1  6  0  0  0
 46 48  1  0  0  0  0
 47 46  1  0  0  0  0
 47 59  1  0  0  0  0
 47 60  1  0  0  0  0
 48 62  1  6  0  0  0
 48 49  1  0  0  0  0
 48 50  1  0  0  0  0
 49 31  1  0  0  0  0
 49 63  1  0  0  0  0
 50 51  1  0  0  0  0
 52 50  2  0  0  0  0
 54 44  1  0  0  0  0
 56 45  1  0  0  0  0
 61 47  1  0  0  0  0
M  END
$$$$
