RLK.pdb
 OpenBabel07022418053D

 65 64  0  0  1  0  0  0  0  0999 V2000
   -0.1400   -0.5200    7.2620 N   0  0  0  0  0  0  0  0  0  0  0  0
    1.1380   -0.2840    6.6840 C   0  0  0  0  0  0  0  0  0  0  0  0
    2.1140   -1.0930    6.8240 N   0  0  0  0  0  0  0  0  0  0  0  0
    1.3480    0.9040    5.9120 N   0  0  0  0  0  0  0  0  0  0  0  0
    2.4230    1.0840    5.0040 C   0  0  0  0  0  0  0  0  0  0  0  0
    2.3490    0.2090    3.7740 C   0  0  0  0  0  0  0  0  0  0  0  0
    3.5180    0.4560    2.8650 C   0  0  0  0  0  0  0  0  0  0  0  0
    3.5120   -0.4120    1.6390 C   0  0  2  0  0  0  0  0  0  0  0  0
    4.7030   -0.0600    0.8330 N   0  0  0  0  0  0  0  0  0  0  0  0
    2.2870   -0.2550    0.8020 C   0  0  0  0  0  0  0  0  0  0  0  0
    2.4110    0.4720   -0.2050 O   0  0  0  0  0  0  0  0  0  0  0  0
   -0.2430   -0.9550    8.2180 H   0  0  0  0  0  0  0  0  0  0  0  0
   -1.0190   -0.2780    6.7750 H   0  0  0  0  0  0  0  0  0  0  0  0
    1.9650   -1.9590    7.3840 H   0  0  0  0  0  0  0  0  0  0  0  0
    0.6520    1.6660    6.0460 H   0  0  0  0  0  0  0  0  0  0  0  0
    3.3780    0.9330    5.5450 H   0  0  0  0  0  0  0  0  0  0  0  0
    2.4400    2.1360    4.6550 H   0  0  0  0  0  0  0  0  0  0  0  0
    1.4340    0.4170    3.1840 H   0  0  0  0  0  0  0  0  0  0  0  0
    2.3120   -0.8420    4.1000 H   0  0  0  0  0  0  0  0  0  0  0  0
    4.4830    0.3610    3.4050 H   0  0  0  0  0  0  0  0  0  0  0  0
    3.4190    1.5150    2.4800 H   0  0  0  0  0  0  0  0  0  0  0  0
    3.6210   -1.4570    1.9420 H   0  0  0  0  0  0  0  0  0  0  0  0
    5.4040   -0.8500    0.8660 H   0  0  0  0  0  0  0  0  0  0  0  0
    4.4340    0.0460   -0.1640 H   0  0  0  0  0  0  0  0  0  0  0  0
   -1.4570    1.7320    1.3580 C   0  0  0  0  0  0  0  0  0  0  0  0
   -0.2860    1.7440    0.3680 C   0  0  0  0  0  0  0  0  0  0  0  0
   -0.4460    2.9800   -0.4630 C   0  0  0  0  0  0  0  0  0  0  0  0
   -0.2990    0.4890   -0.4710 C   0  0  0  0  0  0  0  0  0  0  0  0
   -0.1580   -0.7650    0.3790 C   0  0  2  0  0  0  0  0  0  0  0  0
    1.0660   -0.8760    1.1030 N   0  0  0  0  0  0  0  0  0  0  0  0
   -0.5320   -2.0050   -0.3200 C   0  0  0  0  0  0  0  0  0  0  0  0
    0.2610   -2.9750   -0.2290 O   0  0  0  0  0  0  0  0  0  0  0  0
   -1.1580    1.1910    2.2750 H   0  0  0  0  0  0  0  0  0  0  0  0
   -1.7110    2.7650    1.6870 H   0  0  0  0  0  0  0  0  0  0  0  0
   -2.3120    1.1970    0.9120 H   0  0  0  0  0  0  0  0  0  0  0  0
    0.6120    1.8700    0.9820 H   0  0  0  0  0  0  0  0  0  0  0  0
    0.4990    3.3260   -0.9430 H   0  0  0  0  0  0  0  0  0  0  0  0
   -0.7920    3.8040    0.2120 H   0  0  0  0  0  0  0  0  0  0  0  0
   -1.2560    2.8300   -1.2010 H   0  0  0  0  0  0  0  0  0  0  0  0
    0.4210    0.5900   -1.2720 H   0  0  0  0  0  0  0  0  0  0  0  0
   -1.3370    0.4380   -0.9080 H   0  0  0  0  0  0  0  0  0  0  0  0
   -0.9730   -0.5220    1.1830 H   0  0  0  0  0  0  0  0  0  0  0  0
    1.0510   -1.5120    1.9570 H   0  0  0  0  0  0  0  0  0  0  0  0
   -1.7160   -2.1760   -1.0820 N   0  0  0  0  0  0  0  0  0  0  0  0
   -2.1390   -3.3450   -1.7730 C   0  0  1  0  0  0  0  0  0  0  0  0
   -1.5810   -3.5570   -3.1310 C   0  0  0  0  0  0  0  0  0  0  0  0
   -1.8980   -2.4600   -4.1020 C   0  0  0  0  0  0  0  0  0  0  0  0
   -3.3630   -2.2470   -4.3300 C   0  0  0  0  0  0  0  0  0  0  0  0
   -3.4890   -1.0980   -5.3390 C   0  0  0  0  0  0  0  0  0  0  0  0
   -2.8730    0.0970   -4.7980 N   0  0  0  0  0  0  0  0  0  0  0  0
   -2.0050   -4.5820   -0.9490 C   0  0  0  0  0  0  0  0  0  0  0  0
   -2.2530   -5.7120   -1.4560 O   0  0  0  0  0  0  0  0  0  0  0  0
   -1.6220   -4.5360    0.3520 O   0  0  0  0  0  0  0  0  0  0  0  0
   -2.3220   -1.2900   -1.1040 H   0  0  0  0  0  0  0  0  0  0  0  0
   -3.2680   -3.2440   -1.8770 H   0  0  0  0  0  0  0  0  0  0  0  0
   -1.9660   -4.4990   -3.5450 H   0  0  0  0  0  0  0  0  0  0  0  0
   -0.4710   -3.6580   -3.1130 H   0  0  0  0  0  0  0  0  0  0  0  0
   -1.4630   -2.7780   -5.0920 H   0  0  0  0  0  0  0  0  0  0  0  0
   -1.4530   -1.4830   -3.8300 H   0  0  0  0  0  0  0  0  0  0  0  0
   -3.8100   -3.1480   -4.7960 H   0  0  0  0  0  0  0  0  0  0  0  0
   -3.8300   -1.9840   -3.3780 H   0  0  0  0  0  0  0  0  0  0  0  0
   -4.5490   -0.9230   -5.5310 H   0  0  0  0  0  0  0  0  0  0  0  0
   -2.9120   -1.4210   -6.2330 H   0  0  0  0  0  0  0  0  0  0  0  0
   -1.9580    0.3090   -5.2420 H   0  0  0  0  0  0  0  0  0  0  0  0
   -3.5100    0.9160   -4.9900 H   0  0  0  0  0  0  0  0  0  0  0  0
  1 12  1  0  0  0  0
  2  3  2  0  0  0  0
  2  1  1  0  0  0  0
  3 14  1  0  0  0  0
  4 15  1  0  0  0  0
  4  2  1  0  0  0  0
  5 16  1  0  0  0  0
  5  4  1  0  0  0  0
  6 19  1  0  0  0  0
  6  5  1  0  0  0  0
  7 20  1  0  0  0  0
  7  6  1  0  0  0  0
  8 22  1  1  0  0  0
  8  7  1  0  0  0  0
  9 23  1  0  0  0  0
  9  8  1  0  0  0  0
 10 30  1  0  0  0  0
 10  8  1  0  0  0  0
 11 10  2  0  0  0  0
 13  1  1  0  0  0  0
 17  5  1  0  0  0  0
 18  6  1  0  0  0  0
 21  7  1  0  0  0  0
 24  9  1  0  0  0  0
 25 34  1  0  0  0  0
 25 33  1  0  0  0  0
 26 36  1  0  0  0  0
 26 25  1  0  0  0  0
 27 38  1  0  0  0  0
 27 26  1  0  0  0  0
 28 26  1  0  0  0  0
 28 29  1  0  0  0  0
 29 30  1  0  0  0  0
 29 42  1  1  0  0  0
 30 43  1  0  0  0  0
 31 32  2  0  0  0  0
 31 29  1  0  0  0  0
 35 25  1  0  0  0  0
 37 27  1  0  0  0  0
 39 27  1  0  0  0  0
 40 28  1  0  0  0  0
 41 28  1  0  0  0  0
 44 31  1  0  0  0  0
 45 55  1  6  0  0  0
 45 44  1  0  0  0  0
 45 51  1  0  0  0  0
 46 57  1  0  0  0  0
 46 45  1  0  0  0  0
 47 59  1  0  0  0  0
 47 46  1  0  0  0  0
 48 47  1  0  0  0  0
 48 61  1  0  0  0  0
 49 50  1  0  0  0  0
 49 48  1  0  0  0  0
 51 53  1  0  0  0  0
 52 51  2  0  0  0  0
 54 44  1  0  0  0  0
 56 46  1  0  0  0  0
 58 47  1  0  0  0  0
 60 48  1  0  0  0  0
 62 49  1  0  0  0  0
 63 49  1  0  0  0  0
 64 50  1  0  0  0  0
 65 50  1  0  0  0  0
M  END
$$$$
