RLL.pdb
 OpenBabel07022418053D

 63 62  0  0  1  0  0  0  0  0999 V2000
    1.4800   -3.1400    6.3600 N   0  0  0  0  0  0  0  0  0  0  0  0
    2.3640   -2.3740    5.5730 C   0  0  0  0  0  0  0  0  0  0  0  0
    3.5330   -2.8210    5.3050 N   0  0  0  0  0  0  0  0  0  0  0  0
    1.9790   -1.0880    5.0610 N   0  0  0  0  0  0  0  0  0  0  0  0
    2.8440   -0.3490    4.1450 C   0  0  0  0  0  0  0  0  0  0  0  0
    2.9050   -1.0570    2.8480 C   0  0  0  0  0  0  0  0  0  0  0  0
    3.7450   -0.4490    1.8000 C   0  0  0  0  0  0  0  0  0  0  0  0
    3.4160    0.9170    1.3450 C   0  0  2  0  0  0  0  0  0  0  0  0
    3.4660    1.9150    2.3870 N   0  0  0  0  0  0  0  0  0  0  0  0
    2.1720    1.0240    0.5430 C   0  0  0  0  0  0  0  0  0  0  0  0
    1.3630    1.9210    0.8890 O   0  0  0  0  0  0  0  0  0  0  0  0
    0.9110   -2.6510    7.0850 H   0  0  0  0  0  0  0  0  0  0  0  0
    1.3770   -4.1650    6.2430 H   0  0  0  0  0  0  0  0  0  0  0  0
    3.8510   -3.7480    5.6570 H   0  0  0  0  0  0  0  0  0  0  0  0
    1.0530   -0.7390    5.3900 H   0  0  0  0  0  0  0  0  0  0  0  0
    3.8370   -0.2550    4.6280 H   0  0  0  0  0  0  0  0  0  0  0  0
    2.4170    0.6680    4.1030 H   0  0  0  0  0  0  0  0  0  0  0  0
    1.8600   -1.2580    2.5130 H   0  0  0  0  0  0  0  0  0  0  0  0
    3.3330   -2.0830    3.0480 H   0  0  0  0  0  0  0  0  0  0  0  0
    4.8180   -0.4780    2.0850 H   0  0  0  0  0  0  0  0  0  0  0  0
    3.6860   -1.1220    0.8930 H   0  0  0  0  0  0  0  0  0  0  0  0
    4.2400    1.2160    0.6260 H   0  0  0  0  0  0  0  0  0  0  0  0
    2.8410    2.7280    2.2130 H   0  0  0  0  0  0  0  0  0  0  0  0
    4.4320    2.1830    2.6580 H   0  0  0  0  0  0  0  0  0  0  0  0
   -1.1640    2.2960   -3.1650 C   0  0  0  0  0  0  0  0  0  0  0  0
   -0.2540    1.1620   -3.5750 C   0  0  0  0  0  0  0  0  0  0  0  0
   -1.0570    0.0680   -4.1550 C   0  0  0  0  0  0  0  0  0  0  0  0
    0.8260    0.8500   -2.6410 C   0  0  0  0  0  0  0  0  0  0  0  0
    0.5470    0.4680   -1.2350 C   0  0  2  0  0  0  0  0  0  0  0  0
    1.8480    0.2150   -0.5420 N   0  0  0  0  0  0  0  0  0  0  0  0
   -0.1820   -0.8000   -1.1030 C   0  0  0  0  0  0  0  0  0  0  0  0
    0.4500   -1.8620   -0.7480 O   0  0  0  0  0  0  0  0  0  0  0  0
   -0.6730    3.2850   -3.3100 H   0  0  0  0  0  0  0  0  0  0  0  0
   -1.4880    2.2250   -2.1040 H   0  0  0  0  0  0  0  0  0  0  0  0
   -2.0550    2.2640   -3.7930 H   0  0  0  0  0  0  0  0  0  0  0  0
    0.2940    1.6290   -4.4930 H   0  0  0  0  0  0  0  0  0  0  0  0
   -1.0370    0.1480   -5.2780 H   0  0  0  0  0  0  0  0  0  0  0  0
   -0.6900   -0.9600   -3.9560 H   0  0  0  0  0  0  0  0  0  0  0  0
   -2.1600    0.1840   -3.9270 H   0  0  0  0  0  0  0  0  0  0  0  0
    1.4150   -0.0000   -3.1270 H   0  0  0  0  0  0  0  0  0  0  0  0
    1.5890    1.6850   -2.7080 H   0  0  0  0  0  0  0  0  0  0  0  0
    0.0170    1.2900   -0.7380 H   0  0  0  0  0  0  0  0  0  0  0  0
    2.4940   -0.5350   -0.8510 H   0  0  0  0  0  0  0  0  0  0  0  0
   -4.0130   -0.0060    0.1740 C   0  0  0  0  0  0  0  0  0  0  0  0
   -4.2420   -1.4570    0.1300 C   0  0  0  0  0  0  0  0  0  0  0  0
   -4.9750   -1.8480    1.4290 C   0  0  0  0  0  0  0  0  0  0  0  0
   -3.1050   -2.3790    0.0200 C   0  0  0  0  0  0  0  0  0  0  0  0
   -2.2110   -2.2890   -1.1680 C   0  0  2  0  0  0  0  0  0  0  0  0
   -1.5660   -1.0300   -1.3170 N   0  0  0  0  0  0  0  0  0  0  0  0
   -2.9270   -2.8280   -2.3210 C   0  0  0  0  0  0  0  0  0  0  0  0
   -3.0720   -2.3480   -3.4460 O   0  0  0  0  0  0  0  0  0  0  0  0
   -3.5490   -4.0830   -2.1280 O   0  0  0  0  0  0  0  0  0  0  0  0
   -4.7370    0.4580    0.9150 H   0  0  0  0  0  0  0  0  0  0  0  0
   -4.2200    0.5490   -0.7570 H   0  0  0  0  0  0  0  0  0  0  0  0
   -3.0220    0.3170    0.5580 H   0  0  0  0  0  0  0  0  0  0  0  0
   -5.0220   -1.6780   -0.6640 H   0  0  0  0  0  0  0  0  0  0  0  0
   -4.4540   -1.2840    2.2300 H   0  0  0  0  0  0  0  0  0  0  0  0
   -6.0140   -1.5020    1.4140 H   0  0  0  0  0  0  0  0  0  0  0  0
   -4.8900   -2.9240    1.6210 H   0  0  0  0  0  0  0  0  0  0  0  0
   -3.5310   -3.4270    0.0120 H   0  0  0  0  0  0  0  0  0  0  0  0
   -2.4630   -2.3740    0.9390 H   0  0  0  0  0  0  0  0  0  0  0  0
   -1.3790   -3.0380   -0.9560 H   0  0  0  0  0  0  0  0  0  0  0  0
   -2.1390   -0.2050   -1.5870 H   0  0  0  0  0  0  0  0  0  0  0  0
  1 12  1  0  0  0  0
  2  1  1  0  0  0  0
  3  2  2  0  0  0  0
  3 14  1  0  0  0  0
  4 15  1  0  0  0  0
  4  2  1  0  0  0  0
  5 16  1  0  0  0  0
  5  4  1  0  0  0  0
  6 19  1  0  0  0  0
  6  5  1  0  0  0  0
  7 20  1  0  0  0  0
  7  6  1  0  0  0  0
  8 22  1  6  0  0  0
  8  7  1  0  0  0  0
  8  9  1  0  0  0  0
  9 24  1  0  0  0  0
 10 11  2  0  0  0  0
 10  8  1  0  0  0  0
 13  1  1  0  0  0  0
 17  5  1  0  0  0  0
 18  6  1  0  0  0  0
 21  7  1  0  0  0  0
 23  9  1  0  0  0  0
 25 34  1  0  0  0  0
 26 25  1  0  0  0  0
 26 28  1  0  0  0  0
 27 38  1  0  0  0  0
 27 39  1  0  0  0  0
 27 26  1  0  0  0  0
 28 29  1  0  0  0  0
 29 31  1  0  0  0  0
 29 42  1  1  0  0  0
 29 30  1  0  0  0  0
 30 10  1  0  0  0  0
 31 32  2  0  0  0  0
 33 25  1  0  0  0  0
 35 25  1  0  0  0  0
 36 26  1  0  0  0  0
 37 27  1  0  0  0  0
 40 28  1  0  0  0  0
 41 28  1  0  0  0  0
 43 30  1  0  0  0  0
 44 55  1  0  0  0  0
 44 53  1  0  0  0  0
 45 44  1  0  0  0  0
 45 46  1  0  0  0  0
 46 59  1  0  0  0  0
 46 57  1  0  0  0  0
 47 45  1  0  0  0  0
 47 61  1  0  0  0  0
 48 62  1  1  0  0  0
 48 47  1  0  0  0  0
 49 48  1  0  0  0  0
 49 31  1  0  0  0  0
 50 52  1  0  0  0  0
 50 48  1  0  0  0  0
 51 50  2  0  0  0  0
 54 44  1  0  0  0  0
 56 45  1  0  0  0  0
 58 46  1  0  0  0  0
 60 47  1  0  0  0  0
 63 49  1  0  0  0  0
M  END
$$$$
