RLM.pdb
 OpenBabel07022418053D

 61 60  0  0  1  0  0  0  0  0999 V2000
    0.6990   -3.3790    5.8560 N   0  0  0  0  0  0  0  0  0  0  0  0
    1.2120   -3.0260    4.5720 C   0  0  0  0  0  0  0  0  0  0  0  0
    1.5110   -3.9390    3.7210 N   0  0  0  0  0  0  0  0  0  0  0  0
    1.4070   -1.6780    4.1900 N   0  0  0  0  0  0  0  0  0  0  0  0
    1.6750   -1.3460    2.8300 C   0  0  0  0  0  0  0  0  0  0  0  0
    2.9930   -1.7810    2.3140 C   0  0  0  0  0  0  0  0  0  0  0  0
    3.3180   -1.4630    0.9010 C   0  0  0  0  0  0  0  0  0  0  0  0
    3.3490   -0.0420    0.4990 C   0  0  2  0  0  0  0  0  0  0  0  0
    4.3320    0.6890    1.3080 N   0  0  0  0  0  0  0  0  0  0  0  0
    2.0930    0.6690    0.3340 C   0  0  0  0  0  0  0  0  0  0  0  0
    1.9400    1.7560    0.9720 O   0  0  0  0  0  0  0  0  0  0  0  0
    0.5680   -2.6730    6.6130 H   0  0  0  0  0  0  0  0  0  0  0  0
    0.4400   -4.3550    6.0730 H   0  0  0  0  0  0  0  0  0  0  0  0
    1.4270   -4.9530    3.8400 H   0  0  0  0  0  0  0  0  0  0  0  0
    1.3470   -0.9500    4.9320 H   0  0  0  0  0  0  0  0  0  0  0  0
    1.6160   -0.2430    2.7320 H   0  0  0  0  0  0  0  0  0  0  0  0
    0.8240   -1.7290    2.2010 H   0  0  0  0  0  0  0  0  0  0  0  0
    3.1860   -2.8820    2.4510 H   0  0  0  0  0  0  0  0  0  0  0  0
    3.8340   -1.3220    2.9220 H   0  0  0  0  0  0  0  0  0  0  0  0
    2.6940   -2.0130    0.1610 H   0  0  0  0  0  0  0  0  0  0  0  0
    4.3580   -1.8810    0.7230 H   0  0  0  0  0  0  0  0  0  0  0  0
    3.8390   -0.0090   -0.5440 H   0  0  0  0  0  0  0  0  0  0  0  0
    4.4720    1.6150    0.8120 H   0  0  0  0  0  0  0  0  0  0  0  0
    5.2500    0.1750    1.1370 H   0  0  0  0  0  0  0  0  0  0  0  0
   -1.5490    3.8650   -1.1160 C   0  0  0  0  0  0  0  0  0  0  0  0
   -1.3890    2.7430   -2.1270 C   0  0  0  0  0  0  0  0  0  0  0  0
   -2.7070    2.2290   -2.5300 C   0  0  0  0  0  0  0  0  0  0  0  0
   -0.2770    1.8300   -1.8330 C   0  0  0  0  0  0  0  0  0  0  0  0
   -0.2120    1.0980   -0.5560 C   0  0  2  0  0  0  0  0  0  0  0  0
    1.0120    0.2770   -0.4750 N   0  0  0  0  0  0  0  0  0  0  0  0
   -1.3370    0.2350   -0.2340 C   0  0  0  0  0  0  0  0  0  0  0  0
   -2.5140    0.6350   -0.2170 O   0  0  0  0  0  0  0  0  0  0  0  0
   -0.5710    4.3040   -0.8470 H   0  0  0  0  0  0  0  0  0  0  0  0
   -2.0650    3.4930   -0.1880 H   0  0  0  0  0  0  0  0  0  0  0  0
   -2.1910    4.6320   -1.5770 H   0  0  0  0  0  0  0  0  0  0  0  0
   -1.0080    3.3490   -3.0630 H   0  0  0  0  0  0  0  0  0  0  0  0
   -3.0730    2.8220   -3.4490 H   0  0  0  0  0  0  0  0  0  0  0  0
   -2.7270    1.1870   -2.8410 H   0  0  0  0  0  0  0  0  0  0  0  0
   -3.4990    2.5140   -1.7800 H   0  0  0  0  0  0  0  0  0  0  0  0
   -0.2920    1.0500   -2.6720 H   0  0  0  0  0  0  0  0  0  0  0  0
    0.6850    2.3710   -2.0660 H   0  0  0  0  0  0  0  0  0  0  0  0
   -0.1440    1.8960    0.2530 H   0  0  0  0  0  0  0  0  0  0  0  0
    1.0900   -0.5990   -1.0200 H   0  0  0  0  0  0  0  0  0  0  0  0
   -3.4750   -1.7980   -2.6980 C   0  0  0  0  0  0  0  0  0  0  0  0
   -2.9860   -3.5040   -2.4760 S   0  0  0  0  0  0  0  0  0  0  0  0
   -1.6510   -3.7560   -1.3110 C   0  0  0  0  0  0  0  0  0  0  0  0
   -1.9500   -3.4470    0.1030 C   0  0  0  0  0  0  0  0  0  0  0  0
   -2.2890   -2.0340    0.4280 C   0  0  2  0  0  0  0  0  0  0  0  0
   -1.1740   -1.1620    0.0980 N   0  0  0  0  0  0  0  0  0  0  0  0
   -2.5330   -1.9610    1.9230 C   0  0  0  0  0  0  0  0  0  0  0  0
   -1.8390   -1.2420    2.6510 O   0  0  0  0  0  0  0  0  0  0  0  0
   -3.5510   -2.7230    2.4330 O   0  0  0  0  0  0  0  0  0  0  0  0
   -3.6710   -1.6040   -3.7800 H   0  0  0  0  0  0  0  0  0  0  0  0
   -2.7300   -1.0790   -2.3430 H   0  0  0  0  0  0  0  0  0  0  0  0
   -4.4230   -1.6010   -2.1530 H   0  0  0  0  0  0  0  0  0  0  0  0
   -1.3980   -4.8600   -1.3530 H   0  0  0  0  0  0  0  0  0  0  0  0
   -0.6900   -3.2780   -1.6620 H   0  0  0  0  0  0  0  0  0  0  0  0
   -1.0240   -3.7310    0.6950 H   0  0  0  0  0  0  0  0  0  0  0  0
   -2.7520   -4.1590    0.4540 H   0  0  0  0  0  0  0  0  0  0  0  0
   -3.2400   -1.7340   -0.0530 H   0  0  0  0  0  0  0  0  0  0  0  0
   -0.2440   -1.5940    0.1070 H   0  0  0  0  0  0  0  0  0  0  0  0
  1 13  1  0  0  0  0
  1 12  1  0  0  0  0
  2  1  1  0  0  0  0
  3 14  1  0  0  0  0
  3  2  2  0  0  0  0
  4  2  1  0  0  0  0
  4 15  1  0  0  0  0
  5  4  1  0  0  0  0
  6 18  1  0  0  0  0
  6  5  1  0  0  0  0
  6 19  1  0  0  0  0
  7  6  1  0  0  0  0
  8 22  1  6  0  0  0
  8  7  1  0  0  0  0
  8  9  1  0  0  0  0
 10  8  1  0  0  0  0
 10 11  2  0  0  0  0
 16  5  1  0  0  0  0
 17  5  1  0  0  0  0
 20  7  1  0  0  0  0
 21  7  1  0  0  0  0
 23  9  1  0  0  0  0
 24  9  1  0  0  0  0
 25 33  1  0  0  0  0
 25 34  1  0  0  0  0
 26 28  1  0  0  0  0
 26 25  1  0  0  0  0
 27 26  1  0  0  0  0
 27 39  1  0  0  0  0
 28 29  1  0  0  0  0
 29 30  1  0  0  0  0
 29 31  1  0  0  0  0
 29 42  1  1  0  0  0
 30 10  1  0  0  0  0
 31 32  2  0  0  0  0
 31 49  1  0  0  0  0
 35 25  1  0  0  0  0
 36 26  1  0  0  0  0
 37 27  1  0  0  0  0
 38 27  1  0  0  0  0
 40 28  1  0  0  0  0
 41 28  1  0  0  0  0
 43 30  1  0  0  0  0
 44 45  1  0  0  0  0
 44 54  1  0  0  0  0
 44 55  1  0  0  0  0
 45 46  1  0  0  0  0
 46 47  1  0  0  0  0
 47 48  1  0  0  0  0
 47 59  1  0  0  0  0
 47 58  1  0  0  0  0
 48 60  1  6  0  0  0
 48 50  1  0  0  0  0
 49 61  1  0  0  0  0
 49 48  1  0  0  0  0
 50 52  2  0  0  0  0
 50 51  1  0  0  0  0
 53 44  1  0  0  0  0
 56 46  1  0  0  0  0
 57 46  1  0  0  0  0
M  END
$$$$
