RLN.pdb
 OpenBabel07022418053D

 58 57  0  0  1  0  0  0  0  0999 V2000
   -2.2810   -3.1670    3.4210 N   0  0  0  0  0  0  0  0  0  0  0  0
   -1.2770   -2.1310    3.4360 C   0  0  0  0  0  0  0  0  0  0  0  0
   -0.4040   -2.0790    2.5090 N   0  0  0  0  0  0  0  0  0  0  0  0
   -1.2330   -1.1730    4.4570 N   0  0  0  0  0  0  0  0  0  0  0  0
   -0.4260   -0.0050    4.5750 C   0  0  0  0  0  0  0  0  0  0  0  0
    1.0050   -0.1100    4.7910 C   0  0  0  0  0  0  0  0  0  0  0  0
    2.0240   -0.5740    3.8640 C   0  0  0  0  0  0  0  0  0  0  0  0
    2.3430    0.2180    2.6520 C   0  0  2  0  0  0  0  0  0  0  0  0
    2.7440    1.5590    3.1310 N   0  0  0  0  0  0  0  0  0  0  0  0
    1.4310    0.3640    1.5440 C   0  0  0  0  0  0  0  0  0  0  0  0
    0.5310    1.2300    1.5290 O   0  0  0  0  0  0  0  0  0  0  0  0
   -3.2260   -2.9720    3.0640 H   0  0  0  0  0  0  0  0  0  0  0  0
   -2.0340   -4.1030    3.7740 H   0  0  0  0  0  0  0  0  0  0  0  0
   -0.4480   -2.7990    1.7630 H   0  0  0  0  0  0  0  0  0  0  0  0
   -1.9450   -1.4050    5.2620 H   0  0  0  0  0  0  0  0  0  0  0  0
   -0.8380    0.5260    5.5200 H   0  0  0  0  0  0  0  0  0  0  0  0
   -0.7260    0.7590    3.7960 H   0  0  0  0  0  0  0  0  0  0  0  0
    1.1130   -0.8080    5.7250 H   0  0  0  0  0  0  0  0  0  0  0  0
    1.4070    0.8690    5.2900 H   0  0  0  0  0  0  0  0  0  0  0  0
    3.0180   -0.5410    4.4750 H   0  0  0  0  0  0  0  0  0  0  0  0
    1.9740   -1.6680    3.6470 H   0  0  0  0  0  0  0  0  0  0  0  0
    3.3490   -0.1930    2.2610 H   0  0  0  0  0  0  0  0  0  0  0  0
    2.4890    2.2410    2.3890 H   0  0  0  0  0  0  0  0  0  0  0  0
    3.7710    1.6350    3.2790 H   0  0  0  0  0  0  0  0  0  0  0  0
    2.9160    1.8590   -0.8550 C   0  0  0  0  0  0  0  0  0  0  0  0
    1.7640    1.7270   -1.8030 C   0  0  0  0  0  0  0  0  0  0  0  0
    0.7970    2.8480   -1.4890 C   0  0  0  0  0  0  0  0  0  0  0  0
    1.1520    0.3960   -1.9390 C   0  0  0  0  0  0  0  0  0  0  0  0
    0.5490   -0.2450   -0.7130 C   0  0  2  0  0  0  0  0  0  0  0  0
    1.4830   -0.4620    0.3540 N   0  0  0  0  0  0  0  0  0  0  0  0
    0.0410   -1.5760   -1.1420 C   0  0  0  0  0  0  0  0  0  0  0  0
    0.5330   -2.6140   -0.6560 O   0  0  0  0  0  0  0  0  0  0  0  0
    3.7300    2.4340   -1.3490 H   0  0  0  0  0  0  0  0  0  0  0  0
    2.6340    2.4800    0.0260 H   0  0  0  0  0  0  0  0  0  0  0  0
    3.3330    0.8690   -0.5640 H   0  0  0  0  0  0  0  0  0  0  0  0
    2.1890    1.9960   -2.8300 H   0  0  0  0  0  0  0  0  0  0  0  0
    1.2010    3.7560   -1.9860 H   0  0  0  0  0  0  0  0  0  0  0  0
   -0.1940    2.6700   -1.9690 H   0  0  0  0  0  0  0  0  0  0  0  0
    0.7370    3.1120   -0.4290 H   0  0  0  0  0  0  0  0  0  0  0  0
    0.3100    0.5000   -2.6780 H   0  0  0  0  0  0  0  0  0  0  0  0
    1.8720   -0.2750   -2.4530 H   0  0  0  0  0  0  0  0  0  0  0  0
   -0.2890    0.3330   -0.3160 H   0  0  0  0  0  0  0  0  0  0  0  0
    2.2330   -1.1840    0.3690 H   0  0  0  0  0  0  0  0  0  0  0  0
   -4.7060   -3.1770   -0.4740 N   0  0  0  0  0  0  0  0  0  0  0  0
   -3.3710   -3.0510   -0.9050 C   0  0  0  0  0  0  0  0  0  0  0  0
   -2.5020   -2.8060   -0.0530 O   0  0  0  0  0  0  0  0  0  0  0  0
   -2.9530   -3.1940   -2.3230 C   0  0  0  0  0  0  0  0  0  0  0  0
   -1.4750   -3.0030   -2.5010 C   0  0  2  0  0  0  0  0  0  0  0  0
   -0.9940   -1.7270   -2.0950 N   0  0  0  0  0  0  0  0  0  0  0  0
   -1.1840   -3.2640   -3.9530 C   0  0  0  0  0  0  0  0  0  0  0  0
   -1.5050   -4.3220   -4.5390 O   0  0  0  0  0  0  0  0  0  0  0  0
   -0.5290   -2.2920   -4.6850 O   0  0  0  0  0  0  0  0  0  0  0  0
   -4.9410   -3.8510    0.2670 H   0  0  0  0  0  0  0  0  0  0  0  0
   -5.4430   -2.5970   -0.9010 H   0  0  0  0  0  0  0  0  0  0  0  0
   -3.5530   -2.5640   -3.0140 H   0  0  0  0  0  0  0  0  0  0  0  0
   -3.1850   -4.2520   -2.6050 H   0  0  0  0  0  0  0  0  0  0  0  0
   -0.9650   -3.8490   -1.9580 H   0  0  0  0  0  0  0  0  0  0  0  0
   -1.3980   -0.8630   -2.4940 H   0  0  0  0  0  0  0  0  0  0  0  0
  1  2  1  0  0  0  0
  1 13  1  0  0  0  0
  2  4  1  0  0  0  0
  3  2  2  0  0  0  0
  4  5  1  0  0  0  0
  4 15  1  0  0  0  0
  5  6  1  0  0  0  0
  5 16  1  0  0  0  0
  6 19  1  0  0  0  0
  6 18  1  0  0  0  0
  7 20  1  0  0  0  0
  7  6  1  0  0  0  0
  8 22  1  6  0  0  0
  8  9  1  0  0  0  0
  8  7  1  0  0  0  0
  9 24  1  0  0  0  0
 10  8  1  0  0  0  0
 11 10  2  0  0  0  0
 12  1  1  0  0  0  0
 14  3  1  0  0  0  0
 17  5  1  0  0  0  0
 21  7  1  0  0  0  0
 23  9  1  0  0  0  0
 25 35  1  0  0  0  0
 25 34  1  0  0  0  0
 26 27  1  0  0  0  0
 26 25  1  0  0  0  0
 27 39  1  0  0  0  0
 28 26  1  0  0  0  0
 28 29  1  0  0  0  0
 29 42  1  1  0  0  0
 29 30  1  0  0  0  0
 30 43  1  0  0  0  0
 30 10  1  0  0  0  0
 31 29  1  0  0  0  0
 31 32  2  0  0  0  0
 33 25  1  0  0  0  0
 36 26  1  0  0  0  0
 37 27  1  0  0  0  0
 38 27  1  0  0  0  0
 40 28  1  0  0  0  0
 41 28  1  0  0  0  0
 44 53  1  0  0  0  0
 45 44  1  0  0  0  0
 45 46  2  0  0  0  0
 47 45  1  0  0  0  0
 48 47  1  0  0  0  0
 48 49  1  0  0  0  0
 48 57  1  1  0  0  0
 49 31  1  0  0  0  0
 50 48  1  0  0  0  0
 51 50  1  0  0  0  0
 52 50  2  0  0  0  0
 54 44  1  0  0  0  0
 55 47  1  0  0  0  0
 56 47  1  0  0  0  0
 58 49  1  0  0  0  0
M  END
$$$$
