RLR.pdb
 OpenBabel07022418053D

 67 66  0  0  1  0  0  0  0  0999 V2000
    2.2010    4.9230    5.8230 N   0  0  0  0  0  0  0  0  0  0  0  0
    3.0950    3.9520    5.3010 C   0  0  0  0  0  0  0  0  0  0  0  0
    4.1540    3.6050    5.9560 N   0  0  0  0  0  0  0  0  0  0  0  0
    2.8530    3.3240    4.0250 N   0  0  0  0  0  0  0  0  0  0  0  0
    3.4870    2.0730    3.6780 C   0  0  0  0  0  0  0  0  0  0  0  0
    3.0390    1.6800    2.2900 C   0  0  0  0  0  0  0  0  0  0  0  0
    3.6490    0.3860    1.8460 C   0  0  0  0  0  0  0  0  0  0  0  0
    3.2470   -0.0540    0.4690 C   0  0  2  0  0  0  0  0  0  0  0  0
    3.6310    0.9140   -0.4920 N   0  0  0  0  0  0  0  0  0  0  0  0
    1.8060   -0.3730    0.4670 C   0  0  0  0  0  0  0  0  0  0  0  0
    1.3690   -1.0960    1.3940 O   0  0  0  0  0  0  0  0  0  0  0  0
    1.7460    4.8070    6.7580 H   0  0  0  0  0  0  0  0  0  0  0  0
    1.9960    5.7780    5.2470 H   0  0  0  0  0  0  0  0  0  0  0  0
    4.3490    4.0500    6.8850 H   0  0  0  0  0  0  0  0  0  0  0  0
    2.2130    3.7700    3.3380 H   0  0  0  0  0  0  0  0  0  0  0  0
    3.1380    1.2640    4.3660 H   0  0  0  0  0  0  0  0  0  0  0  0
    4.5850    2.2220    3.7370 H   0  0  0  0  0  0  0  0  0  0  0  0
    3.2600    2.5090    1.5760 H   0  0  0  0  0  0  0  0  0  0  0  0
    1.9250    1.5240    2.3810 H   0  0  0  0  0  0  0  0  0  0  0  0
    3.3850   -0.3870    2.6060 H   0  0  0  0  0  0  0  0  0  0  0  0
    4.7580    0.5040    1.9090 H   0  0  0  0  0  0  0  0  0  0  0  0
    3.8090   -1.0070    0.2550 H   0  0  0  0  0  0  0  0  0  0  0  0
    4.4040    1.5430   -0.2600 H   0  0  0  0  0  0  0  0  0  0  0  0
    3.5650    0.6250   -1.4780 H   0  0  0  0  0  0  0  0  0  0  0  0
   -1.3910    1.6210    1.8480 C   0  0  0  0  0  0  0  0  0  0  0  0
   -1.1620    2.0100    0.4050 C   0  0  0  0  0  0  0  0  0  0  0  0
    0.0460    2.8550    0.2140 C   0  0  0  0  0  0  0  0  0  0  0  0
   -1.3510    0.8900   -0.5410 C   0  0  0  0  0  0  0  0  0  0  0  0
   -0.5010   -0.3150   -0.3780 C   0  0  2  0  0  0  0  0  0  0  0  0
    0.8890    0.0790   -0.5040 N   0  0  0  0  0  0  0  0  0  0  0  0
   -0.8800   -1.2520   -1.4910 C   0  0  0  0  0  0  0  0  0  0  0  0
   -0.0180   -1.5800   -2.3450 O   0  0  0  0  0  0  0  0  0  0  0  0
   -0.6430    0.9100    2.2420 H   0  0  0  0  0  0  0  0  0  0  0  0
   -2.4270    1.1950    1.9390 H   0  0  0  0  0  0  0  0  0  0  0  0
   -1.4360    2.5730    2.4360 H   0  0  0  0  0  0  0  0  0  0  0  0
   -2.0360    2.7210    0.1880 H   0  0  0  0  0  0  0  0  0  0  0  0
    0.0250    3.3880   -0.7800 H   0  0  0  0  0  0  0  0  0  0  0  0
   -0.0360    3.7100    0.9480 H   0  0  0  0  0  0  0  0  0  0  0  0
    1.0140    2.4020    0.3600 H   0  0  0  0  0  0  0  0  0  0  0  0
   -2.4390    0.5800   -0.4990 H   0  0  0  0  0  0  0  0  0  0  0  0
   -1.2390    1.2530   -1.6070 H   0  0  0  0  0  0  0  0  0  0  0  0
   -0.6990   -0.7880    0.6040 H   0  0  0  0  0  0  0  0  0  0  0  0
    1.2310    0.6800   -1.2840 H   0  0  0  0  0  0  0  0  0  0  0  0
   -0.5830   -6.2190    0.1520 N   0  0  0  0  0  0  0  0  0  0  0  0
   -1.9590   -6.2890   -0.1590 C   0  0  0  0  0  0  0  0  0  0  0  0
   -2.8110   -5.7750    0.6680 N   0  0  0  0  0  0  0  0  0  0  0  0
   -2.4640   -6.8990   -1.3380 N   0  0  0  0  0  0  0  0  0  0  0  0
   -3.5450   -6.3690   -2.1090 C   0  0  0  0  0  0  0  0  0  0  0  0
   -3.2520   -5.1140   -2.8810 C   0  0  0  0  0  0  0  0  0  0  0  0
   -2.8430   -4.0240   -1.9760 C   0  0  0  0  0  0  0  0  0  0  0  0
   -2.5550   -2.7090   -2.7190 C   0  0  2  0  0  0  0  0  0  0  0  0
   -2.1710   -1.7910   -1.6330 N   0  0  0  0  0  0  0  0  0  0  0  0
   -3.7020   -2.1950   -3.4630 C   0  0  0  0  0  0  0  0  0  0  0  0
   -4.1470   -2.8270   -4.4480 O   0  0  0  0  0  0  0  0  0  0  0  0
   -4.3270   -1.0080   -3.1080 O   0  0  0  0  0  0  0  0  0  0  0  0
    0.0520   -5.6330   -0.4240 H   0  0  0  0  0  0  0  0  0  0  0  0
   -0.2130   -6.7680    0.9720 H   0  0  0  0  0  0  0  0  0  0  0  0
   -2.5260   -5.3190    1.5420 H   0  0  0  0  0  0  0  0  0  0  0  0
   -1.9760   -7.8000   -1.6290 H   0  0  0  0  0  0  0  0  0  0  0  0
   -3.8470   -7.1690   -2.8420 H   0  0  0  0  0  0  0  0  0  0  0  0
   -4.4300   -6.2270   -1.4320 H   0  0  0  0  0  0  0  0  0  0  0  0
   -4.2470   -4.8240   -3.3430 H   0  0  0  0  0  0  0  0  0  0  0  0
   -2.5570   -5.2940   -3.7300 H   0  0  0  0  0  0  0  0  0  0  0  0
   -3.5990   -3.8430   -1.1950 H   0  0  0  0  0  0  0  0  0  0  0  0
   -1.8810   -4.2620   -1.4360 H   0  0  0  0  0  0  0  0  0  0  0  0
   -1.6630   -2.8840   -3.3400 H   0  0  0  0  0  0  0  0  0  0  0  0
   -2.9200   -1.5550   -0.9560 H   0  0  0  0  0  0  0  0  0  0  0  0
  1 12  1  0  0  0  0
  2  1  1  0  0  0  0
  2  3  2  0  0  0  0
  3 14  1  0  0  0  0
  4  2  1  0  0  0  0
  5 17  1  0  0  0  0
  5  4  1  0  0  0  0
  5 16  1  0  0  0  0
  6 19  1  0  0  0  0
  6  5  1  0  0  0  0
  7 21  1  0  0  0  0
  7  6  1  0  0  0  0
  7 20  1  0  0  0  0
  8 22  1  6  0  0  0
  8  7  1  0  0  0  0
  9 23  1  0  0  0  0
  9  8  1  0  0  0  0
 10  8  1  0  0  0  0
 10 11  2  0  0  0  0
 13  1  1  0  0  0  0
 15  4  1  0  0  0  0
 18  6  1  0  0  0  0
 24  9  1  0  0  0  0
 25 34  1  0  0  0  0
 25 33  1  0  0  0  0
 25 35  1  0  0  0  0
 26 25  1  0  0  0  0
 27 39  1  0  0  0  0
 27 26  1  0  0  0  0
 27 38  1  0  0  0  0
 28 40  1  0  0  0  0
 28 29  1  0  0  0  0
 28 26  1  0  0  0  0
 29 42  1  1  0  0  0
 30 29  1  0  0  0  0
 30 10  1  0  0  0  0
 31 29  1  0  0  0  0
 32 31  2  0  0  0  0
 36 26  1  0  0  0  0
 37 27  1  0  0  0  0
 41 28  1  0  0  0  0
 43 30  1  0  0  0  0
 44 57  1  0  0  0  0
 45 44  1  0  0  0  0
 45 46  2  0  0  0  0
 46 58  1  0  0  0  0
 47 45  1  0  0  0  0
 48 61  1  0  0  0  0
 48 47  1  0  0  0  0
 49 48  1  0  0  0  0
 49 50  1  0  0  0  0
 50 65  1  0  0  0  0
 50 64  1  0  0  0  0
 51 66  1  6  0  0  0
 51 50  1  0  0  0  0
 51 52  1  0  0  0  0
 52 31  1  0  0  0  0
 52 67  1  0  0  0  0
 53 55  1  0  0  0  0
 53 51  1  0  0  0  0
 54 53  2  0  0  0  0
 56 44  1  0  0  0  0
 59 47  1  0  0  0  0
 60 48  1  0  0  0  0
 62 49  1  0  0  0  0
 63 49  1  0  0  0  0
M  END
$$$$
