RLT.pdb
 OpenBabel07022418053D

 58 57  0  0  1  0  0  0  0  0999 V2000
    1.6250   -0.8790    5.8340 N   0  0  0  0  0  0  0  0  0  0  0  0
    2.3010   -1.3540    4.6870 C   0  0  0  0  0  0  0  0  0  0  0  0
    2.0970   -2.5940    4.3290 N   0  0  0  0  0  0  0  0  0  0  0  0
    3.1900   -0.5270    3.9400 N   0  0  0  0  0  0  0  0  0  0  0  0
    3.2320   -0.6900    2.4940 C   0  0  0  0  0  0  0  0  0  0  0  0
    4.2960    0.1690    1.8870 C   0  0  0  0  0  0  0  0  0  0  0  0
    4.4010    0.0320    0.4230 C   0  0  0  0  0  0  0  0  0  0  0  0
    3.2520    0.4040   -0.4230 C   0  0  2  0  0  0  0  0  0  0  0  0
    2.8780    1.8030   -0.2520 N   0  0  0  0  0  0  0  0  0  0  0  0
    2.0570   -0.4640   -0.3060 C   0  0  0  0  0  0  0  0  0  0  0  0
    2.2370   -1.7110   -0.2420 O   0  0  0  0  0  0  0  0  0  0  0  0
    1.8840   -1.2370    6.7620 H   0  0  0  0  0  0  0  0  0  0  0  0
    0.8790   -0.1790    5.7320 H   0  0  0  0  0  0  0  0  0  0  0  0
    1.4580   -3.1630    4.8920 H   0  0  0  0  0  0  0  0  0  0  0  0
    3.7650    0.1560    4.4740 H   0  0  0  0  0  0  0  0  0  0  0  0
    3.4210   -1.7350    2.2420 H   0  0  0  0  0  0  0  0  0  0  0  0
    2.2560   -0.3100    2.1100 H   0  0  0  0  0  0  0  0  0  0  0  0
    4.2190    1.2210    2.2440 H   0  0  0  0  0  0  0  0  0  0  0  0
    5.2700   -0.1930    2.3380 H   0  0  0  0  0  0  0  0  0  0  0  0
    4.7190   -1.0230    0.1940 H   0  0  0  0  0  0  0  0  0  0  0  0
    5.2850    0.6380    0.0670 H   0  0  0  0  0  0  0  0  0  0  0  0
    3.6350    0.3460   -1.4990 H   0  0  0  0  0  0  0  0  0  0  0  0
    3.7330    2.3750   -0.3280 H   0  0  0  0  0  0  0  0  0  0  0  0
    2.4690    1.9840    0.6900 H   0  0  0  0  0  0  0  0  0  0  0  0
   -0.5390   -1.5580    2.6800 C   0  0  0  0  0  0  0  0  0  0  0  0
   -1.0100   -0.1900    2.2320 C   0  0  0  0  0  0  0  0  0  0  0  0
   -2.2800    0.1020    3.0460 C   0  0  0  0  0  0  0  0  0  0  0  0
   -1.4260   -0.3020    0.8130 C   0  0  0  0  0  0  0  0  0  0  0  0
   -0.3980   -0.7300   -0.1730 C   0  0  2  0  0  0  0  0  0  0  0  0
    0.7350    0.1180   -0.2730 N   0  0  0  0  0  0  0  0  0  0  0  0
   -1.1000   -0.8450   -1.5140 C   0  0  0  0  0  0  0  0  0  0  0  0
   -0.7060   -0.1950   -2.4960 O   0  0  0  0  0  0  0  0  0  0  0  0
    0.4240   -1.8540    2.2170 H   0  0  0  0  0  0  0  0  0  0  0  0
   -0.4480   -1.5930    3.7900 H   0  0  0  0  0  0  0  0  0  0  0  0
   -1.2730   -2.3490    2.4240 H   0  0  0  0  0  0  0  0  0  0  0  0
   -0.3110    0.6050    2.4710 H   0  0  0  0  0  0  0  0  0  0  0  0
   -3.1430   -0.4500    2.6290 H   0  0  0  0  0  0  0  0  0  0  0  0
   -2.1450   -0.2310    4.1050 H   0  0  0  0  0  0  0  0  0  0  0  0
   -2.5400    1.1640    3.0450 H   0  0  0  0  0  0  0  0  0  0  0  0
   -2.3440   -0.9240    0.7910 H   0  0  0  0  0  0  0  0  0  0  0  0
   -1.8050    0.7250    0.5170 H   0  0  0  0  0  0  0  0  0  0  0  0
   -0.0830   -1.7630    0.0360 H   0  0  0  0  0  0  0  0  0  0  0  0
    0.7150    1.1610   -0.3290 H   0  0  0  0  0  0  0  0  0  0  0  0
   -4.9250   -1.4070   -4.1810 C   0  0  0  0  0  0  0  0  0  0  0  0
   -4.0290   -0.9430   -3.0350 C   0  0  1  0  0  0  0  0  0  0  0  0
   -4.8890   -0.8600   -1.9250 O   0  0  0  0  0  0  0  0  0  0  0  0
   -3.0000   -1.9730   -2.7700 C   0  0  2  0  0  0  0  0  0  0  0  0
   -2.2070   -1.7180   -1.5910 N   0  0  0  0  0  0  0  0  0  0  0  0
   -2.1740   -2.2040   -3.9910 C   0  0  0  0  0  0  0  0  0  0  0  0
   -2.7090   -2.3660   -5.1090 O   0  0  0  0  0  0  0  0  0  0  0  0
   -0.7960   -2.2530   -3.9390 O   0  0  0  0  0  0  0  0  0  0  0  0
   -4.8280   -2.5070   -4.2350 H   0  0  0  0  0  0  0  0  0  0  0  0
   -5.9820   -1.0970   -3.9970 H   0  0  0  0  0  0  0  0  0  0  0  0
   -4.5360   -0.9810   -5.1160 H   0  0  0  0  0  0  0  0  0  0  0  0
   -3.6220    0.0310   -3.3220 H   0  0  0  0  0  0  0  0  0  0  0  0
   -4.3150   -0.8050   -1.1400 H   0  0  0  0  0  0  0  0  0  0  0  0
   -3.5200   -2.9710   -2.5980 H   0  0  0  0  0  0  0  0  0  0  0  0
   -2.4770   -2.2300   -0.7140 H   0  0  0  0  0  0  0  0  0  0  0  0
  1 12  1  0  0  0  0
  2  1  1  0  0  0  0
  3  2  2  0  0  0  0
  3 14  1  0  0  0  0
  4 15  1  0  0  0  0
  4  2  1  0  0  0  0
  5  4  1  0  0  0  0
  6 18  1  0  0  0  0
  6 19  1  0  0  0  0
  6  5  1  0  0  0  0
  7  6  1  0  0  0  0
  8 22  1  6  0  0  0
  8 10  1  0  0  0  0
  8  9  1  0  0  0  0
  8  7  1  0  0  0  0
  9 24  1  0  0  0  0
 10 30  1  0  0  0  0
 10 11  2  0  0  0  0
 13  1  1  0  0  0  0
 16  5  1  0  0  0  0
 17  5  1  0  0  0  0
 20  7  1  0  0  0  0
 21  7  1  0  0  0  0
 23  9  1  0  0  0  0
 25 34  1  0  0  0  0
 26 36  1  0  0  0  0
 26 25  1  0  0  0  0
 26 27  1  0  0  0  0
 27 38  1  0  0  0  0
 28 26  1  0  0  0  0
 29 42  1  1  0  0  0
 29 28  1  0  0  0  0
 30 29  1  0  0  0  0
 31 29  1  0  0  0  0
 32 31  2  0  0  0  0
 33 25  1  0  0  0  0
 35 25  1  0  0  0  0
 37 27  1  0  0  0  0
 39 27  1  0  0  0  0
 40 28  1  0  0  0  0
 41 28  1  0  0  0  0
 43 30  1  0  0  0  0
 44 53  1  0  0  0  0
 44 45  1  0  0  0  0
 45 55  1  6  0  0  0
 45 47  1  0  0  0  0
 45 46  1  0  0  0  0
 46 56  1  0  0  0  0
 47 57  1  1  0  0  0
 47 48  1  0  0  0  0
 48 31  1  0  0  0  0
 48 58  1  0  0  0  0
 49 51  1  0  0  0  0
 49 47  1  0  0  0  0
 50 49  2  0  0  0  0
 52 44  1  0  0  0  0
 54 44  1  0  0  0  0
M  END
$$$$
