RLV.pdb
 OpenBabel07022418063D

 60 59  0  0  1  0  0  0  0  0999 V2000
    0.2100   -1.1260    4.9150 N   0  0  0  0  0  0  0  0  0  0  0  0
    1.0270   -0.0480    4.4840 C   0  0  0  0  0  0  0  0  0  0  0  0
    0.6520    1.1660    4.6800 N   0  0  0  0  0  0  0  0  0  0  0  0
    2.2560   -0.2950    3.8400 N   0  0  0  0  0  0  0  0  0  0  0  0
    2.8060    0.6400    2.8520 C   0  0  0  0  0  0  0  0  0  0  0  0
    4.1250    0.1340    2.3590 C   0  0  0  0  0  0  0  0  0  0  0  0
    4.1180   -1.1620    1.6460 C   0  0  0  0  0  0  0  0  0  0  0  0
    3.3960   -1.2510    0.3550 C   0  0  2  0  0  0  0  0  0  0  0  0
    3.9130   -0.3290   -0.6450 N   0  0  0  0  0  0  0  0  0  0  0  0
    1.9400   -1.1800    0.4830 C   0  0  0  0  0  0  0  0  0  0  0  0
    1.3520   -1.8280    1.3660 O   0  0  0  0  0  0  0  0  0  0  0  0
    0.4740   -1.7570    5.7150 H   0  0  0  0  0  0  0  0  0  0  0  0
   -0.6960   -1.3350    4.4470 H   0  0  0  0  0  0  0  0  0  0  0  0
   -0.2550    1.3990    5.1570 H   0  0  0  0  0  0  0  0  0  0  0  0
    2.7930   -1.1620    4.0670 H   0  0  0  0  0  0  0  0  0  0  0  0
    2.0500    0.7140    2.0670 H   0  0  0  0  0  0  0  0  0  0  0  0
    2.9690    1.6330    3.2950 H   0  0  0  0  0  0  0  0  0  0  0  0
    4.6300    0.9470    1.7730 H   0  0  0  0  0  0  0  0  0  0  0  0
    4.8130    0.0080    3.2520 H   0  0  0  0  0  0  0  0  0  0  0  0
    5.1860   -1.4920    1.5100 H   0  0  0  0  0  0  0  0  0  0  0  0
    3.7260   -1.9300    2.3870 H   0  0  0  0  0  0  0  0  0  0  0  0
    3.6360   -2.2770   -0.0610 H   0  0  0  0  0  0  0  0  0  0  0  0
    3.6660    0.6590   -0.4240 H   0  0  0  0  0  0  0  0  0  0  0  0
    3.5860   -0.6540   -1.5710 H   0  0  0  0  0  0  0  0  0  0  0  0
   -0.6270    2.0340    1.7800 C   0  0  0  0  0  0  0  0  0  0  0  0
   -0.4920    2.1080    0.3010 C   0  0  0  0  0  0  0  0  0  0  0  0
    0.8370    2.6770   -0.1410 C   0  0  0  0  0  0  0  0  0  0  0  0
   -0.9430    0.9140   -0.4510 C   0  0  0  0  0  0  0  0  0  0  0  0
   -0.3020   -0.3840   -0.1630 C   0  0  2  0  0  0  0  0  0  0  0  0
    1.1270   -0.3770   -0.3910 N   0  0  0  0  0  0  0  0  0  0  0  0
   -0.9410   -1.3660   -1.1560 C   0  0  0  0  0  0  0  0  0  0  0  0
   -0.2220   -1.9820   -1.9780 O   0  0  0  0  0  0  0  0  0  0  0  0
   -0.4910    0.9800    2.1160 H   0  0  0  0  0  0  0  0  0  0  0  0
   -1.6560    2.3080    2.0890 H   0  0  0  0  0  0  0  0  0  0  0  0
    0.0590    2.7270    2.3070 H   0  0  0  0  0  0  0  0  0  0  0  0
   -1.2300    2.9380   -0.0080 H   0  0  0  0  0  0  0  0  0  0  0  0
    1.7160    2.1210    0.2220 H   0  0  0  0  0  0  0  0  0  0  0  0
    0.8630    2.8240   -1.2510 H   0  0  0  0  0  0  0  0  0  0  0  0
    0.9660    3.7240    0.2640 H   0  0  0  0  0  0  0  0  0  0  0  0
   -0.8730    1.1860   -1.5490 H   0  0  0  0  0  0  0  0  0  0  0  0
   -2.0490    0.7830   -0.2380 H   0  0  0  0  0  0  0  0  0  0  0  0
   -0.5690   -0.7390    0.8420 H   0  0  0  0  0  0  0  0  0  0  0  0
    1.5860    0.1720   -1.1460 H   0  0  0  0  0  0  0  0  0  0  0  0
   -4.3660   -4.5680   -2.3180 C   0  0  0  0  0  0  0  0  0  0  0  0
   -3.6600   -3.6590   -1.3360 C   0  0  0  0  0  0  0  0  0  0  0  0
   -2.5880   -4.5240   -0.6620 C   0  0  0  0  0  0  0  0  0  0  0  0
   -3.0140   -2.4910   -2.0530 C   0  0  2  0  0  0  0  0  0  0  0  0
   -2.3330   -1.6000   -1.1710 N   0  0  0  0  0  0  0  0  0  0  0  0
   -3.9700   -1.8060   -2.9530 C   0  0  0  0  0  0  0  0  0  0  0  0
   -4.1380   -0.5400   -2.9080 O   0  0  0  0  0  0  0  0  0  0  0  0
   -4.7380   -2.4790   -3.8910 O   0  0  0  0  0  0  0  0  0  0  0  0
   -3.8280   -4.6340   -3.2940 H   0  0  0  0  0  0  0  0  0  0  0  0
   -4.4150   -5.6220   -1.9280 H   0  0  0  0  0  0  0  0  0  0  0  0
   -5.4030   -4.2630   -2.5180 H   0  0  0  0  0  0  0  0  0  0  0  0
   -4.3580   -3.3660   -0.5480 H   0  0  0  0  0  0  0  0  0  0  0  0
   -3.0230   -5.2300    0.0430 H   0  0  0  0  0  0  0  0  0  0  0  0
   -2.0960   -5.0960   -1.4740 H   0  0  0  0  0  0  0  0  0  0  0  0
   -1.7960   -3.8830   -0.2060 H   0  0  0  0  0  0  0  0  0  0  0  0
   -2.2290   -2.9530   -2.7210 H   0  0  0  0  0  0  0  0  0  0  0  0
   -2.8940   -1.0520   -0.4510 H   0  0  0  0  0  0  0  0  0  0  0  0
  1 12  1  0  0  0  0
  2  3  2  0  0  0  0
  2  1  1  0  0  0  0
  3 14  1  0  0  0  0
  4 15  1  0  0  0  0
  4  2  1  0  0  0  0
  5 17  1  0  0  0  0
  5  4  1  0  0  0  0
  6  5  1  0  0  0  0
  6 19  1  0  0  0  0
  7  6  1  0  0  0  0
  7 21  1  0  0  0  0
  8 22  1  6  0  0  0
  8 10  1  0  0  0  0
  8  7  1  0  0  0  0
  9 23  1  0  0  0  0
  9  8  1  0  0  0  0
 10 11  2  0  0  0  0
 13  1  1  0  0  0  0
 16  5  1  0  0  0  0
 18  6  1  0  0  0  0
 20  7  1  0  0  0  0
 24  9  1  0  0  0  0
 25 34  1  0  0  0  0
 25 33  1  0  0  0  0
 25 35  1  0  0  0  0
 26 25  1  0  0  0  0
 27 37  1  0  0  0  0
 27 39  1  0  0  0  0
 27 26  1  0  0  0  0
 28 41  1  0  0  0  0
 28 29  1  0  0  0  0
 28 26  1  0  0  0  0
 29 42  1  1  0  0  0
 30 29  1  0  0  0  0
 30 10  1  0  0  0  0
 31 29  1  0  0  0  0
 32 31  2  0  0  0  0
 36 26  1  0  0  0  0
 38 27  1  0  0  0  0
 40 28  1  0  0  0  0
 43 30  1  0  0  0  0
 44 53  1  0  0  0  0
 44 45  1  0  0  0  0
 45 46  1  0  0  0  0
 45 55  1  0  0  0  0
 46 58  1  0  0  0  0
 46 56  1  0  0  0  0
 47 59  1  6  0  0  0
 47 45  1  0  0  0  0
 47 48  1  0  0  0  0
 48 31  1  0  0  0  0
 48 60  1  0  0  0  0
 49 50  1  0  0  0  0
 49 47  1  0  0  0  0
 51 49  2  0  0  0  0
 52 44  1  0  0  0  0
 54 44  1  0  0  0  0
 57 46  1  0  0  0  0
M  END
$$$$
