RMC.pdb
 OpenBabel07022418063D

 53 52  0  0  1  0  0  0  0  0999 V2000
    2.7940   -5.6060    3.3420 N   0  0  0  0  0  0  0  0  0  0  0  0
    1.9680   -4.8090    2.4800 C   0  0  0  0  0  0  0  0  0  0  0  0
    0.7140   -5.1340    2.4390 N   0  0  0  0  0  0  0  0  0  0  0  0
    2.4700   -3.7330    1.7140 N   0  0  0  0  0  0  0  0  0  0  0  0
    1.6540   -3.0160    0.7810 C   0  0  0  0  0  0  0  0  0  0  0  0
    2.3710   -1.9200    0.0710 C   0  0  0  0  0  0  0  0  0  0  0  0
    2.9460   -0.8440    0.9020 C   0  0  0  0  0  0  0  0  0  0  0  0
    2.0180   -0.0470    1.7370 C   0  0  2  0  0  0  0  0  0  0  0  0
    1.3380   -0.9130    2.6740 N   0  0  0  0  0  0  0  0  0  0  0  0
    1.0190    0.7200    0.9260 C   0  0  0  0  0  0  0  0  0  0  0  0
    1.4090    1.5570    0.0660 O   0  0  0  0  0  0  0  0  0  0  0  0
    3.3940   -6.3770    2.9950 H   0  0  0  0  0  0  0  0  0  0  0  0
    2.8000   -5.4140    4.3520 H   0  0  0  0  0  0  0  0  0  0  0  0
    0.0030   -4.6520    1.8660 H   0  0  0  0  0  0  0  0  0  0  0  0
    3.4630   -3.4560    1.8350 H   0  0  0  0  0  0  0  0  0  0  0  0
    0.7110   -2.6850    1.2710 H   0  0  0  0  0  0  0  0  0  0  0  0
    1.2900   -3.7920    0.0340 H   0  0  0  0  0  0  0  0  0  0  0  0
    3.2350   -2.4090   -0.4690 H   0  0  0  0  0  0  0  0  0  0  0  0
    1.7240   -1.4870   -0.7210 H   0  0  0  0  0  0  0  0  0  0  0  0
    3.5070   -0.1170    0.2420 H   0  0  0  0  0  0  0  0  0  0  0  0
    3.7600   -1.2630    1.5630 H   0  0  0  0  0  0  0  0  0  0  0  0
    2.6210    0.6630    2.3740 H   0  0  0  0  0  0  0  0  0  0  0  0
    0.7830   -0.2950    3.3380 H   0  0  0  0  0  0  0  0  0  0  0  0
    2.0100   -1.4610    3.2570 H   0  0  0  0  0  0  0  0  0  0  0  0
    1.1210    4.7400   -1.1740 C   0  0  0  0  0  0  0  0  0  0  0  0
   -0.3250    4.9810   -0.1050 S   0  0  0  0  0  0  0  0  0  0  0  0
   -0.7190    3.4490    0.7830 C   0  0  0  0  0  0  0  0  0  0  0  0
   -1.1570    2.4380   -0.2170 C   0  0  0  0  0  0  0  0  0  0  0  0
   -1.4550    1.1300    0.4920 C   0  0  2  0  0  0  0  0  0  0  0  0
   -0.3610    0.5010    1.1300 N   0  0  0  0  0  0  0  0  0  0  0  0
   -2.3380    0.2190   -0.2350 C   0  0  0  0  0  0  0  0  0  0  0  0
   -3.3610    0.5820   -0.8580 O   0  0  0  0  0  0  0  0  0  0  0  0
    0.9930    3.7620   -1.7000 H   0  0  0  0  0  0  0  0  0  0  0  0
    2.0430    4.7250   -0.5560 H   0  0  0  0  0  0  0  0  0  0  0  0
    1.1440    5.5630   -1.9220 H   0  0  0  0  0  0  0  0  0  0  0  0
    0.0520    3.1810    1.4780 H   0  0  0  0  0  0  0  0  0  0  0  0
   -1.6170    3.7260    1.4450 H   0  0  0  0  0  0  0  0  0  0  0  0
   -2.1560    2.7810   -0.6170 H   0  0  0  0  0  0  0  0  0  0  0  0
   -0.5090    2.3340   -1.0840 H   0  0  0  0  0  0  0  0  0  0  0  0
   -2.0880    1.5490    1.3810 H   0  0  0  0  0  0  0  0  0  0  0  0
   -0.6020   -0.2360    1.8610 H   0  0  0  0  0  0  0  0  0  0  0  0
   -1.9970   -1.1570   -0.2220 N   0  0  0  0  0  0  0  0  0  0  0  0
   -2.7110   -2.1890   -0.8740 C   0  0  1  0  0  0  0  0  0  0  0  0
   -3.7420   -2.8930   -0.0370 C   0  0  0  0  0  0  0  0  0  0  0  0
   -4.9740   -1.6870    0.5240 S   0  0  0  0  0  0  0  0  0  0  0  0
   -3.2310   -1.8390   -2.2310 C   0  0  0  0  0  0  0  0  0  0  0  0
   -3.9720   -2.7210   -2.7670 O   0  0  0  0  0  0  0  0  0  0  0  0
   -2.9930   -0.7020   -2.9290 O   0  0  0  0  0  0  0  0  0  0  0  0
   -1.1230   -1.4710    0.3300 H   0  0  0  0  0  0  0  0  0  0  0  0
   -1.9180   -2.9850   -1.1300 H   0  0  0  0  0  0  0  0  0  0  0  0
   -4.2540   -3.6430   -0.6690 H   0  0  0  0  0  0  0  0  0  0  0  0
   -3.2790   -3.4150    0.8030 H   0  0  0  0  0  0  0  0  0  0  0  0
   -5.5430   -1.0910   -0.6180 H   0  0  0  0  0  0  0  0  0  0  0  0
  1 13  1  0  0  0  0
  2  1  1  0  0  0  0
  3  2  2  0  0  0  0
  4 15  1  0  0  0  0
  4  2  1  0  0  0  0
  5 16  1  0  0  0  0
  5  4  1  0  0  0  0
  6  5  1  0  0  0  0
  6  7  1  0  0  0  0
  7 21  1  0  0  0  0
  7  8  1  0  0  0  0
  8 22  1  1  0  0  0
  8  9  1  0  0  0  0
  9 24  1  0  0  0  0
  9 23  1  0  0  0  0
 10 30  1  0  0  0  0
 10  8  1  0  0  0  0
 11 10  2  0  0  0  0
 12  1  1  0  0  0  0
 14  3  1  0  0  0  0
 17  5  1  0  0  0  0
 18  6  1  0  0  0  0
 19  6  1  0  0  0  0
 20  7  1  0  0  0  0
 25 34  1  0  0  0  0
 25 26  1  0  0  0  0
 26 27  1  0  0  0  0
 27 37  1  0  0  0  0
 27 36  1  0  0  0  0
 28 29  1  0  0  0  0
 28 27  1  0  0  0  0
 29 30  1  0  0  0  0
 29 40  1  1  0  0  0
 30 41  1  0  0  0  0
 31 42  1  0  0  0  0
 31 29  1  0  0  0  0
 32 31  2  0  0  0  0
 33 25  1  0  0  0  0
 35 25  1  0  0  0  0
 38 28  1  0  0  0  0
 39 28  1  0  0  0  0
 42 49  1  0  0  0  0
 43 50  1  6  0  0  0
 43 42  1  0  0  0  0
 43 44  1  0  0  0  0
 44 45  1  0  0  0  0
 44 52  1  0  0  0  0
 46 43  1  0  0  0  0
 47 46  1  0  0  0  0
 48 46  2  0  0  0  0
 51 44  1  0  0  0  0
 53 45  1  0  0  0  0
M  END
$$$$
