RMD.pdb
 OpenBabel07022418063D

 55 54  0  0  1  0  0  0  0  0999 V2000
    0.3750    0.5350    6.3660 N   0  0  0  0  0  0  0  0  0  0  0  0
    0.7730    1.1840    5.1770 C   0  0  0  0  0  0  0  0  0  0  0  0
   -0.0570    1.3840    4.1810 N   0  0  0  0  0  0  0  0  0  0  0  0
    2.0970    1.6700    4.9680 N   0  0  0  0  0  0  0  0  0  0  0  0
    2.7620    1.6050    3.6640 C   0  0  0  0  0  0  0  0  0  0  0  0
    3.0290    0.1750    3.3760 C   0  0  0  0  0  0  0  0  0  0  0  0
    3.7160   -0.1550    2.1140 C   0  0  0  0  0  0  0  0  0  0  0  0
    3.0600    0.2220    0.8320 C   0  0  2  0  0  0  0  0  0  0  0  0
    2.8610    1.6250    0.7650 N   0  0  0  0  0  0  0  0  0  0  0  0
    1.9280   -0.6320    0.4540 C   0  0  0  0  0  0  0  0  0  0  0  0
    2.0930   -1.8850    0.6690 O   0  0  0  0  0  0  0  0  0  0  0  0
    0.2710    1.0730    7.2400 H   0  0  0  0  0  0  0  0  0  0  0  0
    0.1860   -0.4800    6.3700 H   0  0  0  0  0  0  0  0  0  0  0  0
   -1.0470    1.0280    4.3210 H   0  0  0  0  0  0  0  0  0  0  0  0
    2.6060    2.0820    5.7790 H   0  0  0  0  0  0  0  0  0  0  0  0
    2.1690    2.1620    2.9440 H   0  0  0  0  0  0  0  0  0  0  0  0
    3.7440    2.1410    3.7350 H   0  0  0  0  0  0  0  0  0  0  0  0
    3.6990   -0.1940    4.2100 H   0  0  0  0  0  0  0  0  0  0  0  0
    2.0900   -0.4280    3.5030 H   0  0  0  0  0  0  0  0  0  0  0  0
    3.8950   -1.2670    2.0770 H   0  0  0  0  0  0  0  0  0  0  0  0
    4.7500    0.2730    2.0860 H   0  0  0  0  0  0  0  0  0  0  0  0
    3.8670    0.0070    0.0330 H   0  0  0  0  0  0  0  0  0  0  0  0
    1.9280    1.9800    0.5780 H   0  0  0  0  0  0  0  0  0  0  0  0
    3.5450    2.1470    0.1890 H   0  0  0  0  0  0  0  0  0  0  0  0
   -3.9060    1.2770    1.5120 C   0  0  0  0  0  0  0  0  0  0  0  0
   -3.4250   -0.3610    2.1150 S   0  0  0  0  0  0  0  0  0  0  0  0
   -1.7100   -0.7550    1.6000 C   0  0  0  0  0  0  0  0  0  0  0  0
   -1.6670   -0.8850    0.0940 C   0  0  0  0  0  0  0  0  0  0  0  0
   -0.3100   -1.2020   -0.4300 C   0  0  2  0  0  0  0  0  0  0  0  0
    0.7030   -0.2110   -0.1150 N   0  0  0  0  0  0  0  0  0  0  0  0
   -0.4590   -1.3440   -1.9210 C   0  0  0  0  0  0  0  0  0  0  0  0
    0.2770   -0.6230   -2.6340 O   0  0  0  0  0  0  0  0  0  0  0  0
   -4.8030    1.6010    2.0740 H   0  0  0  0  0  0  0  0  0  0  0  0
   -3.1100    2.0270    1.5910 H   0  0  0  0  0  0  0  0  0  0  0  0
   -4.1800    1.2200    0.4300 H   0  0  0  0  0  0  0  0  0  0  0  0
   -0.9860   -0.0280    1.9820 H   0  0  0  0  0  0  0  0  0  0  0  0
   -1.4670   -1.7310    2.0710 H   0  0  0  0  0  0  0  0  0  0  0  0
   -2.3520   -1.6990   -0.2160 H   0  0  0  0  0  0  0  0  0  0  0  0
   -2.0900    0.0610   -0.3220 H   0  0  0  0  0  0  0  0  0  0  0  0
   -0.0150   -2.2100   -0.0850 H   0  0  0  0  0  0  0  0  0  0  0  0
    0.5770    0.7990   -0.2870 H   0  0  0  0  0  0  0  0  0  0  0  0
   -1.3870   -2.2480   -2.5010 N   0  0  0  0  0  0  0  0  0  0  0  0
   -1.5280   -2.3820   -3.9190 C   0  0  1  0  0  0  0  0  0  0  0  0
   -1.1540   -3.7510   -4.4310 C   0  0  0  0  0  0  0  0  0  0  0  0
   -1.9800   -4.8350   -3.8490 C   0  0  0  0  0  0  0  0  0  0  0  0
   -2.8930   -4.6550   -3.0230 O   0  0  0  0  0  0  0  0  0  0  0  0
   -2.8770   -1.9770   -4.3470 C   0  0  0  0  0  0  0  0  0  0  0  0
   -3.7040   -1.5880   -3.4810 O   0  0  0  0  0  0  0  0  0  0  0  0
   -1.7060   -6.1260   -4.2630 O   0  0  0  0  0  0  0  0  0  0  0  0
   -3.3280   -1.9880   -5.6570 O   0  0  0  0  0  0  0  0  0  0  0  0
   -1.9950   -2.8440   -1.8620 H   0  0  0  0  0  0  0  0  0  0  0  0
   -0.8120   -1.6680   -4.4070 H   0  0  0  0  0  0  0  0  0  0  0  0
   -0.0960   -3.9360   -4.1200 H   0  0  0  0  0  0  0  0  0  0  0  0
   -1.2040   -3.7040   -5.5300 H   0  0  0  0  0  0  0  0  0  0  0  0
   -1.8760   -6.9380   -3.6790 H   0  0  0  0  0  0  0  0  0  0  0  0
  1 13  1  0  0  0  0
  1 12  1  0  0  0  0
  2  1  1  0  0  0  0
  3 14  1  0  0  0  0
  3  2  2  0  0  0  0
  4  2  1  0  0  0  0
  4 15  1  0  0  0  0
  5 17  1  0  0  0  0
  5  4  1  0  0  0  0
  6 19  1  0  0  0  0
  6  5  1  0  0  0  0
  6 18  1  0  0  0  0
  7  6  1  0  0  0  0
  8 22  1  6  0  0  0
  8  7  1  0  0  0  0
  9  8  1  0  0  0  0
 10 11  2  0  0  0  0
 10  8  1  0  0  0  0
 16  5  1  0  0  0  0
 20  7  1  0  0  0  0
 21  7  1  0  0  0  0
 23  9  1  0  0  0  0
 24  9  1  0  0  0  0
 25 34  1  0  0  0  0
 25 33  1  0  0  0  0
 25 26  1  0  0  0  0
 27 36  1  0  0  0  0
 27 37  1  0  0  0  0
 27 26  1  0  0  0  0
 28 27  1  0  0  0  0
 29 30  1  0  0  0  0
 29 40  1  1  0  0  0
 29 28  1  0  0  0  0
 30 10  1  0  0  0  0
 31 29  1  0  0  0  0
 32 31  2  0  0  0  0
 35 25  1  0  0  0  0
 38 28  1  0  0  0  0
 39 28  1  0  0  0  0
 41 30  1  0  0  0  0
 42 31  1  0  0  0  0
 42 51  1  0  0  0  0
 43 52  1  6  0  0  0
 43 42  1  0  0  0  0
 44 53  1  0  0  0  0
 44 43  1  0  0  0  0
 44 45  1  0  0  0  0
 45 46  2  0  0  0  0
 47 43  1  0  0  0  0
 47 48  1  0  0  0  0
 49 45  1  0  0  0  0
 49 55  1  0  0  0  0
 50 47  2  0  0  0  0
 54 44  1  0  0  0  0
M  END
$$$$
