RME.pdb
 OpenBabel07022418063D

 58 57  0  0  1  0  0  0  0  0999 V2000
    2.0610   -0.5770    6.3170 N   0  0  0  0  0  0  0  0  0  0  0  0
    3.0580    0.1610    5.6160 C   0  0  0  0  0  0  0  0  0  0  0  0
    3.9380    0.8890    6.2560 N   0  0  0  0  0  0  0  0  0  0  0  0
    3.1360    0.1370    4.1980 N   0  0  0  0  0  0  0  0  0  0  0  0
    3.9760    1.1020    3.5010 C   0  0  0  0  0  0  0  0  0  0  0  0
    3.8810    0.8640    2.0080 C   0  0  0  0  0  0  0  0  0  0  0  0
    2.4560    1.0180    1.5180 C   0  0  0  0  0  0  0  0  0  0  0  0
    2.3750    0.7780    0.0260 C   0  0  2  0  0  0  0  0  0  0  0  0
    3.2010    1.7180   -0.7010 N   0  0  0  0  0  0  0  0  0  0  0  0
    0.9590    0.8900   -0.4480 C   0  0  0  0  0  0  0  0  0  0  0  0
    0.6920    1.7190   -1.3470 O   0  0  0  0  0  0  0  0  0  0  0  0
    1.6710   -0.2640    7.2410 H   0  0  0  0  0  0  0  0  0  0  0  0
    1.6710   -1.4670    5.9440 H   0  0  0  0  0  0  0  0  0  0  0  0
    3.8820    0.9080    7.2950 H   0  0  0  0  0  0  0  0  0  0  0  0
    2.5800   -0.5870    3.6570 H   0  0  0  0  0  0  0  0  0  0  0  0
    4.9990    0.9780    3.8800 H   0  0  0  0  0  0  0  0  0  0  0  0
    3.6630    2.1460    3.7130 H   0  0  0  0  0  0  0  0  0  0  0  0
    4.2540   -0.1680    1.7980 H   0  0  0  0  0  0  0  0  0  0  0  0
    4.5720    1.5560    1.5250 H   0  0  0  0  0  0  0  0  0  0  0  0
    2.1790    2.0900    1.6780 H   0  0  0  0  0  0  0  0  0  0  0  0
    1.7440    0.4220    2.0840 H   0  0  0  0  0  0  0  0  0  0  0  0
    2.7830   -0.2360   -0.1650 H   0  0  0  0  0  0  0  0  0  0  0  0
    4.2070    1.5270   -0.4910 H   0  0  0  0  0  0  0  0  0  0  0  0
    3.0210    1.6130   -1.7160 H   0  0  0  0  0  0  0  0  0  0  0  0
   -4.1940    3.6900   -1.1350 C   0  0  0  0  0  0  0  0  0  0  0  0
   -2.3920    3.8470   -0.9300 S   0  0  0  0  0  0  0  0  0  0  0  0
   -1.7920    2.3830   -0.0280 C   0  0  0  0  0  0  0  0  0  0  0  0
   -1.9650    1.1380   -0.8540 C   0  0  0  0  0  0  0  0  0  0  0  0
   -1.4000   -0.0410   -0.0890 C   0  0  2  0  0  0  0  0  0  0  0  0
   -0.0090    0.0710    0.1240 N   0  0  0  0  0  0  0  0  0  0  0  0
   -1.9240   -1.3370   -0.4800 C   0  0  0  0  0  0  0  0  0  0  0  0
   -3.1640   -1.4450   -0.6720 O   0  0  0  0  0  0  0  0  0  0  0  0
   -4.7340    3.7780   -0.1830 H   0  0  0  0  0  0  0  0  0  0  0  0
   -4.3610    2.6890   -1.6270 H   0  0  0  0  0  0  0  0  0  0  0  0
   -4.5820    4.4320   -1.8590 H   0  0  0  0  0  0  0  0  0  0  0  0
   -0.8390    2.5520    0.4500 H   0  0  0  0  0  0  0  0  0  0  0  0
   -2.5150    2.3120    0.8760 H   0  0  0  0  0  0  0  0  0  0  0  0
   -3.0740    0.9590   -1.0510 H   0  0  0  0  0  0  0  0  0  0  0  0
   -1.4240    1.2300   -1.8020 H   0  0  0  0  0  0  0  0  0  0  0  0
   -1.8420    0.1710    0.9850 H   0  0  0  0  0  0  0  0  0  0  0  0
    0.3790   -0.6120    0.8790 H   0  0  0  0  0  0  0  0  0  0  0  0
   -1.1110   -2.4680   -0.6520 N   0  0  0  0  0  0  0  0  0  0  0  0
   -1.6570   -3.7770   -1.0490 C   0  0  1  0  0  0  0  0  0  0  0  0
   -1.0600   -4.2360   -2.3390 C   0  0  0  0  0  0  0  0  0  0  0  0
   -1.5190   -5.5410   -2.8570 C   0  0  0  0  0  0  0  0  0  0  0  0
   -2.9440   -5.6670   -3.1570 C   0  0  0  0  0  0  0  0  0  0  0  0
   -3.7190   -4.6970   -3.0040 O   0  0  0  0  0  0  0  0  0  0  0  0
   -1.4200   -4.7030    0.0710 C   0  0  0  0  0  0  0  0  0  0  0  0
   -1.7980   -5.8910   -0.0170 O   0  0  0  0  0  0  0  0  0  0  0  0
   -3.5260   -6.8420   -3.6200 O   0  0  0  0  0  0  0  0  0  0  0  0
   -0.7880   -4.2900    1.2220 O   0  0  0  0  0  0  0  0  0  0  0  0
   -0.0860   -2.3920   -0.4960 H   0  0  0  0  0  0  0  0  0  0  0  0
   -2.7640   -3.6900   -1.1760 H   0  0  0  0  0  0  0  0  0  0  0  0
    0.0620   -4.2870   -2.2490 H   0  0  0  0  0  0  0  0  0  0  0  0
   -1.2280   -3.4670   -3.1370 H   0  0  0  0  0  0  0  0  0  0  0  0
   -1.1780   -6.3990   -2.2060 H   0  0  0  0  0  0  0  0  0  0  0  0
   -0.9790   -5.7470   -3.8300 H   0  0  0  0  0  0  0  0  0  0  0  0
   -4.4850   -7.0240   -3.3170 H   0  0  0  0  0  0  0  0  0  0  0  0
  1 12  1  0  0  0  0
  2  3  2  0  0  0  0
  2  1  1  0  0  0  0
  3 14  1  0  0  0  0
  4  2  1  0  0  0  0
  5 17  1  0  0  0  0
  5 16  1  0  0  0  0
  5  4  1  0  0  0  0
  6  5  1  0  0  0  0
  7 20  1  0  0  0  0
  7  6  1  0  0  0  0
  7 21  1  0  0  0  0
  8 22  1  6  0  0  0
  8  7  1  0  0  0  0
  9 23  1  0  0  0  0
  9  8  1  0  0  0  0
 10  8  1  0  0  0  0
 10 30  1  0  0  0  0
 11 10  2  0  0  0  0
 13  1  1  0  0  0  0
 15  4  1  0  0  0  0
 18  6  1  0  0  0  0
 19  6  1  0  0  0  0
 24  9  1  0  0  0  0
 25 26  1  0  0  0  0
 25 33  1  0  0  0  0
 26 27  1  0  0  0  0
 27 36  1  0  0  0  0
 27 37  1  0  0  0  0
 28 29  1  0  0  0  0
 28 27  1  0  0  0  0
 29 30  1  0  0  0  0
 29 40  1  1  0  0  0
 30 41  1  0  0  0  0
 31 29  1  0  0  0  0
 32 31  2  0  0  0  0
 34 25  1  0  0  0  0
 35 25  1  0  0  0  0
 38 28  1  0  0  0  0
 39 28  1  0  0  0  0
 42 52  1  0  0  0  0
 42 31  1  0  0  0  0
 43 53  1  6  0  0  0
 43 42  1  0  0  0  0
 43 48  1  0  0  0  0
 44 54  1  0  0  0  0
 44 43  1  0  0  0  0
 45 44  1  0  0  0  0
 45 56  1  0  0  0  0
 46 47  2  0  0  0  0
 46 45  1  0  0  0  0
 48 51  1  0  0  0  0
 49 48  2  0  0  0  0
 50 58  1  0  0  0  0
 50 46  1  0  0  0  0
 55 44  1  0  0  0  0
 57 45  1  0  0  0  0
M  END
$$$$
