RMH.pdb
 OpenBabel07022418063D

 59 59  0  0  1  0  0  0  0  0999 V2000
   -7.0280    0.3330    0.3410 N   0  0  0  0  0  0  0  0  0  0  0  0
   -5.7340    0.8230    0.0200 C   0  0  0  0  0  0  0  0  0  0  0  0
   -5.1290    0.4910   -1.0800 N   0  0  0  0  0  0  0  0  0  0  0  0
   -5.0220    1.7140    0.8950 N   0  0  0  0  0  0  0  0  0  0  0  0
   -3.6100    1.6100    1.1160 C   0  0  0  0  0  0  0  0  0  0  0  0
   -3.1780    0.3960    1.8890 C   0  0  0  0  0  0  0  0  0  0  0  0
   -3.5410   -0.8960    1.2430 C   0  0  0  0  0  0  0  0  0  0  0  0
   -3.0710   -2.0950    2.0500 C   0  0  2  0  0  0  0  0  0  0  0  0
   -3.6640   -2.0770    3.3600 N   0  0  0  0  0  0  0  0  0  0  0  0
   -1.6130   -2.2200    2.0670 C   0  0  0  0  0  0  0  0  0  0  0  0
   -1.0080   -2.2660    3.1650 O   0  0  0  0  0  0  0  0  0  0  0  0
   -7.6670    0.0460   -0.4570 H   0  0  0  0  0  0  0  0  0  0  0  0
   -7.3920    0.2370    1.3070 H   0  0  0  0  0  0  0  0  0  0  0  0
   -5.5330   -0.1450   -1.7970 H   0  0  0  0  0  0  0  0  0  0  0  0
   -5.6300    2.4520    1.3650 H   0  0  0  0  0  0  0  0  0  0  0  0
   -3.3070    2.5590    1.6490 H   0  0  0  0  0  0  0  0  0  0  0  0
   -3.0520    1.6900    0.1360 H   0  0  0  0  0  0  0  0  0  0  0  0
   -2.0880    0.4350    2.1460 H   0  0  0  0  0  0  0  0  0  0  0  0
   -3.6760    0.4840    2.9020 H   0  0  0  0  0  0  0  0  0  0  0  0
   -3.1450   -0.9660    0.2330 H   0  0  0  0  0  0  0  0  0  0  0  0
   -4.6580   -0.9970    1.2300 H   0  0  0  0  0  0  0  0  0  0  0  0
   -3.4810   -2.9910    1.5170 H   0  0  0  0  0  0  0  0  0  0  0  0
   -3.1580   -2.8090    3.9330 H   0  0  0  0  0  0  0  0  0  0  0  0
   -4.6490   -2.4370    3.2610 H   0  0  0  0  0  0  0  0  0  0  0  0
    1.6550   -7.0480    0.2190 C   0  0  0  0  0  0  0  0  0  0  0  0
    2.4310   -5.7520   -0.7770 S   0  0  0  0  0  0  0  0  0  0  0  0
    2.3390   -4.1360    0.1110 C   0  0  0  0  0  0  0  0  0  0  0  0
    0.9290   -3.6950    0.2270 C   0  0  0  0  0  0  0  0  0  0  0  0
    0.6560   -2.4190    0.9450 C   0  0  2  0  0  0  0  0  0  0  0  0
   -0.8360   -2.2930    0.8830 N   0  0  0  0  0  0  0  0  0  0  0  0
    1.2430   -1.2590    0.2400 C   0  0  0  0  0  0  0  0  0  0  0  0
    0.4520   -0.4710   -0.4190 O   0  0  0  0  0  0  0  0  0  0  0  0
    2.2790   -7.9610    0.0910 H   0  0  0  0  0  0  0  0  0  0  0  0
    1.5070   -6.7660    1.2690 H   0  0  0  0  0  0  0  0  0  0  0  0
    0.6460   -7.3290   -0.1860 H   0  0  0  0  0  0  0  0  0  0  0  0
    2.8390   -4.2900    1.0820 H   0  0  0  0  0  0  0  0  0  0  0  0
    2.9700   -3.4690   -0.5060 H   0  0  0  0  0  0  0  0  0  0  0  0
    0.3500   -4.5580    0.6570 H   0  0  0  0  0  0  0  0  0  0  0  0
    0.5270   -3.6360   -0.8320 H   0  0  0  0  0  0  0  0  0  0  0  0
    0.9780   -2.4070    1.9860 H   0  0  0  0  0  0  0  0  0  0  0  0
   -1.2860   -2.2610   -0.0560 H   0  0  0  0  0  0  0  0  0  0  0  0
    2.6230   -0.9570    0.2500 N   0  0  0  0  0  0  0  0  0  0  0  0
    3.1040    0.2410   -0.4790 C   0  0  1  0  0  0  0  0  0  0  0  0
    3.7150    1.2110    0.4660 C   0  0  0  0  0  0  0  0  0  0  0  0
    4.0770    2.4710   -0.2320 C   0  0  0  0  0  0  0  0  0  0  0  0
    3.7420    2.8860   -1.4990 C   0  0  0  0  0  0  0  0  0  0  0  0
    4.2110    4.1470   -1.6840 N   0  0  0  0  0  0  0  0  0  0  0  0
    4.8250    4.5120   -0.5520 C   0  0  0  0  0  0  0  0  0  0  0  0
    4.7560    3.5180    0.3370 N   0  0  0  0  0  0  0  0  0  0  0  0
    4.2210   -0.2770   -1.3390 C   0  0  0  0  0  0  0  0  0  0  0  0
    4.5210   -1.5050   -1.4110 O   0  0  0  0  0  0  0  0  0  0  0  0
    4.9800    0.5690   -2.0920 O   0  0  0  0  0  0  0  0  0  0  0  0
    3.3040   -1.5320    0.7520 H   0  0  0  0  0  0  0  0  0  0  0  0
    2.2700    0.6690   -1.0040 H   0  0  0  0  0  0  0  0  0  0  0  0
    3.0070    1.5220    1.2850 H   0  0  0  0  0  0  0  0  0  0  0  0
    4.6210    0.7320    0.9010 H   0  0  0  0  0  0  0  0  0  0  0  0
    3.1640    2.3390   -2.2630 H   0  0  0  0  0  0  0  0  0  0  0  0
    4.0770    4.6800   -2.5840 H   0  0  0  0  0  0  0  0  0  0  0  0
    5.3110    5.4800   -0.3800 H   0  0  0  0  0  0  0  0  0  0  0  0
  1 13  1  0  0  0  0
  2  1  1  0  0  0  0
  2  4  1  0  0  0  0
  3  2  2  0  0  0  0
  4  5  1  0  0  0  0
  4 15  1  0  0  0  0
  5 16  1  0  0  0  0
  5  6  1  0  0  0  0
  6 18  1  0  0  0  0
  6 19  1  0  0  0  0
  7  6  1  0  0  0  0
  7  8  1  0  0  0  0
  8 22  1  6  0  0  0
  8 10  1  0  0  0  0
  8  9  1  0  0  0  0
  9 23  1  0  0  0  0
 10 11  2  0  0  0  0
 12  1  1  0  0  0  0
 14  3  1  0  0  0  0
 17  5  1  0  0  0  0
 20  7  1  0  0  0  0
 21  7  1  0  0  0  0
 24  9  1  0  0  0  0
 25 34  1  0  0  0  0
 26 27  1  0  0  0  0
 26 25  1  0  0  0  0
 27 28  1  0  0  0  0
 27 36  1  0  0  0  0
 28 38  1  0  0  0  0
 28 29  1  0  0  0  0
 29 40  1  1  0  0  0
 30 29  1  0  0  0  0
 30 10  1  0  0  0  0
 31 42  1  0  0  0  0
 31 29  1  0  0  0  0
 32 31  2  0  0  0  0
 33 25  1  0  0  0  0
 35 25  1  0  0  0  0
 37 27  1  0  0  0  0
 39 28  1  0  0  0  0
 41 30  1  0  0  0  0
 42 53  1  0  0  0  0
 43 54  1  6  0  0  0
 43 42  1  0  0  0  0
 43 44  1  0  0  0  0
 44 56  1  0  0  0  0
 44 55  1  0  0  0  0
 45 49  1  0  0  0  0
 45 44  1  0  0  0  0
 46 45  2  0  0  0  0
 47 46  1  0  0  0  0
 47 48  1  0  0  0  0
 48 59  1  0  0  0  0
 48 49  2  0  0  0  0
 50 43  1  0  0  0  0
 51 50  1  0  0  0  0
 52 50  2  0  0  0  0
 57 46  1  0  0  0  0
 58 47  1  0  0  0  0
M  END
$$$$
