RMI.pdb
 OpenBabel07022418063D

 61 60  0  0  1  0  0  0  0  0999 V2000
    1.0810    4.4510    3.7680 N   0  0  0  0  0  0  0  0  0  0  0  0
    1.1680    3.0330    3.8160 C   0  0  0  0  0  0  0  0  0  0  0  0
    0.0980    2.2830    3.8770 N   0  0  0  0  0  0  0  0  0  0  0  0
    2.4030    2.3370    3.8040 N   0  0  0  0  0  0  0  0  0  0  0  0
    2.4290    0.9210    3.4340 C   0  0  0  0  0  0  0  0  0  0  0  0
    3.8000    0.3500    3.4870 C   0  0  0  0  0  0  0  0  0  0  0  0
    3.7800   -1.0980    3.1070 C   0  0  0  0  0  0  0  0  0  0  0  0
    3.3110   -1.4270    1.7390 C   0  0  2  0  0  0  0  0  0  0  0  0
    4.0870   -0.8260    0.6740 N   0  0  0  0  0  0  0  0  0  0  0  0
    1.8640   -1.3420    1.4920 C   0  0  0  0  0  0  0  0  0  0  0  0
    1.0400   -1.6560    2.3890 O   0  0  0  0  0  0  0  0  0  0  0  0
    1.2780    5.0510    4.5710 H   0  0  0  0  0  0  0  0  0  0  0  0
    0.8030    4.8840    2.8640 H   0  0  0  0  0  0  0  0  0  0  0  0
   -0.8580    2.6930    3.8930 H   0  0  0  0  0  0  0  0  0  0  0  0
    3.2830    2.8160    4.0510 H   0  0  0  0  0  0  0  0  0  0  0  0
    1.7850    0.3250    4.1140 H   0  0  0  0  0  0  0  0  0  0  0  0
    2.0690    0.8940    2.3910 H   0  0  0  0  0  0  0  0  0  0  0  0
    4.5450    0.9350    2.8980 H   0  0  0  0  0  0  0  0  0  0  0  0
    4.1250    0.3770    4.5710 H   0  0  0  0  0  0  0  0  0  0  0  0
    3.1580   -1.6120    3.8880 H   0  0  0  0  0  0  0  0  0  0  0  0
    4.8230   -1.5100    3.2510 H   0  0  0  0  0  0  0  0  0  0  0  0
    3.5580   -2.5530    1.6190 H   0  0  0  0  0  0  0  0  0  0  0  0
    4.1230   -1.4370   -0.1820 H   0  0  0  0  0  0  0  0  0  0  0  0
    5.0500   -0.6170    0.9450 H   0  0  0  0  0  0  0  0  0  0  0  0
    0.3870    3.4360   -2.0630 C   0  0  0  0  0  0  0  0  0  0  0  0
   -0.5980    3.2180   -0.5660 S   0  0  0  0  0  0  0  0  0  0  0  0
   -0.1040    1.6760    0.2820 C   0  0  0  0  0  0  0  0  0  0  0  0
   -0.4600    0.5020   -0.5610 C   0  0  0  0  0  0  0  0  0  0  0  0
   -0.1180   -0.8360    0.0250 C   0  0  2  0  0  0  0  0  0  0  0  0
    1.3010   -0.9140    0.2590 N   0  0  0  0  0  0  0  0  0  0  0  0
   -0.5750   -1.9220   -0.8970 C   0  0  0  0  0  0  0  0  0  0  0  0
    0.2910   -2.7180   -1.3200 O   0  0  0  0  0  0  0  0  0  0  0  0
   -0.1960    4.0000   -2.8070 H   0  0  0  0  0  0  0  0  0  0  0  0
    1.3260    3.9880   -1.8840 H   0  0  0  0  0  0  0  0  0  0  0  0
    0.6380    2.4420   -2.4910 H   0  0  0  0  0  0  0  0  0  0  0  0
    0.9970    1.6890    0.4510 H   0  0  0  0  0  0  0  0  0  0  0  0
   -0.6100    1.6010    1.2610 H   0  0  0  0  0  0  0  0  0  0  0  0
    0.0390    0.5990   -1.5650 H   0  0  0  0  0  0  0  0  0  0  0  0
   -1.5620    0.4610   -0.7900 H   0  0  0  0  0  0  0  0  0  0  0  0
   -0.6150   -0.9300    1.0130 H   0  0  0  0  0  0  0  0  0  0  0  0
    1.9460   -0.6470   -0.5070 H   0  0  0  0  0  0  0  0  0  0  0  0
   -5.4850   -4.2670   -0.2000 C   0  0  0  0  0  0  0  0  0  0  0  0
   -4.5380   -3.3180   -0.8920 C   0  0  0  0  0  0  0  0  0  0  0  0
   -3.3300   -4.0520   -1.4400 C   0  0  2  0  0  0  0  0  0  0  0  0
   -2.5760   -4.7350   -0.3260 C   0  0  0  0  0  0  0  0  0  0  0  0
   -2.4010   -3.0970   -2.1730 C   0  0  2  0  0  0  0  0  0  0  0  0
   -1.9290   -2.0560   -1.2830 N   0  0  0  0  0  0  0  0  0  0  0  0
   -2.9830   -2.5780   -3.4060 C   0  0  0  0  0  0  0  0  0  0  0  0
   -3.0390   -1.3500   -3.6130 O   0  0  0  0  0  0  0  0  0  0  0  0
   -3.4800   -3.4380   -4.3600 O   0  0  0  0  0  0  0  0  0  0  0  0
   -5.3090   -5.3320   -0.5280 H   0  0  0  0  0  0  0  0  0  0  0  0
   -6.5180   -4.0120   -0.5060 H   0  0  0  0  0  0  0  0  0  0  0  0
   -5.3720   -4.2200    0.9140 H   0  0  0  0  0  0  0  0  0  0  0  0
   -5.0830   -2.8420   -1.7290 H   0  0  0  0  0  0  0  0  0  0  0  0
   -4.2060   -2.5760   -0.1290 H   0  0  0  0  0  0  0  0  0  0  0  0
   -3.7060   -4.8150   -2.1490 H   0  0  0  0  0  0  0  0  0  0  0  0
   -3.1160   -5.6570    0.0110 H   0  0  0  0  0  0  0  0  0  0  0  0
   -1.5900   -5.0820   -0.7120 H   0  0  0  0  0  0  0  0  0  0  0  0
   -2.4740   -4.0970    0.5780 H   0  0  0  0  0  0  0  0  0  0  0  0
   -1.4960   -3.7070   -2.4460 H   0  0  0  0  0  0  0  0  0  0  0  0
   -2.5900   -1.3340   -0.8730 H   0  0  0  0  0  0  0  0  0  0  0  0
  1  2  1  0  0  0  0
  1 12  1  0  0  0  0
  2  3  2  0  0  0  0
  3 14  1  0  0  0  0
  4  2  1  0  0  0  0
  4 15  1  0  0  0  0
  5  6  1  0  0  0  0
  5  4  1  0  0  0  0
  5 16  1  0  0  0  0
  6 19  1  0  0  0  0
  7 21  1  0  0  0  0
  7  6  1  0  0  0  0
  7 20  1  0  0  0  0
  8 22  1  6  0  0  0
  8  7  1  0  0  0  0
  9 24  1  0  0  0  0
  9  8  1  0  0  0  0
 10  8  1  0  0  0  0
 10 11  2  0  0  0  0
 13  1  1  0  0  0  0
 17  5  1  0  0  0  0
 18  6  1  0  0  0  0
 23  9  1  0  0  0  0
 25 34  1  0  0  0  0
 25 26  1  0  0  0  0
 26 27  1  0  0  0  0
 27 36  1  0  0  0  0
 27 37  1  0  0  0  0
 28 29  1  0  0  0  0
 28 27  1  0  0  0  0
 29 30  1  0  0  0  0
 29 40  1  1  0  0  0
 30 10  1  0  0  0  0
 31 29  1  0  0  0  0
 32 31  2  0  0  0  0
 33 25  1  0  0  0  0
 35 25  1  0  0  0  0
 38 28  1  0  0  0  0
 39 28  1  0  0  0  0
 41 30  1  0  0  0  0
 42 53  1  0  0  0  0
 43 42  1  0  0  0  0
 43 55  1  0  0  0  0
 44 56  1  6  0  0  0
 44 43  1  0  0  0  0
 44 45  1  0  0  0  0
 45 57  1  0  0  0  0
 45 59  1  0  0  0  0
 46 60  1  6  0  0  0
 46 44  1  0  0  0  0
 46 47  1  0  0  0  0
 47 31  1  0  0  0  0
 47 61  1  0  0  0  0
 48 46  1  0  0  0  0
 49 48  1  0  0  0  0
 50 48  2  0  0  0  0
 51 42  1  0  0  0  0
 52 42  1  0  0  0  0
 54 43  1  0  0  0  0
 58 45  1  0  0  0  0
M  END
$$$$
