RMK.pdb
 OpenBabel07022418063D

 63 62  0  0  1  0  0  0  0  0999 V2000
    2.2050   -2.7920    5.8040 N   0  0  0  0  0  0  0  0  0  0  0  0
    1.9790   -1.4130    6.0830 C   0  0  0  0  0  0  0  0  0  0  0  0
    1.3360   -1.0510    7.1340 N   0  0  0  0  0  0  0  0  0  0  0  0
    2.4990   -0.4510    5.1430 N   0  0  0  0  0  0  0  0  0  0  0  0
    1.9640    0.8780    5.2000 C   0  0  0  0  0  0  0  0  0  0  0  0
    2.4060    1.8460    4.1770 C   0  0  0  0  0  0  0  0  0  0  0  0
    2.0570    1.5990    2.7570 C   0  0  0  0  0  0  0  0  0  0  0  0
    2.5420    0.3650    2.1040 C   0  0  2  0  0  0  0  0  0  0  0  0
    3.9850    0.2570    2.0930 N   0  0  0  0  0  0  0  0  0  0  0  0
    2.1100    0.3330    0.6420 C   0  0  0  0  0  0  0  0  0  0  0  0
    2.9810    0.1990   -0.2450 O   0  0  0  0  0  0  0  0  0  0  0  0
    3.1090   -3.1760    5.4540 H   0  0  0  0  0  0  0  0  0  0  0  0
    1.4400   -3.5140    5.9430 H   0  0  0  0  0  0  0  0  0  0  0  0
    0.9810   -1.7790    7.7820 H   0  0  0  0  0  0  0  0  0  0  0  0
    3.2420   -0.7860    4.5070 H   0  0  0  0  0  0  0  0  0  0  0  0
    2.2270    1.2520    6.2420 H   0  0  0  0  0  0  0  0  0  0  0  0
    0.8490    0.7740    5.2520 H   0  0  0  0  0  0  0  0  0  0  0  0
    3.5270    2.0110    4.2950 H   0  0  0  0  0  0  0  0  0  0  0  0
    1.9990    2.8620    4.5000 H   0  0  0  0  0  0  0  0  0  0  0  0
    2.5290    2.4640    2.1790 H   0  0  0  0  0  0  0  0  0  0  0  0
    0.9630    1.7800    2.5910 H   0  0  0  0  0  0  0  0  0  0  0  0
    2.1150   -0.5540    2.5510 H   0  0  0  0  0  0  0  0  0  0  0  0
    4.3180   -0.7160    1.9600 H   0  0  0  0  0  0  0  0  0  0  0  0
    4.4330    0.8330    1.3480 H   0  0  0  0  0  0  0  0  0  0  0  0
   -0.6160    3.6510   -0.3730 C   0  0  0  0  0  0  0  0  0  0  0  0
    0.2680    3.6140   -1.9350 S   0  0  0  0  0  0  0  0  0  0  0  0
    1.5140    2.3180   -1.9580 C   0  0  0  0  0  0  0  0  0  0  0  0
    0.9950    0.9210   -2.0590 C   0  0  0  0  0  0  0  0  0  0  0  0
    0.1210    0.4690   -0.9530 C   0  0  2  0  0  0  0  0  0  0  0  0
    0.7340    0.4560    0.3340 N   0  0  0  0  0  0  0  0  0  0  0  0
   -0.5530   -0.8280   -1.2380 C   0  0  0  0  0  0  0  0  0  0  0  0
   -0.5130   -1.7380   -0.3600 O   0  0  0  0  0  0  0  0  0  0  0  0
   -0.1240    3.1070    0.4470 H   0  0  0  0  0  0  0  0  0  0  0  0
   -0.7330    4.7310   -0.0080 H   0  0  0  0  0  0  0  0  0  0  0  0
   -1.6930    3.3420   -0.5040 H   0  0  0  0  0  0  0  0  0  0  0  0
    2.2010    2.5450   -2.8470 H   0  0  0  0  0  0  0  0  0  0  0  0
    2.1960    2.5020   -1.0910 H   0  0  0  0  0  0  0  0  0  0  0  0
    0.3850    0.8960   -3.0320 H   0  0  0  0  0  0  0  0  0  0  0  0
    1.8940    0.2530   -2.2260 H   0  0  0  0  0  0  0  0  0  0  0  0
   -0.6880    1.2820   -0.8860 H   0  0  0  0  0  0  0  0  0  0  0  0
    0.1150    0.5470    1.2140 H   0  0  0  0  0  0  0  0  0  0  0  0
   -1.2400   -1.1210   -2.4280 N   0  0  0  0  0  0  0  0  0  0  0  0
   -1.8790   -2.4070   -2.6420 C   0  0  1  0  0  0  0  0  0  0  0  0
   -3.3460   -2.1100   -2.8680 C   0  0  0  0  0  0  0  0  0  0  0  0
   -4.1860   -3.3130   -3.1060 C   0  0  0  0  0  0  0  0  0  0  0  0
   -4.2250   -4.3220   -2.0140 C   0  0  0  0  0  0  0  0  0  0  0  0
   -4.7600   -3.8510   -0.7070 C   0  0  0  0  0  0  0  0  0  0  0  0
   -3.9920   -2.7610   -0.1540 N   0  0  0  0  0  0  0  0  0  0  0  0
   -1.2580   -3.0930   -3.8180 C   0  0  0  0  0  0  0  0  0  0  0  0
   -1.6030   -4.2140   -4.2170 O   0  0  0  0  0  0  0  0  0  0  0  0
   -0.2420   -2.4390   -4.4950 O   0  0  0  0  0  0  0  0  0  0  0  0
   -1.2810   -0.3890   -3.1600 H   0  0  0  0  0  0  0  0  0  0  0  0
   -1.7230   -3.0090   -1.7280 H   0  0  0  0  0  0  0  0  0  0  0  0
   -3.3860   -1.4980   -3.8210 H   0  0  0  0  0  0  0  0  0  0  0  0
   -3.6760   -1.4350   -2.0740 H   0  0  0  0  0  0  0  0  0  0  0  0
   -5.2320   -2.9490   -3.3060 H   0  0  0  0  0  0  0  0  0  0  0  0
   -3.8860   -3.7860   -4.0720 H   0  0  0  0  0  0  0  0  0  0  0  0
   -4.8860   -5.1670   -2.3690 H   0  0  0  0  0  0  0  0  0  0  0  0
   -3.2450   -4.8090   -1.8230 H   0  0  0  0  0  0  0  0  0  0  0  0
   -5.8450   -3.6170   -0.7630 H   0  0  0  0  0  0  0  0  0  0  0  0
   -4.6920   -4.6850    0.0480 H   0  0  0  0  0  0  0  0  0  0  0  0
   -3.3530   -3.0780    0.6070 H   0  0  0  0  0  0  0  0  0  0  0  0
   -4.5760   -1.9520    0.1330 H   0  0  0  0  0  0  0  0  0  0  0  0
  1 13  1  0  0  0  0
  1  2  1  0  0  0  0
  2  3  2  0  0  0  0
  3 14  1  0  0  0  0
  4  5  1  0  0  0  0
  4  2  1  0  0  0  0
  5 17  1  0  0  0  0
  5 16  1  0  0  0  0
  6 18  1  0  0  0  0
  6 19  1  0  0  0  0
  6  5  1  0  0  0  0
  7  6  1  0  0  0  0
  8 22  1  1  0  0  0
  8  7  1  0  0  0  0
  9  8  1  0  0  0  0
 10  8  1  0  0  0  0
 11 10  2  0  0  0  0
 12  1  1  0  0  0  0
 15  4  1  0  0  0  0
 20  7  1  0  0  0  0
 21  7  1  0  0  0  0
 23  9  1  0  0  0  0
 24  9  1  0  0  0  0
 25 34  1  0  0  0  0
 25 33  1  0  0  0  0
 26 25  1  0  0  0  0
 27 26  1  0  0  0  0
 27 37  1  0  0  0  0
 28 27  1  0  0  0  0
 28 29  1  0  0  0  0
 29 40  1  1  0  0  0
 29 30  1  0  0  0  0
 30 10  1  0  0  0  0
 30 41  1  0  0  0  0
 31 29  1  0  0  0  0
 31 32  2  0  0  0  0
 35 25  1  0  0  0  0
 36 27  1  0  0  0  0
 38 28  1  0  0  0  0
 39 28  1  0  0  0  0
 42 31  1  0  0  0  0
 43 42  1  0  0  0  0
 43 53  1  1  0  0  0
 44 43  1  0  0  0  0
 44 55  1  0  0  0  0
 45 44  1  0  0  0  0
 45 46  1  0  0  0  0
 46 59  1  0  0  0  0
 46 47  1  0  0  0  0
 47 48  1  0  0  0  0
 47 61  1  0  0  0  0
 48 63  1  0  0  0  0
 48 62  1  0  0  0  0
 49 43  1  0  0  0  0
 50 49  1  0  0  0  0
 51 49  2  0  0  0  0
 52 42  1  0  0  0  0
 54 44  1  0  0  0  0
 56 45  1  0  0  0  0
 57 45  1  0  0  0  0
 58 46  1  0  0  0  0
 60 47  1  0  0  0  0
M  END
$$$$
