RML.pdb
 OpenBabel07022418063D

 61 60  0  0  1  0  0  0  0  0999 V2000
    0.5550    2.6270    3.3440 N   0  0  0  0  0  0  0  0  0  0  0  0
    1.4130    1.7140    4.0080 C   0  0  0  0  0  0  0  0  0  0  0  0
    0.8810    0.8190    4.7610 N   0  0  0  0  0  0  0  0  0  0  0  0
    2.8270    1.7240    3.9080 N   0  0  0  0  0  0  0  0  0  0  0  0
    3.6130    0.7350    4.5520 C   0  0  0  0  0  0  0  0  0  0  0  0
    3.5150   -0.6450    4.0610 C   0  0  0  0  0  0  0  0  0  0  0  0
    3.9180   -1.0100    2.7040 C   0  0  0  0  0  0  0  0  0  0  0  0
    3.2080   -0.5250    1.5060 C   0  0  2  0  0  0  0  0  0  0  0  0
    3.1620    0.8610    1.3540 N   0  0  0  0  0  0  0  0  0  0  0  0
    1.9240   -1.2350    1.2430 C   0  0  0  0  0  0  0  0  0  0  0  0
    1.7790   -2.4040    1.6680 O   0  0  0  0  0  0  0  0  0  0  0  0
    0.9990    3.4350    2.8150 H   0  0  0  0  0  0  0  0  0  0  0  0
   -0.4830    2.5390    3.3540 H   0  0  0  0  0  0  0  0  0  0  0  0
   -0.1260    0.7000    4.9300 H   0  0  0  0  0  0  0  0  0  0  0  0
    3.2630    2.5060    3.3720 H   0  0  0  0  0  0  0  0  0  0  0  0
    4.6970    1.0770    4.6340 H   0  0  0  0  0  0  0  0  0  0  0  0
    3.3030    0.7650    5.6610 H   0  0  0  0  0  0  0  0  0  0  0  0
    3.9820   -1.3490    4.8370 H   0  0  0  0  0  0  0  0  0  0  0  0
    2.4130   -0.9860    4.1540 H   0  0  0  0  0  0  0  0  0  0  0  0
    3.8900   -2.1540    2.6510 H   0  0  0  0  0  0  0  0  0  0  0  0
    5.0410   -0.7670    2.5730 H   0  0  0  0  0  0  0  0  0  0  0  0
    3.9240   -0.8600    0.6250 H   0  0  0  0  0  0  0  0  0  0  0  0
    3.8240    1.3070    0.6880 H   0  0  0  0  0  0  0  0  0  0  0  0
    2.2220    1.2710    1.2300 H   0  0  0  0  0  0  0  0  0  0  0  0
   -2.8730    2.2720    1.7050 C   0  0  0  0  0  0  0  0  0  0  0  0
   -2.9050    0.7130    2.6160 S   0  0  0  0  0  0  0  0  0  0  0  0
   -1.4280   -0.2870    2.2010 C   0  0  0  0  0  0  0  0  0  0  0  0
   -1.5360   -0.6630    0.7380 C   0  0  0  0  0  0  0  0  0  0  0  0
   -0.3750   -1.4840    0.3200 C   0  0  2  0  0  0  0  0  0  0  0  0
    0.8230   -0.7090    0.5360 N   0  0  0  0  0  0  0  0  0  0  0  0
   -0.4790   -2.0200   -1.0510 C   0  0  0  0  0  0  0  0  0  0  0  0
    0.4210   -1.7690   -1.8750 O   0  0  0  0  0  0  0  0  0  0  0  0
   -3.3500    3.0480    2.3480 H   0  0  0  0  0  0  0  0  0  0  0  0
   -1.8500    2.5460    1.3970 H   0  0  0  0  0  0  0  0  0  0  0  0
   -3.4910    2.1040    0.7810 H   0  0  0  0  0  0  0  0  0  0  0  0
   -0.4940    0.2110    2.4430 H   0  0  0  0  0  0  0  0  0  0  0  0
   -1.4970   -1.1830    2.8580 H   0  0  0  0  0  0  0  0  0  0  0  0
   -1.5230    0.2800    0.1200 H   0  0  0  0  0  0  0  0  0  0  0  0
   -2.5220   -1.1340    0.6130 H   0  0  0  0  0  0  0  0  0  0  0  0
   -0.3060   -2.3780    0.9720 H   0  0  0  0  0  0  0  0  0  0  0  0
    0.8670    0.2580    0.1550 H   0  0  0  0  0  0  0  0  0  0  0  0
   -4.5180   -2.3360   -3.6270 C   0  0  0  0  0  0  0  0  0  0  0  0
   -3.2300   -1.5890   -3.7140 C   0  0  0  0  0  0  0  0  0  0  0  0
   -3.1190   -0.5970   -2.5760 C   0  0  0  0  0  0  0  0  0  0  0  0
   -2.0120   -2.4330   -3.8150 C   0  0  0  0  0  0  0  0  0  0  0  0
   -1.7600   -3.3660   -2.7020 C   0  0  2  0  0  0  0  0  0  0  0  0
   -1.5920   -2.8070   -1.4020 N   0  0  0  0  0  0  0  0  0  0  0  0
   -0.5360   -4.1730   -3.0490 C   0  0  0  0  0  0  0  0  0  0  0  0
   -0.3920   -4.7170   -4.1650 O   0  0  0  0  0  0  0  0  0  0  0  0
    0.4490   -4.3140   -2.1080 O   0  0  0  0  0  0  0  0  0  0  0  0
   -4.5770   -3.0930   -2.8470 H   0  0  0  0  0  0  0  0  0  0  0  0
   -4.8040   -2.8310   -4.5870 H   0  0  0  0  0  0  0  0  0  0  0  0
   -5.3340   -1.5940   -3.4280 H   0  0  0  0  0  0  0  0  0  0  0  0
   -3.2780   -0.9660   -4.6510 H   0  0  0  0  0  0  0  0  0  0  0  0
   -2.1240   -0.1290   -2.5250 H   0  0  0  0  0  0  0  0  0  0  0  0
   -3.8880    0.2060   -2.7410 H   0  0  0  0  0  0  0  0  0  0  0  0
   -3.4010   -1.0680   -1.6170 H   0  0  0  0  0  0  0  0  0  0  0  0
   -1.1260   -1.7380   -3.8920 H   0  0  0  0  0  0  0  0  0  0  0  0
   -1.9980   -3.0020   -4.7670 H   0  0  0  0  0  0  0  0  0  0  0  0
   -2.5590   -4.1800   -2.7030 H   0  0  0  0  0  0  0  0  0  0  0  0
   -2.3740   -3.0270   -0.7020 H   0  0  0  0  0  0  0  0  0  0  0  0
  1 13  1  0  0  0  0
  1  2  1  0  0  0  0
  2  3  2  0  0  0  0
  3 14  1  0  0  0  0
  4  2  1  0  0  0  0
  4  5  1  0  0  0  0
  5 16  1  0  0  0  0
  5 17  1  0  0  0  0
  6 19  1  0  0  0  0
  6  5  1  0  0  0  0
  6 18  1  0  0  0  0
  7  6  1  0  0  0  0
  8 22  1  6  0  0  0
  8  7  1  0  0  0  0
  9  8  1  0  0  0  0
 10  8  1  0  0  0  0
 10 11  2  0  0  0  0
 12  1  1  0  0  0  0
 15  4  1  0  0  0  0
 20  7  1  0  0  0  0
 21  7  1  0  0  0  0
 23  9  1  0  0  0  0
 24  9  1  0  0  0  0
 25 33  1  0  0  0  0
 25 26  1  0  0  0  0
 27 36  1  0  0  0  0
 27 26  1  0  0  0  0
 27 37  1  0  0  0  0
 28 27  1  0  0  0  0
 29 30  1  0  0  0  0
 29 28  1  0  0  0  0
 29 40  1  1  0  0  0
 30 10  1  0  0  0  0
 31 29  1  0  0  0  0
 32 31  2  0  0  0  0
 34 25  1  0  0  0  0
 35 25  1  0  0  0  0
 38 28  1  0  0  0  0
 39 28  1  0  0  0  0
 41 30  1  0  0  0  0
 42 53  1  0  0  0  0
 42 51  1  0  0  0  0
 43 42  1  0  0  0  0
 43 44  1  0  0  0  0
 44 55  1  0  0  0  0
 44 57  1  0  0  0  0
 45 43  1  0  0  0  0
 45 46  1  0  0  0  0
 46 60  1  1  0  0  0
 46 47  1  0  0  0  0
 47 31  1  0  0  0  0
 47 61  1  0  0  0  0
 48 46  1  0  0  0  0
 48 50  1  0  0  0  0
 49 48  2  0  0  0  0
 52 42  1  0  0  0  0
 54 43  1  0  0  0  0
 56 44  1  0  0  0  0
 58 45  1  0  0  0  0
 59 45  1  0  0  0  0
M  END
$$$$
