RMM.pdb
 OpenBabel07022418063D

 59 58  0  0  1  0  0  0  0  0999 V2000
    1.1420   -1.3900    4.6490 N   0  0  0  0  0  0  0  0  0  0  0  0
    1.8860   -1.7530    3.4670 C   0  0  0  0  0  0  0  0  0  0  0  0
    1.5080   -2.7280    2.7310 N   0  0  0  0  0  0  0  0  0  0  0  0
    3.0500   -1.0400    3.1000 N   0  0  0  0  0  0  0  0  0  0  0  0
    3.8100   -1.2440    1.9300 C   0  0  0  0  0  0  0  0  0  0  0  0
    3.2650   -0.9370    0.5980 C   0  0  0  0  0  0  0  0  0  0  0  0
    2.8710    0.4290    0.2850 C   0  0  0  0  0  0  0  0  0  0  0  0
    1.7740    1.1270    0.9720 C   0  0  2  0  0  0  0  0  0  0  0  0
    1.8690    1.3090    2.3810 N   0  0  0  0  0  0  0  0  0  0  0  0
    0.4140    0.6310    0.5420 C   0  0  0  0  0  0  0  0  0  0  0  0
    0.1530    0.6260   -0.6900 O   0  0  0  0  0  0  0  0  0  0  0  0
    1.6600   -1.1160    5.4870 H   0  0  0  0  0  0  0  0  0  0  0  0
    0.1010   -1.4130    4.6250 H   0  0  0  0  0  0  0  0  0  0  0  0
    0.6410   -3.2490    3.0230 H   0  0  0  0  0  0  0  0  0  0  0  0
    3.3710   -0.3120    3.8100 H   0  0  0  0  0  0  0  0  0  0  0  0
    4.8290   -0.7220    2.0340 H   0  0  0  0  0  0  0  0  0  0  0  0
    4.1560   -2.3420    1.9900 H   0  0  0  0  0  0  0  0  0  0  0  0
    4.1170   -1.1890   -0.1360 H   0  0  0  0  0  0  0  0  0  0  0  0
    2.4990   -1.7110    0.2600 H   0  0  0  0  0  0  0  0  0  0  0  0
    2.6370    0.4670   -0.8250 H   0  0  0  0  0  0  0  0  0  0  0  0
    3.7850    1.0880    0.3970 H   0  0  0  0  0  0  0  0  0  0  0  0
    1.8260    2.2000    0.5490 H   0  0  0  0  0  0  0  0  0  0  0  0
    2.6520    1.9440    2.6710 H   0  0  0  0  0  0  0  0  0  0  0  0
    1.0180    1.7240    2.8140 H   0  0  0  0  0  0  0  0  0  0  0  0
   -2.5890    4.1090   -0.6430 C   0  0  0  0  0  0  0  0  0  0  0  0
   -3.5700    3.4190    0.7010 S   0  0  0  0  0  0  0  0  0  0  0  0
   -2.6950    1.9990    1.3870 C   0  0  0  0  0  0  0  0  0  0  0  0
   -2.6060    0.8660    0.3850 C   0  0  0  0  0  0  0  0  0  0  0  0
   -1.8410   -0.2740    1.1010 C   0  0  2  0  0  0  0  0  0  0  0  0
   -0.5500    0.1830    1.4730 N   0  0  0  0  0  0  0  0  0  0  0  0
   -1.9380   -1.4950    0.3140 C   0  0  0  0  0  0  0  0  0  0  0  0
   -3.1390   -1.8400   -0.0020 O   0  0  0  0  0  0  0  0  0  0  0  0
   -1.6780    4.5540   -0.2240 H   0  0  0  0  0  0  0  0  0  0  0  0
   -2.2750    3.3100   -1.3590 H   0  0  0  0  0  0  0  0  0  0  0  0
   -3.2050    4.8660   -1.1850 H   0  0  0  0  0  0  0  0  0  0  0  0
   -1.6260    2.2600    1.6380 H   0  0  0  0  0  0  0  0  0  0  0  0
   -3.1860    1.5800    2.2930 H   0  0  0  0  0  0  0  0  0  0  0  0
   -2.0870    1.2310   -0.4970 H   0  0  0  0  0  0  0  0  0  0  0  0
   -3.5910    0.4910    0.0760 H   0  0  0  0  0  0  0  0  0  0  0  0
   -2.4710   -0.4230    2.0310 H   0  0  0  0  0  0  0  0  0  0  0  0
   -0.2780    0.1970    2.4820 H   0  0  0  0  0  0  0  0  0  0  0  0
   -2.7410   -1.5040   -3.2000 C   0  0  0  0  0  0  0  0  0  0  0  0
   -1.4020   -2.3400   -4.0350 S   0  0  0  0  0  0  0  0  0  0  0  0
    0.0280   -2.6740   -3.0470 C   0  0  0  0  0  0  0  0  0  0  0  0
   -0.1030   -3.7160   -1.9860 C   0  0  0  0  0  0  0  0  0  0  0  0
   -1.0830   -3.4710   -0.8930 C   0  0  2  0  0  0  0  0  0  0  0  0
   -0.8360   -2.2850   -0.1020 N   0  0  0  0  0  0  0  0  0  0  0  0
   -1.0990   -4.6890   -0.0020 C   0  0  0  0  0  0  0  0  0  0  0  0
   -0.9270   -4.5220    1.2120 O   0  0  0  0  0  0  0  0  0  0  0  0
   -1.2960   -5.9630   -0.4970 O   0  0  0  0  0  0  0  0  0  0  0  0
   -3.4520   -2.2220   -2.7610 H   0  0  0  0  0  0  0  0  0  0  0  0
   -3.3610   -0.9470   -3.9670 H   0  0  0  0  0  0  0  0  0  0  0  0
   -2.3970   -0.8040   -2.4160 H   0  0  0  0  0  0  0  0  0  0  0  0
    0.8370   -3.0510   -3.7500 H   0  0  0  0  0  0  0  0  0  0  0  0
    0.4630   -1.7240   -2.6180 H   0  0  0  0  0  0  0  0  0  0  0  0
   -0.4470   -4.6620   -2.5200 H   0  0  0  0  0  0  0  0  0  0  0  0
    0.9040   -4.0220   -1.5960 H   0  0  0  0  0  0  0  0  0  0  0  0
   -2.1070   -3.4510   -1.3130 H   0  0  0  0  0  0  0  0  0  0  0  0
    0.1140   -1.9730    0.1840 H   0  0  0  0  0  0  0  0  0  0  0  0
  1 12  1  0  0  0  0
  2  1  1  0  0  0  0
  3 14  1  0  0  0  0
  3  2  2  0  0  0  0
  4  2  1  0  0  0  0
  4 15  1  0  0  0  0
  5 17  1  0  0  0  0
  5 16  1  0  0  0  0
  5  4  1  0  0  0  0
  6  5  1  0  0  0  0
  7 21  1  0  0  0  0
  7  6  1  0  0  0  0
  7  8  1  0  0  0  0
  8 22  1  6  0  0  0
  8  9  1  0  0  0  0
  9 23  1  0  0  0  0
  9 24  1  0  0  0  0
 10  8  1  0  0  0  0
 10 30  1  0  0  0  0
 11 10  2  0  0  0  0
 13  1  1  0  0  0  0
 18  6  1  0  0  0  0
 19  6  1  0  0  0  0
 20  7  1  0  0  0  0
 25 33  1  0  0  0  0
 25 26  1  0  0  0  0
 26 27  1  0  0  0  0
 27 36  1  0  0  0  0
 27 37  1  0  0  0  0
 28 29  1  0  0  0  0
 28 27  1  0  0  0  0
 29 30  1  0  0  0  0
 29 40  1  1  0  0  0
 30 41  1  0  0  0  0
 31 29  1  0  0  0  0
 32 31  2  0  0  0  0
 34 25  1  0  0  0  0
 35 25  1  0  0  0  0
 38 28  1  0  0  0  0
 39 28  1  0  0  0  0
 42 51  1  0  0  0  0
 42 53  1  0  0  0  0
 43 42  1  0  0  0  0
 43 44  1  0  0  0  0
 44 55  1  0  0  0  0
 44 45  1  0  0  0  0
 45 57  1  0  0  0  0
 45 46  1  0  0  0  0
 46 58  1  6  0  0  0
 46 47  1  0  0  0  0
 46 48  1  0  0  0  0
 47 59  1  0  0  0  0
 47 31  1  0  0  0  0
 48 49  1  0  0  0  0
 50 48  2  0  0  0  0
 52 42  1  0  0  0  0
 54 44  1  0  0  0  0
 56 45  1  0  0  0  0
M  END
$$$$
