RMN.pdb
 OpenBabel07022418063D

 56 55  0  0  1  0  0  0  0  0999 V2000
    1.0440   -3.5780    5.5260 N   0  0  0  0  0  0  0  0  0  0  0  0
    0.9460   -3.0420    4.2240 C   0  0  0  0  0  0  0  0  0  0  0  0
   -0.2060   -3.0010    3.6470 N   0  0  0  0  0  0  0  0  0  0  0  0
    2.0630   -2.5380    3.5050 N   0  0  0  0  0  0  0  0  0  0  0  0
    1.8720   -1.6290    2.3540 C   0  0  0  0  0  0  0  0  0  0  0  0
    3.2090   -1.2440    1.8170 C   0  0  0  0  0  0  0  0  0  0  0  0
    3.2240   -0.3290    0.6420 C   0  0  0  0  0  0  0  0  0  0  0  0
    2.6050    0.9950    0.8490 C   0  0  2  0  0  0  0  0  0  0  0  0
    3.2880    1.6640    1.9460 N   0  0  0  0  0  0  0  0  0  0  0  0
    1.1770    1.1150    0.9970 C   0  0  0  0  0  0  0  0  0  0  0  0
    0.7080    1.7250    2.0180 O   0  0  0  0  0  0  0  0  0  0  0  0
    0.1880   -3.6810    6.1090 H   0  0  0  0  0  0  0  0  0  0  0  0
    1.9790   -3.8600    5.8760 H   0  0  0  0  0  0  0  0  0  0  0  0
   -1.0880   -3.3300    4.0520 H   0  0  0  0  0  0  0  0  0  0  0  0
    3.0190   -2.8280    3.8130 H   0  0  0  0  0  0  0  0  0  0  0  0
    1.3240   -0.7490    2.6690 H   0  0  0  0  0  0  0  0  0  0  0  0
    1.3690   -2.2440    1.5940 H   0  0  0  0  0  0  0  0  0  0  0  0
    3.7530   -0.7180    2.6510 H   0  0  0  0  0  0  0  0  0  0  0  0
    3.8330   -2.1570    1.6090 H   0  0  0  0  0  0  0  0  0  0  0  0
    2.9020   -0.8350   -0.3030 H   0  0  0  0  0  0  0  0  0  0  0  0
    4.3260   -0.1260    0.4380 H   0  0  0  0  0  0  0  0  0  0  0  0
    2.9150    1.6640   -0.0570 H   0  0  0  0  0  0  0  0  0  0  0  0
    4.3200    1.5010    1.9310 H   0  0  0  0  0  0  0  0  0  0  0  0
    3.0380    2.6650    2.0320 H   0  0  0  0  0  0  0  0  0  0  0  0
   -1.0970    4.2670   -3.0030 C   0  0  0  0  0  0  0  0  0  0  0  0
   -1.5310    4.5520   -1.2770 S   0  0  0  0  0  0  0  0  0  0  0  0
   -1.0000    3.1640   -0.2640 C   0  0  0  0  0  0  0  0  0  0  0  0
   -1.7630    1.8950   -0.5930 C   0  0  0  0  0  0  0  0  0  0  0  0
   -1.2140    0.7890    0.3410 C   0  0  2  0  0  0  0  0  0  0  0  0
    0.1960    0.6150    0.1000 N   0  0  0  0  0  0  0  0  0  0  0  0
   -2.0210   -0.4110    0.0450 C   0  0  0  0  0  0  0  0  0  0  0  0
   -3.2700   -0.2960    0.3010 O   0  0  0  0  0  0  0  0  0  0  0  0
   -1.2610    5.1450   -3.6420 H   0  0  0  0  0  0  0  0  0  0  0  0
   -0.0090    4.0480   -3.0390 H   0  0  0  0  0  0  0  0  0  0  0  0
   -1.7250    3.4360   -3.3830 H   0  0  0  0  0  0  0  0  0  0  0  0
    0.0770    2.9230   -0.4310 H   0  0  0  0  0  0  0  0  0  0  0  0
   -1.0940    3.4090    0.8100 H   0  0  0  0  0  0  0  0  0  0  0  0
   -1.6830    1.6150   -1.6430 H   0  0  0  0  0  0  0  0  0  0  0  0
   -2.8280    2.0860   -0.3630 H   0  0  0  0  0  0  0  0  0  0  0  0
   -1.4450    1.1150    1.3810 H   0  0  0  0  0  0  0  0  0  0  0  0
    0.5100    0.1210   -0.7400 H   0  0  0  0  0  0  0  0  0  0  0  0
   -3.3030   -4.4400   -4.0100 N   0  0  0  0  0  0  0  0  0  0  0  0
   -3.3160   -4.0540   -2.6350 C   0  0  0  0  0  0  0  0  0  0  0  0
   -4.0840   -4.6350   -1.8550 O   0  0  0  0  0  0  0  0  0  0  0  0
   -2.4120   -2.9820   -2.2260 C   0  0  0  0  0  0  0  0  0  0  0  0
   -2.4030   -2.7210   -0.7410 C   0  0  2  0  0  0  0  0  0  0  0  0
   -1.4830   -1.5930   -0.4790 N   0  0  0  0  0  0  0  0  0  0  0  0
   -1.8780   -3.9150   -0.0350 C   0  0  0  0  0  0  0  0  0  0  0  0
   -2.4280   -5.0300   -0.0020 O   0  0  0  0  0  0  0  0  0  0  0  0
   -0.6610   -3.8290    0.6660 O   0  0  0  0  0  0  0  0  0  0  0  0
   -4.1450   -4.8260   -4.4750 H   0  0  0  0  0  0  0  0  0  0  0  0
   -2.4320   -4.3370   -4.5640 H   0  0  0  0  0  0  0  0  0  0  0  0
   -2.6600   -2.0260   -2.7690 H   0  0  0  0  0  0  0  0  0  0  0  0
   -1.3790   -3.2720   -2.5840 H   0  0  0  0  0  0  0  0  0  0  0  0
   -3.3930   -2.4630   -0.3950 H   0  0  0  0  0  0  0  0  0  0  0  0
   -0.4650   -1.6540   -0.6710 H   0  0  0  0  0  0  0  0  0  0  0  0
  1 13  1  0  0  0  0
  1 12  1  0  0  0  0
  2  1  1  0  0  0  0
  3 14  1  0  0  0  0
  3  2  2  0  0  0  0
  4 15  1  0  0  0  0
  4  2  1  0  0  0  0
  5 16  1  0  0  0  0
  5  4  1  0  0  0  0
  6  5  1  0  0  0  0
  6 18  1  0  0  0  0
  7  8  1  0  0  0  0
  7  6  1  0  0  0  0
  8 22  1  6  0  0  0
  8 10  1  0  0  0  0
  8  9  1  0  0  0  0
  9 24  1  0  0  0  0
 10 11  2  0  0  0  0
 17  5  1  0  0  0  0
 19  6  1  0  0  0  0
 20  7  1  0  0  0  0
 21  7  1  0  0  0  0
 23  9  1  0  0  0  0
 25 26  1  0  0  0  0
 26 27  1  0  0  0  0
 27 37  1  0  0  0  0
 28 39  1  0  0  0  0
 28 27  1  0  0  0  0
 28 29  1  0  0  0  0
 29 40  1  1  0  0  0
 30 29  1  0  0  0  0
 30 10  1  0  0  0  0
 31 32  2  0  0  0  0
 31 29  1  0  0  0  0
 33 25  1  0  0  0  0
 34 25  1  0  0  0  0
 35 25  1  0  0  0  0
 36 27  1  0  0  0  0
 38 28  1  0  0  0  0
 41 30  1  0  0  0  0
 42 43  1  0  0  0  0
 43 45  1  0  0  0  0
 43 44  2  0  0  0  0
 45 46  1  0  0  0  0
 46 47  1  0  0  0  0
 46 55  1  1  0  0  0
 46 48  1  0  0  0  0
 47 31  1  0  0  0  0
 48 49  2  0  0  0  0
 48 50  1  0  0  0  0
 51 42  1  0  0  0  0
 52 42  1  0  0  0  0
 53 45  1  0  0  0  0
 54 45  1  0  0  0  0
 56 47  1  0  0  0  0
M  END
$$$$
