RMQ.pdb
 OpenBabel07022418063D

 59 58  0  0  1  0  0  0  0  0999 V2000
   -0.2950   -2.8260    3.1260 N   0  0  0  0  0  0  0  0  0  0  0  0
    0.9280   -2.3610    3.6530 C   0  0  0  0  0  0  0  0  0  0  0  0
    1.0480   -2.2720    4.9360 N   0  0  0  0  0  0  0  0  0  0  0  0
    2.0480   -1.9820    2.8190 N   0  0  0  0  0  0  0  0  0  0  0  0
    3.1140   -1.3220    3.4900 C   0  0  0  0  0  0  0  0  0  0  0  0
    4.2450   -0.8260    2.7170 C   0  0  0  0  0  0  0  0  0  0  0  0
    4.1780    0.2640    1.7390 C   0  0  0  0  0  0  0  0  0  0  0  0
    3.2660    0.1700    0.5950 C   0  0  2  0  0  0  0  0  0  0  0  0
    3.4970    1.3540   -0.3240 N   0  0  0  0  0  0  0  0  0  0  0  0
    1.8370    0.4070    1.0520 C   0  0  0  0  0  0  0  0  0  0  0  0
    1.6480    0.8920    2.1590 O   0  0  0  0  0  0  0  0  0  0  0  0
   -1.0540   -2.1830    2.8490 H   0  0  0  0  0  0  0  0  0  0  0  0
   -0.4760   -3.8520    2.9990 H   0  0  0  0  0  0  0  0  0  0  0  0
    0.2790   -2.5300    5.5760 H   0  0  0  0  0  0  0  0  0  0  0  0
    1.9910   -2.2380    1.8170 H   0  0  0  0  0  0  0  0  0  0  0  0
    3.5200   -2.1110    4.2380 H   0  0  0  0  0  0  0  0  0  0  0  0
    2.6600   -0.5370    4.1790 H   0  0  0  0  0  0  0  0  0  0  0  0
    4.7400   -1.7470    2.2200 H   0  0  0  0  0  0  0  0  0  0  0  0
    5.0920   -0.5180    3.4630 H   0  0  0  0  0  0  0  0  0  0  0  0
    5.2340    0.5180    1.3690 H   0  0  0  0  0  0  0  0  0  0  0  0
    3.9390    1.2220    2.3490 H   0  0  0  0  0  0  0  0  0  0  0  0
    3.3800   -0.7030   -0.0330 H   0  0  0  0  0  0  0  0  0  0  0  0
    4.5360    1.3700   -0.4170 H   0  0  0  0  0  0  0  0  0  0  0  0
    3.0200    1.0980   -1.1950 H   0  0  0  0  0  0  0  0  0  0  0  0
   -2.8310    4.5240   -0.3930 C   0  0  0  0  0  0  0  0  0  0  0  0
   -1.1890    4.0600   -0.9350 S   0  0  0  0  0  0  0  0  0  0  0  0
   -0.4770    2.6850    0.0040 C   0  0  0  0  0  0  0  0  0  0  0  0
   -1.2360    1.4000   -0.2330 C   0  0  0  0  0  0  0  0  0  0  0  0
   -0.6170    0.2510    0.5690 C   0  0  2  0  0  0  0  0  0  0  0  0
    0.7610    0.0520    0.1660 N   0  0  0  0  0  0  0  0  0  0  0  0
   -1.3880   -0.9540    0.2710 C   0  0  0  0  0  0  0  0  0  0  0  0
   -2.5880   -1.0140    0.6190 O   0  0  0  0  0  0  0  0  0  0  0  0
   -2.7750    5.1750    0.5200 H   0  0  0  0  0  0  0  0  0  0  0  0
   -3.2490    5.2080   -1.1850 H   0  0  0  0  0  0  0  0  0  0  0  0
   -3.4600    3.6440   -0.2460 H   0  0  0  0  0  0  0  0  0  0  0  0
    0.5900    2.5920   -0.3510 H   0  0  0  0  0  0  0  0  0  0  0  0
   -0.3830    2.9130    1.0890 H   0  0  0  0  0  0  0  0  0  0  0  0
   -2.2840    1.5570    0.0740 H   0  0  0  0  0  0  0  0  0  0  0  0
   -1.2290    1.1520   -1.3100 H   0  0  0  0  0  0  0  0  0  0  0  0
   -0.6930    0.4730    1.6570 H   0  0  0  0  0  0  0  0  0  0  0  0
    1.0520   -0.3380   -0.7520 H   0  0  0  0  0  0  0  0  0  0  0  0
   -4.8130   -1.1820   -2.9080 N   0  0  0  0  0  0  0  0  0  0  0  0
   -4.0230   -2.1920   -2.3250 C   0  0  0  0  0  0  0  0  0  0  0  0
   -4.5030   -2.8190   -1.3630 O   0  0  0  0  0  0  0  0  0  0  0  0
   -2.6850   -2.4750   -2.8520 C   0  0  0  0  0  0  0  0  0  0  0  0
   -1.9070   -3.5240   -2.1220 C   0  0  0  0  0  0  0  0  0  0  0  0
   -1.6250   -3.2640   -0.6910 C   0  0  2  0  0  0  0  0  0  0  0  0
   -0.8730   -2.0810   -0.3960 N   0  0  0  0  0  0  0  0  0  0  0  0
   -0.8720   -4.4220   -0.1570 C   0  0  0  0  0  0  0  0  0  0  0  0
    0.2360   -4.3590    0.4210 O   0  0  0  0  0  0  0  0  0  0  0  0
   -1.4280   -5.7080   -0.2980 O   0  0  0  0  0  0  0  0  0  0  0  0
   -5.4360   -1.3630   -3.7110 H   0  0  0  0  0  0  0  0  0  0  0  0
   -4.7690   -0.2240   -2.5150 H   0  0  0  0  0  0  0  0  0  0  0  0
   -2.7260   -2.8440   -3.9240 H   0  0  0  0  0  0  0  0  0  0  0  0
   -2.1550   -1.5060   -2.9370 H   0  0  0  0  0  0  0  0  0  0  0  0
   -2.5190   -4.4510   -2.1800 H   0  0  0  0  0  0  0  0  0  0  0  0
   -1.0040   -3.7450   -2.7350 H   0  0  0  0  0  0  0  0  0  0  0  0
   -2.5820   -3.2110   -0.1480 H   0  0  0  0  0  0  0  0  0  0  0  0
    0.1200   -2.1030   -0.7150 H   0  0  0  0  0  0  0  0  0  0  0  0
  1  2  1  0  0  0  0
  2  3  2  0  0  0  0
  3 14  1  0  0  0  0
  4  5  1  0  0  0  0
  4  2  1  0  0  0  0
  5 17  1  0  0  0  0
  5 16  1  0  0  0  0
  6 19  1  0  0  0  0
  6  5  1  0  0  0  0
  7 21  1  0  0  0  0
  7  6  1  0  0  0  0
  8 22  1  6  0  0  0
  8 10  1  0  0  0  0
  8  7  1  0  0  0  0
  9  8  1  0  0  0  0
 10 11  2  0  0  0  0
 12  1  1  0  0  0  0
 13  1  1  0  0  0  0
 15  4  1  0  0  0  0
 18  6  1  0  0  0  0
 20  7  1  0  0  0  0
 23  9  1  0  0  0  0
 24  9  1  0  0  0  0
 25 35  1  0  0  0  0
 25 33  1  0  0  0  0
 26 25  1  0  0  0  0
 26 27  1  0  0  0  0
 27 37  1  0  0  0  0
 28 27  1  0  0  0  0
 28 38  1  0  0  0  0
 28 29  1  0  0  0  0
 29 40  1  1  0  0  0
 30 29  1  0  0  0  0
 30 10  1  0  0  0  0
 31 29  1  0  0  0  0
 31 32  2  0  0  0  0
 34 25  1  0  0  0  0
 36 27  1  0  0  0  0
 39 28  1  0  0  0  0
 41 30  1  0  0  0  0
 42 53  1  0  0  0  0
 42 43  1  0  0  0  0
 43 44  2  0  0  0  0
 45 43  1  0  0  0  0
 45 46  1  0  0  0  0
 46 47  1  0  0  0  0
 47 48  1  0  0  0  0
 47 49  1  0  0  0  0
 47 58  1  1  0  0  0
 48 31  1  0  0  0  0
 49 50  1  0  0  0  0
 51 49  2  0  0  0  0
 52 42  1  0  0  0  0
 54 45  1  0  0  0  0
 55 45  1  0  0  0  0
 56 46  1  0  0  0  0
 57 46  1  0  0  0  0
 59 48  1  0  0  0  0
M  END
$$$$
