RMR.pdb
 OpenBabel07022418063D

 65 64  0  0  1  0  0  0  0  0999 V2000
    3.4050   -1.9530    5.3480 N   0  0  0  0  0  0  0  0  0  0  0  0
    4.1820   -1.3990    4.3010 C   0  0  0  0  0  0  0  0  0  0  0  0
    5.1510   -0.5730    4.5020 N   0  0  0  0  0  0  0  0  0  0  0  0
    3.9060   -1.7500    2.9400 N   0  0  0  0  0  0  0  0  0  0  0  0
    4.0390   -0.8140    1.8660 C   0  0  0  0  0  0  0  0  0  0  0  0
    2.9670    0.2790    1.9710 C   0  0  0  0  0  0  0  0  0  0  0  0
    3.0960    1.2690    0.8530 C   0  0  0  0  0  0  0  0  0  0  0  0
    2.0810    2.3720    0.8660 C   0  0  2  0  0  0  0  0  0  0  0  0
    2.1150    3.1270    2.0940 N   0  0  0  0  0  0  0  0  0  0  0  0
    0.7320    1.8510    0.5550 C   0  0  0  0  0  0  0  0  0  0  0  0
    0.5380    1.3720   -0.6170 O   0  0  0  0  0  0  0  0  0  0  0  0
    3.0650   -2.9360    5.3050 H   0  0  0  0  0  0  0  0  0  0  0  0
    3.1600   -1.3810    6.1810 H   0  0  0  0  0  0  0  0  0  0  0  0
    5.3460   -0.3180    5.5140 H   0  0  0  0  0  0  0  0  0  0  0  0
    3.5920   -2.7310    2.7240 H   0  0  0  0  0  0  0  0  0  0  0  0
    3.8560   -1.3220    0.9010 H   0  0  0  0  0  0  0  0  0  0  0  0
    5.0490   -0.3320    1.8280 H   0  0  0  0  0  0  0  0  0  0  0  0
    3.1900    0.7950    2.9610 H   0  0  0  0  0  0  0  0  0  0  0  0
    1.9860   -0.2010    2.0430 H   0  0  0  0  0  0  0  0  0  0  0  0
    2.9070    0.6800   -0.0940 H   0  0  0  0  0  0  0  0  0  0  0  0
    4.1340    1.6460    0.7480 H   0  0  0  0  0  0  0  0  0  0  0  0
    2.3820    3.0560    0.0170 H   0  0  0  0  0  0  0  0  0  0  0  0
    2.9450    2.8910    2.6830 H   0  0  0  0  0  0  0  0  0  0  0  0
    2.1830    4.1430    1.8700 H   0  0  0  0  0  0  0  0  0  0  0  0
   -4.2930    4.7240   -0.9130 C   0  0  0  0  0  0  0  0  0  0  0  0
   -4.1730    3.0660   -1.6780 S   0  0  0  0  0  0  0  0  0  0  0  0
   -3.6270    1.9090   -0.3510 C   0  0  0  0  0  0  0  0  0  0  0  0
   -2.2440    2.2670    0.0510 C   0  0  0  0  0  0  0  0  0  0  0  0
   -1.6740    1.3990    1.1880 C   0  0  2  0  0  0  0  0  0  0  0  0
   -0.3400    1.8580    1.4600 N   0  0  0  0  0  0  0  0  0  0  0  0
   -1.8610   -0.0360    0.9620 C   0  0  0  0  0  0  0  0  0  0  0  0
   -3.0630   -0.4710    0.8560 O   0  0  0  0  0  0  0  0  0  0  0  0
   -4.6100    4.5920    0.1500 H   0  0  0  0  0  0  0  0  0  0  0  0
   -4.9600    5.3910   -1.4720 H   0  0  0  0  0  0  0  0  0  0  0  0
   -3.2480    5.1080   -0.8520 H   0  0  0  0  0  0  0  0  0  0  0  0
   -3.6330    0.8830   -0.8320 H   0  0  0  0  0  0  0  0  0  0  0  0
   -4.3810    1.9420    0.4260 H   0  0  0  0  0  0  0  0  0  0  0  0
   -1.5610    2.2610   -0.8090 H   0  0  0  0  0  0  0  0  0  0  0  0
   -2.2740    3.3420    0.3950 H   0  0  0  0  0  0  0  0  0  0  0  0
   -2.3490    1.7110    2.0670 H   0  0  0  0  0  0  0  0  0  0  0  0
   -0.1090    2.2480    2.4390 H   0  0  0  0  0  0  0  0  0  0  0  0
   -3.0220   -3.2000   -4.6360 N   0  0  0  0  0  0  0  0  0  0  0  0
   -2.4770   -4.1140   -3.7030 C   0  0  0  0  0  0  0  0  0  0  0  0
   -3.2400   -5.0110   -3.1340 N   0  0  0  0  0  0  0  0  0  0  0  0
   -1.0970   -4.0690   -3.3720 N   0  0  0  0  0  0  0  0  0  0  0  0
   -0.6030   -4.8360   -2.2720 C   0  0  0  0  0  0  0  0  0  0  0  0
   -1.1150   -4.3240   -0.9220 C   0  0  0  0  0  0  0  0  0  0  0  0
   -0.7020   -2.9080   -0.6880 C   0  0  0  0  0  0  0  0  0  0  0  0
   -1.2670   -2.4230    0.6160 C   0  0  2  0  0  0  0  0  0  0  0  0
   -0.8780   -1.0270    0.8420 N   0  0  0  0  0  0  0  0  0  0  0  0
   -0.7280   -3.2330    1.7310 C   0  0  0  0  0  0  0  0  0  0  0  0
    0.0650   -2.7290    2.5940 O   0  0  0  0  0  0  0  0  0  0  0  0
   -1.0700   -4.5570    1.8770 O   0  0  0  0  0  0  0  0  0  0  0  0
   -3.2280   -3.4600   -5.6170 H   0  0  0  0  0  0  0  0  0  0  0  0
   -3.2230   -2.2320   -4.3280 H   0  0  0  0  0  0  0  0  0  0  0  0
   -4.2570   -5.0550   -3.3670 H   0  0  0  0  0  0  0  0  0  0  0  0
   -0.4220   -3.4820   -3.9180 H   0  0  0  0  0  0  0  0  0  0  0  0
    0.5030   -4.9150   -2.2790 H   0  0  0  0  0  0  0  0  0  0  0  0
   -0.9990   -5.8680   -2.3610 H   0  0  0  0  0  0  0  0  0  0  0  0
   -2.1960   -4.4120   -0.9060 H   0  0  0  0  0  0  0  0  0  0  0  0
   -0.6540   -5.0320   -0.1920 H   0  0  0  0  0  0  0  0  0  0  0  0
   -1.1450   -2.2820   -1.5220 H   0  0  0  0  0  0  0  0  0  0  0  0
    0.4030   -2.7670   -0.7370 H   0  0  0  0  0  0  0  0  0  0  0  0
   -2.3540   -2.5440    0.5790 H   0  0  0  0  0  0  0  0  0  0  0  0
    0.1090   -0.8100    0.9030 H   0  0  0  0  0  0  0  0  0  0  0  0
  1 13  1  0  0  0  0
  2  3  2  0  0  0  0
  2  1  1  0  0  0  0
  3 14  1  0  0  0  0
  4  2  1  0  0  0  0
  5  6  1  0  0  0  0
  5  4  1  0  0  0  0
  6 19  1  0  0  0  0
  6 18  1  0  0  0  0
  7  8  1  0  0  0  0
  7  6  1  0  0  0  0
  8 22  1  6  0  0  0
  8  9  1  0  0  0  0
  9 23  1  0  0  0  0
 10  8  1  0  0  0  0
 10 30  1  0  0  0  0
 11 10  2  0  0  0  0
 12  1  1  0  0  0  0
 15  4  1  0  0  0  0
 16  5  1  0  0  0  0
 17  5  1  0  0  0  0
 20  7  1  0  0  0  0
 21  7  1  0  0  0  0
 24  9  1  0  0  0  0
 25 35  1  0  0  0  0
 25 33  1  0  0  0  0
 26 25  1  0  0  0  0
 26 27  1  0  0  0  0
 27 28  1  0  0  0  0
 27 37  1  0  0  0  0
 28 39  1  0  0  0  0
 28 29  1  0  0  0  0
 29 30  1  0  0  0  0
 29 40  1  1  0  0  0
 30 41  1  0  0  0  0
 31 29  1  0  0  0  0
 32 31  2  0  0  0  0
 34 25  1  0  0  0  0
 36 27  1  0  0  0  0
 38 28  1  0  0  0  0
 42 55  1  0  0  0  0
 42 43  1  0  0  0  0
 43 45  1  0  0  0  0
 43 44  2  0  0  0  0
 45 46  1  0  0  0  0
 46 47  1  0  0  0  0
 47 60  1  0  0  0  0
 47 48  1  0  0  0  0
 47 61  1  0  0  0  0
 48 49  1  0  0  0  0
 49 64  1  6  0  0  0
 49 50  1  0  0  0  0
 49 51  1  0  0  0  0
 50 65  1  0  0  0  0
 50 31  1  0  0  0  0
 51 53  2  0  0  0  0
 51 52  1  0  0  0  0
 54 42  1  0  0  0  0
 56 44  1  0  0  0  0
 57 45  1  0  0  0  0
 58 46  1  0  0  0  0
 59 46  1  0  0  0  0
 62 48  1  0  0  0  0
 63 48  1  0  0  0  0
M  END
$$$$
