RMV.pdb
 OpenBabel07022418063D

 58 57  0  0  1  0  0  0  0  0999 V2000
   -0.8420   -2.6710    4.8080 N   0  0  0  0  0  0  0  0  0  0  0  0
    0.2350   -3.2790    4.1260 C   0  0  0  0  0  0  0  0  0  0  0  0
    0.1030   -3.7030    2.8960 N   0  0  0  0  0  0  0  0  0  0  0  0
    1.4920   -3.4510    4.7570 N   0  0  0  0  0  0  0  0  0  0  0  0
    2.7580   -3.1220    4.1770 C   0  0  0  0  0  0  0  0  0  0  0  0
    3.0490   -1.6860    3.9920 C   0  0  0  0  0  0  0  0  0  0  0  0
    2.2220   -0.8920    3.0640 C   0  0  0  0  0  0  0  0  0  0  0  0
    2.2950   -1.2820    1.6400 C   0  0  2  0  0  0  0  0  0  0  0  0
    3.6740   -1.1680    1.1110 N   0  0  0  0  0  0  0  0  0  0  0  0
    1.4450   -0.4510    0.7670 C   0  0  0  0  0  0  0  0  0  0  0  0
    1.9180    0.0580   -0.3100 O   0  0  0  0  0  0  0  0  0  0  0  0
   -1.3640   -3.1610    5.5590 H   0  0  0  0  0  0  0  0  0  0  0  0
   -1.1160   -1.7070    4.5480 H   0  0  0  0  0  0  0  0  0  0  0  0
   -0.7600   -3.6250    2.3610 H   0  0  0  0  0  0  0  0  0  0  0  0
    1.4710   -3.8540    5.7420 H   0  0  0  0  0  0  0  0  0  0  0  0
    2.8560   -3.7290    3.2460 H   0  0  0  0  0  0  0  0  0  0  0  0
    3.5650   -3.5460    4.8440 H   0  0  0  0  0  0  0  0  0  0  0  0
    2.9460   -1.2040    5.0140 H   0  0  0  0  0  0  0  0  0  0  0  0
    4.1430   -1.5280    3.7650 H   0  0  0  0  0  0  0  0  0  0  0  0
    2.5090    0.1720    3.1620 H   0  0  0  0  0  0  0  0  0  0  0  0
    1.1440   -0.9670    3.3590 H   0  0  0  0  0  0  0  0  0  0  0  0
    1.9920   -2.3700    1.5590 H   0  0  0  0  0  0  0  0  0  0  0  0
    3.6970   -0.6710    0.2050 H   0  0  0  0  0  0  0  0  0  0  0  0
    4.0950   -2.1100    1.0960 H   0  0  0  0  0  0  0  0  0  0  0  0
   -0.1610    1.9120    3.3970 C   0  0  0  0  0  0  0  0  0  0  0  0
    0.8050    2.8250    2.1780 S   0  0  0  0  0  0  0  0  0  0  0  0
   -0.1130    3.0420    0.6910 C   0  0  0  0  0  0  0  0  0  0  0  0
   -0.2370    1.9580   -0.3000 C   0  0  0  0  0  0  0  0  0  0  0  0
   -0.7220    0.6540    0.1010 C   0  0  2  0  0  0  0  0  0  0  0  0
    0.0570   -0.1420    1.0180 N   0  0  0  0  0  0  0  0  0  0  0  0
   -1.2210   -0.2250   -0.9820 C   0  0  0  0  0  0  0  0  0  0  0  0
   -0.8860   -1.4350   -0.9360 O   0  0  0  0  0  0  0  0  0  0  0  0
    0.4850    1.1970    3.8990 H   0  0  0  0  0  0  0  0  0  0  0  0
   -1.0430    1.3990    2.9850 H   0  0  0  0  0  0  0  0  0  0  0  0
   -0.6020    2.6290    4.1640 H   0  0  0  0  0  0  0  0  0  0  0  0
    0.3230    3.9340    0.1010 H   0  0  0  0  0  0  0  0  0  0  0  0
   -1.1630    3.4420    0.8920 H   0  0  0  0  0  0  0  0  0  0  0  0
   -0.8520    2.4160   -1.1440 H   0  0  0  0  0  0  0  0  0  0  0  0
    0.7900    1.9290   -0.8160 H   0  0  0  0  0  0  0  0  0  0  0  0
   -1.6880    0.8670    0.7050 H   0  0  0  0  0  0  0  0  0  0  0  0
   -0.2910   -0.5620    1.9090 H   0  0  0  0  0  0  0  0  0  0  0  0
   -0.7390    0.1820   -4.5020 C   0  0  0  0  0  0  0  0  0  0  0  0
   -1.3410   -1.0620   -3.8960 C   0  0  0  0  0  0  0  0  0  0  0  0
   -1.7440   -1.9990   -5.0170 C   0  0  0  0  0  0  0  0  0  0  0  0
   -2.5030   -0.6450   -3.0580 C   0  0  2  0  0  0  0  0  0  0  0  0
   -2.0330    0.2500   -2.0230 N   0  0  0  0  0  0  0  0  0  0  0  0
   -3.2530   -1.8190   -2.4870 C   0  0  0  0  0  0  0  0  0  0  0  0
   -3.4150   -1.8610   -1.2490 O   0  0  0  0  0  0  0  0  0  0  0  0
   -3.7490   -2.8200   -3.2820 O   0  0  0  0  0  0  0  0  0  0  0  0
    0.3710    0.2270   -4.2950 H   0  0  0  0  0  0  0  0  0  0  0  0
   -1.1750    1.0960   -4.0610 H   0  0  0  0  0  0  0  0  0  0  0  0
   -0.8270    0.1500   -5.6030 H   0  0  0  0  0  0  0  0  0  0  0  0
   -0.6060   -1.5620   -3.2460 H   0  0  0  0  0  0  0  0  0  0  0  0
   -2.6120   -1.6120   -5.5770 H   0  0  0  0  0  0  0  0  0  0  0  0
   -0.8900   -2.0380   -5.7330 H   0  0  0  0  0  0  0  0  0  0  0  0
   -1.8810   -3.0450   -4.6710 H   0  0  0  0  0  0  0  0  0  0  0  0
   -3.2750   -0.0880   -3.6820 H   0  0  0  0  0  0  0  0  0  0  0  0
   -2.2750    1.2650   -2.0040 H   0  0  0  0  0  0  0  0  0  0  0  0
  1 12  1  0  0  0  0
  2  4  1  0  0  0  0
  2  1  1  0  0  0  0
  3  2  2  0  0  0  0
  4 15  1  0  0  0  0
  5  4  1  0  0  0  0
  5 17  1  0  0  0  0
  6  5  1  0  0  0  0
  6 18  1  0  0  0  0
  7 20  1  0  0  0  0
  7 21  1  0  0  0  0
  7  6  1  0  0  0  0
  8 22  1  6  0  0  0
  8  7  1  0  0  0  0
  9  8  1  0  0  0  0
 10 30  1  0  0  0  0
 10  8  1  0  0  0  0
 11 10  2  0  0  0  0
 13  1  1  0  0  0  0
 14  3  1  0  0  0  0
 16  5  1  0  0  0  0
 19  6  1  0  0  0  0
 23  9  1  0  0  0  0
 24  9  1  0  0  0  0
 25 33  1  0  0  0  0
 25 35  1  0  0  0  0
 26 25  1  0  0  0  0
 27 37  1  0  0  0  0
 27 26  1  0  0  0  0
 28 29  1  0  0  0  0
 28 27  1  0  0  0  0
 29 40  1  1  0  0  0
 29 30  1  0  0  0  0
 30 41  1  0  0  0  0
 31 32  2  0  0  0  0
 31 29  1  0  0  0  0
 34 25  1  0  0  0  0
 36 27  1  0  0  0  0
 38 28  1  0  0  0  0
 39 28  1  0  0  0  0
 42 50  1  0  0  0  0
 42 51  1  0  0  0  0
 42 43  1  0  0  0  0
 43 53  1  0  0  0  0
 43 45  1  0  0  0  0
 44 56  1  0  0  0  0
 44 43  1  0  0  0  0
 45 57  1  6  0  0  0
 45 47  1  0  0  0  0
 45 46  1  0  0  0  0
 46 58  1  0  0  0  0
 46 31  1  0  0  0  0
 47 48  1  0  0  0  0
 49 47  2  0  0  0  0
 52 42  1  0  0  0  0
 54 44  1  0  0  0  0
 55 44  1  0  0  0  0
M  END
$$$$
