RMW.pdb
 OpenBabel07022418063D

 66 67  0  0  1  0  0  0  0  0999 V2000
    2.8460   -0.0760    7.4830 N   0  0  0  0  0  0  0  0  0  0  0  0
    2.9340    1.0620    6.6080 C   0  0  0  0  0  0  0  0  0  0  0  0
    2.8640    2.2670    7.0590 N   0  0  0  0  0  0  0  0  0  0  0  0
    3.0990    0.9100    5.2070 N   0  0  0  0  0  0  0  0  0  0  0  0
    2.8580    2.0130    4.3000 C   0  0  0  0  0  0  0  0  0  0  0  0
    3.1070    1.5500    2.8930 C   0  0  0  0  0  0  0  0  0  0  0  0
    2.9110    2.5540    1.8290 C   0  0  0  0  0  0  0  0  0  0  0  0
    1.5780    3.1680    1.6710 C   0  0  2  0  0  0  0  0  0  0  0  0
    1.0800    3.8900    2.8110 N   0  0  0  0  0  0  0  0  0  0  0  0
    0.5230    2.3080    1.1470 C   0  0  0  0  0  0  0  0  0  0  0  0
   -0.6270    2.3490    1.6500 O   0  0  0  0  0  0  0  0  0  0  0  0
    3.2140   -0.9910    7.1340 H   0  0  0  0  0  0  0  0  0  0  0  0
    2.4360   -0.0200    8.4320 H   0  0  0  0  0  0  0  0  0  0  0  0
    2.7410    2.3830    8.0880 H   0  0  0  0  0  0  0  0  0  0  0  0
    3.3980   -0.0200    4.8530 H   0  0  0  0  0  0  0  0  0  0  0  0
    1.8060    2.3750    4.4700 H   0  0  0  0  0  0  0  0  0  0  0  0
    3.4950    2.9000    4.5640 H   0  0  0  0  0  0  0  0  0  0  0  0
    2.5840    0.5900    2.7310 H   0  0  0  0  0  0  0  0  0  0  0  0
    4.2060    1.2750    2.8620 H   0  0  0  0  0  0  0  0  0  0  0  0
    3.2400    2.1400    0.8670 H   0  0  0  0  0  0  0  0  0  0  0  0
    3.6390    3.3980    2.0320 H   0  0  0  0  0  0  0  0  0  0  0  0
    1.7100    3.9750    0.8710 H   0  0  0  0  0  0  0  0  0  0  0  0
    0.0630    3.7520    2.9360 H   0  0  0  0  0  0  0  0  0  0  0  0
    1.2500    4.9170    2.7650 H   0  0  0  0  0  0  0  0  0  0  0  0
    2.9590    1.5090   -4.0010 C   0  0  0  0  0  0  0  0  0  0  0  0
    1.7510    1.8490   -2.6720 S   0  0  0  0  0  0  0  0  0  0  0  0
    0.3770    0.7030   -2.8930 C   0  0  0  0  0  0  0  0  0  0  0  0
   -0.6950    0.8320   -1.8800 C   0  0  0  0  0  0  0  0  0  0  0  0
   -0.2660    0.5520   -0.4740 C   0  0  2  0  0  0  0  0  0  0  0  0
    0.7550    1.3950    0.0510 N   0  0  0  0  0  0  0  0  0  0  0  0
    0.0990   -0.8850   -0.2670 C   0  0  0  0  0  0  0  0  0  0  0  0
    1.1700   -1.2320    0.2980 O   0  0  0  0  0  0  0  0  0  0  0  0
    2.4040    1.1830   -4.8980 H   0  0  0  0  0  0  0  0  0  0  0  0
    3.6310    0.6890   -3.6440 H   0  0  0  0  0  0  0  0  0  0  0  0
    3.5110    2.4360   -4.2430 H   0  0  0  0  0  0  0  0  0  0  0  0
    0.8020   -0.3240   -2.9140 H   0  0  0  0  0  0  0  0  0  0  0  0
   -0.0960    0.9220   -3.8980 H   0  0  0  0  0  0  0  0  0  0  0  0
   -1.5700    0.1700   -2.0810 H   0  0  0  0  0  0  0  0  0  0  0  0
   -1.1280    1.8840   -1.8500 H   0  0  0  0  0  0  0  0  0  0  0  0
   -1.2150    0.6730    0.1420 H   0  0  0  0  0  0  0  0  0  0  0  0
    1.7380    1.4240   -0.2810 H   0  0  0  0  0  0  0  0  0  0  0  0
   -0.7860   -1.8950   -0.7190 N   0  0  0  0  0  0  0  0  0  0  0  0
   -0.5130   -3.3350   -0.5580 C   0  0  1  0  0  0  0  0  0  0  0  0
   -1.4930   -3.9490    0.3860 C   0  0  0  0  0  0  0  0  0  0  0  0
   -2.9010   -3.8090   -0.0180 C   0  0  0  0  0  0  0  0  0  0  0  0
   -3.7650   -2.8110    0.4530 C   0  0  0  0  0  0  0  0  0  0  0  0
   -4.9540   -2.9460   -0.1400 N   0  0  0  0  0  0  0  0  0  0  0  0
   -4.8970   -3.9930   -0.9780 C   0  0  0  0  0  0  0  0  0  0  0  0
   -5.8490   -4.5420   -1.8070 C   0  0  0  0  0  0  0  0  0  0  0  0
   -5.5840   -5.6330   -2.5870 C   0  0  0  0  0  0  0  0  0  0  0  0
   -4.3160   -6.1930   -2.5290 C   0  0  0  0  0  0  0  0  0  0  0  0
   -3.3540   -5.6410   -1.6940 C   0  0  0  0  0  0  0  0  0  0  0  0
   -3.6300   -4.5410   -0.9140 C   0  0  0  0  0  0  0  0  0  0  0  0
   -0.2870   -4.0050   -1.8250 C   0  0  0  0  0  0  0  0  0  0  0  0
    0.0710   -5.2070   -1.8550 O   0  0  0  0  0  0  0  0  0  0  0  0
   -0.4460   -3.3770   -3.0590 O   0  0  0  0  0  0  0  0  0  0  0  0
   -1.6780   -1.6480   -1.1900 H   0  0  0  0  0  0  0  0  0  0  0  0
    0.4870   -3.3660   -0.0030 H   0  0  0  0  0  0  0  0  0  0  0  0
   -1.2260   -5.0410    0.4730 H   0  0  0  0  0  0  0  0  0  0  0  0
   -1.3560   -3.5710    1.4380 H   0  0  0  0  0  0  0  0  0  0  0  0
   -3.5110   -2.0620    1.1720 H   0  0  0  0  0  0  0  0  0  0  0  0
   -5.8130   -2.3340    0.0130 H   0  0  0  0  0  0  0  0  0  0  0  0
   -6.8440   -4.1200   -1.8680 H   0  0  0  0  0  0  0  0  0  0  0  0
   -6.3070   -6.0860   -3.2460 H   0  0  0  0  0  0  0  0  0  0  0  0
   -4.0560   -7.0570   -3.1250 H   0  0  0  0  0  0  0  0  0  0  0  0
   -2.3820   -6.1210   -1.6750 H   0  0  0  0  0  0  0  0  0  0  0  0
  1 13  1  0  0  0  0
  2  3  2  0  0  0  0
  2  1  1  0  0  0  0
  3 14  1  0  0  0  0
  4  2  1  0  0  0  0
  5 16  1  0  0  0  0
  5 17  1  0  0  0  0
  5  4  1  0  0  0  0
  6  5  1  0  0  0  0
  7 21  1  0  0  0  0
  7  6  1  0  0  0  0
  8 22  1  6  0  0  0
  8  7  1  0  0  0  0
  8  9  1  0  0  0  0
  9 23  1  0  0  0  0
 10 11  2  0  0  0  0
 10  8  1  0  0  0  0
 12  1  1  0  0  0  0
 15  4  1  0  0  0  0
 18  6  1  0  0  0  0
 19  6  1  0  0  0  0
 20  7  1  0  0  0  0
 24  9  1  0  0  0  0
 25 34  1  0  0  0  0
 25 26  1  0  0  0  0
 27 26  1  0  0  0  0
 27 28  1  0  0  0  0
 28 39  1  0  0  0  0
 28 29  1  0  0  0  0
 29 31  1  0  0  0  0
 29 30  1  0  0  0  0
 29 40  1  1  0  0  0
 30 10  1  0  0  0  0
 31 32  2  0  0  0  0
 33 25  1  0  0  0  0
 35 25  1  0  0  0  0
 36 27  1  0  0  0  0
 37 27  1  0  0  0  0
 38 28  1  0  0  0  0
 41 30  1  0  0  0  0
 42 43  1  0  0  0  0
 42 31  1  0  0  0  0
 43 58  1  1  0  0  0
 43 44  1  0  0  0  0
 44 59  1  0  0  0  0
 44 60  1  0  0  0  0
 45 44  1  0  0  0  0
 45 46  2  0  0  0  0
 46 61  1  0  0  0  0
 47 62  1  0  0  0  0
 47 46  1  0  0  0  0
 48 53  1  0  0  0  0
 48 47  1  0  0  0  0
 49 48  2  0  0  0  0
 50 51  2  0  0  0  0
 50 49  1  0  0  0  0
 51 52  1  0  0  0  0
 52 66  1  0  0  0  0
 52 53  2  0  0  0  0
 53 45  1  0  0  0  0
 54 43  1  0  0  0  0
 55 54  1  0  0  0  0
 56 54  2  0  0  0  0
 57 42  1  0  0  0  0
 63 49  1  0  0  0  0
 64 50  1  0  0  0  0
 65 51  1  0  0  0  0
M  END
$$$$
