RMY.pdb
 OpenBabel07022418063D

 63 63  0  0  1  0  0  0  0  0999 V2000
    1.7480   -3.0320    6.2570 N   0  0  0  0  0  0  0  0  0  0  0  0
    2.3920   -3.1100    5.0110 C   0  0  0  0  0  0  0  0  0  0  0  0
    2.6200   -4.2600    4.4530 N   0  0  0  0  0  0  0  0  0  0  0  0
    2.8300   -1.9680    4.2920 N   0  0  0  0  0  0  0  0  0  0  0  0
    3.8030   -2.0830    3.2250 C   0  0  0  0  0  0  0  0  0  0  0  0
    4.1280   -0.7460    2.6120 C   0  0  0  0  0  0  0  0  0  0  0  0
    2.9070   -0.0810    2.0220 C   0  0  0  0  0  0  0  0  0  0  0  0
    3.2650    1.2690    1.4090 C   0  0  2  0  0  0  0  0  0  0  0  0
    3.8080    2.0540    2.5160 N   0  0  0  0  0  0  0  0  0  0  0  0
    2.0890    1.9610    0.8840 C   0  0  0  0  0  0  0  0  0  0  0  0
    1.6910    3.0260    1.4240 O   0  0  0  0  0  0  0  0  0  0  0  0
    1.5490   -3.8950    6.7930 H   0  0  0  0  0  0  0  0  0  0  0  0
    1.4570   -2.1220    6.6700 H   0  0  0  0  0  0  0  0  0  0  0  0
    2.3180   -5.1280    4.9440 H   0  0  0  0  0  0  0  0  0  0  0  0
    2.4250   -1.0450    4.5620 H   0  0  0  0  0  0  0  0  0  0  0  0
    3.4300   -2.8040    2.4720 H   0  0  0  0  0  0  0  0  0  0  0  0
    4.7320   -2.5130    3.6500 H   0  0  0  0  0  0  0  0  0  0  0  0
    4.8920   -0.9230    1.8250 H   0  0  0  0  0  0  0  0  0  0  0  0
    4.6120   -0.0940    3.3690 H   0  0  0  0  0  0  0  0  0  0  0  0
    2.4910   -0.7500    1.2320 H   0  0  0  0  0  0  0  0  0  0  0  0
    2.1260    0.0270    2.7910 H   0  0  0  0  0  0  0  0  0  0  0  0
    4.0650    1.1200    0.6730 H   0  0  0  0  0  0  0  0  0  0  0  0
    4.2010    2.9620    2.1760 H   0  0  0  0  0  0  0  0  0  0  0  0
    2.9640    2.3290    3.1020 H   0  0  0  0  0  0  0  0  0  0  0  0
   -1.0360    3.3120   -5.0630 C   0  0  0  0  0  0  0  0  0  0  0  0
    0.6090    2.6140   -4.7450 S   0  0  0  0  0  0  0  0  0  0  0  0
    0.5240    1.7220   -3.1490 C   0  0  0  0  0  0  0  0  0  0  0  0
    0.2870    2.7760   -2.0880 C   0  0  0  0  0  0  0  0  0  0  0  0
    0.1910    2.2230   -0.7000 C   0  0  2  0  0  0  0  0  0  0  0  0
    1.3230    1.5270   -0.2240 N   0  0  0  0  0  0  0  0  0  0  0  0
   -1.0570    1.3830   -0.6520 C   0  0  0  0  0  0  0  0  0  0  0  0
   -2.1700    1.8490   -1.0090 O   0  0  0  0  0  0  0  0  0  0  0  0
   -1.4080    3.8130   -4.1380 H   0  0  0  0  0  0  0  0  0  0  0  0
   -1.0470    3.9850   -5.9350 H   0  0  0  0  0  0  0  0  0  0  0  0
   -1.7250    2.4310   -5.2070 H   0  0  0  0  0  0  0  0  0  0  0  0
    1.3960    1.0960   -2.9750 H   0  0  0  0  0  0  0  0  0  0  0  0
   -0.3630    1.0600   -3.2240 H   0  0  0  0  0  0  0  0  0  0  0  0
    0.9890    3.6280   -2.1830 H   0  0  0  0  0  0  0  0  0  0  0  0
   -0.7150    3.2060   -2.3180 H   0  0  0  0  0  0  0  0  0  0  0  0
    0.0080    3.0940   -0.0360 H   0  0  0  0  0  0  0  0  0  0  0  0
    1.6120    0.6530   -0.7060 H   0  0  0  0  0  0  0  0  0  0  0  0
   -6.6850   -5.3540   -1.0080 O   0  0  0  0  0  0  0  0  0  0  0  0
   -5.5590   -4.5280   -1.0310 C   0  0  0  0  0  0  0  0  0  0  0  0
   -5.5720   -3.3780   -1.7930 C   0  0  0  0  0  0  0  0  0  0  0  0
   -4.4660   -2.5320   -1.8380 C   0  0  0  0  0  0  0  0  0  0  0  0
   -3.3140   -2.8080   -1.1250 C   0  0  0  0  0  0  0  0  0  0  0  0
   -2.1260   -1.9200   -1.1750 C   0  0  0  0  0  0  0  0  0  0  0  0
   -2.2100   -0.8200   -0.1350 C   0  0  2  0  0  0  0  0  0  0  0  0
   -1.0270    0.0360   -0.2040 N   0  0  0  0  0  0  0  0  0  0  0  0
   -2.3640   -1.3120    1.2420 C   0  0  0  0  0  0  0  0  0  0  0  0
   -3.3160   -2.0500    1.6010 O   0  0  0  0  0  0  0  0  0  0  0  0
   -3.3160   -3.9660   -0.3650 C   0  0  0  0  0  0  0  0  0  0  0  0
   -4.4160   -4.8100   -0.3180 C   0  0  0  0  0  0  0  0  0  0  0  0
   -1.4370   -0.9650    2.2050 O   0  0  0  0  0  0  0  0  0  0  0  0
   -7.5970   -4.8850   -1.1480 H   0  0  0  0  0  0  0  0  0  0  0  0
   -6.4880   -3.1640   -2.3560 H   0  0  0  0  0  0  0  0  0  0  0  0
   -4.5000   -1.6470   -2.4350 H   0  0  0  0  0  0  0  0  0  0  0  0
   -1.1890   -2.4920   -0.9560 H   0  0  0  0  0  0  0  0  0  0  0  0
   -1.9780   -1.4810   -2.1830 H   0  0  0  0  0  0  0  0  0  0  0  0
   -3.1200   -0.2190   -0.4200 H   0  0  0  0  0  0  0  0  0  0  0  0
   -0.0870   -0.3390    0.0870 H   0  0  0  0  0  0  0  0  0  0  0  0
   -2.4350   -4.2240    0.2070 H   0  0  0  0  0  0  0  0  0  0  0  0
   -4.3750   -5.7030    0.2870 H   0  0  0  0  0  0  0  0  0  0  0  0
  1 13  1  0  0  0  0
  1 12  1  0  0  0  0
  2  1  1  0  0  0  0
  3 14  1  0  0  0  0
  3  2  2  0  0  0  0
  4 15  1  0  0  0  0
  4  2  1  0  0  0  0
  5 17  1  0  0  0  0
  5  4  1  0  0  0  0
  6  5  1  0  0  0  0
  6 19  1  0  0  0  0
  7  6  1  0  0  0  0
  7 21  1  0  0  0  0
  8 22  1  6  0  0  0
  8  7  1  0  0  0  0
  8  9  1  0  0  0  0
  9 24  1  0  0  0  0
 10  8  1  0  0  0  0
 10 11  2  0  0  0  0
 16  5  1  0  0  0  0
 18  6  1  0  0  0  0
 20  7  1  0  0  0  0
 23  9  1  0  0  0  0
 25 26  1  0  0  0  0
 25 33  1  0  0  0  0
 26 27  1  0  0  0  0
 27 36  1  0  0  0  0
 27 28  1  0  0  0  0
 28 29  1  0  0  0  0
 29 31  1  0  0  0  0
 29 30  1  0  0  0  0
 29 40  1  1  0  0  0
 30 10  1  0  0  0  0
 31 49  1  0  0  0  0
 32 31  2  0  0  0  0
 34 25  1  0  0  0  0
 35 25  1  0  0  0  0
 37 27  1  0  0  0  0
 38 28  1  0  0  0  0
 39 28  1  0  0  0  0
 41 30  1  0  0  0  0
 43 42  1  0  0  0  0
 43 53  1  0  0  0  0
 44 43  2  0  0  0  0
 45 44  1  0  0  0  0
 45 46  2  0  0  0  0
 46 52  1  0  0  0  0
 47 46  1  0  0  0  0
 47 58  1  0  0  0  0
 47 48  1  0  0  0  0
 48 60  1  6  0  0  0
 48 50  1  0  0  0  0
 49 48  1  0  0  0  0
 49 61  1  0  0  0  0
 50 51  2  0  0  0  0
 50 54  1  0  0  0  0
 52 53  2  0  0  0  0
 52 62  1  0  0  0  0
 53 63  1  0  0  0  0
 55 42  1  0  0  0  0
 56 44  1  0  0  0  0
 57 45  1  0  0  0  0
 59 47  1  0  0  0  0
M  END
$$$$
