RNA.pdb
 OpenBabel07022418043D

 49 48  0  0  1  0  0  0  0  0999 V2000
    3.9620   -3.0530    5.6180 N   0  0  0  0  0  0  0  0  0  0  0  0
    3.5340   -2.5290    4.3690 C   0  0  0  0  0  0  0  0  0  0  0  0
    3.9310   -1.3580    3.9680 N   0  0  0  0  0  0  0  0  0  0  0  0
    2.6620   -3.2850    3.5450 N   0  0  0  0  0  0  0  0  0  0  0  0
    2.8000   -3.1600    2.0790 C   0  0  0  0  0  0  0  0  0  0  0  0
    1.7930   -4.0110    1.3880 C   0  0  0  0  0  0  0  0  0  0  0  0
    1.9100   -3.9570   -0.0810 C   0  0  0  0  0  0  0  0  0  0  0  0
    1.7580   -2.6510   -0.7590 C   0  0  2  0  0  0  0  0  0  0  0  0
    2.7490   -1.6910   -0.3480 N   0  0  0  0  0  0  0  0  0  0  0  0
    0.4000   -2.0630   -0.6390 C   0  0  0  0  0  0  0  0  0  0  0  0
   -0.6100   -2.7720   -0.8610 O   0  0  0  0  0  0  0  0  0  0  0  0
    3.3050   -3.6320    6.2070 H   0  0  0  0  0  0  0  0  0  0  0  0
    4.9100   -2.9020    6.0100 H   0  0  0  0  0  0  0  0  0  0  0  0
    4.5770   -0.8080    4.5890 H   0  0  0  0  0  0  0  0  0  0  0  0
    1.9470   -3.9110    3.9480 H   0  0  0  0  0  0  0  0  0  0  0  0
    3.8310   -3.3080    1.7580 H   0  0  0  0  0  0  0  0  0  0  0  0
    2.5070   -2.0810    1.8990 H   0  0  0  0  0  0  0  0  0  0  0  0
    1.9280   -5.0980    1.6840 H   0  0  0  0  0  0  0  0  0  0  0  0
    0.7670   -3.7790    1.7570 H   0  0  0  0  0  0  0  0  0  0  0  0
    2.9050   -4.4280   -0.3600 H   0  0  0  0  0  0  0  0  0  0  0  0
    1.1790   -4.7060   -0.5250 H   0  0  0  0  0  0  0  0  0  0  0  0
    1.9230   -2.8030   -1.8720 H   0  0  0  0  0  0  0  0  0  0  0  0
    3.6870   -2.1220   -0.5770 H   0  0  0  0  0  0  0  0  0  0  0  0
    2.6700   -0.8760   -1.0030 H   0  0  0  0  0  0  0  0  0  0  0  0
   -0.7690    1.9080    2.9910 N   0  0  0  0  0  0  0  0  0  0  0  0
   -0.6020    1.4010    1.6830 C   0  0  0  0  0  0  0  0  0  0  0  0
    0.2820    1.8500    0.8880 O   0  0  0  0  0  0  0  0  0  0  0  0
   -1.4740    0.3170    1.2130 C   0  0  0  0  0  0  0  0  0  0  0  0
   -1.1420   -0.1890   -0.1770 C   0  0  2  0  0  0  0  0  0  0  0  0
    0.1720   -0.7140   -0.2800 N   0  0  0  0  0  0  0  0  0  0  0  0
   -1.4730    0.8260   -1.1750 C   0  0  0  0  0  0  0  0  0  0  0  0
   -0.6200    1.1750   -2.0120 O   0  0  0  0  0  0  0  0  0  0  0  0
   -0.8880    1.2830    3.8120 H   0  0  0  0  0  0  0  0  0  0  0  0
   -0.7720    2.9550    3.1230 H   0  0  0  0  0  0  0  0  0  0  0  0
   -2.5440    0.6070    1.2950 H   0  0  0  0  0  0  0  0  0  0  0  0
   -1.3660   -0.5170    1.9670 H   0  0  0  0  0  0  0  0  0  0  0  0
   -1.8630   -1.0610   -0.3240 H   0  0  0  0  0  0  0  0  0  0  0  0
    0.9850   -0.1000   -0.0920 H   0  0  0  0  0  0  0  0  0  0  0  0
   -4.2480    1.8970   -3.0780 C   0  0  0  0  0  0  0  0  0  0  0  0
   -3.1760    2.4100   -2.1480 C   0  0  2  0  0  0  0  0  0  0  0  0
   -2.7570    1.4080   -1.1920 N   0  0  0  0  0  0  0  0  0  0  0  0
   -3.5250    3.7010   -1.5090 C   0  0  0  0  0  0  0  0  0  0  0  0
   -3.4240    3.8800   -0.2550 O   0  0  0  0  0  0  0  0  0  0  0  0
   -3.9840    4.7960   -2.2260 O   0  0  0  0  0  0  0  0  0  0  0  0
   -4.8840    1.1390   -2.5330 H   0  0  0  0  0  0  0  0  0  0  0  0
   -4.9400    2.6410   -3.4530 H   0  0  0  0  0  0  0  0  0  0  0  0
   -3.7720    1.3350   -3.8970 H   0  0  0  0  0  0  0  0  0  0  0  0
   -2.2840    2.6070   -2.7960 H   0  0  0  0  0  0  0  0  0  0  0  0
   -3.4330    1.0840   -0.4630 H   0  0  0  0  0  0  0  0  0  0  0  0
  1 13  1  0  0  0  0
  1 12  1  0  0  0  0
  2  1  1  0  0  0  0
  3  2  2  0  0  0  0
  3 14  1  0  0  0  0
  4 15  1  0  0  0  0
  4  2  1  0  0  0  0
  5  4  1  0  0  0  0
  6 18  1  0  0  0  0
  6 19  1  0  0  0  0
  6  5  1  0  0  0  0
  7  6  1  0  0  0  0
  8 22  1  6  0  0  0
  8 10  1  0  0  0  0
  8  9  1  0  0  0  0
  8  7  1  0  0  0  0
 10 30  1  0  0  0  0
 11 10  2  0  0  0  0
 16  5  1  0  0  0  0
 17  5  1  0  0  0  0
 20  7  1  0  0  0  0
 21  7  1  0  0  0  0
 23  9  1  0  0  0  0
 24  9  1  0  0  0  0
 25 34  1  0  0  0  0
 25 33  1  0  0  0  0
 26 25  1  0  0  0  0
 27 26  2  0  0  0  0
 28 35  1  0  0  0  0
 28 26  1  0  0  0  0
 28 36  1  0  0  0  0
 29 37  1  6  0  0  0
 29 28  1  0  0  0  0
 30 29  1  0  0  0  0
 30 38  1  0  0  0  0
 31 29  1  0  0  0  0
 32 31  2  0  0  0  0
 39 45  1  0  0  0  0
 39 40  1  0  0  0  0
 40 48  1  6  0  0  0
 40 42  1  0  0  0  0
 40 41  1  0  0  0  0
 41 31  1  0  0  0  0
 41 49  1  0  0  0  0
 42 43  1  0  0  0  0
 44 42  2  0  0  0  0
 46 39  1  0  0  0  0
 47 39  1  0  0  0  0
M  END
$$$$
