RNC.pdb
 OpenBabel07022418043D

 50 49  0  0  1  0  0  0  0  0999 V2000
    6.3460   -1.1890    3.9810 N   0  0  0  0  0  0  0  0  0  0  0  0
    4.9590   -1.2930    3.6150 C   0  0  0  0  0  0  0  0  0  0  0  0
    4.0800   -0.8060    4.4060 N   0  0  0  0  0  0  0  0  0  0  0  0
    4.5720   -1.9130    2.4200 N   0  0  0  0  0  0  0  0  0  0  0  0
    3.2040   -2.3500    2.2130 C   0  0  0  0  0  0  0  0  0  0  0  0
    3.0060   -3.0060    0.8880 C   0  0  0  0  0  0  0  0  0  0  0  0
    3.2980   -2.2010   -0.3160 C   0  0  0  0  0  0  0  0  0  0  0  0
    2.5280   -0.9580   -0.5310 C   0  0  2  0  0  0  0  0  0  0  0  0
    2.7480   -0.0480    0.5750 N   0  0  0  0  0  0  0  0  0  0  0  0
    1.0820   -1.1760   -0.7660 C   0  0  0  0  0  0  0  0  0  0  0  0
    0.6580   -1.9200   -1.6880 O   0  0  0  0  0  0  0  0  0  0  0  0
    6.9460   -1.9970    3.7660 H   0  0  0  0  0  0  0  0  0  0  0  0
    6.6570   -0.3060    4.4400 H   0  0  0  0  0  0  0  0  0  0  0  0
    3.0560   -0.8260    4.2410 H   0  0  0  0  0  0  0  0  0  0  0  0
    5.2800   -2.0630    1.6640 H   0  0  0  0  0  0  0  0  0  0  0  0
    3.0650   -3.1690    2.9850 H   0  0  0  0  0  0  0  0  0  0  0  0
    2.5450   -1.5040    2.4060 H   0  0  0  0  0  0  0  0  0  0  0  0
    3.7280   -3.8780    0.8680 H   0  0  0  0  0  0  0  0  0  0  0  0
    2.0020   -3.5180    0.8160 H   0  0  0  0  0  0  0  0  0  0  0  0
    3.2040   -2.8810   -1.2030 H   0  0  0  0  0  0  0  0  0  0  0  0
    4.4010   -1.9580   -0.2960 H   0  0  0  0  0  0  0  0  0  0  0  0
    2.9820   -0.4460   -1.4290 H   0  0  0  0  0  0  0  0  0  0  0  0
    2.2370    0.8570    0.4430 H   0  0  0  0  0  0  0  0  0  0  0  0
    3.7860    0.1410    0.7010 H   0  0  0  0  0  0  0  0  0  0  0  0
   -2.3460   -1.2590    3.4390 N   0  0  0  0  0  0  0  0  0  0  0  0
   -1.8500   -0.7340    2.2170 C   0  0  0  0  0  0  0  0  0  0  0  0
   -1.3320    0.4090    2.2770 O   0  0  0  0  0  0  0  0  0  0  0  0
   -1.9450   -1.5070    0.9510 C   0  0  0  0  0  0  0  0  0  0  0  0
   -1.3460   -0.7950   -0.2200 C   0  0  2  0  0  0  0  0  0  0  0  0
    0.0550   -0.5580    0.0400 N   0  0  0  0  0  0  0  0  0  0  0  0
   -2.0700    0.4490   -0.5750 C   0  0  0  0  0  0  0  0  0  0  0  0
   -1.4280    1.5280   -0.6210 O   0  0  0  0  0  0  0  0  0  0  0  0
   -1.9180   -1.0140    4.3450 H   0  0  0  0  0  0  0  0  0  0  0  0
   -3.1560   -1.9000    3.4060 H   0  0  0  0  0  0  0  0  0  0  0  0
   -1.4290   -2.4830    1.1270 H   0  0  0  0  0  0  0  0  0  0  0  0
   -3.0130   -1.7830    0.7910 H   0  0  0  0  0  0  0  0  0  0  0  0
   -1.4840   -1.4840   -1.1000 H   0  0  0  0  0  0  0  0  0  0  0  0
    0.4070    0.0560    0.8000 H   0  0  0  0  0  0  0  0  0  0  0  0
   -3.4450    0.5000   -0.8680 N   0  0  0  0  0  0  0  0  0  0  0  0
   -4.1770    1.6790   -1.2150 C   0  0  1  0  0  0  0  0  0  0  0  0
   -4.8690    1.6020   -2.5490 C   0  0  0  0  0  0  0  0  0  0  0  0
   -3.7310    1.3340   -3.9180 S   0  0  0  0  0  0  0  0  0  0  0  0
   -5.2150    1.9810   -0.1990 C   0  0  0  0  0  0  0  0  0  0  0  0
   -5.9680    2.9740   -0.3180 O   0  0  0  0  0  0  0  0  0  0  0  0
   -5.3400    1.1430    0.8880 O   0  0  0  0  0  0  0  0  0  0  0  0
   -3.9650   -0.4180   -0.8240 H   0  0  0  0  0  0  0  0  0  0  0  0
   -3.4990    2.5600   -1.2380 H   0  0  0  0  0  0  0  0  0  0  0  0
   -5.3220    2.6250   -2.7150 H   0  0  0  0  0  0  0  0  0  0  0  0
   -5.7370    0.9100   -2.5530 H   0  0  0  0  0  0  0  0  0  0  0  0
   -4.0750    0.1120   -4.5470 H   0  0  0  0  0  0  0  0  0  0  0  0
  1 13  1  0  0  0  0
  2  1  1  0  0  0  0
  2  3  2  0  0  0  0
  4  2  1  0  0  0  0
  5 17  1  0  0  0  0
  5  4  1  0  0  0  0
  5 16  1  0  0  0  0
  6  5  1  0  0  0  0
  7 21  1  0  0  0  0
  7  6  1  0  0  0  0
  8 22  1  6  0  0  0
  8  7  1  0  0  0  0
  8  9  1  0  0  0  0
  9 24  1  0  0  0  0
 10  8  1  0  0  0  0
 10 30  1  0  0  0  0
 11 10  2  0  0  0  0
 12  1  1  0  0  0  0
 14  3  1  0  0  0  0
 15  4  1  0  0  0  0
 18  6  1  0  0  0  0
 19  6  1  0  0  0  0
 20  7  1  0  0  0  0
 23  9  1  0  0  0  0
 25 33  1  0  0  0  0
 26 27  2  0  0  0  0
 26 25  1  0  0  0  0
 28 35  1  0  0  0  0
 28 26  1  0  0  0  0
 29 37  1  6  0  0  0
 29 30  1  0  0  0  0
 29 28  1  0  0  0  0
 30 38  1  0  0  0  0
 31 29  1  0  0  0  0
 32 31  2  0  0  0  0
 34 25  1  0  0  0  0
 36 28  1  0  0  0  0
 39 46  1  0  0  0  0
 39 31  1  0  0  0  0
 40 47  1  6  0  0  0
 40 39  1  0  0  0  0
 40 43  1  0  0  0  0
 41 40  1  0  0  0  0
 42 41  1  0  0  0  0
 43 45  1  0  0  0  0
 44 43  2  0  0  0  0
 48 41  1  0  0  0  0
 49 41  1  0  0  0  0
 50 42  1  0  0  0  0
M  END
$$$$
