RND.pdb
 OpenBabel07022418043D

 52 51  0  0  1  0  0  0  0  0999 V2000
    0.2300   -3.3940    5.2230 N   0  0  0  0  0  0  0  0  0  0  0  0
    1.4840   -3.1000    4.6310 C   0  0  0  0  0  0  0  0  0  0  0  0
    2.3400   -4.0390    4.4510 N   0  0  0  0  0  0  0  0  0  0  0  0
    1.8370   -1.7900    4.2310 N   0  0  0  0  0  0  0  0  0  0  0  0
    3.0580   -1.4780    3.5060 C   0  0  0  0  0  0  0  0  0  0  0  0
    3.1910   -0.0160    3.2660 C   0  0  0  0  0  0  0  0  0  0  0  0
    2.1250    0.6280    2.4620 C   0  0  0  0  0  0  0  0  0  0  0  0
    2.0550    0.0540    1.0610 C   0  0  2  0  0  0  0  0  0  0  0  0
    3.3760    0.3050    0.4610 N   0  0  0  0  0  0  0  0  0  0  0  0
    1.0530    0.8190    0.2710 C   0  0  0  0  0  0  0  0  0  0  0  0
    1.4490    1.7470   -0.4770 O   0  0  0  0  0  0  0  0  0  0  0  0
   -0.6320   -3.2270    4.6620 H   0  0  0  0  0  0  0  0  0  0  0  0
    0.1210   -3.7660    6.1910 H   0  0  0  0  0  0  0  0  0  0  0  0
    2.1690   -5.0410    4.7220 H   0  0  0  0  0  0  0  0  0  0  0  0
    1.1770   -1.0170    4.4740 H   0  0  0  0  0  0  0  0  0  0  0  0
    3.1170   -2.0270    2.5430 H   0  0  0  0  0  0  0  0  0  0  0  0
    3.9070   -1.8120    4.1350 H   0  0  0  0  0  0  0  0  0  0  0  0
    4.1780    0.1200    2.7270 H   0  0  0  0  0  0  0  0  0  0  0  0
    3.3490    0.5300    4.2400 H   0  0  0  0  0  0  0  0  0  0  0  0
    2.3670    1.7050    2.3670 H   0  0  0  0  0  0  0  0  0  0  0  0
    1.1380    0.5580    2.9750 H   0  0  0  0  0  0  0  0  0  0  0  0
    1.8400   -0.9900    1.1000 H   0  0  0  0  0  0  0  0  0  0  0  0
    3.3350    0.1990   -0.5760 H   0  0  0  0  0  0  0  0  0  0  0  0
    3.5910    1.3280    0.6300 H   0  0  0  0  0  0  0  0  0  0  0  0
   -0.5600    3.2740    1.3260 N   0  0  0  0  0  0  0  0  0  0  0  0
   -0.4860    3.4600   -0.0630 C   0  0  0  0  0  0  0  0  0  0  0  0
    0.0380    4.5470   -0.4660 O   0  0  0  0  0  0  0  0  0  0  0  0
   -0.9580    2.5150   -1.0780 C   0  0  0  0  0  0  0  0  0  0  0  0
   -1.3870    1.2300   -0.3750 C   0  0  2  0  0  0  0  0  0  0  0  0
   -0.3400    0.5500    0.3150 N   0  0  0  0  0  0  0  0  0  0  0  0
   -2.2320    0.3930   -1.2290 C   0  0  0  0  0  0  0  0  0  0  0  0
   -3.1900    0.8400   -1.9080 O   0  0  0  0  0  0  0  0  0  0  0  0
    0.3000    3.4670    1.8980 H   0  0  0  0  0  0  0  0  0  0  0  0
   -1.3880    2.9600    1.8700 H   0  0  0  0  0  0  0  0  0  0  0  0
   -0.2900    2.3360   -1.9210 H   0  0  0  0  0  0  0  0  0  0  0  0
   -1.9170    2.9400   -1.5010 H   0  0  0  0  0  0  0  0  0  0  0  0
   -2.0470    1.6660    0.4610 H   0  0  0  0  0  0  0  0  0  0  0  0
   -0.5900   -0.2730    0.9600 H   0  0  0  0  0  0  0  0  0  0  0  0
   -1.9930   -1.0230   -1.3370 N   0  0  0  0  0  0  0  0  0  0  0  0
   -2.8100   -1.8850   -2.2000 C   0  0  1  0  0  0  0  0  0  0  0  0
   -1.9150   -2.6260   -3.1700 C   0  0  0  0  0  0  0  0  0  0  0  0
   -2.5910   -3.5010   -4.1080 C   0  0  0  0  0  0  0  0  0  0  0  0
   -1.8570   -4.3410   -4.7390 O   0  0  0  0  0  0  0  0  0  0  0  0
   -3.4580   -2.8800   -1.3230 C   0  0  0  0  0  0  0  0  0  0  0  0
   -4.1930   -3.7520   -1.8140 O   0  0  0  0  0  0  0  0  0  0  0  0
   -3.9410   -3.5110   -4.3840 O   0  0  0  0  0  0  0  0  0  0  0  0
   -3.2570   -2.8490    0.0380 O   0  0  0  0  0  0  0  0  0  0  0  0
   -1.2070   -1.4060   -0.7680 H   0  0  0  0  0  0  0  0  0  0  0  0
   -3.5610   -1.2990   -2.7370 H   0  0  0  0  0  0  0  0  0  0  0  0
   -1.2870   -1.8640   -3.7090 H   0  0  0  0  0  0  0  0  0  0  0  0
   -1.1620   -3.2510   -2.6130 H   0  0  0  0  0  0  0  0  0  0  0  0
   -4.2470   -3.5960   -5.3480 H   0  0  0  0  0  0  0  0  0  0  0  0
  1 13  1  0  0  0  0
  2  1  1  0  0  0  0
  3  2  2  0  0  0  0
  3 14  1  0  0  0  0
  4 15  1  0  0  0  0
  4  2  1  0  0  0  0
  5 17  1  0  0  0  0
  5  4  1  0  0  0  0
  6  5  1  0  0  0  0
  6 19  1  0  0  0  0
  7 21  1  0  0  0  0
  7  6  1  0  0  0  0
  8 22  1  1  0  0  0
  8  7  1  0  0  0  0
  9 24  1  0  0  0  0
  9  8  1  0  0  0  0
 10 30  1  0  0  0  0
 10  8  1  0  0  0  0
 11 10  2  0  0  0  0
 12  1  1  0  0  0  0
 16  5  1  0  0  0  0
 18  6  1  0  0  0  0
 20  7  1  0  0  0  0
 23  9  1  0  0  0  0
 25 34  1  0  0  0  0
 25 33  1  0  0  0  0
 26 25  1  0  0  0  0
 27 26  2  0  0  0  0
 28 29  1  0  0  0  0
 28 26  1  0  0  0  0
 29 30  1  0  0  0  0
 29 37  1  1  0  0  0
 30 38  1  0  0  0  0
 31 29  1  0  0  0  0
 32 31  2  0  0  0  0
 35 28  1  0  0  0  0
 36 28  1  0  0  0  0
 39 31  1  0  0  0  0
 39 48  1  0  0  0  0
 40 49  1  6  0  0  0
 40 39  1  0  0  0  0
 40 44  1  0  0  0  0
 41 51  1  0  0  0  0
 41 40  1  0  0  0  0
 42 41  1  0  0  0  0
 43 42  2  0  0  0  0
 44 47  1  0  0  0  0
 45 44  2  0  0  0  0
 46 42  1  0  0  0  0
 50 41  1  0  0  0  0
 52 46  1  0  0  0  0
M  END
$$$$
