RNE.pdb
 OpenBabel07022418043D

 55 54  0  0  1  0  0  0  0  0999 V2000
    0.3140   -2.1460    3.6720 N   0  0  0  0  0  0  0  0  0  0  0  0
    1.4870   -1.4040    3.9700 C   0  0  0  0  0  0  0  0  0  0  0  0
    1.7590   -1.1560    5.2010 N   0  0  0  0  0  0  0  0  0  0  0  0
    2.3420   -0.9460    2.9370 N   0  0  0  0  0  0  0  0  0  0  0  0
    3.0930    0.2800    3.1180 C   0  0  0  0  0  0  0  0  0  0  0  0
    3.9450    0.6760    2.0030 C   0  0  0  0  0  0  0  0  0  0  0  0
    3.5110    1.1220    0.6940 C   0  0  0  0  0  0  0  0  0  0  0  0
    2.5860    0.4020   -0.1760 C   0  0  2  0  0  0  0  0  0  0  0  0
    2.5580    1.1130   -1.5290 N   0  0  0  0  0  0  0  0  0  0  0  0
    1.1330    0.5510    0.2630 C   0  0  0  0  0  0  0  0  0  0  0  0
    0.7170    0.6690    1.4060 O   0  0  0  0  0  0  0  0  0  0  0  0
    0.0820   -3.0390    4.1720 H   0  0  0  0  0  0  0  0  0  0  0  0
   -0.3600   -1.8260    2.9420 H   0  0  0  0  0  0  0  0  0  0  0  0
    1.1500   -1.4790    5.9770 H   0  0  0  0  0  0  0  0  0  0  0  0
    2.4080   -1.5110    2.0640 H   0  0  0  0  0  0  0  0  0  0  0  0
    3.7600    0.0610    4.0140 H   0  0  0  0  0  0  0  0  0  0  0  0
    2.4280    1.0940    3.5070 H   0  0  0  0  0  0  0  0  0  0  0  0
    4.7730   -0.1280    1.9170 H   0  0  0  0  0  0  0  0  0  0  0  0
    4.6100    1.5430    2.4140 H   0  0  0  0  0  0  0  0  0  0  0  0
    3.1610    2.2120    0.7780 H   0  0  0  0  0  0  0  0  0  0  0  0
    4.4760    1.2600    0.0620 H   0  0  0  0  0  0  0  0  0  0  0  0
    2.8250   -0.6220   -0.3840 H   0  0  0  0  0  0  0  0  0  0  0  0
    3.5330    1.4290   -1.6540 H   0  0  0  0  0  0  0  0  0  0  0  0
    2.3600    0.3720   -2.2550 H   0  0  0  0  0  0  0  0  0  0  0  0
   -1.8350    4.3650   -1.2930 N   0  0  0  0  0  0  0  0  0  0  0  0
   -1.3390    3.1560   -0.7650 C   0  0  0  0  0  0  0  0  0  0  0  0
   -0.3380    3.1930   -0.0150 O   0  0  0  0  0  0  0  0  0  0  0  0
   -1.9580    1.8490   -1.0670 C   0  0  0  0  0  0  0  0  0  0  0  0
   -1.2720    0.6870   -0.3880 C   0  0  2  0  0  0  0  0  0  0  0  0
    0.1120    0.5530   -0.7660 N   0  0  0  0  0  0  0  0  0  0  0  0
   -2.0260   -0.5840   -0.6270 C   0  0  0  0  0  0  0  0  0  0  0  0
   -3.2320   -0.5970   -0.3320 O   0  0  0  0  0  0  0  0  0  0  0  0
   -2.5580    4.9090   -0.7930 H   0  0  0  0  0  0  0  0  0  0  0  0
   -1.4700    4.7130   -2.1950 H   0  0  0  0  0  0  0  0  0  0  0  0
   -1.9680    1.6970   -2.1730 H   0  0  0  0  0  0  0  0  0  0  0  0
   -3.0160    1.9060   -0.7630 H   0  0  0  0  0  0  0  0  0  0  0  0
   -1.3710    0.8560    0.7200 H   0  0  0  0  0  0  0  0  0  0  0  0
    0.3630    0.4610   -1.7520 H   0  0  0  0  0  0  0  0  0  0  0  0
   -1.4480   -1.7380   -1.1570 N   0  0  0  0  0  0  0  0  0  0  0  0
   -2.0600   -2.9890   -1.4030 C   0  0  1  0  0  0  0  0  0  0  0  0
   -3.2900   -3.3260   -0.6180 C   0  0  0  0  0  0  0  0  0  0  0  0
   -3.0290   -3.4220    0.8400 C   0  0  0  0  0  0  0  0  0  0  0  0
   -2.1180   -4.5150    1.2580 C   0  0  0  0  0  0  0  0  0  0  0  0
   -1.6910   -5.3470    0.4640 O   0  0  0  0  0  0  0  0  0  0  0  0
   -2.2440   -3.2470   -2.8350 C   0  0  0  0  0  0  0  0  0  0  0  0
   -1.8760   -2.4020   -3.6880 O   0  0  0  0  0  0  0  0  0  0  0  0
   -1.7850   -4.5250    2.6240 O   0  0  0  0  0  0  0  0  0  0  0  0
   -2.8270   -4.4210   -3.3070 O   0  0  0  0  0  0  0  0  0  0  0  0
   -0.4120   -1.6590   -1.4090 H   0  0  0  0  0  0  0  0  0  0  0  0
   -1.2950   -3.7640   -1.0240 H   0  0  0  0  0  0  0  0  0  0  0  0
   -4.1650   -2.7140   -0.8840 H   0  0  0  0  0  0  0  0  0  0  0  0
   -3.5710   -4.3720   -0.9530 H   0  0  0  0  0  0  0  0  0  0  0  0
   -3.9750   -3.6150    1.4310 H   0  0  0  0  0  0  0  0  0  0  0  0
   -2.5310   -2.4950    1.2570 H   0  0  0  0  0  0  0  0  0  0  0  0
   -1.0710   -5.2140    2.8860 H   0  0  0  0  0  0  0  0  0  0  0  0
  1  2  1  0  0  0  0
  1 12  1  0  0  0  0
  2  3  2  0  0  0  0
  3 14  1  0  0  0  0
  4  5  1  0  0  0  0
  4  2  1  0  0  0  0
  5 17  1  0  0  0  0
  5 16  1  0  0  0  0
  6 19  1  0  0  0  0
  6  5  1  0  0  0  0
  7 20  1  0  0  0  0
  7  6  1  0  0  0  0
  8 22  1  6  0  0  0
  8 10  1  0  0  0  0
  8  7  1  0  0  0  0
  9  8  1  0  0  0  0
 10 11  2  0  0  0  0
 13  1  1  0  0  0  0
 15  4  1  0  0  0  0
 18  6  1  0  0  0  0
 21  7  1  0  0  0  0
 23  9  1  0  0  0  0
 24  9  1  0  0  0  0
 25 33  1  0  0  0  0
 25 26  1  0  0  0  0
 26 27  2  0  0  0  0
 28 26  1  0  0  0  0
 28 36  1  0  0  0  0
 28 29  1  0  0  0  0
 29 37  1  1  0  0  0
 30 29  1  0  0  0  0
 30 10  1  0  0  0  0
 31 29  1  0  0  0  0
 31 32  2  0  0  0  0
 34 25  1  0  0  0  0
 35 28  1  0  0  0  0
 38 30  1  0  0  0  0
 39 31  1  0  0  0  0
 40 39  1  0  0  0  0
 40 50  1  1  0  0  0
 40 41  1  0  0  0  0
 41 42  1  0  0  0  0
 42 54  1  0  0  0  0
 42 43  1  0  0  0  0
 42 53  1  0  0  0  0
 43 47  1  0  0  0  0
 44 43  2  0  0  0  0
 45 40  1  0  0  0  0
 46 45  2  0  0  0  0
 47 55  1  0  0  0  0
 48 45  1  0  0  0  0
 49 39  1  0  0  0  0
 51 41  1  0  0  0  0
 52 41  1  0  0  0  0
M  END
$$$$
