RNF.pdb
 OpenBabel07022418043D

 59 59  0  0  1  0  0  0  0  0999 V2000
    3.3460    0.7830    5.4030 N   0  0  0  0  0  0  0  0  0  0  0  0
    4.2490    1.5710    4.6500 C   0  0  0  0  0  0  0  0  0  0  0  0
    4.6710    2.7430    5.0040 N   0  0  0  0  0  0  0  0  0  0  0  0
    4.7270    1.0300    3.4170 N   0  0  0  0  0  0  0  0  0  0  0  0
    5.1940    1.8730    2.3410 C   0  0  0  0  0  0  0  0  0  0  0  0
    4.0440    2.6510    1.7500 C   0  0  0  0  0  0  0  0  0  0  0  0
    3.0080    1.7040    1.2140 C   0  0  0  0  0  0  0  0  0  0  0  0
    1.8350    2.3960    0.5960 C   0  0  2  0  0  0  0  0  0  0  0  0
    1.1110    3.2620    1.4810 N   0  0  0  0  0  0  0  0  0  0  0  0
    0.9110    1.3260    0.0320 C   0  0  0  0  0  0  0  0  0  0  0  0
    1.4170    0.4280   -0.6580 O   0  0  0  0  0  0  0  0  0  0  0  0
    2.6620    1.2680    6.0220 H   0  0  0  0  0  0  0  0  0  0  0  0
    3.3550   -0.2570    5.3470 H   0  0  0  0  0  0  0  0  0  0  0  0
    4.2810    3.0890    5.9290 H   0  0  0  0  0  0  0  0  0  0  0  0
    4.7330    0.0070    3.3000 H   0  0  0  0  0  0  0  0  0  0  0  0
    5.7100    1.2450    1.5960 H   0  0  0  0  0  0  0  0  0  0  0  0
    5.9060    2.6110    2.8170 H   0  0  0  0  0  0  0  0  0  0  0  0
    4.4310    3.2410    0.8990 H   0  0  0  0  0  0  0  0  0  0  0  0
    3.6520    3.2950    2.5840 H   0  0  0  0  0  0  0  0  0  0  0  0
    2.6390    1.0010    2.0180 H   0  0  0  0  0  0  0  0  0  0  0  0
    3.5190    1.0420    0.4860 H   0  0  0  0  0  0  0  0  0  0  0  0
    2.2070    3.0190   -0.2530 H   0  0  0  0  0  0  0  0  0  0  0  0
    1.6900    3.7560    2.1670 H   0  0  0  0  0  0  0  0  0  0  0  0
    0.6310    3.9860    0.9020 H   0  0  0  0  0  0  0  0  0  0  0  0
   -4.6020    2.4230   -0.1400 N   0  0  0  0  0  0  0  0  0  0  0  0
   -3.2060    2.3590   -0.3140 C   0  0  0  0  0  0  0  0  0  0  0  0
   -2.5000    3.3140    0.0680 O   0  0  0  0  0  0  0  0  0  0  0  0
   -2.5810    1.1790   -0.9380 C   0  0  0  0  0  0  0  0  0  0  0  0
   -1.5370    0.5320   -0.0650 C   0  0  2  0  0  0  0  0  0  0  0  0
   -0.4580    1.3620    0.2880 N   0  0  0  0  0  0  0  0  0  0  0  0
   -1.2250   -0.8710   -0.4960 C   0  0  0  0  0  0  0  0  0  0  0  0
   -0.0890   -1.3730   -0.5330 O   0  0  0  0  0  0  0  0  0  0  0  0
   -5.0470    3.2270    0.3700 H   0  0  0  0  0  0  0  0  0  0  0  0
   -5.2670    1.6920   -0.5000 H   0  0  0  0  0  0  0  0  0  0  0  0
   -2.1590    1.4280   -1.9510 H   0  0  0  0  0  0  0  0  0  0  0  0
   -3.3980    0.4420   -1.0910 H   0  0  0  0  0  0  0  0  0  0  0  0
   -2.0820    0.3450    0.9540 H   0  0  0  0  0  0  0  0  0  0  0  0
   -0.7320    2.2240    0.9140 H   0  0  0  0  0  0  0  0  0  0  0  0
   -2.2720   -1.7320   -0.8980 N   0  0  0  0  0  0  0  0  0  0  0  0
   -1.9640   -3.1040   -1.3110 C   0  0  1  0  0  0  0  0  0  0  0  0
   -2.7020   -4.0740   -0.4090 C   0  0  0  0  0  0  0  0  0  0  0  0
   -2.3930   -5.4570   -0.8250 C   0  0  0  0  0  0  0  0  0  0  0  0
   -3.1540   -6.1910   -1.7130 C   0  0  0  0  0  0  0  0  0  0  0  0
   -2.8460   -7.4800   -2.0890 C   0  0  0  0  0  0  0  0  0  0  0  0
   -1.7250   -8.0970   -1.5690 C   0  0  0  0  0  0  0  0  0  0  0  0
   -0.9450   -7.3910   -0.6810 C   0  0  0  0  0  0  0  0  0  0  0  0
   -1.2600   -6.1050   -0.3120 C   0  0  0  0  0  0  0  0  0  0  0  0
   -2.2120   -3.2970   -2.7410 C   0  0  0  0  0  0  0  0  0  0  0  0
   -1.9850   -4.3620   -3.3380 O   0  0  0  0  0  0  0  0  0  0  0  0
   -2.7280   -2.2410   -3.4790 O   0  0  0  0  0  0  0  0  0  0  0  0
   -3.2790   -1.4780   -0.9230 H   0  0  0  0  0  0  0  0  0  0  0  0
   -0.8910   -3.2640   -1.0920 H   0  0  0  0  0  0  0  0  0  0  0  0
   -3.8020   -3.9340   -0.4660 H   0  0  0  0  0  0  0  0  0  0  0  0
   -2.3300   -3.8870    0.6300 H   0  0  0  0  0  0  0  0  0  0  0  0
   -4.0340   -5.6890   -2.1080 H   0  0  0  0  0  0  0  0  0  0  0  0
   -3.4690   -8.0380   -2.7960 H   0  0  0  0  0  0  0  0  0  0  0  0
   -1.4830   -9.1190   -1.8690 H   0  0  0  0  0  0  0  0  0  0  0  0
   -0.0640   -7.8580   -0.2660 H   0  0  0  0  0  0  0  0  0  0  0  0
   -0.6520   -5.5260    0.3970 H   0  0  0  0  0  0  0  0  0  0  0  0
  1 12  1  0  0  0  0
  2  3  2  0  0  0  0
  2  1  1  0  0  0  0
  3 14  1  0  0  0  0
  4  2  1  0  0  0  0
  5 17  1  0  0  0  0
  5  4  1  0  0  0  0
  6  5  1  0  0  0  0
  6 19  1  0  0  0  0
  7  6  1  0  0  0  0
  7 20  1  0  0  0  0
  8 22  1  6  0  0  0
  8  7  1  0  0  0  0
  8  9  1  0  0  0  0
  9 23  1  0  0  0  0
 10 30  1  0  0  0  0
 10  8  1  0  0  0  0
 11 10  2  0  0  0  0
 13  1  1  0  0  0  0
 15  4  1  0  0  0  0
 16  5  1  0  0  0  0
 18  6  1  0  0  0  0
 21  7  1  0  0  0  0
 24  9  1  0  0  0  0
 25 33  1  0  0  0  0
 26 25  1  0  0  0  0
 26 27  2  0  0  0  0
 28 26  1  0  0  0  0
 28 29  1  0  0  0  0
 29 30  1  0  0  0  0
 29 37  1  1  0  0  0
 30 38  1  0  0  0  0
 31 29  1  0  0  0  0
 32 31  2  0  0  0  0
 34 25  1  0  0  0  0
 35 28  1  0  0  0  0
 36 28  1  0  0  0  0
 39 31  1  0  0  0  0
 40 52  1  1  0  0  0
 40 39  1  0  0  0  0
 40 41  1  0  0  0  0
 41 54  1  0  0  0  0
 42 41  1  0  0  0  0
 42 47  1  0  0  0  0
 43 42  2  0  0  0  0
 44 43  1  0  0  0  0
 44 45  2  0  0  0  0
 45 46  1  0  0  0  0
 46 47  2  0  0  0  0
 46 58  1  0  0  0  0
 47 59  1  0  0  0  0
 48 40  1  0  0  0  0
 49 48  1  0  0  0  0
 50 48  2  0  0  0  0
 51 39  1  0  0  0  0
 53 41  1  0  0  0  0
 55 43  1  0  0  0  0
 56 44  1  0  0  0  0
 57 45  1  0  0  0  0
M  END
$$$$
