RNG.pdb
 OpenBabel07022418043D

 46 45  0  0  1  0  0  0  0  0999 V2000
   -0.9770   -5.5840    0.5040 N   0  0  0  0  0  0  0  0  0  0  0  0
   -0.1440   -4.4880    0.8220 C   0  0  0  0  0  0  0  0  0  0  0  0
   -0.2030   -3.9280    2.0070 N   0  0  0  0  0  0  0  0  0  0  0  0
    0.7880   -3.9390   -0.1020 N   0  0  0  0  0  0  0  0  0  0  0  0
    1.0780   -2.4950   -0.1370 C   0  0  0  0  0  0  0  0  0  0  0  0
    2.1080   -2.1940   -1.1680 C   0  0  0  0  0  0  0  0  0  0  0  0
    2.5110   -0.7840   -1.3310 C   0  0  0  0  0  0  0  0  0  0  0  0
    3.0900   -0.0790   -0.1690 C   0  0  2  0  0  0  0  0  0  0  0  0
    4.2800   -0.6680    0.3690 N   0  0  0  0  0  0  0  0  0  0  0  0
    2.1620    0.2770    0.9150 C   0  0  0  0  0  0  0  0  0  0  0  0
    2.3960    0.0160    2.1440 O   0  0  0  0  0  0  0  0  0  0  0  0
   -1.5490   -6.0160    1.2480 H   0  0  0  0  0  0  0  0  0  0  0  0
   -1.0270   -5.9640   -0.4550 H   0  0  0  0  0  0  0  0  0  0  0  0
   -0.8730   -4.3020    2.7160 H   0  0  0  0  0  0  0  0  0  0  0  0
    1.2620   -4.6130   -0.7630 H   0  0  0  0  0  0  0  0  0  0  0  0
    0.1450   -1.9950   -0.4220 H   0  0  0  0  0  0  0  0  0  0  0  0
    1.3260   -2.1580    0.8880 H   0  0  0  0  0  0  0  0  0  0  0  0
    1.6510   -2.5080   -2.1550 H   0  0  0  0  0  0  0  0  0  0  0  0
    2.9920   -2.8960   -1.0800 H   0  0  0  0  0  0  0  0  0  0  0  0
    3.2840   -0.7600   -2.1520 H   0  0  0  0  0  0  0  0  0  0  0  0
    1.6590   -0.1940   -1.7250 H   0  0  0  0  0  0  0  0  0  0  0  0
    3.4440    0.9320   -0.5770 H   0  0  0  0  0  0  0  0  0  0  0  0
    4.5860   -1.5310   -0.1020 H   0  0  0  0  0  0  0  0  0  0  0  0
    4.2300   -0.8640    1.3980 H   0  0  0  0  0  0  0  0  0  0  0  0
   -0.4540    5.0130    0.9010 N   0  0  0  0  0  0  0  0  0  0  0  0
   -0.4080    3.5980    0.8140 C   0  0  0  0  0  0  0  0  0  0  0  0
   -0.7080    3.0570   -0.2770 O   0  0  0  0  0  0  0  0  0  0  0  0
   -0.0210    2.8140    1.9700 C   0  0  0  0  0  0  0  0  0  0  0  0
   -0.0090    1.3160    1.7300 C   0  0  2  0  0  0  0  0  0  0  0  0
    0.9160    0.9510    0.6800 N   0  0  0  0  0  0  0  0  0  0  0  0
   -1.3520    0.7770    1.4710 C   0  0  0  0  0  0  0  0  0  0  0  0
   -1.5730    0.0690    0.4530 O   0  0  0  0  0  0  0  0  0  0  0  0
   -1.1290    5.6140    0.4200 H   0  0  0  0  0  0  0  0  0  0  0  0
    0.2590    5.5020    1.5070 H   0  0  0  0  0  0  0  0  0  0  0  0
   -0.6440    2.9810    2.8760 H   0  0  0  0  0  0  0  0  0  0  0  0
    1.0230    3.0850    2.2620 H   0  0  0  0  0  0  0  0  0  0  0  0
    0.3240    0.9140    2.7200 H   0  0  0  0  0  0  0  0  0  0  0  0
    0.6790    1.1830   -0.3080 H   0  0  0  0  0  0  0  0  0  0  0  0
   -2.4520    1.0220    2.3380 N   0  0  0  0  0  0  0  0  0  0  0  0
   -3.7650    0.4840    2.0600 C   0  0  0  0  0  0  0  0  0  0  0  0
   -3.6910   -0.9790    2.0240 C   0  0  0  0  0  0  0  0  0  0  0  0
   -4.7020   -1.7100    1.7840 O   0  0  0  0  0  0  0  0  0  0  0  0
   -2.5020   -1.6530    2.2530 O   0  0  0  0  0  0  0  0  0  0  0  0
   -2.3190    1.6030    3.1980 H   0  0  0  0  0  0  0  0  0  0  0  0
   -4.5330    0.8710    2.7530 H   0  0  0  0  0  0  0  0  0  0  0  0
   -4.0800    0.8170    1.0280 H   0  0  0  0  0  0  0  0  0  0  0  0
  1  2  1  0  0  0  0
  1 12  1  0  0  0  0
  2  3  2  0  0  0  0
  3 14  1  0  0  0  0
  4  2  1  0  0  0  0
  5  4  1  0  0  0  0
  5 17  1  0  0  0  0
  6 19  1  0  0  0  0
  6  5  1  0  0  0  0
  7  6  1  0  0  0  0
  7  8  1  0  0  0  0
  8 22  1  6  0  0  0
  8  9  1  0  0  0  0
  8 10  1  0  0  0  0
  9 24  1  0  0  0  0
 10 11  2  0  0  0  0
 13  1  1  0  0  0  0
 15  4  1  0  0  0  0
 16  5  1  0  0  0  0
 18  6  1  0  0  0  0
 20  7  1  0  0  0  0
 21  7  1  0  0  0  0
 23  9  1  0  0  0  0
 25 34  1  0  0  0  0
 26 25  1  0  0  0  0
 26 28  1  0  0  0  0
 27 26  2  0  0  0  0
 28 36  1  0  0  0  0
 28 35  1  0  0  0  0
 29 28  1  0  0  0  0
 29 37  1  1  0  0  0
 30 10  1  0  0  0  0
 30 29  1  0  0  0  0
 31 29  1  0  0  0  0
 31 39  1  0  0  0  0
 32 31  2  0  0  0  0
 33 25  1  0  0  0  0
 38 30  1  0  0  0  0
 39 44  1  0  0  0  0
 40 39  1  0  0  0  0
 40 45  1  0  0  0  0
 41 40  1  0  0  0  0
 41 43  1  0  0  0  0
 42 41  2  0  0  0  0
 46 40  1  0  0  0  0
M  END
$$$$
