RNK.pdb
 OpenBabel07022418043D

 60 59  0  0  1  0  0  0  0  0999 V2000
    1.1110   -4.3880    3.9000 N   0  0  0  0  0  0  0  0  0  0  0  0
    1.9400   -3.2460    4.0410 C   0  0  0  0  0  0  0  0  0  0  0  0
    2.7380   -3.1360    5.0580 N   0  0  0  0  0  0  0  0  0  0  0  0
    1.9220   -2.2030    3.0880 N   0  0  0  0  0  0  0  0  0  0  0  0
    2.2410   -0.8180    3.4640 C   0  0  0  0  0  0  0  0  0  0  0  0
    2.1430    0.0790    2.2380 C   0  0  0  0  0  0  0  0  0  0  0  0
    2.4560    1.4980    2.5600 C   0  0  0  0  0  0  0  0  0  0  0  0
    2.4030    2.4390    1.4080 C   0  0  2  0  0  0  0  0  0  0  0  0
    2.7340    3.8030    1.8770 N   0  0  0  0  0  0  0  0  0  0  0  0
    1.0540    2.4420    0.8020 C   0  0  0  0  0  0  0  0  0  0  0  0
    0.2660    3.3880    1.1430 O   0  0  0  0  0  0  0  0  0  0  0  0
    1.4080   -5.2630    3.4040 H   0  0  0  0  0  0  0  0  0  0  0  0
    0.1340   -4.4190    4.2950 H   0  0  0  0  0  0  0  0  0  0  0  0
    2.7740   -3.8960    5.7860 H   0  0  0  0  0  0  0  0  0  0  0  0
    1.6710   -2.4510    2.0940 H   0  0  0  0  0  0  0  0  0  0  0  0
    3.2690   -0.8410    3.8840 H   0  0  0  0  0  0  0  0  0  0  0  0
    1.5550   -0.5290    4.2640 H   0  0  0  0  0  0  0  0  0  0  0  0
    1.0710   -0.0140    1.9180 H   0  0  0  0  0  0  0  0  0  0  0  0
    2.7660   -0.3410    1.4460 H   0  0  0  0  0  0  0  0  0  0  0  0
    3.4960    1.5860    2.9940 H   0  0  0  0  0  0  0  0  0  0  0  0
    1.8030    1.8440    3.4150 H   0  0  0  0  0  0  0  0  0  0  0  0
    3.1830    2.1660    0.6800 H   0  0  0  0  0  0  0  0  0  0  0  0
    3.7740    3.7710    2.0550 H   0  0  0  0  0  0  0  0  0  0  0  0
    2.6360    4.4050    1.0100 H   0  0  0  0  0  0  0  0  0  0  0  0
    0.1320    3.4190   -3.9810 N   0  0  0  0  0  0  0  0  0  0  0  0
   -0.0010    3.0520   -2.5890 C   0  0  0  0  0  0  0  0  0  0  0  0
    0.5680    3.8300   -1.7990 O   0  0  0  0  0  0  0  0  0  0  0  0
   -0.7430    1.8640   -2.1730 C   0  0  0  0  0  0  0  0  0  0  0  0
   -0.7720    1.6560   -0.6640 C   0  0  2  0  0  0  0  0  0  0  0  0
    0.5480    1.5120   -0.1260 N   0  0  0  0  0  0  0  0  0  0  0  0
   -1.6900    0.5350   -0.3440 C   0  0  0  0  0  0  0  0  0  0  0  0
   -2.9350    0.6940   -0.6210 O   0  0  0  0  0  0  0  0  0  0  0  0
   -0.1450    4.3960   -4.2240 H   0  0  0  0  0  0  0  0  0  0  0  0
    0.4830    2.7040   -4.6200 H   0  0  0  0  0  0  0  0  0  0  0  0
   -0.3670    0.9270   -2.6790 H   0  0  0  0  0  0  0  0  0  0  0  0
   -1.7930    1.9740   -2.5320 H   0  0  0  0  0  0  0  0  0  0  0  0
   -1.2670    2.5760   -0.2450 H   0  0  0  0  0  0  0  0  0  0  0  0
    1.1390    0.7180   -0.4190 H   0  0  0  0  0  0  0  0  0  0  0  0
   -1.3650   -0.7000    0.2300 N   0  0  0  0  0  0  0  0  0  0  0  0
   -2.3750   -1.7370    0.5080 C   0  0  1  0  0  0  0  0  0  0  0  0
   -1.9300   -2.9650   -0.2640 C   0  0  0  0  0  0  0  0  0  0  0  0
   -1.8480   -2.7130   -1.7400 C   0  0  0  0  0  0  0  0  0  0  0  0
   -1.4030   -3.9710   -2.4230 C   0  0  0  0  0  0  0  0  0  0  0  0
   -2.3220   -5.1340   -2.2150 C   0  0  0  0  0  0  0  0  0  0  0  0
   -3.6580   -4.9020   -2.6990 N   0  0  0  0  0  0  0  0  0  0  0  0
   -2.3240   -2.0860    1.9460 C   0  0  0  0  0  0  0  0  0  0  0  0
   -3.0760   -2.9430    2.4680 O   0  0  0  0  0  0  0  0  0  0  0  0
   -1.4170   -1.4600    2.7840 O   0  0  0  0  0  0  0  0  0  0  0  0
   -0.3850   -0.8960    0.4490 H   0  0  0  0  0  0  0  0  0  0  0  0
   -3.3800   -1.4250    0.2250 H   0  0  0  0  0  0  0  0  0  0  0  0
   -0.9430   -3.2810    0.0880 H   0  0  0  0  0  0  0  0  0  0  0  0
   -2.6870   -3.7730   -0.1140 H   0  0  0  0  0  0  0  0  0  0  0  0
   -1.1330   -1.9140   -2.0080 H   0  0  0  0  0  0  0  0  0  0  0  0
   -2.8460   -2.3650   -2.1010 H   0  0  0  0  0  0  0  0  0  0  0  0
   -0.4150   -4.2480   -1.9940 H   0  0  0  0  0  0  0  0  0  0  0  0
   -1.2120   -3.8170   -3.5170 H   0  0  0  0  0  0  0  0  0  0  0  0
   -1.9080   -5.9830   -2.8200 H   0  0  0  0  0  0  0  0  0  0  0  0
   -2.2820   -5.4720   -1.1660 H   0  0  0  0  0  0  0  0  0  0  0  0
   -4.1530   -5.8210   -2.7100 H   0  0  0  0  0  0  0  0  0  0  0  0
   -4.2180   -4.2580   -2.1000 H   0  0  0  0  0  0  0  0  0  0  0  0
  1  2  1  0  0  0  0
  1 13  1  0  0  0  0
  2  3  2  0  0  0  0
  3 14  1  0  0  0  0
  4  5  1  0  0  0  0
  4  2  1  0  0  0  0
  5 16  1  0  0  0  0
  5 17  1  0  0  0  0
  6  7  1  0  0  0  0
  6  5  1  0  0  0  0
  7 20  1  0  0  0  0
  7 21  1  0  0  0  0
  8 22  1  6  0  0  0
  8  9  1  0  0  0  0
  8  7  1  0  0  0  0
  9 23  1  0  0  0  0
 10 11  2  0  0  0  0
 10  8  1  0  0  0  0
 12  1  1  0  0  0  0
 15  4  1  0  0  0  0
 18  6  1  0  0  0  0
 19  6  1  0  0  0  0
 24  9  1  0  0  0  0
 25 26  1  0  0  0  0
 26 28  1  0  0  0  0
 26 27  2  0  0  0  0
 28 29  1  0  0  0  0
 29 31  1  0  0  0  0
 29 37  1  1  0  0  0
 29 30  1  0  0  0  0
 30 10  1  0  0  0  0
 31 39  1  0  0  0  0
 32 31  2  0  0  0  0
 33 25  1  0  0  0  0
 34 25  1  0  0  0  0
 35 28  1  0  0  0  0
 36 28  1  0  0  0  0
 38 30  1  0  0  0  0
 39 49  1  0  0  0  0
 39 40  1  0  0  0  0
 40 50  1  6  0  0  0
 40 46  1  0  0  0  0
 41 52  1  0  0  0  0
 41 51  1  0  0  0  0
 41 40  1  0  0  0  0
 42 41  1  0  0  0  0
 43 44  1  0  0  0  0
 43 55  1  0  0  0  0
 43 42  1  0  0  0  0
 44 58  1  0  0  0  0
 45 44  1  0  0  0  0
 45 60  1  0  0  0  0
 46 47  2  0  0  0  0
 46 48  1  0  0  0  0
 53 42  1  0  0  0  0
 54 42  1  0  0  0  0
 56 43  1  0  0  0  0
 57 44  1  0  0  0  0
 59 45  1  0  0  0  0
M  END
$$$$
