RNP.pdb
 OpenBabel07022418043D

 53 53  0  0  1  0  0  0  0  0999 V2000
    1.0430   -2.9380    4.7960 N   0  0  0  0  0  0  0  0  0  0  0  0
    1.4970   -2.9810    3.4410 C   0  0  0  0  0  0  0  0  0  0  0  0
    0.6270   -2.9370    2.5090 N   0  0  0  0  0  0  0  0  0  0  0  0
    2.8790   -3.0760    3.1690 N   0  0  0  0  0  0  0  0  0  0  0  0
    3.4300   -2.4040    2.0140 C   0  0  0  0  0  0  0  0  0  0  0  0
    3.3520   -0.9280    2.2280 C   0  0  0  0  0  0  0  0  0  0  0  0
    3.9340   -0.0900    1.1620 C   0  0  0  0  0  0  0  0  0  0  0  0
    3.3740   -0.1820   -0.2100 C   0  0  2  0  0  0  0  0  0  0  0  0
    4.1960    0.7660   -1.0090 N   0  0  0  0  0  0  0  0  0  0  0  0
    1.9790    0.4250   -0.3120 C   0  0  0  0  0  0  0  0  0  0  0  0
    1.8460    1.6060   -0.6950 O   0  0  0  0  0  0  0  0  0  0  0  0
    1.4810   -3.4710    5.5640 H   0  0  0  0  0  0  0  0  0  0  0  0
    0.2240   -2.3350    5.0250 H   0  0  0  0  0  0  0  0  0  0  0  0
   -0.3780   -2.8730    2.7170 H   0  0  0  0  0  0  0  0  0  0  0  0
    3.5100   -3.6440    3.8230 H   0  0  0  0  0  0  0  0  0  0  0  0
    4.4950   -2.7480    1.8950 H   0  0  0  0  0  0  0  0  0  0  0  0
    2.8930   -2.7590    1.1260 H   0  0  0  0  0  0  0  0  0  0  0  0
    3.9420   -0.7080    3.1650 H   0  0  0  0  0  0  0  0  0  0  0  0
    2.3040   -0.6300    2.4760 H   0  0  0  0  0  0  0  0  0  0  0  0
    5.0530   -0.2590    1.1590 H   0  0  0  0  0  0  0  0  0  0  0  0
    3.8410    0.9760    1.4840 H   0  0  0  0  0  0  0  0  0  0  0  0
    3.4480   -1.1400   -0.7170 H   0  0  0  0  0  0  0  0  0  0  0  0
    4.0550    0.4900   -1.9900 H   0  0  0  0  0  0  0  0  0  0  0  0
    3.8880    1.7320   -0.7650 H   0  0  0  0  0  0  0  0  0  0  0  0
    0.1300    2.3850    1.6530 N   0  0  0  0  0  0  0  0  0  0  0  0
   -0.3740    2.5010    0.3070 C   0  0  0  0  0  0  0  0  0  0  0  0
   -0.3740    3.6530   -0.1820 O   0  0  0  0  0  0  0  0  0  0  0  0
   -0.8730    1.3930   -0.4950 C   0  0  0  0  0  0  0  0  0  0  0  0
   -0.5320    0.0080    0.0230 C   0  0  2  0  0  0  0  0  0  0  0  0
    0.8450   -0.3270    0.0130 N   0  0  0  0  0  0  0  0  0  0  0  0
   -1.4170   -0.9590   -0.6270 C   0  0  0  0  0  0  0  0  0  0  0  0
   -0.8370   -1.7900   -1.4310 O   0  0  0  0  0  0  0  0  0  0  0  0
    1.0770    2.7950    1.8150 H   0  0  0  0  0  0  0  0  0  0  0  0
   -0.4350    1.9140    2.4100 H   0  0  0  0  0  0  0  0  0  0  0  0
   -0.4370    1.5160   -1.5420 H   0  0  0  0  0  0  0  0  0  0  0  0
   -1.9460    1.4720   -0.6470 H   0  0  0  0  0  0  0  0  0  0  0  0
   -0.8480    0.1110    1.1250 H   0  0  0  0  0  0  0  0  0  0  0  0
    1.0830   -1.3520    0.3050 H   0  0  0  0  0  0  0  0  0  0  0  0
   -2.7980   -1.1170   -0.5000 N   0  0  0  0  0  0  0  0  0  0  0  0
   -3.6850   -0.4130    0.3910 C   0  0  0  0  0  0  0  0  0  0  0  0
   -4.9130   -0.2780   -0.5280 C   0  0  0  0  0  0  0  0  0  0  0  0
   -5.0260   -1.7570   -0.9420 C   0  0  0  0  0  0  0  0  0  0  0  0
   -3.5910   -2.0490   -1.3100 C   0  0  1  0  0  0  0  0  0  0  0  0
   -3.4260   -1.7150   -2.7440 C   0  0  0  0  0  0  0  0  0  0  0  0
   -2.6550   -0.7870   -3.1460 O   0  0  0  0  0  0  0  0  0  0  0  0
   -4.1280   -2.4250   -3.6910 O   0  0  0  0  0  0  0  0  0  0  0  0
   -3.3320    0.5130    0.7860 H   0  0  0  0  0  0  0  0  0  0  0  0
   -3.9840   -1.1470    1.1930 H   0  0  0  0  0  0  0  0  0  0  0  0
   -4.6530    0.3040   -1.4130 H   0  0  0  0  0  0  0  0  0  0  0  0
   -5.7590    0.0680    0.0580 H   0  0  0  0  0  0  0  0  0  0  0  0
   -5.3450   -2.3180   -0.0290 H   0  0  0  0  0  0  0  0  0  0  0  0
   -5.7300   -1.8630   -1.7790 H   0  0  0  0  0  0  0  0  0  0  0  0
   -3.3380   -3.1030   -1.1070 H   0  0  0  0  0  0  0  0  0  0  0  0
  1 13  1  0  0  0  0
  1 12  1  0  0  0  0
  2  1  1  0  0  0  0
  3 14  1  0  0  0  0
  3  2  2  0  0  0  0
  4  2  1  0  0  0  0
  4 15  1  0  0  0  0
  5  6  1  0  0  0  0
  5  4  1  0  0  0  0
  6 19  1  0  0  0  0
  6 18  1  0  0  0  0
  7 21  1  0  0  0  0
  7  6  1  0  0  0  0
  8 22  1  6  0  0  0
  8  7  1  0  0  0  0
  9 24  1  0  0  0  0
  9  8  1  0  0  0  0
 10  8  1  0  0  0  0
 10 30  1  0  0  0  0
 11 10  2  0  0  0  0
 16  5  1  0  0  0  0
 17  5  1  0  0  0  0
 20  7  1  0  0  0  0
 23  9  1  0  0  0  0
 25 33  1  0  0  0  0
 25 34  1  0  0  0  0
 26 25  1  0  0  0  0
 27 26  2  0  0  0  0
 28 29  1  0  0  0  0
 28 26  1  0  0  0  0
 29 37  1  1  0  0  0
 30 29  1  0  0  0  0
 30 38  1  0  0  0  0
 31 39  1  0  0  0  0
 31 29  1  0  0  0  0
 32 31  2  0  0  0  0
 35 28  1  0  0  0  0
 36 28  1  0  0  0  0
 39 40  1  0  0  0  0
 40 47  1  0  0  0  0
 40 48  1  0  0  0  0
 41 50  1  0  0  0  0
 41 40  1  0  0  0  0
 42 41  1  0  0  0  0
 42 51  1  0  0  0  0
 43 53  1  1  0  0  0
 43 42  1  0  0  0  0
 43 39  1  0  0  0  0
 44 43  1  0  0  0  0
 45 44  1  0  0  0  0
 46 44  2  0  0  0  0
 49 41  1  0  0  0  0
 52 42  1  0  0  0  0
M  END
$$$$
