RNQ.pdb
 OpenBabel07022418043D

 56 55  0  0  1  0  0  0  0  0999 V2000
    3.4290   -0.8380    4.3150 N   0  0  0  0  0  0  0  0  0  0  0  0
    3.7340    0.2330    3.4390 C   0  0  0  0  0  0  0  0  0  0  0  0
    3.8080    1.4600    3.8880 N   0  0  0  0  0  0  0  0  0  0  0  0
    3.9610   -0.0360    2.0640 N   0  0  0  0  0  0  0  0  0  0  0  0
    3.6970    0.9800    1.0610 C   0  0  0  0  0  0  0  0  0  0  0  0
    4.0060    0.5120   -0.3080 C   0  0  0  0  0  0  0  0  0  0  0  0
    3.2990   -0.6690   -0.8330 C   0  0  0  0  0  0  0  0  0  0  0  0
    1.8290   -0.6440   -0.9480 C   0  0  2  0  0  0  0  0  0  0  0  0
    1.2750    0.3940   -1.7660 N   0  0  0  0  0  0  0  0  0  0  0  0
    1.0550   -1.0010    0.2500 C   0  0  0  0  0  0  0  0  0  0  0  0
    1.5030   -1.7530    1.1500 O   0  0  0  0  0  0  0  0  0  0  0  0
    3.9080   -1.7540    4.2290 H   0  0  0  0  0  0  0  0  0  0  0  0
    2.7160   -0.7620    5.0810 H   0  0  0  0  0  0  0  0  0  0  0  0
    3.6510    1.6950    4.8710 H   0  0  0  0  0  0  0  0  0  0  0  0
    4.3190   -0.9690    1.7590 H   0  0  0  0  0  0  0  0  0  0  0  0
    2.7530    1.5090    1.1730 H   0  0  0  0  0  0  0  0  0  0  0  0
    4.4810    1.7800    1.2930 H   0  0  0  0  0  0  0  0  0  0  0  0
    5.1090    0.2540   -0.3170 H   0  0  0  0  0  0  0  0  0  0  0  0
    3.9150    1.3540   -1.0320 H   0  0  0  0  0  0  0  0  0  0  0  0
    3.6010   -1.6260   -0.3340 H   0  0  0  0  0  0  0  0  0  0  0  0
    3.6940   -0.8180   -1.8930 H   0  0  0  0  0  0  0  0  0  0  0  0
    1.6190   -1.5960   -1.6320 H   0  0  0  0  0  0  0  0  0  0  0  0
    1.1020    1.2900   -1.2440 H   0  0  0  0  0  0  0  0  0  0  0  0
    0.4090    0.1220   -2.2800 H   0  0  0  0  0  0  0  0  0  0  0  0
   -0.8720    2.4620    3.3450 N   0  0  0  0  0  0  0  0  0  0  0  0
   -0.5550    1.2220    2.7530 C   0  0  0  0  0  0  0  0  0  0  0  0
    0.6580    0.9130    2.6880 O   0  0  0  0  0  0  0  0  0  0  0  0
   -1.6370    0.3620    2.2470 C   0  0  0  0  0  0  0  0  0  0  0  0
   -1.0960   -0.8470    1.5890 C   0  0  2  0  0  0  0  0  0  0  0  0
   -0.2810   -0.5110    0.4570 N   0  0  0  0  0  0  0  0  0  0  0  0
   -2.1710   -1.8210    1.2160 C   0  0  0  0  0  0  0  0  0  0  0  0
   -2.9710   -2.2090    2.1040 O   0  0  0  0  0  0  0  0  0  0  0  0
   -0.9500    2.5430    4.3680 H   0  0  0  0  0  0  0  0  0  0  0  0
   -1.0240    3.2870    2.7490 H   0  0  0  0  0  0  0  0  0  0  0  0
   -2.1560    0.9650    1.4430 H   0  0  0  0  0  0  0  0  0  0  0  0
   -2.3870    0.1410    3.0390 H   0  0  0  0  0  0  0  0  0  0  0  0
   -0.4180   -1.4030    2.3010 H   0  0  0  0  0  0  0  0  0  0  0  0
   -0.6230    0.1360   -0.3170 H   0  0  0  0  0  0  0  0  0  0  0  0
   -2.6930   -0.3320   -3.4590 N   0  0  0  0  0  0  0  0  0  0  0  0
   -3.4310   -0.7890   -2.3500 C   0  0  0  0  0  0  0  0  0  0  0  0
   -3.3970   -0.1520   -1.2800 O   0  0  0  0  0  0  0  0  0  0  0  0
   -4.2440   -2.0110   -2.4520 C   0  0  0  0  0  0  0  0  0  0  0  0
   -4.5170   -2.6680   -1.1540 C   0  0  0  0  0  0  0  0  0  0  0  0
   -3.3270   -3.2270   -0.4290 C   0  0  2  0  0  0  0  0  0  0  0  0
   -2.3000   -2.3040   -0.0980 N   0  0  0  0  0  0  0  0  0  0  0  0
   -2.8000   -4.3950   -1.1830 C   0  0  0  0  0  0  0  0  0  0  0  0
   -3.6120   -5.2870   -1.5350 O   0  0  0  0  0  0  0  0  0  0  0  0
   -1.4430   -4.5020   -1.4930 O   0  0  0  0  0  0  0  0  0  0  0  0
   -3.0750   -0.4470   -4.4070 H   0  0  0  0  0  0  0  0  0  0  0  0
   -1.7730    0.1160   -3.2910 H   0  0  0  0  0  0  0  0  0  0  0  0
   -5.2160   -1.7160   -2.9240 H   0  0  0  0  0  0  0  0  0  0  0  0
   -3.7600   -2.6850   -3.1960 H   0  0  0  0  0  0  0  0  0  0  0  0
   -5.0750   -1.9490   -0.4810 H   0  0  0  0  0  0  0  0  0  0  0  0
   -5.1920   -3.5430   -1.3420 H   0  0  0  0  0  0  0  0  0  0  0  0
   -3.7860   -3.6590    0.5340 H   0  0  0  0  0  0  0  0  0  0  0  0
   -1.6080   -1.9900   -0.8190 H   0  0  0  0  0  0  0  0  0  0  0  0
  1 13  1  0  0  0  0
  2  3  2  0  0  0  0
  2  1  1  0  0  0  0
  3 14  1  0  0  0  0
  4  2  1  0  0  0  0
  5 16  1  0  0  0  0
  5 17  1  0  0  0  0
  5  4  1  0  0  0  0
  6  5  1  0  0  0  0
  7 20  1  0  0  0  0
  7  6  1  0  0  0  0
  8 22  1  6  0  0  0
  8  7  1  0  0  0  0
  8 10  1  0  0  0  0
  9 23  1  0  0  0  0
  9  8  1  0  0  0  0
 10 30  1  0  0  0  0
 10 11  2  0  0  0  0
 12  1  1  0  0  0  0
 15  4  1  0  0  0  0
 18  6  1  0  0  0  0
 19  6  1  0  0  0  0
 21  7  1  0  0  0  0
 24  9  1  0  0  0  0
 25 33  1  0  0  0  0
 26 25  1  0  0  0  0
 27 26  2  0  0  0  0
 28 26  1  0  0  0  0
 28 36  1  0  0  0  0
 29 28  1  0  0  0  0
 29 37  1  1  0  0  0
 30 29  1  0  0  0  0
 31 29  1  0  0  0  0
 31 32  2  0  0  0  0
 34 25  1  0  0  0  0
 35 28  1  0  0  0  0
 38 30  1  0  0  0  0
 39 50  1  0  0  0  0
 39 40  1  0  0  0  0
 40 41  2  0  0  0  0
 42 40  1  0  0  0  0
 42 43  1  0  0  0  0
 43 53  1  0  0  0  0
 43 44  1  0  0  0  0
 44 45  1  0  0  0  0
 44 55  1  1  0  0  0
 45 31  1  0  0  0  0
 46 44  1  0  0  0  0
 47 46  2  0  0  0  0
 48 46  1  0  0  0  0
 49 39  1  0  0  0  0
 51 42  1  0  0  0  0
 52 42  1  0  0  0  0
 54 43  1  0  0  0  0
 56 45  1  0  0  0  0
M  END
$$$$
