RNR.pdb
 OpenBabel07022418043D

 62 61  0  0  1  0  0  0  0  0999 V2000
    2.9530   -4.0630    1.6270 N   0  0  0  0  0  0  0  0  0  0  0  0
    3.1640   -2.7540    2.1110 C   0  0  0  0  0  0  0  0  0  0  0  0
    2.1840   -2.0390    2.5410 N   0  0  0  0  0  0  0  0  0  0  0  0
    4.4630   -2.1880    2.1410 N   0  0  0  0  0  0  0  0  0  0  0  0
    4.6530   -0.8390    2.5920 C   0  0  0  0  0  0  0  0  0  0  0  0
    4.0640    0.1800    1.6060 C   0  0  0  0  0  0  0  0  0  0  0  0
    4.2510    1.5700    2.1140 C   0  0  0  0  0  0  0  0  0  0  0  0
    3.7110    2.6480    1.1940 C   0  0  2  0  0  0  0  0  0  0  0  0
    3.9260    3.9600    1.8010 N   0  0  0  0  0  0  0  0  0  0  0  0
    2.2930    2.4720    0.8770 C   0  0  0  0  0  0  0  0  0  0  0  0
    1.4280    3.2070    1.4580 O   0  0  0  0  0  0  0  0  0  0  0  0
    2.5200   -4.1810    0.6800 H   0  0  0  0  0  0  0  0  0  0  0  0
    3.2040   -4.9310    2.1550 H   0  0  0  0  0  0  0  0  0  0  0  0
    1.2170   -2.4570    2.5230 H   0  0  0  0  0  0  0  0  0  0  0  0
    5.2630   -2.7560    1.8350 H   0  0  0  0  0  0  0  0  0  0  0  0
    5.7570   -0.6030    2.6140 H   0  0  0  0  0  0  0  0  0  0  0  0
    4.2570   -0.6390    3.6140 H   0  0  0  0  0  0  0  0  0  0  0  0
    2.9840   -0.0540    1.5480 H   0  0  0  0  0  0  0  0  0  0  0  0
    4.5890    0.0070    0.6570 H   0  0  0  0  0  0  0  0  0  0  0  0
    5.3660    1.7020    2.2490 H   0  0  0  0  0  0  0  0  0  0  0  0
    3.8110    1.7430    3.1080 H   0  0  0  0  0  0  0  0  0  0  0  0
    4.3420    2.6110    0.2810 H   0  0  0  0  0  0  0  0  0  0  0  0
    4.6600    4.5080    1.2850 H   0  0  0  0  0  0  0  0  0  0  0  0
    3.0470    4.4980    1.9260 H   0  0  0  0  0  0  0  0  0  0  0  0
   -2.4010    2.8720   -1.0960 N   0  0  0  0  0  0  0  0  0  0  0  0
   -1.3950    2.2330   -1.8960 C   0  0  0  0  0  0  0  0  0  0  0  0
   -1.8320    1.6780   -2.9450 O   0  0  0  0  0  0  0  0  0  0  0  0
    0.0240    2.2320   -1.5110 C   0  0  0  0  0  0  0  0  0  0  0  0
    0.3500    1.4090   -0.3090 C   0  0  2  0  0  0  0  0  0  0  0  0
    1.7970    1.5250   -0.0520 N   0  0  0  0  0  0  0  0  0  0  0  0
   -0.0030    0.0230   -0.2800 C   0  0  0  0  0  0  0  0  0  0  0  0
    0.9130   -0.8510   -0.0490 O   0  0  0  0  0  0  0  0  0  0  0  0
   -2.1090    3.7570   -0.6230 H   0  0  0  0  0  0  0  0  0  0  0  0
   -3.3690    2.4860   -0.9840 H   0  0  0  0  0  0  0  0  0  0  0  0
    0.2850    3.2960   -1.2370 H   0  0  0  0  0  0  0  0  0  0  0  0
    0.6380    2.0190   -2.3940 H   0  0  0  0  0  0  0  0  0  0  0  0
   -0.1670    1.9490    0.5450 H   0  0  0  0  0  0  0  0  0  0  0  0
    2.4480    0.9030   -0.5660 H   0  0  0  0  0  0  0  0  0  0  0  0
   -7.1860   -2.6490   -0.7420 N   0  0  0  0  0  0  0  0  0  0  0  0
   -6.1760   -3.3580   -0.0300 C   0  0  0  0  0  0  0  0  0  0  0  0
   -6.3620   -3.6750    1.1820 N   0  0  0  0  0  0  0  0  0  0  0  0
   -4.9550   -3.7200   -0.6510 N   0  0  0  0  0  0  0  0  0  0  0  0
   -3.8600   -4.2520    0.0950 C   0  0  0  0  0  0  0  0  0  0  0  0
   -3.1990   -3.3230    1.0300 C   0  0  0  0  0  0  0  0  0  0  0  0
   -2.6350   -2.0550    0.5880 C   0  0  0  0  0  0  0  0  0  0  0  0
   -1.5580   -1.9520   -0.4170 C   0  0  2  0  0  0  0  0  0  0  0  0
   -1.2860   -0.4750   -0.4840 N   0  0  0  0  0  0  0  0  0  0  0  0
   -1.9140   -2.3320   -1.7880 C   0  0  0  0  0  0  0  0  0  0  0  0
   -2.1120   -3.4970   -2.2220 O   0  0  0  0  0  0  0  0  0  0  0  0
   -2.0590   -1.3220   -2.7540 O   0  0  0  0  0  0  0  0  0  0  0  0
   -8.1820   -2.7260   -0.4590 H   0  0  0  0  0  0  0  0  0  0  0  0
   -6.9470   -2.0440   -1.5570 H   0  0  0  0  0  0  0  0  0  0  0  0
   -7.2520   -3.4190    1.6600 H   0  0  0  0  0  0  0  0  0  0  0  0
   -4.8660   -3.5890   -1.6730 H   0  0  0  0  0  0  0  0  0  0  0  0
   -3.1810   -4.9070   -0.4340 H   0  0  0  0  0  0  0  0  0  0  0  0
   -4.4070   -5.0140    0.8120 H   0  0  0  0  0  0  0  0  0  0  0  0
   -2.3400   -3.9180    1.5020 H   0  0  0  0  0  0  0  0  0  0  0  0
   -3.8350   -3.1090    1.9390 H   0  0  0  0  0  0  0  0  0  0  0  0
   -2.2170   -1.5500    1.5370 H   0  0  0  0  0  0  0  0  0  0  0  0
   -3.4290   -1.2960    0.2910 H   0  0  0  0  0  0  0  0  0  0  0  0
   -0.6070   -2.4620   -0.1430 H   0  0  0  0  0  0  0  0  0  0  0  0
   -2.0750    0.1130   -0.6820 H   0  0  0  0  0  0  0  0  0  0  0  0
  1  2  1  0  0  0  0
  1 13  1  0  0  0  0
  2  4  1  0  0  0  0
  2  3  2  0  0  0  0
  4  5  1  0  0  0  0
  5 16  1  0  0  0  0
  5 17  1  0  0  0  0
  6  7  1  0  0  0  0
  6  5  1  0  0  0  0
  7 20  1  0  0  0  0
  7 21  1  0  0  0  0
  8 22  1  6  0  0  0
  8  9  1  0  0  0  0
  8  7  1  0  0  0  0
  9 24  1  0  0  0  0
 10  8  1  0  0  0  0
 10 11  2  0  0  0  0
 12  1  1  0  0  0  0
 14  3  1  0  0  0  0
 15  4  1  0  0  0  0
 18  6  1  0  0  0  0
 19  6  1  0  0  0  0
 23  9  1  0  0  0  0
 25 34  1  0  0  0  0
 25 33  1  0  0  0  0
 26 28  1  0  0  0  0
 26 25  1  0  0  0  0
 27 26  2  0  0  0  0
 28 35  1  0  0  0  0
 28 29  1  0  0  0  0
 29 31  1  0  0  0  0
 29 30  1  0  0  0  0
 29 37  1  1  0  0  0
 30 10  1  0  0  0  0
 31 32  2  0  0  0  0
 36 28  1  0  0  0  0
 38 30  1  0  0  0  0
 39 51  1  0  0  0  0
 39 40  1  0  0  0  0
 40 41  2  0  0  0  0
 41 53  1  0  0  0  0
 42 40  1  0  0  0  0
 42 43  1  0  0  0  0
 43 56  1  0  0  0  0
 43 44  1  0  0  0  0
 44 57  1  0  0  0  0
 44 58  1  0  0  0  0
 45 44  1  0  0  0  0
 45 59  1  0  0  0  0
 46 61  1  1  0  0  0
 46 45  1  0  0  0  0
 47 46  1  0  0  0  0
 47 31  1  0  0  0  0
 48 46  1  0  0  0  0
 49 48  1  0  0  0  0
 50 48  2  0  0  0  0
 52 39  1  0  0  0  0
 54 42  1  0  0  0  0
 55 43  1  0  0  0  0
 60 45  1  0  0  0  0
 62 47  1  0  0  0  0
M  END
$$$$
