RNT.pdb
 OpenBabel07022418043D

 53 52  0  0  1  0  0  0  0  0999 V2000
    0.6370   -4.3250    3.9320 N   0  0  0  0  0  0  0  0  0  0  0  0
    0.7930   -3.6730    2.6730 C   0  0  0  0  0  0  0  0  0  0  0  0
   -0.1660   -3.6830    1.8100 N   0  0  0  0  0  0  0  0  0  0  0  0
    2.0000   -3.0280    2.3880 N   0  0  0  0  0  0  0  0  0  0  0  0
    2.1020   -1.9880    1.3610 C   0  0  0  0  0  0  0  0  0  0  0  0
    3.5110   -1.4830    1.2630 C   0  0  0  0  0  0  0  0  0  0  0  0
    3.6480   -0.4210    0.2310 C   0  0  0  0  0  0  0  0  0  0  0  0
    2.8340    0.8120    0.4270 C   0  0  2  0  0  0  0  0  0  0  0  0
    3.0700    1.4780    1.6810 N   0  0  0  0  0  0  0  0  0  0  0  0
    1.4470    0.7750   -0.0360 C   0  0  0  0  0  0  0  0  0  0  0  0
    1.2310    0.2240   -1.1510 O   0  0  0  0  0  0  0  0  0  0  0  0
    1.4090   -4.4330    4.5980 H   0  0  0  0  0  0  0  0  0  0  0  0
   -0.2920   -4.7080    4.1930 H   0  0  0  0  0  0  0  0  0  0  0  0
   -1.0730   -4.1770    2.0360 H   0  0  0  0  0  0  0  0  0  0  0  0
    2.8680   -3.2820    2.9150 H   0  0  0  0  0  0  0  0  0  0  0  0
    1.7680   -2.3930    0.3770 H   0  0  0  0  0  0  0  0  0  0  0  0
    1.4650   -1.1440    1.6590 H   0  0  0  0  0  0  0  0  0  0  0  0
    3.8070   -1.1010    2.2860 H   0  0  0  0  0  0  0  0  0  0  0  0
    4.1820   -2.3630    1.0320 H   0  0  0  0  0  0  0  0  0  0  0  0
    3.4050   -0.8330   -0.8010 H   0  0  0  0  0  0  0  0  0  0  0  0
    4.7490   -0.1760    0.1240 H   0  0  0  0  0  0  0  0  0  0  0  0
    3.3560    1.5780   -0.3230 H   0  0  0  0  0  0  0  0  0  0  0  0
    2.8410    2.5090    1.6150 H   0  0  0  0  0  0  0  0  0  0  0  0
    2.6590    1.0130    2.4990 H   0  0  0  0  0  0  0  0  0  0  0  0
   -0.7700    3.4900    2.2860 N   0  0  0  0  0  0  0  0  0  0  0  0
   -1.2590    3.7420    0.9960 C   0  0  0  0  0  0  0  0  0  0  0  0
   -1.5620    4.9430    0.7220 O   0  0  0  0  0  0  0  0  0  0  0  0
   -1.4610    2.7620   -0.0820 C   0  0  0  0  0  0  0  0  0  0  0  0
   -0.9950    1.3890    0.3590 C   0  0  2  0  0  0  0  0  0  0  0  0
    0.3650    1.3300    0.6970 N   0  0  0  0  0  0  0  0  0  0  0  0
   -1.6170    0.3120   -0.3960 C   0  0  0  0  0  0  0  0  0  0  0  0
   -2.6760    0.5140   -1.0950 O   0  0  0  0  0  0  0  0  0  0  0  0
   -1.2300    2.8650    2.9680 H   0  0  0  0  0  0  0  0  0  0  0  0
    0.1140    3.9610    2.5790 H   0  0  0  0  0  0  0  0  0  0  0  0
   -2.5590    2.7090   -0.2810 H   0  0  0  0  0  0  0  0  0  0  0  0
   -0.9860    3.0690   -1.0390 H   0  0  0  0  0  0  0  0  0  0  0  0
   -1.5380    1.2760    1.4020 H   0  0  0  0  0  0  0  0  0  0  0  0
    0.6750    1.7540    1.6330 H   0  0  0  0  0  0  0  0  0  0  0  0
   -3.9630   -3.3520   -1.4270 C   0  0  0  0  0  0  0  0  0  0  0  0
   -3.1370   -2.3750   -0.6430 C   0  0  1  0  0  0  0  0  0  0  0  0
   -3.0240   -2.8570    0.6570 O   0  0  0  0  0  0  0  0  0  0  0  0
   -1.8260   -2.0450   -1.2380 C   0  0  2  0  0  0  0  0  0  0  0  0
   -1.1570   -1.0130   -0.4380 N   0  0  0  0  0  0  0  0  0  0  0  0
   -1.8700   -1.6710   -2.6660 C   0  0  0  0  0  0  0  0  0  0  0  0
   -2.4050   -2.3590   -3.5640 O   0  0  0  0  0  0  0  0  0  0  0  0
   -1.2820   -0.4820   -3.0570 O   0  0  0  0  0  0  0  0  0  0  0  0
   -4.5470   -2.8740   -2.2400 H   0  0  0  0  0  0  0  0  0  0  0  0
   -4.7090   -3.7980   -0.7270 H   0  0  0  0  0  0  0  0  0  0  0  0
   -3.3380   -4.1960   -1.7810 H   0  0  0  0  0  0  0  0  0  0  0  0
   -3.7790   -1.4510   -0.5470 H   0  0  0  0  0  0  0  0  0  0  0  0
   -3.0200   -3.8660    0.6340 H   0  0  0  0  0  0  0  0  0  0  0  0
   -1.1730   -2.9420   -1.1900 H   0  0  0  0  0  0  0  0  0  0  0  0
   -0.3430   -1.3300    0.1250 H   0  0  0  0  0  0  0  0  0  0  0  0
  1 13  1  0  0  0  0
  1 12  1  0  0  0  0
  2  1  1  0  0  0  0
  3 14  1  0  0  0  0
  3  2  2  0  0  0  0
  4  2  1  0  0  0  0
  4 15  1  0  0  0  0
  5 17  1  0  0  0  0
  5  4  1  0  0  0  0
  6  5  1  0  0  0  0
  6 18  1  0  0  0  0
  7  8  1  0  0  0  0
  7  6  1  0  0  0  0
  8 22  1  6  0  0  0
  8  9  1  0  0  0  0
  9 24  1  0  0  0  0
 10  8  1  0  0  0  0
 10 30  1  0  0  0  0
 11 10  2  0  0  0  0
 16  5  1  0  0  0  0
 19  6  1  0  0  0  0
 20  7  1  0  0  0  0
 21  7  1  0  0  0  0
 23  9  1  0  0  0  0
 25 34  1  0  0  0  0
 25 33  1  0  0  0  0
 26 25  1  0  0  0  0
 27 26  2  0  0  0  0
 28 29  1  0  0  0  0
 28 26  1  0  0  0  0
 29 30  1  0  0  0  0
 29 37  1  1  0  0  0
 30 38  1  0  0  0  0
 31 29  1  0  0  0  0
 32 31  2  0  0  0  0
 35 28  1  0  0  0  0
 36 28  1  0  0  0  0
 39 48  1  0  0  0  0
 39 40  1  0  0  0  0
 40 50  1  1  0  0  0
 40 41  1  0  0  0  0
 42 52  1  1  0  0  0
 42 40  1  0  0  0  0
 42 43  1  0  0  0  0
 43 31  1  0  0  0  0
 43 53  1  0  0  0  0
 44 42  1  0  0  0  0
 45 44  2  0  0  0  0
 46 44  1  0  0  0  0
 47 39  1  0  0  0  0
 49 39  1  0  0  0  0
 51 41  1  0  0  0  0
M  END
$$$$
