RNV.pdb
 OpenBabel07022418043D

 55 54  0  0  1  0  0  0  0  0999 V2000
    0.2210   -3.9260    4.1080 N   0  0  0  0  0  0  0  0  0  0  0  0
    0.7620   -3.4890    2.8660 C   0  0  0  0  0  0  0  0  0  0  0  0
    0.1520   -3.7050    1.7510 N   0  0  0  0  0  0  0  0  0  0  0  0
    2.0140   -2.7920    2.8430 N   0  0  0  0  0  0  0  0  0  0  0  0
    2.3030   -1.8680    1.7450 C   0  0  0  0  0  0  0  0  0  0  0  0
    3.6690   -1.2790    1.9660 C   0  0  0  0  0  0  0  0  0  0  0  0
    4.1300   -0.3210    0.9180 C   0  0  0  0  0  0  0  0  0  0  0  0
    3.2990    0.8840    0.7040 C   0  0  2  0  0  0  0  0  0  0  0  0
    3.1920    1.6350    1.9280 N   0  0  0  0  0  0  0  0  0  0  0  0
    2.0060    0.6960    0.0140 C   0  0  0  0  0  0  0  0  0  0  0  0
    1.9480    0.0330   -1.0480 O   0  0  0  0  0  0  0  0  0  0  0  0
    0.8300   -4.4380    4.7880 H   0  0  0  0  0  0  0  0  0  0  0  0
   -0.7720   -3.7540    4.3730 H   0  0  0  0  0  0  0  0  0  0  0  0
   -0.7540   -4.2060    1.7290 H   0  0  0  0  0  0  0  0  0  0  0  0
    2.7060   -2.9430    3.5970 H   0  0  0  0  0  0  0  0  0  0  0  0
    2.1890   -2.3500    0.7680 H   0  0  0  0  0  0  0  0  0  0  0  0
    1.5460   -1.0580    1.8610 H   0  0  0  0  0  0  0  0  0  0  0  0
    4.3680   -2.1660    2.0450 H   0  0  0  0  0  0  0  0  0  0  0  0
    3.7020   -0.8290    2.9910 H   0  0  0  0  0  0  0  0  0  0  0  0
    4.3970   -0.8430   -0.0390 H   0  0  0  0  0  0  0  0  0  0  0  0
    5.1400    0.0530    1.2780 H   0  0  0  0  0  0  0  0  0  0  0  0
    3.8650    1.6180    0.0010 H   0  0  0  0  0  0  0  0  0  0  0  0
    2.8650    2.5960    1.7420 H   0  0  0  0  0  0  0  0  0  0  0  0
    2.6850    1.1290    2.6630 H   0  0  0  0  0  0  0  0  0  0  0  0
   -0.2560    3.7750    0.8140 N   0  0  0  0  0  0  0  0  0  0  0  0
   -0.5050    3.5410   -0.5650 C   0  0  0  0  0  0  0  0  0  0  0  0
   -0.6140    4.5820   -1.2860 O   0  0  0  0  0  0  0  0  0  0  0  0
   -0.6350    2.1770   -1.1570 C   0  0  0  0  0  0  0  0  0  0  0  0
   -0.4390    1.1610   -0.0350 C   0  0  2  0  0  0  0  0  0  0  0  0
    0.8410    1.2840    0.5760 N   0  0  0  0  0  0  0  0  0  0  0  0
   -0.8000   -0.2120   -0.4620 C   0  0  0  0  0  0  0  0  0  0  0  0
   -0.0960   -1.2340   -0.2960 O   0  0  0  0  0  0  0  0  0  0  0  0
   -0.8840    3.4240    1.5670 H   0  0  0  0  0  0  0  0  0  0  0  0
    0.6110    4.3340    1.0510 H   0  0  0  0  0  0  0  0  0  0  0  0
   -1.6640    2.0860   -1.5450 H   0  0  0  0  0  0  0  0  0  0  0  0
    0.1020    2.0170   -1.9690 H   0  0  0  0  0  0  0  0  0  0  0  0
   -1.1990    1.4790    0.7670 H   0  0  0  0  0  0  0  0  0  0  0  0
    0.9370    1.8430    1.4990 H   0  0  0  0  0  0  0  0  0  0  0  0
   -4.1930   -3.5090   -1.0570 C   0  0  0  0  0  0  0  0  0  0  0  0
   -3.6500   -2.1650   -0.7440 C   0  0  0  0  0  0  0  0  0  0  0  0
   -3.2470   -2.1070    0.7140 C   0  0  0  0  0  0  0  0  0  0  0  0
   -2.4380   -1.7830   -1.5620 C   0  0  2  0  0  0  0  0  0  0  0  0
   -2.0470   -0.4550   -1.1270 N   0  0  0  0  0  0  0  0  0  0  0  0
   -2.6670   -1.8580   -3.0060 C   0  0  0  0  0  0  0  0  0  0  0  0
   -3.0100   -2.9230   -3.5570 O   0  0  0  0  0  0  0  0  0  0  0  0
   -2.5050   -0.7360   -3.7920 O   0  0  0  0  0  0  0  0  0  0  0  0
   -4.9840   -3.4050   -1.8260 H   0  0  0  0  0  0  0  0  0  0  0  0
   -4.7050   -3.9450   -0.1490 H   0  0  0  0  0  0  0  0  0  0  0  0
   -3.4400   -4.2600   -1.3520 H   0  0  0  0  0  0  0  0  0  0  0  0
   -4.4400   -1.3880   -0.8910 H   0  0  0  0  0  0  0  0  0  0  0  0
   -2.2280   -2.5140    0.8780 H   0  0  0  0  0  0  0  0  0  0  0  0
   -3.9410   -2.6920    1.3540 H   0  0  0  0  0  0  0  0  0  0  0  0
   -3.1870   -1.0360    1.0630 H   0  0  0  0  0  0  0  0  0  0  0  0
   -1.6340   -2.5280   -1.2930 H   0  0  0  0  0  0  0  0  0  0  0  0
   -2.6760    0.3560   -1.2910 H   0  0  0  0  0  0  0  0  0  0  0  0
  1 13  1  0  0  0  0
  1 12  1  0  0  0  0
  2  1  1  0  0  0  0
  3  2  2  0  0  0  0
  4  2  1  0  0  0  0
  4 15  1  0  0  0  0
  5 17  1  0  0  0  0
  5  6  1  0  0  0  0
  5  4  1  0  0  0  0
  6 18  1  0  0  0  0
  6 19  1  0  0  0  0
  7 21  1  0  0  0  0
  7  6  1  0  0  0  0
  8 22  1  6  0  0  0
  8  7  1  0  0  0  0
  8  9  1  0  0  0  0
  9 24  1  0  0  0  0
 10 30  1  0  0  0  0
 10  8  1  0  0  0  0
 11 10  2  0  0  0  0
 14  3  1  0  0  0  0
 16  5  1  0  0  0  0
 20  7  1  0  0  0  0
 23  9  1  0  0  0  0
 25 34  1  0  0  0  0
 25 33  1  0  0  0  0
 26 25  1  0  0  0  0
 27 26  2  0  0  0  0
 28 26  1  0  0  0  0
 28 29  1  0  0  0  0
 29 30  1  0  0  0  0
 29 37  1  1  0  0  0
 30 38  1  0  0  0  0
 31 32  2  0  0  0  0
 31 29  1  0  0  0  0
 35 28  1  0  0  0  0
 36 28  1  0  0  0  0
 39 40  1  0  0  0  0
 39 48  1  0  0  0  0
 40 41  1  0  0  0  0
 41 51  1  0  0  0  0
 41 53  1  0  0  0  0
 41 52  1  0  0  0  0
 42 54  1  1  0  0  0
 42 43  1  0  0  0  0
 42 40  1  0  0  0  0
 43 31  1  0  0  0  0
 44 42  1  0  0  0  0
 45 44  1  0  0  0  0
 46 44  2  0  0  0  0
 47 39  1  0  0  0  0
 49 39  1  0  0  0  0
 50 40  1  0  0  0  0
 55 43  1  0  0  0  0
M  END
$$$$
