RPD.pdb
 OpenBabel07022418063D

 52 52  0  0  1  0  0  0  0  0999 V2000
    3.6730   -5.2350    3.6190 N   0  0  0  0  0  0  0  0  0  0  0  0
    3.2820   -4.1940    2.7560 C   0  0  0  0  0  0  0  0  0  0  0  0
    2.0840   -4.1930    2.2680 N   0  0  0  0  0  0  0  0  0  0  0  0
    4.1490   -3.1400    2.3960 N   0  0  0  0  0  0  0  0  0  0  0  0
    3.7130   -2.0300    1.5340 C   0  0  0  0  0  0  0  0  0  0  0  0
    2.7270   -1.1980    2.2600 C   0  0  0  0  0  0  0  0  0  0  0  0
    2.1730   -0.0060    1.5870 C   0  0  0  0  0  0  0  0  0  0  0  0
    1.4300   -0.3050    0.3260 C   0  0  2  0  0  0  0  0  0  0  0  0
    2.3710   -0.9240   -0.5840 N   0  0  0  0  0  0  0  0  0  0  0  0
    0.8630    0.9000   -0.3240 C   0  0  0  0  0  0  0  0  0  0  0  0
    1.4700    1.3310   -1.3650 O   0  0  0  0  0  0  0  0  0  0  0  0
    4.5720   -5.1760    4.1250 H   0  0  0  0  0  0  0  0  0  0  0  0
    3.0680   -6.0590    3.7490 H   0  0  0  0  0  0  0  0  0  0  0  0
    1.3770   -4.9410    2.4850 H   0  0  0  0  0  0  0  0  0  0  0  0
    5.1190   -3.1370    2.7430 H   0  0  0  0  0  0  0  0  0  0  0  0
    4.5590   -1.4010    1.2370 H   0  0  0  0  0  0  0  0  0  0  0  0
    3.3450   -2.5540    0.6270 H   0  0  0  0  0  0  0  0  0  0  0  0
    1.8620   -1.8550    2.5360 H   0  0  0  0  0  0  0  0  0  0  0  0
    3.2340   -0.8800    3.2270 H   0  0  0  0  0  0  0  0  0  0  0  0
    3.0600    0.6800    1.3750 H   0  0  0  0  0  0  0  0  0  0  0  0
    1.5950    0.5750    2.3420 H   0  0  0  0  0  0  0  0  0  0  0  0
    0.6120   -0.9710    0.5780 H   0  0  0  0  0  0  0  0  0  0  0  0
    1.9450   -1.1940   -1.4940 H   0  0  0  0  0  0  0  0  0  0  0  0
    3.2620   -0.4230   -0.6590 H   0  0  0  0  0  0  0  0  0  0  0  0
   -0.2910    1.6020    0.1190 N   0  0  0  0  0  0  0  0  0  0  0  0
   -0.7390    2.8150   -0.6040 C   0  0  0  0  0  0  0  0  0  0  0  0
   -1.2080    3.7060    0.5340 C   0  0  0  0  0  0  0  0  0  0  0  0
   -1.9400    2.7060    1.3730 C   0  0  0  0  0  0  0  0  0  0  0  0
   -1.2160    1.4110    1.1710 C   0  0  1  0  0  0  0  0  0  0  0  0
   -2.1490    0.2830    0.9690 C   0  0  0  0  0  0  0  0  0  0  0  0
   -2.9910    0.0230    1.8450 O   0  0  0  0  0  0  0  0  0  0  0  0
   -1.5700    2.5890   -1.2950 H   0  0  0  0  0  0  0  0  0  0  0  0
    0.0900    3.3070   -1.1030 H   0  0  0  0  0  0  0  0  0  0  0  0
   -0.3530    4.1210    1.1040 H   0  0  0  0  0  0  0  0  0  0  0  0
   -1.8950    4.4840    0.1920 H   0  0  0  0  0  0  0  0  0  0  0  0
   -2.9830    2.6690    0.9360 H   0  0  0  0  0  0  0  0  0  0  0  0
   -1.9890    3.0040    2.4480 H   0  0  0  0  0  0  0  0  0  0  0  0
   -0.6220    1.2540    2.1220 H   0  0  0  0  0  0  0  0  0  0  0  0
   -2.1090   -0.5060   -0.1930 N   0  0  0  0  0  0  0  0  0  0  0  0
   -3.0700   -1.6080   -0.3410 C   0  0  1  0  0  0  0  0  0  0  0  0
   -3.7380   -1.4370   -1.6750 C   0  0  0  0  0  0  0  0  0  0  0  0
   -4.4320   -0.1470   -1.7380 C   0  0  0  0  0  0  0  0  0  0  0  0
   -4.4320    0.6720   -0.7900 O   0  0  0  0  0  0  0  0  0  0  0  0
   -2.2860   -2.8720   -0.3840 C   0  0  0  0  0  0  0  0  0  0  0  0
   -1.0420   -2.9310   -0.3140 O   0  0  0  0  0  0  0  0  0  0  0  0
   -5.1170    0.1440   -2.9330 O   0  0  0  0  0  0  0  0  0  0  0  0
   -2.9550   -4.0980   -0.5100 O   0  0  0  0  0  0  0  0  0  0  0  0
   -1.4410   -0.3720   -0.9790 H   0  0  0  0  0  0  0  0  0  0  0  0
   -3.7780   -1.6060    0.5150 H   0  0  0  0  0  0  0  0  0  0  0  0
   -4.4590   -2.2830   -1.7970 H   0  0  0  0  0  0  0  0  0  0  0  0
   -2.9740   -1.5260   -2.4870 H   0  0  0  0  0  0  0  0  0  0  0  0
   -5.8280    0.8700   -2.9120 H   0  0  0  0  0  0  0  0  0  0  0  0
  1 13  1  0  0  0  0
  1 12  1  0  0  0  0
  2  1  1  0  0  0  0
  3 14  1  0  0  0  0
  3  2  2  0  0  0  0
  4 15  1  0  0  0  0
  4  2  1  0  0  0  0
  5  6  1  0  0  0  0
  5  4  1  0  0  0  0
  6 18  1  0  0  0  0
  6 19  1  0  0  0  0
  7  6  1  0  0  0  0
  7 21  1  0  0  0  0
  8 22  1  1  0  0  0
  8  7  1  0  0  0  0
  9  8  1  0  0  0  0
 10 25  1  0  0  0  0
 10  8  1  0  0  0  0
 11 10  2  0  0  0  0
 16  5  1  0  0  0  0
 17  5  1  0  0  0  0
 20  7  1  0  0  0  0
 23  9  1  0  0  0  0
 24  9  1  0  0  0  0
 25 29  1  0  0  0  0
 26 25  1  0  0  0  0
 26 27  1  0  0  0  0
 27 34  1  0  0  0  0
 27 28  1  0  0  0  0
 28 37  1  0  0  0  0
 29 28  1  0  0  0  0
 29 38  1  1  0  0  0
 30 29  1  0  0  0  0
 30 31  2  0  0  0  0
 32 26  1  0  0  0  0
 33 26  1  0  0  0  0
 35 27  1  0  0  0  0
 36 28  1  0  0  0  0
 39 30  1  0  0  0  0
 40 39  1  0  0  0  0
 40 49  1  1  0  0  0
 41 40  1  0  0  0  0
 42 41  1  0  0  0  0
 42 43  2  0  0  0  0
 44 40  1  0  0  0  0
 44 45  1  0  0  0  0
 46 52  1  0  0  0  0
 46 42  1  0  0  0  0
 47 44  2  0  0  0  0
 48 39  1  0  0  0  0
 50 41  1  0  0  0  0
 51 41  1  0  0  0  0
M  END
$$$$
