RPE.pdb
 OpenBabel07022418063D

 55 55  0  0  1  0  0  0  0  0999 V2000
   -1.8590   -1.6530    6.8010 N   0  0  0  0  0  0  0  0  0  0  0  0
   -1.7660   -1.0990    5.5170 C   0  0  0  0  0  0  0  0  0  0  0  0
   -2.7140   -1.3160    4.6590 N   0  0  0  0  0  0  0  0  0  0  0  0
   -0.6570   -0.2900    5.0940 N   0  0  0  0  0  0  0  0  0  0  0  0
   -0.4540    0.0410    3.6920 C   0  0  0  0  0  0  0  0  0  0  0  0
    0.7840    0.8890    3.6070 C   0  0  0  0  0  0  0  0  0  0  0  0
    1.1350    1.3170    2.2200 C   0  0  0  0  0  0  0  0  0  0  0  0
    1.3800    0.1130    1.3350 C   0  0  2  0  0  0  0  0  0  0  0  0
    2.4970   -0.6220    1.9530 N   0  0  0  0  0  0  0  0  0  0  0  0
    1.8020    0.4820   -0.0330 C   0  0  0  0  0  0  0  0  0  0  0  0
    3.0370    0.3540   -0.3540 O   0  0  0  0  0  0  0  0  0  0  0  0
   -1.0730   -2.1690    7.2450 H   0  0  0  0  0  0  0  0  0  0  0  0
   -2.7420   -1.5490    7.3390 H   0  0  0  0  0  0  0  0  0  0  0  0
   -2.6860   -0.9240    3.6930 H   0  0  0  0  0  0  0  0  0  0  0  0
   -0.0120    0.0420    5.8560 H   0  0  0  0  0  0  0  0  0  0  0  0
   -1.3410    0.5500    3.2650 H   0  0  0  0  0  0  0  0  0  0  0  0
   -0.2490   -0.9140    3.1630 H   0  0  0  0  0  0  0  0  0  0  0  0
    0.5950    1.8050    4.2100 H   0  0  0  0  0  0  0  0  0  0  0  0
    1.5930    0.3430    4.1310 H   0  0  0  0  0  0  0  0  0  0  0  0
    2.1100    1.8580    2.2820 H   0  0  0  0  0  0  0  0  0  0  0  0
    0.3940    2.0140    1.8560 H   0  0  0  0  0  0  0  0  0  0  0  0
    0.4950   -0.5290    1.2750 H   0  0  0  0  0  0  0  0  0  0  0  0
    2.6310   -1.4600    1.3260 H   0  0  0  0  0  0  0  0  0  0  0  0
    3.3670   -0.0830    1.9280 H   0  0  0  0  0  0  0  0  0  0  0  0
    0.9410    0.9760   -1.0490 N   0  0  0  0  0  0  0  0  0  0  0  0
    1.4470    1.3400   -2.3810 C   0  0  0  0  0  0  0  0  0  0  0  0
    0.2610    1.6570   -3.2350 C   0  0  0  0  0  0  0  0  0  0  0  0
   -0.7680    2.0680   -2.2340 C   0  0  0  0  0  0  0  0  0  0  0  0
   -0.4730    1.2000   -1.0390 C   0  0  1  0  0  0  0  0  0  0  0  0
   -1.2870   -0.0150   -1.1260 C   0  0  0  0  0  0  0  0  0  0  0  0
   -2.5330    0.1260   -1.2600 O   0  0  0  0  0  0  0  0  0  0  0  0
    1.9790    0.4730   -2.8420 H   0  0  0  0  0  0  0  0  0  0  0  0
    2.1110    2.2270   -2.3130 H   0  0  0  0  0  0  0  0  0  0  0  0
   -0.0700    0.7980   -3.8570 H   0  0  0  0  0  0  0  0  0  0  0  0
    0.5560    2.5220   -3.9000 H   0  0  0  0  0  0  0  0  0  0  0  0
   -1.7790    1.8180   -2.6600 H   0  0  0  0  0  0  0  0  0  0  0  0
   -0.7130    3.1510   -1.9760 H   0  0  0  0  0  0  0  0  0  0  0  0
   -0.7950    1.8030   -0.1510 H   0  0  0  0  0  0  0  0  0  0  0  0
   -0.7960   -1.3550   -1.0700 N   0  0  0  0  0  0  0  0  0  0  0  0
   -1.6060   -2.5080   -1.1530 C   0  0  1  0  0  0  0  0  0  0  0  0
   -1.5810   -3.3610   -2.3570 C   0  0  0  0  0  0  0  0  0  0  0  0
   -0.2820   -3.9770   -2.7450 C   0  0  0  0  0  0  0  0  0  0  0  0
    0.7370   -3.0100   -3.1720 C   0  0  0  0  0  0  0  0  0  0  0  0
    0.5630   -1.8050   -3.4350 O   0  0  0  0  0  0  0  0  0  0  0  0
   -1.5090   -3.3690    0.0740 C   0  0  0  0  0  0  0  0  0  0  0  0
   -2.1580   -4.4210    0.1610 O   0  0  0  0  0  0  0  0  0  0  0  0
    2.0670   -3.4610   -3.3120 O   0  0  0  0  0  0  0  0  0  0  0  0
   -0.6900   -3.0020    1.1300 O   0  0  0  0  0  0  0  0  0  0  0  0
    0.2350   -1.4290   -0.9230 H   0  0  0  0  0  0  0  0  0  0  0  0
   -2.6940   -2.1220   -1.0900 H   0  0  0  0  0  0  0  0  0  0  0  0
   -2.0020   -2.8210   -3.2710 H   0  0  0  0  0  0  0  0  0  0  0  0
   -2.3010   -4.2340   -2.2160 H   0  0  0  0  0  0  0  0  0  0  0  0
   -0.4100   -4.6840   -3.6220 H   0  0  0  0  0  0  0  0  0  0  0  0
    0.1130   -4.6270   -1.8960 H   0  0  0  0  0  0  0  0  0  0  0  0
    2.8060   -2.7700   -3.1040 H   0  0  0  0  0  0  0  0  0  0  0  0
  1 12  1  0  0  0  0
  1 13  1  0  0  0  0
  2  1  1  0  0  0  0
  3  2  2  0  0  0  0
  4  2  1  0  0  0  0
  4 15  1  0  0  0  0
  5  4  1  0  0  0  0
  6  5  1  0  0  0  0
  6 19  1  0  0  0  0
  6 18  1  0  0  0  0
  7 20  1  0  0  0  0
  7  6  1  0  0  0  0
  8 22  1  6  0  0  0
  8  9  1  0  0  0  0
  8  7  1  0  0  0  0
 10  8  1  0  0  0  0
 11 10  2  0  0  0  0
 14  3  1  0  0  0  0
 16  5  1  0  0  0  0
 17  5  1  0  0  0  0
 21  7  1  0  0  0  0
 23  9  1  0  0  0  0
 24  9  1  0  0  0  0
 25 29  1  0  0  0  0
 25 10  1  0  0  0  0
 26 33  1  0  0  0  0
 26 25  1  0  0  0  0
 27 26  1  0  0  0  0
 27 28  1  0  0  0  0
 28 37  1  0  0  0  0
 28 29  1  0  0  0  0
 29 38  1  1  0  0  0
 30 39  1  0  0  0  0
 30 29  1  0  0  0  0
 31 30  2  0  0  0  0
 32 26  1  0  0  0  0
 34 27  1  0  0  0  0
 35 27  1  0  0  0  0
 36 28  1  0  0  0  0
 39 49  1  0  0  0  0
 40 50  1  1  0  0  0
 40 39  1  0  0  0  0
 40 45  1  0  0  0  0
 41 52  1  0  0  0  0
 41 40  1  0  0  0  0
 42 41  1  0  0  0  0
 42 54  1  0  0  0  0
 43 42  1  0  0  0  0
 44 43  2  0  0  0  0
 45 46  2  0  0  0  0
 45 48  1  0  0  0  0
 47 43  1  0  0  0  0
 47 55  1  0  0  0  0
 51 41  1  0  0  0  0
 53 42  1  0  0  0  0
M  END
$$$$
