RPF.pdb
 OpenBabel07022418063D

 59 60  0  0  1  0  0  0  0  0999 V2000
    2.4180   -4.9220    2.2390 N   0  0  0  0  0  0  0  0  0  0  0  0
    3.2390   -3.7870    2.0880 C   0  0  0  0  0  0  0  0  0  0  0  0
    4.4910   -3.8880    1.7100 N   0  0  0  0  0  0  0  0  0  0  0  0
    2.7480   -2.4890    2.3390 N   0  0  0  0  0  0  0  0  0  0  0  0
    3.5030   -1.5030    3.0670 C   0  0  0  0  0  0  0  0  0  0  0  0
    2.7060   -0.1980    3.1420 C   0  0  0  0  0  0  0  0  0  0  0  0
    2.4450    0.3520    1.7660 C   0  0  0  0  0  0  0  0  0  0  0  0
    1.6640    1.6570    1.8010 C   0  0  2  0  0  0  0  0  0  0  0  0
    0.3830    1.4960    2.4200 N   0  0  0  0  0  0  0  0  0  0  0  0
    1.6530    2.3180    0.5020 C   0  0  0  0  0  0  0  0  0  0  0  0
    2.7590    2.8500    0.1060 O   0  0  0  0  0  0  0  0  0  0  0  0
    1.3960   -4.9350    2.0720 H   0  0  0  0  0  0  0  0  0  0  0  0
    2.8690   -5.8190    2.5390 H   0  0  0  0  0  0  0  0  0  0  0  0
    4.8350   -4.8430    1.5340 H   0  0  0  0  0  0  0  0  0  0  0  0
    1.7950   -2.2460    1.9750 H   0  0  0  0  0  0  0  0  0  0  0  0
    3.6560   -1.8180    4.1190 H   0  0  0  0  0  0  0  0  0  0  0  0
    4.4540   -1.3310    2.5310 H   0  0  0  0  0  0  0  0  0  0  0  0
    3.3210    0.5760    3.6790 H   0  0  0  0  0  0  0  0  0  0  0  0
    1.7790   -0.4460    3.6770 H   0  0  0  0  0  0  0  0  0  0  0  0
    1.9010   -0.4050    1.1390 H   0  0  0  0  0  0  0  0  0  0  0  0
    3.4140    0.4950    1.2460 H   0  0  0  0  0  0  0  0  0  0  0  0
    2.2540    2.3280    2.4950 H   0  0  0  0  0  0  0  0  0  0  0  0
    0.0590    2.4750    2.6840 H   0  0  0  0  0  0  0  0  0  0  0  0
    0.4930    1.0180    3.3290 H   0  0  0  0  0  0  0  0  0  0  0  0
    0.5430    2.4490   -0.4010 N   0  0  0  0  0  0  0  0  0  0  0  0
    0.6030    3.1700   -1.6830 C   0  0  0  0  0  0  0  0  0  0  0  0
   -0.8330    3.4810   -2.0090 C   0  0  0  0  0  0  0  0  0  0  0  0
   -1.6180    3.1020   -0.7680 C   0  0  0  0  0  0  0  0  0  0  0  0
   -0.7800    1.9130   -0.3020 C   0  0  1  0  0  0  0  0  0  0  0  0
   -0.9190    0.7670   -1.2170 C   0  0  0  0  0  0  0  0  0  0  0  0
   -0.0810    0.5410   -2.1260 O   0  0  0  0  0  0  0  0  0  0  0  0
    1.1690    4.1180   -1.5310 H   0  0  0  0  0  0  0  0  0  0  0  0
    1.0780    2.5320   -2.4310 H   0  0  0  0  0  0  0  0  0  0  0  0
   -1.1830    2.7960   -2.8140 H   0  0  0  0  0  0  0  0  0  0  0  0
   -0.9410    4.5430   -2.2780 H   0  0  0  0  0  0  0  0  0  0  0  0
   -2.6640    2.8730   -0.9290 H   0  0  0  0  0  0  0  0  0  0  0  0
   -1.4590    3.9010   -0.0210 H   0  0  0  0  0  0  0  0  0  0  0  0
   -1.0600    1.7330    0.7190 H   0  0  0  0  0  0  0  0  0  0  0  0
   -1.9970   -0.1680   -1.1600 N   0  0  0  0  0  0  0  0  0  0  0  0
   -2.0980   -1.2690   -2.1000 C   0  0  1  0  0  0  0  0  0  0  0  0
   -1.4650   -2.5490   -1.6270 C   0  0  0  0  0  0  0  0  0  0  0  0
   -1.9820   -3.1440   -0.4070 C   0  0  0  0  0  0  0  0  0  0  0  0
   -3.0270   -4.0330   -0.4590 C   0  0  0  0  0  0  0  0  0  0  0  0
   -3.5000   -4.6320    0.6990 C   0  0  0  0  0  0  0  0  0  0  0  0
   -2.9270   -4.3390    1.9020 C   0  0  0  0  0  0  0  0  0  0  0  0
   -1.8690   -3.4450    1.9680 C   0  0  0  0  0  0  0  0  0  0  0  0
   -1.4120   -2.8580    0.8110 C   0  0  0  0  0  0  0  0  0  0  0  0
   -3.4990   -1.4110   -2.5210 C   0  0  0  0  0  0  0  0  0  0  0  0
   -4.4400   -0.6630   -2.1040 O   0  0  0  0  0  0  0  0  0  0  0  0
   -3.9190   -2.3980   -3.4120 O   0  0  0  0  0  0  0  0  0  0  0  0
   -2.7020   -0.0070   -0.4100 H   0  0  0  0  0  0  0  0  0  0  0  0
   -1.4840   -0.9720   -3.0260 H   0  0  0  0  0  0  0  0  0  0  0  0
   -0.3530   -2.3750   -1.4630 H   0  0  0  0  0  0  0  0  0  0  0  0
   -1.4580   -3.2890   -2.4850 H   0  0  0  0  0  0  0  0  0  0  0  0
   -3.5350   -4.3110   -1.3710 H   0  0  0  0  0  0  0  0  0  0  0  0
   -4.3420   -5.3400    0.6540 H   0  0  0  0  0  0  0  0  0  0  0  0
   -3.2890   -4.8030    2.8010 H   0  0  0  0  0  0  0  0  0  0  0  0
   -1.4170   -3.2130    2.9130 H   0  0  0  0  0  0  0  0  0  0  0  0
   -0.5760   -2.1670    0.9180 H   0  0  0  0  0  0  0  0  0  0  0  0
  1 13  1  0  0  0  0
  2  1  1  0  0  0  0
  2  4  1  0  0  0  0
  3  2  2  0  0  0  0
  4  5  1  0  0  0  0
  5  6  1  0  0  0  0
  5 16  1  0  0  0  0
  6 19  1  0  0  0  0
  6 18  1  0  0  0  0
  7  8  1  0  0  0  0
  7  6  1  0  0  0  0
  8  9  1  0  0  0  0
  8 22  1  1  0  0  0
  9 23  1  0  0  0  0
  9 24  1  0  0  0  0
 10  8  1  0  0  0  0
 11 10  2  0  0  0  0
 12  1  1  0  0  0  0
 14  3  1  0  0  0  0
 15  4  1  0  0  0  0
 17  5  1  0  0  0  0
 20  7  1  0  0  0  0
 21  7  1  0  0  0  0
 25 29  1  0  0  0  0
 25 10  1  0  0  0  0
 26 32  1  0  0  0  0
 26 25  1  0  0  0  0
 27 26  1  0  0  0  0
 27 28  1  0  0  0  0
 28 29  1  0  0  0  0
 28 37  1  0  0  0  0
 29 38  1  1  0  0  0
 30 39  1  0  0  0  0
 30 29  1  0  0  0  0
 31 30  2  0  0  0  0
 33 26  1  0  0  0  0
 34 27  1  0  0  0  0
 35 27  1  0  0  0  0
 36 28  1  0  0  0  0
 39 51  1  0  0  0  0
 40 52  1  6  0  0  0
 40 41  1  0  0  0  0
 40 39  1  0  0  0  0
 41 53  1  0  0  0  0
 41 42  1  0  0  0  0
 42 47  1  0  0  0  0
 43 42  2  0  0  0  0
 43 44  1  0  0  0  0
 44 45  2  0  0  0  0
 45 46  1  0  0  0  0
 45 57  1  0  0  0  0
 46 58  1  0  0  0  0
 47 59  1  0  0  0  0
 47 46  2  0  0  0  0
 48 49  1  0  0  0  0
 48 40  1  0  0  0  0
 50 48  2  0  0  0  0
 54 41  1  0  0  0  0
 55 43  1  0  0  0  0
 56 44  1  0  0  0  0
M  END
$$$$
