RPG.pdb
 OpenBabel07022418063D

 46 46  0  0  1  0  0  0  0  0999 V2000
    1.8420   -5.9950    2.1250 N   0  0  0  0  0  0  0  0  0  0  0  0
    2.0480   -4.9620    1.1750 C   0  0  0  0  0  0  0  0  0  0  0  0
    2.5540   -5.2550    0.0280 N   0  0  0  0  0  0  0  0  0  0  0  0
    1.7270   -3.6080    1.4180 N   0  0  0  0  0  0  0  0  0  0  0  0
    1.4930   -2.6340    0.3700 C   0  0  0  0  0  0  0  0  0  0  0  0
    0.2560   -2.8840   -0.4050 C   0  0  0  0  0  0  0  0  0  0  0  0
    0.0200   -1.9150   -1.4750 C   0  0  0  0  0  0  0  0  0  0  0  0
   -0.2480   -0.4960   -1.2750 C   0  0  2  0  0  0  0  0  0  0  0  0
   -0.3960    0.0100   -2.7010 N   0  0  0  0  0  0  0  0  0  0  0  0
    0.6520    0.3780   -0.5670 C   0  0  0  0  0  0  0  0  0  0  0  0
    1.6320    0.8860   -1.2180 O   0  0  0  0  0  0  0  0  0  0  0  0
    2.1480   -6.9710    1.9270 H   0  0  0  0  0  0  0  0  0  0  0  0
    1.3740   -5.7650    3.0380 H   0  0  0  0  0  0  0  0  0  0  0  0
    2.8170   -6.2320   -0.2250 H   0  0  0  0  0  0  0  0  0  0  0  0
    1.6520   -3.2890    2.4050 H   0  0  0  0  0  0  0  0  0  0  0  0
    2.3830   -2.7120   -0.3140 H   0  0  0  0  0  0  0  0  0  0  0  0
    1.4870   -1.6390    0.8110 H   0  0  0  0  0  0  0  0  0  0  0  0
   -0.6230   -3.0290    0.2760 H   0  0  0  0  0  0  0  0  0  0  0  0
    0.4420   -3.8830   -0.9300 H   0  0  0  0  0  0  0  0  0  0  0  0
    0.8640   -2.0080   -2.2610 H   0  0  0  0  0  0  0  0  0  0  0  0
   -0.8590   -2.2930   -2.1260 H   0  0  0  0  0  0  0  0  0  0  0  0
   -1.3000   -0.3470   -0.8980 H   0  0  0  0  0  0  0  0  0  0  0  0
   -0.5570    1.0390   -2.6600 H   0  0  0  0  0  0  0  0  0  0  0  0
    0.5220   -0.2260   -3.1490 H   0  0  0  0  0  0  0  0  0  0  0  0
    0.5790    0.7600    0.7970 N   0  0  0  0  0  0  0  0  0  0  0  0
    1.4270    1.6290    1.5790 C   0  0  0  0  0  0  0  0  0  0  0  0
    1.5350    0.9530    2.9460 C   0  0  0  0  0  0  0  0  0  0  0  0
    0.1830    0.2700    3.0760 C   0  0  0  0  0  0  0  0  0  0  0  0
   -0.4500    0.3090    1.7260 C   0  0  1  0  0  0  0  0  0  0  0  0
   -1.6240    1.1870    1.6420 C   0  0  0  0  0  0  0  0  0  0  0  0
   -2.6140    0.9920    2.3740 O   0  0  0  0  0  0  0  0  0  0  0  0
    0.9280    2.6160    1.7990 H   0  0  0  0  0  0  0  0  0  0  0  0
    2.4140    1.7940    1.1260 H   0  0  0  0  0  0  0  0  0  0  0  0
    1.6350    1.6710    3.7620 H   0  0  0  0  0  0  0  0  0  0  0  0
    2.3690    0.2140    2.9640 H   0  0  0  0  0  0  0  0  0  0  0  0
    0.3800   -0.7740    3.3800 H   0  0  0  0  0  0  0  0  0  0  0  0
   -0.4610    0.7690    3.8350 H   0  0  0  0  0  0  0  0  0  0  0  0
   -0.7900   -0.7200    1.4810 H   0  0  0  0  0  0  0  0  0  0  0  0
   -1.6390    2.2620    0.7270 N   0  0  0  0  0  0  0  0  0  0  0  0
   -2.7650    3.1620    0.5940 C   0  0  0  0  0  0  0  0  0  0  0  0
   -3.0010    3.8360    1.8860 C   0  0  0  0  0  0  0  0  0  0  0  0
   -3.9350    4.6670    2.0190 O   0  0  0  0  0  0  0  0  0  0  0  0
   -2.1850    3.5510    2.9620 O   0  0  0  0  0  0  0  0  0  0  0  0
   -0.7750    2.3900    0.1260 H   0  0  0  0  0  0  0  0  0  0  0  0
   -2.5430    3.8800   -0.2230 H   0  0  0  0  0  0  0  0  0  0  0  0
   -3.6680    2.5720    0.2700 H   0  0  0  0  0  0  0  0  0  0  0  0
  1 13  1  0  0  0  0
  2  4  1  0  0  0  0
  2  1  1  0  0  0  0
  3  2  2  0  0  0  0
  4 15  1  0  0  0  0
  5 17  1  0  0  0  0
  5  4  1  0  0  0  0
  6 18  1  0  0  0  0
  6  5  1  0  0  0  0
  7  8  1  0  0  0  0
  7  6  1  0  0  0  0
  8 22  1  1  0  0  0
  8 10  1  0  0  0  0
  9 23  1  0  0  0  0
  9  8  1  0  0  0  0
 10 25  1  0  0  0  0
 11 10  2  0  0  0  0
 12  1  1  0  0  0  0
 14  3  1  0  0  0  0
 16  5  1  0  0  0  0
 19  6  1  0  0  0  0
 20  7  1  0  0  0  0
 21  7  1  0  0  0  0
 24  9  1  0  0  0  0
 25 26  1  0  0  0  0
 25 29  1  0  0  0  0
 26 32  1  0  0  0  0
 26 27  1  0  0  0  0
 27 35  1  0  0  0  0
 27 28  1  0  0  0  0
 27 34  1  0  0  0  0
 28 36  1  0  0  0  0
 28 37  1  0  0  0  0
 29 38  1  6  0  0  0
 29 28  1  0  0  0  0
 30 29  1  0  0  0  0
 30 31  2  0  0  0  0
 33 26  1  0  0  0  0
 39 30  1  0  0  0  0
 40 39  1  0  0  0  0
 40 41  1  0  0  0  0
 41 42  2  0  0  0  0
 41 43  1  0  0  0  0
 44 39  1  0  0  0  0
 45 40  1  0  0  0  0
 46 40  1  0  0  0  0
M  END
$$$$
