RPL.pdb
 OpenBabel07022418063D

 58 58  0  0  1  0  0  0  0  0999 V2000
    4.4300   -3.8200    3.3730 N   0  0  0  0  0  0  0  0  0  0  0  0
    3.7360   -3.6450    2.1460 C   0  0  0  0  0  0  0  0  0  0  0  0
    2.6610   -4.3140    1.9470 N   0  0  0  0  0  0  0  0  0  0  0  0
    4.1870   -2.7620    1.1410 N   0  0  0  0  0  0  0  0  0  0  0  0
    3.3140   -2.2080    0.1280 C   0  0  0  0  0  0  0  0  0  0  0  0
    2.3190   -1.2370    0.7240 C   0  0  0  0  0  0  0  0  0  0  0  0
    2.9770   -0.0820    1.4000 C   0  0  0  0  0  0  0  0  0  0  0  0
    2.0070    0.9050    2.0020 C   0  0  2  0  0  0  0  0  0  0  0  0
    1.2040    0.2470    2.9780 N   0  0  0  0  0  0  0  0  0  0  0  0
    1.2650    1.5770    0.9160 C   0  0  0  0  0  0  0  0  0  0  0  0
    2.0090    2.0180   -0.0370 O   0  0  0  0  0  0  0  0  0  0  0  0
    5.0800   -4.6340    3.4580 H   0  0  0  0  0  0  0  0  0  0  0  0
    4.2690   -3.1420    4.1290 H   0  0  0  0  0  0  0  0  0  0  0  0
    2.2350   -4.9900    2.6130 H   0  0  0  0  0  0  0  0  0  0  0  0
    5.1910   -2.4970    1.1250 H   0  0  0  0  0  0  0  0  0  0  0  0
    2.7660   -3.0430   -0.3410 H   0  0  0  0  0  0  0  0  0  0  0  0
    3.8860   -1.7050   -0.6760 H   0  0  0  0  0  0  0  0  0  0  0  0
    1.7190   -1.7580    1.5160 H   0  0  0  0  0  0  0  0  0  0  0  0
    1.6310   -0.9200   -0.0740 H   0  0  0  0  0  0  0  0  0  0  0  0
    3.5460    0.4810    0.6140 H   0  0  0  0  0  0  0  0  0  0  0  0
    3.7190   -0.4310    2.1490 H   0  0  0  0  0  0  0  0  0  0  0  0
    2.6270    1.6590    2.5800 H   0  0  0  0  0  0  0  0  0  0  0  0
    1.1670    0.7550    3.8990 H   0  0  0  0  0  0  0  0  0  0  0  0
    1.5440   -0.7200    3.2370 H   0  0  0  0  0  0  0  0  0  0  0  0
   -0.1260    1.7690    0.8430 N   0  0  0  0  0  0  0  0  0  0  0  0
   -0.7640    2.4800   -0.3010 C   0  0  0  0  0  0  0  0  0  0  0  0
   -1.6440    3.4140    0.4980 C   0  0  0  0  0  0  0  0  0  0  0  0
   -2.1440    2.5900    1.6330 C   0  0  0  0  0  0  0  0  0  0  0  0
   -1.1780    1.4170    1.7360 C   0  0  1  0  0  0  0  0  0  0  0  0
   -1.8670    0.1460    1.4630 C   0  0  0  0  0  0  0  0  0  0  0  0
   -2.7750   -0.2260    2.2880 O   0  0  0  0  0  0  0  0  0  0  0  0
   -1.4320    1.7970   -0.8400 H   0  0  0  0  0  0  0  0  0  0  0  0
   -0.0270    2.9960   -0.9160 H   0  0  0  0  0  0  0  0  0  0  0  0
   -0.9960    4.2290    0.8960 H   0  0  0  0  0  0  0  0  0  0  0  0
   -2.4620    3.8300   -0.1350 H   0  0  0  0  0  0  0  0  0  0  0  0
   -2.2170    3.1530    2.5890 H   0  0  0  0  0  0  0  0  0  0  0  0
   -3.1620    2.2320    1.3520 H   0  0  0  0  0  0  0  0  0  0  0  0
   -0.8250    1.4190    2.7730 H   0  0  0  0  0  0  0  0  0  0  0  0
   -2.0120   -2.6280   -2.8410 C   0  0  0  0  0  0  0  0  0  0  0  0
   -2.9900   -1.6430   -2.2630 C   0  0  0  0  0  0  0  0  0  0  0  0
   -2.5410   -0.2380   -2.5730 C   0  0  0  0  0  0  0  0  0  0  0  0
   -3.4200   -1.9100   -0.8880 C   0  0  0  0  0  0  0  0  0  0  0  0
   -2.3900   -1.9590    0.1990 C   0  0  2  0  0  0  0  0  0  0  0  0
   -1.6400   -0.7300    0.3720 N   0  0  0  0  0  0  0  0  0  0  0  0
   -1.5620   -3.1710    0.1530 C   0  0  0  0  0  0  0  0  0  0  0  0
   -2.1380   -4.2980    0.0230 O   0  0  0  0  0  0  0  0  0  0  0  0
   -0.1840   -3.2220    0.2390 O   0  0  0  0  0  0  0  0  0  0  0  0
   -2.0420   -2.5010   -3.9650 H   0  0  0  0  0  0  0  0  0  0  0  0
   -2.2560   -3.6680   -2.6490 H   0  0  0  0  0  0  0  0  0  0  0  0
   -0.9830   -2.3260   -2.5570 H   0  0  0  0  0  0  0  0  0  0  0  0
   -3.9280   -1.7880   -2.8990 H   0  0  0  0  0  0  0  0  0  0  0  0
   -2.8580    0.0080   -3.6320 H   0  0  0  0  0  0  0  0  0  0  0  0
   -3.0980    0.5150   -1.9620 H   0  0  0  0  0  0  0  0  0  0  0  0
   -1.4520   -0.0980   -2.5830 H   0  0  0  0  0  0  0  0  0  0  0  0
   -3.9810   -2.8550   -0.8530 H   0  0  0  0  0  0  0  0  0  0  0  0
   -4.1510   -1.1160   -0.5960 H   0  0  0  0  0  0  0  0  0  0  0  0
   -3.0140   -2.0570    1.1430 H   0  0  0  0  0  0  0  0  0  0  0  0
   -0.9110   -0.4620   -0.2980 H   0  0  0  0  0  0  0  0  0  0  0  0
  1 12  1  0  0  0  0
  1 13  1  0  0  0  0
  2  1  1  0  0  0  0
  3  2  2  0  0  0  0
  3 14  1  0  0  0  0
  4  2  1  0  0  0  0
  5  6  1  0  0  0  0
  5  4  1  0  0  0  0
  6  7  1  0  0  0  0
  6 18  1  0  0  0  0
  7  8  1  0  0  0  0
  7 21  1  0  0  0  0
  8 22  1  1  0  0  0
  8  9  1  0  0  0  0
  9 24  1  0  0  0  0
  9 23  1  0  0  0  0
 10  8  1  0  0  0  0
 11 10  2  0  0  0  0
 15  4  1  0  0  0  0
 16  5  1  0  0  0  0
 17  5  1  0  0  0  0
 19  6  1  0  0  0  0
 20  7  1  0  0  0  0
 25 10  1  0  0  0  0
 25 29  1  0  0  0  0
 26 27  1  0  0  0  0
 26 25  1  0  0  0  0
 27 34  1  0  0  0  0
 27 28  1  0  0  0  0
 28 29  1  0  0  0  0
 28 36  1  0  0  0  0
 29 38  1  1  0  0  0
 30 29  1  0  0  0  0
 30 31  2  0  0  0  0
 32 26  1  0  0  0  0
 33 26  1  0  0  0  0
 35 27  1  0  0  0  0
 37 28  1  0  0  0  0
 39 49  1  0  0  0  0
 39 50  1  0  0  0  0
 39 40  1  0  0  0  0
 40 42  1  0  0  0  0
 41 40  1  0  0  0  0
 41 53  1  0  0  0  0
 42 55  1  0  0  0  0
 42 56  1  0  0  0  0
 42 43  1  0  0  0  0
 43 44  1  0  0  0  0
 43 57  1  1  0  0  0
 44 30  1  0  0  0  0
 45 43  1  0  0  0  0
 45 47  1  0  0  0  0
 46 45  2  0  0  0  0
 48 39  1  0  0  0  0
 51 40  1  0  0  0  0
 52 41  1  0  0  0  0
 54 41  1  0  0  0  0
 58 44  1  0  0  0  0
M  END
$$$$
