RPM.pdb
 OpenBabel07022418063D

 56 56  0  0  1  0  0  0  0  0999 V2000
    3.3300   -4.4910    3.3510 N   0  0  0  0  0  0  0  0  0  0  0  0
    3.0660   -4.2810    1.9770 C   0  0  0  0  0  0  0  0  0  0  0  0
    2.1300   -4.9480    1.3570 N   0  0  0  0  0  0  0  0  0  0  0  0
    3.8030   -3.3430    1.2130 N   0  0  0  0  0  0  0  0  0  0  0  0
    3.2140   -2.5880    0.1480 C   0  0  0  0  0  0  0  0  0  0  0  0
    2.2030   -1.5710    0.6430 C   0  0  0  0  0  0  0  0  0  0  0  0
    2.8220   -0.5770    1.5740 C   0  0  0  0  0  0  0  0  0  0  0  0
    1.8710    0.4740    2.0880 C   0  0  2  0  0  0  0  0  0  0  0  0
    0.8080   -0.1480    2.8040 N   0  0  0  0  0  0  0  0  0  0  0  0
    1.4250    1.3500    0.9700 C   0  0  0  0  0  0  0  0  0  0  0  0
    2.3970    1.6880    0.1960 O   0  0  0  0  0  0  0  0  0  0  0  0
    4.2430   -4.2060    3.7600 H   0  0  0  0  0  0  0  0  0  0  0  0
    2.6200   -4.9290    3.9670 H   0  0  0  0  0  0  0  0  0  0  0  0
    1.5300   -5.6570    1.8080 H   0  0  0  0  0  0  0  0  0  0  0  0
    4.8080   -3.2020    1.4420 H   0  0  0  0  0  0  0  0  0  0  0  0
    3.9550   -2.0650   -0.4810 H   0  0  0  0  0  0  0  0  0  0  0  0
    2.6810   -3.2890   -0.5440 H   0  0  0  0  0  0  0  0  0  0  0  0
    1.4000   -2.1660    1.1210 H   0  0  0  0  0  0  0  0  0  0  0  0
    1.7610   -1.0810   -0.2450 H   0  0  0  0  0  0  0  0  0  0  0  0
    3.7480   -0.1130    1.1420 H   0  0  0  0  0  0  0  0  0  0  0  0
    3.1500   -1.1640    2.4790 H   0  0  0  0  0  0  0  0  0  0  0  0
    2.4380    1.1790    2.7830 H   0  0  0  0  0  0  0  0  0  0  0  0
    0.9890   -0.3540    3.7860 H   0  0  0  0  0  0  0  0  0  0  0  0
    0.3460   -0.8450    2.2230 H   0  0  0  0  0  0  0  0  0  0  0  0
    0.1140    1.7880    0.7370 N   0  0  0  0  0  0  0  0  0  0  0  0
   -0.2730    2.6380   -0.4010 C   0  0  0  0  0  0  0  0  0  0  0  0
   -1.1430    3.7000    0.2880 C   0  0  0  0  0  0  0  0  0  0  0  0
   -1.8970    2.8790    1.2920 C   0  0  0  0  0  0  0  0  0  0  0  0
   -1.0750    1.5940    1.4600 C   0  0  1  0  0  0  0  0  0  0  0  0
   -1.9520    0.4930    1.0880 C   0  0  0  0  0  0  0  0  0  0  0  0
   -3.0830    0.4780    1.6960 O   0  0  0  0  0  0  0  0  0  0  0  0
   -0.8950    2.1120   -1.1230 H   0  0  0  0  0  0  0  0  0  0  0  0
    0.5860    3.1630   -0.8240 H   0  0  0  0  0  0  0  0  0  0  0  0
   -0.5030    4.4400    0.8190 H   0  0  0  0  0  0  0  0  0  0  0  0
   -1.8120    4.2080   -0.4320 H   0  0  0  0  0  0  0  0  0  0  0  0
   -2.0460    3.4140    2.2420 H   0  0  0  0  0  0  0  0  0  0  0  0
   -2.8990    2.6760    0.8790 H   0  0  0  0  0  0  0  0  0  0  0  0
   -0.8950    1.5160    2.5720 H   0  0  0  0  0  0  0  0  0  0  0  0
   -2.3730   -1.3560   -4.7990 C   0  0  0  0  0  0  0  0  0  0  0  0
   -3.9170   -0.9590   -3.9430 S   0  0  0  0  0  0  0  0  0  0  0  0
   -3.5750   -0.5410   -2.2080 C   0  0  0  0  0  0  0  0  0  0  0  0
   -3.0600   -1.7570   -1.5070 C   0  0  0  0  0  0  0  0  0  0  0  0
   -2.7410   -1.5390   -0.0650 C   0  0  2  0  0  0  0  0  0  0  0  0
   -1.7370   -0.5350    0.1740 N   0  0  0  0  0  0  0  0  0  0  0  0
   -2.3720   -2.8740    0.4920 C   0  0  0  0  0  0  0  0  0  0  0  0
   -3.1170   -3.8610    0.3670 O   0  0  0  0  0  0  0  0  0  0  0  0
   -1.1730   -3.0250    1.1660 O   0  0  0  0  0  0  0  0  0  0  0  0
   -2.3550   -0.9140   -5.8290 H   0  0  0  0  0  0  0  0  0  0  0  0
   -2.3180   -2.4730   -4.9250 H   0  0  0  0  0  0  0  0  0  0  0  0
   -1.4850   -0.9880   -4.2830 H   0  0  0  0  0  0  0  0  0  0  0  0
   -4.4970   -0.2150   -1.7030 H   0  0  0  0  0  0  0  0  0  0  0  0
   -2.7880    0.2430   -2.1440 H   0  0  0  0  0  0  0  0  0  0  0  0
   -3.8630   -2.5480   -1.5390 H   0  0  0  0  0  0  0  0  0  0  0  0
   -2.1990   -2.2300   -2.0580 H   0  0  0  0  0  0  0  0  0  0  0  0
   -3.6780   -1.2420    0.4610 H   0  0  0  0  0  0  0  0  0  0  0  0
   -0.8310   -0.5600   -0.3320 H   0  0  0  0  0  0  0  0  0  0  0  0
  1 12  1  0  0  0  0
  1 13  1  0  0  0  0
  2  1  1  0  0  0  0
  3 14  1  0  0  0  0
  3  2  2  0  0  0  0
  4 15  1  0  0  0  0
  4  2  1  0  0  0  0
  5  6  1  0  0  0  0
  5  4  1  0  0  0  0
  6 18  1  0  0  0  0
  6  7  1  0  0  0  0
  7  8  1  0  0  0  0
  7 21  1  0  0  0  0
  8 22  1  1  0  0  0
  8  9  1  0  0  0  0
  9 23  1  0  0  0  0
 10  8  1  0  0  0  0
 11 10  2  0  0  0  0
 16  5  1  0  0  0  0
 17  5  1  0  0  0  0
 19  6  1  0  0  0  0
 20  7  1  0  0  0  0
 24  9  1  0  0  0  0
 25 10  1  0  0  0  0
 25 29  1  0  0  0  0
 26 27  1  0  0  0  0
 26 25  1  0  0  0  0
 27 34  1  0  0  0  0
 27 28  1  0  0  0  0
 28 29  1  0  0  0  0
 28 36  1  0  0  0  0
 29 38  1  1  0  0  0
 30 29  1  0  0  0  0
 30 31  2  0  0  0  0
 32 26  1  0  0  0  0
 33 26  1  0  0  0  0
 35 27  1  0  0  0  0
 37 28  1  0  0  0  0
 39 50  1  0  0  0  0
 39 40  1  0  0  0  0
 40 41  1  0  0  0  0
 41 52  1  0  0  0  0
 41 51  1  0  0  0  0
 41 42  1  0  0  0  0
 42 43  1  0  0  0  0
 43 44  1  0  0  0  0
 43 55  1  1  0  0  0
 43 45  1  0  0  0  0
 44 30  1  0  0  0  0
 45 47  1  0  0  0  0
 46 45  2  0  0  0  0
 48 39  1  0  0  0  0
 49 39  1  0  0  0  0
 53 42  1  0  0  0  0
 54 42  1  0  0  0  0
 56 44  1  0  0  0  0
M  END
$$$$
