RPP.pdb
 OpenBabel07022418063D

 53 54  0  0  1  0  0  0  0  0999 V2000
    1.9540   -4.9700    2.9540 N   0  0  0  0  0  0  0  0  0  0  0  0
    1.6530   -4.2890    1.7320 C   0  0  0  0  0  0  0  0  0  0  0  0
    0.5880   -4.6160    1.0580 N   0  0  0  0  0  0  0  0  0  0  0  0
    2.4860   -3.2560    1.2220 N   0  0  0  0  0  0  0  0  0  0  0  0
    2.0200   -2.3430    0.1780 C   0  0  0  0  0  0  0  0  0  0  0  0
    3.0680   -1.3450   -0.1940 C   0  0  0  0  0  0  0  0  0  0  0  0
    3.4940   -0.4850    0.9100 C   0  0  0  0  0  0  0  0  0  0  0  0
    2.4980    0.4240    1.5670 C   0  0  2  0  0  0  0  0  0  0  0  0
    1.3940   -0.2320    2.2050 N   0  0  0  0  0  0  0  0  0  0  0  0
    2.0820    1.5170    0.6970 C   0  0  0  0  0  0  0  0  0  0  0  0
    3.0440    2.2480    0.2480 O   0  0  0  0  0  0  0  0  0  0  0  0
    2.0200   -5.9880    3.0510 H   0  0  0  0  0  0  0  0  0  0  0  0
    2.1130   -4.3560    3.7880 H   0  0  0  0  0  0  0  0  0  0  0  0
   -0.0560   -5.3590    1.3770 H   0  0  0  0  0  0  0  0  0  0  0  0
    3.4470   -3.1820    1.6310 H   0  0  0  0  0  0  0  0  0  0  0  0
    1.1280   -1.8130    0.5380 H   0  0  0  0  0  0  0  0  0  0  0  0
    1.7440   -2.9830   -0.7230 H   0  0  0  0  0  0  0  0  0  0  0  0
    3.9610   -1.8490   -0.6630 H   0  0  0  0  0  0  0  0  0  0  0  0
    2.5980   -0.7070   -1.0070 H   0  0  0  0  0  0  0  0  0  0  0  0
    4.3910    0.1010    0.5850 H   0  0  0  0  0  0  0  0  0  0  0  0
    3.8990   -1.1540    1.7360 H   0  0  0  0  0  0  0  0  0  0  0  0
    3.0940    0.8820    2.4420 H   0  0  0  0  0  0  0  0  0  0  0  0
    1.1190    0.3980    3.0390 H   0  0  0  0  0  0  0  0  0  0  0  0
    1.7440   -1.1110    2.6920 H   0  0  0  0  0  0  0  0  0  0  0  0
    0.7840    1.8400    0.3100 N   0  0  0  0  0  0  0  0  0  0  0  0
    0.4980    3.0130   -0.5890 C   0  0  0  0  0  0  0  0  0  0  0  0
   -0.7210    3.5980    0.0700 C   0  0  0  0  0  0  0  0  0  0  0  0
   -1.5100    2.3600    0.4050 C   0  0  0  0  0  0  0  0  0  0  0  0
   -0.4880    1.2390    0.5920 C   0  0  1  0  0  0  0  0  0  0  0  0
   -0.8170    0.1290   -0.3580 C   0  0  0  0  0  0  0  0  0  0  0  0
   -0.0470   -0.1480   -1.3010 O   0  0  0  0  0  0  0  0  0  0  0  0
    1.3490    3.6890   -0.6280 H   0  0  0  0  0  0  0  0  0  0  0  0
    0.2020    2.5950   -1.5600 H   0  0  0  0  0  0  0  0  0  0  0  0
   -0.4720    4.1170    1.0250 H   0  0  0  0  0  0  0  0  0  0  0  0
   -1.2650    4.2910   -0.5810 H   0  0  0  0  0  0  0  0  0  0  0  0
   -2.1840    2.1410   -0.4480 H   0  0  0  0  0  0  0  0  0  0  0  0
   -2.1470    2.4940    1.2920 H   0  0  0  0  0  0  0  0  0  0  0  0
   -0.5600    0.9300    1.6330 H   0  0  0  0  0  0  0  0  0  0  0  0
   -2.0070   -0.6140   -0.1930 N   0  0  0  0  0  0  0  0  0  0  0  0
   -2.9950   -0.4140    0.8460 C   0  0  0  0  0  0  0  0  0  0  0  0
   -3.5310   -1.7960    1.1040 C   0  0  0  0  0  0  0  0  0  0  0  0
   -2.9220   -2.7050    0.0580 C   0  0  0  0  0  0  0  0  0  0  0  0
   -2.4910   -1.7090   -0.9970 C   0  0  1  0  0  0  0  0  0  0  0  0
   -3.5970   -1.3310   -1.8800 C   0  0  0  0  0  0  0  0  0  0  0  0
   -4.0130   -0.1470   -1.8670 O   0  0  0  0  0  0  0  0  0  0  0  0
   -4.2130   -2.2260   -2.7370 O   0  0  0  0  0  0  0  0  0  0  0  0
   -3.7840    0.2600    0.4240 H   0  0  0  0  0  0  0  0  0  0  0  0
   -2.5520    0.0350    1.7610 H   0  0  0  0  0  0  0  0  0  0  0  0
   -3.3210   -2.1390    2.1350 H   0  0  0  0  0  0  0  0  0  0  0  0
   -4.6360   -1.8110    0.9150 H   0  0  0  0  0  0  0  0  0  0  0  0
   -2.0440   -3.2730    0.4600 H   0  0  0  0  0  0  0  0  0  0  0  0
   -3.6510   -3.3850   -0.4010 H   0  0  0  0  0  0  0  0  0  0  0  0
   -1.6860   -2.1750   -1.5970 H   0  0  0  0  0  0  0  0  0  0  0  0
  1 12  1  0  0  0  0
  1 13  1  0  0  0  0
  2  1  1  0  0  0  0
  3 14  1  0  0  0  0
  3  2  2  0  0  0  0
  4 15  1  0  0  0  0
  4  2  1  0  0  0  0
  5 16  1  0  0  0  0
  5  4  1  0  0  0  0
  6  5  1  0  0  0  0
  6  7  1  0  0  0  0
  7  8  1  0  0  0  0
  7 21  1  0  0  0  0
  8  9  1  0  0  0  0
  8 22  1  1  0  0  0
  9 24  1  0  0  0  0
  9 23  1  0  0  0  0
 10  8  1  0  0  0  0
 11 10  2  0  0  0  0
 17  5  1  0  0  0  0
 18  6  1  0  0  0  0
 19  6  1  0  0  0  0
 20  7  1  0  0  0  0
 25 29  1  0  0  0  0
 25 10  1  0  0  0  0
 26 27  1  0  0  0  0
 26 25  1  0  0  0  0
 27 28  1  0  0  0  0
 27 34  1  0  0  0  0
 28 29  1  0  0  0  0
 28 37  1  0  0  0  0
 29 38  1  1  0  0  0
 30 39  1  0  0  0  0
 30 29  1  0  0  0  0
 31 30  2  0  0  0  0
 32 26  1  0  0  0  0
 33 26  1  0  0  0  0
 35 27  1  0  0  0  0
 36 28  1  0  0  0  0
 39 40  1  0  0  0  0
 40 41  1  0  0  0  0
 40 48  1  0  0  0  0
 41 49  1  0  0  0  0
 42 51  1  0  0  0  0
 42 41  1  0  0  0  0
 43 53  1  6  0  0  0
 43 39  1  0  0  0  0
 43 42  1  0  0  0  0
 44 45  1  0  0  0  0
 44 43  1  0  0  0  0
 46 44  2  0  0  0  0
 47 40  1  0  0  0  0
 50 41  1  0  0  0  0
 52 42  1  0  0  0  0
M  END
$$$$
