RPR.pdb
 OpenBabel07022418063D

 62 62  0  0  1  0  0  0  0  0999 V2000
    1.9070   -5.4200   -0.6310 N   0  0  0  0  0  0  0  0  0  0  0  0
    2.6350   -4.2930   -0.1590 C   0  0  0  0  0  0  0  0  0  0  0  0
    3.9410   -4.3170   -0.1940 N   0  0  0  0  0  0  0  0  0  0  0  0
    1.9380   -3.1600    0.3420 N   0  0  0  0  0  0  0  0  0  0  0  0
    2.6940   -1.9300    0.6120 C   0  0  0  0  0  0  0  0  0  0  0  0
    3.1610   -1.3660   -0.6830 C   0  0  0  0  0  0  0  0  0  0  0  0
    3.9820   -0.1390   -0.6190 C   0  0  0  0  0  0  0  0  0  0  0  0
    3.3860    1.0750    0.0010 C   0  0  2  0  0  0  0  0  0  0  0  0
    2.9830    0.9440    1.3680 N   0  0  0  0  0  0  0  0  0  0  0  0
    2.3800    1.7440   -0.8340 C   0  0  0  0  0  0  0  0  0  0  0  0
    2.8000    1.9820   -2.0480 O   0  0  0  0  0  0  0  0  0  0  0  0
    1.1080   -5.8600   -0.1290 H   0  0  0  0  0  0  0  0  0  0  0  0
    2.1830   -5.8440   -1.5420 H   0  0  0  0  0  0  0  0  0  0  0  0
    4.4270   -5.1520   -0.5640 H   0  0  0  0  0  0  0  0  0  0  0  0
    0.9200   -3.2260    0.5070 H   0  0  0  0  0  0  0  0  0  0  0  0
    2.0170   -1.2170    1.1730 H   0  0  0  0  0  0  0  0  0  0  0  0
    3.5040   -2.1950    1.3100 H   0  0  0  0  0  0  0  0  0  0  0  0
    3.8200   -2.1620   -1.1500 H   0  0  0  0  0  0  0  0  0  0  0  0
    2.3250   -1.2750   -1.4310 H   0  0  0  0  0  0  0  0  0  0  0  0
    4.2110    0.1450   -1.6930 H   0  0  0  0  0  0  0  0  0  0  0  0
    4.9840   -0.3980   -0.2050 H   0  0  0  0  0  0  0  0  0  0  0  0
    4.2700    1.8250    0.0600 H   0  0  0  0  0  0  0  0  0  0  0  0
    3.1030    1.8840    1.8900 H   0  0  0  0  0  0  0  0  0  0  0  0
    3.6570    0.2830    1.8930 H   0  0  0  0  0  0  0  0  0  0  0  0
    1.0980    2.1460   -0.5200 N   0  0  0  0  0  0  0  0  0  0  0  0
    0.2190    2.8880   -1.4520 C   0  0  0  0  0  0  0  0  0  0  0  0
   -0.3680    3.9330   -0.5450 C   0  0  0  0  0  0  0  0  0  0  0  0
   -0.2700    3.4210    0.8740 C   0  0  0  0  0  0  0  0  0  0  0  0
    0.3070    1.9980    0.6450 C   0  0  1  0  0  0  0  0  0  0  0  0
   -0.8960    1.1010    0.4610 C   0  0  0  0  0  0  0  0  0  0  0  0
   -1.0780    0.5080   -0.6130 O   0  0  0  0  0  0  0  0  0  0  0  0
   -0.5000    2.2410   -1.9470 H   0  0  0  0  0  0  0  0  0  0  0  0
    0.8590    3.3600   -2.2460 H   0  0  0  0  0  0  0  0  0  0  0  0
   -1.4510    4.1080   -0.7520 H   0  0  0  0  0  0  0  0  0  0  0  0
    0.2150    4.8740   -0.6790 H   0  0  0  0  0  0  0  0  0  0  0  0
    0.4600    4.0530    1.4120 H   0  0  0  0  0  0  0  0  0  0  0  0
   -1.2350    3.3670    1.3910 H   0  0  0  0  0  0  0  0  0  0  0  0
    0.8080    1.7540    1.5690 H   0  0  0  0  0  0  0  0  0  0  0  0
   -4.6980   -5.1270   -0.3010 N   0  0  0  0  0  0  0  0  0  0  0  0
   -3.8520   -3.9960   -0.3660 C   0  0  0  0  0  0  0  0  0  0  0  0
   -3.4290   -3.5830   -1.5050 N   0  0  0  0  0  0  0  0  0  0  0  0
   -3.4700   -3.3140    0.8030 N   0  0  0  0  0  0  0  0  0  0  0  0
   -2.1630   -2.7010    0.9240 C   0  0  0  0  0  0  0  0  0  0  0  0
   -2.0400   -2.0300    2.2920 C   0  0  0  0  0  0  0  0  0  0  0  0
   -3.0960   -0.9720    2.4660 C   0  0  0  0  0  0  0  0  0  0  0  0
   -3.0300    0.1450    1.4780 C   0  0  2  0  0  0  0  0  0  0  0  0
   -1.8320    0.9260    1.4940 N   0  0  0  0  0  0  0  0  0  0  0  0
   -4.1810    1.0790    1.7440 C   0  0  0  0  0  0  0  0  0  0  0  0
   -5.3390    0.6100    1.7840 O   0  0  0  0  0  0  0  0  0  0  0  0
   -4.0060    2.4310    1.9470 O   0  0  0  0  0  0  0  0  0  0  0  0
   -5.6920   -5.0630    0.0460 H   0  0  0  0  0  0  0  0  0  0  0  0
   -4.3440   -6.0650   -0.6040 H   0  0  0  0  0  0  0  0  0  0  0  0
   -3.6550   -4.0130   -2.4230 H   0  0  0  0  0  0  0  0  0  0  0  0
   -4.1400   -3.2500    1.5950 H   0  0  0  0  0  0  0  0  0  0  0  0
   -2.0060   -1.9650    0.1230 H   0  0  0  0  0  0  0  0  0  0  0  0
   -1.4150   -3.5020    0.8980 H   0  0  0  0  0  0  0  0  0  0  0  0
   -2.2460   -2.8090    3.0720 H   0  0  0  0  0  0  0  0  0  0  0  0
   -1.0420   -1.5980    2.3820 H   0  0  0  0  0  0  0  0  0  0  0  0
   -2.8940   -0.5190    3.4800 H   0  0  0  0  0  0  0  0  0  0  0  0
   -4.1120   -1.4270    2.4910 H   0  0  0  0  0  0  0  0  0  0  0  0
   -3.1880   -0.3210    0.4580 H   0  0  0  0  0  0  0  0  0  0  0  0
   -1.6270    1.4360    2.4040 H   0  0  0  0  0  0  0  0  0  0  0  0
  1  2  1  0  0  0  0
  1 12  1  0  0  0  0
  2  4  1  0  0  0  0
  3  2  2  0  0  0  0
  4 15  1  0  0  0  0
  4  5  1  0  0  0  0
  5 16  1  0  0  0  0
  5 17  1  0  0  0  0
  6  7  1  0  0  0  0
  6  5  1  0  0  0  0
  7 21  1  0  0  0  0
  7  8  1  0  0  0  0
  8 22  1  1  0  0  0
  8  9  1  0  0  0  0
  9 23  1  0  0  0  0
  9 24  1  0  0  0  0
 10 25  1  0  0  0  0
 10  8  1  0  0  0  0
 11 10  2  0  0  0  0
 13  1  1  0  0  0  0
 14  3  1  0  0  0  0
 18  6  1  0  0  0  0
 19  6  1  0  0  0  0
 20  7  1  0  0  0  0
 25 29  1  0  0  0  0
 26 27  1  0  0  0  0
 26 25  1  0  0  0  0
 27 28  1  0  0  0  0
 28 37  1  0  0  0  0
 28 36  1  0  0  0  0
 29 28  1  0  0  0  0
 29 38  1  1  0  0  0
 30 29  1  0  0  0  0
 30 47  1  0  0  0  0
 31 30  2  0  0  0  0
 32 26  1  0  0  0  0
 33 26  1  0  0  0  0
 34 27  1  0  0  0  0
 35 27  1  0  0  0  0
 39 51  1  0  0  0  0
 40 39  1  0  0  0  0
 40 42  1  0  0  0  0
 41 40  2  0  0  0  0
 42 43  1  0  0  0  0
 42 54  1  0  0  0  0
 43 44  1  0  0  0  0
 44 58  1  0  0  0  0
 44 45  1  0  0  0  0
 44 57  1  0  0  0  0
 45 60  1  0  0  0  0
 45 59  1  0  0  0  0
 46 61  1  6  0  0  0
 46 47  1  0  0  0  0
 46 48  1  0  0  0  0
 46 45  1  0  0  0  0
 47 62  1  0  0  0  0
 48 49  2  0  0  0  0
 48 50  1  0  0  0  0
 52 39  1  0  0  0  0
 53 41  1  0  0  0  0
 55 43  1  0  0  0  0
 56 43  1  0  0  0  0
M  END
$$$$
