RPT.pdb
 OpenBabel07022418063D

 53 53  0  0  1  0  0  0  0  0999 V2000
    3.8510   -3.7160   -1.6460 N   0  0  0  0  0  0  0  0  0  0  0  0
    2.6480   -2.9780   -1.7210 C   0  0  0  0  0  0  0  0  0  0  0  0
    1.5320   -3.6050   -1.8220 N   0  0  0  0  0  0  0  0  0  0  0  0
    2.6950   -1.5700   -1.6820 N   0  0  0  0  0  0  0  0  0  0  0  0
    1.5710   -0.7680   -1.2540 C   0  0  0  0  0  0  0  0  0  0  0  0
    1.8430    0.6920   -1.2910 C   0  0  0  0  0  0  0  0  0  0  0  0
    2.9250    1.2210   -0.4350 C   0  0  0  0  0  0  0  0  0  0  0  0
    2.7390    1.0630    1.0540 C   0  0  2  0  0  0  0  0  0  0  0  0
    2.6420   -0.3170    1.4030 N   0  0  0  0  0  0  0  0  0  0  0  0
    1.6510    1.9320    1.5160 C   0  0  0  0  0  0  0  0  0  0  0  0
    1.8930    3.1840    1.3840 O   0  0  0  0  0  0  0  0  0  0  0  0
    4.2870   -4.2240   -2.4290 H   0  0  0  0  0  0  0  0  0  0  0  0
    4.3400   -3.7480   -0.7070 H   0  0  0  0  0  0  0  0  0  0  0  0
    1.4420   -4.6290   -1.8540 H   0  0  0  0  0  0  0  0  0  0  0  0
    3.5650   -1.0840   -1.9690 H   0  0  0  0  0  0  0  0  0  0  0  0
    1.2250   -1.1240   -0.2830 H   0  0  0  0  0  0  0  0  0  0  0  0
    0.7310   -0.9930   -1.9760 H   0  0  0  0  0  0  0  0  0  0  0  0
    1.9680    1.0120   -2.3730 H   0  0  0  0  0  0  0  0  0  0  0  0
    0.8770    1.2180   -1.0100 H   0  0  0  0  0  0  0  0  0  0  0  0
    3.9070    0.7650   -0.7640 H   0  0  0  0  0  0  0  0  0  0  0  0
    3.0440    2.3160   -0.6990 H   0  0  0  0  0  0  0  0  0  0  0  0
    3.7360    1.4030    1.4920 H   0  0  0  0  0  0  0  0  0  0  0  0
    2.7920   -0.4750    2.4430 H   0  0  0  0  0  0  0  0  0  0  0  0
    3.3180   -0.9200    0.8670 H   0  0  0  0  0  0  0  0  0  0  0  0
    0.4110    1.5730    2.0710 N   0  0  0  0  0  0  0  0  0  0  0  0
   -0.5550    2.6020    2.5170 C   0  0  0  0  0  0  0  0  0  0  0  0
   -1.5800    1.8930    3.3090 C   0  0  0  0  0  0  0  0  0  0  0  0
   -0.9190    0.5830    3.6700 C   0  0  0  0  0  0  0  0  0  0  0  0
   -0.2220    0.2950    2.3240 C   0  0  1  0  0  0  0  0  0  0  0  0
   -1.2150   -0.0640    1.2970 C   0  0  0  0  0  0  0  0  0  0  0  0
   -1.4710    0.6520    0.3000 O   0  0  0  0  0  0  0  0  0  0  0  0
   -0.0350    3.4290    3.0360 H   0  0  0  0  0  0  0  0  0  0  0  0
   -1.0330    2.9470    1.5540 H   0  0  0  0  0  0  0  0  0  0  0  0
   -1.7480    2.4270    4.2850 H   0  0  0  0  0  0  0  0  0  0  0  0
   -2.5400    1.7390    2.7740 H   0  0  0  0  0  0  0  0  0  0  0  0
   -1.6670   -0.1930    3.8840 H   0  0  0  0  0  0  0  0  0  0  0  0
   -0.1560    0.7160    4.4350 H   0  0  0  0  0  0  0  0  0  0  0  0
    0.4810   -0.5130    2.5100 H   0  0  0  0  0  0  0  0  0  0  0  0
   -3.6200   -3.4090   -1.1790 C   0  0  0  0  0  0  0  0  0  0  0  0
   -2.5730   -3.0630   -0.1280 C   0  0  1  0  0  0  0  0  0  0  0  0
   -1.3700   -2.9340   -0.8230 O   0  0  0  0  0  0  0  0  0  0  0  0
   -2.9200   -1.7440    0.4990 C   0  0  2  0  0  0  0  0  0  0  0  0
   -1.9260   -1.2780    1.4270 N   0  0  0  0  0  0  0  0  0  0  0  0
   -4.2770   -1.8150    1.1410 C   0  0  0  0  0  0  0  0  0  0  0  0
   -4.4180   -1.4820    2.3540 O   0  0  0  0  0  0  0  0  0  0  0  0
   -5.3920   -2.2290    0.4620 O   0  0  0  0  0  0  0  0  0  0  0  0
   -3.1530   -3.7920   -2.1160 H   0  0  0  0  0  0  0  0  0  0  0  0
   -4.3570   -4.1340   -0.8330 H   0  0  0  0  0  0  0  0  0  0  0  0
   -4.1520   -2.4680   -1.5000 H   0  0  0  0  0  0  0  0  0  0  0  0
   -2.5560   -3.8900    0.6110 H   0  0  0  0  0  0  0  0  0  0  0  0
   -1.5660   -2.2790   -1.5640 H   0  0  0  0  0  0  0  0  0  0  0  0
   -3.0170   -0.9960   -0.3150 H   0  0  0  0  0  0  0  0  0  0  0  0
   -1.7200   -1.8830    2.2520 H   0  0  0  0  0  0  0  0  0  0  0  0
  1 13  1  0  0  0  0
  2  4  1  0  0  0  0
  2  1  1  0  0  0  0
  3  2  2  0  0  0  0
  4  5  1  0  0  0  0
  5 16  1  0  0  0  0
  6  5  1  0  0  0  0
  6 19  1  0  0  0  0
  6  7  1  0  0  0  0
  7  8  1  0  0  0  0
  8  9  1  0  0  0  0
  8 22  1  1  0  0  0
  8 10  1  0  0  0  0
  9 23  1  0  0  0  0
 10 25  1  0  0  0  0
 11 10  2  0  0  0  0
 12  1  1  0  0  0  0
 14  3  1  0  0  0  0
 15  4  1  0  0  0  0
 17  5  1  0  0  0  0
 18  6  1  0  0  0  0
 20  7  1  0  0  0  0
 21  7  1  0  0  0  0
 24  9  1  0  0  0  0
 25 29  1  0  0  0  0
 25 26  1  0  0  0  0
 26 32  1  0  0  0  0
 26 27  1  0  0  0  0
 27 28  1  0  0  0  0
 27 34  1  0  0  0  0
 28 36  1  0  0  0  0
 28 37  1  0  0  0  0
 29 38  1  1  0  0  0
 29 28  1  0  0  0  0
 30 43  1  0  0  0  0
 30 29  1  0  0  0  0
 31 30  2  0  0  0  0
 33 26  1  0  0  0  0
 35 27  1  0  0  0  0
 39 48  1  0  0  0  0
 39 40  1  0  0  0  0
 40 42  1  0  0  0  0
 40 50  1  1  0  0  0
 41 40  1  0  0  0  0
 42 52  1  6  0  0  0
 42 44  1  0  0  0  0
 42 43  1  0  0  0  0
 43 53  1  0  0  0  0
 44 45  1  0  0  0  0
 46 44  2  0  0  0  0
 47 39  1  0  0  0  0
 49 39  1  0  0  0  0
 51 41  1  0  0  0  0
M  END
$$$$
