RPV.pdb
 OpenBabel07022418063D

 55 55  0  0  1  0  0  0  0  0999 V2000
    2.1610   -5.9190    2.9890 N   0  0  0  0  0  0  0  0  0  0  0  0
    1.6500   -4.6870    2.5200 C   0  0  0  0  0  0  0  0  0  0  0  0
    0.4840   -4.3070    2.9620 N   0  0  0  0  0  0  0  0  0  0  0  0
    2.3490   -3.8600    1.5990 N   0  0  0  0  0  0  0  0  0  0  0  0
    1.5680   -2.9450    0.7880 C   0  0  0  0  0  0  0  0  0  0  0  0
    2.3850   -2.1250   -0.1500 C   0  0  0  0  0  0  0  0  0  0  0  0
    3.3930   -1.2750    0.5000 C   0  0  0  0  0  0  0  0  0  0  0  0
    2.8710   -0.2120    1.4230 C   0  0  2  0  0  0  0  0  0  0  0  0
    2.1200   -0.6800    2.5440 N   0  0  0  0  0  0  0  0  0  0  0  0
    2.2610    0.9140    0.6840 C   0  0  0  0  0  0  0  0  0  0  0  0
    3.0450    1.4680   -0.1630 O   0  0  0  0  0  0  0  0  0  0  0  0
    1.8940   -6.7960    2.5410 H   0  0  0  0  0  0  0  0  0  0  0  0
    2.8110   -5.9190    3.7950 H   0  0  0  0  0  0  0  0  0  0  0  0
   -0.0630   -4.8650    3.6270 H   0  0  0  0  0  0  0  0  0  0  0  0
    3.3800   -3.9550    1.5540 H   0  0  0  0  0  0  0  0  0  0  0  0
    0.8630   -3.5580    0.1320 H   0  0  0  0  0  0  0  0  0  0  0  0
    0.9630   -2.2940    1.4300 H   0  0  0  0  0  0  0  0  0  0  0  0
    2.8020   -2.7320   -0.9970 H   0  0  0  0  0  0  0  0  0  0  0  0
    1.6420   -1.4480   -0.6770 H   0  0  0  0  0  0  0  0  0  0  0  0
    4.0260   -0.7880   -0.3080 H   0  0  0  0  0  0  0  0  0  0  0  0
    4.1080   -1.9250    1.0830 H   0  0  0  0  0  0  0  0  0  0  0  0
    3.8380    0.2130    1.9010 H   0  0  0  0  0  0  0  0  0  0  0  0
    2.1810    0.0170    3.3480 H   0  0  0  0  0  0  0  0  0  0  0  0
    2.6130   -1.5270    2.9710 H   0  0  0  0  0  0  0  0  0  0  0  0
    0.9640    1.4150    0.8160 N   0  0  0  0  0  0  0  0  0  0  0  0
    0.5410    2.6100    0.0360 C   0  0  0  0  0  0  0  0  0  0  0  0
   -0.7130    3.1180    0.6920 C   0  0  0  0  0  0  0  0  0  0  0  0
   -0.6420    2.4400    2.0500 C   0  0  0  0  0  0  0  0  0  0  0  0
   -0.1870    1.0500    1.5660 C   0  0  1  0  0  0  0  0  0  0  0  0
   -1.2540    0.3360    0.8970 C   0  0  0  0  0  0  0  0  0  0  0  0
   -2.2650    0.0360    1.6270 O   0  0  0  0  0  0  0  0  0  0  0  0
    0.3190    2.3150   -1.0000 H   0  0  0  0  0  0  0  0  0  0  0  0
    1.3630    3.3680    0.0760 H   0  0  0  0  0  0  0  0  0  0  0  0
   -0.5680    4.2040    0.8900 H   0  0  0  0  0  0  0  0  0  0  0  0
   -1.6360    2.8940    0.1560 H   0  0  0  0  0  0  0  0  0  0  0  0
   -1.6650    2.3480    2.4380 H   0  0  0  0  0  0  0  0  0  0  0  0
    0.0820    2.9000    2.7170 H   0  0  0  0  0  0  0  0  0  0  0  0
    0.0940    0.5200    2.4800 H   0  0  0  0  0  0  0  0  0  0  0  0
   -4.4900   -0.6980   -2.4220 C   0  0  0  0  0  0  0  0  0  0  0  0
   -3.2940    0.0850   -1.9310 C   0  0  0  0  0  0  0  0  0  0  0  0
   -3.7890    1.3520   -1.2900 C   0  0  0  0  0  0  0  0  0  0  0  0
   -2.5260   -0.7940   -0.9600 C   0  0  2  0  0  0  0  0  0  0  0  0
   -1.3490   -0.0790   -0.4460 N   0  0  0  0  0  0  0  0  0  0  0  0
   -2.1890   -2.0860   -1.5600 C   0  0  0  0  0  0  0  0  0  0  0  0
   -3.1310   -2.7920   -2.0010 O   0  0  0  0  0  0  0  0  0  0  0  0
   -0.9140   -2.6100   -1.6910 O   0  0  0  0  0  0  0  0  0  0  0  0
   -4.8900   -1.3190   -1.6070 H   0  0  0  0  0  0  0  0  0  0  0  0
   -5.3020    0.0560   -2.6400 H   0  0  0  0  0  0  0  0  0  0  0  0
   -4.2680   -1.2710   -3.3520 H   0  0  0  0  0  0  0  0  0  0  0  0
   -2.6340    0.3550   -2.7810 H   0  0  0  0  0  0  0  0  0  0  0  0
   -3.9140    1.2130   -0.2140 H   0  0  0  0  0  0  0  0  0  0  0  0
   -3.1510    2.2180   -1.5670 H   0  0  0  0  0  0  0  0  0  0  0  0
   -4.8050    1.5760   -1.7300 H   0  0  0  0  0  0  0  0  0  0  0  0
   -3.2020   -0.9550   -0.1020 H   0  0  0  0  0  0  0  0  0  0  0  0
   -0.5490    0.1340   -1.0650 H   0  0  0  0  0  0  0  0  0  0  0  0
  1 13  1  0  0  0  0
  2  3  2  0  0  0  0
  2  1  1  0  0  0  0
  3 14  1  0  0  0  0
  4  2  1  0  0  0  0
  5 17  1  0  0  0  0
  5  4  1  0  0  0  0
  6  7  1  0  0  0  0
  6  5  1  0  0  0  0
  7 21  1  0  0  0  0
  7  8  1  0  0  0  0
  8 22  1  1  0  0  0
  8  9  1  0  0  0  0
  9 24  1  0  0  0  0
  9 23  1  0  0  0  0
 10 25  1  0  0  0  0
 10  8  1  0  0  0  0
 11 10  2  0  0  0  0
 12  1  1  0  0  0  0
 15  4  1  0  0  0  0
 16  5  1  0  0  0  0
 18  6  1  0  0  0  0
 19  6  1  0  0  0  0
 20  7  1  0  0  0  0
 25 29  1  0  0  0  0
 26 33  1  0  0  0  0
 26 27  1  0  0  0  0
 26 25  1  0  0  0  0
 27 34  1  0  0  0  0
 27 28  1  0  0  0  0
 28 36  1  0  0  0  0
 28 37  1  0  0  0  0
 29 28  1  0  0  0  0
 29 38  1  1  0  0  0
 30 29  1  0  0  0  0
 30 31  2  0  0  0  0
 32 26  1  0  0  0  0
 35 27  1  0  0  0  0
 39 40  1  0  0  0  0
 39 47  1  0  0  0  0
 40 41  1  0  0  0  0
 40 42  1  0  0  0  0
 41 51  1  0  0  0  0
 42 43  1  0  0  0  0
 42 54  1  1  0  0  0
 43 30  1  0  0  0  0
 44 42  1  0  0  0  0
 45 44  2  0  0  0  0
 46 44  1  0  0  0  0
 48 39  1  0  0  0  0
 49 39  1  0  0  0  0
 50 40  1  0  0  0  0
 52 41  1  0  0  0  0
 53 41  1  0  0  0  0
 55 43  1  0  0  0  0
M  END
$$$$
