RPW.pdb
 OpenBabel07022418063D

 63 65  0  0  1  0  0  0  0  0999 V2000
    2.5100   -3.8600    0.8380 N   0  0  0  0  0  0  0  0  0  0  0  0
    3.3180   -2.6720    0.7150 C   0  0  0  0  0  0  0  0  0  0  0  0
    4.1460   -2.5540   -0.2710 N   0  0  0  0  0  0  0  0  0  0  0  0
    3.1690   -1.6730    1.6910 N   0  0  0  0  0  0  0  0  0  0  0  0
    4.2480   -0.7580    1.9760 C   0  0  0  0  0  0  0  0  0  0  0  0
    4.5570    0.1970    0.8800 C   0  0  0  0  0  0  0  0  0  0  0  0
    3.4530    1.0770    0.4590 C   0  0  0  0  0  0  0  0  0  0  0  0
    2.8900    2.0340    1.4860 C   0  0  2  0  0  0  0  0  0  0  0  0
    2.3390    1.3940    2.6410 N   0  0  0  0  0  0  0  0  0  0  0  0
    1.9280    2.9510    0.7920 C   0  0  0  0  0  0  0  0  0  0  0  0
    2.4710    4.0460    0.3920 O   0  0  0  0  0  0  0  0  0  0  0  0
    2.7570   -4.7240    0.3120 H   0  0  0  0  0  0  0  0  0  0  0  0
    1.6720   -3.8820    1.4490 H   0  0  0  0  0  0  0  0  0  0  0  0
    4.2100   -3.3210   -0.9540 H   0  0  0  0  0  0  0  0  0  0  0  0
    2.2530   -1.6050    2.2100 H   0  0  0  0  0  0  0  0  0  0  0  0
    5.1780   -1.4200    2.1440 H   0  0  0  0  0  0  0  0  0  0  0  0
    4.1180   -0.2360    2.9360 H   0  0  0  0  0  0  0  0  0  0  0  0
    4.9250   -0.3370   -0.0370 H   0  0  0  0  0  0  0  0  0  0  0  0
    5.4230    0.8360    1.1990 H   0  0  0  0  0  0  0  0  0  0  0  0
    3.8770    1.7580   -0.3480 H   0  0  0  0  0  0  0  0  0  0  0  0
    2.6170    0.5000   -0.0140 H   0  0  0  0  0  0  0  0  0  0  0  0
    3.7960    2.6180    1.8350 H   0  0  0  0  0  0  0  0  0  0  0  0
    1.4340    1.8560    2.9560 H   0  0  0  0  0  0  0  0  0  0  0  0
    2.9640    1.6250    3.4790 H   0  0  0  0  0  0  0  0  0  0  0  0
    0.5820    2.7490    0.5480 N   0  0  0  0  0  0  0  0  0  0  0  0
   -0.2620    3.7970   -0.0940 C   0  0  0  0  0  0  0  0  0  0  0  0
   -1.4440    3.8100    0.8590 C   0  0  0  0  0  0  0  0  0  0  0  0
   -1.6450    2.3580    1.1590 C   0  0  0  0  0  0  0  0  0  0  0  0
   -0.3640    1.6740    0.7150 C   0  0  1  0  0  0  0  0  0  0  0  0
   -0.5790    0.9350   -0.5670 C   0  0  0  0  0  0  0  0  0  0  0  0
    0.0740    1.2670   -1.5610 O   0  0  0  0  0  0  0  0  0  0  0  0
    0.2380    4.7630   -0.1260 H   0  0  0  0  0  0  0  0  0  0  0  0
   -0.5410    3.4570   -1.0880 H   0  0  0  0  0  0  0  0  0  0  0  0
   -1.1330    4.4070    1.7500 H   0  0  0  0  0  0  0  0  0  0  0  0
   -2.3350    4.2770    0.3730 H   0  0  0  0  0  0  0  0  0  0  0  0
   -1.7990    2.2540    2.2620 H   0  0  0  0  0  0  0  0  0  0  0  0
   -2.5310    1.9430    0.6410 H   0  0  0  0  0  0  0  0  0  0  0  0
   -0.0560    0.9920    1.5150 H   0  0  0  0  0  0  0  0  0  0  0  0
   -1.5000   -0.1030   -0.6220 N   0  0  0  0  0  0  0  0  0  0  0  0
   -1.7980   -0.8960   -1.8030 C   0  0  1  0  0  0  0  0  0  0  0  0
   -1.2700   -2.2700   -1.5180 C   0  0  0  0  0  0  0  0  0  0  0  0
   -1.8400   -2.9320   -0.3360 C   0  0  0  0  0  0  0  0  0  0  0  0
   -1.2270   -2.9550    0.9150 C   0  0  0  0  0  0  0  0  0  0  0  0
   -2.0180   -3.6040    1.7520 N   0  0  0  0  0  0  0  0  0  0  0  0
   -3.1320   -4.0180    1.1240 C   0  0  0  0  0  0  0  0  0  0  0  0
   -4.2060   -4.7260    1.6120 C   0  0  0  0  0  0  0  0  0  0  0  0
   -5.2200   -5.0300    0.7450 C   0  0  0  0  0  0  0  0  0  0  0  0
   -5.1450   -4.6330   -0.5550 C   0  0  0  0  0  0  0  0  0  0  0  0
   -4.0720   -3.9230   -1.0470 C   0  0  0  0  0  0  0  0  0  0  0  0
   -3.0230   -3.5980   -0.1850 C   0  0  0  0  0  0  0  0  0  0  0  0
   -3.1360   -0.7760   -2.3150 C   0  0  0  0  0  0  0  0  0  0  0  0
   -3.5120   -1.3340   -3.3680 O   0  0  0  0  0  0  0  0  0  0  0  0
   -4.0830   -0.0190   -1.6410 O   0  0  0  0  0  0  0  0  0  0  0  0
   -2.0380   -0.3590    0.2400 H   0  0  0  0  0  0  0  0  0  0  0  0
   -1.1060   -0.4670   -2.5970 H   0  0  0  0  0  0  0  0  0  0  0  0
   -1.3870   -2.9240   -2.4430 H   0  0  0  0  0  0  0  0  0  0  0  0
   -0.1560   -2.2540   -1.3900 H   0  0  0  0  0  0  0  0  0  0  0  0
   -0.2690   -2.5160    1.1610 H   0  0  0  0  0  0  0  0  0  0  0  0
   -1.8020   -3.7730    2.7760 H   0  0  0  0  0  0  0  0  0  0  0  0
   -4.2860   -5.0540    2.6470 H   0  0  0  0  0  0  0  0  0  0  0  0
   -6.0760   -5.5880    1.1070 H   0  0  0  0  0  0  0  0  0  0  0  0
   -5.9410   -4.8680   -1.2500 H   0  0  0  0  0  0  0  0  0  0  0  0
   -3.9740   -3.6040   -2.0540 H   0  0  0  0  0  0  0  0  0  0  0  0
  1 13  1  0  0  0  0
  2  1  1  0  0  0  0
  2  4  1  0  0  0  0
  3  2  2  0  0  0  0
  4  5  1  0  0  0  0
  4 15  1  0  0  0  0
  5 16  1  0  0  0  0
  5 17  1  0  0  0  0
  6 19  1  0  0  0  0
  6  5  1  0  0  0  0
  7  6  1  0  0  0  0
  7  8  1  0  0  0  0
  8 22  1  1  0  0  0
  8  9  1  0  0  0  0
  9 23  1  0  0  0  0
  9 24  1  0  0  0  0
 10  8  1  0  0  0  0
 11 10  2  0  0  0  0
 12  1  1  0  0  0  0
 14  3  1  0  0  0  0
 18  6  1  0  0  0  0
 20  7  1  0  0  0  0
 21  7  1  0  0  0  0
 25 29  1  0  0  0  0
 25 10  1  0  0  0  0
 26 25  1  0  0  0  0
 26 27  1  0  0  0  0
 27 28  1  0  0  0  0
 27 34  1  0  0  0  0
 28 36  1  0  0  0  0
 29 28  1  0  0  0  0
 29 38  1  1  0  0  0
 30 29  1  0  0  0  0
 31 30  2  0  0  0  0
 32 26  1  0  0  0  0
 33 26  1  0  0  0  0
 35 27  1  0  0  0  0
 37 28  1  0  0  0  0
 39 30  1  0  0  0  0
 39 54  1  0  0  0  0
 40 55  1  6  0  0  0
 40 41  1  0  0  0  0
 40 39  1  0  0  0  0
 41 57  1  0  0  0  0
 41 42  1  0  0  0  0
 42 50  1  0  0  0  0
 42 43  2  0  0  0  0
 43 58  1  0  0  0  0
 43 44  1  0  0  0  0
 44 59  1  0  0  0  0
 45 46  1  0  0  0  0
 45 44  1  0  0  0  0
 46 60  1  0  0  0  0
 47 61  1  0  0  0  0
 47 46  2  0  0  0  0
 48 47  1  0  0  0  0
 49 48  2  0  0  0  0
 49 50  1  0  0  0  0
 50 45  2  0  0  0  0
 51 40  1  0  0  0  0
 51 53  1  0  0  0  0
 52 51  2  0  0  0  0
 56 41  1  0  0  0  0
 62 48  1  0  0  0  0
 63 49  1  0  0  0  0
M  END
$$$$
