RPY.pdb
 OpenBabel07022418063D

 60 61  0  0  1  0  0  0  0  0999 V2000
    4.2160   -4.2580    3.4740 N   0  0  0  0  0  0  0  0  0  0  0  0
    4.8700   -3.1150    2.9720 C   0  0  0  0  0  0  0  0  0  0  0  0
    6.1190   -3.0550    2.6550 N   0  0  0  0  0  0  0  0  0  0  0  0
    4.0940   -1.9240    2.7950 N   0  0  0  0  0  0  0  0  0  0  0  0
    4.7960   -0.6660    2.7100 C   0  0  0  0  0  0  0  0  0  0  0  0
    3.7840    0.4370    2.5170 C   0  0  0  0  0  0  0  0  0  0  0  0
    2.9770    0.2510    1.2580 C   0  0  0  0  0  0  0  0  0  0  0  0
    1.9650    1.3730    1.0640 C   0  0  2  0  0  0  0  0  0  0  0  0
    1.0190    1.4620    2.1380 N   0  0  0  0  0  0  0  0  0  0  0  0
    1.3490    1.2980   -0.2850 C   0  0  0  0  0  0  0  0  0  0  0  0
    2.1930    1.1370   -1.2310 O   0  0  0  0  0  0  0  0  0  0  0  0
    3.7810   -4.1920    4.4220 H   0  0  0  0  0  0  0  0  0  0  0  0
    4.1320   -5.1610    2.9800 H   0  0  0  0  0  0  0  0  0  0  0  0
    6.6710   -3.9300    2.7880 H   0  0  0  0  0  0  0  0  0  0  0  0
    3.0720   -1.9360    2.7290 H   0  0  0  0  0  0  0  0  0  0  0  0
    5.5070   -0.7370    1.8650 H   0  0  0  0  0  0  0  0  0  0  0  0
    5.3410   -0.4460    3.6520 H   0  0  0  0  0  0  0  0  0  0  0  0
    4.3860    1.3850    2.4520 H   0  0  0  0  0  0  0  0  0  0  0  0
    3.2020    0.5120    3.4360 H   0  0  0  0  0  0  0  0  0  0  0  0
    2.4270   -0.7050    1.2400 H   0  0  0  0  0  0  0  0  0  0  0  0
    3.6910    0.2200    0.4100 H   0  0  0  0  0  0  0  0  0  0  0  0
    2.6070    2.3110    1.1200 H   0  0  0  0  0  0  0  0  0  0  0  0
    1.2760    0.8220    2.9170 H   0  0  0  0  0  0  0  0  0  0  0  0
    1.0230    2.4290    2.5170 H   0  0  0  0  0  0  0  0  0  0  0  0
   -0.0340    1.3910   -0.5650 N   0  0  0  0  0  0  0  0  0  0  0  0
   -0.5480    1.2950   -1.9430 C   0  0  0  0  0  0  0  0  0  0  0  0
   -1.9580    1.7670   -1.9180 C   0  0  0  0  0  0  0  0  0  0  0  0
   -2.1560    2.3740   -0.5710 C   0  0  0  0  0  0  0  0  0  0  0  0
   -1.1750    1.5870    0.2990 C   0  0  1  0  0  0  0  0  0  0  0  0
   -1.7840    0.3570    0.7990 C   0  0  0  0  0  0  0  0  0  0  0  0
   -2.7740    0.3970    1.5630 O   0  0  0  0  0  0  0  0  0  0  0  0
   -0.4950    0.2620   -2.3120 H   0  0  0  0  0  0  0  0  0  0  0  0
    0.0470    1.9350   -2.6210 H   0  0  0  0  0  0  0  0  0  0  0  0
   -2.1260    2.5830   -2.6820 H   0  0  0  0  0  0  0  0  0  0  0  0
   -2.7060    0.9910   -2.1030 H   0  0  0  0  0  0  0  0  0  0  0  0
   -3.1880    2.2760   -0.1980 H   0  0  0  0  0  0  0  0  0  0  0  0
   -1.8130    3.4290   -0.6050 H   0  0  0  0  0  0  0  0  0  0  0  0
   -0.9260    2.2810    1.1290 H   0  0  0  0  0  0  0  0  0  0  0  0
   -6.0570   -1.2780   -3.7600 O   0  0  0  0  0  0  0  0  0  0  0  0
   -5.0660   -1.7140   -2.9170 C   0  0  0  0  0  0  0  0  0  0  0  0
   -3.7120   -1.5070   -3.1650 C   0  0  0  0  0  0  0  0  0  0  0  0
   -2.7570   -1.9570   -2.2990 C   0  0  0  0  0  0  0  0  0  0  0  0
   -3.1240   -2.6250   -1.1630 C   0  0  0  0  0  0  0  0  0  0  0  0
   -2.1300   -3.1420   -0.1730 C   0  0  0  0  0  0  0  0  0  0  0  0
   -1.8260   -2.1450    0.8930 C   0  0  2  0  0  0  0  0  0  0  0  0
   -1.2750   -0.9040    0.4370 N   0  0  0  0  0  0  0  0  0  0  0  0
   -0.8040   -2.7770    1.7980 C   0  0  0  0  0  0  0  0  0  0  0  0
    0.3010   -2.2420    2.0470 O   0  0  0  0  0  0  0  0  0  0  0  0
   -4.4620   -2.8460   -0.8880 C   0  0  0  0  0  0  0  0  0  0  0  0
   -5.4210   -2.3900   -1.7650 C   0  0  0  0  0  0  0  0  0  0  0  0
   -1.0480   -4.0020    2.4070 O   0  0  0  0  0  0  0  0  0  0  0  0
   -6.8520   -0.7830   -3.3340 H   0  0  0  0  0  0  0  0  0  0  0  0
   -3.4920   -0.9670   -4.0920 H   0  0  0  0  0  0  0  0  0  0  0  0
   -1.7230   -1.7850   -2.5160 H   0  0  0  0  0  0  0  0  0  0  0  0
   -1.1940   -3.4420   -0.6810 H   0  0  0  0  0  0  0  0  0  0  0  0
   -2.5640   -4.0610    0.2640 H   0  0  0  0  0  0  0  0  0  0  0  0
   -2.7050   -1.9680    1.5510 H   0  0  0  0  0  0  0  0  0  0  0  0
   -0.4450   -0.9330   -0.2040 H   0  0  0  0  0  0  0  0  0  0  0  0
   -4.7400   -3.3860    0.0330 H   0  0  0  0  0  0  0  0  0  0  0  0
   -6.4770   -2.5780   -1.5230 H   0  0  0  0  0  0  0  0  0  0  0  0
  1 12  1  0  0  0  0
  2  1  1  0  0  0  0
  3 14  1  0  0  0  0
  3  2  2  0  0  0  0
  4  2  1  0  0  0  0
  5  4  1  0  0  0  0
  5 17  1  0  0  0  0
  6  5  1  0  0  0  0
  6 19  1  0  0  0  0
  7  6  1  0  0  0  0
  8 22  1  1  0  0  0
  8  7  1  0  0  0  0
  8  9  1  0  0  0  0
  9 24  1  0  0  0  0
  9 23  1  0  0  0  0
 10  8  1  0  0  0  0
 11 10  2  0  0  0  0
 13  1  1  0  0  0  0
 15  4  1  0  0  0  0
 16  5  1  0  0  0  0
 18  6  1  0  0  0  0
 20  7  1  0  0  0  0
 21  7  1  0  0  0  0
 25 10  1  0  0  0  0
 25 29  1  0  0  0  0
 26 27  1  0  0  0  0
 26 25  1  0  0  0  0
 27 28  1  0  0  0  0
 28 36  1  0  0  0  0
 28 29  1  0  0  0  0
 29 30  1  0  0  0  0
 29 38  1  1  0  0  0
 30 31  2  0  0  0  0
 32 26  1  0  0  0  0
 33 26  1  0  0  0  0
 34 27  1  0  0  0  0
 35 27  1  0  0  0  0
 37 28  1  0  0  0  0
 39 52  1  0  0  0  0
 39 40  1  0  0  0  0
 40 50  1  0  0  0  0
 41 40  2  0  0  0  0
 41 42  1  0  0  0  0
 42 43  2  0  0  0  0
 43 49  1  0  0  0  0
 43 44  1  0  0  0  0
 44 56  1  0  0  0  0
 44 45  1  0  0  0  0
 45 57  1  1  0  0  0
 45 47  1  0  0  0  0
 46 30  1  0  0  0  0
 46 45  1  0  0  0  0
 47 48  2  0  0  0  0
 47 51  1  0  0  0  0
 49 59  1  0  0  0  0
 50 60  1  0  0  0  0
 50 49  2  0  0  0  0
 53 41  1  0  0  0  0
 54 42  1  0  0  0  0
 55 44  1  0  0  0  0
 58 46  1  0  0  0  0
M  END
$$$$
