RQA.pdb
 OpenBabel07022418053D

 52 51  0  0  1  0  0  0  0  0999 V2000
    1.4430   -4.7080    2.6390 N   0  0  0  0  0  0  0  0  0  0  0  0
    0.9920   -3.8130    1.5920 C   0  0  0  0  0  0  0  0  0  0  0  0
    0.1160   -2.9250    1.8490 N   0  0  0  0  0  0  0  0  0  0  0  0
    1.5540   -3.9720    0.3170 N   0  0  0  0  0  0  0  0  0  0  0  0
    1.9290   -2.8540   -0.5060 C   0  0  0  0  0  0  0  0  0  0  0  0
    3.0810   -2.1010    0.0700 C   0  0  0  0  0  0  0  0  0  0  0  0
    2.8990   -1.3920    1.3370 C   0  0  0  0  0  0  0  0  0  0  0  0
    2.0940   -0.2070    1.4900 C   0  0  2  0  0  0  0  0  0  0  0  0
    2.0690    0.1610    2.9350 N   0  0  0  0  0  0  0  0  0  0  0  0
    0.8970    0.1790    0.8260 C   0  0  0  0  0  0  0  0  0  0  0  0
    0.8280    0.3230   -0.4310 O   0  0  0  0  0  0  0  0  0  0  0  0
    1.0650   -5.6720    2.5980 H   0  0  0  0  0  0  0  0  0  0  0  0
    2.1040   -4.3850    3.3790 H   0  0  0  0  0  0  0  0  0  0  0  0
   -0.2880   -2.8170    2.7790 H   0  0  0  0  0  0  0  0  0  0  0  0
    1.6890   -4.9760   -0.0060 H   0  0  0  0  0  0  0  0  0  0  0  0
    1.0890   -2.2730   -0.8730 H   0  0  0  0  0  0  0  0  0  0  0  0
    2.3470   -3.3370   -1.4590 H   0  0  0  0  0  0  0  0  0  0  0  0
    3.5490   -1.4880   -0.7410 H   0  0  0  0  0  0  0  0  0  0  0  0
    3.8790   -2.8900    0.2600 H   0  0  0  0  0  0  0  0  0  0  0  0
    2.6790   -2.1640    2.1460 H   0  0  0  0  0  0  0  0  0  0  0  0
    3.9920   -1.1230    1.6670 H   0  0  0  0  0  0  0  0  0  0  0  0
    2.8450    0.6860    1.1440 H   0  0  0  0  0  0  0  0  0  0  0  0
    1.5980    1.0630    3.0600 H   0  0  0  0  0  0  0  0  0  0  0  0
    1.5630   -0.6000    3.4530 H   0  0  0  0  0  0  0  0  0  0  0  0
   -0.2470    5.7540    1.3180 N   0  0  0  0  0  0  0  0  0  0  0  0
   -0.7190    4.6080    0.6120 C   0  0  0  0  0  0  0  0  0  0  0  0
   -1.0090    4.7090   -0.6080 O   0  0  0  0  0  0  0  0  0  0  0  0
   -0.8810    3.2920    1.2770 C   0  0  0  0  0  0  0  0  0  0  0  0
   -1.3810    2.2780    0.3050 C   0  0  0  0  0  0  0  0  0  0  0  0
   -1.5520    0.8990    1.0070 C   0  0  2  0  0  0  0  0  0  0  0  0
   -0.3290    0.4540    1.5230 N   0  0  0  0  0  0  0  0  0  0  0  0
   -2.3220    0.0640    0.1340 C   0  0  0  0  0  0  0  0  0  0  0  0
   -3.4910    0.4450   -0.2810 O   0  0  0  0  0  0  0  0  0  0  0  0
    0.1570    6.5430    0.8030 H   0  0  0  0  0  0  0  0  0  0  0  0
   -0.3210    5.7650    2.3390 H   0  0  0  0  0  0  0  0  0  0  0  0
    0.1120    2.9640    1.6560 H   0  0  0  0  0  0  0  0  0  0  0  0
   -1.5520    3.3790    2.1540 H   0  0  0  0  0  0  0  0  0  0  0  0
   -0.7180    2.1150   -0.5560 H   0  0  0  0  0  0  0  0  0  0  0  0
   -2.3940    2.5450   -0.0480 H   0  0  0  0  0  0  0  0  0  0  0  0
   -2.2160    1.1840    1.8780 H   0  0  0  0  0  0  0  0  0  0  0  0
   -0.2440    0.2760    2.5810 H   0  0  0  0  0  0  0  0  0  0  0  0
   -1.9760   -2.2830   -2.4870 C   0  0  0  0  0  0  0  0  0  0  0  0
   -2.7850   -1.9830   -1.2430 C   0  0  2  0  0  0  0  0  0  0  0  0
   -1.9210   -1.1930   -0.3470 N   0  0  0  0  0  0  0  0  0  0  0  0
   -3.1620   -3.2220   -0.5170 C   0  0  0  0  0  0  0  0  0  0  0  0
   -2.7420   -3.4130    0.6390 O   0  0  0  0  0  0  0  0  0  0  0  0
   -3.9870   -4.1720   -1.1290 O   0  0  0  0  0  0  0  0  0  0  0  0
   -0.9090   -2.4340   -2.2470 H   0  0  0  0  0  0  0  0  0  0  0  0
   -2.3950   -3.2030   -2.9450 H   0  0  0  0  0  0  0  0  0  0  0  0
   -2.0500   -1.4110   -3.1630 H   0  0  0  0  0  0  0  0  0  0  0  0
   -3.7130   -1.4110   -1.4590 H   0  0  0  0  0  0  0  0  0  0  0  0
   -1.0150   -1.6170   -0.1110 H   0  0  0  0  0  0  0  0  0  0  0  0
  1 13  1  0  0  0  0
  2  3  2  0  0  0  0
  2  1  1  0  0  0  0
  3 14  1  0  0  0  0
  4  2  1  0  0  0  0
  5  6  1  0  0  0  0
  5  4  1  0  0  0  0
  6 19  1  0  0  0  0
  6  7  1  0  0  0  0
  7  8  1  0  0  0  0
  7 21  1  0  0  0  0
  7 20  1  0  0  0  0
  8 22  1  6  0  0  0
  8  9  1  0  0  0  0
  9 23  1  0  0  0  0
  9 24  1  0  0  0  0
 10  8  1  0  0  0  0
 10 31  1  0  0  0  0
 11 10  2  0  0  0  0
 12  1  1  0  0  0  0
 15  4  1  0  0  0  0
 16  5  1  0  0  0  0
 17  5  1  0  0  0  0
 18  6  1  0  0  0  0
 25 35  1  0  0  0  0
 26 28  1  0  0  0  0
 26 25  1  0  0  0  0
 27 26  2  0  0  0  0
 28 36  1  0  0  0  0
 28 37  1  0  0  0  0
 29 30  1  0  0  0  0
 29 28  1  0  0  0  0
 30 31  1  0  0  0  0
 30 40  1  1  0  0  0
 31 41  1  0  0  0  0
 32 30  1  0  0  0  0
 33 32  2  0  0  0  0
 34 25  1  0  0  0  0
 38 29  1  0  0  0  0
 39 29  1  0  0  0  0
 42 48  1  0  0  0  0
 42 43  1  0  0  0  0
 43 51  1  6  0  0  0
 43 45  1  0  0  0  0
 43 44  1  0  0  0  0
 44 52  1  0  0  0  0
 44 32  1  0  0  0  0
 45 46  1  0  0  0  0
 47 45  2  0  0  0  0
 49 42  1  0  0  0  0
 50 42  1  0  0  0  0
M  END
$$$$
