RQC.pdb
 OpenBabel07022418053D

 53 52  0  0  1  0  0  0  0  0999 V2000
   -1.5290   -0.0600    3.9350 N   0  0  0  0  0  0  0  0  0  0  0  0
   -0.1280    0.0680    4.1520 C   0  0  0  0  0  0  0  0  0  0  0  0
    0.3100    0.9300    5.0090 N   0  0  0  0  0  0  0  0  0  0  0  0
    0.8290   -0.7140    3.4730 N   0  0  0  0  0  0  0  0  0  0  0  0
    2.0870   -0.1680    3.0290 C   0  0  0  0  0  0  0  0  0  0  0  0
    2.9800   -1.1770    2.4110 C   0  0  0  0  0  0  0  0  0  0  0  0
    2.5120   -1.8870    1.1860 C   0  0  0  0  0  0  0  0  0  0  0  0
    2.2700   -1.1250   -0.0390 C   0  0  2  0  0  0  0  0  0  0  0  0
    3.4550   -0.3980   -0.5240 N   0  0  0  0  0  0  0  0  0  0  0  0
    1.0090   -0.4990   -0.3500 C   0  0  0  0  0  0  0  0  0  0  0  0
    1.0410    0.3540   -1.3210 O   0  0  0  0  0  0  0  0  0  0  0  0
   -2.0490   -0.9480    4.1000 H   0  0  0  0  0  0  0  0  0  0  0  0
   -2.0900    0.7510    3.5980 H   0  0  0  0  0  0  0  0  0  0  0  0
   -0.3770    1.5150    5.5250 H   0  0  0  0  0  0  0  0  0  0  0  0
    0.6190   -1.7090    3.2840 H   0  0  0  0  0  0  0  0  0  0  0  0
    2.6040    0.1350    4.0010 H   0  0  0  0  0  0  0  0  0  0  0  0
    1.9960    0.7710    2.4860 H   0  0  0  0  0  0  0  0  0  0  0  0
    3.2330   -1.9200    3.2360 H   0  0  0  0  0  0  0  0  0  0  0  0
    3.9830   -0.7310    2.1840 H   0  0  0  0  0  0  0  0  0  0  0  0
    3.3240   -2.6820    1.0150 H   0  0  0  0  0  0  0  0  0  0  0  0
    1.6360   -2.5760    1.4470 H   0  0  0  0  0  0  0  0  0  0  0  0
    2.2900   -2.0000   -0.8700 H   0  0  0  0  0  0  0  0  0  0  0  0
    3.1900    0.2670   -1.2800 H   0  0  0  0  0  0  0  0  0  0  0  0
    3.9080    0.1390    0.2430 H   0  0  0  0  0  0  0  0  0  0  0  0
   -0.1230    3.0510    2.6920 N   0  0  0  0  0  0  0  0  0  0  0  0
   -0.2120    2.5810    1.3490 C   0  0  0  0  0  0  0  0  0  0  0  0
    0.8600    2.4500    0.7420 O   0  0  0  0  0  0  0  0  0  0  0  0
   -1.4950    2.3000    0.7830 C   0  0  0  0  0  0  0  0  0  0  0  0
   -1.7250    1.3380   -0.2940 C   0  0  0  0  0  0  0  0  0  0  0  0
   -1.4880   -0.0900   -0.0670 C   0  0  2  0  0  0  0  0  0  0  0  0
   -0.2590   -0.6750    0.2410 N   0  0  0  0  0  0  0  0  0  0  0  0
   -2.1840   -0.9230   -1.1120 C   0  0  0  0  0  0  0  0  0  0  0  0
   -3.3100   -0.6310   -1.5660 O   0  0  0  0  0  0  0  0  0  0  0  0
    0.7580    3.0400    3.2350 H   0  0  0  0  0  0  0  0  0  0  0  0
   -0.9770    3.4230    3.1470 H   0  0  0  0  0  0  0  0  0  0  0  0
   -2.2760    2.0660    1.6060 H   0  0  0  0  0  0  0  0  0  0  0  0
   -1.9600    3.2950    0.4000 H   0  0  0  0  0  0  0  0  0  0  0  0
   -1.3100    1.6960   -1.2920 H   0  0  0  0  0  0  0  0  0  0  0  0
   -2.8520    1.4120   -0.5240 H   0  0  0  0  0  0  0  0  0  0  0  0
   -2.1780   -0.3040    0.8640 H   0  0  0  0  0  0  0  0  0  0  0  0
   -0.2260   -1.3920    1.0390 H   0  0  0  0  0  0  0  0  0  0  0  0
   -1.5330   -2.0840   -1.5980 N   0  0  0  0  0  0  0  0  0  0  0  0
   -2.0890   -2.9600   -2.5920 C   0  0  1  0  0  0  0  0  0  0  0  0
   -1.2160   -2.8830   -3.8520 C   0  0  0  0  0  0  0  0  0  0  0  0
    0.4490   -3.3970   -3.4260 S   0  0  0  0  0  0  0  0  0  0  0  0
   -2.1610   -4.3640   -2.1550 C   0  0  0  0  0  0  0  0  0  0  0  0
   -1.7700   -4.7450   -1.0140 O   0  0  0  0  0  0  0  0  0  0  0  0
   -2.6790   -5.2970   -3.0350 O   0  0  0  0  0  0  0  0  0  0  0  0
   -0.5860   -2.3310   -1.2170 H   0  0  0  0  0  0  0  0  0  0  0  0
   -3.1010   -2.6220   -2.9250 H   0  0  0  0  0  0  0  0  0  0  0  0
   -1.6650   -3.4820   -4.6550 H   0  0  0  0  0  0  0  0  0  0  0  0
   -1.2320   -1.8280   -4.1990 H   0  0  0  0  0  0  0  0  0  0  0  0
    0.3770   -4.3180   -2.3670 H   0  0  0  0  0  0  0  0  0  0  0  0
  1 12  1  0  0  0  0
  1  2  1  0  0  0  0
  2  3  2  0  0  0  0
  3 14  1  0  0  0  0
  4  2  1  0  0  0  0
  5  4  1  0  0  0  0
  5 16  1  0  0  0  0
  6  5  1  0  0  0  0
  6 18  1  0  0  0  0
  7 21  1  0  0  0  0
  7  6  1  0  0  0  0
  8 22  1  6  0  0  0
  8  7  1  0  0  0  0
  9  8  1  0  0  0  0
  9 24  1  0  0  0  0
 10  8  1  0  0  0  0
 10 31  1  0  0  0  0
 11 10  2  0  0  0  0
 13  1  1  0  0  0  0
 15  4  1  0  0  0  0
 17  5  1  0  0  0  0
 19  6  1  0  0  0  0
 20  7  1  0  0  0  0
 23  9  1  0  0  0  0
 25 35  1  0  0  0  0
 25 34  1  0  0  0  0
 26 25  1  0  0  0  0
 27 26  2  0  0  0  0
 28 26  1  0  0  0  0
 28 36  1  0  0  0  0
 29 30  1  0  0  0  0
 29 28  1  0  0  0  0
 30 31  1  0  0  0  0
 30 40  1  1  0  0  0
 31 41  1  0  0  0  0
 32 30  1  0  0  0  0
 33 32  2  0  0  0  0
 37 28  1  0  0  0  0
 38 29  1  0  0  0  0
 39 29  1  0  0  0  0
 42 49  1  0  0  0  0
 42 32  1  0  0  0  0
 43 50  1  6  0  0  0
 43 46  1  0  0  0  0
 43 42  1  0  0  0  0
 44 45  1  0  0  0  0
 44 43  1  0  0  0  0
 45 53  1  0  0  0  0
 46 47  1  0  0  0  0
 48 46  2  0  0  0  0
 51 44  1  0  0  0  0
 52 44  1  0  0  0  0
M  END
$$$$
