RQD.pdb
 OpenBabel07022418053D

 55 54  0  0  1  0  0  0  0  0999 V2000
   -1.1610   -1.7990    3.9700 N   0  0  0  0  0  0  0  0  0  0  0  0
   -0.0940   -0.9850    4.4220 C   0  0  0  0  0  0  0  0  0  0  0  0
   -0.2120   -0.2580    5.4870 N   0  0  0  0  0  0  0  0  0  0  0  0
    1.1280   -0.9830    3.6730 N   0  0  0  0  0  0  0  0  0  0  0  0
    2.0900    0.0610    4.0110 C   0  0  0  0  0  0  0  0  0  0  0  0
    3.3290    0.0660    3.2540 C   0  0  0  0  0  0  0  0  0  0  0  0
    3.5040    0.3390    1.8410 C   0  0  0  0  0  0  0  0  0  0  0  0
    2.7590   -0.3640    0.7900 C   0  0  2  0  0  0  0  0  0  0  0  0
    3.3060   -0.0120   -0.5670 N   0  0  0  0  0  0  0  0  0  0  0  0
    1.3490    0.2160    0.7060 C   0  0  0  0  0  0  0  0  0  0  0  0
    0.7430    0.8190    1.5810 O   0  0  0  0  0  0  0  0  0  0  0  0
   -1.1600   -2.8290    4.0790 H   0  0  0  0  0  0  0  0  0  0  0  0
   -1.9730   -1.3440    3.5130 H   0  0  0  0  0  0  0  0  0  0  0  0
   -1.1130   -0.2860    6.0050 H   0  0  0  0  0  0  0  0  0  0  0  0
    1.2880   -1.6960    2.9390 H   0  0  0  0  0  0  0  0  0  0  0  0
    2.3520   -0.1830    5.1010 H   0  0  0  0  0  0  0  0  0  0  0  0
    1.5860    1.0520    4.1260 H   0  0  0  0  0  0  0  0  0  0  0  0
    3.8640   -0.9520    3.4470 H   0  0  0  0  0  0  0  0  0  0  0  0
    4.0520    0.8020    3.7990 H   0  0  0  0  0  0  0  0  0  0  0  0
    3.3880    1.4870    1.6980 H   0  0  0  0  0  0  0  0  0  0  0  0
    4.6080    0.2390    1.5580 H   0  0  0  0  0  0  0  0  0  0  0  0
    2.7840   -1.4310    0.8660 H   0  0  0  0  0  0  0  0  0  0  0  0
    4.1970    0.5320   -0.4030 H   0  0  0  0  0  0  0  0  0  0  0  0
    3.5760   -0.8630   -1.0720 H   0  0  0  0  0  0  0  0  0  0  0  0
   -3.9930    3.4710   -0.9630 N   0  0  0  0  0  0  0  0  0  0  0  0
   -2.6790    2.9390   -0.8890 C   0  0  0  0  0  0  0  0  0  0  0  0
   -2.0140    3.1560    0.1450 O   0  0  0  0  0  0  0  0  0  0  0  0
   -2.1560    2.1580   -2.0290 C   0  0  0  0  0  0  0  0  0  0  0  0
   -0.8070    1.5500   -1.8100 C   0  0  0  0  0  0  0  0  0  0  0  0
   -0.7340    0.5850   -0.6740 C   0  0  2  0  0  0  0  0  0  0  0  0
    0.6300    0.0460   -0.5370 N   0  0  0  0  0  0  0  0  0  0  0  0
   -1.5990   -0.6120   -0.8260 C   0  0  0  0  0  0  0  0  0  0  0  0
   -2.8410   -0.4900   -0.9370 O   0  0  0  0  0  0  0  0  0  0  0  0
   -4.5740    3.6000   -0.0920 H   0  0  0  0  0  0  0  0  0  0  0  0
   -4.4410    3.7550   -1.8680 H   0  0  0  0  0  0  0  0  0  0  0  0
   -2.1550    2.7930   -2.9720 H   0  0  0  0  0  0  0  0  0  0  0  0
   -2.9140    1.3590   -2.2830 H   0  0  0  0  0  0  0  0  0  0  0  0
   -0.0890    2.3930   -1.6400 H   0  0  0  0  0  0  0  0  0  0  0  0
   -0.5160    1.0810   -2.7890 H   0  0  0  0  0  0  0  0  0  0  0  0
   -1.0590    1.0790    0.2430 H   0  0  0  0  0  0  0  0  0  0  0  0
    1.1170   -0.4610   -1.2980 H   0  0  0  0  0  0  0  0  0  0  0  0
   -1.0960   -1.9570   -0.8570 N   0  0  0  0  0  0  0  0  0  0  0  0
   -1.9470   -3.1040   -1.0050 C   0  0  1  0  0  0  0  0  0  0  0  0
   -1.6610   -3.7420   -2.3450 C   0  0  0  0  0  0  0  0  0  0  0  0
   -0.2740   -4.1980   -2.5110 C   0  0  0  0  0  0  0  0  0  0  0  0
    0.6040   -4.0860   -1.6230 O   0  0  0  0  0  0  0  0  0  0  0  0
   -1.7890   -4.0930    0.0660 C   0  0  0  0  0  0  0  0  0  0  0  0
   -0.9840   -3.9150    0.9920 O   0  0  0  0  0  0  0  0  0  0  0  0
    0.0920   -4.7850   -3.7110 O   0  0  0  0  0  0  0  0  0  0  0  0
   -2.5620   -5.2430    0.0290 O   0  0  0  0  0  0  0  0  0  0  0  0
   -0.0610   -2.0380   -0.7620 H   0  0  0  0  0  0  0  0  0  0  0  0
   -3.0080   -2.7430   -1.0730 H   0  0  0  0  0  0  0  0  0  0  0  0
   -1.8600   -3.0170   -3.1830 H   0  0  0  0  0  0  0  0  0  0  0  0
   -2.3500   -4.5910   -2.5350 H   0  0  0  0  0  0  0  0  0  0  0  0
    0.8440   -5.4640   -3.8050 H   0  0  0  0  0  0  0  0  0  0  0  0
  1 12  1  0  0  0  0
  1  2  1  0  0  0  0
  2  3  2  0  0  0  0
  3 14  1  0  0  0  0
  4  5  1  0  0  0  0
  4  2  1  0  0  0  0
  5 17  1  0  0  0  0
  5 16  1  0  0  0  0
  6 18  1  0  0  0  0
  6 19  1  0  0  0  0
  6  5  1  0  0  0  0
  7  6  1  0  0  0  0
  8 22  1  1  0  0  0
  8  7  1  0  0  0  0
  9 23  1  0  0  0  0
  9  8  1  0  0  0  0
 10  8  1  0  0  0  0
 10 11  2  0  0  0  0
 13  1  1  0  0  0  0
 15  4  1  0  0  0  0
 20  7  1  0  0  0  0
 21  7  1  0  0  0  0
 24  9  1  0  0  0  0
 25 26  1  0  0  0  0
 25 34  1  0  0  0  0
 26 27  2  0  0  0  0
 28 29  1  0  0  0  0
 28 26  1  0  0  0  0
 29 38  1  0  0  0  0
 29 30  1  0  0  0  0
 30 31  1  0  0  0  0
 30 40  1  1  0  0  0
 31 10  1  0  0  0  0
 32 30  1  0  0  0  0
 33 32  2  0  0  0  0
 35 25  1  0  0  0  0
 36 28  1  0  0  0  0
 37 28  1  0  0  0  0
 39 29  1  0  0  0  0
 41 31  1  0  0  0  0
 42 32  1  0  0  0  0
 42 51  1  0  0  0  0
 43 52  1  1  0  0  0
 43 42  1  0  0  0  0
 43 47  1  0  0  0  0
 44 43  1  0  0  0  0
 45 44  1  0  0  0  0
 45 46  2  0  0  0  0
 47 48  1  0  0  0  0
 49 45  1  0  0  0  0
 50 47  2  0  0  0  0
 53 44  1  0  0  0  0
 54 44  1  0  0  0  0
 55 49  1  0  0  0  0
M  END
$$$$
