RQE.pdb
 OpenBabel07022418053D

 58 57  0  0  1  0  0  0  0  0999 V2000
   -0.8630    1.9690    4.3000 N   0  0  0  0  0  0  0  0  0  0  0  0
    0.5220    1.8720    4.5700 C   0  0  0  0  0  0  0  0  0  0  0  0
    0.9330    2.0560    5.7830 N   0  0  0  0  0  0  0  0  0  0  0  0
    1.4960    1.5730    3.5320 N   0  0  0  0  0  0  0  0  0  0  0  0
    2.6750    0.9160    3.9870 C   0  0  0  0  0  0  0  0  0  0  0  0
    3.7290    0.5680    3.0080 C   0  0  0  0  0  0  0  0  0  0  0  0
    3.4830   -0.3700    1.9180 C   0  0  0  0  0  0  0  0  0  0  0  0
    2.5270   -0.1480    0.8440 C   0  0  2  0  0  0  0  0  0  0  0  0
    2.6900    1.0050    0.0190 N   0  0  0  0  0  0  0  0  0  0  0  0
    1.1150   -0.5060    1.0930 C   0  0  0  0  0  0  0  0  0  0  0  0
    0.7070   -1.0580    2.1390 O   0  0  0  0  0  0  0  0  0  0  0  0
   -1.3010    2.9000    4.2700 H   0  0  0  0  0  0  0  0  0  0  0  0
   -1.4390    1.1080    4.1360 H   0  0  0  0  0  0  0  0  0  0  0  0
    0.2460    2.2690    6.5310 H   0  0  0  0  0  0  0  0  0  0  0  0
    1.2540    1.8680    2.5840 H   0  0  0  0  0  0  0  0  0  0  0  0
    3.1340    1.5870    4.7790 H   0  0  0  0  0  0  0  0  0  0  0  0
    2.3630    0.0140    4.6010 H   0  0  0  0  0  0  0  0  0  0  0  0
    4.6260    0.2140    3.6430 H   0  0  0  0  0  0  0  0  0  0  0  0
    4.1440    1.5660    2.6410 H   0  0  0  0  0  0  0  0  0  0  0  0
    4.5130   -0.5570    1.4180 H   0  0  0  0  0  0  0  0  0  0  0  0
    3.2810   -1.3910    2.4320 H   0  0  0  0  0  0  0  0  0  0  0  0
    2.7940   -1.0090    0.0320 H   0  0  0  0  0  0  0  0  0  0  0  0
    2.5510    1.9160    0.4550 H   0  0  0  0  0  0  0  0  0  0  0  0
    2.3300    0.9340   -0.9350 H   0  0  0  0  0  0  0  0  0  0  0  0
   -0.8770    3.7090    1.6420 N   0  0  0  0  0  0  0  0  0  0  0  0
   -0.9850    2.6020    0.6970 C   0  0  0  0  0  0  0  0  0  0  0  0
   -0.0570    2.5280   -0.1200 O   0  0  0  0  0  0  0  0  0  0  0  0
   -2.1520    1.7430    0.8310 C   0  0  0  0  0  0  0  0  0  0  0  0
   -2.2340    0.5000    0.0520 C   0  0  0  0  0  0  0  0  0  0  0  0
   -1.2470   -0.5610    0.3310 C   0  0  2  0  0  0  0  0  0  0  0  0
    0.1070   -0.2290    0.0970 N   0  0  0  0  0  0  0  0  0  0  0  0
   -1.6230   -1.8250   -0.4340 C   0  0  0  0  0  0  0  0  0  0  0  0
   -2.8030   -2.2050   -0.2930 O   0  0  0  0  0  0  0  0  0  0  0  0
    0.0340    3.8510    2.0810 H   0  0  0  0  0  0  0  0  0  0  0  0
   -1.7320    4.2690    1.7960 H   0  0  0  0  0  0  0  0  0  0  0  0
   -3.0860    2.3960    0.6610 H   0  0  0  0  0  0  0  0  0  0  0  0
   -2.2830    1.5200    1.9500 H   0  0  0  0  0  0  0  0  0  0  0  0
   -2.2500    0.7420   -1.0710 H   0  0  0  0  0  0  0  0  0  0  0  0
   -3.2580    0.0480    0.2720 H   0  0  0  0  0  0  0  0  0  0  0  0
   -1.3790   -0.8180    1.4440 H   0  0  0  0  0  0  0  0  0  0  0  0
    0.4510    0.1800   -0.7980 H   0  0  0  0  0  0  0  0  0  0  0  0
   -0.7120   -2.5250   -1.2470 N   0  0  0  0  0  0  0  0  0  0  0  0
   -1.0990   -3.7470   -1.9750 C   0  0  1  0  0  0  0  0  0  0  0  0
   -0.9300   -3.5560   -3.4420 C   0  0  0  0  0  0  0  0  0  0  0  0
   -1.3150   -4.7730   -4.2110 C   0  0  0  0  0  0  0  0  0  0  0  0
   -2.7190   -5.2010   -4.0600 C   0  0  0  0  0  0  0  0  0  0  0  0
   -3.5870   -4.5950   -3.3890 O   0  0  0  0  0  0  0  0  0  0  0  0
   -0.3000   -4.8580   -1.4160 C   0  0  0  0  0  0  0  0  0  0  0  0
   -0.4600   -6.0280   -1.8190 O   0  0  0  0  0  0  0  0  0  0  0  0
   -3.1870   -6.3730   -4.6950 O   0  0  0  0  0  0  0  0  0  0  0  0
    0.6360   -4.5850   -0.4300 O   0  0  0  0  0  0  0  0  0  0  0  0
    0.2590   -2.1590   -1.3260 H   0  0  0  0  0  0  0  0  0  0  0  0
   -2.1570   -3.9910   -1.7600 H   0  0  0  0  0  0  0  0  0  0  0  0
    0.1260   -3.2810   -3.6880 H   0  0  0  0  0  0  0  0  0  0  0  0
   -1.6020   -2.7190   -3.7480 H   0  0  0  0  0  0  0  0  0  0  0  0
   -1.1730   -4.5510   -5.3300 H   0  0  0  0  0  0  0  0  0  0  0  0
   -0.6670   -5.6600   -4.0430 H   0  0  0  0  0  0  0  0  0  0  0  0
   -3.9200   -6.9020   -4.2040 H   0  0  0  0  0  0  0  0  0  0  0  0
  1  2  1  0  0  0  0
  2  3  2  0  0  0  0
  3 14  1  0  0  0  0
  4  5  1  0  0  0  0
  4  2  1  0  0  0  0
  5 17  1  0  0  0  0
  5 16  1  0  0  0  0
  6 18  1  0  0  0  0
  6  5  1  0  0  0  0
  7 21  1  0  0  0  0
  7  6  1  0  0  0  0
  8 22  1  6  0  0  0
  8 10  1  0  0  0  0
  8  7  1  0  0  0  0
  9 23  1  0  0  0  0
  9  8  1  0  0  0  0
 10 11  2  0  0  0  0
 12  1  1  0  0  0  0
 13  1  1  0  0  0  0
 15  4  1  0  0  0  0
 19  6  1  0  0  0  0
 20  7  1  0  0  0  0
 24  9  1  0  0  0  0
 25 35  1  0  0  0  0
 25 34  1  0  0  0  0
 26 28  1  0  0  0  0
 26 25  1  0  0  0  0
 27 26  2  0  0  0  0
 28 37  1  0  0  0  0
 29 39  1  0  0  0  0
 29 30  1  0  0  0  0
 29 28  1  0  0  0  0
 30 40  1  1  0  0  0
 31 30  1  0  0  0  0
 31 10  1  0  0  0  0
 32 33  2  0  0  0  0
 32 30  1  0  0  0  0
 36 28  1  0  0  0  0
 38 29  1  0  0  0  0
 41 31  1  0  0  0  0
 42 32  1  0  0  0  0
 43 53  1  1  0  0  0
 43 48  1  0  0  0  0
 43 42  1  0  0  0  0
 44 43  1  0  0  0  0
 45 46  1  0  0  0  0
 45 57  1  0  0  0  0
 45 44  1  0  0  0  0
 46 47  2  0  0  0  0
 48 51  1  0  0  0  0
 49 48  2  0  0  0  0
 50 58  1  0  0  0  0
 50 46  1  0  0  0  0
 52 42  1  0  0  0  0
 54 44  1  0  0  0  0
 55 44  1  0  0  0  0
 56 45  1  0  0  0  0
M  END
$$$$
