RQF.pdb
 OpenBabel07022418053D

 62 62  0  0  1  0  0  0  0  0999 V2000
    4.6120    1.3140    5.8870 N   0  0  0  0  0  0  0  0  0  0  0  0
    5.1540    0.6960    4.7110 C   0  0  0  0  0  0  0  0  0  0  0  0
    5.9790   -0.2790    4.8380 N   0  0  0  0  0  0  0  0  0  0  0  0
    4.7890    1.1510    3.4220 N   0  0  0  0  0  0  0  0  0  0  0  0
    5.4410    0.6260    2.2440 C   0  0  0  0  0  0  0  0  0  0  0  0
    4.9170    1.2350    0.9640 C   0  0  0  0  0  0  0  0  0  0  0  0
    3.4380    0.9550    0.8240 C   0  0  0  0  0  0  0  0  0  0  0  0
    2.8660    1.5330   -0.4350 C   0  0  2  0  0  0  0  0  0  0  0  0
    3.0580    2.9630   -0.4180 N   0  0  0  0  0  0  0  0  0  0  0  0
    1.3840    1.2690   -0.5150 C   0  0  0  0  0  0  0  0  0  0  0  0
    0.5950    2.2100   -0.5970 O   0  0  0  0  0  0  0  0  0  0  0  0
    4.9570    1.0490    6.8200 H   0  0  0  0  0  0  0  0  0  0  0  0
    3.8640    2.0360    5.7770 H   0  0  0  0  0  0  0  0  0  0  0  0
    6.3750   -0.7320    3.9900 H   0  0  0  0  0  0  0  0  0  0  0  0
    4.0260    1.8820    3.3740 H   0  0  0  0  0  0  0  0  0  0  0  0
    6.5320    0.8430    2.3610 H   0  0  0  0  0  0  0  0  0  0  0  0
    5.3710   -0.4870    2.2300 H   0  0  0  0  0  0  0  0  0  0  0  0
    5.1400    2.3140    0.9910 H   0  0  0  0  0  0  0  0  0  0  0  0
    5.4340    0.7120    0.1330 H   0  0  0  0  0  0  0  0  0  0  0  0
    3.3000   -0.1560    0.8680 H   0  0  0  0  0  0  0  0  0  0  0  0
    2.9480    1.3890    1.7190 H   0  0  0  0  0  0  0  0  0  0  0  0
    3.3500    1.1330   -1.3440 H   0  0  0  0  0  0  0  0  0  0  0  0
    3.6540    3.2470   -1.2050 H   0  0  0  0  0  0  0  0  0  0  0  0
    3.4220    3.2790    0.4920 H   0  0  0  0  0  0  0  0  0  0  0  0
   -2.9630    2.7480    2.2610 N   0  0  0  0  0  0  0  0  0  0  0  0
   -2.7820    2.0520    1.0400 C   0  0  0  0  0  0  0  0  0  0  0  0
   -3.5240    2.2400    0.0660 O   0  0  0  0  0  0  0  0  0  0  0  0
   -1.6360    1.0730    1.0020 C   0  0  0  0  0  0  0  0  0  0  0  0
   -1.5780    0.4240   -0.3610 C   0  0  0  0  0  0  0  0  0  0  0  0
   -0.4520   -0.5330   -0.5400 C   0  0  2  0  0  0  0  0  0  0  0  0
    0.8790   -0.0440   -0.4990 N   0  0  0  0  0  0  0  0  0  0  0  0
   -0.6620   -1.6260   -1.4960 C   0  0  0  0  0  0  0  0  0  0  0  0
    0.2650   -2.0250   -2.2810 O   0  0  0  0  0  0  0  0  0  0  0  0
   -3.6120    2.4210    3.0040 H   0  0  0  0  0  0  0  0  0  0  0  0
   -2.4170    3.6210    2.4040 H   0  0  0  0  0  0  0  0  0  0  0  0
   -0.7170    1.4630    1.3560 H   0  0  0  0  0  0  0  0  0  0  0  0
   -1.9620    0.3070    1.7790 H   0  0  0  0  0  0  0  0  0  0  0  0
   -2.5520   -0.0600   -0.6160 H   0  0  0  0  0  0  0  0  0  0  0  0
   -1.4330    1.2980   -1.0730 H   0  0  0  0  0  0  0  0  0  0  0  0
   -0.5080   -1.0610    0.5230 H   0  0  0  0  0  0  0  0  0  0  0  0
    1.6560   -0.8040   -0.4450 H   0  0  0  0  0  0  0  0  0  0  0  0
   -1.9140   -2.2720   -1.5670 N   0  0  0  0  0  0  0  0  0  0  0  0
   -2.2110   -3.3480   -2.4710 C   0  0  1  0  0  0  0  0  0  0  0  0
   -2.6970   -4.5910   -1.8160 C   0  0  0  0  0  0  0  0  0  0  0  0
   -3.9240   -4.4610   -1.0410 C   0  0  0  0  0  0  0  0  0  0  0  0
   -3.8190   -4.1300    0.3000 C   0  0  0  0  0  0  0  0  0  0  0  0
   -4.8960   -3.9790    1.1300 C   0  0  0  0  0  0  0  0  0  0  0  0
   -6.1530   -4.1600    0.6340 C   0  0  0  0  0  0  0  0  0  0  0  0
   -6.2880   -4.4950   -0.7180 C   0  0  0  0  0  0  0  0  0  0  0  0
   -5.1920   -4.6400   -1.5270 C   0  0  0  0  0  0  0  0  0  0  0  0
   -3.2360   -2.8800   -3.4340 C   0  0  0  0  0  0  0  0  0  0  0  0
   -3.6930   -3.6130   -4.3540 O   0  0  0  0  0  0  0  0  0  0  0  0
   -3.7370   -1.5910   -3.3560 O   0  0  0  0  0  0  0  0  0  0  0  0
   -2.6720   -1.9720   -0.9330 H   0  0  0  0  0  0  0  0  0  0  0  0
   -1.3100   -3.5840   -3.0670 H   0  0  0  0  0  0  0  0  0  0  0  0
   -2.8720   -5.3510   -2.6070 H   0  0  0  0  0  0  0  0  0  0  0  0
   -1.8850   -4.9980   -1.1860 H   0  0  0  0  0  0  0  0  0  0  0  0
   -2.8160   -3.9770    0.7310 H   0  0  0  0  0  0  0  0  0  0  0  0
   -4.7090   -3.7150    2.1770 H   0  0  0  0  0  0  0  0  0  0  0  0
   -7.0190   -4.0440    1.2790 H   0  0  0  0  0  0  0  0  0  0  0  0
   -7.3070   -4.6270   -1.0570 H   0  0  0  0  0  0  0  0  0  0  0  0
   -5.3270   -4.8990   -2.5570 H   0  0  0  0  0  0  0  0  0  0  0  0
  1 12  1  0  0  0  0
  2  3  2  0  0  0  0
  2  1  1  0  0  0  0
  4  2  1  0  0  0  0
  5 16  1  0  0  0  0
  5  4  1  0  0  0  0
  6 18  1  0  0  0  0
  6  5  1  0  0  0  0
  7 20  1  0  0  0  0
  7  6  1  0  0  0  0
  7 21  1  0  0  0  0
  8 22  1  6  0  0  0
  8  9  1  0  0  0  0
  8  7  1  0  0  0  0
  9 24  1  0  0  0  0
 10 31  1  0  0  0  0
 10  8  1  0  0  0  0
 11 10  2  0  0  0  0
 13  1  1  0  0  0  0
 14  3  1  0  0  0  0
 15  4  1  0  0  0  0
 17  5  1  0  0  0  0
 19  6  1  0  0  0  0
 23  9  1  0  0  0  0
 25 35  1  0  0  0  0
 25 34  1  0  0  0  0
 26 25  1  0  0  0  0
 27 26  2  0  0  0  0
 28 26  1  0  0  0  0
 28 36  1  0  0  0  0
 28 37  1  0  0  0  0
 29 28  1  0  0  0  0
 30 31  1  0  0  0  0
 30 29  1  0  0  0  0
 30 40  1  1  0  0  0
 31 41  1  0  0  0  0
 32 30  1  0  0  0  0
 33 32  2  0  0  0  0
 38 29  1  0  0  0  0
 39 29  1  0  0  0  0
 42 32  1  0  0  0  0
 42 54  1  0  0  0  0
 43 55  1  6  0  0  0
 43 44  1  0  0  0  0
 43 42  1  0  0  0  0
 44 57  1  0  0  0  0
 44 45  1  0  0  0  0
 45 46  1  0  0  0  0
 46 58  1  0  0  0  0
 46 47  2  0  0  0  0
 47 59  1  0  0  0  0
 48 47  1  0  0  0  0
 48 60  1  0  0  0  0
 49 48  2  0  0  0  0
 50 45  2  0  0  0  0
 50 49  1  0  0  0  0
 51 53  1  0  0  0  0
 51 43  1  0  0  0  0
 52 51  2  0  0  0  0
 56 44  1  0  0  0  0
 61 49  1  0  0  0  0
 62 50  1  0  0  0  0
M  END
$$$$
