RQG.pdb
 OpenBabel07022418053D

 49 48  0  0  1  0  0  0  0  0999 V2000
   -1.8720   -5.7580    2.1420 N   0  0  0  0  0  0  0  0  0  0  0  0
   -0.5840   -5.3840    2.6010 C   0  0  0  0  0  0  0  0  0  0  0  0
    0.1030   -6.1540    3.4040 N   0  0  0  0  0  0  0  0  0  0  0  0
   -0.0200   -4.1570    2.1910 N   0  0  0  0  0  0  0  0  0  0  0  0
    1.3740   -3.8430    2.2920 C   0  0  0  0  0  0  0  0  0  0  0  0
    1.6940   -2.4540    1.7840 C   0  0  0  0  0  0  0  0  0  0  0  0
    0.9250   -1.4720    2.6090 C   0  0  0  0  0  0  0  0  0  0  0  0
    1.1410   -0.0280    2.2210 C   0  0  2  0  0  0  0  0  0  0  0  0
    0.3250    0.7590    3.1220 N   0  0  0  0  0  0  0  0  0  0  0  0
    0.7900    0.2900    0.8430 C   0  0  0  0  0  0  0  0  0  0  0  0
    1.3290   -0.2170   -0.1710 O   0  0  0  0  0  0  0  0  0  0  0  0
   -2.7140   -5.1990    2.3600 H   0  0  0  0  0  0  0  0  0  0  0  0
   -1.9660   -6.6200    1.5690 H   0  0  0  0  0  0  0  0  0  0  0  0
    1.0460   -5.8660    3.7330 H   0  0  0  0  0  0  0  0  0  0  0  0
   -0.6670   -3.4450    1.7910 H   0  0  0  0  0  0  0  0  0  0  0  0
    1.9440   -4.5840    1.6590 H   0  0  0  0  0  0  0  0  0  0  0  0
    1.7050   -3.9760    3.3240 H   0  0  0  0  0  0  0  0  0  0  0  0
    1.5500   -2.3630    0.6980 H   0  0  0  0  0  0  0  0  0  0  0  0
    2.8070   -2.3370    1.9420 H   0  0  0  0  0  0  0  0  0  0  0  0
    1.3290   -1.5610    3.6610 H   0  0  0  0  0  0  0  0  0  0  0  0
   -0.1440   -1.7040    2.6930 H   0  0  0  0  0  0  0  0  0  0  0  0
    2.2020    0.2340    2.4770 H   0  0  0  0  0  0  0  0  0  0  0  0
   -0.6210    0.3380    3.2810 H   0  0  0  0  0  0  0  0  0  0  0  0
    0.8090    1.0200    4.0000 H   0  0  0  0  0  0  0  0  0  0  0  0
    0.5550    5.3840    1.1040 N   0  0  0  0  0  0  0  0  0  0  0  0
    0.7940    4.1170    0.4390 C   0  0  0  0  0  0  0  0  0  0  0  0
    1.4860    3.2980    1.0740 O   0  0  0  0  0  0  0  0  0  0  0  0
    0.2000    3.9590   -0.8880 C   0  0  0  0  0  0  0  0  0  0  0  0
    0.1520    2.5970   -1.4730 C   0  0  0  0  0  0  0  0  0  0  0  0
   -0.6530    1.5930   -0.7350 C   0  0  2  0  0  0  0  0  0  0  0  0
   -0.2530    1.2580    0.5950 N   0  0  0  0  0  0  0  0  0  0  0  0
   -0.9890    0.3720   -1.5510 C   0  0  0  0  0  0  0  0  0  0  0  0
   -1.1120    0.5020   -2.7940 O   0  0  0  0  0  0  0  0  0  0  0  0
   -0.0030    5.4090    1.9600 H   0  0  0  0  0  0  0  0  0  0  0  0
    0.9560    6.2500    0.6980 H   0  0  0  0  0  0  0  0  0  0  0  0
   -0.8370    4.4340   -0.8740 H   0  0  0  0  0  0  0  0  0  0  0  0
    0.7730    4.6750   -1.5600 H   0  0  0  0  0  0  0  0  0  0  0  0
    1.2070    2.1830   -1.5870 H   0  0  0  0  0  0  0  0  0  0  0  0
   -0.2080    2.7200   -2.5340 H   0  0  0  0  0  0  0  0  0  0  0  0
   -1.7450    2.0210   -0.6030 H   0  0  0  0  0  0  0  0  0  0  0  0
   -0.7090    1.7060    1.4470 H   0  0  0  0  0  0  0  0  0  0  0  0
   -1.1780   -0.9070   -0.9850 N   0  0  0  0  0  0  0  0  0  0  0  0
   -1.4970   -2.0150   -1.8700 C   0  0  0  0  0  0  0  0  0  0  0  0
   -0.4590   -2.2460   -2.8770 C   0  0  0  0  0  0  0  0  0  0  0  0
   -0.5180   -3.1590   -3.7430 O   0  0  0  0  0  0  0  0  0  0  0  0
    0.6650   -1.4400   -2.9150 O   0  0  0  0  0  0  0  0  0  0  0  0
   -1.1140   -1.0540    0.0650 H   0  0  0  0  0  0  0  0  0  0  0  0
   -2.4690   -1.7410   -2.3750 H   0  0  0  0  0  0  0  0  0  0  0  0
   -1.7350   -2.9320   -1.2850 H   0  0  0  0  0  0  0  0  0  0  0  0
  1 12  1  0  0  0  0
  1  2  1  0  0  0  0
  2  3  2  0  0  0  0
  3 14  1  0  0  0  0
  4  5  1  0  0  0  0
  4  2  1  0  0  0  0
  5 17  1  0  0  0  0
  6 19  1  0  0  0  0
  6  5  1  0  0  0  0
  6  7  1  0  0  0  0
  7 21  1  0  0  0  0
  7 20  1  0  0  0  0
  8 22  1  1  0  0  0
  8  7  1  0  0  0  0
  8  9  1  0  0  0  0
  9 23  1  0  0  0  0
  9 24  1  0  0  0  0
 10  8  1  0  0  0  0
 11 10  2  0  0  0  0
 13  1  1  0  0  0  0
 15  4  1  0  0  0  0
 16  5  1  0  0  0  0
 18  6  1  0  0  0  0
 25 34  1  0  0  0  0
 26 27  2  0  0  0  0
 26 25  1  0  0  0  0
 28 36  1  0  0  0  0
 28 26  1  0  0  0  0
 29 28  1  0  0  0  0
 29 30  1  0  0  0  0
 30 40  1  1  0  0  0
 30 31  1  0  0  0  0
 31 10  1  0  0  0  0
 31 41  1  0  0  0  0
 32 42  1  0  0  0  0
 32 30  1  0  0  0  0
 33 32  2  0  0  0  0
 35 25  1  0  0  0  0
 37 28  1  0  0  0  0
 38 29  1  0  0  0  0
 39 29  1  0  0  0  0
 42 47  1  0  0  0  0
 43 49  1  0  0  0  0
 43 42  1  0  0  0  0
 44 43  1  0  0  0  0
 45 44  2  0  0  0  0
 46 44  1  0  0  0  0
 48 43  1  0  0  0  0
M  END
$$$$
