RQK.pdb
 OpenBabel07022418053D

 63 62  0  0  1  0  0  0  0  0999 V2000
   -1.1880   -3.7080    3.5670 N   0  0  0  0  0  0  0  0  0  0  0  0
    0.1500   -3.3730    3.8970 C   0  0  0  0  0  0  0  0  0  0  0  0
    0.8040   -3.8880    4.8770 N   0  0  0  0  0  0  0  0  0  0  0  0
    0.8390   -2.3940    3.0970 N   0  0  0  0  0  0  0  0  0  0  0  0
    1.8980   -1.6400    3.6870 C   0  0  0  0  0  0  0  0  0  0  0  0
    2.5080   -0.6610    2.7230 C   0  0  0  0  0  0  0  0  0  0  0  0
    3.0520   -1.3930    1.5360 C   0  0  0  0  0  0  0  0  0  0  0  0
    3.7280   -0.4660    0.5600 C   0  0  2  0  0  0  0  0  0  0  0  0
    4.8180    0.1640    1.3060 N   0  0  0  0  0  0  0  0  0  0  0  0
    2.8030    0.5600    0.0900 C   0  0  0  0  0  0  0  0  0  0  0  0
    3.0000    1.7580    0.4770 O   0  0  0  0  0  0  0  0  0  0  0  0
   -1.9510   -3.0310    3.7270 H   0  0  0  0  0  0  0  0  0  0  0  0
   -1.4020   -4.6640    3.1540 H   0  0  0  0  0  0  0  0  0  0  0  0
    0.4200   -4.6000    5.5240 H   0  0  0  0  0  0  0  0  0  0  0  0
    0.5450   -2.2690    2.1080 H   0  0  0  0  0  0  0  0  0  0  0  0
    1.5690   -1.1160    4.6130 H   0  0  0  0  0  0  0  0  0  0  0  0
    2.7130   -2.3670    3.9510 H   0  0  0  0  0  0  0  0  0  0  0  0
    3.3640   -0.1380    3.2320 H   0  0  0  0  0  0  0  0  0  0  0  0
    1.7830    0.1390    2.4240 H   0  0  0  0  0  0  0  0  0  0  0  0
    3.7430   -2.1780    1.9110 H   0  0  0  0  0  0  0  0  0  0  0  0
    2.2240   -1.9530    1.0380 H   0  0  0  0  0  0  0  0  0  0  0  0
    4.2270   -1.0190   -0.2630 H   0  0  0  0  0  0  0  0  0  0  0  0
    5.6090    0.3840    0.6610 H   0  0  0  0  0  0  0  0  0  0  0  0
    4.5000    1.1060    1.6770 H   0  0  0  0  0  0  0  0  0  0  0  0
   -0.2390    5.3980   -2.5140 N   0  0  0  0  0  0  0  0  0  0  0  0
    0.5670    4.2390   -2.3910 C   0  0  0  0  0  0  0  0  0  0  0  0
    1.5850    4.3320   -1.6740 O   0  0  0  0  0  0  0  0  0  0  0  0
    0.2420    2.9620   -3.0720 C   0  0  0  0  0  0  0  0  0  0  0  0
    1.0550    1.7960   -2.6200 C   0  0  0  0  0  0  0  0  0  0  0  0
    0.8750    1.5110   -1.1580 C   0  0  2  0  0  0  0  0  0  0  0  0
    1.6990    0.3740   -0.7620 N   0  0  0  0  0  0  0  0  0  0  0  0
   -0.5530    1.1780   -0.9190 C   0  0  0  0  0  0  0  0  0  0  0  0
   -1.4760    2.0310   -1.1080 O   0  0  0  0  0  0  0  0  0  0  0  0
   -0.4200    5.7830   -3.4500 H   0  0  0  0  0  0  0  0  0  0  0  0
   -0.6400    5.8530   -1.6800 H   0  0  0  0  0  0  0  0  0  0  0  0
    0.5270    3.1810   -4.1790 H   0  0  0  0  0  0  0  0  0  0  0  0
   -0.8500    2.8350   -3.0460 H   0  0  0  0  0  0  0  0  0  0  0  0
    0.8360    0.8760   -3.2370 H   0  0  0  0  0  0  0  0  0  0  0  0
    2.1120    2.0380   -2.8790 H   0  0  0  0  0  0  0  0  0  0  0  0
    1.2000    2.4050   -0.5920 H   0  0  0  0  0  0  0  0  0  0  0  0
    1.4680   -0.5630   -1.1130 H   0  0  0  0  0  0  0  0  0  0  0  0
   -0.9860   -0.0940   -0.4720 N   0  0  0  0  0  0  0  0  0  0  0  0
   -2.4310   -0.3260   -0.2760 C   0  0  1  0  0  0  0  0  0  0  0  0
   -2.9060   -1.3830   -1.2220 C   0  0  0  0  0  0  0  0  0  0  0  0
   -2.2750   -2.7130   -1.1210 C   0  0  0  0  0  0  0  0  0  0  0  0
   -2.4980   -3.5270    0.0940 C   0  0  0  0  0  0  0  0  0  0  0  0
   -3.8820   -4.0230    0.3180 C   0  0  0  0  0  0  0  0  0  0  0  0
   -4.9200   -3.0490    0.4090 N   0  0  0  0  0  0  0  0  0  0  0  0
   -2.6590   -0.5090    1.1480 C   0  0  0  0  0  0  0  0  0  0  0  0
   -3.7760   -0.6290    1.7090 O   0  0  0  0  0  0  0  0  0  0  0  0
   -1.5680   -0.5640    2.0330 O   0  0  0  0  0  0  0  0  0  0  0  0
   -0.3390   -0.8780   -0.2710 H   0  0  0  0  0  0  0  0  0  0  0  0
   -3.0020    0.6080   -0.5870 H   0  0  0  0  0  0  0  0  0  0  0  0
   -2.7460   -1.0050   -2.2690 H   0  0  0  0  0  0  0  0  0  0  0  0
   -4.0160   -1.5200   -1.1670 H   0  0  0  0  0  0  0  0  0  0  0  0
   -1.1790   -2.6920   -1.3420 H   0  0  0  0  0  0  0  0  0  0  0  0
   -2.6990   -3.3240   -1.9820 H   0  0  0  0  0  0  0  0  0  0  0  0
   -2.1260   -3.0570    1.0300 H   0  0  0  0  0  0  0  0  0  0  0  0
   -1.8510   -4.4490   -0.0150 H   0  0  0  0  0  0  0  0  0  0  0  0
   -4.1810   -4.8250   -0.3980 H   0  0  0  0  0  0  0  0  0  0  0  0
   -3.8740   -4.5590    1.3190 H   0  0  0  0  0  0  0  0  0  0  0  0
   -5.3090   -2.9280    1.3490 H   0  0  0  0  0  0  0  0  0  0  0  0
   -5.5960   -3.1590   -0.3530 H   0  0  0  0  0  0  0  0  0  0  0  0
  1 12  1  0  0  0  0
  1  2  1  0  0  0  0
  2  3  2  0  0  0  0
  3 14  1  0  0  0  0
  4  5  1  0  0  0  0
  4  2  1  0  0  0  0
  5 17  1  0  0  0  0
  5 16  1  0  0  0  0
  6 18  1  0  0  0  0
  6  5  1  0  0  0  0
  7 20  1  0  0  0  0
  7  6  1  0  0  0  0
  8 22  1  6  0  0  0
  8  9  1  0  0  0  0
  8  7  1  0  0  0  0
  9 24  1  0  0  0  0
 10 11  2  0  0  0  0
 10  8  1  0  0  0  0
 13  1  1  0  0  0  0
 15  4  1  0  0  0  0
 19  6  1  0  0  0  0
 21  7  1  0  0  0  0
 23  9  1  0  0  0  0
 25 26  1  0  0  0  0
 25 35  1  0  0  0  0
 26 27  2  0  0  0  0
 28 37  1  0  0  0  0
 28 29  1  0  0  0  0
 28 26  1  0  0  0  0
 29 30  1  0  0  0  0
 30 32  1  0  0  0  0
 30 31  1  0  0  0  0
 30 40  1  1  0  0  0
 31 10  1  0  0  0  0
 32 42  1  0  0  0  0
 33 32  2  0  0  0  0
 34 25  1  0  0  0  0
 36 28  1  0  0  0  0
 38 29  1  0  0  0  0
 39 29  1  0  0  0  0
 41 31  1  0  0  0  0
 42 43  1  0  0  0  0
 42 52  1  0  0  0  0
 43 53  1  6  0  0  0
 43 49  1  0  0  0  0
 44 55  1  0  0  0  0
 44 45  1  0  0  0  0
 44 43  1  0  0  0  0
 45 46  1  0  0  0  0
 46 47  1  0  0  0  0
 46 58  1  0  0  0  0
 47 48  1  0  0  0  0
 47 61  1  0  0  0  0
 48 62  1  0  0  0  0
 49 50  2  0  0  0  0
 49 51  1  0  0  0  0
 54 44  1  0  0  0  0
 56 45  1  0  0  0  0
 57 45  1  0  0  0  0
 59 46  1  0  0  0  0
 60 47  1  0  0  0  0
 63 48  1  0  0  0  0
M  END
$$$$
