RQM.pdb
 OpenBabel07022418053D

 59 58  0  0  1  0  0  0  0  0999 V2000
    1.5840   -3.4180    3.7450 N   0  0  0  0  0  0  0  0  0  0  0  0
    2.6100   -2.5710    3.2450 C   0  0  0  0  0  0  0  0  0  0  0  0
    3.7320   -3.0690    2.8380 N   0  0  0  0  0  0  0  0  0  0  0  0
    2.3600   -1.1610    3.2090 N   0  0  0  0  0  0  0  0  0  0  0  0
    3.4480   -0.2480    3.2670 C   0  0  0  0  0  0  0  0  0  0  0  0
    4.3920   -0.1730    2.1700 C   0  0  0  0  0  0  0  0  0  0  0  0
    4.1320    0.2790    0.8010 C   0  0  0  0  0  0  0  0  0  0  0  0
    3.0630   -0.2930   -0.0320 C   0  0  2  0  0  0  0  0  0  0  0  0
    3.1850    0.2240   -1.4460 N   0  0  0  0  0  0  0  0  0  0  0  0
    1.7340    0.3370    0.3900 C   0  0  0  0  0  0  0  0  0  0  0  0
    1.5480    1.0300    1.3830 O   0  0  0  0  0  0  0  0  0  0  0  0
    1.7440   -4.4650    3.7850 H   0  0  0  0  0  0  0  0  0  0  0  0
    0.6770   -3.0570    4.0780 H   0  0  0  0  0  0  0  0  0  0  0  0
    3.8700   -4.0980    2.8820 H   0  0  0  0  0  0  0  0  0  0  0  0
    1.3780   -0.8670    3.1600 H   0  0  0  0  0  0  0  0  0  0  0  0
    4.0650   -0.5190    4.2090 H   0  0  0  0  0  0  0  0  0  0  0  0
    3.1030    0.7950    3.5270 H   0  0  0  0  0  0  0  0  0  0  0  0
    5.0550   -1.1360    2.1400 H   0  0  0  0  0  0  0  0  0  0  0  0
    5.2290    0.5540    2.5480 H   0  0  0  0  0  0  0  0  0  0  0  0
    4.0400    1.4290    0.8070 H   0  0  0  0  0  0  0  0  0  0  0  0
    5.0930    0.1670    0.1590 H   0  0  0  0  0  0  0  0  0  0  0  0
    3.0510   -1.3620   -0.0530 H   0  0  0  0  0  0  0  0  0  0  0  0
    4.2130    0.3630   -1.5560 H   0  0  0  0  0  0  0  0  0  0  0  0
    2.7880   -0.5060   -2.0630 H   0  0  0  0  0  0  0  0  0  0  0  0
   -3.7260    3.6830    0.8810 N   0  0  0  0  0  0  0  0  0  0  0  0
   -2.4870    3.1400    0.4630 C   0  0  0  0  0  0  0  0  0  0  0  0
   -1.4840    3.2850    1.1810 O   0  0  0  0  0  0  0  0  0  0  0  0
   -2.4040    2.4140   -0.8120 C   0  0  0  0  0  0  0  0  0  0  0  0
   -1.1020    1.7390   -1.0830 C   0  0  0  0  0  0  0  0  0  0  0  0
   -0.7050    0.6910   -0.0820 C   0  0  2  0  0  0  0  0  0  0  0  0
    0.5850    0.1050   -0.4490 N   0  0  0  0  0  0  0  0  0  0  0  0
   -1.6630   -0.4150    0.0640 C   0  0  0  0  0  0  0  0  0  0  0  0
   -2.8490   -0.2120    0.4070 O   0  0  0  0  0  0  0  0  0  0  0  0
   -4.1440    3.4920    1.8380 H   0  0  0  0  0  0  0  0  0  0  0  0
   -4.3050    4.3070    0.2660 H   0  0  0  0  0  0  0  0  0  0  0  0
   -3.2360    1.6500   -0.8240 H   0  0  0  0  0  0  0  0  0  0  0  0
   -2.6170    3.1830   -1.6150 H   0  0  0  0  0  0  0  0  0  0  0  0
   -0.2690    2.5010   -1.1190 H   0  0  0  0  0  0  0  0  0  0  0  0
   -1.1150    1.3020   -2.1230 H   0  0  0  0  0  0  0  0  0  0  0  0
   -0.6330    1.1950    0.9050 H   0  0  0  0  0  0  0  0  0  0  0  0
    0.6920   -0.4720   -1.3040 H   0  0  0  0  0  0  0  0  0  0  0  0
   -4.2330   -1.2080   -2.3250 C   0  0  0  0  0  0  0  0  0  0  0  0
   -3.8510   -2.8280   -2.9700 S   0  0  0  0  0  0  0  0  0  0  0  0
   -2.2770   -3.4980   -2.4900 C   0  0  0  0  0  0  0  0  0  0  0  0
   -2.1160   -3.8800   -1.0580 C   0  0  0  0  0  0  0  0  0  0  0  0
   -2.2370   -2.8130   -0.0410 C   0  0  2  0  0  0  0  0  0  0  0  0
   -1.2600   -1.7430   -0.1850 N   0  0  0  0  0  0  0  0  0  0  0  0
   -2.0730   -3.4410    1.3320 C   0  0  0  0  0  0  0  0  0  0  0  0
   -1.1920   -2.9820    2.0800 O   0  0  0  0  0  0  0  0  0  0  0  0
   -2.8730   -4.4910    1.7430 O   0  0  0  0  0  0  0  0  0  0  0  0
   -4.7510   -1.1780   -1.3670 H   0  0  0  0  0  0  0  0  0  0  0  0
   -3.3300   -0.5420   -2.2710 H   0  0  0  0  0  0  0  0  0  0  0  0
   -4.8750   -0.6960   -3.0960 H   0  0  0  0  0  0  0  0  0  0  0  0
   -2.0540   -4.3790   -3.1660 H   0  0  0  0  0  0  0  0  0  0  0  0
   -1.4800   -2.7540   -2.7990 H   0  0  0  0  0  0  0  0  0  0  0  0
   -2.9170   -4.6650   -0.8630 H   0  0  0  0  0  0  0  0  0  0  0  0
   -1.1500   -4.4660   -0.9360 H   0  0  0  0  0  0  0  0  0  0  0  0
   -3.2440   -2.3880   -0.0210 H   0  0  0  0  0  0  0  0  0  0  0  0
   -0.2900   -2.0280   -0.4700 H   0  0  0  0  0  0  0  0  0  0  0  0
  1 12  1  0  0  0  0
  1 13  1  0  0  0  0
  2  1  1  0  0  0  0
  3 14  1  0  0  0  0
  3  2  2  0  0  0  0
  4  2  1  0  0  0  0
  4  5  1  0  0  0  0
  5 17  1  0  0  0  0
  5 16  1  0  0  0  0
  6 19  1  0  0  0  0
  6  5  1  0  0  0  0
  7 20  1  0  0  0  0
  7  6  1  0  0  0  0
  8 22  1  1  0  0  0
  8 10  1  0  0  0  0
  8  7  1  0  0  0  0
  9  8  1  0  0  0  0
 10 11  2  0  0  0  0
 15  4  1  0  0  0  0
 18  6  1  0  0  0  0
 21  7  1  0  0  0  0
 23  9  1  0  0  0  0
 24  9  1  0  0  0  0
 25 34  1  0  0  0  0
 26 25  1  0  0  0  0
 26 27  2  0  0  0  0
 28 26  1  0  0  0  0
 29 28  1  0  0  0  0
 29 30  1  0  0  0  0
 30 32  1  0  0  0  0
 30 40  1  1  0  0  0
 31 30  1  0  0  0  0
 31 10  1  0  0  0  0
 32 33  2  0  0  0  0
 35 25  1  0  0  0  0
 36 28  1  0  0  0  0
 37 28  1  0  0  0  0
 38 29  1  0  0  0  0
 39 29  1  0  0  0  0
 41 31  1  0  0  0  0
 42 52  1  0  0  0  0
 42 51  1  0  0  0  0
 43 44  1  0  0  0  0
 43 42  1  0  0  0  0
 44 45  1  0  0  0  0
 45 57  1  0  0  0  0
 45 56  1  0  0  0  0
 45 46  1  0  0  0  0
 46 58  1  6  0  0  0
 46 48  1  0  0  0  0
 47 46  1  0  0  0  0
 47 32  1  0  0  0  0
 48 50  2  0  0  0  0
 48 49  1  0  0  0  0
 53 42  1  0  0  0  0
 54 44  1  0  0  0  0
 55 44  1  0  0  0  0
 59 47  1  0  0  0  0
M  END
$$$$
