RQN.pdb
 OpenBabel07022418053D

 56 55  0  0  1  0  0  0  0  0999 V2000
    0.1870   -1.9210    3.2050 N   0  0  0  0  0  0  0  0  0  0  0  0
    1.3070   -1.0980    2.9900 C   0  0  0  0  0  0  0  0  0  0  0  0
    1.5430   -0.0650    3.7400 N   0  0  0  0  0  0  0  0  0  0  0  0
    2.2400   -1.3680    1.9290 N   0  0  0  0  0  0  0  0  0  0  0  0
    3.5930   -0.8860    1.9990 C   0  0  0  0  0  0  0  0  0  0  0  0
    4.4490   -1.0580    0.8280 C   0  0  0  0  0  0  0  0  0  0  0  0
    4.2620   -0.3810   -0.4460 C   0  0  0  0  0  0  0  0  0  0  0  0
    3.0210   -0.4830   -1.2490 C   0  0  2  0  0  0  0  0  0  0  0  0
    3.2040    0.2490   -2.5380 N   0  0  0  0  0  0  0  0  0  0  0  0
    1.8900    0.2150   -0.5520 C   0  0  0  0  0  0  0  0  0  0  0  0
    2.0240    1.1220    0.2950 O   0  0  0  0  0  0  0  0  0  0  0  0
    0.2360   -2.9020    3.5610 H   0  0  0  0  0  0  0  0  0  0  0  0
   -0.7550   -1.5140    2.9910 H   0  0  0  0  0  0  0  0  0  0  0  0
    0.8940    0.1740    4.5260 H   0  0  0  0  0  0  0  0  0  0  0  0
    1.9000   -1.9420    1.1380 H   0  0  0  0  0  0  0  0  0  0  0  0
    4.0550   -1.3910    2.9230 H   0  0  0  0  0  0  0  0  0  0  0  0
    3.5120    0.1730    2.3590 H   0  0  0  0  0  0  0  0  0  0  0  0
    4.6600   -2.1840    0.6480 H   0  0  0  0  0  0  0  0  0  0  0  0
    5.5110   -0.7520    1.1850 H   0  0  0  0  0  0  0  0  0  0  0  0
    4.5460    0.7200   -0.2980 H   0  0  0  0  0  0  0  0  0  0  0  0
    5.1370   -0.7480   -1.1160 H   0  0  0  0  0  0  0  0  0  0  0  0
    2.8170   -1.5170   -1.5190 H   0  0  0  0  0  0  0  0  0  0  0  0
    3.6940   -0.4040   -3.2150 H   0  0  0  0  0  0  0  0  0  0  0  0
    2.2690    0.5330   -2.9010 H   0  0  0  0  0  0  0  0  0  0  0  0
   -3.2340    3.5060    1.3230 N   0  0  0  0  0  0  0  0  0  0  0  0
   -2.1800    2.9420    0.5680 C   0  0  0  0  0  0  0  0  0  0  0  0
   -1.0050    3.2110    0.8810 O   0  0  0  0  0  0  0  0  0  0  0  0
   -2.4970    2.0570   -0.5670 C   0  0  0  0  0  0  0  0  0  0  0  0
   -1.3230    1.3690   -1.1850 C   0  0  0  0  0  0  0  0  0  0  0  0
   -0.6010    0.4660   -0.2000 C   0  0  2  0  0  0  0  0  0  0  0  0
    0.5340   -0.1700   -0.8650 N   0  0  0  0  0  0  0  0  0  0  0  0
   -1.4580   -0.6260    0.3200 C   0  0  0  0  0  0  0  0  0  0  0  0
   -2.4710   -0.3730    1.0650 O   0  0  0  0  0  0  0  0  0  0  0  0
   -3.6470    2.9370    2.0890 H   0  0  0  0  0  0  0  0  0  0  0  0
   -3.6260    4.4550    1.1630 H   0  0  0  0  0  0  0  0  0  0  0  0
   -3.0170    2.7250   -1.3170 H   0  0  0  0  0  0  0  0  0  0  0  0
   -3.2790    1.3270   -0.2030 H   0  0  0  0  0  0  0  0  0  0  0  0
   -0.5980    2.1680   -1.4650 H   0  0  0  0  0  0  0  0  0  0  0  0
   -1.5870    0.8220   -2.1120 H   0  0  0  0  0  0  0  0  0  0  0  0
   -0.2830    1.0850    0.6400 H   0  0  0  0  0  0  0  0  0  0  0  0
    0.4290   -0.9060   -1.5870 H   0  0  0  0  0  0  0  0  0  0  0  0
   -5.2380   -2.4280   -0.7840 N   0  0  0  0  0  0  0  0  0  0  0  0
   -3.8420   -2.5510   -1.1130 C   0  0  0  0  0  0  0  0  0  0  0  0
   -3.3050   -1.7400   -1.9180 O   0  0  0  0  0  0  0  0  0  0  0  0
   -3.0080   -3.6280   -0.5170 C   0  0  0  0  0  0  0  0  0  0  0  0
   -2.1400   -3.0390    0.5930 C   0  0  2  0  0  0  0  0  0  0  0  0
   -1.2710   -2.0060    0.0650 N   0  0  0  0  0  0  0  0  0  0  0  0
   -1.3530   -4.1620    1.1410 C   0  0  0  0  0  0  0  0  0  0  0  0
   -1.8730   -5.1620    1.6970 O   0  0  0  0  0  0  0  0  0  0  0  0
    0.0440   -4.1670    1.0630 O   0  0  0  0  0  0  0  0  0  0  0  0
   -5.8320   -3.2140   -0.5000 H   0  0  0  0  0  0  0  0  0  0  0  0
   -5.6360   -1.4650   -0.8510 H   0  0  0  0  0  0  0  0  0  0  0  0
   -3.7040   -4.3570   -0.0540 H   0  0  0  0  0  0  0  0  0  0  0  0
   -2.4040   -4.1750   -1.2540 H   0  0  0  0  0  0  0  0  0  0  0  0
   -2.8500   -2.6890    1.3560 H   0  0  0  0  0  0  0  0  0  0  0  0
   -0.4720   -2.2990   -0.5260 H   0  0  0  0  0  0  0  0  0  0  0  0
  1 12  1  0  0  0  0
  2  1  1  0  0  0  0
  2  3  2  0  0  0  0
  3 14  1  0  0  0  0
  4  5  1  0  0  0  0
  4  2  1  0  0  0  0
  5 17  1  0  0  0  0
  5 16  1  0  0  0  0
  6 19  1  0  0  0  0
  6  5  1  0  0  0  0
  7 20  1  0  0  0  0
  7  6  1  0  0  0  0
  8 22  1  6  0  0  0
  8 10  1  0  0  0  0
  8  7  1  0  0  0  0
  9  8  1  0  0  0  0
 10 11  2  0  0  0  0
 13  1  1  0  0  0  0
 15  4  1  0  0  0  0
 18  6  1  0  0  0  0
 21  7  1  0  0  0  0
 23  9  1  0  0  0  0
 24  9  1  0  0  0  0
 25 34  1  0  0  0  0
 26 27  2  0  0  0  0
 26 25  1  0  0  0  0
 28 37  1  0  0  0  0
 28 26  1  0  0  0  0
 29 28  1  0  0  0  0
 29 30  1  0  0  0  0
 30 32  1  0  0  0  0
 30 40  1  1  0  0  0
 31 10  1  0  0  0  0
 31 30  1  0  0  0  0
 32 33  2  0  0  0  0
 35 25  1  0  0  0  0
 36 28  1  0  0  0  0
 38 29  1  0  0  0  0
 39 29  1  0  0  0  0
 41 31  1  0  0  0  0
 42 51  1  0  0  0  0
 43 42  1  0  0  0  0
 43 45  1  0  0  0  0
 44 43  2  0  0  0  0
 45 53  1  0  0  0  0
 45 46  1  0  0  0  0
 46 48  1  0  0  0  0
 46 55  1  1  0  0  0
 47 32  1  0  0  0  0
 47 46  1  0  0  0  0
 48 49  1  0  0  0  0
 50 48  2  0  0  0  0
 52 42  1  0  0  0  0
 54 45  1  0  0  0  0
 56 47  1  0  0  0  0
M  END
$$$$
