RQQ.pdb
 OpenBabel07022418053D

 59 58  0  0  1  0  0  0  0  0999 V2000
   -0.4890   -3.8320    5.4320 N   0  0  0  0  0  0  0  0  0  0  0  0
   -0.0170   -3.2920    4.1810 C   0  0  0  0  0  0  0  0  0  0  0  0
    0.7240   -4.0000    3.3800 N   0  0  0  0  0  0  0  0  0  0  0  0
   -0.3350   -1.9760    3.7710 N   0  0  0  0  0  0  0  0  0  0  0  0
    0.4380   -1.2370    2.7760 C   0  0  0  0  0  0  0  0  0  0  0  0
    1.7940   -0.8830    3.2660 C   0  0  0  0  0  0  0  0  0  0  0  0
    2.6740   -0.1270    2.3230 C   0  0  0  0  0  0  0  0  0  0  0  0
    2.2080    1.2010    1.8740 C   0  0  2  0  0  0  0  0  0  0  0  0
    2.0270    2.0410    3.0410 N   0  0  0  0  0  0  0  0  0  0  0  0
    1.1000    1.2840    0.9440 C   0  0  0  0  0  0  0  0  0  0  0  0
    0.0840    2.0120    1.2170 O   0  0  0  0  0  0  0  0  0  0  0  0
    0.1310   -4.1740    6.1710 H   0  0  0  0  0  0  0  0  0  0  0  0
   -1.5340   -3.8500    5.5290 H   0  0  0  0  0  0  0  0  0  0  0  0
    1.0060   -4.9780    3.6040 H   0  0  0  0  0  0  0  0  0  0  0  0
   -1.1620   -1.5130    4.2010 H   0  0  0  0  0  0  0  0  0  0  0  0
   -0.1110   -0.3340    2.4680 H   0  0  0  0  0  0  0  0  0  0  0  0
    0.5730   -1.8690    1.8740 H   0  0  0  0  0  0  0  0  0  0  0  0
    2.3720   -1.8240    3.5250 H   0  0  0  0  0  0  0  0  0  0  0  0
    1.7170   -0.3520    4.2440 H   0  0  0  0  0  0  0  0  0  0  0  0
    3.6350    0.0560    2.9020 H   0  0  0  0  0  0  0  0  0  0  0  0
    3.0170   -0.7880    1.4870 H   0  0  0  0  0  0  0  0  0  0  0  0
    3.1040    1.6830    1.3340 H   0  0  0  0  0  0  0  0  0  0  0  0
    1.6610    2.9760    2.8160 H   0  0  0  0  0  0  0  0  0  0  0  0
    2.8900    2.1230    3.6000 H   0  0  0  0  0  0  0  0  0  0  0  0
    1.5710    5.0760   -2.9320 N   0  0  0  0  0  0  0  0  0  0  0  0
    1.0290    3.7870   -3.1400 C   0  0  0  0  0  0  0  0  0  0  0  0
    0.8570    3.3960   -4.3160 O   0  0  0  0  0  0  0  0  0  0  0  0
    0.6830    2.9440   -2.0010 C   0  0  0  0  0  0  0  0  0  0  0  0
    0.2050    1.5600   -2.4210 C   0  0  0  0  0  0  0  0  0  0  0  0
   -0.1350    0.7540   -1.1730 C   0  0  2  0  0  0  0  0  0  0  0  0
    1.0130    0.6100   -0.3110 N   0  0  0  0  0  0  0  0  0  0  0  0
   -0.6910   -0.5700   -1.5440 C   0  0  0  0  0  0  0  0  0  0  0  0
   -1.7200   -0.6530   -2.2770 O   0  0  0  0  0  0  0  0  0  0  0  0
    1.0380    5.9530   -3.0650 H   0  0  0  0  0  0  0  0  0  0  0  0
    2.5790    5.2140   -2.6210 H   0  0  0  0  0  0  0  0  0  0  0  0
   -0.1340    3.3690   -1.3740 H   0  0  0  0  0  0  0  0  0  0  0  0
    1.5600    2.8520   -1.2950 H   0  0  0  0  0  0  0  0  0  0  0  0
   -0.7520    1.7060   -2.9650 H   0  0  0  0  0  0  0  0  0  0  0  0
    0.8930    1.0490   -3.0920 H   0  0  0  0  0  0  0  0  0  0  0  0
   -0.9550    1.3250   -0.6740 H   0  0  0  0  0  0  0  0  0  0  0  0
    1.8290    0.0170   -0.5670 H   0  0  0  0  0  0  0  0  0  0  0  0
   -5.0710   -3.0370    0.7410 N   0  0  0  0  0  0  0  0  0  0  0  0
   -3.7600   -3.5810    0.5120 C   0  0  0  0  0  0  0  0  0  0  0  0
   -3.4790   -4.6230    1.1390 O   0  0  0  0  0  0  0  0  0  0  0  0
   -2.8250   -2.9090   -0.4270 C   0  0  0  0  0  0  0  0  0  0  0  0
   -1.5470   -3.6900   -0.4760 C   0  0  0  0  0  0  0  0  0  0  0  0
   -0.5280   -3.1080   -1.3960 C   0  0  2  0  0  0  0  0  0  0  0  0
   -0.1010   -1.7840   -1.1000 N   0  0  0  0  0  0  0  0  0  0  0  0
   -0.8330   -3.3350   -2.8430 C   0  0  0  0  0  0  0  0  0  0  0  0
   -0.6080   -2.4230   -3.6580 O   0  0  0  0  0  0  0  0  0  0  0  0
   -1.3560   -4.5240   -3.2970 O   0  0  0  0  0  0  0  0  0  0  0  0
   -5.8080   -3.2750    0.0540 H   0  0  0  0  0  0  0  0  0  0  0  0
   -5.2670   -2.4270    1.5690 H   0  0  0  0  0  0  0  0  0  0  0  0
   -3.2540   -2.9180   -1.4530 H   0  0  0  0  0  0  0  0  0  0  0  0
   -2.6640   -1.8920   -0.0210 H   0  0  0  0  0  0  0  0  0  0  0  0
   -1.7350   -4.7340   -0.8080 H   0  0  0  0  0  0  0  0  0  0  0  0
   -1.1080   -3.7600    0.5330 H   0  0  0  0  0  0  0  0  0  0  0  0
    0.4190   -3.7540   -1.2710 H   0  0  0  0  0  0  0  0  0  0  0  0
    0.7600   -1.6570   -0.4750 H   0  0  0  0  0  0  0  0  0  0  0  0
  1 13  1  0  0  0  0
  1 12  1  0  0  0  0
  2  1  1  0  0  0  0
  3 14  1  0  0  0  0
  3  2  2  0  0  0  0
  4  2  1  0  0  0  0
  4 15  1  0  0  0  0
  5  6  1  0  0  0  0
  5  4  1  0  0  0  0
  6 18  1  0  0  0  0
  6 19  1  0  0  0  0
  7 20  1  0  0  0  0
  7  6  1  0  0  0  0
  8 22  1  6  0  0  0
  8  7  1  0  0  0  0
  8  9  1  0  0  0  0
  9 24  1  0  0  0  0
 10 11  2  0  0  0  0
 10  8  1  0  0  0  0
 16  5  1  0  0  0  0
 17  5  1  0  0  0  0
 21  7  1  0  0  0  0
 23  9  1  0  0  0  0
 25 35  1  0  0  0  0
 26 25  1  0  0  0  0
 26 28  1  0  0  0  0
 27 26  2  0  0  0  0
 28 36  1  0  0  0  0
 28 37  1  0  0  0  0
 29 28  1  0  0  0  0
 29 30  1  0  0  0  0
 30 40  1  1  0  0  0
 30 31  1  0  0  0  0
 31 10  1  0  0  0  0
 32 30  1  0  0  0  0
 32 48  1  0  0  0  0
 33 32  2  0  0  0  0
 34 25  1  0  0  0  0
 38 29  1  0  0  0  0
 39 29  1  0  0  0  0
 41 31  1  0  0  0  0
 42 53  1  0  0  0  0
 43 42  1  0  0  0  0
 43 44  2  0  0  0  0
 45 55  1  0  0  0  0
 45 43  1  0  0  0  0
 46 45  1  0  0  0  0
 46 57  1  0  0  0  0
 47 58  1  1  0  0  0
 47 48  1  0  0  0  0
 47 46  1  0  0  0  0
 48 59  1  0  0  0  0
 49 47  1  0  0  0  0
 50 49  2  0  0  0  0
 51 49  1  0  0  0  0
 52 42  1  0  0  0  0
 54 45  1  0  0  0  0
 56 46  1  0  0  0  0
M  END
$$$$
