RQV.pdb
 OpenBabel07022418053D

 58 57  0  0  1  0  0  0  0  0999 V2000
    2.3350    0.1030    6.9970 N   0  0  0  0  0  0  0  0  0  0  0  0
    1.9580   -0.3400    5.7030 C   0  0  0  0  0  0  0  0  0  0  0  0
    1.6540   -1.5820    5.5420 N   0  0  0  0  0  0  0  0  0  0  0  0
    1.8930    0.5090    4.5730 N   0  0  0  0  0  0  0  0  0  0  0  0
    1.4730   -0.0370    3.2870 C   0  0  0  0  0  0  0  0  0  0  0  0
    2.4460   -0.9790    2.7030 C   0  0  0  0  0  0  0  0  0  0  0  0
    2.1420   -1.6320    1.4180 C   0  0  0  0  0  0  0  0  0  0  0  0
    1.9030   -0.8330    0.2130 C   0  0  2  0  0  0  0  0  0  0  0  0
    2.9480    0.0590   -0.2140 N   0  0  0  0  0  0  0  0  0  0  0  0
    0.5350   -0.3980   -0.1160 C   0  0  0  0  0  0  0  0  0  0  0  0
    0.3390    0.4840   -1.0290 O   0  0  0  0  0  0  0  0  0  0  0  0
    1.5780    0.3980    7.6460 H   0  0  0  0  0  0  0  0  0  0  0  0
    3.3130    0.1500    7.3320 H   0  0  0  0  0  0  0  0  0  0  0  0
    1.6640   -2.2950    6.3010 H   0  0  0  0  0  0  0  0  0  0  0  0
    2.1580    1.5060    4.7330 H   0  0  0  0  0  0  0  0  0  0  0  0
    0.4350   -0.3590    3.2940 H   0  0  0  0  0  0  0  0  0  0  0  0
    1.5000    0.8770    2.6090 H   0  0  0  0  0  0  0  0  0  0  0  0
    3.4610   -0.4880    2.5690 H   0  0  0  0  0  0  0  0  0  0  0  0
    2.6950   -1.8080    3.4320 H   0  0  0  0  0  0  0  0  0  0  0  0
    1.3130   -2.3950    1.4880 H   0  0  0  0  0  0  0  0  0  0  0  0
    3.0350   -2.3390    1.2530 H   0  0  0  0  0  0  0  0  0  0  0  0
    2.0440   -1.6760   -0.6490 H   0  0  0  0  0  0  0  0  0  0  0  0
    2.5730    1.0340   -0.1710 H   0  0  0  0  0  0  0  0  0  0  0  0
    3.7870    0.0380    0.3810 H   0  0  0  0  0  0  0  0  0  0  0  0
   -1.2080    1.8460    3.6560 N   0  0  0  0  0  0  0  0  0  0  0  0
   -1.4380    1.7910    2.2420 C   0  0  0  0  0  0  0  0  0  0  0  0
   -0.5130    2.0990    1.4550 O   0  0  0  0  0  0  0  0  0  0  0  0
   -2.7320    1.3890    1.6810 C   0  0  0  0  0  0  0  0  0  0  0  0
   -2.6310    0.7610    0.3340 C   0  0  0  0  0  0  0  0  0  0  0  0
   -1.9870   -0.5330    0.1810 C   0  0  2  0  0  0  0  0  0  0  0  0
   -0.6680   -0.8650    0.4810 N   0  0  0  0  0  0  0  0  0  0  0  0
   -2.2960   -1.1090   -1.2130 C   0  0  0  0  0  0  0  0  0  0  0  0
   -3.4410   -0.8170   -1.6420 O   0  0  0  0  0  0  0  0  0  0  0  0
   -1.9270    1.4170    4.2640 H   0  0  0  0  0  0  0  0  0  0  0  0
   -0.3650    2.2940    4.0430 H   0  0  0  0  0  0  0  0  0  0  0  0
   -3.2630    0.7310    2.4190 H   0  0  0  0  0  0  0  0  0  0  0  0
   -3.3520    2.3280    1.6310 H   0  0  0  0  0  0  0  0  0  0  0  0
   -2.2320    1.5650   -0.3510 H   0  0  0  0  0  0  0  0  0  0  0  0
   -3.7220    0.6210   -0.0000 H   0  0  0  0  0  0  0  0  0  0  0  0
   -2.6670   -1.2570    0.8060 H   0  0  0  0  0  0  0  0  0  0  0  0
   -0.5140   -1.5760    1.2810 H   0  0  0  0  0  0  0  0  0  0  0  0
   -0.7240   -0.4420   -4.4100 C   0  0  0  0  0  0  0  0  0  0  0  0
   -0.7260   -1.9380   -4.2780 C   0  0  0  0  0  0  0  0  0  0  0  0
    0.6980   -2.3700   -3.9950 C   0  0  0  0  0  0  0  0  0  0  0  0
   -1.6820   -2.4120   -3.2190 C   0  0  2  0  0  0  0  0  0  0  0  0
   -1.3630   -1.8840   -1.9080 N   0  0  0  0  0  0  0  0  0  0  0  0
   -1.6890   -3.8910   -3.1830 C   0  0  0  0  0  0  0  0  0  0  0  0
   -1.9370   -4.5920   -4.1930 O   0  0  0  0  0  0  0  0  0  0  0  0
   -1.4140   -4.5460   -1.9930 O   0  0  0  0  0  0  0  0  0  0  0  0
   -0.0060    0.0300   -3.7170 H   0  0  0  0  0  0  0  0  0  0  0  0
   -0.3600   -0.1670   -5.4420 H   0  0  0  0  0  0  0  0  0  0  0  0
   -1.7460   -0.0550   -4.2520 H   0  0  0  0  0  0  0  0  0  0  0  0
   -1.0220   -2.3800   -5.2400 H   0  0  0  0  0  0  0  0  0  0  0  0
    1.0450   -1.9830   -3.0290 H   0  0  0  0  0  0  0  0  0  0  0  0
    0.8300   -3.4690   -4.1140 H   0  0  0  0  0  0  0  0  0  0  0  0
    1.3360   -1.9040   -4.7810 H   0  0  0  0  0  0  0  0  0  0  0  0
   -2.6920   -2.0940   -3.5040 H   0  0  0  0  0  0  0  0  0  0  0  0
   -0.4350   -2.1040   -1.5050 H   0  0  0  0  0  0  0  0  0  0  0  0
  1 13  1  0  0  0  0
  1 12  1  0  0  0  0
  2  1  1  0  0  0  0
  3  2  2  0  0  0  0
  3 14  1  0  0  0  0
  4 15  1  0  0  0  0
  4  2  1  0  0  0  0
  5 16  1  0  0  0  0
  5  4  1  0  0  0  0
  6  5  1  0  0  0  0
  6 19  1  0  0  0  0
  7 20  1  0  0  0  0
  7  6  1  0  0  0  0
  8 22  1  6  0  0  0
  8  7  1  0  0  0  0
  9 23  1  0  0  0  0
  9  8  1  0  0  0  0
  9 24  1  0  0  0  0
 10  8  1  0  0  0  0
 10 31  1  0  0  0  0
 11 10  2  0  0  0  0
 17  5  1  0  0  0  0
 18  6  1  0  0  0  0
 21  7  1  0  0  0  0
 25 35  1  0  0  0  0
 25 34  1  0  0  0  0
 26 25  1  0  0  0  0
 27 26  2  0  0  0  0
 28 26  1  0  0  0  0
 28 36  1  0  0  0  0
 29 28  1  0  0  0  0
 30 29  1  0  0  0  0
 30 31  1  0  0  0  0
 30 40  1  1  0  0  0
 31 41  1  0  0  0  0
 32 30  1  0  0  0  0
 33 32  2  0  0  0  0
 37 28  1  0  0  0  0
 38 29  1  0  0  0  0
 39 29  1  0  0  0  0
 42 43  1  0  0  0  0
 42 52  1  0  0  0  0
 42 50  1  0  0  0  0
 43 44  1  0  0  0  0
 43 45  1  0  0  0  0
 44 54  1  0  0  0  0
 45 57  1  6  0  0  0
 45 47  1  0  0  0  0
 45 46  1  0  0  0  0
 46 58  1  0  0  0  0
 46 32  1  0  0  0  0
 47 49  1  0  0  0  0
 48 47  2  0  0  0  0
 51 42  1  0  0  0  0
 53 43  1  0  0  0  0
 55 44  1  0  0  0  0
 56 44  1  0  0  0  0
M  END
$$$$
