RQW.pdb
 OpenBabel07022418053D

 66 67  0  0  1  0  0  0  0  0999 V2000
    3.6690   -0.1010    5.1370 N   0  0  0  0  0  0  0  0  0  0  0  0
    3.9930    0.1120    3.7490 C   0  0  0  0  0  0  0  0  0  0  0  0
    3.5110    1.1110    3.1310 N   0  0  0  0  0  0  0  0  0  0  0  0
    4.8450   -0.7880    3.0700 N   0  0  0  0  0  0  0  0  0  0  0  0
    4.7450   -0.9670    1.6250 C   0  0  0  0  0  0  0  0  0  0  0  0
    3.4460   -1.6400    1.2580 C   0  0  0  0  0  0  0  0  0  0  0  0
    3.2420   -1.8990   -0.1740 C   0  0  0  0  0  0  0  0  0  0  0  0
    3.2230   -0.7540   -1.1150 C   0  0  2  0  0  0  0  0  0  0  0  0
    4.4710   -0.0540   -1.0760 N   0  0  0  0  0  0  0  0  0  0  0  0
    2.1040    0.1890   -0.8860 C   0  0  0  0  0  0  0  0  0  0  0  0
    2.3760    1.3980   -0.6930 O   0  0  0  0  0  0  0  0  0  0  0  0
    3.8660   -1.0220    5.5890 H   0  0  0  0  0  0  0  0  0  0  0  0
    3.2380    0.6530    5.6990 H   0  0  0  0  0  0  0  0  0  0  0  0
    2.8790    1.8420    3.5030 H   0  0  0  0  0  0  0  0  0  0  0  0
    5.5540   -1.3340    3.5910 H   0  0  0  0  0  0  0  0  0  0  0  0
    5.5850   -1.5720    1.2630 H   0  0  0  0  0  0  0  0  0  0  0  0
    4.8160    0.0790    1.1980 H   0  0  0  0  0  0  0  0  0  0  0  0
    3.4630   -2.6320    1.8020 H   0  0  0  0  0  0  0  0  0  0  0  0
    2.6490   -1.0430    1.7490 H   0  0  0  0  0  0  0  0  0  0  0  0
    2.2810   -2.4730   -0.3520 H   0  0  0  0  0  0  0  0  0  0  0  0
    4.0260   -2.6530   -0.4890 H   0  0  0  0  0  0  0  0  0  0  0  0
    3.0810   -1.1090   -2.1840 H   0  0  0  0  0  0  0  0  0  0  0  0
    4.2970    0.9730   -1.1300 H   0  0  0  0  0  0  0  0  0  0  0  0
    5.0340   -0.3120   -1.9130 H   0  0  0  0  0  0  0  0  0  0  0  0
   -2.9010    4.2300   -1.5970 N   0  0  0  0  0  0  0  0  0  0  0  0
   -1.8590    3.2610   -1.6880 C   0  0  0  0  0  0  0  0  0  0  0  0
   -0.6740    3.6310   -1.5490 O   0  0  0  0  0  0  0  0  0  0  0  0
   -2.2050    1.8640   -1.9410 C   0  0  0  0  0  0  0  0  0  0  0  0
   -1.0730    0.8960   -1.9370 C   0  0  0  0  0  0  0  0  0  0  0  0
   -0.3080    0.8120   -0.6370 C   0  0  2  0  0  0  0  0  0  0  0  0
    0.7360   -0.1840   -0.8700 N   0  0  0  0  0  0  0  0  0  0  0  0
   -1.1450    0.4720    0.5200 C   0  0  0  0  0  0  0  0  0  0  0  0
   -2.0710    1.2410    0.8610 O   0  0  0  0  0  0  0  0  0  0  0  0
   -3.8980    3.9810   -1.7840 H   0  0  0  0  0  0  0  0  0  0  0  0
   -2.7030    5.2200   -1.3420 H   0  0  0  0  0  0  0  0  0  0  0  0
   -2.9990    1.4820   -1.2400 H   0  0  0  0  0  0  0  0  0  0  0  0
   -2.6870    1.8070   -2.9550 H   0  0  0  0  0  0  0  0  0  0  0  0
   -1.5200   -0.1320   -2.0840 H   0  0  0  0  0  0  0  0  0  0  0  0
   -0.3740    1.0340   -2.7900 H   0  0  0  0  0  0  0  0  0  0  0  0
    0.2190    1.7900   -0.5110 H   0  0  0  0  0  0  0  0  0  0  0  0
    0.4840   -1.2010   -1.0290 H   0  0  0  0  0  0  0  0  0  0  0  0
   -0.9720   -0.7160    1.3140 N   0  0  0  0  0  0  0  0  0  0  0  0
   -1.7760   -1.0460    2.4370 C   0  0  1  0  0  0  0  0  0  0  0  0
   -2.4780   -2.3490    2.4300 C   0  0  0  0  0  0  0  0  0  0  0  0
   -3.4420   -2.5560    1.3270 C   0  0  0  0  0  0  0  0  0  0  0  0
   -4.8180   -2.4030    1.4370 C   0  0  0  0  0  0  0  0  0  0  0  0
   -5.3470   -2.6530    0.2470 N   0  0  0  0  0  0  0  0  0  0  0  0
   -4.3880   -2.9610   -0.6370 C   0  0  0  0  0  0  0  0  0  0  0  0
   -4.4740   -3.2980   -1.9900 C   0  0  0  0  0  0  0  0  0  0  0  0
   -3.3330   -3.5810   -2.6810 C   0  0  0  0  0  0  0  0  0  0  0  0
   -2.1340   -3.5240   -2.0150 C   0  0  0  0  0  0  0  0  0  0  0  0
   -2.0390   -3.1930   -0.6810 C   0  0  0  0  0  0  0  0  0  0  0  0
   -3.1880   -2.9040    0.0310 C   0  0  0  0  0  0  0  0  0  0  0  0
   -0.8650   -1.0500    3.6400 C   0  0  0  0  0  0  0  0  0  0  0  0
   -1.3380   -1.3170    4.7540 O   0  0  0  0  0  0  0  0  0  0  0  0
    0.4900   -0.7630    3.5380 O   0  0  0  0  0  0  0  0  0  0  0  0
   -0.1900   -1.3290    1.0040 H   0  0  0  0  0  0  0  0  0  0  0  0
   -2.5330   -0.2590    2.6820 H   0  0  0  0  0  0  0  0  0  0  0  0
   -3.0250   -2.4280    3.4110 H   0  0  0  0  0  0  0  0  0  0  0  0
   -1.7530   -3.1920    2.4210 H   0  0  0  0  0  0  0  0  0  0  0  0
   -5.3670   -2.1280    2.3390 H   0  0  0  0  0  0  0  0  0  0  0  0
   -6.3750   -2.6270   -0.0220 H   0  0  0  0  0  0  0  0  0  0  0  0
   -5.4170   -3.3430   -2.5130 H   0  0  0  0  0  0  0  0  0  0  0  0
   -3.3150   -3.8510   -3.7320 H   0  0  0  0  0  0  0  0  0  0  0  0
   -1.2090   -3.7510   -2.5640 H   0  0  0  0  0  0  0  0  0  0  0  0
   -1.0900   -3.1580   -0.1680 H   0  0  0  0  0  0  0  0  0  0  0  0
  1 12  1  0  0  0  0
  1 13  1  0  0  0  0
  2  1  1  0  0  0  0
  3 14  1  0  0  0  0
  3  2  2  0  0  0  0
  4 15  1  0  0  0  0
  4  2  1  0  0  0  0
  5  4  1  0  0  0  0
  6  5  1  0  0  0  0
  6 19  1  0  0  0  0
  6 18  1  0  0  0  0
  7  6  1  0  0  0  0
  8 22  1  6  0  0  0
  8  9  1  0  0  0  0
  8 10  1  0  0  0  0
  8  7  1  0  0  0  0
 10 31  1  0  0  0  0
 10 11  2  0  0  0  0
 16  5  1  0  0  0  0
 17  5  1  0  0  0  0
 20  7  1  0  0  0  0
 21  7  1  0  0  0  0
 23  9  1  0  0  0  0
 24  9  1  0  0  0  0
 25 35  1  0  0  0  0
 26 25  1  0  0  0  0
 26 27  2  0  0  0  0
 28 29  1  0  0  0  0
 28 26  1  0  0  0  0
 28 36  1  0  0  0  0
 29 30  1  0  0  0  0
 30 40  1  1  0  0  0
 30 32  1  0  0  0  0
 31 30  1  0  0  0  0
 32 33  2  0  0  0  0
 32 42  1  0  0  0  0
 34 25  1  0  0  0  0
 37 28  1  0  0  0  0
 38 29  1  0  0  0  0
 39 29  1  0  0  0  0
 41 31  1  0  0  0  0
 42 43  1  0  0  0  0
 43 58  1  1  0  0  0
 43 54  1  0  0  0  0
 44 43  1  0  0  0  0
 44 59  1  0  0  0  0
 45 46  2  0  0  0  0
 45 44  1  0  0  0  0
 46 61  1  0  0  0  0
 47 46  1  0  0  0  0
 48 53  1  0  0  0  0
 48 47  1  0  0  0  0
 49 48  2  0  0  0  0
 50 51  2  0  0  0  0
 50 49  1  0  0  0  0
 51 52  1  0  0  0  0
 52 66  1  0  0  0  0
 52 53  2  0  0  0  0
 53 45  1  0  0  0  0
 54 55  1  0  0  0  0
 56 54  2  0  0  0  0
 57 42  1  0  0  0  0
 60 44  1  0  0  0  0
 62 47  1  0  0  0  0
 63 49  1  0  0  0  0
 64 50  1  0  0  0  0
 65 51  1  0  0  0  0
M  END
$$$$
