RQY.pdb
 OpenBabel07022418053D

 63 63  0  0  1  0  0  0  0  0999 V2000
    1.8680   -3.7790    4.1570 N   0  0  0  0  0  0  0  0  0  0  0  0
    2.9320   -3.2840    3.3490 C   0  0  0  0  0  0  0  0  0  0  0  0
    4.1160   -3.7850    3.4420 N   0  0  0  0  0  0  0  0  0  0  0  0
    2.6940   -2.2140    2.4100 N   0  0  0  0  0  0  0  0  0  0  0  0
    3.7720   -1.3190    2.1120 C   0  0  0  0  0  0  0  0  0  0  0  0
    3.3010   -0.2670    1.1110 C   0  0  0  0  0  0  0  0  0  0  0  0
    2.1700    0.5040    1.7010 C   0  0  0  0  0  0  0  0  0  0  0  0
    1.6340    1.5710    0.8220 C   0  0  2  0  0  0  0  0  0  0  0  0
    0.5250    2.2600    1.5070 N   0  0  0  0  0  0  0  0  0  0  0  0
    1.0830    1.1170   -0.4720 C   0  0  0  0  0  0  0  0  0  0  0  0
    1.8510    0.5630   -1.2800 O   0  0  0  0  0  0  0  0  0  0  0  0
    1.6090   -3.2300    5.0040 H   0  0  0  0  0  0  0  0  0  0  0  0
    1.3760   -4.6520    3.9000 H   0  0  0  0  0  0  0  0  0  0  0  0
    4.3040   -4.5580    4.1120 H   0  0  0  0  0  0  0  0  0  0  0  0
    1.7460   -2.1410    1.9830 H   0  0  0  0  0  0  0  0  0  0  0  0
    4.1290   -0.8220    3.0160 H   0  0  0  0  0  0  0  0  0  0  0  0
    4.6500   -1.8650    1.6800 H   0  0  0  0  0  0  0  0  0  0  0  0
    2.9440   -0.7850    0.1910 H   0  0  0  0  0  0  0  0  0  0  0  0
    4.1380    0.4300    0.9080 H   0  0  0  0  0  0  0  0  0  0  0  0
    1.3700   -0.1470    2.1450 H   0  0  0  0  0  0  0  0  0  0  0  0
    2.5880    1.0300    2.6150 H   0  0  0  0  0  0  0  0  0  0  0  0
    2.4500    2.3240    0.6580 H   0  0  0  0  0  0  0  0  0  0  0  0
    0.8530    3.0980    2.0100 H   0  0  0  0  0  0  0  0  0  0  0  0
    0.0480    1.5860    2.1460 H   0  0  0  0  0  0  0  0  0  0  0  0
    2.5890    2.2950   -5.4330 N   0  0  0  0  0  0  0  0  0  0  0  0
    1.6920    1.3380   -4.8810 C   0  0  0  0  0  0  0  0  0  0  0  0
    1.6480    0.1810   -5.3480 O   0  0  0  0  0  0  0  0  0  0  0  0
    0.7900    1.7080   -3.7340 C   0  0  0  0  0  0  0  0  0  0  0  0
   -0.0180    0.5500   -3.2630 C   0  0  0  0  0  0  0  0  0  0  0  0
   -0.8900    0.8980   -2.0710 C   0  0  2  0  0  0  0  0  0  0  0  0
   -0.2540    1.2610   -0.8730 N   0  0  0  0  0  0  0  0  0  0  0  0
   -1.9920   -0.0560   -2.0110 C   0  0  0  0  0  0  0  0  0  0  0  0
   -2.5800   -0.4630   -3.0670 O   0  0  0  0  0  0  0  0  0  0  0  0
    3.5320    2.3780   -5.0260 H   0  0  0  0  0  0  0  0  0  0  0  0
    2.3050    2.9010   -6.2290 H   0  0  0  0  0  0  0  0  0  0  0  0
    0.0170    2.3850   -4.2720 H   0  0  0  0  0  0  0  0  0  0  0  0
    1.3560    2.2970   -3.0450 H   0  0  0  0  0  0  0  0  0  0  0  0
   -0.7340    0.2840   -4.0690 H   0  0  0  0  0  0  0  0  0  0  0  0
    0.5770   -0.3740   -3.0980 H   0  0  0  0  0  0  0  0  0  0  0  0
   -1.2530    1.9510   -2.4640 H   0  0  0  0  0  0  0  0  0  0  0  0
   -0.8830    1.7240   -0.1430 H   0  0  0  0  0  0  0  0  0  0  0  0
   -1.8420   -1.6650    5.2970 O   0  0  0  0  0  0  0  0  0  0  0  0
   -2.1540   -1.9430    3.9740 C   0  0  0  0  0  0  0  0  0  0  0  0
   -1.1970   -1.8730    2.9630 C   0  0  0  0  0  0  0  0  0  0  0  0
   -1.5310   -2.1540    1.6520 C   0  0  0  0  0  0  0  0  0  0  0  0
   -2.8230   -2.5090    1.3310 C   0  0  0  0  0  0  0  0  0  0  0  0
   -3.1730   -2.8070   -0.0790 C   0  0  0  0  0  0  0  0  0  0  0  0
   -3.6220   -1.5700   -0.8250 C   0  0  2  0  0  0  0  0  0  0  0  0
   -2.5220   -0.6230   -0.7950 N   0  0  0  0  0  0  0  0  0  0  0  0
   -4.8130   -1.0360   -0.1030 C   0  0  0  0  0  0  0  0  0  0  0  0
   -4.7010    0.0810    0.4580 O   0  0  0  0  0  0  0  0  0  0  0  0
   -3.7820   -2.5800    2.3460 C   0  0  0  0  0  0  0  0  0  0  0  0
   -3.4460   -2.2990    3.6520 C   0  0  0  0  0  0  0  0  0  0  0  0
   -6.0080   -1.7060   -0.0290 O   0  0  0  0  0  0  0  0  0  0  0  0
   -2.2630   -0.8710    5.8130 H   0  0  0  0  0  0  0  0  0  0  0  0
   -0.1840   -1.5850    3.2660 H   0  0  0  0  0  0  0  0  0  0  0  0
   -0.7280   -2.0840    0.9030 H   0  0  0  0  0  0  0  0  0  0  0  0
   -3.9340   -3.6120   -0.0670 H   0  0  0  0  0  0  0  0  0  0  0  0
   -2.2370   -3.1370   -0.6010 H   0  0  0  0  0  0  0  0  0  0  0  0
   -3.9520   -1.8110   -1.8310 H   0  0  0  0  0  0  0  0  0  0  0  0
   -2.0570   -0.2960    0.0770 H   0  0  0  0  0  0  0  0  0  0  0  0
   -4.7840   -2.8600    2.1010 H   0  0  0  0  0  0  0  0  0  0  0  0
   -4.2030   -2.3580    4.4350 H   0  0  0  0  0  0  0  0  0  0  0  0
  1 12  1  0  0  0  0
  2  3  2  0  0  0  0
  2  1  1  0  0  0  0
  3 14  1  0  0  0  0
  4  2  1  0  0  0  0
  5  4  1  0  0  0  0
  5 16  1  0  0  0  0
  6  7  1  0  0  0  0
  6  5  1  0  0  0  0
  7 20  1  0  0  0  0
  7 21  1  0  0  0  0
  8 22  1  6  0  0  0
  8  9  1  0  0  0  0
  8  7  1  0  0  0  0
  9 23  1  0  0  0  0
  9 24  1  0  0  0  0
 10  8  1  0  0  0  0
 11 10  2  0  0  0  0
 13  1  1  0  0  0  0
 15  4  1  0  0  0  0
 17  5  1  0  0  0  0
 18  6  1  0  0  0  0
 19  6  1  0  0  0  0
 25 34  1  0  0  0  0
 25 26  1  0  0  0  0
 26 28  1  0  0  0  0
 27 26  2  0  0  0  0
 28 29  1  0  0  0  0
 28 37  1  0  0  0  0
 29 39  1  0  0  0  0
 29 30  1  0  0  0  0
 30 40  1  6  0  0  0
 30 32  1  0  0  0  0
 30 31  1  0  0  0  0
 31 10  1  0  0  0  0
 31 41  1  0  0  0  0
 32 49  1  0  0  0  0
 33 32  2  0  0  0  0
 35 25  1  0  0  0  0
 36 28  1  0  0  0  0
 38 29  1  0  0  0  0
 42 55  1  0  0  0  0
 43 42  1  0  0  0  0
 44 56  1  0  0  0  0
 44 43  2  0  0  0  0
 45 44  1  0  0  0  0
 46 45  2  0  0  0  0
 46 52  1  0  0  0  0
 47 58  1  0  0  0  0
 47 46  1  0  0  0  0
 48 60  1  6  0  0  0
 48 49  1  0  0  0  0
 48 50  1  0  0  0  0
 48 47  1  0  0  0  0
 49 61  1  0  0  0  0
 50 54  2  0  0  0  0
 50 51  1  0  0  0  0
 52 53  2  0  0  0  0
 53 43  1  0  0  0  0
 53 63  1  0  0  0  0
 57 45  1  0  0  0  0
 59 47  1  0  0  0  0
 62 52  1  0  0  0  0
M  END
$$$$
