RRA.pdb
 OpenBabel07022418033D

 58 57  0  0  1  0  0  0  0  0999 V2000
    1.4420   -3.6440    5.2950 N   0  0  0  0  0  0  0  0  0  0  0  0
    1.5550   -2.5920    4.3500 C   0  0  0  0  0  0  0  0  0  0  0  0
    1.1180   -2.7750    3.1600 N   0  0  0  0  0  0  0  0  0  0  0  0
    2.1330   -1.3380    4.6740 N   0  0  0  0  0  0  0  0  0  0  0  0
    1.9650   -0.1650    3.8820 C   0  0  0  0  0  0  0  0  0  0  0  0
    2.6580   -0.2680    2.5720 C   0  0  0  0  0  0  0  0  0  0  0  0
    2.5760    0.9040    1.6750 C   0  0  0  0  0  0  0  0  0  0  0  0
    1.2260    1.3340    1.2220 C   0  0  2  0  0  0  0  0  0  0  0  0
    0.3330    1.6940    2.2730 N   0  0  0  0  0  0  0  0  0  0  0  0
    0.6600    0.4390    0.2010 C   0  0  0  0  0  0  0  0  0  0  0  0
    1.3760    0.0650   -0.7450 O   0  0  0  0  0  0  0  0  0  0  0  0
    1.1800   -3.4210    6.2660 H   0  0  0  0  0  0  0  0  0  0  0  0
    1.6180   -4.6110    5.0080 H   0  0  0  0  0  0  0  0  0  0  0  0
    0.6900   -3.6860    2.9020 H   0  0  0  0  0  0  0  0  0  0  0  0
    2.7160   -1.3080    5.5590 H   0  0  0  0  0  0  0  0  0  0  0  0
    0.8780    0.0530    3.8240 H   0  0  0  0  0  0  0  0  0  0  0  0
    2.4030    0.7230    4.4160 H   0  0  0  0  0  0  0  0  0  0  0  0
    3.7540   -0.4190    2.8110 H   0  0  0  0  0  0  0  0  0  0  0  0
    2.3890   -1.1700    1.9830 H   0  0  0  0  0  0  0  0  0  0  0  0
    3.1160    1.8020    2.0760 H   0  0  0  0  0  0  0  0  0  0  0  0
    3.1530    0.6470    0.7360 H   0  0  0  0  0  0  0  0  0  0  0  0
    1.4130    2.3150    0.6560 H   0  0  0  0  0  0  0  0  0  0  0  0
    0.7060    2.4220    2.8980 H   0  0  0  0  0  0  0  0  0  0  0  0
   -0.6080    1.8900    1.9030 H   0  0  0  0  0  0  0  0  0  0  0  0
   -2.8720    3.4590    1.4010 N   0  0  0  0  0  0  0  0  0  0  0  0
   -2.2920    3.3600    0.1170 C   0  0  0  0  0  0  0  0  0  0  0  0
   -1.6130    4.3020   -0.4480 N   0  0  0  0  0  0  0  0  0  0  0  0
   -2.4520    2.1460   -0.6240 N   0  0  0  0  0  0  0  0  0  0  0  0
   -1.9960    2.0360   -1.9780 C   0  0  0  0  0  0  0  0  0  0  0  0
   -2.0690    0.7140   -2.6100 C   0  0  0  0  0  0  0  0  0  0  0  0
   -1.2000   -0.3760   -2.1700 C   0  0  0  0  0  0  0  0  0  0  0  0
   -1.1320   -0.8940   -0.8020 C   0  0  2  0  0  0  0  0  0  0  0  0
   -0.6820   -0.0230    0.2450 N   0  0  0  0  0  0  0  0  0  0  0  0
   -0.3820   -2.2060   -0.7510 C   0  0  0  0  0  0  0  0  0  0  0  0
    0.4950   -2.3170    0.1320 O   0  0  0  0  0  0  0  0  0  0  0  0
   -3.1980    4.3800    1.7480 H   0  0  0  0  0  0  0  0  0  0  0  0
   -2.9810    2.6290    2.0060 H   0  0  0  0  0  0  0  0  0  0  0  0
   -1.4750    5.2100    0.0690 H   0  0  0  0  0  0  0  0  0  0  0  0
   -2.9440    1.3480   -0.1750 H   0  0  0  0  0  0  0  0  0  0  0  0
   -0.9380    2.4610   -1.9950 H   0  0  0  0  0  0  0  0  0  0  0  0
   -2.6000    2.7820   -2.5650 H   0  0  0  0  0  0  0  0  0  0  0  0
   -1.9110    0.8270   -3.7340 H   0  0  0  0  0  0  0  0  0  0  0  0
   -3.1750    0.3870   -2.5230 H   0  0  0  0  0  0  0  0  0  0  0  0
   -0.1300   -0.0700   -2.5030 H   0  0  0  0  0  0  0  0  0  0  0  0
   -1.3960   -1.2330   -2.9180 H   0  0  0  0  0  0  0  0  0  0  0  0
   -2.1880   -1.2150   -0.5160 H   0  0  0  0  0  0  0  0  0  0  0  0
   -1.3310    0.2300    1.0180 H   0  0  0  0  0  0  0  0  0  0  0  0
   -0.7690   -5.6850   -1.1640 C   0  0  0  0  0  0  0  0  0  0  0  0
    0.1260   -4.5160   -1.5400 C   0  0  2  0  0  0  0  0  0  0  0  0
   -0.6160   -3.2750   -1.6220 N   0  0  0  0  0  0  0  0  0  0  0  0
    0.7840   -4.8390   -2.8390 C   0  0  0  0  0  0  0  0  0  0  0  0
    0.6700   -4.0900   -3.8420 O   0  0  0  0  0  0  0  0  0  0  0  0
    1.5510   -5.9830   -2.9950 O   0  0  0  0  0  0  0  0  0  0  0  0
   -0.2080   -6.4550   -0.6020 H   0  0  0  0  0  0  0  0  0  0  0  0
   -1.1100   -6.1560   -2.1160 H   0  0  0  0  0  0  0  0  0  0  0  0
   -1.6530   -5.2950   -0.6090 H   0  0  0  0  0  0  0  0  0  0  0  0
    0.8800   -4.4360   -0.7300 H   0  0  0  0  0  0  0  0  0  0  0  0
   -1.3480   -3.1850   -2.3570 H   0  0  0  0  0  0  0  0  0  0  0  0
  1 12  1  0  0  0  0
  2  4  1  0  0  0  0
  2  1  1  0  0  0  0
  3  2  2  0  0  0  0
  4 15  1  0  0  0  0
  5 17  1  0  0  0  0
  5  4  1  0  0  0  0
  6 18  1  0  0  0  0
  6  5  1  0  0  0  0
  7 20  1  0  0  0  0
  7  6  1  0  0  0  0
  8 22  1  6  0  0  0
  8  7  1  0  0  0  0
  8  9  1  0  0  0  0
  9 23  1  0  0  0  0
 10 33  1  0  0  0  0
 10  8  1  0  0  0  0
 11 10  2  0  0  0  0
 13  1  1  0  0  0  0
 14  3  1  0  0  0  0
 16  5  1  0  0  0  0
 19  6  1  0  0  0  0
 21  7  1  0  0  0  0
 24  9  1  0  0  0  0
 25 36  1  0  0  0  0
 25 37  1  0  0  0  0
 26 25  1  0  0  0  0
 27 38  1  0  0  0  0
 27 26  2  0  0  0  0
 28 39  1  0  0  0  0
 28 26  1  0  0  0  0
 29 28  1  0  0  0  0
 30 43  1  0  0  0  0
 30 31  1  0  0  0  0
 30 29  1  0  0  0  0
 31 32  1  0  0  0  0
 32 34  1  0  0  0  0
 32 46  1  1  0  0  0
 32 33  1  0  0  0  0
 33 47  1  0  0  0  0
 34 35  2  0  0  0  0
 40 29  1  0  0  0  0
 41 29  1  0  0  0  0
 42 30  1  0  0  0  0
 44 31  1  0  0  0  0
 45 31  1  0  0  0  0
 48 56  1  0  0  0  0
 48 54  1  0  0  0  0
 49 48  1  0  0  0  0
 49 57  1  1  0  0  0
 50 49  1  0  0  0  0
 50 34  1  0  0  0  0
 51 49  1  0  0  0  0
 52 51  2  0  0  0  0
 53 51  1  0  0  0  0
 55 48  1  0  0  0  0
 58 50  1  0  0  0  0
M  END
$$$$
