RRC.pdb
 OpenBabel07022418033D

 59 58  0  0  1  0  0  0  0  0999 V2000
   -0.6480    0.2850    4.1390 N   0  0  0  0  0  0  0  0  0  0  0  0
    0.3470    1.3040    4.0380 C   0  0  0  0  0  0  0  0  0  0  0  0
    0.2120    2.4680    4.5860 N   0  0  0  0  0  0  0  0  0  0  0  0
    1.5440    1.0690    3.3150 N   0  0  0  0  0  0  0  0  0  0  0  0
    2.3500    2.1400    2.7720 C   0  0  0  0  0  0  0  0  0  0  0  0
    3.5530    1.7740    2.0410 C   0  0  0  0  0  0  0  0  0  0  0  0
    3.6460    1.0920    0.7700 C   0  0  0  0  0  0  0  0  0  0  0  0
    2.9990   -0.1980    0.4600 C   0  0  2  0  0  0  0  0  0  0  0  0
    3.5150   -0.6650   -0.9000 N   0  0  0  0  0  0  0  0  0  0  0  0
    1.5180   -0.0210    0.1610 C   0  0  0  0  0  0  0  0  0  0  0  0
    0.7660    0.7880    0.6890 O   0  0  0  0  0  0  0  0  0  0  0  0
   -0.6490   -0.4020    4.9030 H   0  0  0  0  0  0  0  0  0  0  0  0
   -1.4070    0.2230    3.4210 H   0  0  0  0  0  0  0  0  0  0  0  0
   -0.6790    2.6310    5.1180 H   0  0  0  0  0  0  0  0  0  0  0  0
    1.8420    0.0910    3.1770 H   0  0  0  0  0  0  0  0  0  0  0  0
    2.6240    2.7650    3.6890 H   0  0  0  0  0  0  0  0  0  0  0  0
    1.7150    2.8530    2.1830 H   0  0  0  0  0  0  0  0  0  0  0  0
    4.1170    2.7880    1.8820 H   0  0  0  0  0  0  0  0  0  0  0  0
    4.3170    1.3200    2.8040 H   0  0  0  0  0  0  0  0  0  0  0  0
    3.3780    1.8620   -0.0590 H   0  0  0  0  0  0  0  0  0  0  0  0
    4.7580    0.9290    0.5160 H   0  0  0  0  0  0  0  0  0  0  0  0
    3.2390   -0.9720    1.1400 H   0  0  0  0  0  0  0  0  0  0  0  0
    4.5550   -0.4400   -0.8640 H   0  0  0  0  0  0  0  0  0  0  0  0
    3.4630   -1.6960   -0.8490 H   0  0  0  0  0  0  0  0  0  0  0  0
   -3.8140    0.2930    0.9040 N   0  0  0  0  0  0  0  0  0  0  0  0
   -3.9210    0.3190   -0.5100 C   0  0  0  0  0  0  0  0  0  0  0  0
   -4.8750   -0.3800   -1.0560 N   0  0  0  0  0  0  0  0  0  0  0  0
   -3.0180    1.0790   -1.2970 N   0  0  0  0  0  0  0  0  0  0  0  0
   -2.7910    0.8570   -2.6710 C   0  0  0  0  0  0  0  0  0  0  0  0
   -2.0850   -0.3650   -3.1210 C   0  0  0  0  0  0  0  0  0  0  0  0
   -0.6920   -0.5620   -2.6320 C   0  0  0  0  0  0  0  0  0  0  0  0
   -0.5210   -0.7600   -1.1710 C   0  0  2  0  0  0  0  0  0  0  0  0
    0.9140   -0.8740   -0.8310 N   0  0  0  0  0  0  0  0  0  0  0  0
   -1.1130   -2.0830   -0.7290 C   0  0  0  0  0  0  0  0  0  0  0  0
   -2.3180   -2.3310   -0.9190 O   0  0  0  0  0  0  0  0  0  0  0  0
   -4.5550   -0.1190    1.5020 H   0  0  0  0  0  0  0  0  0  0  0  0
   -2.9710    0.6960    1.3670 H   0  0  0  0  0  0  0  0  0  0  0  0
   -5.0440   -0.4330   -2.0720 H   0  0  0  0  0  0  0  0  0  0  0  0
   -2.4960    1.8620   -0.8030 H   0  0  0  0  0  0  0  0  0  0  0  0
   -2.3110    1.7370   -3.1820 H   0  0  0  0  0  0  0  0  0  0  0  0
   -3.8200    0.8240   -3.1650 H   0  0  0  0  0  0  0  0  0  0  0  0
   -2.6660   -1.3080   -2.9340 H   0  0  0  0  0  0  0  0  0  0  0  0
   -2.0110   -0.2660   -4.2590 H   0  0  0  0  0  0  0  0  0  0  0  0
   -0.3290   -1.5240   -3.1200 H   0  0  0  0  0  0  0  0  0  0  0  0
    0.0020    0.2180   -3.0340 H   0  0  0  0  0  0  0  0  0  0  0  0
   -1.0330    0.0150   -0.6040 H   0  0  0  0  0  0  0  0  0  0  0  0
    1.4940   -1.5630   -1.3000 H   0  0  0  0  0  0  0  0  0  0  0  0
   -0.3060   -3.0610   -0.0920 N   0  0  0  0  0  0  0  0  0  0  0  0
   -0.7940   -4.3440    0.3580 C   0  0  1  0  0  0  0  0  0  0  0  0
   -0.1430   -5.4250   -0.4440 C   0  0  0  0  0  0  0  0  0  0  0  0
   -0.6970   -7.0750    0.0550 S   0  0  0  0  0  0  0  0  0  0  0  0
   -0.7010   -4.5470    1.7920 C   0  0  0  0  0  0  0  0  0  0  0  0
   -1.0900   -5.6250    2.2880 O   0  0  0  0  0  0  0  0  0  0  0  0
   -0.1950   -3.5820    2.6340 O   0  0  0  0  0  0  0  0  0  0  0  0
    0.7050   -2.8720    0.0770 H   0  0  0  0  0  0  0  0  0  0  0  0
   -1.8930   -4.3520    0.0960 H   0  0  0  0  0  0  0  0  0  0  0  0
    0.9710   -5.3920   -0.3350 H   0  0  0  0  0  0  0  0  0  0  0  0
   -0.3450   -5.3350   -1.5280 H   0  0  0  0  0  0  0  0  0  0  0  0
   -0.0880   -7.4800    1.2690 H   0  0  0  0  0  0  0  0  0  0  0  0
  1 12  1  0  0  0  0
  2  1  1  0  0  0  0
  2  3  2  0  0  0  0
  3 14  1  0  0  0  0
  4  2  1  0  0  0  0
  5  4  1  0  0  0  0
  5 16  1  0  0  0  0
  6  5  1  0  0  0  0
  6 19  1  0  0  0  0
  7  6  1  0  0  0  0
  8  7  1  0  0  0  0
  8 22  1  1  0  0  0
  9 23  1  0  0  0  0
  9 24  1  0  0  0  0
  9  8  1  0  0  0  0
 10  8  1  0  0  0  0
 10 11  2  0  0  0  0
 13  1  1  0  0  0  0
 15  4  1  0  0  0  0
 17  5  1  0  0  0  0
 18  6  1  0  0  0  0
 20  7  1  0  0  0  0
 21  7  1  0  0  0  0
 25 37  1  0  0  0  0
 25 36  1  0  0  0  0
 26 25  1  0  0  0  0
 27 26  2  0  0  0  0
 28 39  1  0  0  0  0
 28 26  1  0  0  0  0
 29 28  1  0  0  0  0
 30 42  1  0  0  0  0
 30 29  1  0  0  0  0
 30 31  1  0  0  0  0
 31 32  1  0  0  0  0
 32 33  1  0  0  0  0
 32 34  1  0  0  0  0
 32 46  1  1  0  0  0
 33 10  1  0  0  0  0
 34 48  1  0  0  0  0
 35 34  2  0  0  0  0
 38 27  1  0  0  0  0
 40 29  1  0  0  0  0
 41 29  1  0  0  0  0
 43 30  1  0  0  0  0
 44 31  1  0  0  0  0
 45 31  1  0  0  0  0
 47 33  1  0  0  0  0
 48 55  1  0  0  0  0
 48 49  1  0  0  0  0
 49 56  1  6  0  0  0
 49 52  1  0  0  0  0
 50 57  1  0  0  0  0
 50 51  1  0  0  0  0
 50 49  1  0  0  0  0
 51 59  1  0  0  0  0
 52 53  2  0  0  0  0
 52 54  1  0  0  0  0
 58 50  1  0  0  0  0
M  END
$$$$
