RRE.pdb
 OpenBabel07022418033D

 64 63  0  0  1  0  0  0  0  0999 V2000
    5.3830    3.3530    3.4770 N   0  0  0  0  0  0  0  0  0  0  0  0
    6.1780    2.3710    2.8370 C   0  0  0  0  0  0  0  0  0  0  0  0
    7.4280    2.2380    3.1510 N   0  0  0  0  0  0  0  0  0  0  0  0
    5.6330    1.5220    1.8530 N   0  0  0  0  0  0  0  0  0  0  0  0
    6.1980    0.2450    1.5430 C   0  0  0  0  0  0  0  0  0  0  0  0
    5.4450   -0.4950    0.4740 C   0  0  0  0  0  0  0  0  0  0  0  0
    4.0130   -0.7550    0.8770 C   0  0  0  0  0  0  0  0  0  0  0  0
    3.2450   -1.4940   -0.1770 C   0  0  2  0  0  0  0  0  0  0  0  0
    3.1910   -0.7690   -1.4320 N   0  0  0  0  0  0  0  0  0  0  0  0
    1.8750   -1.7520    0.3410 C   0  0  0  0  0  0  0  0  0  0  0  0
    1.7510   -2.3650    1.4310 O   0  0  0  0  0  0  0  0  0  0  0  0
    4.6490    3.0460    4.1550 H   0  0  0  0  0  0  0  0  0  0  0  0
    5.5240    4.3610    3.2790 H   0  0  0  0  0  0  0  0  0  0  0  0
    7.8710    2.8420    3.8720 H   0  0  0  0  0  0  0  0  0  0  0  0
    4.7870    1.8520    1.3400 H   0  0  0  0  0  0  0  0  0  0  0  0
    6.1110   -0.3840    2.4760 H   0  0  0  0  0  0  0  0  0  0  0  0
    7.2870    0.2940    1.3030 H   0  0  0  0  0  0  0  0  0  0  0  0
    5.9740   -1.4860    0.3520 H   0  0  0  0  0  0  0  0  0  0  0  0
    5.5600    0.0390   -0.4670 H   0  0  0  0  0  0  0  0  0  0  0  0
    4.0670   -1.3600    1.8130 H   0  0  0  0  0  0  0  0  0  0  0  0
    3.5590    0.2140    1.1600 H   0  0  0  0  0  0  0  0  0  0  0  0
    3.7840   -2.4420   -0.3980 H   0  0  0  0  0  0  0  0  0  0  0  0
    4.0960   -0.9200   -1.9260 H   0  0  0  0  0  0  0  0  0  0  0  0
    2.9750    0.2380   -1.2820 H   0  0  0  0  0  0  0  0  0  0  0  0
   -5.1640    2.7330    1.1740 N   0  0  0  0  0  0  0  0  0  0  0  0
   -4.0920    2.9580    0.2780 C   0  0  0  0  0  0  0  0  0  0  0  0
   -3.8320    4.1060   -0.2070 N   0  0  0  0  0  0  0  0  0  0  0  0
   -3.2760    1.8240   -0.0800 N   0  0  0  0  0  0  0  0  0  0  0  0
   -1.9200    2.0090   -0.4960 C   0  0  0  0  0  0  0  0  0  0  0  0
   -1.2930    0.6710   -0.7840 C   0  0  0  0  0  0  0  0  0  0  0  0
   -1.2860   -0.2270    0.4230 C   0  0  0  0  0  0  0  0  0  0  0  0
   -0.6480   -1.5590    0.1080 C   0  0  2  0  0  0  0  0  0  0  0  0
    0.7040   -1.3480   -0.3240 N   0  0  0  0  0  0  0  0  0  0  0  0
   -1.4660   -2.3200   -0.8290 C   0  0  0  0  0  0  0  0  0  0  0  0
   -1.1060   -2.7950   -1.9170 O   0  0  0  0  0  0  0  0  0  0  0  0
   -6.0910    2.4750    0.8160 H   0  0  0  0  0  0  0  0  0  0  0  0
   -5.0200    2.8260    2.1960 H   0  0  0  0  0  0  0  0  0  0  0  0
   -4.4010    4.9230    0.0390 H   0  0  0  0  0  0  0  0  0  0  0  0
   -3.6810    0.8840   -0.0340 H   0  0  0  0  0  0  0  0  0  0  0  0
   -1.3070    2.5660    0.2430 H   0  0  0  0  0  0  0  0  0  0  0  0
   -1.9180    2.5940   -1.4350 H   0  0  0  0  0  0  0  0  0  0  0  0
   -1.8610    0.1670   -1.5900 H   0  0  0  0  0  0  0  0  0  0  0  0
   -0.2390    0.8800   -1.0940 H   0  0  0  0  0  0  0  0  0  0  0  0
   -0.5930    0.2640    1.1640 H   0  0  0  0  0  0  0  0  0  0  0  0
   -2.2980   -0.3510    0.8600 H   0  0  0  0  0  0  0  0  0  0  0  0
   -0.6870   -2.1280    1.0840 H   0  0  0  0  0  0  0  0  0  0  0  0
    0.8340   -0.8380   -1.2320 H   0  0  0  0  0  0  0  0  0  0  0  0
   -2.8490   -2.5500   -0.4540 N   0  0  0  0  0  0  0  0  0  0  0  0
   -3.7150   -3.2830   -1.3010 C   0  0  1  0  0  0  0  0  0  0  0  0
   -4.1080   -4.5930   -0.6980 C   0  0  0  0  0  0  0  0  0  0  0  0
   -4.8450   -4.5690    0.5820 C   0  0  0  0  0  0  0  0  0  0  0  0
   -4.1680   -3.9680    1.7330 C   0  0  0  0  0  0  0  0  0  0  0  0
   -4.7100   -3.0610    2.4270 O   0  0  0  0  0  0  0  0  0  0  0  0
   -4.8950   -2.5260   -1.7740 C   0  0  0  0  0  0  0  0  0  0  0  0
   -5.6910   -3.1710   -2.5390 O   0  0  0  0  0  0  0  0  0  0  0  0
   -2.8850   -4.3950    2.0900 O   0  0  0  0  0  0  0  0  0  0  0  0
   -5.2150   -1.2340   -1.4810 O   0  0  0  0  0  0  0  0  0  0  0  0
   -3.1950   -2.1550    0.4430 H   0  0  0  0  0  0  0  0  0  0  0  0
   -3.1610   -3.5600   -2.2600 H   0  0  0  0  0  0  0  0  0  0  0  0
   -4.6450   -5.2420   -1.4620 H   0  0  0  0  0  0  0  0  0  0  0  0
   -3.1640   -5.2080   -0.5140 H   0  0  0  0  0  0  0  0  0  0  0  0
   -5.0840   -5.6420    0.8730 H   0  0  0  0  0  0  0  0  0  0  0  0
   -5.8620   -4.1040    0.4970 H   0  0  0  0  0  0  0  0  0  0  0  0
   -2.6040   -4.4100    3.0650 H   0  0  0  0  0  0  0  0  0  0  0  0
  1 12  1  0  0  0  0
  2  3  2  0  0  0  0
  2  1  1  0  0  0  0
  3 14  1  0  0  0  0
  4  2  1  0  0  0  0
  5  4  1  0  0  0  0
  5 16  1  0  0  0  0
  6  7  1  0  0  0  0
  6  5  1  0  0  0  0
  7 21  1  0  0  0  0
  7 20  1  0  0  0  0
  8 22  1  6  0  0  0
  8 10  1  0  0  0  0
  8  7  1  0  0  0  0
  9 24  1  0  0  0  0
  9  8  1  0  0  0  0
 10 11  2  0  0  0  0
 13  1  1  0  0  0  0
 15  4  1  0  0  0  0
 17  5  1  0  0  0  0
 18  6  1  0  0  0  0
 19  6  1  0  0  0  0
 23  9  1  0  0  0  0
 25 37  1  0  0  0  0
 26 25  1  0  0  0  0
 27 38  1  0  0  0  0
 27 26  2  0  0  0  0
 28 39  1  0  0  0  0
 28 26  1  0  0  0  0
 29 28  1  0  0  0  0
 29 40  1  0  0  0  0
 30 29  1  0  0  0  0
 30 31  1  0  0  0  0
 31 45  1  0  0  0  0
 31 44  1  0  0  0  0
 32 31  1  0  0  0  0
 32 46  1  1  0  0  0
 33 32  1  0  0  0  0
 33 10  1  0  0  0  0
 34 48  1  0  0  0  0
 34 32  1  0  0  0  0
 35 34  2  0  0  0  0
 36 25  1  0  0  0  0
 41 29  1  0  0  0  0
 42 30  1  0  0  0  0
 43 30  1  0  0  0  0
 47 33  1  0  0  0  0
 48 58  1  0  0  0  0
 49 59  1  6  0  0  0
 49 50  1  0  0  0  0
 49 48  1  0  0  0  0
 50 61  1  0  0  0  0
 50 51  1  0  0  0  0
 51 62  1  0  0  0  0
 51 52  1  0  0  0  0
 52 56  1  0  0  0  0
 52 53  2  0  0  0  0
 54 57  1  0  0  0  0
 54 49  1  0  0  0  0
 55 54  2  0  0  0  0
 56 64  1  0  0  0  0
 60 50  1  0  0  0  0
 63 51  1  0  0  0  0
M  END
$$$$
