RRF.pdb
 OpenBabel07022418033D

 68 68  0  0  1  0  0  0  0  0999 V2000
    2.6440   -5.0630    3.8420 N   0  0  0  0  0  0  0  0  0  0  0  0
    2.6130   -3.6580    3.7150 C   0  0  0  0  0  0  0  0  0  0  0  0
    2.1150   -2.9190    4.6730 N   0  0  0  0  0  0  0  0  0  0  0  0
    3.0990   -2.9590    2.5850 N   0  0  0  0  0  0  0  0  0  0  0  0
    3.2480   -1.4950    2.5700 C   0  0  0  0  0  0  0  0  0  0  0  0
    3.7820   -1.1110    1.2300 C   0  0  0  0  0  0  0  0  0  0  0  0
    4.0390    0.3270    0.9960 C   0  0  0  0  0  0  0  0  0  0  0  0
    2.8380    1.2190    1.1140 C   0  0  2  0  0  0  0  0  0  0  0  0
    2.2010    1.2170    2.3970 N   0  0  0  0  0  0  0  0  0  0  0  0
    1.9020    0.8760    0.0140 C   0  0  0  0  0  0  0  0  0  0  0  0
    2.2760    0.8010   -1.1600 O   0  0  0  0  0  0  0  0  0  0  0  0
    1.7610   -5.5950    3.8450 H   0  0  0  0  0  0  0  0  0  0  0  0
    3.5450   -5.5520    3.9310 H   0  0  0  0  0  0  0  0  0  0  0  0
    1.7340   -3.3540    5.5460 H   0  0  0  0  0  0  0  0  0  0  0  0
    3.3570   -3.4910    1.7450 H   0  0  0  0  0  0  0  0  0  0  0  0
    2.2390   -1.0450    2.7690 H   0  0  0  0  0  0  0  0  0  0  0  0
    3.9530   -1.2100    3.3510 H   0  0  0  0  0  0  0  0  0  0  0  0
    3.1050   -1.4740    0.4020 H   0  0  0  0  0  0  0  0  0  0  0  0
    4.7570   -1.6600    1.0600 H   0  0  0  0  0  0  0  0  0  0  0  0
    4.4350    0.4160   -0.0640 H   0  0  0  0  0  0  0  0  0  0  0  0
    4.8890    0.7110    1.6180 H   0  0  0  0  0  0  0  0  0  0  0  0
    3.2370    2.2700    0.9770 H   0  0  0  0  0  0  0  0  0  0  0  0
    2.8100    1.6140    3.1460 H   0  0  0  0  0  0  0  0  0  0  0  0
    1.3400    1.8070    2.3860 H   0  0  0  0  0  0  0  0  0  0  0  0
   -1.5880    3.6350    1.5830 N   0  0  0  0  0  0  0  0  0  0  0  0
   -1.2450    3.8960    0.2380 C   0  0  0  0  0  0  0  0  0  0  0  0
   -2.0490    4.4980   -0.5740 N   0  0  0  0  0  0  0  0  0  0  0  0
    0.0500    3.4820   -0.2750 N   0  0  0  0  0  0  0  0  0  0  0  0
    0.1990    3.3380   -1.6970 C   0  0  0  0  0  0  0  0  0  0  0  0
   -0.5530    2.2760   -2.3640 C   0  0  0  0  0  0  0  0  0  0  0  0
   -0.3250    0.8370   -2.1390 C   0  0  0  0  0  0  0  0  0  0  0  0
   -0.3950    0.2840   -0.8200 C   0  0  2  0  0  0  0  0  0  0  0  0
    0.5110    0.6090    0.2070 N   0  0  0  0  0  0  0  0  0  0  0  0
   -0.6230   -1.1740   -0.7900 C   0  0  0  0  0  0  0  0  0  0  0  0
    0.0010   -1.9110    0.0570 O   0  0  0  0  0  0  0  0  0  0  0  0
   -0.8660    3.6040    2.3230 H   0  0  0  0  0  0  0  0  0  0  0  0
   -2.5770    3.4710    1.8370 H   0  0  0  0  0  0  0  0  0  0  0  0
   -2.9830    4.8330   -0.3230 H   0  0  0  0  0  0  0  0  0  0  0  0
    0.7840    3.3470    0.4440 H   0  0  0  0  0  0  0  0  0  0  0  0
   -0.0330    4.3690   -2.1280 H   0  0  0  0  0  0  0  0  0  0  0  0
    1.3050    3.2570   -1.8870 H   0  0  0  0  0  0  0  0  0  0  0  0
   -1.6820    2.4810   -2.1570 H   0  0  0  0  0  0  0  0  0  0  0  0
   -0.5170    2.5170   -3.4870 H   0  0  0  0  0  0  0  0  0  0  0  0
   -1.1290    0.3330   -2.7850 H   0  0  0  0  0  0  0  0  0  0  0  0
    0.5840    0.5870   -2.7540 H   0  0  0  0  0  0  0  0  0  0  0  0
   -1.3980    0.7170   -0.3980 H   0  0  0  0  0  0  0  0  0  0  0  0
    0.1630    0.6560    1.1840 H   0  0  0  0  0  0  0  0  0  0  0  0
   -1.5210   -1.8660   -1.6600 N   0  0  0  0  0  0  0  0  0  0  0  0
   -1.6690   -3.3260   -1.5390 C   0  0  1  0  0  0  0  0  0  0  0  0
   -3.1590   -3.6150   -1.3440 C   0  0  0  0  0  0  0  0  0  0  0  0
   -3.6900   -2.9600   -0.1290 C   0  0  0  0  0  0  0  0  0  0  0  0
   -4.2000   -1.6890   -0.1980 C   0  0  0  0  0  0  0  0  0  0  0  0
   -4.6860   -1.1120    0.9520 C   0  0  0  0  0  0  0  0  0  0  0  0
   -4.6810   -1.7560    2.1680 C   0  0  0  0  0  0  0  0  0  0  0  0
   -4.1620   -3.0320    2.2050 C   0  0  0  0  0  0  0  0  0  0  0  0
   -3.6710   -3.6270    1.0700 C   0  0  0  0  0  0  0  0  0  0  0  0
   -1.3110   -3.9430   -2.8420 C   0  0  0  0  0  0  0  0  0  0  0  0
   -1.3490   -5.1910   -3.0180 O   0  0  0  0  0  0  0  0  0  0  0  0
   -0.9260   -3.1170   -3.8870 O   0  0  0  0  0  0  0  0  0  0  0  0
   -2.0730   -1.3450   -2.3740 H   0  0  0  0  0  0  0  0  0  0  0  0
   -1.0500   -3.7060   -0.7260 H   0  0  0  0  0  0  0  0  0  0  0  0
   -3.3490   -4.7060   -1.3480 H   0  0  0  0  0  0  0  0  0  0  0  0
   -3.6630   -3.2150   -2.2510 H   0  0  0  0  0  0  0  0  0  0  0  0
   -4.2280   -1.1290   -1.1460 H   0  0  0  0  0  0  0  0  0  0  0  0
   -5.0910   -0.1040    0.8960 H   0  0  0  0  0  0  0  0  0  0  0  0
   -5.0650   -1.3010    3.0790 H   0  0  0  0  0  0  0  0  0  0  0  0
   -4.1210   -3.6120    3.1350 H   0  0  0  0  0  0  0  0  0  0  0  0
   -3.2640   -4.6530    1.1490 H   0  0  0  0  0  0  0  0  0  0  0  0
  1 12  1  0  0  0  0
  1 13  1  0  0  0  0
  2  1  1  0  0  0  0
  2  3  2  0  0  0  0
  3 14  1  0  0  0  0
  4  2  1  0  0  0  0
  5  4  1  0  0  0  0
  5 16  1  0  0  0  0
  5 17  1  0  0  0  0
  6  5  1  0  0  0  0
  7  8  1  0  0  0  0
  7  6  1  0  0  0  0
  7 21  1  0  0  0  0
  8 22  1  6  0  0  0
  8  9  1  0  0  0  0
  9 23  1  0  0  0  0
 10 33  1  0  0  0  0
 10  8  1  0  0  0  0
 11 10  2  0  0  0  0
 15  4  1  0  0  0  0
 18  6  1  0  0  0  0
 19  6  1  0  0  0  0
 20  7  1  0  0  0  0
 24  9  1  0  0  0  0
 25 37  1  0  0  0  0
 25 36  1  0  0  0  0
 26 25  1  0  0  0  0
 27 38  1  0  0  0  0
 27 26  2  0  0  0  0
 28 26  1  0  0  0  0
 28 39  1  0  0  0  0
 29 28  1  0  0  0  0
 30 42  1  0  0  0  0
 30 31  1  0  0  0  0
 30 29  1  0  0  0  0
 31 32  1  0  0  0  0
 32 34  1  0  0  0  0
 32 46  1  1  0  0  0
 32 33  1  0  0  0  0
 33 47  1  0  0  0  0
 34 35  2  0  0  0  0
 40 29  1  0  0  0  0
 41 29  1  0  0  0  0
 43 30  1  0  0  0  0
 44 31  1  0  0  0  0
 45 31  1  0  0  0  0
 48 49  1  0  0  0  0
 48 34  1  0  0  0  0
 49 50  1  0  0  0  0
 49 61  1  1  0  0  0
 50 51  1  0  0  0  0
 51 56  1  0  0  0  0
 52 51  2  0  0  0  0
 52 53  1  0  0  0  0
 53 54  2  0  0  0  0
 54 55  1  0  0  0  0
 54 66  1  0  0  0  0
 55 67  1  0  0  0  0
 56 68  1  0  0  0  0
 56 55  2  0  0  0  0
 57 49  1  0  0  0  0
 58 57  1  0  0  0  0
 59 57  2  0  0  0  0
 60 48  1  0  0  0  0
 62 50  1  0  0  0  0
 63 50  1  0  0  0  0
 64 52  1  0  0  0  0
 65 53  1  0  0  0  0
M  END
$$$$
