RRG.pdb
 OpenBabel07022418033D

 55 54  0  0  1  0  0  0  0  0999 V2000
    2.4800   -4.1870    4.0110 N   0  0  0  0  0  0  0  0  0  0  0  0
    1.9010   -3.7720    2.7850 C   0  0  0  0  0  0  0  0  0  0  0  0
    0.6320   -3.7850    2.5700 N   0  0  0  0  0  0  0  0  0  0  0  0
    2.7570   -3.3210    1.7440 N   0  0  0  0  0  0  0  0  0  0  0  0
    2.2510   -2.4560    0.6600 C   0  0  0  0  0  0  0  0  0  0  0  0
    3.3730   -2.1550   -0.2680 C   0  0  0  0  0  0  0  0  0  0  0  0
    3.0710   -1.2930   -1.4430 C   0  0  0  0  0  0  0  0  0  0  0  0
    2.5910    0.0820   -1.1810 C   0  0  2  0  0  0  0  0  0  0  0  0
    3.6360    0.7580   -0.3910 N   0  0  0  0  0  0  0  0  0  0  0  0
    1.3190    0.2880   -0.5380 C   0  0  0  0  0  0  0  0  0  0  0  0
    1.2470    0.9580    0.5380 O   0  0  0  0  0  0  0  0  0  0  0  0
    3.4650   -4.5180    4.0350 H   0  0  0  0  0  0  0  0  0  0  0  0
    1.9220   -4.1650    4.9020 H   0  0  0  0  0  0  0  0  0  0  0  0
    0.0170   -4.1250    3.3610 H   0  0  0  0  0  0  0  0  0  0  0  0
    3.7550   -3.6040    1.7440 H   0  0  0  0  0  0  0  0  0  0  0  0
    1.8960   -1.5560    1.1500 H   0  0  0  0  0  0  0  0  0  0  0  0
    1.4490   -3.0770    0.1940 H   0  0  0  0  0  0  0  0  0  0  0  0
    3.7440   -3.1490   -0.6750 H   0  0  0  0  0  0  0  0  0  0  0  0
    4.2400   -1.7580    0.3160 H   0  0  0  0  0  0  0  0  0  0  0  0
    4.0580   -1.1730   -1.9930 H   0  0  0  0  0  0  0  0  0  0  0  0
    2.4360   -1.8590   -2.1650 H   0  0  0  0  0  0  0  0  0  0  0  0
    2.6010    0.6970   -2.1470 H   0  0  0  0  0  0  0  0  0  0  0  0
    3.3910    0.6600    0.6360 H   0  0  0  0  0  0  0  0  0  0  0  0
    3.6270    1.7830   -0.5720 H   0  0  0  0  0  0  0  0  0  0  0  0
   -1.5570    4.9640    2.2010 N   0  0  0  0  0  0  0  0  0  0  0  0
   -2.5980    4.0180    1.9710 C   0  0  0  0  0  0  0  0  0  0  0  0
   -3.4690    3.8820    2.9150 N   0  0  0  0  0  0  0  0  0  0  0  0
   -2.6920    3.2530    0.7750 N   0  0  0  0  0  0  0  0  0  0  0  0
   -3.3590    1.9810    0.8490 C   0  0  0  0  0  0  0  0  0  0  0  0
   -3.4120    1.2480   -0.4530 C   0  0  0  0  0  0  0  0  0  0  0  0
   -2.1240    0.9130   -1.0720 C   0  0  0  0  0  0  0  0  0  0  0  0
   -1.1810    0.0560   -0.2860 C   0  0  2  0  0  0  0  0  0  0  0  0
    0.0530   -0.2010   -0.9980 N   0  0  0  0  0  0  0  0  0  0  0  0
   -1.8520   -1.2320    0.0110 C   0  0  0  0  0  0  0  0  0  0  0  0
   -2.9160   -1.2780    0.7080 O   0  0  0  0  0  0  0  0  0  0  0  0
   -0.6410    4.6500    2.5730 H   0  0  0  0  0  0  0  0  0  0  0  0
   -1.7220    5.9580    1.9950 H   0  0  0  0  0  0  0  0  0  0  0  0
   -4.2740    3.2290    2.8770 H   0  0  0  0  0  0  0  0  0  0  0  0
   -2.2730    3.6620   -0.0790 H   0  0  0  0  0  0  0  0  0  0  0  0
   -2.9730    1.3910    1.6880 H   0  0  0  0  0  0  0  0  0  0  0  0
   -4.4310    2.2140    1.1140 H   0  0  0  0  0  0  0  0  0  0  0  0
   -4.0860    0.3820   -0.3300 H   0  0  0  0  0  0  0  0  0  0  0  0
   -4.0030    1.9350   -1.1410 H   0  0  0  0  0  0  0  0  0  0  0  0
   -1.6430    1.8630   -1.4320 H   0  0  0  0  0  0  0  0  0  0  0  0
   -2.3450    0.3520   -2.0240 H   0  0  0  0  0  0  0  0  0  0  0  0
   -1.0100    0.5690    0.6780 H   0  0  0  0  0  0  0  0  0  0  0  0
    0.0790   -0.7490   -1.8780 H   0  0  0  0  0  0  0  0  0  0  0  0
   -1.3620   -2.4790   -0.4550 N   0  0  0  0  0  0  0  0  0  0  0  0
   -2.0820   -3.6810   -0.1140 C   0  0  0  0  0  0  0  0  0  0  0  0
   -1.4300   -4.8900   -0.6810 C   0  0  0  0  0  0  0  0  0  0  0  0
   -1.9340   -6.0140   -0.4750 O   0  0  0  0  0  0  0  0  0  0  0  0
   -0.2800   -4.7470   -1.4280 O   0  0  0  0  0  0  0  0  0  0  0  0
   -0.4830   -2.4970   -1.0440 H   0  0  0  0  0  0  0  0  0  0  0  0
   -2.0630   -3.7950    0.9930 H   0  0  0  0  0  0  0  0  0  0  0  0
   -3.1310   -3.6040   -0.4590 H   0  0  0  0  0  0  0  0  0  0  0  0
  1 12  1  0  0  0  0
  1 13  1  0  0  0  0
  2  1  1  0  0  0  0
  3  2  2  0  0  0  0
  3 14  1  0  0  0  0
  4  2  1  0  0  0  0
  5 16  1  0  0  0  0
  5  4  1  0  0  0  0
  6 19  1  0  0  0  0
  6  5  1  0  0  0  0
  7  8  1  0  0  0  0
  7  6  1  0  0  0  0
  8 22  1  6  0  0  0
  8 10  1  0  0  0  0
  8  9  1  0  0  0  0
  9 23  1  0  0  0  0
 10 11  2  0  0  0  0
 15  4  1  0  0  0  0
 17  5  1  0  0  0  0
 18  6  1  0  0  0  0
 20  7  1  0  0  0  0
 21  7  1  0  0  0  0
 24  9  1  0  0  0  0
 25 36  1  0  0  0  0
 26 25  1  0  0  0  0
 26 27  2  0  0  0  0
 28 29  1  0  0  0  0
 28 26  1  0  0  0  0
 29 41  1  0  0  0  0
 29 40  1  0  0  0  0
 30 42  1  0  0  0  0
 30 29  1  0  0  0  0
 31 30  1  0  0  0  0
 31 32  1  0  0  0  0
 32 34  1  0  0  0  0
 32 46  1  1  0  0  0
 33 10  1  0  0  0  0
 33 32  1  0  0  0  0
 34 35  2  0  0  0  0
 37 25  1  0  0  0  0
 38 27  1  0  0  0  0
 39 28  1  0  0  0  0
 43 30  1  0  0  0  0
 44 31  1  0  0  0  0
 45 31  1  0  0  0  0
 47 33  1  0  0  0  0
 48 49  1  0  0  0  0
 48 34  1  0  0  0  0
 49 54  1  0  0  0  0
 50 51  1  0  0  0  0
 50 49  1  0  0  0  0
 52 50  2  0  0  0  0
 53 48  1  0  0  0  0
 55 49  1  0  0  0  0
M  END
$$$$
