RRI.pdb
 OpenBabel07022418033D

 67 66  0  0  1  0  0  0  0  0999 V2000
    4.5170   -1.8570    4.1040 N   0  0  0  0  0  0  0  0  0  0  0  0
    5.0480   -2.0420    2.7860 C   0  0  0  0  0  0  0  0  0  0  0  0
    5.9320   -2.9600    2.6010 N   0  0  0  0  0  0  0  0  0  0  0  0
    4.6070   -1.2270    1.7090 N   0  0  0  0  0  0  0  0  0  0  0  0
    4.7290   -1.7590    0.3630 C   0  0  0  0  0  0  0  0  0  0  0  0
    4.2070   -0.7610   -0.6560 C   0  0  0  0  0  0  0  0  0  0  0  0
    2.7500   -0.4610   -0.3910 C   0  0  0  0  0  0  0  0  0  0  0  0
    2.2080    0.5440   -1.3970 C   0  0  2  0  0  0  0  0  0  0  0  0
    3.0330    1.7450   -1.2170 N   0  0  0  0  0  0  0  0  0  0  0  0
    0.8130    0.9280   -1.0640 C   0  0  0  0  0  0  0  0  0  0  0  0
    0.5430    2.1120   -0.6650 O   0  0  0  0  0  0  0  0  0  0  0  0
    4.3640   -0.8740    4.4240 H   0  0  0  0  0  0  0  0  0  0  0  0
    4.2800   -2.6450    4.7430 H   0  0  0  0  0  0  0  0  0  0  0  0
    6.2600   -3.5600    3.3870 H   0  0  0  0  0  0  0  0  0  0  0  0
    4.2140   -0.2770    1.9230 H   0  0  0  0  0  0  0  0  0  0  0  0
    4.0420   -2.6520    0.3070 H   0  0  0  0  0  0  0  0  0  0  0  0
    5.7700   -2.0400    0.1740 H   0  0  0  0  0  0  0  0  0  0  0  0
    4.3660   -1.1500   -1.6680 H   0  0  0  0  0  0  0  0  0  0  0  0
    4.8340    0.1560   -0.5670 H   0  0  0  0  0  0  0  0  0  0  0  0
    2.1860   -1.4050   -0.5720 H   0  0  0  0  0  0  0  0  0  0  0  0
    2.6540   -0.0960    0.6400 H   0  0  0  0  0  0  0  0  0  0  0  0
    2.3480    0.2110   -2.4280 H   0  0  0  0  0  0  0  0  0  0  0  0
    2.6910    2.2040   -0.3350 H   0  0  0  0  0  0  0  0  0  0  0  0
    2.8730    2.4140   -2.0090 H   0  0  0  0  0  0  0  0  0  0  0  0
   -4.4670    4.5040    0.9090 N   0  0  0  0  0  0  0  0  0  0  0  0
   -4.2990    4.0130   -0.3940 C   0  0  0  0  0  0  0  0  0  0  0  0
   -4.3850    4.7790   -1.4250 N   0  0  0  0  0  0  0  0  0  0  0  0
   -4.0210    2.6100   -0.5760 N   0  0  0  0  0  0  0  0  0  0  0  0
   -4.3150    1.9730   -1.8120 C   0  0  0  0  0  0  0  0  0  0  0  0
   -3.8960    0.5740   -2.0070 C   0  0  0  0  0  0  0  0  0  0  0  0
   -2.4690    0.2350   -2.0270 C   0  0  0  0  0  0  0  0  0  0  0  0
   -1.6700    0.4770   -0.8130 C   0  0  2  0  0  0  0  0  0  0  0  0
   -0.2780    0.0550   -1.1580 N   0  0  0  0  0  0  0  0  0  0  0  0
   -2.1060   -0.4500    0.2820 C   0  0  0  0  0  0  0  0  0  0  0  0
   -3.2440   -0.4320    0.7710 O   0  0  0  0  0  0  0  0  0  0  0  0
   -3.7710    5.1600    1.3380 H   0  0  0  0  0  0  0  0  0  0  0  0
   -5.2780    4.2570    1.5320 H   0  0  0  0  0  0  0  0  0  0  0  0
   -4.5820    5.7920   -1.3410 H   0  0  0  0  0  0  0  0  0  0  0  0
   -3.6390    2.1250    0.2280 H   0  0  0  0  0  0  0  0  0  0  0  0
   -3.9340    2.6100   -2.6890 H   0  0  0  0  0  0  0  0  0  0  0  0
   -5.4470    2.0490   -1.9460 H   0  0  0  0  0  0  0  0  0  0  0  0
   -4.3880   -0.0580   -1.2140 H   0  0  0  0  0  0  0  0  0  0  0  0
   -4.3670    0.1490   -2.9570 H   0  0  0  0  0  0  0  0  0  0  0  0
   -2.4010   -0.8820   -2.2370 H   0  0  0  0  0  0  0  0  0  0  0  0
   -1.9650    0.7050   -2.9450 H   0  0  0  0  0  0  0  0  0  0  0  0
   -1.6530    1.5270   -0.5320 H   0  0  0  0  0  0  0  0  0  0  0  0
   -0.1300   -0.9170   -1.4840 H   0  0  0  0  0  0  0  0  0  0  0  0
    0.7360   -4.2710    1.8920 C   0  0  0  0  0  0  0  0  0  0  0  0
   -0.3900   -4.3240    0.9110 C   0  0  0  0  0  0  0  0  0  0  0  0
   -1.6850   -3.7750    1.4290 C   0  0  2  0  0  0  0  0  0  0  0  0
   -2.7600   -3.8900    0.3360 C   0  0  0  0  0  0  0  0  0  0  0  0
   -1.6230   -2.3440    1.9040 C   0  0  2  0  0  0  0  0  0  0  0  0
   -1.2160   -1.4380    0.8460 N   0  0  0  0  0  0  0  0  0  0  0  0
   -0.9040   -2.1290    3.1580 C   0  0  0  0  0  0  0  0  0  0  0  0
   -1.1130   -2.8130    4.1930 O   0  0  0  0  0  0  0  0  0  0  0  0
    0.0850   -1.1390    3.3200 O   0  0  0  0  0  0  0  0  0  0  0  0
    1.1950   -3.2800    2.0210 H   0  0  0  0  0  0  0  0  0  0  0  0
    0.3760   -4.6880    2.8600 H   0  0  0  0  0  0  0  0  0  0  0  0
    1.5910   -4.9450    1.5830 H   0  0  0  0  0  0  0  0  0  0  0  0
   -0.1060   -3.9230   -0.0820 H   0  0  0  0  0  0  0  0  0  0  0  0
   -0.5900   -5.4220    0.7210 H   0  0  0  0  0  0  0  0  0  0  0  0
   -2.0150   -4.4600    2.2360 H   0  0  0  0  0  0  0  0  0  0  0  0
   -2.3160   -3.4530   -0.5740 H   0  0  0  0  0  0  0  0  0  0  0  0
   -3.7070   -3.4530    0.6480 H   0  0  0  0  0  0  0  0  0  0  0  0
   -2.9620   -4.9650    0.1100 H   0  0  0  0  0  0  0  0  0  0  0  0
   -2.6990   -2.0770    2.1190 H   0  0  0  0  0  0  0  0  0  0  0  0
   -0.2560   -1.4480    0.4380 H   0  0  0  0  0  0  0  0  0  0  0  0
  1 12  1  0  0  0  0
  1 13  1  0  0  0  0
  2  1  1  0  0  0  0
  3  2  2  0  0  0  0
  3 14  1  0  0  0  0
  4 15  1  0  0  0  0
  4  2  1  0  0  0  0
  5  4  1  0  0  0  0
  6 19  1  0  0  0  0
  6  7  1  0  0  0  0
  6  5  1  0  0  0  0
  7 21  1  0  0  0  0
  8 22  1  6  0  0  0
  8  9  1  0  0  0  0
  8 10  1  0  0  0  0
  8  7  1  0  0  0  0
  9 23  1  0  0  0  0
 10 11  2  0  0  0  0
 16  5  1  0  0  0  0
 17  5  1  0  0  0  0
 18  6  1  0  0  0  0
 20  7  1  0  0  0  0
 24  9  1  0  0  0  0
 25 36  1  0  0  0  0
 25 37  1  0  0  0  0
 26 25  1  0  0  0  0
 27 38  1  0  0  0  0
 27 26  2  0  0  0  0
 28 26  1  0  0  0  0
 28 39  1  0  0  0  0
 29 28  1  0  0  0  0
 30 29  1  0  0  0  0
 30 42  1  0  0  0  0
 31 30  1  0  0  0  0
 31 32  1  0  0  0  0
 32 46  1  1  0  0  0
 32 34  1  0  0  0  0
 33 10  1  0  0  0  0
 33 32  1  0  0  0  0
 34 35  2  0  0  0  0
 34 53  1  0  0  0  0
 40 29  1  0  0  0  0
 41 29  1  0  0  0  0
 43 30  1  0  0  0  0
 44 31  1  0  0  0  0
 45 31  1  0  0  0  0
 47 33  1  0  0  0  0
 48 57  1  0  0  0  0
 48 58  1  0  0  0  0
 49 50  1  0  0  0  0
 49 48  1  0  0  0  0
 50 52  1  0  0  0  0
 50 62  1  1  0  0  0
 51 64  1  0  0  0  0
 51 50  1  0  0  0  0
 52 66  1  1  0  0  0
 52 54  1  0  0  0  0
 53 52  1  0  0  0  0
 54 56  2  0  0  0  0
 54 55  1  0  0  0  0
 59 48  1  0  0  0  0
 60 49  1  0  0  0  0
 61 49  1  0  0  0  0
 63 51  1  0  0  0  0
 65 51  1  0  0  0  0
 67 53  1  0  0  0  0
M  END
$$$$
