RRL.pdb
 OpenBabel07022418033D

 67 66  0  0  1  0  0  0  0  0999 V2000
    2.0780   -0.5470    5.2860 N   0  0  0  0  0  0  0  0  0  0  0  0
    2.8870   -0.4880    4.1280 C   0  0  0  0  0  0  0  0  0  0  0  0
    2.7140   -1.3010    3.1280 N   0  0  0  0  0  0  0  0  0  0  0  0
    3.9470    0.4490    3.9650 N   0  0  0  0  0  0  0  0  0  0  0  0
    4.4540    0.7820    2.6520 C   0  0  0  0  0  0  0  0  0  0  0  0
    3.3500    1.5620    1.9330 C   0  0  0  0  0  0  0  0  0  0  0  0
    3.8140    1.9290    0.5620 C   0  0  0  0  0  0  0  0  0  0  0  0
    2.8020    2.7100   -0.2140 C   0  0  2  0  0  0  0  0  0  0  0  0
    2.5180    3.9350    0.5100 N   0  0  0  0  0  0  0  0  0  0  0  0
    1.5360    1.9830   -0.4670 C   0  0  0  0  0  0  0  0  0  0  0  0
    0.4570    2.5610   -0.0880 O   0  0  0  0  0  0  0  0  0  0  0  0
    1.1750   -0.0450    5.3030 H   0  0  0  0  0  0  0  0  0  0  0  0
    2.3740   -1.0880    6.1270 H   0  0  0  0  0  0  0  0  0  0  0  0
    1.9630   -1.9970    3.2010 H   0  0  0  0  0  0  0  0  0  0  0  0
    4.3430    0.8850    4.8190 H   0  0  0  0  0  0  0  0  0  0  0  0
    4.6780   -0.1570    2.0940 H   0  0  0  0  0  0  0  0  0  0  0  0
    5.3160    1.4390    2.7660 H   0  0  0  0  0  0  0  0  0  0  0  0
    3.2050    2.5080    2.5110 H   0  0  0  0  0  0  0  0  0  0  0  0
    2.3900    1.0320    1.9570 H   0  0  0  0  0  0  0  0  0  0  0  0
    4.6980    2.6180    0.6920 H   0  0  0  0  0  0  0  0  0  0  0  0
    4.2150    1.0580    0.0030 H   0  0  0  0  0  0  0  0  0  0  0  0
    3.3010    2.9630   -1.2030 H   0  0  0  0  0  0  0  0  0  0  0  0
    1.4940    4.1840    0.4200 H   0  0  0  0  0  0  0  0  0  0  0  0
    3.1460    4.6880    0.1870 H   0  0  0  0  0  0  0  0  0  0  0  0
   -6.0100   -1.1110   -2.7790 N   0  0  0  0  0  0  0  0  0  0  0  0
   -4.9300   -0.1760   -2.9210 C   0  0  0  0  0  0  0  0  0  0  0  0
   -5.0980    1.0830   -2.8290 N   0  0  0  0  0  0  0  0  0  0  0  0
   -3.6310   -0.7270   -3.1750 N   0  0  0  0  0  0  0  0  0  0  0  0
   -2.4540   -0.0010   -2.7710 C   0  0  0  0  0  0  0  0  0  0  0  0
   -1.2360   -0.8250   -3.1570 C   0  0  0  0  0  0  0  0  0  0  0  0
    0.0550   -0.1870   -2.7920 C   0  0  0  0  0  0  0  0  0  0  0  0
    0.1750    0.0620   -1.3200 C   0  0  2  0  0  0  0  0  0  0  0  0
    1.4910    0.7210   -1.0920 N   0  0  0  0  0  0  0  0  0  0  0  0
    0.2140   -1.2100   -0.5760 C   0  0  0  0  0  0  0  0  0  0  0  0
    1.3420   -1.5570   -0.0760 O   0  0  0  0  0  0  0  0  0  0  0  0
   -6.5570   -1.1840   -1.9090 H   0  0  0  0  0  0  0  0  0  0  0  0
   -6.2640   -1.7410   -3.5630 H   0  0  0  0  0  0  0  0  0  0  0  0
   -6.0750    1.4200   -2.6430 H   0  0  0  0  0  0  0  0  0  0  0  0
   -3.5160   -1.6510   -3.6500 H   0  0  0  0  0  0  0  0  0  0  0  0
   -2.4690    0.2540   -1.6930 H   0  0  0  0  0  0  0  0  0  0  0  0
   -2.4760    0.9620   -3.3230 H   0  0  0  0  0  0  0  0  0  0  0  0
   -1.3340   -1.8930   -2.9530 H   0  0  0  0  0  0  0  0  0  0  0  0
   -1.2610   -0.7790   -4.3120 H   0  0  0  0  0  0  0  0  0  0  0  0
    0.8870   -0.8190   -3.1810 H   0  0  0  0  0  0  0  0  0  0  0  0
    0.1270    0.7580   -3.3860 H   0  0  0  0  0  0  0  0  0  0  0  0
   -0.6240    0.7380   -0.9850 H   0  0  0  0  0  0  0  0  0  0  0  0
    2.3520    0.2540   -1.3900 H   0  0  0  0  0  0  0  0  0  0  0  0
   -3.1870   -3.1380    3.2990 C   0  0  0  0  0  0  0  0  0  0  0  0
   -2.0210   -2.6100    2.4500 C   0  0  0  0  0  0  0  0  0  0  0  0
   -0.8980   -2.3100    3.3720 C   0  0  0  0  0  0  0  0  0  0  0  0
   -1.7790   -3.6000    1.3810 C   0  0  0  0  0  0  0  0  0  0  0  0
   -0.6980   -3.3340    0.4110 C   0  0  2  0  0  0  0  0  0  0  0  0
   -0.8650   -2.0990   -0.3460 N   0  0  0  0  0  0  0  0  0  0  0  0
   -0.6760   -4.5120   -0.5360 C   0  0  0  0  0  0  0  0  0  0  0  0
   -0.5320   -5.6830   -0.1150 O   0  0  0  0  0  0  0  0  0  0  0  0
   -0.8130   -4.3700   -1.9090 O   0  0  0  0  0  0  0  0  0  0  0  0
   -3.7780   -3.8520    2.6980 H   0  0  0  0  0  0  0  0  0  0  0  0
   -2.7440   -3.7160    4.1420 H   0  0  0  0  0  0  0  0  0  0  0  0
   -3.8230   -2.2980    3.6500 H   0  0  0  0  0  0  0  0  0  0  0  0
   -2.3910   -1.6250    2.0500 H   0  0  0  0  0  0  0  0  0  0  0  0
   -1.3280   -2.0610    4.3790 H   0  0  0  0  0  0  0  0  0  0  0  0
   -0.1900   -3.1350    3.5440 H   0  0  0  0  0  0  0  0  0  0  0  0
   -0.3610   -1.3560    3.0870 H   0  0  0  0  0  0  0  0  0  0  0  0
   -2.7490   -3.7110    0.8130 H   0  0  0  0  0  0  0  0  0  0  0  0
   -1.6050   -4.6220    1.8050 H   0  0  0  0  0  0  0  0  0  0  0  0
    0.3110   -3.3230    0.8530 H   0  0  0  0  0  0  0  0  0  0  0  0
   -1.7970   -1.8350   -0.7170 H   0  0  0  0  0  0  0  0  0  0  0  0
  1 12  1  0  0  0  0
  1 13  1  0  0  0  0
  2  1  1  0  0  0  0
  3 14  1  0  0  0  0
  3  2  2  0  0  0  0
  4  2  1  0  0  0  0
  4 15  1  0  0  0  0
  5 17  1  0  0  0  0
  5  4  1  0  0  0  0
  6 19  1  0  0  0  0
  6 18  1  0  0  0  0
  6  5  1  0  0  0  0
  7 20  1  0  0  0  0
  7  6  1  0  0  0  0
  8 22  1  6  0  0  0
  8  9  1  0  0  0  0
  8  7  1  0  0  0  0
 10  8  1  0  0  0  0
 10 11  2  0  0  0  0
 16  5  1  0  0  0  0
 21  7  1  0  0  0  0
 23  9  1  0  0  0  0
 24  9  1  0  0  0  0
 25 36  1  0  0  0  0
 26 27  2  0  0  0  0
 26 25  1  0  0  0  0
 27 38  1  0  0  0  0
 28 26  1  0  0  0  0
 28 29  1  0  0  0  0
 29 40  1  0  0  0  0
 30 42  1  0  0  0  0
 30 31  1  0  0  0  0
 30 29  1  0  0  0  0
 31 32  1  0  0  0  0
 32 33  1  0  0  0  0
 32 46  1  1  0  0  0
 32 34  1  0  0  0  0
 33 10  1  0  0  0  0
 34 53  1  0  0  0  0
 34 35  2  0  0  0  0
 37 25  1  0  0  0  0
 39 28  1  0  0  0  0
 41 29  1  0  0  0  0
 43 30  1  0  0  0  0
 44 31  1  0  0  0  0
 45 31  1  0  0  0  0
 47 33  1  0  0  0  0
 48 59  1  0  0  0  0
 48 58  1  0  0  0  0
 49 48  1  0  0  0  0
 49 50  1  0  0  0  0
 50 62  1  0  0  0  0
 50 61  1  0  0  0  0
 51 65  1  0  0  0  0
 51 49  1  0  0  0  0
 52 66  1  1  0  0  0
 52 51  1  0  0  0  0
 53 52  1  0  0  0  0
 54 55  1  0  0  0  0
 54 52  1  0  0  0  0
 56 54  2  0  0  0  0
 57 48  1  0  0  0  0
 60 49  1  0  0  0  0
 63 50  1  0  0  0  0
 64 51  1  0  0  0  0
 67 53  1  0  0  0  0
M  END
$$$$
