RRM.pdb
 OpenBabel07022418033D

 65 64  0  0  1  0  0  0  0  0999 V2000
    2.7840   -0.2630    6.1260 N   0  0  0  0  0  0  0  0  0  0  0  0
    3.0900   -1.0330    4.9670 C   0  0  0  0  0  0  0  0  0  0  0  0
    3.4870   -2.2540    5.0190 N   0  0  0  0  0  0  0  0  0  0  0  0
    2.9340   -0.3730    3.7100 N   0  0  0  0  0  0  0  0  0  0  0  0
    3.2100   -1.1160    2.5040 C   0  0  0  0  0  0  0  0  0  0  0  0
    2.9820   -0.2350    1.3200 C   0  0  0  0  0  0  0  0  0  0  0  0
    3.2790   -1.0400    0.0570 C   0  0  0  0  0  0  0  0  0  0  0  0
    3.0300   -0.0890   -1.1070 C   0  0  2  0  0  0  0  0  0  0  0  0
    3.9400    1.0240   -0.9270 N   0  0  0  0  0  0  0  0  0  0  0  0
    1.6220    0.4150   -1.0810 C   0  0  0  0  0  0  0  0  0  0  0  0
    1.4060    1.6520   -0.9140 O   0  0  0  0  0  0  0  0  0  0  0  0
    3.1220    0.7390    6.1440 H   0  0  0  0  0  0  0  0  0  0  0  0
    2.2490   -0.6760    6.9200 H   0  0  0  0  0  0  0  0  0  0  0  0
    3.6000   -2.7310    5.9290 H   0  0  0  0  0  0  0  0  0  0  0  0
    2.6240    0.6370    3.6690 H   0  0  0  0  0  0  0  0  0  0  0  0
    2.5580   -2.0100    2.4020 H   0  0  0  0  0  0  0  0  0  0  0  0
    4.2940   -1.3960    2.5250 H   0  0  0  0  0  0  0  0  0  0  0  0
    3.6200    0.6550    1.3020 H   0  0  0  0  0  0  0  0  0  0  0  0
    1.9130    0.0850    1.3360 H   0  0  0  0  0  0  0  0  0  0  0  0
    4.3610   -1.2540    0.0650 H   0  0  0  0  0  0  0  0  0  0  0  0
    2.6600   -1.9420   -0.0160 H   0  0  0  0  0  0  0  0  0  0  0  0
    3.2750   -0.5680   -2.0680 H   0  0  0  0  0  0  0  0  0  0  0  0
    3.4010    1.9240   -1.0010 H   0  0  0  0  0  0  0  0  0  0  0  0
    4.6890    1.0290   -1.6600 H   0  0  0  0  0  0  0  0  0  0  0  0
   -5.9780    4.1020   -1.6260 N   0  0  0  0  0  0  0  0  0  0  0  0
   -4.6640    3.7830   -2.1030 C   0  0  0  0  0  0  0  0  0  0  0  0
   -3.7730    4.6810   -2.3130 N   0  0  0  0  0  0  0  0  0  0  0  0
   -4.3280    2.4320   -2.3540 N   0  0  0  0  0  0  0  0  0  0  0  0
   -2.9550    1.9710   -2.2860 C   0  0  0  0  0  0  0  0  0  0  0  0
   -2.8930    0.4860   -2.6000 C   0  0  0  0  0  0  0  0  0  0  0  0
   -1.5090   -0.0540   -2.5470 C   0  0  0  0  0  0  0  0  0  0  0  0
   -0.8400    0.1160   -1.2030 C   0  0  2  0  0  0  0  0  0  0  0  0
    0.5070   -0.4320   -1.2370 N   0  0  0  0  0  0  0  0  0  0  0  0
   -1.6550   -0.5460   -0.1590 C   0  0  0  0  0  0  0  0  0  0  0  0
   -2.8410   -0.2470    0.1120 O   0  0  0  0  0  0  0  0  0  0  0  0
   -6.1520    4.5900   -0.7290 H   0  0  0  0  0  0  0  0  0  0  0  0
   -6.7860    3.8350   -2.1970 H   0  0  0  0  0  0  0  0  0  0  0  0
   -4.0430    5.6780   -2.1200 H   0  0  0  0  0  0  0  0  0  0  0  0
   -5.0860    1.7510   -2.5950 H   0  0  0  0  0  0  0  0  0  0  0  0
   -2.5060    2.2120   -1.3150 H   0  0  0  0  0  0  0  0  0  0  0  0
   -2.3950    2.5530   -3.0590 H   0  0  0  0  0  0  0  0  0  0  0  0
   -3.2400    0.3720   -3.6760 H   0  0  0  0  0  0  0  0  0  0  0  0
   -3.6390   -0.0380   -2.0120 H   0  0  0  0  0  0  0  0  0  0  0  0
   -1.5800   -1.1500   -2.7950 H   0  0  0  0  0  0  0  0  0  0  0  0
   -0.9160    0.4150   -3.3660 H   0  0  0  0  0  0  0  0  0  0  0  0
   -0.7520    1.2080   -1.0410 H   0  0  0  0  0  0  0  0  0  0  0  0
    0.6970   -1.4510   -1.3750 H   0  0  0  0  0  0  0  0  0  0  0  0
    1.3880   -5.5150   -0.0750 C   0  0  0  0  0  0  0  0  0  0  0  0
    0.0470   -4.2970   -0.0640 S   0  0  0  0  0  0  0  0  0  0  0  0
   -1.0510   -4.6420    1.3140 C   0  0  0  0  0  0  0  0  0  0  0  0
   -2.1980   -3.7110    1.4360 C   0  0  0  0  0  0  0  0  0  0  0  0
   -1.8900   -2.2740    1.6590 C   0  0  2  0  0  0  0  0  0  0  0  0
   -1.1150   -1.6220    0.6450 N   0  0  0  0  0  0  0  0  0  0  0  0
   -1.2090   -2.0650    2.9870 C   0  0  0  0  0  0  0  0  0  0  0  0
   -1.6970   -2.5450    4.0480 O   0  0  0  0  0  0  0  0  0  0  0  0
   -0.0320   -1.3440    3.1020 O   0  0  0  0  0  0  0  0  0  0  0  0
    1.1220   -6.3880   -0.7160 H   0  0  0  0  0  0  0  0  0  0  0  0
    2.3510   -5.0750   -0.4220 H   0  0  0  0  0  0  0  0  0  0  0  0
    1.5580   -5.9360    0.9460 H   0  0  0  0  0  0  0  0  0  0  0  0
   -1.4750   -5.6620    1.1400 H   0  0  0  0  0  0  0  0  0  0  0  0
   -0.4880   -4.6970    2.2710 H   0  0  0  0  0  0  0  0  0  0  0  0
   -2.8260   -4.0450    2.3020 H   0  0  0  0  0  0  0  0  0  0  0  0
   -2.8780   -3.7980    0.5590 H   0  0  0  0  0  0  0  0  0  0  0  0
   -2.8960   -1.7690    1.7920 H   0  0  0  0  0  0  0  0  0  0  0  0
   -0.1310   -1.8750    0.4400 H   0  0  0  0  0  0  0  0  0  0  0  0
  1 12  1  0  0  0  0
  1 13  1  0  0  0  0
  2  3  2  0  0  0  0
  2  1  1  0  0  0  0
  3 14  1  0  0  0  0
  4  2  1  0  0  0  0
  5 17  1  0  0  0  0
  5  4  1  0  0  0  0
  6 19  1  0  0  0  0
  6  5  1  0  0  0  0
  7 20  1  0  0  0  0
  7  6  1  0  0  0  0
  8 22  1  6  0  0  0
  8 10  1  0  0  0  0
  8  9  1  0  0  0  0
  8  7  1  0  0  0  0
 10 11  2  0  0  0  0
 15  4  1  0  0  0  0
 16  5  1  0  0  0  0
 18  6  1  0  0  0  0
 21  7  1  0  0  0  0
 23  9  1  0  0  0  0
 24  9  1  0  0  0  0
 25 36  1  0  0  0  0
 26 25  1  0  0  0  0
 27 38  1  0  0  0  0
 27 26  2  0  0  0  0
 28 29  1  0  0  0  0
 28 26  1  0  0  0  0
 29 40  1  0  0  0  0
 30 31  1  0  0  0  0
 30 29  1  0  0  0  0
 30 43  1  0  0  0  0
 31 32  1  0  0  0  0
 32 46  1  1  0  0  0
 32 34  1  0  0  0  0
 33 32  1  0  0  0  0
 33 10  1  0  0  0  0
 34 35  2  0  0  0  0
 34 53  1  0  0  0  0
 37 25  1  0  0  0  0
 39 28  1  0  0  0  0
 41 29  1  0  0  0  0
 42 30  1  0  0  0  0
 44 31  1  0  0  0  0
 45 31  1  0  0  0  0
 47 33  1  0  0  0  0
 48 49  1  0  0  0  0
 48 59  1  0  0  0  0
 49 50  1  0  0  0  0
 50 51  1  0  0  0  0
 50 61  1  0  0  0  0
 51 52  1  0  0  0  0
 51 62  1  0  0  0  0
 52 64  1  1  0  0  0
 52 54  1  0  0  0  0
 53 52  1  0  0  0  0
 54 56  2  0  0  0  0
 54 55  1  0  0  0  0
 57 48  1  0  0  0  0
 58 48  1  0  0  0  0
 60 50  1  0  0  0  0
 63 51  1  0  0  0  0
 65 53  1  0  0  0  0
M  END
$$$$
