RRQ.pdb
 OpenBabel07022418033D

 65 64  0  0  1  0  0  0  0  0999 V2000
    2.7590   -4.9420    0.5210 N   0  0  0  0  0  0  0  0  0  0  0  0
    3.8360   -4.0160    0.4740 C   0  0  0  0  0  0  0  0  0  0  0  0
    5.0600   -4.4290    0.6100 N   0  0  0  0  0  0  0  0  0  0  0  0
    3.6370   -2.6250    0.2820 N   0  0  0  0  0  0  0  0  0  0  0  0
    4.6490   -1.6730    0.6520 C   0  0  0  0  0  0  0  0  0  0  0  0
    4.2500   -0.2540    0.3720 C   0  0  0  0  0  0  0  0  0  0  0  0
    3.9690   -0.0210   -1.0920 C   0  0  0  0  0  0  0  0  0  0  0  0
    3.5670    1.4380   -1.3360 C   0  0  2  0  0  0  0  0  0  0  0  0
    4.6910    2.2340   -0.8940 N   0  0  0  0  0  0  0  0  0  0  0  0
    2.3720    1.7650   -0.5110 C   0  0  0  0  0  0  0  0  0  0  0  0
    2.4080    2.6010    0.4300 O   0  0  0  0  0  0  0  0  0  0  0  0
    2.6160   -5.6920   -0.1990 H   0  0  0  0  0  0  0  0  0  0  0  0
    2.0740   -4.8730    1.3130 H   0  0  0  0  0  0  0  0  0  0  0  0
    5.2420   -5.4570    0.7540 H   0  0  0  0  0  0  0  0  0  0  0  0
    2.7500   -2.2820   -0.1310 H   0  0  0  0  0  0  0  0  0  0  0  0
    5.6030   -1.9580    0.1390 H   0  0  0  0  0  0  0  0  0  0  0  0
    4.8640   -1.7670    1.7450 H   0  0  0  0  0  0  0  0  0  0  0  0
    5.0600    0.4090    0.7250 H   0  0  0  0  0  0  0  0  0  0  0  0
    3.3400   -0.0370    0.9520 H   0  0  0  0  0  0  0  0  0  0  0  0
    4.8320   -0.2870   -1.7330 H   0  0  0  0  0  0  0  0  0  0  0  0
    3.1220   -0.6650   -1.4110 H   0  0  0  0  0  0  0  0  0  0  0  0
    3.3740    1.5730   -2.4180 H   0  0  0  0  0  0  0  0  0  0  0  0
    5.5690    1.7610   -1.2050 H   0  0  0  0  0  0  0  0  0  0  0  0
    4.6650    2.4610    0.1100 H   0  0  0  0  0  0  0  0  0  0  0  0
   -5.1340    0.8880    0.3750 N   0  0  0  0  0  0  0  0  0  0  0  0
   -4.5310    0.8950   -0.9210 C   0  0  0  0  0  0  0  0  0  0  0  0
   -4.5630   -0.1460   -1.6370 N   0  0  0  0  0  0  0  0  0  0  0  0
   -3.8860    2.0550   -1.4360 N   0  0  0  0  0  0  0  0  0  0  0  0
   -2.9050    1.8820   -2.4750 C   0  0  0  0  0  0  0  0  0  0  0  0
   -1.7200    1.1620   -1.8140 C   0  0  0  0  0  0  0  0  0  0  0  0
   -1.1950    2.0320   -0.6940 C   0  0  0  0  0  0  0  0  0  0  0  0
   -0.0420    1.4390    0.0300 C   0  0  2  0  0  0  0  0  0  0  0  0
    1.1160    1.1590   -0.7280 N   0  0  0  0  0  0  0  0  0  0  0  0
   -0.4540    0.1920    0.7580 C   0  0  0  0  0  0  0  0  0  0  0  0
    0.2120   -0.8760    0.6070 O   0  0  0  0  0  0  0  0  0  0  0  0
   -5.6960    0.0540    0.6400 H   0  0  0  0  0  0  0  0  0  0  0  0
   -5.0180    1.6940    1.0370 H   0  0  0  0  0  0  0  0  0  0  0  0
   -4.1980   -0.3330   -2.5650 H   0  0  0  0  0  0  0  0  0  0  0  0
   -4.1120    2.9950   -1.0770 H   0  0  0  0  0  0  0  0  0  0  0  0
   -3.2340    1.2710   -3.3290 H   0  0  0  0  0  0  0  0  0  0  0  0
   -2.5960    2.8930   -2.8170 H   0  0  0  0  0  0  0  0  0  0  0  0
   -2.1510    0.2370   -1.3790 H   0  0  0  0  0  0  0  0  0  0  0  0
   -0.9610    0.8590   -2.5340 H   0  0  0  0  0  0  0  0  0  0  0  0
   -2.0250    2.1370    0.0370 H   0  0  0  0  0  0  0  0  0  0  0  0
   -0.9660    3.0580   -1.0290 H   0  0  0  0  0  0  0  0  0  0  0  0
    0.2480    2.1870    0.8260 H   0  0  0  0  0  0  0  0  0  0  0  0
    1.0100    0.4430   -1.5070 H   0  0  0  0  0  0  0  0  0  0  0  0
   -4.4330   -4.1620    4.0800 N   0  0  0  0  0  0  0  0  0  0  0  0
   -4.0450   -3.0990    3.2150 C   0  0  0  0  0  0  0  0  0  0  0  0
   -4.5830   -1.9900    3.4090 O   0  0  0  0  0  0  0  0  0  0  0  0
   -3.0540   -3.2820    2.1320 C   0  0  0  0  0  0  0  0  0  0  0  0
   -2.6230   -2.0330    1.4440 C   0  0  0  0  0  0  0  0  0  0  0  0
   -1.9840   -1.0580    2.3460 C   0  0  2  0  0  0  0  0  0  0  0  0
   -1.5720    0.1600    1.6190 N   0  0  0  0  0  0  0  0  0  0  0  0
   -0.8770   -1.5450    3.1910 C   0  0  0  0  0  0  0  0  0  0  0  0
   -1.0150   -2.5480    3.9050 O   0  0  0  0  0  0  0  0  0  0  0  0
    0.3260   -0.8630    3.1790 O   0  0  0  0  0  0  0  0  0  0  0  0
   -4.3470   -4.0150    5.1070 H   0  0  0  0  0  0  0  0  0  0  0  0
   -4.7950   -5.0690    3.7060 H   0  0  0  0  0  0  0  0  0  0  0  0
   -3.4890   -3.9920    1.3440 H   0  0  0  0  0  0  0  0  0  0  0  0
   -2.1920   -3.8590    2.5360 H   0  0  0  0  0  0  0  0  0  0  0  0
   -3.5200   -1.5460    0.9750 H   0  0  0  0  0  0  0  0  0  0  0  0
   -1.9830   -2.3470    0.5860 H   0  0  0  0  0  0  0  0  0  0  0  0
   -2.7580   -0.7050    3.0970 H   0  0  0  0  0  0  0  0  0  0  0  0
   -2.1140    1.0340    1.7350 H   0  0  0  0  0  0  0  0  0  0  0  0
  1 13  1  0  0  0  0
  2  1  1  0  0  0  0
  2  3  2  0  0  0  0
  3 14  1  0  0  0  0
  4  2  1  0  0  0  0
  4  5  1  0  0  0  0
  5 17  1  0  0  0  0
  6  5  1  0  0  0  0
  6 18  1  0  0  0  0
  6 19  1  0  0  0  0
  7  6  1  0  0  0  0
  8 22  1  6  0  0  0
  8  7  1  0  0  0  0
  8  9  1  0  0  0  0
  8 10  1  0  0  0  0
  9 24  1  0  0  0  0
 10 11  2  0  0  0  0
 12  1  1  0  0  0  0
 15  4  1  0  0  0  0
 16  5  1  0  0  0  0
 20  7  1  0  0  0  0
 21  7  1  0  0  0  0
 23  9  1  0  0  0  0
 25 36  1  0  0  0  0
 25 37  1  0  0  0  0
 26 25  1  0  0  0  0
 27 26  2  0  0  0  0
 28 39  1  0  0  0  0
 28 26  1  0  0  0  0
 29 30  1  0  0  0  0
 29 28  1  0  0  0  0
 30 42  1  0  0  0  0
 30 31  1  0  0  0  0
 31 32  1  0  0  0  0
 31 44  1  0  0  0  0
 32 34  1  0  0  0  0
 32 46  1  1  0  0  0
 33 10  1  0  0  0  0
 33 32  1  0  0  0  0
 34 54  1  0  0  0  0
 35 34  2  0  0  0  0
 38 27  1  0  0  0  0
 40 29  1  0  0  0  0
 41 29  1  0  0  0  0
 43 30  1  0  0  0  0
 45 31  1  0  0  0  0
 47 33  1  0  0  0  0
 48 58  1  0  0  0  0
 49 50  2  0  0  0  0
 49 48  1  0  0  0  0
 51 61  1  0  0  0  0
 51 49  1  0  0  0  0
 52 51  1  0  0  0  0
 52 53  1  0  0  0  0
 53 64  1  1  0  0  0
 53 55  1  0  0  0  0
 54 65  1  0  0  0  0
 54 53  1  0  0  0  0
 55 56  1  0  0  0  0
 57 55  2  0  0  0  0
 59 48  1  0  0  0  0
 60 51  1  0  0  0  0
 62 52  1  0  0  0  0
 63 52  1  0  0  0  0
M  END
$$$$
