RRR.pdb
 OpenBabel07022418033D

 71 70  0  0  1  0  0  0  0  0999 V2000
   -1.0060   -0.8090    5.9640 N   0  0  0  0  0  0  0  0  0  0  0  0
    0.4020   -0.8600    5.9750 C   0  0  0  0  0  0  0  0  0  0  0  0
    1.0840   -0.8720    7.0670 N   0  0  0  0  0  0  0  0  0  0  0  0
    1.0810   -0.8980    4.6960 N   0  0  0  0  0  0  0  0  0  0  0  0
    2.4940   -0.8280    4.6420 C   0  0  0  0  0  0  0  0  0  0  0  0
    3.1880   -0.8610    3.3420 C   0  0  0  0  0  0  0  0  0  0  0  0
    3.0470   -2.0150    2.4590 C   0  0  0  0  0  0  0  0  0  0  0  0
    1.7640   -2.3900    1.8400 C   0  0  2  0  0  0  0  0  0  0  0  0
    2.0840   -3.6570    1.0700 N   0  0  0  0  0  0  0  0  0  0  0  0
    1.2670   -1.4710    0.7890 C   0  0  0  0  0  0  0  0  0  0  0  0
    1.2110   -1.8930   -0.3940 O   0  0  0  0  0  0  0  0  0  0  0  0
   -1.5440   -1.4260    6.6130 H   0  0  0  0  0  0  0  0  0  0  0  0
   -1.5600   -0.1710    5.3260 H   0  0  0  0  0  0  0  0  0  0  0  0
    2.1230   -0.9110    7.0580 H   0  0  0  0  0  0  0  0  0  0  0  0
    0.4780   -0.9740    3.8720 H   0  0  0  0  0  0  0  0  0  0  0  0
    2.9110   -1.6320    5.3440 H   0  0  0  0  0  0  0  0  0  0  0  0
    2.7890    0.1140    5.2200 H   0  0  0  0  0  0  0  0  0  0  0  0
    4.3110   -0.8110    3.6050 H   0  0  0  0  0  0  0  0  0  0  0  0
    3.0420    0.1340    2.8500 H   0  0  0  0  0  0  0  0  0  0  0  0
    3.8300   -1.9480    1.6340 H   0  0  0  0  0  0  0  0  0  0  0  0
    3.3990   -2.9250    3.0620 H   0  0  0  0  0  0  0  0  0  0  0  0
    0.9540   -2.7290    2.4900 H   0  0  0  0  0  0  0  0  0  0  0  0
    2.8060   -3.3590    0.3810 H   0  0  0  0  0  0  0  0  0  0  0  0
    2.4510   -4.3540    1.7670 H   0  0  0  0  0  0  0  0  0  0  0  0
    2.1360    5.9340    0.2510 N   0  0  0  0  0  0  0  0  0  0  0  0
    1.3870    5.2860   -0.8000 C   0  0  0  0  0  0  0  0  0  0  0  0
    0.4360    5.9180   -1.4060 N   0  0  0  0  0  0  0  0  0  0  0  0
    1.6590    3.9580   -1.2020 N   0  0  0  0  0  0  0  0  0  0  0  0
    0.6650    3.1860   -1.9030 C   0  0  0  0  0  0  0  0  0  0  0  0
    1.1210    1.7990   -2.2370 C   0  0  0  0  0  0  0  0  0  0  0  0
    1.4800    0.9490   -1.0710 C   0  0  0  0  0  0  0  0  0  0  0  0
    0.3870    0.6710   -0.0910 C   0  0  2  0  0  0  0  0  0  0  0  0
    0.8540   -0.1540    1.0290 N   0  0  0  0  0  0  0  0  0  0  0  0
   -0.8850    0.2230   -0.6460 C   0  0  0  0  0  0  0  0  0  0  0  0
   -1.4000    0.8260   -1.6200 O   0  0  0  0  0  0  0  0  0  0  0  0
    1.6360    6.6930    0.7590 H   0  0  0  0  0  0  0  0  0  0  0  0
    3.1030    5.6870    0.5060 H   0  0  0  0  0  0  0  0  0  0  0  0
   -0.1260    5.4840   -2.1670 H   0  0  0  0  0  0  0  0  0  0  0  0
    2.5740    3.5430   -0.9930 H   0  0  0  0  0  0  0  0  0  0  0  0
    0.4260    3.6800   -2.8920 H   0  0  0  0  0  0  0  0  0  0  0  0
   -0.2570    3.2510   -1.3040 H   0  0  0  0  0  0  0  0  0  0  0  0
    0.4010    1.3670   -2.9520 H   0  0  0  0  0  0  0  0  0  0  0  0
    2.0740    1.9020   -2.8440 H   0  0  0  0  0  0  0  0  0  0  0  0
    1.9070   -0.0150   -1.4060 H   0  0  0  0  0  0  0  0  0  0  0  0
    2.3660    1.4480   -0.5600 H   0  0  0  0  0  0  0  0  0  0  0  0
    0.1670    1.6880    0.3770 H   0  0  0  0  0  0  0  0  0  0  0  0
    0.8780    0.2470    2.0020 H   0  0  0  0  0  0  0  0  0  0  0  0
   -5.3900   -4.1860   -3.7870 N   0  0  0  0  0  0  0  0  0  0  0  0
   -4.0990   -4.5810   -3.3460 C   0  0  0  0  0  0  0  0  0  0  0  0
   -3.9330   -5.3590   -2.3320 N   0  0  0  0  0  0  0  0  0  0  0  0
   -2.9390   -4.1300   -4.0150 N   0  0  0  0  0  0  0  0  0  0  0  0
   -1.7170   -3.7500   -3.3850 C   0  0  0  0  0  0  0  0  0  0  0  0
   -1.7980   -2.4770   -2.6110 C   0  0  0  0  0  0  0  0  0  0  0  0
   -2.8030   -2.5730   -1.5130 C   0  0  0  0  0  0  0  0  0  0  0  0
   -2.8510   -1.2630   -0.7300 C   0  0  2  0  0  0  0  0  0  0  0  0
   -1.6100   -0.9080   -0.1220 N   0  0  0  0  0  0  0  0  0  0  0  0
   -3.9280   -1.3040    0.2670 C   0  0  0  0  0  0  0  0  0  0  0  0
   -3.7060   -1.0470    1.4770 O   0  0  0  0  0  0  0  0  0  0  0  0
   -5.2100   -1.6290   -0.1120 O   0  0  0  0  0  0  0  0  0  0  0  0
   -5.6840   -3.2090   -3.9600 H   0  0  0  0  0  0  0  0  0  0  0  0
   -6.0960   -4.9350   -3.9480 H   0  0  0  0  0  0  0  0  0  0  0  0
   -3.0010   -5.6600   -1.9940 H   0  0  0  0  0  0  0  0  0  0  0  0
   -2.9730   -4.0580   -5.0780 H   0  0  0  0  0  0  0  0  0  0  0  0
   -1.4170   -4.5660   -2.6700 H   0  0  0  0  0  0  0  0  0  0  0  0
   -0.8880   -3.7380   -4.1330 H   0  0  0  0  0  0  0  0  0  0  0  0
   -0.7980   -2.1800   -2.2140 H   0  0  0  0  0  0  0  0  0  0  0  0
   -2.0680   -1.6510   -3.3210 H   0  0  0  0  0  0  0  0  0  0  0  0
   -3.8130   -2.6080   -2.0110 H   0  0  0  0  0  0  0  0  0  0  0  0
   -2.6570   -3.4000   -0.8160 H   0  0  0  0  0  0  0  0  0  0  0  0
   -3.1310   -0.5000   -1.5080 H   0  0  0  0  0  0  0  0  0  0  0  0
   -1.2370   -1.4510    0.6870 H   0  0  0  0  0  0  0  0  0  0  0  0
  1  2  1  0  0  0  0
  1 12  1  0  0  0  0
  2  3  2  0  0  0  0
  4  2  1  0  0  0  0
  5  4  1  0  0  0  0
  5 17  1  0  0  0  0
  5 16  1  0  0  0  0
  6 18  1  0  0  0  0
  6  5  1  0  0  0  0
  7 21  1  0  0  0  0
  7  6  1  0  0  0  0
  8  7  1  0  0  0  0
  8 22  1  1  0  0  0
  9 24  1  0  0  0  0
  9  8  1  0  0  0  0
 10 33  1  0  0  0  0
 10  8  1  0  0  0  0
 11 10  2  0  0  0  0
 13  1  1  0  0  0  0
 14  3  1  0  0  0  0
 15  4  1  0  0  0  0
 19  6  1  0  0  0  0
 20  7  1  0  0  0  0
 23  9  1  0  0  0  0
 25 37  1  0  0  0  0
 25 36  1  0  0  0  0
 26 25  1  0  0  0  0
 27 26  2  0  0  0  0
 28 39  1  0  0  0  0
 28 26  1  0  0  0  0
 29 41  1  0  0  0  0
 29 28  1  0  0  0  0
 30 29  1  0  0  0  0
 30 31  1  0  0  0  0
 31 45  1  0  0  0  0
 31 32  1  0  0  0  0
 32 46  1  1  0  0  0
 32 33  1  0  0  0  0
 33 47  1  0  0  0  0
 34 56  1  0  0  0  0
 34 32  1  0  0  0  0
 35 34  2  0  0  0  0
 38 27  1  0  0  0  0
 40 29  1  0  0  0  0
 42 30  1  0  0  0  0
 43 30  1  0  0  0  0
 44 31  1  0  0  0  0
 48 49  1  0  0  0  0
 49 50  2  0  0  0  0
 50 62  1  0  0  0  0
 51 52  1  0  0  0  0
 51 49  1  0  0  0  0
 52 64  1  0  0  0  0
 52 53  1  0  0  0  0
 53 66  1  0  0  0  0
 53 54  1  0  0  0  0
 54 69  1  0  0  0  0
 54 55  1  0  0  0  0
 55 70  1  6  0  0  0
 55 56  1  0  0  0  0
 55 57  1  0  0  0  0
 56 71  1  0  0  0  0
 57 58  1  0  0  0  0
 59 57  2  0  0  0  0
 60 48  1  0  0  0  0
 61 48  1  0  0  0  0
 63 51  1  0  0  0  0
 65 52  1  0  0  0  0
 67 53  1  0  0  0  0
 68 54  1  0  0  0  0
M  END
$$$$
