RRT.pdb
 OpenBabel07022418033D

 62 61  0  0  1  0  0  0  0  0999 V2000
    0.8640    0.8950    6.4870 N   0  0  0  0  0  0  0  0  0  0  0  0
    2.0130    1.2420    5.7260 C   0  0  0  0  0  0  0  0  0  0  0  0
    2.6430    2.3090    6.0840 N   0  0  0  0  0  0  0  0  0  0  0  0
    2.4310    0.4380    4.6280 N   0  0  0  0  0  0  0  0  0  0  0  0
    3.2570    1.0270    3.6350 C   0  0  0  0  0  0  0  0  0  0  0  0
    3.6690    0.1640    2.5140 C   0  0  0  0  0  0  0  0  0  0  0  0
    2.6120   -0.4290    1.6730 C   0  0  0  0  0  0  0  0  0  0  0  0
    1.7050    0.5390    0.9640 C   0  0  2  0  0  0  0  0  0  0  0  0
    0.9820    1.4000    1.8370 N   0  0  0  0  0  0  0  0  0  0  0  0
    0.8420   -0.1460   -0.0370 C   0  0  0  0  0  0  0  0  0  0  0  0
    1.3480   -0.9320   -0.8690 O   0  0  0  0  0  0  0  0  0  0  0  0
    0.8360    0.8290    7.5150 H   0  0  0  0  0  0  0  0  0  0  0  0
   -0.0160    0.6920    5.9740 H   0  0  0  0  0  0  0  0  0  0  0  0
    3.4940    2.6720    5.6130 H   0  0  0  0  0  0  0  0  0  0  0  0
    2.0900   -0.5490    4.6350 H   0  0  0  0  0  0  0  0  0  0  0  0
    2.7840    1.9530    3.2570 H   0  0  0  0  0  0  0  0  0  0  0  0
    4.1780    1.4000    4.1780 H   0  0  0  0  0  0  0  0  0  0  0  0
    4.2600   -0.6980    2.9420 H   0  0  0  0  0  0  0  0  0  0  0  0
    4.4080    0.6970    1.8670 H   0  0  0  0  0  0  0  0  0  0  0  0
    3.1150   -1.0980    0.9240 H   0  0  0  0  0  0  0  0  0  0  0  0
    2.0290   -1.1490    2.3130 H   0  0  0  0  0  0  0  0  0  0  0  0
    2.3880    1.2070    0.3530 H   0  0  0  0  0  0  0  0  0  0  0  0
    0.4950    2.1330    1.2780 H   0  0  0  0  0  0  0  0  0  0  0  0
    0.2640    0.9290    2.4200 H   0  0  0  0  0  0  0  0  0  0  0  0
   -3.4800    2.2960    1.0520 N   0  0  0  0  0  0  0  0  0  0  0  0
   -3.0050    2.4760   -0.2620 C   0  0  0  0  0  0  0  0  0  0  0  0
   -2.1630    3.4130   -0.5310 N   0  0  0  0  0  0  0  0  0  0  0  0
   -3.4130    1.6540   -1.3540 N   0  0  0  0  0  0  0  0  0  0  0  0
   -2.7590    1.7280   -2.6050 C   0  0  0  0  0  0  0  0  0  0  0  0
   -1.3700    1.2360   -2.7270 C   0  0  0  0  0  0  0  0  0  0  0  0
   -1.1010   -0.1910   -2.4570 C   0  0  0  0  0  0  0  0  0  0  0  0
   -1.3770   -0.6270   -1.0710 C   0  0  2  0  0  0  0  0  0  0  0  0
   -0.5820    0.0540   -0.0980 N   0  0  0  0  0  0  0  0  0  0  0  0
   -1.2250   -2.1150   -0.9130 C   0  0  0  0  0  0  0  0  0  0  0  0
   -0.4930   -2.5390   -0.0070 O   0  0  0  0  0  0  0  0  0  0  0  0
   -3.9110    3.1380    1.5140 H   0  0  0  0  0  0  0  0  0  0  0  0
   -3.4190    1.3950    1.5590 H   0  0  0  0  0  0  0  0  0  0  0  0
   -1.8450    4.0270    0.2330 H   0  0  0  0  0  0  0  0  0  0  0  0
   -4.2330    1.0090   -1.1590 H   0  0  0  0  0  0  0  0  0  0  0  0
   -2.7950    2.7830   -3.0320 H   0  0  0  0  0  0  0  0  0  0  0  0
   -3.3810    1.1500   -3.3640 H   0  0  0  0  0  0  0  0  0  0  0  0
   -0.6450    1.8720   -2.1540 H   0  0  0  0  0  0  0  0  0  0  0  0
   -1.0630    1.4310   -3.8070 H   0  0  0  0  0  0  0  0  0  0  0  0
   -0.0100   -0.3600   -2.6620 H   0  0  0  0  0  0  0  0  0  0  0  0
   -1.6700   -0.8270   -3.1860 H   0  0  0  0  0  0  0  0  0  0  0  0
   -2.4560   -0.4660   -0.7630 H   0  0  0  0  0  0  0  0  0  0  0  0
   -0.9960    0.7150    0.6130 H   0  0  0  0  0  0  0  0  0  0  0  0
   -0.0920   -6.3170   -1.9970 C   0  0  0  0  0  0  0  0  0  0  0  0
   -0.4020   -4.8680   -2.1400 C   0  0  1  0  0  0  0  0  0  0  0  0
   -0.4860   -4.5590   -3.5200 O   0  0  0  0  0  0  0  0  0  0  0  0
   -1.7000   -4.4490   -1.5440 C   0  0  2  0  0  0  0  0  0  0  0  0
   -1.8820   -3.0320   -1.7550 N   0  0  0  0  0  0  0  0  0  0  0  0
   -1.9060   -4.8750   -0.1370 C   0  0  0  0  0  0  0  0  0  0  0  0
   -1.6990   -6.0960    0.1520 O   0  0  0  0  0  0  0  0  0  0  0  0
   -2.3090   -4.0730    0.9040 O   0  0  0  0  0  0  0  0  0  0  0  0
   -1.0320   -6.8940   -1.9310 H   0  0  0  0  0  0  0  0  0  0  0  0
    0.5880   -6.5470   -1.1520 H   0  0  0  0  0  0  0  0  0  0  0  0
    0.3910   -6.6660   -2.9440 H   0  0  0  0  0  0  0  0  0  0  0  0
    0.4660   -4.2940   -1.7460 H   0  0  0  0  0  0  0  0  0  0  0  0
    0.0110   -5.2100   -4.0630 H   0  0  0  0  0  0  0  0  0  0  0  0
   -2.5330   -4.9840   -2.1170 H   0  0  0  0  0  0  0  0  0  0  0  0
   -2.5080   -2.6910   -2.5410 H   0  0  0  0  0  0  0  0  0  0  0  0
  1 12  1  0  0  0  0
  2  3  2  0  0  0  0
  2  1  1  0  0  0  0
  4 15  1  0  0  0  0
  4  2  1  0  0  0  0
  5 17  1  0  0  0  0
  5  4  1  0  0  0  0
  6 18  1  0  0  0  0
  6  5  1  0  0  0  0
  7 21  1  0  0  0  0
  7  6  1  0  0  0  0
  8 22  1  6  0  0  0
  8  7  1  0  0  0  0
  8  9  1  0  0  0  0
  9 24  1  0  0  0  0
 10  8  1  0  0  0  0
 11 10  2  0  0  0  0
 13  1  1  0  0  0  0
 14  3  1  0  0  0  0
 16  5  1  0  0  0  0
 19  6  1  0  0  0  0
 20  7  1  0  0  0  0
 23  9  1  0  0  0  0
 25 36  1  0  0  0  0
 25 37  1  0  0  0  0
 26 25  1  0  0  0  0
 27 26  2  0  0  0  0
 27 38  1  0  0  0  0
 28 39  1  0  0  0  0
 28 26  1  0  0  0  0
 29 28  1  0  0  0  0
 30 29  1  0  0  0  0
 30 31  1  0  0  0  0
 30 42  1  0  0  0  0
 31 32  1  0  0  0  0
 32 34  1  0  0  0  0
 32 46  1  1  0  0  0
 32 33  1  0  0  0  0
 33 10  1  0  0  0  0
 33 47  1  0  0  0  0
 34 35  2  0  0  0  0
 40 29  1  0  0  0  0
 41 29  1  0  0  0  0
 43 30  1  0  0  0  0
 44 31  1  0  0  0  0
 45 31  1  0  0  0  0
 48 56  1  0  0  0  0
 48 57  1  0  0  0  0
 49 48  1  0  0  0  0
 49 59  1  1  0  0  0
 49 51  1  0  0  0  0
 50 49  1  0  0  0  0
 51 61  1  6  0  0  0
 51 53  1  0  0  0  0
 52 51  1  0  0  0  0
 52 34  1  0  0  0  0
 53 54  2  0  0  0  0
 53 55  1  0  0  0  0
 58 48  1  0  0  0  0
 60 50  1  0  0  0  0
 62 52  1  0  0  0  0
M  END
$$$$
