RRW.pdb
 OpenBabel07022418033D

 72 73  0  0  1  0  0  0  0  0999 V2000
    4.2900   -4.2820    3.6700 N   0  0  0  0  0  0  0  0  0  0  0  0
    4.9710   -3.4240    2.7520 C   0  0  0  0  0  0  0  0  0  0  0  0
    6.2370   -3.2110    2.8510 N   0  0  0  0  0  0  0  0  0  0  0  0
    4.2550   -2.7890    1.7060 N   0  0  0  0  0  0  0  0  0  0  0  0
    4.7920   -1.5560    1.1600 C   0  0  0  0  0  0  0  0  0  0  0  0
    3.8940   -1.0220    0.0530 C   0  0  0  0  0  0  0  0  0  0  0  0
    4.4640    0.2350   -0.4900 C   0  0  0  0  0  0  0  0  0  0  0  0
    3.6960    0.8740   -1.6190 C   0  0  2  0  0  0  0  0  0  0  0  0
    4.4320    2.0570   -1.9640 N   0  0  0  0  0  0  0  0  0  0  0  0
    2.3550    1.2340   -1.1910 C   0  0  0  0  0  0  0  0  0  0  0  0
    2.1540    2.4600   -0.8840 O   0  0  0  0  0  0  0  0  0  0  0  0
    3.6250   -5.0260    3.3390 H   0  0  0  0  0  0  0  0  0  0  0  0
    4.4200   -4.2100    4.6880 H   0  0  0  0  0  0  0  0  0  0  0  0
    6.8200   -3.6430    3.5900 H   0  0  0  0  0  0  0  0  0  0  0  0
    3.3590   -3.1980    1.3340 H   0  0  0  0  0  0  0  0  0  0  0  0
    4.7680   -0.8160    1.9870 H   0  0  0  0  0  0  0  0  0  0  0  0
    5.8280   -1.6460    0.8060 H   0  0  0  0  0  0  0  0  0  0  0  0
    3.8290   -1.7880   -0.7250 H   0  0  0  0  0  0  0  0  0  0  0  0
    2.8900   -0.8890    0.5050 H   0  0  0  0  0  0  0  0  0  0  0  0
    4.5270    0.9670    0.3670 H   0  0  0  0  0  0  0  0  0  0  0  0
    5.5450    0.1020   -0.7890 H   0  0  0  0  0  0  0  0  0  0  0  0
    3.7190    0.1980   -2.5040 H   0  0  0  0  0  0  0  0  0  0  0  0
    4.6640    2.1610   -2.9550 H   0  0  0  0  0  0  0  0  0  0  0  0
    5.1000    2.3910   -1.2790 H   0  0  0  0  0  0  0  0  0  0  0  0
   -5.7700    2.9470    0.0110 N   0  0  0  0  0  0  0  0  0  0  0  0
   -4.3590    3.1300    0.1750 C   0  0  0  0  0  0  0  0  0  0  0  0
   -3.8100    2.9250    1.3190 N   0  0  0  0  0  0  0  0  0  0  0  0
   -3.5340    3.5370   -0.9030 N   0  0  0  0  0  0  0  0  0  0  0  0
   -2.2230    2.9930   -1.1430 C   0  0  0  0  0  0  0  0  0  0  0  0
   -2.2820    1.5500   -1.5900 C   0  0  0  0  0  0  0  0  0  0  0  0
   -0.9550    0.9570   -1.8620 C   0  0  0  0  0  0  0  0  0  0  0  0
   -0.0270    0.9440   -0.6440 C   0  0  2  0  0  0  0  0  0  0  0  0
    1.2240    0.3670   -1.0790 N   0  0  0  0  0  0  0  0  0  0  0  0
   -0.6860    0.1340    0.3970 C   0  0  0  0  0  0  0  0  0  0  0  0
   -1.7520    0.5810    0.9650 O   0  0  0  0  0  0  0  0  0  0  0  0
   -6.2560    2.3350    0.6810 H   0  0  0  0  0  0  0  0  0  0  0  0
   -6.2680    3.4180   -0.7550 H   0  0  0  0  0  0  0  0  0  0  0  0
   -2.8110    3.0440    1.4750 H   0  0  0  0  0  0  0  0  0  0  0  0
   -3.9030    4.2610   -1.5570 H   0  0  0  0  0  0  0  0  0  0  0  0
   -1.6330    3.0650   -0.1860 H   0  0  0  0  0  0  0  0  0  0  0  0
   -1.6980    3.6390   -1.8510 H   0  0  0  0  0  0  0  0  0  0  0  0
   -2.9520    0.9670   -0.9450 H   0  0  0  0  0  0  0  0  0  0  0  0
   -2.8230    1.5720   -2.5910 H   0  0  0  0  0  0  0  0  0  0  0  0
   -0.4530    1.4930   -2.6680 H   0  0  0  0  0  0  0  0  0  0  0  0
   -1.0940   -0.1120   -2.1230 H   0  0  0  0  0  0  0  0  0  0  0  0
    0.1420    1.9540   -0.2790 H   0  0  0  0  0  0  0  0  0  0  0  0
    1.3770   -0.6320   -1.3310 H   0  0  0  0  0  0  0  0  0  0  0  0
   -0.1580   -1.1180    0.7670 N   0  0  0  0  0  0  0  0  0  0  0  0
   -0.7910   -1.9370    1.7970 C   0  0  1  0  0  0  0  0  0  0  0  0
   -1.0530   -3.3080    1.2620 C   0  0  0  0  0  0  0  0  0  0  0  0
   -1.9420   -3.2620    0.0910 C   0  0  0  0  0  0  0  0  0  0  0  0
   -1.5480   -3.4110   -1.2420 C   0  0  0  0  0  0  0  0  0  0  0  0
   -2.6060   -3.3150   -2.0310 N   0  0  0  0  0  0  0  0  0  0  0  0
   -3.7100   -3.1050   -1.2660 C   0  0  0  0  0  0  0  0  0  0  0  0
   -5.0350   -2.9420   -1.6080 C   0  0  0  0  0  0  0  0  0  0  0  0
   -5.9450   -2.7440   -0.5930 C   0  0  0  0  0  0  0  0  0  0  0  0
   -5.5440   -2.7100    0.7170 C   0  0  0  0  0  0  0  0  0  0  0  0
   -4.2280   -2.8720    1.0570 C   0  0  0  0  0  0  0  0  0  0  0  0
   -3.3020   -3.0720    0.0550 C   0  0  0  0  0  0  0  0  0  0  0  0
    0.1180   -1.9620    2.9740 C   0  0  0  0  0  0  0  0  0  0  0  0
    1.1980   -1.3260    2.9020 O   0  0  0  0  0  0  0  0  0  0  0  0
   -0.2290   -2.6760    4.1220 O   0  0  0  0  0  0  0  0  0  0  0  0
    0.6820   -1.4870    0.3080 H   0  0  0  0  0  0  0  0  0  0  0  0
   -1.7300   -1.4530    2.1270 H   0  0  0  0  0  0  0  0  0  0  0  0
   -1.4590   -3.9600    2.0770 H   0  0  0  0  0  0  0  0  0  0  0  0
   -0.0690   -3.7460    0.9880 H   0  0  0  0  0  0  0  0  0  0  0  0
   -0.5360   -3.5740   -1.5320 H   0  0  0  0  0  0  0  0  0  0  0  0
   -2.6280   -3.3840   -3.0630 H   0  0  0  0  0  0  0  0  0  0  0  0
   -5.3530   -2.9680   -2.6330 H   0  0  0  0  0  0  0  0  0  0  0  0
   -7.0010   -2.6110   -0.8250 H   0  0  0  0  0  0  0  0  0  0  0  0
   -6.2890   -2.5510    1.4930 H   0  0  0  0  0  0  0  0  0  0  0  0
   -3.9490   -2.8380    2.1130 H   0  0  0  0  0  0  0  0  0  0  0  0
  1 13  1  0  0  0  0
  2  3  2  0  0  0  0
  2  1  1  0  0  0  0
  3 14  1  0  0  0  0
  4  2  1  0  0  0  0
  5  4  1  0  0  0  0
  5 16  1  0  0  0  0
  6 19  1  0  0  0  0
  6  5  1  0  0  0  0
  7  6  1  0  0  0  0
  7 20  1  0  0  0  0
  8 22  1  6  0  0  0
  8 10  1  0  0  0  0
  8  7  1  0  0  0  0
  9  8  1  0  0  0  0
  9 24  1  0  0  0  0
 10 33  1  0  0  0  0
 10 11  2  0  0  0  0
 12  1  1  0  0  0  0
 15  4  1  0  0  0  0
 17  5  1  0  0  0  0
 18  6  1  0  0  0  0
 21  7  1  0  0  0  0
 23  9  1  0  0  0  0
 25 26  1  0  0  0  0
 25 36  1  0  0  0  0
 26 27  2  0  0  0  0
 27 38  1  0  0  0  0
 28 26  1  0  0  0  0
 29 28  1  0  0  0  0
 29 40  1  0  0  0  0
 30 29  1  0  0  0  0
 30 42  1  0  0  0  0
 31 30  1  0  0  0  0
 31 32  1  0  0  0  0
 32 46  1  1  0  0  0
 32 34  1  0  0  0  0
 33 32  1  0  0  0  0
 34 48  1  0  0  0  0
 34 35  2  0  0  0  0
 37 25  1  0  0  0  0
 39 28  1  0  0  0  0
 41 29  1  0  0  0  0
 43 30  1  0  0  0  0
 44 31  1  0  0  0  0
 45 31  1  0  0  0  0
 47 33  1  0  0  0  0
 48 49  1  0  0  0  0
 49 64  1  1  0  0  0
 49 60  1  0  0  0  0
 50 49  1  0  0  0  0
 50 65  1  0  0  0  0
 51 50  1  0  0  0  0
 52 51  2  0  0  0  0
 53 54  1  0  0  0  0
 53 52  1  0  0  0  0
 54 59  1  0  0  0  0
 55 54  2  0  0  0  0
 55 56  1  0  0  0  0
 56 57  2  0  0  0  0
 57 58  1  0  0  0  0
 57 71  1  0  0  0  0
 58 72  1  0  0  0  0
 59 51  1  0  0  0  0
 59 58  2  0  0  0  0
 60 62  1  0  0  0  0
 61 60  2  0  0  0  0
 63 48  1  0  0  0  0
 66 50  1  0  0  0  0
 67 52  1  0  0  0  0
 68 53  1  0  0  0  0
 69 55  1  0  0  0  0
 70 56  1  0  0  0  0
M  END
$$$$
