RRY.pdb
 OpenBabel07022418033D

 69 69  0  0  1  0  0  0  0  0999 V2000
    5.6550   -4.8740    2.9160 N   0  0  0  0  0  0  0  0  0  0  0  0
    4.9260   -3.9910    2.0720 C   0  0  0  0  0  0  0  0  0  0  0  0
    4.7200   -2.7810    2.4680 N   0  0  0  0  0  0  0  0  0  0  0  0
    4.4140   -4.3680    0.8210 N   0  0  0  0  0  0  0  0  0  0  0  0
    3.2960   -3.6450    0.1820 C   0  0  0  0  0  0  0  0  0  0  0  0
    3.0200   -4.2900   -1.1130 C   0  0  0  0  0  0  0  0  0  0  0  0
    1.9770   -3.7830   -2.0000 C   0  0  0  0  0  0  0  0  0  0  0  0
    0.5390   -3.7840   -1.6210 C   0  0  2  0  0  0  0  0  0  0  0  0
   -0.1340   -3.2000   -2.8310 N   0  0  0  0  0  0  0  0  0  0  0  0
    0.1700   -2.8730   -0.5270 C   0  0  0  0  0  0  0  0  0  0  0  0
   -0.0020   -3.2150    0.6790 O   0  0  0  0  0  0  0  0  0  0  0  0
    6.1580   -5.7140    2.5300 H   0  0  0  0  0  0  0  0  0  0  0  0
    5.7260   -4.7320    3.9470 H   0  0  0  0  0  0  0  0  0  0  0  0
    5.0510   -2.3890    3.3730 H   0  0  0  0  0  0  0  0  0  0  0  0
    4.8250   -5.1780    0.3240 H   0  0  0  0  0  0  0  0  0  0  0  0
    3.7350   -2.6130    0.0050 H   0  0  0  0  0  0  0  0  0  0  0  0
    2.4900   -3.4950    0.8860 H   0  0  0  0  0  0  0  0  0  0  0  0
    4.0010   -4.2460   -1.7080 H   0  0  0  0  0  0  0  0  0  0  0  0
    2.9080   -5.4200   -0.9750 H   0  0  0  0  0  0  0  0  0  0  0  0
    2.0170   -4.3420   -3.0050 H   0  0  0  0  0  0  0  0  0  0  0  0
    2.2340   -2.7060   -2.2750 H   0  0  0  0  0  0  0  0  0  0  0  0
    0.1180   -4.7960   -1.5200 H   0  0  0  0  0  0  0  0  0  0  0  0
    0.4840   -2.4220   -3.1870 H   0  0  0  0  0  0  0  0  0  0  0  0
   -1.0710   -2.8340   -2.5530 H   0  0  0  0  0  0  0  0  0  0  0  0
    1.3040    4.8180    1.6270 N   0  0  0  0  0  0  0  0  0  0  0  0
    1.3790    3.9070    0.5220 C   0  0  0  0  0  0  0  0  0  0  0  0
    0.7040    4.0720   -0.5520 N   0  0  0  0  0  0  0  0  0  0  0  0
    2.2360    2.7840    0.6290 N   0  0  0  0  0  0  0  0  0  0  0  0
    2.4680    1.8580   -0.4280 C   0  0  0  0  0  0  0  0  0  0  0  0
    1.2180    1.0530   -0.6830 C   0  0  0  0  0  0  0  0  0  0  0  0
    0.8520    0.2960    0.5580 C   0  0  0  0  0  0  0  0  0  0  0  0
   -0.4000   -0.5640    0.3350 C   0  0  2  0  0  0  0  0  0  0  0  0
   -0.0350   -1.4590   -0.7500 N   0  0  0  0  0  0  0  0  0  0  0  0
   -1.5090    0.3260   -0.0550 C   0  0  0  0  0  0  0  0  0  0  0  0
   -1.9880    0.3320   -1.2390 O   0  0  0  0  0  0  0  0  0  0  0  0
    0.4840    5.4580    1.6420 H   0  0  0  0  0  0  0  0  0  0  0  0
    2.0010    4.8640    2.3750 H   0  0  0  0  0  0  0  0  0  0  0  0
    0.0520    4.8810   -0.7020 H   0  0  0  0  0  0  0  0  0  0  0  0
    2.7360    2.6180    1.5420 H   0  0  0  0  0  0  0  0  0  0  0  0
    2.6690    2.4170   -1.3860 H   0  0  0  0  0  0  0  0  0  0  0  0
    3.3030    1.1530   -0.2230 H   0  0  0  0  0  0  0  0  0  0  0  0
    1.4770    0.3710   -1.5360 H   0  0  0  0  0  0  0  0  0  0  0  0
    0.4210    1.7630   -0.9880 H   0  0  0  0  0  0  0  0  0  0  0  0
    0.6450    1.0110    1.3580 H   0  0  0  0  0  0  0  0  0  0  0  0
    1.7150   -0.3500    0.8360 H   0  0  0  0  0  0  0  0  0  0  0  0
   -0.5710   -1.1220    1.2820 H   0  0  0  0  0  0  0  0  0  0  0  0
    0.0820   -1.0920   -1.6990 H   0  0  0  0  0  0  0  0  0  0  0  0
   -6.0240   -3.6860    0.6600 O   0  0  0  0  0  0  0  0  0  0  0  0
   -5.6490   -2.3470    0.7890 C   0  0  0  0  0  0  0  0  0  0  0  0
   -4.7950   -1.9050    1.7770 C   0  0  0  0  0  0  0  0  0  0  0  0
   -4.4430   -0.5770    1.8800 C   0  0  0  0  0  0  0  0  0  0  0  0
   -4.9300    0.3650    0.9990 C   0  0  0  0  0  0  0  0  0  0  0  0
   -4.4980    1.7680    1.1840 C   0  0  0  0  0  0  0  0  0  0  0  0
   -3.2320    2.0940    0.4070 C   0  0  2  0  0  0  0  0  0  0  0  0
   -2.1330    1.2380    0.8450 N   0  0  0  0  0  0  0  0  0  0  0  0
   -2.8830    3.4850    0.7670 C   0  0  0  0  0  0  0  0  0  0  0  0
   -3.6480    4.4610    0.4780 O   0  0  0  0  0  0  0  0  0  0  0  0
   -5.7790   -0.0420    0.0090 C   0  0  0  0  0  0  0  0  0  0  0  0
   -6.1170   -1.3720   -0.0750 C   0  0  0  0  0  0  0  0  0  0  0  0
   -1.7140    3.8090    1.4360 O   0  0  0  0  0  0  0  0  0  0  0  0
   -6.8300   -3.9110    0.0850 H   0  0  0  0  0  0  0  0  0  0  0  0
   -4.3960   -2.6230    2.4850 H   0  0  0  0  0  0  0  0  0  0  0  0
   -3.7550   -0.2930    2.6950 H   0  0  0  0  0  0  0  0  0  0  0  0
   -5.3070    2.4340    0.8490 H   0  0  0  0  0  0  0  0  0  0  0  0
   -4.2560    1.9240    2.2550 H   0  0  0  0  0  0  0  0  0  0  0  0
   -3.4030    2.0390   -0.6660 H   0  0  0  0  0  0  0  0  0  0  0  0
   -1.7740    1.2690    1.8240 H   0  0  0  0  0  0  0  0  0  0  0  0
   -6.1640    0.6930   -0.6840 H   0  0  0  0  0  0  0  0  0  0  0  0
   -6.7980   -1.7380   -0.8590 H   0  0  0  0  0  0  0  0  0  0  0  0
  1 13  1  0  0  0  0
  2  3  2  0  0  0  0
  2  1  1  0  0  0  0
  3 14  1  0  0  0  0
  4  2  1  0  0  0  0
  5  4  1  0  0  0  0
  5 17  1  0  0  0  0
  6 19  1  0  0  0  0
  6  5  1  0  0  0  0
  7  8  1  0  0  0  0
  7  6  1  0  0  0  0
  8 22  1  1  0  0  0
  8 10  1  0  0  0  0
  9 24  1  0  0  0  0
  9  8  1  0  0  0  0
 10 11  2  0  0  0  0
 12  1  1  0  0  0  0
 15  4  1  0  0  0  0
 16  5  1  0  0  0  0
 18  6  1  0  0  0  0
 20  7  1  0  0  0  0
 21  7  1  0  0  0  0
 23  9  1  0  0  0  0
 25 36  1  0  0  0  0
 25 37  1  0  0  0  0
 26 28  1  0  0  0  0
 26 25  1  0  0  0  0
 27 26  2  0  0  0  0
 28 39  1  0  0  0  0
 29 41  1  0  0  0  0
 29 28  1  0  0  0  0
 30 29  1  0  0  0  0
 30 31  1  0  0  0  0
 31 45  1  0  0  0  0
 31 44  1  0  0  0  0
 32 31  1  0  0  0  0
 32 46  1  1  0  0  0
 33 10  1  0  0  0  0
 33 32  1  0  0  0  0
 34 32  1  0  0  0  0
 34 55  1  0  0  0  0
 35 34  2  0  0  0  0
 38 27  1  0  0  0  0
 40 29  1  0  0  0  0
 42 30  1  0  0  0  0
 43 30  1  0  0  0  0
 47 33  1  0  0  0  0
 48 49  1  0  0  0  0
 49 50  1  0  0  0  0
 50 51  2  0  0  0  0
 50 62  1  0  0  0  0
 51 63  1  0  0  0  0
 52 53  1  0  0  0  0
 52 51  1  0  0  0  0
 53 65  1  0  0  0  0
 54 66  1  6  0  0  0
 54 56  1  0  0  0  0
 54 55  1  0  0  0  0
 54 53  1  0  0  0  0
 55 67  1  0  0  0  0
 56 60  1  0  0  0  0
 57 56  2  0  0  0  0
 58 52  2  0  0  0  0
 59 58  1  0  0  0  0
 59 49  2  0  0  0  0
 61 48  1  0  0  0  0
 64 53  1  0  0  0  0
 68 58  1  0  0  0  0
 69 59  1  0  0  0  0
M  END
$$$$
