RSA.pdb
 OpenBabel07022418063D

 46 45  0  0  1  0  0  0  0  0999 V2000
   -1.5810   -4.0260   -3.1880 N   0  0  0  0  0  0  0  0  0  0  0  0
   -0.5170   -3.1490   -2.7480 C   0  0  0  0  0  0  0  0  0  0  0  0
   -0.7170   -1.8890   -2.7070 N   0  0  0  0  0  0  0  0  0  0  0  0
    0.7410   -3.6540   -2.3640 N   0  0  0  0  0  0  0  0  0  0  0  0
    1.5710   -2.9660   -1.4210 C   0  0  0  0  0  0  0  0  0  0  0  0
    2.1330   -1.6870   -1.9040 C   0  0  0  0  0  0  0  0  0  0  0  0
    3.0420   -1.0130   -0.9390 C   0  0  0  0  0  0  0  0  0  0  0  0
    2.5090   -0.6120    0.3790 C   0  0  2  0  0  0  0  0  0  0  0  0
    2.0460   -1.7540    1.1200 N   0  0  0  0  0  0  0  0  0  0  0  0
    1.4890    0.4710    0.3230 C   0  0  0  0  0  0  0  0  0  0  0  0
    1.8190    1.5210   -0.3030 O   0  0  0  0  0  0  0  0  0  0  0  0
   -2.0570   -4.6780   -2.5360 H   0  0  0  0  0  0  0  0  0  0  0  0
   -1.8730   -3.9990   -4.1840 H   0  0  0  0  0  0  0  0  0  0  0  0
   -1.5940   -1.4030   -2.9650 H   0  0  0  0  0  0  0  0  0  0  0  0
    1.0760   -4.5510   -2.7750 H   0  0  0  0  0  0  0  0  0  0  0  0
    2.3970   -3.6350   -1.1160 H   0  0  0  0  0  0  0  0  0  0  0  0
    0.9370   -2.8230   -0.5050 H   0  0  0  0  0  0  0  0  0  0  0  0
    1.3440   -0.9240   -2.1590 H   0  0  0  0  0  0  0  0  0  0  0  0
    2.7070   -1.9000   -2.8550 H   0  0  0  0  0  0  0  0  0  0  0  0
    3.9470   -1.6750   -0.7140 H   0  0  0  0  0  0  0  0  0  0  0  0
    3.5470   -0.1440   -1.4780 H   0  0  0  0  0  0  0  0  0  0  0  0
    3.4100   -0.2330    0.9670 H   0  0  0  0  0  0  0  0  0  0  0  0
    1.8700   -1.4940    2.1210 H   0  0  0  0  0  0  0  0  0  0  0  0
    2.8350   -2.4550    1.0970 H   0  0  0  0  0  0  0  0  0  0  0  0
   -1.6840    0.7360   -1.2560 O   0  0  0  0  0  0  0  0  0  0  0  0
   -2.0040    1.0470    0.0520 C   0  0  0  0  0  0  0  0  0  0  0  0
   -0.7720    1.4430    0.8650 C   0  0  2  0  0  0  0  0  0  0  0  0
    0.2080    0.3840    0.9190 N   0  0  0  0  0  0  0  0  0  0  0  0
   -1.2600    1.8120    2.2230 C   0  0  0  0  0  0  0  0  0  0  0  0
   -2.1000    2.7260    2.4110 O   0  0  0  0  0  0  0  0  0  0  0  0
   -2.0160    1.4090   -1.9110 H   0  0  0  0  0  0  0  0  0  0  0  0
   -2.6550    1.9460    0.0290 H   0  0  0  0  0  0  0  0  0  0  0  0
   -2.5840    0.2580    0.5690 H   0  0  0  0  0  0  0  0  0  0  0  0
   -0.3190    2.2940    0.3150 H   0  0  0  0  0  0  0  0  0  0  0  0
   -0.0070   -0.5170    1.4210 H   0  0  0  0  0  0  0  0  0  0  0  0
   -1.9910    0.2930    5.3710 C   0  0  0  0  0  0  0  0  0  0  0  0
   -1.2560    1.4850    4.7380 C   0  0  2  0  0  0  0  0  0  0  0  0
   -0.8000    1.1450    3.4060 N   0  0  0  0  0  0  0  0  0  0  0  0
   -0.1030    1.7670    5.6200 C   0  0  0  0  0  0  0  0  0  0  0  0
    1.0540    1.6770    5.1320 O   0  0  0  0  0  0  0  0  0  0  0  0
   -0.2430    2.1240    6.9560 O   0  0  0  0  0  0  0  0  0  0  0  0
   -1.2190   -0.4290    5.6630 H   0  0  0  0  0  0  0  0  0  0  0  0
   -2.5360    0.7330    6.2430 H   0  0  0  0  0  0  0  0  0  0  0  0
   -2.6720   -0.1950    4.6560 H   0  0  0  0  0  0  0  0  0  0  0  0
   -1.9610    2.3390    4.7310 H   0  0  0  0  0  0  0  0  0  0  0  0
   -0.1030    0.3840    3.2540 H   0  0  0  0  0  0  0  0  0  0  0  0
  1  2  1  0  0  0  0
  1 12  1  0  0  0  0
  2  3  2  0  0  0  0
  2  4  1  0  0  0  0
  4  5  1  0  0  0  0
  5 16  1  0  0  0  0
  5 17  1  0  0  0  0
  6  5  1  0  0  0  0
  6  7  1  0  0  0  0
  7 20  1  0  0  0  0
  7  8  1  0  0  0  0
  8 22  1  1  0  0  0
  8  9  1  0  0  0  0
  9 23  1  0  0  0  0
 10  8  1  0  0  0  0
 10 28  1  0  0  0  0
 11 10  2  0  0  0  0
 13  1  1  0  0  0  0
 14  3  1  0  0  0  0
 15  4  1  0  0  0  0
 18  6  1  0  0  0  0
 19  6  1  0  0  0  0
 21  7  1  0  0  0  0
 24  9  1  0  0  0  0
 25 26  1  0  0  0  0
 26 33  1  0  0  0  0
 26 27  1  0  0  0  0
 27 34  1  6  0  0  0
 27 28  1  0  0  0  0
 27 29  1  0  0  0  0
 28 35  1  0  0  0  0
 29 30  2  0  0  0  0
 29 38  1  0  0  0  0
 31 25  1  0  0  0  0
 32 26  1  0  0  0  0
 36 42  1  0  0  0  0
 36 43  1  0  0  0  0
 37 45  1  6  0  0  0
 37 36  1  0  0  0  0
 37 39  1  0  0  0  0
 38 37  1  0  0  0  0
 39 41  1  0  0  0  0
 40 39  2  0  0  0  0
 44 36  1  0  0  0  0
 46 38  1  0  0  0  0
M  END
$$$$
