RSD.pdb
 OpenBabel07022418063D

 49 48  0  0  1  0  0  0  0  0999 V2000
    4.3400   -5.5670    2.6070 N   0  0  0  0  0  0  0  0  0  0  0  0
    3.1860   -4.7660    2.7190 C   0  0  0  0  0  0  0  0  0  0  0  0
    2.4980   -4.8080    3.8040 N   0  0  0  0  0  0  0  0  0  0  0  0
    2.7300   -3.9040    1.6900 N   0  0  0  0  0  0  0  0  0  0  0  0
    1.4740   -3.1690    1.7940 C   0  0  0  0  0  0  0  0  0  0  0  0
    1.2320   -2.3380    0.5860 C   0  0  0  0  0  0  0  0  0  0  0  0
    2.2520   -1.3050    0.2800 C   0  0  0  0  0  0  0  0  0  0  0  0
    2.4810   -0.2650    1.3230 C   0  0  2  0  0  0  0  0  0  0  0  0
    2.9200   -0.7910    2.5930 N   0  0  0  0  0  0  0  0  0  0  0  0
    1.3270    0.6370    1.5350 C   0  0  0  0  0  0  0  0  0  0  0  0
    0.8840    0.8050    2.6980 O   0  0  0  0  0  0  0  0  0  0  0  0
    4.3810   -6.3410    1.9270 H   0  0  0  0  0  0  0  0  0  0  0  0
    5.1530   -5.3760    3.2130 H   0  0  0  0  0  0  0  0  0  0  0  0
    2.7880   -5.4230    4.5880 H   0  0  0  0  0  0  0  0  0  0  0  0
    3.3250   -3.8050    0.8420 H   0  0  0  0  0  0  0  0  0  0  0  0
    0.6820   -3.9650    1.8090 H   0  0  0  0  0  0  0  0  0  0  0  0
    1.3670   -2.6350    2.7560 H   0  0  0  0  0  0  0  0  0  0  0  0
    1.1630   -3.0290   -0.2890 H   0  0  0  0  0  0  0  0  0  0  0  0
    0.2230   -1.8830    0.6790 H   0  0  0  0  0  0  0  0  0  0  0  0
    1.9410   -0.7800   -0.6480 H   0  0  0  0  0  0  0  0  0  0  0  0
    3.2290   -1.7790    0.0430 H   0  0  0  0  0  0  0  0  0  0  0  0
    3.3080    0.3860    0.9620 H   0  0  0  0  0  0  0  0  0  0  0  0
    2.7580   -0.0590    3.3390 H   0  0  0  0  0  0  0  0  0  0  0  0
    3.9050   -1.0650    2.6450 H   0  0  0  0  0  0  0  0  0  0  0  0
   -1.3260    4.4040    0.5740 O   0  0  0  0  0  0  0  0  0  0  0  0
   -0.2100    3.6270    0.2840 C   0  0  0  0  0  0  0  0  0  0  0  0
   -0.4640    2.2180    0.7730 C   0  0  2  0  0  0  0  0  0  0  0  0
    0.6590    1.3500    0.5040 N   0  0  0  0  0  0  0  0  0  0  0  0
   -1.6980    1.6930    0.0750 C   0  0  0  0  0  0  0  0  0  0  0  0
   -2.7840    2.3180    0.1950 O   0  0  0  0  0  0  0  0  0  0  0  0
   -1.0960    5.3580    0.7140 H   0  0  0  0  0  0  0  0  0  0  0  0
    0.6640    4.0600    0.8110 H   0  0  0  0  0  0  0  0  0  0  0  0
    0.0400    3.6440   -0.8050 H   0  0  0  0  0  0  0  0  0  0  0  0
   -0.7160    2.2610    1.8410 H   0  0  0  0  0  0  0  0  0  0  0  0
    1.0270    1.2150   -0.4630 H   0  0  0  0  0  0  0  0  0  0  0  0
   -1.6050    0.5200   -0.6930 N   0  0  0  0  0  0  0  0  0  0  0  0
   -2.6730   -0.1280   -1.3970 C   0  0  1  0  0  0  0  0  0  0  0  0
   -4.0510    0.4730   -1.1950 C   0  0  0  0  0  0  0  0  0  0  0  0
   -4.4680    0.3340    0.2130 C   0  0  0  0  0  0  0  0  0  0  0  0
   -3.8030   -0.3330    1.0330 O   0  0  0  0  0  0  0  0  0  0  0  0
   -2.3880   -0.5770   -2.7460 C   0  0  0  0  0  0  0  0  0  0  0  0
   -3.3090   -1.1590   -3.4000 O   0  0  0  0  0  0  0  0  0  0  0  0
   -5.6260    0.9580    0.6350 O   0  0  0  0  0  0  0  0  0  0  0  0
   -1.1860   -0.4400   -3.4290 O   0  0  0  0  0  0  0  0  0  0  0  0
   -0.6150    0.0710   -0.7450 H   0  0  0  0  0  0  0  0  0  0  0  0
   -2.8150   -1.1070   -0.7560 H   0  0  0  0  0  0  0  0  0  0  0  0
   -4.1120    1.5160   -1.5520 H   0  0  0  0  0  0  0  0  0  0  0  0
   -4.7370   -0.1590   -1.8170 H   0  0  0  0  0  0  0  0  0  0  0  0
   -6.1850    0.6210    1.4150 H   0  0  0  0  0  0  0  0  0  0  0  0
  1  2  1  0  0  0  0
  1 13  1  0  0  0  0
  2  3  2  0  0  0  0
  3 14  1  0  0  0  0
  4  5  1  0  0  0  0
  4  2  1  0  0  0  0
  5 16  1  0  0  0  0
  5 17  1  0  0  0  0
  6 19  1  0  0  0  0
  6  5  1  0  0  0  0
  7  6  1  0  0  0  0
  7  8  1  0  0  0  0
  8 22  1  6  0  0  0
  8 10  1  0  0  0  0
  8  9  1  0  0  0  0
  9 24  1  0  0  0  0
  9 23  1  0  0  0  0
 10 11  2  0  0  0  0
 12  1  1  0  0  0  0
 15  4  1  0  0  0  0
 18  6  1  0  0  0  0
 20  7  1  0  0  0  0
 21  7  1  0  0  0  0
 25 31  1  0  0  0  0
 26 25  1  0  0  0  0
 26 27  1  0  0  0  0
 26 32  1  0  0  0  0
 27 34  1  1  0  0  0
 28 27  1  0  0  0  0
 28 10  1  0  0  0  0
 29 30  2  0  0  0  0
 29 27  1  0  0  0  0
 33 26  1  0  0  0  0
 35 28  1  0  0  0  0
 36 29  1  0  0  0  0
 37 38  1  0  0  0  0
 37 46  1  1  0  0  0
 37 36  1  0  0  0  0
 38 39  1  0  0  0  0
 39 43  1  0  0  0  0
 39 40  2  0  0  0  0
 41 37  1  0  0  0  0
 42 41  1  0  0  0  0
 43 49  1  0  0  0  0
 44 41  2  0  0  0  0
 45 36  1  0  0  0  0
 47 38  1  0  0  0  0
 48 38  1  0  0  0  0
M  END
$$$$
