RSI.pdb
 OpenBabel07022418073D

 55 54  0  0  1  0  0  0  0  0999 V2000
    6.3030   -4.7350    3.5760 N   0  0  0  0  0  0  0  0  0  0  0  0
    5.2350   -4.2550    2.7750 C   0  0  0  0  0  0  0  0  0  0  0  0
    4.4440   -5.1020    2.2050 N   0  0  0  0  0  0  0  0  0  0  0  0
    5.0400   -2.8740    2.6030 N   0  0  0  0  0  0  0  0  0  0  0  0
    4.3970   -2.3530    1.4190 C   0  0  0  0  0  0  0  0  0  0  0  0
    4.2920   -0.8630    1.4310 C   0  0  0  0  0  0  0  0  0  0  0  0
    3.5260   -0.2710    2.5570 C   0  0  0  0  0  0  0  0  0  0  0  0
    2.1020   -0.6740    2.6830 C   0  0  2  0  0  0  0  0  0  0  0  0
    1.9230   -2.0740    2.8740 N   0  0  0  0  0  0  0  0  0  0  0  0
    1.3270   -0.1300    1.5420 C   0  0  0  0  0  0  0  0  0  0  0  0
    1.4400    1.1120    1.3370 O   0  0  0  0  0  0  0  0  0  0  0  0
    7.0210   -5.4080    3.2720 H   0  0  0  0  0  0  0  0  0  0  0  0
    6.3630   -4.3760    4.5540 H   0  0  0  0  0  0  0  0  0  0  0  0
    3.6460   -4.8020    1.6080 H   0  0  0  0  0  0  0  0  0  0  0  0
    5.3590   -2.2010    3.3330 H   0  0  0  0  0  0  0  0  0  0  0  0
    3.4200   -2.8150    1.2260 H   0  0  0  0  0  0  0  0  0  0  0  0
    5.0900   -2.6070    0.5550 H   0  0  0  0  0  0  0  0  0  0  0  0
    5.3520   -0.4720    1.4800 H   0  0  0  0  0  0  0  0  0  0  0  0
    3.9380   -0.5390    0.4290 H   0  0  0  0  0  0  0  0  0  0  0  0
    3.5700    0.8510    2.4340 H   0  0  0  0  0  0  0  0  0  0  0  0
    4.1180   -0.4510    3.4920 H   0  0  0  0  0  0  0  0  0  0  0  0
    1.6760   -0.1610    3.5930 H   0  0  0  0  0  0  0  0  0  0  0  0
    0.9330   -2.3630    2.8290 H   0  0  0  0  0  0  0  0  0  0  0  0
    2.4670   -2.4880    3.6340 H   0  0  0  0  0  0  0  0  0  0  0  0
    0.1180   -2.2080   -1.8990 O   0  0  0  0  0  0  0  0  0  0  0  0
    0.2150   -0.8540   -1.7390 C   0  0  0  0  0  0  0  0  0  0  0  0
   -0.2520   -0.3470   -0.4060 C   0  0  2  0  0  0  0  0  0  0  0  0
    0.4940   -0.9050    0.6980 N   0  0  0  0  0  0  0  0  0  0  0  0
   -1.6810   -0.5130   -0.1660 C   0  0  0  0  0  0  0  0  0  0  0  0
   -2.0500   -1.0870    0.8900 O   0  0  0  0  0  0  0  0  0  0  0  0
    0.9610   -2.5310   -2.3220 H   0  0  0  0  0  0  0  0  0  0  0  0
   -0.4140   -0.3720   -2.5200 H   0  0  0  0  0  0  0  0  0  0  0  0
    1.2450   -0.4720   -1.8960 H   0  0  0  0  0  0  0  0  0  0  0  0
   -0.0470    0.7640   -0.4210 H   0  0  0  0  0  0  0  0  0  0  0  0
    0.4340   -1.9240    0.9030 H   0  0  0  0  0  0  0  0  0  0  0  0
   -5.6450    2.9920   -1.8770 C   0  0  0  0  0  0  0  0  0  0  0  0
   -4.7560    1.7610   -1.9790 C   0  0  0  0  0  0  0  0  0  0  0  0
   -4.8430    1.0330   -0.6580 C   0  0  2  0  0  0  0  0  0  0  0  0
   -4.3710    1.9340    0.4330 C   0  0  0  0  0  0  0  0  0  0  0  0
   -4.0740   -0.2630   -0.7640 C   0  0  2  0  0  0  0  0  0  0  0  0
   -2.6890   -0.0570   -1.0750 N   0  0  0  0  0  0  0  0  0  0  0  0
   -4.7330   -1.1030   -1.7960 C   0  0  0  0  0  0  0  0  0  0  0  0
   -5.9520   -1.3720   -1.6530 O   0  0  0  0  0  0  0  0  0  0  0  0
   -4.0550   -1.5970   -2.9030 O   0  0  0  0  0  0  0  0  0  0  0  0
   -5.9420    3.3110   -2.9040 H   0  0  0  0  0  0  0  0  0  0  0  0
   -5.0850    3.7910   -1.3330 H   0  0  0  0  0  0  0  0  0  0  0  0
   -6.5720    2.7700   -1.3080 H   0  0  0  0  0  0  0  0  0  0  0  0
   -3.6990    2.0590   -2.1760 H   0  0  0  0  0  0  0  0  0  0  0  0
   -5.1790    1.0910   -2.7430 H   0  0  0  0  0  0  0  0  0  0  0  0
   -5.9280    0.8330   -0.4930 H   0  0  0  0  0  0  0  0  0  0  0  0
   -5.2170    2.2540    1.1090 H   0  0  0  0  0  0  0  0  0  0  0  0
   -3.6510    1.4360    1.1250 H   0  0  0  0  0  0  0  0  0  0  0  0
   -3.9220    2.8860    0.0760 H   0  0  0  0  0  0  0  0  0  0  0  0
   -4.1720   -0.7960    0.2030 H   0  0  0  0  0  0  0  0  0  0  0  0
   -2.3520    0.4110   -1.9310 H   0  0  0  0  0  0  0  0  0  0  0  0
  1 13  1  0  0  0  0
  2  1  1  0  0  0  0
  3  2  2  0  0  0  0
  4  2  1  0  0  0  0
  4 15  1  0  0  0  0
  5  6  1  0  0  0  0
  5  4  1  0  0  0  0
  6 18  1  0  0  0  0
  6  7  1  0  0  0  0
  7  8  1  0  0  0  0
  7 21  1  0  0  0  0
  8  9  1  0  0  0  0
  8 22  1  1  0  0  0
  9 24  1  0  0  0  0
 10  8  1  0  0  0  0
 11 10  2  0  0  0  0
 12  1  1  0  0  0  0
 14  3  1  0  0  0  0
 16  5  1  0  0  0  0
 17  5  1  0  0  0  0
 19  6  1  0  0  0  0
 20  7  1  0  0  0  0
 23  9  1  0  0  0  0
 25 26  1  0  0  0  0
 26 27  1  0  0  0  0
 27 34  1  1  0  0  0
 27 29  1  0  0  0  0
 27 28  1  0  0  0  0
 28 35  1  0  0  0  0
 28 10  1  0  0  0  0
 29 30  2  0  0  0  0
 31 25  1  0  0  0  0
 32 26  1  0  0  0  0
 33 26  1  0  0  0  0
 36 46  1  0  0  0  0
 36 47  1  0  0  0  0
 37 36  1  0  0  0  0
 37 38  1  0  0  0  0
 38 50  1  1  0  0  0
 38 39  1  0  0  0  0
 39 51  1  0  0  0  0
 39 52  1  0  0  0  0
 40 38  1  0  0  0  0
 40 54  1  1  0  0  0
 41 40  1  0  0  0  0
 41 29  1  0  0  0  0
 42 43  1  0  0  0  0
 42 40  1  0  0  0  0
 44 42  2  0  0  0  0
 45 36  1  0  0  0  0
 48 37  1  0  0  0  0
 49 37  1  0  0  0  0
 53 39  1  0  0  0  0
 55 41  1  0  0  0  0
M  END
$$$$
