RSK.pdb
 OpenBabel07022418073D

 57 56  0  0  1  0  0  0  0  0999 V2000
   -2.5000   -4.8650    3.7860 N   0  0  0  0  0  0  0  0  0  0  0  0
   -1.1770   -5.3090    3.5610 C   0  0  0  0  0  0  0  0  0  0  0  0
   -0.8700   -6.5630    3.6120 N   0  0  0  0  0  0  0  0  0  0  0  0
   -0.1420   -4.3240    3.2640 N   0  0  0  0  0  0  0  0  0  0  0  0
    1.1920   -4.8010    3.3780 C   0  0  0  0  0  0  0  0  0  0  0  0
    2.3190   -3.9300    3.0110 C   0  0  0  0  0  0  0  0  0  0  0  0
    2.4510   -3.4800    1.6140 C   0  0  0  0  0  0  0  0  0  0  0  0
    1.3820   -2.6350    1.0510 C   0  0  2  0  0  0  0  0  0  0  0  0
    1.6930   -2.3010   -0.3640 N   0  0  0  0  0  0  0  0  0  0  0  0
    1.2530   -1.3310    1.7810 C   0  0  0  0  0  0  0  0  0  0  0  0
    1.0850   -1.2240    3.0100 O   0  0  0  0  0  0  0  0  0  0  0  0
   -2.7110   -3.8510    3.7340 H   0  0  0  0  0  0  0  0  0  0  0  0
   -3.2800   -5.5100    4.0020 H   0  0  0  0  0  0  0  0  0  0  0  0
   -1.6350   -7.2370    3.8260 H   0  0  0  0  0  0  0  0  0  0  0  0
   -0.4890   -3.3780    3.0190 H   0  0  0  0  0  0  0  0  0  0  0  0
    1.2940   -5.1720    4.4450 H   0  0  0  0  0  0  0  0  0  0  0  0
    1.3300   -5.7650    2.7740 H   0  0  0  0  0  0  0  0  0  0  0  0
    2.4150   -3.0260    3.6800 H   0  0  0  0  0  0  0  0  0  0  0  0
    3.2800   -4.5000    3.2500 H   0  0  0  0  0  0  0  0  0  0  0  0
    3.4810   -3.0680    1.4350 H   0  0  0  0  0  0  0  0  0  0  0  0
    2.4630   -4.4300    0.9760 H   0  0  0  0  0  0  0  0  0  0  0  0
    0.4370   -3.1810    0.9820 H   0  0  0  0  0  0  0  0  0  0  0  0
    0.7960   -1.9640   -0.7750 H   0  0  0  0  0  0  0  0  0  0  0  0
    1.9120   -3.2100   -0.8530 H   0  0  0  0  0  0  0  0  0  0  0  0
    2.2780    3.3280    1.8750 O   0  0  0  0  0  0  0  0  0  0  0  0
    2.3840    2.0850    1.2940 C   0  0  0  0  0  0  0  0  0  0  0  0
    1.2160    1.1990    1.6640 C   0  0  2  0  0  0  0  0  0  0  0  0
    1.3230   -0.1080    1.0570 N   0  0  0  0  0  0  0  0  0  0  0  0
   -0.0240    1.8860    1.1440 C   0  0  0  0  0  0  0  0  0  0  0  0
   -0.2740    3.0550    1.5480 O   0  0  0  0  0  0  0  0  0  0  0  0
    2.9840    3.5260    2.5490 H   0  0  0  0  0  0  0  0  0  0  0  0
    3.3470    1.5690    1.5780 H   0  0  0  0  0  0  0  0  0  0  0  0
    2.4570    2.2330    0.1980 H   0  0  0  0  0  0  0  0  0  0  0  0
    1.1400    1.1290    2.7780 H   0  0  0  0  0  0  0  0  0  0  0  0
    1.4580   -0.1510    0.0280 H   0  0  0  0  0  0  0  0  0  0  0  0
   -0.9050    1.2600    0.2260 N   0  0  0  0  0  0  0  0  0  0  0  0
   -2.0950    1.8830   -0.2900 C   0  0  1  0  0  0  0  0  0  0  0  0
   -1.9680    1.8730   -1.8270 C   0  0  0  0  0  0  0  0  0  0  0  0
   -0.7620    2.6200   -2.2670 C   0  0  0  0  0  0  0  0  0  0  0  0
   -0.6360    2.6680   -3.7450 C   0  0  0  0  0  0  0  0  0  0  0  0
   -0.5220    1.3830   -4.4730 C   0  0  0  0  0  0  0  0  0  0  0  0
   -1.6390    0.4840   -4.3590 N   0  0  0  0  0  0  0  0  0  0  0  0
   -3.2680    1.0460    0.0230 C   0  0  0  0  0  0  0  0  0  0  0  0
   -4.4150    1.3870   -0.3310 O   0  0  0  0  0  0  0  0  0  0  0  0
   -3.0990   -0.1310    0.7180 O   0  0  0  0  0  0  0  0  0  0  0  0
   -0.6340    0.2850   -0.0660 H   0  0  0  0  0  0  0  0  0  0  0  0
   -2.1800    2.9110    0.1000 H   0  0  0  0  0  0  0  0  0  0  0  0
   -2.8890    2.2930   -2.2200 H   0  0  0  0  0  0  0  0  0  0  0  0
   -1.8940    0.7930   -2.1280 H   0  0  0  0  0  0  0  0  0  0  0  0
    0.1610    2.2200   -1.7770 H   0  0  0  0  0  0  0  0  0  0  0  0
   -0.8790    3.6900   -1.9230 H   0  0  0  0  0  0  0  0  0  0  0  0
    0.2450    3.3050   -4.0740 H   0  0  0  0  0  0  0  0  0  0  0  0
   -1.5420    3.2370   -4.1260 H   0  0  0  0  0  0  0  0  0  0  0  0
   -0.3900    1.5730   -5.5700 H   0  0  0  0  0  0  0  0  0  0  0  0
    0.4000    0.8420   -4.1030 H   0  0  0  0  0  0  0  0  0  0  0  0
   -2.4480    0.9320   -4.8890 H   0  0  0  0  0  0  0  0  0  0  0  0
   -1.3670   -0.4310   -4.7360 H   0  0  0  0  0  0  0  0  0  0  0  0
  1 13  1  0  0  0  0
  2  3  2  0  0  0  0
  2  1  1  0  0  0  0
  3 14  1  0  0  0  0
  4  5  1  0  0  0  0
  4  2  1  0  0  0  0
  5 16  1  0  0  0  0
  6 19  1  0  0  0  0
  6  5  1  0  0  0  0
  6 18  1  0  0  0  0
  7  6  1  0  0  0  0
  8 22  1  1  0  0  0
  8  7  1  0  0  0  0
  8 10  1  0  0  0  0
  9  8  1  0  0  0  0
 10 11  2  0  0  0  0
 12  1  1  0  0  0  0
 15  4  1  0  0  0  0
 17  5  1  0  0  0  0
 20  7  1  0  0  0  0
 21  7  1  0  0  0  0
 23  9  1  0  0  0  0
 24  9  1  0  0  0  0
 25 31  1  0  0  0  0
 26 32  1  0  0  0  0
 26 27  1  0  0  0  0
 26 25  1  0  0  0  0
 27 34  1  1  0  0  0
 28 27  1  0  0  0  0
 28 10  1  0  0  0  0
 29 30  2  0  0  0  0
 29 27  1  0  0  0  0
 33 26  1  0  0  0  0
 35 28  1  0  0  0  0
 36 29  1  0  0  0  0
 37 43  1  0  0  0  0
 37 47  1  1  0  0  0
 37 36  1  0  0  0  0
 38 37  1  0  0  0  0
 39 51  1  0  0  0  0
 39 38  1  0  0  0  0
 39 50  1  0  0  0  0
 40 39  1  0  0  0  0
 41 42  1  0  0  0  0
 41 55  1  0  0  0  0
 41 40  1  0  0  0  0
 43 45  1  0  0  0  0
 44 43  2  0  0  0  0
 46 36  1  0  0  0  0
 48 38  1  0  0  0  0
 49 38  1  0  0  0  0
 52 40  1  0  0  0  0
 53 40  1  0  0  0  0
 54 41  1  0  0  0  0
 56 42  1  0  0  0  0
 57 42  1  0  0  0  0
M  END
$$$$
