RSL.pdb
 OpenBabel07022418073D

 55 54  0  0  1  0  0  0  0  0999 V2000
    4.1530   -3.4120    5.2290 N   0  0  0  0  0  0  0  0  0  0  0  0
    2.9330   -2.6820    5.4180 C   0  0  0  0  0  0  0  0  0  0  0  0
    2.9900   -1.5980    6.0750 N   0  0  0  0  0  0  0  0  0  0  0  0
    1.7040   -3.1200    4.9340 N   0  0  0  0  0  0  0  0  0  0  0  0
    0.8220   -2.4090    4.0610 C   0  0  0  0  0  0  0  0  0  0  0  0
    1.3350   -2.3220    2.6740 C   0  0  0  0  0  0  0  0  0  0  0  0
    2.5530   -1.5530    2.3870 C   0  0  0  0  0  0  0  0  0  0  0  0
    2.4090   -0.0600    2.5650 C   0  0  2  0  0  0  0  0  0  0  0  0
    2.0310    0.2770    3.8620 N   0  0  0  0  0  0  0  0  0  0  0  0
    1.5220    0.4100    1.4560 C   0  0  0  0  0  0  0  0  0  0  0  0
    1.9630    0.0630    0.3030 O   0  0  0  0  0  0  0  0  0  0  0  0
    4.1790   -4.4400    5.2610 H   0  0  0  0  0  0  0  0  0  0  0  0
    5.0120   -2.8740    5.0580 H   0  0  0  0  0  0  0  0  0  0  0  0
    2.2530   -0.9410    6.3180 H   0  0  0  0  0  0  0  0  0  0  0  0
    1.4010   -4.1030    5.2310 H   0  0  0  0  0  0  0  0  0  0  0  0
   -0.1570   -2.9720    3.9980 H   0  0  0  0  0  0  0  0  0  0  0  0
    0.5150   -1.4170    4.4830 H   0  0  0  0  0  0  0  0  0  0  0  0
    1.4700   -3.3800    2.3090 H   0  0  0  0  0  0  0  0  0  0  0  0
    0.4940   -1.9310    2.0440 H   0  0  0  0  0  0  0  0  0  0  0  0
    2.8010   -1.6920    1.2890 H   0  0  0  0  0  0  0  0  0  0  0  0
    3.4680   -1.9310    2.9020 H   0  0  0  0  0  0  0  0  0  0  0  0
    3.4330    0.3810    2.2980 H   0  0  0  0  0  0  0  0  0  0  0  0
    1.2410    0.8800    4.0510 H   0  0  0  0  0  0  0  0  0  0  0  0
    2.8780    0.6280    4.3970 H   0  0  0  0  0  0  0  0  0  0  0  0
    0.3170    3.7720    0.7350 O   0  0  0  0  0  0  0  0  0  0  0  0
    0.1950    2.7160   -0.1670 C   0  0  0  0  0  0  0  0  0  0  0  0
   -0.4550    1.5610    0.5040 C   0  0  2  0  0  0  0  0  0  0  0  0
    0.3500    1.1410    1.6270 N   0  0  0  0  0  0  0  0  0  0  0  0
   -0.7300    0.4210   -0.4090 C   0  0  0  0  0  0  0  0  0  0  0  0
   -0.3840   -0.7590   -0.2510 O   0  0  0  0  0  0  0  0  0  0  0  0
    1.2150    4.1910    0.7210 H   0  0  0  0  0  0  0  0  0  0  0  0
   -0.3130    3.0520   -1.0890 H   0  0  0  0  0  0  0  0  0  0  0  0
    1.2510    2.4790   -0.4910 H   0  0  0  0  0  0  0  0  0  0  0  0
   -1.4880    1.8540    0.8700 H   0  0  0  0  0  0  0  0  0  0  0  0
    0.0290    1.4010    2.5900 H   0  0  0  0  0  0  0  0  0  0  0  0
   -3.3950   -2.9820   -3.0960 C   0  0  0  0  0  0  0  0  0  0  0  0
   -3.9160   -1.5870   -3.3410 C   0  0  0  0  0  0  0  0  0  0  0  0
   -4.0980   -1.2920   -4.7760 C   0  0  0  0  0  0  0  0  0  0  0  0
   -3.2740   -0.5590   -2.4880 C   0  0  0  0  0  0  0  0  0  0  0  0
   -1.7900   -0.4020   -2.5710 C   0  0  2  0  0  0  0  0  0  0  0  0
   -1.4770    0.6900   -1.6120 N   0  0  0  0  0  0  0  0  0  0  0  0
   -1.2070   -0.1270   -3.8710 C   0  0  0  0  0  0  0  0  0  0  0  0
   -1.2340   -0.9220   -4.8360 O   0  0  0  0  0  0  0  0  0  0  0  0
   -0.5600    1.0930   -4.1140 O   0  0  0  0  0  0  0  0  0  0  0  0
   -2.8170   -3.3300   -4.0020 H   0  0  0  0  0  0  0  0  0  0  0  0
   -4.1860   -3.7280   -2.9160 H   0  0  0  0  0  0  0  0  0  0  0  0
   -2.7160   -3.0060   -2.2050 H   0  0  0  0  0  0  0  0  0  0  0  0
   -4.9970   -1.6480   -2.9120 H   0  0  0  0  0  0  0  0  0  0  0  0
   -5.1990   -1.4230   -5.0370 H   0  0  0  0  0  0  0  0  0  0  0  0
   -3.8310   -0.2500   -5.0330 H   0  0  0  0  0  0  0  0  0  0  0  0
   -3.5930   -2.0350   -5.4410 H   0  0  0  0  0  0  0  0  0  0  0  0
   -3.8060    0.4260   -2.5350 H   0  0  0  0  0  0  0  0  0  0  0  0
   -3.4700   -0.8880   -1.4160 H   0  0  0  0  0  0  0  0  0  0  0  0
   -1.3430   -1.3560   -2.1650 H   0  0  0  0  0  0  0  0  0  0  0  0
   -1.7800    1.6670   -1.7710 H   0  0  0  0  0  0  0  0  0  0  0  0
  1 12  1  0  0  0  0
  1  2  1  0  0  0  0
  2  3  2  0  0  0  0
  3 14  1  0  0  0  0
  4 15  1  0  0  0  0
  4  2  1  0  0  0  0
  5 17  1  0  0  0  0
  5  4  1  0  0  0  0
  6  5  1  0  0  0  0
  7  8  1  0  0  0  0
  7  6  1  0  0  0  0
  7 21  1  0  0  0  0
  8 22  1  6  0  0  0
  8  9  1  0  0  0  0
  9 23  1  0  0  0  0
  9 24  1  0  0  0  0
 10 28  1  0  0  0  0
 10  8  1  0  0  0  0
 11 10  2  0  0  0  0
 13  1  1  0  0  0  0
 16  5  1  0  0  0  0
 18  6  1  0  0  0  0
 19  6  1  0  0  0  0
 20  7  1  0  0  0  0
 26 27  1  0  0  0  0
 26 25  1  0  0  0  0
 27 34  1  1  0  0  0
 27 28  1  0  0  0  0
 28 35  1  0  0  0  0
 29 30  2  0  0  0  0
 29 27  1  0  0  0  0
 31 25  1  0  0  0  0
 32 26  1  0  0  0  0
 33 26  1  0  0  0  0
 36 46  1  0  0  0  0
 36 47  1  0  0  0  0
 37 36  1  0  0  0  0
 37 48  1  0  0  0  0
 37 39  1  0  0  0  0
 38 37  1  0  0  0  0
 39 53  1  0  0  0  0
 40 39  1  0  0  0  0
 40 54  1  1  0  0  0
 40 41  1  0  0  0  0
 41 29  1  0  0  0  0
 42 40  1  0  0  0  0
 43 42  2  0  0  0  0
 44 42  1  0  0  0  0
 45 36  1  0  0  0  0
 49 38  1  0  0  0  0
 50 38  1  0  0  0  0
 51 38  1  0  0  0  0
 52 39  1  0  0  0  0
 55 41  1  0  0  0  0
M  END
$$$$
