RSN.pdb
 OpenBabel07022418063D

 50 49  0  0  1  0  0  0  0  0999 V2000
    3.4910   -5.9160   -0.8980 N   0  0  0  0  0  0  0  0  0  0  0  0
    2.8790   -4.6830   -1.2160 C   0  0  0  0  0  0  0  0  0  0  0  0
    1.8420   -4.6570   -1.9690 N   0  0  0  0  0  0  0  0  0  0  0  0
    3.3980   -3.4690   -0.7120 N   0  0  0  0  0  0  0  0  0  0  0  0
    3.0020   -2.2010   -1.2320 C   0  0  0  0  0  0  0  0  0  0  0  0
    3.6520   -1.0320   -0.5800 C   0  0  0  0  0  0  0  0  0  0  0  0
    3.4320   -0.8720    0.8730 C   0  0  0  0  0  0  0  0  0  0  0  0
    2.0340   -0.7060    1.3430 C   0  0  2  0  0  0  0  0  0  0  0  0
    1.1640   -1.8190    1.0240 N   0  0  0  0  0  0  0  0  0  0  0  0
    1.4260    0.5910    0.9440 C   0  0  0  0  0  0  0  0  0  0  0  0
    2.0410    1.6710    1.1440 O   0  0  0  0  0  0  0  0  0  0  0  0
    3.4030   -6.7370   -1.5370 H   0  0  0  0  0  0  0  0  0  0  0  0
    4.0510   -6.0410   -0.0100 H   0  0  0  0  0  0  0  0  0  0  0  0
    1.4010   -5.5110   -2.3790 H   0  0  0  0  0  0  0  0  0  0  0  0
    4.0900   -3.5240    0.0650 H   0  0  0  0  0  0  0  0  0  0  0  0
    1.9070   -2.1020   -1.1890 H   0  0  0  0  0  0  0  0  0  0  0  0
    3.2290   -2.2400   -2.3420 H   0  0  0  0  0  0  0  0  0  0  0  0
    4.7660   -1.1720   -0.7210 H   0  0  0  0  0  0  0  0  0  0  0  0
    3.4470   -0.0780   -1.1420 H   0  0  0  0  0  0  0  0  0  0  0  0
    4.0640   -0.0300    1.2640 H   0  0  0  0  0  0  0  0  0  0  0  0
    3.8610   -1.7740    1.3930 H   0  0  0  0  0  0  0  0  0  0  0  0
    2.0750   -0.6780    2.4700 H   0  0  0  0  0  0  0  0  0  0  0  0
    1.6290   -2.7050    1.3140 H   0  0  0  0  0  0  0  0  0  0  0  0
    0.2150   -1.7000    1.3850 H   0  0  0  0  0  0  0  0  0  0  0  0
   -1.3170    3.2630   -1.7800 O   0  0  0  0  0  0  0  0  0  0  0  0
   -0.7150    2.0260   -1.5540 C   0  0  0  0  0  0  0  0  0  0  0  0
   -0.4700    1.9260   -0.0690 C   0  0  2  0  0  0  0  0  0  0  0  0
    0.1490    0.7050    0.3280 N   0  0  0  0  0  0  0  0  0  0  0  0
   -1.7700    2.1660    0.6020 C   0  0  0  0  0  0  0  0  0  0  0  0
   -2.4730    3.1820    0.3980 O   0  0  0  0  0  0  0  0  0  0  0  0
   -0.9230    3.9870   -1.2600 H   0  0  0  0  0  0  0  0  0  0  0  0
    0.1970    1.9830   -2.1600 H   0  0  0  0  0  0  0  0  0  0  0  0
   -1.4780    1.2620   -1.8750 H   0  0  0  0  0  0  0  0  0  0  0  0
    0.2270    2.7590    0.1910 H   0  0  0  0  0  0  0  0  0  0  0  0
   -0.3680   -0.1840    0.1580 H   0  0  0  0  0  0  0  0  0  0  0  0
   -2.7930   -1.4840    2.7210 N   0  0  0  0  0  0  0  0  0  0  0  0
   -3.9750   -1.1390    2.0500 C   0  0  0  0  0  0  0  0  0  0  0  0
   -4.7150   -2.0930    1.6390 O   0  0  0  0  0  0  0  0  0  0  0  0
   -4.3990    0.2220    1.7990 C   0  0  0  0  0  0  0  0  0  0  0  0
   -3.4610    1.3130    2.2230 C   0  0  2  0  0  0  0  0  0  0  0  0
   -2.2120    1.1620    1.5270 N   0  0  0  0  0  0  0  0  0  0  0  0
   -3.1860    1.3530    3.6750 C   0  0  0  0  0  0  0  0  0  0  0  0
   -1.9960    1.3010    4.1380 O   0  0  0  0  0  0  0  0  0  0  0  0
   -4.2060    1.4490    4.6250 O   0  0  0  0  0  0  0  0  0  0  0  0
   -2.0270   -1.9500    2.1980 H   0  0  0  0  0  0  0  0  0  0  0  0
   -2.6730   -1.2880    3.7320 H   0  0  0  0  0  0  0  0  0  0  0  0
   -5.3980    0.4070    2.3100 H   0  0  0  0  0  0  0  0  0  0  0  0
   -4.6760    0.3440    0.7070 H   0  0  0  0  0  0  0  0  0  0  0  0
   -3.9100    2.3180    1.9140 H   0  0  0  0  0  0  0  0  0  0  0  0
   -1.6230    0.3210    1.6950 H   0  0  0  0  0  0  0  0  0  0  0  0
  1 13  1  0  0  0  0
  2  1  1  0  0  0  0
  2  4  1  0  0  0  0
  3  2  2  0  0  0  0
  4 15  1  0  0  0  0
  5 16  1  0  0  0  0
  5  4  1  0  0  0  0
  5  6  1  0  0  0  0
  6  7  1  0  0  0  0
  7 20  1  0  0  0  0
  7  8  1  0  0  0  0
  7 21  1  0  0  0  0
  8 22  1  1  0  0  0
  9 23  1  0  0  0  0
  9  8  1  0  0  0  0
  9 24  1  0  0  0  0
 10 11  2  0  0  0  0
 10  8  1  0  0  0  0
 12  1  1  0  0  0  0
 14  3  1  0  0  0  0
 17  5  1  0  0  0  0
 18  6  1  0  0  0  0
 19  6  1  0  0  0  0
 25 26  1  0  0  0  0
 25 31  1  0  0  0  0
 26 27  1  0  0  0  0
 27 34  1  1  0  0  0
 27 28  1  0  0  0  0
 27 29  1  0  0  0  0
 28 10  1  0  0  0  0
 29 41  1  0  0  0  0
 30 29  2  0  0  0  0
 32 26  1  0  0  0  0
 33 26  1  0  0  0  0
 35 28  1  0  0  0  0
 36 46  1  0  0  0  0
 37 36  1  0  0  0  0
 38 37  2  0  0  0  0
 39 37  1  0  0  0  0
 39 40  1  0  0  0  0
 39 47  1  0  0  0  0
 40 49  1  6  0  0  0
 40 42  1  0  0  0  0
 41 50  1  0  0  0  0
 41 40  1  0  0  0  0
 42 43  2  0  0  0  0
 42 44  1  0  0  0  0
 45 36  1  0  0  0  0
 48 39  1  0  0  0  0
M  END
$$$$
