RSR.pdb
 OpenBabel07022418063D

 59 58  0  0  1  0  0  0  0  0999 V2000
   -1.9190   -0.2670    7.1310 N   0  0  0  0  0  0  0  0  0  0  0  0
   -0.7080    0.4490    7.3280 C   0  0  0  0  0  0  0  0  0  0  0  0
   -0.7090    1.6880    7.7480 N   0  0  0  0  0  0  0  0  0  0  0  0
    0.5550   -0.1940    7.0650 N   0  0  0  0  0  0  0  0  0  0  0  0
    1.7780    0.5030    7.0400 C   0  0  0  0  0  0  0  0  0  0  0  0
    2.0620    1.5110    6.0160 C   0  0  0  0  0  0  0  0  0  0  0  0
    2.1060    1.1900    4.5830 C   0  0  0  0  0  0  0  0  0  0  0  0
    0.9070    0.6920    3.8860 C   0  0  2  0  0  0  0  0  0  0  0  0
    0.4040   -0.5500    4.3930 N   0  0  0  0  0  0  0  0  0  0  0  0
    1.2930    0.4790    2.4440 C   0  0  0  0  0  0  0  0  0  0  0  0
    1.8270    1.3950    1.7940 O   0  0  0  0  0  0  0  0  0  0  0  0
   -2.0630   -1.1860    7.6250 H   0  0  0  0  0  0  0  0  0  0  0  0
   -2.6990    0.0710    6.5090 H   0  0  0  0  0  0  0  0  0  0  0  0
   -1.6440    2.1150    7.9280 H   0  0  0  0  0  0  0  0  0  0  0  0
    0.4880   -1.2270    6.9270 H   0  0  0  0  0  0  0  0  0  0  0  0
    2.6060   -0.2780    6.9640 H   0  0  0  0  0  0  0  0  0  0  0  0
    2.0230    0.9660    8.0580 H   0  0  0  0  0  0  0  0  0  0  0  0
    3.1100    1.9190    6.2650 H   0  0  0  0  0  0  0  0  0  0  0  0
    1.4380    2.4520    6.1470 H   0  0  0  0  0  0  0  0  0  0  0  0
    2.4110    2.1500    4.0490 H   0  0  0  0  0  0  0  0  0  0  0  0
    2.9520    0.4730    4.3370 H   0  0  0  0  0  0  0  0  0  0  0  0
    0.0750    1.4720    3.8760 H   0  0  0  0  0  0  0  0  0  0  0  0
   -0.4970   -0.7840    3.9270 H   0  0  0  0  0  0  0  0  0  0  0  0
    1.0940   -1.3260    4.3410 H   0  0  0  0  0  0  0  0  0  0  0  0
    3.4100   -2.2450    0.9860 O   0  0  0  0  0  0  0  0  0  0  0  0
    2.2130   -2.2910    0.2820 C   0  0  0  0  0  0  0  0  0  0  0  0
    1.3960   -1.0290    0.4340 C   0  0  2  0  0  0  0  0  0  0  0  0
    1.0480   -0.7670    1.8200 N   0  0  0  0  0  0  0  0  0  0  0  0
    0.1260   -1.2450   -0.3070 C   0  0  0  0  0  0  0  0  0  0  0  0
   -0.9580   -1.1880    0.3260 O   0  0  0  0  0  0  0  0  0  0  0  0
    3.6040   -3.1400    1.3930 H   0  0  0  0  0  0  0  0  0  0  0  0
    2.5150   -2.3250   -0.8050 H   0  0  0  0  0  0  0  0  0  0  0  0
    1.5810   -3.1410    0.5320 H   0  0  0  0  0  0  0  0  0  0  0  0
    1.9280   -0.1200    0.0400 H   0  0  0  0  0  0  0  0  0  0  0  0
    0.6000   -1.5180    2.3860 H   0  0  0  0  0  0  0  0  0  0  0  0
   -0.6130   -1.9070   -8.1810 N   0  0  0  0  0  0  0  0  0  0  0  0
   -1.4860   -1.2950   -7.2340 C   0  0  0  0  0  0  0  0  0  0  0  0
   -1.7940   -0.0360   -7.3900 N   0  0  0  0  0  0  0  0  0  0  0  0
   -1.9770   -2.0740   -6.1740 N   0  0  0  0  0  0  0  0  0  0  0  0
   -2.9180   -1.5440   -5.2350 C   0  0  0  0  0  0  0  0  0  0  0  0
   -2.4320   -0.4900   -4.3290 C   0  0  0  0  0  0  0  0  0  0  0  0
   -1.2930   -0.6730   -3.4450 C   0  0  0  0  0  0  0  0  0  0  0  0
   -1.2340   -1.7200   -2.3990 C   0  0  2  0  0  0  0  0  0  0  0  0
    0.0700   -1.5090   -1.6770 N   0  0  0  0  0  0  0  0  0  0  0  0
   -1.1090   -3.1060   -2.8850 C   0  0  0  0  0  0  0  0  0  0  0  0
   -0.0070   -3.7340   -2.7670 O   0  0  0  0  0  0  0  0  0  0  0  0
   -2.1290   -3.7870   -3.4690 O   0  0  0  0  0  0  0  0  0  0  0  0
   -0.8250   -2.8560   -8.5650 H   0  0  0  0  0  0  0  0  0  0  0  0
    0.2440   -1.4500   -8.5190 H   0  0  0  0  0  0  0  0  0  0  0  0
   -1.4120    0.4980   -8.1810 H   0  0  0  0  0  0  0  0  0  0  0  0
   -1.6450   -3.0560   -6.0750 H   0  0  0  0  0  0  0  0  0  0  0  0
   -3.6550   -0.9600   -5.9510 H   0  0  0  0  0  0  0  0  0  0  0  0
   -3.6340   -2.2740   -4.8140 H   0  0  0  0  0  0  0  0  0  0  0  0
   -2.2110    0.4210   -4.9960 H   0  0  0  0  0  0  0  0  0  0  0  0
   -3.3550   -0.1200   -3.7580 H   0  0  0  0  0  0  0  0  0  0  0  0
   -1.1610    0.3240   -2.8830 H   0  0  0  0  0  0  0  0  0  0  0  0
   -0.3180   -0.7110   -4.0410 H   0  0  0  0  0  0  0  0  0  0  0  0
   -2.0700   -1.6470   -1.7070 H   0  0  0  0  0  0  0  0  0  0  0  0
    0.9040   -1.5720   -2.2540 H   0  0  0  0  0  0  0  0  0  0  0  0
  1  2  1  0  0  0  0
  1 12  1  0  0  0  0
  2  3  2  0  0  0  0
  3 14  1  0  0  0  0
  4  2  1  0  0  0  0
  5  4  1  0  0  0  0
  5 17  1  0  0  0  0
  6 19  1  0  0  0  0
  6 18  1  0  0  0  0
  6  5  1  0  0  0  0
  7  6  1  0  0  0  0
  8 22  1  1  0  0  0
  8  9  1  0  0  0  0
  8  7  1  0  0  0  0
 10  8  1  0  0  0  0
 11 10  2  0  0  0  0
 13  1  1  0  0  0  0
 15  4  1  0  0  0  0
 16  5  1  0  0  0  0
 20  7  1  0  0  0  0
 21  7  1  0  0  0  0
 23  9  1  0  0  0  0
 24  9  1  0  0  0  0
 25 31  1  0  0  0  0
 26 27  1  0  0  0  0
 26 33  1  0  0  0  0
 26 25  1  0  0  0  0
 27 34  1  6  0  0  0
 27 28  1  0  0  0  0
 28 35  1  0  0  0  0
 28 10  1  0  0  0  0
 29 30  2  0  0  0  0
 29 27  1  0  0  0  0
 32 26  1  0  0  0  0
 36 37  1  0  0  0  0
 37 39  1  0  0  0  0
 38 37  2  0  0  0  0
 39 51  1  0  0  0  0
 39 40  1  0  0  0  0
 40 53  1  0  0  0  0
 40 41  1  0  0  0  0
 41 55  1  0  0  0  0
 41 42  1  0  0  0  0
 42 56  1  0  0  0  0
 42 43  1  0  0  0  0
 43 58  1  1  0  0  0
 43 44  1  0  0  0  0
 44 29  1  0  0  0  0
 45 46  1  0  0  0  0
 45 43  1  0  0  0  0
 47 45  2  0  0  0  0
 48 36  1  0  0  0  0
 49 36  1  0  0  0  0
 50 38  1  0  0  0  0
 52 40  1  0  0  0  0
 54 41  1  0  0  0  0
 57 42  1  0  0  0  0
 59 44  1  0  0  0  0
M  END
$$$$
