RST.pdb
 OpenBabel07022418073D

 50 49  0  0  1  0  0  0  0  0999 V2000
    1.7240   -4.7760    2.5060 N   0  0  0  0  0  0  0  0  0  0  0  0
    2.4650   -4.1130    1.5100 C   0  0  0  0  0  0  0  0  0  0  0  0
    3.6630   -4.4680    1.2020 N   0  0  0  0  0  0  0  0  0  0  0  0
    1.9140   -2.9990    0.7930 N   0  0  0  0  0  0  0  0  0  0  0  0
    2.3070   -2.7110   -0.5570 C   0  0  0  0  0  0  0  0  0  0  0  0
    1.8710   -1.3830   -1.0660 C   0  0  0  0  0  0  0  0  0  0  0  0
    2.4500   -0.1640   -0.5110 C   0  0  0  0  0  0  0  0  0  0  0  0
    2.3840    0.2130    0.9040 C   0  0  2  0  0  0  0  0  0  0  0  0
    3.0240   -0.7360    1.7470 N   0  0  0  0  0  0  0  0  0  0  0  0
    1.0580    0.6440    1.3870 C   0  0  0  0  0  0  0  0  0  0  0  0
    0.4980    1.6200    0.8030 O   0  0  0  0  0  0  0  0  0  0  0  0
    0.8760   -4.3660    2.9330 H   0  0  0  0  0  0  0  0  0  0  0  0
    2.0340   -5.7120    2.8320 H   0  0  0  0  0  0  0  0  0  0  0  0
    4.1330   -5.2780    1.6930 H   0  0  0  0  0  0  0  0  0  0  0  0
    1.1790   -2.4360    1.2790 H   0  0  0  0  0  0  0  0  0  0  0  0
    3.4130   -2.8630   -0.6560 H   0  0  0  0  0  0  0  0  0  0  0  0
    1.8770   -3.5540   -1.1800 H   0  0  0  0  0  0  0  0  0  0  0  0
    2.1190   -1.3740   -2.1830 H   0  0  0  0  0  0  0  0  0  0  0  0
    0.7440   -1.3830   -1.0900 H   0  0  0  0  0  0  0  0  0  0  0  0
    3.5620   -0.1810   -0.8300 H   0  0  0  0  0  0  0  0  0  0  0  0
    2.1100    0.7450   -1.1390 H   0  0  0  0  0  0  0  0  0  0  0  0
    3.0410    1.1620    1.0140 H   0  0  0  0  0  0  0  0  0  0  0  0
    4.0500   -0.8340    1.5840 H   0  0  0  0  0  0  0  0  0  0  0  0
    2.7830   -0.6950    2.7590 H   0  0  0  0  0  0  0  0  0  0  0  0
   -1.8770    2.5390    3.8580 O   0  0  0  0  0  0  0  0  0  0  0  0
   -0.6890    1.9660    3.4560 C   0  0  0  0  0  0  0  0  0  0  0  0
   -0.9220    0.5700    2.8570 C   0  0  2  0  0  0  0  0  0  0  0  0
    0.3620    0.0460    2.4610 N   0  0  0  0  0  0  0  0  0  0  0  0
   -1.9680    0.5690    1.8470 C   0  0  0  0  0  0  0  0  0  0  0  0
   -3.0650    1.1410    2.1200 O   0  0  0  0  0  0  0  0  0  0  0  0
   -2.3490    1.8790    4.4290 H   0  0  0  0  0  0  0  0  0  0  0  0
   -0.1070    2.5850    2.7820 H   0  0  0  0  0  0  0  0  0  0  0  0
   -0.0210    1.7690    4.3440 H   0  0  0  0  0  0  0  0  0  0  0  0
   -1.2590   -0.0210    3.7880 H   0  0  0  0  0  0  0  0  0  0  0  0
    0.7870   -0.7900    2.9730 H   0  0  0  0  0  0  0  0  0  0  0  0
   -2.0180    2.0990   -1.4700 C   0  0  0  0  0  0  0  0  0  0  0  0
   -2.5070    0.6800   -1.6880 C   0  0  1  0  0  0  0  0  0  0  0  0
   -1.4540   -0.0370   -2.2670 O   0  0  0  0  0  0  0  0  0  0  0  0
   -2.9600    0.0270   -0.4020 C   0  0  2  0  0  0  0  0  0  0  0  0
   -1.8600   -0.0230    0.5740 N   0  0  0  0  0  0  0  0  0  0  0  0
   -3.3690   -1.3720   -0.7370 C   0  0  0  0  0  0  0  0  0  0  0  0
   -2.8000   -2.3420   -0.1850 O   0  0  0  0  0  0  0  0  0  0  0  0
   -4.3650   -1.6490   -1.6460 O   0  0  0  0  0  0  0  0  0  0  0  0
   -1.0390    2.2720   -2.0000 H   0  0  0  0  0  0  0  0  0  0  0  0
   -2.7030    2.8620   -1.9330 H   0  0  0  0  0  0  0  0  0  0  0  0
   -1.8930    2.3400   -0.3970 H   0  0  0  0  0  0  0  0  0  0  0  0
   -3.3620    0.7180   -2.3710 H   0  0  0  0  0  0  0  0  0  0  0  0
   -1.7140   -0.9990   -2.2170 H   0  0  0  0  0  0  0  0  0  0  0  0
   -3.8120    0.6050   -0.0030 H   0  0  0  0  0  0  0  0  0  0  0  0
   -1.0050   -0.5310    0.2730 H   0  0  0  0  0  0  0  0  0  0  0  0
  1 13  1  0  0  0  0
  1 12  1  0  0  0  0
  2  1  1  0  0  0  0
  3  2  2  0  0  0  0
  3 14  1  0  0  0  0
  4 15  1  0  0  0  0
  4  2  1  0  0  0  0
  5  4  1  0  0  0  0
  6  5  1  0  0  0  0
  6  7  1  0  0  0  0
  7  8  1  0  0  0  0
  8 22  1  1  0  0  0
  8 10  1  0  0  0  0
  8  9  1  0  0  0  0
  9 24  1  0  0  0  0
 10 28  1  0  0  0  0
 11 10  2  0  0  0  0
 16  5  1  0  0  0  0
 17  5  1  0  0  0  0
 18  6  1  0  0  0  0
 19  6  1  0  0  0  0
 20  7  1  0  0  0  0
 21  7  1  0  0  0  0
 23  9  1  0  0  0  0
 25 31  1  0  0  0  0
 26 25  1  0  0  0  0
 26 33  1  0  0  0  0
 27 26  1  0  0  0  0
 27 34  1  1  0  0  0
 28 27  1  0  0  0  0
 28 35  1  0  0  0  0
 29 30  2  0  0  0  0
 29 27  1  0  0  0  0
 32 26  1  0  0  0  0
 36 46  1  0  0  0  0
 37 47  1  6  0  0  0
 37 36  1  0  0  0  0
 37 39  1  0  0  0  0
 38 48  1  0  0  0  0
 38 37  1  0  0  0  0
 39 49  1  1  0  0  0
 39 40  1  0  0  0  0
 40 29  1  0  0  0  0
 41 39  1  0  0  0  0
 41 42  1  0  0  0  0
 43 41  2  0  0  0  0
 44 36  1  0  0  0  0
 45 36  1  0  0  0  0
 50 40  1  0  0  0  0
M  END
$$$$
