RSV.pdb
 OpenBabel07022418073D

 52 51  0  0  1  0  0  0  0  0999 V2000
    0.6660   -3.9800   -3.1750 N   0  0  0  0  0  0  0  0  0  0  0  0
    1.4940   -3.3290   -2.2240 C   0  0  0  0  0  0  0  0  0  0  0  0
    2.0050   -4.0550   -1.2650 N   0  0  0  0  0  0  0  0  0  0  0  0
    1.8080   -1.9530   -2.2400 N   0  0  0  0  0  0  0  0  0  0  0  0
    2.6360   -1.3930   -1.1940 C   0  0  0  0  0  0  0  0  0  0  0  0
    2.8390    0.0820   -1.4090 C   0  0  0  0  0  0  0  0  0  0  0  0
    3.7020    0.7560   -0.4150 C   0  0  0  0  0  0  0  0  0  0  0  0
    3.2380    0.7380    1.0150 C   0  0  2  0  0  0  0  0  0  0  0  0
    3.1500   -0.6490    1.4050 N   0  0  0  0  0  0  0  0  0  0  0  0
    1.9830    1.4630    1.2260 C   0  0  0  0  0  0  0  0  0  0  0  0
    1.9980    2.7230    1.5380 O   0  0  0  0  0  0  0  0  0  0  0  0
   -0.2700   -3.5620   -3.3630 H   0  0  0  0  0  0  0  0  0  0  0  0
    0.9530   -4.8370   -3.6660 H   0  0  0  0  0  0  0  0  0  0  0  0
    1.8150   -5.0750   -1.1940 H   0  0  0  0  0  0  0  0  0  0  0  0
    1.4530   -1.3510   -2.9850 H   0  0  0  0  0  0  0  0  0  0  0  0
    3.5970   -1.8930   -1.0980 H   0  0  0  0  0  0  0  0  0  0  0  0
    2.0620   -1.6260   -0.2560 H   0  0  0  0  0  0  0  0  0  0  0  0
    1.8330    0.5920   -1.5340 H   0  0  0  0  0  0  0  0  0  0  0  0
    3.3050    0.2100   -2.4120 H   0  0  0  0  0  0  0  0  0  0  0  0
    4.7050    0.2310   -0.4530 H   0  0  0  0  0  0  0  0  0  0  0  0
    3.9150    1.7880   -0.7700 H   0  0  0  0  0  0  0  0  0  0  0  0
    4.0700    1.1780    1.6160 H   0  0  0  0  0  0  0  0  0  0  0  0
    4.0540   -1.1030    1.5950 H   0  0  0  0  0  0  0  0  0  0  0  0
    2.4830   -0.7640    2.2030 H   0  0  0  0  0  0  0  0  0  0  0  0
   -2.0530    3.1210    0.2350 O   0  0  0  0  0  0  0  0  0  0  0  0
   -0.9190    2.3310    0.0260 C   0  0  0  0  0  0  0  0  0  0  0  0
   -0.5020    1.7240    1.3830 C   0  0  2  0  0  0  0  0  0  0  0  0
    0.6820    0.9190    1.1220 N   0  0  0  0  0  0  0  0  0  0  0  0
   -1.6180    1.0240    1.9790 C   0  0  0  0  0  0  0  0  0  0  0  0
   -2.6390    1.7320    2.2840 O   0  0  0  0  0  0  0  0  0  0  0  0
   -1.9240    3.6330    1.0970 H   0  0  0  0  0  0  0  0  0  0  0  0
   -0.9920    1.6010   -0.7690 H   0  0  0  0  0  0  0  0  0  0  0  0
   -0.1030    3.0600   -0.2660 H   0  0  0  0  0  0  0  0  0  0  0  0
   -0.1610    2.6470    1.9560 H   0  0  0  0  0  0  0  0  0  0  0  0
    0.5780   -0.0970    0.8440 H   0  0  0  0  0  0  0  0  0  0  0  0
   -2.6790   -2.8470    1.3470 C   0  0  0  0  0  0  0  0  0  0  0  0
   -3.6120   -1.7500    1.7800 C   0  0  0  0  0  0  0  0  0  0  0  0
   -3.9970   -0.8260    0.6470 C   0  0  0  0  0  0  0  0  0  0  0  0
   -2.9300   -0.9270    2.8670 C   0  0  2  0  0  0  0  0  0  0  0  0
   -1.7060   -0.3730    2.2560 N   0  0  0  0  0  0  0  0  0  0  0  0
   -2.5710   -1.8550    3.9570 C   0  0  0  0  0  0  0  0  0  0  0  0
   -1.3750   -2.0950    4.2450 O   0  0  0  0  0  0  0  0  0  0  0  0
   -3.5290   -2.5140    4.7180 O   0  0  0  0  0  0  0  0  0  0  0  0
   -1.7430   -2.4070    0.8980 H   0  0  0  0  0  0  0  0  0  0  0  0
   -3.1380   -3.4740    0.5260 H   0  0  0  0  0  0  0  0  0  0  0  0
   -2.4500   -3.5590    2.1580 H   0  0  0  0  0  0  0  0  0  0  0  0
   -4.5370   -2.2020    2.1870 H   0  0  0  0  0  0  0  0  0  0  0  0
   -4.7200   -1.3060   -0.0420 H   0  0  0  0  0  0  0  0  0  0  0  0
   -3.0620   -0.5460    0.1010 H   0  0  0  0  0  0  0  0  0  0  0  0
   -4.4320    0.1310    1.0280 H   0  0  0  0  0  0  0  0  0  0  0  0
   -3.5790   -0.1130    3.1860 H   0  0  0  0  0  0  0  0  0  0  0  0
   -0.8870   -0.9690    2.0220 H   0  0  0  0  0  0  0  0  0  0  0  0
  1  2  1  0  0  0  0
  2  3  2  0  0  0  0
  3 14  1  0  0  0  0
  4  2  1  0  0  0  0
  4  5  1  0  0  0  0
  5 16  1  0  0  0  0
  5 17  1  0  0  0  0
  6  5  1  0  0  0  0
  6  7  1  0  0  0  0
  7  8  1  0  0  0  0
  8 10  1  0  0  0  0
  8  9  1  0  0  0  0
  8 22  1  1  0  0  0
  9 23  1  0  0  0  0
  9 24  1  0  0  0  0
 10 11  2  0  0  0  0
 12  1  1  0  0  0  0
 13  1  1  0  0  0  0
 15  4  1  0  0  0  0
 18  6  1  0  0  0  0
 19  6  1  0  0  0  0
 20  7  1  0  0  0  0
 21  7  1  0  0  0  0
 25 31  1  0  0  0  0
 26 25  1  0  0  0  0
 26 27  1  0  0  0  0
 27 34  1  1  0  0  0
 27 29  1  0  0  0  0
 28 10  1  0  0  0  0
 28 27  1  0  0  0  0
 29 40  1  0  0  0  0
 29 30  2  0  0  0  0
 32 26  1  0  0  0  0
 33 26  1  0  0  0  0
 35 28  1  0  0  0  0
 36 37  1  0  0  0  0
 36 46  1  0  0  0  0
 37 47  1  0  0  0  0
 37 39  1  0  0  0  0
 38 50  1  0  0  0  0
 38 37  1  0  0  0  0
 39 51  1  1  0  0  0
 39 41  1  0  0  0  0
 40 39  1  0  0  0  0
 41 42  2  0  0  0  0
 41 43  1  0  0  0  0
 44 36  1  0  0  0  0
 45 36  1  0  0  0  0
 48 38  1  0  0  0  0
 49 38  1  0  0  0  0
 52 40  1  0  0  0  0
M  END
$$$$
