RSY.pdb
 OpenBabel07022418073D

 57 57  0  0  1  0  0  0  0  0999 V2000
    6.1570   -2.3300    3.9570 N   0  0  0  0  0  0  0  0  0  0  0  0
    5.9900   -0.9110    3.9770 C   0  0  0  0  0  0  0  0  0  0  0  0
    5.9080   -0.2670    5.0970 N   0  0  0  0  0  0  0  0  0  0  0  0
    5.9180   -0.2330    2.7210 N   0  0  0  0  0  0  0  0  0  0  0  0
    5.1170    0.9680    2.6270 C   0  0  0  0  0  0  0  0  0  0  0  0
    3.6320    0.6480    2.7690 C   0  0  0  0  0  0  0  0  0  0  0  0
    2.9040    1.9580    2.6590 C   0  0  0  0  0  0  0  0  0  0  0  0
    1.4020    1.8340    2.7800 C   0  0  2  0  0  0  0  0  0  0  0  0
    1.0030    1.2650    4.0450 N   0  0  0  0  0  0  0  0  0  0  0  0
    0.8390    1.0910    1.6390 C   0  0  0  0  0  0  0  0  0  0  0  0
    1.0650    1.5220    0.4600 O   0  0  0  0  0  0  0  0  0  0  0  0
    5.9420   -2.9290    4.8010 H   0  0  0  0  0  0  0  0  0  0  0  0
    6.4950   -2.8350    3.1120 H   0  0  0  0  0  0  0  0  0  0  0  0
    5.9690   -0.8310    5.9710 H   0  0  0  0  0  0  0  0  0  0  0  0
    6.4390   -0.6160    1.9100 H   0  0  0  0  0  0  0  0  0  0  0  0
    5.3140    1.4830    1.6520 H   0  0  0  0  0  0  0  0  0  0  0  0
    5.4280    1.6940    3.4080 H   0  0  0  0  0  0  0  0  0  0  0  0
    3.4840    0.2620    3.8000 H   0  0  0  0  0  0  0  0  0  0  0  0
    3.3210   -0.1170    2.0590 H   0  0  0  0  0  0  0  0  0  0  0  0
    3.3000    2.6450    3.4180 H   0  0  0  0  0  0  0  0  0  0  0  0
    3.1280    2.3660    1.6450 H   0  0  0  0  0  0  0  0  0  0  0  0
    1.0000    2.8680    2.7450 H   0  0  0  0  0  0  0  0  0  0  0  0
    1.3440    0.2900    4.1770 H   0  0  0  0  0  0  0  0  0  0  0  0
    1.2600    1.9070    4.8070 H   0  0  0  0  0  0  0  0  0  0  0  0
    1.5800   -1.8450    0.1860 O   0  0  0  0  0  0  0  0  0  0  0  0
    0.2030   -2.0790    0.3220 C   0  0  0  0  0  0  0  0  0  0  0  0
   -0.4560   -0.7330    0.5450 C   0  0  2  0  0  0  0  0  0  0  0  0
    0.0500   -0.0870    1.7390 N   0  0  0  0  0  0  0  0  0  0  0  0
   -1.9200   -0.8460    0.5870 C   0  0  0  0  0  0  0  0  0  0  0  0
   -2.5150   -0.4080    1.6220 O   0  0  0  0  0  0  0  0  0  0  0  0
    1.9420   -2.3620   -0.5860 H   0  0  0  0  0  0  0  0  0  0  0  0
    0.0180   -2.7990    1.1220 H   0  0  0  0  0  0  0  0  0  0  0  0
   -0.1530   -2.4980   -0.6270 H   0  0  0  0  0  0  0  0  0  0  0  0
   -0.1680   -0.1230   -0.3460 H   0  0  0  0  0  0  0  0  0  0  0  0
   -0.1400   -0.4520    2.6860 H   0  0  0  0  0  0  0  0  0  0  0  0
   -3.2440   -1.9420   -6.5740 O   0  0  0  0  0  0  0  0  0  0  0  0
   -3.6520   -1.6100   -5.2710 C   0  0  0  0  0  0  0  0  0  0  0  0
   -2.9670   -0.6700   -4.5290 C   0  0  0  0  0  0  0  0  0  0  0  0
   -3.3700   -0.3480   -3.2540 C   0  0  0  0  0  0  0  0  0  0  0  0
   -4.4810   -0.9520   -2.6560 C   0  0  0  0  0  0  0  0  0  0  0  0
   -4.8460   -0.5560   -1.2870 C   0  0  0  0  0  0  0  0  0  0  0  0
   -4.1450   -1.4690   -0.2920 C   0  0  2  0  0  0  0  0  0  0  0  0
   -2.7130   -1.4000   -0.4260 N   0  0  0  0  0  0  0  0  0  0  0  0
   -4.5710   -2.8680   -0.4460 C   0  0  0  0  0  0  0  0  0  0  0  0
   -5.7700   -3.2640   -0.3760 O   0  0  0  0  0  0  0  0  0  0  0  0
   -5.1540   -1.8920   -3.4160 C   0  0  0  0  0  0  0  0  0  0  0  0
   -4.7470   -2.2090   -4.6900 C   0  0  0  0  0  0  0  0  0  0  0  0
   -3.6260   -3.8840   -0.6860 O   0  0  0  0  0  0  0  0  0  0  0  0
   -2.3390   -1.6220   -6.8630 H   0  0  0  0  0  0  0  0  0  0  0  0
   -2.0890   -0.1780   -4.9740 H   0  0  0  0  0  0  0  0  0  0  0  0
   -2.8290    0.3970   -2.6640 H   0  0  0  0  0  0  0  0  0  0  0  0
   -5.9570   -0.6680   -1.2080 H   0  0  0  0  0  0  0  0  0  0  0  0
   -4.6290    0.4920   -1.0840 H   0  0  0  0  0  0  0  0  0  0  0  0
   -4.4170   -1.0520    0.7130 H   0  0  0  0  0  0  0  0  0  0  0  0
   -2.2110   -1.7620   -1.2890 H   0  0  0  0  0  0  0  0  0  0  0  0
   -6.0330   -2.3750   -2.9590 H   0  0  0  0  0  0  0  0  0  0  0  0
   -5.3150   -2.9510   -5.2300 H   0  0  0  0  0  0  0  0  0  0  0  0
  1  2  1  0  0  0  0
  1 12  1  0  0  0  0
  2  3  2  0  0  0  0
  3 14  1  0  0  0  0
  4  2  1  0  0  0  0
  5  4  1  0  0  0  0
  5  6  1  0  0  0  0
  5 17  1  0  0  0  0
  6 18  1  0  0  0  0
  7  6  1  0  0  0  0
  7  8  1  0  0  0  0
  7 20  1  0  0  0  0
  8 22  1  6  0  0  0
  8  9  1  0  0  0  0
  9 23  1  0  0  0  0
  9 24  1  0  0  0  0
 10 28  1  0  0  0  0
 10  8  1  0  0  0  0
 11 10  2  0  0  0  0
 13  1  1  0  0  0  0
 15  4  1  0  0  0  0
 16  5  1  0  0  0  0
 19  6  1  0  0  0  0
 21  7  1  0  0  0  0
 25 26  1  0  0  0  0
 26 27  1  0  0  0  0
 26 32  1  0  0  0  0
 27 34  1  6  0  0  0
 27 29  1  0  0  0  0
 27 28  1  0  0  0  0
 28 35  1  0  0  0  0
 29 30  2  0  0  0  0
 31 25  1  0  0  0  0
 33 26  1  0  0  0  0
 36 37  1  0  0  0  0
 37 47  2  0  0  0  0
 37 38  1  0  0  0  0
 38 39  2  0  0  0  0
 39 51  1  0  0  0  0
 39 40  1  0  0  0  0
 40 41  1  0  0  0  0
 41 52  1  0  0  0  0
 41 53  1  0  0  0  0
 41 42  1  0  0  0  0
 42 54  1  1  0  0  0
 43 42  1  0  0  0  0
 43 29  1  0  0  0  0
 44 45  1  0  0  0  0
 44 42  1  0  0  0  0
 46 56  1  0  0  0  0
 46 40  2  0  0  0  0
 47 46  1  0  0  0  0
 48 44  2  0  0  0  0
 49 36  1  0  0  0  0
 50 38  1  0  0  0  0
 55 43  1  0  0  0  0
 57 47  1  0  0  0  0
M  END
$$$$
