RTC.pdb
 OpenBabel07022418073D

 50 49  0  0  1  0  0  0  0  0999 V2000
    5.5430   -3.8630   -0.4490 N   0  0  0  0  0  0  0  0  0  0  0  0
    5.4810   -2.6590    0.2990 C   0  0  0  0  0  0  0  0  0  0  0  0
    6.3100   -2.4510    1.2500 N   0  0  0  0  0  0  0  0  0  0  0  0
    4.4970   -1.6750   -0.0030 N   0  0  0  0  0  0  0  0  0  0  0  0
    4.0780   -0.7210    1.0410 C   0  0  0  0  0  0  0  0  0  0  0  0
    3.0470    0.1620    0.4060 C   0  0  0  0  0  0  0  0  0  0  0  0
    2.4740    1.2270    1.2570 C   0  0  0  0  0  0  0  0  0  0  0  0
    1.7610    0.8250    2.4910 C   0  0  2  0  0  0  0  0  0  0  0  0
    2.6420    0.1120    3.3710 N   0  0  0  0  0  0  0  0  0  0  0  0
    0.4900    0.1320    2.2740 C   0  0  0  0  0  0  0  0  0  0  0  0
    0.2790   -0.9670    2.8330 O   0  0  0  0  0  0  0  0  0  0  0  0
    5.2260   -4.7840   -0.0760 H   0  0  0  0  0  0  0  0  0  0  0  0
    5.9210   -3.8800   -1.4370 H   0  0  0  0  0  0  0  0  0  0  0  0
    7.0510   -3.1010    1.5380 H   0  0  0  0  0  0  0  0  0  0  0  0
    4.1030   -1.6660   -0.9670 H   0  0  0  0  0  0  0  0  0  0  0  0
    3.6910   -1.3390    1.8790 H   0  0  0  0  0  0  0  0  0  0  0  0
    4.9350   -0.0980    1.3480 H   0  0  0  0  0  0  0  0  0  0  0  0
    3.5910    0.6940   -0.4330 H   0  0  0  0  0  0  0  0  0  0  0  0
    2.2920   -0.4520   -0.1290 H   0  0  0  0  0  0  0  0  0  0  0  0
    3.3120    1.9490    1.4940 H   0  0  0  0  0  0  0  0  0  0  0  0
    1.8090    1.8500    0.5850 H   0  0  0  0  0  0  0  0  0  0  0  0
    1.4980    1.7830    3.0390 H   0  0  0  0  0  0  0  0  0  0  0  0
    3.5900    0.4920    3.4250 H   0  0  0  0  0  0  0  0  0  0  0  0
    2.2210   -0.1790    4.2660 H   0  0  0  0  0  0  0  0  0  0  0  0
   -2.7450    0.9610    3.3420 C   0  0  0  0  0  0  0  0  0  0  0  0
   -2.9370    0.6940    1.8570 C   0  0  1  0  0  0  0  0  0  0  0  0
   -3.0320    1.9000    1.1960 O   0  0  0  0  0  0  0  0  0  0  0  0
   -1.7490   -0.0780    1.2810 C   0  0  2  0  0  0  0  0  0  0  0  0
   -0.5390    0.6430    1.4500 N   0  0  0  0  0  0  0  0  0  0  0  0
   -2.0950   -0.3870   -0.1140 C   0  0  0  0  0  0  0  0  0  0  0  0
   -1.4300   -0.0730   -1.1290 O   0  0  0  0  0  0  0  0  0  0  0  0
   -3.7210    1.3410    3.7100 H   0  0  0  0  0  0  0  0  0  0  0  0
   -2.5200    0.0440    3.8990 H   0  0  0  0  0  0  0  0  0  0  0  0
   -1.9190    1.6930    3.4600 H   0  0  0  0  0  0  0  0  0  0  0  0
   -3.8740    0.1410    1.7470 H   0  0  0  0  0  0  0  0  0  0  0  0
   -2.6330    2.6150    1.7290 H   0  0  0  0  0  0  0  0  0  0  0  0
   -1.7080   -1.0160    1.8680 H   0  0  0  0  0  0  0  0  0  0  0  0
   -0.4400    1.5690    0.9390 H   0  0  0  0  0  0  0  0  0  0  0  0
   -3.2920   -1.1080   -0.3600 N   0  0  0  0  0  0  0  0  0  0  0  0
   -3.7090   -1.4530   -1.6800 C   0  0  1  0  0  0  0  0  0  0  0  0
   -3.7690   -2.9340   -1.9350 C   0  0  0  0  0  0  0  0  0  0  0  0
   -2.0970   -3.6460   -1.6810 S   0  0  0  0  0  0  0  0  0  0  0  0
   -5.0020   -0.7810   -1.9470 C   0  0  0  0  0  0  0  0  0  0  0  0
   -5.5490   -0.9530   -3.0630 O   0  0  0  0  0  0  0  0  0  0  0  0
   -5.6480    0.0330   -1.0290 O   0  0  0  0  0  0  0  0  0  0  0  0
   -3.9240   -1.4200    0.4370 H   0  0  0  0  0  0  0  0  0  0  0  0
   -2.9440   -1.0530   -2.4100 H   0  0  0  0  0  0  0  0  0  0  0  0
   -3.9870   -3.0770   -3.0140 H   0  0  0  0  0  0  0  0  0  0  0  0
   -4.5230   -3.4700   -1.3650 H   0  0  0  0  0  0  0  0  0  0  0  0
   -1.2140   -3.0680   -2.6290 H   0  0  0  0  0  0  0  0  0  0  0  0
  1 12  1  0  0  0  0
  1  2  1  0  0  0  0
  2  3  2  0  0  0  0
  3 14  1  0  0  0  0
  4  2  1  0  0  0  0
  4  5  1  0  0  0  0
  5 17  1  0  0  0  0
  5 16  1  0  0  0  0
  6  5  1  0  0  0  0
  6  7  1  0  0  0  0
  7 20  1  0  0  0  0
  7  8  1  0  0  0  0
  8 22  1  1  0  0  0
  8  9  1  0  0  0  0
  9 23  1  0  0  0  0
  9 24  1  0  0  0  0
 10  8  1  0  0  0  0
 10 11  2  0  0  0  0
 13  1  1  0  0  0  0
 15  4  1  0  0  0  0
 18  6  1  0  0  0  0
 19  6  1  0  0  0  0
 21  7  1  0  0  0  0
 25 34  1  0  0  0  0
 25 32  1  0  0  0  0
 25 33  1  0  0  0  0
 26 35  1  6  0  0  0
 26 25  1  0  0  0  0
 27 36  1  0  0  0  0
 27 26  1  0  0  0  0
 28 29  1  0  0  0  0
 28 26  1  0  0  0  0
 28 37  1  1  0  0  0
 29 10  1  0  0  0  0
 30 28  1  0  0  0  0
 31 30  2  0  0  0  0
 38 29  1  0  0  0  0
 39 30  1  0  0  0  0
 39 46  1  0  0  0  0
 40 47  1  6  0  0  0
 40 39  1  0  0  0  0
 41 42  1  0  0  0  0
 41 40  1  0  0  0  0
 41 49  1  0  0  0  0
 43 40  1  0  0  0  0
 43 45  1  0  0  0  0
 44 43  2  0  0  0  0
 48 41  1  0  0  0  0
 50 42  1  0  0  0  0
M  END
$$$$
