RTD.pdb
 OpenBabel07022418073D

 52 51  0  0  1  0  0  0  0  0999 V2000
    3.5140    1.2300    5.7240 N   0  0  0  0  0  0  0  0  0  0  0  0
    2.9680    0.7670    4.4960 C   0  0  0  0  0  0  0  0  0  0  0  0
    1.6700    0.8040    4.3060 N   0  0  0  0  0  0  0  0  0  0  0  0
    3.7840    0.2580    3.4560 N   0  0  0  0  0  0  0  0  0  0  0  0
    3.2400   -0.6240    2.4080 C   0  0  0  0  0  0  0  0  0  0  0  0
    4.3380   -1.0420    1.4820 C   0  0  0  0  0  0  0  0  0  0  0  0
    3.9890   -1.9450    0.3740 C   0  0  0  0  0  0  0  0  0  0  0  0
    3.0010   -1.4790   -0.6380 C   0  0  2  0  0  0  0  0  0  0  0  0
    3.4620   -0.2800   -1.2740 N   0  0  0  0  0  0  0  0  0  0  0  0
    1.6210   -1.4160   -0.1210 C   0  0  0  0  0  0  0  0  0  0  0  0
    1.1720   -2.2820    0.6940 O   0  0  0  0  0  0  0  0  0  0  0  0
    3.8710    2.1970    5.7730 H   0  0  0  0  0  0  0  0  0  0  0  0
    3.5530    0.6210    6.5400 H   0  0  0  0  0  0  0  0  0  0  0  0
    1.0360    1.1670    5.0420 H   0  0  0  0  0  0  0  0  0  0  0  0
    4.8140    0.5200    3.4320 H   0  0  0  0  0  0  0  0  0  0  0  0
    2.8440   -1.5010    2.9210 H   0  0  0  0  0  0  0  0  0  0  0  0
    2.5020   -0.0370    1.8470 H   0  0  0  0  0  0  0  0  0  0  0  0
    4.8550   -0.1090    1.1500 H   0  0  0  0  0  0  0  0  0  0  0  0
    5.1170   -1.5620    2.1130 H   0  0  0  0  0  0  0  0  0  0  0  0
    3.5980   -2.9290    0.7630 H   0  0  0  0  0  0  0  0  0  0  0  0
    4.9480   -2.1910   -0.1660 H   0  0  0  0  0  0  0  0  0  0  0  0
    3.0240   -2.2510   -1.5020 H   0  0  0  0  0  0  0  0  0  0  0  0
    4.4600   -0.3370   -1.5400 H   0  0  0  0  0  0  0  0  0  0  0  0
    3.2890    0.5790   -0.7410 H   0  0  0  0  0  0  0  0  0  0  0  0
   -2.2220    0.9860    1.3500 C   0  0  0  0  0  0  0  0  0  0  0  0
   -0.9160    0.9670    0.5890 C   0  0  1  0  0  0  0  0  0  0  0  0
    0.0700    1.1500    1.6010 O   0  0  0  0  0  0  0  0  0  0  0  0
   -0.6710   -0.3920    0.0330 C   0  0  2  0  0  0  0  0  0  0  0  0
    0.7070   -0.3990   -0.4980 N   0  0  0  0  0  0  0  0  0  0  0  0
   -1.6040   -0.8010   -1.0480 C   0  0  0  0  0  0  0  0  0  0  0  0
   -1.1550   -0.9510   -2.2120 O   0  0  0  0  0  0  0  0  0  0  0  0
   -2.1860    1.8130    2.1390 H   0  0  0  0  0  0  0  0  0  0  0  0
   -2.3570    0.0750    1.9380 H   0  0  0  0  0  0  0  0  0  0  0  0
   -3.0880    1.2840    0.7250 H   0  0  0  0  0  0  0  0  0  0  0  0
   -0.8260    1.7830   -0.1290 H   0  0  0  0  0  0  0  0  0  0  0  0
    0.1440    0.2620    2.0760 H   0  0  0  0  0  0  0  0  0  0  0  0
   -0.6900   -1.1380    0.8370 H   0  0  0  0  0  0  0  0  0  0  0  0
    0.9530    0.3620   -1.1420 H   0  0  0  0  0  0  0  0  0  0  0  0
   -2.9770   -1.0330   -0.8320 N   0  0  0  0  0  0  0  0  0  0  0  0
   -3.8310   -1.4320   -1.9460 C   0  0  1  0  0  0  0  0  0  0  0  0
   -4.3840   -2.8200   -1.7800 C   0  0  0  0  0  0  0  0  0  0  0  0
   -5.2130   -2.9850   -0.5650 C   0  0  0  0  0  0  0  0  0  0  0  0
   -5.4470   -2.0690    0.2430 O   0  0  0  0  0  0  0  0  0  0  0  0
   -4.8840   -0.4340   -2.2120 C   0  0  0  0  0  0  0  0  0  0  0  0
   -4.9420    0.6010   -1.5080 O   0  0  0  0  0  0  0  0  0  0  0  0
   -5.7540   -4.2430   -0.3280 O   0  0  0  0  0  0  0  0  0  0  0  0
   -5.8150   -0.6020   -3.2180 O   0  0  0  0  0  0  0  0  0  0  0  0
   -3.4200   -0.9430    0.1060 H   0  0  0  0  0  0  0  0  0  0  0  0
   -3.1940   -1.4720   -2.8700 H   0  0  0  0  0  0  0  0  0  0  0  0
   -5.0420   -3.0080   -2.6590 H   0  0  0  0  0  0  0  0  0  0  0  0
   -3.5310   -3.5410   -1.8010 H   0  0  0  0  0  0  0  0  0  0  0  0
   -6.5320   -4.3780    0.3260 H   0  0  0  0  0  0  0  0  0  0  0  0
  1 12  1  0  0  0  0
  1 13  1  0  0  0  0
  2  1  1  0  0  0  0
  3  2  2  0  0  0  0
  3 14  1  0  0  0  0
  4  2  1  0  0  0  0
  5 16  1  0  0  0  0
  5  4  1  0  0  0  0
  6 19  1  0  0  0  0
  6  5  1  0  0  0  0
  7 20  1  0  0  0  0
  7  6  1  0  0  0  0
  8 22  1  6  0  0  0
  8 10  1  0  0  0  0
  8  7  1  0  0  0  0
  9 24  1  0  0  0  0
  9  8  1  0  0  0  0
 10 11  2  0  0  0  0
 15  4  1  0  0  0  0
 17  5  1  0  0  0  0
 18  6  1  0  0  0  0
 21  7  1  0  0  0  0
 23  9  1  0  0  0  0
 25 33  1  0  0  0  0
 25 32  1  0  0  0  0
 26 35  1  6  0  0  0
 26 25  1  0  0  0  0
 26 27  1  0  0  0  0
 27 36  1  0  0  0  0
 28 26  1  0  0  0  0
 28 37  1  1  0  0  0
 29 10  1  0  0  0  0
 29 28  1  0  0  0  0
 30 39  1  0  0  0  0
 30 28  1  0  0  0  0
 31 30  2  0  0  0  0
 34 25  1  0  0  0  0
 38 29  1  0  0  0  0
 39 48  1  0  0  0  0
 40 49  1  6  0  0  0
 40 41  1  0  0  0  0
 40 39  1  0  0  0  0
 41 42  1  0  0  0  0
 42 46  1  0  0  0  0
 42 43  2  0  0  0  0
 44 40  1  0  0  0  0
 44 45  1  0  0  0  0
 46 52  1  0  0  0  0
 47 44  2  0  0  0  0
 50 41  1  0  0  0  0
 51 41  1  0  0  0  0
M  END
$$$$
