RTG.pdb
 OpenBabel07022418073D

 46 45  0  0  1  0  0  0  0  0999 V2000
    4.1820   -4.2070    2.4390 N   0  0  0  0  0  0  0  0  0  0  0  0
    2.9390   -3.8570    1.8570 C   0  0  0  0  0  0  0  0  0  0  0  0
    1.8780   -3.8260    2.5830 N   0  0  0  0  0  0  0  0  0  0  0  0
    2.8090   -3.5310    0.4770 N   0  0  0  0  0  0  0  0  0  0  0  0
    1.5850   -2.9940   -0.0830 C   0  0  0  0  0  0  0  0  0  0  0  0
    1.7920   -2.7680   -1.5410 C   0  0  0  0  0  0  0  0  0  0  0  0
    0.6290   -2.2180   -2.2800 C   0  0  0  0  0  0  0  0  0  0  0  0
    0.1120   -0.8990   -1.8390 C   0  0  2  0  0  0  0  0  0  0  0  0
    1.0690    0.1820   -1.9100 N   0  0  0  0  0  0  0  0  0  0  0  0
   -0.6340   -0.8830   -0.5740 C   0  0  0  0  0  0  0  0  0  0  0  0
   -1.4560   -1.7690   -0.2590 O   0  0  0  0  0  0  0  0  0  0  0  0
    4.8700   -4.8110    1.9600 H   0  0  0  0  0  0  0  0  0  0  0  0
    4.4080   -3.8420    3.3810 H   0  0  0  0  0  0  0  0  0  0  0  0
    0.9670   -3.5750    2.1820 H   0  0  0  0  0  0  0  0  0  0  0  0
    3.6340   -3.6940   -0.1160 H   0  0  0  0  0  0  0  0  0  0  0  0
    1.4460   -2.0040    0.4450 H   0  0  0  0  0  0  0  0  0  0  0  0
    0.7560   -3.6790    0.1310 H   0  0  0  0  0  0  0  0  0  0  0  0
    2.0200   -3.7770   -1.9920 H   0  0  0  0  0  0  0  0  0  0  0  0
    2.7220   -2.1790   -1.7010 H   0  0  0  0  0  0  0  0  0  0  0  0
   -0.2180   -2.9240   -2.3520 H   0  0  0  0  0  0  0  0  0  0  0  0
    0.9680   -2.0840   -3.3500 H   0  0  0  0  0  0  0  0  0  0  0  0
   -0.6690   -0.6120   -2.6290 H   0  0  0  0  0  0  0  0  0  0  0  0
    1.1350    0.5950   -2.8750 H   0  0  0  0  0  0  0  0  0  0  0  0
    2.0360   -0.1090   -1.6450 H   0  0  0  0  0  0  0  0  0  0  0  0
   -0.9570    0.3990    4.1040 C   0  0  0  0  0  0  0  0  0  0  0  0
   -0.2120    0.2650    2.7750 C   0  0  1  0  0  0  0  0  0  0  0  0
    0.5590   -0.8890    2.7510 O   0  0  0  0  0  0  0  0  0  0  0  0
   -1.1730    0.2340    1.6290 C   0  0  2  0  0  0  0  0  0  0  0  0
   -0.4610    0.1750    0.3900 N   0  0  0  0  0  0  0  0  0  0  0  0
   -2.1300    1.3770    1.6720 C   0  0  0  0  0  0  0  0  0  0  0  0
   -2.8460    1.5970    2.6770 O   0  0  0  0  0  0  0  0  0  0  0  0
   -1.8620   -0.2310    4.0990 H   0  0  0  0  0  0  0  0  0  0  0  0
   -1.1700    1.4750    4.3010 H   0  0  0  0  0  0  0  0  0  0  0  0
   -0.2690   -0.0150    4.8790 H   0  0  0  0  0  0  0  0  0  0  0  0
    0.4760    1.1270    2.6260 H   0  0  0  0  0  0  0  0  0  0  0  0
    0.9780   -1.0390    3.6260 H   0  0  0  0  0  0  0  0  0  0  0  0
   -1.8000   -0.6960    1.7360 H   0  0  0  0  0  0  0  0  0  0  0  0
    0.2300    0.9330    0.1530 H   0  0  0  0  0  0  0  0  0  0  0  0
   -2.2380    2.2390    0.5600 N   0  0  0  0  0  0  0  0  0  0  0  0
   -3.1530    3.3440    0.5830 C   0  0  0  0  0  0  0  0  0  0  0  0
   -2.8200    4.2720    1.6950 C   0  0  0  0  0  0  0  0  0  0  0  0
   -3.4900    5.3130    1.9080 O   0  0  0  0  0  0  0  0  0  0  0  0
   -1.7470    3.9840    2.5150 O   0  0  0  0  0  0  0  0  0  0  0  0
   -1.6330    2.0500   -0.2830 H   0  0  0  0  0  0  0  0  0  0  0  0
   -3.1480    3.9200   -0.3570 H   0  0  0  0  0  0  0  0  0  0  0  0
   -4.1990    2.9650    0.7020 H   0  0  0  0  0  0  0  0  0  0  0  0
  1 13  1  0  0  0  0
  2  1  1  0  0  0  0
  2  3  2  0  0  0  0
  4  2  1  0  0  0  0
  5 17  1  0  0  0  0
  5 16  1  0  0  0  0
  5  4  1  0  0  0  0
  6  5  1  0  0  0  0
  7  8  1  0  0  0  0
  7  6  1  0  0  0  0
  8 22  1  6  0  0  0
  8 10  1  0  0  0  0
  9  8  1  0  0  0  0
  9 24  1  0  0  0  0
 10 11  2  0  0  0  0
 10 29  1  0  0  0  0
 12  1  1  0  0  0  0
 14  3  1  0  0  0  0
 15  4  1  0  0  0  0
 18  6  1  0  0  0  0
 19  6  1  0  0  0  0
 20  7  1  0  0  0  0
 21  7  1  0  0  0  0
 23  9  1  0  0  0  0
 25 33  1  0  0  0  0
 25 34  1  0  0  0  0
 26 35  1  6  0  0  0
 26 25  1  0  0  0  0
 27 26  1  0  0  0  0
 27 36  1  0  0  0  0
 28 30  1  0  0  0  0
 28 37  1  1  0  0  0
 28 26  1  0  0  0  0
 29 28  1  0  0  0  0
 30 31  2  0  0  0  0
 32 25  1  0  0  0  0
 38 29  1  0  0  0  0
 39 40  1  0  0  0  0
 39 30  1  0  0  0  0
 40 46  1  0  0  0  0
 40 41  1  0  0  0  0
 41 42  2  0  0  0  0
 41 43  1  0  0  0  0
 44 39  1  0  0  0  0
 45 40  1  0  0  0  0
M  END
$$$$
