RTI.pdb
 OpenBabel07022418073D

 58 57  0  0  1  0  0  0  0  0999 V2000
    3.3170   -4.2730    2.5530 N   0  0  0  0  0  0  0  0  0  0  0  0
    4.0200   -3.0490    2.2890 C   0  0  0  0  0  0  0  0  0  0  0  0
    4.9030   -2.5560    3.0600 N   0  0  0  0  0  0  0  0  0  0  0  0
    3.6900   -2.3760    1.0990 N   0  0  0  0  0  0  0  0  0  0  0  0
    4.2730   -1.1020    0.7120 C   0  0  0  0  0  0  0  0  0  0  0  0
    3.7660   -0.0540    1.6810 C   0  0  0  0  0  0  0  0  0  0  0  0
    2.2520    0.0040    1.6320 C   0  0  0  0  0  0  0  0  0  0  0  0
    1.7230    1.0560    2.5770 C   0  0  2  0  0  0  0  0  0  0  0  0
    2.1200    0.7760    3.9210 N   0  0  0  0  0  0  0  0  0  0  0  0
    0.2410    1.1500    2.4530 C   0  0  0  0  0  0  0  0  0  0  0  0
   -0.4410    1.1140    3.4960 O   0  0  0  0  0  0  0  0  0  0  0  0
    2.4610   -4.2420    3.1130 H   0  0  0  0  0  0  0  0  0  0  0  0
    3.7310   -5.1640    2.1450 H   0  0  0  0  0  0  0  0  0  0  0  0
    5.1330   -3.0820    3.9500 H   0  0  0  0  0  0  0  0  0  0  0  0
    2.9920   -2.7970    0.4420 H   0  0  0  0  0  0  0  0  0  0  0  0
    5.3830   -1.1400    0.7580 H   0  0  0  0  0  0  0  0  0  0  0  0
    4.0130   -0.8420   -0.3260 H   0  0  0  0  0  0  0  0  0  0  0  0
    4.1340   -0.3170    2.6970 H   0  0  0  0  0  0  0  0  0  0  0  0
    4.2140    0.9190    1.4180 H   0  0  0  0  0  0  0  0  0  0  0  0
    1.8170   -0.9650    1.8770 H   0  0  0  0  0  0  0  0  0  0  0  0
    1.9880    0.2360    0.5720 H   0  0  0  0  0  0  0  0  0  0  0  0
    2.1850    2.0310    2.2590 H   0  0  0  0  0  0  0  0  0  0  0  0
    2.9660    1.2930    4.2540 H   0  0  0  0  0  0  0  0  0  0  0  0
    2.3070   -0.2280    4.1220 H   0  0  0  0  0  0  0  0  0  0  0  0
   -3.7630    2.6580    0.1620 C   0  0  0  0  0  0  0  0  0  0  0  0
   -2.2570    2.6050    0.2980 C   0  0  1  0  0  0  0  0  0  0  0  0
   -1.8540    3.7660    0.9720 O   0  0  0  0  0  0  0  0  0  0  0  0
   -1.8070    1.3690    1.0270 C   0  0  2  0  0  0  0  0  0  0  0  0
   -0.3810    1.2760    1.1790 N   0  0  0  0  0  0  0  0  0  0  0  0
   -2.3710    0.1460    0.3680 C   0  0  0  0  0  0  0  0  0  0  0  0
   -3.5790    0.0140    0.1310 O   0  0  0  0  0  0  0  0  0  0  0  0
   -4.2630    2.2480    1.0650 H   0  0  0  0  0  0  0  0  0  0  0  0
   -4.1380    2.1100   -0.7260 H   0  0  0  0  0  0  0  0  0  0  0  0
   -4.1160    3.7280    0.0840 H   0  0  0  0  0  0  0  0  0  0  0  0
   -1.8020    2.6130   -0.7160 H   0  0  0  0  0  0  0  0  0  0  0  0
   -2.6290    4.2940    1.2940 H   0  0  0  0  0  0  0  0  0  0  0  0
   -2.2410    1.4300    2.0700 H   0  0  0  0  0  0  0  0  0  0  0  0
    0.2560    1.2990    0.3440 H   0  0  0  0  0  0  0  0  0  0  0  0
   -2.9760   -1.1780   -3.2040 C   0  0  0  0  0  0  0  0  0  0  0  0
   -1.5160   -1.2890   -2.9330 C   0  0  0  0  0  0  0  0  0  0  0  0
   -1.2020   -2.3540   -1.9410 C   0  0  2  0  0  0  0  0  0  0  0  0
   -1.7200   -3.6550   -2.5290 C   0  0  0  0  0  0  0  0  0  0  0  0
   -1.8650   -2.1360   -0.6280 C   0  0  2  0  0  0  0  0  0  0  0  0
   -1.4900   -0.8900    0.0090 N   0  0  0  0  0  0  0  0  0  0  0  0
   -1.6250   -3.2930    0.2920 C   0  0  0  0  0  0  0  0  0  0  0  0
   -1.9170   -4.4430   -0.1100 O   0  0  0  0  0  0  0  0  0  0  0  0
   -1.0980   -3.1660    1.5660 O   0  0  0  0  0  0  0  0  0  0  0  0
   -3.3570   -0.1780   -2.8880 H   0  0  0  0  0  0  0  0  0  0  0  0
   -3.5740   -1.9490   -2.6890 H   0  0  0  0  0  0  0  0  0  0  0  0
   -3.1860   -1.2350   -4.3000 H   0  0  0  0  0  0  0  0  0  0  0  0
   -1.0750   -0.3000   -2.6930 H   0  0  0  0  0  0  0  0  0  0  0  0
   -0.9950   -1.5930   -3.8900 H   0  0  0  0  0  0  0  0  0  0  0  0
   -0.0980   -2.5120   -1.8530 H   0  0  0  0  0  0  0  0  0  0  0  0
   -1.0510   -4.4990   -2.2690 H   0  0  0  0  0  0  0  0  0  0  0  0
   -1.6960   -3.5830   -3.6550 H   0  0  0  0  0  0  0  0  0  0  0  0
   -2.7680   -3.8590   -2.1860 H   0  0  0  0  0  0  0  0  0  0  0  0
   -2.9590   -2.1070   -0.7770 H   0  0  0  0  0  0  0  0  0  0  0  0
   -0.4750   -0.7610    0.2140 H   0  0  0  0  0  0  0  0  0  0  0  0
  1 12  1  0  0  0  0
  2  1  1  0  0  0  0
  2  3  2  0  0  0  0
  3 14  1  0  0  0  0
  4  2  1  0  0  0  0
  5 16  1  0  0  0  0
  5  4  1  0  0  0  0
  5  6  1  0  0  0  0
  6 18  1  0  0  0  0
  7  6  1  0  0  0  0
  7 20  1  0  0  0  0
  7  8  1  0  0  0  0
  8 22  1  6  0  0  0
  8  9  1  0  0  0  0
  9 24  1  0  0  0  0
  9 23  1  0  0  0  0
 10  8  1  0  0  0  0
 10 11  2  0  0  0  0
 13  1  1  0  0  0  0
 15  4  1  0  0  0  0
 17  5  1  0  0  0  0
 19  6  1  0  0  0  0
 21  7  1  0  0  0  0
 25 26  1  0  0  0  0
 25 32  1  0  0  0  0
 26 35  1  6  0  0  0
 26 27  1  0  0  0  0
 26 28  1  0  0  0  0
 27 36  1  0  0  0  0
 28 29  1  0  0  0  0
 28 37  1  1  0  0  0
 29 10  1  0  0  0  0
 30 28  1  0  0  0  0
 31 30  2  0  0  0  0
 33 25  1  0  0  0  0
 34 25  1  0  0  0  0
 38 29  1  0  0  0  0
 39 40  1  0  0  0  0
 39 48  1  0  0  0  0
 39 49  1  0  0  0  0
 40 51  1  0  0  0  0
 40 41  1  0  0  0  0
 41 53  1  1  0  0  0
 41 43  1  0  0  0  0
 42 54  1  0  0  0  0
 42 56  1  0  0  0  0
 42 41  1  0  0  0  0
 43 57  1  6  0  0  0
 43 44  1  0  0  0  0
 43 45  1  0  0  0  0
 44 58  1  0  0  0  0
 44 30  1  0  0  0  0
 45 47  1  0  0  0  0
 46 45  2  0  0  0  0
 50 39  1  0  0  0  0
 52 40  1  0  0  0  0
 55 42  1  0  0  0  0
M  END
$$$$
