RTM.pdb
 OpenBabel07022418073D

 56 55  0  0  1  0  0  0  0  0999 V2000
    3.1470    1.2840    5.0500 N   0  0  0  0  0  0  0  0  0  0  0  0
    3.3380    0.2270    4.1330 C   0  0  0  0  0  0  0  0  0  0  0  0
    2.5660   -0.7990    4.2220 N   0  0  0  0  0  0  0  0  0  0  0  0
    4.3540    0.2750    3.1310 N   0  0  0  0  0  0  0  0  0  0  0  0
    4.5410   -0.7960    2.1830 C   0  0  0  0  0  0  0  0  0  0  0  0
    3.3620   -0.8320    1.2450 C   0  0  0  0  0  0  0  0  0  0  0  0
    3.4960   -1.9430    0.2240 C   0  0  0  0  0  0  0  0  0  0  0  0
    2.3010   -1.9430   -0.7000 C   0  0  2  0  0  0  0  0  0  0  0  0
    2.2610   -0.6700   -1.3620 N   0  0  0  0  0  0  0  0  0  0  0  0
    1.1080   -2.2430    0.0930 C   0  0  0  0  0  0  0  0  0  0  0  0
    1.0740   -3.3120    0.7480 O   0  0  0  0  0  0  0  0  0  0  0  0
    2.7120    2.1740    4.7450 H   0  0  0  0  0  0  0  0  0  0  0  0
    3.4420    1.1770    6.0360 H   0  0  0  0  0  0  0  0  0  0  0  0
    1.8150   -0.9020    4.9200 H   0  0  0  0  0  0  0  0  0  0  0  0
    4.9680    1.1050    3.0940 H   0  0  0  0  0  0  0  0  0  0  0  0
    5.4950   -0.6490    1.6700 H   0  0  0  0  0  0  0  0  0  0  0  0
    4.6360   -1.7330    2.7740 H   0  0  0  0  0  0  0  0  0  0  0  0
    2.4470   -0.9520    1.8570 H   0  0  0  0  0  0  0  0  0  0  0  0
    3.3580    0.1300    0.6890 H   0  0  0  0  0  0  0  0  0  0  0  0
    3.4550   -2.9290    0.7690 H   0  0  0  0  0  0  0  0  0  0  0  0
    4.4360   -1.9080   -0.3240 H   0  0  0  0  0  0  0  0  0  0  0  0
    2.4580   -2.7870   -1.4390 H   0  0  0  0  0  0  0  0  0  0  0  0
    3.1500   -0.1610   -1.3860 H   0  0  0  0  0  0  0  0  0  0  0  0
    1.6640   -0.6160   -2.1870 H   0  0  0  0  0  0  0  0  0  0  0  0
   -2.6440   -0.7960    2.8060 C   0  0  0  0  0  0  0  0  0  0  0  0
   -1.3590   -0.6490    2.0250 C   0  0  1  0  0  0  0  0  0  0  0  0
   -0.2440   -0.5980    2.8320 O   0  0  0  0  0  0  0  0  0  0  0  0
   -1.1990   -1.7240    0.9700 C   0  0  2  0  0  0  0  0  0  0  0  0
   -0.0410   -1.4000    0.1820 N   0  0  0  0  0  0  0  0  0  0  0  0
   -2.4390   -1.8060    0.1440 C   0  0  0  0  0  0  0  0  0  0  0  0
   -3.5310   -2.0930    0.6970 O   0  0  0  0  0  0  0  0  0  0  0  0
   -2.4820   -0.2370    3.7720 H   0  0  0  0  0  0  0  0  0  0  0  0
   -2.7790   -1.8750    3.0200 H   0  0  0  0  0  0  0  0  0  0  0  0
   -3.5110   -0.3570    2.2620 H   0  0  0  0  0  0  0  0  0  0  0  0
   -1.4160    0.3280    1.4800 H   0  0  0  0  0  0  0  0  0  0  0  0
    0.1490    0.2950    2.9300 H   0  0  0  0  0  0  0  0  0  0  0  0
   -1.0690   -2.6870    1.5300 H   0  0  0  0  0  0  0  0  0  0  0  0
    0.0050   -0.5160   -0.3670 H   0  0  0  0  0  0  0  0  0  0  0  0
   -1.4480    1.7960   -2.1230 C   0  0  0  0  0  0  0  0  0  0  0  0
   -2.7880    1.2530   -1.0180 S   0  0  0  0  0  0  0  0  0  0  0  0
   -4.2530    0.7890   -1.9550 C   0  0  0  0  0  0  0  0  0  0  0  0
   -4.0380   -0.4310   -2.7930 C   0  0  0  0  0  0  0  0  0  0  0  0
   -3.6860   -1.6680   -2.0390 C   0  0  2  0  0  0  0  0  0  0  0  0
   -2.4710   -1.5770   -1.2590 N   0  0  0  0  0  0  0  0  0  0  0  0
   -3.5960   -2.7750   -3.0410 C   0  0  0  0  0  0  0  0  0  0  0  0
   -4.5270   -3.0510   -3.8310 O   0  0  0  0  0  0  0  0  0  0  0  0
   -2.4390   -3.5320   -3.1050 O   0  0  0  0  0  0  0  0  0  0  0  0
   -0.6270    1.0620   -2.0420 H   0  0  0  0  0  0  0  0  0  0  0  0
   -1.8080    1.8950   -3.1700 H   0  0  0  0  0  0  0  0  0  0  0  0
   -1.0600    2.7850   -1.8140 H   0  0  0  0  0  0  0  0  0  0  0  0
   -4.5220    1.6280   -2.6190 H   0  0  0  0  0  0  0  0  0  0  0  0
   -5.0970    0.6790   -1.2380 H   0  0  0  0  0  0  0  0  0  0  0  0
   -4.9210   -0.6250   -3.4270 H   0  0  0  0  0  0  0  0  0  0  0  0
   -3.2090   -0.1910   -3.5050 H   0  0  0  0  0  0  0  0  0  0  0  0
   -4.5630   -1.9330   -1.4030 H   0  0  0  0  0  0  0  0  0  0  0  0
   -1.5950   -1.3330   -1.7650 H   0  0  0  0  0  0  0  0  0  0  0  0
  1 13  1  0  0  0  0
  2  3  2  0  0  0  0
  2  1  1  0  0  0  0
  3 14  1  0  0  0  0
  4  2  1  0  0  0  0
  5 17  1  0  0  0  0
  5  4  1  0  0  0  0
  6 18  1  0  0  0  0
  6  5  1  0  0  0  0
  7 20  1  0  0  0  0
  7  6  1  0  0  0  0
  8 22  1  6  0  0  0
  8 10  1  0  0  0  0
  8  7  1  0  0  0  0
  9  8  1  0  0  0  0
 10 29  1  0  0  0  0
 10 11  2  0  0  0  0
 12  1  1  0  0  0  0
 15  4  1  0  0  0  0
 16  5  1  0  0  0  0
 19  6  1  0  0  0  0
 21  7  1  0  0  0  0
 23  9  1  0  0  0  0
 24  9  1  0  0  0  0
 25 33  1  0  0  0  0
 25 32  1  0  0  0  0
 26 35  1  6  0  0  0
 26 25  1  0  0  0  0
 26 27  1  0  0  0  0
 27 36  1  0  0  0  0
 28 37  1  1  0  0  0
 28 26  1  0  0  0  0
 29 28  1  0  0  0  0
 30 31  2  0  0  0  0
 30 28  1  0  0  0  0
 34 25  1  0  0  0  0
 38 29  1  0  0  0  0
 39 48  1  0  0  0  0
 39 50  1  0  0  0  0
 39 40  1  0  0  0  0
 41 52  1  0  0  0  0
 41 40  1  0  0  0  0
 42 43  1  0  0  0  0
 42 41  1  0  0  0  0
 43 55  1  1  0  0  0
 43 44  1  0  0  0  0
 44 30  1  0  0  0  0
 45 43  1  0  0  0  0
 46 45  2  0  0  0  0
 47 45  1  0  0  0  0
 49 39  1  0  0  0  0
 51 41  1  0  0  0  0
 53 42  1  0  0  0  0
 54 42  1  0  0  0  0
 56 44  1  0  0  0  0
M  END
$$$$
