RTN.pdb
 OpenBabel07022418073D

 53 52  0  0  1  0  0  0  0  0999 V2000
    3.0490   -1.8540    6.1980 N   0  0  0  0  0  0  0  0  0  0  0  0
    2.5240   -1.9290    4.8600 C   0  0  0  0  0  0  0  0  0  0  0  0
    1.2520   -1.9070    4.6520 N   0  0  0  0  0  0  0  0  0  0  0  0
    3.3800   -2.0400    3.7400 N   0  0  0  0  0  0  0  0  0  0  0  0
    2.8850   -2.2270    2.3620 C   0  0  0  0  0  0  0  0  0  0  0  0
    4.0360   -2.3780    1.4260 C   0  0  0  0  0  0  0  0  0  0  0  0
    3.7370   -2.6010    0.0040 C   0  0  0  0  0  0  0  0  0  0  0  0
    2.9760   -1.5560   -0.7360 C   0  0  2  0  0  0  0  0  0  0  0  0
    3.6770   -0.2900   -0.7140 N   0  0  0  0  0  0  0  0  0  0  0  0
    1.5710   -1.4740   -0.2930 C   0  0  0  0  0  0  0  0  0  0  0  0
    0.9030   -2.4780    0.0640 O   0  0  0  0  0  0  0  0  0  0  0  0
    4.0010   -2.2530    6.3740 H   0  0  0  0  0  0  0  0  0  0  0  0
    2.4860   -1.4190    6.9450 H   0  0  0  0  0  0  0  0  0  0  0  0
    0.5670   -1.8360    5.4290 H   0  0  0  0  0  0  0  0  0  0  0  0
    4.3920   -1.9880    3.8980 H   0  0  0  0  0  0  0  0  0  0  0  0
    2.2360   -3.1240    2.3870 H   0  0  0  0  0  0  0  0  0  0  0  0
    2.2540   -1.3560    2.1700 H   0  0  0  0  0  0  0  0  0  0  0  0
    4.7880   -1.5530    1.6010 H   0  0  0  0  0  0  0  0  0  0  0  0
    4.6050   -3.2920    1.7910 H   0  0  0  0  0  0  0  0  0  0  0  0
    3.2480   -3.6120   -0.1120 H   0  0  0  0  0  0  0  0  0  0  0  0
    4.7210   -2.7080   -0.5700 H   0  0  0  0  0  0  0  0  0  0  0  0
    2.9770   -1.8170   -1.8600 H   0  0  0  0  0  0  0  0  0  0  0  0
    3.3210    0.3740   -1.4460 H   0  0  0  0  0  0  0  0  0  0  0  0
    3.5630    0.1980    0.2050 H   0  0  0  0  0  0  0  0  0  0  0  0
    0.1800    0.6720    2.3990 C   0  0  0  0  0  0  0  0  0  0  0  0
   -0.6880    0.9380    1.1870 C   0  0  1  0  0  0  0  0  0  0  0  0
   -0.3300    2.1850    0.6560 O   0  0  0  0  0  0  0  0  0  0  0  0
   -0.5160   -0.1600    0.1720 C   0  0  2  0  0  0  0  0  0  0  0  0
    0.8680   -0.2120   -0.2510 N   0  0  0  0  0  0  0  0  0  0  0  0
   -1.4260    0.0330   -0.9940 C   0  0  0  0  0  0  0  0  0  0  0  0
   -1.0210    0.1440   -2.1750 O   0  0  0  0  0  0  0  0  0  0  0  0
    1.2490    0.8720    2.1900 H   0  0  0  0  0  0  0  0  0  0  0  0
    0.1080   -0.4180    2.6490 H   0  0  0  0  0  0  0  0  0  0  0  0
   -0.1750    1.2410    3.2820 H   0  0  0  0  0  0  0  0  0  0  0  0
   -1.7680    0.9660    1.4930 H   0  0  0  0  0  0  0  0  0  0  0  0
   -0.1330    2.8340    1.3850 H   0  0  0  0  0  0  0  0  0  0  0  0
   -0.8390   -1.1170    0.6360 H   0  0  0  0  0  0  0  0  0  0  0  0
    1.4010    0.6360   -0.5350 H   0  0  0  0  0  0  0  0  0  0  0  0
   -5.4820   -1.6080   -4.2620 N   0  0  0  0  0  0  0  0  0  0  0  0
   -5.6250   -0.9750   -2.9960 C   0  0  0  0  0  0  0  0  0  0  0  0
   -6.7040   -0.3630   -2.7630 O   0  0  0  0  0  0  0  0  0  0  0  0
   -4.5970   -0.9900   -1.9450 C   0  0  0  0  0  0  0  0  0  0  0  0
   -3.7860    0.2740   -1.8470 C   0  0  2  0  0  0  0  0  0  0  0  0
   -2.8180    0.0930   -0.7620 N   0  0  0  0  0  0  0  0  0  0  0  0
   -4.5720    1.4960   -1.6700 C   0  0  0  0  0  0  0  0  0  0  0  0
   -5.4640    1.9220   -2.4390 O   0  0  0  0  0  0  0  0  0  0  0  0
   -4.3180    2.2840   -0.5300 O   0  0  0  0  0  0  0  0  0  0  0  0
   -4.5750   -2.0250   -4.5830 H   0  0  0  0  0  0  0  0  0  0  0  0
   -6.2690   -1.6920   -4.9390 H   0  0  0  0  0  0  0  0  0  0  0  0
   -5.0710   -1.2720   -0.9830 H   0  0  0  0  0  0  0  0  0  0  0  0
   -3.8700   -1.7990   -2.2270 H   0  0  0  0  0  0  0  0  0  0  0  0
   -3.2390    0.3570   -2.8200 H   0  0  0  0  0  0  0  0  0  0  0  0
   -3.2260    0.0100    0.1990 H   0  0  0  0  0  0  0  0  0  0  0  0
  1 12  1  0  0  0  0
  1 13  1  0  0  0  0
  2  1  1  0  0  0  0
  3  2  2  0  0  0  0
  3 14  1  0  0  0  0
  4 15  1  0  0  0  0
  4  2  1  0  0  0  0
  5 16  1  0  0  0  0
  5  4  1  0  0  0  0
  6 18  1  0  0  0  0
  6 19  1  0  0  0  0
  6  5  1  0  0  0  0
  7  6  1  0  0  0  0
  8 22  1  6  0  0  0
  8  9  1  0  0  0  0
  8 10  1  0  0  0  0
  8  7  1  0  0  0  0
  9 24  1  0  0  0  0
 10 29  1  0  0  0  0
 10 11  2  0  0  0  0
 17  5  1  0  0  0  0
 20  7  1  0  0  0  0
 21  7  1  0  0  0  0
 23  9  1  0  0  0  0
 25 33  1  0  0  0  0
 25 34  1  0  0  0  0
 26 35  1  1  0  0  0
 26 25  1  0  0  0  0
 27 26  1  0  0  0  0
 27 36  1  0  0  0  0
 28 37  1  1  0  0  0
 28 26  1  0  0  0  0
 29 28  1  0  0  0  0
 30 44  1  0  0  0  0
 30 28  1  0  0  0  0
 31 30  2  0  0  0  0
 32 25  1  0  0  0  0
 38 29  1  0  0  0  0
 39 40  1  0  0  0  0
 40 41  2  0  0  0  0
 40 42  1  0  0  0  0
 42 43  1  0  0  0  0
 42 50  1  0  0  0  0
 43 52  1  6  0  0  0
 43 45  1  0  0  0  0
 43 44  1  0  0  0  0
 44 53  1  0  0  0  0
 45 47  1  0  0  0  0
 46 45  2  0  0  0  0
 48 39  1  0  0  0  0
 49 39  1  0  0  0  0
 51 42  1  0  0  0  0
M  END
$$$$
