RTQ.pdb
 OpenBabel07022418073D

 56 55  0  0  1  0  0  0  0  0999 V2000
    0.8820   -4.0520    2.8450 N   0  0  0  0  0  0  0  0  0  0  0  0
    1.8440   -3.2090    2.1860 C   0  0  0  0  0  0  0  0  0  0  0  0
    2.7020   -3.7660    1.4130 N   0  0  0  0  0  0  0  0  0  0  0  0
    1.8650   -1.8020    2.3770 N   0  0  0  0  0  0  0  0  0  0  0  0
    3.0710   -1.0410    2.3150 C   0  0  0  0  0  0  0  0  0  0  0  0
    3.7250   -0.9030    1.0040 C   0  0  0  0  0  0  0  0  0  0  0  0
    3.0370   -0.2800   -0.1340 C   0  0  0  0  0  0  0  0  0  0  0  0
    2.5720    1.1400    0.0040 C   0  0  2  0  0  0  0  0  0  0  0  0
    3.6810    1.9640    0.3520 N   0  0  0  0  0  0  0  0  0  0  0  0
    1.4130    1.2480    0.8940 C   0  0  0  0  0  0  0  0  0  0  0  0
    1.4350    1.7500    2.0500 O   0  0  0  0  0  0  0  0  0  0  0  0
    0.3570   -3.6970    3.6810 H   0  0  0  0  0  0  0  0  0  0  0  0
    0.7040   -5.0150    2.4920 H   0  0  0  0  0  0  0  0  0  0  0  0
    2.7270   -4.7870    1.2470 H   0  0  0  0  0  0  0  0  0  0  0  0
    0.9610   -1.3250    2.5700 H   0  0  0  0  0  0  0  0  0  0  0  0
    3.0490   -0.0770    2.8770 H   0  0  0  0  0  0  0  0  0  0  0  0
    3.8160   -1.6380    2.9900 H   0  0  0  0  0  0  0  0  0  0  0  0
    4.7570   -0.4290    1.1790 H   0  0  0  0  0  0  0  0  0  0  0  0
    4.0430   -1.9540    0.6730 H   0  0  0  0  0  0  0  0  0  0  0  0
    3.7220   -0.2710   -1.0460 H   0  0  0  0  0  0  0  0  0  0  0  0
    2.1840   -0.9300   -0.4880 H   0  0  0  0  0  0  0  0  0  0  0  0
    2.2560    1.5110   -1.0470 H   0  0  0  0  0  0  0  0  0  0  0  0
    3.5960    2.9160   -0.0770 H   0  0  0  0  0  0  0  0  0  0  0  0
    4.5550    1.5410   -0.0470 H   0  0  0  0  0  0  0  0  0  0  0  0
   -0.9650    3.3870    1.2720 C   0  0  0  0  0  0  0  0  0  0  0  0
   -1.8100    2.1630    1.0120 C   0  0  1  0  0  0  0  0  0  0  0  0
   -2.2510    2.1840   -0.3030 O   0  0  0  0  0  0  0  0  0  0  0  0
   -1.0210    0.8590    1.3160 C   0  0  2  0  0  0  0  0  0  0  0  0
    0.1130    0.7590    0.4550 N   0  0  0  0  0  0  0  0  0  0  0  0
   -1.9780   -0.2630    1.2190 C   0  0  0  0  0  0  0  0  0  0  0  0
   -2.9380   -0.2670    2.0280 O   0  0  0  0  0  0  0  0  0  0  0  0
   -0.0990    3.4590    0.5940 H   0  0  0  0  0  0  0  0  0  0  0  0
   -1.5700    4.3220    1.1190 H   0  0  0  0  0  0  0  0  0  0  0  0
   -0.6920    3.4170    2.3470 H   0  0  0  0  0  0  0  0  0  0  0  0
   -2.6800    2.2130    1.7130 H   0  0  0  0  0  0  0  0  0  0  0  0
   -1.6320    2.7540   -0.8170 H   0  0  0  0  0  0  0  0  0  0  0  0
   -0.7550    0.9920    2.3840 H   0  0  0  0  0  0  0  0  0  0  0  0
    0.0960    0.3480   -0.5040 H   0  0  0  0  0  0  0  0  0  0  0  0
   -2.0380   -1.4960   -3.9960 N   0  0  0  0  0  0  0  0  0  0  0  0
   -2.7220   -1.3000   -2.7600 C   0  0  0  0  0  0  0  0  0  0  0  0
   -2.5880   -0.1830   -2.2160 O   0  0  0  0  0  0  0  0  0  0  0  0
   -3.5190   -2.3830   -2.2190 C   0  0  0  0  0  0  0  0  0  0  0  0
   -3.9200   -2.3490   -0.8070 C   0  0  0  0  0  0  0  0  0  0  0  0
   -2.8880   -2.3940    0.2560 C   0  0  2  0  0  0  0  0  0  0  0  0
   -1.9140   -1.3430    0.2880 N   0  0  0  0  0  0  0  0  0  0  0  0
   -2.1930   -3.7320    0.2770 C   0  0  0  0  0  0  0  0  0  0  0  0
   -2.8160   -4.8060    0.3050 O   0  0  0  0  0  0  0  0  0  0  0  0
   -0.8080   -3.7910    0.2640 O   0  0  0  0  0  0  0  0  0  0  0  0
   -1.0830   -1.1450   -4.1230 H   0  0  0  0  0  0  0  0  0  0  0  0
   -2.5360   -2.0080   -4.7690 H   0  0  0  0  0  0  0  0  0  0  0  0
   -4.4900   -2.3840   -2.8180 H   0  0  0  0  0  0  0  0  0  0  0  0
   -3.1010   -3.4060   -2.5030 H   0  0  0  0  0  0  0  0  0  0  0  0
   -4.6230   -1.5120   -0.5860 H   0  0  0  0  0  0  0  0  0  0  0  0
   -4.5680   -3.2650   -0.6340 H   0  0  0  0  0  0  0  0  0  0  0  0
   -3.4950   -2.4020    1.2230 H   0  0  0  0  0  0  0  0  0  0  0  0
   -1.0960   -1.3250   -0.3590 H   0  0  0  0  0  0  0  0  0  0  0  0
  1 12  1  0  0  0  0
  2  4  1  0  0  0  0
  2  1  1  0  0  0  0
  3  2  2  0  0  0  0
  4 15  1  0  0  0  0
  5  4  1  0  0  0  0
  5 16  1  0  0  0  0
  5 17  1  0  0  0  0
  6 18  1  0  0  0  0
  6  5  1  0  0  0  0
  7  8  1  0  0  0  0
  7  6  1  0  0  0  0
  8 22  1  6  0  0  0
  8  9  1  0  0  0  0
  8 10  1  0  0  0  0
 10 11  2  0  0  0  0
 13  1  1  0  0  0  0
 14  3  1  0  0  0  0
 19  6  1  0  0  0  0
 20  7  1  0  0  0  0
 21  7  1  0  0  0  0
 23  9  1  0  0  0  0
 24  9  1  0  0  0  0
 25 34  1  0  0  0  0
 26 25  1  0  0  0  0
 26 28  1  0  0  0  0
 26 35  1  1  0  0  0
 27 26  1  0  0  0  0
 28 37  1  1  0  0  0
 29 10  1  0  0  0  0
 29 28  1  0  0  0  0
 30 28  1  0  0  0  0
 30 31  2  0  0  0  0
 32 25  1  0  0  0  0
 33 25  1  0  0  0  0
 36 27  1  0  0  0  0
 38 29  1  0  0  0  0
 39 40  1  0  0  0  0
 40 42  1  0  0  0  0
 40 41  2  0  0  0  0
 42 43  1  0  0  0  0
 43 54  1  0  0  0  0
 43 53  1  0  0  0  0
 43 44  1  0  0  0  0
 44 46  1  0  0  0  0
 44 45  1  0  0  0  0
 44 55  1  1  0  0  0
 45 30  1  0  0  0  0
 46 47  1  0  0  0  0
 48 46  2  0  0  0  0
 49 39  1  0  0  0  0
 50 39  1  0  0  0  0
 51 42  1  0  0  0  0
 52 42  1  0  0  0  0
 56 45  1  0  0  0  0
M  END
$$$$
