RTR.pdb
 OpenBabel07022418073D

 62 61  0  0  1  0  0  0  0  0999 V2000
    4.8750    3.4210    5.8360 N   0  0  0  0  0  0  0  0  0  0  0  0
    5.4890    2.2880    5.1820 C   0  0  0  0  0  0  0  0  0  0  0  0
    6.4800    1.7130    5.7680 N   0  0  0  0  0  0  0  0  0  0  0  0
    4.9730    1.8770    3.9370 N   0  0  0  0  0  0  0  0  0  0  0  0
    5.7400    0.9580    3.1190 C   0  0  0  0  0  0  0  0  0  0  0  0
    5.0250    0.6890    1.8010 C   0  0  0  0  0  0  0  0  0  0  0  0
    3.6590    0.0930    2.0440 C   0  0  0  0  0  0  0  0  0  0  0  0
    2.9120   -0.1690    0.7320 C   0  0  2  0  0  0  0  0  0  0  0  0
    2.7260    1.0760    0.0070 N   0  0  0  0  0  0  0  0  0  0  0  0
    1.6270   -0.7770    1.1210 C   0  0  0  0  0  0  0  0  0  0  0  0
    1.6440   -1.8970    1.6770 O   0  0  0  0  0  0  0  0  0  0  0  0
    4.3920    3.3230    6.7420 H   0  0  0  0  0  0  0  0  0  0  0  0
    4.9000    4.3610    5.4060 H   0  0  0  0  0  0  0  0  0  0  0  0
    6.8320    2.0450    6.6800 H   0  0  0  0  0  0  0  0  0  0  0  0
    4.0360    2.2510    3.6100 H   0  0  0  0  0  0  0  0  0  0  0  0
    6.7130    1.4080    2.8740 H   0  0  0  0  0  0  0  0  0  0  0  0
    5.8990    0.0410    3.6990 H   0  0  0  0  0  0  0  0  0  0  0  0
    4.9520    1.5900    1.1870 H   0  0  0  0  0  0  0  0  0  0  0  0
    5.6360   -0.0720    1.2630 H   0  0  0  0  0  0  0  0  0  0  0  0
    3.8360   -0.9040    2.5320 H   0  0  0  0  0  0  0  0  0  0  0  0
    3.0300    0.6950    2.7000 H   0  0  0  0  0  0  0  0  0  0  0  0
    3.4960   -0.8920    0.1100 H   0  0  0  0  0  0  0  0  0  0  0  0
    2.2730    0.8350   -0.8990 H   0  0  0  0  0  0  0  0  0  0  0  0
    2.1260    1.7180    0.5340 H   0  0  0  0  0  0  0  0  0  0  0  0
   -2.8080   -0.3770    2.8660 C   0  0  0  0  0  0  0  0  0  0  0  0
   -1.4370    0.0200    2.4230 C   0  0  1  0  0  0  0  0  0  0  0  0
   -0.5960    0.1150    3.5050 O   0  0  0  0  0  0  0  0  0  0  0  0
   -0.8620   -0.8480    1.3150 C   0  0  2  0  0  0  0  0  0  0  0  0
    0.3800   -0.1500    0.8900 N   0  0  0  0  0  0  0  0  0  0  0  0
   -1.8030   -0.9880    0.1820 C   0  0  0  0  0  0  0  0  0  0  0  0
   -1.6490   -0.2940   -0.8830 O   0  0  0  0  0  0  0  0  0  0  0  0
   -3.1440    0.4280    3.5960 H   0  0  0  0  0  0  0  0  0  0  0  0
   -2.8890   -1.3180    3.4070 H   0  0  0  0  0  0  0  0  0  0  0  0
   -3.5360   -0.3250    2.0250 H   0  0  0  0  0  0  0  0  0  0  0  0
   -1.5350    1.0370    1.9490 H   0  0  0  0  0  0  0  0  0  0  0  0
   -1.1050    0.3200    4.3290 H   0  0  0  0  0  0  0  0  0  0  0  0
   -0.5870   -1.8270    1.7190 H   0  0  0  0  0  0  0  0  0  0  0  0
    0.3180    0.7720    0.4390 H   0  0  0  0  0  0  0  0  0  0  0  0
   -4.7640   -2.1510   -6.3050 N   0  0  0  0  0  0  0  0  0  0  0  0
   -3.5570   -2.0530   -5.5700 C   0  0  0  0  0  0  0  0  0  0  0  0
   -2.6390   -1.2660   -5.9690 N   0  0  0  0  0  0  0  0  0  0  0  0
   -3.3600   -2.8150   -4.3940 N   0  0  0  0  0  0  0  0  0  0  0  0
   -2.2470   -2.6440   -3.4720 C   0  0  0  0  0  0  0  0  0  0  0  0
   -2.4720   -3.6160   -2.3380 C   0  0  0  0  0  0  0  0  0  0  0  0
   -3.7340   -3.3880   -1.5880 C   0  0  0  0  0  0  0  0  0  0  0  0
   -3.8590   -2.0790   -0.8640 C   0  0  2  0  0  0  0  0  0  0  0  0
   -2.9060   -1.8560    0.1500 N   0  0  0  0  0  0  0  0  0  0  0  0
   -5.2230   -1.9900   -0.3320 C   0  0  0  0  0  0  0  0  0  0  0  0
   -5.4060   -1.8010    0.8850 O   0  0  0  0  0  0  0  0  0  0  0  0
   -6.3600   -2.1070   -1.1300 O   0  0  0  0  0  0  0  0  0  0  0  0
   -5.6660   -1.8320   -5.9010 H   0  0  0  0  0  0  0  0  0  0  0  0
   -4.7660   -2.5480   -7.2600 H   0  0  0  0  0  0  0  0  0  0  0  0
   -2.7820   -0.7030   -6.8290 H   0  0  0  0  0  0  0  0  0  0  0  0
   -4.0900   -3.5520   -4.2170 H   0  0  0  0  0  0  0  0  0  0  0  0
   -2.0730   -1.6200   -3.1910 H   0  0  0  0  0  0  0  0  0  0  0  0
   -1.3390   -2.9780   -4.0350 H   0  0  0  0  0  0  0  0  0  0  0  0
   -2.4050   -4.6270   -2.7890 H   0  0  0  0  0  0  0  0  0  0  0  0
   -1.5580   -3.5570   -1.6810 H   0  0  0  0  0  0  0  0  0  0  0  0
   -3.8870   -4.2690   -0.9160 H   0  0  0  0  0  0  0  0  0  0  0  0
   -4.5850   -3.4490   -2.2930 H   0  0  0  0  0  0  0  0  0  0  0  0
   -3.7350   -1.2840   -1.6320 H   0  0  0  0  0  0  0  0  0  0  0  0
   -3.0500   -2.4480    1.0270 H   0  0  0  0  0  0  0  0  0  0  0  0
  1 12  1  0  0  0  0
  2  3  2  0  0  0  0
  2  1  1  0  0  0  0
  3 14  1  0  0  0  0
  4  2  1  0  0  0  0
  5 17  1  0  0  0  0
  5  4  1  0  0  0  0
  6  7  1  0  0  0  0
  6  5  1  0  0  0  0
  7 20  1  0  0  0  0
  7 21  1  0  0  0  0
  8 22  1  6  0  0  0
  8 10  1  0  0  0  0
  8  7  1  0  0  0  0
  9 24  1  0  0  0  0
  9  8  1  0  0  0  0
 10 11  2  0  0  0  0
 13  1  1  0  0  0  0
 15  4  1  0  0  0  0
 16  5  1  0  0  0  0
 18  6  1  0  0  0  0
 19  6  1  0  0  0  0
 23  9  1  0  0  0  0
 25 33  1  0  0  0  0
 25 32  1  0  0  0  0
 26 35  1  6  0  0  0
 26 25  1  0  0  0  0
 26 27  1  0  0  0  0
 27 36  1  0  0  0  0
 28 37  1  1  0  0  0
 28 26  1  0  0  0  0
 29 10  1  0  0  0  0
 29 28  1  0  0  0  0
 30 28  1  0  0  0  0
 31 30  2  0  0  0  0
 34 25  1  0  0  0  0
 38 29  1  0  0  0  0
 39 51  1  0  0  0  0
 39 40  1  0  0  0  0
 40 42  1  0  0  0  0
 41 40  2  0  0  0  0
 42 54  1  0  0  0  0
 42 43  1  0  0  0  0
 43 55  1  0  0  0  0
 43 44  1  0  0  0  0
 44 58  1  0  0  0  0
 44 45  1  0  0  0  0
 45 59  1  0  0  0  0
 45 46  1  0  0  0  0
 46 61  1  6  0  0  0
 46 48  1  0  0  0  0
 46 47  1  0  0  0  0
 47 30  1  0  0  0  0
 47 62  1  0  0  0  0
 48 49  1  0  0  0  0
 50 48  2  0  0  0  0
 52 39  1  0  0  0  0
 53 41  1  0  0  0  0
 56 43  1  0  0  0  0
 57 44  1  0  0  0  0
 60 45  1  0  0  0  0
M  END
$$$$
