RTV.pdb
 OpenBabel07022418073D

 55 54  0  0  1  0  0  0  0  0999 V2000
    1.7920   -3.9490    3.1680 N   0  0  0  0  0  0  0  0  0  0  0  0
    0.6770   -4.2160    3.9910 C   0  0  0  0  0  0  0  0  0  0  0  0
    0.7010   -3.8600    5.2520 N   0  0  0  0  0  0  0  0  0  0  0  0
   -0.4920   -4.8580    3.5380 N   0  0  0  0  0  0  0  0  0  0  0  0
   -1.8120   -4.5990    3.9320 C   0  0  0  0  0  0  0  0  0  0  0  0
   -2.5990   -3.4440    3.5560 C   0  0  0  0  0  0  0  0  0  0  0  0
   -2.2850   -2.0580    3.8550 C   0  0  0  0  0  0  0  0  0  0  0  0
   -1.1010   -1.3690    3.3200 C   0  0  2  0  0  0  0  0  0  0  0  0
   -1.1780    0.0250    3.8350 N   0  0  0  0  0  0  0  0  0  0  0  0
   -1.0340   -1.3460    1.8380 C   0  0  0  0  0  0  0  0  0  0  0  0
   -0.9750   -2.4190    1.2060 O   0  0  0  0  0  0  0  0  0  0  0  0
    1.9840   -4.4560    2.2900 H   0  0  0  0  0  0  0  0  0  0  0  0
    2.4610   -3.2060    3.4490 H   0  0  0  0  0  0  0  0  0  0  0  0
    1.5540   -3.3900    5.5970 H   0  0  0  0  0  0  0  0  0  0  0  0
   -0.3400   -5.6370    2.8000 H   0  0  0  0  0  0  0  0  0  0  0  0
   -1.8000   -4.6230    5.0960 H   0  0  0  0  0  0  0  0  0  0  0  0
   -2.4790   -5.5240    3.7370 H   0  0  0  0  0  0  0  0  0  0  0  0
   -3.6650   -3.6490    3.9960 H   0  0  0  0  0  0  0  0  0  0  0  0
   -2.8980   -3.4970    2.4340 H   0  0  0  0  0  0  0  0  0  0  0  0
   -3.2300   -1.4130    3.6760 H   0  0  0  0  0  0  0  0  0  0  0  0
   -2.2440   -1.9790    5.0090 H   0  0  0  0  0  0  0  0  0  0  0  0
   -0.1480   -1.7550    3.6910 H   0  0  0  0  0  0  0  0  0  0  0  0
   -1.1830   -0.0410    4.8890 H   0  0  0  0  0  0  0  0  0  0  0  0
   -2.0950    0.4460    3.4970 H   0  0  0  0  0  0  0  0  0  0  0  0
   -2.3970    2.0320   -0.3860 C   0  0  0  0  0  0  0  0  0  0  0  0
   -2.2290    0.6050   -0.8820 C   0  0  1  0  0  0  0  0  0  0  0  0
   -2.1840    0.6830   -2.2670 O   0  0  0  0  0  0  0  0  0  0  0  0
   -0.9710   -0.0240   -0.3230 C   0  0  2  0  0  0  0  0  0  0  0  0
   -1.0350   -0.1170    1.1300 N   0  0  0  0  0  0  0  0  0  0  0  0
    0.2570    0.6940   -0.7410 C   0  0  0  0  0  0  0  0  0  0  0  0
    1.0440    1.1500    0.1580 O   0  0  0  0  0  0  0  0  0  0  0  0
   -1.7850    2.2540    0.4990 H   0  0  0  0  0  0  0  0  0  0  0  0
   -3.4830    2.2150   -0.2490 H   0  0  0  0  0  0  0  0  0  0  0  0
   -2.0760    2.7730   -1.1740 H   0  0  0  0  0  0  0  0  0  0  0  0
   -3.0970   -0.0280   -0.6140 H   0  0  0  0  0  0  0  0  0  0  0  0
   -2.8580    0.0990   -2.7020 H   0  0  0  0  0  0  0  0  0  0  0  0
   -0.9290   -1.0630   -0.6970 H   0  0  0  0  0  0  0  0  0  0  0  0
   -1.0870    0.7590    1.6990 H   0  0  0  0  0  0  0  0  0  0  0  0
    2.1030    0.3080   -4.5940 C   0  0  0  0  0  0  0  0  0  0  0  0
    2.7470    0.7930   -3.3240 C   0  0  0  0  0  0  0  0  0  0  0  0
    3.3150   -0.4090   -2.5960 C   0  0  0  0  0  0  0  0  0  0  0  0
    1.8240    1.6210   -2.4810 C   0  0  2  0  0  0  0  0  0  0  0  0
    0.6280    0.9160   -2.0640 N   0  0  0  0  0  0  0  0  0  0  0  0
    1.5300    2.8860   -3.1610 C   0  0  0  0  0  0  0  0  0  0  0  0
    0.3510    3.2630   -3.3250 O   0  0  0  0  0  0  0  0  0  0  0  0
    2.5600    3.6750   -3.6270 O   0  0  0  0  0  0  0  0  0  0  0  0
    1.4690    1.0930   -5.0700 H   0  0  0  0  0  0  0  0  0  0  0  0
    2.9090    0.0760   -5.3190 H   0  0  0  0  0  0  0  0  0  0  0  0
    1.5500   -0.6490   -4.4430 H   0  0  0  0  0  0  0  0  0  0  0  0
    3.6460    1.3950   -3.6550 H   0  0  0  0  0  0  0  0  0  0  0  0
    2.5360   -0.7800   -1.9030 H   0  0  0  0  0  0  0  0  0  0  0  0
    3.5240   -1.2290   -3.3190 H   0  0  0  0  0  0  0  0  0  0  0  0
    4.2330   -0.1260   -2.0260 H   0  0  0  0  0  0  0  0  0  0  0  0
    2.3810    1.8980   -1.5420 H   0  0  0  0  0  0  0  0  0  0  0  0
    0.0300    0.5600   -2.8400 H   0  0  0  0  0  0  0  0  0  0  0  0
  1 13  1  0  0  0  0
  1  2  1  0  0  0  0
  2  3  2  0  0  0  0
  3 14  1  0  0  0  0
  4  5  1  0  0  0  0
  4  2  1  0  0  0  0
  5 16  1  0  0  0  0
  6  7  1  0  0  0  0
  6  5  1  0  0  0  0
  6 18  1  0  0  0  0
  7 21  1  0  0  0  0
  8 22  1  1  0  0  0
  8  9  1  0  0  0  0
  8  7  1  0  0  0  0
  9 23  1  0  0  0  0
 10  8  1  0  0  0  0
 11 10  2  0  0  0  0
 12  1  1  0  0  0  0
 15  4  1  0  0  0  0
 17  5  1  0  0  0  0
 19  6  1  0  0  0  0
 20  7  1  0  0  0  0
 24  9  1  0  0  0  0
 25 33  1  0  0  0  0
 25 32  1  0  0  0  0
 26 35  1  1  0  0  0
 26 25  1  0  0  0  0
 26 28  1  0  0  0  0
 27 26  1  0  0  0  0
 28 37  1  6  0  0  0
 28 29  1  0  0  0  0
 29 38  1  0  0  0  0
 29 10  1  0  0  0  0
 30 28  1  0  0  0  0
 30 31  2  0  0  0  0
 34 25  1  0  0  0  0
 36 27  1  0  0  0  0
 39 49  1  0  0  0  0
 39 40  1  0  0  0  0
 40 41  1  0  0  0  0
 40 42  1  0  0  0  0
 41 53  1  0  0  0  0
 41 51  1  0  0  0  0
 42 43  1  0  0  0  0
 42 54  1  1  0  0  0
 43 30  1  0  0  0  0
 44 42  1  0  0  0  0
 45 44  1  0  0  0  0
 46 44  2  0  0  0  0
 47 39  1  0  0  0  0
 48 39  1  0  0  0  0
 50 40  1  0  0  0  0
 52 41  1  0  0  0  0
 55 43  1  0  0  0  0
M  END
$$$$
