RTY.pdb
 OpenBabel07022418073D

 60 60  0  0  1  0  0  0  0  0999 V2000
    2.2980   -4.3510    2.1350 N   0  0  0  0  0  0  0  0  0  0  0  0
    3.1140   -3.2580    2.5330 C   0  0  0  0  0  0  0  0  0  0  0  0
    4.2270   -3.4040    3.1870 N   0  0  0  0  0  0  0  0  0  0  0  0
    2.7370   -1.9040    2.2240 N   0  0  0  0  0  0  0  0  0  0  0  0
    3.2940   -0.8420    3.0000 C   0  0  0  0  0  0  0  0  0  0  0  0
    2.7710    0.4940    2.5230 C   0  0  0  0  0  0  0  0  0  0  0  0
    3.1500    0.6800    1.0800 C   0  0  0  0  0  0  0  0  0  0  0  0
    2.6720    1.9990    0.5210 C   0  0  2  0  0  0  0  0  0  0  0  0
    3.2420    3.1230    1.2600 N   0  0  0  0  0  0  0  0  0  0  0  0
    1.2080    2.1100    0.4190 C   0  0  0  0  0  0  0  0  0  0  0  0
    0.6140    3.1030    0.9620 O   0  0  0  0  0  0  0  0  0  0  0  0
    1.6070   -4.7220    2.8250 H   0  0  0  0  0  0  0  0  0  0  0  0
    2.3470   -4.8070    1.1990 H   0  0  0  0  0  0  0  0  0  0  0  0
    4.4970   -4.3920    3.4100 H   0  0  0  0  0  0  0  0  0  0  0  0
    2.0750   -1.7550    1.4470 H   0  0  0  0  0  0  0  0  0  0  0  0
    4.3940   -0.8420    2.8300 H   0  0  0  0  0  0  0  0  0  0  0  0
    3.1240   -0.9930    4.0850 H   0  0  0  0  0  0  0  0  0  0  0  0
    3.2770    1.2770    3.1280 H   0  0  0  0  0  0  0  0  0  0  0  0
    1.6880    0.6160    2.7080 H   0  0  0  0  0  0  0  0  0  0  0  0
    2.7560   -0.1190    0.4290 H   0  0  0  0  0  0  0  0  0  0  0  0
    4.2560    0.6290    1.0150 H   0  0  0  0  0  0  0  0  0  0  0  0
    3.0830    2.0740   -0.5120 H   0  0  0  0  0  0  0  0  0  0  0  0
    2.6970    3.3610    2.1080 H   0  0  0  0  0  0  0  0  0  0  0  0
    3.1770    3.9430    0.5890 H   0  0  0  0  0  0  0  0  0  0  0  0
   -2.9960    1.9530   -1.7250 C   0  0  0  0  0  0  0  0  0  0  0  0
   -1.5230    1.6080   -1.7310 C   0  0  1  0  0  0  0  0  0  0  0  0
   -0.8490    2.7760   -2.1580 O   0  0  0  0  0  0  0  0  0  0  0  0
   -1.0750    1.3670   -0.3060 C   0  0  2  0  0  0  0  0  0  0  0  0
    0.3810    1.1820   -0.2500 N   0  0  0  0  0  0  0  0  0  0  0  0
   -1.7790    0.2220    0.3130 C   0  0  0  0  0  0  0  0  0  0  0  0
   -3.0270    0.2360    0.3500 O   0  0  0  0  0  0  0  0  0  0  0  0
   -3.1860    2.7620   -2.4760 H   0  0  0  0  0  0  0  0  0  0  0  0
   -3.5570    1.0370   -2.0220 H   0  0  0  0  0  0  0  0  0  0  0  0
   -3.3650    2.2730   -0.7430 H   0  0  0  0  0  0  0  0  0  0  0  0
   -1.2570    0.8060   -2.4190 H   0  0  0  0  0  0  0  0  0  0  0  0
   -1.0300    3.5200   -1.5050 H   0  0  0  0  0  0  0  0  0  0  0  0
   -1.3140    2.2930    0.2540 H   0  0  0  0  0  0  0  0  0  0  0  0
    0.8340    0.3570   -0.7050 H   0  0  0  0  0  0  0  0  0  0  0  0
   -3.8300   -2.7200   -4.3690 O   0  0  0  0  0  0  0  0  0  0  0  0
   -3.2480   -2.8650   -3.1070 C   0  0  0  0  0  0  0  0  0  0  0  0
   -1.9440   -2.5180   -2.9150 C   0  0  0  0  0  0  0  0  0  0  0  0
   -1.3400   -2.6460   -1.6980 C   0  0  0  0  0  0  0  0  0  0  0  0
   -2.0560   -3.1410   -0.6120 C   0  0  0  0  0  0  0  0  0  0  0  0
   -1.4630   -3.2980    0.7200 C   0  0  0  0  0  0  0  0  0  0  0  0
   -1.6880   -2.0170    1.4720 C   0  0  2  0  0  0  0  0  0  0  0  0
   -1.0960   -0.8670    0.8530 N   0  0  0  0  0  0  0  0  0  0  0  0
   -1.3130   -2.1380    2.9010 C   0  0  0  0  0  0  0  0  0  0  0  0
   -0.5470   -1.2900    3.4710 O   0  0  0  0  0  0  0  0  0  0  0  0
   -3.3780   -3.4980   -0.7840 C   0  0  0  0  0  0  0  0  0  0  0  0
   -3.9540   -3.3560   -2.0270 C   0  0  0  0  0  0  0  0  0  0  0  0
   -1.7580   -3.1640    3.7170 O   0  0  0  0  0  0  0  0  0  0  0  0
   -4.8500   -2.5880   -4.3880 H   0  0  0  0  0  0  0  0  0  0  0  0
   -1.3610   -2.1270   -3.7520 H   0  0  0  0  0  0  0  0  0  0  0  0
   -0.3230   -2.3790   -1.5320 H   0  0  0  0  0  0  0  0  0  0  0  0
   -0.4040   -3.6150    0.7040 H   0  0  0  0  0  0  0  0  0  0  0  0
   -2.0170   -4.0940    1.2550 H   0  0  0  0  0  0  0  0  0  0  0  0
   -2.8000   -1.8420    1.4450 H   0  0  0  0  0  0  0  0  0  0  0  0
   -0.0410   -0.8480    0.8040 H   0  0  0  0  0  0  0  0  0  0  0  0
   -3.9810   -3.8910    0.0340 H   0  0  0  0  0  0  0  0  0  0  0  0
   -4.9860   -3.6230   -2.2070 H   0  0  0  0  0  0  0  0  0  0  0  0
  1  2  1  0  0  0  0
  1 12  1  0  0  0  0
  2  3  2  0  0  0  0
  3 14  1  0  0  0  0
  4  2  1  0  0  0  0
  4  5  1  0  0  0  0
  5 17  1  0  0  0  0
  6 19  1  0  0  0  0
  6  5  1  0  0  0  0
  6 18  1  0  0  0  0
  7  6  1  0  0  0  0
  8 22  1  6  0  0  0
  8  7  1  0  0  0  0
  8  9  1  0  0  0  0
  9 23  1  0  0  0  0
 10  8  1  0  0  0  0
 10 11  2  0  0  0  0
 13  1  1  0  0  0  0
 15  4  1  0  0  0  0
 16  5  1  0  0  0  0
 20  7  1  0  0  0  0
 21  7  1  0  0  0  0
 24  9  1  0  0  0  0
 25 34  1  0  0  0  0
 26 35  1  6  0  0  0
 26 25  1  0  0  0  0
 26 28  1  0  0  0  0
 27 26  1  0  0  0  0
 27 36  1  0  0  0  0
 28 29  1  0  0  0  0
 28 37  1  1  0  0  0
 28 30  1  0  0  0  0
 29 10  1  0  0  0  0
 30 31  2  0  0  0  0
 30 46  1  0  0  0  0
 32 25  1  0  0  0  0
 33 25  1  0  0  0  0
 38 29  1  0  0  0  0
 39 40  1  0  0  0  0
 40 41  2  0  0  0  0
 40 50  1  0  0  0  0
 41 42  1  0  0  0  0
 42 54  1  0  0  0  0
 42 43  2  0  0  0  0
 43 44  1  0  0  0  0
 44 56  1  0  0  0  0
 44 45  1  0  0  0  0
 45 57  1  6  0  0  0
 45 47  1  0  0  0  0
 46 45  1  0  0  0  0
 47 48  2  0  0  0  0
 47 51  1  0  0  0  0
 49 43  1  0  0  0  0
 49 59  1  0  0  0  0
 50 49  2  0  0  0  0
 52 39  1  0  0  0  0
 53 41  1  0  0  0  0
 55 44  1  0  0  0  0
 58 46  1  0  0  0  0
 60 50  1  0  0  0  0
M  END
$$$$
