RVA.pdb
 OpenBabel07022418073D

 51 50  0  0  1  0  0  0  0  0999 V2000
    2.3000   -6.3780    1.2690 N   0  0  0  0  0  0  0  0  0  0  0  0
    2.6860   -5.1230    1.7810 C   0  0  0  0  0  0  0  0  0  0  0  0
    3.1610   -4.9640    2.9700 N   0  0  0  0  0  0  0  0  0  0  0  0
    2.5510   -3.9650    0.9510 N   0  0  0  0  0  0  0  0  0  0  0  0
    2.6770   -2.6330    1.5160 C   0  0  0  0  0  0  0  0  0  0  0  0
    2.4840   -1.6320    0.3940 C   0  0  0  0  0  0  0  0  0  0  0  0
    2.5990   -0.2140    0.8940 C   0  0  0  0  0  0  0  0  0  0  0  0
    2.4040    0.7910   -0.2060 C   0  0  2  0  0  0  0  0  0  0  0  0
    2.5590    2.1440    0.3510 N   0  0  0  0  0  0  0  0  0  0  0  0
    1.0690    0.7290   -0.8510 C   0  0  0  0  0  0  0  0  0  0  0  0
    0.9030    1.1910   -2.0200 O   0  0  0  0  0  0  0  0  0  0  0  0
    3.0100   -7.1080    1.1150 H   0  0  0  0  0  0  0  0  0  0  0  0
    1.3100   -6.5620    1.0520 H   0  0  0  0  0  0  0  0  0  0  0  0
    3.2540   -5.8200    3.5640 H   0  0  0  0  0  0  0  0  0  0  0  0
    2.3560   -4.1140   -0.0820 H   0  0  0  0  0  0  0  0  0  0  0  0
    3.7020   -2.4910    1.9120 H   0  0  0  0  0  0  0  0  0  0  0  0
    1.9710   -2.4630    2.3570 H   0  0  0  0  0  0  0  0  0  0  0  0
    3.3180   -1.8360   -0.3280 H   0  0  0  0  0  0  0  0  0  0  0  0
    1.5280   -1.8310   -0.1100 H   0  0  0  0  0  0  0  0  0  0  0  0
    1.9060   -0.0270    1.7480 H   0  0  0  0  0  0  0  0  0  0  0  0
    3.6460   -0.1200    1.2950 H   0  0  0  0  0  0  0  0  0  0  0  0
    3.1750    0.6580   -0.9920 H   0  0  0  0  0  0  0  0  0  0  0  0
    3.3370    2.0610    1.0610 H   0  0  0  0  0  0  0  0  0  0  0  0
    2.9020    2.7380   -0.4340 H   0  0  0  0  0  0  0  0  0  0  0  0
   -3.1130   -1.4680   -1.6240 C   0  0  0  0  0  0  0  0  0  0  0  0
   -1.7490   -1.3360   -0.9730 C   0  0  0  0  0  0  0  0  0  0  0  0
   -0.7660   -2.1060   -1.8120 C   0  0  0  0  0  0  0  0  0  0  0  0
   -1.3520    0.1180   -0.8290 C   0  0  2  0  0  0  0  0  0  0  0  0
   -0.0510    0.1650   -0.1920 N   0  0  0  0  0  0  0  0  0  0  0  0
   -2.3880    0.7920   -0.0090 C   0  0  0  0  0  0  0  0  0  0  0  0
   -3.5630    0.8340   -0.4240 O   0  0  0  0  0  0  0  0  0  0  0  0
   -3.9340   -1.4370   -0.8870 H   0  0  0  0  0  0  0  0  0  0  0  0
   -3.1500   -2.4700   -2.1020 H   0  0  0  0  0  0  0  0  0  0  0  0
   -3.2120   -0.7180   -2.4250 H   0  0  0  0  0  0  0  0  0  0  0  0
   -1.7980   -1.7810    0.0260 H   0  0  0  0  0  0  0  0  0  0  0  0
   -0.5020   -3.0940   -1.3650 H   0  0  0  0  0  0  0  0  0  0  0  0
   -1.2280   -2.3000   -2.7990 H   0  0  0  0  0  0  0  0  0  0  0  0
    0.1470   -1.5060   -2.0360 H   0  0  0  0  0  0  0  0  0  0  0  0
   -1.3050    0.6020   -1.8260 H   0  0  0  0  0  0  0  0  0  0  0  0
    0.0790   -0.2070    0.7630 H   0  0  0  0  0  0  0  0  0  0  0  0
   -3.2660    1.4460    3.4160 C   0  0  0  0  0  0  0  0  0  0  0  0
   -3.0900    2.0590    2.0570 C   0  0  2  0  0  0  0  0  0  0  0  0
   -2.1140    1.4040    1.2450 N   0  0  0  0  0  0  0  0  0  0  0  0
   -2.8140    3.5040    2.2470 C   0  0  0  0  0  0  0  0  0  0  0  0
   -3.5950    4.2030    2.9390 O   0  0  0  0  0  0  0  0  0  0  0  0
   -1.7110    4.1290    1.6820 O   0  0  0  0  0  0  0  0  0  0  0  0
   -3.6660    2.2020    4.1430 H   0  0  0  0  0  0  0  0  0  0  0  0
   -4.0090    0.6270    3.3230 H   0  0  0  0  0  0  0  0  0  0  0  0
   -2.3300    0.9670    3.8040 H   0  0  0  0  0  0  0  0  0  0  0  0
   -4.0700    1.9930    1.5290 H   0  0  0  0  0  0  0  0  0  0  0  0
   -1.1250    1.3580    1.5760 H   0  0  0  0  0  0  0  0  0  0  0  0
  1  2  1  0  0  0  0
  2  3  2  0  0  0  0
  3 14  1  0  0  0  0
  4  5  1  0  0  0  0
  4  2  1  0  0  0  0
  5 16  1  0  0  0  0
  5 17  1  0  0  0  0
  6  7  1  0  0  0  0
  6  5  1  0  0  0  0
  7 21  1  0  0  0  0
  7 20  1  0  0  0  0
  8 22  1  6  0  0  0
  8  9  1  0  0  0  0
  8  7  1  0  0  0  0
  9 23  1  0  0  0  0
 10  8  1  0  0  0  0
 10 29  1  0  0  0  0
 11 10  2  0  0  0  0
 12  1  1  0  0  0  0
 13  1  1  0  0  0  0
 15  4  1  0  0  0  0
 18  6  1  0  0  0  0
 19  6  1  0  0  0  0
 24  9  1  0  0  0  0
 25 26  1  0  0  0  0
 25 32  1  0  0  0  0
 26 28  1  0  0  0  0
 26 35  1  0  0  0  0
 27 36  1  0  0  0  0
 27 26  1  0  0  0  0
 28 39  1  6  0  0  0
 28 29  1  0  0  0  0
 28 30  1  0  0  0  0
 29 40  1  0  0  0  0
 30 43  1  0  0  0  0
 31 30  2  0  0  0  0
 33 25  1  0  0  0  0
 34 25  1  0  0  0  0
 37 27  1  0  0  0  0
 38 27  1  0  0  0  0
 41 49  1  0  0  0  0
 41 47  1  0  0  0  0
 42 50  1  6  0  0  0
 42 44  1  0  0  0  0
 42 41  1  0  0  0  0
 43 51  1  0  0  0  0
 43 42  1  0  0  0  0
 44 45  1  0  0  0  0
 46 44  2  0  0  0  0
 48 41  1  0  0  0  0
M  END
$$$$
