RVF.pdb
 OpenBabel07022418073D

 61 61  0  0  1  0  0  0  0  0999 V2000
    2.5060   -2.5210    5.9940 N   0  0  0  0  0  0  0  0  0  0  0  0
    3.6240   -2.1020    5.2250 C   0  0  0  0  0  0  0  0  0  0  0  0
    4.7440   -2.7140    5.3750 N   0  0  0  0  0  0  0  0  0  0  0  0
    3.5560   -1.0310    4.2950 N   0  0  0  0  0  0  0  0  0  0  0  0
    4.6100   -0.8970    3.3160 C   0  0  0  0  0  0  0  0  0  0  0  0
    4.3590    0.2950    2.4200 C   0  0  0  0  0  0  0  0  0  0  0  0
    3.0500    0.1460    1.6830 C   0  0  0  0  0  0  0  0  0  0  0  0
    2.7640    1.3150    0.7780 C   0  0  2  0  0  0  0  0  0  0  0  0
    2.6800    2.5600    1.4650 N   0  0  0  0  0  0  0  0  0  0  0  0
    1.4390    1.0110    0.0960 C   0  0  0  0  0  0  0  0  0  0  0  0
    1.2940   -0.0300   -0.5600 O   0  0  0  0  0  0  0  0  0  0  0  0
    2.1230   -3.4810    5.8080 H   0  0  0  0  0  0  0  0  0  0  0  0
    2.0530   -1.9350    6.7200 H   0  0  0  0  0  0  0  0  0  0  0  0
    4.9080   -3.5030    6.0210 H   0  0  0  0  0  0  0  0  0  0  0  0
    2.7570   -0.3660    4.3320 H   0  0  0  0  0  0  0  0  0  0  0  0
    5.5900   -0.7060    3.8380 H   0  0  0  0  0  0  0  0  0  0  0  0
    4.7490   -1.8320    2.7270 H   0  0  0  0  0  0  0  0  0  0  0  0
    4.4170    1.1910    3.0440 H   0  0  0  0  0  0  0  0  0  0  0  0
    5.1850    0.3530    1.6850 H   0  0  0  0  0  0  0  0  0  0  0  0
    2.2190   -0.0000    2.4010 H   0  0  0  0  0  0  0  0  0  0  0  0
    3.1210   -0.7890    1.0890 H   0  0  0  0  0  0  0  0  0  0  0  0
    3.5070    1.3490   -0.0460 H   0  0  0  0  0  0  0  0  0  0  0  0
    3.2070    3.2880    0.9420 H   0  0  0  0  0  0  0  0  0  0  0  0
    2.9460    2.4730    2.4480 H   0  0  0  0  0  0  0  0  0  0  0  0
   -2.2210    2.6540   -2.3970 C   0  0  0  0  0  0  0  0  0  0  0  0
   -0.9700    2.5620   -1.6110 C   0  0  0  0  0  0  0  0  0  0  0  0
    0.1810    2.0860   -2.5190 C   0  0  0  0  0  0  0  0  0  0  0  0
   -0.9630    1.8040   -0.3440 C   0  0  2  0  0  0  0  0  0  0  0  0
    0.3560    1.8950    0.1940 N   0  0  0  0  0  0  0  0  0  0  0  0
   -1.5890    0.4770   -0.3190 C   0  0  0  0  0  0  0  0  0  0  0  0
   -0.9630   -0.5480    0.1120 O   0  0  0  0  0  0  0  0  0  0  0  0
   -2.4770    1.7490   -2.9850 H   0  0  0  0  0  0  0  0  0  0  0  0
   -2.1020    3.4400   -3.2260 H   0  0  0  0  0  0  0  0  0  0  0  0
   -3.0340    3.0700   -1.7850 H   0  0  0  0  0  0  0  0  0  0  0  0
   -0.6600    3.6400   -1.4010 H   0  0  0  0  0  0  0  0  0  0  0  0
    1.1420    2.2900   -2.0100 H   0  0  0  0  0  0  0  0  0  0  0  0
    0.1710    2.7620   -3.4150 H   0  0  0  0  0  0  0  0  0  0  0  0
    0.1090    1.0380   -2.7870 H   0  0  0  0  0  0  0  0  0  0  0  0
   -1.6140    2.3910    0.4080 H   0  0  0  0  0  0  0  0  0  0  0  0
    0.5680    2.7810    0.7630 H   0  0  0  0  0  0  0  0  0  0  0  0
   -2.9120    0.1580   -0.7430 N   0  0  0  0  0  0  0  0  0  0  0  0
   -3.4340   -1.2180   -0.6710 C   0  0  1  0  0  0  0  0  0  0  0  0
   -2.7500   -2.1250   -1.6240 C   0  0  0  0  0  0  0  0  0  0  0  0
   -3.2410   -3.5220   -1.5850 C   0  0  0  0  0  0  0  0  0  0  0  0
   -2.6990   -4.5050   -0.7860 C   0  0  0  0  0  0  0  0  0  0  0  0
   -3.1540   -5.8000   -0.7430 C   0  0  0  0  0  0  0  0  0  0  0  0
   -4.2190   -6.1160   -1.5570 C   0  0  0  0  0  0  0  0  0  0  0  0
   -4.7870   -5.1590   -2.3690 C   0  0  0  0  0  0  0  0  0  0  0  0
   -4.3050   -3.8780   -2.3840 C   0  0  0  0  0  0  0  0  0  0  0  0
   -3.4060   -1.6530    0.7410 C   0  0  0  0  0  0  0  0  0  0  0  0
   -3.7790   -2.7940    1.1160 O   0  0  0  0  0  0  0  0  0  0  0  0
   -2.9580   -0.8100    1.7530 O   0  0  0  0  0  0  0  0  0  0  0  0
   -3.5200    0.9180   -1.0930 H   0  0  0  0  0  0  0  0  0  0  0  0
   -4.5200   -1.1540   -0.9310 H   0  0  0  0  0  0  0  0  0  0  0  0
   -1.6600   -2.1730   -1.4120 H   0  0  0  0  0  0  0  0  0  0  0  0
   -2.8240   -1.7450   -2.6670 H   0  0  0  0  0  0  0  0  0  0  0  0
   -1.8490   -4.2620   -0.1390 H   0  0  0  0  0  0  0  0  0  0  0  0
   -2.7110   -6.5660   -0.1030 H   0  0  0  0  0  0  0  0  0  0  0  0
   -4.5980   -7.1470   -1.5370 H   0  0  0  0  0  0  0  0  0  0  0  0
   -5.6310   -5.4340   -3.0050 H   0  0  0  0  0  0  0  0  0  0  0  0
   -4.7510   -3.1290   -3.0210 H   0  0  0  0  0  0  0  0  0  0  0  0
  1 13  1  0  0  0  0
  2  3  2  0  0  0  0
  2  1  1  0  0  0  0
  3 14  1  0  0  0  0
  4 15  1  0  0  0  0
  4  2  1  0  0  0  0
  5 16  1  0  0  0  0
  5  4  1  0  0  0  0
  6 18  1  0  0  0  0
  6  5  1  0  0  0  0
  7 20  1  0  0  0  0
  7  6  1  0  0  0  0
  8 22  1  6  0  0  0
  8  9  1  0  0  0  0
  8  7  1  0  0  0  0
  9 24  1  0  0  0  0
 10 29  1  0  0  0  0
 10  8  1  0  0  0  0
 11 10  2  0  0  0  0
 12  1  1  0  0  0  0
 17  5  1  0  0  0  0
 19  6  1  0  0  0  0
 21  7  1  0  0  0  0
 23  9  1  0  0  0  0
 25 34  1  0  0  0  0
 25 26  1  0  0  0  0
 26 35  1  0  0  0  0
 26 28  1  0  0  0  0
 27 36  1  0  0  0  0
 27 26  1  0  0  0  0
 28 30  1  0  0  0  0
 28 29  1  0  0  0  0
 28 39  1  1  0  0  0
 29 40  1  0  0  0  0
 30 31  2  0  0  0  0
 32 25  1  0  0  0  0
 33 25  1  0  0  0  0
 37 27  1  0  0  0  0
 38 27  1  0  0  0  0
 41 42  1  0  0  0  0
 41 30  1  0  0  0  0
 42 54  1  6  0  0  0
 42 50  1  0  0  0  0
 43 44  1  0  0  0  0
 43 55  1  0  0  0  0
 43 42  1  0  0  0  0
 44 45  1  0  0  0  0
 45 46  2  0  0  0  0
 45 57  1  0  0  0  0
 46 58  1  0  0  0  0
 47 59  1  0  0  0  0
 47 46  1  0  0  0  0
 48 47  2  0  0  0  0
 49 48  1  0  0  0  0
 49 44  2  0  0  0  0
 50 51  2  0  0  0  0
 50 52  1  0  0  0  0
 53 41  1  0  0  0  0
 56 43  1  0  0  0  0
 60 48  1  0  0  0  0
 61 49  1  0  0  0  0
M  END
$$$$
