RVH.pdb
 OpenBabel07022418073D

 58 58  0  0  1  0  0  0  0  0999 V2000
   -0.1300   -1.6260    3.2160 N   0  0  0  0  0  0  0  0  0  0  0  0
    1.1690   -1.2380    3.6120 C   0  0  0  0  0  0  0  0  0  0  0  0
    1.4490   -1.2170    4.8870 N   0  0  0  0  0  0  0  0  0  0  0  0
    2.1820   -0.8680    2.6480 N   0  0  0  0  0  0  0  0  0  0  0  0
    3.3340   -0.2250    3.1940 C   0  0  0  0  0  0  0  0  0  0  0  0
    4.3790    0.2820    2.3180 C   0  0  0  0  0  0  0  0  0  0  0  0
    4.2090    1.4070    1.3860 C   0  0  0  0  0  0  0  0  0  0  0  0
    3.1790    1.3910    0.3220 C   0  0  2  0  0  0  0  0  0  0  0  0
    3.3310    2.6180   -0.5210 N   0  0  0  0  0  0  0  0  0  0  0  0
    1.8070    1.5130    0.9290 C   0  0  0  0  0  0  0  0  0  0  0  0
    1.6040    2.0180    2.0540 O   0  0  0  0  0  0  0  0  0  0  0  0
   -0.3880   -2.5640    2.8680 H   0  0  0  0  0  0  0  0  0  0  0  0
   -0.9050   -0.9100    3.2800 H   0  0  0  0  0  0  0  0  0  0  0  0
    0.7410   -1.4770    5.5960 H   0  0  0  0  0  0  0  0  0  0  0  0
    1.9930   -1.1220    1.6600 H   0  0  0  0  0  0  0  0  0  0  0  0
    3.7870   -1.0070    3.8990 H   0  0  0  0  0  0  0  0  0  0  0  0
    2.9480    0.5580    3.9050 H   0  0  0  0  0  0  0  0  0  0  0  0
    4.7920   -0.6350    1.7270 H   0  0  0  0  0  0  0  0  0  0  0  0
    5.3260    0.4890    2.9630 H   0  0  0  0  0  0  0  0  0  0  0  0
    5.2300    1.6980    0.9450 H   0  0  0  0  0  0  0  0  0  0  0  0
    4.0420    2.3340    2.0680 H   0  0  0  0  0  0  0  0  0  0  0  0
    3.3090    0.5470   -0.3430 H   0  0  0  0  0  0  0  0  0  0  0  0
    4.2120    2.4410   -1.0670 H   0  0  0  0  0  0  0  0  0  0  0  0
    2.5480    2.5300   -1.2350 H   0  0  0  0  0  0  0  0  0  0  0  0
   -2.8700    2.2150    0.6020 C   0  0  0  0  0  0  0  0  0  0  0  0
   -1.4760    2.2180    0.0160 C   0  0  0  0  0  0  0  0  0  0  0  0
   -1.6030    1.9490   -1.4560 C   0  0  0  0  0  0  0  0  0  0  0  0
   -0.6960    1.1110    0.7280 C   0  0  2  0  0  0  0  0  0  0  0  0
    0.6580    1.0470    0.2260 N   0  0  0  0  0  0  0  0  0  0  0  0
   -1.3880   -0.1900    0.5270 C   0  0  0  0  0  0  0  0  0  0  0  0
   -2.5770   -0.3700    0.9630 O   0  0  0  0  0  0  0  0  0  0  0  0
   -2.8370    1.8390    1.6480 H   0  0  0  0  0  0  0  0  0  0  0  0
   -3.4970    1.5350   -0.0100 H   0  0  0  0  0  0  0  0  0  0  0  0
   -3.3150    3.2540    0.5720 H   0  0  0  0  0  0  0  0  0  0  0  0
   -0.9480    3.1600    0.1920 H   0  0  0  0  0  0  0  0  0  0  0  0
   -2.1660    2.8120   -1.8840 H   0  0  0  0  0  0  0  0  0  0  0  0
   -2.2420    1.0610   -1.6230 H   0  0  0  0  0  0  0  0  0  0  0  0
   -0.6450    1.9160   -1.9860 H   0  0  0  0  0  0  0  0  0  0  0  0
   -0.7660    1.3770    1.8000 H   0  0  0  0  0  0  0  0  0  0  0  0
    0.8100    0.6390   -0.7160 H   0  0  0  0  0  0  0  0  0  0  0  0
   -0.8130   -1.3010   -0.1430 N   0  0  0  0  0  0  0  0  0  0  0  0
   -1.5860   -2.5560   -0.2960 C   0  0  1  0  0  0  0  0  0  0  0  0
   -1.8880   -2.7260   -1.7730 C   0  0  0  0  0  0  0  0  0  0  0  0
   -2.6540   -3.9570   -1.9850 C   0  0  0  0  0  0  0  0  0  0  0  0
   -2.2010   -5.2150   -2.2870 C   0  0  0  0  0  0  0  0  0  0  0  0
   -3.2570   -6.0530   -2.4240 N   0  0  0  0  0  0  0  0  0  0  0  0
   -4.3620   -5.3290   -2.2110 C   0  0  0  0  0  0  0  0  0  0  0  0
   -4.0140   -4.0720   -1.9470 N   0  0  0  0  0  0  0  0  0  0  0  0
   -0.7000   -3.6480    0.1390 C   0  0  0  0  0  0  0  0  0  0  0  0
    0.5060   -3.4240    0.4420 O   0  0  0  0  0  0  0  0  0  0  0  0
   -1.1590   -4.9540    0.2320 O   0  0  0  0  0  0  0  0  0  0  0  0
    0.1420   -1.2400   -0.5240 H   0  0  0  0  0  0  0  0  0  0  0  0
   -2.5030   -2.4620    0.3000 H   0  0  0  0  0  0  0  0  0  0  0  0
   -0.8900   -2.8010   -2.2740 H   0  0  0  0  0  0  0  0  0  0  0  0
   -2.3640   -1.8180   -2.2000 H   0  0  0  0  0  0  0  0  0  0  0  0
   -1.1560   -5.5100   -2.4100 H   0  0  0  0  0  0  0  0  0  0  0  0
   -3.1780   -7.0670   -2.6530 H   0  0  0  0  0  0  0  0  0  0  0  0
   -5.3610   -5.7090   -2.2490 H   0  0  0  0  0  0  0  0  0  0  0  0
  1 13  1  0  0  0  0
  1  2  1  0  0  0  0
  2  3  2  0  0  0  0
  3 14  1  0  0  0  0
  4  5  1  0  0  0  0
  4  2  1  0  0  0  0
  5 16  1  0  0  0  0
  5 17  1  0  0  0  0
  6 19  1  0  0  0  0
  6  5  1  0  0  0  0
  7 21  1  0  0  0  0
  7  6  1  0  0  0  0
  8 22  1  6  0  0  0
  8 10  1  0  0  0  0
  8  7  1  0  0  0  0
  9  8  1  0  0  0  0
 10 11  2  0  0  0  0
 12  1  1  0  0  0  0
 15  4  1  0  0  0  0
 18  6  1  0  0  0  0
 20  7  1  0  0  0  0
 23  9  1  0  0  0  0
 24  9  1  0  0  0  0
 25 32  1  0  0  0  0
 26 35  1  0  0  0  0
 26 25  1  0  0  0  0
 26 28  1  0  0  0  0
 27 26  1  0  0  0  0
 28 39  1  1  0  0  0
 29 28  1  0  0  0  0
 29 10  1  0  0  0  0
 30 28  1  0  0  0  0
 30 31  2  0  0  0  0
 33 25  1  0  0  0  0
 34 25  1  0  0  0  0
 36 27  1  0  0  0  0
 37 27  1  0  0  0  0
 38 27  1  0  0  0  0
 40 29  1  0  0  0  0
 41 30  1  0  0  0  0
 42 41  1  0  0  0  0
 42 49  1  0  0  0  0
 42 53  1  1  0  0  0
 43 42  1  0  0  0  0
 44 48  1  0  0  0  0
 44 43  1  0  0  0  0
 45 44  2  0  0  0  0
 46 45  1  0  0  0  0
 46 47  1  0  0  0  0
 47 48  2  0  0  0  0
 49 51  2  0  0  0  0
 49 50  1  0  0  0  0
 52 41  1  0  0  0  0
 54 43  1  0  0  0  0
 55 43  1  0  0  0  0
 56 45  1  0  0  0  0
 57 46  1  0  0  0  0
 58 47  1  0  0  0  0
M  END
$$$$
