RVL.pdb
 OpenBabel07022418073D

 60 59  0  0  1  0  0  0  0  0999 V2000
   -0.3520    4.4560    3.7460 N   0  0  0  0  0  0  0  0  0  0  0  0
   -1.4630    3.6050    4.0190 C   0  0  0  0  0  0  0  0  0  0  0  0
   -1.3950    2.7100    4.9410 N   0  0  0  0  0  0  0  0  0  0  0  0
   -2.6820    3.7040    3.2940 N   0  0  0  0  0  0  0  0  0  0  0  0
   -3.4570    2.4980    3.1020 C   0  0  0  0  0  0  0  0  0  0  0  0
   -2.7550    1.5250    2.1750 C   0  0  0  0  0  0  0  0  0  0  0  0
   -2.5290    2.1630    0.8070 C   0  0  0  0  0  0  0  0  0  0  0  0
   -1.8290    1.1810   -0.1020 C   0  0  2  0  0  0  0  0  0  0  0  0
   -2.6550    0.0160   -0.2420 N   0  0  0  0  0  0  0  0  0  0  0  0
   -0.4620    0.8750    0.3480 C   0  0  0  0  0  0  0  0  0  0  0  0
    0.3560    1.8130    0.5170 O   0  0  0  0  0  0  0  0  0  0  0  0
    0.3560    4.5810    4.4990 H   0  0  0  0  0  0  0  0  0  0  0  0
   -0.2350    4.9390    2.8420 H   0  0  0  0  0  0  0  0  0  0  0  0
   -0.5120    2.6200    5.4860 H   0  0  0  0  0  0  0  0  0  0  0  0
   -2.9940    4.6240    2.9150 H   0  0  0  0  0  0  0  0  0  0  0  0
   -3.7710    2.0210    4.0430 H   0  0  0  0  0  0  0  0  0  0  0  0
   -4.4120    2.7800    2.5820 H   0  0  0  0  0  0  0  0  0  0  0  0
   -3.4480    0.6730    2.0220 H   0  0  0  0  0  0  0  0  0  0  0  0
   -1.8110    1.1360    2.5690 H   0  0  0  0  0  0  0  0  0  0  0  0
   -1.9930    3.1270    0.8920 H   0  0  0  0  0  0  0  0  0  0  0  0
   -3.5060    2.3940    0.3160 H   0  0  0  0  0  0  0  0  0  0  0  0
   -1.8230    1.6740   -1.1200 H   0  0  0  0  0  0  0  0  0  0  0  0
   -2.3690   -0.6120   -1.0240 H   0  0  0  0  0  0  0  0  0  0  0  0
   -2.5610   -0.5450    0.6490 H   0  0  0  0  0  0  0  0  0  0  0  0
    0.3650   -2.5930    2.4800 C   0  0  0  0  0  0  0  0  0  0  0  0
    1.2300   -1.3430    2.4480 C   0  0  0  0  0  0  0  0  0  0  0  0
    2.5930   -1.6860    3.0060 C   0  0  0  0  0  0  0  0  0  0  0  0
    1.3230   -0.7760    1.0480 C   0  0  2  0  0  0  0  0  0  0  0  0
   -0.0060   -0.4430    0.6080 N   0  0  0  0  0  0  0  0  0  0  0  0
    2.0560   -1.6370    0.1270 C   0  0  0  0  0  0  0  0  0  0  0  0
    3.2250   -2.0010    0.4010 O   0  0  0  0  0  0  0  0  0  0  0  0
   -0.5670   -2.4270    3.0820 H   0  0  0  0  0  0  0  0  0  0  0  0
    0.9020   -3.4170    2.9870 H   0  0  0  0  0  0  0  0  0  0  0  0
    0.0380   -2.9080    1.4820 H   0  0  0  0  0  0  0  0  0  0  0  0
    0.7780   -0.6110    3.1450 H   0  0  0  0  0  0  0  0  0  0  0  0
    2.8450   -2.7320    2.7410 H   0  0  0  0  0  0  0  0  0  0  0  0
    3.4010   -1.0560    2.5960 H   0  0  0  0  0  0  0  0  0  0  0  0
    2.6440   -1.5850    4.1100 H   0  0  0  0  0  0  0  0  0  0  0  0
    1.8660    0.2100    1.1470 H   0  0  0  0  0  0  0  0  0  0  0  0
   -0.6620   -1.2720    0.4810 H   0  0  0  0  0  0  0  0  0  0  0  0
   -0.7580   -3.9830   -1.7320 C   0  0  0  0  0  0  0  0  0  0  0  0
    0.3430   -4.5690   -2.5710 C   0  0  0  0  0  0  0  0  0  0  0  0
    0.0580   -4.1680   -4.0000 C   0  0  0  0  0  0  0  0  0  0  0  0
    1.7160   -4.3240   -2.1190 C   0  0  0  0  0  0  0  0  0  0  0  0
    2.2270   -2.9440   -2.0090 C   0  0  2  0  0  0  0  0  0  0  0  0
    1.5110   -2.1050   -1.1060 N   0  0  0  0  0  0  0  0  0  0  0  0
    2.4880   -2.2950   -3.3210 C   0  0  0  0  0  0  0  0  0  0  0  0
    2.1320   -1.1450   -3.6300 O   0  0  0  0  0  0  0  0  0  0  0  0
    3.1810   -3.0360   -4.2680 O   0  0  0  0  0  0  0  0  0  0  0  0
   -0.4760   -3.8280   -0.6700 H   0  0  0  0  0  0  0  0  0  0  0  0
   -1.2410   -3.0920   -2.1950 H   0  0  0  0  0  0  0  0  0  0  0  0
   -1.6130   -4.7290   -1.6760 H   0  0  0  0  0  0  0  0  0  0  0  0
    0.1940   -5.6920   -2.5590 H   0  0  0  0  0  0  0  0  0  0  0  0
    0.8080   -4.5360   -4.7190 H   0  0  0  0  0  0  0  0  0  0  0  0
   -0.9030   -4.6500   -4.2780 H   0  0  0  0  0  0  0  0  0  0  0  0
   -0.1280   -3.0660   -4.0850 H   0  0  0  0  0  0  0  0  0  0  0  0
    1.8120   -4.7880   -1.0900 H   0  0  0  0  0  0  0  0  0  0  0  0
    2.4450   -4.9140   -2.7490 H   0  0  0  0  0  0  0  0  0  0  0  0
    3.2670   -3.0570   -1.5580 H   0  0  0  0  0  0  0  0  0  0  0  0
    0.5330   -1.7860   -1.3290 H   0  0  0  0  0  0  0  0  0  0  0  0
  1  2  1  0  0  0  0
  1 12  1  0  0  0  0
  2  3  2  0  0  0  0
  3 14  1  0  0  0  0
  4  2  1  0  0  0  0
  5  4  1  0  0  0  0
  5 16  1  0  0  0  0
  6 19  1  0  0  0  0
  6  5  1  0  0  0  0
  7 20  1  0  0  0  0
  7  6  1  0  0  0  0
  8 22  1  6  0  0  0
  8 10  1  0  0  0  0
  8  7  1  0  0  0  0
  9  8  1  0  0  0  0
  9 24  1  0  0  0  0
 10 11  2  0  0  0  0
 10 29  1  0  0  0  0
 13  1  1  0  0  0  0
 15  4  1  0  0  0  0
 17  5  1  0  0  0  0
 18  6  1  0  0  0  0
 21  7  1  0  0  0  0
 23  9  1  0  0  0  0
 25 33  1  0  0  0  0
 25 32  1  0  0  0  0
 26 25  1  0  0  0  0
 26 27  1  0  0  0  0
 26 35  1  0  0  0  0
 27 38  1  0  0  0  0
 28 39  1  1  0  0  0
 28 26  1  0  0  0  0
 29 28  1  0  0  0  0
 30 31  2  0  0  0  0
 30 28  1  0  0  0  0
 34 25  1  0  0  0  0
 36 27  1  0  0  0  0
 37 27  1  0  0  0  0
 40 29  1  0  0  0  0
 41 52  1  0  0  0  0
 41 50  1  0  0  0  0
 42 53  1  0  0  0  0
 42 44  1  0  0  0  0
 42 41  1  0  0  0  0
 43 42  1  0  0  0  0
 44 45  1  0  0  0  0
 44 57  1  0  0  0  0
 45 59  1  1  0  0  0
 45 46  1  0  0  0  0
 46 30  1  0  0  0  0
 47 45  1  0  0  0  0
 48 47  1  0  0  0  0
 49 47  2  0  0  0  0
 51 41  1  0  0  0  0
 54 43  1  0  0  0  0
 55 43  1  0  0  0  0
 56 43  1  0  0  0  0
 58 44  1  0  0  0  0
 60 46  1  0  0  0  0
M  END
$$$$
