RVN.pdb
 OpenBabel07022418073D

 55 54  0  0  1  0  0  0  0  0999 V2000
    1.7150   -0.8450    4.4830 N   0  0  0  0  0  0  0  0  0  0  0  0
    2.4660    0.0230    3.6470 C   0  0  0  0  0  0  0  0  0  0  0  0
    3.7110   -0.1870    3.4180 N   0  0  0  0  0  0  0  0  0  0  0  0
    1.8250    1.1790    3.0310 N   0  0  0  0  0  0  0  0  0  0  0  0
    2.5800    2.3240    2.6780 C   0  0  0  0  0  0  0  0  0  0  0  0
    1.8090    3.3800    2.0050 C   0  0  0  0  0  0  0  0  0  0  0  0
    1.2390    3.1320    0.6820 C   0  0  0  0  0  0  0  0  0  0  0  0
    0.2390    2.0590    0.4540 C   0  0  2  0  0  0  0  0  0  0  0  0
   -0.9630    2.1320    1.1990 N   0  0  0  0  0  0  0  0  0  0  0  0
    0.7920    0.7440    0.1480 C   0  0  0  0  0  0  0  0  0  0  0  0
    1.9470    0.7080   -0.3610 O   0  0  0  0  0  0  0  0  0  0  0  0
    2.2010   -1.5250    5.0880 H   0  0  0  0  0  0  0  0  0  0  0  0
    0.6770   -0.8190    4.5090 H   0  0  0  0  0  0  0  0  0  0  0  0
    4.1640   -1.0080    3.8570 H   0  0  0  0  0  0  0  0  0  0  0  0
    0.8110    1.0630    2.9200 H   0  0  0  0  0  0  0  0  0  0  0  0
    3.4880    2.0570    2.0580 H   0  0  0  0  0  0  0  0  0  0  0  0
    3.0600    2.6890    3.6400 H   0  0  0  0  0  0  0  0  0  0  0  0
    1.0250    3.8260    2.7110 H   0  0  0  0  0  0  0  0  0  0  0  0
    2.5250    4.2760    1.9070 H   0  0  0  0  0  0  0  0  0  0  0  0
    0.7900    4.1350    0.3220 H   0  0  0  0  0  0  0  0  0  0  0  0
    2.0940    3.0310   -0.0680 H   0  0  0  0  0  0  0  0  0  0  0  0
   -0.1680    2.3710   -0.6340 H   0  0  0  0  0  0  0  0  0  0  0  0
   -1.6810    2.7780    0.8690 H   0  0  0  0  0  0  0  0  0  0  0  0
   -1.2620    1.3000    1.7010 H   0  0  0  0  0  0  0  0  0  0  0  0
    1.3330   -3.9850    1.0740 C   0  0  0  0  0  0  0  0  0  0  0  0
    0.7840   -2.5880    1.3370 C   0  0  0  0  0  0  0  0  0  0  0  0
   -0.5570   -2.7230    2.0120 C   0  0  0  0  0  0  0  0  0  0  0  0
    0.6840   -1.7960    0.0510 C   0  0  2  0  0  0  0  0  0  0  0  0
    0.1590   -0.4970    0.3600 N   0  0  0  0  0  0  0  0  0  0  0  0
   -0.0410   -2.5130   -0.9920 C   0  0  0  0  0  0  0  0  0  0  0  0
    0.3320   -3.6500   -1.3400 O   0  0  0  0  0  0  0  0  0  0  0  0
    1.7530   -4.3440    2.0180 H   0  0  0  0  0  0  0  0  0  0  0  0
    0.5130   -4.6550    0.7720 H   0  0  0  0  0  0  0  0  0  0  0  0
    2.1350   -3.8890    0.3200 H   0  0  0  0  0  0  0  0  0  0  0  0
    1.5290   -2.0970    1.9880 H   0  0  0  0  0  0  0  0  0  0  0  0
   -1.3830   -2.4110    1.3330 H   0  0  0  0  0  0  0  0  0  0  0  0
   -0.7240   -3.7640    2.4050 H   0  0  0  0  0  0  0  0  0  0  0  0
   -0.5950   -2.0420    2.8840 H   0  0  0  0  0  0  0  0  0  0  0  0
    1.7480   -1.6520   -0.3050 H   0  0  0  0  0  0  0  0  0  0  0  0
   -0.7990   -0.4640    0.7900 H   0  0  0  0  0  0  0  0  0  0  0  0
   -5.5540   -2.0850   -1.7530 N   0  0  0  0  0  0  0  0  0  0  0  0
   -4.1850   -1.9340   -2.0760 C   0  0  0  0  0  0  0  0  0  0  0  0
   -3.7450   -0.7570   -2.1160 O   0  0  0  0  0  0  0  0  0  0  0  0
   -3.2850   -3.0490   -2.3590 C   0  0  0  0  0  0  0  0  0  0  0  0
   -1.8790   -2.6860   -2.6700 C   0  0  2  0  0  0  0  0  0  0  0  0
   -1.1760   -1.9850   -1.6540 N   0  0  0  0  0  0  0  0  0  0  0  0
   -1.7260   -1.9850   -3.9660 C   0  0  0  0  0  0  0  0  0  0  0  0
   -2.2530   -2.3990   -5.0320 O   0  0  0  0  0  0  0  0  0  0  0  0
   -0.9670   -0.8240   -3.9950 O   0  0  0  0  0  0  0  0  0  0  0  0
   -5.8910   -2.8690   -1.1740 H   0  0  0  0  0  0  0  0  0  0  0  0
   -6.2320   -1.3880   -2.1090 H   0  0  0  0  0  0  0  0  0  0  0  0
   -3.6920   -3.5730   -3.2740 H   0  0  0  0  0  0  0  0  0  0  0  0
   -3.2910   -3.8340   -1.5700 H   0  0  0  0  0  0  0  0  0  0  0  0
   -1.3420   -3.6730   -2.8180 H   0  0  0  0  0  0  0  0  0  0  0  0
   -1.5500   -1.0160   -1.4060 H   0  0  0  0  0  0  0  0  0  0  0  0
  1 13  1  0  0  0  0
  1 12  1  0  0  0  0
  2  1  1  0  0  0  0
  3  2  2  0  0  0  0
  3 14  1  0  0  0  0
  4  2  1  0  0  0  0
  5  4  1  0  0  0  0
  5 17  1  0  0  0  0
  6  5  1  0  0  0  0
  6 18  1  0  0  0  0
  7  6  1  0  0  0  0
  8 22  1  6  0  0  0
  8  7  1  0  0  0  0
  8  9  1  0  0  0  0
  9 24  1  0  0  0  0
 10 29  1  0  0  0  0
 10  8  1  0  0  0  0
 11 10  2  0  0  0  0
 15  4  1  0  0  0  0
 16  5  1  0  0  0  0
 19  6  1  0  0  0  0
 20  7  1  0  0  0  0
 21  7  1  0  0  0  0
 23  9  1  0  0  0  0
 25 26  1  0  0  0  0
 25 32  1  0  0  0  0
 26 35  1  0  0  0  0
 26 27  1  0  0  0  0
 27 37  1  0  0  0  0
 27 38  1  0  0  0  0
 28 39  1  6  0  0  0
 28 29  1  0  0  0  0
 28 26  1  0  0  0  0
 29 40  1  0  0  0  0
 30 28  1  0  0  0  0
 31 30  2  0  0  0  0
 33 25  1  0  0  0  0
 34 25  1  0  0  0  0
 36 27  1  0  0  0  0
 41 50  1  0  0  0  0
 42 41  1  0  0  0  0
 43 42  2  0  0  0  0
 44 42  1  0  0  0  0
 44 53  1  0  0  0  0
 45 54  1  6  0  0  0
 45 44  1  0  0  0  0
 45 46  1  0  0  0  0
 46 55  1  0  0  0  0
 46 30  1  0  0  0  0
 47 45  1  0  0  0  0
 48 47  2  0  0  0  0
 49 47  1  0  0  0  0
 51 41  1  0  0  0  0
 52 44  1  0  0  0  0
M  END
$$$$
