RVP.pdb
 OpenBabel07022418073D

 55 55  0  0  1  0  0  0  0  0999 V2000
    1.4090   -4.4590    3.5310 N   0  0  0  0  0  0  0  0  0  0  0  0
    1.9620   -3.2090    3.1170 C   0  0  0  0  0  0  0  0  0  0  0  0
    1.3460   -2.1440    3.4990 N   0  0  0  0  0  0  0  0  0  0  0  0
    3.1280   -3.1900    2.3300 N   0  0  0  0  0  0  0  0  0  0  0  0
    3.4930   -1.9990    1.5460 C   0  0  0  0  0  0  0  0  0  0  0  0
    2.4760   -1.8780    0.4590 C   0  0  0  0  0  0  0  0  0  0  0  0
    2.6770   -0.7430   -0.4920 C   0  0  0  0  0  0  0  0  0  0  0  0
    2.6570    0.6290    0.1160 C   0  0  2  0  0  0  0  0  0  0  0  0
    3.6900    0.7630    1.0830 N   0  0  0  0  0  0  0  0  0  0  0  0
    1.3190    0.9130    0.7010 C   0  0  0  0  0  0  0  0  0  0  0  0
    1.2660    1.1760    1.9540 O   0  0  0  0  0  0  0  0  0  0  0  0
    0.9070   -5.0790    2.8750 H   0  0  0  0  0  0  0  0  0  0  0  0
    1.5080   -4.7710    4.5290 H   0  0  0  0  0  0  0  0  0  0  0  0
    1.6480   -1.1880    3.2640 H   0  0  0  0  0  0  0  0  0  0  0  0
    3.7560   -4.0040    2.2800 H   0  0  0  0  0  0  0  0  0  0  0  0
    3.4280   -1.1720    2.3010 H   0  0  0  0  0  0  0  0  0  0  0  0
    4.5260   -2.1110    1.1620 H   0  0  0  0  0  0  0  0  0  0  0  0
    2.4080   -2.8190   -0.1440 H   0  0  0  0  0  0  0  0  0  0  0  0
    1.4630   -1.8240    0.9600 H   0  0  0  0  0  0  0  0  0  0  0  0
    3.6760   -0.8900   -0.9990 H   0  0  0  0  0  0  0  0  0  0  0  0
    1.8760   -0.7410   -1.2770 H   0  0  0  0  0  0  0  0  0  0  0  0
    2.8930    1.3750   -0.6990 H   0  0  0  0  0  0  0  0  0  0  0  0
    4.6080    1.0710    0.7000 H   0  0  0  0  0  0  0  0  0  0  0  0
    3.4570    1.3170    1.9120 H   0  0  0  0  0  0  0  0  0  0  0  0
   -1.9000    2.5060   -1.4670 C   0  0  0  0  0  0  0  0  0  0  0  0
   -1.6990    2.5130    0.0130 C   0  0  0  0  0  0  0  0  0  0  0  0
   -0.7660    3.6510    0.3660 C   0  0  0  0  0  0  0  0  0  0  0  0
   -1.1190    1.1750    0.5190 C   0  0  2  0  0  0  0  0  0  0  0  0
    0.1320    0.9010   -0.0700 N   0  0  0  0  0  0  0  0  0  0  0  0
   -2.1980    0.2130    0.4420 C   0  0  0  0  0  0  0  0  0  0  0  0
   -3.2700    0.6580    1.0190 O   0  0  0  0  0  0  0  0  0  0  0  0
   -2.5370    3.3850   -1.7140 H   0  0  0  0  0  0  0  0  0  0  0  0
   -0.9650    2.6320   -2.0440 H   0  0  0  0  0  0  0  0  0  0  0  0
   -2.4800    1.6200   -1.7830 H   0  0  0  0  0  0  0  0  0  0  0  0
   -2.6680    2.7180    0.4990 H   0  0  0  0  0  0  0  0  0  0  0  0
    0.1040    3.7020   -0.3290 H   0  0  0  0  0  0  0  0  0  0  0  0
   -1.3210    4.6110    0.4380 H   0  0  0  0  0  0  0  0  0  0  0  0
   -0.3660    3.4280    1.3850 H   0  0  0  0  0  0  0  0  0  0  0  0
   -0.9940    1.3850    1.6340 H   0  0  0  0  0  0  0  0  0  0  0  0
    0.2170    0.6970   -1.0750 H   0  0  0  0  0  0  0  0  0  0  0  0
   -2.2600   -1.0680   -0.1340 N   0  0  0  0  0  0  0  0  0  0  0  0
   -1.3330   -1.8980   -0.8250 C   0  0  0  0  0  0  0  0  0  0  0  0
   -2.1100   -2.2080   -2.0920 C   0  0  0  0  0  0  0  0  0  0  0  0
   -3.5140   -2.3900   -1.5560 C   0  0  0  0  0  0  0  0  0  0  0  0
   -3.4720   -1.8920   -0.1320 C   0  0  1  0  0  0  0  0  0  0  0  0
   -3.4070   -2.9860    0.8470 C   0  0  0  0  0  0  0  0  0  0  0  0
   -2.4580   -3.0860    1.6470 O   0  0  0  0  0  0  0  0  0  0  0  0
   -4.4190   -3.9250    0.8840 O   0  0  0  0  0  0  0  0  0  0  0  0
   -1.2710   -2.8830   -0.2790 H   0  0  0  0  0  0  0  0  0  0  0  0
   -0.3310   -1.5690   -0.9740 H   0  0  0  0  0  0  0  0  0  0  0  0
   -2.0730   -1.2800   -2.7170 H   0  0  0  0  0  0  0  0  0  0  0  0
   -1.7350   -3.0720   -2.6410 H   0  0  0  0  0  0  0  0  0  0  0  0
   -4.2610   -1.8040   -2.1360 H   0  0  0  0  0  0  0  0  0  0  0  0
   -3.8390   -3.4500   -1.5950 H   0  0  0  0  0  0  0  0  0  0  0  0
   -4.3680   -1.2330    0.0700 H   0  0  0  0  0  0  0  0  0  0  0  0
  1 13  1  0  0  0  0
  2  3  2  0  0  0  0
  2  1  1  0  0  0  0
  4  2  1  0  0  0  0
  5 16  1  0  0  0  0
  5  4  1  0  0  0  0
  6 19  1  0  0  0  0
  6  5  1  0  0  0  0
  7  8  1  0  0  0  0
  7  6  1  0  0  0  0
  8 22  1  6  0  0  0
  8 10  1  0  0  0  0
  8  9  1  0  0  0  0
  9 24  1  0  0  0  0
 10 11  2  0  0  0  0
 12  1  1  0  0  0  0
 14  3  1  0  0  0  0
 15  4  1  0  0  0  0
 17  5  1  0  0  0  0
 18  6  1  0  0  0  0
 20  7  1  0  0  0  0
 21  7  1  0  0  0  0
 23  9  1  0  0  0  0
 25 26  1  0  0  0  0
 26 27  1  0  0  0  0
 26 35  1  0  0  0  0
 26 28  1  0  0  0  0
 27 37  1  0  0  0  0
 27 38  1  0  0  0  0
 28 39  1  1  0  0  0
 29 28  1  0  0  0  0
 29 10  1  0  0  0  0
 30 28  1  0  0  0  0
 30 31  2  0  0  0  0
 32 25  1  0  0  0  0
 33 25  1  0  0  0  0
 34 25  1  0  0  0  0
 36 27  1  0  0  0  0
 40 29  1  0  0  0  0
 41 45  1  0  0  0  0
 41 30  1  0  0  0  0
 42 49  1  0  0  0  0
 42 41  1  0  0  0  0
 43 44  1  0  0  0  0
 43 42  1  0  0  0  0
 44 45  1  0  0  0  0
 45 55  1  1  0  0  0
 45 46  1  0  0  0  0
 46 48  2  0  0  0  0
 46 47  1  0  0  0  0
 50 42  1  0  0  0  0
 51 43  1  0  0  0  0
 52 43  1  0  0  0  0
 53 44  1  0  0  0  0
 54 44  1  0  0  0  0
M  END
$$$$
