RVQ.pdb
 OpenBabel07022418073D

 58 57  0  0  1  0  0  0  0  0999 V2000
    1.3720    1.5850    6.3590 N   0  0  0  0  0  0  0  0  0  0  0  0
    1.8090    1.8910    5.0480 C   0  0  0  0  0  0  0  0  0  0  0  0
    0.9510    2.1360    4.0860 N   0  0  0  0  0  0  0  0  0  0  0  0
    3.1720    1.9590    4.6800 N   0  0  0  0  0  0  0  0  0  0  0  0
    3.6550    1.4520    3.4210 C   0  0  0  0  0  0  0  0  0  0  0  0
    3.5610   -0.0340    3.3920 C   0  0  0  0  0  0  0  0  0  0  0  0
    4.0500   -0.6950    2.1630 C   0  0  0  0  0  0  0  0  0  0  0  0
    3.3810   -0.3700    0.8770 C   0  0  2  0  0  0  0  0  0  0  0  0
    3.3990    0.9870    0.4700 N   0  0  0  0  0  0  0  0  0  0  0  0
    2.0840   -1.0760    0.7420 C   0  0  0  0  0  0  0  0  0  0  0  0
    2.0430   -2.2410    1.2070 O   0  0  0  0  0  0  0  0  0  0  0  0
    0.7090    2.2260    6.8260 H   0  0  0  0  0  0  0  0  0  0  0  0
    1.6960    0.7450    6.8620 H   0  0  0  0  0  0  0  0  0  0  0  0
   -0.0470    2.0940    4.3330 H   0  0  0  0  0  0  0  0  0  0  0  0
    3.8350    2.4040    5.3840 H   0  0  0  0  0  0  0  0  0  0  0  0
    3.1750    1.9820    2.5930 H   0  0  0  0  0  0  0  0  0  0  0  0
    4.7530    1.7050    3.3460 H   0  0  0  0  0  0  0  0  0  0  0  0
    4.2110   -0.4020    4.2420 H   0  0  0  0  0  0  0  0  0  0  0  0
    2.5450   -0.4110    3.6710 H   0  0  0  0  0  0  0  0  0  0  0  0
    3.9080   -1.8120    2.3110 H   0  0  0  0  0  0  0  0  0  0  0  0
    5.1570   -0.6040    2.0230 H   0  0  0  0  0  0  0  0  0  0  0  0
    4.0350   -0.9080    0.0860 H   0  0  0  0  0  0  0  0  0  0  0  0
    2.5100    1.4750    0.3600 H   0  0  0  0  0  0  0  0  0  0  0  0
    4.0100    1.2110   -0.3450 H   0  0  0  0  0  0  0  0  0  0  0  0
   -0.8850   -0.4390    2.2520 C   0  0  0  0  0  0  0  0  0  0  0  0
   -1.4030   -0.7300    0.8060 C   0  0  0  0  0  0  0  0  0  0  0  0
   -2.5560   -1.7050    1.0880 C   0  0  0  0  0  0  0  0  0  0  0  0
   -0.2800   -1.4160    0.0980 C   0  0  2  0  0  0  0  0  0  0  0  0
    0.9280   -0.5430    0.1430 N   0  0  0  0  0  0  0  0  0  0  0  0
   -0.5300   -1.7440   -1.3340 C   0  0  0  0  0  0  0  0  0  0  0  0
    0.2960   -1.2760   -2.1800 O   0  0  0  0  0  0  0  0  0  0  0  0
   -1.7850   -0.2610    2.8750 H   0  0  0  0  0  0  0  0  0  0  0  0
   -0.3740   -1.3280    2.6530 H   0  0  0  0  0  0  0  0  0  0  0  0
   -0.2810    0.4640    2.2470 H   0  0  0  0  0  0  0  0  0  0  0  0
   -1.7280    0.2030    0.3620 H   0  0  0  0  0  0  0  0  0  0  0  0
   -2.1850   -2.7270    1.1890 H   0  0  0  0  0  0  0  0  0  0  0  0
   -3.4040   -1.5920    0.4240 H   0  0  0  0  0  0  0  0  0  0  0  0
   -2.9790   -1.4740    2.1290 H   0  0  0  0  0  0  0  0  0  0  0  0
   -0.0540   -2.3620    0.6080 H   0  0  0  0  0  0  0  0  0  0  0  0
    0.9090    0.4160   -0.2560 H   0  0  0  0  0  0  0  0  0  0  0  0
   -5.5470   -0.9630   -1.8940 N   0  0  0  0  0  0  0  0  0  0  0  0
   -4.2660   -0.9940   -2.4980 C   0  0  0  0  0  0  0  0  0  0  0  0
   -3.3330   -0.3680   -1.9580 O   0  0  0  0  0  0  0  0  0  0  0  0
   -4.0370   -1.7400   -3.7320 C   0  0  0  0  0  0  0  0  0  0  0  0
   -2.6240   -2.0230   -4.0910 C   0  0  0  0  0  0  0  0  0  0  0  0
   -1.8200   -2.8680   -3.2110 C   0  0  2  0  0  0  0  0  0  0  0  0
   -1.5770   -2.5180   -1.8620 N   0  0  0  0  0  0  0  0  0  0  0  0
   -0.5830   -3.2720   -3.9800 C   0  0  0  0  0  0  0  0  0  0  0  0
   -0.7190   -3.4970   -5.2090 O   0  0  0  0  0  0  0  0  0  0  0  0
    0.6640   -3.4110   -3.4280 O   0  0  0  0  0  0  0  0  0  0  0  0
   -5.6960   -1.4640   -1.0070 H   0  0  0  0  0  0  0  0  0  0  0  0
   -6.3250   -0.4310   -2.3560 H   0  0  0  0  0  0  0  0  0  0  0  0
   -4.4940   -1.2190   -4.6320 H   0  0  0  0  0  0  0  0  0  0  0  0
   -4.6530   -2.6880   -3.6630 H   0  0  0  0  0  0  0  0  0  0  0  0
   -2.0730   -1.0700   -4.3730 H   0  0  0  0  0  0  0  0  0  0  0  0
   -2.6700   -2.5550   -5.0990 H   0  0  0  0  0  0  0  0  0  0  0  0
   -2.3520   -3.9020   -3.1660 H   0  0  0  0  0  0  0  0  0  0  0  0
   -2.2620   -2.8820   -1.1210 H   0  0  0  0  0  0  0  0  0  0  0  0
  1 12  1  0  0  0  0
  1 13  1  0  0  0  0
  2  1  1  0  0  0  0
  3 14  1  0  0  0  0
  3  2  2  0  0  0  0
  4  2  1  0  0  0  0
  4 15  1  0  0  0  0
  5  4  1  0  0  0  0
  6  5  1  0  0  0  0
  6 19  1  0  0  0  0
  6 18  1  0  0  0  0
  7 20  1  0  0  0  0
  7  6  1  0  0  0  0
  8 22  1  6  0  0  0
  8  7  1  0  0  0  0
  9  8  1  0  0  0  0
 10  8  1  0  0  0  0
 10 11  2  0  0  0  0
 16  5  1  0  0  0  0
 17  5  1  0  0  0  0
 21  7  1  0  0  0  0
 23  9  1  0  0  0  0
 24  9  1  0  0  0  0
 25 33  1  0  0  0  0
 25 32  1  0  0  0  0
 26 27  1  0  0  0  0
 26 25  1  0  0  0  0
 27 36  1  0  0  0  0
 27 38  1  0  0  0  0
 28 29  1  0  0  0  0
 28 39  1  1  0  0  0
 28 26  1  0  0  0  0
 29 10  1  0  0  0  0
 30 28  1  0  0  0  0
 31 30  2  0  0  0  0
 34 25  1  0  0  0  0
 35 26  1  0  0  0  0
 37 27  1  0  0  0  0
 40 29  1  0  0  0  0
 41 51  1  0  0  0  0
 42 43  2  0  0  0  0
 42 41  1  0  0  0  0
 44 54  1  0  0  0  0
 44 42  1  0  0  0  0
 45 44  1  0  0  0  0
 45 46  1  0  0  0  0
 46 57  1  1  0  0  0
 46 47  1  0  0  0  0
 47 30  1  0  0  0  0
 47 58  1  0  0  0  0
 48 50  1  0  0  0  0
 48 46  1  0  0  0  0
 49 48  2  0  0  0  0
 52 41  1  0  0  0  0
 53 44  1  0  0  0  0
 55 45  1  0  0  0  0
 56 45  1  0  0  0  0
M  END
$$$$
