RVR.pdb
 OpenBabel07022418073D

 64 63  0  0  1  0  0  0  0  0999 V2000
   -0.9540    1.0240    6.8440 N   0  0  0  0  0  0  0  0  0  0  0  0
    0.0770    1.5010    5.9870 C   0  0  0  0  0  0  0  0  0  0  0  0
    1.0110    2.2610    6.4020 N   0  0  0  0  0  0  0  0  0  0  0  0
    0.0280    1.0890    4.6190 N   0  0  0  0  0  0  0  0  0  0  0  0
    1.2010    1.0730    3.8080 C   0  0  0  0  0  0  0  0  0  0  0  0
    2.2420    0.0860    4.1590 C   0  0  0  0  0  0  0  0  0  0  0  0
    1.9220   -1.3510    4.1260 C   0  0  0  0  0  0  0  0  0  0  0  0
    1.5180   -1.9410    2.8140 C   0  0  2  0  0  0  0  0  0  0  0  0
    2.5260   -1.7780    1.7940 N   0  0  0  0  0  0  0  0  0  0  0  0
    0.1650   -1.5160    2.4380 C   0  0  0  0  0  0  0  0  0  0  0  0
   -0.7280   -1.6900    3.3150 O   0  0  0  0  0  0  0  0  0  0  0  0
   -1.2120    0.0090    6.9290 H   0  0  0  0  0  0  0  0  0  0  0  0
   -1.4910    1.7010    7.4220 H   0  0  0  0  0  0  0  0  0  0  0  0
    1.1190    2.6010    7.3680 H   0  0  0  0  0  0  0  0  0  0  0  0
   -0.9000    0.8150    4.2470 H   0  0  0  0  0  0  0  0  0  0  0  0
    1.6770    2.1030    3.9190 H   0  0  0  0  0  0  0  0  0  0  0  0
    0.9470    1.0330    2.7290 H   0  0  0  0  0  0  0  0  0  0  0  0
    3.1060    0.2430    3.4390 H   0  0  0  0  0  0  0  0  0  0  0  0
    2.6980    0.3140    5.1590 H   0  0  0  0  0  0  0  0  0  0  0  0
    2.8110   -1.9660    4.4800 H   0  0  0  0  0  0  0  0  0  0  0  0
    1.1350   -1.6360    4.8970 H   0  0  0  0  0  0  0  0  0  0  0  0
    1.4410   -3.0860    2.9450 H   0  0  0  0  0  0  0  0  0  0  0  0
    2.2010   -2.2540    0.9340 H   0  0  0  0  0  0  0  0  0  0  0  0
    3.3690   -2.3010    2.1200 H   0  0  0  0  0  0  0  0  0  0  0  0
   -3.1030    1.2310    0.4120 C   0  0  0  0  0  0  0  0  0  0  0  0
   -1.6610    0.9250    0.6960 C   0  0  0  0  0  0  0  0  0  0  0  0
   -0.7160    1.4870   -0.3090 C   0  0  0  0  0  0  0  0  0  0  0  0
   -1.5240   -0.5630    0.9090 C   0  0  2  0  0  0  0  0  0  0  0  0
   -0.1600   -0.9490    1.1900 N   0  0  0  0  0  0  0  0  0  0  0  0
   -2.0500   -1.3360   -0.2440 C   0  0  0  0  0  0  0  0  0  0  0  0
   -3.2120   -1.1570   -0.6760 O   0  0  0  0  0  0  0  0  0  0  0  0
   -3.3310    2.2600    0.7860 H   0  0  0  0  0  0  0  0  0  0  0  0
   -3.7250    0.5570    1.0520 H   0  0  0  0  0  0  0  0  0  0  0  0
   -3.3750    1.1750   -0.6450 H   0  0  0  0  0  0  0  0  0  0  0  0
   -1.4250    1.4000    1.6880 H   0  0  0  0  0  0  0  0  0  0  0  0
   -1.3080    2.1070   -1.0330 H   0  0  0  0  0  0  0  0  0  0  0  0
   -0.1240    0.7550   -0.8550 H   0  0  0  0  0  0  0  0  0  0  0  0
    0.0050    2.2240    0.1520 H   0  0  0  0  0  0  0  0  0  0  0  0
   -2.1340   -0.8000    1.8030 H   0  0  0  0  0  0  0  0  0  0  0  0
    0.6090   -0.8230    0.4940 H   0  0  0  0  0  0  0  0  0  0  0  0
    0.5910    2.3850   -4.2540 N   0  0  0  0  0  0  0  0  0  0  0  0
    0.9320    1.0080   -4.2350 C   0  0  0  0  0  0  0  0  0  0  0  0
    1.8170    0.5990   -3.3740 N   0  0  0  0  0  0  0  0  0  0  0  0
    0.3670    0.0560   -5.0980 N   0  0  0  0  0  0  0  0  0  0  0  0
    0.3290   -1.3520   -4.7530 C   0  0  0  0  0  0  0  0  0  0  0  0
   -0.6410   -1.4900   -3.5800 C   0  0  0  0  0  0  0  0  0  0  0  0
   -0.7410   -2.9450   -3.1510 C   0  0  0  0  0  0  0  0  0  0  0  0
   -1.6890   -3.0840   -2.0040 C   0  0  2  0  0  0  0  0  0  0  0  0
   -1.2350   -2.3050   -0.8850 N   0  0  0  0  0  0  0  0  0  0  0  0
   -1.7980   -4.5320   -1.6650 C   0  0  0  0  0  0  0  0  0  0  0  0
   -1.5000   -4.9020   -0.5020 O   0  0  0  0  0  0  0  0  0  0  0  0
   -2.2100   -5.4850   -2.5680 O   0  0  0  0  0  0  0  0  0  0  0  0
    0.5570    2.8930   -3.3460 H   0  0  0  0  0  0  0  0  0  0  0  0
    0.3750    2.9090   -5.1130 H   0  0  0  0  0  0  0  0  0  0  0  0
    2.1390   -0.3660   -3.2710 H   0  0  0  0  0  0  0  0  0  0  0  0
   -0.0300    0.4080   -6.0090 H   0  0  0  0  0  0  0  0  0  0  0  0
   -0.0960   -1.9580   -5.5840 H   0  0  0  0  0  0  0  0  0  0  0  0
    1.3170   -1.7530   -4.5200 H   0  0  0  0  0  0  0  0  0  0  0  0
   -1.6250   -1.1100   -3.9110 H   0  0  0  0  0  0  0  0  0  0  0  0
   -0.2730   -0.8750   -2.7370 H   0  0  0  0  0  0  0  0  0  0  0  0
   -1.0720   -3.5090   -4.0550 H   0  0  0  0  0  0  0  0  0  0  0  0
    0.2630   -3.3390   -2.8960 H   0  0  0  0  0  0  0  0  0  0  0  0
   -2.7130   -2.7550   -2.2580 H   0  0  0  0  0  0  0  0  0  0  0  0
   -0.2690   -2.4460   -0.5160 H   0  0  0  0  0  0  0  0  0  0  0  0
  1 12  1  0  0  0  0
  1 13  1  0  0  0  0
  2  3  2  0  0  0  0
  2  1  1  0  0  0  0
  3 14  1  0  0  0  0
  4  2  1  0  0  0  0
  5 16  1  0  0  0  0
  5  6  1  0  0  0  0
  5  4  1  0  0  0  0
  6 19  1  0  0  0  0
  7  6  1  0  0  0  0
  7 20  1  0  0  0  0
  7 21  1  0  0  0  0
  8 22  1  1  0  0  0
  8  7  1  0  0  0  0
  9 24  1  0  0  0  0
  9  8  1  0  0  0  0
 10  8  1  0  0  0  0
 10 11  2  0  0  0  0
 15  4  1  0  0  0  0
 17  5  1  0  0  0  0
 18  6  1  0  0  0  0
 23  9  1  0  0  0  0
 25 26  1  0  0  0  0
 25 32  1  0  0  0  0
 25 33  1  0  0  0  0
 26 28  1  0  0  0  0
 26 35  1  0  0  0  0
 27 38  1  0  0  0  0
 27 26  1  0  0  0  0
 28 29  1  0  0  0  0
 28 39  1  1  0  0  0
 29 10  1  0  0  0  0
 30 28  1  0  0  0  0
 31 30  2  0  0  0  0
 34 25  1  0  0  0  0
 36 27  1  0  0  0  0
 37 27  1  0  0  0  0
 40 29  1  0  0  0  0
 41 42  1  0  0  0  0
 41 53  1  0  0  0  0
 42 43  2  0  0  0  0
 43 55  1  0  0  0  0
 44 45  1  0  0  0  0
 44 42  1  0  0  0  0
 45 58  1  0  0  0  0
 45 46  1  0  0  0  0
 46 47  1  0  0  0  0
 46 60  1  0  0  0  0
 47 62  1  0  0  0  0
 47 48  1  0  0  0  0
 48 63  1  6  0  0  0
 48 50  1  0  0  0  0
 48 49  1  0  0  0  0
 49 64  1  0  0  0  0
 49 30  1  0  0  0  0
 50 51  1  0  0  0  0
 52 50  2  0  0  0  0
 54 41  1  0  0  0  0
 56 44  1  0  0  0  0
 57 45  1  0  0  0  0
 59 46  1  0  0  0  0
 61 47  1  0  0  0  0
M  END
$$$$
