RVS.pdb
 OpenBabel07022418073D

 52 51  0  0  1  0  0  0  0  0999 V2000
    5.2670   -4.6430    4.6460 N   0  0  0  0  0  0  0  0  0  0  0  0
    5.3220   -3.5800    3.6920 C   0  0  0  0  0  0  0  0  0  0  0  0
    6.2910   -2.7250    3.6570 N   0  0  0  0  0  0  0  0  0  0  0  0
    4.2740   -3.4470    2.7360 N   0  0  0  0  0  0  0  0  0  0  0  0
    4.2850   -2.3830    1.7550 C   0  0  0  0  0  0  0  0  0  0  0  0
    3.0210   -2.5400    0.8990 C   0  0  0  0  0  0  0  0  0  0  0  0
    2.9500   -1.4760   -0.1480 C   0  0  0  0  0  0  0  0  0  0  0  0
    1.7370   -1.5580   -1.0420 C   0  0  2  0  0  0  0  0  0  0  0  0
    1.8820   -0.4290   -1.9800 N   0  0  0  0  0  0  0  0  0  0  0  0
    0.5020   -1.3380   -0.2060 C   0  0  0  0  0  0  0  0  0  0  0  0
    0.1290   -2.1950    0.6330 O   0  0  0  0  0  0  0  0  0  0  0  0
    4.6900   -4.5530    5.5280 H   0  0  0  0  0  0  0  0  0  0  0  0
    5.7840   -5.5410    4.5210 H   0  0  0  0  0  0  0  0  0  0  0  0
    7.0780   -2.7970    4.3480 H   0  0  0  0  0  0  0  0  0  0  0  0
    3.4940   -4.1630    2.7840 H   0  0  0  0  0  0  0  0  0  0  0  0
    5.1960   -2.5280    1.1190 H   0  0  0  0  0  0  0  0  0  0  0  0
    4.3010   -1.3960    2.2500 H   0  0  0  0  0  0  0  0  0  0  0  0
    3.0490   -3.5570    0.4570 H   0  0  0  0  0  0  0  0  0  0  0  0
    2.1900   -2.5300    1.6300 H   0  0  0  0  0  0  0  0  0  0  0  0
    2.9620   -0.4750    0.3540 H   0  0  0  0  0  0  0  0  0  0  0  0
    3.8910   -1.5270   -0.7320 H   0  0  0  0  0  0  0  0  0  0  0  0
    1.6880   -2.4810   -1.6150 H   0  0  0  0  0  0  0  0  0  0  0  0
    1.0180   -0.2970   -2.5440 H   0  0  0  0  0  0  0  0  0  0  0  0
    2.1100    0.3980   -1.3930 H   0  0  0  0  0  0  0  0  0  0  0  0
   -2.3730    1.4600    2.3370 C   0  0  0  0  0  0  0  0  0  0  0  0
   -1.2420    1.1620    1.4270 C   0  0  0  0  0  0  0  0  0  0  0  0
   -0.7620    2.4030    0.7220 C   0  0  0  0  0  0  0  0  0  0  0  0
   -1.4870    0.0090    0.5110 C   0  0  2  0  0  0  0  0  0  0  0  0
   -0.2790   -0.1800   -0.3230 N   0  0  0  0  0  0  0  0  0  0  0  0
   -2.6760    0.1210   -0.3620 C   0  0  0  0  0  0  0  0  0  0  0  0
   -2.4610    0.2470   -1.6270 O   0  0  0  0  0  0  0  0  0  0  0  0
   -3.2050    1.9860    1.8650 H   0  0  0  0  0  0  0  0  0  0  0  0
   -2.0330    2.1700    3.1740 H   0  0  0  0  0  0  0  0  0  0  0  0
   -2.6960    0.5690    2.9120 H   0  0  0  0  0  0  0  0  0  0  0  0
   -0.3870    0.8260    2.0930 H   0  0  0  0  0  0  0  0  0  0  0  0
    0.3450    2.4010    0.7240 H   0  0  0  0  0  0  0  0  0  0  0  0
   -1.0610    2.4150   -0.3440 H   0  0  0  0  0  0  0  0  0  0  0  0
   -1.0950    3.2720    1.2970 H   0  0  0  0  0  0  0  0  0  0  0  0
   -1.5840   -0.8920    1.1220 H   0  0  0  0  0  0  0  0  0  0  0  0
   -0.0590    0.5810   -0.9780 H   0  0  0  0  0  0  0  0  0  0  0  0
   -4.2510    2.1200   -1.8250 O   0  0  0  0  0  0  0  0  0  0  0  0
   -5.3140    1.6220   -1.0900 C   0  0  0  0  0  0  0  0  0  0  0  0
   -5.1390    0.1950   -0.6520 C   0  0  2  0  0  0  0  0  0  0  0  0
   -3.9710    0.0880    0.1730 N   0  0  0  0  0  0  0  0  0  0  0  0
   -5.0920   -0.7450   -1.8020 C   0  0  0  0  0  0  0  0  0  0  0  0
   -5.9890   -0.7330   -2.6890 O   0  0  0  0  0  0  0  0  0  0  0  0
   -4.0800   -1.6640   -1.9490 O   0  0  0  0  0  0  0  0  0  0  0  0
   -4.4610    1.9550   -2.7900 H   0  0  0  0  0  0  0  0  0  0  0  0
   -6.2700    1.7590   -1.6690 H   0  0  0  0  0  0  0  0  0  0  0  0
   -5.4380    2.3100   -0.2180 H   0  0  0  0  0  0  0  0  0  0  0  0
   -6.0630   -0.1430   -0.0780 H   0  0  0  0  0  0  0  0  0  0  0  0
   -4.1310   -0.0340    1.1920 H   0  0  0  0  0  0  0  0  0  0  0  0
  1 12  1  0  0  0  0
  2  1  1  0  0  0  0
  3  2  2  0  0  0  0
  3 14  1  0  0  0  0
  4 15  1  0  0  0  0
  4  2  1  0  0  0  0
  5 17  1  0  0  0  0
  5  4  1  0  0  0  0
  6 19  1  0  0  0  0
  6  5  1  0  0  0  0
  7 20  1  0  0  0  0
  7  6  1  0  0  0  0
  8 22  1  6  0  0  0
  8 10  1  0  0  0  0
  8  7  1  0  0  0  0
  9 24  1  0  0  0  0
  9  8  1  0  0  0  0
 10 11  2  0  0  0  0
 13  1  1  0  0  0  0
 16  5  1  0  0  0  0
 18  6  1  0  0  0  0
 21  7  1  0  0  0  0
 23  9  1  0  0  0  0
 25 34  1  0  0  0  0
 25 33  1  0  0  0  0
 26 35  1  0  0  0  0
 26 25  1  0  0  0  0
 27 36  1  0  0  0  0
 27 38  1  0  0  0  0
 27 26  1  0  0  0  0
 28 39  1  1  0  0  0
 28 26  1  0  0  0  0
 29 10  1  0  0  0  0
 29 28  1  0  0  0  0
 30 44  1  0  0  0  0
 30 28  1  0  0  0  0
 31 30  2  0  0  0  0
 32 25  1  0  0  0  0
 37 27  1  0  0  0  0
 40 29  1  0  0  0  0
 41 42  1  0  0  0  0
 42 43  1  0  0  0  0
 42 50  1  0  0  0  0
 43 51  1  1  0  0  0
 43 44  1  0  0  0  0
 44 52  1  0  0  0  0
 45 43  1  0  0  0  0
 46 45  2  0  0  0  0
 47 45  1  0  0  0  0
 48 41  1  0  0  0  0
 49 42  1  0  0  0  0
M  END
$$$$
