RVT.pdb
 OpenBabel07022418073D

 55 54  0  0  1  0  0  0  0  0999 V2000
    7.5750   -1.7460    0.6610 N   0  0  0  0  0  0  0  0  0  0  0  0
    6.2120   -1.9710    0.9910 C   0  0  0  0  0  0  0  0  0  0  0  0
    5.9670   -2.8760    1.8670 N   0  0  0  0  0  0  0  0  0  0  0  0
    5.1800   -1.2200    0.3720 N   0  0  0  0  0  0  0  0  0  0  0  0
    3.8380   -1.7560    0.3250 C   0  0  0  0  0  0  0  0  0  0  0  0
    2.9170   -0.7980   -0.3720 C   0  0  0  0  0  0  0  0  0  0  0  0
    2.7920    0.5420    0.2410 C   0  0  0  0  0  0  0  0  0  0  0  0
    2.2840    0.5910    1.6380 C   0  0  2  0  0  0  0  0  0  0  0  0
    3.1670   -0.1490    2.5080 N   0  0  0  0  0  0  0  0  0  0  0  0
    0.9060    0.1210    1.8170 C   0  0  0  0  0  0  0  0  0  0  0  0
    0.6730   -0.8090    2.6290 O   0  0  0  0  0  0  0  0  0  0  0  0
    7.9320   -1.9400   -0.2900 H   0  0  0  0  0  0  0  0  0  0  0  0
    8.2350   -1.3820    1.3780 H   0  0  0  0  0  0  0  0  0  0  0  0
    5.0090   -3.1210    2.1820 H   0  0  0  0  0  0  0  0  0  0  0  0
    5.4270   -0.2960   -0.0330 H   0  0  0  0  0  0  0  0  0  0  0  0
    3.9110   -2.6560   -0.3580 H   0  0  0  0  0  0  0  0  0  0  0  0
    3.4670   -2.1470    1.2750 H   0  0  0  0  0  0  0  0  0  0  0  0
    3.3570   -0.6410   -1.4030 H   0  0  0  0  0  0  0  0  0  0  0  0
    1.9160   -1.2440   -0.5770 H   0  0  0  0  0  0  0  0  0  0  0  0
    2.1990    1.1800   -0.4450 H   0  0  0  0  0  0  0  0  0  0  0  0
    3.8200    1.0090    0.2460 H   0  0  0  0  0  0  0  0  0  0  0  0
    2.3170    1.6550    1.9710 H   0  0  0  0  0  0  0  0  0  0  0  0
    2.8020   -0.2390    3.4810 H   0  0  0  0  0  0  0  0  0  0  0  0
    4.1110    0.2860    2.5910 H   0  0  0  0  0  0  0  0  0  0  0  0
   -1.7820    1.7430    3.2520 C   0  0  0  0  0  0  0  0  0  0  0  0
   -2.4130    1.1890    1.9800 C   0  0  0  0  0  0  0  0  0  0  0  0
   -3.7700    0.6610    2.3810 C   0  0  0  0  0  0  0  0  0  0  0  0
   -1.5540    0.0800    1.4000 C   0  0  2  0  0  0  0  0  0  0  0  0
   -0.2080    0.6550    1.1190 N   0  0  0  0  0  0  0  0  0  0  0  0
   -2.1260   -0.3120    0.0980 C   0  0  0  0  0  0  0  0  0  0  0  0
   -1.4960    0.0620   -0.9510 O   0  0  0  0  0  0  0  0  0  0  0  0
   -2.3460    2.6580    3.5210 H   0  0  0  0  0  0  0  0  0  0  0  0
   -1.8910    0.9780    4.0520 H   0  0  0  0  0  0  0  0  0  0  0  0
   -0.7250    1.9460    3.0840 H   0  0  0  0  0  0  0  0  0  0  0  0
   -2.5620    2.0270    1.2780 H   0  0  0  0  0  0  0  0  0  0  0  0
   -4.2080    1.2970    3.2010 H   0  0  0  0  0  0  0  0  0  0  0  0
   -3.6610   -0.3780    2.7510 H   0  0  0  0  0  0  0  0  0  0  0  0
   -4.4950    0.6460    1.5440 H   0  0  0  0  0  0  0  0  0  0  0  0
   -1.4760   -0.7120    2.1310 H   0  0  0  0  0  0  0  0  0  0  0  0
   -0.0970    1.4190    0.4380 H   0  0  0  0  0  0  0  0  0  0  0  0
   -4.1850   -3.1530   -3.1320 C   0  0  0  0  0  0  0  0  0  0  0  0
   -3.7300   -2.8680   -1.7200 C   0  0  1  0  0  0  0  0  0  0  0  0
   -2.4350   -3.3290   -1.5760 O   0  0  0  0  0  0  0  0  0  0  0  0
   -3.7480   -1.3730   -1.4580 C   0  0  2  0  0  0  0  0  0  0  0  0
   -3.2930   -1.0580   -0.1290 N   0  0  0  0  0  0  0  0  0  0  0  0
   -5.0620   -0.7660   -1.7370 C   0  0  0  0  0  0  0  0  0  0  0  0
   -5.6150   -0.0810   -0.8430 O   0  0  0  0  0  0  0  0  0  0  0  0
   -5.7360   -0.9040   -2.9360 O   0  0  0  0  0  0  0  0  0  0  0  0
   -5.2430   -3.5210   -3.1480 H   0  0  0  0  0  0  0  0  0  0  0  0
   -3.5700   -3.9840   -3.5290 H   0  0  0  0  0  0  0  0  0  0  0  0
   -4.0550   -2.2780   -3.8010 H   0  0  0  0  0  0  0  0  0  0  0  0
   -4.4330   -3.3750   -1.0450 H   0  0  0  0  0  0  0  0  0  0  0  0
   -1.8600   -3.0470   -2.3270 H   0  0  0  0  0  0  0  0  0  0  0  0
   -3.0250   -0.9230   -2.1950 H   0  0  0  0  0  0  0  0  0  0  0  0
   -3.8430   -1.4130    0.6700 H   0  0  0  0  0  0  0  0  0  0  0  0
  1  2  1  0  0  0  0
  1 13  1  0  0  0  0
  2  3  2  0  0  0  0
  3 14  1  0  0  0  0
  4  2  1  0  0  0  0
  5  4  1  0  0  0  0
  5 17  1  0  0  0  0
  6  7  1  0  0  0  0
  6  5  1  0  0  0  0
  7 21  1  0  0  0  0
  7  8  1  0  0  0  0
  8 10  1  0  0  0  0
  8 22  1  1  0  0  0
  8  9  1  0  0  0  0
  9 24  1  0  0  0  0
  9 23  1  0  0  0  0
 10 11  2  0  0  0  0
 12  1  1  0  0  0  0
 15  4  1  0  0  0  0
 16  5  1  0  0  0  0
 18  6  1  0  0  0  0
 19  6  1  0  0  0  0
 20  7  1  0  0  0  0
 25 32  1  0  0  0  0
 25 33  1  0  0  0  0
 26 27  1  0  0  0  0
 26 25  1  0  0  0  0
 27 37  1  0  0  0  0
 27 36  1  0  0  0  0
 28 26  1  0  0  0  0
 28 39  1  1  0  0  0
 29 28  1  0  0  0  0
 29 10  1  0  0  0  0
 30 28  1  0  0  0  0
 31 30  2  0  0  0  0
 34 25  1  0  0  0  0
 35 26  1  0  0  0  0
 38 27  1  0  0  0  0
 40 29  1  0  0  0  0
 41 42  1  0  0  0  0
 42 43  1  0  0  0  0
 42 44  1  0  0  0  0
 42 52  1  1  0  0  0
 44 54  1  6  0  0  0
 44 45  1  0  0  0  0
 45 30  1  0  0  0  0
 45 55  1  0  0  0  0
 46 44  1  0  0  0  0
 46 47  1  0  0  0  0
 48 46  2  0  0  0  0
 49 41  1  0  0  0  0
 50 41  1  0  0  0  0
 51 41  1  0  0  0  0
 53 43  1  0  0  0  0
M  END
$$$$
