RVV.pdb
 OpenBabel07022418083D

 57 56  0  0  1  0  0  0  0  0999 V2000
    5.1290   -4.3540    2.9650 N   0  0  0  0  0  0  0  0  0  0  0  0
    3.8320   -3.7530    2.8950 C   0  0  0  0  0  0  0  0  0  0  0  0
    3.2280   -3.5470    4.0150 N   0  0  0  0  0  0  0  0  0  0  0  0
    3.2600   -3.4100    1.6590 N   0  0  0  0  0  0  0  0  0  0  0  0
    1.8630   -3.0530    1.5580 C   0  0  0  0  0  0  0  0  0  0  0  0
    1.4660   -2.7250    0.1520 C   0  0  0  0  0  0  0  0  0  0  0  0
    2.1890   -1.5930   -0.4790 C   0  0  0  0  0  0  0  0  0  0  0  0
    2.0680   -0.2710    0.1870 C   0  0  2  0  0  0  0  0  0  0  0  0
    2.5630   -0.2590    1.5660 N   0  0  0  0  0  0  0  0  0  0  0  0
    0.7620    0.3930    0.0650 C   0  0  0  0  0  0  0  0  0  0  0  0
    0.2450    0.4350   -1.0740 O   0  0  0  0  0  0  0  0  0  0  0  0
    5.2250   -5.4050    3.0180 H   0  0  0  0  0  0  0  0  0  0  0  0
    5.9870   -3.7580    2.9640 H   0  0  0  0  0  0  0  0  0  0  0  0
    2.2800   -3.1140    4.0710 H   0  0  0  0  0  0  0  0  0  0  0  0
    3.8380   -3.4080    0.7810 H   0  0  0  0  0  0  0  0  0  0  0  0
    1.6400   -2.2980    2.3110 H   0  0  0  0  0  0  0  0  0  0  0  0
    1.2350   -3.9460    1.8560 H   0  0  0  0  0  0  0  0  0  0  0  0
    1.7220   -3.6400   -0.4560 H   0  0  0  0  0  0  0  0  0  0  0  0
    0.3860   -2.5960    0.0220 H   0  0  0  0  0  0  0  0  0  0  0  0
    1.7490   -1.4740   -1.5110 H   0  0  0  0  0  0  0  0  0  0  0  0
    3.2650   -1.7960   -0.6690 H   0  0  0  0  0  0  0  0  0  0  0  0
    2.7970    0.4160   -0.3540 H   0  0  0  0  0  0  0  0  0  0  0  0
    2.6370    0.7470    1.8890 H   0  0  0  0  0  0  0  0  0  0  0  0
    3.5430   -0.6350    1.5990 H   0  0  0  0  0  0  0  0  0  0  0  0
   -0.3010    3.8570    1.6250 C   0  0  0  0  0  0  0  0  0  0  0  0
   -1.1710    3.0590    0.6660 C   0  0  0  0  0  0  0  0  0  0  0  0
   -0.7770    3.2890   -0.7510 C   0  0  0  0  0  0  0  0  0  0  0  0
   -1.1910    1.6380    1.1200 C   0  0  2  0  0  0  0  0  0  0  0  0
    0.0710    0.9830    1.1760 N   0  0  0  0  0  0  0  0  0  0  0  0
   -2.3060    0.8680    0.5470 C   0  0  0  0  0  0  0  0  0  0  0  0
   -3.3840    1.4830    0.3420 O   0  0  0  0  0  0  0  0  0  0  0  0
    0.7360    3.8670    1.2270 H   0  0  0  0  0  0  0  0  0  0  0  0
   -0.6970    4.8970    1.7680 H   0  0  0  0  0  0  0  0  0  0  0  0
   -0.3510    3.3740    2.6260 H   0  0  0  0  0  0  0  0  0  0  0  0
   -2.1950    3.5300    0.7810 H   0  0  0  0  0  0  0  0  0  0  0  0
   -1.2820    2.6560   -1.4780 H   0  0  0  0  0  0  0  0  0  0  0  0
    0.3240    3.1590   -0.8850 H   0  0  0  0  0  0  0  0  0  0  0  0
   -0.9450    4.3790   -1.0120 H   0  0  0  0  0  0  0  0  0  0  0  0
   -1.5110    1.7130    2.2370 H   0  0  0  0  0  0  0  0  0  0  0  0
    0.6200    0.8800    2.0880 H   0  0  0  0  0  0  0  0  0  0  0  0
   -1.8930   -2.5770   -1.7660 C   0  0  0  0  0  0  0  0  0  0  0  0
   -3.0700   -1.6530   -1.7770 C   0  0  0  0  0  0  0  0  0  0  0  0
   -2.7970   -0.4120   -2.5990 C   0  0  0  0  0  0  0  0  0  0  0  0
   -3.3920   -1.1960   -0.3510 C   0  0  2  0  0  0  0  0  0  0  0  0
   -2.2440   -0.4950    0.2210 N   0  0  0  0  0  0  0  0  0  0  0  0
   -3.7260   -2.4230    0.4180 C   0  0  0  0  0  0  0  0  0  0  0  0
   -4.6810   -3.1080    0.0350 O   0  0  0  0  0  0  0  0  0  0  0  0
   -2.9850   -2.7880    1.5350 O   0  0  0  0  0  0  0  0  0  0  0  0
   -2.0070   -3.2740   -2.6240 H   0  0  0  0  0  0  0  0  0  0  0  0
   -0.9340   -2.0130   -1.8950 H   0  0  0  0  0  0  0  0  0  0  0  0
   -1.8310   -3.1850   -0.8600 H   0  0  0  0  0  0  0  0  0  0  0  0
   -3.9930   -2.1430   -2.1750 H   0  0  0  0  0  0  0  0  0  0  0  0
   -3.7660   -0.0630   -3.0070 H   0  0  0  0  0  0  0  0  0  0  0  0
   -2.1090   -0.6040   -3.4400 H   0  0  0  0  0  0  0  0  0  0  0  0
   -2.3540    0.4010   -1.9670 H   0  0  0  0  0  0  0  0  0  0  0  0
   -4.2620   -0.5100   -0.4630 H   0  0  0  0  0  0  0  0  0  0  0  0
   -1.3900   -1.0590    0.3880 H   0  0  0  0  0  0  0  0  0  0  0  0
  1 12  1  0  0  0  0
  2  1  1  0  0  0  0
  2  3  2  0  0  0  0
  3 14  1  0  0  0  0
  4  2  1  0  0  0  0
  5  4  1  0  0  0  0
  5 17  1  0  0  0  0
  5 16  1  0  0  0  0
  6  5  1  0  0  0  0
  7  6  1  0  0  0  0
  7  8  1  0  0  0  0
  8 22  1  6  0  0  0
  8  9  1  0  0  0  0
  9 24  1  0  0  0  0
  9 23  1  0  0  0  0
 10  8  1  0  0  0  0
 10 29  1  0  0  0  0
 11 10  2  0  0  0  0
 13  1  1  0  0  0  0
 15  4  1  0  0  0  0
 18  6  1  0  0  0  0
 19  6  1  0  0  0  0
 20  7  1  0  0  0  0
 21  7  1  0  0  0  0
 25 33  1  0  0  0  0
 25 34  1  0  0  0  0
 26 35  1  0  0  0  0
 26 28  1  0  0  0  0
 26 25  1  0  0  0  0
 27 26  1  0  0  0  0
 28 29  1  0  0  0  0
 28 39  1  1  0  0  0
 29 40  1  0  0  0  0
 30 28  1  0  0  0  0
 31 30  2  0  0  0  0
 32 25  1  0  0  0  0
 36 27  1  0  0  0  0
 37 27  1  0  0  0  0
 38 27  1  0  0  0  0
 41 51  1  0  0  0  0
 42 41  1  0  0  0  0
 42 44  1  0  0  0  0
 43 55  1  0  0  0  0
 43 42  1  0  0  0  0
 44 56  1  6  0  0  0
 44 45  1  0  0  0  0
 44 46  1  0  0  0  0
 45 57  1  0  0  0  0
 45 30  1  0  0  0  0
 46 48  1  0  0  0  0
 47 46  2  0  0  0  0
 49 41  1  0  0  0  0
 50 41  1  0  0  0  0
 52 42  1  0  0  0  0
 53 43  1  0  0  0  0
 54 43  1  0  0  0  0
M  END
$$$$
