RVY.pdb
 OpenBabel07022418083D

 62 62  0  0  1  0  0  0  0  0999 V2000
    4.0260   -3.4900   -0.4360 N   0  0  0  0  0  0  0  0  0  0  0  0
    4.0590   -2.8710    0.8390 C   0  0  0  0  0  0  0  0  0  0  0  0
    3.1090   -3.1020    1.6660 N   0  0  0  0  0  0  0  0  0  0  0  0
    5.1460   -2.0040    1.1780 N   0  0  0  0  0  0  0  0  0  0  0  0
    5.0070   -1.2530    2.3980 C   0  0  0  0  0  0  0  0  0  0  0  0
    3.9030   -0.2110    2.2630 C   0  0  0  0  0  0  0  0  0  0  0  0
    4.2580    0.7260    1.1420 C   0  0  0  0  0  0  0  0  0  0  0  0
    3.2450    1.7970    0.9120 C   0  0  2  0  0  0  0  0  0  0  0  0
    3.0150    2.6460    2.0420 N   0  0  0  0  0  0  0  0  0  0  0  0
    1.9500    1.2690    0.3400 C   0  0  0  0  0  0  0  0  0  0  0  0
    2.0110    0.5130   -0.6750 O   0  0  0  0  0  0  0  0  0  0  0  0
    4.9030   -3.7060   -0.9900 H   0  0  0  0  0  0  0  0  0  0  0  0
    3.1140   -3.7450   -0.8500 H   0  0  0  0  0  0  0  0  0  0  0  0
    2.3330   -3.7360    1.3950 H   0  0  0  0  0  0  0  0  0  0  0  0
    5.9820   -1.9300    0.5670 H   0  0  0  0  0  0  0  0  0  0  0  0
    5.9340   -0.7080    2.6760 H   0  0  0  0  0  0  0  0  0  0  0  0
    4.7700   -1.9510    3.2350 H   0  0  0  0  0  0  0  0  0  0  0  0
    3.9180    0.3850    3.2110 H   0  0  0  0  0  0  0  0  0  0  0  0
    2.9320   -0.6990    2.0780 H   0  0  0  0  0  0  0  0  0  0  0  0
    5.2670    1.1520    1.3130 H   0  0  0  0  0  0  0  0  0  0  0  0
    4.3790    0.1060    0.2060 H   0  0  0  0  0  0  0  0  0  0  0  0
    3.6690    2.4650    0.1060 H   0  0  0  0  0  0  0  0  0  0  0  0
    2.4560    3.4710    1.7540 H   0  0  0  0  0  0  0  0  0  0  0  0
    3.8960    3.0070    2.4650 H   0  0  0  0  0  0  0  0  0  0  0  0
   -1.9670    1.4350   -1.6330 C   0  0  0  0  0  0  0  0  0  0  0  0
   -0.7110    1.7880   -0.9130 C   0  0  0  0  0  0  0  0  0  0  0  0
   -0.6780    3.3030   -0.6800 C   0  0  0  0  0  0  0  0  0  0  0  0
   -0.5360    1.1520    0.4210 C   0  0  2  0  0  0  0  0  0  0  0  0
    0.7430    1.6430    0.9580 N   0  0  0  0  0  0  0  0  0  0  0  0
   -0.5560   -0.3190    0.4620 C   0  0  0  0  0  0  0  0  0  0  0  0
    0.5190   -0.9360    0.8210 O   0  0  0  0  0  0  0  0  0  0  0  0
   -2.1060    2.1920   -2.4810 H   0  0  0  0  0  0  0  0  0  0  0  0
   -1.8910    0.4520   -2.1090 H   0  0  0  0  0  0  0  0  0  0  0  0
   -2.8320    1.5850   -0.9610 H   0  0  0  0  0  0  0  0  0  0  0  0
    0.2030    1.5720   -1.5260 H   0  0  0  0  0  0  0  0  0  0  0  0
   -1.1860    3.4800    0.2800 H   0  0  0  0  0  0  0  0  0  0  0  0
    0.3580    3.6740   -0.6370 H   0  0  0  0  0  0  0  0  0  0  0  0
   -1.2590    3.8360   -1.4640 H   0  0  0  0  0  0  0  0  0  0  0  0
   -1.3730    1.5560    1.0710 H   0  0  0  0  0  0  0  0  0  0  0  0
    0.7450    2.2710    1.8020 H   0  0  0  0  0  0  0  0  0  0  0  0
   -8.0560   -1.8990   -0.1770 O   0  0  0  0  0  0  0  0  0  0  0  0
   -6.7290   -2.1870    0.1460 C   0  0  0  0  0  0  0  0  0  0  0  0
   -6.1360   -3.3060   -0.3980 C   0  0  0  0  0  0  0  0  0  0  0  0
   -4.8070   -3.5840   -0.0680 C   0  0  0  0  0  0  0  0  0  0  0  0
   -4.0780   -2.7840    0.7750 C   0  0  0  0  0  0  0  0  0  0  0  0
   -2.6940   -3.1020    1.0980 C   0  0  0  0  0  0  0  0  0  0  0  0
   -1.6770   -2.4940    0.1710 C   0  0  2  0  0  0  0  0  0  0  0  0
   -1.7070   -1.0640    0.1250 N   0  0  0  0  0  0  0  0  0  0  0  0
   -1.8020   -3.0710   -1.2090 C   0  0  0  0  0  0  0  0  0  0  0  0
   -1.7830   -4.3380   -1.2920 O   0  0  0  0  0  0  0  0  0  0  0  0
   -4.6730   -1.6700    1.3150 C   0  0  0  0  0  0  0  0  0  0  0  0
   -5.9890   -1.3900    0.9910 C   0  0  0  0  0  0  0  0  0  0  0  0
   -1.9310   -2.2870   -2.3370 O   0  0  0  0  0  0  0  0  0  0  0  0
   -8.6490   -1.4230    0.4850 H   0  0  0  0  0  0  0  0  0  0  0  0
   -6.6990   -3.9620   -1.0760 H   0  0  0  0  0  0  0  0  0  0  0  0
   -4.4140   -4.4850   -0.5370 H   0  0  0  0  0  0  0  0  0  0  0  0
   -2.4970   -2.8050    2.1450 H   0  0  0  0  0  0  0  0  0  0  0  0
   -2.5020   -4.2150    1.0710 H   0  0  0  0  0  0  0  0  0  0  0  0
   -0.6700   -2.8440    0.5210 H   0  0  0  0  0  0  0  0  0  0  0  0
   -2.5710   -0.5730   -0.1390 H   0  0  0  0  0  0  0  0  0  0  0  0
   -4.1310   -0.9970    1.9950 H   0  0  0  0  0  0  0  0  0  0  0  0
   -6.4970   -0.5100    1.4030 H   0  0  0  0  0  0  0  0  0  0  0  0
  1  2  1  0  0  0  0
  2  4  1  0  0  0  0
  2  3  2  0  0  0  0
  4  5  1  0  0  0  0
  5 16  1  0  0  0  0
  5 17  1  0  0  0  0
  6  5  1  0  0  0  0
  6 18  1  0  0  0  0
  7 20  1  0  0  0  0
  7  6  1  0  0  0  0
  8 22  1  6  0  0  0
  8  7  1  0  0  0  0
  8  9  1  0  0  0  0
  9 24  1  0  0  0  0
 10  8  1  0  0  0  0
 10 29  1  0  0  0  0
 11 10  2  0  0  0  0
 12  1  1  0  0  0  0
 13  1  1  0  0  0  0
 14  3  1  0  0  0  0
 15  4  1  0  0  0  0
 19  6  1  0  0  0  0
 21  7  1  0  0  0  0
 23  9  1  0  0  0  0
 25 34  1  0  0  0  0
 25 26  1  0  0  0  0
 26 27  1  0  0  0  0
 26 28  1  0  0  0  0
 27 37  1  0  0  0  0
 27 36  1  0  0  0  0
 28 30  1  0  0  0  0
 28 29  1  0  0  0  0
 28 39  1  1  0  0  0
 29 40  1  0  0  0  0
 30 31  2  0  0  0  0
 32 25  1  0  0  0  0
 33 25  1  0  0  0  0
 35 26  1  0  0  0  0
 38 27  1  0  0  0  0
 41 42  1  0  0  0  0
 41 54  1  0  0  0  0
 42 52  1  0  0  0  0
 43 44  1  0  0  0  0
 43 42  2  0  0  0  0
 44 45  2  0  0  0  0
 45 46  1  0  0  0  0
 45 51  1  0  0  0  0
 46 57  1  0  0  0  0
 47 59  1  1  0  0  0
 47 46  1  0  0  0  0
 48 47  1  0  0  0  0
 48 30  1  0  0  0  0
 49 47  1  0  0  0  0
 50 49  1  0  0  0  0
 51 61  1  0  0  0  0
 52 51  2  0  0  0  0
 52 62  1  0  0  0  0
 53 49  2  0  0  0  0
 55 43  1  0  0  0  0
 56 44  1  0  0  0  0
 58 46  1  0  0  0  0
 60 48  1  0  0  0  0
M  END
$$$$
