RWC.pdb
 OpenBabel07022418073D

 60 61  0  0  1  0  0  0  0  0999 V2000
    0.8000    3.7520    6.2530 N   0  0  0  0  0  0  0  0  0  0  0  0
    2.0440    3.1730    5.8900 C   0  0  0  0  0  0  0  0  0  0  0  0
    3.0010    3.1800    6.7480 N   0  0  0  0  0  0  0  0  0  0  0  0
    2.2530    2.5800    4.5900 N   0  0  0  0  0  0  0  0  0  0  0  0
    3.3750    1.7160    4.3950 C   0  0  0  0  0  0  0  0  0  0  0  0
    3.5070    1.1140    3.0420 C   0  0  0  0  0  0  0  0  0  0  0  0
    2.3410    0.2560    2.6320 C   0  0  0  0  0  0  0  0  0  0  0  0
    2.6030   -0.3070    1.2520 C   0  0  2  0  0  0  0  0  0  0  0  0
    2.7630    0.7430    0.2860 N   0  0  0  0  0  0  0  0  0  0  0  0
    1.5680   -1.3100    0.8530 C   0  0  0  0  0  0  0  0  0  0  0  0
    1.2420   -2.2610    1.6070 O   0  0  0  0  0  0  0  0  0  0  0  0
    0.7410    4.7470    6.5620 H   0  0  0  0  0  0  0  0  0  0  0  0
   -0.1190    3.2290    6.2350 H   0  0  0  0  0  0  0  0  0  0  0  0
    2.8610    3.6000    7.6860 H   0  0  0  0  0  0  0  0  0  0  0  0
    1.5440    2.8370    3.8690 H   0  0  0  0  0  0  0  0  0  0  0  0
    3.4440    0.9550    5.2200 H   0  0  0  0  0  0  0  0  0  0  0  0
    4.2940    2.3530    4.5490 H   0  0  0  0  0  0  0  0  0  0  0  0
    4.4540    0.5410    3.0100 H   0  0  0  0  0  0  0  0  0  0  0  0
    3.6420    1.9560    2.3120 H   0  0  0  0  0  0  0  0  0  0  0  0
    1.3780    0.7490    2.7210 H   0  0  0  0  0  0  0  0  0  0  0  0
    2.3300   -0.6180    3.3470 H   0  0  0  0  0  0  0  0  0  0  0  0
    3.6080   -0.8400    1.2720 H   0  0  0  0  0  0  0  0  0  0  0  0
    2.9530    0.3950   -0.6620 H   0  0  0  0  0  0  0  0  0  0  0  0
    2.0410    1.4710    0.3000 H   0  0  0  0  0  0  0  0  0  0  0  0
    0.9370   -1.2000   -0.3940 N   0  0  0  0  0  0  0  0  0  0  0  0
   -0.0650   -2.1560   -0.8060 C   0  0  1  0  0  0  0  0  0  0  0  0
   -1.3140   -1.5630   -1.3460 C   0  0  0  0  0  0  0  0  0  0  0  0
   -2.0680   -0.6970   -0.4230 C   0  0  0  0  0  0  0  0  0  0  0  0
   -1.8860   -0.5130    0.9220 C   0  0  0  0  0  0  0  0  0  0  0  0
   -2.8260    0.3580    1.3350 N   0  0  0  0  0  0  0  0  0  0  0  0
   -3.6100    0.7380    0.2870 C   0  0  0  0  0  0  0  0  0  0  0  0
   -4.6910    1.5920    0.1810 C   0  0  0  0  0  0  0  0  0  0  0  0
   -5.3150    1.7990   -1.0300 C   0  0  0  0  0  0  0  0  0  0  0  0
   -4.8580    1.1480   -2.1550 C   0  0  0  0  0  0  0  0  0  0  0  0
   -3.7800    0.2970   -2.0420 C   0  0  0  0  0  0  0  0  0  0  0  0
   -3.1410    0.0740   -0.8450 C   0  0  0  0  0  0  0  0  0  0  0  0
    0.5180   -3.1890   -1.7080 C   0  0  0  0  0  0  0  0  0  0  0  0
    1.7320   -3.1170   -1.9740 O   0  0  0  0  0  0  0  0  0  0  0  0
    1.1430   -0.4390   -1.0900 H   0  0  0  0  0  0  0  0  0  0  0  0
   -0.3250   -2.7540    0.1260 H   0  0  0  0  0  0  0  0  0  0  0  0
   -1.9670   -2.3000   -1.8660 H   0  0  0  0  0  0  0  0  0  0  0  0
   -0.9890   -0.8730   -2.1870 H   0  0  0  0  0  0  0  0  0  0  0  0
   -1.1610   -0.9430    1.5960 H   0  0  0  0  0  0  0  0  0  0  0  0
   -2.9480    0.7020    2.3200 H   0  0  0  0  0  0  0  0  0  0  0  0
   -5.0490    2.1030    1.0590 H   0  0  0  0  0  0  0  0  0  0  0  0
   -6.1670    2.4660   -1.1420 H   0  0  0  0  0  0  0  0  0  0  0  0
   -5.3490    1.3050   -3.1280 H   0  0  0  0  0  0  0  0  0  0  0  0
   -3.4430   -0.2010   -2.9380 H   0  0  0  0  0  0  0  0  0  0  0  0
   -0.2750   -4.1980   -2.2320 N   0  0  0  0  0  0  0  0  0  0  0  0
    0.1660   -5.2530   -3.1080 C   0  0  1  0  0  0  0  0  0  0  0  0
   -0.1320   -6.6310   -2.5710 C   0  0  0  0  0  0  0  0  0  0  0  0
   -1.9110   -6.8790   -2.3240 S   0  0  0  0  0  0  0  0  0  0  0  0
   -0.5430   -5.1260   -4.3930 C   0  0  0  0  0  0  0  0  0  0  0  0
   -1.3660   -4.2100   -4.5750 O   0  0  0  0  0  0  0  0  0  0  0  0
   -0.2940   -6.0300   -5.4010 O   0  0  0  0  0  0  0  0  0  0  0  0
   -1.3060   -4.2180   -1.9780 H   0  0  0  0  0  0  0  0  0  0  0  0
    1.2560   -5.2080   -3.3170 H   0  0  0  0  0  0  0  0  0  0  0  0
    0.4490   -6.8800   -1.6600 H   0  0  0  0  0  0  0  0  0  0  0  0
    0.1850   -7.3590   -3.3470 H   0  0  0  0  0  0  0  0  0  0  0  0
   -2.3780   -6.1010   -1.2240 H   0  0  0  0  0  0  0  0  0  0  0  0
  1 12  1  0  0  0  0
  2  1  1  0  0  0  0
  2  3  2  0  0  0  0
  3 14  1  0  0  0  0
  4  2  1  0  0  0  0
  5 17  1  0  0  0  0
  5  4  1  0  0  0  0
  5 16  1  0  0  0  0
  6  5  1  0  0  0  0
  7 20  1  0  0  0  0
  7  6  1  0  0  0  0
  7 21  1  0  0  0  0
  8 22  1  1  0  0  0
  8  7  1  0  0  0  0
  9 24  1  0  0  0  0
  9  8  1  0  0  0  0
 10  8  1  0  0  0  0
 10 11  2  0  0  0  0
 13  1  1  0  0  0  0
 15  4  1  0  0  0  0
 18  6  1  0  0  0  0
 19  6  1  0  0  0  0
 23  9  1  0  0  0  0
 25 10  1  0  0  0  0
 26 25  1  0  0  0  0
 26 40  1  1  0  0  0
 27 26  1  0  0  0  0
 27 28  1  0  0  0  0
 28 29  2  0  0  0  0
 29 30  1  0  0  0  0
 29 43  1  0  0  0  0
 30 44  1  0  0  0  0
 31 30  1  0  0  0  0
 32 31  1  0  0  0  0
 32 45  1  0  0  0  0
 33 32  2  0  0  0  0
 34 35  2  0  0  0  0
 34 33  1  0  0  0  0
 35 36  1  0  0  0  0
 36 28  1  0  0  0  0
 36 31  2  0  0  0  0
 37 26  1  0  0  0  0
 38 37  2  0  0  0  0
 39 25  1  0  0  0  0
 41 27  1  0  0  0  0
 42 27  1  0  0  0  0
 46 33  1  0  0  0  0
 47 34  1  0  0  0  0
 48 35  1  0  0  0  0
 49 56  1  0  0  0  0
 49 37  1  0  0  0  0
 50 57  1  6  0  0  0
 50 51  1  0  0  0  0
 50 49  1  0  0  0  0
 51 52  1  0  0  0  0
 51 58  1  0  0  0  0
 52 60  1  0  0  0  0
 53 50  1  0  0  0  0
 54 53  1  0  0  0  0
 55 53  2  0  0  0  0
 59 51  1  0  0  0  0
M  END
$$$$
