RWD.pdb
 OpenBabel07022418073D

 62 63  0  0  1  0  0  0  0  0999 V2000
    4.6660   -4.8660   -1.9880 N   0  0  0  0  0  0  0  0  0  0  0  0
    5.0020   -3.9040   -0.9880 C   0  0  0  0  0  0  0  0  0  0  0  0
    6.0510   -3.1750   -1.0650 N   0  0  0  0  0  0  0  0  0  0  0  0
    4.1100   -3.7760    0.1330 N   0  0  0  0  0  0  0  0  0  0  0  0
    4.5540   -3.2640    1.3880 C   0  0  0  0  0  0  0  0  0  0  0  0
    4.9270   -1.8300    1.4250 C   0  0  0  0  0  0  0  0  0  0  0  0
    3.8810   -0.8400    1.0850 C   0  0  0  0  0  0  0  0  0  0  0  0
    2.6570   -0.8370    1.9500 C   0  0  2  0  0  0  0  0  0  0  0  0
    1.9930   -2.1130    1.8780 N   0  0  0  0  0  0  0  0  0  0  0  0
    1.7640    0.2270    1.4350 C   0  0  0  0  0  0  0  0  0  0  0  0
    2.0720    1.4470    1.4460 O   0  0  0  0  0  0  0  0  0  0  0  0
    4.2640   -5.7940   -1.7440 H   0  0  0  0  0  0  0  0  0  0  0  0
    4.8250   -4.6370   -2.9880 H   0  0  0  0  0  0  0  0  0  0  0  0
    6.6990   -3.2640   -1.8720 H   0  0  0  0  0  0  0  0  0  0  0  0
    3.1080   -4.0880   -0.0240 H   0  0  0  0  0  0  0  0  0  0  0  0
    5.4970   -3.8380    1.6510 H   0  0  0  0  0  0  0  0  0  0  0  0
    3.8390   -3.5280    2.1980 H   0  0  0  0  0  0  0  0  0  0  0  0
    5.7860   -1.6680    0.7330 H   0  0  0  0  0  0  0  0  0  0  0  0
    5.3260   -1.6230    2.4510 H   0  0  0  0  0  0  0  0  0  0  0  0
    3.5930   -0.9160    0.0000 H   0  0  0  0  0  0  0  0  0  0  0  0
    4.3640    0.1790    1.1570 H   0  0  0  0  0  0  0  0  0  0  0  0
    2.9020   -0.6810    3.0260 H   0  0  0  0  0  0  0  0  0  0  0  0
    1.7510   -2.4070    0.9300 H   0  0  0  0  0  0  0  0  0  0  0  0
    1.2490   -2.2570    2.5870 H   0  0  0  0  0  0  0  0  0  0  0  0
    0.5100   -0.1100    0.9020 N   0  0  0  0  0  0  0  0  0  0  0  0
   -0.4020    0.9440    0.3810 C   0  0  1  0  0  0  0  0  0  0  0  0
   -0.5550    0.7800   -1.0860 C   0  0  0  0  0  0  0  0  0  0  0  0
   -1.4530    1.7370   -1.7440 C   0  0  0  0  0  0  0  0  0  0  0  0
   -1.0830    2.9820   -2.2930 C   0  0  0  0  0  0  0  0  0  0  0  0
   -2.1560    3.6160   -2.7800 N   0  0  0  0  0  0  0  0  0  0  0  0
   -3.2530    2.8540   -2.5880 C   0  0  0  0  0  0  0  0  0  0  0  0
   -4.5720    3.0420   -2.9240 C   0  0  0  0  0  0  0  0  0  0  0  0
   -5.4830    2.0500   -2.6190 C   0  0  0  0  0  0  0  0  0  0  0  0
   -5.0640    0.8990   -1.9900 C   0  0  0  0  0  0  0  0  0  0  0  0
   -3.7440    0.6990   -1.6460 C   0  0  0  0  0  0  0  0  0  0  0  0
   -2.8240    1.7060   -1.9560 C   0  0  0  0  0  0  0  0  0  0  0  0
   -1.6520    0.8320    1.0920 C   0  0  0  0  0  0  0  0  0  0  0  0
   -2.5530    1.6970    0.9980 O   0  0  0  0  0  0  0  0  0  0  0  0
    0.2260   -1.1070    0.8650 H   0  0  0  0  0  0  0  0  0  0  0  0
    0.1000    1.9430    0.5680 H   0  0  0  0  0  0  0  0  0  0  0  0
    0.4160    0.7810   -1.6380 H   0  0  0  0  0  0  0  0  0  0  0  0
   -0.9790   -0.2460   -1.3380 H   0  0  0  0  0  0  0  0  0  0  0  0
   -0.0630    3.3100   -2.2850 H   0  0  0  0  0  0  0  0  0  0  0  0
   -2.2080    4.5540   -3.2460 H   0  0  0  0  0  0  0  0  0  0  0  0
   -4.8930    3.9610   -3.4250 H   0  0  0  0  0  0  0  0  0  0  0  0
   -6.5280    2.2020   -2.8870 H   0  0  0  0  0  0  0  0  0  0  0  0
   -5.7830    0.1260   -1.7550 H   0  0  0  0  0  0  0  0  0  0  0  0
   -3.4350   -0.2130   -1.1520 H   0  0  0  0  0  0  0  0  0  0  0  0
   -1.9590   -0.2510    1.9430 N   0  0  0  0  0  0  0  0  0  0  0  0
   -3.2080   -0.3730    2.6550 C   0  0  1  0  0  0  0  0  0  0  0  0
   -4.0450   -1.5340    2.2060 C   0  0  0  0  0  0  0  0  0  0  0  0
   -3.3820   -2.8460    2.3870 C   0  0  0  0  0  0  0  0  0  0  0  0
   -2.2600   -2.9940    2.9020 O   0  0  0  0  0  0  0  0  0  0  0  0
   -2.9280   -0.4080    4.1060 C   0  0  0  0  0  0  0  0  0  0  0  0
   -1.7390   -0.3030    4.4820 O   0  0  0  0  0  0  0  0  0  0  0  0
   -4.0560   -3.9770    1.9530 O   0  0  0  0  0  0  0  0  0  0  0  0
   -3.9010   -0.5510    5.0820 O   0  0  0  0  0  0  0  0  0  0  0  0
   -1.2990   -1.0340    2.1110 H   0  0  0  0  0  0  0  0  0  0  0  0
   -3.7930    0.5480    2.4540 H   0  0  0  0  0  0  0  0  0  0  0  0
   -4.9590   -1.5470    2.8340 H   0  0  0  0  0  0  0  0  0  0  0  0
   -4.3670   -1.3520    1.1710 H   0  0  0  0  0  0  0  0  0  0  0  0
   -3.5840   -4.7830    1.5670 H   0  0  0  0  0  0  0  0  0  0  0  0
  1 12  1  0  0  0  0
  1  2  1  0  0  0  0
  2  4  1  0  0  0  0
  3  2  2  0  0  0  0
  4  5  1  0  0  0  0
  5  6  1  0  0  0  0
  5 16  1  0  0  0  0
  5 17  1  0  0  0  0
  6 19  1  0  0  0  0
  7 21  1  0  0  0  0
  7  6  1  0  0  0  0
  7  8  1  0  0  0  0
  8 22  1  1  0  0  0
  9  8  1  0  0  0  0
  9 24  1  0  0  0  0
 10 11  2  0  0  0  0
 10  8  1  0  0  0  0
 13  1  1  0  0  0  0
 14  3  1  0  0  0  0
 15  4  1  0  0  0  0
 18  6  1  0  0  0  0
 20  7  1  0  0  0  0
 23  9  1  0  0  0  0
 25 10  1  0  0  0  0
 26 40  1  1  0  0  0
 26 25  1  0  0  0  0
 26 37  1  0  0  0  0
 27 26  1  0  0  0  0
 28 27  1  0  0  0  0
 29 43  1  0  0  0  0
 29 28  2  0  0  0  0
 30 31  1  0  0  0  0
 30 29  1  0  0  0  0
 31 36  1  0  0  0  0
 32 33  1  0  0  0  0
 32 31  2  0  0  0  0
 33 34  2  0  0  0  0
 34 47  1  0  0  0  0
 34 35  1  0  0  0  0
 35 48  1  0  0  0  0
 36 28  1  0  0  0  0
 36 35  2  0  0  0  0
 37 49  1  0  0  0  0
 38 37  2  0  0  0  0
 39 25  1  0  0  0  0
 41 27  1  0  0  0  0
 42 27  1  0  0  0  0
 44 30  1  0  0  0  0
 45 32  1  0  0  0  0
 46 33  1  0  0  0  0
 49 58  1  0  0  0  0
 49 50  1  0  0  0  0
 50 59  1  6  0  0  0
 50 54  1  0  0  0  0
 51 52  1  0  0  0  0
 51 50  1  0  0  0  0
 51 60  1  0  0  0  0
 52 53  2  0  0  0  0
 54 55  2  0  0  0  0
 54 57  1  0  0  0  0
 56 52  1  0  0  0  0
 61 51  1  0  0  0  0
 62 56  1  0  0  0  0
M  END
$$$$
