RWE.pdb
 OpenBabel07022418073D

 65 66  0  0  1  0  0  0  0  0999 V2000
    4.3750   -5.6300    3.7230 N   0  0  0  0  0  0  0  0  0  0  0  0
    4.4370   -4.2760    3.3300 C   0  0  0  0  0  0  0  0  0  0  0  0
    4.3780   -3.3370    4.2160 N   0  0  0  0  0  0  0  0  0  0  0  0
    4.5660   -3.9230    1.9610 N   0  0  0  0  0  0  0  0  0  0  0  0
    4.0710   -2.6770    1.4560 C   0  0  0  0  0  0  0  0  0  0  0  0
    2.5420   -2.6200    1.4850 C   0  0  0  0  0  0  0  0  0  0  0  0
    1.9340   -3.6960    0.6630 C   0  0  0  0  0  0  0  0  0  0  0  0
    0.4490   -3.7570    0.6300 C   0  0  2  0  0  0  0  0  0  0  0  0
    0.1300   -4.9130   -0.2530 N   0  0  0  0  0  0  0  0  0  0  0  0
   -0.2440   -2.6030    0.0500 C   0  0  0  0  0  0  0  0  0  0  0  0
   -0.7800   -2.6300   -1.0970 O   0  0  0  0  0  0  0  0  0  0  0  0
    4.8620   -6.3480    3.1460 H   0  0  0  0  0  0  0  0  0  0  0  0
    3.8510   -5.9460    4.5830 H   0  0  0  0  0  0  0  0  0  0  0  0
    4.2830   -3.5710    5.2360 H   0  0  0  0  0  0  0  0  0  0  0  0
    5.0370   -4.6020    1.3200 H   0  0  0  0  0  0  0  0  0  0  0  0
    4.4880   -1.8550    2.0720 H   0  0  0  0  0  0  0  0  0  0  0  0
    4.4440   -2.5180    0.4150 H   0  0  0  0  0  0  0  0  0  0  0  0
    2.2780   -1.6290    1.0190 H   0  0  0  0  0  0  0  0  0  0  0  0
    2.2160   -2.6800    2.5250 H   0  0  0  0  0  0  0  0  0  0  0  0
    2.3540   -3.6750   -0.3700 H   0  0  0  0  0  0  0  0  0  0  0  0
    2.2950   -4.6790    1.0870 H   0  0  0  0  0  0  0  0  0  0  0  0
    0.0790   -3.9950    1.6410 H   0  0  0  0  0  0  0  0  0  0  0  0
   -0.7480   -5.3600    0.0750 H   0  0  0  0  0  0  0  0  0  0  0  0
    0.0410   -4.5400   -1.2190 H   0  0  0  0  0  0  0  0  0  0  0  0
   -0.3440   -1.3840    0.7760 N   0  0  0  0  0  0  0  0  0  0  0  0
   -1.0300   -0.2240    0.2330 C   0  0  1  0  0  0  0  0  0  0  0  0
   -2.1490    0.2230    1.1440 C   0  0  0  0  0  0  0  0  0  0  0  0
   -3.1850   -0.7760    1.3800 C   0  0  0  0  0  0  0  0  0  0  0  0
   -3.3240   -1.5040    2.5420 C   0  0  0  0  0  0  0  0  0  0  0  0
   -4.3800   -2.3140    2.3970 N   0  0  0  0  0  0  0  0  0  0  0  0
   -4.9380   -2.1420    1.1770 C   0  0  0  0  0  0  0  0  0  0  0  0
   -6.0360   -2.7440    0.5670 C   0  0  0  0  0  0  0  0  0  0  0  0
   -6.3530   -2.3360   -0.7160 C   0  0  0  0  0  0  0  0  0  0  0  0
   -5.6160   -1.3720   -1.3710 C   0  0  0  0  0  0  0  0  0  0  0  0
   -4.5370   -0.7850   -0.7630 C   0  0  0  0  0  0  0  0  0  0  0  0
   -4.1980   -1.1720    0.5160 C   0  0  0  0  0  0  0  0  0  0  0  0
   -0.0670    0.8980    0.1730 C   0  0  0  0  0  0  0  0  0  0  0  0
    1.1140    0.7630    0.5420 O   0  0  0  0  0  0  0  0  0  0  0  0
    0.0640   -1.2860    1.7260 H   0  0  0  0  0  0  0  0  0  0  0  0
   -1.4000   -0.5140   -0.7710 H   0  0  0  0  0  0  0  0  0  0  0  0
   -1.6790    0.5020    2.1070 H   0  0  0  0  0  0  0  0  0  0  0  0
   -2.6380    1.1490    0.7720 H   0  0  0  0  0  0  0  0  0  0  0  0
   -2.7300   -1.4820    3.4500 H   0  0  0  0  0  0  0  0  0  0  0  0
   -4.7480   -2.9930    3.1000 H   0  0  0  0  0  0  0  0  0  0  0  0
   -6.6260   -3.5070    1.0740 H   0  0  0  0  0  0  0  0  0  0  0  0
   -7.2120   -2.7940   -1.2180 H   0  0  0  0  0  0  0  0  0  0  0  0
   -5.8640   -1.0460   -2.3860 H   0  0  0  0  0  0  0  0  0  0  0  0
   -3.9360   -0.0160   -1.2630 H   0  0  0  0  0  0  0  0  0  0  0  0
   -0.4350    2.1940   -0.3090 N   0  0  0  0  0  0  0  0  0  0  0  0
    0.5310    3.3070   -0.3650 C   0  0  1  0  0  0  0  0  0  0  0  0
    0.7340    3.7530   -1.7800 C   0  0  0  0  0  0  0  0  0  0  0  0
    1.6930    4.8690   -1.9810 C   0  0  0  0  0  0  0  0  0  0  0  0
    1.7710    5.1670   -3.4600 C   0  0  0  0  0  0  0  0  0  0  0  0
    1.0830    4.5030   -4.2710 O   0  0  0  0  0  0  0  0  0  0  0  0
    0.1080    4.3910    0.5310 C   0  0  0  0  0  0  0  0  0  0  0  0
    0.7870    5.4300    0.6840 O   0  0  0  0  0  0  0  0  0  0  0  0
    2.5940    6.1710   -3.9620 O   0  0  0  0  0  0  0  0  0  0  0  0
   -1.1030    4.2400    1.2320 O   0  0  0  0  0  0  0  0  0  0  0  0
   -1.4240    2.3070   -0.6160 H   0  0  0  0  0  0  0  0  0  0  0  0
    1.4940    2.8910    0.0000 H   0  0  0  0  0  0  0  0  0  0  0  0
    0.9380    2.9000   -2.4710 H   0  0  0  0  0  0  0  0  0  0  0  0
   -0.2750    4.1300   -2.1260 H   0  0  0  0  0  0  0  0  0  0  0  0
    2.7190    4.4930   -1.7130 H   0  0  0  0  0  0  0  0  0  0  0  0
    1.4280    5.8010   -1.4760 H   0  0  0  0  0  0  0  0  0  0  0  0
    2.5970    6.3730   -4.9550 H   0  0  0  0  0  0  0  0  0  0  0  0
  1 13  1  0  0  0  0
  2  1  1  0  0  0  0
  2  3  2  0  0  0  0
  3 14  1  0  0  0  0
  4  2  1  0  0  0  0
  5  6  1  0  0  0  0
  5  4  1  0  0  0  0
  5 16  1  0  0  0  0
  6 19  1  0  0  0  0
  7 21  1  0  0  0  0
  7  6  1  0  0  0  0
  8  7  1  0  0  0  0
  8 22  1  1  0  0  0
  9 23  1  0  0  0  0
  9  8  1  0  0  0  0
 10  8  1  0  0  0  0
 10 25  1  0  0  0  0
 11 10  2  0  0  0  0
 12  1  1  0  0  0  0
 15  4  1  0  0  0  0
 17  5  1  0  0  0  0
 18  6  1  0  0  0  0
 20  7  1  0  0  0  0
 24  9  1  0  0  0  0
 25 39  1  0  0  0  0
 26 40  1  6  0  0  0
 26 25  1  0  0  0  0
 26 27  1  0  0  0  0
 27 28  1  0  0  0  0
 27 41  1  0  0  0  0
 28 29  2  0  0  0  0
 29 43  1  0  0  0  0
 30 29  1  0  0  0  0
 30 44  1  0  0  0  0
 31 30  1  0  0  0  0
 32 45  1  0  0  0  0
 32 31  1  0  0  0  0
 33 32  2  0  0  0  0
 34 35  2  0  0  0  0
 34 33  1  0  0  0  0
 35 36  1  0  0  0  0
 36 31  2  0  0  0  0
 36 28  1  0  0  0  0
 37 26  1  0  0  0  0
 37 38  2  0  0  0  0
 42 27  1  0  0  0  0
 46 33  1  0  0  0  0
 47 34  1  0  0  0  0
 48 35  1  0  0  0  0
 49 37  1  0  0  0  0
 50 49  1  0  0  0  0
 50 60  1  1  0  0  0
 50 55  1  0  0  0  0
 51 50  1  0  0  0  0
 52 51  1  0  0  0  0
 52 63  1  0  0  0  0
 52 64  1  0  0  0  0
 53 52  1  0  0  0  0
 54 53  2  0  0  0  0
 55 56  2  0  0  0  0
 55 58  1  0  0  0  0
 57 53  1  0  0  0  0
 59 49  1  0  0  0  0
 61 51  1  0  0  0  0
 62 51  1  0  0  0  0
 65 57  1  0  0  0  0
M  END
$$$$
