RWF.pdb
 OpenBabel07022418073D

 69 71  0  0  1  0  0  0  0  0999 V2000
    3.4400   -2.9770    2.9000 N   0  0  0  0  0  0  0  0  0  0  0  0
    3.5020   -3.4030    1.5450 C   0  0  0  0  0  0  0  0  0  0  0  0
    4.6100   -3.3650    0.8560 N   0  0  0  0  0  0  0  0  0  0  0  0
    2.2950   -3.8730    0.9690 N   0  0  0  0  0  0  0  0  0  0  0  0
    2.2730   -4.2630   -0.4060 C   0  0  0  0  0  0  0  0  0  0  0  0
    2.4560   -3.1010   -1.3500 C   0  0  0  0  0  0  0  0  0  0  0  0
    1.3910   -2.0380   -1.2030 C   0  0  0  0  0  0  0  0  0  0  0  0
    0.0650   -2.6340   -1.4780 C   0  0  2  0  0  0  0  0  0  0  0  0
   -0.0120   -3.1730   -2.8170 N   0  0  0  0  0  0  0  0  0  0  0  0
   -1.0860   -1.7710   -1.2280 C   0  0  0  0  0  0  0  0  0  0  0  0
   -1.9510   -1.6450   -2.1280 O   0  0  0  0  0  0  0  0  0  0  0  0
    2.6740   -2.3410    3.1840 H   0  0  0  0  0  0  0  0  0  0  0  0
    4.1500   -3.2960    3.5950 H   0  0  0  0  0  0  0  0  0  0  0  0
    5.4610   -3.0010    1.3580 H   0  0  0  0  0  0  0  0  0  0  0  0
    1.4150   -3.9460    1.5170 H   0  0  0  0  0  0  0  0  0  0  0  0
    1.4220   -4.9000   -0.6970 H   0  0  0  0  0  0  0  0  0  0  0  0
    3.1830   -4.9110   -0.5600 H   0  0  0  0  0  0  0  0  0  0  0  0
    2.5020   -3.5100   -2.3880 H   0  0  0  0  0  0  0  0  0  0  0  0
    3.4880   -2.6810   -1.1610 H   0  0  0  0  0  0  0  0  0  0  0  0
    1.4320   -1.7260   -0.1200 H   0  0  0  0  0  0  0  0  0  0  0  0
    1.6770   -1.2010   -1.8450 H   0  0  0  0  0  0  0  0  0  0  0  0
   -0.0690   -3.5270   -0.7950 H   0  0  0  0  0  0  0  0  0  0  0  0
   -0.9650   -3.2800   -3.1730 H   0  0  0  0  0  0  0  0  0  0  0  0
    0.5450   -2.5720   -3.4840 H   0  0  0  0  0  0  0  0  0  0  0  0
   -1.3080   -1.0480   -0.0250 N   0  0  0  0  0  0  0  0  0  0  0  0
   -2.4570   -0.2000    0.1950 C   0  0  1  0  0  0  0  0  0  0  0  0
   -3.3850   -0.6200    1.2610 C   0  0  0  0  0  0  0  0  0  0  0  0
   -2.9030   -0.7460    2.6180 C   0  0  0  0  0  0  0  0  0  0  0  0
   -3.1160    0.1730    3.6240 C   0  0  0  0  0  0  0  0  0  0  0  0
   -2.5300   -0.2610    4.7320 N   0  0  0  0  0  0  0  0  0  0  0  0
   -1.9290   -1.4400    4.5080 C   0  0  0  0  0  0  0  0  0  0  0  0
   -1.1940   -2.3080    5.3070 C   0  0  0  0  0  0  0  0  0  0  0  0
   -0.6790   -3.4920    4.8060 C   0  0  0  0  0  0  0  0  0  0  0  0
   -0.9030   -3.8110    3.4830 C   0  0  0  0  0  0  0  0  0  0  0  0
   -1.6250   -2.9530    2.7100 C   0  0  0  0  0  0  0  0  0  0  0  0
   -2.1560   -1.7550    3.1840 C   0  0  0  0  0  0  0  0  0  0  0  0
   -2.0350    1.2190    0.2390 C   0  0  0  0  0  0  0  0  0  0  0  0
   -2.9030    2.1010    0.4410 O   0  0  0  0  0  0  0  0  0  0  0  0
   -0.5810   -1.1590    0.7130 H   0  0  0  0  0  0  0  0  0  0  0  0
   -3.0640   -0.2780   -0.7640 H   0  0  0  0  0  0  0  0  0  0  0  0
   -3.7910   -1.6320    0.9580 H   0  0  0  0  0  0  0  0  0  0  0  0
   -4.2990    0.0410    1.1690 H   0  0  0  0  0  0  0  0  0  0  0  0
   -3.6650    1.1020    3.5530 H   0  0  0  0  0  0  0  0  0  0  0  0
   -2.5050    0.2090    5.6830 H   0  0  0  0  0  0  0  0  0  0  0  0
   -1.0150   -2.0660    6.3400 H   0  0  0  0  0  0  0  0  0  0  0  0
   -0.1060   -4.1760    5.4180 H   0  0  0  0  0  0  0  0  0  0  0  0
   -0.5130   -4.7250    3.0700 H   0  0  0  0  0  0  0  0  0  0  0  0
   -1.8030   -3.1970    1.6850 H   0  0  0  0  0  0  0  0  0  0  0  0
   -0.7080    1.6550    0.0670 N   0  0  0  0  0  0  0  0  0  0  0  0
   -0.2260    3.0120    0.1040 C   0  0  1  0  0  0  0  0  0  0  0  0
   -0.7690    3.7720   -1.0800 C   0  0  0  0  0  0  0  0  0  0  0  0
   -0.3420    3.1550   -2.3540 C   0  0  0  0  0  0  0  0  0  0  0  0
   -1.1390    2.2090   -2.9490 C   0  0  0  0  0  0  0  0  0  0  0  0
   -0.6900    1.6530   -4.1530 C   0  0  0  0  0  0  0  0  0  0  0  0
    0.5020    2.0530   -4.6970 C   0  0  0  0  0  0  0  0  0  0  0  0
    1.3130    3.0110   -4.0980 C   0  0  0  0  0  0  0  0  0  0  0  0
    0.8560    3.5550   -2.9030 C   0  0  0  0  0  0  0  0  0  0  0  0
   -0.6730    3.6860    1.3660 C   0  0  0  0  0  0  0  0  0  0  0  0
   -0.3950    4.8900    1.5810 O   0  0  0  0  0  0  0  0  0  0  0  0
   -1.3990    3.0130    2.3270 O   0  0  0  0  0  0  0  0  0  0  0  0
    0.0050    0.9130   -0.1070 H   0  0  0  0  0  0  0  0  0  0  0  0
    0.8930    3.0500    0.0790 H   0  0  0  0  0  0  0  0  0  0  0  0
   -0.3860    4.8210   -1.0730 H   0  0  0  0  0  0  0  0  0  0  0  0
   -1.8820    3.8750   -1.0270 H   0  0  0  0  0  0  0  0  0  0  0  0
   -2.0840    1.8650   -2.5630 H   0  0  0  0  0  0  0  0  0  0  0  0
   -1.3060    0.8990   -4.6460 H   0  0  0  0  0  0  0  0  0  0  0  0
    0.8200    1.6110   -5.6180 H   0  0  0  0  0  0  0  0  0  0  0  0
    2.2420    3.3360   -4.5020 H   0  0  0  0  0  0  0  0  0  0  0  0
    1.4950    4.3040   -2.4400 H   0  0  0  0  0  0  0  0  0  0  0  0
  1 12  1  0  0  0  0
  1 13  1  0  0  0  0
  2  1  1  0  0  0  0
  3 14  1  0  0  0  0
  3  2  2  0  0  0  0
  4 15  1  0  0  0  0
  4  2  1  0  0  0  0
  5  4  1  0  0  0  0
  6  7  1  0  0  0  0
  6 19  1  0  0  0  0
  6  5  1  0  0  0  0
  7 20  1  0  0  0  0
  8 10  1  0  0  0  0
  8  7  1  0  0  0  0
  8 22  1  1  0  0  0
  9  8  1  0  0  0  0
 10 25  1  0  0  0  0
 11 10  2  0  0  0  0
 16  5  1  0  0  0  0
 17  5  1  0  0  0  0
 18  6  1  0  0  0  0
 21  7  1  0  0  0  0
 23  9  1  0  0  0  0
 24  9  1  0  0  0  0
 25 26  1  0  0  0  0
 25 39  1  0  0  0  0
 26 40  1  6  0  0  0
 26 37  1  0  0  0  0
 26 27  1  0  0  0  0
 27 28  1  0  0  0  0
 28 36  1  0  0  0  0
 28 29  2  0  0  0  0
 29 30  1  0  0  0  0
 30 44  1  0  0  0  0
 31 30  1  0  0  0  0
 31 32  1  0  0  0  0
 32 45  1  0  0  0  0
 33 32  2  0  0  0  0
 33 46  1  0  0  0  0
 34 33  1  0  0  0  0
 35 36  1  0  0  0  0
 35 34  2  0  0  0  0
 36 31  2  0  0  0  0
 37 38  2  0  0  0  0
 41 27  1  0  0  0  0
 42 27  1  0  0  0  0
 43 29  1  0  0  0  0
 47 34  1  0  0  0  0
 48 35  1  0  0  0  0
 49 50  1  0  0  0  0
 49 37  1  0  0  0  0
 50 62  1  6  0  0  0
 50 58  1  0  0  0  0
 51 63  1  0  0  0  0
 51 64  1  0  0  0  0
 51 50  1  0  0  0  0
 52 51  1  0  0  0  0
 53 65  1  0  0  0  0
 53 52  2  0  0  0  0
 54 53  1  0  0  0  0
 55 54  2  0  0  0  0
 55 56  1  0  0  0  0
 56 57  2  0  0  0  0
 57 69  1  0  0  0  0
 57 52  1  0  0  0  0
 58 59  2  0  0  0  0
 58 60  1  0  0  0  0
 61 49  1  0  0  0  0
 66 54  1  0  0  0  0
 67 55  1  0  0  0  0
 68 56  1  0  0  0  0
M  END
$$$$
