RWG.pdb
 OpenBabel07022418073D

 56 57  0  0  1  0  0  0  0  0999 V2000
   -1.1140    1.4990    4.9040 N   0  0  0  0  0  0  0  0  0  0  0  0
    0.2720    1.1370    4.7600 C   0  0  0  0  0  0  0  0  0  0  0  0
    1.2030    1.8080    5.3900 N   0  0  0  0  0  0  0  0  0  0  0  0
    0.5810    0.0400    3.9160 N   0  0  0  0  0  0  0  0  0  0  0  0
    1.8370   -0.6260    4.0400 C   0  0  0  0  0  0  0  0  0  0  0  0
    3.0390    0.1160    3.6530 C   0  0  0  0  0  0  0  0  0  0  0  0
    3.2530    0.7140    2.3560 C   0  0  0  0  0  0  0  0  0  0  0  0
    3.2840   -0.0810    1.1020 C   0  0  2  0  0  0  0  0  0  0  0  0
    3.5850    0.8760   -0.0260 N   0  0  0  0  0  0  0  0  0  0  0  0
    2.0560   -0.8000    0.7180 C   0  0  0  0  0  0  0  0  0  0  0  0
    1.6340   -1.8490    1.2300 O   0  0  0  0  0  0  0  0  0  0  0  0
   -1.8410    0.7710    4.8710 H   0  0  0  0  0  0  0  0  0  0  0  0
   -1.3020    2.5180    5.0390 H   0  0  0  0  0  0  0  0  0  0  0  0
    0.8780    2.5970    5.9850 H   0  0  0  0  0  0  0  0  0  0  0  0
   -0.1070   -0.2830    3.2050 H   0  0  0  0  0  0  0  0  0  0  0  0
    1.7500   -1.6710    3.7300 H   0  0  0  0  0  0  0  0  0  0  0  0
    1.9870   -0.7830    5.2050 H   0  0  0  0  0  0  0  0  0  0  0  0
    3.9190   -0.6060    3.8400 H   0  0  0  0  0  0  0  0  0  0  0  0
    3.2880    0.9040    4.4650 H   0  0  0  0  0  0  0  0  0  0  0  0
    2.5720    1.6050    2.1470 H   0  0  0  0  0  0  0  0  0  0  0  0
    4.2740    1.2620    2.3660 H   0  0  0  0  0  0  0  0  0  0  0  0
    4.1270   -0.7740    1.1050 H   0  0  0  0  0  0  0  0  0  0  0  0
    4.5860    0.8700   -0.2420 H   0  0  0  0  0  0  0  0  0  0  0  0
    3.1930    1.7970    0.2620 H   0  0  0  0  0  0  0  0  0  0  0  0
    1.2130   -0.2910   -0.3520 N   0  0  0  0  0  0  0  0  0  0  0  0
   -0.0030   -0.9690   -0.7550 C   0  0  1  0  0  0  0  0  0  0  0  0
   -1.2090   -0.0930   -0.6280 C   0  0  0  0  0  0  0  0  0  0  0  0
   -2.4140   -0.8420   -1.0500 C   0  0  0  0  0  0  0  0  0  0  0  0
   -3.1000   -0.7040   -2.2620 C   0  0  0  0  0  0  0  0  0  0  0  0
   -4.1430   -1.5530   -2.2740 N   0  0  0  0  0  0  0  0  0  0  0  0
   -4.1810   -2.2560   -1.1100 C   0  0  0  0  0  0  0  0  0  0  0  0
   -5.0540   -3.2310   -0.6560 C   0  0  0  0  0  0  0  0  0  0  0  0
   -4.8340   -3.7690    0.5910 C   0  0  0  0  0  0  0  0  0  0  0  0
   -3.7710   -3.3360    1.3500 C   0  0  0  0  0  0  0  0  0  0  0  0
   -2.8950   -2.3600    0.9000 C   0  0  0  0  0  0  0  0  0  0  0  0
   -3.1130   -1.8160   -0.3570 C   0  0  0  0  0  0  0  0  0  0  0  0
    0.1390   -1.5580   -2.1160 C   0  0  0  0  0  0  0  0  0  0  0  0
   -0.8280   -2.1920   -2.5940 O   0  0  0  0  0  0  0  0  0  0  0  0
    1.5230    0.5860   -0.8180 H   0  0  0  0  0  0  0  0  0  0  0  0
   -0.1350   -1.8330   -0.0770 H   0  0  0  0  0  0  0  0  0  0  0  0
   -1.1180    0.8600   -1.1920 H   0  0  0  0  0  0  0  0  0  0  0  0
   -1.3390    0.1580    0.4410 H   0  0  0  0  0  0  0  0  0  0  0  0
   -2.8120   -0.0130   -3.0500 H   0  0  0  0  0  0  0  0  0  0  0  0
   -4.7890   -1.6160   -3.0820 H   0  0  0  0  0  0  0  0  0  0  0  0
   -5.8630   -3.5150   -1.3140 H   0  0  0  0  0  0  0  0  0  0  0  0
   -5.5400   -4.5360    0.9250 H   0  0  0  0  0  0  0  0  0  0  0  0
   -3.6340   -3.7810    2.3180 H   0  0  0  0  0  0  0  0  0  0  0  0
   -2.0580   -2.0040    1.4710 H   0  0  0  0  0  0  0  0  0  0  0  0
    1.2960   -1.4470   -2.9050 N   0  0  0  0  0  0  0  0  0  0  0  0
    1.3780   -2.0410   -4.2280 C   0  0  0  0  0  0  0  0  0  0  0  0
    0.3080   -1.4250   -5.0530 C   0  0  0  0  0  0  0  0  0  0  0  0
    0.1200   -1.7380   -6.2740 O   0  0  0  0  0  0  0  0  0  0  0  0
   -0.5690   -0.4640   -4.5650 O   0  0  0  0  0  0  0  0  0  0  0  0
    2.1100   -0.9190   -2.5130 H   0  0  0  0  0  0  0  0  0  0  0  0
    1.1660   -3.1480   -4.1960 H   0  0  0  0  0  0  0  0  0  0  0  0
    2.3500   -1.8300   -4.7090 H   0  0  0  0  0  0  0  0  0  0  0  0
  1 13  1  0  0  0  0
  2  1  1  0  0  0  0
  2  3  2  0  0  0  0
  3 14  1  0  0  0  0
  4  5  1  0  0  0  0
  4  2  1  0  0  0  0
  5 17  1  0  0  0  0
  6 18  1  0  0  0  0
  6  5  1  0  0  0  0
  6 19  1  0  0  0  0
  7 21  1  0  0  0  0
  7  6  1  0  0  0  0
  8 22  1  1  0  0  0
  8  7  1  0  0  0  0
  9 24  1  0  0  0  0
  9  8  1  0  0  0  0
 10  8  1  0  0  0  0
 10 11  2  0  0  0  0
 12  1  1  0  0  0  0
 15  4  1  0  0  0  0
 16  5  1  0  0  0  0
 20  7  1  0  0  0  0
 23  9  1  0  0  0  0
 25 10  1  0  0  0  0
 26 27  1  0  0  0  0
 26 25  1  0  0  0  0
 26 40  1  1  0  0  0
 27 42  1  0  0  0  0
 28 27  1  0  0  0  0
 28 36  1  0  0  0  0
 29 28  2  0  0  0  0
 30 29  1  0  0  0  0
 30 31  1  0  0  0  0
 31 32  2  0  0  0  0
 31 36  1  0  0  0  0
 32 33  1  0  0  0  0
 33 46  1  0  0  0  0
 33 34  2  0  0  0  0
 34 47  1  0  0  0  0
 35 34  1  0  0  0  0
 35 48  1  0  0  0  0
 36 35  2  0  0  0  0
 37 26  1  0  0  0  0
 38 37  2  0  0  0  0
 39 25  1  0  0  0  0
 41 27  1  0  0  0  0
 43 29  1  0  0  0  0
 44 30  1  0  0  0  0
 45 32  1  0  0  0  0
 49 54  1  0  0  0  0
 49 37  1  0  0  0  0
 50 55  1  0  0  0  0
 50 49  1  0  0  0  0
 51 53  1  0  0  0  0
 51 50  1  0  0  0  0
 52 51  2  0  0  0  0
 56 50  1  0  0  0  0
M  END
$$$$
