RWH.pdb
 OpenBabel07022418073D

 66 68  0  0  1  0  0  0  0  0999 V2000
   -0.2310    2.3560    3.9640 N   0  0  0  0  0  0  0  0  0  0  0  0
    0.9770    1.6730    4.2650 C   0  0  0  0  0  0  0  0  0  0  0  0
    1.5780    1.8360    5.3820 N   0  0  0  0  0  0  0  0  0  0  0  0
    1.4920    0.7820    3.2500 N   0  0  0  0  0  0  0  0  0  0  0  0
    2.5640   -0.1010    3.6180 C   0  0  0  0  0  0  0  0  0  0  0  0
    2.2750   -1.1330    4.6130 C   0  0  0  0  0  0  0  0  0  0  0  0
    1.3700   -2.2380    4.4720 C   0  0  0  0  0  0  0  0  0  0  0  0
   -0.0640   -2.1860    4.1480 C   0  0  2  0  0  0  0  0  0  0  0  0
   -0.4720   -3.6840    4.3240 N   0  0  0  0  0  0  0  0  0  0  0  0
   -0.3890   -2.0290    2.7070 C   0  0  0  0  0  0  0  0  0  0  0  0
   -0.1750   -3.0630    1.9730 O   0  0  0  0  0  0  0  0  0  0  0  0
   -1.1380    1.8420    3.9590 H   0  0  0  0  0  0  0  0  0  0  0  0
   -0.1710    3.3780    3.7600 H   0  0  0  0  0  0  0  0  0  0  0  0
    1.1600    2.4920    6.0850 H   0  0  0  0  0  0  0  0  0  0  0  0
    1.1270    0.7950    2.2880 H   0  0  0  0  0  0  0  0  0  0  0  0
    3.4420    0.5400    3.9120 H   0  0  0  0  0  0  0  0  0  0  0  0
    2.8880   -0.6460    2.6620 H   0  0  0  0  0  0  0  0  0  0  0  0
    2.1000   -0.5860    5.6470 H   0  0  0  0  0  0  0  0  0  0  0  0
    3.3160   -1.5880    4.8830 H   0  0  0  0  0  0  0  0  0  0  0  0
    1.8830   -2.9680    3.7050 H   0  0  0  0  0  0  0  0  0  0  0  0
    1.5010   -2.8920    5.4350 H   0  0  0  0  0  0  0  0  0  0  0  0
   -0.6860   -1.6710    4.8500 H   0  0  0  0  0  0  0  0  0  0  0  0
    0.2590   -4.1430    3.7410 H   0  0  0  0  0  0  0  0  0  0  0  0
   -0.1450   -3.8160    5.3270 H   0  0  0  0  0  0  0  0  0  0  0  0
   -0.9090   -0.9110    2.0520 N   0  0  0  0  0  0  0  0  0  0  0  0
   -1.1940   -1.0350    0.6220 C   0  0  1  0  0  0  0  0  0  0  0  0
   -2.7150   -0.7470    0.4770 C   0  0  0  0  0  0  0  0  0  0  0  0
   -3.1520   -0.8150   -0.9360 C   0  0  0  0  0  0  0  0  0  0  0  0
   -3.4330    0.3060   -1.7440 C   0  0  0  0  0  0  0  0  0  0  0  0
   -3.8190   -0.1460   -2.9380 N   0  0  0  0  0  0  0  0  0  0  0  0
   -3.8130   -1.4950   -2.9760 C   0  0  0  0  0  0  0  0  0  0  0  0
   -4.1300   -2.4180   -3.9610 C   0  0  0  0  0  0  0  0  0  0  0  0
   -4.0140   -3.7550   -3.6600 C   0  0  0  0  0  0  0  0  0  0  0  0
   -3.5920   -4.1650   -2.4030 C   0  0  0  0  0  0  0  0  0  0  0  0
   -3.2830   -3.2610   -1.4360 C   0  0  0  0  0  0  0  0  0  0  0  0
   -3.3960   -1.9070   -1.7300 C   0  0  0  0  0  0  0  0  0  0  0  0
   -0.5450    0.0230   -0.1660 C   0  0  0  0  0  0  0  0  0  0  0  0
   -0.4280    1.1710    0.2260 O   0  0  0  0  0  0  0  0  0  0  0  0
   -1.0830   -0.0540    2.5610 H   0  0  0  0  0  0  0  0  0  0  0  0
   -1.0120   -2.0400    0.2540 H   0  0  0  0  0  0  0  0  0  0  0  0
   -3.2920   -1.4790    1.0500 H   0  0  0  0  0  0  0  0  0  0  0  0
   -2.9100    0.2740    0.8870 H   0  0  0  0  0  0  0  0  0  0  0  0
   -3.3460    1.3190   -1.4260 H   0  0  0  0  0  0  0  0  0  0  0  0
   -4.1060    0.4270   -3.7940 H   0  0  0  0  0  0  0  0  0  0  0  0
   -4.4510   -2.1210   -4.9270 H   0  0  0  0  0  0  0  0  0  0  0  0
   -4.2520   -4.5370   -4.3980 H   0  0  0  0  0  0  0  0  0  0  0  0
   -3.5070   -5.2300   -2.1980 H   0  0  0  0  0  0  0  0  0  0  0  0
   -2.9410   -3.5230   -0.4180 H   0  0  0  0  0  0  0  0  0  0  0  0
   -0.0300   -0.3300   -1.4430 N   0  0  0  0  0  0  0  0  0  0  0  0
    0.6160    0.4810   -2.3800 C   0  0  1  0  0  0  0  0  0  0  0  0
    2.1010    0.3280   -2.5350 C   0  0  0  0  0  0  0  0  0  0  0  0
    2.9150    0.6100   -1.3610 C   0  0  0  0  0  0  0  0  0  0  0  0
    4.3110    0.4720   -1.3990 C   0  0  0  0  0  0  0  0  0  0  0  0
    4.8070    0.7900   -0.1960 N   0  0  0  0  0  0  0  0  0  0  0  0
    3.7650    1.1220    0.5830 C   0  0  0  0  0  0  0  0  0  0  0  0
    2.6380    1.0110   -0.1260 N   0  0  0  0  0  0  0  0  0  0  0  0
    0.0420    0.2300   -3.7300 C   0  0  0  0  0  0  0  0  0  0  0  0
   -0.8940   -0.5820   -3.9470 O   0  0  0  0  0  0  0  0  0  0  0  0
    0.5450    0.9140   -4.8400 O   0  0  0  0  0  0  0  0  0  0  0  0
   -0.1490   -1.3520   -1.7240 H   0  0  0  0  0  0  0  0  0  0  0  0
    0.4640    1.5580   -2.0960 H   0  0  0  0  0  0  0  0  0  0  0  0
    2.3670   -0.6550   -3.0210 H   0  0  0  0  0  0  0  0  0  0  0  0
    2.3820    1.0910   -3.3240 H   0  0  0  0  0  0  0  0  0  0  0  0
    4.9180    0.1550   -2.2440 H   0  0  0  0  0  0  0  0  0  0  0  0
    5.8220    0.7750    0.0590 H   0  0  0  0  0  0  0  0  0  0  0  0
    3.9070    1.4300    1.6290 H   0  0  0  0  0  0  0  0  0  0  0  0
  1  2  1  0  0  0  0
  2  3  2  0  0  0  0
  3 14  1  0  0  0  0
  4  5  1  0  0  0  0
  4  2  1  0  0  0  0
  5 16  1  0  0  0  0
  5  6  1  0  0  0  0
  6 19  1  0  0  0  0
  6 18  1  0  0  0  0
  7  6  1  0  0  0  0
  7 21  1  0  0  0  0
  8  9  1  0  0  0  0
  8  7  1  0  0  0  0
  8 22  1  1  0  0  0
  9 24  1  0  0  0  0
 10  8  1  0  0  0  0
 11 10  2  0  0  0  0
 12  1  1  0  0  0  0
 13  1  1  0  0  0  0
 15  4  1  0  0  0  0
 17  5  1  0  0  0  0
 20  7  1  0  0  0  0
 23  9  1  0  0  0  0
 25 39  1  0  0  0  0
 25 10  1  0  0  0  0
 26 40  1  6  0  0  0
 26 25  1  0  0  0  0
 27 26  1  0  0  0  0
 27 42  1  0  0  0  0
 27 41  1  0  0  0  0
 28 27  1  0  0  0  0
 29 43  1  0  0  0  0
 29 28  2  0  0  0  0
 30 29  1  0  0  0  0
 31 30  1  0  0  0  0
 31 36  1  0  0  0  0
 32 33  1  0  0  0  0
 32 31  2  0  0  0  0
 33 34  2  0  0  0  0
 34 47  1  0  0  0  0
 34 35  1  0  0  0  0
 35 48  1  0  0  0  0
 36 35  2  0  0  0  0
 36 28  1  0  0  0  0
 37 38  2  0  0  0  0
 37 26  1  0  0  0  0
 44 30  1  0  0  0  0
 45 32  1  0  0  0  0
 46 33  1  0  0  0  0
 49 37  1  0  0  0  0
 50 61  1  1  0  0  0
 50 49  1  0  0  0  0
 51 50  1  0  0  0  0
 51 52  1  0  0  0  0
 52 56  1  0  0  0  0
 53 52  2  0  0  0  0
 53 54  1  0  0  0  0
 54 65  1  0  0  0  0
 54 55  1  0  0  0  0
 55 66  1  0  0  0  0
 56 55  2  0  0  0  0
 57 50  1  0  0  0  0
 58 57  1  0  0  0  0
 59 57  2  0  0  0  0
 60 49  1  0  0  0  0
 62 51  1  0  0  0  0
 63 51  1  0  0  0  0
 64 53  1  0  0  0  0
M  END
$$$$
