RWK.pdb
 OpenBabel07022418073D

 70 71  0  0  1  0  0  0  0  0999 V2000
    0.9180   -4.9170    3.0480 N   0  0  0  0  0  0  0  0  0  0  0  0
    1.4380   -4.4980    1.7830 C   0  0  0  0  0  0  0  0  0  0  0  0
    1.9570   -3.3510    1.5810 N   0  0  0  0  0  0  0  0  0  0  0  0
    1.3650   -5.4370    0.7060 N   0  0  0  0  0  0  0  0  0  0  0  0
    2.3530   -5.4960   -0.3250 C   0  0  0  0  0  0  0  0  0  0  0  0
    2.3480   -4.3070   -1.2480 C   0  0  0  0  0  0  0  0  0  0  0  0
    0.9960   -4.2070   -1.9360 C   0  0  0  0  0  0  0  0  0  0  0  0
    0.9790   -3.0410   -2.9110 C   0  0  2  0  0  0  0  0  0  0  0  0
    2.0760   -3.3810   -3.8530 N   0  0  0  0  0  0  0  0  0  0  0  0
    1.3310   -1.7740   -2.2760 C   0  0  0  0  0  0  0  0  0  0  0  0
    2.5220   -1.3370   -2.3000 O   0  0  0  0  0  0  0  0  0  0  0  0
    0.0140   -5.4240    3.0960 H   0  0  0  0  0  0  0  0  0  0  0  0
    1.4130   -4.7350    3.9320 H   0  0  0  0  0  0  0  0  0  0  0  0
    2.0480   -2.6280    2.3060 H   0  0  0  0  0  0  0  0  0  0  0  0
    0.5260   -6.0920    0.7150 H   0  0  0  0  0  0  0  0  0  0  0  0
    3.3620   -5.6520    0.1340 H   0  0  0  0  0  0  0  0  0  0  0  0
    2.1590   -6.4060   -0.9350 H   0  0  0  0  0  0  0  0  0  0  0  0
    3.1650   -4.4540   -2.0120 H   0  0  0  0  0  0  0  0  0  0  0  0
    2.6230   -3.4150   -0.6890 H   0  0  0  0  0  0  0  0  0  0  0  0
    0.8570   -5.1360   -2.5200 H   0  0  0  0  0  0  0  0  0  0  0  0
    0.2160   -4.1540   -1.1790 H   0  0  0  0  0  0  0  0  0  0  0  0
    0.0450   -3.0620   -3.4690 H   0  0  0  0  0  0  0  0  0  0  0  0
    2.7250   -2.5970   -3.9740 H   0  0  0  0  0  0  0  0  0  0  0  0
    1.7150   -3.8170   -4.7090 H   0  0  0  0  0  0  0  0  0  0  0  0
    0.4080   -0.9130   -1.5860 N   0  0  0  0  0  0  0  0  0  0  0  0
    0.8220    0.3430   -0.9760 C   0  0  1  0  0  0  0  0  0  0  0  0
    0.6180    1.4770   -1.9630 C   0  0  0  0  0  0  0  0  0  0  0  0
    0.9860    2.7810   -1.3740 C   0  0  0  0  0  0  0  0  0  0  0  0
    2.2640    3.3300   -1.4920 C   0  0  0  0  0  0  0  0  0  0  0  0
    2.2620    4.4820   -0.8210 N   0  0  0  0  0  0  0  0  0  0  0  0
    1.0540    4.7050   -0.2790 C   0  0  0  0  0  0  0  0  0  0  0  0
    0.5540    5.7610    0.4860 C   0  0  0  0  0  0  0  0  0  0  0  0
   -0.7600    5.7620    0.9140 C   0  0  0  0  0  0  0  0  0  0  0  0
   -1.5460    4.6800    0.5520 C   0  0  0  0  0  0  0  0  0  0  0  0
   -1.0620    3.6350   -0.2010 C   0  0  0  0  0  0  0  0  0  0  0  0
    0.2570    3.6460   -0.6220 C   0  0  0  0  0  0  0  0  0  0  0  0
    0.2930    0.5830    0.3650 C   0  0  0  0  0  0  0  0  0  0  0  0
    0.8230    1.5310    1.0520 O   0  0  0  0  0  0  0  0  0  0  0  0
   -0.5840   -1.2160   -1.5330 H   0  0  0  0  0  0  0  0  0  0  0  0
    1.9520    0.2620   -0.9120 H   0  0  0  0  0  0  0  0  0  0  0  0
   -0.4530    1.5170   -2.2840 H   0  0  0  0  0  0  0  0  0  0  0  0
    1.2910    1.2970   -2.8250 H   0  0  0  0  0  0  0  0  0  0  0  0
    3.1150    2.9020   -2.0330 H   0  0  0  0  0  0  0  0  0  0  0  0
    3.0980    5.1300   -0.7310 H   0  0  0  0  0  0  0  0  0  0  0  0
    1.2090    6.5880    0.7450 H   0  0  0  0  0  0  0  0  0  0  0  0
   -1.1760    6.5640    1.5070 H   0  0  0  0  0  0  0  0  0  0  0  0
   -2.5940    4.6260    0.8610 H   0  0  0  0  0  0  0  0  0  0  0  0
   -1.6570    2.7860   -0.4920 H   0  0  0  0  0  0  0  0  0  0  0  0
   -0.7620   -0.1440    0.9700 N   0  0  0  0  0  0  0  0  0  0  0  0
   -1.2460    0.1340    2.2740 C   0  0  1  0  0  0  0  0  0  0  0  0
   -2.4870    0.9270    2.3840 C   0  0  0  0  0  0  0  0  0  0  0  0
   -3.7450    0.5530    1.7650 C   0  0  0  0  0  0  0  0  0  0  0  0
   -4.4660   -0.6970    1.9930 C   0  0  0  0  0  0  0  0  0  0  0  0
   -3.8420   -1.9550    1.5090 C   0  0  0  0  0  0  0  0  0  0  0  0
   -4.7020   -3.1170    1.8210 N   0  0  0  0  0  0  0  0  0  0  0  0
   -1.1070   -0.8990    3.2970 C   0  0  0  0  0  0  0  0  0  0  0  0
   -1.5840   -0.6220    4.4440 O   0  0  0  0  0  0  0  0  0  0  0  0
   -0.5120   -2.1380    3.1420 O   0  0  0  0  0  0  0  0  0  0  0  0
   -1.1930   -0.9360    0.3850 H   0  0  0  0  0  0  0  0  0  0  0  0
   -0.4380    0.9270    2.6730 H   0  0  0  0  0  0  0  0  0  0  0  0
   -2.2340    1.9740    1.9920 H   0  0  0  0  0  0  0  0  0  0  0  0
   -2.6000    1.1490    3.5040 H   0  0  0  0  0  0  0  0  0  0  0  0
   -4.4540    1.4610    1.9320 H   0  0  0  0  0  0  0  0  0  0  0  0
   -3.5790    0.6660    0.6220 H   0  0  0  0  0  0  0  0  0  0  0  0
   -5.4630   -0.5990    1.4340 H   0  0  0  0  0  0  0  0  0  0  0  0
   -4.8370   -0.8070    3.0610 H   0  0  0  0  0  0  0  0  0  0  0  0
   -2.8630   -2.2280    1.8140 H   0  0  0  0  0  0  0  0  0  0  0  0
   -3.7990   -1.8760    0.3690 H   0  0  0  0  0  0  0  0  0  0  0  0
   -4.2810   -3.9860    1.4270 H   0  0  0  0  0  0  0  0  0  0  0  0
   -5.6390   -2.9820    1.3650 H   0  0  0  0  0  0  0  0  0  0  0  0
  1 12  1  0  0  0  0
  1 13  1  0  0  0  0
  2  1  1  0  0  0  0
  3  2  2  0  0  0  0
  3 14  1  0  0  0  0
  4 15  1  0  0  0  0
  4  2  1  0  0  0  0
  5 16  1  0  0  0  0
  5  4  1  0  0  0  0
  6 19  1  0  0  0  0
  6  5  1  0  0  0  0
  7  6  1  0  0  0  0
  7 21  1  0  0  0  0
  8 22  1  6  0  0  0
  8 10  1  0  0  0  0
  8  7  1  0  0  0  0
  9  8  1  0  0  0  0
 10 25  1  0  0  0  0
 11 10  2  0  0  0  0
 17  5  1  0  0  0  0
 18  6  1  0  0  0  0
 20  7  1  0  0  0  0
 23  9  1  0  0  0  0
 24  9  1  0  0  0  0
 25 39  1  0  0  0  0
 25 26  1  0  0  0  0
 26 40  1  1  0  0  0
 26 37  1  0  0  0  0
 27 28  1  0  0  0  0
 27 26  1  0  0  0  0
 28 36  1  0  0  0  0
 29 28  2  0  0  0  0
 29 30  1  0  0  0  0
 30 44  1  0  0  0  0
 30 31  1  0  0  0  0
 31 32  1  0  0  0  0
 32 45  1  0  0  0  0
 32 33  2  0  0  0  0
 33 46  1  0  0  0  0
 34 47  1  0  0  0  0
 34 33  1  0  0  0  0
 35 34  2  0  0  0  0
 36 31  2  0  0  0  0
 36 35  1  0  0  0  0
 37 49  1  0  0  0  0
 37 38  2  0  0  0  0
 41 27  1  0  0  0  0
 42 27  1  0  0  0  0
 43 29  1  0  0  0  0
 48 35  1  0  0  0  0
 49 50  1  0  0  0  0
 50 51  1  0  0  0  0
 50 60  1  1  0  0  0
 50 56  1  0  0  0  0
 51 62  1  0  0  0  0
 52 63  1  0  0  0  0
 52 53  1  0  0  0  0
 52 51  1  0  0  0  0
 53 66  1  0  0  0  0
 54 67  1  0  0  0  0
 54 55  1  0  0  0  0
 54 53  1  0  0  0  0
 56 57  1  0  0  0  0
 58 56  2  0  0  0  0
 59 49  1  0  0  0  0
 61 51  1  0  0  0  0
 64 52  1  0  0  0  0
 65 53  1  0  0  0  0
 68 54  1  0  0  0  0
 69 55  1  0  0  0  0
 70 55  1  0  0  0  0
M  END
$$$$
