RWN.pdb
 OpenBabel07022418073D

 63 64  0  0  1  0  0  0  0  0999 V2000
    3.3680    0.3220    6.4560 N   0  0  0  0  0  0  0  0  0  0  0  0
    3.1670   -0.6390    5.4290 C   0  0  0  0  0  0  0  0  0  0  0  0
    2.8200   -1.8520    5.7490 N   0  0  0  0  0  0  0  0  0  0  0  0
    3.3330   -0.3230    4.0550 N   0  0  0  0  0  0  0  0  0  0  0  0
    2.4580   -0.8890    3.0730 C   0  0  0  0  0  0  0  0  0  0  0  0
    1.0750   -0.3010    3.2650 C   0  0  0  0  0  0  0  0  0  0  0  0
    1.1990    1.1790    3.1020 C   0  0  0  0  0  0  0  0  0  0  0  0
    1.7190    1.6500    1.7810 C   0  0  2  0  0  0  0  0  0  0  0  0
    1.7540    3.1330    1.9100 N   0  0  0  0  0  0  0  0  0  0  0  0
    0.7430    1.3800    0.7240 C   0  0  0  0  0  0  0  0  0  0  0  0
   -0.0120    2.3070    0.3370 O   0  0  0  0  0  0  0  0  0  0  0  0
    3.9190    1.1690    6.2450 H   0  0  0  0  0  0  0  0  0  0  0  0
    2.9670    0.1650    7.3840 H   0  0  0  0  0  0  0  0  0  0  0  0
    2.6720   -2.1890    6.7070 H   0  0  0  0  0  0  0  0  0  0  0  0
    4.1190    0.3380    3.8210 H   0  0  0  0  0  0  0  0  0  0  0  0
    2.7910   -0.6630    2.0420 H   0  0  0  0  0  0  0  0  0  0  0  0
    2.3450   -1.9840    3.2310 H   0  0  0  0  0  0  0  0  0  0  0  0
    0.6850   -0.5290    4.2910 H   0  0  0  0  0  0  0  0  0  0  0  0
    0.3920   -0.7600    2.5660 H   0  0  0  0  0  0  0  0  0  0  0  0
    0.1520    1.5910    3.1880 H   0  0  0  0  0  0  0  0  0  0  0  0
    1.7540    1.6430    3.9440 H   0  0  0  0  0  0  0  0  0  0  0  0
    2.7420    1.2960    1.5440 H   0  0  0  0  0  0  0  0  0  0  0  0
    2.1170    3.3440    2.8810 H   0  0  0  0  0  0  0  0  0  0  0  0
    0.7570    3.4520    1.9100 H   0  0  0  0  0  0  0  0  0  0  0  0
    0.5590    0.1290    0.0590 N   0  0  0  0  0  0  0  0  0  0  0  0
   -0.4270   -0.0320   -0.9870 C   0  0  1  0  0  0  0  0  0  0  0  0
    0.3340   -0.1030   -2.3150 C   0  0  0  0  0  0  0  0  0  0  0  0
   -0.5480   -0.2610   -3.4760 C   0  0  0  0  0  0  0  0  0  0  0  0
   -0.8570   -1.3510   -4.2670 C   0  0  0  0  0  0  0  0  0  0  0  0
   -1.7270   -1.0010   -5.2220 N   0  0  0  0  0  0  0  0  0  0  0  0
   -2.0320    0.3120   -5.1130 C   0  0  0  0  0  0  0  0  0  0  0  0
   -2.8710    1.1100   -5.8620 C   0  0  0  0  0  0  0  0  0  0  0  0
   -2.9680    2.4390   -5.4870 C   0  0  0  0  0  0  0  0  0  0  0  0
   -2.2660    2.9380   -4.4260 C   0  0  0  0  0  0  0  0  0  0  0  0
   -1.4440    2.1160   -3.7080 C   0  0  0  0  0  0  0  0  0  0  0  0
   -1.3050    0.7760   -4.0340 C   0  0  0  0  0  0  0  0  0  0  0  0
   -1.3400   -1.1650   -0.8340 C   0  0  0  0  0  0  0  0  0  0  0  0
   -2.2570   -1.2670   -1.7000 O   0  0  0  0  0  0  0  0  0  0  0  0
    1.1370   -0.6730    0.3190 H   0  0  0  0  0  0  0  0  0  0  0  0
   -1.0190    0.9250   -1.0240 H   0  0  0  0  0  0  0  0  0  0  0  0
    0.9330    0.8100   -2.4100 H   0  0  0  0  0  0  0  0  0  0  0  0
    1.0080   -0.9790   -2.2550 H   0  0  0  0  0  0  0  0  0  0  0  0
   -0.4130   -2.3340   -4.0800 H   0  0  0  0  0  0  0  0  0  0  0  0
   -2.1360   -1.6080   -5.9590 H   0  0  0  0  0  0  0  0  0  0  0  0
   -3.4450    0.7620   -6.7070 H   0  0  0  0  0  0  0  0  0  0  0  0
   -3.6350    3.0750   -6.0840 H   0  0  0  0  0  0  0  0  0  0  0  0
   -2.3580    3.9670   -4.1590 H   0  0  0  0  0  0  0  0  0  0  0  0
   -0.8580    2.4660   -2.8500 H   0  0  0  0  0  0  0  0  0  0  0  0
   -0.9010   -5.7610    2.4360 N   0  0  0  0  0  0  0  0  0  0  0  0
   -0.6610   -4.8190    1.3990 C   0  0  0  0  0  0  0  0  0  0  0  0
    0.3950   -4.1490    1.4470 O   0  0  0  0  0  0  0  0  0  0  0  0
   -1.6050   -4.6030    0.2790 C   0  0  0  0  0  0  0  0  0  0  0  0
   -2.2260   -3.2350    0.2820 C   0  0  2  0  0  0  0  0  0  0  0  0
   -1.2930   -2.1420    0.1750 N   0  0  0  0  0  0  0  0  0  0  0  0
   -2.9290   -3.1190    1.5810 C   0  0  0  0  0  0  0  0  0  0  0  0
   -3.8070   -3.9310    1.9650 O   0  0  0  0  0  0  0  0  0  0  0  0
   -2.6190   -2.0730    2.4260 O   0  0  0  0  0  0  0  0  0  0  0  0
   -0.7920   -5.4590    3.4220 H   0  0  0  0  0  0  0  0  0  0  0  0
   -1.1910   -6.7560    2.2370 H   0  0  0  0  0  0  0  0  0  0  0  0
   -2.4590   -5.3180    0.4450 H   0  0  0  0  0  0  0  0  0  0  0  0
   -1.1790   -4.9040   -0.7010 H   0  0  0  0  0  0  0  0  0  0  0  0
   -3.0020   -3.2070   -0.5160 H   0  0  0  0  0  0  0  0  0  0  0  0
   -0.5410   -2.0840    0.8870 H   0  0  0  0  0  0  0  0  0  0  0  0
  1 13  1  0  0  0  0
  2  3  2  0  0  0  0
  2  1  1  0  0  0  0
  3 14  1  0  0  0  0
  4  2  1  0  0  0  0
  5 17  1  0  0  0  0
  5  6  1  0  0  0  0
  5  4  1  0  0  0  0
  6 18  1  0  0  0  0
  7 20  1  0  0  0  0
  7  6  1  0  0  0  0
  7 21  1  0  0  0  0
  8 22  1  6  0  0  0
  8  9  1  0  0  0  0
  8  7  1  0  0  0  0
  9 23  1  0  0  0  0
 10  8  1  0  0  0  0
 11 10  2  0  0  0  0
 12  1  1  0  0  0  0
 15  4  1  0  0  0  0
 16  5  1  0  0  0  0
 19  6  1  0  0  0  0
 24  9  1  0  0  0  0
 25 39  1  0  0  0  0
 25 10  1  0  0  0  0
 26 40  1  6  0  0  0
 26 37  1  0  0  0  0
 26 25  1  0  0  0  0
 27 42  1  0  0  0  0
 27 26  1  0  0  0  0
 28 27  1  0  0  0  0
 29 43  1  0  0  0  0
 29 28  2  0  0  0  0
 30 31  1  0  0  0  0
 30 29  1  0  0  0  0
 31 36  1  0  0  0  0
 32 33  1  0  0  0  0
 32 31  2  0  0  0  0
 33 34  2  0  0  0  0
 34 47  1  0  0  0  0
 34 35  1  0  0  0  0
 35 48  1  0  0  0  0
 36 35  2  0  0  0  0
 36 28  1  0  0  0  0
 37 54  1  0  0  0  0
 38 37  2  0  0  0  0
 41 27  1  0  0  0  0
 44 30  1  0  0  0  0
 45 32  1  0  0  0  0
 46 33  1  0  0  0  0
 49 58  1  0  0  0  0
 50 51  2  0  0  0  0
 50 49  1  0  0  0  0
 52 53  1  0  0  0  0
 52 60  1  0  0  0  0
 52 50  1  0  0  0  0
 53 62  1  6  0  0  0
 53 55  1  0  0  0  0
 54 53  1  0  0  0  0
 54 63  1  0  0  0  0
 55 56  2  0  0  0  0
 55 57  1  0  0  0  0
 59 49  1  0  0  0  0
 61 52  1  0  0  0  0
M  END
$$$$
