RWP.pdb
 OpenBabel07022418073D

 63 65  0  0  1  0  0  0  0  0999 V2000
    2.9110   -0.0320    6.2970 N   0  0  0  0  0  0  0  0  0  0  0  0
    3.0690    0.2220    4.9120 C   0  0  0  0  0  0  0  0  0  0  0  0
    2.0180    0.1600    4.1670 N   0  0  0  0  0  0  0  0  0  0  0  0
    4.3370    0.5340    4.3510 N   0  0  0  0  0  0  0  0  0  0  0  0
    4.4970    0.7790    2.9340 C   0  0  0  0  0  0  0  0  0  0  0  0
    4.2690   -0.4710    2.1740 C   0  0  0  0  0  0  0  0  0  0  0  0
    4.4080   -0.3860    0.7070 C   0  0  0  0  0  0  0  0  0  0  0  0
    3.5250    0.5410   -0.0210 C   0  0  2  0  0  0  0  0  0  0  0  0
    3.6120    1.9160    0.3320 N   0  0  0  0  0  0  0  0  0  0  0  0
    2.0910    0.1220   -0.1000 C   0  0  0  0  0  0  0  0  0  0  0  0
    1.2490    1.0230    0.1390 O   0  0  0  0  0  0  0  0  0  0  0  0
    2.1000    0.3400    6.7950 H   0  0  0  0  0  0  0  0  0  0  0  0
    3.6170   -0.5960    6.8040 H   0  0  0  0  0  0  0  0  0  0  0  0
    1.0880   -0.0670    4.5570 H   0  0  0  0  0  0  0  0  0  0  0  0
    5.1410    0.5740    5.0370 H   0  0  0  0  0  0  0  0  0  0  0  0
    3.8030    1.6030    2.6810 H   0  0  0  0  0  0  0  0  0  0  0  0
    5.5710    1.0870    2.7850 H   0  0  0  0  0  0  0  0  0  0  0  0
    3.2620   -0.8840    2.4350 H   0  0  0  0  0  0  0  0  0  0  0  0
    4.9900   -1.2370    2.5690 H   0  0  0  0  0  0  0  0  0  0  0  0
    5.4710   -0.1020    0.4590 H   0  0  0  0  0  0  0  0  0  0  0  0
    4.2890   -1.4030    0.2650 H   0  0  0  0  0  0  0  0  0  0  0  0
    3.8590    0.4990   -1.1070 H   0  0  0  0  0  0  0  0  0  0  0  0
    2.7930    2.4160   -0.0950 H   0  0  0  0  0  0  0  0  0  0  0  0
    4.4820    2.3990    0.0560 H   0  0  0  0  0  0  0  0  0  0  0  0
    1.6990   -1.1730   -0.4170 N   0  0  0  0  0  0  0  0  0  0  0  0
    0.3020   -1.6350   -0.5110 C   0  0  1  0  0  0  0  0  0  0  0  0
   -0.2420   -1.4610    0.8670 C   0  0  0  0  0  0  0  0  0  0  0  0
   -1.6250   -1.7960    1.1360 C   0  0  0  0  0  0  0  0  0  0  0  0
   -2.1220   -2.9570    1.6980 C   0  0  0  0  0  0  0  0  0  0  0  0
   -3.4610   -2.8930    1.7770 N   0  0  0  0  0  0  0  0  0  0  0  0
   -3.8630   -1.7110    1.2780 C   0  0  0  0  0  0  0  0  0  0  0  0
   -5.0950   -1.1030    1.1110 C   0  0  0  0  0  0  0  0  0  0  0  0
   -5.2330    0.1540    0.5660 C   0  0  0  0  0  0  0  0  0  0  0  0
   -4.1130    0.8350    0.1700 C   0  0  0  0  0  0  0  0  0  0  0  0
   -2.8690    0.2630    0.3190 C   0  0  0  0  0  0  0  0  0  0  0  0
   -2.7240   -1.0070    0.8690 C   0  0  0  0  0  0  0  0  0  0  0  0
   -0.3720   -0.9220   -1.5930 C   0  0  0  0  0  0  0  0  0  0  0  0
    0.0610    0.2050   -1.9290 O   0  0  0  0  0  0  0  0  0  0  0  0
    2.4860   -1.8680   -0.6020 H   0  0  0  0  0  0  0  0  0  0  0  0
    0.3490   -2.7370   -0.7610 H   0  0  0  0  0  0  0  0  0  0  0  0
    0.3950   -2.1210    1.5260 H   0  0  0  0  0  0  0  0  0  0  0  0
    0.0280   -0.4300    1.2390 H   0  0  0  0  0  0  0  0  0  0  0  0
   -1.5050   -3.7990    2.0270 H   0  0  0  0  0  0  0  0  0  0  0  0
   -4.0690   -3.6410    2.1620 H   0  0  0  0  0  0  0  0  0  0  0  0
   -5.9880   -1.6340    1.4210 H   0  0  0  0  0  0  0  0  0  0  0  0
   -6.2400    0.5840    0.4590 H   0  0  0  0  0  0  0  0  0  0  0  0
   -4.2030    1.8240   -0.2610 H   0  0  0  0  0  0  0  0  0  0  0  0
   -1.9980    0.8320   -0.0000 H   0  0  0  0  0  0  0  0  0  0  0  0
   -1.5030   -1.4290   -2.3090 N   0  0  0  0  0  0  0  0  0  0  0  0
   -1.9930   -2.7990   -2.0920 C   0  0  0  0  0  0  0  0  0  0  0  0
   -3.4560   -2.6980   -2.3260 C   0  0  0  0  0  0  0  0  0  0  0  0
   -3.7340   -1.3930   -2.9700 C   0  0  0  0  0  0  0  0  0  0  0  0
   -2.3380   -0.8550   -3.3070 C   0  0  1  0  0  0  0  0  0  0  0  0
   -2.3840    0.6040   -3.4120 C   0  0  0  0  0  0  0  0  0  0  0  0
   -1.9130    1.4680   -2.6650 O   0  0  0  0  0  0  0  0  0  0  0  0
   -3.0720    1.1230   -4.5430 O   0  0  0  0  0  0  0  0  0  0  0  0
   -1.5660   -3.3640   -2.9940 H   0  0  0  0  0  0  0  0  0  0  0  0
   -1.6570   -3.2650   -1.1810 H   0  0  0  0  0  0  0  0  0  0  0  0
   -3.9910   -2.8440   -1.3480 H   0  0  0  0  0  0  0  0  0  0  0  0
   -3.8060   -3.5010   -3.0510 H   0  0  0  0  0  0  0  0  0  0  0  0
   -4.2390   -0.7130   -2.2580 H   0  0  0  0  0  0  0  0  0  0  0  0
   -4.3010   -1.4930   -3.9230 H   0  0  0  0  0  0  0  0  0  0  0  0
   -2.0590   -1.3340   -4.2870 H   0  0  0  0  0  0  0  0  0  0  0  0
  1 12  1  0  0  0  0
  1 13  1  0  0  0  0
  2  1  1  0  0  0  0
  3 14  1  0  0  0  0
  3  2  2  0  0  0  0
  4  2  1  0  0  0  0
  4 15  1  0  0  0  0
  5  4  1  0  0  0  0
  6 18  1  0  0  0  0
  6 19  1  0  0  0  0
  6  5  1  0  0  0  0
  7  6  1  0  0  0  0
  8 22  1  6  0  0  0
  8  9  1  0  0  0  0
  8  7  1  0  0  0  0
 10  8  1  0  0  0  0
 10 11  2  0  0  0  0
 16  5  1  0  0  0  0
 17  5  1  0  0  0  0
 20  7  1  0  0  0  0
 21  7  1  0  0  0  0
 23  9  1  0  0  0  0
 24  9  1  0  0  0  0
 25 10  1  0  0  0  0
 26 40  1  6  0  0  0
 26 25  1  0  0  0  0
 26 27  1  0  0  0  0
 27 28  1  0  0  0  0
 27 42  1  0  0  0  0
 27 41  1  0  0  0  0
 28 29  2  0  0  0  0
 29 30  1  0  0  0  0
 29 43  1  0  0  0  0
 30 44  1  0  0  0  0
 31 30  1  0  0  0  0
 32 31  1  0  0  0  0
 32 45  1  0  0  0  0
 33 32  2  0  0  0  0
 34 35  2  0  0  0  0
 34 33  1  0  0  0  0
 35 36  1  0  0  0  0
 36 28  1  0  0  0  0
 36 31  2  0  0  0  0
 37 26  1  0  0  0  0
 38 37  2  0  0  0  0
 39 25  1  0  0  0  0
 46 33  1  0  0  0  0
 47 34  1  0  0  0  0
 48 35  1  0  0  0  0
 49 50  1  0  0  0  0
 49 37  1  0  0  0  0
 50 58  1  0  0  0  0
 51 50  1  0  0  0  0
 51 59  1  0  0  0  0
 52 51  1  0  0  0  0
 52 61  1  0  0  0  0
 53 63  1  6  0  0  0
 53 52  1  0  0  0  0
 53 49  1  0  0  0  0
 54 53  1  0  0  0  0
 54 55  1  0  0  0  0
 56 54  2  0  0  0  0
 57 50  1  0  0  0  0
 60 51  1  0  0  0  0
 62 52  1  0  0  0  0
M  END
$$$$
