RWR.pdb
 OpenBabel07022418073D

 72 73  0  0  1  0  0  0  0  0999 V2000
    3.6770    0.2740    5.7380 N   0  0  0  0  0  0  0  0  0  0  0  0
    4.5490    0.0510    4.6180 C   0  0  0  0  0  0  0  0  0  0  0  0
    4.8440   -1.1710    4.3090 N   0  0  0  0  0  0  0  0  0  0  0  0
    5.0860    1.1090    3.8600 N   0  0  0  0  0  0  0  0  0  0  0  0
    5.2590    0.9690    2.4380 C   0  0  0  0  0  0  0  0  0  0  0  0
    3.9290    0.9080    1.6920 C   0  0  0  0  0  0  0  0  0  0  0  0
    4.1400    0.7880    0.2190 C   0  0  0  0  0  0  0  0  0  0  0  0
    2.8670    0.7460   -0.5700 C   0  0  2  0  0  0  0  0  0  0  0  0
    2.1250    1.9640   -0.3080 N   0  0  0  0  0  0  0  0  0  0  0  0
    2.0840   -0.4810   -0.4740 C   0  0  0  0  0  0  0  0  0  0  0  0
    2.6490   -1.6170   -0.6280 O   0  0  0  0  0  0  0  0  0  0  0  0
    2.6540    0.4060    5.5560 H   0  0  0  0  0  0  0  0  0  0  0  0
    4.0630    0.3010    6.6970 H   0  0  0  0  0  0  0  0  0  0  0  0
    5.4630   -1.4180    3.5180 H   0  0  0  0  0  0  0  0  0  0  0  0
    5.3440    1.9900    4.3840 H   0  0  0  0  0  0  0  0  0  0  0  0
    5.8840    0.0720    2.1920 H   0  0  0  0  0  0  0  0  0  0  0  0
    5.8650    1.8560    2.0930 H   0  0  0  0  0  0  0  0  0  0  0  0
    3.4110    1.8660    1.9020 H   0  0  0  0  0  0  0  0  0  0  0  0
    3.3910    0.0310    2.1050 H   0  0  0  0  0  0  0  0  0  0  0  0
    4.6330   -0.2180    0.0500 H   0  0  0  0  0  0  0  0  0  0  0  0
    4.8700    1.5160   -0.1830 H   0  0  0  0  0  0  0  0  0  0  0  0
    3.2040    0.8280   -1.6550 H   0  0  0  0  0  0  0  0  0  0  0  0
    2.8400    2.7150   -0.1180 H   0  0  0  0  0  0  0  0  0  0  0  0
    1.6080    2.2960   -1.1570 H   0  0  0  0  0  0  0  0  0  0  0  0
    0.6770   -0.5540   -0.2170 N   0  0  0  0  0  0  0  0  0  0  0  0
   -0.0610   -1.7990   -0.1490 C   0  0  1  0  0  0  0  0  0  0  0  0
   -0.9680   -1.8270    1.0390 C   0  0  0  0  0  0  0  0  0  0  0  0
   -0.3050   -1.7130    2.3550 C   0  0  0  0  0  0  0  0  0  0  0  0
    1.0270   -1.7960    2.6800 C   0  0  0  0  0  0  0  0  0  0  0  0
    1.1970   -1.6470    4.0160 N   0  0  0  0  0  0  0  0  0  0  0  0
   -0.0130   -1.4700    4.5550 C   0  0  0  0  0  0  0  0  0  0  0  0
   -0.4120   -1.2740    5.8780 C   0  0  0  0  0  0  0  0  0  0  0  0
   -1.7630   -1.1260    6.1060 C   0  0  0  0  0  0  0  0  0  0  0  0
   -2.7150   -1.1600    5.1160 C   0  0  0  0  0  0  0  0  0  0  0  0
   -2.3130   -1.3520    3.8180 C   0  0  0  0  0  0  0  0  0  0  0  0
   -0.9580   -1.5040    3.5660 C   0  0  0  0  0  0  0  0  0  0  0  0
   -0.9340   -1.9130   -1.3950 C   0  0  0  0  0  0  0  0  0  0  0  0
   -1.6320   -2.9370   -1.5660 O   0  0  0  0  0  0  0  0  0  0  0  0
    0.2060    0.3730   -0.0780 H   0  0  0  0  0  0  0  0  0  0  0  0
    0.6200   -2.6690   -0.1110 H   0  0  0  0  0  0  0  0  0  0  0  0
   -1.5870   -2.7640    1.0470 H   0  0  0  0  0  0  0  0  0  0  0  0
   -1.7030   -0.9730    1.0070 H   0  0  0  0  0  0  0  0  0  0  0  0
    1.8500   -1.9640    1.9650 H   0  0  0  0  0  0  0  0  0  0  0  0
    2.1210   -1.6760    4.5070 H   0  0  0  0  0  0  0  0  0  0  0  0
    0.3310   -1.2460    6.6530 H   0  0  0  0  0  0  0  0  0  0  0  0
   -2.0910   -0.9720    7.1310 H   0  0  0  0  0  0  0  0  0  0  0  0
   -3.7460   -1.0400    5.3480 H   0  0  0  0  0  0  0  0  0  0  0  0
   -3.0240   -1.3840    3.0220 H   0  0  0  0  0  0  0  0  0  0  0  0
   -6.8170   -3.1010   -2.6980 N   0  0  0  0  0  0  0  0  0  0  0  0
   -5.9600   -2.7530   -3.7750 C   0  0  0  0  0  0  0  0  0  0  0  0
   -5.8470   -3.5790   -4.7840 N   0  0  0  0  0  0  0  0  0  0  0  0
   -5.2340   -1.5440   -3.7730 N   0  0  0  0  0  0  0  0  0  0  0  0
   -4.3970   -1.1920   -4.8930 C   0  0  0  0  0  0  0  0  0  0  0  0
   -3.7040    0.1520   -4.6840 C   0  0  0  0  0  0  0  0  0  0  0  0
   -2.8250    0.1430   -3.4770 C   0  0  0  0  0  0  0  0  0  0  0  0
   -1.7660   -0.9010   -3.5630 C   0  0  2  0  0  0  0  0  0  0  0  0
   -0.9480   -0.8780   -2.3290 N   0  0  0  0  0  0  0  0  0  0  0  0
   -0.9110   -0.7020   -4.7310 C   0  0  0  0  0  0  0  0  0  0  0  0
   -1.3180   -0.7470   -5.8870 O   0  0  0  0  0  0  0  0  0  0  0  0
    0.4600   -0.4460   -4.5230 O   0  0  0  0  0  0  0  0  0  0  0  0
   -6.4370   -3.0520   -1.7340 H   0  0  0  0  0  0  0  0  0  0  0  0
   -7.7840   -3.3880   -2.9210 H   0  0  0  0  0  0  0  0  0  0  0  0
   -6.3920   -4.4660   -4.7670 H   0  0  0  0  0  0  0  0  0  0  0  0
   -5.3010   -0.9040   -2.9640 H   0  0  0  0  0  0  0  0  0  0  0  0
   -3.6380   -1.9570   -5.1130 H   0  0  0  0  0  0  0  0  0  0  0  0
   -5.0400   -1.0700   -5.8120 H   0  0  0  0  0  0  0  0  0  0  0  0
   -3.1620    0.4030   -5.5980 H   0  0  0  0  0  0  0  0  0  0  0  0
   -4.4970    0.9580   -4.5820 H   0  0  0  0  0  0  0  0  0  0  0  0
   -3.5130   -0.0280   -2.5930 H   0  0  0  0  0  0  0  0  0  0  0  0
   -2.3950    1.1710   -3.3920 H   0  0  0  0  0  0  0  0  0  0  0  0
   -2.2720   -1.8870   -3.5570 H   0  0  0  0  0  0  0  0  0  0  0  0
   -0.3670   -0.0290   -2.1860 H   0  0  0  0  0  0  0  0  0  0  0  0
  1 13  1  0  0  0  0
  2  1  1  0  0  0  0
  3  2  2  0  0  0  0
  4 15  1  0  0  0  0
  4  2  1  0  0  0  0
  5  4  1  0  0  0  0
  6 18  1  0  0  0  0
  6 19  1  0  0  0  0
  6  5  1  0  0  0  0
  7  6  1  0  0  0  0
  8 22  1  6  0  0  0
  8 10  1  0  0  0  0
  8  9  1  0  0  0  0
  8  7  1  0  0  0  0
  9 23  1  0  0  0  0
 10 25  1  0  0  0  0
 11 10  2  0  0  0  0
 12  1  1  0  0  0  0
 14  3  1  0  0  0  0
 16  5  1  0  0  0  0
 17  5  1  0  0  0  0
 20  7  1  0  0  0  0
 21  7  1  0  0  0  0
 24  9  1  0  0  0  0
 25 26  1  0  0  0  0
 25 39  1  0  0  0  0
 26 40  1  1  0  0  0
 26 27  1  0  0  0  0
 27 41  1  0  0  0  0
 27 28  1  0  0  0  0
 28 29  2  0  0  0  0
 28 36  1  0  0  0  0
 29 30  1  0  0  0  0
 30 44  1  0  0  0  0
 30 31  1  0  0  0  0
 31 32  1  0  0  0  0
 32 33  2  0  0  0  0
 32 45  1  0  0  0  0
 33 46  1  0  0  0  0
 34 47  1  0  0  0  0
 34 33  1  0  0  0  0
 35 34  2  0  0  0  0
 36 35  1  0  0  0  0
 36 31  2  0  0  0  0
 37 26  1  0  0  0  0
 38 37  2  0  0  0  0
 42 27  1  0  0  0  0
 43 29  1  0  0  0  0
 48 35  1  0  0  0  0
 49 61  1  0  0  0  0
 50 52  1  0  0  0  0
 50 49  1  0  0  0  0
 51 63  1  0  0  0  0
 51 50  2  0  0  0  0
 52 64  1  0  0  0  0
 53 54  1  0  0  0  0
 53 52  1  0  0  0  0
 54 68  1  0  0  0  0
 54 55  1  0  0  0  0
 55 70  1  0  0  0  0
 55 69  1  0  0  0  0
 56 71  1  6  0  0  0
 56 55  1  0  0  0  0
 56 57  1  0  0  0  0
 57 72  1  0  0  0  0
 57 37  1  0  0  0  0
 58 60  1  0  0  0  0
 58 56  1  0  0  0  0
 59 58  2  0  0  0  0
 62 49  1  0  0  0  0
 65 53  1  0  0  0  0
 66 53  1  0  0  0  0
 67 54  1  0  0  0  0
M  END
$$$$
