RWS.pdb
 OpenBabel07022418073D

 60 61  0  0  1  0  0  0  0  0999 V2000
   -1.6660    0.8380    3.4400 N   0  0  0  0  0  0  0  0  0  0  0  0
   -0.3420    0.4950    3.8500 C   0  0  0  0  0  0  0  0  0  0  0  0
   -0.1030   -0.5810    4.4810 N   0  0  0  0  0  0  0  0  0  0  0  0
    0.7590    1.3840    3.5470 N   0  0  0  0  0  0  0  0  0  0  0  0
    2.0610    0.9030    3.8200 C   0  0  0  0  0  0  0  0  0  0  0  0
    3.1600    1.7820    3.3570 C   0  0  0  0  0  0  0  0  0  0  0  0
    3.3580    1.9820    1.9010 C   0  0  0  0  0  0  0  0  0  0  0  0
    2.3020    2.5560    1.0610 C   0  0  2  0  0  0  0  0  0  0  0  0
    1.8890    3.8600    1.4710 N   0  0  0  0  0  0  0  0  0  0  0  0
    1.2400    1.6560    0.5790 C   0  0  0  0  0  0  0  0  0  0  0  0
    0.0600    2.1340    0.5240 O   0  0  0  0  0  0  0  0  0  0  0  0
   -2.4320    0.5730    4.0910 H   0  0  0  0  0  0  0  0  0  0  0  0
   -1.8990    1.3210    2.5570 H   0  0  0  0  0  0  0  0  0  0  0  0
   -0.8600   -1.2290    4.7110 H   0  0  0  0  0  0  0  0  0  0  0  0
    0.4770    2.3100    3.1830 H   0  0  0  0  0  0  0  0  0  0  0  0
    2.1900   -0.1630    3.4440 H   0  0  0  0  0  0  0  0  0  0  0  0
    2.1370    0.8030    4.9430 H   0  0  0  0  0  0  0  0  0  0  0  0
    4.1030    1.3930    3.8530 H   0  0  0  0  0  0  0  0  0  0  0  0
    3.0210    2.7720    3.9000 H   0  0  0  0  0  0  0  0  0  0  0  0
    4.3250    2.5990    1.8120 H   0  0  0  0  0  0  0  0  0  0  0  0
    3.7290    0.9820    1.5060 H   0  0  0  0  0  0  0  0  0  0  0  0
    2.8630    2.7960    0.0470 H   0  0  0  0  0  0  0  0  0  0  0  0
    2.5480    4.6300    1.1800 H   0  0  0  0  0  0  0  0  0  0  0  0
    0.9210    4.1170    1.2100 H   0  0  0  0  0  0  0  0  0  0  0  0
    1.4300    0.3320    0.1800 N   0  0  0  0  0  0  0  0  0  0  0  0
    0.3110   -0.4760   -0.2860 C   0  0  1  0  0  0  0  0  0  0  0  0
    0.6120   -0.8440   -1.6750 C   0  0  0  0  0  0  0  0  0  0  0  0
   -0.2700   -1.6390   -2.4750 C   0  0  0  0  0  0  0  0  0  0  0  0
   -0.0230   -2.9640   -2.7850 C   0  0  0  0  0  0  0  0  0  0  0  0
   -1.0060   -3.4290   -3.5460 N   0  0  0  0  0  0  0  0  0  0  0  0
   -1.9260   -2.4910   -3.7790 C   0  0  0  0  0  0  0  0  0  0  0  0
   -3.1090   -2.4900   -4.4990 C   0  0  0  0  0  0  0  0  0  0  0  0
   -3.8290   -1.3160   -4.5290 C   0  0  0  0  0  0  0  0  0  0  0  0
   -3.3640   -0.1810   -3.8510 C   0  0  0  0  0  0  0  0  0  0  0  0
   -2.1820   -0.2110   -3.1420 C   0  0  0  0  0  0  0  0  0  0  0  0
   -1.4690   -1.3660   -3.1100 C   0  0  0  0  0  0  0  0  0  0  0  0
    0.3020   -1.6700    0.5930 C   0  0  0  0  0  0  0  0  0  0  0  0
    1.1700   -1.8290    1.5210 O   0  0  0  0  0  0  0  0  0  0  0  0
    2.4070   -0.0440    0.2320 H   0  0  0  0  0  0  0  0  0  0  0  0
   -0.5800    0.1630   -0.1490 H   0  0  0  0  0  0  0  0  0  0  0  0
    1.6410   -1.2620   -1.7150 H   0  0  0  0  0  0  0  0  0  0  0  0
    0.7350    0.1400   -2.2380 H   0  0  0  0  0  0  0  0  0  0  0  0
    0.8260   -3.5810   -2.4840 H   0  0  0  0  0  0  0  0  0  0  0  0
   -1.0840   -4.4040   -3.9320 H   0  0  0  0  0  0  0  0  0  0  0  0
   -3.4470   -3.3950   -5.0190 H   0  0  0  0  0  0  0  0  0  0  0  0
   -4.7530   -1.3120   -5.0900 H   0  0  0  0  0  0  0  0  0  0  0  0
   -3.9510    0.7170   -3.8960 H   0  0  0  0  0  0  0  0  0  0  0  0
   -1.8410    0.6530   -2.6340 H   0  0  0  0  0  0  0  0  0  0  0  0
   -2.1430   -2.7080    2.7850 O   0  0  0  0  0  0  0  0  0  0  0  0
   -1.9610   -3.9100    2.1090 C   0  0  0  0  0  0  0  0  0  0  0  0
   -0.5940   -3.8660    1.4110 C   0  0  2  0  0  0  0  0  0  0  0  0
   -0.6490   -2.7370    0.5010 N   0  0  0  0  0  0  0  0  0  0  0  0
   -0.4660   -5.1710    0.7260 C   0  0  0  0  0  0  0  0  0  0  0  0
   -0.4280   -5.2050   -0.5300 O   0  0  0  0  0  0  0  0  0  0  0  0
   -0.3870   -6.3710    1.4310 O   0  0  0  0  0  0  0  0  0  0  0  0
   -3.0950   -2.4690    2.8860 H   0  0  0  0  0  0  0  0  0  0  0  0
   -2.0560   -4.7780    2.7620 H   0  0  0  0  0  0  0  0  0  0  0  0
   -2.7100   -3.9160    1.2660 H   0  0  0  0  0  0  0  0  0  0  0  0
    0.2300   -3.7570    2.1460 H   0  0  0  0  0  0  0  0  0  0  0  0
   -1.3720   -2.6560   -0.2440 H   0  0  0  0  0  0  0  0  0  0  0  0
  1  2  1  0  0  0  0
  1 12  1  0  0  0  0
  2  3  2  0  0  0  0
  3 14  1  0  0  0  0
  4  5  1  0  0  0  0
  4  2  1  0  0  0  0
  5 17  1  0  0  0  0
  6  5  1  0  0  0  0
  6 18  1  0  0  0  0
  6 19  1  0  0  0  0
  7  6  1  0  0  0  0
  8 22  1  6  0  0  0
  8  9  1  0  0  0  0
  8  7  1  0  0  0  0
 10  8  1  0  0  0  0
 11 10  2  0  0  0  0
 13  1  1  0  0  0  0
 15  4  1  0  0  0  0
 16  5  1  0  0  0  0
 20  7  1  0  0  0  0
 21  7  1  0  0  0  0
 23  9  1  0  0  0  0
 24  9  1  0  0  0  0
 25 39  1  0  0  0  0
 25 10  1  0  0  0  0
 26 40  1  1  0  0  0
 26 25  1  0  0  0  0
 26 37  1  0  0  0  0
 27 26  1  0  0  0  0
 28 27  1  0  0  0  0
 29 43  1  0  0  0  0
 29 28  2  0  0  0  0
 30 29  1  0  0  0  0
 31 30  1  0  0  0  0
 31 36  1  0  0  0  0
 32 31  2  0  0  0  0
 33 32  1  0  0  0  0
 33 34  2  0  0  0  0
 34 35  1  0  0  0  0
 35 36  2  0  0  0  0
 35 48  1  0  0  0  0
 36 28  1  0  0  0  0
 37 38  2  0  0  0  0
 41 27  1  0  0  0  0
 42 27  1  0  0  0  0
 44 30  1  0  0  0  0
 45 32  1  0  0  0  0
 46 33  1  0  0  0  0
 47 34  1  0  0  0  0
 49 56  1  0  0  0  0
 50 57  1  0  0  0  0
 50 49  1  0  0  0  0
 51 50  1  0  0  0  0
 51 59  1  1  0  0  0
 52 37  1  0  0  0  0
 52 51  1  0  0  0  0
 53 51  1  0  0  0  0
 53 55  1  0  0  0  0
 54 53  2  0  0  0  0
 58 50  1  0  0  0  0
 60 52  1  0  0  0  0
M  END
$$$$
