RWT.pdb
 OpenBabel07022418073D

 63 64  0  0  1  0  0  0  0  0999 V2000
    4.1330   -2.6920    0.4230 N   0  0  0  0  0  0  0  0  0  0  0  0
    4.4890   -2.2870    1.7240 C   0  0  0  0  0  0  0  0  0  0  0  0
    3.7150   -2.6610    2.7170 N   0  0  0  0  0  0  0  0  0  0  0  0
    5.6210   -1.5120    2.0440 N   0  0  0  0  0  0  0  0  0  0  0  0
    5.6460   -0.5000    3.0670 C   0  0  0  0  0  0  0  0  0  0  0  0
    4.8470    0.7090    2.6960 C   0  0  0  0  0  0  0  0  0  0  0  0
    3.3840    0.4570    2.4300 C   0  0  0  0  0  0  0  0  0  0  0  0
    2.6660    1.7510    2.0960 C   0  0  2  0  0  0  0  0  0  0  0  0
    2.8350    2.5960    3.2700 N   0  0  0  0  0  0  0  0  0  0  0  0
    1.2440    1.5790    1.8410 C   0  0  0  0  0  0  0  0  0  0  0  0
    0.3690    2.0110    2.6180 O   0  0  0  0  0  0  0  0  0  0  0  0
    3.5320   -3.5320    0.2820 H   0  0  0  0  0  0  0  0  0  0  0  0
    4.4570   -2.1750   -0.4060 H   0  0  0  0  0  0  0  0  0  0  0  0
    2.8660   -3.2380    2.5500 H   0  0  0  0  0  0  0  0  0  0  0  0
    6.4950   -1.6930    1.4900 H   0  0  0  0  0  0  0  0  0  0  0  0
    5.1960   -0.9880    3.9860 H   0  0  0  0  0  0  0  0  0  0  0  0
    6.6870   -0.1660    3.2960 H   0  0  0  0  0  0  0  0  0  0  0  0
    5.3410    1.1520    1.7870 H   0  0  0  0  0  0  0  0  0  0  0  0
    4.9870    1.4660    3.5050 H   0  0  0  0  0  0  0  0  0  0  0  0
    3.2850   -0.1870    1.5320 H   0  0  0  0  0  0  0  0  0  0  0  0
    2.9640   -0.0550    3.2900 H   0  0  0  0  0  0  0  0  0  0  0  0
    3.2040    2.2490    1.2600 H   0  0  0  0  0  0  0  0  0  0  0  0
    3.5330    3.3670    3.0890 H   0  0  0  0  0  0  0  0  0  0  0  0
    1.9540    3.0720    3.5610 H   0  0  0  0  0  0  0  0  0  0  0  0
    0.8300    0.9090    0.6850 N   0  0  0  0  0  0  0  0  0  0  0  0
   -0.5800    0.7020    0.3640 C   0  0  1  0  0  0  0  0  0  0  0  0
   -1.0240    1.6620   -0.6750 C   0  0  0  0  0  0  0  0  0  0  0  0
   -2.4000    1.5860   -1.1650 C   0  0  0  0  0  0  0  0  0  0  0  0
   -3.4770    2.3340   -0.7440 C   0  0  0  0  0  0  0  0  0  0  0  0
   -4.5720    1.9750   -1.4310 N   0  0  0  0  0  0  0  0  0  0  0  0
   -4.2570    0.9980   -2.3110 C   0  0  0  0  0  0  0  0  0  0  0  0
   -4.9740    0.2780   -3.2670 C   0  0  0  0  0  0  0  0  0  0  0  0
   -4.3890   -0.6810   -4.0690 C   0  0  0  0  0  0  0  0  0  0  0  0
   -3.0420   -0.9230   -3.9040 C   0  0  0  0  0  0  0  0  0  0  0  0
   -2.3210   -0.2070   -2.9500 C   0  0  0  0  0  0  0  0  0  0  0  0
   -2.9170    0.7500   -2.1540 C   0  0  0  0  0  0  0  0  0  0  0  0
   -0.8870   -0.7100    0.2050 C   0  0  0  0  0  0  0  0  0  0  0  0
    0.1380   -1.4910    0.0710 O   0  0  0  0  0  0  0  0  0  0  0  0
    1.5140    0.5250   -0.0030 H   0  0  0  0  0  0  0  0  0  0  0  0
   -1.1200    1.0440    1.3060 H   0  0  0  0  0  0  0  0  0  0  0  0
   -0.9050    2.7220   -0.2710 H   0  0  0  0  0  0  0  0  0  0  0  0
   -0.3550    1.6940   -1.5710 H   0  0  0  0  0  0  0  0  0  0  0  0
   -3.4500    3.1050    0.0320 H   0  0  0  0  0  0  0  0  0  0  0  0
   -5.5590    2.3430   -1.3620 H   0  0  0  0  0  0  0  0  0  0  0  0
   -6.0390    0.4980   -3.3670 H   0  0  0  0  0  0  0  0  0  0  0  0
   -4.9710   -1.2210   -4.8000 H   0  0  0  0  0  0  0  0  0  0  0  0
   -2.5430   -1.6800   -4.5260 H   0  0  0  0  0  0  0  0  0  0  0  0
   -1.2700   -0.3930   -2.8170 H   0  0  0  0  0  0  0  0  0  0  0  0
   -2.5160   -4.8960    1.2700 C   0  0  0  0  0  0  0  0  0  0  0  0
   -2.3860   -3.3960    1.4090 C   0  0  1  0  0  0  0  0  0  0  0  0
   -1.2910   -3.1300    2.1950 O   0  0  0  0  0  0  0  0  0  0  0  0
   -2.2820   -2.7250    0.0250 C   0  0  2  0  0  0  0  0  0  0  0  0
   -2.1850   -1.2910    0.1920 N   0  0  0  0  0  0  0  0  0  0  0  0
   -3.4350   -3.1490   -0.8000 C   0  0  0  0  0  0  0  0  0  0  0  0
   -3.5610   -4.3640   -1.0650 O   0  0  0  0  0  0  0  0  0  0  0  0
   -4.3700   -2.2660   -1.2810 O   0  0  0  0  0  0  0  0  0  0  0  0
   -3.5800   -5.1780    1.1350 H   0  0  0  0  0  0  0  0  0  0  0  0
   -1.9320   -5.2880    0.4140 H   0  0  0  0  0  0  0  0  0  0  0  0
   -2.0850   -5.3420    2.1980 H   0  0  0  0  0  0  0  0  0  0  0  0
   -3.2900   -3.0250    1.9430 H   0  0  0  0  0  0  0  0  0  0  0  0
   -1.3040   -3.7110    2.9720 H   0  0  0  0  0  0  0  0  0  0  0  0
   -1.3150   -3.0920   -0.3640 H   0  0  0  0  0  0  0  0  0  0  0  0
   -3.0060   -0.6670    0.3110 H   0  0  0  0  0  0  0  0  0  0  0  0
  1  2  1  0  0  0  0
  2  4  1  0  0  0  0
  2  3  2  0  0  0  0
  4  5  1  0  0  0  0
  5 17  1  0  0  0  0
  5 16  1  0  0  0  0
  6  5  1  0  0  0  0
  6 19  1  0  0  0  0
  7  6  1  0  0  0  0
  7 21  1  0  0  0  0
  8 22  1  6  0  0  0
  8  7  1  0  0  0  0
  8  9  1  0  0  0  0
  9 24  1  0  0  0  0
 10  8  1  0  0  0  0
 10 11  2  0  0  0  0
 12  1  1  0  0  0  0
 13  1  1  0  0  0  0
 14  3  1  0  0  0  0
 15  4  1  0  0  0  0
 18  6  1  0  0  0  0
 20  7  1  0  0  0  0
 23  9  1  0  0  0  0
 25 10  1  0  0  0  0
 26 25  1  0  0  0  0
 26 40  1  1  0  0  0
 27 41  1  0  0  0  0
 27 26  1  0  0  0  0
 28 29  2  0  0  0  0
 28 27  1  0  0  0  0
 29 43  1  0  0  0  0
 30 44  1  0  0  0  0
 30 29  1  0  0  0  0
 31 36  1  0  0  0  0
 31 30  1  0  0  0  0
 32 31  2  0  0  0  0
 33 34  2  0  0  0  0
 33 32  1  0  0  0  0
 34 35  1  0  0  0  0
 35 48  1  0  0  0  0
 35 36  2  0  0  0  0
 36 28  1  0  0  0  0
 37 26  1  0  0  0  0
 38 37  2  0  0  0  0
 39 25  1  0  0  0  0
 42 27  1  0  0  0  0
 45 32  1  0  0  0  0
 46 33  1  0  0  0  0
 47 34  1  0  0  0  0
 49 50  1  0  0  0  0
 49 59  1  0  0  0  0
 50 60  1  1  0  0  0
 50 51  1  0  0  0  0
 51 61  1  0  0  0  0
 52 62  1  6  0  0  0
 52 53  1  0  0  0  0
 52 50  1  0  0  0  0
 53 37  1  0  0  0  0
 53 63  1  0  0  0  0
 54 52  1  0  0  0  0
 55 54  1  0  0  0  0
 56 54  2  0  0  0  0
 57 49  1  0  0  0  0
 58 49  1  0  0  0  0
M  END
$$$$
