RWV.pdb
 OpenBabel07022418073D

 65 66  0  0  1  0  0  0  0  0999 V2000
    4.2600   -4.3550    4.0910 N   0  0  0  0  0  0  0  0  0  0  0  0
    4.4350   -3.0170    3.6750 C   0  0  0  0  0  0  0  0  0  0  0  0
    5.3940   -2.7100    2.8730 N   0  0  0  0  0  0  0  0  0  0  0  0
    3.5640   -1.9650    4.1240 N   0  0  0  0  0  0  0  0  0  0  0  0
    3.7650   -0.5970    3.7240 C   0  0  0  0  0  0  0  0  0  0  0  0
    3.4940   -0.3690    2.2510 C   0  0  0  0  0  0  0  0  0  0  0  0
    3.7230    1.0790    1.8780 C   0  0  0  0  0  0  0  0  0  0  0  0
    3.4620    1.3610    0.4350 C   0  0  2  0  0  0  0  0  0  0  0  0
    3.7330    2.7870    0.2000 N   0  0  0  0  0  0  0  0  0  0  0  0
    2.0230    1.1650    0.0690 C   0  0  0  0  0  0  0  0  0  0  0  0
    1.7860    0.9800   -1.1460 O   0  0  0  0  0  0  0  0  0  0  0  0
    4.5290   -4.6200    5.0530 H   0  0  0  0  0  0  0  0  0  0  0  0
    3.8680   -5.0780    3.4520 H   0  0  0  0  0  0  0  0  0  0  0  0
    6.0310   -3.4600    2.5410 H   0  0  0  0  0  0  0  0  0  0  0  0
    2.7960   -2.2670    4.7470 H   0  0  0  0  0  0  0  0  0  0  0  0
    4.7340   -0.1820    4.0320 H   0  0  0  0  0  0  0  0  0  0  0  0
    2.9800    0.0160    4.2590 H   0  0  0  0  0  0  0  0  0  0  0  0
    2.4780   -0.6620    1.9540 H   0  0  0  0  0  0  0  0  0  0  0  0
    4.1940   -1.0410    1.7030 H   0  0  0  0  0  0  0  0  0  0  0  0
    4.7890    1.2840    2.1070 H   0  0  0  0  0  0  0  0  0  0  0  0
    3.1420    1.7540    2.5530 H   0  0  0  0  0  0  0  0  0  0  0  0
    4.1500    0.8030   -0.1980 H   0  0  0  0  0  0  0  0  0  0  0  0
    2.9830    3.3180    0.7260 H   0  0  0  0  0  0  0  0  0  0  0  0
    3.6490    2.9770   -0.8080 H   0  0  0  0  0  0  0  0  0  0  0  0
    0.9730    1.1840    1.0160 N   0  0  0  0  0  0  0  0  0  0  0  0
   -0.4340    0.9860    0.6480 C   0  0  1  0  0  0  0  0  0  0  0  0
   -0.9580    2.1440   -0.0840 C   0  0  0  0  0  0  0  0  0  0  0  0
   -2.3400    2.0290   -0.5350 C   0  0  0  0  0  0  0  0  0  0  0  0
   -3.4850    2.4710    0.1480 C   0  0  0  0  0  0  0  0  0  0  0  0
   -4.5810    2.1850   -0.5750 N   0  0  0  0  0  0  0  0  0  0  0  0
   -4.2350    1.5710   -1.7180 C   0  0  0  0  0  0  0  0  0  0  0  0
   -4.9900    1.1060   -2.7880 C   0  0  0  0  0  0  0  0  0  0  0  0
   -4.3430    0.5260   -3.8690 C   0  0  0  0  0  0  0  0  0  0  0  0
   -2.9760    0.4140   -3.8760 C   0  0  0  0  0  0  0  0  0  0  0  0
   -2.2470    0.8920   -2.7820 C   0  0  0  0  0  0  0  0  0  0  0  0
   -2.8610    1.4710   -1.6980 C   0  0  0  0  0  0  0  0  0  0  0  0
   -0.6420   -0.3700    0.1540 C   0  0  0  0  0  0  0  0  0  0  0  0
    0.4130   -1.0280   -0.1820 O   0  0  0  0  0  0  0  0  0  0  0  0
    1.2210    1.3480    2.0000 H   0  0  0  0  0  0  0  0  0  0  0  0
   -0.9920    0.9990    1.6500 H   0  0  0  0  0  0  0  0  0  0  0  0
   -0.9270    3.0360    0.6130 H   0  0  0  0  0  0  0  0  0  0  0  0
   -0.3410    2.4500   -0.9690 H   0  0  0  0  0  0  0  0  0  0  0  0
   -3.4450    2.9670    1.1170 H   0  0  0  0  0  0  0  0  0  0  0  0
   -5.5730    2.4050   -0.3000 H   0  0  0  0  0  0  0  0  0  0  0  0
   -6.0640    1.1680   -2.8350 H   0  0  0  0  0  0  0  0  0  0  0  0
   -4.8880    0.1500   -4.7240 H   0  0  0  0  0  0  0  0  0  0  0  0
   -2.4410   -0.0300   -4.7010 H   0  0  0  0  0  0  0  0  0  0  0  0
   -1.1560    0.8010   -2.7910 H   0  0  0  0  0  0  0  0  0  0  0  0
   -2.1960   -4.7940    0.1410 C   0  0  0  0  0  0  0  0  0  0  0  0
   -2.1680   -3.3850    0.6840 C   0  0  0  0  0  0  0  0  0  0  0  0
   -1.1200   -3.2950    1.7430 C   0  0  0  0  0  0  0  0  0  0  0  0
   -1.9080   -2.4400   -0.4930 C   0  0  2  0  0  0  0  0  0  0  0  0
   -1.8710   -1.0580    0.0090 N   0  0  0  0  0  0  0  0  0  0  0  0
   -3.0370   -2.6430   -1.4140 C   0  0  0  0  0  0  0  0  0  0  0  0
   -3.8340   -1.6870   -1.6050 O   0  0  0  0  0  0  0  0  0  0  0  0
   -3.2690   -3.8370   -2.0830 O   0  0  0  0  0  0  0  0  0  0  0  0
   -3.2280   -5.1120   -0.1310 H   0  0  0  0  0  0  0  0  0  0  0  0
   -1.4840   -4.8450   -0.7220 H   0  0  0  0  0  0  0  0  0  0  0  0
   -1.7630   -5.4640    0.9210 H   0  0  0  0  0  0  0  0  0  0  0  0
   -3.1370   -3.0710    1.1160 H   0  0  0  0  0  0  0  0  0  0  0  0
   -0.0990   -3.5030    1.4060 H   0  0  0  0  0  0  0  0  0  0  0  0
   -1.3630   -4.1040    2.4910 H   0  0  0  0  0  0  0  0  0  0  0  0
   -1.1890   -2.3490    2.3560 H   0  0  0  0  0  0  0  0  0  0  0  0
   -0.9660   -2.7340   -0.9850 H   0  0  0  0  0  0  0  0  0  0  0  0
   -2.7410   -0.5700    0.2720 H   0  0  0  0  0  0  0  0  0  0  0  0
  1 12  1  0  0  0  0
  2  1  1  0  0  0  0
  2  4  1  0  0  0  0
  3  2  2  0  0  0  0
  4 15  1  0  0  0  0
  5 16  1  0  0  0  0
  5  4  1  0  0  0  0
  5 17  1  0  0  0  0
  6  5  1  0  0  0  0
  7 20  1  0  0  0  0
  7  6  1  0  0  0  0
  7 21  1  0  0  0  0
  8 22  1  6  0  0  0
  8  7  1  0  0  0  0
  9  8  1  0  0  0  0
  9 23  1  0  0  0  0
 10  8  1  0  0  0  0
 10 25  1  0  0  0  0
 11 10  2  0  0  0  0
 13  1  1  0  0  0  0
 14  3  1  0  0  0  0
 18  6  1  0  0  0  0
 19  6  1  0  0  0  0
 24  9  1  0  0  0  0
 25 39  1  0  0  0  0
 26 25  1  0  0  0  0
 26 40  1  1  0  0  0
 27 41  1  0  0  0  0
 27 26  1  0  0  0  0
 28 27  1  0  0  0  0
 28 29  2  0  0  0  0
 29 43  1  0  0  0  0
 30 44  1  0  0  0  0
 30 29  1  0  0  0  0
 31 36  1  0  0  0  0
 31 30  1  0  0  0  0
 32 31  2  0  0  0  0
 33 32  1  0  0  0  0
 34 33  2  0  0  0  0
 34 35  1  0  0  0  0
 35 36  2  0  0  0  0
 36 28  1  0  0  0  0
 37 26  1  0  0  0  0
 38 37  2  0  0  0  0
 42 27  1  0  0  0  0
 45 32  1  0  0  0  0
 46 33  1  0  0  0  0
 47 34  1  0  0  0  0
 48 35  1  0  0  0  0
 49 50  1  0  0  0  0
 49 59  1  0  0  0  0
 50 60  1  0  0  0  0
 50 51  1  0  0  0  0
 51 63  1  0  0  0  0
 51 62  1  0  0  0  0
 52 64  1  6  0  0  0
 52 53  1  0  0  0  0
 52 50  1  0  0  0  0
 53 37  1  0  0  0  0
 53 65  1  0  0  0  0
 54 52  1  0  0  0  0
 55 54  1  0  0  0  0
 56 54  2  0  0  0  0
 57 49  1  0  0  0  0
 58 49  1  0  0  0  0
 61 51  1  0  0  0  0
M  END
$$$$
