RWY.pdb
 OpenBabel07022418073D

 70 72  0  0  1  0  0  0  0  0999 V2000
    7.1440   -2.3240    1.3210 N   0  0  0  0  0  0  0  0  0  0  0  0
    6.7470   -3.2790    0.3630 C   0  0  0  0  0  0  0  0  0  0  0  0
    7.3190   -4.4490    0.3990 N   0  0  0  0  0  0  0  0  0  0  0  0
    5.7650   -2.9780   -0.5990 N   0  0  0  0  0  0  0  0  0  0  0  0
    4.9520   -4.0200   -1.1800 C   0  0  0  0  0  0  0  0  0  0  0  0
    3.9770   -3.4850   -2.1830 C   0  0  0  0  0  0  0  0  0  0  0  0
    3.0120   -2.4780   -1.5940 C   0  0  0  0  0  0  0  0  0  0  0  0
    2.0970   -2.0260   -2.6890 C   0  0  2  0  0  0  0  0  0  0  0  0
    2.8800   -1.4190   -3.7420 N   0  0  0  0  0  0  0  0  0  0  0  0
    1.0690   -1.0610   -2.2480 C   0  0  0  0  0  0  0  0  0  0  0  0
    1.0070    0.0680   -2.8210 O   0  0  0  0  0  0  0  0  0  0  0  0
    6.7320   -2.3420    2.2670 H   0  0  0  0  0  0  0  0  0  0  0  0
    7.8460   -1.6040    1.0830 H   0  0  0  0  0  0  0  0  0  0  0  0
    8.0460   -4.6830    1.1060 H   0  0  0  0  0  0  0  0  0  0  0  0
    5.6110   -2.0010   -0.9040 H   0  0  0  0  0  0  0  0  0  0  0  0
    5.6520   -4.6920   -1.7440 H   0  0  0  0  0  0  0  0  0  0  0  0
    4.4580   -4.6560   -0.4140 H   0  0  0  0  0  0  0  0  0  0  0  0
    3.3510   -4.3450   -2.5360 H   0  0  0  0  0  0  0  0  0  0  0  0
    4.5360   -3.0700   -3.0490 H   0  0  0  0  0  0  0  0  0  0  0  0
    3.6110   -1.6760   -1.1390 H   0  0  0  0  0  0  0  0  0  0  0  0
    2.4810   -2.9810   -0.7610 H   0  0  0  0  0  0  0  0  0  0  0  0
    1.6430   -2.9430   -3.1380 H   0  0  0  0  0  0  0  0  0  0  0  0
    2.3460   -0.6290   -4.1700 H   0  0  0  0  0  0  0  0  0  0  0  0
    3.7170   -0.9750   -3.2640 H   0  0  0  0  0  0  0  0  0  0  0  0
    0.1430   -1.3010   -1.2290 N   0  0  0  0  0  0  0  0  0  0  0  0
   -0.8420   -0.2970   -0.8520 C   0  0  1  0  0  0  0  0  0  0  0  0
   -2.1690   -0.8990   -1.1150 C   0  0  0  0  0  0  0  0  0  0  0  0
   -3.3550   -0.1080   -0.8330 C   0  0  0  0  0  0  0  0  0  0  0  0
   -4.2220   -0.2780    0.2220 C   0  0  0  0  0  0  0  0  0  0  0  0
   -5.1770    0.6570    0.0860 N   0  0  0  0  0  0  0  0  0  0  0  0
   -4.9710    1.4210   -1.0000 C   0  0  0  0  0  0  0  0  0  0  0  0
   -5.6470    2.4890   -1.5650 C   0  0  0  0  0  0  0  0  0  0  0  0
   -5.1700    3.0850   -2.7260 C   0  0  0  0  0  0  0  0  0  0  0  0
   -4.0230    2.6270   -3.3320 C   0  0  0  0  0  0  0  0  0  0  0  0
   -3.3620    1.5670   -2.7600 C   0  0  0  0  0  0  0  0  0  0  0  0
   -3.8180    0.9490   -1.5950 C   0  0  0  0  0  0  0  0  0  0  0  0
   -0.5460    0.1740    0.4930 C   0  0  0  0  0  0  0  0  0  0  0  0
    0.4480   -0.3190    1.0860 O   0  0  0  0  0  0  0  0  0  0  0  0
    0.1370   -2.2010   -0.7180 H   0  0  0  0  0  0  0  0  0  0  0  0
   -0.6920    0.6030   -1.5330 H   0  0  0  0  0  0  0  0  0  0  0  0
   -2.1620   -1.1860   -2.2100 H   0  0  0  0  0  0  0  0  0  0  0  0
   -2.2740   -1.8980   -0.5980 H   0  0  0  0  0  0  0  0  0  0  0  0
   -4.1760   -1.0180    1.0270 H   0  0  0  0  0  0  0  0  0  0  0  0
   -5.9990    0.7880    0.7480 H   0  0  0  0  0  0  0  0  0  0  0  0
   -6.5490    2.8510   -1.0910 H   0  0  0  0  0  0  0  0  0  0  0  0
   -5.7240    3.9090   -3.1310 H   0  0  0  0  0  0  0  0  0  0  0  0
   -3.6970    3.1260   -4.2320 H   0  0  0  0  0  0  0  0  0  0  0  0
   -2.4650    1.2130   -3.2380 H   0  0  0  0  0  0  0  0  0  0  0  0
   -5.4990   -2.4940    4.7770 O   0  0  0  0  0  0  0  0  0  0  0  0
   -4.3650   -1.7110    4.4940 C   0  0  0  0  0  0  0  0  0  0  0  0
   -3.4190   -2.1090    3.5750 C   0  0  0  0  0  0  0  0  0  0  0  0
   -2.3060   -1.3620    3.2840 C   0  0  0  0  0  0  0  0  0  0  0  0
   -2.0920   -0.1660    3.9130 C   0  0  0  0  0  0  0  0  0  0  0  0
   -0.9030    0.6050    3.6000 C   0  0  0  0  0  0  0  0  0  0  0  0
   -0.9560    1.6080    2.5320 C   0  0  2  0  0  0  0  0  0  0  0  0
   -1.2900    1.1570    1.2050 N   0  0  0  0  0  0  0  0  0  0  0  0
    0.4610    2.1510    2.3990 C   0  0  0  0  0  0  0  0  0  0  0  0
    0.9930    2.5850    3.4570 O   0  0  0  0  0  0  0  0  0  0  0  0
   -3.0280    0.2480    4.8360 C   0  0  0  0  0  0  0  0  0  0  0  0
   -4.1460   -0.5070    5.1250 C   0  0  0  0  0  0  0  0  0  0  0  0
    1.1460    2.1840    1.2210 O   0  0  0  0  0  0  0  0  0  0  0  0
   -5.2840   -3.4400    5.1310 H   0  0  0  0  0  0  0  0  0  0  0  0
   -3.5920   -3.0660    3.0730 H   0  0  0  0  0  0  0  0  0  0  0  0
   -1.6150   -1.7420    2.5530 H   0  0  0  0  0  0  0  0  0  0  0  0
   -0.6030    1.1440    4.5490 H   0  0  0  0  0  0  0  0  0  0  0  0
   -0.0500   -0.0980    3.4330 H   0  0  0  0  0  0  0  0  0  0  0  0
   -1.5490    2.5290    2.7750 H   0  0  0  0  0  0  0  0  0  0  0  0
   -2.1320    1.6010    0.7640 H   0  0  0  0  0  0  0  0  0  0  0  0
   -2.8720    1.2120    5.3540 H   0  0  0  0  0  0  0  0  0  0  0  0
   -4.8910   -0.1870    5.8530 H   0  0  0  0  0  0  0  0  0  0  0  0
  1 12  1  0  0  0  0
  2  3  2  0  0  0  0
  2  1  1  0  0  0  0
  3 14  1  0  0  0  0
  4  2  1  0  0  0  0
  5  4  1  0  0  0  0
  5 17  1  0  0  0  0
  6  7  1  0  0  0  0
  6  5  1  0  0  0  0
  7 20  1  0  0  0  0
  7 21  1  0  0  0  0
  8 22  1  6  0  0  0
  8 10  1  0  0  0  0
  8  7  1  0  0  0  0
  9 24  1  0  0  0  0
  9  8  1  0  0  0  0
 10 25  1  0  0  0  0
 11 10  2  0  0  0  0
 13  1  1  0  0  0  0
 15  4  1  0  0  0  0
 16  5  1  0  0  0  0
 18  6  1  0  0  0  0
 19  6  1  0  0  0  0
 23  9  1  0  0  0  0
 25 26  1  0  0  0  0
 25 39  1  0  0  0  0
 26 40  1  6  0  0  0
 26 37  1  0  0  0  0
 27 26  1  0  0  0  0
 27 28  1  0  0  0  0
 27 42  1  0  0  0  0
 28 29  2  0  0  0  0
 29 43  1  0  0  0  0
 30 29  1  0  0  0  0
 30 44  1  0  0  0  0
 31 30  1  0  0  0  0
 32 45  1  0  0  0  0
 32 31  1  0  0  0  0
 33 32  2  0  0  0  0
 34 35  2  0  0  0  0
 34 33  1  0  0  0  0
 35 36  1  0  0  0  0
 36 31  2  0  0  0  0
 36 28  1  0  0  0  0
 37 38  2  0  0  0  0
 37 56  1  0  0  0  0
 41 27  1  0  0  0  0
 46 33  1  0  0  0  0
 47 34  1  0  0  0  0
 48 35  1  0  0  0  0
 49 62  1  0  0  0  0
 50 49  1  0  0  0  0
 50 60  1  0  0  0  0
 51 50  2  0  0  0  0
 52 51  1  0  0  0  0
 52 53  2  0  0  0  0
 53 59  1  0  0  0  0
 54 53  1  0  0  0  0
 54 65  1  0  0  0  0
 55 67  1  1  0  0  0
 55 54  1  0  0  0  0
 56 55  1  0  0  0  0
 57 55  1  0  0  0  0
 57 58  1  0  0  0  0
 59 60  2  0  0  0  0
 59 69  1  0  0  0  0
 60 70  1  0  0  0  0
 61 57  2  0  0  0  0
 63 51  1  0  0  0  0
 64 52  1  0  0  0  0
 66 54  1  0  0  0  0
 68 56  1  0  0  0  0
M  END
$$$$
