RYA.pdb
 OpenBabel07022418073D

 56 56  0  0  1  0  0  0  0  0999 V2000
    1.1370   -4.5110    2.7820 N   0  0  0  0  0  0  0  0  0  0  0  0
    2.0180   -3.5870    3.4180 C   0  0  0  0  0  0  0  0  0  0  0  0
    2.1580   -3.5580    4.7140 N   0  0  0  0  0  0  0  0  0  0  0  0
    2.7860   -2.6500    2.6460 N   0  0  0  0  0  0  0  0  0  0  0  0
    3.6050   -1.6270    3.2750 C   0  0  0  0  0  0  0  0  0  0  0  0
    4.2920   -0.7970    2.2850 C   0  0  0  0  0  0  0  0  0  0  0  0
    3.6760    0.1250    1.3510 C   0  0  0  0  0  0  0  0  0  0  0  0
    2.5820   -0.2630    0.4300 C   0  0  2  0  0  0  0  0  0  0  0  0
    2.3450    0.8900   -0.5160 N   0  0  0  0  0  0  0  0  0  0  0  0
    1.2370   -0.2590    1.1270 C   0  0  0  0  0  0  0  0  0  0  0  0
    1.1360   -0.4280    2.3160 O   0  0  0  0  0  0  0  0  0  0  0  0
    1.5630   -5.4000    2.4050 H   0  0  0  0  0  0  0  0  0  0  0  0
    0.1280   -4.3740    2.6650 H   0  0  0  0  0  0  0  0  0  0  0  0
    1.5870   -4.2540    5.2770 H   0  0  0  0  0  0  0  0  0  0  0  0
    2.7150   -2.7580    1.6090 H   0  0  0  0  0  0  0  0  0  0  0  0
    4.3660   -2.2370    3.8740 H   0  0  0  0  0  0  0  0  0  0  0  0
    3.0760   -1.0650    4.0740 H   0  0  0  0  0  0  0  0  0  0  0  0
    5.0290   -1.4890    1.7070 H   0  0  0  0  0  0  0  0  0  0  0  0
    5.0630   -0.1770    2.9060 H   0  0  0  0  0  0  0  0  0  0  0  0
    3.4040    1.1190    1.8550 H   0  0  0  0  0  0  0  0  0  0  0  0
    4.5200    0.4960    0.6530 H   0  0  0  0  0  0  0  0  0  0  0  0
    2.7730   -1.1390   -0.1620 H   0  0  0  0  0  0  0  0  0  0  0  0
    3.2990    1.2880   -0.6520 H   0  0  0  0  0  0  0  0  0  0  0  0
    1.9830    0.4360   -1.3760 H   0  0  0  0  0  0  0  0  0  0  0  0
   -3.0450    3.5720   -4.0070 O   0  0  0  0  0  0  0  0  0  0  0  0
   -2.7740    2.9980   -2.7460 C   0  0  0  0  0  0  0  0  0  0  0  0
   -1.5810    3.2350   -2.1040 C   0  0  0  0  0  0  0  0  0  0  0  0
   -1.3210    2.6660   -0.8620 C   0  0  0  0  0  0  0  0  0  0  0  0
   -2.2320    1.8510   -0.2300 C   0  0  0  0  0  0  0  0  0  0  0  0
   -1.9170    1.2800    1.0710 C   0  0  0  0  0  0  0  0  0  0  0  0
   -1.2280   -0.0540    1.0620 C   0  0  2  0  0  0  0  0  0  0  0  0
    0.0330   -0.0520    0.3890 N   0  0  0  0  0  0  0  0  0  0  0  0
   -2.1630   -1.0870    0.5560 C   0  0  0  0  0  0  0  0  0  0  0  0
   -3.2950   -1.1710    1.0850 O   0  0  0  0  0  0  0  0  0  0  0  0
   -3.4200    1.6170   -0.8740 C   0  0  0  0  0  0  0  0  0  0  0  0
   -3.6930    2.1850   -2.1250 C   0  0  0  0  0  0  0  0  0  0  0  0
   -3.0720    4.5980   -4.1020 H   0  0  0  0  0  0  0  0  0  0  0  0
   -0.8540    3.8800   -2.5990 H   0  0  0  0  0  0  0  0  0  0  0  0
   -0.3560    2.8890   -0.3930 H   0  0  0  0  0  0  0  0  0  0  0  0
   -1.2800    1.9800    1.6810 H   0  0  0  0  0  0  0  0  0  0  0  0
   -2.8510    1.1550    1.6860 H   0  0  0  0  0  0  0  0  0  0  0  0
   -1.0720   -0.3040    2.1500 H   0  0  0  0  0  0  0  0  0  0  0  0
    0.1170    0.0960   -0.6400 H   0  0  0  0  0  0  0  0  0  0  0  0
   -4.1450    0.9920   -0.4130 H   0  0  0  0  0  0  0  0  0  0  0  0
   -4.6360    1.9900   -2.6210 H   0  0  0  0  0  0  0  0  0  0  0  0
   -2.9950   -2.8220   -2.4740 C   0  0  0  0  0  0  0  0  0  0  0  0
   -2.7730   -2.9950   -0.9840 C   0  0  2  0  0  0  0  0  0  0  0  0
   -1.8510   -1.9880   -0.4950 N   0  0  0  0  0  0  0  0  0  0  0  0
   -2.1490   -4.3220   -0.7620 C   0  0  0  0  0  0  0  0  0  0  0  0
   -2.7400   -5.4010   -1.0980 O   0  0  0  0  0  0  0  0  0  0  0  0
   -0.8860   -4.4630   -0.1770 O   0  0  0  0  0  0  0  0  0  0  0  0
   -3.3970   -3.7560   -2.9260 H   0  0  0  0  0  0  0  0  0  0  0  0
   -2.0210   -2.6080   -2.9570 H   0  0  0  0  0  0  0  0  0  0  0  0
   -3.6410   -1.9410   -2.6890 H   0  0  0  0  0  0  0  0  0  0  0  0
   -3.7410   -2.9650   -0.4420 H   0  0  0  0  0  0  0  0  0  0  0  0
   -0.9120   -1.9500   -0.9640 H   0  0  0  0  0  0  0  0  0  0  0  0
  1  2  1  0  0  0  0
  2  3  2  0  0  0  0
  3 14  1  0  0  0  0
  4  5  1  0  0  0  0
  4  2  1  0  0  0  0
  5 16  1  0  0  0  0
  5 17  1  0  0  0  0
  6 19  1  0  0  0  0
  6  5  1  0  0  0  0
  7 20  1  0  0  0  0
  7  6  1  0  0  0  0
  8 22  1  6  0  0  0
  8 10  1  0  0  0  0
  8  7  1  0  0  0  0
  9  8  1  0  0  0  0
 10 11  2  0  0  0  0
 12  1  1  0  0  0  0
 13  1  1  0  0  0  0
 15  4  1  0  0  0  0
 18  6  1  0  0  0  0
 21  7  1  0  0  0  0
 23  9  1  0  0  0  0
 24  9  1  0  0  0  0
 25 26  1  0  0  0  0
 26 36  2  0  0  0  0
 26 27  1  0  0  0  0
 27 28  2  0  0  0  0
 28 39  1  0  0  0  0
 28 29  1  0  0  0  0
 29 30  1  0  0  0  0
 30 40  1  0  0  0  0
 30 41  1  0  0  0  0
 31 30  1  0  0  0  0
 31 42  1  1  0  0  0
 32 31  1  0  0  0  0
 32 10  1  0  0  0  0
 33 31  1  0  0  0  0
 33 34  2  0  0  0  0
 35 44  1  0  0  0  0
 35 29  2  0  0  0  0
 36 35  1  0  0  0  0
 37 25  1  0  0  0  0
 38 27  1  0  0  0  0
 43 32  1  0  0  0  0
 45 36  1  0  0  0  0
 46 47  1  0  0  0  0
 47 49  1  0  0  0  0
 47 48  1  0  0  0  0
 47 55  1  1  0  0  0
 48 33  1  0  0  0  0
 49 51  1  0  0  0  0
 50 49  2  0  0  0  0
 52 46  1  0  0  0  0
 53 46  1  0  0  0  0
 54 46  1  0  0  0  0
 56 48  1  0  0  0  0
M  END
$$$$
