RYD.pdb
 OpenBabel07022418073D

 59 59  0  0  1  0  0  0  0  0999 V2000
   -1.2290   -0.6630    4.6170 N   0  0  0  0  0  0  0  0  0  0  0  0
   -0.0200   -1.3850    4.3530 C   0  0  0  0  0  0  0  0  0  0  0  0
    0.0040   -2.6510    4.5810 N   0  0  0  0  0  0  0  0  0  0  0  0
    1.1120   -0.6860    3.8550 N   0  0  0  0  0  0  0  0  0  0  0  0
    2.0980   -1.3560    3.0840 C   0  0  0  0  0  0  0  0  0  0  0  0
    3.1760   -0.5460    2.4900 C   0  0  0  0  0  0  0  0  0  0  0  0
    2.9020    0.4260    1.4300 C   0  0  0  0  0  0  0  0  0  0  0  0
    1.9550    1.5320    1.5970 C   0  0  2  0  0  0  0  0  0  0  0  0
    2.2740    2.3940    2.7030 N   0  0  0  0  0  0  0  0  0  0  0  0
    0.5210    1.2430    1.5410 C   0  0  0  0  0  0  0  0  0  0  0  0
   -0.2790    1.7150    2.3980 O   0  0  0  0  0  0  0  0  0  0  0  0
   -2.1560   -0.9970    4.2870 H   0  0  0  0  0  0  0  0  0  0  0  0
   -1.1550    0.2250    5.1590 H   0  0  0  0  0  0  0  0  0  0  0  0
   -0.8580   -3.1000    4.9490 H   0  0  0  0  0  0  0  0  0  0  0  0
    1.1990    0.3070    4.1040 H   0  0  0  0  0  0  0  0  0  0  0  0
    1.5460   -1.9660    2.2970 H   0  0  0  0  0  0  0  0  0  0  0  0
    2.6040   -2.1790    3.6850 H   0  0  0  0  0  0  0  0  0  0  0  0
    3.9860   -1.2930    2.1710 H   0  0  0  0  0  0  0  0  0  0  0  0
    3.7210   -0.0220    3.3520 H   0  0  0  0  0  0  0  0  0  0  0  0
    3.9150    0.9160    1.1870 H   0  0  0  0  0  0  0  0  0  0  0  0
    2.6750   -0.0680    0.4330 H   0  0  0  0  0  0  0  0  0  0  0  0
    2.1150    2.2630    0.6890 H   0  0  0  0  0  0  0  0  0  0  0  0
    1.4320    2.5770    3.3200 H   0  0  0  0  0  0  0  0  0  0  0  0
    3.0650    1.9900    3.2880 H   0  0  0  0  0  0  0  0  0  0  0  0
   -0.6600    1.3840   -5.7840 O   0  0  0  0  0  0  0  0  0  0  0  0
   -1.0810    1.2820   -4.4750 C   0  0  0  0  0  0  0  0  0  0  0  0
   -0.5330    2.0990   -3.5030 C   0  0  0  0  0  0  0  0  0  0  0  0
   -0.9330    2.0210   -2.1860 C   0  0  0  0  0  0  0  0  0  0  0  0
   -1.9160    1.1070   -1.7730 C   0  0  0  0  0  0  0  0  0  0  0  0
   -2.2600    1.1150   -0.3650 C   0  0  0  0  0  0  0  0  0  0  0  0
   -1.4750    0.1840    0.5350 C   0  0  2  0  0  0  0  0  0  0  0  0
   -0.0840    0.4310    0.5450 N   0  0  0  0  0  0  0  0  0  0  0  0
   -1.8910   -1.2150    0.3460 C   0  0  0  0  0  0  0  0  0  0  0  0
   -3.0890   -1.5310    0.3320 O   0  0  0  0  0  0  0  0  0  0  0  0
   -2.4520    0.3050   -2.7360 C   0  0  0  0  0  0  0  0  0  0  0  0
   -2.0550    0.3810   -4.0480 C   0  0  0  0  0  0  0  0  0  0  0  0
   -1.1230    1.9530   -6.4920 H   0  0  0  0  0  0  0  0  0  0  0  0
    0.2410    2.8320   -3.7810 H   0  0  0  0  0  0  0  0  0  0  0  0
   -0.4580    2.6930   -1.4870 H   0  0  0  0  0  0  0  0  0  0  0  0
   -2.1860    2.1300    0.1030 H   0  0  0  0  0  0  0  0  0  0  0  0
   -3.3250    0.8220   -0.2550 H   0  0  0  0  0  0  0  0  0  0  0  0
   -1.8640    0.4730    1.5590 H   0  0  0  0  0  0  0  0  0  0  0  0
    0.5210    0.0130   -0.1920 H   0  0  0  0  0  0  0  0  0  0  0  0
   -3.2070   -0.4080   -2.4630 H   0  0  0  0  0  0  0  0  0  0  0  0
   -2.4840   -0.2570   -4.8060 H   0  0  0  0  0  0  0  0  0  0  0  0
   -0.9170   -2.2520    0.1690 N   0  0  0  0  0  0  0  0  0  0  0  0
   -1.3390   -3.6300   -0.0290 C   0  0  1  0  0  0  0  0  0  0  0  0
   -0.9630   -4.0590   -1.4230 C   0  0  0  0  0  0  0  0  0  0  0  0
    0.4980   -3.9900   -1.5900 C   0  0  0  0  0  0  0  0  0  0  0  0
    1.3350   -3.6910   -0.7050 O   0  0  0  0  0  0  0  0  0  0  0  0
   -0.7690   -4.5720    0.9490 C   0  0  0  0  0  0  0  0  0  0  0  0
    0.0140   -4.1690    1.8410 O   0  0  0  0  0  0  0  0  0  0  0  0
    1.0460   -4.2780   -2.8460 O   0  0  0  0  0  0  0  0  0  0  0  0
   -1.0820   -5.9170    0.9120 O   0  0  0  0  0  0  0  0  0  0  0  0
    0.0980   -2.0560    0.1820 H   0  0  0  0  0  0  0  0  0  0  0  0
   -2.4650   -3.6590    0.0370 H   0  0  0  0  0  0  0  0  0  0  0  0
   -1.5070   -3.4680   -2.1990 H   0  0  0  0  0  0  0  0  0  0  0  0
   -1.2430   -5.1450   -1.5470 H   0  0  0  0  0  0  0  0  0  0  0  0
    2.0280   -4.5230   -2.9260 H   0  0  0  0  0  0  0  0  0  0  0  0
  1 13  1  0  0  0  0
  2  3  2  0  0  0  0
  2  1  1  0  0  0  0
  3 14  1  0  0  0  0
  4 15  1  0  0  0  0
  4  2  1  0  0  0  0
  5 17  1  0  0  0  0
  5  4  1  0  0  0  0
  6  5  1  0  0  0  0
  6 19  1  0  0  0  0
  7  8  1  0  0  0  0
  7  6  1  0  0  0  0
  8 22  1  6  0  0  0
  8  9  1  0  0  0  0
  9 24  1  0  0  0  0
  9 23  1  0  0  0  0
 10  8  1  0  0  0  0
 10 11  2  0  0  0  0
 12  1  1  0  0  0  0
 16  5  1  0  0  0  0
 18  6  1  0  0  0  0
 20  7  1  0  0  0  0
 21  7  1  0  0  0  0
 25 26  1  0  0  0  0
 26 36  2  0  0  0  0
 26 27  1  0  0  0  0
 27 28  2  0  0  0  0
 28 29  1  0  0  0  0
 28 39  1  0  0  0  0
 29 30  1  0  0  0  0
 30 41  1  0  0  0  0
 30 40  1  0  0  0  0
 30 31  1  0  0  0  0
 31 32  1  0  0  0  0
 31 42  1  1  0  0  0
 32 10  1  0  0  0  0
 33 31  1  0  0  0  0
 34 33  2  0  0  0  0
 35 44  1  0  0  0  0
 35 29  2  0  0  0  0
 36 35  1  0  0  0  0
 37 25  1  0  0  0  0
 38 27  1  0  0  0  0
 43 32  1  0  0  0  0
 45 36  1  0  0  0  0
 46 55  1  0  0  0  0
 46 33  1  0  0  0  0
 47 56  1  1  0  0  0
 47 46  1  0  0  0  0
 47 51  1  0  0  0  0
 48 47  1  0  0  0  0
 49 48  1  0  0  0  0
 49 50  2  0  0  0  0
 51 52  1  0  0  0  0
 53 49  1  0  0  0  0
 54 51  2  0  0  0  0
 57 48  1  0  0  0  0
 58 48  1  0  0  0  0
 59 53  1  0  0  0  0
M  END
$$$$
