RYK.pdb
 OpenBabel07022418073D

 67 67  0  0  1  0  0  0  0  0999 V2000
    4.5240    2.0360    2.6400 N   0  0  0  0  0  0  0  0  0  0  0  0
    5.2660    1.0520    1.9340 C   0  0  0  0  0  0  0  0  0  0  0  0
    5.4290   -0.1220    2.4100 N   0  0  0  0  0  0  0  0  0  0  0  0
    5.8450    1.3660    0.6660 N   0  0  0  0  0  0  0  0  0  0  0  0
    6.1670    0.3240   -0.3030 C   0  0  0  0  0  0  0  0  0  0  0  0
    4.8880   -0.3110   -0.8420 C   0  0  0  0  0  0  0  0  0  0  0  0
    4.0230    0.6940   -1.5210 C   0  0  0  0  0  0  0  0  0  0  0  0
    2.7500    0.1630   -2.0780 C   0  0  2  0  0  0  0  0  0  0  0  0
    2.0410    1.2760   -2.7030 N   0  0  0  0  0  0  0  0  0  0  0  0
    1.8570   -0.4670   -1.0660 C   0  0  0  0  0  0  0  0  0  0  0  0
    2.2230   -1.4510   -0.3710 O   0  0  0  0  0  0  0  0  0  0  0  0
    4.7640    3.0500    2.6570 H   0  0  0  0  0  0  0  0  0  0  0  0
    3.6700    1.7400    3.1880 H   0  0  0  0  0  0  0  0  0  0  0  0
    5.0100   -0.3570    3.3310 H   0  0  0  0  0  0  0  0  0  0  0  0
    6.0220    2.3800    0.4750 H   0  0  0  0  0  0  0  0  0  0  0  0
    6.7950    0.7340   -1.0920 H   0  0  0  0  0  0  0  0  0  0  0  0
    6.7620   -0.4330    0.2420 H   0  0  0  0  0  0  0  0  0  0  0  0
    5.2090   -1.0590   -1.6210 H   0  0  0  0  0  0  0  0  0  0  0  0
    4.4480   -0.8670   -0.0190 H   0  0  0  0  0  0  0  0  0  0  0  0
    4.6120    1.0890   -2.3930 H   0  0  0  0  0  0  0  0  0  0  0  0
    3.8610    1.5400   -0.8300 H   0  0  0  0  0  0  0  0  0  0  0  0
    2.9610   -0.5700   -2.8860 H   0  0  0  0  0  0  0  0  0  0  0  0
    2.2020    1.2690   -3.7330 H   0  0  0  0  0  0  0  0  0  0  0  0
    2.4180    2.1820   -2.3470 H   0  0  0  0  0  0  0  0  0  0  0  0
   -3.3050    5.1880   -0.2170 O   0  0  0  0  0  0  0  0  0  0  0  0
   -2.6760    3.9830    0.1470 C   0  0  0  0  0  0  0  0  0  0  0  0
   -3.3800    2.8570    0.4570 C   0  0  0  0  0  0  0  0  0  0  0  0
   -2.7090    1.7020    0.8070 C   0  0  0  0  0  0  0  0  0  0  0  0
   -1.3360    1.6260    0.8620 C   0  0  0  0  0  0  0  0  0  0  0  0
   -0.6830    0.3790    1.2400 C   0  0  0  0  0  0  0  0  0  0  0  0
   -0.3500   -0.5570    0.1270 C   0  0  2  0  0  0  0  0  0  0  0  0
    0.5420    0.0350   -0.8510 N   0  0  0  0  0  0  0  0  0  0  0  0
   -1.5020   -1.2300   -0.5000 C   0  0  0  0  0  0  0  0  0  0  0  0
   -1.6720   -1.2310   -1.7690 O   0  0  0  0  0  0  0  0  0  0  0  0
   -0.6530    2.7890    0.5410 C   0  0  0  0  0  0  0  0  0  0  0  0
   -1.3130    3.9480    0.1890 C   0  0  0  0  0  0  0  0  0  0  0  0
   -3.0020    5.7050   -1.0220 H   0  0  0  0  0  0  0  0  0  0  0  0
   -4.4650    2.9210    0.4130 H   0  0  0  0  0  0  0  0  0  0  0  0
   -3.3180    0.8430    1.0430 H   0  0  0  0  0  0  0  0  0  0  0  0
    0.2610    0.6270    1.7640 H   0  0  0  0  0  0  0  0  0  0  0  0
   -1.3880   -0.1740    1.9240 H   0  0  0  0  0  0  0  0  0  0  0  0
    0.2480   -1.3920    0.6060 H   0  0  0  0  0  0  0  0  0  0  0  0
    0.2750    0.8520   -1.4470 H   0  0  0  0  0  0  0  0  0  0  0  0
    0.4110    2.8190    0.5570 H   0  0  0  0  0  0  0  0  0  0  0  0
   -0.7500    4.8460   -0.0570 H   0  0  0  0  0  0  0  0  0  0  0  0
   -2.5060   -1.9240    0.2320 N   0  0  0  0  0  0  0  0  0  0  0  0
   -3.6230   -2.5840   -0.3820 C   0  0  1  0  0  0  0  0  0  0  0  0
   -3.4340   -4.1110   -0.3200 C   0  0  0  0  0  0  0  0  0  0  0  0
   -3.3370   -4.5030    1.1430 C   0  0  0  0  0  0  0  0  0  0  0  0
   -3.1520   -5.9940    1.2910 C   0  0  0  0  0  0  0  0  0  0  0  0
   -3.0650   -6.2980    2.7680 C   0  0  0  0  0  0  0  0  0  0  0  0
   -1.9380   -5.5980    3.3810 N   0  0  0  0  0  0  0  0  0  0  0  0
   -4.9380   -2.1850    0.0840 C   0  0  0  0  0  0  0  0  0  0  0  0
   -5.9670   -2.7000   -0.4070 O   0  0  0  0  0  0  0  0  0  0  0  0
   -5.0840   -1.2340    1.0740 O   0  0  0  0  0  0  0  0  0  0  0  0
   -2.4340   -1.9600    1.2770 H   0  0  0  0  0  0  0  0  0  0  0  0
   -3.5450   -2.3670   -1.4890 H   0  0  0  0  0  0  0  0  0  0  0  0
   -2.5420   -4.4120   -0.8990 H   0  0  0  0  0  0  0  0  0  0  0  0
   -4.3340   -4.5900   -0.7530 H   0  0  0  0  0  0  0  0  0  0  0  0
   -4.2890   -4.1970    1.6240 H   0  0  0  0  0  0  0  0  0  0  0  0
   -2.4690   -3.9700    1.5870 H   0  0  0  0  0  0  0  0  0  0  0  0
   -2.2580   -6.3420    0.7660 H   0  0  0  0  0  0  0  0  0  0  0  0
   -4.0820   -6.4830    0.9220 H   0  0  0  0  0  0  0  0  0  0  0  0
   -4.0250   -5.9990    3.2230 H   0  0  0  0  0  0  0  0  0  0  0  0
   -2.9640   -7.3960    2.9590 H   0  0  0  0  0  0  0  0  0  0  0  0
   -2.2060   -4.5850    3.5240 H   0  0  0  0  0  0  0  0  0  0  0  0
   -1.7410   -5.9850    4.3300 H   0  0  0  0  0  0  0  0  0  0  0  0
  1 12  1  0  0  0  0
  1 13  1  0  0  0  0
  2  3  2  0  0  0  0
  2  1  1  0  0  0  0
  3 14  1  0  0  0  0
  4  2  1  0  0  0  0
  5 17  1  0  0  0  0
  5  4  1  0  0  0  0
  6  5  1  0  0  0  0
  6 19  1  0  0  0  0
  7  6  1  0  0  0  0
  7 21  1  0  0  0  0
  8 22  1  6  0  0  0
  8  7  1  0  0  0  0
  8 10  1  0  0  0  0
  9 24  1  0  0  0  0
  9  8  1  0  0  0  0
 10 32  1  0  0  0  0
 10 11  2  0  0  0  0
 15  4  1  0  0  0  0
 16  5  1  0  0  0  0
 18  6  1  0  0  0  0
 20  7  1  0  0  0  0
 23  9  1  0  0  0  0
 25 26  1  0  0  0  0
 26 36  2  0  0  0  0
 26 27  1  0  0  0  0
 27 28  2  0  0  0  0
 28 29  1  0  0  0  0
 28 39  1  0  0  0  0
 29 30  1  0  0  0  0
 30 40  1  0  0  0  0
 30 41  1  0  0  0  0
 31 42  1  1  0  0  0
 31 30  1  0  0  0  0
 32 31  1  0  0  0  0
 33 31  1  0  0  0  0
 33 46  1  0  0  0  0
 34 33  2  0  0  0  0
 35 44  1  0  0  0  0
 35 29  2  0  0  0  0
 36 35  1  0  0  0  0
 37 25  1  0  0  0  0
 38 27  1  0  0  0  0
 43 32  1  0  0  0  0
 45 36  1  0  0  0  0
 46 56  1  0  0  0  0
 47 57  1  6  0  0  0
 47 48  1  0  0  0  0
 47 53  1  0  0  0  0
 47 46  1  0  0  0  0
 48 49  1  0  0  0  0
 49 50  1  0  0  0  0
 49 61  1  0  0  0  0
 49 60  1  0  0  0  0
 50 51  1  0  0  0  0
 51 65  1  0  0  0  0
 51 64  1  0  0  0  0
 51 52  1  0  0  0  0
 52 66  1  0  0  0  0
 52 67  1  0  0  0  0
 53 55  1  0  0  0  0
 54 53  2  0  0  0  0
 58 48  1  0  0  0  0
 59 48  1  0  0  0  0
 62 50  1  0  0  0  0
 63 50  1  0  0  0  0
M  END
$$$$
