RYL.pdb
 OpenBabel07022418073D

 65 65  0  0  1  0  0  0  0  0999 V2000
    0.5540   -1.3060    4.0960 N   0  0  0  0  0  0  0  0  0  0  0  0
    1.6190   -0.6330    3.4400 C   0  0  0  0  0  0  0  0  0  0  0  0
    1.8090    0.6420    3.6790 N   0  0  0  0  0  0  0  0  0  0  0  0
    2.4910   -1.2970    2.5300 N   0  0  0  0  0  0  0  0  0  0  0  0
    3.7810   -0.6780    2.3190 C   0  0  0  0  0  0  0  0  0  0  0  0
    4.6550   -1.3930    1.3590 C   0  0  0  0  0  0  0  0  0  0  0  0
    4.1680   -1.5980   -0.0250 C   0  0  0  0  0  0  0  0  0  0  0  0
    3.8350   -0.3840   -0.8190 C   0  0  2  0  0  0  0  0  0  0  0  0
    5.0140    0.4480   -0.8750 N   0  0  0  0  0  0  0  0  0  0  0  0
    2.6490    0.3710   -0.4140 C   0  0  0  0  0  0  0  0  0  0  0  0
    2.6700    1.5520    0.0190 O   0  0  0  0  0  0  0  0  0  0  0  0
    0.6650   -2.2140    4.5730 H   0  0  0  0  0  0  0  0  0  0  0  0
   -0.3810   -0.8550    4.0890 H   0  0  0  0  0  0  0  0  0  0  0  0
    1.1800    1.1440    4.3430 H   0  0  0  0  0  0  0  0  0  0  0  0
    2.1870   -2.1690    2.0650 H   0  0  0  0  0  0  0  0  0  0  0  0
    4.2960   -0.7550    3.3350 H   0  0  0  0  0  0  0  0  0  0  0  0
    3.7530    0.3920    2.1260 H   0  0  0  0  0  0  0  0  0  0  0  0
    4.9230   -2.3780    1.8590 H   0  0  0  0  0  0  0  0  0  0  0  0
    5.6340   -0.8510    1.2840 H   0  0  0  0  0  0  0  0  0  0  0  0
    3.3460   -2.3690   -0.0750 H   0  0  0  0  0  0  0  0  0  0  0  0
    5.0220   -2.1010   -0.5810 H   0  0  0  0  0  0  0  0  0  0  0  0
    3.7040   -0.7420   -1.9100 H   0  0  0  0  0  0  0  0  0  0  0  0
    5.0600    0.9950   -1.7510 H   0  0  0  0  0  0  0  0  0  0  0  0
    5.0720    1.0780   -0.0500 H   0  0  0  0  0  0  0  0  0  0  0  0
   -4.8670    4.6150    0.1360 O   0  0  0  0  0  0  0  0  0  0  0  0
   -3.8130    3.7690   -0.2060 C   0  0  0  0  0  0  0  0  0  0  0  0
   -2.5440    4.2430   -0.0960 C   0  0  0  0  0  0  0  0  0  0  0  0
   -1.4870    3.4250   -0.4280 C   0  0  0  0  0  0  0  0  0  0  0  0
   -1.6350    2.1160   -0.8780 C   0  0  0  0  0  0  0  0  0  0  0  0
   -0.4480    1.3160   -1.2290 C   0  0  0  0  0  0  0  0  0  0  0  0
    0.1830    0.5640   -0.0770 C   0  0  2  0  0  0  0  0  0  0  0  0
    1.3270   -0.1920   -0.4850 N   0  0  0  0  0  0  0  0  0  0  0  0
   -0.8650   -0.1950    0.6070 C   0  0  0  0  0  0  0  0  0  0  0  0
   -1.8200    0.4250    1.1400 O   0  0  0  0  0  0  0  0  0  0  0  0
   -2.9370    1.6760   -0.9740 C   0  0  0  0  0  0  0  0  0  0  0  0
   -4.0060    2.4800   -0.6470 C   0  0  0  0  0  0  0  0  0  0  0  0
   -5.0540    5.4040   -0.4800 H   0  0  0  0  0  0  0  0  0  0  0  0
   -2.3820    5.2510    0.2480 H   0  0  0  0  0  0  0  0  0  0  0  0
   -0.4920    3.8290   -0.3310 H   0  0  0  0  0  0  0  0  0  0  0  0
   -0.6080    0.6630   -2.1220 H   0  0  0  0  0  0  0  0  0  0  0  0
    0.3240    2.0490   -1.5760 H   0  0  0  0  0  0  0  0  0  0  0  0
    0.5490    1.3530    0.6090 H   0  0  0  0  0  0  0  0  0  0  0  0
    1.1890   -1.1590   -0.8370 H   0  0  0  0  0  0  0  0  0  0  0  0
   -3.1060    0.6780   -1.3150 H   0  0  0  0  0  0  0  0  0  0  0  0
   -5.0360    2.1490   -0.7170 H   0  0  0  0  0  0  0  0  0  0  0  0
   -1.7210   -3.2330   -1.5280 C   0  0  0  0  0  0  0  0  0  0  0  0
   -2.6990   -3.7880   -0.5450 C   0  0  0  0  0  0  0  0  0  0  0  0
   -3.9190   -4.2510   -1.3410 C   0  0  0  0  0  0  0  0  0  0  0  0
   -3.0620   -2.8210    0.5050 C   0  0  0  0  0  0  0  0  0  0  0  0
   -1.9670   -2.3140    1.3980 C   0  0  2  0  0  0  0  0  0  0  0  0
   -0.8990   -1.6210    0.7180 N   0  0  0  0  0  0  0  0  0  0  0  0
   -1.3860   -3.4180    2.1870 C   0  0  0  0  0  0  0  0  0  0  0  0
   -2.1190   -4.1660    2.9180 O   0  0  0  0  0  0  0  0  0  0  0  0
   -0.0370   -3.7140    2.1880 O   0  0  0  0  0  0  0  0  0  0  0  0
   -1.6570   -2.1370   -1.4630 H   0  0  0  0  0  0  0  0  0  0  0  0
   -1.9770   -3.5480   -2.5880 H   0  0  0  0  0  0  0  0  0  0  0  0
   -0.7310   -3.6820   -1.3600 H   0  0  0  0  0  0  0  0  0  0  0  0
   -2.2530   -4.7400   -0.1320 H   0  0  0  0  0  0  0  0  0  0  0  0
   -4.6810   -4.6230   -0.6240 H   0  0  0  0  0  0  0  0  0  0  0  0
   -4.3350   -3.4290   -1.9590 H   0  0  0  0  0  0  0  0  0  0  0  0
   -3.6250   -5.1090   -1.9770 H   0  0  0  0  0  0  0  0  0  0  0  0
   -3.7970   -3.3330    1.1910 H   0  0  0  0  0  0  0  0  0  0  0  0
   -3.6000   -1.9300    0.1220 H   0  0  0  0  0  0  0  0  0  0  0  0
   -2.4090   -1.5230    2.1000 H   0  0  0  0  0  0  0  0  0  0  0  0
   -0.1250   -2.1780    0.3160 H   0  0  0  0  0  0  0  0  0  0  0  0
  1 12  1  0  0  0  0
  2  3  2  0  0  0  0
  2  1  1  0  0  0  0
  3 14  1  0  0  0  0
  4  2  1  0  0  0  0
  5  4  1  0  0  0  0
  5 16  1  0  0  0  0
  6 18  1  0  0  0  0
  6  5  1  0  0  0  0
  7  6  1  0  0  0  0
  8 22  1  6  0  0  0
  8 10  1  0  0  0  0
  8  7  1  0  0  0  0
  9  8  1  0  0  0  0
  9 24  1  0  0  0  0
 10 11  2  0  0  0  0
 13  1  1  0  0  0  0
 15  4  1  0  0  0  0
 17  5  1  0  0  0  0
 19  6  1  0  0  0  0
 20  7  1  0  0  0  0
 21  7  1  0  0  0  0
 23  9  1  0  0  0  0
 26 27  1  0  0  0  0
 26 25  1  0  0  0  0
 27 38  1  0  0  0  0
 28 39  1  0  0  0  0
 28 27  2  0  0  0  0
 29 28  1  0  0  0  0
 30 29  1  0  0  0  0
 30 31  1  0  0  0  0
 31 33  1  0  0  0  0
 31 42  1  1  0  0  0
 32 10  1  0  0  0  0
 32 31  1  0  0  0  0
 33 51  1  0  0  0  0
 33 34  2  0  0  0  0
 35 29  2  0  0  0  0
 35 36  1  0  0  0  0
 36 26  2  0  0  0  0
 37 25  1  0  0  0  0
 40 30  1  0  0  0  0
 41 30  1  0  0  0  0
 43 32  1  0  0  0  0
 44 35  1  0  0  0  0
 45 36  1  0  0  0  0
 46 55  1  0  0  0  0
 46 57  1  0  0  0  0
 46 47  1  0  0  0  0
 47 58  1  0  0  0  0
 47 49  1  0  0  0  0
 48 59  1  0  0  0  0
 48 47  1  0  0  0  0
 49 62  1  0  0  0  0
 49 50  1  0  0  0  0
 50 64  1  1  0  0  0
 50 52  1  0  0  0  0
 51 50  1  0  0  0  0
 52 54  2  0  0  0  0
 52 53  1  0  0  0  0
 56 46  1  0  0  0  0
 60 48  1  0  0  0  0
 61 48  1  0  0  0  0
 63 49  1  0  0  0  0
 65 51  1  0  0  0  0
M  END
$$$$
