RYM.pdb
 OpenBabel07022418073D

 63 63  0  0  1  0  0  0  0  0999 V2000
    1.7190   -4.7220   -0.9860 N   0  0  0  0  0  0  0  0  0  0  0  0
    2.9230   -4.0150   -0.7440 C   0  0  0  0  0  0  0  0  0  0  0  0
    4.0690   -4.6090   -0.6660 N   0  0  0  0  0  0  0  0  0  0  0  0
    2.8130   -2.5900   -0.5870 N   0  0  0  0  0  0  0  0  0  0  0  0
    3.9280   -1.8630   -0.0350 C   0  0  0  0  0  0  0  0  0  0  0  0
    3.6070   -0.3980    0.0380 C   0  0  0  0  0  0  0  0  0  0  0  0
    3.3020    0.2070   -1.3140 C   0  0  0  0  0  0  0  0  0  0  0  0
    2.9990    1.6940   -1.0780 C   0  0  2  0  0  0  0  0  0  0  0  0
    4.2060    2.2320   -0.4800 N   0  0  0  0  0  0  0  0  0  0  0  0
    1.9010    1.7480   -0.0830 C   0  0  0  0  0  0  0  0  0  0  0  0
    2.1190    2.1920    1.0930 O   0  0  0  0  0  0  0  0  0  0  0  0
    1.2680   -4.6960   -1.9310 H   0  0  0  0  0  0  0  0  0  0  0  0
    1.2960   -5.2640   -0.2030 H   0  0  0  0  0  0  0  0  0  0  0  0
    4.0800   -5.6390   -0.7890 H   0  0  0  0  0  0  0  0  0  0  0  0
    1.9560   -2.0670   -0.8570 H   0  0  0  0  0  0  0  0  0  0  0  0
    4.7840   -2.0190   -0.7460 H   0  0  0  0  0  0  0  0  0  0  0  0
    4.1910   -2.2110    0.9830 H   0  0  0  0  0  0  0  0  0  0  0  0
    4.4960    0.1320    0.4680 H   0  0  0  0  0  0  0  0  0  0  0  0
    2.7730   -0.2330    0.7560 H   0  0  0  0  0  0  0  0  0  0  0  0
    4.2260    0.0900   -1.9360 H   0  0  0  0  0  0  0  0  0  0  0  0
    2.4440   -0.3040   -1.7500 H   0  0  0  0  0  0  0  0  0  0  0  0
    2.7350    2.1970   -2.0150 H   0  0  0  0  0  0  0  0  0  0  0  0
    5.0540    2.0650   -1.0470 H   0  0  0  0  0  0  0  0  0  0  0  0
    4.0920    3.2290   -0.1920 H   0  0  0  0  0  0  0  0  0  0  0  0
   -4.0970    1.1820   -4.6860 O   0  0  0  0  0  0  0  0  0  0  0  0
   -3.4990    1.4460   -3.4640 C   0  0  0  0  0  0  0  0  0  0  0  0
   -3.9710    0.8990   -2.2920 C   0  0  0  0  0  0  0  0  0  0  0  0
   -3.3600    1.1730   -1.0650 C   0  0  0  0  0  0  0  0  0  0  0  0
   -2.2650    1.9980   -0.9730 C   0  0  0  0  0  0  0  0  0  0  0  0
   -1.5660    2.3360    0.2890 C   0  0  0  0  0  0  0  0  0  0  0  0
   -0.4430    1.3980    0.6350 C   0  0  2  0  0  0  0  0  0  0  0  0
    0.5800    1.3280   -0.3510 N   0  0  0  0  0  0  0  0  0  0  0  0
   -1.0070    0.0680    0.9360 C   0  0  0  0  0  0  0  0  0  0  0  0
   -0.6170   -0.9570    0.2760 O   0  0  0  0  0  0  0  0  0  0  0  0
   -1.8100    2.5380   -2.1820 C   0  0  0  0  0  0  0  0  0  0  0  0
   -2.3950    2.2810   -3.3910 C   0  0  0  0  0  0  0  0  0  0  0  0
   -4.6210    1.8820   -5.2180 H   0  0  0  0  0  0  0  0  0  0  0  0
   -4.8360    0.2380   -2.3100 H   0  0  0  0  0  0  0  0  0  0  0  0
   -3.7440    0.7360   -0.1590 H   0  0  0  0  0  0  0  0  0  0  0  0
   -1.2640    3.4040    0.3380 H   0  0  0  0  0  0  0  0  0  0  0  0
   -2.3290    2.2150    1.1070 H   0  0  0  0  0  0  0  0  0  0  0  0
   -0.0280    1.7940    1.6100 H   0  0  0  0  0  0  0  0  0  0  0  0
    0.3600    0.9600   -1.3010 H   0  0  0  0  0  0  0  0  0  0  0  0
   -0.9520    3.1870   -2.1240 H   0  0  0  0  0  0  0  0  0  0  0  0
   -2.0200    2.7160   -4.3220 H   0  0  0  0  0  0  0  0  0  0  0  0
   -0.0440   -4.1800    5.4940 C   0  0  0  0  0  0  0  0  0  0  0  0
   -1.8260   -4.0090    5.4310 S   0  0  0  0  0  0  0  0  0  0  0  0
   -2.4110   -3.4090    3.8160 C   0  0  0  0  0  0  0  0  0  0  0  0
   -1.9690   -2.0240    3.5370 C   0  0  0  0  0  0  0  0  0  0  0  0
   -2.4760   -1.5790    2.1560 C   0  0  2  0  0  0  0  0  0  0  0  0
   -1.9820   -0.1960    1.9340 N   0  0  0  0  0  0  0  0  0  0  0  0
   -3.9450   -1.4930    2.2240 C   0  0  0  0  0  0  0  0  0  0  0  0
   -4.4760   -0.3280    2.2200 O   0  0  0  0  0  0  0  0  0  0  0  0
   -4.8010   -2.5920    2.2890 O   0  0  0  0  0  0  0  0  0  0  0  0
    0.2030   -5.2050    5.0900 H   0  0  0  0  0  0  0  0  0  0  0  0
    0.4980   -3.3890    4.9620 H   0  0  0  0  0  0  0  0  0  0  0  0
    0.2560   -4.2360    6.5740 H   0  0  0  0  0  0  0  0  0  0  0  0
   -3.4970   -3.5660    3.8150 H   0  0  0  0  0  0  0  0  0  0  0  0
   -1.9500   -4.0770    3.0450 H   0  0  0  0  0  0  0  0  0  0  0  0
   -0.8810   -1.9360    3.5530 H   0  0  0  0  0  0  0  0  0  0  0  0
   -2.4180   -1.2760    4.2430 H   0  0  0  0  0  0  0  0  0  0  0  0
   -2.0890   -2.2490    1.3830 H   0  0  0  0  0  0  0  0  0  0  0  0
   -2.3380    0.5980    2.5010 H   0  0  0  0  0  0  0  0  0  0  0  0
  1  2  1  0  0  0  0
  1 13  1  0  0  0  0
  2  3  2  0  0  0  0
  2  4  1  0  0  0  0
  4  5  1  0  0  0  0
  5  6  1  0  0  0  0
  5 17  1  0  0  0  0
  6 18  1  0  0  0  0
  6 19  1  0  0  0  0
  7  8  1  0  0  0  0
  7  6  1  0  0  0  0
  8 22  1  6  0  0  0
  8  9  1  0  0  0  0
  8 10  1  0  0  0  0
  9 24  1  0  0  0  0
 10 11  2  0  0  0  0
 12  1  1  0  0  0  0
 14  3  1  0  0  0  0
 15  4  1  0  0  0  0
 16  5  1  0  0  0  0
 20  7  1  0  0  0  0
 21  7  1  0  0  0  0
 23  9  1  0  0  0  0
 25 26  1  0  0  0  0
 26 36  2  0  0  0  0
 26 27  1  0  0  0  0
 27 28  2  0  0  0  0
 28 29  1  0  0  0  0
 28 39  1  0  0  0  0
 29 30  1  0  0  0  0
 30 40  1  0  0  0  0
 30 31  1  0  0  0  0
 30 41  1  0  0  0  0
 31 33  1  0  0  0  0
 31 42  1  1  0  0  0
 32 10  1  0  0  0  0
 32 31  1  0  0  0  0
 33 51  1  0  0  0  0
 34 33  2  0  0  0  0
 35 44  1  0  0  0  0
 35 29  2  0  0  0  0
 36 35  1  0  0  0  0
 37 25  1  0  0  0  0
 38 27  1  0  0  0  0
 43 32  1  0  0  0  0
 45 36  1  0  0  0  0
 46 57  1  0  0  0  0
 47 46  1  0  0  0  0
 48 47  1  0  0  0  0
 49 60  1  0  0  0  0
 49 48  1  0  0  0  0
 49 61  1  0  0  0  0
 50 62  1  6  0  0  0
 50 52  1  0  0  0  0
 50 49  1  0  0  0  0
 51 50  1  0  0  0  0
 51 63  1  0  0  0  0
 52 54  1  0  0  0  0
 53 52  2  0  0  0  0
 55 46  1  0  0  0  0
 56 46  1  0  0  0  0
 58 48  1  0  0  0  0
 59 48  1  0  0  0  0
M  END
$$$$
