RYN.pdb
 OpenBabel07022418073D

 60 60  0  0  1  0  0  0  0  0999 V2000
    2.9160    4.1310    4.0420 N   0  0  0  0  0  0  0  0  0  0  0  0
    3.8500    3.0770    4.1820 C   0  0  0  0  0  0  0  0  0  0  0  0
    4.8410    3.1820    4.9740 N   0  0  0  0  0  0  0  0  0  0  0  0
    3.6750    1.8810    3.4240 N   0  0  0  0  0  0  0  0  0  0  0  0
    4.3140    0.6370    3.7850 C   0  0  0  0  0  0  0  0  0  0  0  0
    3.9060   -0.4210    2.7910 C   0  0  0  0  0  0  0  0  0  0  0  0
    2.4290   -0.5860    2.8450 C   0  0  0  0  0  0  0  0  0  0  0  0
    1.9230   -1.6420    1.8690 C   0  0  2  0  0  0  0  0  0  0  0  0
    2.2750   -1.2710    0.5160 N   0  0  0  0  0  0  0  0  0  0  0  0
    0.4490   -1.7030    2.0740 C   0  0  0  0  0  0  0  0  0  0  0  0
    0.0540   -2.0170    3.2240 O   0  0  0  0  0  0  0  0  0  0  0  0
    1.9350    3.9970    3.7200 H   0  0  0  0  0  0  0  0  0  0  0  0
    3.2030    5.1110    4.2700 H   0  0  0  0  0  0  0  0  0  0  0  0
    5.0020    4.0410    5.5450 H   0  0  0  0  0  0  0  0  0  0  0  0
    3.0660    1.9430    2.5880 H   0  0  0  0  0  0  0  0  0  0  0  0
    3.9390    0.3500    4.7840 H   0  0  0  0  0  0  0  0  0  0  0  0
    5.4080    0.8200    3.7770 H   0  0  0  0  0  0  0  0  0  0  0  0
    4.3540   -1.3870    3.1680 H   0  0  0  0  0  0  0  0  0  0  0  0
    4.3020   -0.2290    1.7800 H   0  0  0  0  0  0  0  0  0  0  0  0
    1.8730    0.3300    2.6220 H   0  0  0  0  0  0  0  0  0  0  0  0
    2.1090   -0.9340    3.8510 H   0  0  0  0  0  0  0  0  0  0  0  0
    2.4000   -2.6270    2.0610 H   0  0  0  0  0  0  0  0  0  0  0  0
    1.9150   -1.9620   -0.1530 H   0  0  0  0  0  0  0  0  0  0  0  0
    2.0860   -0.2880    0.2940 H   0  0  0  0  0  0  0  0  0  0  0  0
   -1.6190    2.5350   -3.7850 O   0  0  0  0  0  0  0  0  0  0  0  0
   -1.8180    1.8880   -2.5660 C   0  0  0  0  0  0  0  0  0  0  0  0
   -0.8980    1.9430   -1.5460 C   0  0  0  0  0  0  0  0  0  0  0  0
   -1.1190    1.2890   -0.3390 C   0  0  0  0  0  0  0  0  0  0  0  0
   -2.2750    0.5670   -0.1370 C   0  0  0  0  0  0  0  0  0  0  0  0
   -2.4890   -0.0990    1.1490 C   0  0  0  0  0  0  0  0  0  0  0  0
   -1.9310   -1.4890    1.2600 C   0  0  2  0  0  0  0  0  0  0  0  0
   -0.4970   -1.4270    1.0490 N   0  0  0  0  0  0  0  0  0  0  0  0
   -2.6020   -2.4910    0.4040 C   0  0  0  0  0  0  0  0  0  0  0  0
   -3.8530   -2.5900    0.4480 O   0  0  0  0  0  0  0  0  0  0  0  0
   -3.1810    0.5240   -1.1650 C   0  0  0  0  0  0  0  0  0  0  0  0
   -2.9780    1.1640   -2.3650 C   0  0  0  0  0  0  0  0  0  0  0  0
   -1.8940    3.5200   -3.9040 H   0  0  0  0  0  0  0  0  0  0  0  0
    0.0060    2.5180   -1.7280 H   0  0  0  0  0  0  0  0  0  0  0  0
   -0.3440    1.3840    0.4090 H   0  0  0  0  0  0  0  0  0  0  0  0
   -3.6150   -0.1890    1.2600 H   0  0  0  0  0  0  0  0  0  0  0  0
   -2.2030    0.5380    2.0190 H   0  0  0  0  0  0  0  0  0  0  0  0
   -2.1360   -1.7840    2.3470 H   0  0  0  0  0  0  0  0  0  0  0  0
   -0.0960   -1.1730    0.1210 H   0  0  0  0  0  0  0  0  0  0  0  0
   -4.0900   -0.0310   -1.0360 H   0  0  0  0  0  0  0  0  0  0  0  0
   -3.6850    1.1350   -3.1780 H   0  0  0  0  0  0  0  0  0  0  0  0
   -1.7290   -3.0450   -4.7780 N   0  0  0  0  0  0  0  0  0  0  0  0
   -2.2170   -3.1140   -3.4490 C   0  0  0  0  0  0  0  0  0  0  0  0
   -2.7620   -2.0990   -2.9570 O   0  0  0  0  0  0  0  0  0  0  0  0
   -2.0680   -4.3580   -2.7050 C   0  0  0  0  0  0  0  0  0  0  0  0
   -2.5810   -4.3550   -1.3090 C   0  0  2  0  0  0  0  0  0  0  0  0
   -1.9200   -3.3700   -0.4820 N   0  0  0  0  0  0  0  0  0  0  0  0
   -2.2660   -5.7050   -0.7110 C   0  0  0  0  0  0  0  0  0  0  0  0
   -1.5500   -5.7430    0.3100 O   0  0  0  0  0  0  0  0  0  0  0  0
   -2.7390   -6.8830   -1.2520 O   0  0  0  0  0  0  0  0  0  0  0  0
   -0.7540   -3.2870   -5.0510 H   0  0  0  0  0  0  0  0  0  0  0  0
   -2.3560   -2.7340   -5.5740 H   0  0  0  0  0  0  0  0  0  0  0  0
   -2.5910   -5.2080   -3.2370 H   0  0  0  0  0  0  0  0  0  0  0  0
   -1.0000   -4.6880   -2.6550 H   0  0  0  0  0  0  0  0  0  0  0  0
   -3.6860   -4.1800   -1.2180 H   0  0  0  0  0  0  0  0  0  0  0  0
   -0.8750   -3.3110   -0.5480 H   0  0  0  0  0  0  0  0  0  0  0  0
  1  2  1  0  0  0  0
  1 13  1  0  0  0  0
  2  3  2  0  0  0  0
  3 14  1  0  0  0  0
  4  5  1  0  0  0  0
  4  2  1  0  0  0  0
  5 16  1  0  0  0  0
  6  7  1  0  0  0  0
  6 18  1  0  0  0  0
  6  5  1  0  0  0  0
  7 21  1  0  0  0  0
  8 22  1  1  0  0  0
  8 10  1  0  0  0  0
  8  7  1  0  0  0  0
  9  8  1  0  0  0  0
 10 11  2  0  0  0  0
 12  1  1  0  0  0  0
 15  4  1  0  0  0  0
 17  5  1  0  0  0  0
 19  6  1  0  0  0  0
 20  7  1  0  0  0  0
 23  9  1  0  0  0  0
 24  9  1  0  0  0  0
 25 26  1  0  0  0  0
 26 36  2  0  0  0  0
 26 27  1  0  0  0  0
 27 28  2  0  0  0  0
 28 29  1  0  0  0  0
 28 39  1  0  0  0  0
 29 30  1  0  0  0  0
 30 31  1  0  0  0  0
 30 40  1  0  0  0  0
 30 41  1  0  0  0  0
 31 42  1  1  0  0  0
 32 31  1  0  0  0  0
 32 10  1  0  0  0  0
 33 34  2  0  0  0  0
 33 31  1  0  0  0  0
 35 44  1  0  0  0  0
 35 29  2  0  0  0  0
 36 35  1  0  0  0  0
 37 25  1  0  0  0  0
 38 27  1  0  0  0  0
 43 32  1  0  0  0  0
 45 36  1  0  0  0  0
 46 47  1  0  0  0  0
 47 48  2  0  0  0  0
 47 49  1  0  0  0  0
 49 58  1  0  0  0  0
 49 50  1  0  0  0  0
 50 59  1  1  0  0  0
 50 52  1  0  0  0  0
 50 51  1  0  0  0  0
 51 33  1  0  0  0  0
 52 53  1  0  0  0  0
 54 52  2  0  0  0  0
 55 46  1  0  0  0  0
 56 46  1  0  0  0  0
 57 49  1  0  0  0  0
 60 51  1  0  0  0  0
M  END
$$$$
