RYQ.pdb
 OpenBabel07022418073D

 63 63  0  0  1  0  0  0  0  0999 V2000
    6.1820    0.4460    3.1550 N   0  0  0  0  0  0  0  0  0  0  0  0
    5.9000    0.2460    1.7790 C   0  0  0  0  0  0  0  0  0  0  0  0
    6.8460   -0.2050    1.0220 N   0  0  0  0  0  0  0  0  0  0  0  0
    4.6430    0.5200    1.2080 N   0  0  0  0  0  0  0  0  0  0  0  0
    4.1680   -0.2550    0.0530 C   0  0  0  0  0  0  0  0  0  0  0  0
    3.9060   -1.6520    0.5050 C   0  0  0  0  0  0  0  0  0  0  0  0
    3.4350   -2.6140   -0.5100 C   0  0  0  0  0  0  0  0  0  0  0  0
    2.1590   -2.3270   -1.2090 C   0  0  2  0  0  0  0  0  0  0  0  0
    2.2330   -1.1000   -1.9260 N   0  0  0  0  0  0  0  0  0  0  0  0
    0.9820   -2.3340   -0.3020 C   0  0  0  0  0  0  0  0  0  0  0  0
    0.7490   -3.3520    0.4010 O   0  0  0  0  0  0  0  0  0  0  0  0
    5.7380   -0.1970    3.8360 H   0  0  0  0  0  0  0  0  0  0  0  0
    6.8020    1.1920    3.5210 H   0  0  0  0  0  0  0  0  0  0  0  0
    7.8020   -0.4300    1.3650 H   0  0  0  0  0  0  0  0  0  0  0  0
    4.0390    1.2620    1.5910 H   0  0  0  0  0  0  0  0  0  0  0  0
    3.2760    0.2470   -0.3860 H   0  0  0  0  0  0  0  0  0  0  0  0
    4.9590   -0.1750   -0.7220 H   0  0  0  0  0  0  0  0  0  0  0  0
    3.2710   -1.5970    1.4170 H   0  0  0  0  0  0  0  0  0  0  0  0
    4.8980   -2.0420    0.8850 H   0  0  0  0  0  0  0  0  0  0  0  0
    3.3720   -3.6640   -0.0890 H   0  0  0  0  0  0  0  0  0  0  0  0
    4.2700   -2.7200   -1.2690 H   0  0  0  0  0  0  0  0  0  0  0  0
    1.9610   -3.1370   -1.9620 H   0  0  0  0  0  0  0  0  0  0  0  0
    3.0250   -1.0750   -2.5800 H   0  0  0  0  0  0  0  0  0  0  0  0
    1.3530   -1.0010   -2.5090 H   0  0  0  0  0  0  0  0  0  0  0  0
   -0.1830    5.0690    0.0480 O   0  0  0  0  0  0  0  0  0  0  0  0
   -0.3370    3.7410    0.4930 C   0  0  0  0  0  0  0  0  0  0  0  0
   -1.6040    3.2600    0.7550 C   0  0  0  0  0  0  0  0  0  0  0  0
   -1.7380    1.9530    1.1920 C   0  0  0  0  0  0  0  0  0  0  0  0
   -0.6730    1.1120    1.3760 C   0  0  0  0  0  0  0  0  0  0  0  0
   -0.8520   -0.2810    1.8430 C   0  0  0  0  0  0  0  0  0  0  0  0
   -1.0320   -1.2520    0.6900 C   0  0  2  0  0  0  0  0  0  0  0  0
    0.1010   -1.2230   -0.1970 N   0  0  0  0  0  0  0  0  0  0  0  0
   -2.3180   -1.0330    0.0300 C   0  0  0  0  0  0  0  0  0  0  0  0
   -2.3640   -0.7480   -1.1920 O   0  0  0  0  0  0  0  0  0  0  0  0
    0.5850    1.6190    1.1060 C   0  0  0  0  0  0  0  0  0  0  0  0
    0.7560    2.9180    0.6690 C   0  0  0  0  0  0  0  0  0  0  0  0
   -0.2990    5.7800    0.7750 H   0  0  0  0  0  0  0  0  0  0  0  0
   -2.4280    3.9420    0.6030 H   0  0  0  0  0  0  0  0  0  0  0  0
   -2.7480    1.6320    1.3800 H   0  0  0  0  0  0  0  0  0  0  0  0
    0.0260   -0.5390    2.4580 H   0  0  0  0  0  0  0  0  0  0  0  0
   -1.7830   -0.3610    2.4680 H   0  0  0  0  0  0  0  0  0  0  0  0
   -1.0270   -2.2690    1.1840 H   0  0  0  0  0  0  0  0  0  0  0  0
    0.3340   -0.3910   -0.8050 H   0  0  0  0  0  0  0  0  0  0  0  0
    1.4890    1.0130    1.2280 H   0  0  0  0  0  0  0  0  0  0  0  0
    1.7280    3.3270    0.4550 H   0  0  0  0  0  0  0  0  0  0  0  0
   -3.1340   -4.7810   -1.2040 N   0  0  0  0  0  0  0  0  0  0  0  0
   -3.9460   -3.9590   -0.3550 C   0  0  0  0  0  0  0  0  0  0  0  0
   -3.6100   -3.8390    0.8480 O   0  0  0  0  0  0  0  0  0  0  0  0
   -5.1320   -3.2770   -0.8550 C   0  0  0  0  0  0  0  0  0  0  0  0
   -5.6730   -2.1370   -0.0970 C   0  0  0  0  0  0  0  0  0  0  0  0
   -4.8320   -0.9140    0.0520 C   0  0  2  0  0  0  0  0  0  0  0  0
   -3.5790   -1.1320    0.7310 N   0  0  0  0  0  0  0  0  0  0  0  0
   -5.6220    0.0620    0.8530 C   0  0  0  0  0  0  0  0  0  0  0  0
   -6.7580    0.4720    0.4630 O   0  0  0  0  0  0  0  0  0  0  0  0
   -5.1380    0.5490    2.0500 O   0  0  0  0  0  0  0  0  0  0  0  0
   -2.4050   -4.3170   -1.7660 H   0  0  0  0  0  0  0  0  0  0  0  0
   -3.2690   -5.7960   -1.2540 H   0  0  0  0  0  0  0  0  0  0  0  0
   -5.9670   -4.0490   -0.9340 H   0  0  0  0  0  0  0  0  0  0  0  0
   -4.9900   -2.9970   -1.9490 H   0  0  0  0  0  0  0  0  0  0  0  0
   -5.9760   -2.4350    0.9490 H   0  0  0  0  0  0  0  0  0  0  0  0
   -6.6400   -1.8390   -0.5930 H   0  0  0  0  0  0  0  0  0  0  0  0
   -4.6240   -0.4500   -0.9540 H   0  0  0  0  0  0  0  0  0  0  0  0
   -3.4980   -1.3510    1.7460 H   0  0  0  0  0  0  0  0  0  0  0  0
  1 13  1  0  0  0  0
  1 12  1  0  0  0  0
  2  1  1  0  0  0  0
  3 14  1  0  0  0  0
  3  2  2  0  0  0  0
  4 15  1  0  0  0  0
  4  2  1  0  0  0  0
  5  6  1  0  0  0  0
  5  4  1  0  0  0  0
  6 19  1  0  0  0  0
  6 18  1  0  0  0  0
  7 20  1  0  0  0  0
  7  6  1  0  0  0  0
  8 22  1  6  0  0  0
  8  7  1  0  0  0  0
  8 10  1  0  0  0  0
  9  8  1  0  0  0  0
 10 32  1  0  0  0  0
 10 11  2  0  0  0  0
 16  5  1  0  0  0  0
 17  5  1  0  0  0  0
 21  7  1  0  0  0  0
 23  9  1  0  0  0  0
 24  9  1  0  0  0  0
 25 26  1  0  0  0  0
 25 37  1  0  0  0  0
 26 36  2  0  0  0  0
 26 27  1  0  0  0  0
 27 28  2  0  0  0  0
 28 29  1  0  0  0  0
 28 39  1  0  0  0  0
 29 30  1  0  0  0  0
 30 40  1  0  0  0  0
 30 41  1  0  0  0  0
 31 42  1  1  0  0  0
 31 30  1  0  0  0  0
 32 31  1  0  0  0  0
 33 31  1  0  0  0  0
 33 52  1  0  0  0  0
 34 33  2  0  0  0  0
 35 44  1  0  0  0  0
 35 29  2  0  0  0  0
 36 35  1  0  0  0  0
 38 27  1  0  0  0  0
 43 32  1  0  0  0  0
 45 36  1  0  0  0  0
 46 47  1  0  0  0  0
 47 48  2  0  0  0  0
 49 47  1  0  0  0  0
 49 50  1  0  0  0  0
 50 51  1  0  0  0  0
 50 60  1  0  0  0  0
 51 62  1  6  0  0  0
 51 52  1  0  0  0  0
 51 53  1  0  0  0  0
 52 63  1  0  0  0  0
 53 55  1  0  0  0  0
 54 53  2  0  0  0  0
 56 46  1  0  0  0  0
 57 46  1  0  0  0  0
 58 49  1  0  0  0  0
 59 49  1  0  0  0  0
 61 50  1  0  0  0  0
M  END
$$$$
