RYR.pdb
 OpenBabel07022418073D

 69 69  0  0  1  0  0  0  0  0999 V2000
    2.5070   -4.2120    2.8290 N   0  0  0  0  0  0  0  0  0  0  0  0
    3.3410   -3.3850    1.9960 C   0  0  0  0  0  0  0  0  0  0  0  0
    3.4360   -2.1530    2.3030 N   0  0  0  0  0  0  0  0  0  0  0  0
    4.0270   -3.9260    0.8760 N   0  0  0  0  0  0  0  0  0  0  0  0
    4.7590   -3.1010   -0.0220 C   0  0  0  0  0  0  0  0  0  0  0  0
    4.0010   -2.1530   -0.8820 C   0  0  0  0  0  0  0  0  0  0  0  0
    3.0210   -2.7190   -1.8460 C   0  0  0  0  0  0  0  0  0  0  0  0
    1.8980   -3.4200   -1.1980 C   0  0  2  0  0  0  0  0  0  0  0  0
    0.9640   -3.9830   -2.1810 N   0  0  0  0  0  0  0  0  0  0  0  0
    1.0680   -2.5350   -0.3260 C   0  0  0  0  0  0  0  0  0  0  0  0
    0.4370   -3.0850    0.6110 O   0  0  0  0  0  0  0  0  0  0  0  0
    1.9970   -4.9980    2.3280 H   0  0  0  0  0  0  0  0  0  0  0  0
    2.4240   -4.0370    3.8410 H   0  0  0  0  0  0  0  0  0  0  0  0
    2.9510   -1.7250    3.1100 H   0  0  0  0  0  0  0  0  0  0  0  0
    3.9580   -4.9840    0.7840 H   0  0  0  0  0  0  0  0  0  0  0  0
    5.3670   -3.7680   -0.7120 H   0  0  0  0  0  0  0  0  0  0  0  0
    5.4840   -2.5140    0.6040 H   0  0  0  0  0  0  0  0  0  0  0  0
    4.7040   -1.5100   -1.5030 H   0  0  0  0  0  0  0  0  0  0  0  0
    3.4670   -1.4600   -0.1570 H   0  0  0  0  0  0  0  0  0  0  0  0
    2.6980   -1.9750   -2.6160 H   0  0  0  0  0  0  0  0  0  0  0  0
    3.5850   -3.5050   -2.4470 H   0  0  0  0  0  0  0  0  0  0  0  0
    2.2420   -4.2630   -0.5920 H   0  0  0  0  0  0  0  0  0  0  0  0
    0.1190   -4.3570   -1.7310 H   0  0  0  0  0  0  0  0  0  0  0  0
    1.4530   -4.6670   -2.8060 H   0  0  0  0  0  0  0  0  0  0  0  0
    3.1500    4.6570   -2.5350 O   0  0  0  0  0  0  0  0  0  0  0  0
    2.6040    3.7140   -1.6760 C   0  0  0  0  0  0  0  0  0  0  0  0
    1.2910    3.8410   -1.2760 C   0  0  0  0  0  0  0  0  0  0  0  0
    0.7650    2.8820   -0.4120 C   0  0  0  0  0  0  0  0  0  0  0  0
    1.4980    1.8170    0.0580 C   0  0  0  0  0  0  0  0  0  0  0  0
    0.8800    0.8580    0.9670 C   0  0  0  0  0  0  0  0  0  0  0  0
    0.1490   -0.2760    0.3480 C   0  0  2  0  0  0  0  0  0  0  0  0
    0.9660   -1.1200   -0.5150 N   0  0  0  0  0  0  0  0  0  0  0  0
   -1.1270    0.0910   -0.2850 C   0  0  0  0  0  0  0  0  0  0  0  0
   -1.3970   -0.2620   -1.4490 O   0  0  0  0  0  0  0  0  0  0  0  0
    2.8050    1.7130   -0.3550 C   0  0  0  0  0  0  0  0  0  0  0  0
    3.3350    2.6640   -1.2150 C   0  0  0  0  0  0  0  0  0  0  0  0
    3.9840    5.1550   -2.2590 H   0  0  0  0  0  0  0  0  0  0  0  0
    0.6710    4.6580   -1.6140 H   0  0  0  0  0  0  0  0  0  0  0  0
   -0.2740    3.0410   -0.1370 H   0  0  0  0  0  0  0  0  0  0  0  0
    1.7080    0.4390    1.6140 H   0  0  0  0  0  0  0  0  0  0  0  0
    0.1880    1.3340    1.7010 H   0  0  0  0  0  0  0  0  0  0  0  0
   -0.1620   -0.9660    1.1970 H   0  0  0  0  0  0  0  0  0  0  0  0
    1.5150   -0.7280   -1.3160 H   0  0  0  0  0  0  0  0  0  0  0  0
    3.4590    0.9000   -0.0250 H   0  0  0  0  0  0  0  0  0  0  0  0
    4.3730    2.5870   -1.5470 H   0  0  0  0  0  0  0  0  0  0  0  0
   -4.8980   -3.3470    1.1290 N   0  0  0  0  0  0  0  0  0  0  0  0
   -5.6690   -2.2200    1.5400 C   0  0  0  0  0  0  0  0  0  0  0  0
   -6.6850   -1.7850    0.8400 N   0  0  0  0  0  0  0  0  0  0  0  0
   -5.3480   -1.5310    2.7460 N   0  0  0  0  0  0  0  0  0  0  0  0
   -5.4210   -0.1140    2.8460 C   0  0  0  0  0  0  0  0  0  0  0  0
   -4.3990    0.6510    2.0780 C   0  0  0  0  0  0  0  0  0  0  0  0
   -4.4350    0.4040    0.6110 C   0  0  0  0  0  0  0  0  0  0  0  0
   -3.3540    1.2540   -0.1070 C   0  0  2  0  0  0  0  0  0  0  0  0
   -2.0680    0.8540    0.4380 N   0  0  0  0  0  0  0  0  0  0  0  0
   -3.6570    2.6680    0.1320 C   0  0  0  0  0  0  0  0  0  0  0  0
   -4.7140    3.1980   -0.2880 O   0  0  0  0  0  0  0  0  0  0  0  0
   -2.7710    3.4620    0.8370 O   0  0  0  0  0  0  0  0  0  0  0  0
   -4.3950   -3.9260    1.8310 H   0  0  0  0  0  0  0  0  0  0  0  0
   -4.8280   -3.6020    0.1270 H   0  0  0  0  0  0  0  0  0  0  0  0
   -6.9620   -2.2530   -0.0430 H   0  0  0  0  0  0  0  0  0  0  0  0
   -5.0500   -2.1090    3.5740 H   0  0  0  0  0  0  0  0  0  0  0  0
   -5.3290    0.1630    3.9410 H   0  0  0  0  0  0  0  0  0  0  0  0
   -6.4620    0.2490    2.5890 H   0  0  0  0  0  0  0  0  0  0  0  0
   -3.3800    0.4370    2.5150 H   0  0  0  0  0  0  0  0  0  0  0  0
   -4.5960    1.7430    2.2880 H   0  0  0  0  0  0  0  0  0  0  0  0
   -4.2040   -0.6550    0.3760 H   0  0  0  0  0  0  0  0  0  0  0  0
   -5.3920    0.6770    0.1730 H   0  0  0  0  0  0  0  0  0  0  0  0
   -3.4690    0.9650   -1.1660 H   0  0  0  0  0  0  0  0  0  0  0  0
   -1.8260    1.1410    1.4020 H   0  0  0  0  0  0  0  0  0  0  0  0
  1 13  1  0  0  0  0
  2  3  2  0  0  0  0
  2  1  1  0  0  0  0
  3 14  1  0  0  0  0
  4  2  1  0  0  0  0
  5 17  1  0  0  0  0
  5  4  1  0  0  0  0
  6 19  1  0  0  0  0
  6  5  1  0  0  0  0
  7  8  1  0  0  0  0
  7  6  1  0  0  0  0
  8 22  1  1  0  0  0
  8 10  1  0  0  0  0
  9 23  1  0  0  0  0
  9  8  1  0  0  0  0
 10 11  2  0  0  0  0
 12  1  1  0  0  0  0
 15  4  1  0  0  0  0
 16  5  1  0  0  0  0
 18  6  1  0  0  0  0
 20  7  1  0  0  0  0
 21  7  1  0  0  0  0
 24  9  1  0  0  0  0
 25 37  1  0  0  0  0
 25 26  1  0  0  0  0
 26 27  2  0  0  0  0
 26 36  1  0  0  0  0
 27 28  1  0  0  0  0
 28 39  1  0  0  0  0
 28 29  2  0  0  0  0
 29 30  1  0  0  0  0
 30 40  1  0  0  0  0
 30 41  1  0  0  0  0
 31 30  1  0  0  0  0
 31 42  1  1  0  0  0
 32 10  1  0  0  0  0
 32 31  1  0  0  0  0
 33 31  1  0  0  0  0
 33 54  1  0  0  0  0
 34 33  2  0  0  0  0
 35 44  1  0  0  0  0
 35 29  1  0  0  0  0
 36 35  2  0  0  0  0
 38 27  1  0  0  0  0
 43 32  1  0  0  0  0
 45 36  1  0  0  0  0
 46 47  1  0  0  0  0
 46 58  1  0  0  0  0
 47 49  1  0  0  0  0
 48 47  2  0  0  0  0
 49 50  1  0  0  0  0
 49 61  1  0  0  0  0
 50 62  1  0  0  0  0
 51 65  1  0  0  0  0
 51 64  1  0  0  0  0
 51 50  1  0  0  0  0
 52 51  1  0  0  0  0
 53 68  1  6  0  0  0
 53 55  1  0  0  0  0
 53 54  1  0  0  0  0
 53 52  1  0  0  0  0
 54 69  1  0  0  0  0
 55 57  1  0  0  0  0
 56 55  2  0  0  0  0
 59 46  1  0  0  0  0
 60 48  1  0  0  0  0
 63 50  1  0  0  0  0
 66 52  1  0  0  0  0
 67 52  1  0  0  0  0
M  END
$$$$
