RYT.pdb
 OpenBabel07022418073D

 60 60  0  0  1  0  0  0  0  0999 V2000
    2.5730    4.8560    4.1400 N   0  0  0  0  0  0  0  0  0  0  0  0
    3.1920    3.6530    3.7600 C   0  0  0  0  0  0  0  0  0  0  0  0
    3.9210    2.9220    4.5610 N   0  0  0  0  0  0  0  0  0  0  0  0
    3.0360    3.1400    2.4200 N   0  0  0  0  0  0  0  0  0  0  0  0
    4.0810    2.3850    1.8090 C   0  0  0  0  0  0  0  0  0  0  0  0
    3.5930    1.8930    0.4430 C   0  0  0  0  0  0  0  0  0  0  0  0
    2.4030    1.0340    0.6580 C   0  0  0  0  0  0  0  0  0  0  0  0
    1.8040    0.4210   -0.5910 C   0  0  2  0  0  0  0  0  0  0  0  0
    1.3600    1.3550   -1.5600 N   0  0  0  0  0  0  0  0  0  0  0  0
    0.7810   -0.5890   -0.2430 C   0  0  0  0  0  0  0  0  0  0  0  0
    1.0440   -1.4360    0.7140 O   0  0  0  0  0  0  0  0  0  0  0  0
    1.5710    4.8610    4.4520 H   0  0  0  0  0  0  0  0  0  0  0  0
    3.0310    5.8070    4.1480 H   0  0  0  0  0  0  0  0  0  0  0  0
    4.0100    3.3200    5.5470 H   0  0  0  0  0  0  0  0  0  0  0  0
    2.1400    3.3590    1.9370 H   0  0  0  0  0  0  0  0  0  0  0  0
    4.2780    1.4790    2.4580 H   0  0  0  0  0  0  0  0  0  0  0  0
    5.0360    2.9140    1.7460 H   0  0  0  0  0  0  0  0  0  0  0  0
    4.4320    1.3190   -0.0030 H   0  0  0  0  0  0  0  0  0  0  0  0
    3.4320    2.7910   -0.1550 H   0  0  0  0  0  0  0  0  0  0  0  0
    1.6060    1.6010    1.1670 H   0  0  0  0  0  0  0  0  0  0  0  0
    2.6970    0.2340    1.3750 H   0  0  0  0  0  0  0  0  0  0  0  0
    2.6510   -0.1700   -1.0520 H   0  0  0  0  0  0  0  0  0  0  0  0
    1.7560    2.3160   -1.4760 H   0  0  0  0  0  0  0  0  0  0  0  0
    1.6360    1.0230   -2.5090 H   0  0  0  0  0  0  0  0  0  0  0  0
   -2.9840    3.0700    3.4280 O   0  0  0  0  0  0  0  0  0  0  0  0
   -2.9280    1.9800    2.5500 C   0  0  0  0  0  0  0  0  0  0  0  0
   -2.6650    2.1870    1.2140 C   0  0  0  0  0  0  0  0  0  0  0  0
   -2.6100    1.1300    0.3480 C   0  0  0  0  0  0  0  0  0  0  0  0
   -2.8160   -0.1920    0.7670 C   0  0  0  0  0  0  0  0  0  0  0  0
   -2.7770   -1.2990   -0.1990 C   0  0  0  0  0  0  0  0  0  0  0  0
   -1.3720   -1.8020   -0.3510 C   0  0  2  0  0  0  0  0  0  0  0  0
   -0.4830   -0.7530   -0.8400 N   0  0  0  0  0  0  0  0  0  0  0  0
   -1.3390   -2.9740   -1.2980 C   0  0  0  0  0  0  0  0  0  0  0  0
   -0.8910   -2.7590   -2.4360 O   0  0  0  0  0  0  0  0  0  0  0  0
   -3.0770   -0.3760    2.1020 C   0  0  0  0  0  0  0  0  0  0  0  0
   -3.1320    0.7040    2.9850 C   0  0  0  0  0  0  0  0  0  0  0  0
   -2.7130    3.0210    4.3870 H   0  0  0  0  0  0  0  0  0  0  0  0
   -2.4990    3.1840    0.8720 H   0  0  0  0  0  0  0  0  0  0  0  0
   -2.4130    1.2640   -0.7020 H   0  0  0  0  0  0  0  0  0  0  0  0
   -3.2160   -0.9850   -1.1940 H   0  0  0  0  0  0  0  0  0  0  0  0
   -3.4090   -2.1600    0.1650 H   0  0  0  0  0  0  0  0  0  0  0  0
   -1.0190   -2.2040    0.6040 H   0  0  0  0  0  0  0  0  0  0  0  0
   -0.7800   -0.1330   -1.6430 H   0  0  0  0  0  0  0  0  0  0  0  0
   -3.2430   -1.3870    2.4860 H   0  0  0  0  0  0  0  0  0  0  0  0
   -3.3440    0.5100    4.0470 H   0  0  0  0  0  0  0  0  0  0  0  0
   -0.2220   -7.2970   -2.3690 C   0  0  0  0  0  0  0  0  0  0  0  0
   -0.4220   -6.0820   -1.5130 C   0  0  1  0  0  0  0  0  0  0  0  0
    0.6830   -5.2400   -1.6630 O   0  0  0  0  0  0  0  0  0  0  0  0
   -1.7270   -5.3460   -1.8330 C   0  0  2  0  0  0  0  0  0  0  0  0
   -1.7970   -4.2500   -0.8670 N   0  0  0  0  0  0  0  0  0  0  0  0
   -2.9150   -6.2220   -1.6380 C   0  0  0  0  0  0  0  0  0  0  0  0
   -3.0990   -7.2360   -2.3470 O   0  0  0  0  0  0  0  0  0  0  0  0
   -3.8440   -5.9260   -0.6600 O   0  0  0  0  0  0  0  0  0  0  0  0
    0.8200   -7.2750   -2.8170 H   0  0  0  0  0  0  0  0  0  0  0  0
   -0.2630   -8.2410   -1.7820 H   0  0  0  0  0  0  0  0  0  0  0  0
   -0.9460   -7.3900   -3.2030 H   0  0  0  0  0  0  0  0  0  0  0  0
   -0.4690   -6.3770   -0.4300 H   0  0  0  0  0  0  0  0  0  0  0  0
    1.0160   -5.2380   -2.5960 H   0  0  0  0  0  0  0  0  0  0  0  0
   -1.7180   -4.9910   -2.8740 H   0  0  0  0  0  0  0  0  0  0  0  0
   -2.1690   -4.4140    0.0910 H   0  0  0  0  0  0  0  0  0  0  0  0
  1 13  1  0  0  0  0
  1 12  1  0  0  0  0
  2  1  1  0  0  0  0
  2  3  2  0  0  0  0
  3 14  1  0  0  0  0
  4  2  1  0  0  0  0
  5  4  1  0  0  0  0
  5 16  1  0  0  0  0
  6  7  1  0  0  0  0
  6  5  1  0  0  0  0
  7 20  1  0  0  0  0
  7 21  1  0  0  0  0
  8 22  1  6  0  0  0
  8 10  1  0  0  0  0
  8  7  1  0  0  0  0
  9 23  1  0  0  0  0
  9  8  1  0  0  0  0
 10 11  2  0  0  0  0
 15  4  1  0  0  0  0
 17  5  1  0  0  0  0
 18  6  1  0  0  0  0
 19  6  1  0  0  0  0
 24  9  1  0  0  0  0
 25 37  1  0  0  0  0
 26 36  1  0  0  0  0
 26 25  1  0  0  0  0
 27 26  2  0  0  0  0
 28 29  2  0  0  0  0
 28 27  1  0  0  0  0
 29 35  1  0  0  0  0
 30 41  1  0  0  0  0
 30 29  1  0  0  0  0
 31 30  1  0  0  0  0
 31 42  1  1  0  0  0
 32 31  1  0  0  0  0
 32 10  1  0  0  0  0
 33 50  1  0  0  0  0
 33 31  1  0  0  0  0
 34 33  2  0  0  0  0
 35 44  1  0  0  0  0
 35 36  2  0  0  0  0
 36 45  1  0  0  0  0
 38 27  1  0  0  0  0
 39 28  1  0  0  0  0
 40 30  1  0  0  0  0
 43 32  1  0  0  0  0
 46 55  1  0  0  0  0
 46 47  1  0  0  0  0
 47 57  1  1  0  0  0
 48 47  1  0  0  0  0
 49 59  1  6  0  0  0
 49 51  1  0  0  0  0
 49 47  1  0  0  0  0
 49 50  1  0  0  0  0
 50 60  1  0  0  0  0
 51 53  1  0  0  0  0
 52 51  2  0  0  0  0
 54 46  1  0  0  0  0
 56 46  1  0  0  0  0
 58 48  1  0  0  0  0
M  END
$$$$
