RYV.pdb
 OpenBabel07022418073D

 62 62  0  0  1  0  0  0  0  0999 V2000
   -1.4990   -2.8440    5.3950 N   0  0  0  0  0  0  0  0  0  0  0  0
   -0.1160   -2.5470    5.2970 C   0  0  0  0  0  0  0  0  0  0  0  0
    0.3720   -1.3790    5.4950 N   0  0  0  0  0  0  0  0  0  0  0  0
    0.7890   -3.6110    4.9560 N   0  0  0  0  0  0  0  0  0  0  0  0
    2.2030   -3.3710    5.0350 C   0  0  0  0  0  0  0  0  0  0  0  0
    2.6250   -2.4140    3.9680 C   0  0  0  0  0  0  0  0  0  0  0  0
    2.3580   -3.0440    2.6140 C   0  0  0  0  0  0  0  0  0  0  0  0
    2.7350   -2.0660    1.4980 C   0  0  2  0  0  0  0  0  0  0  0  0
    4.1300   -1.6800    1.6300 N   0  0  0  0  0  0  0  0  0  0  0  0
    1.8130   -0.9140    1.4150 C   0  0  0  0  0  0  0  0  0  0  0  0
    1.9010    0.0440    2.2000 O   0  0  0  0  0  0  0  0  0  0  0  0
   -1.8460   -3.4430    6.2110 H   0  0  0  0  0  0  0  0  0  0  0  0
   -2.2400   -2.5370    4.7110 H   0  0  0  0  0  0  0  0  0  0  0  0
   -0.2220   -0.5710    5.7420 H   0  0  0  0  0  0  0  0  0  0  0  0
    0.4340   -4.5240    4.6590 H   0  0  0  0  0  0  0  0  0  0  0  0
    2.7140   -4.3710    4.8180 H   0  0  0  0  0  0  0  0  0  0  0  0
    2.4890   -3.0530    6.0690 H   0  0  0  0  0  0  0  0  0  0  0  0
    3.7490   -2.2870    4.1100 H   0  0  0  0  0  0  0  0  0  0  0  0
    2.1720   -1.4290    4.0110 H   0  0  0  0  0  0  0  0  0  0  0  0
    3.0320   -3.9140    2.5100 H   0  0  0  0  0  0  0  0  0  0  0  0
    1.3250   -3.4060    2.5350 H   0  0  0  0  0  0  0  0  0  0  0  0
    2.6880   -2.7000    0.5620 H   0  0  0  0  0  0  0  0  0  0  0  0
    4.1870   -0.7250    2.0340 H   0  0  0  0  0  0  0  0  0  0  0  0
    4.6220   -1.7130    0.7100 H   0  0  0  0  0  0  0  0  0  0  0  0
   -2.7850    5.8380   -1.3600 O   0  0  0  0  0  0  0  0  0  0  0  0
   -1.9500    4.7830   -1.0170 C   0  0  0  0  0  0  0  0  0  0  0  0
   -1.4330    3.9480   -2.0040 C   0  0  0  0  0  0  0  0  0  0  0  0
   -0.6120    2.9010   -1.7010 C   0  0  0  0  0  0  0  0  0  0  0  0
   -0.2390    2.6030   -0.3980 C   0  0  0  0  0  0  0  0  0  0  0  0
    0.6030    1.4420   -0.1810 C   0  0  0  0  0  0  0  0  0  0  0  0
   -0.1730    0.2040    0.2570 C   0  0  2  0  0  0  0  0  0  0  0  0
    0.7700   -0.8650    0.4040 N   0  0  0  0  0  0  0  0  0  0  0  0
   -1.2370   -0.1010   -0.6740 C   0  0  0  0  0  0  0  0  0  0  0  0
   -2.1250    0.8220   -0.8440 O   0  0  0  0  0  0  0  0  0  0  0  0
   -0.7620    3.4420    0.5710 C   0  0  0  0  0  0  0  0  0  0  0  0
   -1.5890    4.4950    0.2710 C   0  0  0  0  0  0  0  0  0  0  0  0
   -3.5330    6.1570   -0.7600 H   0  0  0  0  0  0  0  0  0  0  0  0
   -1.7200    4.1670   -3.0430 H   0  0  0  0  0  0  0  0  0  0  0  0
   -0.2440    2.2970   -2.5420 H   0  0  0  0  0  0  0  0  0  0  0  0
    1.3350    1.6540    0.6050 H   0  0  0  0  0  0  0  0  0  0  0  0
    1.1330    1.1720   -1.1080 H   0  0  0  0  0  0  0  0  0  0  0  0
   -0.5660    0.4010    1.2860 H   0  0  0  0  0  0  0  0  0  0  0  0
    0.7930   -1.7170   -0.2240 H   0  0  0  0  0  0  0  0  0  0  0  0
   -0.4910    3.2470    1.5800 H   0  0  0  0  0  0  0  0  0  0  0  0
   -2.0110    5.1540    1.0450 H   0  0  0  0  0  0  0  0  0  0  0  0
   -1.1380   -0.4280   -4.1790 C   0  0  0  0  0  0  0  0  0  0  0  0
   -1.9860   -1.6310   -3.7460 C   0  0  0  0  0  0  0  0  0  0  0  0
   -1.0460   -2.8360   -3.8140 C   0  0  0  0  0  0  0  0  0  0  0  0
   -2.5640   -1.4350   -2.3590 C   0  0  2  0  0  0  0  0  0  0  0  0
   -1.4530   -1.2640   -1.4300 N   0  0  0  0  0  0  0  0  0  0  0  0
   -3.4540   -2.5570   -1.9920 C   0  0  0  0  0  0  0  0  0  0  0  0
   -4.4040   -2.8600   -2.7450 O   0  0  0  0  0  0  0  0  0  0  0  0
   -3.2450   -3.2630   -0.8320 O   0  0  0  0  0  0  0  0  0  0  0  0
   -1.7930    0.3670   -4.5970 H   0  0  0  0  0  0  0  0  0  0  0  0
   -0.5870   -0.0140   -3.3170 H   0  0  0  0  0  0  0  0  0  0  0  0
   -0.4190   -0.8220   -4.9410 H   0  0  0  0  0  0  0  0  0  0  0  0
   -2.8220   -1.7670   -4.4480 H   0  0  0  0  0  0  0  0  0  0  0  0
    0.0140   -2.5280   -3.6470 H   0  0  0  0  0  0  0  0  0  0  0  0
   -1.0850   -3.2020   -4.8770 H   0  0  0  0  0  0  0  0  0  0  0  0
   -1.3740   -3.6800   -3.1960 H   0  0  0  0  0  0  0  0  0  0  0  0
   -3.2080   -0.5240   -2.4190 H   0  0  0  0  0  0  0  0  0  0  0  0
   -0.7830   -2.0500   -1.3180 H   0  0  0  0  0  0  0  0  0  0  0  0
  1 12  1  0  0  0  0
  2  1  1  0  0  0  0
  2  3  2  0  0  0  0
  3 14  1  0  0  0  0
  4  5  1  0  0  0  0
  4  2  1  0  0  0  0
  5 17  1  0  0  0  0
  6 19  1  0  0  0  0
  6 18  1  0  0  0  0
  6  5  1  0  0  0  0
  7  6  1  0  0  0  0
  8 22  1  6  0  0  0
  8  9  1  0  0  0  0
  8  7  1  0  0  0  0
  9 23  1  0  0  0  0
 10  8  1  0  0  0  0
 10 11  2  0  0  0  0
 13  1  1  0  0  0  0
 15  4  1  0  0  0  0
 16  5  1  0  0  0  0
 20  7  1  0  0  0  0
 21  7  1  0  0  0  0
 24  9  1  0  0  0  0
 25 26  1  0  0  0  0
 25 37  1  0  0  0  0
 26 36  1  0  0  0  0
 27 28  1  0  0  0  0
 27 26  2  0  0  0  0
 28 29  2  0  0  0  0
 29 30  1  0  0  0  0
 29 35  1  0  0  0  0
 30 31  1  0  0  0  0
 30 40  1  0  0  0  0
 31 32  1  0  0  0  0
 31 42  1  1  0  0  0
 32 10  1  0  0  0  0
 33 31  1  0  0  0  0
 34 33  2  0  0  0  0
 35 44  1  0  0  0  0
 36 35  2  0  0  0  0
 36 45  1  0  0  0  0
 38 27  1  0  0  0  0
 39 28  1  0  0  0  0
 41 30  1  0  0  0  0
 43 32  1  0  0  0  0
 46 47  1  0  0  0  0
 46 55  1  0  0  0  0
 47 49  1  0  0  0  0
 48 47  1  0  0  0  0
 48 58  1  0  0  0  0
 48 60  1  0  0  0  0
 49 61  1  6  0  0  0
 49 51  1  0  0  0  0
 49 50  1  0  0  0  0
 50 62  1  0  0  0  0
 50 33  1  0  0  0  0
 51 53  1  0  0  0  0
 52 51  2  0  0  0  0
 54 46  1  0  0  0  0
 56 46  1  0  0  0  0
 57 47  1  0  0  0  0
 59 48  1  0  0  0  0
M  END
$$$$
