RYY.pdb
 OpenBabel07022418073D

 67 68  0  0  1  0  0  0  0  0999 V2000
    6.2420   -2.4300   -3.2070 N   0  0  0  0  0  0  0  0  0  0  0  0
    5.2640   -3.4480   -3.3220 C   0  0  0  0  0  0  0  0  0  0  0  0
    5.4940   -4.5900   -2.7820 N   0  0  0  0  0  0  0  0  0  0  0  0
    4.0520   -3.2280   -4.0150 N   0  0  0  0  0  0  0  0  0  0  0  0
    2.9260   -4.0920   -3.6860 C   0  0  0  0  0  0  0  0  0  0  0  0
    2.4660   -3.7770   -2.2660 C   0  0  0  0  0  0  0  0  0  0  0  0
    2.0370   -2.3310   -2.1570 C   0  0  0  0  0  0  0  0  0  0  0  0
    1.5870   -2.0600   -0.7260 C   0  0  2  0  0  0  0  0  0  0  0  0
    0.4800   -2.9600   -0.4730 N   0  0  0  0  0  0  0  0  0  0  0  0
    1.1310   -0.6450   -0.5940 C   0  0  0  0  0  0  0  0  0  0  0  0
    1.9580    0.2720   -0.7800 O   0  0  0  0  0  0  0  0  0  0  0  0
    6.4940   -2.0680   -2.2540 H   0  0  0  0  0  0  0  0  0  0  0  0
    6.7420   -2.0080   -4.0400 H   0  0  0  0  0  0  0  0  0  0  0  0
    6.3700   -4.8080   -2.2600 H   0  0  0  0  0  0  0  0  0  0  0  0
    3.9740   -2.4650   -4.7410 H   0  0  0  0  0  0  0  0  0  0  0  0
    3.2480   -5.1330   -3.7620 H   0  0  0  0  0  0  0  0  0  0  0  0
    2.1050   -3.8630   -4.4060 H   0  0  0  0  0  0  0  0  0  0  0  0
    1.5540   -4.4040   -2.0790 H   0  0  0  0  0  0  0  0  0  0  0  0
    3.2740   -3.9980   -1.5600 H   0  0  0  0  0  0  0  0  0  0  0  0
    1.2320   -2.1410   -2.8780 H   0  0  0  0  0  0  0  0  0  0  0  0
    2.9190   -1.6830   -2.4210 H   0  0  0  0  0  0  0  0  0  0  0  0
    2.3990   -2.3130   -0.0210 H   0  0  0  0  0  0  0  0  0  0  0  0
    0.8400   -3.8100   -0.0040 H   0  0  0  0  0  0  0  0  0  0  0  0
    0.0080   -3.2300   -1.3780 H   0  0  0  0  0  0  0  0  0  0  0  0
   -3.5990    6.7200   -1.1060 O   0  0  0  0  0  0  0  0  0  0  0  0
   -3.1460    5.4040   -1.1130 C   0  0  0  0  0  0  0  0  0  0  0  0
   -3.7650    4.4000   -0.4080 C   0  0  0  0  0  0  0  0  0  0  0  0
   -3.3030    3.1040   -0.4260 C   0  0  0  0  0  0  0  0  0  0  0  0
   -2.1850    2.7300   -1.1540 C   0  0  0  0  0  0  0  0  0  0  0  0
   -1.6750    1.3420   -1.1730 C   0  0  0  0  0  0  0  0  0  0  0  0
   -0.6310    1.0430   -0.1440 C   0  0  2  0  0  0  0  0  0  0  0  0
   -0.2180   -0.3440   -0.2630 N   0  0  0  0  0  0  0  0  0  0  0  0
   -1.0720    1.2850    1.2290 C   0  0  0  0  0  0  0  0  0  0  0  0
   -1.4650    2.4410    1.5280 O   0  0  0  0  0  0  0  0  0  0  0  0
   -1.5610    3.7380   -1.8640 C   0  0  0  0  0  0  0  0  0  0  0  0
   -2.0300    5.0330   -1.8410 C   0  0  0  0  0  0  0  0  0  0  0  0
   -3.1170    7.3680   -0.4700 H   0  0  0  0  0  0  0  0  0  0  0  0
   -4.6370    4.6280    0.1750 H   0  0  0  0  0  0  0  0  0  0  0  0
   -3.8070    2.3040    0.1370 H   0  0  0  0  0  0  0  0  0  0  0  0
   -2.5430    0.6680   -1.1260 H   0  0  0  0  0  0  0  0  0  0  0  0
   -1.1940    1.1600   -2.1770 H   0  0  0  0  0  0  0  0  0  0  0  0
    0.2510    1.7010   -0.3450 H   0  0  0  0  0  0  0  0  0  0  0  0
   -0.8730   -1.1400   -0.1150 H   0  0  0  0  0  0  0  0  0  0  0  0
   -0.6690    3.4780   -2.4540 H   0  0  0  0  0  0  0  0  0  0  0  0
   -1.5240    5.8020   -2.4040 H   0  0  0  0  0  0  0  0  0  0  0  0
   -1.6010   -5.6360    4.4120 O   0  0  0  0  0  0  0  0  0  0  0  0
   -1.8810   -4.2670    4.3360 C   0  0  0  0  0  0  0  0  0  0  0  0
   -2.3760   -3.7320    3.1540 C   0  0  0  0  0  0  0  0  0  0  0  0
   -2.6660   -2.3890    3.0330 C   0  0  0  0  0  0  0  0  0  0  0  0
   -2.4510   -1.5800    4.1280 C   0  0  0  0  0  0  0  0  0  0  0  0
   -2.7430   -0.1290    4.0610 C   0  0  0  0  0  0  0  0  0  0  0  0
   -1.5590    0.6880    3.5980 C   0  0  2  0  0  0  0  0  0  0  0  0
   -1.0980    0.3190    2.2730 N   0  0  0  0  0  0  0  0  0  0  0  0
   -0.4420    0.6310    4.5860 C   0  0  0  0  0  0  0  0  0  0  0  0
    0.7020    0.2830    4.1940 O   0  0  0  0  0  0  0  0  0  0  0  0
   -1.9600   -2.1070    5.3040 C   0  0  0  0  0  0  0  0  0  0  0  0
   -1.6650   -3.4680    5.4280 C   0  0  0  0  0  0  0  0  0  0  0  0
   -0.5970    0.9430    5.9250 O   0  0  0  0  0  0  0  0  0  0  0  0
   -0.7450   -5.9420    4.8810 H   0  0  0  0  0  0  0  0  0  0  0  0
   -2.5450   -4.3800    2.2860 H   0  0  0  0  0  0  0  0  0  0  0  0
   -3.0490   -2.0210    2.0900 H   0  0  0  0  0  0  0  0  0  0  0  0
   -3.0540    0.2810    5.0340 H   0  0  0  0  0  0  0  0  0  0  0  0
   -3.6120   -0.0150    3.3820 H   0  0  0  0  0  0  0  0  0  0  0  0
   -1.8800    1.7500    3.5870 H   0  0  0  0  0  0  0  0  0  0  0  0
   -0.7760   -0.6470    2.0520 H   0  0  0  0  0  0  0  0  0  0  0  0
   -1.7720   -1.5230    6.1950 H   0  0  0  0  0  0  0  0  0  0  0  0
   -1.2800   -3.8880    6.3470 H   0  0  0  0  0  0  0  0  0  0  0  0
  1 12  1  0  0  0  0
  2  1  1  0  0  0  0
  2  3  2  0  0  0  0
  3 14  1  0  0  0  0
  4  5  1  0  0  0  0
  4  2  1  0  0  0  0
  5  6  1  0  0  0  0
  6  7  1  0  0  0  0
  6 18  1  0  0  0  0
  6 19  1  0  0  0  0
  7  8  1  0  0  0  0
  8 10  1  0  0  0  0
  8  9  1  0  0  0  0
  8 22  1  1  0  0  0
  9 23  1  0  0  0  0
 10 32  1  0  0  0  0
 11 10  2  0  0  0  0
 13  1  1  0  0  0  0
 15  4  1  0  0  0  0
 16  5  1  0  0  0  0
 17  5  1  0  0  0  0
 20  7  1  0  0  0  0
 21  7  1  0  0  0  0
 24  9  1  0  0  0  0
 25 37  1  0  0  0  0
 26 25  1  0  0  0  0
 26 27  1  0  0  0  0
 27 38  1  0  0  0  0
 28 27  2  0  0  0  0
 28 39  1  0  0  0  0
 29 28  1  0  0  0  0
 30 29  1  0  0  0  0
 30 40  1  0  0  0  0
 30 31  1  0  0  0  0
 31 42  1  6  0  0  0
 31 33  1  0  0  0  0
 32 31  1  0  0  0  0
 32 43  1  0  0  0  0
 33 34  2  0  0  0  0
 33 53  1  0  0  0  0
 35 36  1  0  0  0  0
 35 29  2  0  0  0  0
 36 26  2  0  0  0  0
 41 30  1  0  0  0  0
 44 35  1  0  0  0  0
 45 36  1  0  0  0  0
 46 59  1  0  0  0  0
 47 46  1  0  0  0  0
 47 57  1  0  0  0  0
 48 47  2  0  0  0  0
 49 48  1  0  0  0  0
 49 50  2  0  0  0  0
 50 56  1  0  0  0  0
 51 50  1  0  0  0  0
 51 62  1  0  0  0  0
 52 64  1  6  0  0  0
 52 51  1  0  0  0  0
 52 54  1  0  0  0  0
 53 52  1  0  0  0  0
 54 58  1  0  0  0  0
 55 54  2  0  0  0  0
 56 57  2  0  0  0  0
 56 66  1  0  0  0  0
 57 67  1  0  0  0  0
 60 48  1  0  0  0  0
 61 49  1  0  0  0  0
 63 51  1  0  0  0  0
 65 53  1  0  0  0  0
M  END
$$$$
