SAA.pdb
 OpenBabel07022419063D

 33 32  0  0  1  0  0  0  0  0999 V2000
   -0.4290   -4.3550    2.4810 O   0  0  0  0  0  0  0  0  0  0  0  0
    0.1730   -3.5930    3.5010 C   0  0  0  0  0  0  0  0  0  0  0  0
    0.0790   -2.1400    3.0180 C   0  0  2  0  0  0  0  0  0  0  0  0
   -1.3270   -1.8580    2.8590 N   0  0  0  0  0  0  0  0  0  0  0  0
    0.8300   -1.9750    1.7480 C   0  0  0  0  0  0  0  0  0  0  0  0
    2.0700   -2.1830    1.7140 O   0  0  0  0  0  0  0  0  0  0  0  0
   -0.1220   -4.0570    1.5850 H   0  0  0  0  0  0  0  0  0  0  0  0
    1.2010   -3.8990    3.7010 H   0  0  0  0  0  0  0  0  0  0  0  0
   -0.4960   -3.6830    4.3810 H   0  0  0  0  0  0  0  0  0  0  0  0
    0.4680   -1.4950    3.8340 H   0  0  0  0  0  0  0  0  0  0  0  0
   -1.5550   -0.8670    2.7330 H   0  0  0  0  0  0  0  0  0  0  0  0
   -1.7540   -2.4200    2.0910 H   0  0  0  0  0  0  0  0  0  0  0  0
    0.4420   -2.3150   -1.8060 C   0  0  0  0  0  0  0  0  0  0  0  0
    0.9510   -1.4250   -0.7030 C   0  0  2  0  0  0  0  0  0  0  0  0
    0.2180   -1.5840    0.5270 N   0  0  0  0  0  0  0  0  0  0  0  0
    0.7910   -0.0180   -1.1540 C   0  0  0  0  0  0  0  0  0  0  0  0
    1.3530    0.3760   -2.2320 O   0  0  0  0  0  0  0  0  0  0  0  0
   -0.6600   -2.4470   -1.7850 H   0  0  0  0  0  0  0  0  0  0  0  0
    0.9750   -3.2920   -1.7900 H   0  0  0  0  0  0  0  0  0  0  0  0
    0.6790   -1.8340   -2.7770 H   0  0  0  0  0  0  0  0  0  0  0  0
    2.0100   -1.6590   -0.4890 H   0  0  0  0  0  0  0  0  0  0  0  0
   -0.8100   -1.4060    0.5280 H   0  0  0  0  0  0  0  0  0  0  0  0
   -1.5840    2.6000   -1.0890 C   0  0  0  0  0  0  0  0  0  0  0  0
   -0.1000    2.3290   -0.9280 C   0  0  2  0  0  0  0  0  0  0  0  0
    0.0290    0.9480   -0.4410 N   0  0  0  0  0  0  0  0  0  0  0  0
    0.3780    3.2020    0.1770 C   0  0  0  0  0  0  0  0  0  0  0  0
    0.3610    4.4440   -0.0100 O   0  0  0  0  0  0  0  0  0  0  0  0
    0.8350    2.7290    1.3890 O   0  0  0  0  0  0  0  0  0  0  0  0
   -2.0250    3.0890   -0.2020 H   0  0  0  0  0  0  0  0  0  0  0  0
   -2.1630    1.6450   -1.2290 H   0  0  0  0  0  0  0  0  0  0  0  0
   -1.7490    3.2130   -1.9890 H   0  0  0  0  0  0  0  0  0  0  0  0
    0.4540    2.4530   -1.8580 H   0  0  0  0  0  0  0  0  0  0  0  0
   -0.4350    0.6450    0.4390 H   0  0  0  0  0  0  0  0  0  0  0  0
  1  2  1  0  0  0  0
  2  8  1  0  0  0  0
  2  9  1  0  0  0  0
  3  2  1  0  0  0  0
  3 10  1  1  0  0  0
  4  3  1  0  0  0  0
  5  3  1  0  0  0  0
  6  5  2  0  0  0  0
  7  1  1  0  0  0  0
 11  4  1  0  0  0  0
 12  4  1  0  0  0  0
 13 19  1  0  0  0  0
 13 18  1  0  0  0  0
 13 14  1  0  0  0  0
 14 21  1  1  0  0  0
 14 15  1  0  0  0  0
 15 22  1  0  0  0  0
 15  5  1  0  0  0  0
 16 14  1  0  0  0  0
 16 25  1  0  0  0  0
 17 16  2  0  0  0  0
 20 13  1  0  0  0  0
 23 24  1  0  0  0  0
 23 29  1  0  0  0  0
 24 32  1  6  0  0  0
 24 25  1  0  0  0  0
 24 26  1  0  0  0  0
 25 33  1  0  0  0  0
 26 28  1  0  0  0  0
 27 26  2  0  0  0  0
 30 23  1  0  0  0  0
 31 23  1  0  0  0  0
M  END
$$$$
