SAC.pdb
 OpenBabel07022419063D

 34 33  0  0  1  0  0  0  0  0999 V2000
    2.7140   -1.2330    4.9700 O   0  0  0  0  0  0  0  0  0  0  0  0
    2.5220   -1.7540    3.6890 C   0  0  0  0  0  0  0  0  0  0  0  0
    1.7470   -0.7680    2.8400 C   0  0  2  0  0  0  0  0  0  0  0  0
    0.4660   -0.5060    3.4310 N   0  0  0  0  0  0  0  0  0  0  0  0
    1.6270   -1.3420    1.4680 C   0  0  0  0  0  0  0  0  0  0  0  0
    2.6920   -1.6090    0.8570 O   0  0  0  0  0  0  0  0  0  0  0  0
    2.0700   -0.5370    5.1810 H   0  0  0  0  0  0  0  0  0  0  0  0
    3.5540   -1.8750    3.2590 H   0  0  0  0  0  0  0  0  0  0  0  0
    2.0820   -2.7620    3.6930 H   0  0  0  0  0  0  0  0  0  0  0  0
    2.3240    0.1790    2.8460 H   0  0  0  0  0  0  0  0  0  0  0  0
    0.2840   -1.0100    4.3150 H   0  0  0  0  0  0  0  0  0  0  0  0
    0.1640    0.4750    3.4030 H   0  0  0  0  0  0  0  0  0  0  0  0
   -0.5010   -3.4410   -0.5160 C   0  0  0  0  0  0  0  0  0  0  0  0
    0.2570   -2.1520   -0.4960 C   0  0  2  0  0  0  0  0  0  0  0  0
    0.4010   -1.5950    0.8350 N   0  0  0  0  0  0  0  0  0  0  0  0
   -0.3620   -1.1230   -1.4050 C   0  0  0  0  0  0  0  0  0  0  0  0
   -0.5620   -1.4370   -2.6060 O   0  0  0  0  0  0  0  0  0  0  0  0
   -0.6510   -3.8910    0.4880 H   0  0  0  0  0  0  0  0  0  0  0  0
   -1.4880   -3.2470   -1.0150 H   0  0  0  0  0  0  0  0  0  0  0  0
    0.0040   -4.2140   -1.1340 H   0  0  0  0  0  0  0  0  0  0  0  0
    1.2670   -2.3430   -0.9270 H   0  0  0  0  0  0  0  0  0  0  0  0
   -0.4770   -1.3610    1.3710 H   0  0  0  0  0  0  0  0  0  0  0  0
   -0.7110    0.1700   -0.9130 N   0  0  0  0  0  0  0  0  0  0  0  0
   -1.3080    1.1750   -1.7710 C   0  0  1  0  0  0  0  0  0  0  0  0
   -2.6910    1.4590   -1.2070 C   0  0  0  0  0  0  0  0  0  0  0  0
   -2.5570    2.0710    0.4970 S   0  0  0  0  0  0  0  0  0  0  0  0
   -0.4990    2.3970   -1.7370 C   0  0  0  0  0  0  0  0  0  0  0  0
   -0.8180    3.4310   -2.4120 O   0  0  0  0  0  0  0  0  0  0  0  0
    0.6450    2.4550   -0.9580 O   0  0  0  0  0  0  0  0  0  0  0  0
   -0.5100    0.3440    0.0950 H   0  0  0  0  0  0  0  0  0  0  0  0
   -1.4480    0.8240   -2.7960 H   0  0  0  0  0  0  0  0  0  0  0  0
   -3.2310    2.2060   -1.8250 H   0  0  0  0  0  0  0  0  0  0  0  0
   -3.2570    0.5100   -1.1790 H   0  0  0  0  0  0  0  0  0  0  0  0
   -1.2470    2.5030    0.7930 H   0  0  0  0  0  0  0  0  0  0  0  0
  1  7  1  0  0  0  0
  2  9  1  0  0  0  0
  2  1  1  0  0  0  0
  3 10  1  6  0  0  0
  3  4  1  0  0  0  0
  3  2  1  0  0  0  0
  4 11  1  0  0  0  0
  5  3  1  0  0  0  0
  6  5  2  0  0  0  0
  8  2  1  0  0  0  0
 12  4  1  0  0  0  0
 13 14  1  0  0  0  0
 13 18  1  0  0  0  0
 14 21  1  6  0  0  0
 14 15  1  0  0  0  0
 15 22  1  0  0  0  0
 15  5  1  0  0  0  0
 16 23  1  0  0  0  0
 16 14  1  0  0  0  0
 17 16  2  0  0  0  0
 19 13  1  0  0  0  0
 20 13  1  0  0  0  0
 23 30  1  0  0  0  0
 24 31  1  6  0  0  0
 24 27  1  0  0  0  0
 24 25  1  0  0  0  0
 24 23  1  0  0  0  0
 25 33  1  0  0  0  0
 25 26  1  0  0  0  0
 26 34  1  0  0  0  0
 27 29  1  0  0  0  0
 28 27  2  0  0  0  0
 32 25  1  0  0  0  0
M  END
$$$$
