SAE.pdb
 OpenBabel07022419063D

 39 38  0  0  1  0  0  0  0  0999 V2000
   -0.5930   -5.5070   -0.0440 O   0  0  0  0  0  0  0  0  0  0  0  0
   -0.6800   -5.1420    1.3080 C   0  0  0  0  0  0  0  0  0  0  0  0
   -0.8310   -3.6450    1.4580 C   0  0  2  0  0  0  0  0  0  0  0  0
   -2.0210   -3.2050    0.7920 N   0  0  0  0  0  0  0  0  0  0  0  0
    0.3660   -2.9140    0.9810 C   0  0  0  0  0  0  0  0  0  0  0  0
    1.4680   -3.2190    1.5040 O   0  0  0  0  0  0  0  0  0  0  0  0
   -1.5190   -5.5820   -0.4150 H   0  0  0  0  0  0  0  0  0  0  0  0
   -1.6140   -5.6040    1.6890 H   0  0  0  0  0  0  0  0  0  0  0  0
    0.1420   -5.5320    1.9130 H   0  0  0  0  0  0  0  0  0  0  0  0
   -0.9360   -3.4320    2.5410 H   0  0  0  0  0  0  0  0  0  0  0  0
   -2.1000   -3.5910   -0.1650 H   0  0  0  0  0  0  0  0  0  0  0  0
   -2.8820   -3.4260    1.3600 H   0  0  0  0  0  0  0  0  0  0  0  0
    1.8500   -1.6260   -1.8360 C   0  0  0  0  0  0  0  0  0  0  0  0
    1.5830   -1.2750   -0.3800 C   0  0  2  0  0  0  0  0  0  0  0  0
    0.3410   -1.9140   -0.0040 N   0  0  0  0  0  0  0  0  0  0  0  0
    1.5040    0.2030   -0.2450 C   0  0  0  0  0  0  0  0  0  0  0  0
    2.5120    0.8920   -0.5420 O   0  0  0  0  0  0  0  0  0  0  0  0
    0.9100   -1.4450   -2.3850 H   0  0  0  0  0  0  0  0  0  0  0  0
    2.1760   -2.6680   -1.9490 H   0  0  0  0  0  0  0  0  0  0  0  0
    2.6570   -0.9910   -2.2610 H   0  0  0  0  0  0  0  0  0  0  0  0
    2.4350   -1.6920    0.1950 H   0  0  0  0  0  0  0  0  0  0  0  0
   -0.5520   -1.6470   -0.4480 H   0  0  0  0  0  0  0  0  0  0  0  0
    0.3270    0.8390    0.2060 N   0  0  0  0  0  0  0  0  0  0  0  0
    0.1720    2.2750    0.3600 C   0  0  1  0  0  0  0  0  0  0  0  0
    1.0950    2.8030    1.4050 C   0  0  0  0  0  0  0  0  0  0  0  0
    0.9130    2.2320    2.7660 C   0  0  0  0  0  0  0  0  0  0  0  0
   -0.4150    2.4600    3.3720 C   0  0  0  0  0  0  0  0  0  0  0  0
   -1.3010    3.1100    2.7860 O   0  0  0  0  0  0  0  0  0  0  0  0
    0.5070    2.9450   -0.9370 C   0  0  0  0  0  0  0  0  0  0  0  0
    0.8270    2.2760   -1.9460 O   0  0  0  0  0  0  0  0  0  0  0  0
   -0.7440    1.9570    4.6340 O   0  0  0  0  0  0  0  0  0  0  0  0
    0.4700    4.3250   -1.0540 O   0  0  0  0  0  0  0  0  0  0  0  0
   -0.4800    0.1830    0.4400 H   0  0  0  0  0  0  0  0  0  0  0  0
   -0.8830    2.5380    0.6030 H   0  0  0  0  0  0  0  0  0  0  0  0
    1.0980    3.9170    1.4550 H   0  0  0  0  0  0  0  0  0  0  0  0
    2.1400    2.5220    1.0820 H   0  0  0  0  0  0  0  0  0  0  0  0
    1.1180    1.1320    2.6970 H   0  0  0  0  0  0  0  0  0  0  0  0
    1.6670    2.7240    3.4400 H   0  0  0  0  0  0  0  0  0  0  0  0
   -1.6770    2.0610    4.9730 H   0  0  0  0  0  0  0  0  0  0  0  0
  1  2  1  0  0  0  0
  2  3  1  0  0  0  0
  2  8  1  0  0  0  0
  2  9  1  0  0  0  0
  3 10  1  1  0  0  0
  4 12  1  0  0  0  0
  4  3  1  0  0  0  0
  5  3  1  0  0  0  0
  5  6  2  0  0  0  0
  7  1  1  0  0  0  0
 11  4  1  0  0  0  0
 13 14  1  0  0  0  0
 14 16  1  0  0  0  0
 14 15  1  0  0  0  0
 14 21  1  1  0  0  0
 15  5  1  0  0  0  0
 16 23  1  0  0  0  0
 17 16  2  0  0  0  0
 18 13  1  0  0  0  0
 19 13  1  0  0  0  0
 20 13  1  0  0  0  0
 22 15  1  0  0  0  0
 23 24  1  0  0  0  0
 23 33  1  0  0  0  0
 24 34  1  1  0  0  0
 24 25  1  0  0  0  0
 25 35  1  0  0  0  0
 25 26  1  0  0  0  0
 26 27  1  0  0  0  0
 26 38  1  0  0  0  0
 27 31  1  0  0  0  0
 28 27  2  0  0  0  0
 29 24  1  0  0  0  0
 30 29  2  0  0  0  0
 31 39  1  0  0  0  0
 32 29  1  0  0  0  0
 36 25  1  0  0  0  0
 37 26  1  0  0  0  0
M  END
$$$$
