SAH.pdb
 OpenBabel07022419063D

 40 40  0  0  1  0  0  0  0  0999 V2000
   -1.3680   -2.1740    2.6760 O   0  0  0  0  0  0  0  0  0  0  0  0
   -2.0960   -1.9630    1.4840 C   0  0  0  0  0  0  0  0  0  0  0  0
   -1.8280   -3.1130    0.5350 C   0  0  2  0  0  0  0  0  0  0  0  0
   -2.2650   -4.3220    1.2020 N   0  0  0  0  0  0  0  0  0  0  0  0
   -0.3820   -3.2470    0.2470 C   0  0  0  0  0  0  0  0  0  0  0  0
    0.2230   -4.2740    0.5780 O   0  0  0  0  0  0  0  0  0  0  0  0
   -1.6530   -1.5720    3.3840 H   0  0  0  0  0  0  0  0  0  0  0  0
   -3.1650   -1.9930    1.7580 H   0  0  0  0  0  0  0  0  0  0  0  0
   -1.8440   -0.9770    1.0320 H   0  0  0  0  0  0  0  0  0  0  0  0
   -2.4310   -2.9470   -0.3780 H   0  0  0  0  0  0  0  0  0  0  0  0
   -2.3830   -4.1990    2.2270 H   0  0  0  0  0  0  0  0  0  0  0  0
   -1.6400   -5.1320    0.9910 H   0  0  0  0  0  0  0  0  0  0  0  0
    2.0350   -2.2380   -2.1990 C   0  0  0  0  0  0  0  0  0  0  0  0
    1.7740   -2.3190   -0.7060 C   0  0  2  0  0  0  0  0  0  0  0  0
    0.3600   -2.2220   -0.4090 N   0  0  0  0  0  0  0  0  0  0  0  0
    2.4370   -1.1520   -0.0830 C   0  0  0  0  0  0  0  0  0  0  0  0
    3.6810   -1.0280   -0.2130 O   0  0  0  0  0  0  0  0  0  0  0  0
    3.1010   -1.9410   -2.3440 H   0  0  0  0  0  0  0  0  0  0  0  0
    1.9390   -3.2570   -2.6240 H   0  0  0  0  0  0  0  0  0  0  0  0
    1.3320   -1.5410   -2.6950 H   0  0  0  0  0  0  0  0  0  0  0  0
    2.2070   -3.2800   -0.3640 H   0  0  0  0  0  0  0  0  0  0  0  0
   -0.1750   -1.3680   -0.6770 H   0  0  0  0  0  0  0  0  0  0  0  0
    1.7520   -0.1540    0.6580 N   0  0  0  0  0  0  0  0  0  0  0  0
    2.4100    0.9870    1.2650 C   0  0  1  0  0  0  0  0  0  0  0  0
    1.9450    2.2940    0.6880 C   0  0  0  0  0  0  0  0  0  0  0  0
    0.5130    2.5310    0.8540 C   0  0  0  0  0  0  0  0  0  0  0  0
   -0.0980    3.1580    1.9110 C   0  0  0  0  0  0  0  0  0  0  0  0
   -1.4230    3.1630    1.6620 N   0  0  0  0  0  0  0  0  0  0  0  0
   -1.6550    2.5580    0.4850 C   0  0  0  0  0  0  0  0  0  0  0  0
   -0.4560    2.1770    0.0030 N   0  0  0  0  0  0  0  0  0  0  0  0
    2.2540    0.9910    2.7360 C   0  0  0  0  0  0  0  0  0  0  0  0
    2.7730    1.9220    3.3900 O   0  0  0  0  0  0  0  0  0  0  0  0
    1.5520   -0.0030    3.3880 O   0  0  0  0  0  0  0  0  0  0  0  0
    0.7210   -0.2340    0.7790 H   0  0  0  0  0  0  0  0  0  0  0  0
    3.5000    0.8990    1.0280 H   0  0  0  0  0  0  0  0  0  0  0  0
    2.2530    2.3060   -0.3980 H   0  0  0  0  0  0  0  0  0  0  0  0
    2.5510    3.0930    1.1610 H   0  0  0  0  0  0  0  0  0  0  0  0
    0.3420    3.5920    2.8090 H   0  0  0  0  0  0  0  0  0  0  0  0
   -2.1400    3.5740    2.2940 H   0  0  0  0  0  0  0  0  0  0  0  0
   -2.6060    2.4090    0.0210 H   0  0  0  0  0  0  0  0  0  0  0  0
  1  7  1  0  0  0  0
  2  8  1  0  0  0  0
  2  1  1  0  0  0  0
  3 10  1  6  0  0  0
  3  4  1  0  0  0  0
  3  2  1  0  0  0  0
  4 11  1  0  0  0  0
  5  3  1  0  0  0  0
  5  6  2  0  0  0  0
  9  2  1  0  0  0  0
 12  4  1  0  0  0  0
 13 14  1  0  0  0  0
 14 15  1  0  0  0  0
 14 21  1  1  0  0  0
 14 16  1  0  0  0  0
 15  5  1  0  0  0  0
 16 23  1  0  0  0  0
 17 16  2  0  0  0  0
 18 13  1  0  0  0  0
 19 13  1  0  0  0  0
 20 13  1  0  0  0  0
 22 15  1  0  0  0  0
 23 34  1  0  0  0  0
 23 24  1  0  0  0  0
 24 35  1  6  0  0  0
 24 31  1  0  0  0  0
 25 26  1  0  0  0  0
 25 37  1  0  0  0  0
 25 24  1  0  0  0  0
 26 27  2  0  0  0  0
 27 38  1  0  0  0  0
 28 27  1  0  0  0  0
 28 39  1  0  0  0  0
 29 28  1  0  0  0  0
 30 29  2  0  0  0  0
 30 26  1  0  0  0  0
 31 33  2  0  0  0  0
 31 32  1  0  0  0  0
 36 25  1  0  0  0  0
 40 29  1  0  0  0  0
M  END
$$$$
