SAI.pdb
 OpenBabel07022419063D

 42 41  0  0  1  0  0  0  0  0999 V2000
    4.7960    0.4970   -0.0840 O   0  0  0  0  0  0  0  0  0  0  0  0
    3.5970   -0.1980   -0.2320 C   0  0  0  0  0  0  0  0  0  0  0  0
    3.8220   -1.6580   -0.5660 C   0  0  2  0  0  0  0  0  0  0  0  0
    4.5550   -1.8010   -1.8000 N   0  0  0  0  0  0  0  0  0  0  0  0
    2.5080   -2.3020   -0.6700 C   0  0  0  0  0  0  0  0  0  0  0  0
    2.1890   -2.8740   -1.7600 O   0  0  0  0  0  0  0  0  0  0  0  0
    5.4090    0.2320   -0.7980 H   0  0  0  0  0  0  0  0  0  0  0  0
    3.0330   -0.1910    0.7400 H   0  0  0  0  0  0  0  0  0  0  0  0
    2.9530    0.2230   -1.0280 H   0  0  0  0  0  0  0  0  0  0  0  0
    4.4640   -2.1320    0.2310 H   0  0  0  0  0  0  0  0  0  0  0  0
    5.5580   -2.0400   -1.6580 H   0  0  0  0  0  0  0  0  0  0  0  0
    4.3830   -1.0590   -2.4890 H   0  0  0  0  0  0  0  0  0  0  0  0
    0.1810   -4.1260    1.1770 C   0  0  0  0  0  0  0  0  0  0  0  0
    0.2590   -2.9950    0.1980 C   0  0  2  0  0  0  0  0  0  0  0  0
    1.5420   -2.3450    0.3540 N   0  0  0  0  0  0  0  0  0  0  0  0
   -0.8700   -2.0500    0.3090 C   0  0  0  0  0  0  0  0  0  0  0  0
   -2.0400   -2.4950    0.1910 O   0  0  0  0  0  0  0  0  0  0  0  0
    0.1010   -5.1120    0.6470 H   0  0  0  0  0  0  0  0  0  0  0  0
    1.1060   -4.2170    1.7990 H   0  0  0  0  0  0  0  0  0  0  0  0
   -0.6570   -4.0430    1.8870 H   0  0  0  0  0  0  0  0  0  0  0  0
    0.2330   -3.4120   -0.8360 H   0  0  0  0  0  0  0  0  0  0  0  0
    1.7610   -1.8880    1.2640 H   0  0  0  0  0  0  0  0  0  0  0  0
   -0.9110    2.4670    3.6560 C   0  0  0  0  0  0  0  0  0  0  0  0
   -0.7020    1.6800    2.3800 C   0  0  0  0  0  0  0  0  0  0  0  0
   -1.9420    0.8980    2.0030 C   0  0  2  0  0  0  0  0  0  0  0  0
   -2.3360   -0.0820    3.0650 C   0  0  0  0  0  0  0  0  0  0  0  0
   -1.8280    0.2640    0.6520 C   0  0  2  0  0  0  0  0  0  0  0  0
   -0.7370   -0.6600    0.5420 N   0  0  0  0  0  0  0  0  0  0  0  0
   -1.8450    1.2860   -0.4000 C   0  0  0  0  0  0  0  0  0  0  0  0
   -0.9720    1.3250   -1.3020 O   0  0  0  0  0  0  0  0  0  0  0  0
   -2.8360    2.2550   -0.4370 O   0  0  0  0  0  0  0  0  0  0  0  0
   -1.7070    1.9670    4.2600 H   0  0  0  0  0  0  0  0  0  0  0  0
   -1.2540    3.5080    3.4200 H   0  0  0  0  0  0  0  0  0  0  0  0
    0.0200    2.5130    4.2640 H   0  0  0  0  0  0  0  0  0  0  0  0
    0.1130    0.9330    2.5240 H   0  0  0  0  0  0  0  0  0  0  0  0
   -0.4120    2.3280    1.5410 H   0  0  0  0  0  0  0  0  0  0  0  0
   -2.7640    1.6690    1.9200 H   0  0  0  0  0  0  0  0  0  0  0  0
   -3.0450    0.3860    3.7500 H   0  0  0  0  0  0  0  0  0  0  0  0
   -2.8040   -0.9860    2.6070 H   0  0  0  0  0  0  0  0  0  0  0  0
   -1.4360   -0.3610    3.6610 H   0  0  0  0  0  0  0  0  0  0  0  0
   -2.7690   -0.3470    0.5160 H   0  0  0  0  0  0  0  0  0  0  0  0
    0.2400   -0.2840    0.6420 H   0  0  0  0  0  0  0  0  0  0  0  0
  2  1  1  0  0  0  0
  2  8  1  0  0  0  0
  3  2  1  0  0  0  0
  3 10  1  1  0  0  0
  4 11  1  0  0  0  0
  4  3  1  0  0  0  0
  5  3  1  0  0  0  0
  5 15  1  0  0  0  0
  6  5  2  0  0  0  0
  7  1  1  0  0  0  0
  9  2  1  0  0  0  0
 12  4  1  0  0  0  0
 13 19  1  0  0  0  0
 13 20  1  0  0  0  0
 14 21  1  6  0  0  0
 14 16  1  0  0  0  0
 14 15  1  0  0  0  0
 14 13  1  0  0  0  0
 15 22  1  0  0  0  0
 16 28  1  0  0  0  0
 17 16  2  0  0  0  0
 18 13  1  0  0  0  0
 23 32  1  0  0  0  0
 23 34  1  0  0  0  0
 24 35  1  0  0  0  0
 24 23  1  0  0  0  0
 25 37  1  6  0  0  0
 25 24  1  0  0  0  0
 25 26  1  0  0  0  0
 26 40  1  0  0  0  0
 26 38  1  0  0  0  0
 27 41  1  6  0  0  0
 27 25  1  0  0  0  0
 28 42  1  0  0  0  0
 28 27  1  0  0  0  0
 29 27  1  0  0  0  0
 30 29  2  0  0  0  0
 31 29  1  0  0  0  0
 33 23  1  0  0  0  0
 36 24  1  0  0  0  0
 39 26  1  0  0  0  0
M  END
$$$$
