SAN.pdb
 OpenBabel07022419063D

 37 36  0  0  1  0  0  0  0  0999 V2000
   -0.1330   -4.6050    3.8730 O   0  0  0  0  0  0  0  0  0  0  0  0
   -0.3790   -5.0040    2.5400 C   0  0  0  0  0  0  0  0  0  0  0  0
   -0.7770   -3.7350    1.7830 C   0  0  2  0  0  0  0  0  0  0  0  0
   -1.0590   -3.9530    0.4060 N   0  0  0  0  0  0  0  0  0  0  0  0
    0.2850   -2.7380    2.0570 C   0  0  0  0  0  0  0  0  0  0  0  0
    0.5560   -2.5830    3.2980 O   0  0  0  0  0  0  0  0  0  0  0  0
   -0.9460   -4.5910    4.4160 H   0  0  0  0  0  0  0  0  0  0  0  0
   -1.0960   -5.8140    2.4560 H   0  0  0  0  0  0  0  0  0  0  0  0
    0.6310   -5.2920    2.1170 H   0  0  0  0  0  0  0  0  0  0  0  0
   -1.7060   -3.3100    2.2740 H   0  0  0  0  0  0  0  0  0  0  0  0
   -1.7420   -3.2880    0.0160 H   0  0  0  0  0  0  0  0  0  0  0  0
   -0.2500   -4.1840   -0.1780 H   0  0  0  0  0  0  0  0  0  0  0  0
    3.3650   -1.4180    1.0110 C   0  0  0  0  0  0  0  0  0  0  0  0
    1.9810   -1.0540    1.5100 C   0  0  2  0  0  0  0  0  0  0  0  0
    0.9780   -1.9890    1.0900 N   0  0  0  0  0  0  0  0  0  0  0  0
    1.6340    0.3550    1.1330 C   0  0  0  0  0  0  0  0  0  0  0  0
    2.4070    1.2880    1.4730 O   0  0  0  0  0  0  0  0  0  0  0  0
    4.0240   -0.5180    0.9310 H   0  0  0  0  0  0  0  0  0  0  0  0
    3.8330   -2.1290    1.7230 H   0  0  0  0  0  0  0  0  0  0  0  0
    3.2800   -1.9790    0.0510 H   0  0  0  0  0  0  0  0  0  0  0  0
    2.0060   -1.0540    2.6320 H   0  0  0  0  0  0  0  0  0  0  0  0
    0.7620   -2.1100    0.0920 H   0  0  0  0  0  0  0  0  0  0  0  0
   -1.3690    4.1140   -2.5430 N   0  0  0  0  0  0  0  0  0  0  0  0
   -0.2770    3.7340   -1.7270 C   0  0  0  0  0  0  0  0  0  0  0  0
    0.4560    4.6240   -1.2300 O   0  0  0  0  0  0  0  0  0  0  0  0
    0.0480    2.3170   -1.4300 C   0  0  0  0  0  0  0  0  0  0  0  0
    0.1490    2.0890    0.0640 C   0  0  2  0  0  0  0  0  0  0  0  0
    0.4650    0.7090    0.4080 N   0  0  0  0  0  0  0  0  0  0  0  0
   -1.1380    2.4670    0.7220 C   0  0  0  0  0  0  0  0  0  0  0  0
   -1.6390    3.6030    0.6210 O   0  0  0  0  0  0  0  0  0  0  0  0
   -1.7980    1.5060    1.4810 O   0  0  0  0  0  0  0  0  0  0  0  0
   -1.6630    3.5400   -3.3450 H   0  0  0  0  0  0  0  0  0  0  0  0
   -1.8810    4.9910   -2.3270 H   0  0  0  0  0  0  0  0  0  0  0  0
    1.0810    2.1740   -1.8780 H   0  0  0  0  0  0  0  0  0  0  0  0
   -0.6930    1.6840   -1.9370 H   0  0  0  0  0  0  0  0  0  0  0  0
    0.9410    2.7710    0.4510 H   0  0  0  0  0  0  0  0  0  0  0  0
   -0.1660   -0.0740    0.1300 H   0  0  0  0  0  0  0  0  0  0  0  0
  1  7  1  0  0  0  0
  2  1  1  0  0  0  0
  3  5  1  0  0  0  0
  3 10  1  1  0  0  0
  3  2  1  0  0  0  0
  4  3  1  0  0  0  0
  5  6  2  0  0  0  0
  8  2  1  0  0  0  0
  9  2  1  0  0  0  0
 11  4  1  0  0  0  0
 12  4  1  0  0  0  0
 13 14  1  0  0  0  0
 13 19  1  0  0  0  0
 14 21  1  1  0  0  0
 15 14  1  0  0  0  0
 15  5  1  0  0  0  0
 16 17  2  0  0  0  0
 16 14  1  0  0  0  0
 18 13  1  0  0  0  0
 20 13  1  0  0  0  0
 22 15  1  0  0  0  0
 23 33  1  0  0  0  0
 23 24  1  0  0  0  0
 24 26  1  0  0  0  0
 24 25  2  0  0  0  0
 26 27  1  0  0  0  0
 27 28  1  0  0  0  0
 27 36  1  1  0  0  0
 27 29  1  0  0  0  0
 28 16  1  0  0  0  0
 29 31  1  0  0  0  0
 30 29  2  0  0  0  0
 32 23  1  0  0  0  0
 34 26  1  0  0  0  0
 35 26  1  0  0  0  0
 37 28  1  0  0  0  0
M  END
$$$$
