SAQ.pdb
 OpenBabel07022419063D

 40 39  0  0  1  0  0  0  0  0999 V2000
   -1.1730   -4.3470    2.4750 O   0  0  0  0  0  0  0  0  0  0  0  0
    0.0300   -4.9550    2.7940 C   0  0  0  0  0  0  0  0  0  0  0  0
    0.8710   -5.2370    1.5410 C   0  0  2  0  0  0  0  0  0  0  0  0
    2.0950   -5.8670    1.9850 N   0  0  0  0  0  0  0  0  0  0  0  0
    1.1920   -3.9300    0.9020 C   0  0  0  0  0  0  0  0  0  0  0  0
    2.4050   -3.5450    0.8270 O   0  0  0  0  0  0  0  0  0  0  0  0
   -1.5250   -3.9350    3.3000 H   0  0  0  0  0  0  0  0  0  0  0  0
    0.5760   -4.2640    3.4640 H   0  0  0  0  0  0  0  0  0  0  0  0
   -0.1400   -5.8830    3.3670 H   0  0  0  0  0  0  0  0  0  0  0  0
    0.2910   -5.8570    0.8360 H   0  0  0  0  0  0  0  0  0  0  0  0
    2.0190   -6.8930    1.8040 H   0  0  0  0  0  0  0  0  0  0  0  0
    2.2280   -5.7460    3.0130 H   0  0  0  0  0  0  0  0  0  0  0  0
    0.1310   -1.8670   -1.7040 C   0  0  0  0  0  0  0  0  0  0  0  0
    0.5330   -1.7960   -0.2600 C   0  0  2  0  0  0  0  0  0  0  0  0
    0.2220   -3.0710    0.3640 N   0  0  0  0  0  0  0  0  0  0  0  0
   -0.2010   -0.7340    0.4770 C   0  0  0  0  0  0  0  0  0  0  0  0
   -0.9440   -1.0110    1.4690 O   0  0  0  0  0  0  0  0  0  0  0  0
    0.0500   -2.9290   -2.0160 H   0  0  0  0  0  0  0  0  0  0  0  0
    0.8600   -1.3900   -2.3830 H   0  0  0  0  0  0  0  0  0  0  0  0
   -0.8760   -1.4260   -1.8320 H   0  0  0  0  0  0  0  0  0  0  0  0
    1.6230   -1.6650   -0.2180 H   0  0  0  0  0  0  0  0  0  0  0  0
   -0.7910   -3.3420    0.4010 H   0  0  0  0  0  0  0  0  0  0  0  0
    2.8170    5.1290    0.5190 N   0  0  0  0  0  0  0  0  0  0  0  0
    1.8740    4.3370    1.2090 C   0  0  0  0  0  0  0  0  0  0  0  0
    1.8210    4.4910    2.4760 O   0  0  0  0  0  0  0  0  0  0  0  0
    0.9850    3.3720    0.5060 C   0  0  0  0  0  0  0  0  0  0  0  0
    0.0800    2.6660    1.4960 C   0  0  0  0  0  0  0  0  0  0  0  0
   -0.8310    1.6870    0.8380 C   0  0  2  0  0  0  0  0  0  0  0  0
   -0.1210    0.6410    0.1280 N   0  0  0  0  0  0  0  0  0  0  0  0
   -1.8470    2.3390   -0.0310 C   0  0  0  0  0  0  0  0  0  0  0  0
   -2.0180    1.9810   -1.2240 O   0  0  0  0  0  0  0  0  0  0  0  0
   -2.6430    3.3690    0.4450 O   0  0  0  0  0  0  0  0  0  0  0  0
    3.5490    4.6670   -0.0460 H   0  0  0  0  0  0  0  0  0  0  0  0
    2.7930    6.1600    0.5660 H   0  0  0  0  0  0  0  0  0  0  0  0
    1.6460    2.6280    0.0110 H   0  0  0  0  0  0  0  0  0  0  0  0
    0.3920    3.8670   -0.2900 H   0  0  0  0  0  0  0  0  0  0  0  0
    0.6480    2.2010    2.3140 H   0  0  0  0  0  0  0  0  0  0  0  0
   -0.5500    3.4560    1.9580 H   0  0  0  0  0  0  0  0  0  0  0  0
   -1.4000    1.1690    1.6520 H   0  0  0  0  0  0  0  0  0  0  0  0
    0.4710    0.9210   -0.6720 H   0  0  0  0  0  0  0  0  0  0  0  0
  1  2  1  0  0  0  0
  1  7  1  0  0  0  0
  2  9  1  0  0  0  0
  2  8  1  0  0  0  0
  3 10  1  6  0  0  0
  3  4  1  0  0  0  0
  3  2  1  0  0  0  0
  4 12  1  0  0  0  0
  5  3  1  0  0  0  0
  6  5  2  0  0  0  0
 11  4  1  0  0  0  0
 13 14  1  0  0  0  0
 14 21  1  1  0  0  0
 14 15  1  0  0  0  0
 14 16  1  0  0  0  0
 15 22  1  0  0  0  0
 15  5  1  0  0  0  0
 16 17  2  0  0  0  0
 18 13  1  0  0  0  0
 19 13  1  0  0  0  0
 20 13  1  0  0  0  0
 23 34  1  0  0  0  0
 23 24  1  0  0  0  0
 24 25  2  0  0  0  0
 26 24  1  0  0  0  0
 26 27  1  0  0  0  0
 27 38  1  0  0  0  0
 27 37  1  0  0  0  0
 28 27  1  0  0  0  0
 28 39  1  1  0  0  0
 29 16  1  0  0  0  0
 29 28  1  0  0  0  0
 30 32  1  0  0  0  0
 30 28  1  0  0  0  0
 31 30  2  0  0  0  0
 33 23  1  0  0  0  0
 35 26  1  0  0  0  0
 36 26  1  0  0  0  0
 40 29  1  0  0  0  0
M  END
$$$$
