SAS.pdb
 OpenBabel07022419063D

 34 33  0  0  1  0  0  0  0  0999 V2000
    0.8530   -4.4120    4.1400 O   0  0  0  0  0  0  0  0  0  0  0  0
    1.4710   -3.7750    3.0460 C   0  0  0  0  0  0  0  0  0  0  0  0
    0.8650   -2.4060    2.8400 C   0  0  2  0  0  0  0  0  0  0  0  0
   -0.5420   -2.5870    2.5820 N   0  0  0  0  0  0  0  0  0  0  0  0
    1.5600   -1.7800    1.6790 C   0  0  0  0  0  0  0  0  0  0  0  0
    2.7950   -1.5480    1.7280 O   0  0  0  0  0  0  0  0  0  0  0  0
   -0.1340   -4.4790    3.9630 H   0  0  0  0  0  0  0  0  0  0  0  0
    1.3750   -4.4240    2.1640 H   0  0  0  0  0  0  0  0  0  0  0  0
    2.5380   -3.6410    3.3550 H   0  0  0  0  0  0  0  0  0  0  0  0
    1.0530   -1.8320    3.7870 H   0  0  0  0  0  0  0  0  0  0  0  0
   -1.0120   -1.7080    2.2590 H   0  0  0  0  0  0  0  0  0  0  0  0
   -0.6420   -3.2930    1.8310 H   0  0  0  0  0  0  0  0  0  0  0  0
    1.3040   -1.7240   -1.8460 C   0  0  0  0  0  0  0  0  0  0  0  0
    1.5310   -0.8130   -0.6570 C   0  0  2  0  0  0  0  0  0  0  0  0
    0.8780   -1.4230    0.4850 N   0  0  0  0  0  0  0  0  0  0  0  0
    0.8820    0.5010   -0.9940 C   0  0  0  0  0  0  0  0  0  0  0  0
    1.2910    1.2010   -1.9540 O   0  0  0  0  0  0  0  0  0  0  0  0
    0.2000   -1.8570   -1.9400 H   0  0  0  0  0  0  0  0  0  0  0  0
    1.6530   -1.2370   -2.7840 H   0  0  0  0  0  0  0  0  0  0  0  0
    1.7330   -2.7270   -1.7050 H   0  0  0  0  0  0  0  0  0  0  0  0
    2.6190   -0.6700   -0.4660 H   0  0  0  0  0  0  0  0  0  0  0  0
   -0.1320   -1.6000    0.4130 H   0  0  0  0  0  0  0  0  0  0  0  0
   -2.9340    3.2510   -1.2440 O   0  0  0  0  0  0  0  0  0  0  0  0
   -2.3150    2.0630   -0.9380 C   0  0  0  0  0  0  0  0  0  0  0  0
   -0.8490    2.2680   -0.5620 C   0  0  2  0  0  0  0  0  0  0  0  0
   -0.2180    1.0040   -0.2430 N   0  0  0  0  0  0  0  0  0  0  0  0
   -0.7620    3.1280    0.6480 C   0  0  0  0  0  0  0  0  0  0  0  0
   -1.2340    4.2990    0.6650 O   0  0  0  0  0  0  0  0  0  0  0  0
   -0.1600    2.6920    1.8230 O   0  0  0  0  0  0  0  0  0  0  0  0
   -3.6580    3.1580   -1.9220 H   0  0  0  0  0  0  0  0  0  0  0  0
   -2.3700    1.3960   -1.8190 H   0  0  0  0  0  0  0  0  0  0  0  0
   -2.8180    1.6330   -0.0500 H   0  0  0  0  0  0  0  0  0  0  0  0
   -0.3590    2.7450   -1.4340 H   0  0  0  0  0  0  0  0  0  0  0  0
   -0.5680    0.4330    0.5560 H   0  0  0  0  0  0  0  0  0  0  0  0
  2  9  1  0  0  0  0
  2  1  1  0  0  0  0
  3  2  1  0  0  0  0
  3 10  1  1  0  0  0
  4  3  1  0  0  0  0
  5  6  2  0  0  0  0
  5  3  1  0  0  0  0
  7  1  1  0  0  0  0
  8  2  1  0  0  0  0
 11  4  1  0  0  0  0
 12  4  1  0  0  0  0
 13 20  1  0  0  0  0
 13 14  1  0  0  0  0
 14 21  1  1  0  0  0
 14 15  1  0  0  0  0
 15  5  1  0  0  0  0
 16 14  1  0  0  0  0
 16 26  1  0  0  0  0
 17 16  2  0  0  0  0
 18 13  1  0  0  0  0
 19 13  1  0  0  0  0
 22 15  1  0  0  0  0
 23 24  1  0  0  0  0
 24 25  1  0  0  0  0
 24 32  1  0  0  0  0
 25 33  1  6  0  0  0
 25 26  1  0  0  0  0
 25 27  1  0  0  0  0
 26 34  1  0  0  0  0
 27 28  2  0  0  0  0
 27 29  1  0  0  0  0
 30 23  1  0  0  0  0
 31 24  1  0  0  0  0
M  END
$$$$
