SAT.pdb
 OpenBabel07022419063D

 37 36  0  0  1  0  0  0  0  0999 V2000
   -2.0360   -4.1580    4.0290 O   0  0  0  0  0  0  0  0  0  0  0  0
   -1.1590   -3.2690    3.3670 C   0  0  0  0  0  0  0  0  0  0  0  0
    0.0680   -4.0330    2.9100 C   0  0  2  0  0  0  0  0  0  0  0  0
    0.7700   -4.6290    4.0220 N   0  0  0  0  0  0  0  0  0  0  0  0
    0.9100   -3.1250    2.1190 C   0  0  0  0  0  0  0  0  0  0  0  0
    2.1210   -2.8840    2.3750 O   0  0  0  0  0  0  0  0  0  0  0  0
   -2.6720   -3.6330    4.5740 H   0  0  0  0  0  0  0  0  0  0  0  0
   -1.7230   -2.8730    2.5150 H   0  0  0  0  0  0  0  0  0  0  0  0
   -0.9140   -2.4530    4.0560 H   0  0  0  0  0  0  0  0  0  0  0  0
   -0.3030   -4.8800    2.2770 H   0  0  0  0  0  0  0  0  0  0  0  0
    1.4110   -5.3640    3.6680 H   0  0  0  0  0  0  0  0  0  0  0  0
    0.0930   -5.0360    4.6960 H   0  0  0  0  0  0  0  0  0  0  0  0
    1.0210   -2.1680   -1.2670 C   0  0  0  0  0  0  0  0  0  0  0  0
    1.0580   -1.5620    0.1420 C   0  0  2  0  0  0  0  0  0  0  0  0
    0.3400   -2.4770    1.0000 N   0  0  0  0  0  0  0  0  0  0  0  0
    0.3220   -0.2740    0.1290 C   0  0  0  0  0  0  0  0  0  0  0  0
   -0.7260   -0.1200    0.7840 O   0  0  0  0  0  0  0  0  0  0  0  0
   -0.0210   -2.3350   -1.5520 H   0  0  0  0  0  0  0  0  0  0  0  0
    1.5770   -1.5450   -1.9820 H   0  0  0  0  0  0  0  0  0  0  0  0
    1.5170   -3.1610   -1.1690 H   0  0  0  0  0  0  0  0  0  0  0  0
    2.1060   -1.4320    0.4660 H   0  0  0  0  0  0  0  0  0  0  0  0
   -0.6770   -2.6430    0.7370 H   0  0  0  0  0  0  0  0  0  0  0  0
    0.2070    4.5240   -0.0860 C   0  0  0  0  0  0  0  0  0  0  0  0
    0.9340    3.2240   -0.0480 C   0  0  1  0  0  0  0  0  0  0  0  0
    1.2230    2.9170    1.2760 O   0  0  0  0  0  0  0  0  0  0  0  0
    0.0790    2.1210   -0.6650 C   0  0  2  0  0  0  0  0  0  0  0  0
    0.7690    0.8540   -0.6290 N   0  0  0  0  0  0  0  0  0  0  0  0
   -0.3390    2.4950   -2.0330 C   0  0  0  0  0  0  0  0  0  0  0  0
   -0.9540    3.5640   -2.2700 O   0  0  0  0  0  0  0  0  0  0  0  0
   -0.0620    1.6700   -3.1140 O   0  0  0  0  0  0  0  0  0  0  0  0
   -0.8870    4.4330    0.0430 H   0  0  0  0  0  0  0  0  0  0  0  0
    0.3680    5.0780   -1.0500 H   0  0  0  0  0  0  0  0  0  0  0  0
    0.5640    5.2270    0.7070 H   0  0  0  0  0  0  0  0  0  0  0  0
    1.8960    3.3480   -0.5750 H   0  0  0  0  0  0  0  0  0  0  0  0
    0.4520    2.4620    1.7180 H   0  0  0  0  0  0  0  0  0  0  0  0
   -0.8170    2.0250   -0.0140 H   0  0  0  0  0  0  0  0  0  0  0  0
    1.6450    0.7290   -1.1780 H   0  0  0  0  0  0  0  0  0  0  0  0
  1  7  1  0  0  0  0
  2  1  1  0  0  0  0
  2  9  1  0  0  0  0
  3 10  1  6  0  0  0
  3  2  1  0  0  0  0
  3  4  1  0  0  0  0
  4 12  1  0  0  0  0
  5  6  2  0  0  0  0
  5  3  1  0  0  0  0
  8  2  1  0  0  0  0
 11  4  1  0  0  0  0
 13 20  1  0  0  0  0
 13 14  1  0  0  0  0
 14 21  1  1  0  0  0
 14 15  1  0  0  0  0
 15  5  1  0  0  0  0
 16 14  1  0  0  0  0
 16 17  2  0  0  0  0
 18 13  1  0  0  0  0
 19 13  1  0  0  0  0
 22 15  1  0  0  0  0
 23 24  1  0  0  0  0
 23 31  1  0  0  0  0
 23 33  1  0  0  0  0
 24 34  1  6  0  0  0
 24 25  1  0  0  0  0
 25 35  1  0  0  0  0
 26 27  1  0  0  0  0
 26 24  1  0  0  0  0
 26 36  1  1  0  0  0
 27 16  1  0  0  0  0
 28 26  1  0  0  0  0
 29 28  1  0  0  0  0
 30 28  2  0  0  0  0
 32 23  1  0  0  0  0
 37 27  1  0  0  0  0
M  END
$$$$
