SAY.pdb
 OpenBabel07022419063D

 44 44  0  0  1  0  0  0  0  0999 V2000
    5.5860   -0.5620    0.2170 O   0  0  0  0  0  0  0  0  0  0  0  0
    4.6520   -1.1700   -0.6220 C   0  0  0  0  0  0  0  0  0  0  0  0
    3.2810   -0.7360   -0.2010 C   0  0  2  0  0  0  0  0  0  0  0  0
    3.0030   -1.1170    1.1720 N   0  0  0  0  0  0  0  0  0  0  0  0
    2.2050   -1.1970   -1.1180 C   0  0  0  0  0  0  0  0  0  0  0  0
    2.2960   -1.0160   -2.3590 O   0  0  0  0  0  0  0  0  0  0  0  0
    6.0560   -1.2110    0.7970 H   0  0  0  0  0  0  0  0  0  0  0  0
    4.8060   -2.2630   -0.6090 H   0  0  0  0  0  0  0  0  0  0  0  0
    4.8330   -0.7550   -1.6550 H   0  0  0  0  0  0  0  0  0  0  0  0
    3.2880    0.3860   -0.2160 H   0  0  0  0  0  0  0  0  0  0  0  0
    2.2250   -0.5430    1.5530 H   0  0  0  0  0  0  0  0  0  0  0  0
    2.7810   -2.1550    1.2320 H   0  0  0  0  0  0  0  0  0  0  0  0
   -0.1760   -3.7830   -1.3200 C   0  0  0  0  0  0  0  0  0  0  0  0
   -0.0110   -2.3120   -1.5350 C   0  0  2  0  0  0  0  0  0  0  0  0
    1.0410   -1.8550   -0.6470 N   0  0  0  0  0  0  0  0  0  0  0  0
   -1.2810   -1.5630   -1.2290 C   0  0  0  0  0  0  0  0  0  0  0  0
   -2.3210   -1.8330   -1.9110 O   0  0  0  0  0  0  0  0  0  0  0  0
   -1.1570   -4.0540   -0.8400 H   0  0  0  0  0  0  0  0  0  0  0  0
   -0.1340   -4.3870   -2.2490 H   0  0  0  0  0  0  0  0  0  0  0  0
    0.6390   -4.2010   -0.6580 H   0  0  0  0  0  0  0  0  0  0  0  0
    0.2640   -2.1260   -2.5960 H   0  0  0  0  0  0  0  0  0  0  0  0
    0.9370   -2.0160    0.3820 H   0  0  0  0  0  0  0  0  0  0  0  0
    0.9140    1.6100    5.3640 O   0  0  0  0  0  0  0  0  0  0  0  0
   -0.0340    1.1880    4.4120 C   0  0  0  0  0  0  0  0  0  0  0  0
    0.0010   -0.1110    3.9600 C   0  0  0  0  0  0  0  0  0  0  0  0
   -0.9460   -0.4910    3.0240 C   0  0  0  0  0  0  0  0  0  0  0  0
   -1.8990    0.3800    2.5480 C   0  0  0  0  0  0  0  0  0  0  0  0
   -2.8970   -0.0380    1.5580 C   0  0  0  0  0  0  0  0  0  0  0  0
   -2.4590    0.1510    0.1310 C   0  0  2  0  0  0  0  0  0  0  0  0
   -1.2760   -0.5880   -0.1990 N   0  0  0  0  0  0  0  0  0  0  0  0
   -2.3020    1.5970   -0.2130 C   0  0  0  0  0  0  0  0  0  0  0  0
   -3.2510    2.3610    0.0100 O   0  0  0  0  0  0  0  0  0  0  0  0
   -1.9100    1.6660    3.0160 C   0  0  0  0  0  0  0  0  0  0  0  0
   -0.9770    2.0570    3.9450 C   0  0  0  0  0  0  0  0  0  0  0  0
   -1.1390    2.1020   -0.7670 O   0  0  0  0  0  0  0  0  0  0  0  0
    1.5760    2.3280    5.1040 H   0  0  0  0  0  0  0  0  0  0  0  0
    0.7570   -0.8090    4.3330 H   0  0  0  0  0  0  0  0  0  0  0  0
   -0.8840   -1.5350    2.6880 H   0  0  0  0  0  0  0  0  0  0  0  0
   -3.0970   -1.1260    1.7360 H   0  0  0  0  0  0  0  0  0  0  0  0
   -3.8900    0.4530    1.6670 H   0  0  0  0  0  0  0  0  0  0  0  0
   -3.2850   -0.2090   -0.5180 H   0  0  0  0  0  0  0  0  0  0  0  0
   -0.3690   -0.4360    0.3070 H   0  0  0  0  0  0  0  0  0  0  0  0
   -2.6320    2.3780    2.6770 H   0  0  0  0  0  0  0  0  0  0  0  0
   -0.9730    3.0710    4.3240 H   0  0  0  0  0  0  0  0  0  0  0  0
  1  7  1  0  0  0  0
  2  8  1  0  0  0  0
  2  3  1  0  0  0  0
  2  1  1  0  0  0  0
  3 10  1  6  0  0  0
  3  4  1  0  0  0  0
  4 12  1  0  0  0  0
  4 11  1  0  0  0  0
  5 15  1  0  0  0  0
  5  3  1  0  0  0  0
  6  5  2  0  0  0  0
  9  2  1  0  0  0  0
 13 18  1  0  0  0  0
 13 20  1  0  0  0  0
 14 21  1  6  0  0  0
 14 13  1  0  0  0  0
 14 16  1  0  0  0  0
 14 15  1  0  0  0  0
 15 22  1  0  0  0  0
 16 30  1  0  0  0  0
 17 16  2  0  0  0  0
 19 13  1  0  0  0  0
 24 23  1  0  0  0  0
 25 37  1  0  0  0  0
 25 24  1  0  0  0  0
 26 25  2  0  0  0  0
 27 33  2  0  0  0  0
 27 26  1  0  0  0  0
 28 40  1  0  0  0  0
 28 39  1  0  0  0  0
 28 27  1  0  0  0  0
 29 41  1  6  0  0  0
 29 28  1  0  0  0  0
 30 29  1  0  0  0  0
 30 42  1  0  0  0  0
 31 32  1  0  0  0  0
 31 29  1  0  0  0  0
 33 34  1  0  0  0  0
 34 44  1  0  0  0  0
 34 24  2  0  0  0  0
 35 31  2  0  0  0  0
 36 23  1  0  0  0  0
 38 26  1  0  0  0  0
 43 33  1  0  0  0  0
M  END
$$$$
