SCA.pdb
 OpenBabel07022419073D

 34 33  0  0  1  0  0  0  0  0999 V2000
    1.9100   -4.4020    2.7690 O   0  0  0  0  0  0  0  0  0  0  0  0
    0.8090   -4.9900    2.1520 C   0  0  0  0  0  0  0  0  0  0  0  0
    0.3630   -4.1630    0.9400 C   0  0  2  0  0  0  0  0  0  0  0  0
    1.4590   -4.1100    0.0290 N   0  0  0  0  0  0  0  0  0  0  0  0
   -0.1110   -2.8240    1.3670 C   0  0  0  0  0  0  0  0  0  0  0  0
   -1.0730   -2.7730    2.1690 O   0  0  0  0  0  0  0  0  0  0  0  0
    1.7490   -3.4180    2.8830 H   0  0  0  0  0  0  0  0  0  0  0  0
    1.1480   -5.9700    1.7530 H   0  0  0  0  0  0  0  0  0  0  0  0
   -0.0200   -5.1730    2.8480 H   0  0  0  0  0  0  0  0  0  0  0  0
   -0.4570   -4.7480    0.4700 H   0  0  0  0  0  0  0  0  0  0  0  0
    1.2950   -3.5820   -0.8330 H   0  0  0  0  0  0  0  0  0  0  0  0
    2.3910   -4.0310    0.4470 H   0  0  0  0  0  0  0  0  0  0  0  0
    0.5270   -1.6590    0.8650 N   0  0  0  0  0  0  0  0  0  0  0  0
    0.0950   -0.3490    1.2570 C   0  0  1  0  0  0  0  0  0  0  0  0
    1.1890    0.4160    1.9910 C   0  0  0  0  0  0  0  0  0  0  0  0
    2.6610    0.6400    0.9860 S   0  0  0  0  0  0  0  0  0  0  0  0
   -0.3420    0.4040    0.0790 C   0  0  0  0  0  0  0  0  0  0  0  0
   -0.2880   -0.1600   -1.0690 O   0  0  0  0  0  0  0  0  0  0  0  0
    1.3190   -1.8000    0.2020 H   0  0  0  0  0  0  0  0  0  0  0  0
   -0.7600   -0.4010    1.9670 H   0  0  0  0  0  0  0  0  0  0  0  0
    0.7610    1.4230    2.2040 H   0  0  0  0  0  0  0  0  0  0  0  0
    1.4130   -0.0600    2.9530 H   0  0  0  0  0  0  0  0  0  0  0  0
    2.5460   -0.0410   -0.2390 H   0  0  0  0  0  0  0  0  0  0  0  0
   -2.6920    2.9060   -0.8090 C   0  0  0  0  0  0  0  0  0  0  0  0
   -1.2420    2.4740   -0.9160 C   0  0  2  0  0  0  0  0  0  0  0  0
   -0.8110    1.7280    0.2300 N   0  0  0  0  0  0  0  0  0  0  0  0
   -0.3450    3.6400   -1.0900 C   0  0  0  0  0  0  0  0  0  0  0  0
   -0.5030    4.4620   -2.0270 O   0  0  0  0  0  0  0  0  0  0  0  0
    0.6950    3.8380   -0.2040 O   0  0  0  0  0  0  0  0  0  0  0  0
   -2.8460    3.6880   -1.6080 H   0  0  0  0  0  0  0  0  0  0  0  0
   -2.8700    3.4140    0.1610 H   0  0  0  0  0  0  0  0  0  0  0  0
   -3.3810    2.0790   -1.0170 H   0  0  0  0  0  0  0  0  0  0  0  0
   -1.1400    1.8600   -1.8520 H   0  0  0  0  0  0  0  0  0  0  0  0
   -0.8420    2.1520    1.1660 H   0  0  0  0  0  0  0  0  0  0  0  0
  1  7  1  0  0  0  0
  2  1  1  0  0  0  0
  2  9  1  0  0  0  0
  3 10  1  6  0  0  0
  3  5  1  0  0  0  0
  3  2  1  0  0  0  0
  4 12  1  0  0  0  0
  4  3  1  0  0  0  0
  5  6  2  0  0  0  0
  8  2  1  0  0  0  0
 11  4  1  0  0  0  0
 13 14  1  0  0  0  0
 13  5  1  0  0  0  0
 14 20  1  1  0  0  0
 14 15  1  0  0  0  0
 15 21  1  0  0  0  0
 15 22  1  0  0  0  0
 16 15  1  0  0  0  0
 17 26  1  0  0  0  0
 17 14  1  0  0  0  0
 18 17  2  0  0  0  0
 19 13  1  0  0  0  0
 23 16  1  0  0  0  0
 24 31  1  0  0  0  0
 25 33  1  6  0  0  0
 25 24  1  0  0  0  0
 25 26  1  0  0  0  0
 26 34  1  0  0  0  0
 27 25  1  0  0  0  0
 27 29  1  0  0  0  0
 28 27  2  0  0  0  0
 30 24  1  0  0  0  0
 32 24  1  0  0  0  0
M  END
$$$$
