SCD.pdb
 OpenBabel07022419073D

 37 36  0  0  1  0  0  0  0  0999 V2000
    1.8590   -5.4380    2.0990 O   0  0  0  0  0  0  0  0  0  0  0  0
    1.7110   -5.4140    0.7090 C   0  0  0  0  0  0  0  0  0  0  0  0
    0.5190   -4.5300    0.3750 C   0  0  2  0  0  0  0  0  0  0  0  0
    0.3340   -4.4800   -1.0640 N   0  0  0  0  0  0  0  0  0  0  0  0
    0.7360   -3.1850    0.9550 C   0  0  0  0  0  0  0  0  0  0  0  0
    0.9020   -3.0890    2.1820 O   0  0  0  0  0  0  0  0  0  0  0  0
    0.9810   -5.4490    2.5330 H   0  0  0  0  0  0  0  0  0  0  0  0
    1.5530   -6.4530    0.3810 H   0  0  0  0  0  0  0  0  0  0  0  0
    2.5950   -4.9320    0.2680 H   0  0  0  0  0  0  0  0  0  0  0  0
   -0.3790   -4.9630    0.8610 H   0  0  0  0  0  0  0  0  0  0  0  0
    1.2090   -4.2380   -1.5420 H   0  0  0  0  0  0  0  0  0  0  0  0
   -0.4610   -3.8560   -1.2630 H   0  0  0  0  0  0  0  0  0  0  0  0
    0.7640   -1.9950    0.1800 N   0  0  0  0  0  0  0  0  0  0  0  0
    0.9710   -0.6920    0.7280 C   0  0  1  0  0  0  0  0  0  0  0  0
    2.2800   -0.1510    0.1370 C   0  0  0  0  0  0  0  0  0  0  0  0
    2.1990   -0.0450   -1.6620 S   0  0  0  0  0  0  0  0  0  0  0  0
   -0.0970    0.2660    0.4000 C   0  0  0  0  0  0  0  0  0  0  0  0
   -1.0980   -0.0440   -0.3060 O   0  0  0  0  0  0  0  0  0  0  0  0
    0.6220   -2.0970   -0.8490 H   0  0  0  0  0  0  0  0  0  0  0  0
    1.1030   -0.7190    1.8250 H   0  0  0  0  0  0  0  0  0  0  0  0
    3.1290   -0.8290    0.3980 H   0  0  0  0  0  0  0  0  0  0  0  0
    2.4710    0.8710    0.5190 H   0  0  0  0  0  0  0  0  0  0  0  0
    0.8430   -0.0190   -2.1000 H   0  0  0  0  0  0  0  0  0  0  0  0
   -0.0420    1.6000    0.8720 N   0  0  0  0  0  0  0  0  0  0  0  0
   -1.0320    2.5920    0.6020 C   0  0  1  0  0  0  0  0  0  0  0  0
   -1.6130    3.2100    1.8510 C   0  0  0  0  0  0  0  0  0  0  0  0
   -2.2680    2.2090    2.7240 C   0  0  0  0  0  0  0  0  0  0  0  0
   -3.3980    1.7360    2.5230 O   0  0  0  0  0  0  0  0  0  0  0  0
   -0.4080    3.6980   -0.1690 C   0  0  0  0  0  0  0  0  0  0  0  0
    0.8120    3.6100   -0.4550 O   0  0  0  0  0  0  0  0  0  0  0  0
   -1.5590    1.7790    3.8370 O   0  0  0  0  0  0  0  0  0  0  0  0
   -1.1350    4.8140   -0.5770 O   0  0  0  0  0  0  0  0  0  0  0  0
    0.7800    1.9040    1.4680 H   0  0  0  0  0  0  0  0  0  0  0  0
   -1.8710    2.2090   -0.0320 H   0  0  0  0  0  0  0  0  0  0  0  0
   -0.8050    3.7340    2.3750 H   0  0  0  0  0  0  0  0  0  0  0  0
   -2.3850    3.9630    1.5920 H   0  0  0  0  0  0  0  0  0  0  0  0
   -1.7450    0.9110    4.3190 H   0  0  0  0  0  0  0  0  0  0  0  0
  1  7  1  0  0  0  0
  2  1  1  0  0  0  0
  3  2  1  0  0  0  0
  3 10  1  1  0  0  0
  3  5  1  0  0  0  0
  4  3  1  0  0  0  0
  5  6  2  0  0  0  0
  8  2  1  0  0  0  0
  9  2  1  0  0  0  0
 11  4  1  0  0  0  0
 12  4  1  0  0  0  0
 13 14  1  0  0  0  0
 13  5  1  0  0  0  0
 14 20  1  1  0  0  0
 15 21  1  0  0  0  0
 15 22  1  0  0  0  0
 15 14  1  0  0  0  0
 16 15  1  0  0  0  0
 17 14  1  0  0  0  0
 17 24  1  0  0  0  0
 18 17  2  0  0  0  0
 19 13  1  0  0  0  0
 23 16  1  0  0  0  0
 24 33  1  0  0  0  0
 25 34  1  6  0  0  0
 25 24  1  0  0  0  0
 25 26  1  0  0  0  0
 26 35  1  0  0  0  0
 26 27  1  0  0  0  0
 27 31  1  0  0  0  0
 28 27  2  0  0  0  0
 29 25  1  0  0  0  0
 30 29  1  0  0  0  0
 31 37  1  0  0  0  0
 32 29  2  0  0  0  0
 36 26  1  0  0  0  0
M  END
$$$$
