SCF.pdb
 OpenBabel07022419083D

 44 44  0  0  1  0  0  0  0  0999 V2000
    1.4120   -5.5150   -1.2220 O   0  0  0  0  0  0  0  0  0  0  0  0
    2.2500   -4.4070   -1.1090 C   0  0  0  0  0  0  0  0  0  0  0  0
    1.6280   -3.4580   -0.1070 C   0  0  2  0  0  0  0  0  0  0  0  0
    0.3390   -3.0760   -0.5960 N   0  0  0  0  0  0  0  0  0  0  0  0
    2.4730   -2.2720    0.1380 C   0  0  0  0  0  0  0  0  0  0  0  0
    3.6430   -2.3510    0.5680 O   0  0  0  0  0  0  0  0  0  0  0  0
    1.2190   -5.9300   -0.3460 H   0  0  0  0  0  0  0  0  0  0  0  0
    2.3020   -3.8950   -2.0760 H   0  0  0  0  0  0  0  0  0  0  0  0
    3.2530   -4.7540   -0.7890 H   0  0  0  0  0  0  0  0  0  0  0  0
    1.4880   -3.9650    0.8740 H   0  0  0  0  0  0  0  0  0  0  0  0
    0.2280   -3.1710   -1.6190 H   0  0  0  0  0  0  0  0  0  0  0  0
   -0.4570   -3.4430   -0.0400 H   0  0  0  0  0  0  0  0  0  0  0  0
    1.9370   -0.9850   -0.1230 N   0  0  0  0  0  0  0  0  0  0  0  0
    2.6870    0.2360    0.0870 C   0  0  1  0  0  0  0  0  0  0  0  0
    2.8030    0.9120   -1.2720 C   0  0  0  0  0  0  0  0  0  0  0  0
    3.7160    2.4580   -1.1870 S   0  0  0  0  0  0  0  0  0  0  0  0
    1.9490    1.1810    0.9750 C   0  0  0  0  0  0  0  0  0  0  0  0
    2.5140    2.2770    1.2240 O   0  0  0  0  0  0  0  0  0  0  0  0
    0.9600   -0.9330   -0.4810 H   0  0  0  0  0  0  0  0  0  0  0  0
    3.6960    0.0320    0.4650 H   0  0  0  0  0  0  0  0  0  0  0  0
    1.7630    1.0450   -1.6380 H   0  0  0  0  0  0  0  0  0  0  0  0
    3.3020    0.2170   -1.9780 H   0  0  0  0  0  0  0  0  0  0  0  0
    4.5310    2.4800   -0.0320 H   0  0  0  0  0  0  0  0  0  0  0  0
    0.6710    0.8710    1.5200 N   0  0  0  0  0  0  0  0  0  0  0  0
    0.0320    1.8280    2.3600 C   0  0  1  0  0  0  0  0  0  0  0  0
   -1.2760    2.2790    1.7510 C   0  0  0  0  0  0  0  0  0  0  0  0
   -2.2280    1.1590    1.5540 C   0  0  0  0  0  0  0  0  0  0  0  0
   -3.1390    0.7490    2.4720 C   0  0  0  0  0  0  0  0  0  0  0  0
   -4.0120   -0.2970    2.2590 C   0  0  0  0  0  0  0  0  0  0  0  0
   -3.9520   -0.9580    1.0500 C   0  0  0  0  0  0  0  0  0  0  0  0
   -3.0340   -0.5500    0.1170 C   0  0  0  0  0  0  0  0  0  0  0  0
   -2.1640    0.4980    0.3380 C   0  0  0  0  0  0  0  0  0  0  0  0
   -0.2480    1.3230    3.7260 C   0  0  0  0  0  0  0  0  0  0  0  0
   -0.8100    2.0790    4.5590 O   0  0  0  0  0  0  0  0  0  0  0  0
    0.0790    0.0470    4.1450 O   0  0  0  0  0  0  0  0  0  0  0  0
    0.2550   -0.0670    1.2700 H   0  0  0  0  0  0  0  0  0  0  0  0
    0.6590    2.7280    2.4740 H   0  0  0  0  0  0  0  0  0  0  0  0
   -1.1220    2.8340    0.8050 H   0  0  0  0  0  0  0  0  0  0  0  0
   -1.7520    2.9930    2.4550 H   0  0  0  0  0  0  0  0  0  0  0  0
   -3.1790    1.2740    3.4190 H   0  0  0  0  0  0  0  0  0  0  0  0
   -4.7330   -0.6110    3.0040 H   0  0  0  0  0  0  0  0  0  0  0  0
   -4.6400   -1.7980    0.8570 H   0  0  0  0  0  0  0  0  0  0  0  0
   -2.9920   -1.0730   -0.8310 H   0  0  0  0  0  0  0  0  0  0  0  0
   -1.4450    0.7970   -0.4280 H   0  0  0  0  0  0  0  0  0  0  0  0
  1  2  1  0  0  0  0
  1  7  1  0  0  0  0
  2  9  1  0  0  0  0
  2  3  1  0  0  0  0
  3  5  1  0  0  0  0
  3 10  1  1  0  0  0
  4  3  1  0  0  0  0
  4 12  1  0  0  0  0
  5  6  2  0  0  0  0
  8  2  1  0  0  0  0
 11  4  1  0  0  0  0
 13 14  1  0  0  0  0
 13  5  1  0  0  0  0
 14 20  1  1  0  0  0
 14 17  1  0  0  0  0
 15 16  1  0  0  0  0
 15 14  1  0  0  0  0
 16 23  1  0  0  0  0
 17 18  2  0  0  0  0
 17 24  1  0  0  0  0
 19 13  1  0  0  0  0
 21 15  1  0  0  0  0
 22 15  1  0  0  0  0
 24 25  1  0  0  0  0
 25 37  1  1  0  0  0
 25 33  1  0  0  0  0
 26 25  1  0  0  0  0
 26 39  1  0  0  0  0
 27 26  1  0  0  0  0
 27 28  1  0  0  0  0
 28 40  1  0  0  0  0
 29 28  2  0  0  0  0
 29 41  1  0  0  0  0
 30 29  1  0  0  0  0
 31 32  1  0  0  0  0
 31 30  2  0  0  0  0
 32 27  2  0  0  0  0
 33 35  2  0  0  0  0
 33 34  1  0  0  0  0
 36 24  1  0  0  0  0
 38 26  1  0  0  0  0
 42 30  1  0  0  0  0
 43 31  1  0  0  0  0
 44 32  1  0  0  0  0
M  END
$$$$
