SCM.pdb
 OpenBabel07022419083D

 41 40  0  0  1  0  0  0  0  0999 V2000
   -0.8720   -3.9030    3.3500 O   0  0  0  0  0  0  0  0  0  0  0  0
   -0.6110   -4.8300    2.3520 C   0  0  0  0  0  0  0  0  0  0  0  0
    0.8340   -4.8190    1.9240 C   0  0  2  0  0  0  0  0  0  0  0  0
    1.6760   -5.1320    3.0500 N   0  0  0  0  0  0  0  0  0  0  0  0
    1.2460   -3.4890    1.3840 C   0  0  0  0  0  0  0  0  0  0  0  0
    2.2200   -2.8740    1.8880 O   0  0  0  0  0  0  0  0  0  0  0  0
   -0.1200   -3.8640    4.0110 H   0  0  0  0  0  0  0  0  0  0  0  0
   -1.2820   -4.6200    1.4810 H   0  0  0  0  0  0  0  0  0  0  0  0
   -0.8490   -5.8380    2.7420 H   0  0  0  0  0  0  0  0  0  0  0  0
    1.0040   -5.5830    1.1370 H   0  0  0  0  0  0  0  0  0  0  0  0
    1.2580   -5.8490    3.6970 H   0  0  0  0  0  0  0  0  0  0  0  0
    1.9560   -4.3050    3.6000 H   0  0  0  0  0  0  0  0  0  0  0  0
    0.5600   -2.8780    0.2950 N   0  0  0  0  0  0  0  0  0  0  0  0
    1.0090   -1.5970   -0.1750 C   0  0  1  0  0  0  0  0  0  0  0  0
    1.3670   -1.5950   -1.6380 C   0  0  0  0  0  0  0  0  0  0  0  0
    2.6930   -2.7600   -2.0180 S   0  0  0  0  0  0  0  0  0  0  0  0
   -0.0690   -0.5740    0.0080 C   0  0  0  0  0  0  0  0  0  0  0  0
   -1.1470   -0.9390    0.5110 O   0  0  0  0  0  0  0  0  0  0  0  0
   -0.2450   -3.4000   -0.1100 H   0  0  0  0  0  0  0  0  0  0  0  0
    1.9070   -1.2770    0.4050 H   0  0  0  0  0  0  0  0  0  0  0  0
    0.4690   -1.8210   -2.2380 H   0  0  0  0  0  0  0  0  0  0  0  0
    1.6860   -0.5660   -1.8960 H   0  0  0  0  0  0  0  0  0  0  0  0
    2.9750   -2.7100   -3.3940 H   0  0  0  0  0  0  0  0  0  0  0  0
    2.0340    4.4880    2.2900 C   0  0  0  0  0  0  0  0  0  0  0  0
    0.5460    3.7840    3.0610 S   0  0  0  0  0  0  0  0  0  0  0  0
   -0.0210    2.3930    2.0400 C   0  0  0  0  0  0  0  0  0  0  0  0
   -0.4990    2.8760    0.6870 C   0  0  0  0  0  0  0  0  0  0  0  0
   -0.9680    1.7090   -0.1670 C   0  0  2  0  0  0  0  0  0  0  0  0
    0.1160    0.7700   -0.3730 N   0  0  0  0  0  0  0  0  0  0  0  0
   -1.4480    2.1960   -1.4960 C   0  0  0  0  0  0  0  0  0  0  0  0
   -2.3940    3.0300   -1.5600 O   0  0  0  0  0  0  0  0  0  0  0  0
   -0.9020    1.7770   -2.6990 O   0  0  0  0  0  0  0  0  0  0  0  0
    2.5280    3.6670    1.7320 H   0  0  0  0  0  0  0  0  0  0  0  0
    1.7250    5.3000    1.6020 H   0  0  0  0  0  0  0  0  0  0  0  0
    2.7520    4.8420    3.0390 H   0  0  0  0  0  0  0  0  0  0  0  0
    0.8490    1.7060    1.9210 H   0  0  0  0  0  0  0  0  0  0  0  0
   -0.8080    1.8780    2.6120 H   0  0  0  0  0  0  0  0  0  0  0  0
   -1.3760    3.5310    0.8840 H   0  0  0  0  0  0  0  0  0  0  0  0
    0.2990    3.4130    0.1760 H   0  0  0  0  0  0  0  0  0  0  0  0
   -1.8220    1.1880    0.2910 H   0  0  0  0  0  0  0  0  0  0  0  0
    1.0210    1.0900   -0.8000 H   0  0  0  0  0  0  0  0  0  0  0  0
  1  7  1  0  0  0  0
  2  9  1  0  0  0  0
  2  1  1  0  0  0  0
  3 10  1  6  0  0  0
  3  2  1  0  0  0  0
  3  4  1  0  0  0  0
  4 12  1  0  0  0  0
  4 11  1  0  0  0  0
  5  6  2  0  0  0  0
  5  3  1  0  0  0  0
  8  2  1  0  0  0  0
 13  5  1  0  0  0  0
 14 17  1  0  0  0  0
 14 13  1  0  0  0  0
 14 20  1  1  0  0  0
 15 14  1  0  0  0  0
 16 15  1  0  0  0  0
 17 18  2  0  0  0  0
 19 13  1  0  0  0  0
 21 15  1  0  0  0  0
 22 15  1  0  0  0  0
 23 16  1  0  0  0  0
 24 35  1  0  0  0  0
 24 25  1  0  0  0  0
 26 37  1  0  0  0  0
 26 25  1  0  0  0  0
 27 38  1  0  0  0  0
 27 26  1  0  0  0  0
 28 40  1  1  0  0  0
 28 27  1  0  0  0  0
 29 28  1  0  0  0  0
 29 17  1  0  0  0  0
 30 28  1  0  0  0  0
 31 30  1  0  0  0  0
 32 30  2  0  0  0  0
 33 24  1  0  0  0  0
 34 24  1  0  0  0  0
 36 26  1  0  0  0  0
 39 27  1  0  0  0  0
 41 29  1  0  0  0  0
M  END
$$$$
