SCN.pdb
 OpenBabel07022419073D

 38 37  0  0  1  0  0  0  0  0999 V2000
    0.4670   -5.9380   -0.2970 O   0  0  0  0  0  0  0  0  0  0  0  0
    0.2600   -5.7580    1.0800 C   0  0  0  0  0  0  0  0  0  0  0  0
    1.0590   -4.5290    1.4680 C   0  0  2  0  0  0  0  0  0  0  0  0
    0.8860   -4.2900    2.8820 N   0  0  0  0  0  0  0  0  0  0  0  0
    0.6290   -3.3630    0.6910 C   0  0  0  0  0  0  0  0  0  0  0  0
    0.6850   -3.3580   -0.5590 O   0  0  0  0  0  0  0  0  0  0  0  0
   -0.3890   -6.1060   -0.7510 H   0  0  0  0  0  0  0  0  0  0  0  0
   -0.8020   -5.5500    1.2650 H   0  0  0  0  0  0  0  0  0  0  0  0
    0.6460   -6.6450    1.6150 H   0  0  0  0  0  0  0  0  0  0  0  0
    2.1360   -4.7060    1.2690 H   0  0  0  0  0  0  0  0  0  0  0  0
    0.7090   -5.1640    3.3910 H   0  0  0  0  0  0  0  0  0  0  0  0
    1.7190   -3.8050    3.2440 H   0  0  0  0  0  0  0  0  0  0  0  0
    0.1360   -2.2100    1.3600 N   0  0  0  0  0  0  0  0  0  0  0  0
   -0.3040   -1.0280    0.6460 C   0  0  1  0  0  0  0  0  0  0  0  0
   -1.7680   -0.7430    0.9250 C   0  0  0  0  0  0  0  0  0  0  0  0
   -2.8310   -2.0960    0.4240 S   0  0  0  0  0  0  0  0  0  0  0  0
    0.4450    0.1760    1.1090 C   0  0  0  0  0  0  0  0  0  0  0  0
    1.3270    0.0920    2.0220 O   0  0  0  0  0  0  0  0  0  0  0  0
    0.1010   -2.2460    2.4050 H   0  0  0  0  0  0  0  0  0  0  0  0
   -0.1810   -1.1870   -0.4220 H   0  0  0  0  0  0  0  0  0  0  0  0
   -2.0400    0.1470    0.3230 H   0  0  0  0  0  0  0  0  0  0  0  0
   -1.8320   -0.4830    1.9970 H   0  0  0  0  0  0  0  0  0  0  0  0
   -3.9940   -2.1630    1.2020 H   0  0  0  0  0  0  0  0  0  0  0  0
   -0.0590    3.4500   -1.5400 N   0  0  0  0  0  0  0  0  0  0  0  0
    1.3170    3.4100   -1.2910 C   0  0  0  0  0  0  0  0  0  0  0  0
    2.0830    3.7420   -2.2450 O   0  0  0  0  0  0  0  0  0  0  0  0
    1.9370    3.0220   -0.0320 C   0  0  0  0  0  0  0  0  0  0  0  0
    0.9740    2.6030    1.0500 C   0  0  2  0  0  0  0  0  0  0  0  0
    0.2290    1.4680    0.5720 N   0  0  0  0  0  0  0  0  0  0  0  0
    0.1360    3.6950    1.5510 C   0  0  0  0  0  0  0  0  0  0  0  0
   -1.1060    3.5800    1.5530 O   0  0  0  0  0  0  0  0  0  0  0  0
    0.6760    4.8660    2.0310 O   0  0  0  0  0  0  0  0  0  0  0  0
   -0.5270    2.7900   -2.2060 H   0  0  0  0  0  0  0  0  0  0  0  0
   -0.6870    4.1350   -1.0830 H   0  0  0  0  0  0  0  0  0  0  0  0
    2.5800    3.8220    0.4030 H   0  0  0  0  0  0  0  0  0  0  0  0
    2.6290    2.1580   -0.1800 H   0  0  0  0  0  0  0  0  0  0  0  0
    1.6610    2.2760    1.9050 H   0  0  0  0  0  0  0  0  0  0  0  0
   -0.4870    1.5570   -0.1740 H   0  0  0  0  0  0  0  0  0  0  0  0
  1  2  1  0  0  0  0
  2  8  1  0  0  0  0
  2  3  1  0  0  0  0
  2  9  1  0  0  0  0
  3 10  1  6  0  0  0
  3  4  1  0  0  0  0
  4 12  1  0  0  0  0
  4 11  1  0  0  0  0
  5 13  1  0  0  0  0
  5  3  1  0  0  0  0
  6  5  2  0  0  0  0
  7  1  1  0  0  0  0
 13 19  1  0  0  0  0
 14 20  1  6  0  0  0
 14 15  1  0  0  0  0
 14 17  1  0  0  0  0
 14 13  1  0  0  0  0
 15 22  1  0  0  0  0
 16 15  1  0  0  0  0
 16 23  1  0  0  0  0
 17 18  2  0  0  0  0
 21 15  1  0  0  0  0
 24 25  1  0  0  0  0
 24 34  1  0  0  0  0
 25 27  1  0  0  0  0
 26 25  2  0  0  0  0
 27 35  1  0  0  0  0
 27 28  1  0  0  0  0
 28 30  1  0  0  0  0
 28 37  1  1  0  0  0
 29 28  1  0  0  0  0
 29 17  1  0  0  0  0
 30 31  2  0  0  0  0
 30 32  1  0  0  0  0
 33 24  1  0  0  0  0
 36 27  1  0  0  0  0
 38 29  1  0  0  0  0
M  END
$$$$
