SCP.pdb
 OpenBabel07022419083D

 38 38  0  0  1  0  0  0  0  0999 V2000
    4.5380   -3.3440    1.9800 O   0  0  0  0  0  0  0  0  0  0  0  0
    3.4600   -4.2090    2.1520 C   0  0  0  0  0  0  0  0  0  0  0  0
    2.2660   -3.4630    2.7060 C   0  0  2  0  0  0  0  0  0  0  0  0
    1.1650   -4.3600    2.8790 N   0  0  0  0  0  0  0  0  0  0  0  0
    1.9630   -2.2980    1.8550 C   0  0  0  0  0  0  0  0  0  0  0  0
    2.8660   -1.4640    1.6500 O   0  0  0  0  0  0  0  0  0  0  0  0
    4.6530   -2.8790    2.8580 H   0  0  0  0  0  0  0  0  0  0  0  0
    3.7920   -4.9870    2.8840 H   0  0  0  0  0  0  0  0  0  0  0  0
    3.2130   -4.7210    1.2060 H   0  0  0  0  0  0  0  0  0  0  0  0
    2.5870   -3.0640    3.7020 H   0  0  0  0  0  0  0  0  0  0  0  0
    1.5390   -5.2560    3.2560 H   0  0  0  0  0  0  0  0  0  0  0  0
    0.4800   -3.9470    3.5680 H   0  0  0  0  0  0  0  0  0  0  0  0
    0.6980   -2.0690    1.2520 N   0  0  0  0  0  0  0  0  0  0  0  0
    0.4580   -0.8780    0.4070 C   0  0  1  0  0  0  0  0  0  0  0  0
    0.2110   -1.4640   -0.9720 C   0  0  0  0  0  0  0  0  0  0  0  0
   -1.2350   -2.5780   -0.9400 S   0  0  0  0  0  0  0  0  0  0  0  0
   -0.7030   -0.1440    0.9360 C   0  0  0  0  0  0  0  0  0  0  0  0
   -1.3460   -0.7340    1.8880 O   0  0  0  0  0  0  0  0  0  0  0  0
   -0.0550   -2.7690    1.4260 H   0  0  0  0  0  0  0  0  0  0  0  0
    1.3940   -0.3120    0.3860 H   0  0  0  0  0  0  0  0  0  0  0  0
    0.1890   -0.7600   -1.7860 H   0  0  0  0  0  0  0  0  0  0  0  0
    1.0830   -2.1530   -1.1900 H   0  0  0  0  0  0  0  0  0  0  0  0
   -2.3100   -1.9870   -0.2390 H   0  0  0  0  0  0  0  0  0  0  0  0
   -1.1550    1.1140    0.5020 N   0  0  0  0  0  0  0  0  0  0  0  0
   -2.3110    1.7970    1.0060 C   0  0  0  0  0  0  0  0  0  0  0  0
   -2.7860    2.6090   -0.1790 C   0  0  0  0  0  0  0  0  0  0  0  0
   -1.8130    2.3350   -1.2970 C   0  0  0  0  0  0  0  0  0  0  0  0
   -0.5710    1.9590   -0.4750 C   0  0  1  0  0  0  0  0  0  0  0  0
   -0.0060    3.2000    0.1160 C   0  0  0  0  0  0  0  0  0  0  0  0
   -0.0180    3.3810    1.3360 O   0  0  0  0  0  0  0  0  0  0  0  0
    0.5540    4.2000   -0.6770 O   0  0  0  0  0  0  0  0  0  0  0  0
   -2.0340    2.4490    1.8760 H   0  0  0  0  0  0  0  0  0  0  0  0
   -3.1040    1.0680    1.3230 H   0  0  0  0  0  0  0  0  0  0  0  0
   -2.7820    3.6980    0.0180 H   0  0  0  0  0  0  0  0  0  0  0  0
   -3.8040    2.2810   -0.4910 H   0  0  0  0  0  0  0  0  0  0  0  0
   -2.0920    1.4400   -1.8630 H   0  0  0  0  0  0  0  0  0  0  0  0
   -1.6090    3.2250   -1.9160 H   0  0  0  0  0  0  0  0  0  0  0  0
    0.1670    1.4650   -1.1430 H   0  0  0  0  0  0  0  0  0  0  0  0
  1  2  1  0  0  0  0
  1  7  1  0  0  0  0
  2  3  1  0  0  0  0
  2  8  1  0  0  0  0
  3  4  1  0  0  0  0
  3 10  1  1  0  0  0
  4 11  1  0  0  0  0
  4 12  1  0  0  0  0
  5  3  1  0  0  0  0
  6  5  2  0  0  0  0
  9  2  1  0  0  0  0
 13 19  1  0  0  0  0
 13  5  1  0  0  0  0
 14 20  1  6  0  0  0
 14 17  1  0  0  0  0
 14 13  1  0  0  0  0
 15 16  1  0  0  0  0
 15 14  1  0  0  0  0
 16 23  1  0  0  0  0
 17 18  2  0  0  0  0
 21 15  1  0  0  0  0
 22 15  1  0  0  0  0
 24 17  1  0  0  0  0
 24 25  1  0  0  0  0
 25 33  1  0  0  0  0
 25 32  1  0  0  0  0
 26 34  1  0  0  0  0
 26 25  1  0  0  0  0
 27 28  1  0  0  0  0
 27 26  1  0  0  0  0
 28 38  1  6  0  0  0
 28 29  1  0  0  0  0
 28 24  1  0  0  0  0
 29 30  1  0  0  0  0
 31 29  2  0  0  0  0
 35 26  1  0  0  0  0
 36 27  1  0  0  0  0
 37 27  1  0  0  0  0
M  END
$$$$
