SCR.pdb
 OpenBabel07022419073D

 47 46  0  0  1  0  0  0  0  0999 V2000
    5.3940   -4.2590   -1.1600 O   0  0  0  0  0  0  0  0  0  0  0  0
    4.7670   -3.0580   -0.8510 C   0  0  0  0  0  0  0  0  0  0  0  0
    3.3370   -3.3870   -0.4560 C   0  0  2  0  0  0  0  0  0  0  0  0
    2.7010   -4.0380   -1.5820 N   0  0  0  0  0  0  0  0  0  0  0  0
    2.5760   -2.1600   -0.0890 C   0  0  0  0  0  0  0  0  0  0  0  0
    2.9450   -1.4360    0.8600 O   0  0  0  0  0  0  0  0  0  0  0  0
    4.6950   -4.8440   -1.5790 H   0  0  0  0  0  0  0  0  0  0  0  0
    4.7600   -2.4140   -1.7610 H   0  0  0  0  0  0  0  0  0  0  0  0
    5.2910   -2.5790   -0.0000 H   0  0  0  0  0  0  0  0  0  0  0  0
    3.3390   -4.0800    0.3940 H   0  0  0  0  0  0  0  0  0  0  0  0
    1.7340   -4.3400   -1.3860 H   0  0  0  0  0  0  0  0  0  0  0  0
    2.8140   -3.4980   -2.4660 H   0  0  0  0  0  0  0  0  0  0  0  0
    1.4180   -1.8030   -0.8200 N   0  0  0  0  0  0  0  0  0  0  0  0
    0.6640   -0.6220   -0.4860 C   0  0  1  0  0  0  0  0  0  0  0  0
    0.6610    0.2800   -1.6960 C   0  0  0  0  0  0  0  0  0  0  0  0
    2.4100    0.6750   -2.0570 S   0  0  0  0  0  0  0  0  0  0  0  0
   -0.7070   -1.0420   -0.0940 C   0  0  0  0  0  0  0  0  0  0  0  0
   -1.0850   -2.2470   -0.0760 O   0  0  0  0  0  0  0  0  0  0  0  0
    1.1150   -2.4080   -1.6080 H   0  0  0  0  0  0  0  0  0  0  0  0
    1.0980   -0.0800    0.3630 H   0  0  0  0  0  0  0  0  0  0  0  0
    0.2450   -0.1840   -2.5890 H   0  0  0  0  0  0  0  0  0  0  0  0
    0.1870    1.2630   -1.4350 H   0  0  0  0  0  0  0  0  0  0  0  0
    3.0020    1.3380   -0.9460 H   0  0  0  0  0  0  0  0  0  0  0  0
    1.3430    0.9690    4.1290 N   0  0  0  0  0  0  0  0  0  0  0  0
    0.1920    1.7020    3.6880 C   0  0  0  0  0  0  0  0  0  0  0  0
    0.3430    2.9520    3.4310 N   0  0  0  0  0  0  0  0  0  0  0  0
   -1.0710    1.0590    3.5420 N   0  0  0  0  0  0  0  0  0  0  0  0
   -2.1190    1.7780    2.8410 C   0  0  0  0  0  0  0  0  0  0  0  0
   -3.3850    1.0190    2.7480 C   0  0  0  0  0  0  0  0  0  0  0  0
   -3.4060   -0.2950    2.1020 C   0  0  0  0  0  0  0  0  0  0  0  0
   -3.0270   -0.4440    0.6800 C   0  0  2  0  0  0  0  0  0  0  0  0
   -1.7100   -0.0740    0.3000 N   0  0  0  0  0  0  0  0  0  0  0  0
   -4.0680    0.1550   -0.2290 C   0  0  0  0  0  0  0  0  0  0  0  0
   -3.8040    0.8870   -1.2000 O   0  0  0  0  0  0  0  0  0  0  0  0
   -5.3810   -0.1560    0.0720 O   0  0  0  0  0  0  0  0  0  0  0  0
    2.3060    1.2160    3.8270 H   0  0  0  0  0  0  0  0  0  0  0  0
    1.1780    0.1670    4.7750 H   0  0  0  0  0  0  0  0  0  0  0  0
    1.2720    3.3870    3.5470 H   0  0  0  0  0  0  0  0  0  0  0  0
   -1.2500    0.1180    3.9150 H   0  0  0  0  0  0  0  0  0  0  0  0
   -1.7840    2.3320    1.9670 H   0  0  0  0  0  0  0  0  0  0  0  0
   -2.3620    2.6320    3.5880 H   0  0  0  0  0  0  0  0  0  0  0  0
   -3.7450    0.8710    3.8090 H   0  0  0  0  0  0  0  0  0  0  0  0
   -4.1580    1.6970    2.3040 H   0  0  0  0  0  0  0  0  0  0  0  0
   -4.4750   -0.6810    2.2170 H   0  0  0  0  0  0  0  0  0  0  0  0
   -2.8290   -1.0560    2.6970 H   0  0  0  0  0  0  0  0  0  0  0  0
   -3.1230   -1.5630    0.4460 H   0  0  0  0  0  0  0  0  0  0  0  0
   -1.3740    0.9010    0.2610 H   0  0  0  0  0  0  0  0  0  0  0  0
  1  2  1  0  0  0  0
  2  3  1  0  0  0  0
  2  9  1  0  0  0  0
  3  5  1  0  0  0  0
  3 10  1  1  0  0  0
  4 11  1  0  0  0  0
  4  3  1  0  0  0  0
  5  6  2  0  0  0  0
  7  1  1  0  0  0  0
  8  2  1  0  0  0  0
 12  4  1  0  0  0  0
 13 14  1  0  0  0  0
 13  5  1  0  0  0  0
 14 17  1  0  0  0  0
 14 20  1  1  0  0  0
 15 22  1  0  0  0  0
 15 14  1  0  0  0  0
 16 15  1  0  0  0  0
 16 23  1  0  0  0  0
 17 18  2  0  0  0  0
 17 32  1  0  0  0  0
 19 13  1  0  0  0  0
 21 15  1  0  0  0  0
 24 37  1  0  0  0  0
 25 24  1  0  0  0  0
 26 38  1  0  0  0  0
 26 25  2  0  0  0  0
 27 25  1  0  0  0  0
 27 39  1  0  0  0  0
 28 27  1  0  0  0  0
 28 41  1  0  0  0  0
 29 28  1  0  0  0  0
 29 42  1  0  0  0  0
 30 44  1  0  0  0  0
 30 45  1  0  0  0  0
 30 29  1  0  0  0  0
 31 46  1  6  0  0  0
 31 30  1  0  0  0  0
 32 31  1  0  0  0  0
 33 35  1  0  0  0  0
 33 31  1  0  0  0  0
 34 33  2  0  0  0  0
 36 24  1  0  0  0  0
 40 28  1  0  0  0  0
 43 29  1  0  0  0  0
 47 32  1  0  0  0  0
M  END
$$$$
