SCS.pdb
 OpenBabel07022419083D

 35 34  0  0  1  0  0  0  0  0999 V2000
   -1.6580   -3.8770    4.2440 O   0  0  0  0  0  0  0  0  0  0  0  0
   -0.9760   -2.9400    3.4950 C   0  0  0  0  0  0  0  0  0  0  0  0
    0.4060   -3.4760    3.1100 C   0  0  2  0  0  0  0  0  0  0  0  0
    1.1560   -3.7640    4.2930 N   0  0  0  0  0  0  0  0  0  0  0  0
    1.0840   -2.4410    2.2580 C   0  0  0  0  0  0  0  0  0  0  0  0
    2.1850   -1.9290    2.6120 O   0  0  0  0  0  0  0  0  0  0  0  0
   -2.5850   -4.0380    3.9390 H   0  0  0  0  0  0  0  0  0  0  0  0
   -1.5390   -2.6310    2.5910 H   0  0  0  0  0  0  0  0  0  0  0  0
   -0.8520   -2.0320    4.1110 H   0  0  0  0  0  0  0  0  0  0  0  0
    0.2580   -4.3890    2.5360 H   0  0  0  0  0  0  0  0  0  0  0  0
    0.7590   -4.6250    4.7230 H   0  0  0  0  0  0  0  0  0  0  0  0
    1.0900   -2.9790    4.9510 H   0  0  0  0  0  0  0  0  0  0  0  0
    0.5340   -1.9910    1.0360 N   0  0  0  0  0  0  0  0  0  0  0  0
    1.1810   -0.9960    0.2160 C   0  0  1  0  0  0  0  0  0  0  0  0
    1.4840   -1.4810   -1.1680 C   0  0  0  0  0  0  0  0  0  0  0  0
   -0.0100   -1.9750   -2.0650 S   0  0  0  0  0  0  0  0  0  0  0  0
    0.2200    0.1550    0.0700 C   0  0  0  0  0  0  0  0  0  0  0  0
   -0.9150    0.1420    0.6120 O   0  0  0  0  0  0  0  0  0  0  0  0
   -0.3680   -2.3920    0.7210 H   0  0  0  0  0  0  0  0  0  0  0  0
    2.1330   -0.6520    0.6660 H   0  0  0  0  0  0  0  0  0  0  0  0
    2.2150   -2.3050   -1.1930 H   0  0  0  0  0  0  0  0  0  0  0  0
    1.9310   -0.6330   -1.7270 H   0  0  0  0  0  0  0  0  0  0  0  0
    0.3230   -2.5950   -3.2620 H   0  0  0  0  0  0  0  0  0  0  0  0
    1.3970    3.9160   -1.2260 O   0  0  0  0  0  0  0  0  0  0  0  0
    0.2780    3.7180   -0.4000 C   0  0  0  0  0  0  0  0  0  0  0  0
   -0.3480    2.4120   -0.8340 C   0  0  2  0  0  0  0  0  0  0  0  0
    0.5740    1.3020   -0.6920 N   0  0  0  0  0  0  0  0  0  0  0  0
   -0.7110    2.4840   -2.2760 C   0  0  0  0  0  0  0  0  0  0  0  0
   -1.5150    3.3800   -2.6720 O   0  0  0  0  0  0  0  0  0  0  0  0
   -0.2040    1.6040   -3.2270 O   0  0  0  0  0  0  0  0  0  0  0  0
    1.0820    3.7570   -2.1600 H   0  0  0  0  0  0  0  0  0  0  0  0
   -0.4420    4.5260   -0.6560 H   0  0  0  0  0  0  0  0  0  0  0  0
    0.5520    3.7120    0.6550 H   0  0  0  0  0  0  0  0  0  0  0  0
   -1.2660    2.1790   -0.2800 H   0  0  0  0  0  0  0  0  0  0  0  0
    1.5290    1.3290   -1.1550 H   0  0  0  0  0  0  0  0  0  0  0  0
  2  9  1  0  0  0  0
  2  1  1  0  0  0  0
  3 10  1  6  0  0  0
  3  2  1  0  0  0  0
  3  4  1  0  0  0  0
  4 11  1  0  0  0  0
  4 12  1  0  0  0  0
  5  6  2  0  0  0  0
  5  3  1  0  0  0  0
  7  1  1  0  0  0  0
  8  2  1  0  0  0  0
 13  5  1  0  0  0  0
 14 20  1  1  0  0  0
 14 13  1  0  0  0  0
 15 14  1  0  0  0  0
 16 15  1  0  0  0  0
 17 14  1  0  0  0  0
 17 18  2  0  0  0  0
 19 13  1  0  0  0  0
 21 15  1  0  0  0  0
 22 15  1  0  0  0  0
 23 16  1  0  0  0  0
 24 25  1  0  0  0  0
 25 33  1  0  0  0  0
 26 27  1  0  0  0  0
 26 25  1  0  0  0  0
 26 34  1  1  0  0  0
 27 17  1  0  0  0  0
 28 26  1  0  0  0  0
 29 28  1  0  0  0  0
 30 28  2  0  0  0  0
 31 24  1  0  0  0  0
 32 25  1  0  0  0  0
 35 27  1  0  0  0  0
M  END
$$$$
