SCV.pdb
 OpenBabel07022419083D

 40 39  0  0  1  0  0  0  0  0999 V2000
    1.0130   -5.2850    3.1530 O   0  0  0  0  0  0  0  0  0  0  0  0
    0.8670   -5.1590    1.7770 C   0  0  0  0  0  0  0  0  0  0  0  0
    0.1290   -3.8650    1.4290 C   0  0  2  0  0  0  0  0  0  0  0  0
   -0.0330   -3.7130    0.0170 N   0  0  0  0  0  0  0  0  0  0  0  0
    0.9370   -2.7480    2.0070 C   0  0  0  0  0  0  0  0  0  0  0  0
    1.1920   -2.6990    3.2380 O   0  0  0  0  0  0  0  0  0  0  0  0
    0.2320   -4.8710    3.6330 H   0  0  0  0  0  0  0  0  0  0  0  0
    1.8830   -5.1670    1.3360 H   0  0  0  0  0  0  0  0  0  0  0  0
    0.2940   -6.0450    1.4350 H   0  0  0  0  0  0  0  0  0  0  0  0
   -0.8750   -3.9340    1.8920 H   0  0  0  0  0  0  0  0  0  0  0  0
   -0.4800   -4.5680   -0.3580 H   0  0  0  0  0  0  0  0  0  0  0  0
   -0.7070   -2.9320   -0.1450 H   0  0  0  0  0  0  0  0  0  0  0  0
    1.4510   -1.6950    1.1950 N   0  0  0  0  0  0  0  0  0  0  0  0
    2.2380   -0.6010    1.7390 C   0  0  1  0  0  0  0  0  0  0  0  0
    3.5910   -0.6160    1.0620 C   0  0  0  0  0  0  0  0  0  0  0  0
    4.4500   -2.1760    1.3590 S   0  0  0  0  0  0  0  0  0  0  0  0
    1.5390    0.6940    1.5370 C   0  0  0  0  0  0  0  0  0  0  0  0
    2.0910    1.7440    1.9530 O   0  0  0  0  0  0  0  0  0  0  0  0
    1.2290   -1.7530    0.1770 H   0  0  0  0  0  0  0  0  0  0  0  0
    2.3480   -0.7420    2.8260 H   0  0  0  0  0  0  0  0  0  0  0  0
    3.5210   -0.3780   -0.0030 H   0  0  0  0  0  0  0  0  0  0  0  0
    4.2140    0.1940    1.5390 H   0  0  0  0  0  0  0  0  0  0  0  0
    4.1200   -3.1430    0.3950 H   0  0  0  0  0  0  0  0  0  0  0  0
   -1.4290    1.3890   -1.4860 C   0  0  0  0  0  0  0  0  0  0  0  0
   -0.6150    2.4040   -0.7570 C   0  0  0  0  0  0  0  0  0  0  0  0
   -1.3520    3.7270   -0.8190 C   0  0  0  0  0  0  0  0  0  0  0  0
   -0.4020    2.0760    0.7030 C   0  0  2  0  0  0  0  0  0  0  0  0
    0.2780    0.8290    0.9000 N   0  0  0  0  0  0  0  0  0  0  0  0
   -1.6700    2.0730    1.4650 C   0  0  0  0  0  0  0  0  0  0  0  0
   -2.4730    3.0380    1.4780 O   0  0  0  0  0  0  0  0  0  0  0  0
   -1.9970    0.9520    2.2050 O   0  0  0  0  0  0  0  0  0  0  0  0
   -2.5300    1.6200   -1.3860 H   0  0  0  0  0  0  0  0  0  0  0  0
   -1.2380    0.3420   -1.1760 H   0  0  0  0  0  0  0  0  0  0  0  0
   -1.2210    1.4840   -2.5730 H   0  0  0  0  0  0  0  0  0  0  0  0
    0.3950    2.5420   -1.2110 H   0  0  0  0  0  0  0  0  0  0  0  0
   -1.1270    4.3630    0.0610 H   0  0  0  0  0  0  0  0  0  0  0  0
   -2.4350    3.4850   -0.8160 H   0  0  0  0  0  0  0  0  0  0  0  0
   -1.1570    4.2450   -1.7800 H   0  0  0  0  0  0  0  0  0  0  0  0
    0.1920    2.9440    1.1180 H   0  0  0  0  0  0  0  0  0  0  0  0
   -0.1560   -0.0640    0.5650 H   0  0  0  0  0  0  0  0  0  0  0  0
  1  7  1  0  0  0  0
  2  1  1  0  0  0  0
  3  2  1  0  0  0  0
  3 10  1  1  0  0  0
  3  5  1  0  0  0  0
  4  3  1  0  0  0  0
  5  6  2  0  0  0  0
  8  2  1  0  0  0  0
  9  2  1  0  0  0  0
 11  4  1  0  0  0  0
 12  4  1  0  0  0  0
 13 14  1  0  0  0  0
 13  5  1  0  0  0  0
 14 20  1  1  0  0  0
 15 16  1  0  0  0  0
 15 22  1  0  0  0  0
 15 14  1  0  0  0  0
 17 14  1  0  0  0  0
 17 18  2  0  0  0  0
 19 13  1  0  0  0  0
 21 15  1  0  0  0  0
 23 16  1  0  0  0  0
 24 32  1  0  0  0  0
 24 33  1  0  0  0  0
 24 25  1  0  0  0  0
 25 27  1  0  0  0  0
 26 37  1  0  0  0  0
 26 25  1  0  0  0  0
 26 36  1  0  0  0  0
 27 28  1  0  0  0  0
 27 39  1  1  0  0  0
 27 29  1  0  0  0  0
 28 17  1  0  0  0  0
 29 30  2  0  0  0  0
 29 31  1  0  0  0  0
 34 24  1  0  0  0  0
 35 25  1  0  0  0  0
 38 26  1  0  0  0  0
 40 28  1  0  0  0  0
M  END
$$$$
