SCY.pdb
 OpenBabel07022419083D

 45 45  0  0  1  0  0  0  0  0999 V2000
    1.3700   -5.5840   -2.6560 O   0  0  0  0  0  0  0  0  0  0  0  0
    0.7200   -6.0740   -1.5280 C   0  0  0  0  0  0  0  0  0  0  0  0
    0.1600   -4.9010   -0.7800 C   0  0  2  0  0  0  0  0  0  0  0  0
   -0.7660   -4.1950   -1.6360 N   0  0  0  0  0  0  0  0  0  0  0  0
    1.2250   -4.0050   -0.2600 C   0  0  0  0  0  0  0  0  0  0  0  0
    2.1140   -4.4700    0.5050 O   0  0  0  0  0  0  0  0  0  0  0  0
    0.7020   -5.5420   -3.3970 H   0  0  0  0  0  0  0  0  0  0  0  0
    1.4400   -6.6280   -0.8640 H   0  0  0  0  0  0  0  0  0  0  0  0
   -0.0940   -6.7780   -1.7520 H   0  0  0  0  0  0  0  0  0  0  0  0
   -0.4240   -5.2700    0.1040 H   0  0  0  0  0  0  0  0  0  0  0  0
   -1.1680   -3.3490   -1.1760 H   0  0  0  0  0  0  0  0  0  0  0  0
   -0.3920   -4.0130   -2.5850 H   0  0  0  0  0  0  0  0  0  0  0  0
    1.3240   -2.6250   -0.5650 N   0  0  0  0  0  0  0  0  0  0  0  0
    2.3630   -1.7750   -0.0500 C   0  0  1  0  0  0  0  0  0  0  0  0
    3.2380   -1.3050   -1.1930 C   0  0  0  0  0  0  0  0  0  0  0  0
    3.9530   -2.7770   -1.9730 S   0  0  0  0  0  0  0  0  0  0  0  0
    1.8810   -0.6650    0.7800 C   0  0  0  0  0  0  0  0  0  0  0  0
    2.7240    0.1220    1.2650 O   0  0  0  0  0  0  0  0  0  0  0  0
    0.6070   -2.2080   -1.1940 H   0  0  0  0  0  0  0  0  0  0  0  0
    3.0140   -2.4220    0.6020 H   0  0  0  0  0  0  0  0  0  0  0  0
    2.6260   -0.7900   -1.9700 H   0  0  0  0  0  0  0  0  0  0  0  0
    4.0360   -0.6210   -0.8410 H   0  0  0  0  0  0  0  0  0  0  0  0
    5.2550   -2.4520   -2.3780 H   0  0  0  0  0  0  0  0  0  0  0  0
   -2.6960    6.1410    3.9550 O   0  0  0  0  0  0  0  0  0  0  0  0
   -2.2120    5.0380    3.2580 C   0  0  0  0  0  0  0  0  0  0  0  0
   -0.9840    5.0830    2.5920 C   0  0  0  0  0  0  0  0  0  0  0  0
   -0.5610    3.9550    1.9200 C   0  0  0  0  0  0  0  0  0  0  0  0
   -1.3270    2.7800    1.8910 C   0  0  0  0  0  0  0  0  0  0  0  0
   -0.8070    1.6490    1.1630 C   0  0  0  0  0  0  0  0  0  0  0  0
    0.0460    0.6850    1.8990 C   0  0  2  0  0  0  0  0  0  0  0  0
    0.5180   -0.4150    1.0780 N   0  0  0  0  0  0  0  0  0  0  0  0
   -0.5070    0.2230    3.1860 C   0  0  0  0  0  0  0  0  0  0  0  0
   -0.9470    1.0260    4.0180 O   0  0  0  0  0  0  0  0  0  0  0  0
   -2.5280    2.7470    2.5470 C   0  0  0  0  0  0  0  0  0  0  0  0
   -2.9530    3.8720    3.2190 C   0  0  0  0  0  0  0  0  0  0  0  0
   -0.5260   -1.1340    3.4540 O   0  0  0  0  0  0  0  0  0  0  0  0
   -2.4240    6.3260    4.9290 H   0  0  0  0  0  0  0  0  0  0  0  0
   -0.4270    5.9950    2.6340 H   0  0  0  0  0  0  0  0  0  0  0  0
    0.3930    4.0090    1.4100 H   0  0  0  0  0  0  0  0  0  0  0  0
   -1.6590    1.0730    0.6950 H   0  0  0  0  0  0  0  0  0  0  0  0
   -0.2430    2.0350    0.2830 H   0  0  0  0  0  0  0  0  0  0  0  0
    0.9890    1.2320    2.1920 H   0  0  0  0  0  0  0  0  0  0  0  0
   -0.1720   -1.1010    0.6510 H   0  0  0  0  0  0  0  0  0  0  0  0
   -3.0820    1.8230    2.4960 H   0  0  0  0  0  0  0  0  0  0  0  0
   -3.9200    3.7910    3.7280 H   0  0  0  0  0  0  0  0  0  0  0  0
  1  2  1  0  0  0  0
  2  8  1  0  0  0  0
  2  3  1  0  0  0  0
  3  5  1  0  0  0  0
  3 10  1  1  0  0  0
  4 11  1  0  0  0  0
  4  3  1  0  0  0  0
  5  6  2  0  0  0  0
  7  1  1  0  0  0  0
  9  2  1  0  0  0  0
 12  4  1  0  0  0  0
 13  5  1  0  0  0  0
 13 14  1  0  0  0  0
 14 20  1  1  0  0  0
 14 17  1  0  0  0  0
 15 22  1  0  0  0  0
 15 14  1  0  0  0  0
 16 15  1  0  0  0  0
 17 31  1  0  0  0  0
 17 18  2  0  0  0  0
 19 13  1  0  0  0  0
 21 15  1  0  0  0  0
 23 16  1  0  0  0  0
 24 37  1  0  0  0  0
 25 24  1  0  0  0  0
 26 38  1  0  0  0  0
 26 25  2  0  0  0  0
 27 26  1  0  0  0  0
 28 27  2  0  0  0  0
 28 34  1  0  0  0  0
 29 28  1  0  0  0  0
 29 30  1  0  0  0  0
 30 42  1  1  0  0  0
 30 32  1  0  0  0  0
 31 30  1  0  0  0  0
 32 36  2  0  0  0  0
 32 33  1  0  0  0  0
 34 35  2  0  0  0  0
 35 25  1  0  0  0  0
 35 45  1  0  0  0  0
 39 27  1  0  0  0  0
 40 29  1  0  0  0  0
 41 29  1  0  0  0  0
 43 31  1  0  0  0  0
 44 34  1  0  0  0  0
M  END
$$$$
