SDC.pdb
 OpenBabel07022419073D

 37 36  0  0  1  0  0  0  0  0999 V2000
    2.9070   -4.9410    1.4280 O   0  0  0  0  0  0  0  0  0  0  0  0
    3.6050   -4.1000    0.5840 C   0  0  0  0  0  0  0  0  0  0  0  0
    2.6610   -3.3490   -0.3310 C   0  0  2  0  0  0  0  0  0  0  0  0
    3.3910   -2.4770   -1.2010 N   0  0  0  0  0  0  0  0  0  0  0  0
    1.6860   -2.5880    0.4910 C   0  0  0  0  0  0  0  0  0  0  0  0
    0.9390   -3.2120    1.3140 O   0  0  0  0  0  0  0  0  0  0  0  0
    2.8390   -4.5190    2.3080 H   0  0  0  0  0  0  0  0  0  0  0  0
    4.3130   -4.6920   -0.0440 H   0  0  0  0  0  0  0  0  0  0  0  0
    4.1890   -3.3750    1.1810 H   0  0  0  0  0  0  0  0  0  0  0  0
    2.0950   -4.1230   -0.9240 H   0  0  0  0  0  0  0  0  0  0  0  0
    4.2280   -2.9520   -1.6070 H   0  0  0  0  0  0  0  0  0  0  0  0
    2.7910   -2.1310   -1.9870 H   0  0  0  0  0  0  0  0  0  0  0  0
    1.5560   -1.1870    0.3930 N   0  0  0  0  0  0  0  0  0  0  0  0
    0.5580   -0.5050    1.2470 C   0  0  1  0  0  0  0  0  0  0  0  0
    1.3650    0.3590    2.1610 C   0  0  0  0  0  0  0  0  0  0  0  0
    0.6300    1.1580    3.1290 C   0  0  0  0  0  0  0  0  0  0  0  0
    0.3370    2.3580    2.9060 O   0  0  0  0  0  0  0  0  0  0  0  0
   -0.3870    0.2090    0.3740 C   0  0  0  0  0  0  0  0  0  0  0  0
   -0.1970    0.2100   -0.8630 O   0  0  0  0  0  0  0  0  0  0  0  0
    0.2460    0.5710    4.3250 O   0  0  0  0  0  0  0  0  0  0  0  0
    2.1460   -0.6390   -0.2680 H   0  0  0  0  0  0  0  0  0  0  0  0
    0.0080   -1.2820    1.8470 H   0  0  0  0  0  0  0  0  0  0  0  0
    2.0690   -0.3340    2.6970 H   0  0  0  0  0  0  0  0  0  0  0  0
    2.0260    0.9820    1.5200 H   0  0  0  0  0  0  0  0  0  0  0  0
    0.0840    1.1430    5.1470 H   0  0  0  0  0  0  0  0  0  0  0  0
   -1.5240    0.9060    0.8610 N   0  0  0  0  0  0  0  0  0  0  0  0
   -2.4330    1.5940   -0.0370 C   0  0  1  0  0  0  0  0  0  0  0  0
   -3.7820    0.8770   -0.0200 C   0  0  0  0  0  0  0  0  0  0  0  0
   -3.4700   -0.8240   -0.5770 S   0  0  0  0  0  0  0  0  0  0  0  0
   -2.5810    3.0290    0.2560 C   0  0  0  0  0  0  0  0  0  0  0  0
   -1.9470    3.5460    1.2080 O   0  0  0  0  0  0  0  0  0  0  0  0
   -3.4000    3.8740   -0.4700 O   0  0  0  0  0  0  0  0  0  0  0  0
   -1.7430    0.9410    1.8780 H   0  0  0  0  0  0  0  0  0  0  0  0
   -2.0710    1.4880   -1.0810 H   0  0  0  0  0  0  0  0  0  0  0  0
   -4.4630    1.3430   -0.7550 H   0  0  0  0  0  0  0  0  0  0  0  0
   -4.2670    0.9270    0.9620 H   0  0  0  0  0  0  0  0  0  0  0  0
   -3.0940   -0.7780   -1.9440 H   0  0  0  0  0  0  0  0  0  0  0  0
  1  7  1  0  0  0  0
  2  9  1  0  0  0  0
  2  1  1  0  0  0  0
  3 10  1  6  0  0  0
  3  5  1  0  0  0  0
  3  2  1  0  0  0  0
  4  3  1  0  0  0  0
  5  6  2  0  0  0  0
  8  2  1  0  0  0  0
 11  4  1  0  0  0  0
 12  4  1  0  0  0  0
 13  5  1  0  0  0  0
 13 14  1  0  0  0  0
 14 22  1  1  0  0  0
 14 15  1  0  0  0  0
 15 23  1  0  0  0  0
 15 16  1  0  0  0  0
 16 20  1  0  0  0  0
 17 16  2  0  0  0  0
 18 26  1  0  0  0  0
 18 14  1  0  0  0  0
 19 18  2  0  0  0  0
 20 25  1  0  0  0  0
 21 13  1  0  0  0  0
 24 15  1  0  0  0  0
 26 33  1  0  0  0  0
 27 34  1  6  0  0  0
 27 28  1  0  0  0  0
 27 30  1  0  0  0  0
 27 26  1  0  0  0  0
 28 36  1  0  0  0  0
 29 28  1  0  0  0  0
 30 31  1  0  0  0  0
 32 30  2  0  0  0  0
 35 28  1  0  0  0  0
 37 29  1  0  0  0  0
M  END
$$$$
