SDE.pdb
 OpenBabel07022419073D

 42 41  0  0  1  0  0  0  0  0999 V2000
    5.4510   -3.3470    0.9280 O   0  0  0  0  0  0  0  0  0  0  0  0
    4.9330   -2.1200    0.4970 C   0  0  0  0  0  0  0  0  0  0  0  0
    3.6000   -1.9430    1.1650 C   0  0  2  0  0  0  0  0  0  0  0  0
    2.7380   -3.0210    0.7820 N   0  0  0  0  0  0  0  0  0  0  0  0
    2.9930   -0.6170    0.8920 C   0  0  0  0  0  0  0  0  0  0  0  0
    3.6520    0.4140    1.1830 O   0  0  0  0  0  0  0  0  0  0  0  0
    5.2100   -3.5390    1.8690 H   0  0  0  0  0  0  0  0  0  0  0  0
    4.8550   -2.1610   -0.6060 H   0  0  0  0  0  0  0  0  0  0  0  0
    5.6690   -1.3350    0.8200 H   0  0  0  0  0  0  0  0  0  0  0  0
    3.7770   -2.0390    2.2660 H   0  0  0  0  0  0  0  0  0  0  0  0
    2.9070   -3.9010    1.3100 H   0  0  0  0  0  0  0  0  0  0  0  0
    2.8440   -3.1810   -0.2460 H   0  0  0  0  0  0  0  0  0  0  0  0
    1.7010   -0.4680    0.3180 N   0  0  0  0  0  0  0  0  0  0  0  0
    1.0790    0.8000    0.0380 C   0  0  1  0  0  0  0  0  0  0  0  0
    0.6290    0.9010   -1.3890 C   0  0  0  0  0  0  0  0  0  0  0  0
    1.8050    0.7490   -2.2810 C   0  0  0  0  0  0  0  0  0  0  0  0
    2.9410    0.5700   -1.8230 O   0  0  0  0  0  0  0  0  0  0  0  0
   -0.1580    0.9570    0.8880 C   0  0  0  0  0  0  0  0  0  0  0  0
   -0.8560    1.9990    0.8000 O   0  0  0  0  0  0  0  0  0  0  0  0
    1.6180    0.8100   -3.6450 O   0  0  0  0  0  0  0  0  0  0  0  0
    1.1950   -1.3710    0.0960 H   0  0  0  0  0  0  0  0  0  0  0  0
    1.7550    1.6130    0.3090 H   0  0  0  0  0  0  0  0  0  0  0  0
   -0.1110    0.1000   -1.6210 H   0  0  0  0  0  0  0  0  0  0  0  0
    0.1860    1.8940   -1.5940 H   0  0  0  0  0  0  0  0  0  0  0  0
    2.3540    0.6010   -4.3130 H   0  0  0  0  0  0  0  0  0  0  0  0
   -0.5670   -0.0410    1.7940 N   0  0  0  0  0  0  0  0  0  0  0  0
   -1.7600    0.1040    2.6180 C   0  0  1  0  0  0  0  0  0  0  0  0
   -2.7590   -0.9820    2.3560 C   0  0  0  0  0  0  0  0  0  0  0  0
   -3.2610   -1.0620    0.9610 C   0  0  0  0  0  0  0  0  0  0  0  0
   -3.9720    0.1180    0.4620 C   0  0  0  0  0  0  0  0  0  0  0  0
   -4.1700    1.1090    1.2010 O   0  0  0  0  0  0  0  0  0  0  0  0
   -1.3900    0.1570    4.0600 C   0  0  0  0  0  0  0  0  0  0  0  0
   -0.1890    0.0780    4.4030 O   0  0  0  0  0  0  0  0  0  0  0  0
   -4.4620    0.2170   -0.8340 O   0  0  0  0  0  0  0  0  0  0  0  0
   -2.3480    0.2930    5.0450 O   0  0  0  0  0  0  0  0  0  0  0  0
    0.0090   -0.9080    1.8700 H   0  0  0  0  0  0  0  0  0  0  0  0
   -2.2340    1.0780    2.4010 H   0  0  0  0  0  0  0  0  0  0  0  0
   -2.2750   -1.9440    2.6750 H   0  0  0  0  0  0  0  0  0  0  0  0
   -3.6190   -0.7890    3.0640 H   0  0  0  0  0  0  0  0  0  0  0  0
   -2.3920   -1.2870    0.3030 H   0  0  0  0  0  0  0  0  0  0  0  0
   -3.9060   -1.9860    0.8740 H   0  0  0  0  0  0  0  0  0  0  0  0
   -5.3700    0.6580   -1.0330 H   0  0  0  0  0  0  0  0  0  0  0  0
  1  7  1  0  0  0  0
  2  9  1  0  0  0  0
  2  1  1  0  0  0  0
  2  3  1  0  0  0  0
  3 10  1  1  0  0  0
  4  3  1  0  0  0  0
  4 11  1  0  0  0  0
  5  3  1  0  0  0  0
  5  6  2  0  0  0  0
  8  2  1  0  0  0  0
 12  4  1  0  0  0  0
 13  5  1  0  0  0  0
 14 22  1  1  0  0  0
 14 13  1  0  0  0  0
 14 18  1  0  0  0  0
 15 14  1  0  0  0  0
 16 17  2  0  0  0  0
 16 15  1  0  0  0  0
 18 26  1  0  0  0  0
 19 18  2  0  0  0  0
 20 16  1  0  0  0  0
 21 13  1  0  0  0  0
 23 15  1  0  0  0  0
 24 15  1  0  0  0  0
 25 20  1  0  0  0  0
 26 36  1  0  0  0  0
 26 27  1  0  0  0  0
 27 37  1  6  0  0  0
 27 32  1  0  0  0  0
 28 27  1  0  0  0  0
 28 38  1  0  0  0  0
 28 39  1  0  0  0  0
 29 28  1  0  0  0  0
 30 29  1  0  0  0  0
 30 31  2  0  0  0  0
 32 33  2  0  0  0  0
 32 35  1  0  0  0  0
 34 30  1  0  0  0  0
 40 29  1  0  0  0  0
 41 29  1  0  0  0  0
 42 34  1  0  0  0  0
M  END
$$$$
