SDG.pdb
 OpenBabel07022419073D

 33 32  0  0  1  0  0  0  0  0999 V2000
   -1.3320   -3.0890    0.4610 O   0  0  0  0  0  0  0  0  0  0  0  0
   -1.2660   -3.1310    1.8340 C   0  0  0  0  0  0  0  0  0  0  0  0
    0.1190   -2.9020    2.3890 C   0  0  2  0  0  0  0  0  0  0  0  0
    0.0220   -2.9860    3.8350 N   0  0  0  0  0  0  0  0  0  0  0  0
    0.6620   -1.5660    2.0500 C   0  0  0  0  0  0  0  0  0  0  0  0
    0.9860   -0.7690    2.9930 O   0  0  0  0  0  0  0  0  0  0  0  0
   -2.0930   -3.6560    0.1720 H   0  0  0  0  0  0  0  0  0  0  0  0
   -1.9260   -2.3350    2.2860 H   0  0  0  0  0  0  0  0  0  0  0  0
   -1.6240   -4.1170    2.1800 H   0  0  0  0  0  0  0  0  0  0  0  0
    0.8200   -3.7170    2.0900 H   0  0  0  0  0  0  0  0  0  0  0  0
    0.9680   -2.9260    4.2810 H   0  0  0  0  0  0  0  0  0  0  0  0
   -0.4840   -2.1100    4.1510 H   0  0  0  0  0  0  0  0  0  0  0  0
    0.8420   -1.1190    0.7100 N   0  0  0  0  0  0  0  0  0  0  0  0
    1.3800    0.1870    0.4830 C   0  0  1  0  0  0  0  0  0  0  0  0
    2.6800    0.1070   -0.2890 C   0  0  0  0  0  0  0  0  0  0  0  0
    3.2960    1.4130   -0.5600 C   0  0  0  0  0  0  0  0  0  0  0  0
    2.9530    2.1520   -1.5210 O   0  0  0  0  0  0  0  0  0  0  0  0
    0.3720    1.0660   -0.1520 C   0  0  0  0  0  0  0  0  0  0  0  0
    0.5600    2.2640   -0.4700 O   0  0  0  0  0  0  0  0  0  0  0  0
    4.3060    1.8700    0.2740 O   0  0  0  0  0  0  0  0  0  0  0  0
    0.5720   -1.7730   -0.0520 H   0  0  0  0  0  0  0  0  0  0  0  0
    1.6230    0.6890    1.4660 H   0  0  0  0  0  0  0  0  0  0  0  0
    2.4530   -0.4160   -1.2640 H   0  0  0  0  0  0  0  0  0  0  0  0
    3.3990   -0.5530    0.2370 H   0  0  0  0  0  0  0  0  0  0  0  0
    4.5270    2.8640    0.2650 H   0  0  0  0  0  0  0  0  0  0  0  0
   -0.9360    0.5500   -0.4440 N   0  0  0  0  0  0  0  0  0  0  0  0
   -1.9600    1.3450   -1.0570 C   0  0  0  0  0  0  0  0  0  0  0  0
   -3.1790    0.5220   -1.2170 C   0  0  0  0  0  0  0  0  0  0  0  0
   -3.1610   -0.6690   -0.8220 O   0  0  0  0  0  0  0  0  0  0  0  0
   -4.3500    1.0170   -1.7890 O   0  0  0  0  0  0  0  0  0  0  0  0
   -1.1090   -0.4440   -0.1850 H   0  0  0  0  0  0  0  0  0  0  0  0
   -2.2530    2.2220   -0.4110 H   0  0  0  0  0  0  0  0  0  0  0  0
   -1.6390    1.7510   -2.0530 H   0  0  0  0  0  0  0  0  0  0  0  0
  1  2  1  0  0  0  0
  2  9  1  0  0  0  0
  2  8  1  0  0  0  0
  2  3  1  0  0  0  0
  3 10  1  6  0  0  0
  3  4  1  0  0  0  0
  4 12  1  0  0  0  0
  4 11  1  0  0  0  0
  5  3  1  0  0  0  0
  5  6  2  0  0  0  0
  7  1  1  0  0  0  0
 13  5  1  0  0  0  0
 14 13  1  0  0  0  0
 14 22  1  1  0  0  0
 15 24  1  0  0  0  0
 15 14  1  0  0  0  0
 16 15  1  0  0  0  0
 16 20  1  0  0  0  0
 17 16  2  0  0  0  0
 18 14  1  0  0  0  0
 19 18  2  0  0  0  0
 21 13  1  0  0  0  0
 23 15  1  0  0  0  0
 25 20  1  0  0  0  0
 26 31  1  0  0  0  0
 26 18  1  0  0  0  0
 27 26  1  0  0  0  0
 27 32  1  0  0  0  0
 28 27  1  0  0  0  0
 28 29  1  0  0  0  0
 30 28  2  0  0  0  0
 33 27  1  0  0  0  0
M  END
$$$$
