SDK.pdb
 OpenBabel07022419073D

 47 46  0  0  1  0  0  0  0  0999 V2000
    4.3800   -3.9070    1.8900 O   0  0  0  0  0  0  0  0  0  0  0  0
    3.3610   -2.9390    1.8170 C   0  0  0  0  0  0  0  0  0  0  0  0
    3.9450   -1.6580    2.3450 C   0  0  2  0  0  0  0  0  0  0  0  0
    4.3660   -1.8710    3.7040 N   0  0  0  0  0  0  0  0  0  0  0  0
    3.0120   -0.5130    2.2160 C   0  0  0  0  0  0  0  0  0  0  0  0
    2.6880    0.1350    3.2450 O   0  0  0  0  0  0  0  0  0  0  0  0
    4.3090   -4.4190    2.7470 H   0  0  0  0  0  0  0  0  0  0  0  0
    2.5260   -3.3230    2.4370 H   0  0  0  0  0  0  0  0  0  0  0  0
    3.0840   -2.8570    0.7360 H   0  0  0  0  0  0  0  0  0  0  0  0
    4.8760   -1.4620    1.7500 H   0  0  0  0  0  0  0  0  0  0  0  0
    4.2700   -0.9760    4.2370 H   0  0  0  0  0  0  0  0  0  0  0  0
    3.7210   -2.5960    4.1250 H   0  0  0  0  0  0  0  0  0  0  0  0
    2.4570   -0.1030    0.9800 N   0  0  0  0  0  0  0  0  0  0  0  0
    1.5470    1.0140    0.8540 C   0  0  1  0  0  0  0  0  0  0  0  0
    2.0270    2.0470   -0.1220 C   0  0  0  0  0  0  0  0  0  0  0  0
    3.3260    2.6100    0.2700 C   0  0  0  0  0  0  0  0  0  0  0  0
    3.9090    2.2250    1.3130 O   0  0  0  0  0  0  0  0  0  0  0  0
    0.2140    0.4990    0.4020 C   0  0  0  0  0  0  0  0  0  0  0  0
   -0.7570    1.2770    0.2160 O   0  0  0  0  0  0  0  0  0  0  0  0
    3.9480    3.5820   -0.4970 O   0  0  0  0  0  0  0  0  0  0  0  0
    2.7060   -0.6220    0.1040 H   0  0  0  0  0  0  0  0  0  0  0  0
    1.3720    1.4860    1.8420 H   0  0  0  0  0  0  0  0  0  0  0  0
    2.0090    1.6760   -1.1660 H   0  0  0  0  0  0  0  0  0  0  0  0
    1.2780    2.8880   -0.0790 H   0  0  0  0  0  0  0  0  0  0  0  0
    4.8760    3.9500   -0.2900 H   0  0  0  0  0  0  0  0  0  0  0  0
    0.0540   -0.8820    0.1830 N   0  0  0  0  0  0  0  0  0  0  0  0
   -1.2540   -1.4690   -0.2730 C   0  0  1  0  0  0  0  0  0  0  0  0
   -2.2080   -1.3070    0.8440 C   0  0  0  0  0  0  0  0  0  0  0  0
   -3.5700   -1.8180    0.7390 C   0  0  0  0  0  0  0  0  0  0  0  0
   -4.5440   -1.3380   -0.2440 C   0  0  0  0  0  0  0  0  0  0  0  0
   -4.8160    0.1520   -0.2210 C   0  0  0  0  0  0  0  0  0  0  0  0
   -5.3270    0.5810    1.0450 N   0  0  0  0  0  0  0  0  0  0  0  0
   -1.5530   -0.9230   -1.5810 C   0  0  0  0  0  0  0  0  0  0  0  0
   -0.8960    0.0720   -2.0840 O   0  0  0  0  0  0  0  0  0  0  0  0
   -2.5240   -1.3800   -2.4140 O   0  0  0  0  0  0  0  0  0  0  0  0
    0.8250   -1.5530    0.3260 H   0  0  0  0  0  0  0  0  0  0  0  0
   -1.0350   -2.5450   -0.4050 H   0  0  0  0  0  0  0  0  0  0  0  0
   -2.2020   -0.2250    1.2280 H   0  0  0  0  0  0  0  0  0  0  0  0
   -1.6940   -1.8490    1.7310 H   0  0  0  0  0  0  0  0  0  0  0  0
   -3.5640   -2.9720    0.6040 H   0  0  0  0  0  0  0  0  0  0  0  0
   -4.0710   -1.7920    1.7910 H   0  0  0  0  0  0  0  0  0  0  0  0
   -4.5920   -1.7410   -1.2400 H   0  0  0  0  0  0  0  0  0  0  0  0
   -5.5780   -1.7400    0.1970 H   0  0  0  0  0  0  0  0  0  0  0  0
   -3.9430    0.7390   -0.5740 H   0  0  0  0  0  0  0  0  0  0  0  0
   -5.6220    0.3320   -0.9860 H   0  0  0  0  0  0  0  0  0  0  0  0
   -5.4390   -0.1530    1.7500 H   0  0  0  0  0  0  0  0  0  0  0  0
   -6.0530    1.3030    1.0120 H   0  0  0  0  0  0  0  0  0  0  0  0
  1  7  1  0  0  0  0
  2  1  1  0  0  0  0
  2  3  1  0  0  0  0
  2  8  1  0  0  0  0
  3 10  1  6  0  0  0
  3  4  1  0  0  0  0
  4 12  1  0  0  0  0
  4 11  1  0  0  0  0
  5  3  1  0  0  0  0
  5  6  2  0  0  0  0
  9  2  1  0  0  0  0
 13  5  1  0  0  0  0
 14 13  1  0  0  0  0
 14 22  1  1  0  0  0
 15 24  1  0  0  0  0
 15 16  1  0  0  0  0
 15 14  1  0  0  0  0
 16 17  2  0  0  0  0
 18 14  1  0  0  0  0
 19 18  2  0  0  0  0
 20 25  1  0  0  0  0
 20 16  1  0  0  0  0
 21 13  1  0  0  0  0
 23 15  1  0  0  0  0
 26 36  1  0  0  0  0
 26 18  1  0  0  0  0
 27 37  1  6  0  0  0
 27 26  1  0  0  0  0
 27 28  1  0  0  0  0
 28 38  1  0  0  0  0
 28 39  1  0  0  0  0
 29 28  1  0  0  0  0
 29 41  1  0  0  0  0
 30 31  1  0  0  0  0
 30 43  1  0  0  0  0
 30 29  1  0  0  0  0
 31 32  1  0  0  0  0
 32 46  1  0  0  0  0
 33 27  1  0  0  0  0
 34 33  1  0  0  0  0
 35 33  2  0  0  0  0
 40 29  1  0  0  0  0
 42 30  1  0  0  0  0
 44 31  1  0  0  0  0
 45 31  1  0  0  0  0
 47 32  1  0  0  0  0
M  END
$$$$
