SDL.pdb
 OpenBabel07022419073D

 45 44  0  0  1  0  0  0  0  0999 V2000
    0.4530   -5.5660    1.6840 O   0  0  0  0  0  0  0  0  0  0  0  0
    0.5450   -4.1980    1.4170 C   0  0  0  0  0  0  0  0  0  0  0  0
    1.8020   -3.9870    0.6170 C   0  0  2  0  0  0  0  0  0  0  0  0
    2.9220   -4.4410    1.4060 N   0  0  0  0  0  0  0  0  0  0  0  0
    2.0230   -2.5730    0.2440 C   0  0  0  0  0  0  0  0  0  0  0  0
    3.0730   -1.9530    0.6130 O   0  0  0  0  0  0  0  0  0  0  0  0
    0.0790   -5.7670    2.5650 H   0  0  0  0  0  0  0  0  0  0  0  0
    0.6150   -3.6930    2.3880 H   0  0  0  0  0  0  0  0  0  0  0  0
   -0.3710   -3.8920    0.8500 H   0  0  0  0  0  0  0  0  0  0  0  0
    1.7590   -4.6320   -0.2910 H   0  0  0  0  0  0  0  0  0  0  0  0
    3.0920   -5.4580    1.3590 H   0  0  0  0  0  0  0  0  0  0  0  0
    3.7560   -3.8480    1.3490 H   0  0  0  0  0  0  0  0  0  0  0  0
    1.1020   -1.8250   -0.5350 N   0  0  0  0  0  0  0  0  0  0  0  0
    1.3640   -0.4250   -0.8810 C   0  0  1  0  0  0  0  0  0  0  0  0
    1.4770   -0.2730   -2.3720 C   0  0  0  0  0  0  0  0  0  0  0  0
    1.7720    1.0820   -2.8500 C   0  0  0  0  0  0  0  0  0  0  0  0
    1.5550    1.4040   -4.0420 O   0  0  0  0  0  0  0  0  0  0  0  0
    0.3010    0.4340   -0.2830 C   0  0  0  0  0  0  0  0  0  0  0  0
    0.3400    1.6500   -0.4580 O   0  0  0  0  0  0  0  0  0  0  0  0
    2.2970    2.0510   -2.0210 O   0  0  0  0  0  0  0  0  0  0  0  0
    0.2300   -2.2520   -0.8730 H   0  0  0  0  0  0  0  0  0  0  0  0
    2.3320   -0.1530   -0.4310 H   0  0  0  0  0  0  0  0  0  0  0  0
    2.2600   -0.9740   -2.7800 H   0  0  0  0  0  0  0  0  0  0  0  0
    0.4980   -0.5860   -2.8330 H   0  0  0  0  0  0  0  0  0  0  0  0
    2.7460    2.8920   -2.3000 H   0  0  0  0  0  0  0  0  0  0  0  0
    0.6320    1.9000    2.6930 C   0  0  0  0  0  0  0  0  0  0  0  0
   -0.8030    2.1420    2.8410 C   0  0  0  0  0  0  0  0  0  0  0  0
   -1.2320    1.3460    4.0960 C   0  0  0  0  0  0  0  0  0  0  0  0
   -1.7370    1.9140    1.7130 C   0  0  0  0  0  0  0  0  0  0  0  0
   -1.8310    0.5620    1.1270 C   0  0  2  0  0  0  0  0  0  0  0  0
   -0.7740   -0.0760    0.4910 N   0  0  0  0  0  0  0  0  0  0  0  0
   -3.0750    0.3940    0.3500 C   0  0  0  0  0  0  0  0  0  0  0  0
   -4.1160    0.9450    0.8460 O   0  0  0  0  0  0  0  0  0  0  0  0
   -3.1650   -0.3040   -0.8440 O   0  0  0  0  0  0  0  0  0  0  0  0
    1.0690    2.6160    1.9550 H   0  0  0  0  0  0  0  0  0  0  0  0
    0.9660    0.9070    2.4430 H   0  0  0  0  0  0  0  0  0  0  0  0
    1.1860    2.1780    3.6530 H   0  0  0  0  0  0  0  0  0  0  0  0
   -0.9630    3.2200    3.1840 H   0  0  0  0  0  0  0  0  0  0  0  0
   -2.2500    0.9640    3.8780 H   0  0  0  0  0  0  0  0  0  0  0  0
   -1.2200    1.9490    5.0010 H   0  0  0  0  0  0  0  0  0  0  0  0
   -0.5790    0.4480    4.2090 H   0  0  0  0  0  0  0  0  0  0  0  0
   -1.6820    2.7370    0.9360 H   0  0  0  0  0  0  0  0  0  0  0  0
   -2.7700    2.1170    2.1480 H   0  0  0  0  0  0  0  0  0  0  0  0
   -2.0280   -0.0840    2.0860 H   0  0  0  0  0  0  0  0  0  0  0  0
   -0.7320   -1.1420    0.5730 H   0  0  0  0  0  0  0  0  0  0  0  0
  1  7  1  0  0  0  0
  2  1  1  0  0  0  0
  2  8  1  0  0  0  0
  3 10  1  6  0  0  0
  3  4  1  0  0  0  0
  3  2  1  0  0  0  0
  5  6  2  0  0  0  0
  5  3  1  0  0  0  0
  9  2  1  0  0  0  0
 11  4  1  0  0  0  0
 12  4  1  0  0  0  0
 13  5  1  0  0  0  0
 14 13  1  0  0  0  0
 14 22  1  1  0  0  0
 14 18  1  0  0  0  0
 15 14  1  0  0  0  0
 16 15  1  0  0  0  0
 16 20  1  0  0  0  0
 17 16  2  0  0  0  0
 18 31  1  0  0  0  0
 19 18  2  0  0  0  0
 21 13  1  0  0  0  0
 23 15  1  0  0  0  0
 24 15  1  0  0  0  0
 25 20  1  0  0  0  0
 26 27  1  0  0  0  0
 26 37  1  0  0  0  0
 27 38  1  0  0  0  0
 27 28  1  0  0  0  0
 28 41  1  0  0  0  0
 28 40  1  0  0  0  0
 29 43  1  0  0  0  0
 29 27  1  0  0  0  0
 30 29  1  0  0  0  0
 30 44  1  1  0  0  0
 31 45  1  0  0  0  0
 31 30  1  0  0  0  0
 32 33  1  0  0  0  0
 32 30  1  0  0  0  0
 34 32  2  0  0  0  0
 35 26  1  0  0  0  0
 36 26  1  0  0  0  0
 39 28  1  0  0  0  0
 42 29  1  0  0  0  0
M  END
$$$$
