SDP.pdb
 OpenBabel07022419073D

 40 40  0  0  1  0  0  0  0  0999 V2000
   -0.0350   -6.1270   -0.9140 O   0  0  0  0  0  0  0  0  0  0  0  0
    0.1340   -4.8070   -0.4470 C   0  0  0  0  0  0  0  0  0  0  0  0
    0.3620   -3.9380   -1.6740 C   0  0  2  0  0  0  0  0  0  0  0  0
    1.5450   -4.4350   -2.3400 N   0  0  0  0  0  0  0  0  0  0  0  0
    0.5870   -2.5340   -1.2810 C   0  0  0  0  0  0  0  0  0  0  0  0
    1.6630   -1.9760   -1.6420 O   0  0  0  0  0  0  0  0  0  0  0  0
    0.4020   -6.7610   -0.2760 H   0  0  0  0  0  0  0  0  0  0  0  0
    0.9850   -4.7930    0.2530 H   0  0  0  0  0  0  0  0  0  0  0  0
   -0.8160   -4.5130    0.0600 H   0  0  0  0  0  0  0  0  0  0  0  0
   -0.5480   -4.0580   -2.2990 H   0  0  0  0  0  0  0  0  0  0  0  0
    2.4190   -3.9800   -2.0640 H   0  0  0  0  0  0  0  0  0  0  0  0
    1.4690   -4.5550   -3.3530 H   0  0  0  0  0  0  0  0  0  0  0  0
   -0.3120   -1.7650   -0.5310 N   0  0  0  0  0  0  0  0  0  0  0  0
    0.0350   -0.3440   -0.1940 C   0  0  1  0  0  0  0  0  0  0  0  0
   -1.0610    0.5100   -0.7990 C   0  0  0  0  0  0  0  0  0  0  0  0
   -0.9360    1.9480   -0.6300 C   0  0  0  0  0  0  0  0  0  0  0  0
   -0.0520    2.5490   -1.3300 O   0  0  0  0  0  0  0  0  0  0  0  0
    0.1170   -0.2450    1.2830 C   0  0  0  0  0  0  0  0  0  0  0  0
   -0.3670   -1.2200    1.9500 O   0  0  0  0  0  0  0  0  0  0  0  0
   -1.6750    2.7550    0.2090 O   0  0  0  0  0  0  0  0  0  0  0  0
   -1.2140   -2.1510   -0.2030 H   0  0  0  0  0  0  0  0  0  0  0  0
    0.9820   -0.0990   -0.6770 H   0  0  0  0  0  0  0  0  0  0  0  0
   -1.1030    0.2890   -1.8980 H   0  0  0  0  0  0  0  0  0  0  0  0
   -2.0590    0.2090   -0.3910 H   0  0  0  0  0  0  0  0  0  0  0  0
   -2.0410    3.6670   -0.0850 H   0  0  0  0  0  0  0  0  0  0  0  0
    0.6800    0.8100    2.0010 N   0  0  0  0  0  0  0  0  0  0  0  0
    1.3160    2.0040    1.5210 C   0  0  0  0  0  0  0  0  0  0  0  0
    2.3850    2.2520    2.5840 C   0  0  0  0  0  0  0  0  0  0  0  0
    1.6080    2.0020    3.8520 C   0  0  0  0  0  0  0  0  0  0  0  0
    0.7190    0.8460    3.4740 C   0  0  1  0  0  0  0  0  0  0  0  0
   -0.6380    0.9200    4.0370 C   0  0  0  0  0  0  0  0  0  0  0  0
   -1.6610    0.9750    3.3460 O   0  0  0  0  0  0  0  0  0  0  0  0
   -0.7890    0.9270    5.4240 O   0  0  0  0  0  0  0  0  0  0  0  0
    0.6480    2.8760    1.5760 H   0  0  0  0  0  0  0  0  0  0  0  0
    1.8130    1.8670    0.5400 H   0  0  0  0  0  0  0  0  0  0  0  0
    3.2070    1.4980    2.5090 H   0  0  0  0  0  0  0  0  0  0  0  0
    2.8090    3.2550    2.5210 H   0  0  0  0  0  0  0  0  0  0  0  0
    1.0330    2.9170    4.0970 H   0  0  0  0  0  0  0  0  0  0  0  0
    2.3050    1.7130    4.6660 H   0  0  0  0  0  0  0  0  0  0  0  0
    1.2370   -0.0890    3.8230 H   0  0  0  0  0  0  0  0  0  0  0  0
  1  2  1  0  0  0  0
  1  7  1  0  0  0  0
  2  9  1  0  0  0  0
  2  8  1  0  0  0  0
  3 10  1  6  0  0  0
  3  5  1  0  0  0  0
  3  2  1  0  0  0  0
  4 11  1  0  0  0  0
  4  3  1  0  0  0  0
  5 13  1  0  0  0  0
  6  5  2  0  0  0  0
 12  4  1  0  0  0  0
 13 21  1  0  0  0  0
 13 14  1  0  0  0  0
 14 22  1  6  0  0  0
 14 18  1  0  0  0  0
 15 16  1  0  0  0  0
 15 24  1  0  0  0  0
 15 14  1  0  0  0  0
 16 20  1  0  0  0  0
 17 16  2  0  0  0  0
 18 19  2  0  0  0  0
 18 26  1  0  0  0  0
 23 15  1  0  0  0  0
 25 20  1  0  0  0  0
 26 30  1  0  0  0  0
 27 34  1  0  0  0  0
 27 26  1  0  0  0  0
 27 28  1  0  0  0  0
 28 29  1  0  0  0  0
 29 38  1  0  0  0  0
 29 39  1  0  0  0  0
 30 40  1  1  0  0  0
 30 29  1  0  0  0  0
 30 31  1  0  0  0  0
 31 33  1  0  0  0  0
 32 31  2  0  0  0  0
 35 27  1  0  0  0  0
 36 28  1  0  0  0  0
 37 28  1  0  0  0  0
M  END
$$$$
