SDQ.pdb
 OpenBabel07022419073D

 43 42  0  0  1  0  0  0  0  0999 V2000
    4.9070   -0.5950    3.3890 O   0  0  0  0  0  0  0  0  0  0  0  0
    4.4560    0.0140    2.2230 C   0  0  0  0  0  0  0  0  0  0  0  0
    2.9500    0.1110    2.2780 C   0  0  2  0  0  0  0  0  0  0  0  0
    2.4140   -1.2160    2.3920 N   0  0  0  0  0  0  0  0  0  0  0  0
    2.4070    0.7290    1.0280 C   0  0  0  0  0  0  0  0  0  0  0  0
    2.7210    1.9040    0.6720 O   0  0  0  0  0  0  0  0  0  0  0  0
    4.1790   -0.6950    4.0580 H   0  0  0  0  0  0  0  0  0  0  0  0
    4.7690   -0.5780    1.3440 H   0  0  0  0  0  0  0  0  0  0  0  0
    4.9420    1.0110    2.1720 H   0  0  0  0  0  0  0  0  0  0  0  0
    2.6380    0.7110    3.1560 H   0  0  0  0  0  0  0  0  0  0  0  0
    1.6320   -1.3030    3.0830 H   0  0  0  0  0  0  0  0  0  0  0  0
    3.1530   -1.9340    2.5910 H   0  0  0  0  0  0  0  0  0  0  0  0
    1.5100    0.0250    0.1770 N   0  0  0  0  0  0  0  0  0  0  0  0
    0.9820    0.6210   -1.0350 C   0  0  1  0  0  0  0  0  0  0  0  0
    1.3300   -0.2580   -2.1980 C   0  0  0  0  0  0  0  0  0  0  0  0
    2.8110   -0.3540   -2.2610 C   0  0  0  0  0  0  0  0  0  0  0  0
    3.4750   -1.1450   -1.5280 O   0  0  0  0  0  0  0  0  0  0  0  0
   -0.5000    0.7260   -0.8410 C   0  0  0  0  0  0  0  0  0  0  0  0
   -1.2040    1.2290   -1.7610 O   0  0  0  0  0  0  0  0  0  0  0  0
    3.5530    0.4350   -3.1430 O   0  0  0  0  0  0  0  0  0  0  0  0
    1.2510   -0.9400    0.4650 H   0  0  0  0  0  0  0  0  0  0  0  0
    1.3780    1.6460   -1.1830 H   0  0  0  0  0  0  0  0  0  0  0  0
    0.9300   -1.2740   -2.0430 H   0  0  0  0  0  0  0  0  0  0  0  0
    0.9370    0.1710   -3.1380 H   0  0  0  0  0  0  0  0  0  0  0  0
    4.5140    0.6700   -2.9100 H   0  0  0  0  0  0  0  0  0  0  0  0
   -0.8560   -3.3460    1.9560 N   0  0  0  0  0  0  0  0  0  0  0  0
   -1.5820   -2.5930    1.0020 C   0  0  0  0  0  0  0  0  0  0  0  0
   -1.0020   -2.3950   -0.1010 O   0  0  0  0  0  0  0  0  0  0  0  0
   -2.9270   -2.0570    1.2260 C   0  0  0  0  0  0  0  0  0  0  0  0
   -3.3370   -0.9150    0.3820 C   0  0  0  0  0  0  0  0  0  0  0  0
   -2.5720    0.3690    0.5620 C   0  0  2  0  0  0  0  0  0  0  0  0
   -1.1760    0.2920    0.3250 N   0  0  0  0  0  0  0  0  0  0  0  0
   -2.9260    0.9880    1.8750 C   0  0  0  0  0  0  0  0  0  0  0  0
   -2.0810    1.4040    2.6940 O   0  0  0  0  0  0  0  0  0  0  0  0
   -4.2780    1.0920    2.1730 O   0  0  0  0  0  0  0  0  0  0  0  0
   -0.3730   -4.2190    1.7050 H   0  0  0  0  0  0  0  0  0  0  0  0
   -0.7950   -3.0300    2.9460 H   0  0  0  0  0  0  0  0  0  0  0  0
   -3.0900   -1.7920    2.3050 H   0  0  0  0  0  0  0  0  0  0  0  0
   -3.6430   -2.9140    1.0490 H   0  0  0  0  0  0  0  0  0  0  0  0
   -4.4050   -0.6650    0.6590 H   0  0  0  0  0  0  0  0  0  0  0  0
   -3.4090   -1.1870   -0.6990 H   0  0  0  0  0  0  0  0  0  0  0  0
   -3.0770    1.0670   -0.2030 H   0  0  0  0  0  0  0  0  0  0  0  0
   -0.5680   -0.1030    1.0970 H   0  0  0  0  0  0  0  0  0  0  0  0
  1  7  1  0  0  0  0
  2  3  1  0  0  0  0
  2  1  1  0  0  0  0
  3  4  1  0  0  0  0
  3 10  1  1  0  0  0
  4 12  1  0  0  0  0
  4 11  1  0  0  0  0
  5  3  1  0  0  0  0
  6  5  2  0  0  0  0
  8  2  1  0  0  0  0
  9  2  1  0  0  0  0
 13 21  1  0  0  0  0
 13  5  1  0  0  0  0
 14 22  1  6  0  0  0
 14 18  1  0  0  0  0
 14 13  1  0  0  0  0
 15 23  1  0  0  0  0
 15 14  1  0  0  0  0
 16 15  1  0  0  0  0
 16 17  2  0  0  0  0
 18 32  1  0  0  0  0
 19 18  2  0  0  0  0
 20 25  1  0  0  0  0
 20 16  1  0  0  0  0
 24 15  1  0  0  0  0
 26 37  1  0  0  0  0
 27 29  1  0  0  0  0
 27 26  1  0  0  0  0
 28 27  2  0  0  0  0
 29 38  1  0  0  0  0
 30 31  1  0  0  0  0
 30 40  1  0  0  0  0
 30 29  1  0  0  0  0
 31 42  1  6  0  0  0
 31 33  1  0  0  0  0
 32 31  1  0  0  0  0
 32 43  1  0  0  0  0
 33 35  2  0  0  0  0
 33 34  1  0  0  0  0
 36 26  1  0  0  0  0
 39 29  1  0  0  0  0
 41 30  1  0  0  0  0
M  END
$$$$
