SDR.pdb
 OpenBabel07022419073D

 49 48  0  0  1  0  0  0  0  0999 V2000
    3.2290   -3.5710    3.1210 O   0  0  0  0  0  0  0  0  0  0  0  0
    2.2600   -3.1420    4.0050 C   0  0  0  0  0  0  0  0  0  0  0  0
    1.0530   -2.6980    3.2010 C   0  0  2  0  0  0  0  0  0  0  0  0
    0.5910   -3.8470    2.4320 N   0  0  0  0  0  0  0  0  0  0  0  0
    1.4920   -1.6200    2.2620 C   0  0  0  0  0  0  0  0  0  0  0  0
    1.9010   -0.5470    2.7740 O   0  0  0  0  0  0  0  0  0  0  0  0
    3.0910   -4.5090    2.8490 H   0  0  0  0  0  0  0  0  0  0  0  0
    1.9240   -3.9210    4.7010 H   0  0  0  0  0  0  0  0  0  0  0  0
    2.6350   -2.2410    4.5410 H   0  0  0  0  0  0  0  0  0  0  0  0
    0.2750   -2.2910    3.8650 H   0  0  0  0  0  0  0  0  0  0  0  0
    1.0110   -4.7390    2.7320 H   0  0  0  0  0  0  0  0  0  0  0  0
   -0.4510   -3.8620    2.3390 H   0  0  0  0  0  0  0  0  0  0  0  0
    1.4510   -1.7970    0.8530 N   0  0  0  0  0  0  0  0  0  0  0  0
    1.8670   -0.7750   -0.0510 C   0  0  1  0  0  0  0  0  0  0  0  0
    3.0170   -1.1990   -0.9450 C   0  0  0  0  0  0  0  0  0  0  0  0
    4.2250   -1.5740   -0.1700 C   0  0  0  0  0  0  0  0  0  0  0  0
    4.2800   -2.7070    0.3380 O   0  0  0  0  0  0  0  0  0  0  0  0
    0.7470   -0.3730   -0.9430 C   0  0  0  0  0  0  0  0  0  0  0  0
    0.9810    0.5260   -1.7870 O   0  0  0  0  0  0  0  0  0  0  0  0
    5.2990   -0.7120    0.0140 O   0  0  0  0  0  0  0  0  0  0  0  0
    1.1000   -2.7130    0.5080 H   0  0  0  0  0  0  0  0  0  0  0  0
    2.2060    0.1400    0.4770 H   0  0  0  0  0  0  0  0  0  0  0  0
    3.3170   -0.3490   -1.5920 H   0  0  0  0  0  0  0  0  0  0  0  0
    2.7080   -2.0220   -1.6090 H   0  0  0  0  0  0  0  0  0  0  0  0
    5.7750   -0.8080    0.9280 H   0  0  0  0  0  0  0  0  0  0  0  0
   -1.0700    3.8580    2.1860 N   0  0  0  0  0  0  0  0  0  0  0  0
   -1.9370    2.8700    1.5910 C   0  0  0  0  0  0  0  0  0  0  0  0
   -3.1450    3.1750    1.2590 N   0  0  0  0  0  0  0  0  0  0  0  0
   -1.4850    1.5460    1.3580 N   0  0  0  0  0  0  0  0  0  0  0  0
   -2.3780    0.4330    1.2410 C   0  0  0  0  0  0  0  0  0  0  0  0
   -3.2360    0.4250    0.0260 C   0  0  0  0  0  0  0  0  0  0  0  0
   -2.5600    0.4240   -1.2880 C   0  0  0  0  0  0  0  0  0  0  0  0
   -1.6750   -0.6920   -1.6400 C   0  0  2  0  0  0  0  0  0  0  0  0
   -0.5420   -0.9730   -0.8560 N   0  0  0  0  0  0  0  0  0  0  0  0
   -1.3850   -0.5770   -3.1240 C   0  0  0  0  0  0  0  0  0  0  0  0
   -0.2520   -0.8020   -3.5430 O   0  0  0  0  0  0  0  0  0  0  0  0
   -2.4220   -0.2160   -3.9680 O   0  0  0  0  0  0  0  0  0  0  0  0
   -1.5240    4.4760    2.9140 H   0  0  0  0  0  0  0  0  0  0  0  0
   -0.0800    3.9280    1.8960 H   0  0  0  0  0  0  0  0  0  0  0  0
   -3.4570    4.1540    1.4380 H   0  0  0  0  0  0  0  0  0  0  0  0
   -0.4330    1.4280    1.2760 H   0  0  0  0  0  0  0  0  0  0  0  0
   -1.8380   -0.5040    1.4570 H   0  0  0  0  0  0  0  0  0  0  0  0
   -3.1160    0.5020    2.1150 H   0  0  0  0  0  0  0  0  0  0  0  0
   -3.9410   -0.4620    0.0910 H   0  0  0  0  0  0  0  0  0  0  0  0
   -3.9400    1.2980    0.0850 H   0  0  0  0  0  0  0  0  0  0  0  0
   -2.1080    1.4360   -1.4280 H   0  0  0  0  0  0  0  0  0  0  0  0
   -3.3940    0.4230   -2.0620 H   0  0  0  0  0  0  0  0  0  0  0  0
   -2.3060   -1.6560   -1.6380 H   0  0  0  0  0  0  0  0  0  0  0  0
   -0.6070   -1.7260   -0.1010 H   0  0  0  0  0  0  0  0  0  0  0  0
  1  2  1  0  0  0  0
  2  9  1  0  0  0  0
  2  8  1  0  0  0  0
  3 10  1  1  0  0  0
  3  2  1  0  0  0  0
  4 11  1  0  0  0  0
  4  3  1  0  0  0  0
  5  6  2  0  0  0  0
  5  3  1  0  0  0  0
  7  1  1  0  0  0  0
 12  4  1  0  0  0  0
 13  5  1  0  0  0  0
 14 22  1  1  0  0  0
 14 13  1  0  0  0  0
 15 16  1  0  0  0  0
 15 14  1  0  0  0  0
 16 20  1  0  0  0  0
 16 17  2  0  0  0  0
 18 34  1  0  0  0  0
 18 14  1  0  0  0  0
 19 18  2  0  0  0  0
 20 25  1  0  0  0  0
 21 13  1  0  0  0  0
 23 15  1  0  0  0  0
 24 15  1  0  0  0  0
 26 38  1  0  0  0  0
 27 26  1  0  0  0  0
 28 40  1  0  0  0  0
 28 27  2  0  0  0  0
 29 27  1  0  0  0  0
 30 29  1  0  0  0  0
 30 42  1  0  0  0  0
 30 43  1  0  0  0  0
 31 45  1  0  0  0  0
 31 44  1  0  0  0  0
 31 30  1  0  0  0  0
 32 31  1  0  0  0  0
 33 48  1  1  0  0  0
 33 32  1  0  0  0  0
 33 34  1  0  0  0  0
 34 49  1  0  0  0  0
 35 33  1  0  0  0  0
 36 35  1  0  0  0  0
 37 35  2  0  0  0  0
 39 26  1  0  0  0  0
 41 29  1  0  0  0  0
 46 32  1  0  0  0  0
 47 32  1  0  0  0  0
M  END
$$$$
