SDT.pdb
 OpenBabel07022419073D

 40 39  0  0  1  0  0  0  0  0999 V2000
    0.5230   -5.0030   -1.9890 O   0  0  0  0  0  0  0  0  0  0  0  0
   -0.6610   -4.3450   -1.6880 C   0  0  0  0  0  0  0  0  0  0  0  0
   -0.5820   -3.6410   -0.3470 C   0  0  2  0  0  0  0  0  0  0  0  0
   -1.8510   -2.9870   -0.1240 N   0  0  0  0  0  0  0  0  0  0  0  0
    0.5330   -2.6380   -0.4250 C   0  0  0  0  0  0  0  0  0  0  0  0
    1.7150   -3.0230   -0.6020 O   0  0  0  0  0  0  0  0  0  0  0  0
    0.4370   -5.4300   -2.8690 H   0  0  0  0  0  0  0  0  0  0  0  0
   -0.8650   -3.6200   -2.4880 H   0  0  0  0  0  0  0  0  0  0  0  0
   -1.5010   -5.0720   -1.6370 H   0  0  0  0  0  0  0  0  0  0  0  0
   -0.3590   -4.3330    0.4740 H   0  0  0  0  0  0  0  0  0  0  0  0
   -2.3610   -3.3390    0.7150 H   0  0  0  0  0  0  0  0  0  0  0  0
   -2.4770   -3.0250   -0.9660 H   0  0  0  0  0  0  0  0  0  0  0  0
    0.3180   -1.2400   -0.3060 N   0  0  0  0  0  0  0  0  0  0  0  0
    1.4200   -0.2740   -0.3840 C   0  0  1  0  0  0  0  0  0  0  0  0
    1.1910    0.6060   -1.5640 C   0  0  0  0  0  0  0  0  0  0  0  0
    2.2560    1.5940   -1.7580 C   0  0  0  0  0  0  0  0  0  0  0  0
    2.0360    2.5970   -2.5190 O   0  0  0  0  0  0  0  0  0  0  0  0
    1.5490    0.4430    0.9080 C   0  0  0  0  0  0  0  0  0  0  0  0
    2.4070    1.3010    1.1010 O   0  0  0  0  0  0  0  0  0  0  0  0
    3.5070    1.5310   -1.1780 O   0  0  0  0  0  0  0  0  0  0  0  0
   -0.6640   -0.9250   -0.1600 H   0  0  0  0  0  0  0  0  0  0  0  0
    2.3430   -0.8520   -0.5390 H   0  0  0  0  0  0  0  0  0  0  0  0
    0.1710    1.0560   -1.5840 H   0  0  0  0  0  0  0  0  0  0  0  0
    1.2090   -0.0780   -2.4670 H   0  0  0  0  0  0  0  0  0  0  0  0
    4.2150    2.1720   -1.4610 H   0  0  0  0  0  0  0  0  0  0  0  0
   -0.7370    2.7430    2.6640 C   0  0  0  0  0  0  0  0  0  0  0  0
   -0.5890    1.5340    3.5640 C   0  0  1  0  0  0  0  0  0  0  0  0
   -1.7180    0.7220    3.5290 O   0  0  0  0  0  0  0  0  0  0  0  0
    0.6720    0.7580    3.2690 C   0  0  2  0  0  0  0  0  0  0  0  0
    0.6590    0.1390    1.9690 N   0  0  0  0  0  0  0  0  0  0  0  0
    0.9220   -0.1940    4.3590 C   0  0  0  0  0  0  0  0  0  0  0  0
    1.0950   -1.4260    4.1300 O   0  0  0  0  0  0  0  0  0  0  0  0
    0.9820    0.2070    5.6840 O   0  0  0  0  0  0  0  0  0  0  0  0
   -1.2990    2.4810    1.7280 H   0  0  0  0  0  0  0  0  0  0  0  0
    0.2490    3.1810    2.4110 H   0  0  0  0  0  0  0  0  0  0  0  0
   -1.3320    3.5520    3.1360 H   0  0  0  0  0  0  0  0  0  0  0  0
   -0.5040    1.9130    4.6020 H   0  0  0  0  0  0  0  0  0  0  0  0
   -2.4820    1.0890    3.9950 H   0  0  0  0  0  0  0  0  0  0  0  0
    1.5040    1.4940    3.2640 H   0  0  0  0  0  0  0  0  0  0  0  0
   -0.0600   -0.5930    1.7830 H   0  0  0  0  0  0  0  0  0  0  0  0
  1  2  1  0  0  0  0
  2  9  1  0  0  0  0
  2  3  1  0  0  0  0
  3  4  1  0  0  0  0
  3 10  1  1  0  0  0
  4 11  1  0  0  0  0
  5  3  1  0  0  0  0
  5 13  1  0  0  0  0
  6  5  2  0  0  0  0
  7  1  1  0  0  0  0
  8  2  1  0  0  0  0
 12  4  1  0  0  0  0
 13 21  1  0  0  0  0
 14 22  1  6  0  0  0
 14 13  1  0  0  0  0
 14 18  1  0  0  0  0
 15 14  1  0  0  0  0
 16 15  1  0  0  0  0
 16 20  1  0  0  0  0
 17 16  2  0  0  0  0
 18 19  2  0  0  0  0
 18 30  1  0  0  0  0
 23 15  1  0  0  0  0
 24 15  1  0  0  0  0
 25 20  1  0  0  0  0
 26 36  1  0  0  0  0
 26 27  1  0  0  0  0
 27 37  1  1  0  0  0
 28 27  1  0  0  0  0
 28 38  1  0  0  0  0
 29 39  1  1  0  0  0
 29 27  1  0  0  0  0
 29 31  1  0  0  0  0
 30 29  1  0  0  0  0
 31 33  1  0  0  0  0
 32 31  2  0  0  0  0
 34 26  1  0  0  0  0
 35 26  1  0  0  0  0
 40 30  1  0  0  0  0
M  END
$$$$
