SDW.pdb
 OpenBabel07022419073D

 50 51  0  0  1  0  0  0  0  0999 V2000
   -0.6590    5.3180    3.0830 O   0  0  0  0  0  0  0  0  0  0  0  0
    0.1450    4.3520    2.4860 C   0  0  0  0  0  0  0  0  0  0  0  0
   -0.6390    3.0550    2.4660 C   0  0  2  0  0  0  0  0  0  0  0  0
   -0.9640    2.6770    3.8080 N   0  0  0  0  0  0  0  0  0  0  0  0
    0.1120    1.9870    1.7490 C   0  0  0  0  0  0  0  0  0  0  0  0
    0.4980    2.1330    0.5560 O   0  0  0  0  0  0  0  0  0  0  0  0
   -0.7290    6.1470    2.5460 H   0  0  0  0  0  0  0  0  0  0  0  0
    0.3400    4.6790    1.4460 H   0  0  0  0  0  0  0  0  0  0  0  0
    1.0960    4.2300    3.0560 H   0  0  0  0  0  0  0  0  0  0  0  0
   -1.5770    3.2380    1.9030 H   0  0  0  0  0  0  0  0  0  0  0  0
   -0.1530    2.4340    4.3870 H   0  0  0  0  0  0  0  0  0  0  0  0
   -1.5950    3.3370    4.2900 H   0  0  0  0  0  0  0  0  0  0  0  0
    0.4360    0.7480    2.3660 N   0  0  0  0  0  0  0  0  0  0  0  0
    1.1810   -0.3070    1.6510 C   0  0  1  0  0  0  0  0  0  0  0  0
    2.4860   -0.5600    2.3380 C   0  0  0  0  0  0  0  0  0  0  0  0
    3.3310   -1.5720    1.7050 C   0  0  0  0  0  0  0  0  0  0  0  0
    3.8260   -1.2760    0.5620 O   0  0  0  0  0  0  0  0  0  0  0  0
    0.2950   -1.4920    1.5510 C   0  0  0  0  0  0  0  0  0  0  0  0
   -0.8730   -1.4740    2.0960 O   0  0  0  0  0  0  0  0  0  0  0  0
    3.6530   -2.8140    2.2100 O   0  0  0  0  0  0  0  0  0  0  0  0
    0.1260    0.6090    3.3500 H   0  0  0  0  0  0  0  0  0  0  0  0
    1.3870    0.0960    0.6410 H   0  0  0  0  0  0  0  0  0  0  0  0
    2.3240   -0.7470    3.4290 H   0  0  0  0  0  0  0  0  0  0  0  0
    3.0760    0.4000    2.3190 H   0  0  0  0  0  0  0  0  0  0  0  0
    4.2270   -3.4610    1.6500 H   0  0  0  0  0  0  0  0  0  0  0  0
    0.6460   -2.6810    0.8740 N   0  0  0  0  0  0  0  0  0  0  0  0
   -0.2990   -3.8010    0.8200 C   0  0  1  0  0  0  0  0  0  0  0  0
   -0.7860   -4.0660   -0.6020 C   0  0  0  0  0  0  0  0  0  0  0  0
   -1.4780   -2.8810   -1.1510 C   0  0  0  0  0  0  0  0  0  0  0  0
   -2.8670   -2.6870   -1.1580 C   0  0  0  0  0  0  0  0  0  0  0  0
   -3.1400   -1.4950   -1.6990 N   0  0  0  0  0  0  0  0  0  0  0  0
   -1.9920   -0.8560   -2.0680 C   0  0  0  0  0  0  0  0  0  0  0  0
   -1.7600    0.3650   -2.6620 C   0  0  0  0  0  0  0  0  0  0  0  0
   -0.4780    0.7680   -2.9390 C   0  0  0  0  0  0  0  0  0  0  0  0
    0.5390   -0.0960   -2.5990 C   0  0  0  0  0  0  0  0  0  0  0  0
    0.3080   -1.3170   -2.0050 C   0  0  0  0  0  0  0  0  0  0  0  0
   -0.9770   -1.7340   -1.7190 C   0  0  0  0  0  0  0  0  0  0  0  0
    0.3710   -5.0210    1.2870 C   0  0  0  0  0  0  0  0  0  0  0  0
    1.5610   -4.9870    1.6440 O   0  0  0  0  0  0  0  0  0  0  0  0
   -0.3110   -6.2220    1.3340 O   0  0  0  0  0  0  0  0  0  0  0  0
    1.5820   -2.7550    0.4210 H   0  0  0  0  0  0  0  0  0  0  0  0
   -1.1900   -3.5620    1.4760 H   0  0  0  0  0  0  0  0  0  0  0  0
    0.1270   -4.2540   -1.2310 H   0  0  0  0  0  0  0  0  0  0  0  0
   -1.3820   -4.9720   -0.6690 H   0  0  0  0  0  0  0  0  0  0  0  0
   -3.5560   -3.4350   -0.7660 H   0  0  0  0  0  0  0  0  0  0  0  0
   -4.1000   -1.0780   -1.8350 H   0  0  0  0  0  0  0  0  0  0  0  0
   -2.5700    1.0240   -2.9190 H   0  0  0  0  0  0  0  0  0  0  0  0
   -0.2660    1.7400   -3.4130 H   0  0  0  0  0  0  0  0  0  0  0  0
    1.5490    0.2120   -2.8140 H   0  0  0  0  0  0  0  0  0  0  0  0
    1.1190   -1.9950   -1.7550 H   0  0  0  0  0  0  0  0  0  0  0  0
  2  9  1  0  0  0  0
  2  1  1  0  0  0  0
  3 10  1  6  0  0  0
  3  2  1  0  0  0  0
  3  4  1  0  0  0  0
  4 12  1  0  0  0  0
  4 11  1  0  0  0  0
  5 13  1  0  0  0  0
  5  3  1  0  0  0  0
  6  5  2  0  0  0  0
  7  1  1  0  0  0  0
  8  2  1  0  0  0  0
 13 21  1  0  0  0  0
 14 22  1  6  0  0  0
 14 15  1  0  0  0  0
 14 13  1  0  0  0  0
 15 23  1  0  0  0  0
 16 20  1  0  0  0  0
 16 15  1  0  0  0  0
 17 16  2  0  0  0  0
 18 14  1  0  0  0  0
 18 19  2  0  0  0  0
 24 15  1  0  0  0  0
 25 20  1  0  0  0  0
 26 18  1  0  0  0  0
 27 26  1  0  0  0  0
 27 38  1  0  0  0  0
 27 42  1  1  0  0  0
 28 27  1  0  0  0  0
 29 28  1  0  0  0  0
 30 29  2  0  0  0  0
 30 45  1  0  0  0  0
 31 30  1  0  0  0  0
 32 37  1  0  0  0  0
 32 31  1  0  0  0  0
 33 32  2  0  0  0  0
 34 33  1  0  0  0  0
 34 35  2  0  0  0  0
 35 36  1  0  0  0  0
 36 50  1  0  0  0  0
 36 37  2  0  0  0  0
 37 29  1  0  0  0  0
 38 40  2  0  0  0  0
 38 39  1  0  0  0  0
 41 26  1  0  0  0  0
 43 28  1  0  0  0  0
 44 28  1  0  0  0  0
 46 31  1  0  0  0  0
 47 33  1  0  0  0  0
 48 34  1  0  0  0  0
 49 35  1  0  0  0  0
M  END
$$$$
