SEA.pdb
 OpenBabel07022419073D

 39 38  0  0  1  0  0  0  0  0999 V2000
    1.7770   -3.0670    1.4110 O   0  0  0  0  0  0  0  0  0  0  0  0
    1.4190   -3.8610    0.3540 C   0  0  0  0  0  0  0  0  0  0  0  0
   -0.0360   -3.7570    0.0380 C   0  0  2  0  0  0  0  0  0  0  0  0
   -0.3840   -4.6170   -1.0800 N   0  0  0  0  0  0  0  0  0  0  0  0
   -0.5380   -2.4100   -0.2250 C   0  0  0  0  0  0  0  0  0  0  0  0
   -1.1630   -2.1880   -1.3090 O   0  0  0  0  0  0  0  0  0  0  0  0
    2.5040   -3.4760    1.9810 H   0  0  0  0  0  0  0  0  0  0  0  0
    1.6170   -4.9250    0.6320 H   0  0  0  0  0  0  0  0  0  0  0  0
    2.0760   -3.6510   -0.5150 H   0  0  0  0  0  0  0  0  0  0  0  0
   -0.5830   -4.2030    0.9220 H   0  0  0  0  0  0  0  0  0  0  0  0
   -1.4110   -4.8220   -1.0980 H   0  0  0  0  0  0  0  0  0  0  0  0
   -0.0850   -4.2050   -1.9970 H   0  0  0  0  0  0  0  0  0  0  0  0
   -0.3910   -1.2900    0.6410 N   0  0  0  0  0  0  0  0  0  0  0  0
   -0.9470    0.0220    0.2670 C   0  0  1  0  0  0  0  0  0  0  0  0
   -1.8940    0.3900    1.3650 C   0  0  0  0  0  0  0  0  0  0  0  0
   -2.5920    1.6980    1.2030 C   0  0  0  0  0  0  0  0  0  0  0  0
   -3.4860    1.8560    2.4010 C   0  0  0  0  0  0  0  0  0  0  0  0
   -4.1870    2.8930    2.4940 O   0  0  0  0  0  0  0  0  0  0  0  0
    0.1720    0.9780    0.2410 C   0  0  0  0  0  0  0  0  0  0  0  0
    0.0410    2.1940   -0.0630 O   0  0  0  0  0  0  0  0  0  0  0  0
   -3.5680    0.9060    3.4050 O   0  0  0  0  0  0  0  0  0  0  0  0
    0.1170   -1.4410    1.5360 H   0  0  0  0  0  0  0  0  0  0  0  0
   -1.4410   -0.0890   -0.7160 H   0  0  0  0  0  0  0  0  0  0  0  0
   -1.3720    0.4090    2.3470 H   0  0  0  0  0  0  0  0  0  0  0  0
   -2.6930   -0.3990    1.4160 H   0  0  0  0  0  0  0  0  0  0  0  0
   -1.8920    2.5420    1.1400 H   0  0  0  0  0  0  0  0  0  0  0  0
   -3.2860    1.6620    0.3200 H   0  0  0  0  0  0  0  0  0  0  0  0
   -4.4320    0.7820    3.9520 H   0  0  0  0  0  0  0  0  0  0  0  0
    3.1820    1.7080    1.9520 C   0  0  0  0  0  0  0  0  0  0  0  0
    2.6150    1.5100    0.5470 C   0  0  2  0  0  0  0  0  0  0  0  0
    1.5010    0.5820    0.5660 N   0  0  0  0  0  0  0  0  0  0  0  0
    3.6610    1.1200   -0.4080 C   0  0  0  0  0  0  0  0  0  0  0  0
    4.6850    1.8370   -0.5260 O   0  0  0  0  0  0  0  0  0  0  0  0
    3.5880   -0.0140   -1.2040 O   0  0  0  0  0  0  0  0  0  0  0  0
    3.6450    2.7090    1.9700 H   0  0  0  0  0  0  0  0  0  0  0  0
    3.8930    0.9060    2.2190 H   0  0  0  0  0  0  0  0  0  0  0  0
    2.3080    1.7380    2.6370 H   0  0  0  0  0  0  0  0  0  0  0  0
    2.2060    2.4970    0.2470 H   0  0  0  0  0  0  0  0  0  0  0  0
    1.7190   -0.4000    0.8320 H   0  0  0  0  0  0  0  0  0  0  0  0
  1  7  1  0  0  0  0
  2  8  1  0  0  0  0
  2  1  1  0  0  0  0
  3  2  1  0  0  0  0
  3 10  1  1  0  0  0
  4  3  1  0  0  0  0
  5  3  1  0  0  0  0
  5 13  1  0  0  0  0
  6  5  2  0  0  0  0
  9  2  1  0  0  0  0
 11  4  1  0  0  0  0
 12  4  1  0  0  0  0
 13 22  1  0  0  0  0
 14 23  1  6  0  0  0
 14 13  1  0  0  0  0
 14 15  1  0  0  0  0
 15 25  1  0  0  0  0
 15 24  1  0  0  0  0
 16 15  1  0  0  0  0
 16 17  1  0  0  0  0
 17 18  2  0  0  0  0
 17 21  1  0  0  0  0
 19 14  1  0  0  0  0
 19 31  1  0  0  0  0
 20 19  2  0  0  0  0
 21 28  1  0  0  0  0
 26 16  1  0  0  0  0
 27 16  1  0  0  0  0
 29 35  1  0  0  0  0
 29 36  1  0  0  0  0
 29 37  1  0  0  0  0
 30 38  1  6  0  0  0
 30 31  1  0  0  0  0
 30 29  1  0  0  0  0
 31 39  1  0  0  0  0
 32 30  1  0  0  0  0
 33 32  1  0  0  0  0
 34 32  2  0  0  0  0
M  END
$$$$
