SEC.pdb
 OpenBabel07022419073D

 40 39  0  0  1  0  0  0  0  0999 V2000
   -1.5030   -5.1180   -0.0340 O   0  0  0  0  0  0  0  0  0  0  0  0
   -1.4830   -4.5870    1.2360 C   0  0  0  0  0  0  0  0  0  0  0  0
   -0.2230   -3.7490    1.4880 C   0  0  2  0  0  0  0  0  0  0  0  0
   -0.3270   -3.2590    2.8390 N   0  0  0  0  0  0  0  0  0  0  0  0
   -0.2410   -2.6650    0.4830 C   0  0  0  0  0  0  0  0  0  0  0  0
   -0.1530   -3.0100   -0.7270 O   0  0  0  0  0  0  0  0  0  0  0  0
   -2.2730   -4.7450   -0.5660 H   0  0  0  0  0  0  0  0  0  0  0  0
   -2.4000   -4.0170    1.4780 H   0  0  0  0  0  0  0  0  0  0  0  0
   -1.4360   -5.4270    1.9650 H   0  0  0  0  0  0  0  0  0  0  0  0
    0.6300   -4.4370    1.3760 H   0  0  0  0  0  0  0  0  0  0  0  0
   -0.5960   -4.0630    3.4580 H   0  0  0  0  0  0  0  0  0  0  0  0
   -1.1480   -2.5850    2.8590 H   0  0  0  0  0  0  0  0  0  0  0  0
   -0.3470   -1.2990    0.7720 N   0  0  0  0  0  0  0  0  0  0  0  0
   -0.3640   -0.2320   -0.2370 C   0  0  1  0  0  0  0  0  0  0  0  0
   -1.6570    0.4630   -0.2760 C   0  0  0  0  0  0  0  0  0  0  0  0
   -1.9060    1.5710   -1.1980 C   0  0  0  0  0  0  0  0  0  0  0  0
   -1.1600    2.8020   -1.0930 C   0  0  0  0  0  0  0  0  0  0  0  0
   -0.7820    3.3740   -2.1670 O   0  0  0  0  0  0  0  0  0  0  0  0
    0.8700    0.5400   -0.1090 C   0  0  0  0  0  0  0  0  0  0  0  0
    1.2020    1.4380   -0.9230 O   0  0  0  0  0  0  0  0  0  0  0  0
   -0.8040    3.4450    0.0860 O   0  0  0  0  0  0  0  0  0  0  0  0
   -0.4200   -1.0040    1.7640 H   0  0  0  0  0  0  0  0  0  0  0  0
   -0.2730   -0.7850   -1.2240 H   0  0  0  0  0  0  0  0  0  0  0  0
   -2.4990   -0.2860   -0.4810 H   0  0  0  0  0  0  0  0  0  0  0  0
   -1.8890    0.8070    0.7880 H   0  0  0  0  0  0  0  0  0  0  0  0
   -1.8500    1.1950   -2.2520 H   0  0  0  0  0  0  0  0  0  0  0  0
   -3.0050    1.8530   -1.0720 H   0  0  0  0  0  0  0  0  0  0  0  0
   -0.6960    4.4500    0.0480 H   0  0  0  0  0  0  0  0  0  0  0  0
    1.7820    0.3070    0.9780 N   0  0  0  0  0  0  0  0  0  0  0  0
    2.9970    1.0800    1.0880 C   0  0  1  0  0  0  0  0  0  0  0  0
    2.8860    1.8470    2.4080 C   0  0  0  0  0  0  0  0  0  0  0  0
    2.7300    0.6360    3.7510 S   0  0  0  0  0  0  0  0  0  0  0  0
    4.1460    0.1710    1.2120 C   0  0  0  0  0  0  0  0  0  0  0  0
    5.3300    0.5850    1.3240 O   0  0  0  0  0  0  0  0  0  0  0  0
    3.9300   -1.1970    1.2040 O   0  0  0  0  0  0  0  0  0  0  0  0
    1.5540   -0.4130    1.6680 H   0  0  0  0  0  0  0  0  0  0  0  0
    3.0820    1.7950    0.2430 H   0  0  0  0  0  0  0  0  0  0  0  0
    3.8040    2.4420    2.6010 H   0  0  0  0  0  0  0  0  0  0  0  0
    2.0170    2.5280    2.3780 H   0  0  0  0  0  0  0  0  0  0  0  0
    1.3710    0.3100    3.9580 H   0  0  0  0  0  0  0  0  0  0  0  0
  1  2  1  0  0  0  0
  2  8  1  0  0  0  0
  2  3  1  0  0  0  0
  2  9  1  0  0  0  0
  3 10  1  6  0  0  0
  3  4  1  0  0  0  0
  4 12  1  0  0  0  0
  4 11  1  0  0  0  0
  5 13  1  0  0  0  0
  5  3  1  0  0  0  0
  6  5  2  0  0  0  0
  7  1  1  0  0  0  0
 13 22  1  0  0  0  0
 14 23  1  6  0  0  0
 14 19  1  0  0  0  0
 14 13  1  0  0  0  0
 15 14  1  0  0  0  0
 15 25  1  0  0  0  0
 16 17  1  0  0  0  0
 16 27  1  0  0  0  0
 16 15  1  0  0  0  0
 17 21  1  0  0  0  0
 18 17  2  0  0  0  0
 19 29  1  0  0  0  0
 20 19  2  0  0  0  0
 24 15  1  0  0  0  0
 26 16  1  0  0  0  0
 28 21  1  0  0  0  0
 29 30  1  0  0  0  0
 29 36  1  0  0  0  0
 30 37  1  6  0  0  0
 30 33  1  0  0  0  0
 30 31  1  0  0  0  0
 31 38  1  0  0  0  0
 31 32  1  0  0  0  0
 32 40  1  0  0  0  0
 33 34  1  0  0  0  0
 35 33  2  0  0  0  0
 39 31  1  0  0  0  0
M  END
$$$$
