SEE.pdb
 OpenBabel07022419073D

 45 44  0  0  1  0  0  0  0  0999 V2000
    0.7200   -3.5740    1.1020 O   0  0  0  0  0  0  0  0  0  0  0  0
    1.9510   -3.5840    1.7480 C   0  0  0  0  0  0  0  0  0  0  0  0
    2.1490   -2.3070    2.5070 C   0  0  2  0  0  0  0  0  0  0  0  0
    1.1080   -2.1480    3.4950 N   0  0  0  0  0  0  0  0  0  0  0  0
    2.2000   -1.1280    1.5580 C   0  0  0  0  0  0  0  0  0  0  0  0
    3.0260   -1.1060    0.6370 O   0  0  0  0  0  0  0  0  0  0  0  0
    0.2870   -4.4610    1.1830 H   0  0  0  0  0  0  0  0  0  0  0  0
    2.8090   -3.7120    1.0430 H   0  0  0  0  0  0  0  0  0  0  0  0
    1.9940   -4.4130    2.4900 H   0  0  0  0  0  0  0  0  0  0  0  0
    3.1190   -2.2780    3.0370 H   0  0  0  0  0  0  0  0  0  0  0  0
    1.2370   -1.2930    4.0780 H   0  0  0  0  0  0  0  0  0  0  0  0
    0.1980   -2.0760    2.9980 H   0  0  0  0  0  0  0  0  0  0  0  0
    1.3140   -0.0390    1.7040 N   0  0  0  0  0  0  0  0  0  0  0  0
    1.2410    1.1400    0.9250 C   0  0  1  0  0  0  0  0  0  0  0  0
    2.4730    1.4960    0.1200 C   0  0  0  0  0  0  0  0  0  0  0  0
    3.6870    1.7900    0.9620 C   0  0  0  0  0  0  0  0  0  0  0  0
    3.3710    2.9710    1.8400 C   0  0  0  0  0  0  0  0  0  0  0  0
    3.3650    4.1290    1.3690 O   0  0  0  0  0  0  0  0  0  0  0  0
    0.0370    1.1480    0.1050 C   0  0  0  0  0  0  0  0  0  0  0  0
   -0.1790    2.1360   -0.6530 O   0  0  0  0  0  0  0  0  0  0  0  0
    3.0820    2.8010    3.1780 O   0  0  0  0  0  0  0  0  0  0  0  0
    0.6250   -0.1460    2.5120 H   0  0  0  0  0  0  0  0  0  0  0  0
    1.1770    2.0640    1.6370 H   0  0  0  0  0  0  0  0  0  0  0  0
    2.2330    2.4710   -0.3970 H   0  0  0  0  0  0  0  0  0  0  0  0
    2.6780    0.7840   -0.6900 H   0  0  0  0  0  0  0  0  0  0  0  0
    4.0600    1.0250    1.6120 H   0  0  0  0  0  0  0  0  0  0  0  0
    4.4960    2.0940    0.2590 H   0  0  0  0  0  0  0  0  0  0  0  0
    2.8630    3.5640    3.7960 H   0  0  0  0  0  0  0  0  0  0  0  0
   -0.9360    0.1040    0.0910 N   0  0  0  0  0  0  0  0  0  0  0  0
   -2.1210    0.1210   -0.7220 C   0  0  1  0  0  0  0  0  0  0  0  0
   -2.1370   -0.9340   -1.7940 C   0  0  0  0  0  0  0  0  0  0  0  0
   -2.0490   -2.3380   -1.3250 C   0  0  0  0  0  0  0  0  0  0  0  0
   -3.1260   -2.7930   -0.4350 C   0  0  0  0  0  0  0  0  0  0  0  0
   -3.0110   -2.6630    0.8070 O   0  0  0  0  0  0  0  0  0  0  0  0
   -3.3720    0.1990    0.0680 C   0  0  0  0  0  0  0  0  0  0  0  0
   -4.5030    0.1830   -0.4770 O   0  0  0  0  0  0  0  0  0  0  0  0
   -4.2870   -3.3710   -0.9220 O   0  0  0  0  0  0  0  0  0  0  0  0
   -3.3780    0.2980    1.4740 O   0  0  0  0  0  0  0  0  0  0  0  0
   -0.7180   -0.7090    0.7400 H   0  0  0  0  0  0  0  0  0  0  0  0
   -2.0890    1.1010   -1.2900 H   0  0  0  0  0  0  0  0  0  0  0  0
   -1.2550   -0.7630   -2.4760 H   0  0  0  0  0  0  0  0  0  0  0  0
   -3.0420   -0.7790   -2.4520 H   0  0  0  0  0  0  0  0  0  0  0  0
   -1.0360   -2.4650   -0.8590 H   0  0  0  0  0  0  0  0  0  0  0  0
   -2.0210   -2.9960   -2.2290 H   0  0  0  0  0  0  0  0  0  0  0  0
   -5.1830   -3.2640   -0.4470 H   0  0  0  0  0  0  0  0  0  0  0  0
  1  7  1  0  0  0  0
  1  2  1  0  0  0  0
  2  9  1  0  0  0  0
  2  3  1  0  0  0  0
  3 10  1  1  0  0  0
  3  4  1  0  0  0  0
  4 11  1  0  0  0  0
  5 13  1  0  0  0  0
  5  3  1  0  0  0  0
  6  5  2  0  0  0  0
  8  2  1  0  0  0  0
 12  4  1  0  0  0  0
 13 22  1  0  0  0  0
 14 23  1  1  0  0  0
 14 13  1  0  0  0  0
 15 14  1  0  0  0  0
 15 16  1  0  0  0  0
 16 26  1  0  0  0  0
 16 17  1  0  0  0  0
 17 21  1  0  0  0  0
 18 17  2  0  0  0  0
 19 14  1  0  0  0  0
 20 19  2  0  0  0  0
 21 28  1  0  0  0  0
 24 15  1  0  0  0  0
 25 15  1  0  0  0  0
 27 16  1  0  0  0  0
 29 19  1  0  0  0  0
 29 39  1  0  0  0  0
 30 40  1  6  0  0  0
 30 35  1  0  0  0  0
 30 29  1  0  0  0  0
 31 32  1  0  0  0  0
 31 30  1  0  0  0  0
 32 43  1  0  0  0  0
 32 33  1  0  0  0  0
 33 34  2  0  0  0  0
 35 38  1  0  0  0  0
 36 35  2  0  0  0  0
 37 45  1  0  0  0  0
 37 33  1  0  0  0  0
 41 31  1  0  0  0  0
 42 31  1  0  0  0  0
 44 32  1  0  0  0  0
M  END
$$$$
