SEF.pdb
 OpenBabel07022419073D

 49 49  0  0  1  0  0  0  0  0999 V2000
    1.4530   -1.7020    5.3420 O   0  0  0  0  0  0  0  0  0  0  0  0
    2.2800   -2.5150    4.5680 C   0  0  0  0  0  0  0  0  0  0  0  0
    1.6520   -2.6420    3.1990 C   0  0  2  0  0  0  0  0  0  0  0  0
    2.4560   -3.4670    2.3590 N   0  0  0  0  0  0  0  0  0  0  0  0
    1.2940   -1.3420    2.6120 C   0  0  0  0  0  0  0  0  0  0  0  0
    0.5780   -0.5730    3.3190 O   0  0  0  0  0  0  0  0  0  0  0  0
    1.9290   -1.2630    6.0890 H   0  0  0  0  0  0  0  0  0  0  0  0
    2.2250   -3.5400    5.0320 H   0  0  0  0  0  0  0  0  0  0  0  0
    3.3230   -2.1980    4.5520 H   0  0  0  0  0  0  0  0  0  0  0  0
    0.6790   -3.1930    3.3640 H   0  0  0  0  0  0  0  0  0  0  0  0
    3.4510   -3.5410    2.6190 H   0  0  0  0  0  0  0  0  0  0  0  0
    2.2440   -3.4420    1.3600 H   0  0  0  0  0  0  0  0  0  0  0  0
    1.6760   -0.8800    1.3430 N   0  0  0  0  0  0  0  0  0  0  0  0
    1.2880    0.4340    0.8050 C   0  0  1  0  0  0  0  0  0  0  0  0
    2.5240    1.2680    0.5770 C   0  0  0  0  0  0  0  0  0  0  0  0
    2.2570    2.6260    0.0310 C   0  0  0  0  0  0  0  0  0  0  0  0
    1.4160    3.4890    0.8630 C   0  0  0  0  0  0  0  0  0  0  0  0
    1.1520    4.6420    0.4180 O   0  0  0  0  0  0  0  0  0  0  0  0
    0.4790    0.2400   -0.4110 C   0  0  0  0  0  0  0  0  0  0  0  0
    0.0410    1.2300   -1.0210 O   0  0  0  0  0  0  0  0  0  0  0  0
    0.8810    3.1650    2.0920 O   0  0  0  0  0  0  0  0  0  0  0  0
    2.2650   -1.4980    0.7480 H   0  0  0  0  0  0  0  0  0  0  0  0
    0.6800    0.8990    1.6100 H   0  0  0  0  0  0  0  0  0  0  0  0
    3.1120    1.3580    1.4900 H   0  0  0  0  0  0  0  0  0  0  0  0
    3.1390    0.7220   -0.1740 H   0  0  0  0  0  0  0  0  0  0  0  0
    3.2640    3.1400   -0.0260 H   0  0  0  0  0  0  0  0  0  0  0  0
    1.8830    2.6460   -1.0150 H   0  0  0  0  0  0  0  0  0  0  0  0
    0.5860    3.8410    2.7850 H   0  0  0  0  0  0  0  0  0  0  0  0
    0.2000   -1.0610   -0.8860 N   0  0  0  0  0  0  0  0  0  0  0  0
   -0.5780   -1.3620   -2.0520 C   0  0  1  0  0  0  0  0  0  0  0  0
   -1.9020   -0.6320   -2.1340 C   0  0  0  0  0  0  0  0  0  0  0  0
   -2.8120   -0.9430   -1.0000 C   0  0  0  0  0  0  0  0  0  0  0  0
   -2.8820   -0.2160    0.1630 C   0  0  0  0  0  0  0  0  0  0  0  0
   -3.7400   -0.5600    1.1810 C   0  0  0  0  0  0  0  0  0  0  0  0
   -4.5630   -1.6580    1.0570 C   0  0  0  0  0  0  0  0  0  0  0  0
   -4.5190   -2.4130   -0.1020 C   0  0  0  0  0  0  0  0  0  0  0  0
   -3.6550   -2.0540   -1.1090 C   0  0  0  0  0  0  0  0  0  0  0  0
    0.2210   -1.0620   -3.2630 C   0  0  0  0  0  0  0  0  0  0  0  0
   -0.2900   -1.2600   -4.3940 O   0  0  0  0  0  0  0  0  0  0  0  0
    1.5170   -0.5680   -3.2220 O   0  0  0  0  0  0  0  0  0  0  0  0
    0.5930   -1.8940   -0.3450 H   0  0  0  0  0  0  0  0  0  0  0  0
   -0.8050   -2.4800   -2.0230 H   0  0  0  0  0  0  0  0  0  0  0  0
   -1.7430    0.4480   -2.2740 H   0  0  0  0  0  0  0  0  0  0  0  0
   -2.4200   -1.0120   -3.0610 H   0  0  0  0  0  0  0  0  0  0  0  0
   -2.2650    0.6540    0.3080 H   0  0  0  0  0  0  0  0  0  0  0  0
   -3.7960    0.0230    2.1150 H   0  0  0  0  0  0  0  0  0  0  0  0
   -5.2210   -1.8900    1.8830 H   0  0  0  0  0  0  0  0  0  0  0  0
   -5.1800   -3.2910   -0.1970 H   0  0  0  0  0  0  0  0  0  0  0  0
   -3.6350   -2.6530   -2.0030 H   0  0  0  0  0  0  0  0  0  0  0  0
  1  7  1  0  0  0  0
  2  8  1  0  0  0  0
  2  1  1  0  0  0  0
  3 10  1  1  0  0  0
  3  2  1  0  0  0  0
  4 11  1  0  0  0  0
  4  3  1  0  0  0  0
  5  3  1  0  0  0  0
  5  6  2  0  0  0  0
  9  2  1  0  0  0  0
 12  4  1  0  0  0  0
 13  5  1  0  0  0  0
 14 13  1  0  0  0  0
 14 23  1  1  0  0  0
 15 14  1  0  0  0  0
 15 24  1  0  0  0  0
 16 15  1  0  0  0  0
 16 17  1  0  0  0  0
 17 21  1  0  0  0  0
 18 17  2  0  0  0  0
 19 14  1  0  0  0  0
 20 19  2  0  0  0  0
 21 28  1  0  0  0  0
 22 13  1  0  0  0  0
 25 15  1  0  0  0  0
 26 16  1  0  0  0  0
 27 16  1  0  0  0  0
 29 19  1  0  0  0  0
 29 41  1  0  0  0  0
 30 42  1  1  0  0  0
 30 29  1  0  0  0  0
 31 30  1  0  0  0  0
 31 32  1  0  0  0  0
 32 33  1  0  0  0  0
 33 45  1  0  0  0  0
 33 34  2  0  0  0  0
 34 46  1  0  0  0  0
 35 34  1  0  0  0  0
 35 47  1  0  0  0  0
 36 35  2  0  0  0  0
 37 32  2  0  0  0  0
 37 36  1  0  0  0  0
 38 40  1  0  0  0  0
 38 30  1  0  0  0  0
 39 38  2  0  0  0  0
 43 31  1  0  0  0  0
 44 31  1  0  0  0  0
 48 36  1  0  0  0  0
 49 37  1  0  0  0  0
M  END
$$$$
