SEG.pdb
 OpenBabel07022419073D

 36 35  0  0  1  0  0  0  0  0999 V2000
    2.0660   -4.5950    4.0060 O   0  0  0  0  0  0  0  0  0  0  0  0
    2.1440   -3.3400    3.4620 C   0  0  0  0  0  0  0  0  0  0  0  0
    0.8290   -2.7940    2.9510 C   0  0  2  0  0  0  0  0  0  0  0  0
    0.3180   -3.6680    1.9260 N   0  0  0  0  0  0  0  0  0  0  0  0
    1.0750   -1.4220    2.4520 C   0  0  0  0  0  0  0  0  0  0  0  0
    1.5680   -0.5940    3.2820 O   0  0  0  0  0  0  0  0  0  0  0  0
    1.1430   -4.9270    4.1080 H   0  0  0  0  0  0  0  0  0  0  0  0
    2.9140   -3.3690    2.6450 H   0  0  0  0  0  0  0  0  0  0  0  0
    2.5730   -2.6550    4.2350 H   0  0  0  0  0  0  0  0  0  0  0  0
    0.1110   -2.8300    3.7940 H   0  0  0  0  0  0  0  0  0  0  0  0
    0.0950   -4.5860    2.3910 H   0  0  0  0  0  0  0  0  0  0  0  0
   -0.5670   -3.2250    1.5730 H   0  0  0  0  0  0  0  0  0  0  0  0
    0.8040   -0.9730    1.1330 N   0  0  0  0  0  0  0  0  0  0  0  0
    1.0500    0.3580    0.6650 C   0  0  1  0  0  0  0  0  0  0  0  0
    2.0810    0.5030   -0.3650 C   0  0  0  0  0  0  0  0  0  0  0  0
    1.9520   -0.2170   -1.6430 C   0  0  0  0  0  0  0  0  0  0  0  0
    0.7730    0.0930   -2.4660 C   0  0  0  0  0  0  0  0  0  0  0  0
    0.7620    1.1650   -3.1050 O   0  0  0  0  0  0  0  0  0  0  0  0
   -0.1530    1.1870    0.4590 C   0  0  0  0  0  0  0  0  0  0  0  0
   -0.0700    2.3700    0.0340 O   0  0  0  0  0  0  0  0  0  0  0  0
   -0.3170   -0.7520   -2.5600 O   0  0  0  0  0  0  0  0  0  0  0  0
    0.3910   -1.7270    0.5010 H   0  0  0  0  0  0  0  0  0  0  0  0
    1.5270    0.8700    1.6070 H   0  0  0  0  0  0  0  0  0  0  0  0
    2.1170    1.6100   -0.6300 H   0  0  0  0  0  0  0  0  0  0  0  0
    3.1050    0.3560    0.1030 H   0  0  0  0  0  0  0  0  0  0  0  0
    1.9850   -1.3260   -1.5590 H   0  0  0  0  0  0  0  0  0  0  0  0
    2.8650    0.0310   -2.2670 H   0  0  0  0  0  0  0  0  0  0  0  0
   -0.9900   -0.7120   -3.3050 H   0  0  0  0  0  0  0  0  0  0  0  0
   -1.4470    0.6970    0.7370 N   0  0  0  0  0  0  0  0  0  0  0  0
   -2.6380    1.4810    0.5850 C   0  0  0  0  0  0  0  0  0  0  0  0
   -2.8150    1.9520   -0.7970 C   0  0  0  0  0  0  0  0  0  0  0  0
   -3.8640    2.6380   -1.0280 O   0  0  0  0  0  0  0  0  0  0  0  0
   -1.9590    1.7210   -1.8520 O   0  0  0  0  0  0  0  0  0  0  0  0
   -1.4930   -0.3200    1.0750 H   0  0  0  0  0  0  0  0  0  0  0  0
   -2.5320    2.3900    1.2300 H   0  0  0  0  0  0  0  0  0  0  0  0
   -3.5410    0.8910    0.8860 H   0  0  0  0  0  0  0  0  0  0  0  0
  1  7  1  0  0  0  0
  2  1  1  0  0  0  0
  2  9  1  0  0  0  0
  3  2  1  0  0  0  0
  3 10  1  1  0  0  0
  4 11  1  0  0  0  0
  4  3  1  0  0  0  0
  5  3  1  0  0  0  0
  5  6  2  0  0  0  0
  8  2  1  0  0  0  0
 12  4  1  0  0  0  0
 13  5  1  0  0  0  0
 14 13  1  0  0  0  0
 14 23  1  1  0  0  0
 15 25  1  0  0  0  0
 15 14  1  0  0  0  0
 16 26  1  0  0  0  0
 16 15  1  0  0  0  0
 17 16  1  0  0  0  0
 18 17  2  0  0  0  0
 19 14  1  0  0  0  0
 19 29  1  0  0  0  0
 20 19  2  0  0  0  0
 21 17  1  0  0  0  0
 22 13  1  0  0  0  0
 24 15  1  0  0  0  0
 27 16  1  0  0  0  0
 28 21  1  0  0  0  0
 29 34  1  0  0  0  0
 30 29  1  0  0  0  0
 30 36  1  0  0  0  0
 30 35  1  0  0  0  0
 31 30  1  0  0  0  0
 32 31  1  0  0  0  0
 33 31  2  0  0  0  0
M  END
$$$$
