SEH.pdb
 OpenBabel07022419073D

 46 46  0  0  1  0  0  0  0  0999 V2000
    3.0990   -4.0780    4.4460 O   0  0  0  0  0  0  0  0  0  0  0  0
    2.9550   -2.8250    3.8320 C   0  0  0  0  0  0  0  0  0  0  0  0
    2.9940   -3.0880    2.3420 C   0  0  2  0  0  0  0  0  0  0  0  0
    4.2600   -3.7050    2.0110 N   0  0  0  0  0  0  0  0  0  0  0  0
    2.8430   -1.8190    1.5560 C   0  0  0  0  0  0  0  0  0  0  0  0
    3.7680   -1.5150    0.7960 O   0  0  0  0  0  0  0  0  0  0  0  0
    2.4790   -4.6940    3.9870 H   0  0  0  0  0  0  0  0  0  0  0  0
    1.9530   -2.4500    4.1310 H   0  0  0  0  0  0  0  0  0  0  0  0
    3.7540   -2.1740    4.1810 H   0  0  0  0  0  0  0  0  0  0  0  0
    2.2010   -3.8120    2.0850 H   0  0  0  0  0  0  0  0  0  0  0  0
    4.3440   -3.7730    0.9680 H   0  0  0  0  0  0  0  0  0  0  0  0
    4.2540   -4.6650    2.4110 H   0  0  0  0  0  0  0  0  0  0  0  0
    1.6890   -0.9990    1.6810 N   0  0  0  0  0  0  0  0  0  0  0  0
    1.4270    0.2270    1.0270 C   0  0  1  0  0  0  0  0  0  0  0  0
    2.6160    0.9580    0.4360 C   0  0  0  0  0  0  0  0  0  0  0  0
    3.6070    1.4150    1.4820 C   0  0  0  0  0  0  0  0  0  0  0  0
    2.9470    2.3820    2.4150 C   0  0  0  0  0  0  0  0  0  0  0  0
    2.3870    3.4200    1.9580 O   0  0  0  0  0  0  0  0  0  0  0  0
    0.1760    0.3640    0.2780 C   0  0  0  0  0  0  0  0  0  0  0  0
   -0.0330    1.4640   -0.3200 O   0  0  0  0  0  0  0  0  0  0  0  0
    2.9230    2.1830    3.7940 O   0  0  0  0  0  0  0  0  0  0  0  0
    0.9690   -1.4100    2.3650 H   0  0  0  0  0  0  0  0  0  0  0  0
    1.2590    0.9560    1.9520 H   0  0  0  0  0  0  0  0  0  0  0  0
    2.2070    1.8940   -0.0250 H   0  0  0  0  0  0  0  0  0  0  0  0
    3.1530    0.4250   -0.3360 H   0  0  0  0  0  0  0  0  0  0  0  0
    4.0460    0.6320    2.1000 H   0  0  0  0  0  0  0  0  0  0  0  0
    4.4380    1.9490    0.9580 H   0  0  0  0  0  0  0  0  0  0  0  0
    2.0710    2.4250    4.3310 H   0  0  0  0  0  0  0  0  0  0  0  0
   -0.7940   -0.6450    0.1890 N   0  0  0  0  0  0  0  0  0  0  0  0
   -2.0460   -0.5910   -0.5300 C   0  0  1  0  0  0  0  0  0  0  0  0
   -3.1780   -0.1190    0.3090 C   0  0  0  0  0  0  0  0  0  0  0  0
   -4.4560   -0.0490   -0.4230 C   0  0  0  0  0  0  0  0  0  0  0  0
   -5.0030    1.0480   -1.0960 C   0  0  0  0  0  0  0  0  0  0  0  0
   -6.1950    0.7200   -1.6150 N   0  0  0  0  0  0  0  0  0  0  0  0
   -6.4280   -0.5590   -1.2920 C   0  0  0  0  0  0  0  0  0  0  0  0
   -5.3930   -1.0300   -0.5770 N   0  0  0  0  0  0  0  0  0  0  0  0
   -1.9490   -0.0090   -1.8880 C   0  0  0  0  0  0  0  0  0  0  0  0
   -0.8640    0.3840   -2.4170 O   0  0  0  0  0  0  0  0  0  0  0  0
   -3.0630    0.1560   -2.7090 O   0  0  0  0  0  0  0  0  0  0  0  0
   -0.5330   -1.5300    0.7270 H   0  0  0  0  0  0  0  0  0  0  0  0
   -2.2610   -1.7020   -0.7740 H   0  0  0  0  0  0  0  0  0  0  0  0
   -2.9570    0.8500    0.8360 H   0  0  0  0  0  0  0  0  0  0  0  0
   -3.3870   -0.8280    1.1730 H   0  0  0  0  0  0  0  0  0  0  0  0
   -4.5170    2.0230   -1.1780 H   0  0  0  0  0  0  0  0  0  0  0  0
   -6.8280    1.3610   -2.1760 H   0  0  0  0  0  0  0  0  0  0  0  0
   -7.3120   -1.1070   -1.5700 H   0  0  0  0  0  0  0  0  0  0  0  0
  2  8  1  0  0  0  0
  2  9  1  0  0  0  0
  2  1  1  0  0  0  0
  3 10  1  6  0  0  0
  3  2  1  0  0  0  0
  4  3  1  0  0  0  0
  4 12  1  0  0  0  0
  5 13  1  0  0  0  0
  5  3  1  0  0  0  0
  6  5  2  0  0  0  0
  7  1  1  0  0  0  0
 11  4  1  0  0  0  0
 13 22  1  0  0  0  0
 14 13  1  0  0  0  0
 14 23  1  1  0  0  0
 15 14  1  0  0  0  0
 15 16  1  0  0  0  0
 16 26  1  0  0  0  0
 16 17  1  0  0  0  0
 17 21  1  0  0  0  0
 18 17  2  0  0  0  0
 19 14  1  0  0  0  0
 20 19  2  0  0  0  0
 21 28  1  0  0  0  0
 24 15  1  0  0  0  0
 25 15  1  0  0  0  0
 27 16  1  0  0  0  0
 29 19  1  0  0  0  0
 29 40  1  0  0  0  0
 30 41  1  6  0  0  0
 30 29  1  0  0  0  0
 30 31  1  0  0  0  0
 31 42  1  0  0  0  0
 31 43  1  0  0  0  0
 32 31  1  0  0  0  0
 33 32  2  0  0  0  0
 34 35  1  0  0  0  0
 34 33  1  0  0  0  0
 35 36  2  0  0  0  0
 36 32  1  0  0  0  0
 37 30  1  0  0  0  0
 38 37  1  0  0  0  0
 39 37  2  0  0  0  0
 44 33  1  0  0  0  0
 45 34  1  0  0  0  0
 46 35  1  0  0  0  0
M  END
$$$$
