SEK.pdb
 OpenBabel07022419073D

 50 49  0  0  1  0  0  0  0  0999 V2000
    6.2430   -3.3940    3.0620 O   0  0  0  0  0  0  0  0  0  0  0  0
    5.1070   -2.5880    3.1070 C   0  0  0  0  0  0  0  0  0  0  0  0
    4.0700   -3.0490    2.1070 C   0  0  2  0  0  0  0  0  0  0  0  0
    4.6330   -2.9820    0.7980 N   0  0  0  0  0  0  0  0  0  0  0  0
    2.7840   -2.3770    2.2610 C   0  0  0  0  0  0  0  0  0  0  0  0
    2.2320   -2.4000    3.3960 O   0  0  0  0  0  0  0  0  0  0  0  0
    5.9550   -4.3080    2.8330 H   0  0  0  0  0  0  0  0  0  0  0  0
    4.6710   -2.6060    4.1390 H   0  0  0  0  0  0  0  0  0  0  0  0
    5.4400   -1.5510    2.8990 H   0  0  0  0  0  0  0  0  0  0  0  0
    3.9000   -4.1430    2.3330 H   0  0  0  0  0  0  0  0  0  0  0  0
    4.2480   -3.6630    0.1180 H   0  0  0  0  0  0  0  0  0  0  0  0
    4.7740   -2.0370    0.4270 H   0  0  0  0  0  0  0  0  0  0  0  0
    2.0860   -1.6890    1.2360 N   0  0  0  0  0  0  0  0  0  0  0  0
    0.8080   -1.0330    1.4290 C   0  0  1  0  0  0  0  0  0  0  0  0
    0.9160    0.4650    1.1980 C   0  0  0  0  0  0  0  0  0  0  0  0
    1.9210    1.0720    2.1780 C   0  0  0  0  0  0  0  0  0  0  0  0
    2.0430    2.5310    1.9730 C   0  0  0  0  0  0  0  0  0  0  0  0
    2.8320    3.1770    2.7040 O   0  0  0  0  0  0  0  0  0  0  0  0
   -0.1990   -1.6260    0.4770 C   0  0  0  0  0  0  0  0  0  0  0  0
    0.1870   -2.5370   -0.2900 O   0  0  0  0  0  0  0  0  0  0  0  0
    1.3020    3.1690    0.9950 O   0  0  0  0  0  0  0  0  0  0  0  0
    2.5210   -1.6570    0.2930 H   0  0  0  0  0  0  0  0  0  0  0  0
    0.5150   -1.1760    2.4770 H   0  0  0  0  0  0  0  0  0  0  0  0
   -0.0920    0.8940    1.3660 H   0  0  0  0  0  0  0  0  0  0  0  0
    1.2980    0.6230    0.1730 H   0  0  0  0  0  0  0  0  0  0  0  0
    1.5710    0.8380    3.2250 H   0  0  0  0  0  0  0  0  0  0  0  0
    2.9080    0.5900    2.0830 H   0  0  0  0  0  0  0  0  0  0  0  0
    1.4490    4.1470    0.7590 H   0  0  0  0  0  0  0  0  0  0  0  0
   -1.5290   -1.1940    0.4280 N   0  0  0  0  0  0  0  0  0  0  0  0
   -2.5680   -1.6880   -0.4200 C   0  0  1  0  0  0  0  0  0  0  0  0
   -2.6990   -1.0370   -1.7470 C   0  0  0  0  0  0  0  0  0  0  0  0
   -2.9820    0.4390   -1.6700 C   0  0  0  0  0  0  0  0  0  0  0  0
   -4.2670    0.7600   -0.9410 C   0  0  0  0  0  0  0  0  0  0  0  0
   -4.4520    2.2760   -0.9240 C   0  0  0  0  0  0  0  0  0  0  0  0
   -3.3250    2.9010   -0.2390 N   0  0  0  0  0  0  0  0  0  0  0  0
   -2.6170   -3.1880   -0.5170 C   0  0  0  0  0  0  0  0  0  0  0  0
   -3.4210   -3.7240   -1.3200 O   0  0  0  0  0  0  0  0  0  0  0  0
   -1.7990   -3.9460    0.2620 O   0  0  0  0  0  0  0  0  0  0  0  0
   -1.7570   -0.4020    1.1160 H   0  0  0  0  0  0  0  0  0  0  0  0
   -3.5610   -1.4890    0.1390 H   0  0  0  0  0  0  0  0  0  0  0  0
   -1.8420   -1.1740   -2.4160 H   0  0  0  0  0  0  0  0  0  0  0  0
   -3.5740   -1.5200   -2.2710 H   0  0  0  0  0  0  0  0  0  0  0  0
   -3.1350    0.7900   -2.7280 H   0  0  0  0  0  0  0  0  0  0  0  0
   -2.1240    0.9900   -1.2850 H   0  0  0  0  0  0  0  0  0  0  0  0
   -4.2450    0.4230    0.0990 H   0  0  0  0  0  0  0  0  0  0  0  0
   -5.1520    0.3490   -1.4530 H   0  0  0  0  0  0  0  0  0  0  0  0
   -4.5580    2.6600   -1.9550 H   0  0  0  0  0  0  0  0  0  0  0  0
   -5.3840    2.4870   -0.3630 H   0  0  0  0  0  0  0  0  0  0  0  0
   -3.2640    2.4430    0.7000 H   0  0  0  0  0  0  0  0  0  0  0  0
   -3.5640    3.9060   -0.0840 H   0  0  0  0  0  0  0  0  0  0  0  0
  1  2  1  0  0  0  0
  2  8  1  0  0  0  0
  3  5  1  0  0  0  0
  3 10  1  1  0  0  0
  3  2  1  0  0  0  0
  4  3  1  0  0  0  0
  5  6  2  0  0  0  0
  7  1  1  0  0  0  0
  9  2  1  0  0  0  0
 11  4  1  0  0  0  0
 12  4  1  0  0  0  0
 13 14  1  0  0  0  0
 13  5  1  0  0  0  0
 14 23  1  1  0  0  0
 15 24  1  0  0  0  0
 15 14  1  0  0  0  0
 15 16  1  0  0  0  0
 16 26  1  0  0  0  0
 17 16  1  0  0  0  0
 17 18  2  0  0  0  0
 19 14  1  0  0  0  0
 20 19  2  0  0  0  0
 21 17  1  0  0  0  0
 22 13  1  0  0  0  0
 25 15  1  0  0  0  0
 27 16  1  0  0  0  0
 28 21  1  0  0  0  0
 29 19  1  0  0  0  0
 29 39  1  0  0  0  0
 30 40  1  1  0  0  0
 30 29  1  0  0  0  0
 31 32  1  0  0  0  0
 31 30  1  0  0  0  0
 32 44  1  0  0  0  0
 32 33  1  0  0  0  0
 33 34  1  0  0  0  0
 33 45  1  0  0  0  0
 34 48  1  0  0  0  0
 34 35  1  0  0  0  0
 35 50  1  0  0  0  0
 35 49  1  0  0  0  0
 36 30  1  0  0  0  0
 36 38  1  0  0  0  0
 37 36  2  0  0  0  0
 41 31  1  0  0  0  0
 42 31  1  0  0  0  0
 43 32  1  0  0  0  0
 46 33  1  0  0  0  0
 47 34  1  0  0  0  0
M  END
$$$$
