SEL.pdb
 OpenBabel07022419073D

 48 47  0  0  1  0  0  0  0  0999 V2000
    2.7190   -5.5960    1.4220 O   0  0  0  0  0  0  0  0  0  0  0  0
    2.8000   -4.2760    1.0410 C   0  0  0  0  0  0  0  0  0  0  0  0
    1.4450   -3.6070    1.1570 C   0  0  2  0  0  0  0  0  0  0  0  0
    0.5170   -4.2950    0.3000 N   0  0  0  0  0  0  0  0  0  0  0  0
    1.5270   -2.1620    0.8830 C   0  0  0  0  0  0  0  0  0  0  0  0
    2.3030   -1.4600    1.5810 O   0  0  0  0  0  0  0  0  0  0  0  0
    1.9630   -6.0880    1.0270 H   0  0  0  0  0  0  0  0  0  0  0  0
    3.1730   -4.2610   -0.0090 H   0  0  0  0  0  0  0  0  0  0  0  0
    3.4820   -3.7470    1.7370 H   0  0  0  0  0  0  0  0  0  0  0  0
    1.1070   -3.7430    2.2050 H   0  0  0  0  0  0  0  0  0  0  0  0
    0.6860   -4.1860   -0.7020 H   0  0  0  0  0  0  0  0  0  0  0  0
   -0.4710   -4.1430    0.5990 H   0  0  0  0  0  0  0  0  0  0  0  0
    0.7820   -1.5070   -0.1240 N   0  0  0  0  0  0  0  0  0  0  0  0
    0.9050   -0.0610   -0.3510 C   0  0  1  0  0  0  0  0  0  0  0  0
    1.3640    0.1630   -1.7530 C   0  0  0  0  0  0  0  0  0  0  0  0
    2.6920   -0.4580   -2.0830 C   0  0  0  0  0  0  0  0  0  0  0  0
    3.8210    0.0490   -1.2770 C   0  0  0  0  0  0  0  0  0  0  0  0
    3.6800    0.9460   -0.4180 O   0  0  0  0  0  0  0  0  0  0  0  0
   -0.3890    0.5710   -0.0520 C   0  0  0  0  0  0  0  0  0  0  0  0
   -0.6010    1.8110   -0.1540 O   0  0  0  0  0  0  0  0  0  0  0  0
    5.1200   -0.4440   -1.4250 O   0  0  0  0  0  0  0  0  0  0  0  0
    0.1360   -2.0760   -0.7110 H   0  0  0  0  0  0  0  0  0  0  0  0
    1.6320    0.3260    0.3800 H   0  0  0  0  0  0  0  0  0  0  0  0
    1.3200    1.2390   -2.0550 H   0  0  0  0  0  0  0  0  0  0  0  0
    0.6230   -0.3330   -2.4490 H   0  0  0  0  0  0  0  0  0  0  0  0
    2.9170   -0.3200   -3.1770 H   0  0  0  0  0  0  0  0  0  0  0  0
    2.6080   -1.5690   -1.9510 H   0  0  0  0  0  0  0  0  0  0  0  0
    5.7530   -0.4570   -0.6100 H   0  0  0  0  0  0  0  0  0  0  0  0
   -2.5410    2.0670    4.0850 C   0  0  0  0  0  0  0  0  0  0  0  0
   -2.3900    0.8890    3.1300 C   0  0  0  0  0  0  0  0  0  0  0  0
   -0.9390    0.5000    3.1500 C   0  0  0  0  0  0  0  0  0  0  0  0
   -2.8380    1.3540    1.7750 C   0  0  0  0  0  0  0  0  0  0  0  0
   -2.7810    0.3390    0.6900 C   0  0  2  0  0  0  0  0  0  0  0  0
   -1.5000   -0.2120    0.3830 N   0  0  0  0  0  0  0  0  0  0  0  0
   -3.4920    0.8090   -0.5500 C   0  0  0  0  0  0  0  0  0  0  0  0
   -2.9780    0.7050   -1.6940 O   0  0  0  0  0  0  0  0  0  0  0  0
   -4.7540    1.3810   -0.4790 O   0  0  0  0  0  0  0  0  0  0  0  0
   -3.3770    2.7380    3.7660 H   0  0  0  0  0  0  0  0  0  0  0  0
   -1.6040    2.6340    4.0830 H   0  0  0  0  0  0  0  0  0  0  0  0
   -2.8180    1.6870    5.0920 H   0  0  0  0  0  0  0  0  0  0  0  0
   -2.9740    0.0090    3.4910 H   0  0  0  0  0  0  0  0  0  0  0  0
   -0.7600   -0.4480    2.6250 H   0  0  0  0  0  0  0  0  0  0  0  0
   -0.3090    1.2950    2.7210 H   0  0  0  0  0  0  0  0  0  0  0  0
   -0.6520    0.2930    4.2200 H   0  0  0  0  0  0  0  0  0  0  0  0
   -3.9260    1.6310    1.8990 H   0  0  0  0  0  0  0  0  0  0  0  0
   -2.2360    2.2690    1.5530 H   0  0  0  0  0  0  0  0  0  0  0  0
   -3.4260   -0.5220    1.0540 H   0  0  0  0  0  0  0  0  0  0  0  0
   -1.3160   -1.2590    0.4640 H   0  0  0  0  0  0  0  0  0  0  0  0
  2  3  1  0  0  0  0
  2  1  1  0  0  0  0
  2  9  1  0  0  0  0
  3 10  1  1  0  0  0
  4 12  1  0  0  0  0
  4  3  1  0  0  0  0
  5  3  1  0  0  0  0
  5  6  2  0  0  0  0
  7  1  1  0  0  0  0
  8  2  1  0  0  0  0
 11  4  1  0  0  0  0
 13  5  1  0  0  0  0
 14 13  1  0  0  0  0
 14 19  1  0  0  0  0
 14 23  1  1  0  0  0
 15 14  1  0  0  0  0
 16 27  1  0  0  0  0
 16 15  1  0  0  0  0
 16 17  1  0  0  0  0
 17 18  2  0  0  0  0
 19 34  1  0  0  0  0
 20 19  2  0  0  0  0
 21 17  1  0  0  0  0
 21 28  1  0  0  0  0
 22 13  1  0  0  0  0
 24 15  1  0  0  0  0
 25 15  1  0  0  0  0
 26 16  1  0  0  0  0
 29 40  1  0  0  0  0
 30 31  1  0  0  0  0
 30 41  1  0  0  0  0
 30 29  1  0  0  0  0
 31 44  1  0  0  0  0
 32 45  1  0  0  0  0
 32 30  1  0  0  0  0
 33 47  1  1  0  0  0
 33 32  1  0  0  0  0
 34 48  1  0  0  0  0
 34 33  1  0  0  0  0
 35 37  1  0  0  0  0
 35 33  1  0  0  0  0
 36 35  2  0  0  0  0
 38 29  1  0  0  0  0
 39 29  1  0  0  0  0
 42 31  1  0  0  0  0
 43 31  1  0  0  0  0
 46 32  1  0  0  0  0
M  END
$$$$
