SEM.pdb
 OpenBabel07022419073D

 46 45  0  0  1  0  0  0  0  0999 V2000
    4.4240   -3.1770    1.8480 O   0  0  0  0  0  0  0  0  0  0  0  0
    4.0580   -2.0800    1.0410 C   0  0  0  0  0  0  0  0  0  0  0  0
    2.6440   -1.7510    1.3860 C   0  0  2  0  0  0  0  0  0  0  0  0
    1.8050   -2.8920    1.1150 N   0  0  0  0  0  0  0  0  0  0  0  0
    2.1340   -0.5110    0.7480 C   0  0  0  0  0  0  0  0  0  0  0  0
    2.7810    0.5570    0.8950 O   0  0  0  0  0  0  0  0  0  0  0  0
    3.7840   -3.3160    2.5930 H   0  0  0  0  0  0  0  0  0  0  0  0
    4.1890   -2.4270   -0.0090 H   0  0  0  0  0  0  0  0  0  0  0  0
    4.7660   -1.2630    1.3120 H   0  0  0  0  0  0  0  0  0  0  0  0
    2.6100   -1.5850    2.4930 H   0  0  0  0  0  0  0  0  0  0  0  0
    1.1180   -3.0390    1.8850 H   0  0  0  0  0  0  0  0  0  0  0  0
    2.3040   -3.7360    0.8130 H   0  0  0  0  0  0  0  0  0  0  0  0
    0.9530   -0.4570   -0.0240 N   0  0  0  0  0  0  0  0  0  0  0  0
    0.4320    0.7490   -0.6610 C   0  0  1  0  0  0  0  0  0  0  0  0
    0.1930    0.5620   -2.1210 C   0  0  0  0  0  0  0  0  0  0  0  0
    1.4270    0.1960   -2.9010 C   0  0  0  0  0  0  0  0  0  0  0  0
    2.5010    1.1840   -2.8630 C   0  0  0  0  0  0  0  0  0  0  0  0
    3.6160    0.9690   -3.4520 O   0  0  0  0  0  0  0  0  0  0  0  0
   -0.8740    1.0290    0.0040 C   0  0  0  0  0  0  0  0  0  0  0  0
   -1.5220    2.0260   -0.3930 O   0  0  0  0  0  0  0  0  0  0  0  0
    2.4300    2.4080   -2.2120 O   0  0  0  0  0  0  0  0  0  0  0  0
    0.4150   -1.3430   -0.1480 H   0  0  0  0  0  0  0  0  0  0  0  0
    1.0990    1.6130   -0.5080 H   0  0  0  0  0  0  0  0  0  0  0  0
   -0.1550    1.5450   -2.5230 H   0  0  0  0  0  0  0  0  0  0  0  0
   -0.5600   -0.2330   -2.2910 H   0  0  0  0  0  0  0  0  0  0  0  0
    1.8320   -0.7630   -2.4940 H   0  0  0  0  0  0  0  0  0  0  0  0
    1.1160    0.0530   -3.9720 H   0  0  0  0  0  0  0  0  0  0  0  0
    3.2080    3.0230   -2.0490 H   0  0  0  0  0  0  0  0  0  0  0  0
   -1.6010   -1.6220    4.3150 C   0  0  0  0  0  0  0  0  0  0  0  0
   -3.1760   -2.1970    3.6980 S   0  0  0  0  0  0  0  0  0  0  0  0
   -3.4570   -1.9590    1.9680 C   0  0  0  0  0  0  0  0  0  0  0  0
   -3.7040   -0.5640    1.5340 C   0  0  0  0  0  0  0  0  0  0  0  0
   -2.6590    0.4710    1.7080 C   0  0  2  0  0  0  0  0  0  0  0  0
   -1.4040    0.2250    1.0490 N   0  0  0  0  0  0  0  0  0  0  0  0
   -2.5450    1.0480    3.0630 C   0  0  0  0  0  0  0  0  0  0  0  0
   -3.5400    1.2250    3.8070 O   0  0  0  0  0  0  0  0  0  0  0  0
   -1.3080    1.4430    3.6100 O   0  0  0  0  0  0  0  0  0  0  0  0
   -0.9240   -1.2720    3.5420 H   0  0  0  0  0  0  0  0  0  0  0  0
   -1.1210   -2.4980    4.8400 H   0  0  0  0  0  0  0  0  0  0  0  0
   -1.7880   -0.8230    5.0880 H   0  0  0  0  0  0  0  0  0  0  0  0
   -4.3880   -2.5450    1.6860 H   0  0  0  0  0  0  0  0  0  0  0  0
   -2.6240   -2.4130    1.3310 H   0  0  0  0  0  0  0  0  0  0  0  0
   -4.1420   -0.5420    0.4880 H   0  0  0  0  0  0  0  0  0  0  0  0
   -4.6150   -0.2230    2.1500 H   0  0  0  0  0  0  0  0  0  0  0  0
   -3.0910    1.3840    1.1000 H   0  0  0  0  0  0  0  0  0  0  0  0
   -0.7900   -0.5940    1.3080 H   0  0  0  0  0  0  0  0  0  0  0  0
  1  7  1  0  0  0  0
  2  9  1  0  0  0  0
  2  3  1  0  0  0  0
  2  1  1  0  0  0  0
  3 10  1  1  0  0  0
  4  3  1  0  0  0  0
  4 11  1  0  0  0  0
  5  6  2  0  0  0  0
  5  3  1  0  0  0  0
  8  2  1  0  0  0  0
 12  4  1  0  0  0  0
 13  5  1  0  0  0  0
 14 23  1  1  0  0  0
 14 13  1  0  0  0  0
 14 19  1  0  0  0  0
 15 14  1  0  0  0  0
 16 17  1  0  0  0  0
 16 26  1  0  0  0  0
 16 15  1  0  0  0  0
 17 21  1  0  0  0  0
 18 17  2  0  0  0  0
 19 34  1  0  0  0  0
 20 19  2  0  0  0  0
 21 28  1  0  0  0  0
 22 13  1  0  0  0  0
 24 15  1  0  0  0  0
 25 15  1  0  0  0  0
 27 16  1  0  0  0  0
 29 39  1  0  0  0  0
 29 40  1  0  0  0  0
 30 29  1  0  0  0  0
 31 30  1  0  0  0  0
 32 33  1  0  0  0  0
 32 31  1  0  0  0  0
 32 44  1  0  0  0  0
 33 45  1  6  0  0  0
 33 35  1  0  0  0  0
 34 46  1  0  0  0  0
 34 33  1  0  0  0  0
 35 37  2  0  0  0  0
 35 36  1  0  0  0  0
 38 29  1  0  0  0  0
 41 31  1  0  0  0  0
 42 31  1  0  0  0  0
 43 32  1  0  0  0  0
M  END
$$$$
