SEN.pdb
 OpenBabel07022419073D

 43 42  0  0  1  0  0  0  0  0999 V2000
    0.3020   -6.4600    0.7680 O   0  0  0  0  0  0  0  0  0  0  0  0
    1.0930   -5.3130    0.7740 C   0  0  0  0  0  0  0  0  0  0  0  0
    0.1600   -4.1200    0.8810 C   0  0  2  0  0  0  0  0  0  0  0  0
   -0.7170   -4.1310   -0.2410 N   0  0  0  0  0  0  0  0  0  0  0  0
    0.8980   -2.8480    1.0500 C   0  0  0  0  0  0  0  0  0  0  0  0
    1.7010   -2.7160    2.0100 O   0  0  0  0  0  0  0  0  0  0  0  0
   -0.6110   -6.2600    1.0650 H   0  0  0  0  0  0  0  0  0  0  0  0
    1.7410   -5.2460   -0.1210 H   0  0  0  0  0  0  0  0  0  0  0  0
    1.7460   -5.3770    1.6760 H   0  0  0  0  0  0  0  0  0  0  0  0
   -0.4480   -4.2730    1.7970 H   0  0  0  0  0  0  0  0  0  0  0  0
   -1.6960   -3.9100   -0.0630 H   0  0  0  0  0  0  0  0  0  0  0  0
   -0.3160   -3.8500   -1.1340 H   0  0  0  0  0  0  0  0  0  0  0  0
    0.7490   -1.7400    0.1720 N   0  0  0  0  0  0  0  0  0  0  0  0
    1.4830   -0.4860    0.3490 C   0  0  1  0  0  0  0  0  0  0  0  0
    2.1690   -0.0980   -0.9050 C   0  0  0  0  0  0  0  0  0  0  0  0
    2.9650    1.1450   -0.9090 C   0  0  0  0  0  0  0  0  0  0  0  0
    4.0650    1.2030    0.0440 C   0  0  0  0  0  0  0  0  0  0  0  0
    4.7730    2.2290    0.1260 O   0  0  0  0  0  0  0  0  0  0  0  0
    0.4650    0.5790    0.6990 C   0  0  0  0  0  0  0  0  0  0  0  0
    0.9470    1.7020    0.9120 O   0  0  0  0  0  0  0  0  0  0  0  0
    4.3630    0.1470    0.8750 O   0  0  0  0  0  0  0  0  0  0  0  0
    0.0830   -1.8650   -0.6200 H   0  0  0  0  0  0  0  0  0  0  0  0
    2.1600   -0.5160    1.1950 H   0  0  0  0  0  0  0  0  0  0  0  0
    2.8270   -0.9550   -1.2340 H   0  0  0  0  0  0  0  0  0  0  0  0
    1.3780   -0.0700   -1.7130 H   0  0  0  0  0  0  0  0  0  0  0  0
    2.2850    2.0340   -0.8990 H   0  0  0  0  0  0  0  0  0  0  0  0
    3.4590    1.2480   -1.9360 H   0  0  0  0  0  0  0  0  0  0  0  0
    4.8320    0.3430    1.7540 H   0  0  0  0  0  0  0  0  0  0  0  0
    0.0020    3.4970    3.3120 N   0  0  0  0  0  0  0  0  0  0  0  0
   -0.7140    2.3920    2.7550 C   0  0  0  0  0  0  0  0  0  0  0  0
   -0.6430    1.2780    3.3820 O   0  0  0  0  0  0  0  0  0  0  0  0
   -1.5030    2.5370    1.5060 C   0  0  0  0  0  0  0  0  0  0  0  0
   -1.9890    1.1540    1.1040 C   0  0  2  0  0  0  0  0  0  0  0  0
   -0.9100    0.2950    0.7720 N   0  0  0  0  0  0  0  0  0  0  0  0
   -3.1480    1.1350    0.2320 C   0  0  0  0  0  0  0  0  0  0  0  0
   -3.1850    0.3680   -0.7920 O   0  0  0  0  0  0  0  0  0  0  0  0
   -4.2820    1.9120    0.4170 O   0  0  0  0  0  0  0  0  0  0  0  0
    0.5800    4.1100    2.7160 H   0  0  0  0  0  0  0  0  0  0  0  0
   -0.0470    3.7010    4.3210 H   0  0  0  0  0  0  0  0  0  0  0  0
   -2.3660    3.2040    1.7540 H   0  0  0  0  0  0  0  0  0  0  0  0
   -0.9490    3.0470    0.7070 H   0  0  0  0  0  0  0  0  0  0  0  0
   -2.3290    0.7780    2.1640 H   0  0  0  0  0  0  0  0  0  0  0  0
   -1.1370   -0.7410    0.5340 H   0  0  0  0  0  0  0  0  0  0  0  0
  1  2  1  0  0  0  0
  1  7  1  0  0  0  0
  2  3  1  0  0  0  0
  2  9  1  0  0  0  0
  3  5  1  0  0  0  0
  3 10  1  1  0  0  0
  4 11  1  0  0  0  0
  4  3  1  0  0  0  0
  5  6  2  0  0  0  0
  8  2  1  0  0  0  0
 12  4  1  0  0  0  0
 13 14  1  0  0  0  0
 13  5  1  0  0  0  0
 14 19  1  0  0  0  0
 14 23  1  1  0  0  0
 15 14  1  0  0  0  0
 16 15  1  0  0  0  0
 16 26  1  0  0  0  0
 16 17  1  0  0  0  0
 17 18  2  0  0  0  0
 17 21  1  0  0  0  0
 19 34  1  0  0  0  0
 19 20  2  0  0  0  0
 21 28  1  0  0  0  0
 22 13  1  0  0  0  0
 24 15  1  0  0  0  0
 25 15  1  0  0  0  0
 27 16  1  0  0  0  0
 29 39  1  0  0  0  0
 30 29  1  0  0  0  0
 30 31  2  0  0  0  0
 32 40  1  0  0  0  0
 32 30  1  0  0  0  0
 33 32  1  0  0  0  0
 33 42  1  1  0  0  0
 34 33  1  0  0  0  0
 35 37  1  0  0  0  0
 35 33  1  0  0  0  0
 36 35  2  0  0  0  0
 38 29  1  0  0  0  0
 41 32  1  0  0  0  0
 43 34  1  0  0  0  0
M  END
$$$$
