SEP.pdb
 OpenBabel07022419073D

 43 43  0  0  1  0  0  0  0  0999 V2000
    0.2930   -4.8830    0.1970 O   0  0  0  0  0  0  0  0  0  0  0  0
    0.2950   -3.5380    0.6370 C   0  0  0  0  0  0  0  0  0  0  0  0
    1.6660   -3.0010    0.3480 C   0  0  2  0  0  0  0  0  0  0  0  0
    2.6990   -3.7540    1.0450 N   0  0  0  0  0  0  0  0  0  0  0  0
    1.8580   -1.5790    0.6090 C   0  0  0  0  0  0  0  0  0  0  0  0
    2.8530   -1.2300    1.3340 O   0  0  0  0  0  0  0  0  0  0  0  0
    0.4420   -5.5000    0.9740 H   0  0  0  0  0  0  0  0  0  0  0  0
    0.0160   -3.5530    1.6910 H   0  0  0  0  0  0  0  0  0  0  0  0
   -0.4610   -3.0300   -0.0130 H   0  0  0  0  0  0  0  0  0  0  0  0
    1.8490   -3.2260   -0.7510 H   0  0  0  0  0  0  0  0  0  0  0  0
    3.3920   -4.1910    0.4250 H   0  0  0  0  0  0  0  0  0  0  0  0
    2.3260   -4.3500    1.8030 H   0  0  0  0  0  0  0  0  0  0  0  0
    0.9810   -0.5860    0.0830 N   0  0  0  0  0  0  0  0  0  0  0  0
    1.1760    0.8010    0.3240 C   0  0  1  0  0  0  0  0  0  0  0  0
    1.4140    1.5600   -0.9720 C   0  0  0  0  0  0  0  0  0  0  0  0
    2.6160    1.0920   -1.7370 C   0  0  0  0  0  0  0  0  0  0  0  0
    3.8900    1.2610   -1.0110 C   0  0  0  0  0  0  0  0  0  0  0  0
    3.9870    1.8060    0.1090 O   0  0  0  0  0  0  0  0  0  0  0  0
    0.1080    1.5090    1.0460 C   0  0  0  0  0  0  0  0  0  0  0  0
    0.3160    2.7730    1.1720 O   0  0  0  0  0  0  0  0  0  0  0  0
    5.1030    0.8050   -1.5570 O   0  0  0  0  0  0  0  0  0  0  0  0
    0.1890   -0.9140   -0.4960 H   0  0  0  0  0  0  0  0  0  0  0  0
    2.1020    0.9430    0.9610 H   0  0  0  0  0  0  0  0  0  0  0  0
    0.4970    1.5530   -1.5850 H   0  0  0  0  0  0  0  0  0  0  0  0
    1.6040    2.6530   -0.7490 H   0  0  0  0  0  0  0  0  0  0  0  0
    2.7370    1.6980   -2.6840 H   0  0  0  0  0  0  0  0  0  0  0  0
    2.5430    0.0170   -2.0150 H   0  0  0  0  0  0  0  0  0  0  0  0
    5.8050    0.5110   -0.9080 H   0  0  0  0  0  0  0  0  0  0  0  0
   -1.0660    0.9930    1.5940 N   0  0  0  0  0  0  0  0  0  0  0  0
   -2.0810    1.8220    2.2750 C   0  0  0  0  0  0  0  0  0  0  0  0
   -2.2280    1.0490    3.5660 C   0  0  0  0  0  0  0  0  0  0  0  0
   -2.2980   -0.3640    3.0390 C   0  0  0  0  0  0  0  0  0  0  0  0
   -1.6010   -0.3410    1.6760 C   0  0  1  0  0  0  0  0  0  0  0  0
   -2.5660   -0.6290    0.5880 C   0  0  0  0  0  0  0  0  0  0  0  0
   -3.1010   -1.7660    0.5430 O   0  0  0  0  0  0  0  0  0  0  0  0
   -2.9010    0.2900   -0.3740 O   0  0  0  0  0  0  0  0  0  0  0  0
   -3.0000    1.7110    1.6560 H   0  0  0  0  0  0  0  0  0  0  0  0
   -1.7540    2.8510    2.4010 H   0  0  0  0  0  0  0  0  0  0  0  0
   -1.3460    1.2320    4.2050 H   0  0  0  0  0  0  0  0  0  0  0  0
   -3.1690    1.3290    4.1110 H   0  0  0  0  0  0  0  0  0  0  0  0
   -1.8270   -1.0880    3.7060 H   0  0  0  0  0  0  0  0  0  0  0  0
   -3.3820   -0.5810    2.8610 H   0  0  0  0  0  0  0  0  0  0  0  0
   -0.8100   -1.1160    1.6380 H   0  0  0  0  0  0  0  0  0  0  0  0
  1  2  1  0  0  0  0
  1  7  1  0  0  0  0
  2  8  1  0  0  0  0
  3 10  1  6  0  0  0
  3  5  1  0  0  0  0
  3  2  1  0  0  0  0
  3  4  1  0  0  0  0
  4 12  1  0  0  0  0
  5  6  2  0  0  0  0
  9  2  1  0  0  0  0
 11  4  1  0  0  0  0
 13 14  1  0  0  0  0
 13  5  1  0  0  0  0
 14 23  1  1  0  0  0
 14 19  1  0  0  0  0
 15 25  1  0  0  0  0
 15 14  1  0  0  0  0
 16 17  1  0  0  0  0
 16 15  1  0  0  0  0
 17 18  2  0  0  0  0
 19 20  2  0  0  0  0
 19 29  1  0  0  0  0
 21 17  1  0  0  0  0
 21 28  1  0  0  0  0
 22 13  1  0  0  0  0
 24 15  1  0  0  0  0
 26 16  1  0  0  0  0
 27 16  1  0  0  0  0
 29 33  1  0  0  0  0
 29 30  1  0  0  0  0
 30 38  1  0  0  0  0
 30 31  1  0  0  0  0
 31 40  1  0  0  0  0
 31 39  1  0  0  0  0
 32 31  1  0  0  0  0
 32 41  1  0  0  0  0
 33 43  1  6  0  0  0
 33 32  1  0  0  0  0
 34 33  1  0  0  0  0
 35 34  1  0  0  0  0
 36 34  2  0  0  0  0
 37 30  1  0  0  0  0
 42 32  1  0  0  0  0
M  END
$$$$
