SEQ.pdb
 OpenBabel07022419073D

 46 45  0  0  1  0  0  0  0  0999 V2000
    0.6400   -4.5920    1.6830 O   0  0  0  0  0  0  0  0  0  0  0  0
    0.2400   -3.2590    1.7320 C   0  0  0  0  0  0  0  0  0  0  0  0
    0.8660   -2.5890    2.9230 C   0  0  2  0  0  0  0  0  0  0  0  0
    0.4400   -3.2680    4.1250 N   0  0  0  0  0  0  0  0  0  0  0  0
    0.5920   -1.1520    3.0040 C   0  0  0  0  0  0  0  0  0  0  0  0
    0.0480   -0.6890    4.0470 O   0  0  0  0  0  0  0  0  0  0  0  0
    0.8440   -4.8910    0.7480 H   0  0  0  0  0  0  0  0  0  0  0  0
   -0.8560   -3.2330    1.7340 H   0  0  0  0  0  0  0  0  0  0  0  0
    0.5840   -2.7610    0.7980 H   0  0  0  0  0  0  0  0  0  0  0  0
    1.9660   -2.7200    2.8360 H   0  0  0  0  0  0  0  0  0  0  0  0
    0.3140   -2.5930    4.8900 H   0  0  0  0  0  0  0  0  0  0  0  0
   -0.4260   -3.8250    3.9150 H   0  0  0  0  0  0  0  0  0  0  0  0
    0.8960   -0.2280    1.9830 N   0  0  0  0  0  0  0  0  0  0  0  0
    0.6230    1.1960    2.0640 C   0  0  1  0  0  0  0  0  0  0  0  0
    1.8790    1.9980    1.8790 C   0  0  0  0  0  0  0  0  0  0  0  0
    2.9150    1.6850    2.9150 C   0  0  0  0  0  0  0  0  0  0  0  0
    2.4910    1.9910    4.2920 C   0  0  0  0  0  0  0  0  0  0  0  0
    1.3990    2.5210    4.5820 O   0  0  0  0  0  0  0  0  0  0  0  0
   -0.3870    1.5170    1.0220 C   0  0  0  0  0  0  0  0  0  0  0  0
   -0.7700    2.7190    0.9170 O   0  0  0  0  0  0  0  0  0  0  0  0
    3.3270    1.6900    5.3830 O   0  0  0  0  0  0  0  0  0  0  0  0
    1.3410   -0.5820    1.1230 H   0  0  0  0  0  0  0  0  0  0  0  0
    0.1570    1.4760    3.0210 H   0  0  0  0  0  0  0  0  0  0  0  0
    1.6560    3.0880    1.9510 H   0  0  0  0  0  0  0  0  0  0  0  0
    2.3460    1.8200    0.8760 H   0  0  0  0  0  0  0  0  0  0  0  0
    3.1910    0.5860    2.8650 H   0  0  0  0  0  0  0  0  0  0  0  0
    3.8720    2.2240    2.7170 H   0  0  0  0  0  0  0  0  0  0  0  0
    2.8720    1.4580    6.2540 H   0  0  0  0  0  0  0  0  0  0  0  0
   -0.0320   -2.6470   -4.0630 N   0  0  0  0  0  0  0  0  0  0  0  0
   -0.4640   -1.3440   -3.6670 C   0  0  0  0  0  0  0  0  0  0  0  0
   -0.3990   -0.4360   -4.5350 O   0  0  0  0  0  0  0  0  0  0  0  0
   -0.9650   -1.0730   -2.2950 C   0  0  0  0  0  0  0  0  0  0  0  0
   -1.3370    0.3900   -2.2080 C   0  0  0  0  0  0  0  0  0  0  0  0
   -1.8610    0.7460   -0.8280 C   0  0  2  0  0  0  0  0  0  0  0  0
   -0.8800    0.4910    0.1980 N   0  0  0  0  0  0  0  0  0  0  0  0
   -3.0870   -0.0480   -0.5890 C   0  0  0  0  0  0  0  0  0  0  0  0
   -3.1280   -0.7990    0.4100 O   0  0  0  0  0  0  0  0  0  0  0  0
   -4.1870    0.0060   -1.4210 O   0  0  0  0  0  0  0  0  0  0  0  0
    0.6260   -3.2160   -3.4840 H   0  0  0  0  0  0  0  0  0  0  0  0
   -0.3570   -3.0930   -4.9570 H   0  0  0  0  0  0  0  0  0  0  0  0
   -0.2420   -1.3360   -1.5070 H   0  0  0  0  0  0  0  0  0  0  0  0
   -1.8510   -1.7250   -2.1520 H   0  0  0  0  0  0  0  0  0  0  0  0
   -2.1480    0.5990   -2.9350 H   0  0  0  0  0  0  0  0  0  0  0  0
   -0.4790    1.0350   -2.4680 H   0  0  0  0  0  0  0  0  0  0  0  0
   -2.0980    1.8390   -0.8020 H   0  0  0  0  0  0  0  0  0  0  0  0
   -0.5310   -0.4760    0.3300 H   0  0  0  0  0  0  0  0  0  0  0  0
  1  2  1  0  0  0  0
  2  8  1  0  0  0  0
  2  3  1  0  0  0  0
  3 10  1  6  0  0  0
  3  5  1  0  0  0  0
  3  4  1  0  0  0  0
  4 11  1  0  0  0  0
  5  6  2  0  0  0  0
  7  1  1  0  0  0  0
  9  2  1  0  0  0  0
 12  4  1  0  0  0  0
 13 14  1  0  0  0  0
 13  5  1  0  0  0  0
 14 23  1  1  0  0  0
 15 24  1  0  0  0  0
 15 14  1  0  0  0  0
 15 16  1  0  0  0  0
 16 17  1  0  0  0  0
 17 18  2  0  0  0  0
 17 21  1  0  0  0  0
 19 14  1  0  0  0  0
 20 19  2  0  0  0  0
 21 28  1  0  0  0  0
 22 13  1  0  0  0  0
 25 15  1  0  0  0  0
 26 16  1  0  0  0  0
 27 16  1  0  0  0  0
 29 30  1  0  0  0  0
 29 39  1  0  0  0  0
 30 32  1  0  0  0  0
 31 30  2  0  0  0  0
 32 33  1  0  0  0  0
 32 42  1  0  0  0  0
 32 41  1  0  0  0  0
 33 34  1  0  0  0  0
 34 45  1  1  0  0  0
 34 36  1  0  0  0  0
 34 35  1  0  0  0  0
 35 46  1  0  0  0  0
 35 19  1  0  0  0  0
 36 37  1  0  0  0  0
 38 36  2  0  0  0  0
 40 29  1  0  0  0  0
 43 33  1  0  0  0  0
 44 33  1  0  0  0  0
M  END
$$$$
