SES.pdb
 OpenBabel07022419073D

 40 39  0  0  1  0  0  0  0  0999 V2000
   -1.8910   -3.1800    2.4920 O   0  0  0  0  0  0  0  0  0  0  0  0
   -2.6640   -2.6190    1.4670 C   0  0  0  0  0  0  0  0  0  0  0  0
   -2.1490   -3.0980    0.1270 C   0  0  2  0  0  0  0  0  0  0  0  0
   -2.2570   -4.5350    0.1150 N   0  0  0  0  0  0  0  0  0  0  0  0
   -0.7510   -2.6730   -0.1150 C   0  0  0  0  0  0  0  0  0  0  0  0
    0.1160   -3.5650   -0.2880 O   0  0  0  0  0  0  0  0  0  0  0  0
   -0.9690   -2.8050    2.3920 H   0  0  0  0  0  0  0  0  0  0  0  0
   -2.6550   -1.5320    1.5650 H   0  0  0  0  0  0  0  0  0  0  0  0
   -3.7110   -2.9700    1.5620 H   0  0  0  0  0  0  0  0  0  0  0  0
   -2.7880   -2.6850   -0.6860 H   0  0  0  0  0  0  0  0  0  0  0  0
   -1.4560   -4.9920    0.6070 H   0  0  0  0  0  0  0  0  0  0  0  0
   -3.1560   -4.8730    0.4910 H   0  0  0  0  0  0  0  0  0  0  0  0
   -0.3560   -1.3130   -0.1600 N   0  0  0  0  0  0  0  0  0  0  0  0
    1.0590   -0.9360   -0.4080 C   0  0  1  0  0  0  0  0  0  0  0  0
    1.0240   -0.2630   -1.7380 C   0  0  0  0  0  0  0  0  0  0  0  0
    2.2710    0.3010   -2.2830 C   0  0  0  0  0  0  0  0  0  0  0  0
    2.7210    1.4840   -1.5230 C   0  0  0  0  0  0  0  0  0  0  0  0
    1.8810    2.1240   -0.8010 O   0  0  0  0  0  0  0  0  0  0  0  0
    1.5790   -0.2090    0.7380 C   0  0  0  0  0  0  0  0  0  0  0  0
    2.8060    0.0490    0.9200 O   0  0  0  0  0  0  0  0  0  0  0  0
    4.0100    1.9410   -1.5490 O   0  0  0  0  0  0  0  0  0  0  0  0
   -1.0890   -0.5850   -0.0180 H   0  0  0  0  0  0  0  0  0  0  0  0
    1.6060   -1.9260   -0.5450 H   0  0  0  0  0  0  0  0  0  0  0  0
    0.5400   -0.9920   -2.4480 H   0  0  0  0  0  0  0  0  0  0  0  0
    0.2360    0.5510   -1.6600 H   0  0  0  0  0  0  0  0  0  0  0  0
    2.0380    0.6870   -3.3220 H   0  0  0  0  0  0  0  0  0  0  0  0
    3.0890   -0.4420   -2.4130 H   0  0  0  0  0  0  0  0  0  0  0  0
    4.2080    2.9360   -1.4280 H   0  0  0  0  0  0  0  0  0  0  0  0
    0.9520    3.1970    1.9580 O   0  0  0  0  0  0  0  0  0  0  0  0
    0.6380    2.3850    3.0500 C   0  0  0  0  0  0  0  0  0  0  0  0
    1.1960    1.0010    2.9120 C   0  0  2  0  0  0  0  0  0  0  0  0
    0.7330    0.2820    1.7710 N   0  0  0  0  0  0  0  0  0  0  0  0
    0.8930    0.2370    4.1310 C   0  0  0  0  0  0  0  0  0  0  0  0
    1.2070    0.6830    5.2530 O   0  0  0  0  0  0  0  0  0  0  0  0
    0.2580   -0.9790    4.0380 O   0  0  0  0  0  0  0  0  0  0  0  0
    1.9110    3.1180    1.7770 H   0  0  0  0  0  0  0  0  0  0  0  0
    1.1720    2.8540    3.9270 H   0  0  0  0  0  0  0  0  0  0  0  0
   -0.4320    2.4190    3.3060 H   0  0  0  0  0  0  0  0  0  0  0  0
    2.3050    1.1050    2.8520 H   0  0  0  0  0  0  0  0  0  0  0  0
   -0.2900    0.1110    1.6980 H   0  0  0  0  0  0  0  0  0  0  0  0
  2  9  1  0  0  0  0
  2  8  1  0  0  0  0
  2  1  1  0  0  0  0
  3 10  1  6  0  0  0
  3  2  1  0  0  0  0
  4  3  1  0  0  0  0
  4 12  1  0  0  0  0
  4 11  1  0  0  0  0
  5  3  1  0  0  0  0
  6  5  2  0  0  0  0
  7  1  1  0  0  0  0
 13  5  1  0  0  0  0
 13 22  1  0  0  0  0
 14 23  1  6  0  0  0
 14 13  1  0  0  0  0
 14 19  1  0  0  0  0
 15 25  1  0  0  0  0
 15 14  1  0  0  0  0
 16 15  1  0  0  0  0
 16 17  1  0  0  0  0
 17 18  2  0  0  0  0
 19 20  2  0  0  0  0
 19 32  1  0  0  0  0
 21 17  1  0  0  0  0
 21 28  1  0  0  0  0
 24 15  1  0  0  0  0
 26 16  1  0  0  0  0
 27 16  1  0  0  0  0
 29 30  1  0  0  0  0
 30 38  1  0  0  0  0
 30 37  1  0  0  0  0
 31 39  1  6  0  0  0
 31 30  1  0  0  0  0
 31 33  1  0  0  0  0
 32 31  1  0  0  0  0
 33 34  1  0  0  0  0
 35 33  2  0  0  0  0
 36 29  1  0  0  0  0
 40 32  1  0  0  0  0
M  END
$$$$
