SEV.pdb
 OpenBabel07022419073D

 45 44  0  0  1  0  0  0  0  0999 V2000
    0.9800   -5.3540    0.3550 O   0  0  0  0  0  0  0  0  0  0  0  0
    0.8380   -3.9640    0.4280 C   0  0  0  0  0  0  0  0  0  0  0  0
    1.9280   -3.2670   -0.3490 C   0  0  2  0  0  0  0  0  0  0  0  0
    3.2030   -3.6700    0.2080 N   0  0  0  0  0  0  0  0  0  0  0  0
    1.8290   -1.7980   -0.2710 C   0  0  0  0  0  0  0  0  0  0  0  0
    2.8150   -1.1460    0.1500 O   0  0  0  0  0  0  0  0  0  0  0  0
    0.3550   -5.8490    0.9150 H   0  0  0  0  0  0  0  0  0  0  0  0
    0.8870   -3.6610    1.4680 H   0  0  0  0  0  0  0  0  0  0  0  0
   -0.1750   -3.7250    0.0320 H   0  0  0  0  0  0  0  0  0  0  0  0
    1.8730   -3.6240   -1.4040 H   0  0  0  0  0  0  0  0  0  0  0  0
    3.9090   -2.9120    0.2480 H   0  0  0  0  0  0  0  0  0  0  0  0
    3.1180   -4.0490    1.1970 H   0  0  0  0  0  0  0  0  0  0  0  0
    0.6780   -1.0590   -0.6450 N   0  0  0  0  0  0  0  0  0  0  0  0
    0.5680    0.3620   -0.5750 C   0  0  1  0  0  0  0  0  0  0  0  0
    0.2010    1.0180   -1.8860 C   0  0  0  0  0  0  0  0  0  0  0  0
    1.2630    0.7030   -2.9480 C   0  0  0  0  0  0  0  0  0  0  0  0
    2.5780    1.2340   -2.5350 C   0  0  0  0  0  0  0  0  0  0  0  0
    2.6770    2.4450   -2.1920 O   0  0  0  0  0  0  0  0  0  0  0  0
   -0.3540    0.8270    0.5240 C   0  0  0  0  0  0  0  0  0  0  0  0
   -0.5660    2.0270    0.6860 O   0  0  0  0  0  0  0  0  0  0  0  0
    3.7360    0.4650   -2.5010 O   0  0  0  0  0  0  0  0  0  0  0  0
   -0.1280   -1.6560   -0.9920 H   0  0  0  0  0  0  0  0  0  0  0  0
    1.5600    0.7680   -0.2700 H   0  0  0  0  0  0  0  0  0  0  0  0
   -0.7560    0.6490   -2.2750 H   0  0  0  0  0  0  0  0  0  0  0  0
    0.2020    2.1090   -1.7830 H   0  0  0  0  0  0  0  0  0  0  0  0
    0.9370    1.0700   -3.9390 H   0  0  0  0  0  0  0  0  0  0  0  0
    1.3550   -0.4190   -3.0620 H   0  0  0  0  0  0  0  0  0  0  0  0
    4.4370    0.6890   -1.8130 H   0  0  0  0  0  0  0  0  0  0  0  0
   -2.1690    1.0980    4.7560 C   0  0  0  0  0  0  0  0  0  0  0  0
   -1.1970    0.7160    3.6670 C   0  0  0  0  0  0  0  0  0  0  0  0
   -0.2590   -0.3880    4.1560 C   0  0  0  0  0  0  0  0  0  0  0  0
   -1.8860    0.2500    2.4390 C   0  0  2  0  0  0  0  0  0  0  0  0
   -0.9810   -0.1270    1.3720 N   0  0  0  0  0  0  0  0  0  0  0  0
   -2.9790    1.1120    1.9610 C   0  0  0  0  0  0  0  0  0  0  0  0
   -3.8160    1.5590    2.7600 O   0  0  0  0  0  0  0  0  0  0  0  0
   -3.0760    1.4190    0.6280 O   0  0  0  0  0  0  0  0  0  0  0  0
   -3.0000    0.4000    4.8390 H   0  0  0  0  0  0  0  0  0  0  0  0
   -2.4910    2.1540    4.6080 H   0  0  0  0  0  0  0  0  0  0  0  0
   -1.5740    1.0870    5.7040 H   0  0  0  0  0  0  0  0  0  0  0  0
   -0.5550    1.6070    3.5100 H   0  0  0  0  0  0  0  0  0  0  0  0
    0.5940    0.1020    4.7030 H   0  0  0  0  0  0  0  0  0  0  0  0
    0.1950   -0.8240    3.2260 H   0  0  0  0  0  0  0  0  0  0  0  0
   -0.7630   -1.1460    4.7630 H   0  0  0  0  0  0  0  0  0  0  0  0
   -2.4250   -0.7200    2.7120 H   0  0  0  0  0  0  0  0  0  0  0  0
   -0.7390   -1.1360    1.1790 H   0  0  0  0  0  0  0  0  0  0  0  0
  1  2  1  0  0  0  0
  1  7  1  0  0  0  0
  2  8  1  0  0  0  0
  3 10  1  6  0  0  0
  3  5  1  0  0  0  0
  3  4  1  0  0  0  0
  3  2  1  0  0  0  0
  4 11  1  0  0  0  0
  4 12  1  0  0  0  0
  5  6  2  0  0  0  0
  9  2  1  0  0  0  0
 13 14  1  0  0  0  0
 13  5  1  0  0  0  0
 14 23  1  1  0  0  0
 14 19  1  0  0  0  0
 15 25  1  0  0  0  0
 15 14  1  0  0  0  0
 16 17  1  0  0  0  0
 16 15  1  0  0  0  0
 17 21  1  0  0  0  0
 17 18  2  0  0  0  0
 19 20  2  0  0  0  0
 19 33  1  0  0  0  0
 21 28  1  0  0  0  0
 22 13  1  0  0  0  0
 24 15  1  0  0  0  0
 26 16  1  0  0  0  0
 27 16  1  0  0  0  0
 29 37  1  0  0  0  0
 29 39  1  0  0  0  0
 30 31  1  0  0  0  0
 30 29  1  0  0  0  0
 31 41  1  0  0  0  0
 31 43  1  0  0  0  0
 32 44  1  1  0  0  0
 32 30  1  0  0  0  0
 33 32  1  0  0  0  0
 34 32  1  0  0  0  0
 34 35  1  0  0  0  0
 36 34  2  0  0  0  0
 38 29  1  0  0  0  0
 40 30  1  0  0  0  0
 42 31  1  0  0  0  0
 45 33  1  0  0  0  0
M  END
$$$$
