SFA.pdb
 OpenBabel07022419093D

 43 43  0  0  1  0  0  0  0  0999 V2000
   -0.3020   -2.5480    4.9400 O   0  0  0  0  0  0  0  0  0  0  0  0
   -0.0380   -3.7770    4.3680 C   0  0  0  0  0  0  0  0  0  0  0  0
    0.7220   -3.5580    3.0560 C   0  0  2  0  0  0  0  0  0  0  0  0
    1.9600   -2.8760    3.2700 N   0  0  0  0  0  0  0  0  0  0  0  0
   -0.1880   -2.7860    2.1400 C   0  0  0  0  0  0  0  0  0  0  0  0
   -1.3150   -3.2730    1.8670 O   0  0  0  0  0  0  0  0  0  0  0  0
   -0.7560   -2.7390    5.8180 H   0  0  0  0  0  0  0  0  0  0  0  0
   -1.0150   -4.2430    4.1270 H   0  0  0  0  0  0  0  0  0  0  0  0
    0.4950   -4.4790    5.0230 H   0  0  0  0  0  0  0  0  0  0  0  0
    0.9350   -4.5680    2.6640 H   0  0  0  0  0  0  0  0  0  0  0  0
    2.7540   -3.3960    2.8350 H   0  0  0  0  0  0  0  0  0  0  0  0
    2.1100   -2.7430    4.2930 H   0  0  0  0  0  0  0  0  0  0  0  0
    0.1620   -1.5450    1.5770 N   0  0  0  0  0  0  0  0  0  0  0  0
   -0.7050   -0.7870    0.6930 C   0  0  1  0  0  0  0  0  0  0  0  0
   -1.0040    0.5460    1.3450 C   0  0  0  0  0  0  0  0  0  0  0  0
    0.2370    1.3170    1.6050 C   0  0  0  0  0  0  0  0  0  0  0  0
    0.7480    2.2020    0.6870 C   0  0  0  0  0  0  0  0  0  0  0  0
    1.9050    2.8980    0.9630 C   0  0  0  0  0  0  0  0  0  0  0  0
    2.5740    2.7270    2.1540 C   0  0  0  0  0  0  0  0  0  0  0  0
    2.0360    1.8340    3.0520 C   0  0  0  0  0  0  0  0  0  0  0  0
    0.8840    1.1270    2.8010 C   0  0  0  0  0  0  0  0  0  0  0  0
   -0.0570   -0.6820   -0.6230 C   0  0  0  0  0  0  0  0  0  0  0  0
    1.0940   -1.1540   -0.7790 O   0  0  0  0  0  0  0  0  0  0  0  0
    1.0960   -1.1440    1.8060 H   0  0  0  0  0  0  0  0  0  0  0  0
   -1.6710   -1.3450    0.5410 H   0  0  0  0  0  0  0  0  0  0  0  0
   -1.4820    0.3180    2.3180 H   0  0  0  0  0  0  0  0  0  0  0  0
   -1.7450    1.1290    0.7650 H   0  0  0  0  0  0  0  0  0  0  0  0
    0.2480    2.3750   -0.2800 H   0  0  0  0  0  0  0  0  0  0  0  0
    2.3350    3.6060    0.2560 H   0  0  0  0  0  0  0  0  0  0  0  0
    3.4970    3.2840    2.3700 H   0  0  0  0  0  0  0  0  0  0  0  0
    2.5770    1.7010    4.0050 H   0  0  0  0  0  0  0  0  0  0  0  0
    0.5250    0.4430    3.5590 H   0  0  0  0  0  0  0  0  0  0  0  0
   -0.6360   -0.9450   -4.0560 C   0  0  0  0  0  0  0  0  0  0  0  0
    0.0310   -0.0020   -3.0460 C   0  0  2  0  0  0  0  0  0  0  0  0
   -0.6480   -0.0730   -1.7760 N   0  0  0  0  0  0  0  0  0  0  0  0
    0.0140    1.3850   -3.5370 C   0  0  0  0  0  0  0  0  0  0  0  0
   -0.5640    2.2690   -2.8670 O   0  0  0  0  0  0  0  0  0  0  0  0
    0.6250    1.7420   -4.7300 O   0  0  0  0  0  0  0  0  0  0  0  0
   -0.8260   -1.8890   -3.4890 H   0  0  0  0  0  0  0  0  0  0  0  0
    0.0790   -1.1690   -4.8450 H   0  0  0  0  0  0  0  0  0  0  0  0
   -1.6000   -0.5520   -4.3970 H   0  0  0  0  0  0  0  0  0  0  0  0
    1.0760   -0.3480   -2.9940 H   0  0  0  0  0  0  0  0  0  0  0  0
   -1.6040    0.3210   -1.6480 H   0  0  0  0  0  0  0  0  0  0  0  0
  1  7  1  0  0  0  0
  2  1  1  0  0  0  0
  2  9  1  0  0  0  0
  3 10  1  6  0  0  0
  3  4  1  0  0  0  0
  3  2  1  0  0  0  0
  4 12  1  0  0  0  0
  5  3  1  0  0  0  0
  6  5  2  0  0  0  0
  8  2  1  0  0  0  0
 11  4  1  0  0  0  0
 13 24  1  0  0  0  0
 13  5  1  0  0  0  0
 14 25  1  6  0  0  0
 14 15  1  0  0  0  0
 14 13  1  0  0  0  0
 15 16  1  0  0  0  0
 15 26  1  0  0  0  0
 16 21  1  0  0  0  0
 17 18  1  0  0  0  0
 17 16  2  0  0  0  0
 18 19  2  0  0  0  0
 19 30  1  0  0  0  0
 19 20  1  0  0  0  0
 20 31  1  0  0  0  0
 21 20  2  0  0  0  0
 21 32  1  0  0  0  0
 22 14  1  0  0  0  0
 23 22  2  0  0  0  0
 27 15  1  0  0  0  0
 28 17  1  0  0  0  0
 29 18  1  0  0  0  0
 33 39  1  0  0  0  0
 33 34  1  0  0  0  0
 34 42  1  1  0  0  0
 34 35  1  0  0  0  0
 35 43  1  0  0  0  0
 35 22  1  0  0  0  0
 36 34  1  0  0  0  0
 36 37  1  0  0  0  0
 38 36  2  0  0  0  0
 40 33  1  0  0  0  0
 41 33  1  0  0  0  0
M  END
$$$$
