SFC.pdb
 OpenBabel07022419093D

 44 44  0  0  1  0  0  0  0  0999 V2000
    0.0860   -5.8390   -0.1080 O   0  0  0  0  0  0  0  0  0  0  0  0
   -0.0250   -4.5510    0.3870 C   0  0  0  0  0  0  0  0  0  0  0  0
    1.2270   -4.2550    1.1740 C   0  0  2  0  0  0  0  0  0  0  0  0
    1.4190   -5.1650    2.2820 N   0  0  0  0  0  0  0  0  0  0  0  0
    1.2730   -2.8320    1.6340 C   0  0  0  0  0  0  0  0  0  0  0  0
    1.4590   -2.5380    2.8440 O   0  0  0  0  0  0  0  0  0  0  0  0
    0.8170   -6.3530    0.3580 H   0  0  0  0  0  0  0  0  0  0  0  0
   -0.9480   -4.4630    0.9800 H   0  0  0  0  0  0  0  0  0  0  0  0
   -0.0230   -3.8680   -0.4870 H   0  0  0  0  0  0  0  0  0  0  0  0
    2.0870   -4.3950    0.4910 H   0  0  0  0  0  0  0  0  0  0  0  0
    1.5910   -4.5880    3.1350 H   0  0  0  0  0  0  0  0  0  0  0  0
    0.5150   -5.6590    2.4420 H   0  0  0  0  0  0  0  0  0  0  0  0
    1.1100   -1.7490    0.7270 N   0  0  0  0  0  0  0  0  0  0  0  0
    1.1510   -0.3580    1.1490 C   0  0  1  0  0  0  0  0  0  0  0  0
    2.2620    0.3970    0.5050 C   0  0  0  0  0  0  0  0  0  0  0  0
    2.3020    1.8150    0.9320 C   0  0  0  0  0  0  0  0  0  0  0  0
    2.9940    2.1940    2.0810 C   0  0  0  0  0  0  0  0  0  0  0  0
    3.0620    3.5060    2.4990 C   0  0  0  0  0  0  0  0  0  0  0  0
    2.4450    4.5180    1.7950 C   0  0  0  0  0  0  0  0  0  0  0  0
    1.7580    4.1560    0.6560 C   0  0  0  0  0  0  0  0  0  0  0  0
    1.6920    2.8420    0.2410 C   0  0  0  0  0  0  0  0  0  0  0  0
   -0.1620    0.2740    0.9170 C   0  0  0  0  0  0  0  0  0  0  0  0
   -0.4600    1.4490    1.2080 O   0  0  0  0  0  0  0  0  0  0  0  0
    0.9530   -1.9320   -0.2860 H   0  0  0  0  0  0  0  0  0  0  0  0
    1.3260   -0.3090    2.2630 H   0  0  0  0  0  0  0  0  0  0  0  0
    3.2340   -0.0530    0.8120 H   0  0  0  0  0  0  0  0  0  0  0  0
    2.2400    0.3040   -0.6050 H   0  0  0  0  0  0  0  0  0  0  0  0
    3.4830    1.3890    2.6400 H   0  0  0  0  0  0  0  0  0  0  0  0
    3.6070    3.7740    3.3980 H   0  0  0  0  0  0  0  0  0  0  0  0
    2.5110    5.5430    2.1400 H   0  0  0  0  0  0  0  0  0  0  0  0
    1.2720    4.9590    0.1010 H   0  0  0  0  0  0  0  0  0  0  0  0
    1.1390    2.5870   -0.6770 H   0  0  0  0  0  0  0  0  0  0  0  0
   -1.2100   -0.5080    0.3030 N   0  0  0  0  0  0  0  0  0  0  0  0
   -2.5140    0.0390    0.0450 C   0  0  1  0  0  0  0  0  0  0  0  0
   -2.8070    0.0530   -1.4440 C   0  0  0  0  0  0  0  0  0  0  0  0
   -1.5940    1.0550   -2.3290 S   0  0  0  0  0  0  0  0  0  0  0  0
   -3.5500   -0.7670    0.7350 C   0  0  0  0  0  0  0  0  0  0  0  0
   -3.2050   -1.7710    1.4230 O   0  0  0  0  0  0  0  0  0  0  0  0
   -4.8940   -0.4850    0.6730 O   0  0  0  0  0  0  0  0  0  0  0  0
   -1.0130   -1.4920    0.0420 H   0  0  0  0  0  0  0  0  0  0  0  0
   -2.5300    1.1000    0.3930 H   0  0  0  0  0  0  0  0  0  0  0  0
   -3.8090    0.4760   -1.6220 H   0  0  0  0  0  0  0  0  0  0  0  0
   -2.7780   -0.9650   -1.8710 H   0  0  0  0  0  0  0  0  0  0  0  0
   -1.0560    2.0130   -1.4790 H   0  0  0  0  0  0  0  0  0  0  0  0
  1  7  1  0  0  0  0
  1  2  1  0  0  0  0
  2  8  1  0  0  0  0
  2  3  1  0  0  0  0
  3 10  1  6  0  0  0
  3  5  1  0  0  0  0
  3  4  1  0  0  0  0
  4 12  1  0  0  0  0
  4 11  1  0  0  0  0
  5  6  2  0  0  0  0
  9  2  1  0  0  0  0
 13 14  1  0  0  0  0
 13  5  1  0  0  0  0
 14 25  1  1  0  0  0
 15 26  1  0  0  0  0
 15 16  1  0  0  0  0
 15 14  1  0  0  0  0
 16 17  1  0  0  0  0
 17 18  2  0  0  0  0
 17 28  1  0  0  0  0
 18 29  1  0  0  0  0
 19 30  1  0  0  0  0
 19 18  1  0  0  0  0
 20 19  2  0  0  0  0
 21 20  1  0  0  0  0
 21 16  2  0  0  0  0
 22 14  1  0  0  0  0
 22 23  2  0  0  0  0
 24 13  1  0  0  0  0
 27 15  1  0  0  0  0
 31 20  1  0  0  0  0
 32 21  1  0  0  0  0
 33 22  1  0  0  0  0
 34 33  1  0  0  0  0
 34 41  1  1  0  0  0
 34 37  1  0  0  0  0
 35 34  1  0  0  0  0
 36 44  1  0  0  0  0
 36 35  1  0  0  0  0
 37 38  1  0  0  0  0
 39 37  2  0  0  0  0
 40 33  1  0  0  0  0
 42 35  1  0  0  0  0
 43 35  1  0  0  0  0
M  END
$$$$
