SFD.pdb
 OpenBabel07022419093D

 46 46  0  0  1  0  0  0  0  0999 V2000
    4.1040   -0.7340    1.0330 O   0  0  0  0  0  0  0  0  0  0  0  0
    3.4400   -1.9550    0.8770 C   0  0  0  0  0  0  0  0  0  0  0  0
    2.4230   -1.8030   -0.2440 C   0  0  2  0  0  0  0  0  0  0  0  0
    3.0430   -1.4500   -1.4810 N   0  0  0  0  0  0  0  0  0  0  0  0
    1.3470   -0.8530    0.1360 C   0  0  0  0  0  0  0  0  0  0  0  0
    1.0870    0.1230   -0.6040 O   0  0  0  0  0  0  0  0  0  0  0  0
    4.9950   -0.8500    0.6110 H   0  0  0  0  0  0  0  0  0  0  0  0
    2.8910   -2.2550    1.7870 H   0  0  0  0  0  0  0  0  0  0  0  0
    4.1480   -2.7740    0.6590 H   0  0  0  0  0  0  0  0  0  0  0  0
    1.9520   -2.8210   -0.3650 H   0  0  0  0  0  0  0  0  0  0  0  0
    2.3630   -0.8920   -2.0430 H   0  0  0  0  0  0  0  0  0  0  0  0
    3.2370   -2.3270   -2.0470 H   0  0  0  0  0  0  0  0  0  0  0  0
    0.5960   -1.0350    1.3410 N   0  0  0  0  0  0  0  0  0  0  0  0
   -0.4420   -0.1720    1.7830 C   0  0  1  0  0  0  0  0  0  0  0  0
   -0.1260    1.3060    1.7580 C   0  0  0  0  0  0  0  0  0  0  0  0
    1.0030    1.6630    2.6320 C   0  0  0  0  0  0  0  0  0  0  0  0
    0.7420    1.9370    3.9790 C   0  0  0  0  0  0  0  0  0  0  0  0
    1.8010    2.2780    4.7790 C   0  0  0  0  0  0  0  0  0  0  0  0
    3.1050    2.3560    4.2920 C   0  0  0  0  0  0  0  0  0  0  0  0
    3.3590    2.0860    2.9670 C   0  0  0  0  0  0  0  0  0  0  0  0
    2.2850    1.7380    2.1450 C   0  0  0  0  0  0  0  0  0  0  0  0
   -1.7510   -0.5030    1.1900 C   0  0  0  0  0  0  0  0  0  0  0  0
   -2.7950    0.1390    1.4510 O   0  0  0  0  0  0  0  0  0  0  0  0
    0.8870   -1.8960    1.8970 H   0  0  0  0  0  0  0  0  0  0  0  0
   -0.5510   -0.3760    2.9080 H   0  0  0  0  0  0  0  0  0  0  0  0
   -1.0380    1.8150    2.1630 H   0  0  0  0  0  0  0  0  0  0  0  0
    0.0460    1.7120    0.7660 H   0  0  0  0  0  0  0  0  0  0  0  0
   -0.2740    1.8660    4.3170 H   0  0  0  0  0  0  0  0  0  0  0  0
    1.5860    2.4880    5.8230 H   0  0  0  0  0  0  0  0  0  0  0  0
    3.8960    2.6310    4.9790 H   0  0  0  0  0  0  0  0  0  0  0  0
    4.3700    2.1510    2.6090 H   0  0  0  0  0  0  0  0  0  0  0  0
    2.5700    1.5510    1.1210 H   0  0  0  0  0  0  0  0  0  0  0  0
   -1.9140   -1.5950    0.2650 N   0  0  0  0  0  0  0  0  0  0  0  0
   -3.1550   -1.9560   -0.3360 C   0  0  1  0  0  0  0  0  0  0  0  0
   -3.2050   -1.7660   -1.8280 C   0  0  0  0  0  0  0  0  0  0  0  0
   -2.9660   -0.3450   -2.1120 C   0  0  0  0  0  0  0  0  0  0  0  0
   -1.8170    0.1380   -2.0740 O   0  0  0  0  0  0  0  0  0  0  0  0
   -3.6480   -3.2960    0.0500 C   0  0  0  0  0  0  0  0  0  0  0  0
   -3.0590   -4.0730    0.8360 O   0  0  0  0  0  0  0  0  0  0  0  0
   -4.0580    0.4810   -2.4330 O   0  0  0  0  0  0  0  0  0  0  0  0
   -4.8460   -3.7150   -0.5020 O   0  0  0  0  0  0  0  0  0  0  0  0
   -1.0420   -2.1290    0.0480 H   0  0  0  0  0  0  0  0  0  0  0  0
   -3.9240   -1.2280    0.0700 H   0  0  0  0  0  0  0  0  0  0  0  0
   -2.5330   -2.4460   -2.3800 H   0  0  0  0  0  0  0  0  0  0  0  0
   -4.2330   -2.0280   -2.1510 H   0  0  0  0  0  0  0  0  0  0  0  0
   -4.0280    1.4650   -2.1990 H   0  0  0  0  0  0  0  0  0  0  0  0
  2  1  1  0  0  0  0
  2  8  1  0  0  0  0
  3 10  1  6  0  0  0
  3  5  1  0  0  0  0
  3  2  1  0  0  0  0
  4  3  1  0  0  0  0
  5 13  1  0  0  0  0
  6  5  2  0  0  0  0
  7  1  1  0  0  0  0
  9  2  1  0  0  0  0
 11  4  1  0  0  0  0
 12  4  1  0  0  0  0
 13 14  1  0  0  0  0
 13 24  1  0  0  0  0
 14 25  1  1  0  0  0
 15 14  1  0  0  0  0
 15 26  1  0  0  0  0
 15 16  1  0  0  0  0
 16 17  1  0  0  0  0
 17 28  1  0  0  0  0
 17 18  2  0  0  0  0
 18 29  1  0  0  0  0
 19 18  1  0  0  0  0
 19 30  1  0  0  0  0
 20 19  2  0  0  0  0
 21 16  2  0  0  0  0
 21 20  1  0  0  0  0
 22 23  2  0  0  0  0
 22 14  1  0  0  0  0
 27 15  1  0  0  0  0
 31 20  1  0  0  0  0
 32 21  1  0  0  0  0
 33 22  1  0  0  0  0
 34 38  1  0  0  0  0
 34 43  1  1  0  0  0
 34 33  1  0  0  0  0
 35 34  1  0  0  0  0
 36 37  2  0  0  0  0
 36 35  1  0  0  0  0
 38 39  1  0  0  0  0
 40 46  1  0  0  0  0
 40 36  1  0  0  0  0
 41 38  2  0  0  0  0
 42 33  1  0  0  0  0
 44 35  1  0  0  0  0
 45 35  1  0  0  0  0
M  END
$$$$
