SFE.pdb
 OpenBabel07022419093D

 49 49  0  0  1  0  0  0  0  0999 V2000
    3.0550   -4.7620    4.1090 O   0  0  0  0  0  0  0  0  0  0  0  0
    2.7650   -3.4600    3.7700 C   0  0  0  0  0  0  0  0  0  0  0  0
    1.4480   -3.4080    2.9700 C   0  0  2  0  0  0  0  0  0  0  0  0
    1.6340   -4.1870    1.8060 N   0  0  0  0  0  0  0  0  0  0  0  0
    1.1460   -1.9930    2.7930 C   0  0  0  0  0  0  0  0  0  0  0  0
    0.9100   -1.3230    3.8460 O   0  0  0  0  0  0  0  0  0  0  0  0
    2.6440   -4.9770    4.9830 H   0  0  0  0  0  0  0  0  0  0  0  0
    3.5860   -3.0860    3.0980 H   0  0  0  0  0  0  0  0  0  0  0  0
    2.7190   -2.7940    4.6420 H   0  0  0  0  0  0  0  0  0  0  0  0
    0.7220   -3.9370    3.6430 H   0  0  0  0  0  0  0  0  0  0  0  0
    1.8350   -3.7240    0.9240 H   0  0  0  0  0  0  0  0  0  0  0  0
    1.0050   -5.0150    1.7030 H   0  0  0  0  0  0  0  0  0  0  0  0
    1.0900   -1.2920    1.5750 N   0  0  0  0  0  0  0  0  0  0  0  0
    0.7760    0.1420    1.4790 C   0  0  1  0  0  0  0  0  0  0  0  0
    2.0280    0.8770    1.0550 C   0  0  0  0  0  0  0  0  0  0  0  0
    1.7840    2.3340    0.9360 C   0  0  0  0  0  0  0  0  0  0  0  0
    1.4040    2.9280   -0.2530 C   0  0  0  0  0  0  0  0  0  0  0  0
    1.1830    4.2850   -0.3320 C   0  0  0  0  0  0  0  0  0  0  0  0
    1.3260    5.1220    0.7590 C   0  0  0  0  0  0  0  0  0  0  0  0
    1.7050    4.5310    1.9440 C   0  0  0  0  0  0  0  0  0  0  0  0
    1.9290    3.1720    2.0340 C   0  0  0  0  0  0  0  0  0  0  0  0
   -0.3840    0.3720    0.6070 C   0  0  0  0  0  0  0  0  0  0  0  0
   -0.8590    1.5260    0.4110 O   0  0  0  0  0  0  0  0  0  0  0  0
    1.2740   -1.7860    0.6990 H   0  0  0  0  0  0  0  0  0  0  0  0
    0.5400    0.4820    2.5020 H   0  0  0  0  0  0  0  0  0  0  0  0
    2.4730    0.4570    0.1330 H   0  0  0  0  0  0  0  0  0  0  0  0
    2.7680    0.7350    1.8760 H   0  0  0  0  0  0  0  0  0  0  0  0
    1.2920    2.2670   -1.1140 H   0  0  0  0  0  0  0  0  0  0  0  0
    0.8860    4.7180   -1.2820 H   0  0  0  0  0  0  0  0  0  0  0  0
    1.1510    6.1860    0.6890 H   0  0  0  0  0  0  0  0  0  0  0  0
    1.8300    5.1550    2.8300 H   0  0  0  0  0  0  0  0  0  0  0  0
    2.2290    2.7130    2.9790 H   0  0  0  0  0  0  0  0  0  0  0  0
   -1.0640   -0.6780   -0.0830 N   0  0  0  0  0  0  0  0  0  0  0  0
   -2.2020   -0.4380   -0.9360 C   0  0  1  0  0  0  0  0  0  0  0  0
   -2.0000   -0.7350   -2.3730 C   0  0  0  0  0  0  0  0  0  0  0  0
   -1.6320   -2.1210   -2.7430 C   0  0  0  0  0  0  0  0  0  0  0  0
   -2.6350   -3.1080   -2.3560 C   0  0  0  0  0  0  0  0  0  0  0  0
   -2.4870   -3.7620   -1.2950 O   0  0  0  0  0  0  0  0  0  0  0  0
   -3.4020   -1.0870   -0.3980 C   0  0  0  0  0  0  0  0  0  0  0  0
   -4.4740   -1.0180   -1.0480 O   0  0  0  0  0  0  0  0  0  0  0  0
   -3.7480   -3.3280   -3.1480 O   0  0  0  0  0  0  0  0  0  0  0  0
   -3.4200   -1.7810    0.8090 O   0  0  0  0  0  0  0  0  0  0  0  0
   -0.7020   -1.6410    0.0540 H   0  0  0  0  0  0  0  0  0  0  0  0
   -2.4530    0.6840   -0.9040 H   0  0  0  0  0  0  0  0  0  0  0  0
   -2.9970   -0.5310   -2.8770 H   0  0  0  0  0  0  0  0  0  0  0  0
   -1.3300    0.0280   -2.8760 H   0  0  0  0  0  0  0  0  0  0  0  0
   -1.5850   -2.1480   -3.8740 H   0  0  0  0  0  0  0  0  0  0  0  0
   -0.5990   -2.4080   -2.4310 H   0  0  0  0  0  0  0  0  0  0  0  0
   -4.3050   -4.1760   -3.0850 H   0  0  0  0  0  0  0  0  0  0  0  0
  1  7  1  0  0  0  0
  2  1  1  0  0  0  0
  2  9  1  0  0  0  0
  3 10  1  1  0  0  0
  3  2  1  0  0  0  0
  4  3  1  0  0  0  0
  5  3  1  0  0  0  0
  5  6  2  0  0  0  0
  8  2  1  0  0  0  0
 11  4  1  0  0  0  0
 12  4  1  0  0  0  0
 13  5  1  0  0  0  0
 14 13  1  0  0  0  0
 14 25  1  1  0  0  0
 15 14  1  0  0  0  0
 15 27  1  0  0  0  0
 16 15  1  0  0  0  0
 16 21  1  0  0  0  0
 17 16  2  0  0  0  0
 18 17  1  0  0  0  0
 18 19  2  0  0  0  0
 19 20  1  0  0  0  0
 20 21  2  0  0  0  0
 20 31  1  0  0  0  0
 21 32  1  0  0  0  0
 22 14  1  0  0  0  0
 23 22  2  0  0  0  0
 24 13  1  0  0  0  0
 26 15  1  0  0  0  0
 28 17  1  0  0  0  0
 29 18  1  0  0  0  0
 30 19  1  0  0  0  0
 33 43  1  0  0  0  0
 33 22  1  0  0  0  0
 34 44  1  1  0  0  0
 34 39  1  0  0  0  0
 34 33  1  0  0  0  0
 35 34  1  0  0  0  0
 36 48  1  0  0  0  0
 36 35  1  0  0  0  0
 36 37  1  0  0  0  0
 37 38  2  0  0  0  0
 39 42  1  0  0  0  0
 40 39  2  0  0  0  0
 41 49  1  0  0  0  0
 41 37  1  0  0  0  0
 45 35  1  0  0  0  0
 46 35  1  0  0  0  0
 47 36  1  0  0  0  0
M  END
$$$$
