SFF.pdb
 OpenBabel07022419093D

 53 54  0  0  1  0  0  0  0  0999 V2000
    3.3380   -1.7850    4.6950 O   0  0  0  0  0  0  0  0  0  0  0  0
    2.2450   -1.4170    3.9120 C   0  0  0  0  0  0  0  0  0  0  0  0
    1.7000   -0.1150    4.4580 C   0  0  2  0  0  0  0  0  0  0  0  0
    1.3020   -0.3300    5.8250 N   0  0  0  0  0  0  0  0  0  0  0  0
    0.5840    0.4100    3.6510 C   0  0  0  0  0  0  0  0  0  0  0  0
   -0.5340    0.5950    4.2450 O   0  0  0  0  0  0  0  0  0  0  0  0
    3.6350   -2.7060    4.4960 H   0  0  0  0  0  0  0  0  0  0  0  0
    2.5800   -1.2160    2.8800 H   0  0  0  0  0  0  0  0  0  0  0  0
    1.4780   -2.2070    3.9190 H   0  0  0  0  0  0  0  0  0  0  0  0
    2.5290    0.6390    4.4230 H   0  0  0  0  0  0  0  0  0  0  0  0
    1.6260   -1.2620    6.1730 H   0  0  0  0  0  0  0  0  0  0  0  0
    0.2590   -0.3360    5.9090 H   0  0  0  0  0  0  0  0  0  0  0  0
    0.6700    0.7190    2.2780 N   0  0  0  0  0  0  0  0  0  0  0  0
   -0.4820    1.2270    1.5810 C   0  0  1  0  0  0  0  0  0  0  0  0
   -0.2880    2.6130    1.0480 C   0  0  0  0  0  0  0  0  0  0  0  0
    0.8100    2.7820    0.0920 C   0  0  0  0  0  0  0  0  0  0  0  0
    0.6200    2.6480   -1.2610 C   0  0  0  0  0  0  0  0  0  0  0  0
    1.7090    2.8240   -2.0860 C   0  0  0  0  0  0  0  0  0  0  0  0
    2.9700    3.1270   -1.6000 C   0  0  0  0  0  0  0  0  0  0  0  0
    3.1630    3.2620   -0.2440 C   0  0  0  0  0  0  0  0  0  0  0  0
    2.0710    3.0850    0.5840 C   0  0  0  0  0  0  0  0  0  0  0  0
   -0.9780    0.2500    0.5720 C   0  0  0  0  0  0  0  0  0  0  0  0
   -1.9470    0.4510   -0.1670 O   0  0  0  0  0  0  0  0  0  0  0  0
    1.5570    0.5800    1.7750 H   0  0  0  0  0  0  0  0  0  0  0  0
   -1.3650    1.3140    2.2960 H   0  0  0  0  0  0  0  0  0  0  0  0
   -1.2730    2.9580    0.6170 H   0  0  0  0  0  0  0  0  0  0  0  0
   -0.1050    3.3060    1.8950 H   0  0  0  0  0  0  0  0  0  0  0  0
   -0.3580    2.4090   -1.6970 H   0  0  0  0  0  0  0  0  0  0  0  0
    1.5790    2.7220   -3.1560 H   0  0  0  0  0  0  0  0  0  0  0  0
    3.8300    3.2650   -2.2580 H   0  0  0  0  0  0  0  0  0  0  0  0
    4.1550    3.4980    0.1180 H   0  0  0  0  0  0  0  0  0  0  0  0
    2.2580    3.1980    1.6470 H   0  0  0  0  0  0  0  0  0  0  0  0
   -0.2860   -0.9950    0.4610 N   0  0  0  0  0  0  0  0  0  0  0  0
   -0.7000   -2.0020   -0.4880 C   0  0  1  0  0  0  0  0  0  0  0  0
   -1.9730   -2.6810   -0.0750 C   0  0  0  0  0  0  0  0  0  0  0  0
   -2.4540   -3.7170   -0.9930 C   0  0  0  0  0  0  0  0  0  0  0  0
   -2.0170   -5.0150   -0.8320 C   0  0  0  0  0  0  0  0  0  0  0  0
   -2.4920   -5.9690   -1.6990 C   0  0  0  0  0  0  0  0  0  0  0  0
   -3.3770   -5.6750   -2.7090 C   0  0  0  0  0  0  0  0  0  0  0  0
   -3.8180   -4.3750   -2.8750 C   0  0  0  0  0  0  0  0  0  0  0  0
   -3.3410   -3.4140   -2.0020 C   0  0  0  0  0  0  0  0  0  0  0  0
   -0.7100   -1.4960   -1.8630 C   0  0  0  0  0  0  0  0  0  0  0  0
   -0.3780   -0.3100   -2.0890 O   0  0  0  0  0  0  0  0  0  0  0  0
   -1.0690   -2.2530   -2.9640 O   0  0  0  0  0  0  0  0  0  0  0  0
    0.5550   -1.1990    1.0850 H   0  0  0  0  0  0  0  0  0  0  0  0
    0.0930   -2.8200   -0.4740 H   0  0  0  0  0  0  0  0  0  0  0  0
   -1.8960   -3.1310    0.9280 H   0  0  0  0  0  0  0  0  0  0  0  0
   -2.7520   -1.8690    0.0110 H   0  0  0  0  0  0  0  0  0  0  0  0
   -1.3090   -5.2860   -0.0340 H   0  0  0  0  0  0  0  0  0  0  0  0
   -2.1380   -6.9990   -1.5620 H   0  0  0  0  0  0  0  0  0  0  0  0
   -3.7400   -6.4510   -3.3860 H   0  0  0  0  0  0  0  0  0  0  0  0
   -4.5150   -4.1410   -3.6690 H   0  0  0  0  0  0  0  0  0  0  0  0
   -3.7030   -2.3950   -2.1520 H   0  0  0  0  0  0  0  0  0  0  0  0
  2  9  1  0  0  0  0
  2  3  1  0  0  0  0
  2  1  1  0  0  0  0
  3 10  1  6  0  0  0
  3  4  1  0  0  0  0
  4 12  1  0  0  0  0
  4 11  1  0  0  0  0
  5  6  2  0  0  0  0
  5  3  1  0  0  0  0
  7  1  1  0  0  0  0
  8  2  1  0  0  0  0
 13  5  1  0  0  0  0
 14 13  1  0  0  0  0
 14 25  1  1  0  0  0
 15 14  1  0  0  0  0
 15 27  1  0  0  0  0
 16 21  1  0  0  0  0
 16 15  1  0  0  0  0
 17 16  2  0  0  0  0
 18 19  2  0  0  0  0
 18 17  1  0  0  0  0
 19 20  1  0  0  0  0
 20 31  1  0  0  0  0
 20 21  2  0  0  0  0
 21 32  1  0  0  0  0
 22 14  1  0  0  0  0
 23 22  2  0  0  0  0
 24 13  1  0  0  0  0
 26 15  1  0  0  0  0
 28 17  1  0  0  0  0
 29 18  1  0  0  0  0
 30 19  1  0  0  0  0
 33 22  1  0  0  0  0
 33 45  1  0  0  0  0
 34 46  1  1  0  0  0
 34 35  1  0  0  0  0
 34 33  1  0  0  0  0
 35 48  1  0  0  0  0
 35 47  1  0  0  0  0
 36 37  1  0  0  0  0
 36 35  1  0  0  0  0
 37 49  1  0  0  0  0
 38 50  1  0  0  0  0
 38 37  2  0  0  0  0
 39 38  1  0  0  0  0
 40 39  2  0  0  0  0
 40 41  1  0  0  0  0
 41 36  2  0  0  0  0
 42 34  1  0  0  0  0
 43 42  1  0  0  0  0
 44 42  2  0  0  0  0
 51 39  1  0  0  0  0
 52 40  1  0  0  0  0
 53 41  1  0  0  0  0
M  END
$$$$
