SFG.pdb
 OpenBabel07022419093D

 40 40  0  0  1  0  0  0  0  0999 V2000
    1.5240   -5.2850   -1.6080 O   0  0  0  0  0  0  0  0  0  0  0  0
    0.8230   -4.3030   -0.8820 C   0  0  0  0  0  0  0  0  0  0  0  0
    1.6030   -4.0680    0.3970 C   0  0  2  0  0  0  0  0  0  0  0  0
    1.6470   -5.3370    1.0990 N   0  0  0  0  0  0  0  0  0  0  0  0
    0.9850   -3.0710    1.2740 C   0  0  0  0  0  0  0  0  0  0  0  0
    0.5850   -3.3730    2.4470 O   0  0  0  0  0  0  0  0  0  0  0  0
    0.9880   -6.0900   -1.7670 H   0  0  0  0  0  0  0  0  0  0  0  0
   -0.1630   -4.7430   -0.6320 H   0  0  0  0  0  0  0  0  0  0  0  0
    0.7070   -3.3770   -1.4830 H   0  0  0  0  0  0  0  0  0  0  0  0
    2.6310   -3.7630    0.0940 H   0  0  0  0  0  0  0  0  0  0  0  0
    0.6420   -5.5530    1.3640 H   0  0  0  0  0  0  0  0  0  0  0  0
    2.1820   -5.2720    1.9890 H   0  0  0  0  0  0  0  0  0  0  0  0
    0.7800   -1.7060    0.9040 N   0  0  0  0  0  0  0  0  0  0  0  0
    0.1670   -0.7470    1.7930 C   0  0  1  0  0  0  0  0  0  0  0  0
    1.1300    0.3460    2.2020 C   0  0  0  0  0  0  0  0  0  0  0  0
    1.6490    1.1190    1.0730 C   0  0  0  0  0  0  0  0  0  0  0  0
    1.0150    2.2510    0.6130 C   0  0  0  0  0  0  0  0  0  0  0  0
    1.5170    2.9820   -0.4630 C   0  0  0  0  0  0  0  0  0  0  0  0
    2.6700    2.5950   -1.1070 C   0  0  0  0  0  0  0  0  0  0  0  0
    3.3090    1.4620   -0.6510 C   0  0  0  0  0  0  0  0  0  0  0  0
    2.8050    0.7310    0.4280 C   0  0  0  0  0  0  0  0  0  0  0  0
   -1.0580   -0.1970    1.1590 C   0  0  0  0  0  0  0  0  0  0  0  0
   -1.4080   -0.5850    0.0150 O   0  0  0  0  0  0  0  0  0  0  0  0
    1.0870   -1.4010   -0.0430 H   0  0  0  0  0  0  0  0  0  0  0  0
   -0.0810   -1.2880    2.7480 H   0  0  0  0  0  0  0  0  0  0  0  0
    0.5960    0.9690    2.9530 H   0  0  0  0  0  0  0  0  0  0  0  0
    1.9470   -0.1630    2.7710 H   0  0  0  0  0  0  0  0  0  0  0  0
    0.1030    2.6240    1.0640 H   0  0  0  0  0  0  0  0  0  0  0  0
    1.0160    3.8720   -0.8230 H   0  0  0  0  0  0  0  0  0  0  0  0
    3.0870    3.1430   -1.9480 H   0  0  0  0  0  0  0  0  0  0  0  0
    4.2190    1.1630   -1.1640 H   0  0  0  0  0  0  0  0  0  0  0  0
    3.3350   -0.1580    0.7610 H   0  0  0  0  0  0  0  0  0  0  0  0
   -1.8880    0.7720    1.7810 N   0  0  0  0  0  0  0  0  0  0  0  0
   -3.0820    1.3060    1.1580 C   0  0  0  0  0  0  0  0  0  0  0  0
   -3.7010    2.2810    2.0670 C   0  0  0  0  0  0  0  0  0  0  0  0
   -4.7480    2.8650    1.7260 O   0  0  0  0  0  0  0  0  0  0  0  0
   -3.1340    2.5520    3.2880 O   0  0  0  0  0  0  0  0  0  0  0  0
   -1.5740    1.0860    2.7460 H   0  0  0  0  0  0  0  0  0  0  0  0
   -2.8640    1.7920    0.1860 H   0  0  0  0  0  0  0  0  0  0  0  0
   -3.8370    0.5160    0.9600 H   0  0  0  0  0  0  0  0  0  0  0  0
  1  2  1  0  0  0  0
  2  8  1  0  0  0  0
  2  3  1  0  0  0  0
  3 10  1  6  0  0  0
  3  4  1  0  0  0  0
  3  5  1  0  0  0  0
  4 11  1  0  0  0  0
  4 12  1  0  0  0  0
  5  6  2  0  0  0  0
  7  1  1  0  0  0  0
  9  2  1  0  0  0  0
 13  5  1  0  0  0  0
 13 14  1  0  0  0  0
 14 15  1  0  0  0  0
 14 25  1  1  0  0  0
 15 27  1  0  0  0  0
 15 26  1  0  0  0  0
 16 15  1  0  0  0  0
 17 28  1  0  0  0  0
 17 16  1  0  0  0  0
 18 17  2  0  0  0  0
 19 20  2  0  0  0  0
 19 18  1  0  0  0  0
 20 21  1  0  0  0  0
 21 32  1  0  0  0  0
 21 16  2  0  0  0  0
 22 33  1  0  0  0  0
 22 14  1  0  0  0  0
 23 22  2  0  0  0  0
 24 13  1  0  0  0  0
 29 18  1  0  0  0  0
 30 19  1  0  0  0  0
 31 20  1  0  0  0  0
 33 38  1  0  0  0  0
 34 33  1  0  0  0  0
 34 35  1  0  0  0  0
 35 37  1  0  0  0  0
 36 35  2  0  0  0  0
 39 34  1  0  0  0  0
 40 34  1  0  0  0  0
M  END
$$$$
