SFH.pdb
 OpenBabel07022419093D

 50 51  0  0  1  0  0  0  0  0999 V2000
    5.0780   -3.2200    0.8690 O   0  0  0  0  0  0  0  0  0  0  0  0
    3.8300   -3.4370    1.4770 C   0  0  0  0  0  0  0  0  0  0  0  0
    2.7530   -2.8090    0.6140 C   0  0  2  0  0  0  0  0  0  0  0  0
    3.0490   -1.3930    0.5240 N   0  0  0  0  0  0  0  0  0  0  0  0
    1.4040   -3.0700    1.1440 C   0  0  0  0  0  0  0  0  0  0  0  0
    1.0060   -4.2430    1.2740 O   0  0  0  0  0  0  0  0  0  0  0  0
    5.0870   -3.5340   -0.0560 H   0  0  0  0  0  0  0  0  0  0  0  0
    3.6700   -4.5240    1.5190 H   0  0  0  0  0  0  0  0  0  0  0  0
    3.8350   -3.0100    2.4990 H   0  0  0  0  0  0  0  0  0  0  0  0
    2.8990   -3.2270   -0.4090 H   0  0  0  0  0  0  0  0  0  0  0  0
    3.0080   -0.8940    1.4180 H   0  0  0  0  0  0  0  0  0  0  0  0
    3.8620   -1.1960   -0.0750 H   0  0  0  0  0  0  0  0  0  0  0  0
    0.5640   -1.9930    1.5030 N   0  0  0  0  0  0  0  0  0  0  0  0
   -0.7660   -2.1440    2.0280 C   0  0  1  0  0  0  0  0  0  0  0  0
   -0.9250   -1.6420    3.4360 C   0  0  0  0  0  0  0  0  0  0  0  0
   -0.6300   -0.2360    3.6240 C   0  0  0  0  0  0  0  0  0  0  0  0
   -1.6250    0.6990    3.4900 C   0  0  0  0  0  0  0  0  0  0  0  0
   -1.3900    2.0490    3.6610 C   0  0  0  0  0  0  0  0  0  0  0  0
   -0.1290    2.4860    3.9750 C   0  0  0  0  0  0  0  0  0  0  0  0
    0.8690    1.5440    4.1090 C   0  0  0  0  0  0  0  0  0  0  0  0
    0.6340    0.1950    3.9380 C   0  0  0  0  0  0  0  0  0  0  0  0
   -1.8000   -1.5990    1.1130 C   0  0  0  0  0  0  0  0  0  0  0  0
   -3.0230   -1.6410    1.4050 O   0  0  0  0  0  0  0  0  0  0  0  0
    0.9630   -1.0250    1.3670 H   0  0  0  0  0  0  0  0  0  0  0  0
   -0.9620   -3.2540    2.0790 H   0  0  0  0  0  0  0  0  0  0  0  0
   -0.3060   -2.2360    4.1390 H   0  0  0  0  0  0  0  0  0  0  0  0
   -1.9880   -1.8790    3.7250 H   0  0  0  0  0  0  0  0  0  0  0  0
   -2.6590    0.4350    3.2410 H   0  0  0  0  0  0  0  0  0  0  0  0
   -2.1970    2.7900    3.5510 H   0  0  0  0  0  0  0  0  0  0  0  0
    0.0500    3.5510    4.1080 H   0  0  0  0  0  0  0  0  0  0  0  0
    1.8670    1.9360    4.3610 H   0  0  0  0  0  0  0  0  0  0  0  0
    1.4800   -0.4660    4.0640 H   0  0  0  0  0  0  0  0  0  0  0  0
   -1.4820   -0.9970   -0.1470 N   0  0  0  0  0  0  0  0  0  0  0  0
   -2.5240   -0.4800   -1.0050 C   0  0  1  0  0  0  0  0  0  0  0  0
   -2.3270    0.9830   -1.2660 C   0  0  0  0  0  0  0  0  0  0  0  0
   -0.9990    1.1600   -1.9330 C   0  0  0  0  0  0  0  0  0  0  0  0
   -0.7710    1.1410   -3.3090 C   0  0  0  0  0  0  0  0  0  0  0  0
    0.5480    1.3370   -3.4790 N   0  0  0  0  0  0  0  0  0  0  0  0
    1.1420    1.4740   -2.2780 C   0  0  0  0  0  0  0  0  0  0  0  0
    0.1800    1.3630   -1.3450 N   0  0  0  0  0  0  0  0  0  0  0  0
   -2.5850   -1.2150   -2.2980 C   0  0  0  0  0  0  0  0  0  0  0  0
   -1.7880   -2.1550   -2.5300 O   0  0  0  0  0  0  0  0  0  0  0  0
   -3.5120   -0.8880   -3.2760 O   0  0  0  0  0  0  0  0  0  0  0  0
   -0.4780   -0.9300   -0.4490 H   0  0  0  0  0  0  0  0  0  0  0  0
   -3.4990   -0.6430   -0.5090 H   0  0  0  0  0  0  0  0  0  0  0  0
   -2.2860    1.5560   -0.3270 H   0  0  0  0  0  0  0  0  0  0  0  0
   -3.1020    1.3630   -1.9630 H   0  0  0  0  0  0  0  0  0  0  0  0
   -1.5430    0.9930   -4.0790 H   0  0  0  0  0  0  0  0  0  0  0  0
    0.9980    1.3690   -4.4300 H   0  0  0  0  0  0  0  0  0  0  0  0
    2.1980    1.6420   -2.1230 H   0  0  0  0  0  0  0  0  0  0  0  0
  1  2  1  0  0  0  0
  2  8  1  0  0  0  0
  2  9  1  0  0  0  0
  3 10  1  6  0  0  0
  3  5  1  0  0  0  0
  3  2  1  0  0  0  0
  4  3  1  0  0  0  0
  4 11  1  0  0  0  0
  5  6  2  0  0  0  0
  5 13  1  0  0  0  0
  7  1  1  0  0  0  0
 12  4  1  0  0  0  0
 13 14  1  0  0  0  0
 14 25  1  1  0  0  0
 14 15  1  0  0  0  0
 15 16  1  0  0  0  0
 15 27  1  0  0  0  0
 15 26  1  0  0  0  0
 16 21  1  0  0  0  0
 17 16  2  0  0  0  0
 17 18  1  0  0  0  0
 18 19  2  0  0  0  0
 19 30  1  0  0  0  0
 19 20  1  0  0  0  0
 20 31  1  0  0  0  0
 21 32  1  0  0  0  0
 21 20  2  0  0  0  0
 22 23  2  0  0  0  0
 22 14  1  0  0  0  0
 24 13  1  0  0  0  0
 28 17  1  0  0  0  0
 29 18  1  0  0  0  0
 33 22  1  0  0  0  0
 34 45  1  1  0  0  0
 34 33  1  0  0  0  0
 35 34  1  0  0  0  0
 35 46  1  0  0  0  0
 36 40  1  0  0  0  0
 36 35  1  0  0  0  0
 37 36  2  0  0  0  0
 38 37  1  0  0  0  0
 38 39  1  0  0  0  0
 39 50  1  0  0  0  0
 39 40  2  0  0  0  0
 41 34  1  0  0  0  0
 42 41  1  0  0  0  0
 43 41  2  0  0  0  0
 44 33  1  0  0  0  0
 47 35  1  0  0  0  0
 48 37  1  0  0  0  0
 49 38  1  0  0  0  0
M  END
$$$$
