SFI.pdb
 OpenBabel07022419093D

 52 52  0  0  1  0  0  0  0  0999 V2000
    2.1550   -2.4150    3.2730 O   0  0  0  0  0  0  0  0  0  0  0  0
    2.8060   -2.7170    2.1020 C   0  0  0  0  0  0  0  0  0  0  0  0
    1.9100   -2.7050    0.8770 C   0  0  2  0  0  0  0  0  0  0  0  0
    2.7840   -3.0470   -0.2450 N   0  0  0  0  0  0  0  0  0  0  0  0
    1.2670   -1.3890    0.6510 C   0  0  0  0  0  0  0  0  0  0  0  0
    1.5470   -0.7590   -0.3880 O   0  0  0  0  0  0  0  0  0  0  0  0
    2.5360   -1.6260    3.7320 H   0  0  0  0  0  0  0  0  0  0  0  0
    3.6960   -2.0740    1.9610 H   0  0  0  0  0  0  0  0  0  0  0  0
    3.1890   -3.7560    2.1890 H   0  0  0  0  0  0  0  0  0  0  0  0
    1.1050   -3.4560    0.9980 H   0  0  0  0  0  0  0  0  0  0  0  0
    3.1990   -2.2010   -0.6800 H   0  0  0  0  0  0  0  0  0  0  0  0
    2.2840   -3.6690   -0.9180 H   0  0  0  0  0  0  0  0  0  0  0  0
    0.3590   -0.9090    1.6330 N   0  0  0  0  0  0  0  0  0  0  0  0
   -0.2910    0.3410    1.4990 C   0  0  1  0  0  0  0  0  0  0  0  0
    0.6060    1.5070    1.1090 C   0  0  0  0  0  0  0  0  0  0  0  0
    1.6700    1.7750    2.1020 C   0  0  0  0  0  0  0  0  0  0  0  0
    1.3420    2.6120    3.1700 C   0  0  0  0  0  0  0  0  0  0  0  0
    2.2620    2.9330    4.1410 C   0  0  0  0  0  0  0  0  0  0  0  0
    3.5360    2.4000    4.0360 C   0  0  0  0  0  0  0  0  0  0  0  0
    3.8930    1.5710    2.9950 C   0  0  0  0  0  0  0  0  0  0  0  0
    2.9390    1.2580    2.0170 C   0  0  0  0  0  0  0  0  0  0  0  0
   -1.5610    0.3240    0.7430 C   0  0  0  0  0  0  0  0  0  0  0  0
   -2.1910    1.3920    0.5840 O   0  0  0  0  0  0  0  0  0  0  0  0
    0.1540   -1.5090    2.5000 H   0  0  0  0  0  0  0  0  0  0  0  0
   -0.5910    0.6430    2.5710 H   0  0  0  0  0  0  0  0  0  0  0  0
   -0.0410    2.4370    1.0750 H   0  0  0  0  0  0  0  0  0  0  0  0
    1.0600    1.4170    0.1260 H   0  0  0  0  0  0  0  0  0  0  0  0
    0.3420    3.0040    3.2150 H   0  0  0  0  0  0  0  0  0  0  0  0
    1.9720    3.5930    4.9670 H   0  0  0  0  0  0  0  0  0  0  0  0
    4.2750    2.6460    4.7990 H   0  0  0  0  0  0  0  0  0  0  0  0
    4.8910    1.1800    2.9510 H   0  0  0  0  0  0  0  0  0  0  0  0
    3.2350    0.6160    1.2070 H   0  0  0  0  0  0  0  0  0  0  0  0
   -1.2420   -2.8150   -2.0070 C   0  0  0  0  0  0  0  0  0  0  0  0
   -2.6790   -2.5900   -2.3300 C   0  0  0  0  0  0  0  0  0  0  0  0
   -3.2370   -1.2610   -2.0050 C   0  0  2  0  0  0  0  0  0  0  0  0
   -2.4950   -0.1940   -2.7400 C   0  0  0  0  0  0  0  0  0  0  0  0
   -3.3470   -0.8900   -0.5600 C   0  0  2  0  0  0  0  0  0  0  0  0
   -2.1230   -0.8650    0.1710 N   0  0  0  0  0  0  0  0  0  0  0  0
   -4.3430   -1.7050    0.1720 C   0  0  0  0  0  0  0  0  0  0  0  0
   -3.9940   -2.2250    1.2580 O   0  0  0  0  0  0  0  0  0  0  0  0
   -5.6280   -1.9290   -0.2640 O   0  0  0  0  0  0  0  0  0  0  0  0
   -0.7220   -3.3510   -2.8590 H   0  0  0  0  0  0  0  0  0  0  0  0
   -1.1300   -3.5480   -1.1600 H   0  0  0  0  0  0  0  0  0  0  0  0
   -0.6570   -1.8940   -1.8740 H   0  0  0  0  0  0  0  0  0  0  0  0
   -3.3010   -3.4440   -1.9350 H   0  0  0  0  0  0  0  0  0  0  0  0
   -2.7880   -2.7020   -3.4520 H   0  0  0  0  0  0  0  0  0  0  0  0
   -4.2860   -1.2420   -2.4010 H   0  0  0  0  0  0  0  0  0  0  0  0
   -1.4330   -0.1070   -2.4830 H   0  0  0  0  0  0  0  0  0  0  0  0
   -2.5780   -0.4340   -3.8390 H   0  0  0  0  0  0  0  0  0  0  0  0
   -3.0500    0.7650   -2.6180 H   0  0  0  0  0  0  0  0  0  0  0  0
   -3.8120    0.1490   -0.5880 H   0  0  0  0  0  0  0  0  0  0  0  0
   -1.5690   -1.7330    0.3280 H   0  0  0  0  0  0  0  0  0  0  0  0
  1  7  1  0  0  0  0
  2  9  1  0  0  0  0
  2  1  1  0  0  0  0
  3 10  1  1  0  0  0
  3  2  1  0  0  0  0
  4  3  1  0  0  0  0
  5  3  1  0  0  0  0
  5 13  1  0  0  0  0
  6  5  2  0  0  0  0
  8  2  1  0  0  0  0
 11  4  1  0  0  0  0
 12  4  1  0  0  0  0
 13 24  1  0  0  0  0
 14 13  1  0  0  0  0
 14 25  1  1  0  0  0
 15 14  1  0  0  0  0
 15 16  1  0  0  0  0
 16 17  1  0  0  0  0
 17 28  1  0  0  0  0
 17 18  2  0  0  0  0
 18 29  1  0  0  0  0
 19 18  1  0  0  0  0
 19 30  1  0  0  0  0
 20 19  2  0  0  0  0
 21 16  2  0  0  0  0
 21 20  1  0  0  0  0
 22 14  1  0  0  0  0
 23 22  2  0  0  0  0
 26 15  1  0  0  0  0
 27 15  1  0  0  0  0
 31 20  1  0  0  0  0
 32 21  1  0  0  0  0
 33 44  1  0  0  0  0
 33 43  1  0  0  0  0
 34 33  1  0  0  0  0
 34 35  1  0  0  0  0
 34 45  1  0  0  0  0
 35 47  1  6  0  0  0
 35 37  1  0  0  0  0
 36 50  1  0  0  0  0
 36 48  1  0  0  0  0
 36 35  1  0  0  0  0
 37 51  1  1  0  0  0
 37 38  1  0  0  0  0
 37 39  1  0  0  0  0
 38 52  1  0  0  0  0
 38 22  1  0  0  0  0
 39 40  1  0  0  0  0
 41 39  2  0  0  0  0
 42 33  1  0  0  0  0
 46 34  1  0  0  0  0
 49 36  1  0  0  0  0
M  END
$$$$
