SFM.pdb
 OpenBabel07022419093D

 50 50  0  0  1  0  0  0  0  0999 V2000
    3.6180   -4.1900    2.6250 O   0  0  0  0  0  0  0  0  0  0  0  0
    3.5600   -4.2430    1.2130 C   0  0  0  0  0  0  0  0  0  0  0  0
    2.1050   -3.9250    0.8460 C   0  0  2  0  0  0  0  0  0  0  0  0
    1.8770   -3.9380   -0.5640 N   0  0  0  0  0  0  0  0  0  0  0  0
    1.7970   -2.6140    1.4710 C   0  0  0  0  0  0  0  0  0  0  0  0
    1.9370   -2.4120    2.7060 O   0  0  0  0  0  0  0  0  0  0  0  0
    2.8290   -4.6260    3.0350 H   0  0  0  0  0  0  0  0  0  0  0  0
    4.1660   -3.3810    0.8680 H   0  0  0  0  0  0  0  0  0  0  0  0
    3.8890   -5.2070    0.8170 H   0  0  0  0  0  0  0  0  0  0  0  0
    1.5110   -4.7520    1.2950 H   0  0  0  0  0  0  0  0  0  0  0  0
    0.8630   -4.1560   -0.7220 H   0  0  0  0  0  0  0  0  0  0  0  0
    2.3880   -4.7910   -0.9450 H   0  0  0  0  0  0  0  0  0  0  0  0
    1.3180   -1.4790    0.7230 N   0  0  0  0  0  0  0  0  0  0  0  0
    1.0260   -0.2190    1.3550 C   0  0  1  0  0  0  0  0  0  0  0  0
    1.8960    0.8970    0.8280 C   0  0  0  0  0  0  0  0  0  0  0  0
    1.6460    2.2060    1.4300 C   0  0  0  0  0  0  0  0  0  0  0  0
    0.7620    3.1500    0.9450 C   0  0  0  0  0  0  0  0  0  0  0  0
    0.5480    4.3680    1.5370 C   0  0  0  0  0  0  0  0  0  0  0  0
    1.2400    4.7000    2.6840 C   0  0  0  0  0  0  0  0  0  0  0  0
    2.1290    3.7690    3.1860 C   0  0  0  0  0  0  0  0  0  0  0  0
    2.3380    2.5440    2.5820 C   0  0  0  0  0  0  0  0  0  0  0  0
   -0.4160    0.0980    1.2600 C   0  0  0  0  0  0  0  0  0  0  0  0
   -0.9260    1.1290    1.7660 O   0  0  0  0  0  0  0  0  0  0  0  0
    1.1980   -1.6240   -0.2990 H   0  0  0  0  0  0  0  0  0  0  0  0
    1.2380   -0.2680    2.4650 H   0  0  0  0  0  0  0  0  0  0  0  0
    1.6850    0.9880   -0.2660 H   0  0  0  0  0  0  0  0  0  0  0  0
    2.9520    0.6390    0.9740 H   0  0  0  0  0  0  0  0  0  0  0  0
    0.2080    2.9290    0.0520 H   0  0  0  0  0  0  0  0  0  0  0  0
   -0.1580    5.0880    1.1250 H   0  0  0  0  0  0  0  0  0  0  0  0
    1.0660    5.6650    3.1480 H   0  0  0  0  0  0  0  0  0  0  0  0
    2.6840    4.0210    4.0960 H   0  0  0  0  0  0  0  0  0  0  0  0
    3.0620    1.8620    3.0450 H   0  0  0  0  0  0  0  0  0  0  0  0
   -1.3280   -2.6360   -2.2510 C   0  0  0  0  0  0  0  0  0  0  0  0
   -2.0370   -1.1380   -2.9090 S   0  0  0  0  0  0  0  0  0  0  0  0
   -3.4370   -0.5720   -2.0090 C   0  0  0  0  0  0  0  0  0  0  0  0
   -3.3280    0.0930   -0.7250 C   0  0  0  0  0  0  0  0  0  0  0  0
   -2.7430   -0.4310    0.4990 C   0  0  2  0  0  0  0  0  0  0  0  0
   -1.3620   -0.7740    0.5630 N   0  0  0  0  0  0  0  0  0  0  0  0
   -3.5300   -1.5680    1.0980 C   0  0  0  0  0  0  0  0  0  0  0  0
   -2.8860   -2.5530    1.5200 O   0  0  0  0  0  0  0  0  0  0  0  0
   -4.9020   -1.5460    1.1870 O   0  0  0  0  0  0  0  0  0  0  0  0
   -1.9560   -3.0380   -1.4070 H   0  0  0  0  0  0  0  0  0  0  0  0
   -0.2910   -2.4580   -1.9640 H   0  0  0  0  0  0  0  0  0  0  0  0
   -1.3110   -3.4570   -3.0040 H   0  0  0  0  0  0  0  0  0  0  0  0
   -3.9980    0.1680   -2.7070 H   0  0  0  0  0  0  0  0  0  0  0  0
   -4.2620   -1.3870   -1.9560 H   0  0  0  0  0  0  0  0  0  0  0  0
   -2.8100    1.1030   -0.9100 H   0  0  0  0  0  0  0  0  0  0  0  0
   -4.3740    0.4720   -0.4410 H   0  0  0  0  0  0  0  0  0  0  0  0
   -2.9520    0.4030    1.2890 H   0  0  0  0  0  0  0  0  0  0  0  0
   -0.9050   -1.6160    0.1850 H   0  0  0  0  0  0  0  0  0  0  0  0
  1  7  1  0  0  0  0
  2  1  1  0  0  0  0
  3  2  1  0  0  0  0
  3 10  1  1  0  0  0
  3  5  1  0  0  0  0
  4  3  1  0  0  0  0
  5  6  2  0  0  0  0
  8  2  1  0  0  0  0
  9  2  1  0  0  0  0
 11  4  1  0  0  0  0
 12  4  1  0  0  0  0
 13 14  1  0  0  0  0
 13  5  1  0  0  0  0
 14 25  1  1  0  0  0
 15 27  1  0  0  0  0
 15 14  1  0  0  0  0
 15 16  1  0  0  0  0
 16 21  1  0  0  0  0
 17 16  2  0  0  0  0
 17 18  1  0  0  0  0
 18 19  2  0  0  0  0
 19 30  1  0  0  0  0
 19 20  1  0  0  0  0
 20 31  1  0  0  0  0
 21 32  1  0  0  0  0
 21 20  2  0  0  0  0
 22 14  1  0  0  0  0
 22 23  2  0  0  0  0
 24 13  1  0  0  0  0
 26 15  1  0  0  0  0
 28 17  1  0  0  0  0
 29 18  1  0  0  0  0
 33 43  1  0  0  0  0
 33 42  1  0  0  0  0
 34 33  1  0  0  0  0
 34 35  1  0  0  0  0
 35 46  1  0  0  0  0
 35 36  1  0  0  0  0
 36 48  1  0  0  0  0
 36 37  1  0  0  0  0
 37 38  1  0  0  0  0
 37 39  1  0  0  0  0
 37 49  1  1  0  0  0
 38 22  1  0  0  0  0
 39 41  2  0  0  0  0
 39 40  1  0  0  0  0
 44 33  1  0  0  0  0
 45 35  1  0  0  0  0
 47 36  1  0  0  0  0
 50 38  1  0  0  0  0
M  END
$$$$
