SFN.pdb
 OpenBabel07022419093D

 47 47  0  0  1  0  0  0  0  0999 V2000
    3.3730   -5.8360    0.6890 O   0  0  0  0  0  0  0  0  0  0  0  0
    2.5180   -4.7440    0.7000 C   0  0  0  0  0  0  0  0  0  0  0  0
    2.9010   -3.8360    1.8430 C   0  0  2  0  0  0  0  0  0  0  0  0
    2.7680   -4.6140    3.0590 N   0  0  0  0  0  0  0  0  0  0  0  0
    2.0400   -2.6560    1.9590 C   0  0  0  0  0  0  0  0  0  0  0  0
    1.3390   -2.4700    3.0110 O   0  0  0  0  0  0  0  0  0  0  0  0
    2.8320   -6.6470    0.8550 H   0  0  0  0  0  0  0  0  0  0  0  0
    2.5840   -4.2490   -0.2820 H   0  0  0  0  0  0  0  0  0  0  0  0
    1.4700   -5.0620    0.8490 H   0  0  0  0  0  0  0  0  0  0  0  0
    3.9770   -3.5270    1.7780 H   0  0  0  0  0  0  0  0  0  0  0  0
    1.7980   -4.4610    3.4140 H   0  0  0  0  0  0  0  0  0  0  0  0
    3.4180   -4.2400    3.7810 H   0  0  0  0  0  0  0  0  0  0  0  0
    1.9100   -1.6640    0.9670 N   0  0  0  0  0  0  0  0  0  0  0  0
    1.0080   -0.4820    1.1540 C   0  0  1  0  0  0  0  0  0  0  0  0
    1.8420    0.7390    1.1890 C   0  0  0  0  0  0  0  0  0  0  0  0
    1.1310    2.0080    1.3760 C   0  0  0  0  0  0  0  0  0  0  0  0
    0.7510    2.8270    0.3480 C   0  0  0  0  0  0  0  0  0  0  0  0
    0.0930    4.0050    0.5780 C   0  0  0  0  0  0  0  0  0  0  0  0
   -0.2100    4.4060    1.8630 C   0  0  0  0  0  0  0  0  0  0  0  0
    0.1590    3.6030    2.9110 C   0  0  0  0  0  0  0  0  0  0  0  0
    0.8160    2.4300    2.6680 C   0  0  0  0  0  0  0  0  0  0  0  0
    0.0030   -0.6220    0.1050 C   0  0  0  0  0  0  0  0  0  0  0  0
    0.1240   -1.5100   -0.7990 O   0  0  0  0  0  0  0  0  0  0  0  0
    2.4430   -1.7490    0.0970 H   0  0  0  0  0  0  0  0  0  0  0  0
    0.5490   -0.5930    2.1750 H   0  0  0  0  0  0  0  0  0  0  0  0
    2.5230    0.6400    2.0930 H   0  0  0  0  0  0  0  0  0  0  0  0
    2.5810    0.7950    0.3460 H   0  0  0  0  0  0  0  0  0  0  0  0
    0.9660    2.5560   -0.6740 H   0  0  0  0  0  0  0  0  0  0  0  0
   -0.2140    4.6680   -0.2490 H   0  0  0  0  0  0  0  0  0  0  0  0
   -0.7270    5.3300    2.0720 H   0  0  0  0  0  0  0  0  0  0  0  0
   -0.0810    3.9190    3.9380 H   0  0  0  0  0  0  0  0  0  0  0  0
    1.0910    1.8250    3.5220 H   0  0  0  0  0  0  0  0  0  0  0  0
   -3.9620   -2.8410   -0.3740 N   0  0  0  0  0  0  0  0  0  0  0  0
   -3.5570   -1.6170    0.2220 C   0  0  0  0  0  0  0  0  0  0  0  0
   -3.2110   -1.5720    1.4380 O   0  0  0  0  0  0  0  0  0  0  0  0
   -3.5110   -0.3320   -0.5160 C   0  0  0  0  0  0  0  0  0  0  0  0
   -2.1470    0.0300   -1.0060 C   0  0  2  0  0  0  0  0  0  0  0  0
   -1.1530    0.1780    0.0060 N   0  0  0  0  0  0  0  0  0  0  0  0
   -2.2630    1.2480   -1.8200 C   0  0  0  0  0  0  0  0  0  0  0  0
   -1.6080    2.3040   -1.6870 O   0  0  0  0  0  0  0  0  0  0  0  0
   -3.2010    1.2810   -2.8780 O   0  0  0  0  0  0  0  0  0  0  0  0
   -4.6960   -3.4280    0.0570 H   0  0  0  0  0  0  0  0  0  0  0  0
   -3.5380   -3.1940   -1.2640 H   0  0  0  0  0  0  0  0  0  0  0  0
   -4.1480   -0.4740   -1.4210 H   0  0  0  0  0  0  0  0  0  0  0  0
   -3.9750    0.5050    0.0440 H   0  0  0  0  0  0  0  0  0  0  0  0
   -1.8000   -0.8030   -1.6780 H   0  0  0  0  0  0  0  0  0  0  0  0
   -1.3020    0.9140    0.7190 H   0  0  0  0  0  0  0  0  0  0  0  0
  1  2  1  0  0  0  0
  1  7  1  0  0  0  0
  2  9  1  0  0  0  0
  2  3  1  0  0  0  0
  3 10  1  6  0  0  0
  3  5  1  0  0  0  0
  3  4  1  0  0  0  0
  4 11  1  0  0  0  0
  4 12  1  0  0  0  0
  5  6  2  0  0  0  0
  8  2  1  0  0  0  0
 13 14  1  0  0  0  0
 13  5  1  0  0  0  0
 14 15  1  0  0  0  0
 14 25  1  1  0  0  0
 15 16  1  0  0  0  0
 15 26  1  0  0  0  0
 16 21  1  0  0  0  0
 17 18  1  0  0  0  0
 17 16  2  0  0  0  0
 18 19  2  0  0  0  0
 19 30  1  0  0  0  0
 19 20  1  0  0  0  0
 20 31  1  0  0  0  0
 21 20  2  0  0  0  0
 21 32  1  0  0  0  0
 22 14  1  0  0  0  0
 23 22  2  0  0  0  0
 24 13  1  0  0  0  0
 27 15  1  0  0  0  0
 28 17  1  0  0  0  0
 29 18  1  0  0  0  0
 33 42  1  0  0  0  0
 33 34  1  0  0  0  0
 34 35  2  0  0  0  0
 36 45  1  0  0  0  0
 36 34  1  0  0  0  0
 37 46  1  6  0  0  0
 37 36  1  0  0  0  0
 37 38  1  0  0  0  0
 38 22  1  0  0  0  0
 38 47  1  0  0  0  0
 39 40  1  0  0  0  0
 39 37  1  0  0  0  0
 41 39  2  0  0  0  0
 43 33  1  0  0  0  0
 44 36  1  0  0  0  0
M  END
$$$$
