SFR.pdb
 OpenBabel07022419093D

 56 56  0  0  1  0  0  0  0  0999 V2000
    5.2870   -0.4960    2.5340 O   0  0  0  0  0  0  0  0  0  0  0  0
    4.7470    0.1360    1.4150 C   0  0  0  0  0  0  0  0  0  0  0  0
    3.7350   -0.7800    0.7100 C   0  0  2  0  0  0  0  0  0  0  0  0
    3.2230   -0.0560   -0.4340 N   0  0  0  0  0  0  0  0  0  0  0  0
    2.6300   -1.0510    1.6610 C   0  0  0  0  0  0  0  0  0  0  0  0
    2.8620   -1.6960    2.7450 O   0  0  0  0  0  0  0  0  0  0  0  0
    4.8020   -0.2410    3.3710 H   0  0  0  0  0  0  0  0  0  0  0  0
    5.5760    0.3720    0.7040 H   0  0  0  0  0  0  0  0  0  0  0  0
    4.2560    1.0890    1.6880 H   0  0  0  0  0  0  0  0  0  0  0  0
    4.2350   -1.7020    0.3740 H   0  0  0  0  0  0  0  0  0  0  0  0
    2.8800    0.8900   -0.1820 H   0  0  0  0  0  0  0  0  0  0  0  0
    2.5440   -0.6170   -0.9770 H   0  0  0  0  0  0  0  0  0  0  0  0
    1.3310   -0.5880    1.3520 N   0  0  0  0  0  0  0  0  0  0  0  0
    0.1970   -0.7970    2.2030 C   0  0  1  0  0  0  0  0  0  0  0  0
   -0.3760    0.4000    2.8360 C   0  0  0  0  0  0  0  0  0  0  0  0
   -0.8690    1.4780    1.9780 C   0  0  0  0  0  0  0  0  0  0  0  0
   -2.1760    1.6220    1.5950 C   0  0  0  0  0  0  0  0  0  0  0  0
   -2.5700    2.6520    0.7850 C   0  0  0  0  0  0  0  0  0  0  0  0
   -1.6550    3.5760    0.3340 C   0  0  0  0  0  0  0  0  0  0  0  0
   -0.3330    3.4600    0.7010 C   0  0  0  0  0  0  0  0  0  0  0  0
    0.0390    2.4190    1.5130 C   0  0  0  0  0  0  0  0  0  0  0  0
   -0.7670   -1.8110    1.6870 C   0  0  0  0  0  0  0  0  0  0  0  0
   -1.8640   -2.0080    2.2570 O   0  0  0  0  0  0  0  0  0  0  0  0
    1.1920   -0.0670    0.4590 H   0  0  0  0  0  0  0  0  0  0  0  0
    0.6700   -1.4010    3.0960 H   0  0  0  0  0  0  0  0  0  0  0  0
   -1.1890    0.1120    3.5760 H   0  0  0  0  0  0  0  0  0  0  0  0
    0.3980    0.8770    3.5140 H   0  0  0  0  0  0  0  0  0  0  0  0
   -2.9130    0.9070    1.9440 H   0  0  0  0  0  0  0  0  0  0  0  0
   -3.6270    2.7700    0.4740 H   0  0  0  0  0  0  0  0  0  0  0  0
   -2.0040    4.3880   -0.3130 H   0  0  0  0  0  0  0  0  0  0  0  0
    0.3750    4.2030    0.3330 H   0  0  0  0  0  0  0  0  0  0  0  0
    1.0910    2.3750    1.7720 H   0  0  0  0  0  0  0  0  0  0  0  0
   -3.6390   -0.4880   -0.3410 N   0  0  0  0  0  0  0  0  0  0  0  0
   -2.8910   -0.4310   -1.5490 C   0  0  0  0  0  0  0  0  0  0  0  0
   -3.4440   -0.1490   -2.6730 N   0  0  0  0  0  0  0  0  0  0  0  0
   -1.4790   -0.7000   -1.5020 N   0  0  0  0  0  0  0  0  0  0  0  0
   -0.9070   -1.5270   -2.5800 C   0  0  0  0  0  0  0  0  0  0  0  0
   -1.4040   -2.9140   -2.5430 C   0  0  0  0  0  0  0  0  0  0  0  0
   -1.0810   -3.8510   -1.4910 C   0  0  0  0  0  0  0  0  0  0  0  0
   -1.2620   -3.6230   -0.0520 C   0  0  2  0  0  0  0  0  0  0  0  0
   -0.4800   -2.5940    0.5510 N   0  0  0  0  0  0  0  0  0  0  0  0
   -0.8050   -4.9320    0.5990 C   0  0  0  0  0  0  0  0  0  0  0  0
   -1.3170   -6.0190    0.2710 O   0  0  0  0  0  0  0  0  0  0  0  0
    0.1830   -4.8440    1.5490 O   0  0  0  0  0  0  0  0  0  0  0  0
   -4.2000    0.3310   -0.0090 H   0  0  0  0  0  0  0  0  0  0  0  0
   -3.6590   -1.3300    0.2470 H   0  0  0  0  0  0  0  0  0  0  0  0
   -2.9010   -0.1090   -3.5440 H   0  0  0  0  0  0  0  0  0  0  0  0
   -0.9030   -0.3030   -0.7450 H   0  0  0  0  0  0  0  0  0  0  0  0
    0.2000   -1.5090   -2.4150 H   0  0  0  0  0  0  0  0  0  0  0  0
   -1.1270   -1.0070   -3.5260 H   0  0  0  0  0  0  0  0  0  0  0  0
   -2.5260   -2.9140   -2.7700 H   0  0  0  0  0  0  0  0  0  0  0  0
   -1.0180   -3.3910   -3.5230 H   0  0  0  0  0  0  0  0  0  0  0  0
   -1.6880   -4.8100   -1.7200 H   0  0  0  0  0  0  0  0  0  0  0  0
   -0.0020   -4.2080   -1.6290 H   0  0  0  0  0  0  0  0  0  0  0  0
   -2.3370   -3.5450    0.2870 H   0  0  0  0  0  0  0  0  0  0  0  0
    0.4520   -2.3830    0.0820 H   0  0  0  0  0  0  0  0  0  0  0  0
  1  7  1  0  0  0  0
  2  9  1  0  0  0  0
  2  1  1  0  0  0  0
  3 10  1  6  0  0  0
  3  2  1  0  0  0  0
  3  5  1  0  0  0  0
  4 11  1  0  0  0  0
  4  3  1  0  0  0  0
  5  6  2  0  0  0  0
  8  2  1  0  0  0  0
 12  4  1  0  0  0  0
 13  5  1  0  0  0  0
 13 14  1  0  0  0  0
 14 15  1  0  0  0  0
 14 25  1  1  0  0  0
 15 27  1  0  0  0  0
 15 26  1  0  0  0  0
 16 15  1  0  0  0  0
 17 28  1  0  0  0  0
 17 16  1  0  0  0  0
 18 17  2  0  0  0  0
 19 20  2  0  0  0  0
 19 18  1  0  0  0  0
 20 21  1  0  0  0  0
 21 32  1  0  0  0  0
 21 16  2  0  0  0  0
 22 14  1  0  0  0  0
 22 23  2  0  0  0  0
 24 13  1  0  0  0  0
 29 18  1  0  0  0  0
 30 19  1  0  0  0  0
 31 20  1  0  0  0  0
 33 45  1  0  0  0  0
 33 46  1  0  0  0  0
 34 36  1  0  0  0  0
 34 33  1  0  0  0  0
 35 34  2  0  0  0  0
 36 48  1  0  0  0  0
 37 38  1  0  0  0  0
 37 49  1  0  0  0  0
 37 36  1  0  0  0  0
 38 39  1  0  0  0  0
 39 40  1  0  0  0  0
 40 55  1  1  0  0  0
 40 41  1  0  0  0  0
 40 42  1  0  0  0  0
 41 22  1  0  0  0  0
 42 44  1  0  0  0  0
 43 42  2  0  0  0  0
 47 35  1  0  0  0  0
 50 37  1  0  0  0  0
 51 38  1  0  0  0  0
 52 38  1  0  0  0  0
 53 39  1  0  0  0  0
 54 39  1  0  0  0  0
 56 41  1  0  0  0  0
M  END
$$$$
