SFS.pdb
 OpenBabel07022419093D

 44 44  0  0  1  0  0  0  0  0999 V2000
    3.4320   -3.5010    3.0430 O   0  0  0  0  0  0  0  0  0  0  0  0
    3.0800   -2.2100    2.6240 C   0  0  0  0  0  0  0  0  0  0  0  0
    1.5910   -2.2330    2.3540 C   0  0  2  0  0  0  0  0  0  0  0  0
    1.3410   -3.2010    1.3340 N   0  0  0  0  0  0  0  0  0  0  0  0
    1.0440   -0.8970    2.0650 C   0  0  0  0  0  0  0  0  0  0  0  0
    1.2280    0.0060    2.9210 O   0  0  0  0  0  0  0  0  0  0  0  0
    2.7750   -4.1780    2.6820 H   0  0  0  0  0  0  0  0  0  0  0  0
    3.6580   -2.0480    1.6710 H   0  0  0  0  0  0  0  0  0  0  0  0
    3.3690   -1.5100    3.4190 H   0  0  0  0  0  0  0  0  0  0  0  0
    1.1150   -2.5740    3.3190 H   0  0  0  0  0  0  0  0  0  0  0  0
    0.3050   -3.3650    1.2970 H   0  0  0  0  0  0  0  0  0  0  0  0
    1.6040   -2.7770    0.4060 H   0  0  0  0  0  0  0  0  0  0  0  0
    0.3270   -0.5530    0.8950 N   0  0  0  0  0  0  0  0  0  0  0  0
   -0.2030    0.7720    0.6330 C   0  0  1  0  0  0  0  0  0  0  0  0
    0.4740    1.3220   -0.6030 C   0  0  0  0  0  0  0  0  0  0  0  0
    1.9410    1.3670   -0.2940 C   0  0  0  0  0  0  0  0  0  0  0  0
    2.7850    0.3150   -0.5540 C   0  0  0  0  0  0  0  0  0  0  0  0
    4.1410    0.4090   -0.2470 C   0  0  0  0  0  0  0  0  0  0  0  0
    4.6770    1.5470    0.3220 C   0  0  0  0  0  0  0  0  0  0  0  0
    3.8280    2.6010    0.5820 C   0  0  0  0  0  0  0  0  0  0  0  0
    2.4880    2.5000    0.2750 C   0  0  0  0  0  0  0  0  0  0  0  0
   -1.6730    0.6530    0.4550 C   0  0  0  0  0  0  0  0  0  0  0  0
   -2.3510    1.7050    0.2130 O   0  0  0  0  0  0  0  0  0  0  0  0
    0.1760   -1.2900    0.1940 H   0  0  0  0  0  0  0  0  0  0  0  0
    0.0220    1.4780    1.4570 H   0  0  0  0  0  0  0  0  0  0  0  0
    0.3120    0.6590   -1.4630 H   0  0  0  0  0  0  0  0  0  0  0  0
    0.0870    2.3520   -0.7800 H   0  0  0  0  0  0  0  0  0  0  0  0
    2.3850   -0.5840   -0.9990 H   0  0  0  0  0  0  0  0  0  0  0  0
    4.8110   -0.4330   -0.4560 H   0  0  0  0  0  0  0  0  0  0  0  0
    5.7400    1.6300    0.5660 H   0  0  0  0  0  0  0  0  0  0  0  0
    4.2290    3.5120    1.0320 H   0  0  0  0  0  0  0  0  0  0  0  0
    1.8010    3.3280    0.4760 H   0  0  0  0  0  0  0  0  0  0  0  0
   -3.6150   -1.0090   -1.9780 O   0  0  0  0  0  0  0  0  0  0  0  0
   -4.1280   -1.5850   -0.8390 C   0  0  0  0  0  0  0  0  0  0  0  0
   -3.7900   -0.7100    0.3700 C   0  0  2  0  0  0  0  0  0  0  0  0
   -2.3800   -0.5620    0.5360 N   0  0  0  0  0  0  0  0  0  0  0  0
   -4.4560   -1.2350    1.5910 C   0  0  0  0  0  0  0  0  0  0  0  0
   -5.6980   -1.4300    1.6310 O   0  0  0  0  0  0  0  0  0  0  0  0
   -3.7400   -1.5350    2.7480 O   0  0  0  0  0  0  0  0  0  0  0  0
   -2.6330   -1.0860   -2.0580 H   0  0  0  0  0  0  0  0  0  0  0  0
   -5.2310   -1.6160   -0.9460 H   0  0  0  0  0  0  0  0  0  0  0  0
   -3.7770   -2.6190   -0.7020 H   0  0  0  0  0  0  0  0  0  0  0  0
   -4.2430    0.2820    0.1660 H   0  0  0  0  0  0  0  0  0  0  0  0
   -1.8190   -1.4270    0.7350 H   0  0  0  0  0  0  0  0  0  0  0  0
  2  1  1  0  0  0  0
  2  9  1  0  0  0  0
  3  2  1  0  0  0  0
  3 10  1  1  0  0  0
  4  3  1  0  0  0  0
  5  3  1  0  0  0  0
  5  6  2  0  0  0  0
  7  1  1  0  0  0  0
  8  2  1  0  0  0  0
 11  4  1  0  0  0  0
 12  4  1  0  0  0  0
 13  5  1  0  0  0  0
 14 13  1  0  0  0  0
 14 25  1  1  0  0  0
 15 16  1  0  0  0  0
 15 14  1  0  0  0  0
 16 21  1  0  0  0  0
 17 16  2  0  0  0  0
 17 18  1  0  0  0  0
 18 19  2  0  0  0  0
 19 30  1  0  0  0  0
 19 20  1  0  0  0  0
 20 31  1  0  0  0  0
 21 32  1  0  0  0  0
 21 20  2  0  0  0  0
 22 36  1  0  0  0  0
 22 14  1  0  0  0  0
 23 22  2  0  0  0  0
 24 13  1  0  0  0  0
 26 15  1  0  0  0  0
 27 15  1  0  0  0  0
 28 17  1  0  0  0  0
 29 18  1  0  0  0  0
 33 34  1  0  0  0  0
 34 42  1  0  0  0  0
 34 35  1  0  0  0  0
 35 43  1  6  0  0  0
 35 36  1  0  0  0  0
 35 37  1  0  0  0  0
 36 44  1  0  0  0  0
 37 38  2  0  0  0  0
 37 39  1  0  0  0  0
 40 33  1  0  0  0  0
 41 34  1  0  0  0  0
M  END
$$$$
