SFV.pdb
 OpenBabel07022419093D

 49 49  0  0  1  0  0  0  0  0999 V2000
   -0.4660   -0.1940    5.8120 O   0  0  0  0  0  0  0  0  0  0  0  0
    0.2000    0.2580    4.6920 C   0  0  0  0  0  0  0  0  0  0  0  0
   -0.7090   -0.0400    3.4930 C   0  0  2  0  0  0  0  0  0  0  0  0
   -0.9510   -1.4470    3.4050 N   0  0  0  0  0  0  0  0  0  0  0  0
   -0.0720    0.5090    2.2620 C   0  0  0  0  0  0  0  0  0  0  0  0
    0.1910    1.7390    2.2130 O   0  0  0  0  0  0  0  0  0  0  0  0
    0.1640   -0.2610    6.5880 H   0  0  0  0  0  0  0  0  0  0  0  0
    1.1410   -0.2950    4.4890 H   0  0  0  0  0  0  0  0  0  0  0  0
    0.3610    1.3440    4.7100 H   0  0  0  0  0  0  0  0  0  0  0  0
   -1.6690    0.5000    3.6220 H   0  0  0  0  0  0  0  0  0  0  0  0
   -0.8960   -1.9520    4.3020 H   0  0  0  0  0  0  0  0  0  0  0  0
   -1.8470   -1.7050    2.9540 H   0  0  0  0  0  0  0  0  0  0  0  0
    0.2560   -0.2730    1.1420 N   0  0  0  0  0  0  0  0  0  0  0  0
    0.8740    0.3000   -0.0320 C   0  0  1  0  0  0  0  0  0  0  0  0
    2.2490   -0.2810   -0.2740 C   0  0  0  0  0  0  0  0  0  0  0  0
    3.0680    0.0320    0.9330 C   0  0  0  0  0  0  0  0  0  0  0  0
    3.1160   -0.8320    2.0040 C   0  0  0  0  0  0  0  0  0  0  0  0
    3.8730   -0.5540    3.1310 C   0  0  0  0  0  0  0  0  0  0  0  0
    4.6130    0.6130    3.2170 C   0  0  0  0  0  0  0  0  0  0  0  0
    4.5660    1.4680    2.1560 C   0  0  0  0  0  0  0  0  0  0  0  0
    3.8090    1.1950    1.0240 C   0  0  0  0  0  0  0  0  0  0  0  0
   -0.0420    0.0740   -1.1770 C   0  0  0  0  0  0  0  0  0  0  0  0
    0.2630    0.4790   -2.3300 O   0  0  0  0  0  0  0  0  0  0  0  0
    0.0570   -1.2920    1.1410 H   0  0  0  0  0  0  0  0  0  0  0  0
    1.0100    1.3880    0.1450 H   0  0  0  0  0  0  0  0  0  0  0  0
    2.6660    0.2480   -1.1550 H   0  0  0  0  0  0  0  0  0  0  0  0
    2.2510   -1.3710   -0.4050 H   0  0  0  0  0  0  0  0  0  0  0  0
    2.5310   -1.7430    1.9230 H   0  0  0  0  0  0  0  0  0  0  0  0
    3.8710   -1.2770    3.9460 H   0  0  0  0  0  0  0  0  0  0  0  0
    5.1940    0.7960    4.1160 H   0  0  0  0  0  0  0  0  0  0  0  0
    5.1480    2.3840    2.2250 H   0  0  0  0  0  0  0  0  0  0  0  0
    3.8050    1.9100    0.2070 H   0  0  0  0  0  0  0  0  0  0  0  0
   -0.8860   -2.8780   -2.6320 C   0  0  0  0  0  0  0  0  0  0  0  0
   -2.2600   -2.3380   -2.2870 C   0  0  0  0  0  0  0  0  0  0  0  0
   -3.1960   -2.7600   -3.3800 C   0  0  0  0  0  0  0  0  0  0  0  0
   -2.1980   -0.8410   -2.1010 C   0  0  2  0  0  0  0  0  0  0  0  0
   -1.2640   -0.5920   -1.0140 N   0  0  0  0  0  0  0  0  0  0  0  0
   -3.5040   -0.2300   -1.8700 C   0  0  0  0  0  0  0  0  0  0  0  0
   -4.4150   -0.3580   -2.7270 O   0  0  0  0  0  0  0  0  0  0  0  0
   -3.8180    0.5080   -0.7280 O   0  0  0  0  0  0  0  0  0  0  0  0
   -0.3650   -2.2270   -3.3690 H   0  0  0  0  0  0  0  0  0  0  0  0
   -0.9940   -3.8650   -3.1180 H   0  0  0  0  0  0  0  0  0  0  0  0
   -0.2690   -3.0350   -1.7170 H   0  0  0  0  0  0  0  0  0  0  0  0
   -2.5850   -2.8300   -1.3550 H   0  0  0  0  0  0  0  0  0  0  0  0
   -2.9020   -2.3200   -4.3720 H   0  0  0  0  0  0  0  0  0  0  0  0
   -3.0260   -3.8680   -3.5210 H   0  0  0  0  0  0  0  0  0  0  0  0
   -4.2570   -2.6480   -3.1510 H   0  0  0  0  0  0  0  0  0  0  0  0
   -1.7520   -0.4130   -3.0260 H   0  0  0  0  0  0  0  0  0  0  0  0
   -1.5420   -0.9380   -0.0740 H   0  0  0  0  0  0  0  0  0  0  0  0
  1  7  1  0  0  0  0
  2  9  1  0  0  0  0
  2  1  1  0  0  0  0
  3 10  1  1  0  0  0
  3  2  1  0  0  0  0
  4  3  1  0  0  0  0
  4 11  1  0  0  0  0
  5  3  1  0  0  0  0
  6  5  2  0  0  0  0
  8  2  1  0  0  0  0
 12  4  1  0  0  0  0
 13  5  1  0  0  0  0
 14 25  1  1  0  0  0
 14 13  1  0  0  0  0
 15 14  1  0  0  0  0
 15 16  1  0  0  0  0
 16 21  2  0  0  0  0
 16 17  1  0  0  0  0
 17 18  2  0  0  0  0
 18 19  1  0  0  0  0
 18 29  1  0  0  0  0
 19 30  1  0  0  0  0
 20 31  1  0  0  0  0
 20 19  2  0  0  0  0
 21 20  1  0  0  0  0
 22 37  1  0  0  0  0
 22 14  1  0  0  0  0
 23 22  2  0  0  0  0
 24 13  1  0  0  0  0
 26 15  1  0  0  0  0
 27 15  1  0  0  0  0
 28 17  1  0  0  0  0
 32 21  1  0  0  0  0
 33 34  1  0  0  0  0
 33 43  1  0  0  0  0
 34 36  1  0  0  0  0
 34 44  1  0  0  0  0
 35 47  1  0  0  0  0
 35 34  1  0  0  0  0
 36 48  1  6  0  0  0
 36 38  1  0  0  0  0
 36 37  1  0  0  0  0
 37 49  1  0  0  0  0
 38 40  1  0  0  0  0
 39 38  2  0  0  0  0
 41 33  1  0  0  0  0
 42 33  1  0  0  0  0
 45 35  1  0  0  0  0
 46 35  1  0  0  0  0
M  END
$$$$
