SGA.pdb
 OpenBabel07022419073D

 30 29  0  0  1  0  0  0  0  0999 V2000
   -0.0700   -1.8310    5.2840 O   0  0  0  0  0  0  0  0  0  0  0  0
    0.7540   -1.4590    4.2320 C   0  0  0  0  0  0  0  0  0  0  0  0
   -0.0220   -1.5080    2.9190 C   0  0  2  0  0  0  0  0  0  0  0  0
   -0.4720   -2.8870    2.7610 N   0  0  0  0  0  0  0  0  0  0  0  0
    0.8940   -1.1650    1.7970 C   0  0  0  0  0  0  0  0  0  0  0  0
    1.3990   -0.0100    1.7460 O   0  0  0  0  0  0  0  0  0  0  0  0
   -0.8990   -1.2880    5.2280 H   0  0  0  0  0  0  0  0  0  0  0  0
    1.0940   -0.4020    4.4190 H   0  0  0  0  0  0  0  0  0  0  0  0
    1.6440   -2.1180    4.1810 H   0  0  0  0  0  0  0  0  0  0  0  0
   -0.8940   -0.8360    2.9890 H   0  0  0  0  0  0  0  0  0  0  0  0
   -1.0870   -2.9170    1.9090 H   0  0  0  0  0  0  0  0  0  0  0  0
    0.3170   -3.5510    2.7320 H   0  0  0  0  0  0  0  0  0  0  0  0
    1.2310   -2.0830    0.7720 N   0  0  0  0  0  0  0  0  0  0  0  0
    2.1030   -1.7670   -0.3260 C   0  0  0  0  0  0  0  0  0  0  0  0
    1.5030   -0.7140   -1.1600 C   0  0  0  0  0  0  0  0  0  0  0  0
    2.1800   -0.2650   -2.1580 O   0  0  0  0  0  0  0  0  0  0  0  0
    0.8200   -3.0380    0.8220 H   0  0  0  0  0  0  0  0  0  0  0  0
    2.3540   -2.6680   -0.9300 H   0  0  0  0  0  0  0  0  0  0  0  0
    3.0660   -1.3410    0.0950 H   0  0  0  0  0  0  0  0  0  0  0  0
   -1.5410    0.2030   -2.4600 C   0  0  0  0  0  0  0  0  0  0  0  0
   -0.3450    0.8780   -1.7700 C   0  0  2  0  0  0  0  0  0  0  0  0
    0.2260   -0.1780   -0.9210 N   0  0  0  0  0  0  0  0  0  0  0  0
   -0.7980    1.9770   -0.8980 C   0  0  0  0  0  0  0  0  0  0  0  0
   -1.3180    2.9980   -1.3930 O   0  0  0  0  0  0  0  0  0  0  0  0
   -0.6590    1.9070    0.4730 O   0  0  0  0  0  0  0  0  0  0  0  0
   -2.0780    0.9720   -3.0430 H   0  0  0  0  0  0  0  0  0  0  0  0
   -1.1630   -0.6070   -3.0980 H   0  0  0  0  0  0  0  0  0  0  0  0
   -2.1790   -0.1970   -1.6580 H   0  0  0  0  0  0  0  0  0  0  0  0
    0.3540    1.1800   -2.5640 H   0  0  0  0  0  0  0  0  0  0  0  0
   -0.3870   -0.5020   -0.1560 H   0  0  0  0  0  0  0  0  0  0  0  0
  2  8  1  0  0  0  0
  2  1  1  0  0  0  0
  3 10  1  1  0  0  0
  3  2  1  0  0  0  0
  4  3  1  0  0  0  0
  5  3  1  0  0  0  0
  6  5  2  0  0  0  0
  7  1  1  0  0  0  0
  9  2  1  0  0  0  0
 11  4  1  0  0  0  0
 12  4  1  0  0  0  0
 13 17  1  0  0  0  0
 13  5  1  0  0  0  0
 14 19  1  0  0  0  0
 14 13  1  0  0  0  0
 15 22  1  0  0  0  0
 15 14  1  0  0  0  0
 16 15  2  0  0  0  0
 18 14  1  0  0  0  0
 20 21  1  0  0  0  0
 20 28  1  0  0  0  0
 21 29  1  6  0  0  0
 21 22  1  0  0  0  0
 21 23  1  0  0  0  0
 22 30  1  0  0  0  0
 23 25  1  0  0  0  0
 24 23  2  0  0  0  0
 26 20  1  0  0  0  0
 27 20  1  0  0  0  0
M  END
$$$$
