SGC.pdb
 OpenBabel07022419073D

 31 30  0  0  1  0  0  0  0  0999 V2000
   -1.0720   -1.0180    2.8430 O   0  0  0  0  0  0  0  0  0  0  0  0
   -1.7690   -2.1280    2.3970 C   0  0  0  0  0  0  0  0  0  0  0  0
   -0.8500   -3.2000    1.8740 C   0  0  2  0  0  0  0  0  0  0  0  0
    0.0570   -3.6010    2.9160 N   0  0  0  0  0  0  0  0  0  0  0  0
   -0.1950   -2.7070    0.6440 C   0  0  0  0  0  0  0  0  0  0  0  0
   -0.9550   -2.2990   -0.2750 O   0  0  0  0  0  0  0  0  0  0  0  0
   -1.4430   -0.1630    2.5640 H   0  0  0  0  0  0  0  0  0  0  0  0
   -2.4180   -1.7790    1.5590 H   0  0  0  0  0  0  0  0  0  0  0  0
   -2.4020   -2.4900    3.2380 H   0  0  0  0  0  0  0  0  0  0  0  0
   -1.4530   -4.1400    1.6390 H   0  0  0  0  0  0  0  0  0  0  0  0
    0.7620   -4.2880    2.6300 H   0  0  0  0  0  0  0  0  0  0  0  0
    0.5480   -2.7660    3.2980 H   0  0  0  0  0  0  0  0  0  0  0  0
    1.1930   -2.6630    0.4250 N   0  0  0  0  0  0  0  0  0  0  0  0
    1.8700   -2.2000   -0.7520 C   0  0  0  0  0  0  0  0  0  0  0  0
    1.6100   -0.7630   -0.9660 C   0  0  0  0  0  0  0  0  0  0  0  0
    2.0890   -0.1720   -2.0090 O   0  0  0  0  0  0  0  0  0  0  0  0
    1.7800   -3.0170    1.2330 H   0  0  0  0  0  0  0  0  0  0  0  0
    2.9810   -2.3940   -0.6610 H   0  0  0  0  0  0  0  0  0  0  0  0
    1.5340   -2.7380   -1.6710 H   0  0  0  0  0  0  0  0  0  0  0  0
    0.8610    0.0830   -0.1130 N   0  0  0  0  0  0  0  0  0  0  0  0
    0.6440    1.4910   -0.3990 C   0  0  1  0  0  0  0  0  0  0  0  0
   -0.8370    1.7680   -0.6540 C   0  0  0  0  0  0  0  0  0  0  0  0
   -0.9830    3.5500   -0.9980 S   0  0  0  0  0  0  0  0  0  0  0  0
    1.1430    2.3590    0.6870 C   0  0  0  0  0  0  0  0  0  0  0  0
    1.0260    3.6070    0.5840 O   0  0  0  0  0  0  0  0  0  0  0  0
    1.7480    1.8920    1.8460 O   0  0  0  0  0  0  0  0  0  0  0  0
    0.4680   -0.3240    0.7600 H   0  0  0  0  0  0  0  0  0  0  0  0
    1.1610    1.7070   -1.3540 H   0  0  0  0  0  0  0  0  0  0  0  0
   -1.4630    1.5290    0.2060 H   0  0  0  0  0  0  0  0  0  0  0  0
   -1.1440    1.2460   -1.5890 H   0  0  0  0  0  0  0  0  0  0  0  0
   -2.3600    3.8460   -1.1870 H   0  0  0  0  0  0  0  0  0  0  0  0
  2  1  1  0  0  0  0
  2  9  1  0  0  0  0
  3 10  1  6  0  0  0
  3  2  1  0  0  0  0
  3  4  1  0  0  0  0
  4 12  1  0  0  0  0
  5  3  1  0  0  0  0
  6  5  2  0  0  0  0
  7  1  1  0  0  0  0
  8  2  1  0  0  0  0
 11  4  1  0  0  0  0
 13  5  1  0  0  0  0
 13 17  1  0  0  0  0
 14 18  1  0  0  0  0
 14 13  1  0  0  0  0
 15 14  1  0  0  0  0
 15 20  1  0  0  0  0
 16 15  2  0  0  0  0
 19 14  1  0  0  0  0
 20 27  1  0  0  0  0
 21 28  1  6  0  0  0
 21 20  1  0  0  0  0
 21 24  1  0  0  0  0
 22 21  1  0  0  0  0
 22 29  1  0  0  0  0
 23 22  1  0  0  0  0
 24 26  1  0  0  0  0
 25 24  2  0  0  0  0
 30 22  1  0  0  0  0
 31 23  1  0  0  0  0
M  END
$$$$
