SGF.pdb
 OpenBabel07022419073D

 40 40  0  0  1  0  0  0  0  0999 V2000
   -1.2430   -5.4440   -3.3830 O   0  0  0  0  0  0  0  0  0  0  0  0
   -0.8210   -4.1380   -3.2850 C   0  0  0  0  0  0  0  0  0  0  0  0
    0.0270   -3.9400   -2.0220 C   0  0  2  0  0  0  0  0  0  0  0  0
   -0.7940   -4.2750   -0.8880 N   0  0  0  0  0  0  0  0  0  0  0  0
    0.4570   -2.5100   -1.9540 C   0  0  0  0  0  0  0  0  0  0  0  0
    1.1780   -1.9880   -2.8300 O   0  0  0  0  0  0  0  0  0  0  0  0
   -1.4340   -5.8180   -2.4950 H   0  0  0  0  0  0  0  0  0  0  0  0
   -0.1290   -3.9360   -4.1380 H   0  0  0  0  0  0  0  0  0  0  0  0
   -1.6720   -3.4280   -3.2910 H   0  0  0  0  0  0  0  0  0  0  0  0
    0.9200   -4.5750   -2.0850 H   0  0  0  0  0  0  0  0  0  0  0  0
   -1.8090   -4.0760   -1.0650 H   0  0  0  0  0  0  0  0  0  0  0  0
   -0.7400   -5.2840   -0.6490 H   0  0  0  0  0  0  0  0  0  0  0  0
    0.0460   -1.6940   -0.8660 N   0  0  0  0  0  0  0  0  0  0  0  0
    0.4270   -0.3030   -0.7410 C   0  0  0  0  0  0  0  0  0  0  0  0
   -0.1750    0.2290    0.5010 C   0  0  0  0  0  0  0  0  0  0  0  0
   -0.8700   -0.5210    1.2160 O   0  0  0  0  0  0  0  0  0  0  0  0
   -0.5670   -2.1720   -0.1390 H   0  0  0  0  0  0  0  0  0  0  0  0
    0.1050    0.2970   -1.6240 H   0  0  0  0  0  0  0  0  0  0  0  0
    1.5480   -0.2380   -0.7080 H   0  0  0  0  0  0  0  0  0  0  0  0
    0.0010    1.5760    0.9310 N   0  0  0  0  0  0  0  0  0  0  0  0
   -0.5880    2.1010    2.1490 C   0  0  1  0  0  0  0  0  0  0  0  0
    0.5520    2.5010    3.0840 C   0  0  0  0  0  0  0  0  0  0  0  0
    1.4120    1.3670    3.4220 C   0  0  0  0  0  0  0  0  0  0  0  0
    2.5060    1.0950    2.6170 C   0  0  0  0  0  0  0  0  0  0  0  0
    3.3210    0.0330    2.9240 C   0  0  0  0  0  0  0  0  0  0  0  0
    3.0650   -0.7690    4.0270 C   0  0  0  0  0  0  0  0  0  0  0  0
    1.9690   -0.4720    4.8070 C   0  0  0  0  0  0  0  0  0  0  0  0
    1.1210    0.5840    4.5380 C   0  0  0  0  0  0  0  0  0  0  0  0
   -1.4580    3.2660    1.8840 C   0  0  0  0  0  0  0  0  0  0  0  0
   -2.0470    3.8410    2.8350 O   0  0  0  0  0  0  0  0  0  0  0  0
   -1.6740    3.7810    0.6140 O   0  0  0  0  0  0  0  0  0  0  0  0
    0.5870    2.1780    0.3130 H   0  0  0  0  0  0  0  0  0  0  0  0
   -1.1760    1.3390    2.6880 H   0  0  0  0  0  0  0  0  0  0  0  0
    0.0810    2.9800    3.9680 H   0  0  0  0  0  0  0  0  0  0  0  0
    1.1730    3.3030    2.6010 H   0  0  0  0  0  0  0  0  0  0  0  0
    2.7280    1.7060    1.7510 H   0  0  0  0  0  0  0  0  0  0  0  0
    4.1920   -0.2380    2.3420 H   0  0  0  0  0  0  0  0  0  0  0  0
    3.6970   -1.6100    4.2830 H   0  0  0  0  0  0  0  0  0  0  0  0
    1.7710   -1.1050    5.6720 H   0  0  0  0  0  0  0  0  0  0  0  0
    0.2640    0.8070    5.1580 H   0  0  0  0  0  0  0  0  0  0  0  0
  1  2  1  0  0  0  0
  1  7  1  0  0  0  0
  2  3  1  0  0  0  0
  3 10  1  6  0  0  0
  3  5  1  0  0  0  0
  3  4  1  0  0  0  0
  4 12  1  0  0  0  0
  5 13  1  0  0  0  0
  6  5  2  0  0  0  0
  8  2  1  0  0  0  0
  9  2  1  0  0  0  0
 11  4  1  0  0  0  0
 13 14  1  0  0  0  0
 13 17  1  0  0  0  0
 14 19  1  0  0  0  0
 14 15  1  0  0  0  0
 15 20  1  0  0  0  0
 15 16  2  0  0  0  0
 18 14  1  0  0  0  0
 20 21  1  0  0  0  0
 21 33  1  1  0  0  0
 21 22  1  0  0  0  0
 22 23  1  0  0  0  0
 22 34  1  0  0  0  0
 23 28  1  0  0  0  0
 24 25  1  0  0  0  0
 24 23  2  0  0  0  0
 25 26  2  0  0  0  0
 26 38  1  0  0  0  0
 26 27  1  0  0  0  0
 27 39  1  0  0  0  0
 28 27  2  0  0  0  0
 28 40  1  0  0  0  0
 29 21  1  0  0  0  0
 29 30  1  0  0  0  0
 31 29  2  0  0  0  0
 32 20  1  0  0  0  0
 35 22  1  0  0  0  0
 36 24  1  0  0  0  0
 37 25  1  0  0  0  0
M  END
$$$$
