SGH.pdb
 OpenBabel07022419073D

 37 37  0  0  1  0  0  0  0  0999 V2000
   -0.8120   -3.5040    2.5750 O   0  0  0  0  0  0  0  0  0  0  0  0
   -0.1670   -4.6750    2.2460 C   0  0  0  0  0  0  0  0  0  0  0  0
   -0.1090   -4.8600    0.7430 C   0  0  2  0  0  0  0  0  0  0  0  0
    0.5900   -6.1270    0.4680 N   0  0  0  0  0  0  0  0  0  0  0  0
    0.7000   -3.8070    0.0810 C   0  0  0  0  0  0  0  0  0  0  0  0
    1.7710   -4.0360   -0.5510 O   0  0  0  0  0  0  0  0  0  0  0  0
   -0.2240   -2.8760    3.0840 H   0  0  0  0  0  0  0  0  0  0  0  0
    0.8570   -4.7210    2.6940 H   0  0  0  0  0  0  0  0  0  0  0  0
   -0.7360   -5.5270    2.6680 H   0  0  0  0  0  0  0  0  0  0  0  0
   -1.1350   -4.9060    0.3580 H   0  0  0  0  0  0  0  0  0  0  0  0
    0.6030   -6.2520   -0.5720 H   0  0  0  0  0  0  0  0  0  0  0  0
    1.5350   -6.0280    0.8660 H   0  0  0  0  0  0  0  0  0  0  0  0
    0.2930   -2.4250    0.1270 N   0  0  0  0  0  0  0  0  0  0  0  0
    1.0410   -1.3920   -0.4930 C   0  0  0  0  0  0  0  0  0  0  0  0
    0.5200   -0.0250   -0.3750 C   0  0  0  0  0  0  0  0  0  0  0  0
    1.2210    0.8720   -0.9450 O   0  0  0  0  0  0  0  0  0  0  0  0
   -0.5770   -2.2320    0.6380 H   0  0  0  0  0  0  0  0  0  0  0  0
    2.0570   -1.3740    0.0040 H   0  0  0  0  0  0  0  0  0  0  0  0
    1.2710   -1.6530   -1.5690 H   0  0  0  0  0  0  0  0  0  0  0  0
   -0.6390    0.4000    0.2800 N   0  0  0  0  0  0  0  0  0  0  0  0
   -1.1870    1.6940    0.4570 C   0  0  1  0  0  0  0  0  0  0  0  0
   -0.3950    2.8640   -0.0710 C   0  0  0  0  0  0  0  0  0  0  0  0
    0.8740    2.9750    0.6720 C   0  0  0  0  0  0  0  0  0  0  0  0
    1.9140    3.8490    0.5100 C   0  0  0  0  0  0  0  0  0  0  0  0
    2.8400    3.5570    1.4200 N   0  0  0  0  0  0  0  0  0  0  0  0
    2.4300    2.5050    2.1790 C   0  0  0  0  0  0  0  0  0  0  0  0
    1.2280    2.1770    1.6940 N   0  0  0  0  0  0  0  0  0  0  0  0
   -2.6430    1.8190    0.3140 C   0  0  0  0  0  0  0  0  0  0  0  0
   -3.4030    0.8470    0.0470 O   0  0  0  0  0  0  0  0  0  0  0  0
   -3.2580    3.0600    0.4730 O   0  0  0  0  0  0  0  0  0  0  0  0
   -1.2110   -0.3980    0.7260 H   0  0  0  0  0  0  0  0  0  0  0  0
   -0.9950    1.8710    1.6100 H   0  0  0  0  0  0  0  0  0  0  0  0
   -0.2680    2.8430   -1.1650 H   0  0  0  0  0  0  0  0  0  0  0  0
   -0.9910    3.7710    0.1620 H   0  0  0  0  0  0  0  0  0  0  0  0
    1.9660    4.6250   -0.2170 H   0  0  0  0  0  0  0  0  0  0  0  0
    3.7790    4.0030    1.6120 H   0  0  0  0  0  0  0  0  0  0  0  0
    2.9650    2.0390    2.9960 H   0  0  0  0  0  0  0  0  0  0  0  0
  1  7  1  0  0  0  0
  2  1  1  0  0  0  0
  2  9  1  0  0  0  0
  2  8  1  0  0  0  0
  3 10  1  6  0  0  0
  3  2  1  0  0  0  0
  4  3  1  0  0  0  0
  4 12  1  0  0  0  0
  5 13  1  0  0  0  0
  5  3  1  0  0  0  0
  6  5  2  0  0  0  0
 11  4  1  0  0  0  0
 13 17  1  0  0  0  0
 14 15  1  0  0  0  0
 14 18  1  0  0  0  0
 14 13  1  0  0  0  0
 15 20  1  0  0  0  0
 16 15  2  0  0  0  0
 19 14  1  0  0  0  0
 20 21  1  0  0  0  0
 20 31  1  0  0  0  0
 21 32  1  1  0  0  0
 22 34  1  0  0  0  0
 22 21  1  0  0  0  0
 22 23  1  0  0  0  0
 23 27  1  0  0  0  0
 24 23  2  0  0  0  0
 24 25  1  0  0  0  0
 25 36  1  0  0  0  0
 25 26  1  0  0  0  0
 26 37  1  0  0  0  0
 27 26  2  0  0  0  0
 28 21  1  0  0  0  0
 28 30  1  0  0  0  0
 29 28  2  0  0  0  0
 33 22  1  0  0  0  0
 35 24  1  0  0  0  0
M  END
$$$$
