SGI.pdb
 OpenBabel07022419073D

 39 38  0  0  1  0  0  0  0  0999 V2000
   -0.9770   -4.7870    5.6860 O   0  0  0  0  0  0  0  0  0  0  0  0
   -0.2480   -3.9000    4.9360 C   0  0  0  0  0  0  0  0  0  0  0  0
   -0.7890   -3.7940    3.5040 C   0  0  2  0  0  0  0  0  0  0  0  0
   -0.6910   -5.1270    2.9420 N   0  0  0  0  0  0  0  0  0  0  0  0
    0.0010   -2.8140    2.7210 C   0  0  0  0  0  0  0  0  0  0  0  0
    0.0280   -1.6110    3.0680 O   0  0  0  0  0  0  0  0  0  0  0  0
   -1.9140   -4.5500    5.8070 H   0  0  0  0  0  0  0  0  0  0  0  0
   -0.1810   -2.8910    5.3460 H   0  0  0  0  0  0  0  0  0  0  0  0
    0.7910   -4.3040    4.8570 H   0  0  0  0  0  0  0  0  0  0  0  0
   -1.8430   -3.4880    3.5220 H   0  0  0  0  0  0  0  0  0  0  0  0
    0.2140   -5.5300    3.2450 H   0  0  0  0  0  0  0  0  0  0  0  0
   -1.4620   -5.6940    3.3930 H   0  0  0  0  0  0  0  0  0  0  0  0
    0.7500   -3.1790    1.5670 N   0  0  0  0  0  0  0  0  0  0  0  0
    1.5240   -2.2230    0.7980 C   0  0  0  0  0  0  0  0  0  0  0  0
    0.5780   -1.1760    0.2920 C   0  0  0  0  0  0  0  0  0  0  0  0
   -0.6560   -1.2240    0.5540 O   0  0  0  0  0  0  0  0  0  0  0  0
    0.7190   -4.1930    1.2860 H   0  0  0  0  0  0  0  0  0  0  0  0
    2.0120   -2.7430   -0.0270 H   0  0  0  0  0  0  0  0  0  0  0  0
    2.2410   -1.7570    1.5070 H   0  0  0  0  0  0  0  0  0  0  0  0
    0.0010    4.1680   -2.0240 C   0  0  0  0  0  0  0  0  0  0  0  0
   -0.3210    3.4650   -0.7670 C   0  0  0  0  0  0  0  0  0  0  0  0
    0.4280    2.2570   -0.3980 C   0  0  2  0  0  0  0  0  0  0  0  0
    1.9070    2.6130   -0.2810 C   0  0  0  0  0  0  0  0  0  0  0  0
    0.1400    0.9590   -1.0190 C   0  0  2  0  0  0  0  0  0  0  0  0
    1.0130   -0.0890   -0.4980 N   0  0  0  0  0  0  0  0  0  0  0  0
   -0.0180    0.8780   -2.4760 C   0  0  0  0  0  0  0  0  0  0  0  0
   -0.7330    1.6450   -3.1720 O   0  0  0  0  0  0  0  0  0  0  0  0
    0.5990   -0.0590   -3.2970 O   0  0  0  0  0  0  0  0  0  0  0  0
   -0.8730    4.3390   -2.7050 H   0  0  0  0  0  0  0  0  0  0  0  0
    0.8780    3.7680   -2.5720 H   0  0  0  0  0  0  0  0  0  0  0  0
    0.3230    5.2050   -1.7680 H   0  0  0  0  0  0  0  0  0  0  0  0
   -1.4410    3.2520   -0.8280 H   0  0  0  0  0  0  0  0  0  0  0  0
   -0.2840    4.2100    0.0580 H   0  0  0  0  0  0  0  0  0  0  0  0
    0.1870    2.1130    0.7160 H   0  0  0  0  0  0  0  0  0  0  0  0
    2.0350    3.6900   -0.0350 H   0  0  0  0  0  0  0  0  0  0  0  0
    2.4180    2.5030   -1.2730 H   0  0  0  0  0  0  0  0  0  0  0  0
    2.4230    2.0590    0.5210 H   0  0  0  0  0  0  0  0  0  0  0  0
   -0.8790    0.6390   -0.6210 H   0  0  0  0  0  0  0  0  0  0  0  0
    2.0600   -0.0770   -0.7020 H   0  0  0  0  0  0  0  0  0  0  0  0
  1  7  1  0  0  0  0
  2  8  1  0  0  0  0
  2  1  1  0  0  0  0
  3 10  1  1  0  0  0
  3  2  1  0  0  0  0
  4 11  1  0  0  0  0
  4 12  1  0  0  0  0
  4  3  1  0  0  0  0
  5  6  2  0  0  0  0
  5  3  1  0  0  0  0
  9  2  1  0  0  0  0
 13  5  1  0  0  0  0
 14 19  1  0  0  0  0
 14 13  1  0  0  0  0
 15 16  2  0  0  0  0
 15 14  1  0  0  0  0
 17 13  1  0  0  0  0
 18 14  1  0  0  0  0
 20 31  1  0  0  0  0
 20 21  1  0  0  0  0
 21 22  1  0  0  0  0
 21 33  1  0  0  0  0
 22 23  1  0  0  0  0
 22 34  1  1  0  0  0
 23 35  1  0  0  0  0
 23 37  1  0  0  0  0
 24 38  1  1  0  0  0
 24 25  1  0  0  0  0
 24 22  1  0  0  0  0
 25 15  1  0  0  0  0
 26 24  1  0  0  0  0
 27 26  1  0  0  0  0
 28 26  2  0  0  0  0
 29 20  1  0  0  0  0
 30 20  1  0  0  0  0
 32 21  1  0  0  0  0
 36 23  1  0  0  0  0
 39 25  1  0  0  0  0
M  END
$$$$
