SGK.pdb
 OpenBabel07022419073D

 41 40  0  0  1  0  0  0  0  0999 V2000
    0.2730   -4.0220    4.2400 O   0  0  0  0  0  0  0  0  0  0  0  0
   -0.9410   -3.5330    3.7790 C   0  0  0  0  0  0  0  0  0  0  0  0
   -0.9620   -3.4660    2.2470 C   0  0  2  0  0  0  0  0  0  0  0  0
   -0.7630   -4.7760    1.6960 N   0  0  0  0  0  0  0  0  0  0  0  0
    0.1070   -2.5140    1.8220 C   0  0  0  0  0  0  0  0  0  0  0  0
    0.0470   -1.3330    2.2380 O   0  0  0  0  0  0  0  0  0  0  0  0
    0.5970   -3.4650    5.0020 H   0  0  0  0  0  0  0  0  0  0  0  0
   -1.7380   -4.2070    4.1420 H   0  0  0  0  0  0  0  0  0  0  0  0
   -1.1420   -2.5390    4.2080 H   0  0  0  0  0  0  0  0  0  0  0  0
   -1.9750   -3.1090    1.9700 H   0  0  0  0  0  0  0  0  0  0  0  0
   -1.4800   -5.4060    2.0990 H   0  0  0  0  0  0  0  0  0  0  0  0
   -0.9740   -4.7100    0.6590 H   0  0  0  0  0  0  0  0  0  0  0  0
    1.1690   -2.8920    0.9790 N   0  0  0  0  0  0  0  0  0  0  0  0
    2.2310   -2.0600    0.5040 C   0  0  0  0  0  0  0  0  0  0  0  0
    1.7880   -0.9470   -0.3690 C   0  0  0  0  0  0  0  0  0  0  0  0
    2.6550   -0.1170   -0.8270 O   0  0  0  0  0  0  0  0  0  0  0  0
    1.1500   -3.9160    0.6800 H   0  0  0  0  0  0  0  0  0  0  0  0
    2.9790   -2.6720   -0.0580 H   0  0  0  0  0  0  0  0  0  0  0  0
    2.8080   -1.6070    1.3440 H   0  0  0  0  0  0  0  0  0  0  0  0
    0.4550   -0.7210   -0.7530 N   0  0  0  0  0  0  0  0  0  0  0  0
   -0.0710    0.3100   -1.5650 C   0  0  1  0  0  0  0  0  0  0  0  0
    0.5300    1.6580   -1.5350 C   0  0  0  0  0  0  0  0  0  0  0  0
    0.5340    2.4620   -0.3250 C   0  0  0  0  0  0  0  0  0  0  0  0
    1.1800    2.0290    0.9140 C   0  0  0  0  0  0  0  0  0  0  0  0
    0.9520    3.1510    1.9500 C   0  0  0  0  0  0  0  0  0  0  0  0
    1.5550    2.8130    3.2080 N   0  0  0  0  0  0  0  0  0  0  0  0
   -0.2980   -0.0990   -2.9720 C   0  0  0  0  0  0  0  0  0  0  0  0
   -0.7640    0.7350   -3.7910 O   0  0  0  0  0  0  0  0  0  0  0  0
   -0.0240   -1.3680   -3.4570 O   0  0  0  0  0  0  0  0  0  0  0  0
   -0.2410   -1.4480   -0.3860 H   0  0  0  0  0  0  0  0  0  0  0  0
   -1.1580    0.5310   -1.1720 H   0  0  0  0  0  0  0  0  0  0  0  0
    0.0140    2.2430   -2.3660 H   0  0  0  0  0  0  0  0  0  0  0  0
    1.5870    1.5930   -1.9340 H   0  0  0  0  0  0  0  0  0  0  0  0
   -0.5460    2.7220   -0.0500 H   0  0  0  0  0  0  0  0  0  0  0  0
    0.9430    3.5040   -0.5530 H   0  0  0  0  0  0  0  0  0  0  0  0
    0.8010    1.1270    1.3840 H   0  0  0  0  0  0  0  0  0  0  0  0
    2.2920    2.0480    0.7710 H   0  0  0  0  0  0  0  0  0  0  0  0
    1.3580    4.1040    1.6070 H   0  0  0  0  0  0  0  0  0  0  0  0
   -0.1370    3.2910    2.1270 H   0  0  0  0  0  0  0  0  0  0  0  0
    1.0220    2.0890    3.7450 H   0  0  0  0  0  0  0  0  0  0  0  0
    2.5320    2.4690    3.1210 H   0  0  0  0  0  0  0  0  0  0  0  0
  1  7  1  0  0  0  0
  2  8  1  0  0  0  0
  2  9  1  0  0  0  0
  2  1  1  0  0  0  0
  3 10  1  6  0  0  0
  3  2  1  0  0  0  0
  4 11  1  0  0  0  0
  4  3  1  0  0  0  0
  5  6  2  0  0  0  0
  5  3  1  0  0  0  0
 12  4  1  0  0  0  0
 13  5  1  0  0  0  0
 14 13  1  0  0  0  0
 14 19  1  0  0  0  0
 15 14  1  0  0  0  0
 16 15  2  0  0  0  0
 17 13  1  0  0  0  0
 18 14  1  0  0  0  0
 20 30  1  0  0  0  0
 20 15  1  0  0  0  0
 21 22  1  0  0  0  0
 21 31  1  1  0  0  0
 21 20  1  0  0  0  0
 22 23  1  0  0  0  0
 23 34  1  0  0  0  0
 23 24  1  0  0  0  0
 24 36  1  0  0  0  0
 24 25  1  0  0  0  0
 25 39  1  0  0  0  0
 25 26  1  0  0  0  0
 26 40  1  0  0  0  0
 27 21  1  0  0  0  0
 28 27  2  0  0  0  0
 29 27  1  0  0  0  0
 32 22  1  0  0  0  0
 33 22  1  0  0  0  0
 35 23  1  0  0  0  0
 37 24  1  0  0  0  0
 38 25  1  0  0  0  0
 41 26  1  0  0  0  0
M  END
$$$$
