SGL.pdb
 OpenBabel07022419073D

 39 38  0  0  1  0  0  0  0  0999 V2000
   -0.7010   -6.1050    0.3940 O   0  0  0  0  0  0  0  0  0  0  0  0
   -0.4590   -5.0430    1.2630 C   0  0  0  0  0  0  0  0  0  0  0  0
    1.0220   -4.9340    1.5770 C   0  0  2  0  0  0  0  0  0  0  0  0
    1.4580   -6.1610    2.1950 N   0  0  0  0  0  0  0  0  0  0  0  0
    1.3250   -3.7700    2.4170 C   0  0  0  0  0  0  0  0  0  0  0  0
    1.8940   -3.8890    3.5250 O   0  0  0  0  0  0  0  0  0  0  0  0
   -1.6760   -6.2180    0.3100 H   0  0  0  0  0  0  0  0  0  0  0  0
   -0.8680   -4.0920    0.8790 H   0  0  0  0  0  0  0  0  0  0  0  0
   -0.9780   -5.2760    2.2270 H   0  0  0  0  0  0  0  0  0  0  0  0
    1.5620   -4.7930    0.6040 H   0  0  0  0  0  0  0  0  0  0  0  0
    1.8350   -5.9650    3.1500 H   0  0  0  0  0  0  0  0  0  0  0  0
    2.2390   -6.5790    1.6510 H   0  0  0  0  0  0  0  0  0  0  0  0
    0.9830   -2.4280    2.0090 N   0  0  0  0  0  0  0  0  0  0  0  0
    1.3060   -1.3360    2.8740 C   0  0  0  0  0  0  0  0  0  0  0  0
    0.8990   -0.0250    2.3320 C   0  0  0  0  0  0  0  0  0  0  0  0
    1.1340    1.0450    3.0180 O   0  0  0  0  0  0  0  0  0  0  0  0
    0.5150   -2.3340    1.0980 H   0  0  0  0  0  0  0  0  0  0  0  0
    2.4360   -1.3070    2.9110 H   0  0  0  0  0  0  0  0  0  0  0  0
    0.8990   -1.5020    3.9010 H   0  0  0  0  0  0  0  0  0  0  0  0
    0.7440    4.4340   -0.5060 C   0  0  0  0  0  0  0  0  0  0  0  0
    0.5080    3.1660   -1.2690 C   0  0  0  0  0  0  0  0  0  0  0  0
   -0.6680    3.3310   -2.1810 C   0  0  0  0  0  0  0  0  0  0  0  0
    0.6620    1.8970   -0.5670 C   0  0  0  0  0  0  0  0  0  0  0  0
   -0.1160    1.5740    0.6370 C   0  0  2  0  0  0  0  0  0  0  0  0
    0.2550    0.2260    1.1020 N   0  0  0  0  0  0  0  0  0  0  0  0
   -1.5450    1.7390    0.5190 C   0  0  0  0  0  0  0  0  0  0  0  0
   -2.0720    2.8410    0.2750 O   0  0  0  0  0  0  0  0  0  0  0  0
   -2.3920    0.6210    0.6820 O   0  0  0  0  0  0  0  0  0  0  0  0
    1.6780    4.4320    0.0780 H   0  0  0  0  0  0  0  0  0  0  0  0
   -0.1290    4.7730    0.0890 H   0  0  0  0  0  0  0  0  0  0  0  0
    0.8890    5.2440   -1.2820 H   0  0  0  0  0  0  0  0  0  0  0  0
    1.4120    3.1840   -2.0280 H   0  0  0  0  0  0  0  0  0  0  0  0
   -1.3410    4.1780   -1.9010 H   0  0  0  0  0  0  0  0  0  0  0  0
   -0.3560    3.5850   -3.2460 H   0  0  0  0  0  0  0  0  0  0  0  0
   -1.2680    2.3830   -2.2250 H   0  0  0  0  0  0  0  0  0  0  0  0
    0.4580    1.0670   -1.3250 H   0  0  0  0  0  0  0  0  0  0  0  0
    1.7670    1.7020   -0.3430 H   0  0  0  0  0  0  0  0  0  0  0  0
    0.2320    2.2560    1.4680 H   0  0  0  0  0  0  0  0  0  0  0  0
    0.0290   -0.5810    0.4860 H   0  0  0  0  0  0  0  0  0  0  0  0
  1  2  1  0  0  0  0
  2  3  1  0  0  0  0
  2  9  1  0  0  0  0
  3 10  1  6  0  0  0
  3  4  1  0  0  0  0
  3  5  1  0  0  0  0
  4 11  1  0  0  0  0
  5  6  2  0  0  0  0
  7  1  1  0  0  0  0
  8  2  1  0  0  0  0
 12  4  1  0  0  0  0
 13  5  1  0  0  0  0
 13 14  1  0  0  0  0
 14 18  1  0  0  0  0
 14 19  1  0  0  0  0
 15 14  1  0  0  0  0
 15 16  2  0  0  0  0
 17 13  1  0  0  0  0
 20 29  1  0  0  0  0
 20 30  1  0  0  0  0
 21 23  1  0  0  0  0
 21 20  1  0  0  0  0
 22 33  1  0  0  0  0
 22 21  1  0  0  0  0
 23 37  1  0  0  0  0
 23 24  1  0  0  0  0
 24 25  1  0  0  0  0
 24 38  1  1  0  0  0
 25 15  1  0  0  0  0
 26 24  1  0  0  0  0
 26 28  1  0  0  0  0
 27 26  2  0  0  0  0
 31 20  1  0  0  0  0
 32 21  1  0  0  0  0
 34 22  1  0  0  0  0
 35 22  1  0  0  0  0
 36 23  1  0  0  0  0
 39 25  1  0  0  0  0
M  END
$$$$
