SGN.pdb
 OpenBabel07022419073D

 34 33  0  0  1  0  0  0  0  0999 V2000
   -0.9020    4.6050   -1.2470 O   0  0  0  0  0  0  0  0  0  0  0  0
    0.4260    4.4090   -0.8640 C   0  0  0  0  0  0  0  0  0  0  0  0
    0.9650    3.0940   -1.3730 C   0  0  2  0  0  0  0  0  0  0  0  0
    0.9310    3.0020   -2.8050 N   0  0  0  0  0  0  0  0  0  0  0  0
    0.2610    1.9770   -0.7110 C   0  0  0  0  0  0  0  0  0  0  0  0
    0.2030    1.9180    0.5430 O   0  0  0  0  0  0  0  0  0  0  0  0
   -1.1430    5.5620   -1.2750 H   0  0  0  0  0  0  0  0  0  0  0  0
    0.4550    4.3730    0.2480 H   0  0  0  0  0  0  0  0  0  0  0  0
    1.0580    5.2670   -1.1700 H   0  0  0  0  0  0  0  0  0  0  0  0
    2.0420    3.0600   -1.0720 H   0  0  0  0  0  0  0  0  0  0  0  0
   -0.0010    2.8790   -3.2160 H   0  0  0  0  0  0  0  0  0  0  0  0
    1.5490    3.6820   -3.2670 H   0  0  0  0  0  0  0  0  0  0  0  0
   -0.3720    0.9400   -1.4440 N   0  0  0  0  0  0  0  0  0  0  0  0
   -1.0580   -0.1470   -0.7760 C   0  0  0  0  0  0  0  0  0  0  0  0
   -0.1190   -0.9010    0.1010 C   0  0  0  0  0  0  0  0  0  0  0  0
    1.0950   -0.5770    0.1970 O   0  0  0  0  0  0  0  0  0  0  0  0
   -0.3590    0.9330   -2.4850 H   0  0  0  0  0  0  0  0  0  0  0  0
   -1.8280    0.2900   -0.0790 H   0  0  0  0  0  0  0  0  0  0  0  0
   -1.5980   -0.7990   -1.4630 H   0  0  0  0  0  0  0  0  0  0  0  0
    0.1620   -4.7780    4.5040 N   0  0  0  0  0  0  0  0  0  0  0  0
    0.5430   -3.4830    4.0780 C   0  0  0  0  0  0  0  0  0  0  0  0
    1.5950   -2.9500    4.5110 O   0  0  0  0  0  0  0  0  0  0  0  0
   -0.2780   -2.7230    3.1170 C   0  0  0  0  0  0  0  0  0  0  0  0
    0.3020   -2.7790    1.7250 C   0  0  2  0  0  0  0  0  0  0  0  0
   -0.5740   -2.0020    0.8480 N   0  0  0  0  0  0  0  0  0  0  0  0
    0.3290   -4.1880    1.3080 C   0  0  0  0  0  0  0  0  0  0  0  0
   -0.3280   -4.6180    0.3260 O   0  0  0  0  0  0  0  0  0  0  0  0
    1.1040   -5.0920    2.0120 O   0  0  0  0  0  0  0  0  0  0  0  0
    0.7850   -5.3250    5.1010 H   0  0  0  0  0  0  0  0  0  0  0  0
   -0.7570   -5.1510    4.1950 H   0  0  0  0  0  0  0  0  0  0  0  0
   -1.3110   -3.1500    3.0520 H   0  0  0  0  0  0  0  0  0  0  0  0
   -0.4420   -1.6550    3.4470 H   0  0  0  0  0  0  0  0  0  0  0  0
    1.3180   -2.3500    1.6770 H   0  0  0  0  0  0  0  0  0  0  0  0
   -1.5870   -2.2590    0.7580 H   0  0  0  0  0  0  0  0  0  0  0  0
  1  2  1  0  0  0  0
  2  8  1  0  0  0  0
  3 10  1  1  0  0  0
  3  2  1  0  0  0  0
  3  5  1  0  0  0  0
  4  3  1  0  0  0  0
  5  6  2  0  0  0  0
  7  1  1  0  0  0  0
  9  2  1  0  0  0  0
 11  4  1  0  0  0  0
 12  4  1  0  0  0  0
 13 14  1  0  0  0  0
 13  5  1  0  0  0  0
 14 18  1  0  0  0  0
 14 15  1  0  0  0  0
 15 16  2  0  0  0  0
 15 25  1  0  0  0  0
 17 13  1  0  0  0  0
 19 14  1  0  0  0  0
 20 29  1  0  0  0  0
 21 20  1  0  0  0  0
 21 22  2  0  0  0  0
 23 32  1  0  0  0  0
 23 21  1  0  0  0  0
 24 33  1  6  0  0  0
 24 23  1  0  0  0  0
 25 24  1  0  0  0  0
 26 24  1  0  0  0  0
 26 28  1  0  0  0  0
 27 26  2  0  0  0  0
 30 20  1  0  0  0  0
 31 23  1  0  0  0  0
 34 25  1  0  0  0  0
M  END
$$$$
