SGP.pdb
 OpenBabel07022419073D

 34 34  0  0  1  0  0  0  0  0999 V2000
    3.0750   -1.2000    3.1930 O   0  0  0  0  0  0  0  0  0  0  0  0
    2.2220   -2.2800    3.4060 C   0  0  0  0  0  0  0  0  0  0  0  0
    0.8790   -1.9520    2.7900 C   0  0  2  0  0  0  0  0  0  0  0  0
   -0.0540   -3.0190    2.9690 N   0  0  0  0  0  0  0  0  0  0  0  0
    1.1030   -1.6070    1.3670 C   0  0  0  0  0  0  0  0  0  0  0  0
    1.8840   -0.7010    1.0170 O   0  0  0  0  0  0  0  0  0  0  0  0
    2.7080   -0.3500    3.5270 H   0  0  0  0  0  0  0  0  0  0  0  0
    2.6400   -3.1560    2.8840 H   0  0  0  0  0  0  0  0  0  0  0  0
    2.0940   -2.4550    4.4860 H   0  0  0  0  0  0  0  0  0  0  0  0
    0.4940   -1.0620    3.3080 H   0  0  0  0  0  0  0  0  0  0  0  0
   -0.2020   -3.1460    3.9930 H   0  0  0  0  0  0  0  0  0  0  0  0
    0.2570   -3.9230    2.5420 H   0  0  0  0  0  0  0  0  0  0  0  0
    0.3850   -2.3540    0.3620 N   0  0  0  0  0  0  0  0  0  0  0  0
    0.5090   -2.1160   -1.0250 C   0  0  0  0  0  0  0  0  0  0  0  0
    0.0670   -0.8500   -1.5850 C   0  0  0  0  0  0  0  0  0  0  0  0
    0.3190   -0.6490   -2.8530 O   0  0  0  0  0  0  0  0  0  0  0  0
   -0.2560   -3.1080    0.7430 H   0  0  0  0  0  0  0  0  0  0  0  0
   -0.0630   -2.9460   -1.5590 H   0  0  0  0  0  0  0  0  0  0  0  0
    1.5760   -2.2950   -1.3590 H   0  0  0  0  0  0  0  0  0  0  0  0
   -0.6100    0.1990   -0.9260 N   0  0  0  0  0  0  0  0  0  0  0  0
   -1.1220    0.2480    0.4100 C   0  0  0  0  0  0  0  0  0  0  0  0
   -2.4070    1.0720    0.2520 C   0  0  0  0  0  0  0  0  0  0  0  0
   -1.9070    2.1730   -0.6500 C   0  0  0  0  0  0  0  0  0  0  0  0
   -0.8820    1.5080   -1.5300 C   0  0  1  0  0  0  0  0  0  0  0  0
    0.3700    2.3450   -1.4730 C   0  0  0  0  0  0  0  0  0  0  0  0
    0.3780    3.5130   -1.9350 O   0  0  0  0  0  0  0  0  0  0  0  0
    1.5490    1.8690   -0.9170 O   0  0  0  0  0  0  0  0  0  0  0  0
   -0.4600    0.7740    1.0950 H   0  0  0  0  0  0  0  0  0  0  0  0
   -1.4310   -0.7660    0.7770 H   0  0  0  0  0  0  0  0  0  0  0  0
   -3.1120    0.4290   -0.2990 H   0  0  0  0  0  0  0  0  0  0  0  0
   -2.7780    1.4320    1.2110 H   0  0  0  0  0  0  0  0  0  0  0  0
   -1.4730    2.9640    0.0000 H   0  0  0  0  0  0  0  0  0  0  0  0
   -2.7460    2.5900   -1.2770 H   0  0  0  0  0  0  0  0  0  0  0  0
   -1.1900    1.4220   -2.5810 H   0  0  0  0  0  0  0  0  0  0  0  0
  1  2  1  0  0  0  0
  1  7  1  0  0  0  0
  2  9  1  0  0  0  0
  3  4  1  0  0  0  0
  3 10  1  1  0  0  0
  3  2  1  0  0  0  0
  4 11  1  0  0  0  0
  5  3  1  0  0  0  0
  6  5  2  0  0  0  0
  8  2  1  0  0  0  0
 12  4  1  0  0  0  0
 13 17  1  0  0  0  0
 13  5  1  0  0  0  0
 14 13  1  0  0  0  0
 15 14  1  0  0  0  0
 15 20  1  0  0  0  0
 16 15  2  0  0  0  0
 18 14  1  0  0  0  0
 19 14  1  0  0  0  0
 20 21  1  0  0  0  0
 21 29  1  0  0  0  0
 21 28  1  0  0  0  0
 22 21  1  0  0  0  0
 22 31  1  0  0  0  0
 23 32  1  0  0  0  0
 23 22  1  0  0  0  0
 24 34  1  6  0  0  0
 24 25  1  0  0  0  0
 24 20  1  0  0  0  0
 24 23  1  0  0  0  0
 25 27  1  0  0  0  0
 26 25  2  0  0  0  0
 30 22  1  0  0  0  0
 33 23  1  0  0  0  0
M  END
$$$$
