SGQ.pdb
 OpenBabel07022419073D

 37 36  0  0  1  0  0  0  0  0999 V2000
   -1.0200   -4.4950    2.8030 O   0  0  0  0  0  0  0  0  0  0  0  0
    0.2040   -4.9650    2.3530 C   0  0  0  0  0  0  0  0  0  0  0  0
    0.7250   -3.9360    1.3520 C   0  0  2  0  0  0  0  0  0  0  0  0
    1.9900   -4.3800    0.8590 N   0  0  0  0  0  0  0  0  0  0  0  0
    0.8080   -2.6400    2.0730 C   0  0  0  0  0  0  0  0  0  0  0  0
   -0.2310   -2.1260    2.5630 O   0  0  0  0  0  0  0  0  0  0  0  0
   -0.9010   -4.0770    3.6890 H   0  0  0  0  0  0  0  0  0  0  0  0
    0.8960   -5.0720    3.2020 H   0  0  0  0  0  0  0  0  0  0  0  0
    0.0840   -5.9120    1.7820 H   0  0  0  0  0  0  0  0  0  0  0  0
    0.0020   -3.9180    0.5240 H   0  0  0  0  0  0  0  0  0  0  0  0
    1.8270   -5.1710    0.1980 H   0  0  0  0  0  0  0  0  0  0  0  0
    2.5650   -4.7510    1.6490 H   0  0  0  0  0  0  0  0  0  0  0  0
    2.0240   -1.9280    2.2470 N   0  0  0  0  0  0  0  0  0  0  0  0
    2.1490   -0.6650    2.9270 C   0  0  0  0  0  0  0  0  0  0  0  0
    1.4110    0.4500    2.2870 C   0  0  0  0  0  0  0  0  0  0  0  0
    1.4000    1.6100    2.8120 O   0  0  0  0  0  0  0  0  0  0  0  0
    2.8780   -2.3820    1.8360 H   0  0  0  0  0  0  0  0  0  0  0  0
    3.2270   -0.4220    3.0400 H   0  0  0  0  0  0  0  0  0  0  0  0
    1.7470   -0.7570    3.9750 H   0  0  0  0  0  0  0  0  0  0  0  0
   -2.2640    3.4460   -2.5870 N   0  0  0  0  0  0  0  0  0  0  0  0
   -1.2790    2.4940   -2.2190 C   0  0  0  0  0  0  0  0  0  0  0  0
   -1.5730    1.2610   -2.4170 O   0  0  0  0  0  0  0  0  0  0  0  0
    0.0320    2.8610   -1.6410 C   0  0  0  0  0  0  0  0  0  0  0  0
    0.6130    1.7970   -0.8040 C   0  0  0  0  0  0  0  0  0  0  0  0
   -0.0390    1.4330    0.4690 C   0  0  2  0  0  0  0  0  0  0  0  0
    0.7030    0.3050    1.0980 N   0  0  0  0  0  0  0  0  0  0  0  0
   -1.4690    1.1800    0.5170 C   0  0  0  0  0  0  0  0  0  0  0  0
   -1.9050    0.0230    0.8600 O   0  0  0  0  0  0  0  0  0  0  0  0
   -2.4790    2.0840    0.2290 O   0  0  0  0  0  0  0  0  0  0  0  0
   -2.9740    3.2470   -3.3200 H   0  0  0  0  0  0  0  0  0  0  0  0
   -2.2740    4.3680   -2.1070 H   0  0  0  0  0  0  0  0  0  0  0  0
   -0.0090    3.8610   -1.1410 H   0  0  0  0  0  0  0  0  0  0  0  0
    0.7490    3.0330   -2.5010 H   0  0  0  0  0  0  0  0  0  0  0  0
    1.7140    2.0020   -0.5930 H   0  0  0  0  0  0  0  0  0  0  0  0
    0.6530    0.8540   -1.4300 H   0  0  0  0  0  0  0  0  0  0  0  0
    0.1260    2.3340    1.1630 H   0  0  0  0  0  0  0  0  0  0  0  0
    0.6800   -0.6000    0.5970 H   0  0  0  0  0  0  0  0  0  0  0  0
  1  7  1  0  0  0  0
  2  1  1  0  0  0  0
  2  8  1  0  0  0  0
  3 10  1  6  0  0  0
  3  5  1  0  0  0  0
  3  2  1  0  0  0  0
  4  3  1  0  0  0  0
  4 12  1  0  0  0  0
  5 13  1  0  0  0  0
  5  6  2  0  0  0  0
  9  2  1  0  0  0  0
 11  4  1  0  0  0  0
 13 14  1  0  0  0  0
 14 18  1  0  0  0  0
 14 19  1  0  0  0  0
 15 16  2  0  0  0  0
 15 14  1  0  0  0  0
 17 13  1  0  0  0  0
 20 21  1  0  0  0  0
 20 31  1  0  0  0  0
 21 23  1  0  0  0  0
 22 21  2  0  0  0  0
 23 32  1  0  0  0  0
 23 24  1  0  0  0  0
 24 34  1  0  0  0  0
 24 25  1  0  0  0  0
 25 27  1  0  0  0  0
 25 26  1  0  0  0  0
 25 36  1  1  0  0  0
 26 15  1  0  0  0  0
 27 28  1  0  0  0  0
 29 27  2  0  0  0  0
 30 20  1  0  0  0  0
 33 23  1  0  0  0  0
 35 24  1  0  0  0  0
 37 26  1  0  0  0  0
M  END
$$$$
