SGS.pdb
 OpenBabel07022419073D

 31 30  0  0  1  0  0  0  0  0999 V2000
   -2.7520   -4.1480    1.9530 O   0  0  0  0  0  0  0  0  0  0  0  0
   -1.8220   -5.1520    1.7620 C   0  0  0  0  0  0  0  0  0  0  0  0
   -0.4070   -4.5700    1.7870 C   0  0  2  0  0  0  0  0  0  0  0  0
   -0.2450   -3.9580    3.0920 N   0  0  0  0  0  0  0  0  0  0  0  0
   -0.2480   -3.5780    0.6910 C   0  0  0  0  0  0  0  0  0  0  0  0
   -0.3570   -3.9390   -0.5070 O   0  0  0  0  0  0  0  0  0  0  0  0
   -2.4210   -3.2550    1.6720 H   0  0  0  0  0  0  0  0  0  0  0  0
   -1.9590   -5.6630    0.8000 H   0  0  0  0  0  0  0  0  0  0  0  0
   -1.8650   -5.8550    2.6380 H   0  0  0  0  0  0  0  0  0  0  0  0
    0.3280   -5.3880    1.7200 H   0  0  0  0  0  0  0  0  0  0  0  0
    0.6680   -3.4340    3.1650 H   0  0  0  0  0  0  0  0  0  0  0  0
   -1.0060   -3.2390    3.1710 H   0  0  0  0  0  0  0  0  0  0  0  0
    0.0290   -2.1970    0.9180 N   0  0  0  0  0  0  0  0  0  0  0  0
    0.1800   -1.2470   -0.1620 C   0  0  0  0  0  0  0  0  0  0  0  0
    0.4580    0.0750    0.4340 C   0  0  0  0  0  0  0  0  0  0  0  0
    0.5150    0.1650    1.6780 O   0  0  0  0  0  0  0  0  0  0  0  0
    0.1160   -1.9150    1.9170 H   0  0  0  0  0  0  0  0  0  0  0  0
    1.0130   -1.5720   -0.8430 H   0  0  0  0  0  0  0  0  0  0  0  0
   -0.7360   -1.2060   -0.7970 H   0  0  0  0  0  0  0  0  0  0  0  0
    2.3540    3.3280   -1.5670 O   0  0  0  0  0  0  0  0  0  0  0  0
    2.2320    3.1540   -0.2090 C   0  0  0  0  0  0  0  0  0  0  0  0
    0.9340    2.5460    0.2130 C   0  0  2  0  0  0  0  0  0  0  0  0
    0.6650    1.2590   -0.3190 N   0  0  0  0  0  0  0  0  0  0  0  0
   -0.1650    3.5280   -0.0960 C   0  0  0  0  0  0  0  0  0  0  0  0
   -1.1480    3.1480   -0.7490 O   0  0  0  0  0  0  0  0  0  0  0  0
   -0.0860    4.8360    0.3370 O   0  0  0  0  0  0  0  0  0  0  0  0
    3.2440    2.9750   -1.8410 H   0  0  0  0  0  0  0  0  0  0  0  0
    2.2760    4.1750    0.2530 H   0  0  0  0  0  0  0  0  0  0  0  0
    3.1010    2.6070    0.2410 H   0  0  0  0  0  0  0  0  0  0  0  0
    0.9540    2.4650    1.3280 H   0  0  0  0  0  0  0  0  0  0  0  0
    0.6130    1.1620   -1.3590 H   0  0  0  0  0  0  0  0  0  0  0  0
  2  3  1  0  0  0  0
  2  1  1  0  0  0  0
  2  9  1  0  0  0  0
  3 10  1  6  0  0  0
  3  4  1  0  0  0  0
  4 11  1  0  0  0  0
  4 12  1  0  0  0  0
  5 13  1  0  0  0  0
  5  3  1  0  0  0  0
  6  5  2  0  0  0  0
  7  1  1  0  0  0  0
  8  2  1  0  0  0  0
 13 17  1  0  0  0  0
 14 15  1  0  0  0  0
 14 13  1  0  0  0  0
 15 16  2  0  0  0  0
 18 14  1  0  0  0  0
 19 14  1  0  0  0  0
 20 21  1  0  0  0  0
 21 22  1  0  0  0  0
 21 29  1  0  0  0  0
 21 28  1  0  0  0  0
 22 30  1  1  0  0  0
 23 22  1  0  0  0  0
 23 15  1  0  0  0  0
 24 22  1  0  0  0  0
 24 26  1  0  0  0  0
 25 24  2  0  0  0  0
 27 20  1  0  0  0  0
 31 23  1  0  0  0  0
M  END
$$$$
