SGT.pdb
 OpenBabel07022419073D

 34 33  0  0  1  0  0  0  0  0999 V2000
    1.2570   -0.6860    3.4280 O   0  0  0  0  0  0  0  0  0  0  0  0
    2.0960   -1.4700    2.6280 C   0  0  0  0  0  0  0  0  0  0  0  0
    1.3040   -2.7100    2.2710 C   0  0  2  0  0  0  0  0  0  0  0  0
    2.0910   -3.5990    1.4410 N   0  0  0  0  0  0  0  0  0  0  0  0
    0.0380   -2.3120    1.6010 C   0  0  0  0  0  0  0  0  0  0  0  0
   -0.7300   -1.5140    2.1950 O   0  0  0  0  0  0  0  0  0  0  0  0
    0.8550    0.0400    2.9180 H   0  0  0  0  0  0  0  0  0  0  0  0
    2.2540   -0.9190    1.6680 H   0  0  0  0  0  0  0  0  0  0  0  0
    3.0410   -1.6960    3.1180 H   0  0  0  0  0  0  0  0  0  0  0  0
    1.0550   -3.2290    3.2010 H   0  0  0  0  0  0  0  0  0  0  0  0
    1.5780   -4.4330    1.1410 H   0  0  0  0  0  0  0  0  0  0  0  0
    2.5840   -3.0750    0.7030 H   0  0  0  0  0  0  0  0  0  0  0  0
   -0.3470   -2.7880    0.3280 N   0  0  0  0  0  0  0  0  0  0  0  0
   -1.5500   -2.4350   -0.3770 C   0  0  0  0  0  0  0  0  0  0  0  0
   -1.5350   -0.9930   -0.6950 C   0  0  0  0  0  0  0  0  0  0  0  0
   -2.6010   -0.5480   -1.2820 O   0  0  0  0  0  0  0  0  0  0  0  0
    0.3160   -3.4610   -0.1340 H   0  0  0  0  0  0  0  0  0  0  0  0
   -2.4470   -2.6530    0.2750 H   0  0  0  0  0  0  0  0  0  0  0  0
   -1.7070   -3.0650   -1.2800 H   0  0  0  0  0  0  0  0  0  0  0  0
   -1.6360    2.1420    1.3370 C   0  0  0  0  0  0  0  0  0  0  0  0
   -0.4540    2.2340    0.4080 C   0  0  1  0  0  0  0  0  0  0  0  0
    0.7460    2.0900    1.1020 O   0  0  0  0  0  0  0  0  0  0  0  0
   -0.5430    1.2900   -0.7550 C   0  0  2  0  0  0  0  0  0  0  0  0
   -0.4730   -0.0980   -0.4160 N   0  0  0  0  0  0  0  0  0  0  0  0
    0.4880    1.7020   -1.7330 C   0  0  0  0  0  0  0  0  0  0  0  0
    0.5200    2.8950   -2.1020 O   0  0  0  0  0  0  0  0  0  0  0  0
    1.4160    0.8270   -2.2560 O   0  0  0  0  0  0  0  0  0  0  0  0
   -1.2560    1.8600    2.3410 H   0  0  0  0  0  0  0  0  0  0  0  0
   -2.3590    1.3660    1.0420 H   0  0  0  0  0  0  0  0  0  0  0  0
   -2.1500    3.1250    1.4720 H   0  0  0  0  0  0  0  0  0  0  0  0
   -0.4500    3.2630   -0.0080 H   0  0  0  0  0  0  0  0  0  0  0  0
    1.4820    1.8290    0.5220 H   0  0  0  0  0  0  0  0  0  0  0  0
   -1.5490    1.4750   -1.2340 H   0  0  0  0  0  0  0  0  0  0  0  0
    0.3820   -0.4660    0.0310 H   0  0  0  0  0  0  0  0  0  0  0  0
  2  9  1  0  0  0  0
  2  1  1  0  0  0  0
  3  2  1  0  0  0  0
  3 10  1  1  0  0  0
  4  3  1  0  0  0  0
  5  6  2  0  0  0  0
  5  3  1  0  0  0  0
  7  1  1  0  0  0  0
  8  2  1  0  0  0  0
 11  4  1  0  0  0  0
 12  4  1  0  0  0  0
 13  5  1  0  0  0  0
 14 18  1  0  0  0  0
 14 13  1  0  0  0  0
 15 24  1  0  0  0  0
 15 14  1  0  0  0  0
 16 15  2  0  0  0  0
 17 13  1  0  0  0  0
 19 14  1  0  0  0  0
 20 30  1  0  0  0  0
 20 28  1  0  0  0  0
 21 31  1  6  0  0  0
 21 22  1  0  0  0  0
 21 20  1  0  0  0  0
 23 33  1  6  0  0  0
 23 24  1  0  0  0  0
 23 21  1  0  0  0  0
 24 34  1  0  0  0  0
 25 23  1  0  0  0  0
 26 25  1  0  0  0  0
 27 25  2  0  0  0  0
 29 20  1  0  0  0  0
 32 22  1  0  0  0  0
M  END
$$$$
