SGY.pdb
 OpenBabel07022419073D

 41 41  0  0  1  0  0  0  0  0999 V2000
    0.0930   -6.0760    3.0700 O   0  0  0  0  0  0  0  0  0  0  0  0
   -0.5340   -5.2680    2.1230 C   0  0  0  0  0  0  0  0  0  0  0  0
    0.1060   -3.8960    2.2140 C   0  0  2  0  0  0  0  0  0  0  0  0
   -0.0730   -3.3500    3.5380 N   0  0  0  0  0  0  0  0  0  0  0  0
   -0.5100   -3.0560    1.1670 C   0  0  0  0  0  0  0  0  0  0  0  0
   -0.4250   -3.4210   -0.0270 O   0  0  0  0  0  0  0  0  0  0  0  0
   -0.4040   -6.0720    3.9310 H   0  0  0  0  0  0  0  0  0  0  0  0
   -1.6060   -5.2360    2.4010 H   0  0  0  0  0  0  0  0  0  0  0  0
   -0.4320   -5.6840    1.1190 H   0  0  0  0  0  0  0  0  0  0  0  0
    1.1960   -4.0080    2.0520 H   0  0  0  0  0  0  0  0  0  0  0  0
   -0.0400   -4.0810    4.2790 H   0  0  0  0  0  0  0  0  0  0  0  0
    0.5120   -2.5260    3.7110 H   0  0  0  0  0  0  0  0  0  0  0  0
   -1.1820   -1.8650    1.5150 N   0  0  0  0  0  0  0  0  0  0  0  0
   -1.7750   -1.0320    0.5170 C   0  0  0  0  0  0  0  0  0  0  0  0
   -0.7900   -0.4590   -0.4240 C   0  0  0  0  0  0  0  0  0  0  0  0
   -1.2410    0.2620   -1.3930 O   0  0  0  0  0  0  0  0  0  0  0  0
   -1.2210   -1.6240    2.5510 H   0  0  0  0  0  0  0  0  0  0  0  0
   -2.5410   -1.5930   -0.0970 H   0  0  0  0  0  0  0  0  0  0  0  0
   -2.2970   -0.1830    1.0530 H   0  0  0  0  0  0  0  0  0  0  0  0
   -0.6760    5.1090    1.7620 O   0  0  0  0  0  0  0  0  0  0  0  0
    0.0820    4.0640    1.2250 C   0  0  0  0  0  0  0  0  0  0  0  0
    0.5970    4.1470   -0.0520 C   0  0  0  0  0  0  0  0  0  0  0  0
    1.3500    3.1330   -0.6110 C   0  0  0  0  0  0  0  0  0  0  0  0
    1.6150    1.9820    0.1030 C   0  0  0  0  0  0  0  0  0  0  0  0
    2.4270    0.8770   -0.4890 C   0  0  0  0  0  0  0  0  0  0  0  0
    1.5400   -0.1150   -1.2180 C   0  0  2  0  0  0  0  0  0  0  0  0
    0.5980   -0.6740   -0.2900 N   0  0  0  0  0  0  0  0  0  0  0  0
    2.4190   -1.1450   -1.8240 C   0  0  0  0  0  0  0  0  0  0  0  0
    2.2910   -2.3530   -1.5080 O   0  0  0  0  0  0  0  0  0  0  0  0
    1.0980    1.9010    1.3800 C   0  0  0  0  0  0  0  0  0  0  0  0
    0.3460    2.9140    1.9410 C   0  0  0  0  0  0  0  0  0  0  0  0
    3.4050   -0.8400   -2.7470 O   0  0  0  0  0  0  0  0  0  0  0  0
   -1.6810    4.9820    1.7390 H   0  0  0  0  0  0  0  0  0  0  0  0
    0.4020    5.0360   -0.6250 H   0  0  0  0  0  0  0  0  0  0  0  0
    1.7600    3.1910   -1.6200 H   0  0  0  0  0  0  0  0  0  0  0  0
    2.8910    0.3370    0.3740 H   0  0  0  0  0  0  0  0  0  0  0  0
    3.2130    1.2510   -1.1720 H   0  0  0  0  0  0  0  0  0  0  0  0
    1.0100    0.4840   -2.0160 H   0  0  0  0  0  0  0  0  0  0  0  0
    0.9700   -1.2290    0.4960 H   0  0  0  0  0  0  0  0  0  0  0  0
    1.3040    0.9960    1.9500 H   0  0  0  0  0  0  0  0  0  0  0  0
   -0.0540    2.8270    2.9590 H   0  0  0  0  0  0  0  0  0  0  0  0
  1  7  1  0  0  0  0
  2  3  1  0  0  0  0
  2  8  1  0  0  0  0
  2  1  1  0  0  0  0
  3 10  1  6  0  0  0
  3  4  1  0  0  0  0
  4 12  1  0  0  0  0
  4 11  1  0  0  0  0
  5 13  1  0  0  0  0
  5  3  1  0  0  0  0
  6  5  2  0  0  0  0
  9  2  1  0  0  0  0
 13 17  1  0  0  0  0
 14 19  1  0  0  0  0
 14 13  1  0  0  0  0
 15 27  1  0  0  0  0
 15 14  1  0  0  0  0
 16 15  2  0  0  0  0
 18 14  1  0  0  0  0
 21 20  1  0  0  0  0
 21 31  1  0  0  0  0
 22 21  2  0  0  0  0
 23 22  1  0  0  0  0
 23 24  2  0  0  0  0
 24 30  1  0  0  0  0
 25 24  1  0  0  0  0
 25 36  1  0  0  0  0
 26 38  1  6  0  0  0
 26 25  1  0  0  0  0
 26 27  1  0  0  0  0
 27 39  1  0  0  0  0
 28 29  1  0  0  0  0
 28 26  1  0  0  0  0
 30 31  2  0  0  0  0
 30 40  1  0  0  0  0
 31 41  1  0  0  0  0
 32 28  2  0  0  0  0
 33 20  1  0  0  0  0
 34 22  1  0  0  0  0
 35 23  1  0  0  0  0
 37 25  1  0  0  0  0
M  END
$$$$
