SHA.pdb
 OpenBabel07022419083D

 40 40  0  0  1  0  0  0  0  0999 V2000
   -1.0210   -5.2460   -0.6270 O   0  0  0  0  0  0  0  0  0  0  0  0
   -0.5160   -4.1120    0.0090 C   0  0  0  0  0  0  0  0  0  0  0  0
    0.8280   -3.7950   -0.5830 C   0  0  2  0  0  0  0  0  0  0  0  0
    1.7790   -4.8670   -0.4210 N   0  0  0  0  0  0  0  0  0  0  0  0
    1.4030   -2.5330   -0.1200 C   0  0  0  0  0  0  0  0  0  0  0  0
    2.5750   -2.5260    0.3330 O   0  0  0  0  0  0  0  0  0  0  0  0
   -0.3240   -5.8960   -0.8760 H   0  0  0  0  0  0  0  0  0  0  0  0
   -1.1790   -3.2470   -0.1790 H   0  0  0  0  0  0  0  0  0  0  0  0
   -0.4700   -4.3520    1.0880 H   0  0  0  0  0  0  0  0  0  0  0  0
    0.6640   -3.6940   -1.6950 H   0  0  0  0  0  0  0  0  0  0  0  0
    1.4560   -5.4540    0.3810 H   0  0  0  0  0  0  0  0  0  0  0  0
    2.7290   -4.5090   -0.1510 H   0  0  0  0  0  0  0  0  0  0  0  0
    0.7240   -1.2900   -0.1440 N   0  0  0  0  0  0  0  0  0  0  0  0
    1.3230   -0.0360    0.3260 C   0  0  1  0  0  0  0  0  0  0  0  0
    1.3510    0.9420   -0.8200 C   0  0  0  0  0  0  0  0  0  0  0  0
    1.9520    2.2440   -0.5280 C   0  0  0  0  0  0  0  0  0  0  0  0
    2.0560    3.2830   -1.4500 C   0  0  0  0  0  0  0  0  0  0  0  0
    2.6570    4.3230   -0.8440 N   0  0  0  0  0  0  0  0  0  0  0  0
    2.9310    3.9760    0.4180 C   0  0  0  0  0  0  0  0  0  0  0  0
    2.5020    2.7310    0.5850 N   0  0  0  0  0  0  0  0  0  0  0  0
    0.5240    0.4730    1.4830 C   0  0  0  0  0  0  0  0  0  0  0  0
    0.8160    1.5110    2.0990 O   0  0  0  0  0  0  0  0  0  0  0  0
   -0.2370   -1.2780   -0.5120 H   0  0  0  0  0  0  0  0  0  0  0  0
    2.3500   -0.1890    0.6930 H   0  0  0  0  0  0  0  0  0  0  0  0
    1.9870    0.4760   -1.6280 H   0  0  0  0  0  0  0  0  0  0  0  0
    0.3080    1.0380   -1.2170 H   0  0  0  0  0  0  0  0  0  0  0  0
    1.7040    3.2330   -2.4750 H   0  0  0  0  0  0  0  0  0  0  0  0
    2.8720    5.2380   -1.2750 H   0  0  0  0  0  0  0  0  0  0  0  0
    3.4110    4.6040    1.1440 H   0  0  0  0  0  0  0  0  0  0  0  0
   -2.8610    0.5570    2.6260 C   0  0  0  0  0  0  0  0  0  0  0  0
   -1.4520    0.1930    3.0370 C   0  0  2  0  0  0  0  0  0  0  0  0
   -0.6370   -0.2260    1.9430 N   0  0  0  0  0  0  0  0  0  0  0  0
   -1.5450   -0.8150    4.1150 C   0  0  0  0  0  0  0  0  0  0  0  0
   -0.9320   -1.8950    3.9820 O   0  0  0  0  0  0  0  0  0  0  0  0
   -2.2840   -0.6000    5.2570 O   0  0  0  0  0  0  0  0  0  0  0  0
   -2.9520    1.5780    2.2410 H   0  0  0  0  0  0  0  0  0  0  0  0
   -3.4980    0.4730    3.5310 H   0  0  0  0  0  0  0  0  0  0  0  0
   -3.2420   -0.2210    1.9120 H   0  0  0  0  0  0  0  0  0  0  0  0
   -0.9980    1.1470    3.4350 H   0  0  0  0  0  0  0  0  0  0  0  0
   -0.8770   -1.1030    1.4170 H   0  0  0  0  0  0  0  0  0  0  0  0
  1  2  1  0  0  0  0
  2  9  1  0  0  0  0
  3 10  1  6  0  0  0
  3  4  1  0  0  0  0
  3  5  1  0  0  0  0
  3  2  1  0  0  0  0
  4 12  1  0  0  0  0
  4 11  1  0  0  0  0
  5  6  2  0  0  0  0
  7  1  1  0  0  0  0
  8  2  1  0  0  0  0
 13  5  1  0  0  0  0
 13 14  1  0  0  0  0
 14 24  1  1  0  0  0
 14 21  1  0  0  0  0
 15 16  1  0  0  0  0
 15 14  1  0  0  0  0
 16 20  1  0  0  0  0
 17 18  1  0  0  0  0
 17 16  2  0  0  0  0
 18 19  1  0  0  0  0
 19 20  2  0  0  0  0
 19 29  1  0  0  0  0
 21 32  1  0  0  0  0
 21 22  2  0  0  0  0
 23 13  1  0  0  0  0
 25 15  1  0  0  0  0
 26 15  1  0  0  0  0
 27 17  1  0  0  0  0
 28 18  1  0  0  0  0
 30 31  1  0  0  0  0
 30 37  1  0  0  0  0
 31 39  1  1  0  0  0
 31 33  1  0  0  0  0
 32 31  1  0  0  0  0
 33 35  1  0  0  0  0
 34 33  2  0  0  0  0
 36 30  1  0  0  0  0
 38 30  1  0  0  0  0
 40 32  1  0  0  0  0
M  END
$$$$
