SHD.pdb
 OpenBabel07022419083D

 43 43  0  0  1  0  0  0  0  0999 V2000
   -1.1300   -3.0710    1.8470 O   0  0  0  0  0  0  0  0  0  0  0  0
   -0.9970   -2.6320    3.1820 C   0  0  0  0  0  0  0  0  0  0  0  0
   -0.9560   -1.1290    3.1540 C   0  0  2  0  0  0  0  0  0  0  0  0
   -2.1700   -0.6380    2.5800 N   0  0  0  0  0  0  0  0  0  0  0  0
    0.2780   -0.6490    2.4460 C   0  0  0  0  0  0  0  0  0  0  0  0
    1.3690   -1.0620    2.8760 O   0  0  0  0  0  0  0  0  0  0  0  0
   -0.5710   -3.8830    1.7190 H   0  0  0  0  0  0  0  0  0  0  0  0
   -0.0710   -3.0420    3.6270 H   0  0  0  0  0  0  0  0  0  0  0  0
   -1.8900   -2.9900    3.7270 H   0  0  0  0  0  0  0  0  0  0  0  0
   -0.9100   -0.7340    4.2030 H   0  0  0  0  0  0  0  0  0  0  0  0
   -2.9670   -1.2670    2.8070 H   0  0  0  0  0  0  0  0  0  0  0  0
   -2.3990    0.3440    2.7740 H   0  0  0  0  0  0  0  0  0  0  0  0
    0.1800    0.2220    1.3560 N   0  0  0  0  0  0  0  0  0  0  0  0
    1.2490    0.7910    0.5850 C   0  0  1  0  0  0  0  0  0  0  0  0
    2.5430    0.9660    1.3540 C   0  0  0  0  0  0  0  0  0  0  0  0
    2.2950    1.9190    2.4610 C   0  0  0  0  0  0  0  0  0  0  0  0
    2.4460    3.3210    2.3650 C   0  0  0  0  0  0  0  0  0  0  0  0
    2.1470    3.8990    3.5350 N   0  0  0  0  0  0  0  0  0  0  0  0
    1.8080    2.9120    4.3790 C   0  0  0  0  0  0  0  0  0  0  0  0
    1.9030    1.7300    3.7170 N   0  0  0  0  0  0  0  0  0  0  0  0
    1.3940    0.2930   -0.7690 C   0  0  0  0  0  0  0  0  0  0  0  0
    2.2670    0.6670   -1.5930 O   0  0  0  0  0  0  0  0  0  0  0  0
   -0.8330    0.4750    1.0880 H   0  0  0  0  0  0  0  0  0  0  0  0
    0.9390    1.9190    0.4850 H   0  0  0  0  0  0  0  0  0  0  0  0
    3.2530    1.4610    0.6440 H   0  0  0  0  0  0  0  0  0  0  0  0
    2.9900    0.0500    1.7220 H   0  0  0  0  0  0  0  0  0  0  0  0
    2.7600    3.7820    1.4460 H   0  0  0  0  0  0  0  0  0  0  0  0
    2.1610    4.9050    3.7860 H   0  0  0  0  0  0  0  0  0  0  0  0
    1.5070    3.0190    5.4160 H   0  0  0  0  0  0  0  0  0  0  0  0
    0.4950   -0.7160   -1.2710 N   0  0  0  0  0  0  0  0  0  0  0  0
    0.6200   -1.2320   -2.6170 C   0  0  1  0  0  0  0  0  0  0  0  0
    0.7810   -2.7350   -2.6470 C   0  0  0  0  0  0  0  0  0  0  0  0
   -0.3870   -3.4200   -2.0440 C   0  0  0  0  0  0  0  0  0  0  0  0
   -1.5340   -3.1750   -2.5140 O   0  0  0  0  0  0  0  0  0  0  0  0
   -0.6460   -0.9260   -3.3280 C   0  0  0  0  0  0  0  0  0  0  0  0
   -0.8530   -1.2560   -4.5320 O   0  0  0  0  0  0  0  0  0  0  0  0
   -0.2470   -4.3230   -0.9720 O   0  0  0  0  0  0  0  0  0  0  0  0
   -1.6930   -0.2500   -2.7050 O   0  0  0  0  0  0  0  0  0  0  0  0
   -0.2550   -1.0740   -0.6430 H   0  0  0  0  0  0  0  0  0  0  0  0
    1.4440   -0.7170   -3.1450 H   0  0  0  0  0  0  0  0  0  0  0  0
    0.7630   -3.0060   -3.7450 H   0  0  0  0  0  0  0  0  0  0  0  0
    1.6750   -3.1150   -2.1720 H   0  0  0  0  0  0  0  0  0  0  0  0
   -1.0430   -4.6790   -0.4690 H   0  0  0  0  0  0  0  0  0  0  0  0
  1  2  1  0  0  0  0
  2  8  1  0  0  0  0
  2  9  1  0  0  0  0
  3  2  1  0  0  0  0
  3 10  1  1  0  0  0
  4 12  1  0  0  0  0
  4 11  1  0  0  0  0
  4  3  1  0  0  0  0
  5  6  2  0  0  0  0
  5  3  1  0  0  0  0
  7  1  1  0  0  0  0
 13  5  1  0  0  0  0
 14 24  1  6  0  0  0
 14 15  1  0  0  0  0
 14 13  1  0  0  0  0
 15 26  1  0  0  0  0
 15 16  1  0  0  0  0
 16 20  1  0  0  0  0
 17 16  2  0  0  0  0
 17 18  1  0  0  0  0
 18 28  1  0  0  0  0
 18 19  1  0  0  0  0
 19 29  1  0  0  0  0
 20 19  2  0  0  0  0
 21 14  1  0  0  0  0
 22 21  2  0  0  0  0
 23 13  1  0  0  0  0
 25 15  1  0  0  0  0
 27 17  1  0  0  0  0
 30 21  1  0  0  0  0
 30 39  1  0  0  0  0
 31 40  1  6  0  0  0
 31 30  1  0  0  0  0
 32 31  1  0  0  0  0
 32 42  1  0  0  0  0
 32 33  1  0  0  0  0
 33 37  1  0  0  0  0
 34 33  2  0  0  0  0
 35 38  1  0  0  0  0
 35 31  1  0  0  0  0
 36 35  2  0  0  0  0
 37 43  1  0  0  0  0
 41 32  1  0  0  0  0
M  END
$$$$
