SHE.pdb
 OpenBabel07022419083D

 46 46  0  0  1  0  0  0  0  0999 V2000
    1.5840   -3.6490   -0.2850 O   0  0  0  0  0  0  0  0  0  0  0  0
    2.0410   -4.2640    0.8540 C   0  0  0  0  0  0  0  0  0  0  0  0
    2.9170   -3.3660    1.6940 C   0  0  2  0  0  0  0  0  0  0  0  0
    3.3600   -4.0770    2.8710 N   0  0  0  0  0  0  0  0  0  0  0  0
    2.2730   -2.1090    2.0910 C   0  0  0  0  0  0  0  0  0  0  0  0
    2.1860   -1.8210    3.3100 O   0  0  0  0  0  0  0  0  0  0  0  0
    2.0590   -3.9300   -1.1170 H   0  0  0  0  0  0  0  0  0  0  0  0
    2.7040   -5.1120    0.5220 H   0  0  0  0  0  0  0  0  0  0  0  0
    1.2560   -4.7300    1.4740 H   0  0  0  0  0  0  0  0  0  0  0  0
    3.8280   -3.1080    1.1130 H   0  0  0  0  0  0  0  0  0  0  0  0
    4.0650   -3.4680    3.3560 H   0  0  0  0  0  0  0  0  0  0  0  0
    2.5360   -4.1110    3.5310 H   0  0  0  0  0  0  0  0  0  0  0  0
    1.7230   -1.1600    1.1850 N   0  0  0  0  0  0  0  0  0  0  0  0
    1.0970    0.0720    1.6430 C   0  0  1  0  0  0  0  0  0  0  0  0
    1.8730    1.2810    1.1710 C   0  0  0  0  0  0  0  0  0  0  0  0
    1.2130    2.5130    1.6540 C   0  0  0  0  0  0  0  0  0  0  0  0
    1.4630    3.1620    2.8640 C   0  0  0  0  0  0  0  0  0  0  0  0
    0.6850    4.2410    2.9680 N   0  0  0  0  0  0  0  0  0  0  0  0
   -0.0650    4.3130    1.8600 C   0  0  0  0  0  0  0  0  0  0  0  0
    0.2620    3.2540    1.0600 N   0  0  0  0  0  0  0  0  0  0  0  0
   -0.3350    0.1110    1.2610 C   0  0  0  0  0  0  0  0  0  0  0  0
   -1.1130    1.0500    1.5530 O   0  0  0  0  0  0  0  0  0  0  0  0
    1.7780   -1.3660    0.1760 H   0  0  0  0  0  0  0  0  0  0  0  0
    1.1360    0.1010    2.7620 H   0  0  0  0  0  0  0  0  0  0  0  0
    2.9060    1.1950    1.5870 H   0  0  0  0  0  0  0  0  0  0  0  0
    1.9310    1.3110    0.0590 H   0  0  0  0  0  0  0  0  0  0  0  0
    2.1930    2.8090    3.5900 H   0  0  0  0  0  0  0  0  0  0  0  0
    0.6690    4.8990    3.7650 H   0  0  0  0  0  0  0  0  0  0  0  0
   -0.8090    5.0550    1.5970 H   0  0  0  0  0  0  0  0  0  0  0  0
   -0.9350   -0.9630    0.5070 N   0  0  0  0  0  0  0  0  0  0  0  0
   -2.3220   -0.9230    0.1390 C   0  0  1  0  0  0  0  0  0  0  0  0
   -2.5350   -1.0430   -1.3470 C   0  0  0  0  0  0  0  0  0  0  0  0
   -1.8960    0.0240   -2.1640 C   0  0  0  0  0  0  0  0  0  0  0  0
   -2.3360    1.3910   -1.8880 C   0  0  0  0  0  0  0  0  0  0  0  0
   -1.7820    2.3170   -2.5600 O   0  0  0  0  0  0  0  0  0  0  0  0
   -3.0630   -2.0670    0.7520 C   0  0  0  0  0  0  0  0  0  0  0  0
   -4.2930   -2.2350    0.5680 O   0  0  0  0  0  0  0  0  0  0  0  0
   -3.2990    1.7330   -0.9600 O   0  0  0  0  0  0  0  0  0  0  0  0
   -2.3530   -2.9520    1.5400 O   0  0  0  0  0  0  0  0  0  0  0  0
   -0.3340   -1.7560    0.2460 H   0  0  0  0  0  0  0  0  0  0  0  0
   -2.8350   -0.0170    0.4930 H   0  0  0  0  0  0  0  0  0  0  0  0
   -3.6470   -0.9860   -1.5070 H   0  0  0  0  0  0  0  0  0  0  0  0
   -2.2190   -2.0210   -1.7480 H   0  0  0  0  0  0  0  0  0  0  0  0
   -2.1700   -0.1960   -3.2350 H   0  0  0  0  0  0  0  0  0  0  0  0
   -0.7790   -0.0840   -2.1470 H   0  0  0  0  0  0  0  0  0  0  0  0
   -3.3170    2.6240   -0.4930 H   0  0  0  0  0  0  0  0  0  0  0  0
  1  2  1  0  0  0  0
  2  9  1  0  0  0  0
  2  3  1  0  0  0  0
  3 10  1  6  0  0  0
  3  5  1  0  0  0  0
  3  4  1  0  0  0  0
  4 11  1  0  0  0  0
  4 12  1  0  0  0  0
  5  6  2  0  0  0  0
  7  1  1  0  0  0  0
  8  2  1  0  0  0  0
 13 14  1  0  0  0  0
 13  5  1  0  0  0  0
 14 24  1  1  0  0  0
 15 25  1  0  0  0  0
 15 14  1  0  0  0  0
 15 16  1  0  0  0  0
 16 17  2  0  0  0  0
 17 18  1  0  0  0  0
 17 27  1  0  0  0  0
 18 28  1  0  0  0  0
 19 18  1  0  0  0  0
 20 16  1  0  0  0  0
 20 19  2  0  0  0  0
 21 22  2  0  0  0  0
 21 14  1  0  0  0  0
 23 13  1  0  0  0  0
 26 15  1  0  0  0  0
 29 19  1  0  0  0  0
 30 21  1  0  0  0  0
 31 41  1  1  0  0  0
 31 30  1  0  0  0  0
 31 36  1  0  0  0  0
 32 31  1  0  0  0  0
 33 45  1  0  0  0  0
 33 34  1  0  0  0  0
 33 32  1  0  0  0  0
 34 38  1  0  0  0  0
 35 34  2  0  0  0  0
 36 39  1  0  0  0  0
 37 36  2  0  0  0  0
 38 46  1  0  0  0  0
 40 30  1  0  0  0  0
 42 32  1  0  0  0  0
 43 32  1  0  0  0  0
 44 33  1  0  0  0  0
M  END
$$$$
