SHI.pdb
 OpenBabel07022419083D

 49 49  0  0  1  0  0  0  0  0999 V2000
    0.2710    0.2880    5.8580 O   0  0  0  0  0  0  0  0  0  0  0  0
    1.5720   -0.2580    5.9150 C   0  0  0  0  0  0  0  0  0  0  0  0
    2.2030    0.0710    4.5550 C   0  0  2  0  0  0  0  0  0  0  0  0
    2.2010    1.5030    4.4430 N   0  0  0  0  0  0  0  0  0  0  0  0
    1.4000   -0.6100    3.5410 C   0  0  0  0  0  0  0  0  0  0  0  0
    1.3500   -1.8670    3.5700 O   0  0  0  0  0  0  0  0  0  0  0  0
   -0.3980   -0.3790    5.5940 H   0  0  0  0  0  0  0  0  0  0  0  0
    1.4680   -1.3460    5.9500 H   0  0  0  0  0  0  0  0  0  0  0  0
    2.1510    0.1530    6.7430 H   0  0  0  0  0  0  0  0  0  0  0  0
    3.2460   -0.2990    4.6210 H   0  0  0  0  0  0  0  0  0  0  0  0
    1.2830    1.9320    4.6970 H   0  0  0  0  0  0  0  0  0  0  0  0
    2.4980    1.8750    3.5390 H   0  0  0  0  0  0  0  0  0  0  0  0
    0.6810    0.1290    2.5290 N   0  0  0  0  0  0  0  0  0  0  0  0
   -0.1010   -0.5790    1.5450 C   0  0  1  0  0  0  0  0  0  0  0  0
   -1.5480   -0.2620    1.5330 C   0  0  0  0  0  0  0  0  0  0  0  0
   -1.9410    1.1040    1.2500 C   0  0  0  0  0  0  0  0  0  0  0  0
   -1.2560    2.2420    0.9390 C   0  0  0  0  0  0  0  0  0  0  0  0
   -2.1030    3.2810    0.7460 N   0  0  0  0  0  0  0  0  0  0  0  0
   -3.3220    2.7730    0.9420 C   0  0  0  0  0  0  0  0  0  0  0  0
   -3.2600    1.4670    1.2460 N   0  0  0  0  0  0  0  0  0  0  0  0
    0.4760   -0.4330    0.1780 C   0  0  0  0  0  0  0  0  0  0  0  0
    1.4950    0.2290   -0.0770 O   0  0  0  0  0  0  0  0  0  0  0  0
    0.8000    1.1530    2.6120 H   0  0  0  0  0  0  0  0  0  0  0  0
   -0.0060   -1.6630    1.7740 H   0  0  0  0  0  0  0  0  0  0  0  0
   -2.0570   -1.0200    0.8870 H   0  0  0  0  0  0  0  0  0  0  0  0
   -1.9460   -0.5100    2.5660 H   0  0  0  0  0  0  0  0  0  0  0  0
   -0.1950    2.3090    0.8500 H   0  0  0  0  0  0  0  0  0  0  0  0
   -1.8180    4.2570    0.4990 H   0  0  0  0  0  0  0  0  0  0  0  0
   -4.2150    3.4020    0.8490 H   0  0  0  0  0  0  0  0  0  0  0  0
   -0.3640   -4.0750   -1.4470 C   0  0  0  0  0  0  0  0  0  0  0  0
   -0.0390   -3.4750   -2.7670 C   0  0  0  0  0  0  0  0  0  0  0  0
    0.8750   -2.3000   -2.7540 C   0  0  2  0  0  0  0  0  0  0  0  0
    2.2170   -2.5890   -2.1470 C   0  0  0  0  0  0  0  0  0  0  0  0
    0.2920   -1.0160   -2.2460 C   0  0  2  0  0  0  0  0  0  0  0  0
   -0.1760   -1.0900   -0.9030 N   0  0  0  0  0  0  0  0  0  0  0  0
   -0.7120   -0.4550   -3.1820 C   0  0  0  0  0  0  0  0  0  0  0  0
   -1.8580   -0.0790   -2.8490 O   0  0  0  0  0  0  0  0  0  0  0  0
   -0.3510   -0.3410   -4.5180 O   0  0  0  0  0  0  0  0  0  0  0  0
   -1.4420   -3.9510   -1.2260 H   0  0  0  0  0  0  0  0  0  0  0  0
    0.1970   -3.6680   -0.5840 H   0  0  0  0  0  0  0  0  0  0  0  0
   -0.1960   -5.1790   -1.4130 H   0  0  0  0  0  0  0  0  0  0  0  0
   -1.0070   -3.2420   -3.3000 H   0  0  0  0  0  0  0  0  0  0  0  0
    0.4000   -4.3030   -3.4000 H   0  0  0  0  0  0  0  0  0  0  0  0
    1.1000   -2.0890   -3.8600 H   0  0  0  0  0  0  0  0  0  0  0  0
    2.9670   -2.9370   -2.9000 H   0  0  0  0  0  0  0  0  0  0  0  0
    2.6850   -1.6750   -1.6850 H   0  0  0  0  0  0  0  0  0  0  0  0
    2.1860   -3.3500   -1.3540 H   0  0  0  0  0  0  0  0  0  0  0  0
    1.1470   -0.2820   -2.2430 H   0  0  0  0  0  0  0  0  0  0  0  0
   -1.0560   -1.6640   -0.7490 H   0  0  0  0  0  0  0  0  0  0  0  0
  1  2  1  0  0  0  0
  2  8  1  0  0  0  0
  2  9  1  0  0  0  0
  3 10  1  6  0  0  0
  3  2  1  0  0  0  0
  4  3  1  0  0  0  0
  4 11  1  0  0  0  0
  5  6  2  0  0  0  0
  5  3  1  0  0  0  0
  7  1  1  0  0  0  0
 12  4  1  0  0  0  0
 13 23  1  0  0  0  0
 13  5  1  0  0  0  0
 14 24  1  1  0  0  0
 14 13  1  0  0  0  0
 15 14  1  0  0  0  0
 15 26  1  0  0  0  0
 16 15  1  0  0  0  0
 17 16  2  0  0  0  0
 18 17  1  0  0  0  0
 18 19  1  0  0  0  0
 19 20  2  0  0  0  0
 20 16  1  0  0  0  0
 21 14  1  0  0  0  0
 22 21  2  0  0  0  0
 25 15  1  0  0  0  0
 27 17  1  0  0  0  0
 28 18  1  0  0  0  0
 29 19  1  0  0  0  0
 30 41  1  0  0  0  0
 30 39  1  0  0  0  0
 30 40  1  0  0  0  0
 31 32  1  0  0  0  0
 31 30  1  0  0  0  0
 32 44  1  6  0  0  0
 32 34  1  0  0  0  0
 32 33  1  0  0  0  0
 33 46  1  0  0  0  0
 33 47  1  0  0  0  0
 34 48  1  1  0  0  0
 34 35  1  0  0  0  0
 35 49  1  0  0  0  0
 35 21  1  0  0  0  0
 36 37  1  0  0  0  0
 36 34  1  0  0  0  0
 38 36  2  0  0  0  0
 42 31  1  0  0  0  0
 43 31  1  0  0  0  0
 45 33  1  0  0  0  0
M  END
$$$$
