SHN.pdb
 OpenBabel07022419083D

 44 44  0  0  1  0  0  0  0  0999 V2000
    3.8690   -4.6910   -1.4780 O   0  0  0  0  0  0  0  0  0  0  0  0
    3.7140   -3.8150   -0.4140 C   0  0  0  0  0  0  0  0  0  0  0  0
    2.2540   -3.4430   -0.2260 C   0  0  2  0  0  0  0  0  0  0  0  0
    1.7170   -2.8100   -1.3870 N   0  0  0  0  0  0  0  0  0  0  0  0
    2.1940   -2.5500    0.9810 C   0  0  0  0  0  0  0  0  0  0  0  0
    2.6280   -2.9620    2.0870 O   0  0  0  0  0  0  0  0  0  0  0  0
    3.5530   -5.5810   -1.2230 H   0  0  0  0  0  0  0  0  0  0  0  0
    4.3080   -2.8990   -0.5640 H   0  0  0  0  0  0  0  0  0  0  0  0
    4.0180   -4.3670    0.5180 H   0  0  0  0  0  0  0  0  0  0  0  0
    1.7100   -4.3940   -0.0450 H   0  0  0  0  0  0  0  0  0  0  0  0
    1.0030   -3.3780   -1.8890 H   0  0  0  0  0  0  0  0  0  0  0  0
    2.4130   -2.3640   -2.0070 H   0  0  0  0  0  0  0  0  0  0  0  0
    1.6600   -1.2370    0.9320 N   0  0  0  0  0  0  0  0  0  0  0  0
    1.5920   -0.3630    2.0760 C   0  0  1  0  0  0  0  0  0  0  0  0
    2.4330    0.8860    1.8830 C   0  0  0  0  0  0  0  0  0  0  0  0
    1.9950    1.6800    0.7070 C   0  0  0  0  0  0  0  0  0  0  0  0
    2.4950    1.4960   -0.5630 C   0  0  0  0  0  0  0  0  0  0  0  0
    1.8940    2.3680   -1.3880 N   0  0  0  0  0  0  0  0  0  0  0  0
    1.0270    3.1010   -0.6760 C   0  0  0  0  0  0  0  0  0  0  0  0
    1.0950    2.6730    0.6080 N   0  0  0  0  0  0  0  0  0  0  0  0
    0.2010    0.0210    2.4160 C   0  0  0  0  0  0  0  0  0  0  0  0
    0.0270    0.7820    3.3990 O   0  0  0  0  0  0  0  0  0  0  0  0
    1.3050   -0.9060    0.0170 H   0  0  0  0  0  0  0  0  0  0  0  0
    2.0120   -0.8640    2.9880 H   0  0  0  0  0  0  0  0  0  0  0  0
    2.3270    1.5440    2.7700 H   0  0  0  0  0  0  0  0  0  0  0  0
    3.5140    0.6420    1.8180 H   0  0  0  0  0  0  0  0  0  0  0  0
    3.2390    0.7760   -0.8460 H   0  0  0  0  0  0  0  0  0  0  0  0
    2.0700    2.4640   -2.4200 H   0  0  0  0  0  0  0  0  0  0  0  0
    0.3920    3.8930   -1.0820 H   0  0  0  0  0  0  0  0  0  0  0  0
   -4.5170    2.3080    1.6480 N   0  0  0  0  0  0  0  0  0  0  0  0
   -4.2860    0.9980    1.1230 C   0  0  0  0  0  0  0  0  0  0  0  0
   -5.3050    0.2630    0.9490 O   0  0  0  0  0  0  0  0  0  0  0  0
   -2.9010    0.5860    0.8200 C   0  0  0  0  0  0  0  0  0  0  0  0
   -2.2550   -0.0780    1.9940 C   0  0  2  0  0  0  0  0  0  0  0  0
   -0.8840   -0.4650    1.6470 N   0  0  0  0  0  0  0  0  0  0  0  0
   -2.9570   -1.3350    2.3210 C   0  0  0  0  0  0  0  0  0  0  0  0
   -2.4010   -2.4800    2.2510 O   0  0  0  0  0  0  0  0  0  0  0  0
   -4.2930   -1.3250    2.7350 O   0  0  0  0  0  0  0  0  0  0  0  0
   -4.7750    2.4300    2.6280 H   0  0  0  0  0  0  0  0  0  0  0  0
   -4.4120    3.1040    0.9970 H   0  0  0  0  0  0  0  0  0  0  0  0
   -2.9620   -0.1050   -0.0530 H   0  0  0  0  0  0  0  0  0  0  0  0
   -2.3460    1.4920    0.4790 H   0  0  0  0  0  0  0  0  0  0  0  0
   -2.2270    0.5840    2.8760 H   0  0  0  0  0  0  0  0  0  0  0  0
   -0.6950   -1.0890    0.8460 H   0  0  0  0  0  0  0  0  0  0  0  0
  1  7  1  0  0  0  0
  1  2  1  0  0  0  0
  2  3  1  0  0  0  0
  2  9  1  0  0  0  0
  3 10  1  1  0  0  0
  3  5  1  0  0  0  0
  4  3  1  0  0  0  0
  5  6  2  0  0  0  0
  8  2  1  0  0  0  0
 11  4  1  0  0  0  0
 12  4  1  0  0  0  0
 13  5  1  0  0  0  0
 13 14  1  0  0  0  0
 14 21  1  0  0  0  0
 14 24  1  1  0  0  0
 15 14  1  0  0  0  0
 15 25  1  0  0  0  0
 16 15  1  0  0  0  0
 17 16  2  0  0  0  0
 18 19  1  0  0  0  0
 18 17  1  0  0  0  0
 19 20  2  0  0  0  0
 20 16  1  0  0  0  0
 21 22  2  0  0  0  0
 23 13  1  0  0  0  0
 26 15  1  0  0  0  0
 27 17  1  0  0  0  0
 28 18  1  0  0  0  0
 29 19  1  0  0  0  0
 30 39  1  0  0  0  0
 31 30  1  0  0  0  0
 32 31  2  0  0  0  0
 33 31  1  0  0  0  0
 33 34  1  0  0  0  0
 34 36  1  0  0  0  0
 34 43  1  1  0  0  0
 35 34  1  0  0  0  0
 35 21  1  0  0  0  0
 36 38  1  0  0  0  0
 37 36  2  0  0  0  0
 40 30  1  0  0  0  0
 41 33  1  0  0  0  0
 42 33  1  0  0  0  0
 44 35  1  0  0  0  0
M  END
$$$$
