SHP.pdb
 OpenBabel07022419083D

 44 45  0  0  1  0  0  0  0  0999 V2000
    2.7270   -4.7680    2.1710 O   0  0  0  0  0  0  0  0  0  0  0  0
    2.7900   -3.3650    2.1250 C   0  0  0  0  0  0  0  0  0  0  0  0
    1.3920   -2.8530    1.8480 C   0  0  2  0  0  0  0  0  0  0  0  0
    0.9650   -3.3900    0.5940 N   0  0  0  0  0  0  0  0  0  0  0  0
    1.3410   -1.3790    1.9000 C   0  0  0  0  0  0  0  0  0  0  0  0
    1.6840   -0.7450    2.9350 O   0  0  0  0  0  0  0  0  0  0  0  0
    1.7910   -5.0840    2.1240 H   0  0  0  0  0  0  0  0  0  0  0  0
    3.4250   -3.1240    1.2270 H   0  0  0  0  0  0  0  0  0  0  0  0
    3.2410   -2.9470    3.0260 H   0  0  0  0  0  0  0  0  0  0  0  0
    0.7300   -3.2360    2.6620 H   0  0  0  0  0  0  0  0  0  0  0  0
    0.4070   -4.2460    0.6400 H   0  0  0  0  0  0  0  0  0  0  0  0
    1.6610   -3.3370   -0.1590 H   0  0  0  0  0  0  0  0  0  0  0  0
    0.8940   -0.6740    0.7490 N   0  0  0  0  0  0  0  0  0  0  0  0
    0.7980    0.7420    0.6690 C   0  0  1  0  0  0  0  0  0  0  0  0
    1.5500    1.2370   -0.5660 C   0  0  0  0  0  0  0  0  0  0  0  0
    2.9660    0.8820   -0.5330 C   0  0  0  0  0  0  0  0  0  0  0  0
    3.5280   -0.2670   -1.0330 C   0  0  0  0  0  0  0  0  0  0  0  0
    4.8630   -0.1930   -0.7930 N   0  0  0  0  0  0  0  0  0  0  0  0
    5.1300    0.9650   -0.1630 C   0  0  0  0  0  0  0  0  0  0  0  0
    3.9560    1.6150   -0.0100 N   0  0  0  0  0  0  0  0  0  0  0  0
   -0.5320    1.3380    0.6460 C   0  0  0  0  0  0  0  0  0  0  0  0
   -0.5240    2.6180    0.4390 O   0  0  0  0  0  0  0  0  0  0  0  0
    0.6420   -1.2350   -0.0930 H   0  0  0  0  0  0  0  0  0  0  0  0
    1.3360    1.1920    1.5810 H   0  0  0  0  0  0  0  0  0  0  0  0
    1.0080    0.7770   -1.4410 H   0  0  0  0  0  0  0  0  0  0  0  0
    1.3640    2.3300   -0.6390 H   0  0  0  0  0  0  0  0  0  0  0  0
    3.0810   -1.1140   -1.5320 H   0  0  0  0  0  0  0  0  0  0  0  0
    5.5490   -0.9120   -1.0560 H   0  0  0  0  0  0  0  0  0  0  0  0
    6.1020    1.2980    0.1540 H   0  0  0  0  0  0  0  0  0  0  0  0
   -1.7940    0.7760    0.8070 N   0  0  0  0  0  0  0  0  0  0  0  0
   -2.1400   -0.5920    1.0770 C   0  0  0  0  0  0  0  0  0  0  0  0
   -3.3440   -0.8130    0.1690 C   0  0  0  0  0  0  0  0  0  0  0  0
   -3.8860    0.5370   -0.1480 C   0  0  0  0  0  0  0  0  0  0  0  0
   -3.0830    1.4590    0.7340 C   0  0  1  0  0  0  0  0  0  0  0  0
   -3.7690    1.5870    2.0150 C   0  0  0  0  0  0  0  0  0  0  0  0
   -4.9110    2.1630    1.9770 O   0  0  0  0  0  0  0  0  0  0  0  0
   -3.3520    1.1740    3.2480 O   0  0  0  0  0  0  0  0  0  0  0  0
   -1.3810   -1.3420    0.9440 H   0  0  0  0  0  0  0  0  0  0  0  0
   -2.4610   -0.6690    2.1550 H   0  0  0  0  0  0  0  0  0  0  0  0
   -4.0930   -1.3700    0.7660 H   0  0  0  0  0  0  0  0  0  0  0  0
   -3.0400   -1.3970   -0.7250 H   0  0  0  0  0  0  0  0  0  0  0  0
   -4.9580    0.6310    0.1540 H   0  0  0  0  0  0  0  0  0  0  0  0
   -3.8300    0.8080   -1.2170 H   0  0  0  0  0  0  0  0  0  0  0  0
   -2.9780    2.4660    0.2790 H   0  0  0  0  0  0  0  0  0  0  0  0
  2  1  1  0  0  0  0
  2  9  1  0  0  0  0
  3  5  1  0  0  0  0
  3  2  1  0  0  0  0
  3 10  1  1  0  0  0
  4 11  1  0  0  0  0
  4  3  1  0  0  0  0
  5  6  2  0  0  0  0
  7  1  1  0  0  0  0
  8  2  1  0  0  0  0
 12  4  1  0  0  0  0
 13  5  1  0  0  0  0
 14 13  1  0  0  0  0
 14 24  1  1  0  0  0
 15 16  1  0  0  0  0
 15 14  1  0  0  0  0
 16 20  1  0  0  0  0
 17 18  1  0  0  0  0
 17 16  2  0  0  0  0
 18 19  1  0  0  0  0
 19 20  2  0  0  0  0
 19 29  1  0  0  0  0
 21 14  1  0  0  0  0
 21 30  1  0  0  0  0
 22 21  2  0  0  0  0
 23 13  1  0  0  0  0
 25 15  1  0  0  0  0
 26 15  1  0  0  0  0
 27 17  1  0  0  0  0
 28 18  1  0  0  0  0
 30 31  1  0  0  0  0
 31 39  1  0  0  0  0
 32 40  1  0  0  0  0
 32 31  1  0  0  0  0
 33 42  1  0  0  0  0
 33 32  1  0  0  0  0
 33 34  1  0  0  0  0
 34 44  1  6  0  0  0
 34 30  1  0  0  0  0
 34 35  1  0  0  0  0
 35 37  1  0  0  0  0
 36 35  2  0  0  0  0
 38 31  1  0  0  0  0
 41 32  1  0  0  0  0
 43 33  1  0  0  0  0
M  END
$$$$
