SHQ.pdb
 OpenBabel07022419083D

 47 47  0  0  1  0  0  0  0  0999 V2000
   -1.9240   -3.0200    3.7640 O   0  0  0  0  0  0  0  0  0  0  0  0
   -0.7890   -3.6960    3.3520 C   0  0  0  0  0  0  0  0  0  0  0  0
    0.3960   -3.0660    4.0860 C   0  0  2  0  0  0  0  0  0  0  0  0
    0.1410   -3.2410    5.4970 N   0  0  0  0  0  0  0  0  0  0  0  0
    0.4520   -1.6310    3.7170 C   0  0  0  0  0  0  0  0  0  0  0  0
    0.2870   -0.7190    4.5830 O   0  0  0  0  0  0  0  0  0  0  0  0
   -2.6750   -3.0990    3.1280 H   0  0  0  0  0  0  0  0  0  0  0  0
   -0.8650   -4.7740    3.5790 H   0  0  0  0  0  0  0  0  0  0  0  0
   -0.5680   -3.5720    2.2720 H   0  0  0  0  0  0  0  0  0  0  0  0
    1.3100   -3.6160    3.7670 H   0  0  0  0  0  0  0  0  0  0  0  0
   -0.1990   -4.2060    5.6590 H   0  0  0  0  0  0  0  0  0  0  0  0
   -0.6370   -2.5910    5.7550 H   0  0  0  0  0  0  0  0  0  0  0  0
    0.6960   -1.2840    2.3610 N   0  0  0  0  0  0  0  0  0  0  0  0
    0.7690    0.0960    1.9030 C   0  0  1  0  0  0  0  0  0  0  0  0
    2.1720    0.3060    1.3830 C   0  0  0  0  0  0  0  0  0  0  0  0
    2.4060    1.6690    0.8810 C   0  0  0  0  0  0  0  0  0  0  0  0
    2.8650    2.7360    1.6500 C   0  0  0  0  0  0  0  0  0  0  0  0
    2.9700    3.8340    0.8960 N   0  0  0  0  0  0  0  0  0  0  0  0
    2.5870    3.4820   -0.3340 C   0  0  0  0  0  0  0  0  0  0  0  0
    2.2450    2.1850   -0.3590 N   0  0  0  0  0  0  0  0  0  0  0  0
   -0.1850    0.3430    0.7970 C   0  0  0  0  0  0  0  0  0  0  0  0
   -0.2290    1.5150    0.3220 O   0  0  0  0  0  0  0  0  0  0  0  0
    0.8290   -2.0530    1.6720 H   0  0  0  0  0  0  0  0  0  0  0  0
    0.6180    0.8060    2.7430 H   0  0  0  0  0  0  0  0  0  0  0  0
    2.9430   -0.0260    2.1080 H   0  0  0  0  0  0  0  0  0  0  0  0
    2.2760   -0.3830    0.4990 H   0  0  0  0  0  0  0  0  0  0  0  0
    3.0990    2.6770    2.7010 H   0  0  0  0  0  0  0  0  0  0  0  0
    3.2860    4.7980    1.1740 H   0  0  0  0  0  0  0  0  0  0  0  0
    2.5620    4.1620   -1.1830 H   0  0  0  0  0  0  0  0  0  0  0  0
    1.1840   -0.0480   -3.9270 N   0  0  0  0  0  0  0  0  0  0  0  0
   -0.0140   -0.1890   -3.2420 C   0  0  0  0  0  0  0  0  0  0  0  0
   -0.7200    0.8700   -3.1110 O   0  0  0  0  0  0  0  0  0  0  0  0
   -0.5650   -1.4120   -2.6520 C   0  0  0  0  0  0  0  0  0  0  0  0
   -1.8430   -1.2920   -1.9550 C   0  0  0  0  0  0  0  0  0  0  0  0
   -1.9100   -0.3720   -0.7830 C   0  0  2  0  0  0  0  0  0  0  0  0
   -1.0220   -0.6960    0.2820 N   0  0  0  0  0  0  0  0  0  0  0  0
   -3.3050   -0.5080   -0.2250 C   0  0  0  0  0  0  0  0  0  0  0  0
   -3.5410   -0.8450    0.9550 O   0  0  0  0  0  0  0  0  0  0  0  0
   -4.3820   -0.2480   -1.0580 O   0  0  0  0  0  0  0  0  0  0  0  0
    2.0790   -0.3340   -3.4970 H   0  0  0  0  0  0  0  0  0  0  0  0
    1.2010    0.3470   -4.8820 H   0  0  0  0  0  0  0  0  0  0  0  0
   -0.6610   -2.1690   -3.4580 H   0  0  0  0  0  0  0  0  0  0  0  0
    0.2310   -1.8270   -1.9660 H   0  0  0  0  0  0  0  0  0  0  0  0
   -2.6290   -0.9510   -2.6840 H   0  0  0  0  0  0  0  0  0  0  0  0
   -2.1770   -2.2970   -1.6240 H   0  0  0  0  0  0  0  0  0  0  0  0
   -1.8290    0.6750   -1.0790 H   0  0  0  0  0  0  0  0  0  0  0  0
   -0.9240   -1.6310    0.7280 H   0  0  0  0  0  0  0  0  0  0  0  0
  2  8  1  0  0  0  0
  2  1  1  0  0  0  0
  2  3  1  0  0  0  0
  3 10  1  6  0  0  0
  3  4  1  0  0  0  0
  4 11  1  0  0  0  0
  4 12  1  0  0  0  0
  5  3  1  0  0  0  0
  5  6  2  0  0  0  0
  7  1  1  0  0  0  0
  9  2  1  0  0  0  0
 13  5  1  0  0  0  0
 14 13  1  0  0  0  0
 14 24  1  1  0  0  0
 15 14  1  0  0  0  0
 15 25  1  0  0  0  0
 16 15  1  0  0  0  0
 16 17  2  0  0  0  0
 17 27  1  0  0  0  0
 18 28  1  0  0  0  0
 18 17  1  0  0  0  0
 19 18  1  0  0  0  0
 20 19  2  0  0  0  0
 20 16  1  0  0  0  0
 21 14  1  0  0  0  0
 22 21  2  0  0  0  0
 23 13  1  0  0  0  0
 26 15  1  0  0  0  0
 29 19  1  0  0  0  0
 30 40  1  0  0  0  0
 30 31  1  0  0  0  0
 31 32  2  0  0  0  0
 31 33  1  0  0  0  0
 33 43  1  0  0  0  0
 33 34  1  0  0  0  0
 34 45  1  0  0  0  0
 34 35  1  0  0  0  0
 35 46  1  6  0  0  0
 35 37  1  0  0  0  0
 35 36  1  0  0  0  0
 36 47  1  0  0  0  0
 36 21  1  0  0  0  0
 37 38  1  0  0  0  0
 39 37  2  0  0  0  0
 41 30  1  0  0  0  0
 42 33  1  0  0  0  0
 44 34  1  0  0  0  0
M  END
$$$$
