SHR.pdb
 OpenBabel07022419083D

 53 53  0  0  1  0  0  0  0  0999 V2000
   -0.1900    2.4320    4.7820 O   0  0  0  0  0  0  0  0  0  0  0  0
    0.6380    1.9790    3.7580 C   0  0  0  0  0  0  0  0  0  0  0  0
    1.1130    0.5960    4.1470 C   0  0  2  0  0  0  0  0  0  0  0  0
    1.8370    0.6450    5.3820 N   0  0  0  0  0  0  0  0  0  0  0  0
    1.9630    0.0110    3.0450 C   0  0  0  0  0  0  0  0  0  0  0  0
    3.1010   -0.3380    3.3270 O   0  0  0  0  0  0  0  0  0  0  0  0
   -1.1590    2.2870    4.5750 H   0  0  0  0  0  0  0  0  0  0  0  0
    1.4620    2.6990    3.6730 H   0  0  0  0  0  0  0  0  0  0  0  0
    0.0750    1.8950    2.7880 H   0  0  0  0  0  0  0  0  0  0  0  0
    0.2140   -0.0420    4.3020 H   0  0  0  0  0  0  0  0  0  0  0  0
    1.5260   -0.0540    6.0650 H   0  0  0  0  0  0  0  0  0  0  0  0
    2.8520    0.7900    5.2980 H   0  0  0  0  0  0  0  0  0  0  0  0
    1.4730   -0.1290    1.7490 N   0  0  0  0  0  0  0  0  0  0  0  0
    2.0470   -0.6080    0.5680 C   0  0  1  0  0  0  0  0  0  0  0  0
    3.5090   -0.8150    0.4230 C   0  0  0  0  0  0  0  0  0  0  0  0
    4.2560    0.4330    0.5200 C   0  0  0  0  0  0  0  0  0  0  0  0
    4.5140    1.2240   -0.6220 C   0  0  0  0  0  0  0  0  0  0  0  0
    5.2040    2.3010   -0.2760 N   0  0  0  0  0  0  0  0  0  0  0  0
    5.4100    2.2470    1.0590 C   0  0  0  0  0  0  0  0  0  0  0  0
    4.8330    1.1240    1.4980 N   0  0  0  0  0  0  0  0  0  0  0  0
    1.2180   -1.6220   -0.1880 C   0  0  0  0  0  0  0  0  0  0  0  0
    1.6320   -2.0600   -1.2900 O   0  0  0  0  0  0  0  0  0  0  0  0
    0.4430    0.2100    1.6510 H   0  0  0  0  0  0  0  0  0  0  0  0
    1.9470    0.3360   -0.1430 H   0  0  0  0  0  0  0  0  0  0  0  0
    3.6450   -1.2410   -0.6180 H   0  0  0  0  0  0  0  0  0  0  0  0
    3.9190   -1.6280    1.0620 H   0  0  0  0  0  0  0  0  0  0  0  0
    4.1900    0.9760   -1.6290 H   0  0  0  0  0  0  0  0  0  0  0  0
    5.5170    3.0410   -0.9480 H   0  0  0  0  0  0  0  0  0  0  0  0
    5.9550    3.0210    1.5810 H   0  0  0  0  0  0  0  0  0  0  0  0
   -6.3120    0.1970   -0.6630 N   0  0  0  0  0  0  0  0  0  0  0  0
   -5.8390   -0.7920   -1.5660 C   0  0  0  0  0  0  0  0  0  0  0  0
   -6.3850   -0.8580   -2.7300 N   0  0  0  0  0  0  0  0  0  0  0  0
   -4.8040   -1.6970   -1.2460 N   0  0  0  0  0  0  0  0  0  0  0  0
   -4.0950   -2.4250   -2.2630 C   0  0  0  0  0  0  0  0  0  0  0  0
   -2.9870   -3.3060   -1.6630 C   0  0  0  0  0  0  0  0  0  0  0  0
   -2.0200   -2.4060   -0.9840 C   0  0  0  0  0  0  0  0  0  0  0  0
   -0.8790   -3.0330   -0.2610 C   0  0  2  0  0  0  0  0  0  0  0  0
   -0.0090   -2.0730    0.3410 N   0  0  0  0  0  0  0  0  0  0  0  0
   -0.2810   -4.1380   -0.9930 C   0  0  0  0  0  0  0  0  0  0  0  0
   -1.0900   -4.9780   -1.5130 O   0  0  0  0  0  0  0  0  0  0  0  0
    1.0620   -4.4030   -1.1990 O   0  0  0  0  0  0  0  0  0  0  0  0
   -5.7640    0.4440    0.1800 H   0  0  0  0  0  0  0  0  0  0  0  0
   -7.2090    0.6970   -0.8150 H   0  0  0  0  0  0  0  0  0  0  0  0
   -7.1520   -0.2280   -3.0410 H   0  0  0  0  0  0  0  0  0  0  0  0
   -4.5580   -1.8460   -0.2500 H   0  0  0  0  0  0  0  0  0  0  0  0
   -4.7680   -3.1310   -2.7930 H   0  0  0  0  0  0  0  0  0  0  0  0
   -3.6310   -1.7660   -3.0140 H   0  0  0  0  0  0  0  0  0  0  0  0
   -2.5110   -3.7430   -2.5970 H   0  0  0  0  0  0  0  0  0  0  0  0
   -3.3950   -4.1100   -1.0280 H   0  0  0  0  0  0  0  0  0  0  0  0
   -1.6700   -1.6600   -1.7490 H   0  0  0  0  0  0  0  0  0  0  0  0
   -2.5920   -1.8230   -0.1940 H   0  0  0  0  0  0  0  0  0  0  0  0
   -1.3940   -3.5890    0.6410 H   0  0  0  0  0  0  0  0  0  0  0  0
   -0.2900   -1.6360    1.2870 H   0  0  0  0  0  0  0  0  0  0  0  0
  2  3  1  0  0  0  0
  2  1  1  0  0  0  0
  3 10  1  1  0  0  0
  3  4  1  0  0  0  0
  4 11  1  0  0  0  0
  5  6  2  0  0  0  0
  5  3  1  0  0  0  0
  7  1  1  0  0  0  0
  8  2  1  0  0  0  0
  9  2  1  0  0  0  0
 12  4  1  0  0  0  0
 13  5  1  0  0  0  0
 14 24  1  6  0  0  0
 14 13  1  0  0  0  0
 15 16  1  0  0  0  0
 15 14  1  0  0  0  0
 15 26  1  0  0  0  0
 16 20  1  0  0  0  0
 17 18  1  0  0  0  0
 17 16  2  0  0  0  0
 18 19  1  0  0  0  0
 19 20  2  0  0  0  0
 19 29  1  0  0  0  0
 21 38  1  0  0  0  0
 21 14  1  0  0  0  0
 22 21  2  0  0  0  0
 23 13  1  0  0  0  0
 25 15  1  0  0  0  0
 27 17  1  0  0  0  0
 28 18  1  0  0  0  0
 30 42  1  0  0  0  0
 31 33  1  0  0  0  0
 31 30  1  0  0  0  0
 32 31  2  0  0  0  0
 33 45  1  0  0  0  0
 34 35  1  0  0  0  0
 34 33  1  0  0  0  0
 35 49  1  0  0  0  0
 35 36  1  0  0  0  0
 36 37  1  0  0  0  0
 36 51  1  0  0  0  0
 37 38  1  0  0  0  0
 37 52  1  1  0  0  0
 38 53  1  0  0  0  0
 39 37  1  0  0  0  0
 40 39  2  0  0  0  0
 41 39  1  0  0  0  0
 43 30  1  0  0  0  0
 44 32  1  0  0  0  0
 46 34  1  0  0  0  0
 47 34  1  0  0  0  0
 48 35  1  0  0  0  0
 50 36  1  0  0  0  0
M  END
$$$$
