SHS.pdb
 OpenBabel07022419083D

 41 41  0  0  1  0  0  0  0  0999 V2000
   -0.8530    1.7360    1.2780 O   0  0  0  0  0  0  0  0  0  0  0  0
    0.0290    2.7190    1.6660 C   0  0  0  0  0  0  0  0  0  0  0  0
    1.0600    2.2760    2.6560 C   0  0  2  0  0  0  0  0  0  0  0  0
    1.9020    3.4020    2.9680 N   0  0  0  0  0  0  0  0  0  0  0  0
    1.8390    1.0970    2.2190 C   0  0  0  0  0  0  0  0  0  0  0  0
    3.1150    1.1620    2.1640 O   0  0  0  0  0  0  0  0  0  0  0  0
   -1.5410    1.5410    1.9580 H   0  0  0  0  0  0  0  0  0  0  0  0
   -0.5120    3.5990    2.0670 H   0  0  0  0  0  0  0  0  0  0  0  0
    0.5760    3.0450    0.7480 H   0  0  0  0  0  0  0  0  0  0  0  0
    0.5290    1.9900    3.5890 H   0  0  0  0  0  0  0  0  0  0  0  0
    2.8810    3.0900    3.1650 H   0  0  0  0  0  0  0  0  0  0  0  0
    1.8610    4.0850    2.1880 H   0  0  0  0  0  0  0  0  0  0  0  0
    1.2770   -0.1450    1.8430 N   0  0  0  0  0  0  0  0  0  0  0  0
    2.0860   -1.2770    1.4220 C   0  0  1  0  0  0  0  0  0  0  0  0
    1.8460   -2.4390    2.3520 C   0  0  0  0  0  0  0  0  0  0  0  0
    0.4260   -2.8010    2.3090 C   0  0  0  0  0  0  0  0  0  0  0  0
   -0.5420   -2.2510    3.1540 C   0  0  0  0  0  0  0  0  0  0  0  0
   -1.6920   -2.8360    2.8000 N   0  0  0  0  0  0  0  0  0  0  0  0
   -1.4810   -3.6970    1.8040 C   0  0  0  0  0  0  0  0  0  0  0  0
   -0.1810   -3.6790    1.4980 N   0  0  0  0  0  0  0  0  0  0  0  0
    1.7420   -1.6630    0.0210 C   0  0  0  0  0  0  0  0  0  0  0  0
    2.3210   -2.6360   -0.5380 O   0  0  0  0  0  0  0  0  0  0  0  0
    0.2400   -0.2430    1.8720 H   0  0  0  0  0  0  0  0  0  0  0  0
    3.1620   -0.9640    1.4620 H   0  0  0  0  0  0  0  0  0  0  0  0
    2.1130   -2.1310    3.3860 H   0  0  0  0  0  0  0  0  0  0  0  0
    2.5060   -3.2850    2.0490 H   0  0  0  0  0  0  0  0  0  0  0  0
   -0.3660   -1.5160    3.9170 H   0  0  0  0  0  0  0  0  0  0  0  0
   -2.6100   -2.6540    3.2290 H   0  0  0  0  0  0  0  0  0  0  0  0
   -2.2250   -4.3090    1.3180 H   0  0  0  0  0  0  0  0  0  0  0  0
   -1.2770   -2.8490   -1.3260 O   0  0  0  0  0  0  0  0  0  0  0  0
   -1.0060   -1.7810   -2.1750 C   0  0  0  0  0  0  0  0  0  0  0  0
    0.4500   -1.3790   -2.1350 C   0  0  2  0  0  0  0  0  0  0  0  0
    0.7700   -0.9870   -0.7630 N   0  0  0  0  0  0  0  0  0  0  0  0
    0.7390   -0.2770   -3.0830 C   0  0  0  0  0  0  0  0  0  0  0  0
    1.1990    0.8270   -2.6990 O   0  0  0  0  0  0  0  0  0  0  0  0
    0.5090   -0.4320   -4.4400 O   0  0  0  0  0  0  0  0  0  0  0  0
   -2.1990   -2.8680   -0.9940 H   0  0  0  0  0  0  0  0  0  0  0  0
   -1.3070   -2.0890   -3.1910 H   0  0  0  0  0  0  0  0  0  0  0  0
   -1.6580   -0.9340   -1.8100 H   0  0  0  0  0  0  0  0  0  0  0  0
    1.0440   -2.2630   -2.4430 H   0  0  0  0  0  0  0  0  0  0  0  0
    0.2780   -0.1810   -0.3220 H   0  0  0  0  0  0  0  0  0  0  0  0
  1  2  1  0  0  0  0
  1  7  1  0  0  0  0
  2  8  1  0  0  0  0
  2  3  1  0  0  0  0
  3  4  1  0  0  0  0
  3 10  1  1  0  0  0
  4 11  1  0  0  0  0
  5  3  1  0  0  0  0
  6  5  2  0  0  0  0
  9  2  1  0  0  0  0
 12  4  1  0  0  0  0
 13 23  1  0  0  0  0
 13  5  1  0  0  0  0
 14 24  1  1  0  0  0
 14 13  1  0  0  0  0
 14 15  1  0  0  0  0
 15 25  1  0  0  0  0
 16 15  1  0  0  0  0
 16 17  2  0  0  0  0
 17 27  1  0  0  0  0
 18 17  1  0  0  0  0
 18 28  1  0  0  0  0
 19 18  1  0  0  0  0
 20 19  2  0  0  0  0
 20 16  1  0  0  0  0
 21 14  1  0  0  0  0
 22 21  2  0  0  0  0
 26 15  1  0  0  0  0
 29 19  1  0  0  0  0
 30 37  1  0  0  0  0
 31 32  1  0  0  0  0
 31 39  1  0  0  0  0
 31 30  1  0  0  0  0
 32 40  1  6  0  0  0
 32 33  1  0  0  0  0
 33 41  1  0  0  0  0
 33 21  1  0  0  0  0
 34 35  1  0  0  0  0
 34 32  1  0  0  0  0
 36 34  2  0  0  0  0
 38 31  1  0  0  0  0
M  END
$$$$
