SHT.pdb
 OpenBabel07022419083D

 44 44  0  0  1  0  0  0  0  0999 V2000
    0.3560   -4.1060   -0.8510 O   0  0  0  0  0  0  0  0  0  0  0  0
    1.7040   -4.0870   -1.1870 C   0  0  0  0  0  0  0  0  0  0  0  0
    1.9710   -2.8170   -1.9720 C   0  0  2  0  0  0  0  0  0  0  0  0
    3.3920   -2.8230   -2.3150 N   0  0  0  0  0  0  0  0  0  0  0  0
    1.6840   -1.6650   -1.0540 C   0  0  0  0  0  0  0  0  0  0  0  0
    2.6530   -0.9270   -0.6840 O   0  0  0  0  0  0  0  0  0  0  0  0
    0.2310   -4.4030    0.0850 H   0  0  0  0  0  0  0  0  0  0  0  0
    1.9880   -4.9670   -1.8140 H   0  0  0  0  0  0  0  0  0  0  0  0
    2.3560   -4.0660   -0.2820 H   0  0  0  0  0  0  0  0  0  0  0  0
    1.3750   -2.7870   -2.8930 H   0  0  0  0  0  0  0  0  0  0  0  0
    3.6150   -3.7190   -2.7890 H   0  0  0  0  0  0  0  0  0  0  0  0
    3.5700   -1.9780   -2.9050 H   0  0  0  0  0  0  0  0  0  0  0  0
    0.4070   -1.3520   -0.5800 N   0  0  0  0  0  0  0  0  0  0  0  0
    0.2220   -0.2230    0.3030 C   0  0  1  0  0  0  0  0  0  0  0  0
   -0.6180    0.7830   -0.4610 C   0  0  0  0  0  0  0  0  0  0  0  0
    0.1530    1.1400   -1.6830 C   0  0  0  0  0  0  0  0  0  0  0  0
    1.0820    2.1670   -1.8380 C   0  0  0  0  0  0  0  0  0  0  0  0
    1.5580    2.1540   -3.1100 N   0  0  0  0  0  0  0  0  0  0  0  0
    0.9480    1.1470   -3.7400 C   0  0  0  0  0  0  0  0  0  0  0  0
    0.1120    0.5440   -2.8900 N   0  0  0  0  0  0  0  0  0  0  0  0
   -0.4480   -0.6960    1.5310 C   0  0  0  0  0  0  0  0  0  0  0  0
   -0.7580   -1.9060    1.6710 O   0  0  0  0  0  0  0  0  0  0  0  0
   -0.4190   -1.9200   -0.8530 H   0  0  0  0  0  0  0  0  0  0  0  0
    1.1870    0.2500    0.4760 H   0  0  0  0  0  0  0  0  0  0  0  0
   -1.6120    0.3480   -0.7360 H   0  0  0  0  0  0  0  0  0  0  0  0
   -0.7420    1.6950    0.1590 H   0  0  0  0  0  0  0  0  0  0  0  0
    1.3910    2.8770   -1.0780 H   0  0  0  0  0  0  0  0  0  0  0  0
    2.2680    2.8210   -3.4880 H   0  0  0  0  0  0  0  0  0  0  0  0
    1.1000    0.8640   -4.7610 H   0  0  0  0  0  0  0  0  0  0  0  0
   -0.1050    1.4020    5.0780 C   0  0  0  0  0  0  0  0  0  0  0  0
   -0.4480   -0.0740    4.9600 C   0  0  1  0  0  0  0  0  0  0  0  0
   -0.9720   -0.4870    6.1770 O   0  0  0  0  0  0  0  0  0  0  0  0
   -1.4400   -0.2960    3.8220 C   0  0  2  0  0  0  0  0  0  0  0  0
   -0.7810    0.1710    2.6160 N   0  0  0  0  0  0  0  0  0  0  0  0
   -2.6880    0.4450    4.0950 C   0  0  0  0  0  0  0  0  0  0  0  0
   -3.0800    1.3610    3.3370 O   0  0  0  0  0  0  0  0  0  0  0  0
   -3.4310    0.1210    5.2070 O   0  0  0  0  0  0  0  0  0  0  0  0
    0.4310    1.7920    4.2070 H   0  0  0  0  0  0  0  0  0  0  0  0
   -1.0100    2.0230    5.2640 H   0  0  0  0  0  0  0  0  0  0  0  0
    0.6100    1.4700    5.9450 H   0  0  0  0  0  0  0  0  0  0  0  0
    0.4970   -0.6010    4.7160 H   0  0  0  0  0  0  0  0  0  0  0  0
   -1.0880   -1.4870    6.1760 H   0  0  0  0  0  0  0  0  0  0  0  0
   -1.6420   -1.3850    3.7830 H   0  0  0  0  0  0  0  0  0  0  0  0
   -0.5380    1.1630    2.5260 H   0  0  0  0  0  0  0  0  0  0  0  0
  1  7  1  0  0  0  0
  2  1  1  0  0  0  0
  2  9  1  0  0  0  0
  3 10  1  6  0  0  0
  3  2  1  0  0  0  0
  3  5  1  0  0  0  0
  4  3  1  0  0  0  0
  5  6  2  0  0  0  0
  5 13  1  0  0  0  0
  8  2  1  0  0  0  0
 11  4  1  0  0  0  0
 12  4  1  0  0  0  0
 13 14  1  0  0  0  0
 14 24  1  1  0  0  0
 14 21  1  0  0  0  0
 15 26  1  0  0  0  0
 15 14  1  0  0  0  0
 16 15  1  0  0  0  0
 17 16  2  0  0  0  0
 17 27  1  0  0  0  0
 18 17  1  0  0  0  0
 19 18  1  0  0  0  0
 19 20  2  0  0  0  0
 20 16  1  0  0  0  0
 21 22  2  0  0  0  0
 21 34  1  0  0  0  0
 23 13  1  0  0  0  0
 25 15  1  0  0  0  0
 28 18  1  0  0  0  0
 29 19  1  0  0  0  0
 30 39  1  0  0  0  0
 30 40  1  0  0  0  0
 31 41  1  6  0  0  0
 31 30  1  0  0  0  0
 31 32  1  0  0  0  0
 33 43  1  6  0  0  0
 33 35  1  0  0  0  0
 33 31  1  0  0  0  0
 34 33  1  0  0  0  0
 35 37  1  0  0  0  0
 36 35  2  0  0  0  0
 38 30  1  0  0  0  0
 42 32  1  0  0  0  0
 44 34  1  0  0  0  0
M  END
$$$$
