SHV.pdb
 OpenBabel07022419083D

 46 46  0  0  1  0  0  0  0  0999 V2000
    4.5110   -3.4520    2.0610 O   0  0  0  0  0  0  0  0  0  0  0  0
    4.0110   -2.2340    1.5890 C   0  0  0  0  0  0  0  0  0  0  0  0
    2.5440   -2.0670    1.9990 C   0  0  2  0  0  0  0  0  0  0  0  0
    1.7300   -3.1120    1.4690 N   0  0  0  0  0  0  0  0  0  0  0  0
    2.1080   -0.7160    1.5780 C   0  0  0  0  0  0  0  0  0  0  0  0
    2.7590    0.2750    1.9890 O   0  0  0  0  0  0  0  0  0  0  0  0
    4.5120   -4.1310    1.3420 H   0  0  0  0  0  0  0  0  0  0  0  0
    4.0780   -2.2350    0.4790 H   0  0  0  0  0  0  0  0  0  0  0  0
    4.6260   -1.4440    2.0310 H   0  0  0  0  0  0  0  0  0  0  0  0
    2.5330   -2.1700    3.1190 H   0  0  0  0  0  0  0  0  0  0  0  0
    0.8710   -3.2720    2.0230 H   0  0  0  0  0  0  0  0  0  0  0  0
    1.5650   -3.0670    0.4570 H   0  0  0  0  0  0  0  0  0  0  0  0
    0.9950   -0.4680    0.7330 N   0  0  0  0  0  0  0  0  0  0  0  0
    0.5740    0.8410    0.3260 C   0  0  1  0  0  0  0  0  0  0  0  0
    0.6440    0.9700   -1.1630 C   0  0  0  0  0  0  0  0  0  0  0  0
    2.0350    0.7490   -1.5990 C   0  0  0  0  0  0  0  0  0  0  0  0
    2.5880   -0.4680   -1.9430 C   0  0  0  0  0  0  0  0  0  0  0  0
    3.8690   -0.2130   -2.2750 N   0  0  0  0  0  0  0  0  0  0  0  0
    4.1190    1.1010   -2.1500 C   0  0  0  0  0  0  0  0  0  0  0  0
    2.9800    1.6880   -1.7310 N   0  0  0  0  0  0  0  0  0  0  0  0
   -0.7830    1.1790    0.8540 C   0  0  0  0  0  0  0  0  0  0  0  0
   -1.3330    2.2820    0.6100 O   0  0  0  0  0  0  0  0  0  0  0  0
    0.4720   -1.3320    0.4080 H   0  0  0  0  0  0  0  0  0  0  0  0
    1.2660    1.5860    0.7860 H   0  0  0  0  0  0  0  0  0  0  0  0
   -0.0630    0.2680   -1.6530 H   0  0  0  0  0  0  0  0  0  0  0  0
    0.3460    2.0040   -1.4290 H   0  0  0  0  0  0  0  0  0  0  0  0
    2.0500   -1.3920   -1.9270 H   0  0  0  0  0  0  0  0  0  0  0  0
    4.5580   -0.9140   -2.5810 H   0  0  0  0  0  0  0  0  0  0  0  0
    5.0400    1.6160   -2.3380 H   0  0  0  0  0  0  0  0  0  0  0  0
   -3.6390   -1.7770    1.8000 C   0  0  0  0  0  0  0  0  0  0  0  0
   -3.8880   -0.3310    1.5460 C   0  0  0  0  0  0  0  0  0  0  0  0
   -3.9650    0.0060    0.0750 C   0  0  0  0  0  0  0  0  0  0  0  0
   -2.8170    0.5670    2.1780 C   0  0  2  0  0  0  0  0  0  0  0  0
   -1.5200    0.2690    1.6600 N   0  0  0  0  0  0  0  0  0  0  0  0
   -2.9050    0.5790    3.6340 C   0  0  0  0  0  0  0  0  0  0  0  0
   -1.9020    0.3430    4.3400 O   0  0  0  0  0  0  0  0  0  0  0  0
   -4.1040    0.8530    4.2570 O   0  0  0  0  0  0  0  0  0  0  0  0
   -4.5780   -2.3580    1.9630 H   0  0  0  0  0  0  0  0  0  0  0  0
   -3.1120   -2.1960    0.9180 H   0  0  0  0  0  0  0  0  0  0  0  0
   -2.9860   -1.9810    2.6740 H   0  0  0  0  0  0  0  0  0  0  0  0
   -4.8570   -0.0310    2.0000 H   0  0  0  0  0  0  0  0  0  0  0  0
   -4.9860   -0.1620   -0.3300 H   0  0  0  0  0  0  0  0  0  0  0  0
   -3.7330    1.0820   -0.1010 H   0  0  0  0  0  0  0  0  0  0  0  0
   -3.2440   -0.6080   -0.5300 H   0  0  0  0  0  0  0  0  0  0  0  0
   -3.0870    1.6050    1.8220 H   0  0  0  0  0  0  0  0  0  0  0  0
   -1.0870   -0.6620    1.8820 H   0  0  0  0  0  0  0  0  0  0  0  0
  2  3  1  0  0  0  0
  2  9  1  0  0  0  0
  2  1  1  0  0  0  0
  3 10  1  1  0  0  0
  4  3  1  0  0  0  0
  4 11  1  0  0  0  0
  5  6  2  0  0  0  0
  5  3  1  0  0  0  0
  7  1  1  0  0  0  0
  8  2  1  0  0  0  0
 12  4  1  0  0  0  0
 13  5  1  0  0  0  0
 14 13  1  0  0  0  0
 14 24  1  1  0  0  0
 14 21  1  0  0  0  0
 15 14  1  0  0  0  0
 16 15  1  0  0  0  0
 17 27  1  0  0  0  0
 17 16  2  0  0  0  0
 18 19  1  0  0  0  0
 18 17  1  0  0  0  0
 19 20  2  0  0  0  0
 20 16  1  0  0  0  0
 21 34  1  0  0  0  0
 22 21  2  0  0  0  0
 23 13  1  0  0  0  0
 25 15  1  0  0  0  0
 26 15  1  0  0  0  0
 28 18  1  0  0  0  0
 29 19  1  0  0  0  0
 30 38  1  0  0  0  0
 30 40  1  0  0  0  0
 31 30  1  0  0  0  0
 31 41  1  0  0  0  0
 31 33  1  0  0  0  0
 32 31  1  0  0  0  0
 33 45  1  6  0  0  0
 33 35  1  0  0  0  0
 34 46  1  0  0  0  0
 34 33  1  0  0  0  0
 35 37  2  0  0  0  0
 35 36  1  0  0  0  0
 39 30  1  0  0  0  0
 42 32  1  0  0  0  0
 43 32  1  0  0  0  0
 44 32  1  0  0  0  0
M  END
$$$$
