SHY.pdb
 OpenBabel07022419083D

 51 52  0  0  1  0  0  0  0  0999 V2000
    3.5950    0.1570    4.0320 O   0  0  0  0  0  0  0  0  0  0  0  0
    4.0600   -0.1340    2.7660 C   0  0  0  0  0  0  0  0  0  0  0  0
    3.1740   -1.0860    1.9960 C   0  0  2  0  0  0  0  0  0  0  0  0
    3.8060   -1.2830    0.7000 N   0  0  0  0  0  0  0  0  0  0  0  0
    1.7870   -0.6370    1.8460 C   0  0  0  0  0  0  0  0  0  0  0  0
    1.3380   -0.4250    0.6980 O   0  0  0  0  0  0  0  0  0  0  0  0
    3.2160    1.0800    4.0890 H   0  0  0  0  0  0  0  0  0  0  0  0
    4.2620    0.7990    2.2070 H   0  0  0  0  0  0  0  0  0  0  0  0
    5.0400   -0.6420    2.8850 H   0  0  0  0  0  0  0  0  0  0  0  0
    3.1740   -2.0520    2.5300 H   0  0  0  0  0  0  0  0  0  0  0  0
    3.3250   -0.7870   -0.0650 H   0  0  0  0  0  0  0  0  0  0  0  0
    3.9570   -2.2970    0.5170 H   0  0  0  0  0  0  0  0  0  0  0  0
    0.9680   -0.4490    2.9900 N   0  0  0  0  0  0  0  0  0  0  0  0
   -0.3860   -0.0210    2.9370 C   0  0  1  0  0  0  0  0  0  0  0  0
   -0.6350    1.4230    2.6950 C   0  0  0  0  0  0  0  0  0  0  0  0
   -0.1290    2.0120    1.4710 C   0  0  0  0  0  0  0  0  0  0  0  0
   -0.7750    2.0900    0.2560 C   0  0  0  0  0  0  0  0  0  0  0  0
    0.0330    2.7090   -0.6250 N   0  0  0  0  0  0  0  0  0  0  0  0
    1.1660    3.0130    0.0260 C   0  0  0  0  0  0  0  0  0  0  0  0
    1.0820    2.5970    1.2950 N   0  0  0  0  0  0  0  0  0  0  0  0
   -1.3240   -0.8800    2.1920 C   0  0  0  0  0  0  0  0  0  0  0  0
   -2.5170   -0.4450    2.0960 O   0  0  0  0  0  0  0  0  0  0  0  0
    1.4280   -0.6520    3.9400 H   0  0  0  0  0  0  0  0  0  0  0  0
   -0.7750   -0.1550    4.0360 H   0  0  0  0  0  0  0  0  0  0  0  0
   -1.7460    1.5980    2.8150 H   0  0  0  0  0  0  0  0  0  0  0  0
   -0.2020    2.0240    3.5520 H   0  0  0  0  0  0  0  0  0  0  0  0
   -1.7660    1.7360   -0.0200 H   0  0  0  0  0  0  0  0  0  0  0  0
   -0.1340    2.9310   -1.6150 H   0  0  0  0  0  0  0  0  0  0  0  0
    2.0250    3.5190   -0.3990 H   0  0  0  0  0  0  0  0  0  0  0  0
   -0.8070    0.8580   -4.2540 O   0  0  0  0  0  0  0  0  0  0  0  0
   -1.0260   -0.1590   -3.3260 C   0  0  0  0  0  0  0  0  0  0  0  0
   -2.3030   -0.6080   -3.0540 C   0  0  0  0  0  0  0  0  0  0  0  0
   -2.5740   -1.6060   -2.1490 C   0  0  0  0  0  0  0  0  0  0  0  0
   -1.5280   -2.2170   -1.4540 C   0  0  0  0  0  0  0  0  0  0  0  0
   -1.7910   -3.2980   -0.4940 C   0  0  0  0  0  0  0  0  0  0  0  0
   -2.0920   -2.8790    0.8850 C   0  0  2  0  0  0  0  0  0  0  0  0
   -1.0650   -2.1220    1.5790 N   0  0  0  0  0  0  0  0  0  0  0  0
   -2.3980   -4.1270    1.6840 C   0  0  0  0  0  0  0  0  0  0  0  0
   -1.8160   -4.3840    2.7520 O   0  0  0  0  0  0  0  0  0  0  0  0
   -0.2600   -1.7630   -1.7310 C   0  0  0  0  0  0  0  0  0  0  0  0
    0.0030   -0.7620   -2.6390 C   0  0  0  0  0  0  0  0  0  0  0  0
   -3.3560   -5.0030    1.2020 O   0  0  0  0  0  0  0  0  0  0  0  0
   -1.1760    1.7790   -3.9770 H   0  0  0  0  0  0  0  0  0  0  0  0
   -3.1160   -0.1220   -3.6050 H   0  0  0  0  0  0  0  0  0  0  0  0
   -3.5950   -1.9400   -1.9560 H   0  0  0  0  0  0  0  0  0  0  0  0
   -2.7020   -3.8470   -0.8790 H   0  0  0  0  0  0  0  0  0  0  0  0
   -0.9620   -4.0380   -0.5590 H   0  0  0  0  0  0  0  0  0  0  0  0
   -3.0640   -2.3330    0.8850 H   0  0  0  0  0  0  0  0  0  0  0  0
   -0.1010   -2.4910    1.6480 H   0  0  0  0  0  0  0  0  0  0  0  0
    0.5570   -2.2380   -1.1940 H   0  0  0  0  0  0  0  0  0  0  0  0
    1.0160   -0.4290   -2.8340 H   0  0  0  0  0  0  0  0  0  0  0  0
  1  7  1  0  0  0  0
  2  9  1  0  0  0  0
  2  1  1  0  0  0  0
  3 10  1  1  0  0  0
  3  2  1  0  0  0  0
  4  3  1  0  0  0  0
  5  3  1  0  0  0  0
  5 13  1  0  0  0  0
  6  5  2  0  0  0  0
  8  2  1  0  0  0  0
 11  4  1  0  0  0  0
 12  4  1  0  0  0  0
 13 23  1  0  0  0  0
 14 13  1  0  0  0  0
 14 24  1  1  0  0  0
 15 25  1  0  0  0  0
 15 14  1  0  0  0  0
 15 26  1  0  0  0  0
 16 15  1  0  0  0  0
 17 16  2  0  0  0  0
 18 19  1  0  0  0  0
 18 17  1  0  0  0  0
 19 20  2  0  0  0  0
 20 16  1  0  0  0  0
 21 14  1  0  0  0  0
 22 21  2  0  0  0  0
 27 17  1  0  0  0  0
 28 18  1  0  0  0  0
 29 19  1  0  0  0  0
 30 43  1  0  0  0  0
 30 31  1  0  0  0  0
 31 32  2  0  0  0  0
 31 41  1  0  0  0  0
 32 33  1  0  0  0  0
 33 45  1  0  0  0  0
 33 34  2  0  0  0  0
 34 35  1  0  0  0  0
 35 36  1  0  0  0  0
 36 48  1  6  0  0  0
 36 37  1  0  0  0  0
 36 38  1  0  0  0  0
 37 49  1  0  0  0  0
 37 21  1  0  0  0  0
 38 39  1  0  0  0  0
 40 34  1  0  0  0  0
 40 50  1  0  0  0  0
 41 40  2  0  0  0  0
 42 38  2  0  0  0  0
 44 32  1  0  0  0  0
 46 35  1  0  0  0  0
 47 35  1  0  0  0  0
 51 41  1  0  0  0  0
M  END
$$$$
