SIC.pdb
 OpenBabel07022419083D

 43 42  0  0  1  0  0  0  0  0999 V2000
   -1.1070   -2.5060    4.6950 O   0  0  0  0  0  0  0  0  0  0  0  0
   -0.0990   -3.4320    4.4680 C   0  0  0  0  0  0  0  0  0  0  0  0
    1.0900   -2.8390    3.7650 C   0  0  2  0  0  0  0  0  0  0  0  0
    1.6160   -1.7690    4.5950 N   0  0  0  0  0  0  0  0  0  0  0  0
    0.6290   -2.2970    2.4610 C   0  0  0  0  0  0  0  0  0  0  0  0
    0.0960   -3.0580    1.6060 O   0  0  0  0  0  0  0  0  0  0  0  0
   -2.0130   -2.8900    4.5220 H   0  0  0  0  0  0  0  0  0  0  0  0
   -0.5150   -4.2950    3.8750 H   0  0  0  0  0  0  0  0  0  0  0  0
    0.1970   -3.8420    5.4590 H   0  0  0  0  0  0  0  0  0  0  0  0
    1.8920   -3.5890    3.5920 H   0  0  0  0  0  0  0  0  0  0  0  0
    1.4070   -2.0270    5.5960 H   0  0  0  0  0  0  0  0  0  0  0  0
    2.6200   -1.6070    4.4650 H   0  0  0  0  0  0  0  0  0  0  0  0
   -2.6060   -1.1130    1.0380 C   0  0  0  0  0  0  0  0  0  0  0  0
   -1.8540   -0.1320    1.8790 C   0  0  0  0  0  0  0  0  0  0  0  0
   -0.7550    0.5880    1.1030 C   0  0  2  0  0  0  0  0  0  0  0  0
   -1.3680    1.3240   -0.0280 C   0  0  0  0  0  0  0  0  0  0  0  0
    0.2870   -0.4240    0.7800 C   0  0  2  0  0  0  0  0  0  0  0  0
    0.7510   -0.9310    2.0900 N   0  0  0  0  0  0  0  0  0  0  0  0
    1.4330    0.0740   -0.0010 C   0  0  0  0  0  0  0  0  0  0  0  0
    2.6050    0.0760    0.5100 O   0  0  0  0  0  0  0  0  0  0  0  0
   -2.5000   -2.1690    1.4170 H   0  0  0  0  0  0  0  0  0  0  0  0
   -2.3090   -1.1430   -0.0150 H   0  0  0  0  0  0  0  0  0  0  0  0
   -3.7000   -0.8430    1.1070 H   0  0  0  0  0  0  0  0  0  0  0  0
   -2.5080    0.6630    2.2880 H   0  0  0  0  0  0  0  0  0  0  0  0
   -1.3220   -0.6890    2.6750 H   0  0  0  0  0  0  0  0  0  0  0  0
   -0.3200    1.3230    1.8080 H   0  0  0  0  0  0  0  0  0  0  0  0
   -1.7860    0.6620   -0.8160 H   0  0  0  0  0  0  0  0  0  0  0  0
   -2.2930    1.8300    0.3980 H   0  0  0  0  0  0  0  0  0  0  0  0
   -0.7800    2.1480   -0.4380 H   0  0  0  0  0  0  0  0  0  0  0  0
   -0.1810   -1.2480    0.2090 H   0  0  0  0  0  0  0  0  0  0  0  0
    1.1860   -0.2860    2.7830 H   0  0  0  0  0  0  0  0  0  0  0  0
    1.3140    0.5630   -1.3240 N   0  0  0  0  0  0  0  0  0  0  0  0
    2.5060    1.0490   -2.0490 C   0  0  1  0  0  0  0  0  0  0  0  0
    2.6390    0.2520   -3.3520 C   0  0  0  0  0  0  0  0  0  0  0  0
    1.1460    0.5160   -4.3400 S   0  0  0  0  0  0  0  0  0  0  0  0
    2.2540    2.4550   -2.4310 C   0  0  0  0  0  0  0  0  0  0  0  0
    1.1850    3.0370   -2.1430 O   0  0  0  0  0  0  0  0  0  0  0  0
    3.2310    3.1410   -3.1280 O   0  0  0  0  0  0  0  0  0  0  0  0
    0.3800    0.5750   -1.7880 H   0  0  0  0  0  0  0  0  0  0  0  0
    3.3930    0.9580   -1.4160 H   0  0  0  0  0  0  0  0  0  0  0  0
    2.8550   -0.8030   -3.1670 H   0  0  0  0  0  0  0  0  0  0  0  0
    3.4850    0.6750   -3.9220 H   0  0  0  0  0  0  0  0  0  0  0  0
    0.2330   -0.5580   -4.2030 H   0  0  0  0  0  0  0  0  0  0  0  0
  2  1  1  0  0  0  0
  2  9  1  0  0  0  0
  3 10  1  6  0  0  0
  3  2  1  0  0  0  0
  3  4  1  0  0  0  0
  4 11  1  0  0  0  0
  5  3  1  0  0  0  0
  6  5  2  0  0  0  0
  7  1  1  0  0  0  0
  8  2  1  0  0  0  0
 12  4  1  0  0  0  0
 13 23  1  0  0  0  0
 13 21  1  0  0  0  0
 13 14  1  0  0  0  0
 14 24  1  0  0  0  0
 14 25  1  0  0  0  0
 15 26  1  1  0  0  0
 15 14  1  0  0  0  0
 16 28  1  0  0  0  0
 16 15  1  0  0  0  0
 17 30  1  6  0  0  0
 17 15  1  0  0  0  0
 17 18  1  0  0  0  0
 18  5  1  0  0  0  0
 18 31  1  0  0  0  0
 19 20  2  0  0  0  0
 19 17  1  0  0  0  0
 22 13  1  0  0  0  0
 27 16  1  0  0  0  0
 29 16  1  0  0  0  0
 32 19  1  0  0  0  0
 33 40  1  1  0  0  0
 33 32  1  0  0  0  0
 34 41  1  0  0  0  0
 34 33  1  0  0  0  0
 35 43  1  0  0  0  0
 35 34  1  0  0  0  0
 36 37  1  0  0  0  0
 36 33  1  0  0  0  0
 38 36  2  0  0  0  0
 39 32  1  0  0  0  0
 42 34  1  0  0  0  0
M  END
$$$$
