SIE.pdb
 OpenBabel07022419083D

 48 47  0  0  1  0  0  0  0  0999 V2000
    1.5280   -6.0280    1.9630 O   0  0  0  0  0  0  0  0  0  0  0  0
    2.1500   -4.8820    1.4720 C   0  0  0  0  0  0  0  0  0  0  0  0
    1.2540   -3.7170    1.7670 C   0  0  2  0  0  0  0  0  0  0  0  0
   -0.0410   -3.8350    1.1560 N   0  0  0  0  0  0  0  0  0  0  0  0
    1.8490   -2.4210    1.4290 C   0  0  0  0  0  0  0  0  0  0  0  0
    2.9910   -2.0440    1.8280 O   0  0  0  0  0  0  0  0  0  0  0  0
    0.9980   -5.7900    2.7810 H   0  0  0  0  0  0  0  0  0  0  0  0
    3.1060   -4.7110    2.0280 H   0  0  0  0  0  0  0  0  0  0  0  0
    2.3090   -4.9280    0.3830 H   0  0  0  0  0  0  0  0  0  0  0  0
    1.0700   -3.7360    2.8810 H   0  0  0  0  0  0  0  0  0  0  0  0
   -0.7490   -3.2010    1.5430 H   0  0  0  0  0  0  0  0  0  0  0  0
   -0.0290   -3.7590    0.1150 H   0  0  0  0  0  0  0  0  0  0  0  0
    2.6420    1.4500   -3.0630 C   0  0  0  0  0  0  0  0  0  0  0  0
    2.4390    1.3490   -1.5470 C   0  0  0  0  0  0  0  0  0  0  0  0
    1.8370    0.0160   -1.1860 C   0  0  2  0  0  0  0  0  0  0  0  0
    0.4820   -0.0650   -1.9000 C   0  0  0  0  0  0  0  0  0  0  0  0
    1.7190   -0.2090    0.2650 C   0  0  2  0  0  0  0  0  0  0  0  0
    1.1470   -1.5010    0.6120 N   0  0  0  0  0  0  0  0  0  0  0  0
    0.8470    0.8200    0.8660 C   0  0  0  0  0  0  0  0  0  0  0  0
    1.0410    2.0580    0.8230 O   0  0  0  0  0  0  0  0  0  0  0  0
    2.9270    0.4690   -3.4830 H   0  0  0  0  0  0  0  0  0  0  0  0
    3.4860    2.1420   -3.2430 H   0  0  0  0  0  0  0  0  0  0  0  0
    1.7000    1.8550   -3.5210 H   0  0  0  0  0  0  0  0  0  0  0  0
    1.7830    2.2190   -1.2900 H   0  0  0  0  0  0  0  0  0  0  0  0
    3.4190    1.4980   -1.0550 H   0  0  0  0  0  0  0  0  0  0  0  0
    2.4570   -0.7430   -1.7200 H   0  0  0  0  0  0  0  0  0  0  0  0
    0.1510   -1.1150   -1.8040 H   0  0  0  0  0  0  0  0  0  0  0  0
   -0.2370    0.6500   -1.4530 H   0  0  0  0  0  0  0  0  0  0  0  0
    0.6250    0.1680   -2.9740 H   0  0  0  0  0  0  0  0  0  0  0  0
    2.7250   -0.1450    0.7300 H   0  0  0  0  0  0  0  0  0  0  0  0
    0.1990   -1.7380    0.2420 H   0  0  0  0  0  0  0  0  0  0  0  0
   -0.3460    0.4230    1.5760 N   0  0  0  0  0  0  0  0  0  0  0  0
   -1.2240    1.4030    2.1770 C   0  0  1  0  0  0  0  0  0  0  0  0
   -2.6130    1.3510    1.6050 C   0  0  0  0  0  0  0  0  0  0  0  0
   -3.2770    0.0170    1.8020 C   0  0  0  0  0  0  0  0  0  0  0  0
   -4.6330    0.0770    1.2030 C   0  0  0  0  0  0  0  0  0  0  0  0
   -5.0470    1.1160    0.6540 O   0  0  0  0  0  0  0  0  0  0  0  0
   -1.3290    1.2100    3.6500 C   0  0  0  0  0  0  0  0  0  0  0  0
   -2.0400    1.9560    4.3540 O   0  0  0  0  0  0  0  0  0  0  0  0
   -5.5030   -1.0200    1.2270 O   0  0  0  0  0  0  0  0  0  0  0  0
   -0.6300    0.1890    4.2660 O   0  0  0  0  0  0  0  0  0  0  0  0
   -0.6270   -0.5750    1.6890 H   0  0  0  0  0  0  0  0  0  0  0  0
   -0.8090    2.3960    1.9830 H   0  0  0  0  0  0  0  0  0  0  0  0
   -2.6740    1.6980    0.5640 H   0  0  0  0  0  0  0  0  0  0  0  0
   -3.2210    2.0910    2.2030 H   0  0  0  0  0  0  0  0  0  0  0  0
   -3.3930   -0.2660    2.8480 H   0  0  0  0  0  0  0  0  0  0  0  0
   -2.7400   -0.8060    1.2860 H   0  0  0  0  0  0  0  0  0  0  0  0
   -6.1440   -1.1950    0.4430 H   0  0  0  0  0  0  0  0  0  0  0  0
  1  7  1  0  0  0  0
  2  3  1  0  0  0  0
  2  1  1  0  0  0  0
  2  8  1  0  0  0  0
  3 10  1  1  0  0  0
  4 11  1  0  0  0  0
  4  3  1  0  0  0  0
  5  3  1  0  0  0  0
  5  6  2  0  0  0  0
  9  2  1  0  0  0  0
 12  4  1  0  0  0  0
 13 14  1  0  0  0  0
 14 24  1  0  0  0  0
 14 15  1  0  0  0  0
 14 25  1  0  0  0  0
 15 26  1  6  0  0  0
 15 17  1  0  0  0  0
 16 27  1  0  0  0  0
 16 28  1  0  0  0  0
 16 15  1  0  0  0  0
 17 18  1  0  0  0  0
 17 30  1  1  0  0  0
 17 19  1  0  0  0  0
 18  5  1  0  0  0  0
 19 32  1  0  0  0  0
 20 19  2  0  0  0  0
 21 13  1  0  0  0  0
 22 13  1  0  0  0  0
 23 13  1  0  0  0  0
 29 16  1  0  0  0  0
 31 18  1  0  0  0  0
 32 42  1  0  0  0  0
 32 33  1  0  0  0  0
 33 43  1  6  0  0  0
 33 38  1  0  0  0  0
 34 35  1  0  0  0  0
 34 33  1  0  0  0  0
 34 45  1  0  0  0  0
 35 46  1  0  0  0  0
 36 40  1  0  0  0  0
 36 35  1  0  0  0  0
 37 36  2  0  0  0  0
 38 41  2  0  0  0  0
 38 39  1  0  0  0  0
 44 34  1  0  0  0  0
 47 35  1  0  0  0  0
 48 40  1  0  0  0  0
M  END
$$$$
