SIF.pdb
 OpenBabel07022419083D

 52 52  0  0  1  0  0  0  0  0999 V2000
    3.2320   -4.8140    3.3800 O   0  0  0  0  0  0  0  0  0  0  0  0
    3.1940   -3.5000    2.9210 C   0  0  0  0  0  0  0  0  0  0  0  0
    1.7730   -2.9320    2.9960 C   0  0  2  0  0  0  0  0  0  0  0  0
    0.8970   -3.7400    2.1760 N   0  0  0  0  0  0  0  0  0  0  0  0
    1.8580   -1.5280    2.5170 C   0  0  0  0  0  0  0  0  0  0  0  0
    2.5840   -0.6910    3.1260 O   0  0  0  0  0  0  0  0  0  0  0  0
    2.4110   -5.0560    3.8900 H   0  0  0  0  0  0  0  0  0  0  0  0
    3.9060   -2.8520    3.4520 H   0  0  0  0  0  0  0  0  0  0  0  0
    3.4430   -3.5070    1.8310 H   0  0  0  0  0  0  0  0  0  0  0  0
    1.4490   -2.9940    4.0500 H   0  0  0  0  0  0  0  0  0  0  0  0
    1.2280   -3.7670    1.1880 H   0  0  0  0  0  0  0  0  0  0  0  0
   -0.0660   -3.3420    2.1840 H   0  0  0  0  0  0  0  0  0  0  0  0
    4.0310    0.3530   -0.2240 C   0  0  0  0  0  0  0  0  0  0  0  0
    2.8880   -0.4170   -0.8380 C   0  0  0  0  0  0  0  0  0  0  0  0
    1.5550    0.2280   -0.5750 C   0  0  2  0  0  0  0  0  0  0  0  0
    1.4820    1.6140   -1.1310 C   0  0  0  0  0  0  0  0  0  0  0  0
    1.1790    0.2000    0.8870 C   0  0  2  0  0  0  0  0  0  0  0  0
    1.1010   -1.1790    1.3660 N   0  0  0  0  0  0  0  0  0  0  0  0
   -0.1990    0.7810    0.9870 C   0  0  0  0  0  0  0  0  0  0  0  0
   -0.4450    1.9640    0.6430 O   0  0  0  0  0  0  0  0  0  0  0  0
    4.5540   -0.3560    0.4640 H   0  0  0  0  0  0  0  0  0  0  0  0
    4.7730    0.7020   -0.9460 H   0  0  0  0  0  0  0  0  0  0  0  0
    3.6890    1.1990    0.3990 H   0  0  0  0  0  0  0  0  0  0  0  0
    3.0390   -0.4070   -1.9410 H   0  0  0  0  0  0  0  0  0  0  0  0
    2.8730   -1.4760   -0.5390 H   0  0  0  0  0  0  0  0  0  0  0  0
    0.7920   -0.3850   -1.1130 H   0  0  0  0  0  0  0  0  0  0  0  0
    0.4850    1.8450   -1.5200 H   0  0  0  0  0  0  0  0  0  0  0  0
    1.7460    2.3560   -0.3400 H   0  0  0  0  0  0  0  0  0  0  0  0
    2.2080    1.6590   -1.9900 H   0  0  0  0  0  0  0  0  0  0  0  0
    1.8410    0.7880    1.5190 H   0  0  0  0  0  0  0  0  0  0  0  0
    0.5060   -1.8920    0.8780 H   0  0  0  0  0  0  0  0  0  0  0  0
   -1.3000    0.0180    1.4780 N   0  0  0  0  0  0  0  0  0  0  0  0
   -2.6060    0.5910    1.5660 C   0  0  1  0  0  0  0  0  0  0  0  0
   -3.6640   -0.2460    0.8780 C   0  0  0  0  0  0  0  0  0  0  0  0
   -3.4080   -0.4350   -0.5590 C   0  0  0  0  0  0  0  0  0  0  0  0
   -2.6710   -1.4970   -1.0110 C   0  0  0  0  0  0  0  0  0  0  0  0
   -2.4330   -1.6690   -2.3700 C   0  0  0  0  0  0  0  0  0  0  0  0
   -2.9450   -0.7640   -3.2460 C   0  0  0  0  0  0  0  0  0  0  0  0
   -3.6890    0.3150   -2.8260 C   0  0  0  0  0  0  0  0  0  0  0  0
   -3.9120    0.4630   -1.4650 C   0  0  0  0  0  0  0  0  0  0  0  0
   -2.9900    0.6270    3.0190 C   0  0  0  0  0  0  0  0  0  0  0  0
   -2.2190    0.2020    3.9160 O   0  0  0  0  0  0  0  0  0  0  0  0
   -4.2280    1.1450    3.3730 O   0  0  0  0  0  0  0  0  0  0  0  0
   -1.1680   -0.9660    1.7800 H   0  0  0  0  0  0  0  0  0  0  0  0
   -2.6390    1.6380    1.2210 H   0  0  0  0  0  0  0  0  0  0  0  0
   -3.7710   -1.2440    1.3460 H   0  0  0  0  0  0  0  0  0  0  0  0
   -4.6450    0.2780    1.0670 H   0  0  0  0  0  0  0  0  0  0  0  0
   -2.2400   -2.2490   -0.3500 H   0  0  0  0  0  0  0  0  0  0  0  0
   -1.8510   -2.5070   -2.7470 H   0  0  0  0  0  0  0  0  0  0  0  0
   -2.7640   -0.8900   -4.3150 H   0  0  0  0  0  0  0  0  0  0  0  0
   -4.1050    1.0460   -3.5020 H   0  0  0  0  0  0  0  0  0  0  0  0
   -4.5060    1.3270   -1.1530 H   0  0  0  0  0  0  0  0  0  0  0  0
  1  7  1  0  0  0  0
  2  3  1  0  0  0  0
  2  1  1  0  0  0  0
  2  8  1  0  0  0  0
  3 10  1  1  0  0  0
  4 12  1  0  0  0  0
  4  3  1  0  0  0  0
  5  3  1  0  0  0  0
  5  6  2  0  0  0  0
  9  2  1  0  0  0  0
 11  4  1  0  0  0  0
 13 23  1  0  0  0  0
 13 21  1  0  0  0  0
 14 15  1  0  0  0  0
 14 25  1  0  0  0  0
 14 13  1  0  0  0  0
 15 26  1  6  0  0  0
 15 17  1  0  0  0  0
 16 15  1  0  0  0  0
 16 28  1  0  0  0  0
 17 19  1  0  0  0  0
 17 18  1  0  0  0  0
 17 30  1  1  0  0  0
 18  5  1  0  0  0  0
 19 32  1  0  0  0  0
 20 19  2  0  0  0  0
 22 13  1  0  0  0  0
 24 14  1  0  0  0  0
 27 16  1  0  0  0  0
 29 16  1  0  0  0  0
 31 18  1  0  0  0  0
 32 33  1  0  0  0  0
 32 44  1  0  0  0  0
 33 45  1  6  0  0  0
 33 41  1  0  0  0  0
 34 47  1  0  0  0  0
 34 46  1  0  0  0  0
 34 33  1  0  0  0  0
 35 34  1  0  0  0  0
 36 35  1  0  0  0  0
 36 48  1  0  0  0  0
 37 36  2  0  0  0  0
 38 39  2  0  0  0  0
 38 37  1  0  0  0  0
 39 40  1  0  0  0  0
 40 52  1  0  0  0  0
 40 35  2  0  0  0  0
 41 43  2  0  0  0  0
 41 42  1  0  0  0  0
 49 37  1  0  0  0  0
 50 38  1  0  0  0  0
 51 39  1  0  0  0  0
M  END
$$$$
