SIG.pdb
 OpenBabel07022419083D

 39 38  0  0  1  0  0  0  0  0999 V2000
   -2.0440   -3.3300    3.4950 O   0  0  0  0  0  0  0  0  0  0  0  0
   -1.1250   -2.4090    3.0000 C   0  0  0  0  0  0  0  0  0  0  0  0
   -0.2250   -3.0540    1.9600 C   0  0  2  0  0  0  0  0  0  0  0  0
    0.4810   -4.1510    2.5910 N   0  0  0  0  0  0  0  0  0  0  0  0
    0.6750   -2.0880    1.3260 C   0  0  0  0  0  0  0  0  0  0  0  0
    1.9450   -2.2050    1.3310 O   0  0  0  0  0  0  0  0  0  0  0  0
   -2.3420   -3.9580    2.7900 H   0  0  0  0  0  0  0  0  0  0  0  0
   -1.6960   -1.5620    2.5690 H   0  0  0  0  0  0  0  0  0  0  0  0
   -0.5430   -2.0260    3.8720 H   0  0  0  0  0  0  0  0  0  0  0  0
   -0.8930   -3.5010    1.1960 H   0  0  0  0  0  0  0  0  0  0  0  0
    1.2590   -4.5200    2.0160 H   0  0  0  0  0  0  0  0  0  0  0  0
   -0.2060   -4.9260    2.7230 H   0  0  0  0  0  0  0  0  0  0  0  0
    2.3820   -1.5410   -2.0340 C   0  0  0  0  0  0  0  0  0  0  0  0
    0.9310   -1.2150   -2.1500 C   0  0  0  0  0  0  0  0  0  0  0  0
    0.6760    0.1170   -1.4810 C   0  0  2  0  0  0  0  0  0  0  0  0
    1.5100    1.1370   -2.1910 C   0  0  0  0  0  0  0  0  0  0  0  0
    0.9820    0.0490    0.0110 C   0  0  2  0  0  0  0  0  0  0  0  0
    0.1520   -0.9470    0.6590 N   0  0  0  0  0  0  0  0  0  0  0  0
    0.7740    1.3940    0.5720 C   0  0  0  0  0  0  0  0  0  0  0  0
    1.4360    2.3540    0.1050 O   0  0  0  0  0  0  0  0  0  0  0  0
    2.8370   -1.7430   -3.0450 H   0  0  0  0  0  0  0  0  0  0  0  0
    2.9930   -0.7270   -1.5940 H   0  0  0  0  0  0  0  0  0  0  0  0
    2.5340   -2.4970   -1.4680 H   0  0  0  0  0  0  0  0  0  0  0  0
    0.6800   -1.0840   -3.2220 H   0  0  0  0  0  0  0  0  0  0  0  0
    0.2630   -2.0120   -1.7620 H   0  0  0  0  0  0  0  0  0  0  0  0
   -0.4070    0.3280   -1.5980 H   0  0  0  0  0  0  0  0  0  0  0  0
    2.4710    1.2400   -1.6590 H   0  0  0  0  0  0  0  0  0  0  0  0
    1.6800    0.8320   -3.2560 H   0  0  0  0  0  0  0  0  0  0  0  0
    0.9730    2.1230   -2.1690 H   0  0  0  0  0  0  0  0  0  0  0  0
    2.0290   -0.2510    0.1380 H   0  0  0  0  0  0  0  0  0  0  0  0
   -0.8900   -0.7720    0.6070 H   0  0  0  0  0  0  0  0  0  0  0  0
   -0.1370    1.6830    1.6220 N   0  0  0  0  0  0  0  0  0  0  0  0
   -0.3280    3.0150    2.1630 C   0  0  0  0  0  0  0  0  0  0  0  0
   -1.3450    2.9320    3.2330 C   0  0  0  0  0  0  0  0  0  0  0  0
   -1.6620    3.9810    3.8370 O   0  0  0  0  0  0  0  0  0  0  0  0
   -1.9600    1.7500    3.5940 O   0  0  0  0  0  0  0  0  0  0  0  0
   -0.6780    0.8460    1.9920 H   0  0  0  0  0  0  0  0  0  0  0  0
   -0.6870    3.7290    1.3910 H   0  0  0  0  0  0  0  0  0  0  0  0
    0.6210    3.4370    2.5590 H   0  0  0  0  0  0  0  0  0  0  0  0
  2  1  1  0  0  0  0
  2  9  1  0  0  0  0
  3 10  1  6  0  0  0
  3  4  1  0  0  0  0
  3  2  1  0  0  0  0
  4 12  1  0  0  0  0
  5  6  2  0  0  0  0
  5  3  1  0  0  0  0
  7  1  1  0  0  0  0
  8  2  1  0  0  0  0
 11  4  1  0  0  0  0
 13 22  1  0  0  0  0
 13 23  1  0  0  0  0
 14 13  1  0  0  0  0
 14 25  1  0  0  0  0
 14 15  1  0  0  0  0
 15 26  1  6  0  0  0
 15 17  1  0  0  0  0
 16 29  1  0  0  0  0
 16 27  1  0  0  0  0
 16 15  1  0  0  0  0
 17 30  1  1  0  0  0
 17 19  1  0  0  0  0
 17 18  1  0  0  0  0
 18  5  1  0  0  0  0
 19 32  1  0  0  0  0
 20 19  2  0  0  0  0
 21 13  1  0  0  0  0
 24 14  1  0  0  0  0
 28 16  1  0  0  0  0
 31 18  1  0  0  0  0
 32 37  1  0  0  0  0
 32 33  1  0  0  0  0
 33 39  1  0  0  0  0
 33 34  1  0  0  0  0
 34 36  2  0  0  0  0
 34 35  1  0  0  0  0
 38 33  1  0  0  0  0
M  END
$$$$
