SIH.pdb
 OpenBabel07022419083D

 49 49  0  0  1  0  0  0  0  0999 V2000
   -0.9790   -2.3200    3.5250 O   0  0  0  0  0  0  0  0  0  0  0  0
   -0.0940   -1.5830    4.2820 C   0  0  0  0  0  0  0  0  0  0  0  0
    0.1050   -0.1680    3.8250 C   0  0  2  0  0  0  0  0  0  0  0  0
   -1.1500    0.5370    3.8640 N   0  0  0  0  0  0  0  0  0  0  0  0
    0.7790   -0.1540    2.5160 C   0  0  0  0  0  0  0  0  0  0  0  0
    1.6200   -1.0460    2.2100 O   0  0  0  0  0  0  0  0  0  0  0  0
   -0.7630   -3.2770    3.4830 H   0  0  0  0  0  0  0  0  0  0  0  0
    0.8810   -2.1500    4.2620 H   0  0  0  0  0  0  0  0  0  0  0  0
   -0.3670   -1.5900    5.3710 H   0  0  0  0  0  0  0  0  0  0  0  0
    0.7410    0.3600    4.6040 H   0  0  0  0  0  0  0  0  0  0  0  0
   -1.1140    1.4540    4.3250 H   0  0  0  0  0  0  0  0  0  0  0  0
   -1.5680    0.6430    2.9040 H   0  0  0  0  0  0  0  0  0  0  0  0
    2.4350    1.9030   -2.2290 C   0  0  0  0  0  0  0  0  0  0  0  0
    3.2740    1.3860   -1.0930 C   0  0  0  0  0  0  0  0  0  0  0  0
    2.5970    1.4480    0.2390 C   0  0  2  0  0  0  0  0  0  0  0  0
    3.5760    0.9020    1.2650 C   0  0  0  0  0  0  0  0  0  0  0  0
    1.2770    0.8070    0.2320 C   0  0  2  0  0  0  0  0  0  0  0  0
    0.5550    0.8500    1.5030 N   0  0  0  0  0  0  0  0  0  0  0  0
    1.1320   -0.4960   -0.4340 C   0  0  0  0  0  0  0  0  0  0  0  0
    1.8840   -0.9890   -1.2990 O   0  0  0  0  0  0  0  0  0  0  0  0
    1.4240    1.4950   -2.2480 H   0  0  0  0  0  0  0  0  0  0  0  0
    2.9500    1.5990   -3.1810 H   0  0  0  0  0  0  0  0  0  0  0  0
    2.4170    3.0240   -2.2590 H   0  0  0  0  0  0  0  0  0  0  0  0
    4.2200    2.0170   -1.0310 H   0  0  0  0  0  0  0  0  0  0  0  0
    3.6740    0.3870   -1.3710 H   0  0  0  0  0  0  0  0  0  0  0  0
    2.4640    2.5420    0.4610 H   0  0  0  0  0  0  0  0  0  0  0  0
    3.8770   -0.1250    1.0060 H   0  0  0  0  0  0  0  0  0  0  0  0
    3.3000    1.0890    2.2990 H   0  0  0  0  0  0  0  0  0  0  0  0
    4.5150    1.5130    1.0840 H   0  0  0  0  0  0  0  0  0  0  0  0
    0.6160    1.4920   -0.4240 H   0  0  0  0  0  0  0  0  0  0  0  0
   -0.1370    1.5880    1.7330 H   0  0  0  0  0  0  0  0  0  0  0  0
    0.0030   -1.3350   -0.0890 N   0  0  0  0  0  0  0  0  0  0  0  0
   -0.1970   -2.6130   -0.6840 C   0  0  1  0  0  0  0  0  0  0  0  0
   -1.2510   -3.3870    0.0550 C   0  0  0  0  0  0  0  0  0  0  0  0
   -2.5540   -2.6860   -0.0130 C   0  0  0  0  0  0  0  0  0  0  0  0
   -3.0800   -1.7610    0.8290 C   0  0  0  0  0  0  0  0  0  0  0  0
   -4.3160   -1.3760    0.3890 N   0  0  0  0  0  0  0  0  0  0  0  0
   -4.5610   -2.0650   -0.7330 C   0  0  0  0  0  0  0  0  0  0  0  0
   -3.5090   -2.8540   -0.9830 N   0  0  0  0  0  0  0  0  0  0  0  0
   -0.8190   -2.3640   -2.0700 C   0  0  0  0  0  0  0  0  0  0  0  0
   -1.1090   -3.3050   -2.8310 O   0  0  0  0  0  0  0  0  0  0  0  0
   -1.0400   -1.0640   -2.4310 O   0  0  0  0  0  0  0  0  0  0  0  0
   -0.6500   -0.9600    0.6120 H   0  0  0  0  0  0  0  0  0  0  0  0
    0.7120   -3.1750   -0.9420 H   0  0  0  0  0  0  0  0  0  0  0  0
   -0.9480   -3.6030    1.1110 H   0  0  0  0  0  0  0  0  0  0  0  0
   -1.4060   -4.4060   -0.3880 H   0  0  0  0  0  0  0  0  0  0  0  0
   -2.6830   -1.3190    1.7360 H   0  0  0  0  0  0  0  0  0  0  0  0
   -4.9400   -0.6790    0.8470 H   0  0  0  0  0  0  0  0  0  0  0  0
   -5.4860   -1.9550   -1.3020 H   0  0  0  0  0  0  0  0  0  0  0  0
  1  2  1  0  0  0  0
  2  9  1  0  0  0  0
  3  4  1  0  0  0  0
  3  2  1  0  0  0  0
  3 10  1  1  0  0  0
  4 11  1  0  0  0  0
  5  3  1  0  0  0  0
  6  5  2  0  0  0  0
  7  1  1  0  0  0  0
  8  2  1  0  0  0  0
 12  4  1  0  0  0  0
 13 14  1  0  0  0  0
 14 24  1  0  0  0  0
 14 15  1  0  0  0  0
 15 26  1  1  0  0  0
 15 16  1  0  0  0  0
 16 28  1  0  0  0  0
 17 30  1  6  0  0  0
 17 15  1  0  0  0  0
 17 18  1  0  0  0  0
 18 31  1  0  0  0  0
 18  5  1  0  0  0  0
 19 32  1  0  0  0  0
 19 17  1  0  0  0  0
 20 19  2  0  0  0  0
 21 13  1  0  0  0  0
 22 13  1  0  0  0  0
 23 13  1  0  0  0  0
 25 14  1  0  0  0  0
 27 16  1  0  0  0  0
 29 16  1  0  0  0  0
 32 43  1  0  0  0  0
 33 44  1  6  0  0  0
 33 32  1  0  0  0  0
 33 34  1  0  0  0  0
 34 45  1  0  0  0  0
 35 34  1  0  0  0  0
 35 36  2  0  0  0  0
 36 47  1  0  0  0  0
 37 36  1  0  0  0  0
 37 48  1  0  0  0  0
 38 37  1  0  0  0  0
 39 38  2  0  0  0  0
 39 35  1  0  0  0  0
 40 33  1  0  0  0  0
 41 40  2  0  0  0  0
 42 40  1  0  0  0  0
 46 34  1  0  0  0  0
 49 38  1  0  0  0  0
M  END
$$$$
