SIK.pdb
 OpenBabel07022419083D

 53 52  0  0  1  0  0  0  0  0999 V2000
    2.3340   -1.9630   -2.1270 O   0  0  0  0  0  0  0  0  0  0  0  0
    3.6470   -1.6890   -1.8280 C   0  0  0  0  0  0  0  0  0  0  0  0
    3.8880   -1.5280   -0.3440 C   0  0  2  0  0  0  0  0  0  0  0  0
    3.5110   -2.7740    0.2970 N   0  0  0  0  0  0  0  0  0  0  0  0
    3.0710   -0.3820    0.1650 C   0  0  0  0  0  0  0  0  0  0  0  0
    3.3190    0.7240   -0.3190 O   0  0  0  0  0  0  0  0  0  0  0  0
    2.1330   -2.9440   -2.1970 H   0  0  0  0  0  0  0  0  0  0  0  0
    3.9360   -0.7590   -2.3530 H   0  0  0  0  0  0  0  0  0  0  0  0
    4.2810   -2.5380   -2.1910 H   0  0  0  0  0  0  0  0  0  0  0  0
    4.9530   -1.3430   -0.1620 H   0  0  0  0  0  0  0  0  0  0  0  0
    4.3630   -3.3970    0.2530 H   0  0  0  0  0  0  0  0  0  0  0  0
    2.7840   -3.2750   -0.2920 H   0  0  0  0  0  0  0  0  0  0  0  0
    3.4700    3.4600    2.1680 C   0  0  0  0  0  0  0  0  0  0  0  0
    2.9450    2.0420    2.3870 C   0  0  0  0  0  0  0  0  0  0  0  0
    1.6430    1.8420    1.6530 C   0  0  2  0  0  0  0  0  0  0  0  0
    0.6600    2.8220    2.2120 C   0  0  0  0  0  0  0  0  0  0  0  0
    1.2300    0.4120    1.7470 C   0  0  2  0  0  0  0  0  0  0  0  0
    2.0670   -0.5560    1.1490 N   0  0  0  0  0  0  0  0  0  0  0  0
   -0.2250    0.1610    1.6510 C   0  0  0  0  0  0  0  0  0  0  0  0
   -1.0650    0.9790    2.1660 O   0  0  0  0  0  0  0  0  0  0  0  0
    3.1890    3.8220    1.1540 H   0  0  0  0  0  0  0  0  0  0  0  0
    4.5990    3.4420    2.1750 H   0  0  0  0  0  0  0  0  0  0  0  0
    3.1200    4.1620    2.9340 H   0  0  0  0  0  0  0  0  0  0  0  0
    2.7500    2.0100    3.5070 H   0  0  0  0  0  0  0  0  0  0  0  0
    3.7050    1.3180    2.1110 H   0  0  0  0  0  0  0  0  0  0  0  0
    1.8280    2.1850    0.6100 H   0  0  0  0  0  0  0  0  0  0  0  0
   -0.1900    3.0560    1.5770 H   0  0  0  0  0  0  0  0  0  0  0  0
    0.2810    2.5560    3.2240 H   0  0  0  0  0  0  0  0  0  0  0  0
    1.1890    3.8080    2.3830 H   0  0  0  0  0  0  0  0  0  0  0  0
    1.4420    0.2430    2.8950 H   0  0  0  0  0  0  0  0  0  0  0  0
    1.9790   -1.5940    1.4430 H   0  0  0  0  0  0  0  0  0  0  0  0
   -0.7850   -0.9540    1.0100 N   0  0  0  0  0  0  0  0  0  0  0  0
   -2.2680   -1.1130    0.9690 C   0  0  1  0  0  0  0  0  0  0  0  0
   -2.6950   -1.1790   -0.4320 C   0  0  0  0  0  0  0  0  0  0  0  0
   -4.1100   -1.2590   -0.7540 C   0  0  0  0  0  0  0  0  0  0  0  0
   -4.9960   -2.3450   -0.3350 C   0  0  0  0  0  0  0  0  0  0  0  0
   -4.5920   -3.7390   -0.7510 C   0  0  0  0  0  0  0  0  0  0  0  0
   -4.5230   -3.8330   -2.2050 N   0  0  0  0  0  0  0  0  0  0  0  0
   -2.4790   -2.3460    1.7580 C   0  0  0  0  0  0  0  0  0  0  0  0
   -1.4460   -3.0480    2.0930 O   0  0  0  0  0  0  0  0  0  0  0  0
   -3.6590   -2.8650    2.2060 O   0  0  0  0  0  0  0  0  0  0  0  0
   -0.2150   -1.6610    0.5690 H   0  0  0  0  0  0  0  0  0  0  0  0
   -2.7110   -0.2660    1.4890 H   0  0  0  0  0  0  0  0  0  0  0  0
   -2.0790   -1.9860   -0.9760 H   0  0  0  0  0  0  0  0  0  0  0  0
   -2.3330   -0.1990   -0.9280 H   0  0  0  0  0  0  0  0  0  0  0  0
   -4.2730   -1.1080   -1.8800 H   0  0  0  0  0  0  0  0  0  0  0  0
   -4.5890   -0.2970   -0.3620 H   0  0  0  0  0  0  0  0  0  0  0  0
   -5.9470   -2.1900   -1.0270 H   0  0  0  0  0  0  0  0  0  0  0  0
   -5.4780   -2.3230    0.6310 H   0  0  0  0  0  0  0  0  0  0  0  0
   -5.4390   -4.4090   -0.4400 H   0  0  0  0  0  0  0  0  0  0  0  0
   -3.6880   -4.1040   -0.2660 H   0  0  0  0  0  0  0  0  0  0  0  0
   -3.5630   -3.5820   -2.5300 H   0  0  0  0  0  0  0  0  0  0  0  0
   -5.1850   -3.1640   -2.6550 H   0  0  0  0  0  0  0  0  0  0  0  0
  1  2  1  0  0  0  0
  2  3  1  0  0  0  0
  3 10  1  1  0  0  0
  3  5  1  0  0  0  0
  3  4  1  0  0  0  0
  5 18  1  0  0  0  0
  6  5  2  0  0  0  0
  7  1  1  0  0  0  0
  8  2  1  0  0  0  0
  9  2  1  0  0  0  0
 11  4  1  0  0  0  0
 12  4  1  0  0  0  0
 13 22  1  0  0  0  0
 13 14  1  0  0  0  0
 13 23  1  0  0  0  0
 14 24  1  0  0  0  0
 15 26  1  6  0  0  0
 15 17  1  0  0  0  0
 15 16  1  0  0  0  0
 15 14  1  0  0  0  0
 16 29  1  0  0  0  0
 16 28  1  0  0  0  0
 17 30  1  1  0  0  0
 18 31  1  0  0  0  0
 18 17  1  0  0  0  0
 19 17  1  0  0  0  0
 19 20  2  0  0  0  0
 21 13  1  0  0  0  0
 25 14  1  0  0  0  0
 27 16  1  0  0  0  0
 32 19  1  0  0  0  0
 33 32  1  0  0  0  0
 33 43  1  1  0  0  0
 33 39  1  0  0  0  0
 34 33  1  0  0  0  0
 35 34  1  0  0  0  0
 35 47  1  0  0  0  0
 35 36  1  0  0  0  0
 36 49  1  0  0  0  0
 37 50  1  0  0  0  0
 37 36  1  0  0  0  0
 37 51  1  0  0  0  0
 38 37  1  0  0  0  0
 39 40  2  0  0  0  0
 39 41  1  0  0  0  0
 42 32  1  0  0  0  0
 44 34  1  0  0  0  0
 45 34  1  0  0  0  0
 46 35  1  0  0  0  0
 48 36  1  0  0  0  0
 52 38  1  0  0  0  0
 53 38  1  0  0  0  0
M  END
$$$$
