SIN.pdb
 OpenBabel07022419083D

 46 45  0  0  1  0  0  0  0  0999 V2000
   -1.9530   -3.6380   -0.2070 O   0  0  0  0  0  0  0  0  0  0  0  0
   -1.4350   -2.9550   -1.3240 C   0  0  0  0  0  0  0  0  0  0  0  0
    0.0350   -3.2960   -1.5010 C   0  0  2  0  0  0  0  0  0  0  0  0
    0.2360   -4.7060   -1.7090 N   0  0  0  0  0  0  0  0  0  0  0  0
    0.8400   -2.7780   -0.3610 C   0  0  0  0  0  0  0  0  0  0  0  0
    1.5890   -3.5670    0.3110 O   0  0  0  0  0  0  0  0  0  0  0  0
   -2.7520   -3.1510    0.1290 H   0  0  0  0  0  0  0  0  0  0  0  0
   -1.5780   -1.8760   -1.2280 H   0  0  0  0  0  0  0  0  0  0  0  0
   -2.0250   -3.3070   -2.1950 H   0  0  0  0  0  0  0  0  0  0  0  0
    0.3830   -2.7630   -2.4090 H   0  0  0  0  0  0  0  0  0  0  0  0
    0.3010   -5.2380   -0.8240 H   0  0  0  0  0  0  0  0  0  0  0  0
    1.0730   -4.8210   -2.3200 H   0  0  0  0  0  0  0  0  0  0  0  0
    1.5700    1.1740   -1.4770 C   0  0  0  0  0  0  0  0  0  0  0  0
    2.0060    1.4070   -0.0780 C   0  0  0  0  0  0  0  0  0  0  0  0
    2.5190    0.2080    0.6560 C   0  0  2  0  0  0  0  0  0  0  0  0
    3.7280   -0.4080   -0.0210 C   0  0  0  0  0  0  0  0  0  0  0  0
    1.4900   -0.8040    1.0340 C   0  0  2  0  0  0  0  0  0  0  0  0
    0.7610   -1.3950   -0.0340 N   0  0  0  0  0  0  0  0  0  0  0  0
    0.6440   -0.2420    2.1070 C   0  0  0  0  0  0  0  0  0  0  0  0
    1.2380    0.3060    3.0830 O   0  0  0  0  0  0  0  0  0  0  0  0
    0.4800    1.3150   -1.6440 H   0  0  0  0  0  0  0  0  0  0  0  0
    2.0570    1.9230   -2.1350 H   0  0  0  0  0  0  0  0  0  0  0  0
    1.9480    0.1880   -1.8200 H   0  0  0  0  0  0  0  0  0  0  0  0
    1.2060    1.8520    0.5480 H   0  0  0  0  0  0  0  0  0  0  0  0
    2.8460    2.1450   -0.0840 H   0  0  0  0  0  0  0  0  0  0  0  0
    2.9050    0.6170    1.6400 H   0  0  0  0  0  0  0  0  0  0  0  0
    4.1970    0.4230   -0.6140 H   0  0  0  0  0  0  0  0  0  0  0  0
    3.4470   -1.2140   -0.7260 H   0  0  0  0  0  0  0  0  0  0  0  0
    4.4540   -0.7170    0.7290 H   0  0  0  0  0  0  0  0  0  0  0  0
    2.0730   -1.6420    1.5300 H   0  0  0  0  0  0  0  0  0  0  0  0
    0.1300   -0.8120   -0.6220 H   0  0  0  0  0  0  0  0  0  0  0  0
   -1.3350    3.7110    3.0290 N   0  0  0  0  0  0  0  0  0  0  0  0
   -1.7070    2.5800    2.2580 C   0  0  0  0  0  0  0  0  0  0  0  0
   -1.3990    2.5650    1.0400 O   0  0  0  0  0  0  0  0  0  0  0  0
   -2.4420    1.4270    2.8470 C   0  0  0  0  0  0  0  0  0  0  0  0
   -1.5180    0.3090    3.2240 C   0  0  2  0  0  0  0  0  0  0  0  0
   -0.7550   -0.2510    2.1580 N   0  0  0  0  0  0  0  0  0  0  0  0
   -2.2460   -0.7020    4.0230 C   0  0  0  0  0  0  0  0  0  0  0  0
   -2.9490   -0.3150    4.9810 O   0  0  0  0  0  0  0  0  0  0  0  0
   -2.1800   -2.0520    3.7560 O   0  0  0  0  0  0  0  0  0  0  0  0
   -0.7250    4.4610    2.6460 H   0  0  0  0  0  0  0  0  0  0  0  0
   -1.6700    3.8190    4.0180 H   0  0  0  0  0  0  0  0  0  0  0  0
   -2.8870    1.8060    3.7960 H   0  0  0  0  0  0  0  0  0  0  0  0
   -3.2960    1.1050    2.2220 H   0  0  0  0  0  0  0  0  0  0  0  0
   -0.7750    0.7560    3.9530 H   0  0  0  0  0  0  0  0  0  0  0  0
   -1.2640   -0.6970    1.3620 H   0  0  0  0  0  0  0  0  0  0  0  0
  1  7  1  0  0  0  0
  2  8  1  0  0  0  0
  2  1  1  0  0  0  0
  3 10  1  6  0  0  0
  3  2  1  0  0  0  0
  3  5  1  0  0  0  0
  4  3  1  0  0  0  0
  4 11  1  0  0  0  0
  5 18  1  0  0  0  0
  5  6  2  0  0  0  0
  9  2  1  0  0  0  0
 12  4  1  0  0  0  0
 13 14  1  0  0  0  0
 14 24  1  0  0  0  0
 14 15  1  0  0  0  0
 15 17  1  0  0  0  0
 15 26  1  1  0  0  0
 16 15  1  0  0  0  0
 16 29  1  0  0  0  0
 17 30  1  1  0  0  0
 17 19  1  0  0  0  0
 18 17  1  0  0  0  0
 19 37  1  0  0  0  0
 19 20  2  0  0  0  0
 21 13  1  0  0  0  0
 22 13  1  0  0  0  0
 23 13  1  0  0  0  0
 25 14  1  0  0  0  0
 27 16  1  0  0  0  0
 28 16  1  0  0  0  0
 31 18  1  0  0  0  0
 32 42  1  0  0  0  0
 33 35  1  0  0  0  0
 33 32  1  0  0  0  0
 34 33  2  0  0  0  0
 35 36  1  0  0  0  0
 35 43  1  0  0  0  0
 36 45  1  1  0  0  0
 36 38  1  0  0  0  0
 37 36  1  0  0  0  0
 38 39  1  0  0  0  0
 40 38  2  0  0  0  0
 41 32  1  0  0  0  0
 44 35  1  0  0  0  0
 46 37  1  0  0  0  0
M  END
$$$$
