SIP.pdb
 OpenBabel07022419083D

 46 46  0  0  1  0  0  0  0  0999 V2000
    4.5150   -2.7290    3.0260 O   0  0  0  0  0  0  0  0  0  0  0  0
    4.1090   -1.8740    2.0020 C   0  0  0  0  0  0  0  0  0  0  0  0
    2.6870   -1.4660    2.3140 C   0  0  2  0  0  0  0  0  0  0  0  0
    1.8410   -2.6440    2.3650 N   0  0  0  0  0  0  0  0  0  0  0  0
    2.1680   -0.5070    1.2730 C   0  0  0  0  0  0  0  0  0  0  0  0
    2.7500    0.5750    1.0660 O   0  0  0  0  0  0  0  0  0  0  0  0
    5.0090   -2.1920    3.7040 H   0  0  0  0  0  0  0  0  0  0  0  0
    4.7610   -0.9920    1.9440 H   0  0  0  0  0  0  0  0  0  0  0  0
    4.1330   -2.4810    1.0580 H   0  0  0  0  0  0  0  0  0  0  0  0
    2.6880   -0.9440    3.2740 H   0  0  0  0  0  0  0  0  0  0  0  0
    1.6180   -2.8670    3.3710 H   0  0  0  0  0  0  0  0  0  0  0  0
    2.2810   -3.4870    1.9700 H   0  0  0  0  0  0  0  0  0  0  0  0
   -0.2870   -3.0430   -1.3200 C   0  0  0  0  0  0  0  0  0  0  0  0
   -0.7730   -1.7500   -1.8490 C   0  0  0  0  0  0  0  0  0  0  0  0
    0.1690   -0.6020   -1.8180 C   0  0  2  0  0  0  0  0  0  0  0  0
    1.4210   -0.8930   -2.6240 C   0  0  0  0  0  0  0  0  0  0  0  0
    0.4430    0.0170   -0.4900 C   0  0  2  0  0  0  0  0  0  0  0  0
    1.0070   -0.8140    0.5070 N   0  0  0  0  0  0  0  0  0  0  0  0
   -0.7710    0.7850   -0.1040 C   0  0  0  0  0  0  0  0  0  0  0  0
   -1.3230    1.4380   -1.0580 O   0  0  0  0  0  0  0  0  0  0  0  0
    0.8120   -3.1390   -1.2230 H   0  0  0  0  0  0  0  0  0  0  0  0
   -0.5770   -3.8610   -2.0370 H   0  0  0  0  0  0  0  0  0  0  0  0
   -0.8380   -3.3250   -0.3880 H   0  0  0  0  0  0  0  0  0  0  0  0
   -1.0460   -1.8950   -2.9370 H   0  0  0  0  0  0  0  0  0  0  0  0
   -1.7590   -1.5230   -1.3690 H   0  0  0  0  0  0  0  0  0  0  0  0
   -0.3430    0.2170   -2.4180 H   0  0  0  0  0  0  0  0  0  0  0  0
    1.1330   -1.1360   -3.6670 H   0  0  0  0  0  0  0  0  0  0  0  0
    2.0040   -1.7240   -2.2090 H   0  0  0  0  0  0  0  0  0  0  0  0
    1.9850    0.0590   -2.6770 H   0  0  0  0  0  0  0  0  0  0  0  0
    1.1820    0.8700   -0.7360 H   0  0  0  0  0  0  0  0  0  0  0  0
    0.5750   -1.7440    0.7050 H   0  0  0  0  0  0  0  0  0  0  0  0
   -1.3600    0.8740    1.1490 N   0  0  0  0  0  0  0  0  0  0  0  0
   -1.0190    0.3030    2.4180 C   0  0  0  0  0  0  0  0  0  0  0  0
   -2.3270    0.1750    3.2020 C   0  0  0  0  0  0  0  0  0  0  0  0
   -3.3750    0.7390    2.2660 C   0  0  0  0  0  0  0  0  0  0  0  0
   -2.5640    1.6700    1.4010 C   0  0  1  0  0  0  0  0  0  0  0  0
   -2.2180    2.8900    2.1680 C   0  0  0  0  0  0  0  0  0  0  0  0
   -1.0560    3.1990    2.5340 O   0  0  0  0  0  0  0  0  0  0  0  0
   -3.2430    3.7710    2.5180 O   0  0  0  0  0  0  0  0  0  0  0  0
   -0.3410    1.0270    2.9640 H   0  0  0  0  0  0  0  0  0  0  0  0
   -0.4970   -0.6520    2.3770 H   0  0  0  0  0  0  0  0  0  0  0  0
   -2.5870   -0.8980    3.3520 H   0  0  0  0  0  0  0  0  0  0  0  0
   -2.2640    0.7370    4.1510 H   0  0  0  0  0  0  0  0  0  0  0  0
   -3.8530   -0.0380    1.6550 H   0  0  0  0  0  0  0  0  0  0  0  0
   -4.1180    1.3720    2.8140 H   0  0  0  0  0  0  0  0  0  0  0  0
   -3.0910    1.9380    0.4630 H   0  0  0  0  0  0  0  0  0  0  0  0
  1  7  1  0  0  0  0
  2  3  1  0  0  0  0
  2  1  1  0  0  0  0
  3  4  1  0  0  0  0
  3 10  1  1  0  0  0
  4 11  1  0  0  0  0
  5  3  1  0  0  0  0
  6  5  2  0  0  0  0
  8  2  1  0  0  0  0
  9  2  1  0  0  0  0
 12  4  1  0  0  0  0
 13 21  1  0  0  0  0
 13 23  1  0  0  0  0
 14 15  1  0  0  0  0
 14 25  1  0  0  0  0
 14 13  1  0  0  0  0
 15 26  1  6  0  0  0
 15 17  1  0  0  0  0
 16 28  1  0  0  0  0
 16 15  1  0  0  0  0
 17 30  1  6  0  0  0
 17 19  1  0  0  0  0
 17 18  1  0  0  0  0
 18 31  1  0  0  0  0
 18  5  1  0  0  0  0
 19 32  1  0  0  0  0
 20 19  2  0  0  0  0
 22 13  1  0  0  0  0
 24 14  1  0  0  0  0
 27 16  1  0  0  0  0
 29 16  1  0  0  0  0
 32 36  1  0  0  0  0
 32 33  1  0  0  0  0
 33 40  1  0  0  0  0
 33 34  1  0  0  0  0
 34 42  1  0  0  0  0
 34 43  1  0  0  0  0
 35 45  1  0  0  0  0
 35 34  1  0  0  0  0
 36 46  1  6  0  0  0
 36 37  1  0  0  0  0
 36 35  1  0  0  0  0
 37 39  2  0  0  0  0
 37 38  1  0  0  0  0
 41 33  1  0  0  0  0
 44 35  1  0  0  0  0
M  END
$$$$
