SIQ.pdb
 OpenBabel07022419083D

 49 48  0  0  1  0  0  0  0  0999 V2000
    2.4180   -5.7640    0.8870 O   0  0  0  0  0  0  0  0  0  0  0  0
    2.2340   -4.4770    0.3560 C   0  0  0  0  0  0  0  0  0  0  0  0
    2.6590   -3.4240    1.3890 C   0  0  2  0  0  0  0  0  0  0  0  0
    1.8090   -3.6400    2.5460 N   0  0  0  0  0  0  0  0  0  0  0  0
    2.3460   -2.0960    0.7670 C   0  0  0  0  0  0  0  0  0  0  0  0
    3.0060   -1.7830   -0.2440 O   0  0  0  0  0  0  0  0  0  0  0  0
    2.8850   -5.7380    1.7520 H   0  0  0  0  0  0  0  0  0  0  0  0
    2.7830   -4.3790   -0.5820 H   0  0  0  0  0  0  0  0  0  0  0  0
    1.1480   -4.3900    0.1470 H   0  0  0  0  0  0  0  0  0  0  0  0
    3.7120   -3.5440    1.6330 H   0  0  0  0  0  0  0  0  0  0  0  0
    2.2460   -4.3160    3.2060 H   0  0  0  0  0  0  0  0  0  0  0  0
    0.8760   -4.0010    2.2460 H   0  0  0  0  0  0  0  0  0  0  0  0
    3.9060    1.4350   -1.1530 C   0  0  0  0  0  0  0  0  0  0  0  0
    3.1770    1.0740    0.1200 C   0  0  0  0  0  0  0  0  0  0  0  0
    1.7610    0.7260   -0.2270 C   0  0  2  0  0  0  0  0  0  0  0  0
    1.1030    1.9340   -0.8510 C   0  0  0  0  0  0  0  0  0  0  0  0
    0.9600    0.0650    0.8240 C   0  0  2  0  0  0  0  0  0  0  0  0
    1.3680   -1.2300    1.2720 N   0  0  0  0  0  0  0  0  0  0  0  0
   -0.4940    0.1190    0.5150 C   0  0  0  0  0  0  0  0  0  0  0  0
   -1.0170    1.1880    0.1590 O   0  0  0  0  0  0  0  0  0  0  0  0
    3.3380    1.0870   -2.0450 H   0  0  0  0  0  0  0  0  0  0  0  0
    4.8640    0.8380   -1.1800 H   0  0  0  0  0  0  0  0  0  0  0  0
    4.2000    2.4800   -1.2400 H   0  0  0  0  0  0  0  0  0  0  0  0
    3.1340    2.0840    0.6840 H   0  0  0  0  0  0  0  0  0  0  0  0
    3.7470    0.3990    0.7280 H   0  0  0  0  0  0  0  0  0  0  0  0
    1.8560   -0.0010   -1.1120 H   0  0  0  0  0  0  0  0  0  0  0  0
    0.3480    1.7010   -1.6030 H   0  0  0  0  0  0  0  0  0  0  0  0
    1.8860    2.5410   -1.4140 H   0  0  0  0  0  0  0  0  0  0  0  0
    0.7310    2.6450   -0.0700 H   0  0  0  0  0  0  0  0  0  0  0  0
    1.1620    0.7240    1.7690 H   0  0  0  0  0  0  0  0  0  0  0  0
    0.8520   -1.6130    2.1320 H   0  0  0  0  0  0  0  0  0  0  0  0
   -4.0530    2.7430    3.1690 N   0  0  0  0  0  0  0  0  0  0  0  0
   -4.0050    1.9790    1.9750 C   0  0  0  0  0  0  0  0  0  0  0  0
   -4.5820    2.4490    0.9620 O   0  0  0  0  0  0  0  0  0  0  0  0
   -3.2950    0.6710    1.9420 C   0  0  0  0  0  0  0  0  0  0  0  0
   -3.4240    0.1170    0.5520 C   0  0  0  0  0  0  0  0  0  0  0  0
   -2.6890   -1.2210    0.4010 C   0  0  2  0  0  0  0  0  0  0  0  0
   -1.2950   -1.0480    0.6240 N   0  0  0  0  0  0  0  0  0  0  0  0
   -2.9430   -1.8780   -0.8690 C   0  0  0  0  0  0  0  0  0  0  0  0
   -4.0990   -2.1430   -1.2910 O   0  0  0  0  0  0  0  0  0  0  0  0
   -1.8670   -2.2480   -1.6870 O   0  0  0  0  0  0  0  0  0  0  0  0
   -3.9940    3.7790    3.0960 H   0  0  0  0  0  0  0  0  0  0  0  0
   -4.1440    2.2640    4.0870 H   0  0  0  0  0  0  0  0  0  0  0  0
   -2.2960    0.7440    2.3320 H   0  0  0  0  0  0  0  0  0  0  0  0
   -3.8380   -0.0280    2.6760 H   0  0  0  0  0  0  0  0  0  0  0  0
   -4.5320   -0.1070    0.4340 H   0  0  0  0  0  0  0  0  0  0  0  0
   -3.1530    0.8570   -0.1930 H   0  0  0  0  0  0  0  0  0  0  0  0
   -3.1180   -1.8180    1.2970 H   0  0  0  0  0  0  0  0  0  0  0  0
   -0.7540   -1.9320    0.9220 H   0  0  0  0  0  0  0  0  0  0  0  0
  1  7  1  0  0  0  0
  2  1  1  0  0  0  0
  2  3  1  0  0  0  0
  3 10  1  1  0  0  0
  3  4  1  0  0  0  0
  4 11  1  0  0  0  0
  5 18  1  0  0  0  0
  5  3  1  0  0  0  0
  6  5  2  0  0  0  0
  8  2  1  0  0  0  0
  9  2  1  0  0  0  0
 12  4  1  0  0  0  0
 13 14  1  0  0  0  0
 14 24  1  0  0  0  0
 14 25  1  0  0  0  0
 15 26  1  6  0  0  0
 15 14  1  0  0  0  0
 15 17  1  0  0  0  0
 16 15  1  0  0  0  0
 16 29  1  0  0  0  0
 17 18  1  0  0  0  0
 17 30  1  1  0  0  0
 18 31  1  0  0  0  0
 19 38  1  0  0  0  0
 19 17  1  0  0  0  0
 20 19  2  0  0  0  0
 21 13  1  0  0  0  0
 22 13  1  0  0  0  0
 23 13  1  0  0  0  0
 27 16  1  0  0  0  0
 28 16  1  0  0  0  0
 32 43  1  0  0  0  0
 33 32  1  0  0  0  0
 34 33  2  0  0  0  0
 35 33  1  0  0  0  0
 35 44  1  0  0  0  0
 35 45  1  0  0  0  0
 36 35  1  0  0  0  0
 37 36  1  0  0  0  0
 37 38  1  0  0  0  0
 37 48  1  1  0  0  0
 38 49  1  0  0  0  0
 39 37  1  0  0  0  0
 40 39  1  0  0  0  0
 41 39  2  0  0  0  0
 42 32  1  0  0  0  0
 46 36  1  0  0  0  0
 47 36  1  0  0  0  0
M  END
$$$$
