SIR.pdb
 OpenBabel07022419083D

 55 54  0  0  1  0  0  0  0  0999 V2000
    4.2530   -1.9430    5.4760 O   0  0  0  0  0  0  0  0  0  0  0  0
    3.9720   -1.2220    4.3240 C   0  0  0  0  0  0  0  0  0  0  0  0
    2.4650   -1.1590    4.0660 C   0  0  2  0  0  0  0  0  0  0  0  0
    2.0210   -2.5240    3.9220 N   0  0  0  0  0  0  0  0  0  0  0  0
    2.2940   -0.4780    2.7640 C   0  0  0  0  0  0  0  0  0  0  0  0
    2.5960    0.7330    2.5750 O   0  0  0  0  0  0  0  0  0  0  0  0
    3.4330   -2.2940    5.8680 H   0  0  0  0  0  0  0  0  0  0  0  0
    4.4170   -0.2120    4.3470 H   0  0  0  0  0  0  0  0  0  0  0  0
    4.3980   -1.7900    3.4670 H   0  0  0  0  0  0  0  0  0  0  0  0
    1.9530   -0.6270    4.8930 H   0  0  0  0  0  0  0  0  0  0  0  0
    1.5180   -2.8850    4.7450 H   0  0  0  0  0  0  0  0  0  0  0  0
    2.7540   -3.1570    3.5550 H   0  0  0  0  0  0  0  0  0  0  0  0
    2.8260   -3.2490   -2.0860 C   0  0  0  0  0  0  0  0  0  0  0  0
    2.1020   -2.6660   -0.9030 C   0  0  0  0  0  0  0  0  0  0  0  0
    2.4140   -1.2050   -0.7150 C   0  0  2  0  0  0  0  0  0  0  0  0
    3.9010   -0.9780   -0.4870 C   0  0  0  0  0  0  0  0  0  0  0  0
    1.5810   -0.5670    0.3540 C   0  0  2  0  0  0  0  0  0  0  0  0
    1.7680   -1.1920    1.6550 N   0  0  0  0  0  0  0  0  0  0  0  0
    0.1340   -0.5810    0.0370 C   0  0  0  0  0  0  0  0  0  0  0  0
   -0.6620   -1.0870    0.8640 O   0  0  0  0  0  0  0  0  0  0  0  0
    3.8510   -3.5790   -1.8480 H   0  0  0  0  0  0  0  0  0  0  0  0
    2.2590   -4.1120   -2.5320 H   0  0  0  0  0  0  0  0  0  0  0  0
    2.8900   -2.4790   -2.8700 H   0  0  0  0  0  0  0  0  0  0  0  0
    1.0110   -2.7300   -1.1300 H   0  0  0  0  0  0  0  0  0  0  0  0
    2.3300   -3.2670    0.0040 H   0  0  0  0  0  0  0  0  0  0  0  0
    2.1660   -0.6980   -1.6710 H   0  0  0  0  0  0  0  0  0  0  0  0
    4.1330    0.1050   -0.4580 H   0  0  0  0  0  0  0  0  0  0  0  0
    4.2500   -1.5060    0.4350 H   0  0  0  0  0  0  0  0  0  0  0  0
    4.5060   -1.3980   -1.3160 H   0  0  0  0  0  0  0  0  0  0  0  0
    1.9070    0.5130    0.3940 H   0  0  0  0  0  0  0  0  0  0  0  0
    1.5110   -2.2040    1.7960 H   0  0  0  0  0  0  0  0  0  0  0  0
   -5.1190    1.4470    2.7390 N   0  0  0  0  0  0  0  0  0  0  0  0
   -5.2080    0.6870    1.5480 C   0  0  0  0  0  0  0  0  0  0  0  0
   -5.8510   -0.4110    1.4500 N   0  0  0  0  0  0  0  0  0  0  0  0
   -4.5310    1.1940    0.3910 N   0  0  0  0  0  0  0  0  0  0  0  0
   -4.6720    0.5390   -0.8740 C   0  0  0  0  0  0  0  0  0  0  0  0
   -3.8550    1.2660   -1.9220 C   0  0  0  0  0  0  0  0  0  0  0  0
   -2.3900    1.3090   -1.6080 C   0  0  0  0  0  0  0  0  0  0  0  0
   -1.8500   -0.0690   -1.4680 C   0  0  2  0  0  0  0  0  0  0  0  0
   -0.4210   -0.0580   -1.1490 N   0  0  0  0  0  0  0  0  0  0  0  0
   -2.0440   -0.9240   -2.6450 C   0  0  0  0  0  0  0  0  0  0  0  0
   -3.1330   -1.2380   -3.1660 O   0  0  0  0  0  0  0  0  0  0  0  0
   -0.9200   -1.4550   -3.2710 O   0  0  0  0  0  0  0  0  0  0  0  0
   -4.5110    2.2680    2.8340 H   0  0  0  0  0  0  0  0  0  0  0  0
   -5.7030    1.1540    3.5620 H   0  0  0  0  0  0  0  0  0  0  0  0
   -6.3610   -0.8260    2.2560 H   0  0  0  0  0  0  0  0  0  0  0  0
   -3.9420    2.0430    0.4940 H   0  0  0  0  0  0  0  0  0  0  0  0
   -5.7390    0.6160   -1.2280 H   0  0  0  0  0  0  0  0  0  0  0  0
   -4.4560   -0.5380   -0.8380 H   0  0  0  0  0  0  0  0  0  0  0  0
   -4.2840    2.3120   -1.9790 H   0  0  0  0  0  0  0  0  0  0  0  0
   -4.0070    0.7610   -2.8870 H   0  0  0  0  0  0  0  0  0  0  0  0
   -1.9070    1.8950   -2.4210 H   0  0  0  0  0  0  0  0  0  0  0  0
   -2.2610    1.8440   -0.6200 H   0  0  0  0  0  0  0  0  0  0  0  0
   -2.4280   -0.5540   -0.6280 H   0  0  0  0  0  0  0  0  0  0  0  0
    0.2450    0.3590   -1.8310 H   0  0  0  0  0  0  0  0  0  0  0  0
  1  7  1  0  0  0  0
  2  8  1  0  0  0  0
  2  1  1  0  0  0  0
  3  2  1  0  0  0  0
  3 10  1  1  0  0  0
  4  3  1  0  0  0  0
  4 11  1  0  0  0  0
  5  3  1  0  0  0  0
  6  5  2  0  0  0  0
  9  2  1  0  0  0  0
 12  4  1  0  0  0  0
 13 21  1  0  0  0  0
 13 14  1  0  0  0  0
 14 15  1  0  0  0  0
 14 25  1  0  0  0  0
 15 26  1  6  0  0  0
 15 16  1  0  0  0  0
 15 17  1  0  0  0  0
 16 27  1  0  0  0  0
 16 28  1  0  0  0  0
 17 30  1  1  0  0  0
 17 18  1  0  0  0  0
 18 31  1  0  0  0  0
 18  5  1  0  0  0  0
 19 17  1  0  0  0  0
 19 20  2  0  0  0  0
 22 13  1  0  0  0  0
 23 13  1  0  0  0  0
 24 14  1  0  0  0  0
 29 16  1  0  0  0  0
 32 44  1  0  0  0  0
 32 45  1  0  0  0  0
 33 32  1  0  0  0  0
 34 33  2  0  0  0  0
 34 46  1  0  0  0  0
 35 47  1  0  0  0  0
 35 33  1  0  0  0  0
 36 49  1  0  0  0  0
 36 35  1  0  0  0  0
 37 38  1  0  0  0  0
 37 36  1  0  0  0  0
 38 39  1  0  0  0  0
 38 53  1  0  0  0  0
 39 40  1  0  0  0  0
 39 54  1  1  0  0  0
 40 19  1  0  0  0  0
 41 39  1  0  0  0  0
 42 41  1  0  0  0  0
 43 41  2  0  0  0  0
 48 36  1  0  0  0  0
 50 37  1  0  0  0  0
 51 37  1  0  0  0  0
 52 38  1  0  0  0  0
 55 40  1  0  0  0  0
M  END
$$$$
