SIV.pdb
 OpenBabel07022419083D

 48 47  0  0  1  0  0  0  0  0999 V2000
    4.9190   -1.2350    2.2110 O   0  0  0  0  0  0  0  0  0  0  0  0
    4.5440    0.0370    2.5860 C   0  0  0  0  0  0  0  0  0  0  0  0
    3.0420    0.2580    2.5170 C   0  0  2  0  0  0  0  0  0  0  0  0
    2.3260   -0.6500    3.3900 N   0  0  0  0  0  0  0  0  0  0  0  0
    2.5540    0.1450    1.1080 C   0  0  0  0  0  0  0  0  0  0  0  0
    3.0930    0.8420    0.2080 O   0  0  0  0  0  0  0  0  0  0  0  0
    4.6400   -1.4920    1.3070 H   0  0  0  0  0  0  0  0  0  0  0  0
    4.9250    0.2120    3.6100 H   0  0  0  0  0  0  0  0  0  0  0  0
    4.9960    0.8270    1.9380 H   0  0  0  0  0  0  0  0  0  0  0  0
    2.8850    1.3260    2.8170 H   0  0  0  0  0  0  0  0  0  0  0  0
    1.8120   -0.0550    4.0900 H   0  0  0  0  0  0  0  0  0  0  0  0
    3.0440   -1.1540    3.9620 H   0  0  0  0  0  0  0  0  0  0  0  0
   -0.5780   -2.9630   -2.5720 C   0  0  0  0  0  0  0  0  0  0  0  0
    0.8760   -2.6720   -2.4180 C   0  0  0  0  0  0  0  0  0  0  0  0
    1.2550   -2.2140   -1.0620 C   0  0  2  0  0  0  0  0  0  0  0  0
    0.8710   -3.2650   -0.0290 C   0  0  0  0  0  0  0  0  0  0  0  0
    1.0200   -0.8190   -0.6670 C   0  0  2  0  0  0  0  0  0  0  0  0
    1.5020   -0.7150    0.7360 N   0  0  0  0  0  0  0  0  0  0  0  0
   -0.3230   -0.2700   -0.7280 C   0  0  0  0  0  0  0  0  0  0  0  0
   -0.9380   -0.1860   -1.8110 O   0  0  0  0  0  0  0  0  0  0  0  0
   -1.0480   -2.3730   -3.3660 H   0  0  0  0  0  0  0  0  0  0  0  0
   -0.7280   -4.0630   -2.8350 H   0  0  0  0  0  0  0  0  0  0  0  0
   -1.1460   -2.8650   -1.6190 H   0  0  0  0  0  0  0  0  0  0  0  0
    1.4340   -3.6410   -2.5920 H   0  0  0  0  0  0  0  0  0  0  0  0
    1.2760   -2.0060   -3.2160 H   0  0  0  0  0  0  0  0  0  0  0  0
    2.4190   -2.3120   -1.0580 H   0  0  0  0  0  0  0  0  0  0  0  0
    1.0580   -4.2610   -0.5280 H   0  0  0  0  0  0  0  0  0  0  0  0
   -0.1940   -3.1970    0.2570 H   0  0  0  0  0  0  0  0  0  0  0  0
    1.5440   -3.2460    0.8520 H   0  0  0  0  0  0  0  0  0  0  0  0
    1.6680   -0.1590   -1.3040 H   0  0  0  0  0  0  0  0  0  0  0  0
    1.0440   -1.2980    1.4650 H   0  0  0  0  0  0  0  0  0  0  0  0
   -2.6950   -0.1110    2.7870 C   0  0  0  0  0  0  0  0  0  0  0  0
   -3.1950   -0.0590    1.3620 C   0  0  0  0  0  0  0  0  0  0  0  0
   -4.6280    0.3500    1.3190 C   0  0  0  0  0  0  0  0  0  0  0  0
   -2.3180    0.7560    0.4690 C   0  0  2  0  0  0  0  0  0  0  0  0
   -0.9720    0.1870    0.4430 N   0  0  0  0  0  0  0  0  0  0  0  0
   -2.2640    2.1970    0.8480 C   0  0  0  0  0  0  0  0  0  0  0  0
   -1.1510    2.7090    1.0660 O   0  0  0  0  0  0  0  0  0  0  0  0
   -3.3990    2.9660    0.9630 O   0  0  0  0  0  0  0  0  0  0  0  0
   -2.4270    0.8870    3.1800 H   0  0  0  0  0  0  0  0  0  0  0  0
   -1.8480   -0.8180    2.8840 H   0  0  0  0  0  0  0  0  0  0  0  0
   -3.5270   -0.4930    3.4200 H   0  0  0  0  0  0  0  0  0  0  0  0
   -3.1550   -1.1140    0.9890 H   0  0  0  0  0  0  0  0  0  0  0  0
   -4.8500    1.3350    1.7660 H   0  0  0  0  0  0  0  0  0  0  0  0
   -5.2130   -0.3830    1.9400 H   0  0  0  0  0  0  0  0  0  0  0  0
   -5.0640    0.2990    0.3140 H   0  0  0  0  0  0  0  0  0  0  0  0
   -2.7010    0.6930   -0.5640 H   0  0  0  0  0  0  0  0  0  0  0  0
   -0.4410    0.1080    1.3560 H   0  0  0  0  0  0  0  0  0  0  0  0
  1  2  1  0  0  0  0
  2  8  1  0  0  0  0
  3  2  1  0  0  0  0
  3 10  1  1  0  0  0
  3  4  1  0  0  0  0
  4 12  1  0  0  0  0
  4 11  1  0  0  0  0
  5  3  1  0  0  0  0
  6  5  2  0  0  0  0
  7  1  1  0  0  0  0
  9  2  1  0  0  0  0
 13 14  1  0  0  0  0
 13 23  1  0  0  0  0
 14 15  1  0  0  0  0
 15 26  1  6  0  0  0
 15 17  1  0  0  0  0
 15 16  1  0  0  0  0
 16 28  1  0  0  0  0
 16 29  1  0  0  0  0
 17 30  1  6  0  0  0
 17 18  1  0  0  0  0
 18  5  1  0  0  0  0
 18 31  1  0  0  0  0
 19 17  1  0  0  0  0
 19 36  1  0  0  0  0
 20 19  2  0  0  0  0
 21 13  1  0  0  0  0
 22 13  1  0  0  0  0
 24 14  1  0  0  0  0
 25 14  1  0  0  0  0
 27 16  1  0  0  0  0
 32 41  1  0  0  0  0
 32 40  1  0  0  0  0
 32 42  1  0  0  0  0
 33 32  1  0  0  0  0
 34 33  1  0  0  0  0
 34 44  1  0  0  0  0
 34 45  1  0  0  0  0
 35 47  1  6  0  0  0
 35 37  1  0  0  0  0
 35 33  1  0  0  0  0
 36 35  1  0  0  0  0
 36 48  1  0  0  0  0
 37 39  2  0  0  0  0
 37 38  1  0  0  0  0
 43 33  1  0  0  0  0
 46 34  1  0  0  0  0
M  END
$$$$
