SIW.pdb
 OpenBabel07022419083D

 56 57  0  0  1  0  0  0  0  0999 V2000
    1.0620    3.4990    3.7870 O   0  0  0  0  0  0  0  0  0  0  0  0
    1.1900    2.2280    3.2310 C   0  0  0  0  0  0  0  0  0  0  0  0
    0.8840    1.1650    4.2740 C   0  0  2  0  0  0  0  0  0  0  0  0
    1.7900    1.2680    5.3840 N   0  0  0  0  0  0  0  0  0  0  0  0
    0.8880   -0.1900    3.6810 C   0  0  0  0  0  0  0  0  0  0  0  0
    1.6550   -1.0600    4.2020 O   0  0  0  0  0  0  0  0  0  0  0  0
    0.4230    4.0600    3.2810 H   0  0  0  0  0  0  0  0  0  0  0  0
    2.2730    2.1470    2.9210 H   0  0  0  0  0  0  0  0  0  0  0  0
    0.5430    2.1550    2.3580 H   0  0  0  0  0  0  0  0  0  0  0  0
   -0.1370    1.4200    4.6730 H   0  0  0  0  0  0  0  0  0  0  0  0
    1.6920    2.2070    5.8300 H   0  0  0  0  0  0  0  0  0  0  0  0
    2.7880    1.2120    5.0590 H   0  0  0  0  0  0  0  0  0  0  0  0
   -0.4130   -4.7400    1.8780 C   0  0  0  0  0  0  0  0  0  0  0  0
   -1.3910   -3.7490    1.3460 C   0  0  0  0  0  0  0  0  0  0  0  0
   -1.3100   -2.3790    1.9610 C   0  0  2  0  0  0  0  0  0  0  0  0
   -2.3690   -1.5350    1.2970 C   0  0  0  0  0  0  0  0  0  0  0  0
    0.0330   -1.7560    1.9790 C   0  0  2  0  0  0  0  0  0  0  0  0
    0.0560   -0.4520    2.5820 N   0  0  0  0  0  0  0  0  0  0  0  0
    0.6250   -1.7280    0.6070 C   0  0  0  0  0  0  0  0  0  0  0  0
    0.6890   -2.7620   -0.0790 O   0  0  0  0  0  0  0  0  0  0  0  0
    0.1080   -5.2120    0.9930 H   0  0  0  0  0  0  0  0  0  0  0  0
   -0.9240   -5.6190    2.3730 H   0  0  0  0  0  0  0  0  0  0  0  0
    0.3020   -4.3660    2.6110 H   0  0  0  0  0  0  0  0  0  0  0  0
   -1.3930   -3.6780    0.2210 H   0  0  0  0  0  0  0  0  0  0  0  0
   -2.4200   -4.1960    1.5480 H   0  0  0  0  0  0  0  0  0  0  0  0
   -1.6660   -2.5030    3.0280 H   0  0  0  0  0  0  0  0  0  0  0  0
   -3.2530   -2.2140    1.1090 H   0  0  0  0  0  0  0  0  0  0  0  0
   -2.7420   -0.7710    2.0080 H   0  0  0  0  0  0  0  0  0  0  0  0
   -2.0770   -1.1560    0.3190 H   0  0  0  0  0  0  0  0  0  0  0  0
    0.7440   -2.4000    2.5640 H   0  0  0  0  0  0  0  0  0  0  0  0
   -0.5500    0.2980    2.1980 H   0  0  0  0  0  0  0  0  0  0  0  0
    1.1210   -0.5020    0.0800 N   0  0  0  0  0  0  0  0  0  0  0  0
    1.7060   -0.4190   -1.2420 C   0  0  1  0  0  0  0  0  0  0  0  0
    1.0370    0.6730   -2.0100 C   0  0  0  0  0  0  0  0  0  0  0  0
   -0.4130    0.4220   -2.1510 C   0  0  0  0  0  0  0  0  0  0  0  0
   -1.4770    0.9950   -1.5040 C   0  0  0  0  0  0  0  0  0  0  0  0
   -2.6170    0.4550   -1.9570 N   0  0  0  0  0  0  0  0  0  0  0  0
   -2.3350   -0.4700   -2.8980 C   0  0  0  0  0  0  0  0  0  0  0  0
   -3.1410   -1.2900   -3.6560 C   0  0  0  0  0  0  0  0  0  0  0  0
   -2.5920   -2.1800   -4.5820 C   0  0  0  0  0  0  0  0  0  0  0  0
   -1.2170   -2.2060   -4.7080 C   0  0  0  0  0  0  0  0  0  0  0  0
   -0.4090   -1.3940   -3.9580 C   0  0  0  0  0  0  0  0  0  0  0  0
   -0.9480   -0.5150   -3.0440 C   0  0  0  0  0  0  0  0  0  0  0  0
    3.1830   -0.1930   -1.1520 C   0  0  0  0  0  0  0  0  0  0  0  0
    3.9160   -0.0870   -2.1420 O   0  0  0  0  0  0  0  0  0  0  0  0
    3.7380   -0.1000    0.1080 O   0  0  0  0  0  0  0  0  0  0  0  0
    1.0360    0.3370    0.7080 H   0  0  0  0  0  0  0  0  0  0  0  0
    1.6090   -1.4150   -1.7370 H   0  0  0  0  0  0  0  0  0  0  0  0
    1.1420    1.6090   -1.3880 H   0  0  0  0  0  0  0  0  0  0  0  0
    1.4950    0.8500   -3.0040 H   0  0  0  0  0  0  0  0  0  0  0  0
   -1.4200    1.7570   -0.7500 H   0  0  0  0  0  0  0  0  0  0  0  0
   -3.5970    0.6860   -1.6570 H   0  0  0  0  0  0  0  0  0  0  0  0
   -4.2260   -1.2820   -3.5690 H   0  0  0  0  0  0  0  0  0  0  0  0
   -3.2400   -2.8170   -5.1690 H   0  0  0  0  0  0  0  0  0  0  0  0
   -0.7590   -2.8800   -5.4120 H   0  0  0  0  0  0  0  0  0  0  0  0
    0.6680   -1.4090   -4.0510 H   0  0  0  0  0  0  0  0  0  0  0  0
  2  1  1  0  0  0  0
  2  3  1  0  0  0  0
  3 10  1  1  0  0  0
  3  4  1  0  0  0  0
  4 11  1  0  0  0  0
  5  6  2  0  0  0  0
  5  3  1  0  0  0  0
  7  1  1  0  0  0  0
  8  2  1  0  0  0  0
  9  2  1  0  0  0  0
 12  4  1  0  0  0  0
 13 22  1  0  0  0  0
 13 23  1  0  0  0  0
 14 25  1  0  0  0  0
 14 13  1  0  0  0  0
 14 15  1  0  0  0  0
 15 17  1  0  0  0  0
 15 26  1  1  0  0  0
 16 15  1  0  0  0  0
 16 28  1  0  0  0  0
 17 30  1  1  0  0  0
 17 18  1  0  0  0  0
 18  5  1  0  0  0  0
 19 17  1  0  0  0  0
 20 19  2  0  0  0  0
 21 13  1  0  0  0  0
 24 14  1  0  0  0  0
 27 16  1  0  0  0  0
 29 16  1  0  0  0  0
 31 18  1  0  0  0  0
 32 19  1  0  0  0  0
 32 47  1  0  0  0  0
 33 48  1  6  0  0  0
 33 44  1  0  0  0  0
 33 32  1  0  0  0  0
 34 49  1  0  0  0  0
 34 33  1  0  0  0  0
 35 34  1  0  0  0  0
 35 36  2  0  0  0  0
 36 51  1  0  0  0  0
 37 52  1  0  0  0  0
 37 36  1  0  0  0  0
 38 37  1  0  0  0  0
 39 53  1  0  0  0  0
 39 38  2  0  0  0  0
 40 39  1  0  0  0  0
 41 40  2  0  0  0  0
 41 42  1  0  0  0  0
 42 43  2  0  0  0  0
 43 38  1  0  0  0  0
 43 35  1  0  0  0  0
 44 46  1  0  0  0  0
 45 44  2  0  0  0  0
 50 34  1  0  0  0  0
 54 40  1  0  0  0  0
 55 41  1  0  0  0  0
 56 42  1  0  0  0  0
M  END
$$$$
