SKA.pdb
 OpenBabel07022419093D

 44 43  0  0  1  0  0  0  0  0999 V2000
   -0.5610   -5.1820   -0.3120 O   0  0  0  0  0  0  0  0  0  0  0  0
    0.7530   -5.5060    0.0150 C   0  0  0  0  0  0  0  0  0  0  0  0
    1.2760   -4.6050    1.1250 C   0  0  2  0  0  0  0  0  0  0  0  0
    0.4520   -4.7660    2.2980 N   0  0  0  0  0  0  0  0  0  0  0  0
    1.0910   -3.1970    0.6160 C   0  0  0  0  0  0  0  0  0  0  0  0
    1.6980   -2.7900   -0.4040 O   0  0  0  0  0  0  0  0  0  0  0  0
   -1.2120   -5.6670    0.2540 H   0  0  0  0  0  0  0  0  0  0  0  0
    0.8090   -6.5490    0.3620 H   0  0  0  0  0  0  0  0  0  0  0  0
    1.3910   -5.4080   -0.8870 H   0  0  0  0  0  0  0  0  0  0  0  0
    2.3440   -4.7260    1.2950 H   0  0  0  0  0  0  0  0  0  0  0  0
    0.5600   -5.7140    2.7010 H   0  0  0  0  0  0  0  0  0  0  0  0
   -0.5470   -4.7040    1.9690 H   0  0  0  0  0  0  0  0  0  0  0  0
    0.2280   -2.2990    1.2730 N   0  0  0  0  0  0  0  0  0  0  0  0
    0.0680   -0.9090    0.7400 C   0  0  1  0  0  0  0  0  0  0  0  0
   -1.3700   -0.6850    0.4980 C   0  0  0  0  0  0  0  0  0  0  0  0
   -1.7720    0.5980   -0.0820 C   0  0  0  0  0  0  0  0  0  0  0  0
   -1.4250    0.9930   -1.4450 C   0  0  0  0  0  0  0  0  0  0  0  0
   -0.0410    1.1000   -1.9300 C   0  0  0  0  0  0  0  0  0  0  0  0
   -0.0490    1.5720   -3.3630 N   0  0  0  0  0  0  0  0  0  0  0  0
    0.5460   -0.0840    1.8980 C   0  0  0  0  0  0  0  0  0  0  0  0
    0.6940   -0.6520    3.0190 O   0  0  0  0  0  0  0  0  0  0  0  0
   -0.3170   -2.5110    2.1060 H   0  0  0  0  0  0  0  0  0  0  0  0
    0.6890   -0.8460   -0.1120 H   0  0  0  0  0  0  0  0  0  0  0  0
   -1.9470   -0.7640    1.4940 H   0  0  0  0  0  0  0  0  0  0  0  0
   -1.7800   -1.5050   -0.1710 H   0  0  0  0  0  0  0  0  0  0  0  0
   -1.4430    1.4110    0.6380 H   0  0  0  0  0  0  0  0  0  0  0  0
   -2.9270    0.7180    0.0320 H   0  0  0  0  0  0  0  0  0  0  0  0
   -1.8770    2.0470   -1.5890 H   0  0  0  0  0  0  0  0  0  0  0  0
   -2.0790    0.4120   -2.1850 H   0  0  0  0  0  0  0  0  0  0  0  0
    0.4070    0.0710   -2.0810 H   0  0  0  0  0  0  0  0  0  0  0  0
    0.5980    1.8020   -1.4080 H   0  0  0  0  0  0  0  0  0  0  0  0
    0.9510    1.5680   -3.6350 H   0  0  0  0  0  0  0  0  0  0  0  0
   -0.4120    2.5510   -3.3120 H   0  0  0  0  0  0  0  0  0  0  0  0
    2.6250    2.6800    2.6070 C   0  0  0  0  0  0  0  0  0  0  0  0
    1.2850    2.0410    2.9140 C   0  0  2  0  0  0  0  0  0  0  0  0
    0.8290    1.2790    1.7510 N   0  0  0  0  0  0  0  0  0  0  0  0
    0.3410    3.1450    3.2250 C   0  0  0  0  0  0  0  0  0  0  0  0
   -0.7030    3.3810    2.5710 O   0  0  0  0  0  0  0  0  0  0  0  0
    0.6530    3.9510    4.3110 O   0  0  0  0  0  0  0  0  0  0  0  0
    2.5330    3.7840    2.4600 H   0  0  0  0  0  0  0  0  0  0  0  0
    3.3350    2.5480    3.4570 H   0  0  0  0  0  0  0  0  0  0  0  0
    3.0410    2.2710    1.6590 H   0  0  0  0  0  0  0  0  0  0  0  0
    1.3300    1.3500    3.7740 H   0  0  0  0  0  0  0  0  0  0  0  0
    0.7590    1.8080    0.8610 H   0  0  0  0  0  0  0  0  0  0  0  0
  1  2  1  0  0  0  0
  1  7  1  0  0  0  0
  2  8  1  0  0  0  0
  2  3  1  0  0  0  0
  3 10  1  1  0  0  0
  3  4  1  0  0  0  0
  4 11  1  0  0  0  0
  5  3  1  0  0  0  0
  5 13  1  0  0  0  0
  6  5  2  0  0  0  0
  9  2  1  0  0  0  0
 12  4  1  0  0  0  0
 13 22  1  0  0  0  0
 14 23  1  6  0  0  0
 14 13  1  0  0  0  0
 14 20  1  0  0  0  0
 15 14  1  0  0  0  0
 15 24  1  0  0  0  0
 16 27  1  0  0  0  0
 16 15  1  0  0  0  0
 16 26  1  0  0  0  0
 17 16  1  0  0  0  0
 18 17  1  0  0  0  0
 18 31  1  0  0  0  0
 19 33  1  0  0  0  0
 19 18  1  0  0  0  0
 20 21  2  0  0  0  0
 25 15  1  0  0  0  0
 28 17  1  0  0  0  0
 29 17  1  0  0  0  0
 30 18  1  0  0  0  0
 32 19  1  0  0  0  0
 34 35  1  0  0  0  0
 34 41  1  0  0  0  0
 35 37  1  0  0  0  0
 35 43  1  1  0  0  0
 36 20  1  0  0  0  0
 36 35  1  0  0  0  0
 37 39  1  0  0  0  0
 38 37  2  0  0  0  0
 40 34  1  0  0  0  0
 42 34  1  0  0  0  0
 44 36  1  0  0  0  0
M  END
$$$$
