SKD.pdb
 OpenBabel07022419093D

 47 46  0  0  1  0  0  0  0  0999 V2000
    3.2410   -5.7240    1.8160 O   0  0  0  0  0  0  0  0  0  0  0  0
    2.6290   -4.5270    2.1860 C   0  0  0  0  0  0  0  0  0  0  0  0
    1.3990   -4.2580    1.3430 C   0  0  2  0  0  0  0  0  0  0  0  0
    1.7310   -4.1620   -0.0470 N   0  0  0  0  0  0  0  0  0  0  0  0
    0.6430   -3.0810    1.8360 C   0  0  0  0  0  0  0  0  0  0  0  0
    0.2380   -3.0430    3.0250 O   0  0  0  0  0  0  0  0  0  0  0  0
    2.5430   -6.3970    1.5360 H   0  0  0  0  0  0  0  0  0  0  0  0
    2.4690   -4.4110    3.2570 H   0  0  0  0  0  0  0  0  0  0  0  0
    3.3690   -3.7250    1.8870 H   0  0  0  0  0  0  0  0  0  0  0  0
    0.7240   -5.1370    1.4740 H   0  0  0  0  0  0  0  0  0  0  0  0
    0.9050   -3.9550   -0.6180 H   0  0  0  0  0  0  0  0  0  0  0  0
    2.5630   -3.5850   -0.2700 H   0  0  0  0  0  0  0  0  0  0  0  0
    0.3350   -1.9520    1.0180 N   0  0  0  0  0  0  0  0  0  0  0  0
   -0.4010   -0.8140    1.5050 C   0  0  1  0  0  0  0  0  0  0  0  0
    0.4450    0.2690    2.1110 C   0  0  0  0  0  0  0  0  0  0  0  0
    1.4640    0.9410    1.3030 C   0  0  0  0  0  0  0  0  0  0  0  0
    2.6030    0.1730    0.7570 C   0  0  0  0  0  0  0  0  0  0  0  0
    3.4980    1.1740   -0.0140 C   0  0  0  0  0  0  0  0  0  0  0  0
    3.9900    2.2170    0.8400 N   0  0  0  0  0  0  0  0  0  0  0  0
   -1.2730   -0.2690    0.4320 C   0  0  0  0  0  0  0  0  0  0  0  0
   -1.2460   -0.8130   -0.7190 O   0  0  0  0  0  0  0  0  0  0  0  0
    0.6560   -2.0330    0.0320 H   0  0  0  0  0  0  0  0  0  0  0  0
   -1.0380   -1.1500    2.4140 H   0  0  0  0  0  0  0  0  0  0  0  0
    0.9270   -0.1170    3.0630 H   0  0  0  0  0  0  0  0  0  0  0  0
   -0.2660    1.0690    2.5180 H   0  0  0  0  0  0  0  0  0  0  0  0
    0.9880    1.5460    0.4670 H   0  0  0  0  0  0  0  0  0  0  0  0
    1.9120    1.7580    1.9640 H   0  0  0  0  0  0  0  0  0  0  0  0
    3.2690   -0.2600    1.5580 H   0  0  0  0  0  0  0  0  0  0  0  0
    2.3730   -0.6560    0.0830 H   0  0  0  0  0  0  0  0  0  0  0  0
    4.3060    0.5680   -0.4970 H   0  0  0  0  0  0  0  0  0  0  0  0
    2.9210    1.6240   -0.8460 H   0  0  0  0  0  0  0  0  0  0  0  0
    4.8400    1.9210    1.3880 H   0  0  0  0  0  0  0  0  0  0  0  0
    4.2100    3.0510    0.2520 H   0  0  0  0  0  0  0  0  0  0  0  0
   -2.1430    0.8240    0.6010 N   0  0  0  0  0  0  0  0  0  0  0  0
   -3.0020    1.3780   -0.4260 C   0  0  1  0  0  0  0  0  0  0  0  0
   -4.4540    1.0790   -0.0180 C   0  0  0  0  0  0  0  0  0  0  0  0
   -4.6850   -0.3680    0.0930 C   0  0  0  0  0  0  0  0  0  0  0  0
   -4.3450   -1.0680    1.0860 O   0  0  0  0  0  0  0  0  0  0  0  0
   -2.8960    2.8480   -0.5110 C   0  0  0  0  0  0  0  0  0  0  0  0
   -2.1220    3.4450    0.2680 O   0  0  0  0  0  0  0  0  0  0  0  0
   -5.3210   -1.0220   -0.9580 O   0  0  0  0  0  0  0  0  0  0  0  0
   -3.6220    3.5850   -1.4210 O   0  0  0  0  0  0  0  0  0  0  0  0
   -2.1720    1.2760    1.5530 H   0  0  0  0  0  0  0  0  0  0  0  0
   -2.8770    0.8830   -1.3980 H   0  0  0  0  0  0  0  0  0  0  0  0
   -5.1710    1.5140   -0.7460 H   0  0  0  0  0  0  0  0  0  0  0  0
   -4.6910    1.5660    0.9560 H   0  0  0  0  0  0  0  0  0  0  0  0
   -5.0720   -1.9660   -1.2440 H   0  0  0  0  0  0  0  0  0  0  0  0
  1  2  1  0  0  0  0
  2  8  1  0  0  0  0
  3 10  1  1  0  0  0
  3  5  1  0  0  0  0
  3  2  1  0  0  0  0
  4  3  1  0  0  0  0
  5  6  2  0  0  0  0
  7  1  1  0  0  0  0
  9  2  1  0  0  0  0
 11  4  1  0  0  0  0
 12  4  1  0  0  0  0
 13 14  1  0  0  0  0
 13  5  1  0  0  0  0
 14 15  1  0  0  0  0
 14 23  1  1  0  0  0
 15 25  1  0  0  0  0
 15 24  1  0  0  0  0
 16 27  1  0  0  0  0
 16 15  1  0  0  0  0
 17 16  1  0  0  0  0
 17 28  1  0  0  0  0
 18 17  1  0  0  0  0
 18 19  1  0  0  0  0
 19 32  1  0  0  0  0
 20 34  1  0  0  0  0
 20 14  1  0  0  0  0
 21 20  2  0  0  0  0
 22 13  1  0  0  0  0
 26 16  1  0  0  0  0
 29 17  1  0  0  0  0
 30 18  1  0  0  0  0
 31 18  1  0  0  0  0
 33 19  1  0  0  0  0
 34 43  1  0  0  0  0
 35 44  1  6  0  0  0
 35 36  1  0  0  0  0
 35 34  1  0  0  0  0
 36 37  1  0  0  0  0
 36 46  1  0  0  0  0
 37 38  2  0  0  0  0
 39 35  1  0  0  0  0
 39 40  1  0  0  0  0
 41 37  1  0  0  0  0
 42 39  2  0  0  0  0
 45 36  1  0  0  0  0
 47 41  1  0  0  0  0
M  END
$$$$
