SKE.pdb
 OpenBabel07022419093D

 50 49  0  0  1  0  0  0  0  0999 V2000
    1.6360   -5.3400    3.6600 O   0  0  0  0  0  0  0  0  0  0  0  0
    1.7310   -3.9500    3.6600 C   0  0  0  0  0  0  0  0  0  0  0  0
    0.4740   -3.3330    3.0260 C   0  0  2  0  0  0  0  0  0  0  0  0
    0.3690   -3.8160    1.6710 N   0  0  0  0  0  0  0  0  0  0  0  0
    0.6880   -1.8630    3.0820 C   0  0  0  0  0  0  0  0  0  0  0  0
    0.7480   -1.2910    4.1940 O   0  0  0  0  0  0  0  0  0  0  0  0
    1.0190   -5.6830    2.9710 H   0  0  0  0  0  0  0  0  0  0  0  0
    2.6140   -3.7190    2.9950 H   0  0  0  0  0  0  0  0  0  0  0  0
    1.8530   -3.5070    4.6500 H   0  0  0  0  0  0  0  0  0  0  0  0
   -0.4260   -3.6030    3.5720 H   0  0  0  0  0  0  0  0  0  0  0  0
    1.3560   -4.0060    1.3340 H   0  0  0  0  0  0  0  0  0  0  0  0
   -0.1420   -4.7100    1.5930 H   0  0  0  0  0  0  0  0  0  0  0  0
    0.8300   -1.0450    1.9460 N   0  0  0  0  0  0  0  0  0  0  0  0
    1.0360    0.3630    1.9170 C   0  0  1  0  0  0  0  0  0  0  0  0
    2.2720    0.9230    1.3950 C   0  0  0  0  0  0  0  0  0  0  0  0
    2.6790    0.6640   -0.0060 C   0  0  0  0  0  0  0  0  0  0  0  0
    1.7060    1.1770   -1.0410 C   0  0  0  0  0  0  0  0  0  0  0  0
    2.1840    0.8750   -2.4450 C   0  0  0  0  0  0  0  0  0  0  0  0
    2.3360   -0.5610   -2.6400 N   0  0  0  0  0  0  0  0  0  0  0  0
   -0.1950    1.0330    1.4480 C   0  0  0  0  0  0  0  0  0  0  0  0
   -0.2680    2.2800    1.2280 O   0  0  0  0  0  0  0  0  0  0  0  0
    0.7830   -1.5290    1.0170 H   0  0  0  0  0  0  0  0  0  0  0  0
    1.0530    0.6340    3.0490 H   0  0  0  0  0  0  0  0  0  0  0  0
    3.1290    0.7810    2.1060 H   0  0  0  0  0  0  0  0  0  0  0  0
    2.1440    2.0560    1.4450 H   0  0  0  0  0  0  0  0  0  0  0  0
    2.9600   -0.3820   -0.2230 H   0  0  0  0  0  0  0  0  0  0  0  0
    3.6320    1.2500   -0.1740 H   0  0  0  0  0  0  0  0  0  0  0  0
    0.6890    0.8230   -0.8910 H   0  0  0  0  0  0  0  0  0  0  0  0
    1.6810    2.2990   -0.9630 H   0  0  0  0  0  0  0  0  0  0  0  0
    1.5060    1.2690   -3.2000 H   0  0  0  0  0  0  0  0  0  0  0  0
    3.1790    1.3320   -2.5620 H   0  0  0  0  0  0  0  0  0  0  0  0
    2.4270   -0.8270   -3.6220 H   0  0  0  0  0  0  0  0  0  0  0  0
    1.6780   -1.1040   -2.0720 H   0  0  0  0  0  0  0  0  0  0  0  0
   -1.4160    0.3000    1.2140 N   0  0  0  0  0  0  0  0  0  0  0  0
   -2.6160    0.9260    0.7800 C   0  0  1  0  0  0  0  0  0  0  0  0
   -3.3290    0.2940   -0.3430 C   0  0  0  0  0  0  0  0  0  0  0  0
   -2.7000    0.1490   -1.6580 C   0  0  0  0  0  0  0  0  0  0  0  0
   -1.5270   -0.6700   -1.8380 C   0  0  0  0  0  0  0  0  0  0  0  0
   -0.8510   -0.4620   -2.9140 O   0  0  0  0  0  0  0  0  0  0  0  0
   -3.5800    0.8670    1.9440 C   0  0  0  0  0  0  0  0  0  0  0  0
   -4.7000    1.3660    1.7730 O   0  0  0  0  0  0  0  0  0  0  0  0
   -1.0200   -1.6530   -1.0240 O   0  0  0  0  0  0  0  0  0  0  0  0
   -3.2320    0.2900    3.1290 O   0  0  0  0  0  0  0  0  0  0  0  0
   -1.3540   -0.7060    1.4060 H   0  0  0  0  0  0  0  0  0  0  0  0
   -2.3950    2.0180    0.5840 H   0  0  0  0  0  0  0  0  0  0  0  0
   -4.3320    0.8010   -0.5230 H   0  0  0  0  0  0  0  0  0  0  0  0
   -3.6640   -0.7390   -0.0100 H   0  0  0  0  0  0  0  0  0  0  0  0
   -2.5770    1.1840   -2.1020 H   0  0  0  0  0  0  0  0  0  0  0  0
   -3.5080   -0.2850   -2.3460 H   0  0  0  0  0  0  0  0  0  0  0  0
   -0.4130   -2.4070   -1.3560 H   0  0  0  0  0  0  0  0  0  0  0  0
  1  2  1  0  0  0  0
  2  9  1  0  0  0  0
  3  5  1  0  0  0  0
  3 10  1  1  0  0  0
  3  2  1  0  0  0  0
  4  3  1  0  0  0  0
  5  6  2  0  0  0  0
  7  1  1  0  0  0  0
  8  2  1  0  0  0  0
 11  4  1  0  0  0  0
 12  4  1  0  0  0  0
 13  5  1  0  0  0  0
 14 13  1  0  0  0  0
 14 23  1  1  0  0  0
 15 25  1  0  0  0  0
 15 14  1  0  0  0  0
 15 24  1  0  0  0  0
 16 15  1  0  0  0  0
 17 29  1  0  0  0  0
 17 28  1  0  0  0  0
 17 16  1  0  0  0  0
 18 17  1  0  0  0  0
 19 18  1  0  0  0  0
 19 33  1  0  0  0  0
 20 14  1  0  0  0  0
 21 20  2  0  0  0  0
 22 13  1  0  0  0  0
 26 16  1  0  0  0  0
 27 16  1  0  0  0  0
 30 18  1  0  0  0  0
 31 18  1  0  0  0  0
 32 19  1  0  0  0  0
 34 44  1  0  0  0  0
 34 20  1  0  0  0  0
 35 45  1  6  0  0  0
 35 34  1  0  0  0  0
 35 40  1  0  0  0  0
 36 47  1  0  0  0  0
 36 35  1  0  0  0  0
 37 36  1  0  0  0  0
 38 37  1  0  0  0  0
 38 42  1  0  0  0  0
 39 38  2  0  0  0  0
 40 43  1  0  0  0  0
 41 40  2  0  0  0  0
 46 36  1  0  0  0  0
 48 37  1  0  0  0  0
 49 37  1  0  0  0  0
 50 42  1  0  0  0  0
M  END
$$$$
