SKF.pdb
 OpenBabel07022419093D

 54 54  0  0  1  0  0  0  0  0999 V2000
    2.9290   -2.3970    5.7690 O   0  0  0  0  0  0  0  0  0  0  0  0
    3.5140   -2.7410    4.5520 C   0  0  0  0  0  0  0  0  0  0  0  0
    2.4240   -2.8340    3.5160 C   0  0  2  0  0  0  0  0  0  0  0  0
    2.9080   -3.1840    2.2160 N   0  0  0  0  0  0  0  0  0  0  0  0
    1.5660   -1.6200    3.4830 C   0  0  0  0  0  0  0  0  0  0  0  0
    1.0770   -1.2070    4.5670 O   0  0  0  0  0  0  0  0  0  0  0  0
    2.0850   -2.9360    5.8340 H   0  0  0  0  0  0  0  0  0  0  0  0
    3.9220   -3.7750    4.6750 H   0  0  0  0  0  0  0  0  0  0  0  0
    4.3370   -2.0810    4.2770 H   0  0  0  0  0  0  0  0  0  0  0  0
    1.7510   -3.6750    3.8480 H   0  0  0  0  0  0  0  0  0  0  0  0
    3.5930   -2.4870    1.8470 H   0  0  0  0  0  0  0  0  0  0  0  0
    2.0980   -3.3310    1.5940 H   0  0  0  0  0  0  0  0  0  0  0  0
    1.2870   -0.9210    2.2780 N   0  0  0  0  0  0  0  0  0  0  0  0
    0.4550    0.2650    2.2200 C   0  0  1  0  0  0  0  0  0  0  0  0
    1.2420    1.4740    1.7890 C   0  0  0  0  0  0  0  0  0  0  0  0
    1.8560    1.3030    0.4200 C   0  0  0  0  0  0  0  0  0  0  0  0
    2.6390    2.4990   -0.0150 C   0  0  0  0  0  0  0  0  0  0  0  0
    1.8280    3.7530   -0.0960 C   0  0  0  0  0  0  0  0  0  0  0  0
    2.7310    4.8250   -0.5330 N   0  0  0  0  0  0  0  0  0  0  0  0
   -0.7230    0.0130    1.3770 C   0  0  0  0  0  0  0  0  0  0  0  0
   -1.5870    0.9010    1.1820 O   0  0  0  0  0  0  0  0  0  0  0  0
    1.7320   -1.3230    1.4060 H   0  0  0  0  0  0  0  0  0  0  0  0
    0.1260    0.4600    3.2710 H   0  0  0  0  0  0  0  0  0  0  0  0
    2.0240    1.6650    2.5500 H   0  0  0  0  0  0  0  0  0  0  0  0
    0.6020    2.3780    1.7500 H   0  0  0  0  0  0  0  0  0  0  0  0
    1.1380    1.0220   -0.3460 H   0  0  0  0  0  0  0  0  0  0  0  0
    2.5800    0.4520    0.5110 H   0  0  0  0  0  0  0  0  0  0  0  0
    3.5160    2.7050    0.6330 H   0  0  0  0  0  0  0  0  0  0  0  0
    3.0440    2.2900   -1.0240 H   0  0  0  0  0  0  0  0  0  0  0  0
    1.0300    3.7090   -0.8670 H   0  0  0  0  0  0  0  0  0  0  0  0
    1.4600    4.0440    0.9020 H   0  0  0  0  0  0  0  0  0  0  0  0
    2.9610    4.6040   -1.5290 H   0  0  0  0  0  0  0  0  0  0  0  0
    2.1800    5.7280   -0.5660 H   0  0  0  0  0  0  0  0  0  0  0  0
   -0.9120   -1.2470    0.7610 N   0  0  0  0  0  0  0  0  0  0  0  0
   -2.1110   -1.4350   -0.0700 C   0  0  1  0  0  0  0  0  0  0  0  0
   -1.6870   -1.6730   -1.4860 C   0  0  0  0  0  0  0  0  0  0  0  0
   -2.8780   -1.8680   -2.3400 C   0  0  0  0  0  0  0  0  0  0  0  0
   -3.4910   -0.7660   -2.9020 C   0  0  0  0  0  0  0  0  0  0  0  0
   -4.5980   -0.8520   -3.7210 C   0  0  0  0  0  0  0  0  0  0  0  0
   -5.1290   -2.0900   -4.0010 C   0  0  0  0  0  0  0  0  0  0  0  0
   -4.5320   -3.1920   -3.4510 C   0  0  0  0  0  0  0  0  0  0  0  0
   -3.4190   -3.0920   -2.6290 C   0  0  0  0  0  0  0  0  0  0  0  0
   -2.9210   -2.4930    0.5280 C   0  0  0  0  0  0  0  0  0  0  0  0
   -4.0130   -2.8190    0.0290 O   0  0  0  0  0  0  0  0  0  0  0  0
   -2.4840   -3.1530    1.6680 O   0  0  0  0  0  0  0  0  0  0  0  0
   -0.2430   -2.0380    0.8710 H   0  0  0  0  0  0  0  0  0  0  0  0
   -2.7210   -0.4930   -0.0840 H   0  0  0  0  0  0  0  0  0  0  0  0
   -1.0300   -2.5750   -1.4890 H   0  0  0  0  0  0  0  0  0  0  0  0
   -1.1290   -0.7710   -1.8360 H   0  0  0  0  0  0  0  0  0  0  0  0
   -3.0630    0.2090   -2.6740 H   0  0  0  0  0  0  0  0  0  0  0  0
   -5.0620    0.0430   -4.1520 H   0  0  0  0  0  0  0  0  0  0  0  0
   -5.9970   -2.1740   -4.6410 H   0  0  0  0  0  0  0  0  0  0  0  0
   -4.9370   -4.1770   -3.6610 H   0  0  0  0  0  0  0  0  0  0  0  0
   -2.9530   -3.9810   -2.2020 H   0  0  0  0  0  0  0  0  0  0  0  0
  1  7  1  0  0  0  0
  2  8  1  0  0  0  0
  2  1  1  0  0  0  0
  3 10  1  1  0  0  0
  3  2  1  0  0  0  0
  4  3  1  0  0  0  0
  5  3  1  0  0  0  0
  5  6  2  0  0  0  0
  9  2  1  0  0  0  0
 11  4  1  0  0  0  0
 12  4  1  0  0  0  0
 13  5  1  0  0  0  0
 14 13  1  0  0  0  0
 14 23  1  1  0  0  0
 15 14  1  0  0  0  0
 15 24  1  0  0  0  0
 16 27  1  0  0  0  0
 16 15  1  0  0  0  0
 17 16  1  0  0  0  0
 17 28  1  0  0  0  0
 18 17  1  0  0  0  0
 18 31  1  0  0  0  0
 19 18  1  0  0  0  0
 20 14  1  0  0  0  0
 21 20  2  0  0  0  0
 22 13  1  0  0  0  0
 25 15  1  0  0  0  0
 26 16  1  0  0  0  0
 29 17  1  0  0  0  0
 30 18  1  0  0  0  0
 32 19  1  0  0  0  0
 33 19  1  0  0  0  0
 34 46  1  0  0  0  0
 34 20  1  0  0  0  0
 35 47  1  1  0  0  0
 35 43  1  0  0  0  0
 35 34  1  0  0  0  0
 36 35  1  0  0  0  0
 37 36  1  0  0  0  0
 38 50  1  0  0  0  0
 38 37  2  0  0  0  0
 39 38  1  0  0  0  0
 40 39  2  0  0  0  0
 40 41  1  0  0  0  0
 41 42  2  0  0  0  0
 42 37  1  0  0  0  0
 42 54  1  0  0  0  0
 43 45  1  0  0  0  0
 44 43  2  0  0  0  0
 48 36  1  0  0  0  0
 49 36  1  0  0  0  0
 51 39  1  0  0  0  0
 52 40  1  0  0  0  0
 53 41  1  0  0  0  0
M  END
$$$$
