SKK.pdb
 OpenBabel07022419093D

 55 54  0  0  1  0  0  0  0  0999 V2000
    0.7680   -2.4780    7.4470 O   0  0  0  0  0  0  0  0  0  0  0  0
    1.0140   -2.0230    6.1720 C   0  0  0  0  0  0  0  0  0  0  0  0
   -0.2290   -2.1330    5.2840 C   0  0  2  0  0  0  0  0  0  0  0  0
   -0.6290   -3.5030    5.2090 N   0  0  0  0  0  0  0  0  0  0  0  0
    0.1380   -1.5420    3.9850 C   0  0  0  0  0  0  0  0  0  0  0  0
    0.5000   -0.3360    3.9790 O   0  0  0  0  0  0  0  0  0  0  0  0
    1.2420   -3.3550    7.5560 H   0  0  0  0  0  0  0  0  0  0  0  0
    1.3690   -0.9910    6.1110 H   0  0  0  0  0  0  0  0  0  0  0  0
    1.7860   -2.6620    5.6500 H   0  0  0  0  0  0  0  0  0  0  0  0
   -1.0220   -1.5180    5.7240 H   0  0  0  0  0  0  0  0  0  0  0  0
   -0.5410   -3.9080    6.1770 H   0  0  0  0  0  0  0  0  0  0  0  0
    0.0020   -4.0790    4.6090 H   0  0  0  0  0  0  0  0  0  0  0  0
    0.1190   -2.2040    2.7510 N   0  0  0  0  0  0  0  0  0  0  0  0
    0.4860   -1.6020    1.4670 C   0  0  1  0  0  0  0  0  0  0  0  0
    1.6810   -2.3030    0.9060 C   0  0  0  0  0  0  0  0  0  0  0  0
    2.2180   -1.8420   -0.3720 C   0  0  0  0  0  0  0  0  0  0  0  0
    2.6810   -0.4100   -0.4100 C   0  0  0  0  0  0  0  0  0  0  0  0
    3.1880   -0.1510   -1.8160 C   0  0  0  0  0  0  0  0  0  0  0  0
    2.1050   -0.3740   -2.7550 N   0  0  0  0  0  0  0  0  0  0  0  0
   -0.7230   -1.6060    0.6590 C   0  0  0  0  0  0  0  0  0  0  0  0
   -1.7450   -2.2070    1.1070 O   0  0  0  0  0  0  0  0  0  0  0  0
   -0.1760   -3.1970    2.7310 H   0  0  0  0  0  0  0  0  0  0  0  0
    0.7690   -0.5530    1.6900 H   0  0  0  0  0  0  0  0  0  0  0  0
    1.4140   -3.3870    0.7970 H   0  0  0  0  0  0  0  0  0  0  0  0
    2.4940   -2.1850    1.6840 H   0  0  0  0  0  0  0  0  0  0  0  0
    1.5870   -2.0290   -1.2600 H   0  0  0  0  0  0  0  0  0  0  0  0
    3.1690   -2.4300   -0.6310 H   0  0  0  0  0  0  0  0  0  0  0  0
    1.9180    0.3380   -0.1940 H   0  0  0  0  0  0  0  0  0  0  0  0
    3.5780   -0.2670    0.2490 H   0  0  0  0  0  0  0  0  0  0  0  0
    3.6180    0.8670   -1.9070 H   0  0  0  0  0  0  0  0  0  0  0  0
    3.9550   -0.9350   -2.0180 H   0  0  0  0  0  0  0  0  0  0  0  0
    1.7180    0.5170   -3.1390 H   0  0  0  0  0  0  0  0  0  0  0  0
    2.3890   -1.0330   -3.5160 H   0  0  0  0  0  0  0  0  0  0  0  0
   -0.9490   -1.0120   -0.6120 N   0  0  0  0  0  0  0  0  0  0  0  0
   -2.1390   -1.0530   -1.3480 C   0  0  1  0  0  0  0  0  0  0  0  0
   -2.9470    0.0780   -1.7250 C   0  0  0  0  0  0  0  0  0  0  0  0
   -2.3960    1.1640   -2.5890 C   0  0  0  0  0  0  0  0  0  0  0  0
   -1.2360    1.9330   -2.0980 C   0  0  0  0  0  0  0  0  0  0  0  0
   -1.4700    2.6290   -0.7750 C   0  0  0  0  0  0  0  0  0  0  0  0
   -2.5510    3.5670   -0.8430 N   0  0  0  0  0  0  0  0  0  0  0  0
   -1.8550   -1.8470   -2.6080 C   0  0  0  0  0  0  0  0  0  0  0  0
   -0.7210   -2.3330   -2.8450 O   0  0  0  0  0  0  0  0  0  0  0  0
   -2.8530   -2.0590   -3.5420 O   0  0  0  0  0  0  0  0  0  0  0  0
   -0.1400   -0.5070   -1.0120 H   0  0  0  0  0  0  0  0  0  0  0  0
   -2.8150   -1.7880   -0.7740 H   0  0  0  0  0  0  0  0  0  0  0  0
   -3.5920    0.5170   -0.9090 H   0  0  0  0  0  0  0  0  0  0  0  0
   -3.7830   -0.3530   -2.3870 H   0  0  0  0  0  0  0  0  0  0  0  0
   -2.1400    0.7580   -3.6000 H   0  0  0  0  0  0  0  0  0  0  0  0
   -3.2010    1.9380   -2.8250 H   0  0  0  0  0  0  0  0  0  0  0  0
   -1.1310    2.8050   -2.8340 H   0  0  0  0  0  0  0  0  0  0  0  0
   -0.3060    1.4000   -2.2000 H   0  0  0  0  0  0  0  0  0  0  0  0
   -0.5190    3.1600   -0.5260 H   0  0  0  0  0  0  0  0  0  0  0  0
   -1.6730    1.9300    0.0470 H   0  0  0  0  0  0  0  0  0  0  0  0
   -2.3650    4.3880   -1.4580 H   0  0  0  0  0  0  0  0  0  0  0  0
   -2.8110    3.8980    0.1050 H   0  0  0  0  0  0  0  0  0  0  0  0
  1  7  1  0  0  0  0
  2  1  1  0  0  0  0
  3 10  1  1  0  0  0
  3  2  1  0  0  0  0
  4  3  1  0  0  0  0
  4 11  1  0  0  0  0
  5  3  1  0  0  0  0
  6  5  2  0  0  0  0
  8  2  1  0  0  0  0
  9  2  1  0  0  0  0
 12  4  1  0  0  0  0
 13  5  1  0  0  0  0
 14 23  1  1  0  0  0
 14 13  1  0  0  0  0
 15 14  1  0  0  0  0
 15 25  1  0  0  0  0
 16 15  1  0  0  0  0
 17 16  1  0  0  0  0
 17 28  1  0  0  0  0
 17 29  1  0  0  0  0
 18 17  1  0  0  0  0
 19 18  1  0  0  0  0
 20 21  2  0  0  0  0
 20 14  1  0  0  0  0
 22 13  1  0  0  0  0
 24 15  1  0  0  0  0
 26 16  1  0  0  0  0
 27 16  1  0  0  0  0
 30 18  1  0  0  0  0
 31 18  1  0  0  0  0
 32 19  1  0  0  0  0
 33 19  1  0  0  0  0
 34 20  1  0  0  0  0
 35 45  1  1  0  0  0
 35 34  1  0  0  0  0
 36 35  1  0  0  0  0
 36 46  1  0  0  0  0
 37 38  1  0  0  0  0
 37 36  1  0  0  0  0
 38 39  1  0  0  0  0
 39 52  1  0  0  0  0
 39 53  1  0  0  0  0
 40 39  1  0  0  0  0
 40 55  1  0  0  0  0
 41 35  1  0  0  0  0
 42 41  1  0  0  0  0
 43 41  2  0  0  0  0
 44 34  1  0  0  0  0
 47 36  1  0  0  0  0
 48 37  1  0  0  0  0
 49 37  1  0  0  0  0
 50 38  1  0  0  0  0
 51 38  1  0  0  0  0
 54 40  1  0  0  0  0
M  END
$$$$
