SKL.pdb
 OpenBabel07022419093D

 53 52  0  0  1  0  0  0  0  0999 V2000
   -1.8700   -0.8460    5.3560 O   0  0  0  0  0  0  0  0  0  0  0  0
   -1.2000   -1.1970    4.1950 C   0  0  0  0  0  0  0  0  0  0  0  0
   -0.2020   -0.1150    3.7600 C   0  0  2  0  0  0  0  0  0  0  0  0
   -0.9240    1.0840    3.5250 N   0  0  0  0  0  0  0  0  0  0  0  0
    0.4980   -0.6390    2.5890 C   0  0  0  0  0  0  0  0  0  0  0  0
    1.1020   -1.7360    2.6490 O   0  0  0  0  0  0  0  0  0  0  0  0
   -2.8140   -0.6020    5.1700 H   0  0  0  0  0  0  0  0  0  0  0  0
   -1.9670   -1.2020    3.3720 H   0  0  0  0  0  0  0  0  0  0  0  0
   -0.6950   -2.1690    4.2920 H   0  0  0  0  0  0  0  0  0  0  0  0
    0.4930    0.0640    4.6200 H   0  0  0  0  0  0  0  0  0  0  0  0
   -1.1460    1.6420    4.3680 H   0  0  0  0  0  0  0  0  0  0  0  0
   -1.7260    0.9270    2.8680 H   0  0  0  0  0  0  0  0  0  0  0  0
    0.5160    0.0670    1.3670 N   0  0  0  0  0  0  0  0  0  0  0  0
    1.1610   -0.3160    0.1820 C   0  0  1  0  0  0  0  0  0  0  0  0
    2.2550   -1.3130    0.1890 C   0  0  0  0  0  0  0  0  0  0  0  0
    3.5010   -0.9540    0.9190 C   0  0  0  0  0  0  0  0  0  0  0  0
    4.1840    0.2770    0.3460 C   0  0  0  0  0  0  0  0  0  0  0  0
    5.4240    0.5520    1.1360 C   0  0  0  0  0  0  0  0  0  0  0  0
    6.4030   -0.4750    1.1470 N   0  0  0  0  0  0  0  0  0  0  0  0
    0.2220   -0.5410   -0.9130 C   0  0  0  0  0  0  0  0  0  0  0  0
    0.7100   -1.0440   -1.9870 O   0  0  0  0  0  0  0  0  0  0  0  0
   -0.0210    0.9970    1.3230 H   0  0  0  0  0  0  0  0  0  0  0  0
    1.6950    0.7060   -0.1460 H   0  0  0  0  0  0  0  0  0  0  0  0
    1.8780   -2.3260    0.4830 H   0  0  0  0  0  0  0  0  0  0  0  0
    2.5810   -1.4890   -0.8850 H   0  0  0  0  0  0  0  0  0  0  0  0
    4.2910   -1.7650    0.8340 H   0  0  0  0  0  0  0  0  0  0  0  0
    3.3640   -0.8210    1.9900 H   0  0  0  0  0  0  0  0  0  0  0  0
    3.5810    1.1720    0.3330 H   0  0  0  0  0  0  0  0  0  0  0  0
    4.4880    0.0330   -0.6970 H   0  0  0  0  0  0  0  0  0  0  0  0
    5.1710    0.7980    2.2100 H   0  0  0  0  0  0  0  0  0  0  0  0
    5.9310    1.4890    0.7760 H   0  0  0  0  0  0  0  0  0  0  0  0
    7.0040   -0.5070    0.2930 H   0  0  0  0  0  0  0  0  0  0  0  0
    6.1740   -1.3720    1.5780 H   0  0  0  0  0  0  0  0  0  0  0  0
   -4.9090   -2.4030   -0.3760 C   0  0  0  0  0  0  0  0  0  0  0  0
   -3.4590   -2.1470   -0.7650 C   0  0  0  0  0  0  0  0  0  0  0  0
   -3.0180   -3.3290   -1.5900 C   0  0  0  0  0  0  0  0  0  0  0  0
   -3.4350   -0.8800   -1.5690 C   0  0  0  0  0  0  0  0  0  0  0  0
   -2.0670   -0.4930   -2.0190 C   0  0  2  0  0  0  0  0  0  0  0  0
   -1.1590   -0.2590   -0.9150 N   0  0  0  0  0  0  0  0  0  0  0  0
   -2.1380    0.7320   -2.8990 C   0  0  0  0  0  0  0  0  0  0  0  0
   -2.8590    0.7450   -3.9090 O   0  0  0  0  0  0  0  0  0  0  0  0
   -1.3770    1.8190   -2.5410 O   0  0  0  0  0  0  0  0  0  0  0  0
   -5.0190   -2.9100    0.6120 H   0  0  0  0  0  0  0  0  0  0  0  0
   -5.4190   -2.9810   -1.1570 H   0  0  0  0  0  0  0  0  0  0  0  0
   -5.4240   -1.4100   -0.3040 H   0  0  0  0  0  0  0  0  0  0  0  0
   -2.8370   -2.0350    0.1200 H   0  0  0  0  0  0  0  0  0  0  0  0
   -1.9000   -3.3780   -1.5610 H   0  0  0  0  0  0  0  0  0  0  0  0
   -3.4160   -3.2160   -2.6000 H   0  0  0  0  0  0  0  0  0  0  0  0
   -3.3890   -4.2660   -1.1200 H   0  0  0  0  0  0  0  0  0  0  0  0
   -3.8250   -0.0350   -0.9300 H   0  0  0  0  0  0  0  0  0  0  0  0
   -4.0820   -1.0020   -2.4900 H   0  0  0  0  0  0  0  0  0  0  0  0
   -1.6200   -1.2580   -2.6790 H   0  0  0  0  0  0  0  0  0  0  0  0
   -1.5470    0.1630   -0.0160 H   0  0  0  0  0  0  0  0  0  0  0  0
  2  9  1  0  0  0  0
  2  1  1  0  0  0  0
  3  2  1  0  0  0  0
  3 10  1  1  0  0  0
  4  3  1  0  0  0  0
  4 11  1  0  0  0  0
  5  6  2  0  0  0  0
  5  3  1  0  0  0  0
  7  1  1  0  0  0  0
  8  2  1  0  0  0  0
 12  4  1  0  0  0  0
 13  5  1  0  0  0  0
 14 23  1  6  0  0  0
 14 15  1  0  0  0  0
 14 13  1  0  0  0  0
 15 24  1  0  0  0  0
 15 16  1  0  0  0  0
 16 27  1  0  0  0  0
 17 16  1  0  0  0  0
 17 18  1  0  0  0  0
 18 19  1  0  0  0  0
 18 30  1  0  0  0  0
 19 33  1  0  0  0  0
 20 14  1  0  0  0  0
 21 20  2  0  0  0  0
 22 13  1  0  0  0  0
 25 15  1  0  0  0  0
 26 16  1  0  0  0  0
 28 17  1  0  0  0  0
 29 17  1  0  0  0  0
 31 18  1  0  0  0  0
 32 19  1  0  0  0  0
 34 45  1  0  0  0  0
 34 43  1  0  0  0  0
 35 34  1  0  0  0  0
 35 46  1  0  0  0  0
 36 47  1  0  0  0  0
 36 49  1  0  0  0  0
 36 35  1  0  0  0  0
 37 50  1  0  0  0  0
 37 35  1  0  0  0  0
 38 52  1  6  0  0  0
 38 37  1  0  0  0  0
 38 39  1  0  0  0  0
 39 20  1  0  0  0  0
 39 53  1  0  0  0  0
 40 42  1  0  0  0  0
 40 38  1  0  0  0  0
 41 40  2  0  0  0  0
 44 34  1  0  0  0  0
 48 36  1  0  0  0  0
 51 37  1  0  0  0  0
M  END
$$$$
