SKN.pdb
 OpenBabel07022419093D

 48 47  0  0  1  0  0  0  0  0999 V2000
    1.0120   -6.1670    0.7560 O   0  0  0  0  0  0  0  0  0  0  0  0
    1.5100   -4.8830    0.8740 C   0  0  0  0  0  0  0  0  0  0  0  0
    0.3840   -3.9520    1.2310 C   0  0  2  0  0  0  0  0  0  0  0  0
   -0.6220   -3.9920    0.1900 N   0  0  0  0  0  0  0  0  0  0  0  0
    0.8660   -2.5630    1.4740 C   0  0  0  0  0  0  0  0  0  0  0  0
    1.7430   -2.3560    2.3500 O   0  0  0  0  0  0  0  0  0  0  0  0
    0.3670   -6.3600    1.4930 H   0  0  0  0  0  0  0  0  0  0  0  0
    2.0290   -4.6220   -0.0560 H   0  0  0  0  0  0  0  0  0  0  0  0
    2.2330   -4.8760    1.7240 H   0  0  0  0  0  0  0  0  0  0  0  0
   -0.0780   -4.3210    2.1560 H   0  0  0  0  0  0  0  0  0  0  0  0
   -1.3880   -3.3420    0.4810 H   0  0  0  0  0  0  0  0  0  0  0  0
   -0.1920   -3.6300   -0.6900 H   0  0  0  0  0  0  0  0  0  0  0  0
    0.3780   -1.4430    0.7560 N   0  0  0  0  0  0  0  0  0  0  0  0
    0.8190   -0.0820    0.9610 C   0  0  1  0  0  0  0  0  0  0  0  0
    1.2920    0.5670   -0.3140 C   0  0  0  0  0  0  0  0  0  0  0  0
    2.4380   -0.1260   -0.9610 C   0  0  0  0  0  0  0  0  0  0  0  0
    3.6430   -0.2010   -0.0820 C   0  0  0  0  0  0  0  0  0  0  0  0
    4.1130    1.1730    0.2830 C   0  0  0  0  0  0  0  0  0  0  0  0
    4.4330    1.8790   -0.9400 N   0  0  0  0  0  0  0  0  0  0  0  0
   -0.3490    0.7030    1.4370 C   0  0  0  0  0  0  0  0  0  0  0  0
   -0.2580    1.9420    1.7010 O   0  0  0  0  0  0  0  0  0  0  0  0
   -0.3500   -1.6360    0.0340 H   0  0  0  0  0  0  0  0  0  0  0  0
    1.6030   -0.0060    1.7390 H   0  0  0  0  0  0  0  0  0  0  0  0
    1.5540    1.6100   -0.1020 H   0  0  0  0  0  0  0  0  0  0  0  0
    0.4170    0.6190   -1.0250 H   0  0  0  0  0  0  0  0  0  0  0  0
    2.6560    0.4390   -1.9140 H   0  0  0  0  0  0  0  0  0  0  0  0
    2.1790   -1.1540   -1.3240 H   0  0  0  0  0  0  0  0  0  0  0  0
    4.4790   -0.6930   -0.6370 H   0  0  0  0  0  0  0  0  0  0  0  0
    3.4220   -0.8060    0.8280 H   0  0  0  0  0  0  0  0  0  0  0  0
    3.3170    1.7070    0.8220 H   0  0  0  0  0  0  0  0  0  0  0  0
    5.0370    1.1160    0.9350 H   0  0  0  0  0  0  0  0  0  0  0  0
    4.8340    1.2440   -1.6520 H   0  0  0  0  0  0  0  0  0  0  0  0
    3.5990    2.4160   -1.2920 H   0  0  0  0  0  0  0  0  0  0  0  0
   -4.5350    1.3110   -1.2640 N   0  0  0  0  0  0  0  0  0  0  0  0
   -3.5690    1.3050   -0.2220 C   0  0  0  0  0  0  0  0  0  0  0  0
   -2.4320    1.7550   -0.4920 O   0  0  0  0  0  0  0  0  0  0  0  0
   -3.9300    0.7810    1.1080 C   0  0  0  0  0  0  0  0  0  0  0  0
   -2.7620    0.8620    2.0800 C   0  0  2  0  0  0  0  0  0  0  0  0
   -1.6220    0.0970    1.6170 N   0  0  0  0  0  0  0  0  0  0  0  0
   -3.1870    0.3180    3.3910 C   0  0  0  0  0  0  0  0  0  0  0  0
   -2.5650   -0.6450    3.8890 O   0  0  0  0  0  0  0  0  0  0  0  0
   -4.2610    0.8450    4.0930 O   0  0  0  0  0  0  0  0  0  0  0  0
   -4.3200    1.0170   -2.2390 H   0  0  0  0  0  0  0  0  0  0  0  0
   -5.5190    1.6180   -1.0790 H   0  0  0  0  0  0  0  0  0  0  0  0
   -4.7710    1.3350    1.5600 H   0  0  0  0  0  0  0  0  0  0  0  0
   -4.2560   -0.2730    1.0220 H   0  0  0  0  0  0  0  0  0  0  0  0
   -2.4420    1.9190    2.2170 H   0  0  0  0  0  0  0  0  0  0  0  0
   -1.7830   -0.9280    1.4200 H   0  0  0  0  0  0  0  0  0  0  0  0
  1  2  1  0  0  0  0
  1  7  1  0  0  0  0
  2  3  1  0  0  0  0
  2  9  1  0  0  0  0
  3  5  1  0  0  0  0
  3 10  1  1  0  0  0
  4 11  1  0  0  0  0
  4  3  1  0  0  0  0
  5  6  2  0  0  0  0
  8  2  1  0  0  0  0
 12  4  1  0  0  0  0
 13 14  1  0  0  0  0
 13  5  1  0  0  0  0
 14 20  1  0  0  0  0
 14 23  1  1  0  0  0
 15 24  1  0  0  0  0
 15 14  1  0  0  0  0
 16 15  1  0  0  0  0
 16 17  1  0  0  0  0
 17 18  1  0  0  0  0
 17 29  1  0  0  0  0
 18 30  1  0  0  0  0
 18 31  1  0  0  0  0
 19 18  1  0  0  0  0
 20 39  1  0  0  0  0
 20 21  2  0  0  0  0
 22 13  1  0  0  0  0
 25 15  1  0  0  0  0
 26 16  1  0  0  0  0
 27 16  1  0  0  0  0
 28 17  1  0  0  0  0
 32 19  1  0  0  0  0
 33 19  1  0  0  0  0
 34 44  1  0  0  0  0
 34 35  1  0  0  0  0
 35 37  1  0  0  0  0
 36 35  2  0  0  0  0
 37 45  1  0  0  0  0
 37 38  1  0  0  0  0
 38 47  1  1  0  0  0
 38 40  1  0  0  0  0
 39 38  1  0  0  0  0
 40 41  2  0  0  0  0
 40 42  1  0  0  0  0
 43 34  1  0  0  0  0
 46 37  1  0  0  0  0
 48 39  1  0  0  0  0
M  END
$$$$
