SKP.pdb
 OpenBabel07022419093D

 48 48  0  0  1  0  0  0  0  0999 V2000
    0.0130   -5.2890   -0.2730 O   0  0  0  0  0  0  0  0  0  0  0  0
   -0.1560   -4.0290    0.3380 C   0  0  0  0  0  0  0  0  0  0  0  0
    1.2040   -3.4470    0.5360 C   0  0  2  0  0  0  0  0  0  0  0  0
    2.0170   -4.3350    1.3970 N   0  0  0  0  0  0  0  0  0  0  0  0
    1.2110   -2.0880    1.0800 C   0  0  0  0  0  0  0  0  0  0  0  0
    1.8730   -1.8410    2.1210 O   0  0  0  0  0  0  0  0  0  0  0  0
   -0.1980   -5.9570    0.4170 H   0  0  0  0  0  0  0  0  0  0  0  0
   -0.7250   -4.1060    1.2700 H   0  0  0  0  0  0  0  0  0  0  0  0
   -0.7560   -3.4250   -0.3950 H   0  0  0  0  0  0  0  0  0  0  0  0
    1.7200   -3.5220   -0.4540 H   0  0  0  0  0  0  0  0  0  0  0  0
    3.0220   -4.0460    1.3400 H   0  0  0  0  0  0  0  0  0  0  0  0
    1.9640   -5.2700    0.9150 H   0  0  0  0  0  0  0  0  0  0  0  0
    0.4910   -1.0380    0.4520 N   0  0  0  0  0  0  0  0  0  0  0  0
    0.4950    0.3160    0.9280 C   0  0  1  0  0  0  0  0  0  0  0  0
    1.0550    1.2250   -0.1550 C   0  0  0  0  0  0  0  0  0  0  0  0
    2.4400    0.9130   -0.5710 C   0  0  0  0  0  0  0  0  0  0  0  0
    3.4740    0.9920    0.4850 C   0  0  0  0  0  0  0  0  0  0  0  0
    3.5910    2.3650    1.1120 C   0  0  0  0  0  0  0  0  0  0  0  0
    3.9320    3.3920    0.1750 N   0  0  0  0  0  0  0  0  0  0  0  0
   -0.8440    0.8160    1.2340 C   0  0  0  0  0  0  0  0  0  0  0  0
   -0.8630    2.0710    1.6070 O   0  0  0  0  0  0  0  0  0  0  0  0
   -0.0520   -1.3050   -0.3970 H   0  0  0  0  0  0  0  0  0  0  0  0
    1.1160    0.3860    1.8560 H   0  0  0  0  0  0  0  0  0  0  0  0
    0.3640    1.1330   -1.0180 H   0  0  0  0  0  0  0  0  0  0  0  0
    0.9480    2.2670    0.2110 H   0  0  0  0  0  0  0  0  0  0  0  0
    2.7150    1.5970   -1.3960 H   0  0  0  0  0  0  0  0  0  0  0  0
    2.4690   -0.1130   -1.0210 H   0  0  0  0  0  0  0  0  0  0  0  0
    3.4140    0.2680    1.2930 H   0  0  0  0  0  0  0  0  0  0  0  0
    4.4710    0.8120   -0.0170 H   0  0  0  0  0  0  0  0  0  0  0  0
    2.6200    2.6680    1.5880 H   0  0  0  0  0  0  0  0  0  0  0  0
    4.3340    2.3780    1.9340 H   0  0  0  0  0  0  0  0  0  0  0  0
    4.2290    4.2320    0.7180 H   0  0  0  0  0  0  0  0  0  0  0  0
    3.1580    3.6760   -0.4570 H   0  0  0  0  0  0  0  0  0  0  0  0
   -2.0830    0.1780    1.1930 N   0  0  0  0  0  0  0  0  0  0  0  0
   -3.3500    0.8750    1.5170 C   0  0  0  0  0  0  0  0  0  0  0  0
   -4.0800   -0.1060    2.4090 C   0  0  0  0  0  0  0  0  0  0  0  0
   -3.7770   -1.4050    1.7130 C   0  0  0  0  0  0  0  0  0  0  0  0
   -2.5140   -1.1650    0.8870 C   0  0  1  0  0  0  0  0  0  0  0  0
   -2.9210   -1.3460   -0.5260 C   0  0  0  0  0  0  0  0  0  0  0  0
   -2.8950   -0.4230   -1.3740 O   0  0  0  0  0  0  0  0  0  0  0  0
   -3.3510   -2.6010   -0.9220 O   0  0  0  0  0  0  0  0  0  0  0  0
   -3.8860    1.1100    0.5980 H   0  0  0  0  0  0  0  0  0  0  0  0
   -3.1470    1.7710    2.1360 H   0  0  0  0  0  0  0  0  0  0  0  0
   -5.1500    0.1370    2.4590 H   0  0  0  0  0  0  0  0  0  0  0  0
   -3.5810   -0.0730    3.4200 H   0  0  0  0  0  0  0  0  0  0  0  0
   -4.6190   -1.7720    1.1180 H   0  0  0  0  0  0  0  0  0  0  0  0
   -3.5680   -2.1710    2.4930 H   0  0  0  0  0  0  0  0  0  0  0  0
   -1.7710   -1.9190    1.1530 H   0  0  0  0  0  0  0  0  0  0  0  0
  1  2  1  0  0  0  0
  1  7  1  0  0  0  0
  2  3  1  0  0  0  0
  2  8  1  0  0  0  0
  3 10  1  6  0  0  0
  3  5  1  0  0  0  0
  3  4  1  0  0  0  0
  5  6  2  0  0  0  0
  9  2  1  0  0  0  0
 11  4  1  0  0  0  0
 12  4  1  0  0  0  0
 13 14  1  0  0  0  0
 13  5  1  0  0  0  0
 14 20  1  0  0  0  0
 14 23  1  1  0  0  0
 15 25  1  0  0  0  0
 15 14  1  0  0  0  0
 16 15  1  0  0  0  0
 16 17  1  0  0  0  0
 17 18  1  0  0  0  0
 17 28  1  0  0  0  0
 18 30  1  0  0  0  0
 18 31  1  0  0  0  0
 19 32  1  0  0  0  0
 19 18  1  0  0  0  0
 20 21  2  0  0  0  0
 22 13  1  0  0  0  0
 24 15  1  0  0  0  0
 26 16  1  0  0  0  0
 27 16  1  0  0  0  0
 29 17  1  0  0  0  0
 33 19  1  0  0  0  0
 34 20  1  0  0  0  0
 34 35  1  0  0  0  0
 35 43  1  0  0  0  0
 35 36  1  0  0  0  0
 36 44  1  0  0  0  0
 36 45  1  0  0  0  0
 37 36  1  0  0  0  0
 37 47  1  0  0  0  0
 38 48  1  1  0  0  0
 38 34  1  0  0  0  0
 38 37  1  0  0  0  0
 39 38  1  0  0  0  0
 40 39  2  0  0  0  0
 41 39  1  0  0  0  0
 42 35  1  0  0  0  0
 46 37  1  0  0  0  0
M  END
$$$$
