SKS.pdb
 OpenBabel07022419093D

 45 44  0  0  1  0  0  0  0  0999 V2000
    1.9080   -4.6660    0.7460 O   0  0  0  0  0  0  0  0  0  0  0  0
    3.2170   -4.2200    0.6080 C   0  0  0  0  0  0  0  0  0  0  0  0
    3.3930   -3.3040   -0.5900 C   0  0  2  0  0  0  0  0  0  0  0  0
    4.7720   -2.8670   -0.6970 N   0  0  0  0  0  0  0  0  0  0  0  0
    2.5660   -2.0850   -0.3380 C   0  0  0  0  0  0  0  0  0  0  0  0
    3.1190   -0.9660   -0.2160 O   0  0  0  0  0  0  0  0  0  0  0  0
    1.5770   -4.6010    1.6640 H   0  0  0  0  0  0  0  0  0  0  0  0
    3.9220   -5.0610    0.5200 H   0  0  0  0  0  0  0  0  0  0  0  0
    3.4620   -3.6670    1.5450 H   0  0  0  0  0  0  0  0  0  0  0  0
    3.0550   -3.8310   -1.4920 H   0  0  0  0  0  0  0  0  0  0  0  0
    4.8720   -2.3700   -1.6000 H   0  0  0  0  0  0  0  0  0  0  0  0
    4.9040   -2.1450    0.0590 H   0  0  0  0  0  0  0  0  0  0  0  0
    1.1610   -2.1660   -0.2340 N   0  0  0  0  0  0  0  0  0  0  0  0
    0.4170   -0.9180    0.0170 C   0  0  1  0  0  0  0  0  0  0  0  0
   -0.4810   -0.7000   -1.1670 C   0  0  0  0  0  0  0  0  0  0  0  0
   -1.3200    0.5310   -1.1100 C   0  0  0  0  0  0  0  0  0  0  0  0
   -0.4890    1.7890   -1.0130 C   0  0  0  0  0  0  0  0  0  0  0  0
   -1.4120    2.9890   -0.9570 C   0  0  0  0  0  0  0  0  0  0  0  0
   -0.6700    4.2210   -0.8630 N   0  0  0  0  0  0  0  0  0  0  0  0
   -0.2420   -1.0660    1.3090 C   0  0  0  0  0  0  0  0  0  0  0  0
   -0.1910   -2.2280    1.8570 O   0  0  0  0  0  0  0  0  0  0  0  0
    0.6290   -3.0520   -0.3250 H   0  0  0  0  0  0  0  0  0  0  0  0
    1.1490   -0.1040    0.0790 H   0  0  0  0  0  0  0  0  0  0  0  0
    0.2150   -0.5750   -2.0490 H   0  0  0  0  0  0  0  0  0  0  0  0
   -1.0910   -1.5870   -1.4180 H   0  0  0  0  0  0  0  0  0  0  0  0
   -1.8570    0.5900   -2.1190 H   0  0  0  0  0  0  0  0  0  0  0  0
   -2.0960    0.4340   -0.3370 H   0  0  0  0  0  0  0  0  0  0  0  0
    0.1010    1.9020   -1.9520 H   0  0  0  0  0  0  0  0  0  0  0  0
    0.2370    1.7860   -0.1900 H   0  0  0  0  0  0  0  0  0  0  0  0
   -2.0610    2.8790   -0.0830 H   0  0  0  0  0  0  0  0  0  0  0  0
   -2.0490    3.0180   -1.8640 H   0  0  0  0  0  0  0  0  0  0  0  0
    0.0240    4.1620   -0.1090 H   0  0  0  0  0  0  0  0  0  0  0  0
   -0.2910    4.5260   -1.7800 H   0  0  0  0  0  0  0  0  0  0  0  0
    0.4710    0.0080    4.4530 O   0  0  0  0  0  0  0  0  0  0  0  0
   -0.8730    0.3710    4.4520 C   0  0  0  0  0  0  0  0  0  0  0  0
   -1.5490   -0.4070    3.3360 C   0  0  2  0  0  0  0  0  0  0  0  0
   -0.9360   -0.0810    2.0440 N   0  0  0  0  0  0  0  0  0  0  0  0
   -2.9970   -0.2150    3.3200 C   0  0  0  0  0  0  0  0  0  0  0  0
   -3.5690    0.1840    2.2840 O   0  0  0  0  0  0  0  0  0  0  0  0
   -3.7520   -0.4710    4.4460 O   0  0  0  0  0  0  0  0  0  0  0  0
    1.0650    0.7700    4.3000 H   0  0  0  0  0  0  0  0  0  0  0  0
   -1.3080   -0.0210    5.4020 H   0  0  0  0  0  0  0  0  0  0  0  0
   -1.0280    1.4500    4.3360 H   0  0  0  0  0  0  0  0  0  0  0  0
   -1.3510   -1.4750    3.5490 H   0  0  0  0  0  0  0  0  0  0  0  0
   -0.9870    0.8740    1.6520 H   0  0  0  0  0  0  0  0  0  0  0  0
  1  7  1  0  0  0  0
  2  1  1  0  0  0  0
  2  9  1  0  0  0  0
  3 10  1  6  0  0  0
  3  5  1  0  0  0  0
  3  2  1  0  0  0  0
  4  3  1  0  0  0  0
  4 12  1  0  0  0  0
  5 13  1  0  0  0  0
  5  6  2  0  0  0  0
  8  2  1  0  0  0  0
 11  4  1  0  0  0  0
 13 14  1  0  0  0  0
 14 23  1  1  0  0  0
 14 20  1  0  0  0  0
 15 16  1  0  0  0  0
 15 14  1  0  0  0  0
 16 17  1  0  0  0  0
 16 27  1  0  0  0  0
 17 18  1  0  0  0  0
 17 29  1  0  0  0  0
 18 19  1  0  0  0  0
 18 30  1  0  0  0  0
 19 32  1  0  0  0  0
 20 21  2  0  0  0  0
 20 37  1  0  0  0  0
 22 13  1  0  0  0  0
 24 15  1  0  0  0  0
 25 15  1  0  0  0  0
 26 16  1  0  0  0  0
 28 17  1  0  0  0  0
 31 18  1  0  0  0  0
 33 19  1  0  0  0  0
 35 34  1  0  0  0  0
 35 42  1  0  0  0  0
 36 44  1  1  0  0  0
 36 35  1  0  0  0  0
 37 36  1  0  0  0  0
 38 36  1  0  0  0  0
 38 40  1  0  0  0  0
 39 38  2  0  0  0  0
 41 34  1  0  0  0  0
 43 35  1  0  0  0  0
 45 37  1  0  0  0  0
M  END
$$$$
