SKT.pdb
 OpenBabel07022419093D

 48 47  0  0  1  0  0  0  0  0999 V2000
   -1.6790   -4.3140    1.4100 O   0  0  0  0  0  0  0  0  0  0  0  0
   -0.5430   -4.4630    0.6380 C   0  0  0  0  0  0  0  0  0  0  0  0
    0.6900   -4.3520    1.5440 C   0  0  2  0  0  0  0  0  0  0  0  0
    0.5850   -5.4040    2.5190 N   0  0  0  0  0  0  0  0  0  0  0  0
    0.5780   -3.0290    2.2180 C   0  0  0  0  0  0  0  0  0  0  0  0
    0.4160   -2.9740    3.4630 O   0  0  0  0  0  0  0  0  0  0  0  0
   -1.5990   -3.6420    2.1260 H   0  0  0  0  0  0  0  0  0  0  0  0
   -0.5410   -3.6330   -0.1110 H   0  0  0  0  0  0  0  0  0  0  0  0
   -0.5740   -5.4210    0.1060 H   0  0  0  0  0  0  0  0  0  0  0  0
    1.6160   -4.4140    0.9430 H   0  0  0  0  0  0  0  0  0  0  0  0
    1.2080   -6.2130    2.2940 H   0  0  0  0  0  0  0  0  0  0  0  0
    0.8290   -4.9890    3.4580 H   0  0  0  0  0  0  0  0  0  0  0  0
    0.6460   -1.8020    1.5190 N   0  0  0  0  0  0  0  0  0  0  0  0
    0.5420   -0.5060    2.1370 C   0  0  1  0  0  0  0  0  0  0  0  0
    1.7850    0.3280    1.9250 C   0  0  0  0  0  0  0  0  0  0  0  0
    2.0530    0.5590    0.4480 C   0  0  0  0  0  0  0  0  0  0  0  0
    3.2970    1.3930    0.2470 C   0  0  0  0  0  0  0  0  0  0  0  0
    3.1830    2.7470    0.8990 C   0  0  0  0  0  0  0  0  0  0  0  0
    2.0740    3.5110    0.3650 N   0  0  0  0  0  0  0  0  0  0  0  0
   -0.6570    0.2300    1.6290 C   0  0  0  0  0  0  0  0  0  0  0  0
   -0.9470    1.3810    2.0270 O   0  0  0  0  0  0  0  0  0  0  0  0
    0.7810   -1.8430    0.4860 H   0  0  0  0  0  0  0  0  0  0  0  0
    0.4000   -0.5750    3.2420 H   0  0  0  0  0  0  0  0  0  0  0  0
    2.6740   -0.1930    2.3320 H   0  0  0  0  0  0  0  0  0  0  0  0
    1.6880    1.2890    2.4650 H   0  0  0  0  0  0  0  0  0  0  0  0
    1.2120    1.1320   -0.0020 H   0  0  0  0  0  0  0  0  0  0  0  0
    2.1570   -0.3820   -0.1010 H   0  0  0  0  0  0  0  0  0  0  0  0
    4.1360    0.8580    0.7590 H   0  0  0  0  0  0  0  0  0  0  0  0
    3.5200    1.5440   -0.8160 H   0  0  0  0  0  0  0  0  0  0  0  0
    3.1000    2.6870    2.0030 H   0  0  0  0  0  0  0  0  0  0  0  0
    4.1300    3.2890    0.6910 H   0  0  0  0  0  0  0  0  0  0  0  0
    2.1600    4.5050    0.6450 H   0  0  0  0  0  0  0  0  0  0  0  0
    2.0250    3.3980   -0.6720 H   0  0  0  0  0  0  0  0  0  0  0  0
   -1.3600    1.0800   -1.8430 C   0  0  0  0  0  0  0  0  0  0  0  0
   -2.6090    0.3680   -1.3710 C   0  0  1  0  0  0  0  0  0  0  0  0
   -2.5430   -0.9550   -1.8330 O   0  0  0  0  0  0  0  0  0  0  0  0
   -2.6870    0.2970    0.1360 C   0  0  2  0  0  0  0  0  0  0  0  0
   -1.5080   -0.3730    0.6650 N   0  0  0  0  0  0  0  0  0  0  0  0
   -3.9040   -0.5360    0.4480 C   0  0  0  0  0  0  0  0  0  0  0  0
   -5.0500   -0.1700    0.0950 O   0  0  0  0  0  0  0  0  0  0  0  0
   -3.8130   -1.7370    1.1370 O   0  0  0  0  0  0  0  0  0  0  0  0
   -1.4100    1.0780   -2.9610 H   0  0  0  0  0  0  0  0  0  0  0  0
   -0.4680    0.4700   -1.5820 H   0  0  0  0  0  0  0  0  0  0  0  0
   -1.3040    2.1220   -1.5270 H   0  0  0  0  0  0  0  0  0  0  0  0
   -3.5130    0.8090   -1.7880 H   0  0  0  0  0  0  0  0  0  0  0  0
   -1.5770   -1.1960   -1.8530 H   0  0  0  0  0  0  0  0  0  0  0  0
   -2.8240    1.2970    0.5670 H   0  0  0  0  0  0  0  0  0  0  0  0
   -1.2890   -1.3310    0.3160 H   0  0  0  0  0  0  0  0  0  0  0  0
  1  7  1  0  0  0  0
  2  1  1  0  0  0  0
  2  3  1  0  0  0  0
  3 10  1  6  0  0  0
  3  5  1  0  0  0  0
  3  4  1  0  0  0  0
  4 12  1  0  0  0  0
  5  6  2  0  0  0  0
  8  2  1  0  0  0  0
  9  2  1  0  0  0  0
 11  4  1  0  0  0  0
 13 14  1  0  0  0  0
 13  5  1  0  0  0  0
 14 23  1  1  0  0  0
 15 14  1  0  0  0  0
 15 24  1  0  0  0  0
 15 25  1  0  0  0  0
 16 15  1  0  0  0  0
 17 16  1  0  0  0  0
 17 28  1  0  0  0  0
 17 18  1  0  0  0  0
 18 30  1  0  0  0  0
 19 32  1  0  0  0  0
 19 18  1  0  0  0  0
 20 21  2  0  0  0  0
 20 14  1  0  0  0  0
 22 13  1  0  0  0  0
 26 16  1  0  0  0  0
 27 16  1  0  0  0  0
 29 17  1  0  0  0  0
 31 18  1  0  0  0  0
 33 19  1  0  0  0  0
 34 43  1  0  0  0  0
 34 44  1  0  0  0  0
 34 35  1  0  0  0  0
 35 45  1  6  0  0  0
 35 37  1  0  0  0  0
 36 35  1  0  0  0  0
 37 39  1  0  0  0  0
 37 47  1  1  0  0  0
 37 38  1  0  0  0  0
 38 20  1  0  0  0  0
 39 41  1  0  0  0  0
 40 39  2  0  0  0  0
 42 34  1  0  0  0  0
 46 36  1  0  0  0  0
 48 38  1  0  0  0  0
M  END
$$$$
