SKW.pdb
 OpenBabel07022419093D

 58 59  0  0  1  0  0  0  0  0999 V2000
   -2.8930    2.8270    4.0630 O   0  0  0  0  0  0  0  0  0  0  0  0
   -1.6640    3.5070    4.1360 C   0  0  0  0  0  0  0  0  0  0  0  0
   -0.5620    2.4680    4.1450 C   0  0  2  0  0  0  0  0  0  0  0  0
    0.7020    3.1340    4.2190 N   0  0  0  0  0  0  0  0  0  0  0  0
   -0.6890    1.5390    3.0070 C   0  0  0  0  0  0  0  0  0  0  0  0
   -1.7930    0.9640    2.8460 O   0  0  0  0  0  0  0  0  0  0  0  0
   -2.8800    2.0670    4.6990 H   0  0  0  0  0  0  0  0  0  0  0  0
   -1.6000    4.1140    3.2150 H   0  0  0  0  0  0  0  0  0  0  0  0
   -1.6070    4.1850    4.9980 H   0  0  0  0  0  0  0  0  0  0  0  0
   -0.6870    1.8570    5.0870 H   0  0  0  0  0  0  0  0  0  0  0  0
    1.5320    2.5600    4.0520 H   0  0  0  0  0  0  0  0  0  0  0  0
    0.7090    4.0590    3.7320 H   0  0  0  0  0  0  0  0  0  0  0  0
    0.3470    1.2420    2.0740 N   0  0  0  0  0  0  0  0  0  0  0  0
    0.2140    0.3450    0.9860 C   0  0  1  0  0  0  0  0  0  0  0  0
    0.5690    0.8080   -0.3550 C   0  0  0  0  0  0  0  0  0  0  0  0
   -0.0600    1.9000   -1.0610 C   0  0  0  0  0  0  0  0  0  0  0  0
   -0.0460    3.3100   -0.7380 C   0  0  0  0  0  0  0  0  0  0  0  0
   -0.5700    3.8520    0.5350 C   0  0  0  0  0  0  0  0  0  0  0  0
   -0.5230    5.3480    0.5110 N   0  0  0  0  0  0  0  0  0  0  0  0
    0.9410   -0.9620    1.3190 C   0  0  0  0  0  0  0  0  0  0  0  0
    1.5670   -1.0760    2.3990 O   0  0  0  0  0  0  0  0  0  0  0  0
    1.2620    1.7200    2.2160 H   0  0  0  0  0  0  0  0  0  0  0  0
   -0.8800    0.0560    0.9620 H   0  0  0  0  0  0  0  0  0  0  0  0
    0.4460   -0.1190   -1.0400 H   0  0  0  0  0  0  0  0  0  0  0  0
    1.7120    0.9530   -0.4480 H   0  0  0  0  0  0  0  0  0  0  0  0
   -1.1630    1.6120   -1.3270 H   0  0  0  0  0  0  0  0  0  0  0  0
    0.3630    1.8360   -2.1540 H   0  0  0  0  0  0  0  0  0  0  0  0
    1.0290    3.6820   -0.9120 H   0  0  0  0  0  0  0  0  0  0  0  0
   -0.5910    3.9220   -1.5570 H   0  0  0  0  0  0  0  0  0  0  0  0
   -1.5650    3.5390    0.8420 H   0  0  0  0  0  0  0  0  0  0  0  0
    0.2340    3.6610    1.3190 H   0  0  0  0  0  0  0  0  0  0  0  0
   -1.5010    5.7010    0.3030 H   0  0  0  0  0  0  0  0  0  0  0  0
    0.0580    5.6540   -0.3050 H   0  0  0  0  0  0  0  0  0  0  0  0
    0.9230   -2.0560    0.4290 N   0  0  0  0  0  0  0  0  0  0  0  0
    1.6350   -3.2740    0.8050 C   0  0  1  0  0  0  0  0  0  0  0  0
    0.5720   -4.3080    1.0670 C   0  0  0  0  0  0  0  0  0  0  0  0
   -0.3230   -4.5680   -0.0900 C   0  0  0  0  0  0  0  0  0  0  0  0
   -1.5670   -3.9430   -0.2880 C   0  0  0  0  0  0  0  0  0  0  0  0
   -2.0840   -4.3640   -1.4340 N   0  0  0  0  0  0  0  0  0  0  0  0
   -1.2270   -5.2520   -2.0100 C   0  0  0  0  0  0  0  0  0  0  0  0
   -1.2670   -5.9820   -3.1670 C   0  0  0  0  0  0  0  0  0  0  0  0
   -0.2620   -6.8440   -3.5420 C   0  0  0  0  0  0  0  0  0  0  0  0
    0.8220   -6.9640   -2.7010 C   0  0  0  0  0  0  0  0  0  0  0  0
    0.8910   -6.2460   -1.5340 C   0  0  0  0  0  0  0  0  0  0  0  0
   -0.1250   -5.3840   -1.1740 C   0  0  0  0  0  0  0  0  0  0  0  0
    2.6640   -3.7010   -0.1100 C   0  0  0  0  0  0  0  0  0  0  0  0
    3.4030   -4.6610    0.2300 O   0  0  0  0  0  0  0  0  0  0  0  0
    2.9160   -3.1340   -1.3620 O   0  0  0  0  0  0  0  0  0  0  0  0
    0.4130   -2.0270   -0.4890 H   0  0  0  0  0  0  0  0  0  0  0  0
    2.1330   -3.1240    1.8150 H   0  0  0  0  0  0  0  0  0  0  0  0
    1.0370   -5.3000    1.3430 H   0  0  0  0  0  0  0  0  0  0  0  0
   -0.0750   -4.0470    1.9200 H   0  0  0  0  0  0  0  0  0  0  0  0
   -1.9790   -3.2520    0.4010 H   0  0  0  0  0  0  0  0  0  0  0  0
   -2.9860   -4.1140   -1.8960 H   0  0  0  0  0  0  0  0  0  0  0  0
   -2.1100   -5.9040   -3.8450 H   0  0  0  0  0  0  0  0  0  0  0  0
   -0.2680   -7.4250   -4.4410 H   0  0  0  0  0  0  0  0  0  0  0  0
    1.6600   -7.6290   -2.9290 H   0  0  0  0  0  0  0  0  0  0  0  0
    1.7260   -6.3400   -0.8550 H   0  0  0  0  0  0  0  0  0  0  0  0
  1  2  1  0  0  0  0
  1  7  1  0  0  0  0
  2  3  1  0  0  0  0
  2  9  1  0  0  0  0
  3  4  1  0  0  0  0
  3 10  1  1  0  0  0
  5  3  1  0  0  0  0
  6  5  2  0  0  0  0
  8  2  1  0  0  0  0
 11  4  1  0  0  0  0
 12  4  1  0  0  0  0
 13 22  1  0  0  0  0
 13  5  1  0  0  0  0
 14 23  1  6  0  0  0
 14 20  1  0  0  0  0
 14 13  1  0  0  0  0
 15 14  1  0  0  0  0
 16 17  1  0  0  0  0
 16 15  1  0  0  0  0
 17 18  1  0  0  0  0
 18 30  1  0  0  0  0
 18 31  1  0  0  0  0
 19 18  1  0  0  0  0
 20 21  2  0  0  0  0
 24 15  1  0  0  0  0
 25 15  1  0  0  0  0
 26 16  1  0  0  0  0
 27 16  1  0  0  0  0
 28 17  1  0  0  0  0
 29 17  1  0  0  0  0
 32 19  1  0  0  0  0
 33 19  1  0  0  0  0
 34 35  1  0  0  0  0
 34 20  1  0  0  0  0
 35 36  1  0  0  0  0
 35 50  1  1  0  0  0
 36 51  1  0  0  0  0
 36 52  1  0  0  0  0
 37 36  1  0  0  0  0
 38 37  2  0  0  0  0
 38 53  1  0  0  0  0
 39 38  1  0  0  0  0
 40 39  1  0  0  0  0
 40 45  1  0  0  0  0
 41 40  2  0  0  0  0
 42 41  1  0  0  0  0
 42 43  2  0  0  0  0
 43 44  1  0  0  0  0
 44 45  2  0  0  0  0
 44 58  1  0  0  0  0
 45 37  1  0  0  0  0
 46 47  1  0  0  0  0
 46 35  1  0  0  0  0
 48 46  2  0  0  0  0
 49 34  1  0  0  0  0
 54 39  1  0  0  0  0
 55 41  1  0  0  0  0
 56 42  1  0  0  0  0
 57 43  1  0  0  0  0
M  END
$$$$
