SLA.pdb
 OpenBabel07022419083D

 42 41  0  0  1  0  0  0  0  0999 V2000
   -0.6730   -2.5540    3.7690 O   0  0  0  0  0  0  0  0  0  0  0  0
   -0.5980   -3.3300    2.5910 C   0  0  0  0  0  0  0  0  0  0  0  0
    0.8380   -3.5440    2.2570 C   0  0  2  0  0  0  0  0  0  0  0  0
    1.4650   -4.2400    3.3660 N   0  0  0  0  0  0  0  0  0  0  0  0
    1.5980   -2.3610    1.9150 C   0  0  0  0  0  0  0  0  0  0  0  0
    2.6380   -2.0600    2.5410 O   0  0  0  0  0  0  0  0  0  0  0  0
   -1.6140   -2.3520    3.9470 H   0  0  0  0  0  0  0  0  0  0  0  0
   -1.2070   -2.8910    1.8080 H   0  0  0  0  0  0  0  0  0  0  0  0
   -1.0480   -4.3080    2.8610 H   0  0  0  0  0  0  0  0  0  0  0  0
    0.8900   -4.2570    1.3840 H   0  0  0  0  0  0  0  0  0  0  0  0
    0.7680   -4.8810    3.8490 H   0  0  0  0  0  0  0  0  0  0  0  0
    2.2740   -4.7710    2.9780 H   0  0  0  0  0  0  0  0  0  0  0  0
    2.2480   -0.3570   -3.3320 C   0  0  0  0  0  0  0  0  0  0  0  0
    1.4450   -0.4280   -2.0230 C   0  0  0  0  0  0  0  0  0  0  0  0
    0.4710    0.7290   -2.1030 C   0  0  0  0  0  0  0  0  0  0  0  0
    2.4270   -0.2750   -0.9060 C   0  0  0  0  0  0  0  0  0  0  0  0
    1.8960   -0.3130    0.4630 C   0  0  2  0  0  0  0  0  0  0  0  0
    1.2150   -1.4950    0.8720 N   0  0  0  0  0  0  0  0  0  0  0  0
    1.0530    0.8550    0.8280 C   0  0  0  0  0  0  0  0  0  0  0  0
    1.4030    2.0530    0.5850 O   0  0  0  0  0  0  0  0  0  0  0  0
    2.4320    0.7270   -3.5410 H   0  0  0  0  0  0  0  0  0  0  0  0
    3.2200   -0.8740   -3.2270 H   0  0  0  0  0  0  0  0  0  0  0  0
    1.6530   -0.7860   -4.1580 H   0  0  0  0  0  0  0  0  0  0  0  0
    0.8750   -1.3490   -2.0270 H   0  0  0  0  0  0  0  0  0  0  0  0
   -0.3030    0.6960   -1.3150 H   0  0  0  0  0  0  0  0  0  0  0  0
    0.9710    1.7140   -2.1040 H   0  0  0  0  0  0  0  0  0  0  0  0
   -0.0770    0.6750   -3.0830 H   0  0  0  0  0  0  0  0  0  0  0  0
    2.8810    0.7560   -1.0470 H   0  0  0  0  0  0  0  0  0  0  0  0
    3.2930   -0.9580   -0.9840 H   0  0  0  0  0  0  0  0  0  0  0  0
    2.7960   -0.2290    1.1490 H   0  0  0  0  0  0  0  0  0  0  0  0
    0.3430   -1.7490    0.3470 H   0  0  0  0  0  0  0  0  0  0  0  0
   -2.4280    1.7020    1.2140 C   0  0  0  0  0  0  0  0  0  0  0  0
   -1.0610    1.7730    1.8540 C   0  0  2  0  0  0  0  0  0  0  0  0
   -0.2030    0.7010    1.4760 N   0  0  0  0  0  0  0  0  0  0  0  0
   -1.2360    1.7950    3.3240 C   0  0  0  0  0  0  0  0  0  0  0  0
   -0.6490    0.9270    4.0130 O   0  0  0  0  0  0  0  0  0  0  0  0
   -2.0180    2.7270    3.9860 O   0  0  0  0  0  0  0  0  0  0  0  0
   -3.1480    2.1730    1.9140 H   0  0  0  0  0  0  0  0  0  0  0  0
   -2.4760    2.3170    0.2810 H   0  0  0  0  0  0  0  0  0  0  0  0
   -2.7580    0.6630    1.0520 H   0  0  0  0  0  0  0  0  0  0  0  0
   -0.6150    2.7530    1.5750 H   0  0  0  0  0  0  0  0  0  0  0  0
   -0.5020   -0.2850    1.6820 H   0  0  0  0  0  0  0  0  0  0  0  0
  1  7  1  0  0  0  0
  2  9  1  0  0  0  0
  2  1  1  0  0  0  0
  3 10  1  6  0  0  0
  3  2  1  0  0  0  0
  3  4  1  0  0  0  0
  4 11  1  0  0  0  0
  5  3  1  0  0  0  0
  5  6  2  0  0  0  0
  8  2  1  0  0  0  0
 12  4  1  0  0  0  0
 13 22  1  0  0  0  0
 13 14  1  0  0  0  0
 14 16  1  0  0  0  0
 15 14  1  0  0  0  0
 15 25  1  0  0  0  0
 16 17  1  0  0  0  0
 17 19  1  0  0  0  0
 17 18  1  0  0  0  0
 17 30  1  1  0  0  0
 18  5  1  0  0  0  0
 19 34  1  0  0  0  0
 20 19  2  0  0  0  0
 21 13  1  0  0  0  0
 23 13  1  0  0  0  0
 24 14  1  0  0  0  0
 26 15  1  0  0  0  0
 27 15  1  0  0  0  0
 28 16  1  0  0  0  0
 29 16  1  0  0  0  0
 31 18  1  0  0  0  0
 32 33  1  0  0  0  0
 32 38  1  0  0  0  0
 33 41  1  6  0  0  0
 33 35  1  0  0  0  0
 34 42  1  0  0  0  0
 34 33  1  0  0  0  0
 35 37  2  0  0  0  0
 35 36  1  0  0  0  0
 39 32  1  0  0  0  0
 40 32  1  0  0  0  0
M  END
$$$$
