SLC.pdb
 OpenBabel07022419083D

 43 42  0  0  1  0  0  0  0  0999 V2000
    0.9380   -4.2480    3.6150 O   0  0  0  0  0  0  0  0  0  0  0  0
    1.1450   -3.1880    2.7100 C   0  0  0  0  0  0  0  0  0  0  0  0
    0.9010   -3.7410    1.3330 C   0  0  2  0  0  0  0  0  0  0  0  0
    1.8190   -4.8120    1.0880 N   0  0  0  0  0  0  0  0  0  0  0  0
    0.9910   -2.7420    0.2670 C   0  0  0  0  0  0  0  0  0  0  0  0
    1.8070   -2.9270   -0.6730 O   0  0  0  0  0  0  0  0  0  0  0  0
    0.0390   -4.2530    3.9880 H   0  0  0  0  0  0  0  0  0  0  0  0
    0.3700   -2.4280    2.9720 H   0  0  0  0  0  0  0  0  0  0  0  0
    2.1750   -2.8260    2.8620 H   0  0  0  0  0  0  0  0  0  0  0  0
   -0.1360   -4.1810    1.3510 H   0  0  0  0  0  0  0  0  0  0  0  0
    1.8720   -5.4990    1.8520 H   0  0  0  0  0  0  0  0  0  0  0  0
    1.5100   -5.3150    0.2270 H   0  0  0  0  0  0  0  0  0  0  0  0
   -2.7570   -0.8030   -0.1550 C   0  0  0  0  0  0  0  0  0  0  0  0
   -2.1150    0.0730   -1.1760 C   0  0  0  0  0  0  0  0  0  0  0  0
   -2.1670    1.5410   -0.7910 C   0  0  0  0  0  0  0  0  0  0  0  0
   -0.8260   -0.3890   -1.7140 C   0  0  0  0  0  0  0  0  0  0  0  0
    0.3270   -0.6060   -0.8370 C   0  0  2  0  0  0  0  0  0  0  0  0
    0.2180   -1.5560    0.2070 N   0  0  0  0  0  0  0  0  0  0  0  0
    0.9120    0.6900   -0.4060 C   0  0  0  0  0  0  0  0  0  0  0  0
    0.9920    1.6020   -1.2580 O   0  0  0  0  0  0  0  0  0  0  0  0
   -2.6300   -0.4520    0.8870 H   0  0  0  0  0  0  0  0  0  0  0  0
   -3.8540   -0.7880   -0.3230 H   0  0  0  0  0  0  0  0  0  0  0  0
   -2.4430   -1.8550   -0.2630 H   0  0  0  0  0  0  0  0  0  0  0  0
   -2.8220    0.0450   -2.0740 H   0  0  0  0  0  0  0  0  0  0  0  0
   -3.2290    1.7420   -0.5050 H   0  0  0  0  0  0  0  0  0  0  0  0
   -2.0230    2.1240   -1.7480 H   0  0  0  0  0  0  0  0  0  0  0  0
   -1.4460    1.8080   -0.0270 H   0  0  0  0  0  0  0  0  0  0  0  0
   -0.5070    0.3760   -2.4870 H   0  0  0  0  0  0  0  0  0  0  0  0
   -1.0370   -1.2970   -2.3530 H   0  0  0  0  0  0  0  0  0  0  0  0
    1.1440   -1.0200   -1.5320 H   0  0  0  0  0  0  0  0  0  0  0  0
   -0.4570   -1.4290    1.0130 H   0  0  0  0  0  0  0  0  0  0  0  0
    1.3840    0.9520    0.9060 N   0  0  0  0  0  0  0  0  0  0  0  0
    1.9580    2.2270    1.3070 C   0  0  1  0  0  0  0  0  0  0  0  0
    1.3670    2.6290    2.6230 C   0  0  0  0  0  0  0  0  0  0  0  0
   -0.4080    2.8160    2.5580 S   0  0  0  0  0  0  0  0  0  0  0  0
    3.4280    1.9840    1.4880 C   0  0  0  0  0  0  0  0  0  0  0  0
    3.9390    0.8640    1.3020 O   0  0  0  0  0  0  0  0  0  0  0  0
    4.2240    3.0400    1.8730 O   0  0  0  0  0  0  0  0  0  0  0  0
    1.2910    0.1530    1.5800 H   0  0  0  0  0  0  0  0  0  0  0  0
    1.8390    2.9940    0.5290 H   0  0  0  0  0  0  0  0  0  0  0  0
    1.8020    3.6180    2.9340 H   0  0  0  0  0  0  0  0  0  0  0  0
    1.6690    1.9050    3.4110 H   0  0  0  0  0  0  0  0  0  0  0  0
   -1.0320    1.5670    2.3980 H   0  0  0  0  0  0  0  0  0  0  0  0
  1  7  1  0  0  0  0
  2  9  1  0  0  0  0
  2  8  1  0  0  0  0
  2  1  1  0  0  0  0
  3 10  1  6  0  0  0
  3  2  1  0  0  0  0
  4  3  1  0  0  0  0
  4 11  1  0  0  0  0
  5  3  1  0  0  0  0
  6  5  2  0  0  0  0
 12  4  1  0  0  0  0
 13 21  1  0  0  0  0
 14 15  1  0  0  0  0
 14 13  1  0  0  0  0
 15 25  1  0  0  0  0
 15 27  1  0  0  0  0
 16 14  1  0  0  0  0
 16 17  1  0  0  0  0
 17 30  1  6  0  0  0
 17 19  1  0  0  0  0
 17 18  1  0  0  0  0
 18  5  1  0  0  0  0
 18 31  1  0  0  0  0
 19 32  1  0  0  0  0
 20 19  2  0  0  0  0
 22 13  1  0  0  0  0
 23 13  1  0  0  0  0
 24 14  1  0  0  0  0
 26 15  1  0  0  0  0
 28 16  1  0  0  0  0
 29 16  1  0  0  0  0
 32 33  1  0  0  0  0
 32 39  1  0  0  0  0
 33 40  1  6  0  0  0
 33 36  1  0  0  0  0
 33 34  1  0  0  0  0
 34 41  1  0  0  0  0
 34 42  1  0  0  0  0
 35 34  1  0  0  0  0
 36 38  1  0  0  0  0
 37 36  2  0  0  0  0
 43 35  1  0  0  0  0
M  END
$$$$
