SLD.pdb
 OpenBabel07022419083D

 45 44  0  0  1  0  0  0  0  0999 V2000
    0.9250   -0.6830    4.7010 O   0  0  0  0  0  0  0  0  0  0  0  0
    0.6720   -1.9940    4.2670 C   0  0  0  0  0  0  0  0  0  0  0  0
    1.8460   -2.4500    3.4300 C   0  0  2  0  0  0  0  0  0  0  0  0
    3.0580   -2.4250    4.2000 N   0  0  0  0  0  0  0  0  0  0  0  0
    2.0110   -1.6160    2.2120 C   0  0  0  0  0  0  0  0  0  0  0  0
    3.1150   -1.0140    1.9910 O   0  0  0  0  0  0  0  0  0  0  0  0
    1.4470   -0.2300    4.0000 H   0  0  0  0  0  0  0  0  0  0  0  0
   -0.2850   -2.0890    3.7570 H   0  0  0  0  0  0  0  0  0  0  0  0
    0.6370   -2.6150    5.1750 H   0  0  0  0  0  0  0  0  0  0  0  0
    1.6800   -3.4990    3.0950 H   0  0  0  0  0  0  0  0  0  0  0  0
    3.6290   -1.5740    3.9890 H   0  0  0  0  0  0  0  0  0  0  0  0
    3.6180   -3.3110    4.0740 H   0  0  0  0  0  0  0  0  0  0  0  0
    0.6540   -1.9200   -3.4880 C   0  0  0  0  0  0  0  0  0  0  0  0
    1.0160   -0.8380   -2.4590 C   0  0  0  0  0  0  0  0  0  0  0  0
    2.4720   -0.4730   -2.7670 C   0  0  0  0  0  0  0  0  0  0  0  0
    0.8840   -1.4700   -1.1180 C   0  0  0  0  0  0  0  0  0  0  0  0
    1.1910   -0.6020    0.0520 C   0  0  2  0  0  0  0  0  0  0  0  0
    0.9960   -1.4370    1.2500 N   0  0  0  0  0  0  0  0  0  0  0  0
    0.2000    0.5000    0.1170 C   0  0  0  0  0  0  0  0  0  0  0  0
    0.1150    1.3960   -0.7620 O   0  0  0  0  0  0  0  0  0  0  0  0
   -0.2450   -2.4830   -3.1290 H   0  0  0  0  0  0  0  0  0  0  0  0
    0.4000   -1.4700   -4.4620 H   0  0  0  0  0  0  0  0  0  0  0  0
    1.4650   -2.6780   -3.5660 H   0  0  0  0  0  0  0  0  0  0  0  0
    0.4020    0.0470   -2.6280 H   0  0  0  0  0  0  0  0  0  0  0  0
    2.8250    0.3620   -2.1450 H   0  0  0  0  0  0  0  0  0  0  0  0
    2.4670   -0.1420   -3.8400 H   0  0  0  0  0  0  0  0  0  0  0  0
    3.1050   -1.3740   -2.7170 H   0  0  0  0  0  0  0  0  0  0  0  0
    1.5900   -2.3380   -1.0880 H   0  0  0  0  0  0  0  0  0  0  0  0
   -0.1330   -1.8740   -1.0090 H   0  0  0  0  0  0  0  0  0  0  0  0
    2.2060   -0.1840    0.0610 H   0  0  0  0  0  0  0  0  0  0  0  0
    0.0900   -1.9160    1.4070 H   0  0  0  0  0  0  0  0  0  0  0  0
   -0.7290    0.6050    1.2020 N   0  0  0  0  0  0  0  0  0  0  0  0
   -1.7160    1.6440    1.3280 C   0  0  1  0  0  0  0  0  0  0  0  0
   -3.1290    1.1470    1.4100 C   0  0  0  0  0  0  0  0  0  0  0  0
   -3.5460    0.3720    0.2220 C   0  0  0  0  0  0  0  0  0  0  0  0
   -2.7270    0.2020   -0.7060 O   0  0  0  0  0  0  0  0  0  0  0  0
   -1.4540    2.5560    2.4510 C   0  0  0  0  0  0  0  0  0  0  0  0
   -2.2470    3.5010    2.6600 O   0  0  0  0  0  0  0  0  0  0  0  0
   -4.8100   -0.1720    0.1000 O   0  0  0  0  0  0  0  0  0  0  0  0
   -0.3670    2.4220    3.2940 O   0  0  0  0  0  0  0  0  0  0  0  0
   -0.6950   -0.1150    1.9560 H   0  0  0  0  0  0  0  0  0  0  0  0
   -1.6350    2.2710    0.3980 H   0  0  0  0  0  0  0  0  0  0  0  0
   -3.3180    0.5570    2.3380 H   0  0  0  0  0  0  0  0  0  0  0  0
   -3.7770    2.0720    1.4120 H   0  0  0  0  0  0  0  0  0  0  0  0
   -5.0070   -0.9750   -0.5080 H   0  0  0  0  0  0  0  0  0  0  0  0
  2  1  1  0  0  0  0
  2  9  1  0  0  0  0
  3 10  1  6  0  0  0
  3  4  1  0  0  0  0
  3  2  1  0  0  0  0
  5  3  1  0  0  0  0
  6  5  2  0  0  0  0
  7  1  1  0  0  0  0
  8  2  1  0  0  0  0
 11  4  1  0  0  0  0
 12  4  1  0  0  0  0
 13 21  1  0  0  0  0
 13 14  1  0  0  0  0
 14 16  1  0  0  0  0
 15 27  1  0  0  0  0
 15 14  1  0  0  0  0
 15 25  1  0  0  0  0
 16 28  1  0  0  0  0
 16 29  1  0  0  0  0
 16 17  1  0  0  0  0
 17 30  1  6  0  0  0
 17 19  1  0  0  0  0
 17 18  1  0  0  0  0
 18 31  1  0  0  0  0
 18  5  1  0  0  0  0
 19 32  1  0  0  0  0
 20 19  2  0  0  0  0
 22 13  1  0  0  0  0
 23 13  1  0  0  0  0
 24 14  1  0  0  0  0
 26 15  1  0  0  0  0
 32 33  1  0  0  0  0
 32 41  1  0  0  0  0
 33 42  1  6  0  0  0
 33 34  1  0  0  0  0
 33 37  1  0  0  0  0
 34 44  1  0  0  0  0
 34 43  1  0  0  0  0
 35 34  1  0  0  0  0
 36 35  2  0  0  0  0
 37 38  2  0  0  0  0
 37 40  1  0  0  0  0
 39 35  1  0  0  0  0
 45 39  1  0  0  0  0
M  END
$$$$
