SLE.pdb
 OpenBabel07022419083D

 48 47  0  0  1  0  0  0  0  0999 V2000
    1.4580   -5.8270    1.7160 O   0  0  0  0  0  0  0  0  0  0  0  0
    2.0050   -4.6040    1.3360 C   0  0  0  0  0  0  0  0  0  0  0  0
    1.0080   -3.5320    1.7080 C   0  0  2  0  0  0  0  0  0  0  0  0
   -0.2370   -3.7600    1.0180 N   0  0  0  0  0  0  0  0  0  0  0  0
    1.5470   -2.1690    1.4410 C   0  0  0  0  0  0  0  0  0  0  0  0
    2.6360   -1.8460    1.9900 O   0  0  0  0  0  0  0  0  0  0  0  0
    1.5570   -6.0120    2.6780 H   0  0  0  0  0  0  0  0  0  0  0  0
    2.9120   -4.4500    1.9420 H   0  0  0  0  0  0  0  0  0  0  0  0
    2.1960   -4.6140    0.2480 H   0  0  0  0  0  0  0  0  0  0  0  0
    0.8010   -3.6380    2.8000 H   0  0  0  0  0  0  0  0  0  0  0  0
   -0.9120   -4.3280    1.5700 H   0  0  0  0  0  0  0  0  0  0  0  0
   -0.1180   -4.1370    0.0550 H   0  0  0  0  0  0  0  0  0  0  0  0
    2.7260   -0.2710   -3.2590 C   0  0  0  0  0  0  0  0  0  0  0  0
    2.5380   -0.5990   -1.7910 C   0  0  0  0  0  0  0  0  0  0  0  0
    3.9080   -0.3500   -1.1450 C   0  0  0  0  0  0  0  0  0  0  0  0
    1.5030    0.2940   -1.1640 C   0  0  0  0  0  0  0  0  0  0  0  0
    1.2720    0.0130    0.2920 C   0  0  2  0  0  0  0  0  0  0  0  0
    0.8270   -1.2930    0.5920 N   0  0  0  0  0  0  0  0  0  0  0  0
    0.3970    1.0990    0.8040 C   0  0  0  0  0  0  0  0  0  0  0  0
    0.7620    2.2750    0.5550 O   0  0  0  0  0  0  0  0  0  0  0  0
    1.7650   -0.2000   -3.7960 H   0  0  0  0  0  0  0  0  0  0  0  0
    3.2430    0.7070   -3.4010 H   0  0  0  0  0  0  0  0  0  0  0  0
    3.2930   -1.1110   -3.7050 H   0  0  0  0  0  0  0  0  0  0  0  0
    2.3110   -1.6610   -1.7170 H   0  0  0  0  0  0  0  0  0  0  0  0
    3.9200   -0.5770   -0.0800 H   0  0  0  0  0  0  0  0  0  0  0  0
    4.2010    0.7190   -1.2810 H   0  0  0  0  0  0  0  0  0  0  0  0
    4.6510   -0.9410   -1.7210 H   0  0  0  0  0  0  0  0  0  0  0  0
    1.8280    1.3480   -1.2740 H   0  0  0  0  0  0  0  0  0  0  0  0
    0.5690    0.1900   -1.7530 H   0  0  0  0  0  0  0  0  0  0  0  0
    2.2550    0.1720    0.8290 H   0  0  0  0  0  0  0  0  0  0  0  0
   -0.0570   -1.6530    0.1920 H   0  0  0  0  0  0  0  0  0  0  0  0
   -0.7900    0.9120    1.5320 N   0  0  0  0  0  0  0  0  0  0  0  0
   -1.6350    1.9570    2.0260 C   0  0  1  0  0  0  0  0  0  0  0  0
   -3.0220    1.8280    1.4410 C   0  0  0  0  0  0  0  0  0  0  0  0
   -3.6680    0.5190    1.7940 C   0  0  0  0  0  0  0  0  0  0  0  0
   -5.0170    0.4380    1.2120 C   0  0  0  0  0  0  0  0  0  0  0  0
   -5.4800    1.3760    0.5320 O   0  0  0  0  0  0  0  0  0  0  0  0
   -1.7800    1.8090    3.4920 C   0  0  0  0  0  0  0  0  0  0  0  0
   -1.1940    0.8660    4.0690 O   0  0  0  0  0  0  0  0  0  0  0  0
   -5.7860   -0.6870    1.4170 O   0  0  0  0  0  0  0  0  0  0  0  0
   -2.5420    2.6750    4.2600 O   0  0  0  0  0  0  0  0  0  0  0  0
   -1.0560   -0.0750    1.7210 H   0  0  0  0  0  0  0  0  0  0  0  0
   -1.2310    2.9740    1.8010 H   0  0  0  0  0  0  0  0  0  0  0  0
   -2.9290    1.8570    0.3330 H   0  0  0  0  0  0  0  0  0  0  0  0
   -3.6950    2.6330    1.7600 H   0  0  0  0  0  0  0  0  0  0  0  0
   -3.7660    0.3730    2.8930 H   0  0  0  0  0  0  0  0  0  0  0  0
   -3.0260   -0.2920    1.3890 H   0  0  0  0  0  0  0  0  0  0  0  0
   -6.5440   -0.8900    0.7650 H   0  0  0  0  0  0  0  0  0  0  0  0
  1  7  1  0  0  0  0
  2  3  1  0  0  0  0
  2  1  1  0  0  0  0
  2  8  1  0  0  0  0
  3 10  1  1  0  0  0
  4 11  1  0  0  0  0
  4  3  1  0  0  0  0
  5  3  1  0  0  0  0
  5  6  2  0  0  0  0
  9  2  1  0  0  0  0
 12  4  1  0  0  0  0
 13 14  1  0  0  0  0
 14 24  1  0  0  0  0
 14 16  1  0  0  0  0
 14 15  1  0  0  0  0
 15 25  1  0  0  0  0
 16 17  1  0  0  0  0
 17 18  1  0  0  0  0
 17 19  1  0  0  0  0
 17 30  1  1  0  0  0
 18  5  1  0  0  0  0
 19 32  1  0  0  0  0
 20 19  2  0  0  0  0
 21 13  1  0  0  0  0
 22 13  1  0  0  0  0
 23 13  1  0  0  0  0
 26 15  1  0  0  0  0
 27 15  1  0  0  0  0
 28 16  1  0  0  0  0
 29 16  1  0  0  0  0
 31 18  1  0  0  0  0
 32 42  1  0  0  0  0
 32 33  1  0  0  0  0
 33 43  1  6  0  0  0
 33 38  1  0  0  0  0
 34 45  1  0  0  0  0
 34 35  1  0  0  0  0
 34 33  1  0  0  0  0
 35 46  1  0  0  0  0
 36 40  1  0  0  0  0
 36 35  1  0  0  0  0
 37 36  2  0  0  0  0
 38 39  2  0  0  0  0
 38 41  1  0  0  0  0
 44 34  1  0  0  0  0
 47 35  1  0  0  0  0
 48 40  1  0  0  0  0
M  END
$$$$
