SLF.pdb
 OpenBabel07022419083D

 52 52  0  0  1  0  0  0  0  0999 V2000
    4.1670   -4.4430    1.6860 O   0  0  0  0  0  0  0  0  0  0  0  0
    3.7850   -3.1170    1.9090 C   0  0  0  0  0  0  0  0  0  0  0  0
    2.3230   -2.9410    1.6520 C   0  0  2  0  0  0  0  0  0  0  0  0
    1.9320   -3.2610    0.3150 N   0  0  0  0  0  0  0  0  0  0  0  0
    1.9550   -1.5310    1.9830 C   0  0  0  0  0  0  0  0  0  0  0  0
    2.2140   -1.0420    3.1150 O   0  0  0  0  0  0  0  0  0  0  0  0
    3.9520   -4.9290    2.5240 H   0  0  0  0  0  0  0  0  0  0  0  0
    4.4110   -2.4600    1.2630 H   0  0  0  0  0  0  0  0  0  0  0  0
    4.0350   -2.8550    2.9480 H   0  0  0  0  0  0  0  0  0  0  0  0
    1.7680   -3.6140    2.3370 H   0  0  0  0  0  0  0  0  0  0  0  0
    0.8980   -3.3400    0.2070 H   0  0  0  0  0  0  0  0  0  0  0  0
    2.2730   -2.5700   -0.3670 H   0  0  0  0  0  0  0  0  0  0  0  0
    2.0200    3.9890   -0.2580 C   0  0  0  0  0  0  0  0  0  0  0  0
    1.2630    3.1150    0.7630 C   0  0  0  0  0  0  0  0  0  0  0  0
    1.6030    3.6090    2.1210 C   0  0  0  0  0  0  0  0  0  0  0  0
    1.5770    1.6900    0.4990 C   0  0  0  0  0  0  0  0  0  0  0  0
    0.9490    0.6970    1.3910 C   0  0  2  0  0  0  0  0  0  0  0  0
    1.3080   -0.6740    1.0730 N   0  0  0  0  0  0  0  0  0  0  0  0
   -0.5290    0.7480    1.3320 C   0  0  0  0  0  0  0  0  0  0  0  0
   -1.0980    1.8280    1.6220 O   0  0  0  0  0  0  0  0  0  0  0  0
    1.6400    5.0210   -0.0980 H   0  0  0  0  0  0  0  0  0  0  0  0
    3.0880    3.8950    0.0140 H   0  0  0  0  0  0  0  0  0  0  0  0
    1.8090    3.6640   -1.2820 H   0  0  0  0  0  0  0  0  0  0  0  0
    0.1860    3.3230    0.5100 H   0  0  0  0  0  0  0  0  0  0  0  0
    2.1760    2.9070    2.7450 H   0  0  0  0  0  0  0  0  0  0  0  0
    0.6620    3.8840    2.6690 H   0  0  0  0  0  0  0  0  0  0  0  0
    2.2040    4.5590    2.0950 H   0  0  0  0  0  0  0  0  0  0  0  0
    2.7000    1.5780    0.5910 H   0  0  0  0  0  0  0  0  0  0  0  0
    1.3470    1.5120   -0.5950 H   0  0  0  0  0  0  0  0  0  0  0  0
    1.2830    0.8740    2.4290 H   0  0  0  0  0  0  0  0  0  0  0  0
    1.0600   -1.0050    0.1150 H   0  0  0  0  0  0  0  0  0  0  0  0
   -1.3190   -0.3730    0.9600 N   0  0  0  0  0  0  0  0  0  0  0  0
   -2.7580   -0.2650    0.9200 C   0  0  1  0  0  0  0  0  0  0  0  0
   -3.3110   -0.5000   -0.4640 C   0  0  0  0  0  0  0  0  0  0  0  0
   -3.0030   -1.8170   -1.0120 C   0  0  0  0  0  0  0  0  0  0  0  0
   -3.8270   -2.9050   -0.8250 C   0  0  0  0  0  0  0  0  0  0  0  0
   -3.4860   -4.1280   -1.3650 C   0  0  0  0  0  0  0  0  0  0  0  0
   -2.3220   -4.2950   -2.1010 C   0  0  0  0  0  0  0  0  0  0  0  0
   -1.4950   -3.2200   -2.2930 C   0  0  0  0  0  0  0  0  0  0  0  0
   -1.8540   -2.0050   -1.7440 C   0  0  0  0  0  0  0  0  0  0  0  0
   -3.3930   -1.1740    1.9080 C   0  0  0  0  0  0  0  0  0  0  0  0
   -2.6290   -1.8900    2.6210 O   0  0  0  0  0  0  0  0  0  0  0  0
   -4.7670   -1.2510    2.0600 O   0  0  0  0  0  0  0  0  0  0  0  0
   -0.8700   -1.2790    0.7150 H   0  0  0  0  0  0  0  0  0  0  0  0
   -3.0890    0.7710    1.2100 H   0  0  0  0  0  0  0  0  0  0  0  0
   -4.4270   -0.4060   -0.3710 H   0  0  0  0  0  0  0  0  0  0  0  0
   -3.0100    0.3120   -1.1550 H   0  0  0  0  0  0  0  0  0  0  0  0
   -4.7510   -2.8490   -0.2620 H   0  0  0  0  0  0  0  0  0  0  0  0
   -4.1030   -4.9860   -1.2370 H   0  0  0  0  0  0  0  0  0  0  0  0
   -2.0790   -5.2620   -2.5130 H   0  0  0  0  0  0  0  0  0  0  0  0
   -0.5770   -3.3410   -2.8700 H   0  0  0  0  0  0  0  0  0  0  0  0
   -1.1520   -1.1830   -1.9330 H   0  0  0  0  0  0  0  0  0  0  0  0
  1  2  1  0  0  0  0
  1  7  1  0  0  0  0
  2  9  1  0  0  0  0
  3  2  1  0  0  0  0
  3  5  1  0  0  0  0
  3 10  1  1  0  0  0
  4  3  1  0  0  0  0
  5  6  2  0  0  0  0
  8  2  1  0  0  0  0
 11  4  1  0  0  0  0
 12  4  1  0  0  0  0
 13 21  1  0  0  0  0
 13 22  1  0  0  0  0
 13 14  1  0  0  0  0
 14 15  1  0  0  0  0
 15 26  1  0  0  0  0
 15 25  1  0  0  0  0
 16 28  1  0  0  0  0
 16 14  1  0  0  0  0
 16 17  1  0  0  0  0
 17 30  1  1  0  0  0
 18 17  1  0  0  0  0
 18  5  1  0  0  0  0
 19 17  1  0  0  0  0
 19 20  2  0  0  0  0
 23 13  1  0  0  0  0
 24 14  1  0  0  0  0
 27 15  1  0  0  0  0
 29 16  1  0  0  0  0
 31 18  1  0  0  0  0
 32 19  1  0  0  0  0
 33 32  1  0  0  0  0
 33 45  1  1  0  0  0
 33 41  1  0  0  0  0
 34 46  1  0  0  0  0
 34 33  1  0  0  0  0
 35 36  1  0  0  0  0
 35 34  1  0  0  0  0
 36 48  1  0  0  0  0
 37 49  1  0  0  0  0
 37 36  2  0  0  0  0
 38 37  1  0  0  0  0
 39 38  2  0  0  0  0
 39 40  1  0  0  0  0
 40 35  2  0  0  0  0
 41 43  2  0  0  0  0
 41 42  1  0  0  0  0
 44 32  1  0  0  0  0
 47 34  1  0  0  0  0
 50 38  1  0  0  0  0
 51 39  1  0  0  0  0
 52 40  1  0  0  0  0
M  END
$$$$
