SLH.pdb
 OpenBabel07022419083D

 49 49  0  0  1  0  0  0  0  0999 V2000
    1.4730   -4.6780    2.8250 O   0  0  0  0  0  0  0  0  0  0  0  0
    2.8070   -4.3560    2.5110 C   0  0  0  0  0  0  0  0  0  0  0  0
    3.1810   -3.1120    3.2340 C   0  0  2  0  0  0  0  0  0  0  0  0
    3.0560   -3.3100    4.6630 N   0  0  0  0  0  0  0  0  0  0  0  0
    2.4690   -1.9050    2.8470 C   0  0  0  0  0  0  0  0  0  0  0  0
    1.8770   -1.2390    3.7530 O   0  0  0  0  0  0  0  0  0  0  0  0
    1.1870   -5.5140    2.3830 H   0  0  0  0  0  0  0  0  0  0  0  0
    2.9350   -4.3440    1.4360 H   0  0  0  0  0  0  0  0  0  0  0  0
    3.4140   -5.1910    2.9160 H   0  0  0  0  0  0  0  0  0  0  0  0
    4.2820   -2.9120    3.0620 H   0  0  0  0  0  0  0  0  0  0  0  0
    2.2210   -3.9190    4.9050 H   0  0  0  0  0  0  0  0  0  0  0  0
    2.8810   -2.4060    5.1740 H   0  0  0  0  0  0  0  0  0  0  0  0
    1.4320    2.2770   -0.9030 C   0  0  0  0  0  0  0  0  0  0  0  0
    2.3840    2.1190    0.2430 C   0  0  0  0  0  0  0  0  0  0  0  0
    2.0510    3.1080    1.3400 C   0  0  0  0  0  0  0  0  0  0  0  0
    2.6400    0.7570    0.7000 C   0  0  0  0  0  0  0  0  0  0  0  0
    1.6030   -0.1270    1.2430 C   0  0  2  0  0  0  0  0  0  0  0  0
    2.3600   -1.3840    1.5560 N   0  0  0  0  0  0  0  0  0  0  0  0
    0.5080   -0.5770    0.3900 C   0  0  0  0  0  0  0  0  0  0  0  0
    0.5690   -1.7490   -0.1240 O   0  0  0  0  0  0  0  0  0  0  0  0
    0.4900    2.7880   -0.6140 H   0  0  0  0  0  0  0  0  0  0  0  0
    1.8850    2.9940   -1.6620 H   0  0  0  0  0  0  0  0  0  0  0  0
    1.3140    1.3450   -1.4550 H   0  0  0  0  0  0  0  0  0  0  0  0
    3.3880    2.5050   -0.1390 H   0  0  0  0  0  0  0  0  0  0  0  0
    1.3820    2.7060    2.1060 H   0  0  0  0  0  0  0  0  0  0  0  0
    2.9540    3.5000    1.8500 H   0  0  0  0  0  0  0  0  0  0  0  0
    1.5380    3.9650    0.8550 H   0  0  0  0  0  0  0  0  0  0  0  0
    3.5040    0.7370    1.4250 H   0  0  0  0  0  0  0  0  0  0  0  0
    3.0910    0.2030   -0.1950 H   0  0  0  0  0  0  0  0  0  0  0  0
    1.1770    0.2720    2.1880 H   0  0  0  0  0  0  0  0  0  0  0  0
    2.8190   -1.8810    0.7810 H   0  0  0  0  0  0  0  0  0  0  0  0
   -0.6600    0.1620    0.0600 N   0  0  0  0  0  0  0  0  0  0  0  0
   -1.7070   -0.3690   -0.8000 C   0  0  1  0  0  0  0  0  0  0  0  0
   -2.8960   -0.6050    0.1460 C   0  0  0  0  0  0  0  0  0  0  0  0
   -4.0720   -1.1520   -0.5560 C   0  0  0  0  0  0  0  0  0  0  0  0
   -5.0970   -0.4510   -1.1420 C   0  0  0  0  0  0  0  0  0  0  0  0
   -5.9450   -1.3230   -1.6530 N   0  0  0  0  0  0  0  0  0  0  0  0
   -5.4720   -2.5530   -1.3990 C   0  0  0  0  0  0  0  0  0  0  0  0
   -4.3190   -2.4560   -0.7240 N   0  0  0  0  0  0  0  0  0  0  0  0
   -2.0690    0.4990   -1.9220 C   0  0  0  0  0  0  0  0  0  0  0  0
   -2.9530    0.1460   -2.7550 O   0  0  0  0  0  0  0  0  0  0  0  0
   -1.4960    1.7370   -2.1640 O   0  0  0  0  0  0  0  0  0  0  0  0
   -0.7430    1.1060    0.4830 H   0  0  0  0  0  0  0  0  0  0  0  0
   -1.4580   -1.3830   -1.1710 H   0  0  0  0  0  0  0  0  0  0  0  0
   -3.1800    0.3960    0.5660 H   0  0  0  0  0  0  0  0  0  0  0  0
   -2.5610   -1.2130    1.0020 H   0  0  0  0  0  0  0  0  0  0  0  0
   -5.1570    0.6250   -1.1570 H   0  0  0  0  0  0  0  0  0  0  0  0
   -6.8330   -1.1110   -2.1680 H   0  0  0  0  0  0  0  0  0  0  0  0
   -5.9150   -3.5080   -1.6750 H   0  0  0  0  0  0  0  0  0  0  0  0
  2  1  1  0  0  0  0
  2  9  1  0  0  0  0
  2  3  1  0  0  0  0
  3 10  1  6  0  0  0
  3  4  1  0  0  0  0
  4 11  1  0  0  0  0
  4 12  1  0  0  0  0
  5  3  1  0  0  0  0
  5  6  2  0  0  0  0
  7  1  1  0  0  0  0
  8  2  1  0  0  0  0
 13 21  1  0  0  0  0
 13 14  1  0  0  0  0
 14 16  1  0  0  0  0
 14 15  1  0  0  0  0
 15 26  1  0  0  0  0
 15 25  1  0  0  0  0
 16 17  1  0  0  0  0
 16 28  1  0  0  0  0
 17 18  1  0  0  0  0
 17 30  1  1  0  0  0
 18  5  1  0  0  0  0
 19 17  1  0  0  0  0
 20 19  2  0  0  0  0
 22 13  1  0  0  0  0
 23 13  1  0  0  0  0
 24 14  1  0  0  0  0
 27 15  1  0  0  0  0
 29 16  1  0  0  0  0
 31 18  1  0  0  0  0
 32 19  1  0  0  0  0
 32 43  1  0  0  0  0
 33 44  1  6  0  0  0
 33 32  1  0  0  0  0
 33 34  1  0  0  0  0
 34 45  1  0  0  0  0
 34 46  1  0  0  0  0
 35 34  1  0  0  0  0
 36 35  2  0  0  0  0
 37 38  1  0  0  0  0
 37 36  1  0  0  0  0
 38 39  2  0  0  0  0
 39 35  1  0  0  0  0
 40 33  1  0  0  0  0
 41 40  2  0  0  0  0
 42 40  1  0  0  0  0
 47 36  1  0  0  0  0
 48 37  1  0  0  0  0
 49 38  1  0  0  0  0
M  END
$$$$
