SLM.pdb
 OpenBabel07022419083D

 49 48  0  0  1  0  0  0  0  0999 V2000
   -4.6400   -1.1590    2.8990 O   0  0  0  0  0  0  0  0  0  0  0  0
   -5.2290   -0.4210    1.8970 C   0  0  0  0  0  0  0  0  0  0  0  0
   -4.5200   -0.5950    0.5740 C   0  0  2  0  0  0  0  0  0  0  0  0
   -4.5020   -1.9460    0.1070 N   0  0  0  0  0  0  0  0  0  0  0  0
   -3.0980   -0.0800    0.6730 C   0  0  0  0  0  0  0  0  0  0  0  0
   -2.8750    1.0830    1.0610 O   0  0  0  0  0  0  0  0  0  0  0  0
   -4.7620   -2.1050    2.7160 H   0  0  0  0  0  0  0  0  0  0  0  0
   -5.2460    0.6690    2.1090 H   0  0  0  0  0  0  0  0  0  0  0  0
   -6.2850   -0.7150    1.7300 H   0  0  0  0  0  0  0  0  0  0  0  0
   -5.0240    0.0470   -0.1710 H   0  0  0  0  0  0  0  0  0  0  0  0
   -5.3000   -2.2080   -0.4850 H   0  0  0  0  0  0  0  0  0  0  0  0
   -4.2370   -2.6430    0.8140 H   0  0  0  0  0  0  0  0  0  0  0  0
   -0.0150    0.9420   -2.2730 C   0  0  0  0  0  0  0  0  0  0  0  0
   -0.6200    1.5500   -1.0200 C   0  0  0  0  0  0  0  0  0  0  0  0
    0.0060    2.9530   -0.9270 C   0  0  0  0  0  0  0  0  0  0  0  0
   -0.2410    0.8490    0.2190 C   0  0  0  0  0  0  0  0  0  0  0  0
   -0.6260   -0.6030    0.3340 C   0  0  2  0  0  0  0  0  0  0  0  0
   -2.0080   -0.9070    0.3270 N   0  0  0  0  0  0  0  0  0  0  0  0
    0.1590   -1.2100    1.4130 C   0  0  0  0  0  0  0  0  0  0  0  0
   -0.4220   -1.9070    2.2990 O   0  0  0  0  0  0  0  0  0  0  0  0
    0.1240    1.7240   -3.0630 H   0  0  0  0  0  0  0  0  0  0  0  0
   -0.7820    0.2490   -2.6830 H   0  0  0  0  0  0  0  0  0  0  0  0
    0.9570    0.4860   -2.0970 H   0  0  0  0  0  0  0  0  0  0  0  0
   -1.6930    1.7070   -1.1260 H   0  0  0  0  0  0  0  0  0  0  0  0
   -0.1080    3.3640    0.0870 H   0  0  0  0  0  0  0  0  0  0  0  0
   -0.3960    3.6060   -1.7220 H   0  0  0  0  0  0  0  0  0  0  0  0
    1.0830    2.7960   -1.1570 H   0  0  0  0  0  0  0  0  0  0  0  0
    0.8840    0.9100    0.3060 H   0  0  0  0  0  0  0  0  0  0  0  0
   -0.5960    1.4310    1.0940 H   0  0  0  0  0  0  0  0  0  0  0  0
   -0.2300   -1.0020   -0.6870 H   0  0  0  0  0  0  0  0  0  0  0  0
   -2.3070   -1.8920    0.0200 H   0  0  0  0  0  0  0  0  0  0  0  0
    4.9030   -1.8590   -1.4880 C   0  0  0  0  0  0  0  0  0  0  0  0
    3.4960   -2.0640   -0.3790 S   0  0  0  0  0  0  0  0  0  0  0  0
    4.0520   -2.7210    1.1940 C   0  0  0  0  0  0  0  0  0  0  0  0
    2.9760   -2.9320    2.1900 C   0  0  0  0  0  0  0  0  0  0  0  0
    2.2180   -1.7200    2.6530 C   0  0  2  0  0  0  0  0  0  0  0  0
    1.5680   -1.0800    1.5530 N   0  0  0  0  0  0  0  0  0  0  0  0
    3.1050   -0.7750    3.3690 C   0  0  0  0  0  0  0  0  0  0  0  0
    3.7860   -1.1030    4.3730 O   0  0  0  0  0  0  0  0  0  0  0  0
    3.1920    0.5340    2.9150 O   0  0  0  0  0  0  0  0  0  0  0  0
    5.1250   -0.7560   -1.5280 H   0  0  0  0  0  0  0  0  0  0  0  0
    4.5480   -2.1650   -2.5140 H   0  0  0  0  0  0  0  0  0  0  0  0
    5.7790   -2.4540   -1.2100 H   0  0  0  0  0  0  0  0  0  0  0  0
    4.5150   -3.7310    0.9990 H   0  0  0  0  0  0  0  0  0  0  0  0
    4.9060   -2.1180    1.5860 H   0  0  0  0  0  0  0  0  0  0  0  0
    2.2780   -3.7030    1.7490 H   0  0  0  0  0  0  0  0  0  0  0  0
    3.3670   -3.4740    3.1100 H   0  0  0  0  0  0  0  0  0  0  0  0
    1.4680   -2.0740    3.4200 H   0  0  0  0  0  0  0  0  0  0  0  0
    2.1360   -0.5130    0.8790 H   0  0  0  0  0  0  0  0  0  0  0  0
  2  8  1  0  0  0  0
  2  1  1  0  0  0  0
  3 10  1  6  0  0  0
  3  5  1  0  0  0  0
  3  2  1  0  0  0  0
  4  3  1  0  0  0  0
  4 12  1  0  0  0  0
  5  6  2  0  0  0  0
  7  1  1  0  0  0  0
  9  2  1  0  0  0  0
 11  4  1  0  0  0  0
 13 23  1  0  0  0  0
 13 14  1  0  0  0  0
 14 15  1  0  0  0  0
 14 16  1  0  0  0  0
 15 25  1  0  0  0  0
 16 28  1  0  0  0  0
 16 17  1  0  0  0  0
 16 29  1  0  0  0  0
 17 30  1  6  0  0  0
 17 19  1  0  0  0  0
 18 17  1  0  0  0  0
 18  5  1  0  0  0  0
 19 37  1  0  0  0  0
 19 20  2  0  0  0  0
 21 13  1  0  0  0  0
 22 13  1  0  0  0  0
 24 14  1  0  0  0  0
 26 15  1  0  0  0  0
 27 15  1  0  0  0  0
 31 18  1  0  0  0  0
 32 43  1  0  0  0  0
 32 33  1  0  0  0  0
 33 34  1  0  0  0  0
 34 45  1  0  0  0  0
 34 35  1  0  0  0  0
 35 36  1  0  0  0  0
 35 47  1  0  0  0  0
 36 38  1  0  0  0  0
 36 48  1  1  0  0  0
 37 36  1  0  0  0  0
 38 39  1  0  0  0  0
 40 38  2  0  0  0  0
 41 32  1  0  0  0  0
 42 32  1  0  0  0  0
 44 34  1  0  0  0  0
 46 35  1  0  0  0  0
 49 37  1  0  0  0  0
M  END
$$$$
