SLN.pdb
 OpenBabel07022419083D

 46 45  0  0  1  0  0  0  0  0999 V2000
    0.9430   -2.6610    2.8780 O   0  0  0  0  0  0  0  0  0  0  0  0
    1.1610   -3.7210    2.0180 C   0  0  0  0  0  0  0  0  0  0  0  0
    1.7750   -3.1870    0.7310 C   0  0  2  0  0  0  0  0  0  0  0  0
    3.0210   -2.5330    1.0130 N   0  0  0  0  0  0  0  0  0  0  0  0
    0.7970   -2.1550    0.2190 C   0  0  0  0  0  0  0  0  0  0  0  0
   -0.3520   -2.5280   -0.0850 O   0  0  0  0  0  0  0  0  0  0  0  0
    1.7380   -2.0650    2.8300 H   0  0  0  0  0  0  0  0  0  0  0  0
    0.1720   -4.1780    1.7860 H   0  0  0  0  0  0  0  0  0  0  0  0
    1.8360   -4.4920    2.4590 H   0  0  0  0  0  0  0  0  0  0  0  0
    1.9090   -4.0090    0.0230 H   0  0  0  0  0  0  0  0  0  0  0  0
    3.6160   -2.5810    0.1380 H   0  0  0  0  0  0  0  0  0  0  0  0
    3.5250   -2.9200    1.8270 H   0  0  0  0  0  0  0  0  0  0  0  0
   -1.0250   -1.2620   -3.5790 C   0  0  0  0  0  0  0  0  0  0  0  0
    0.0030   -0.7770   -2.5710 C   0  0  0  0  0  0  0  0  0  0  0  0
    0.8200    0.3280   -3.2420 C   0  0  0  0  0  0  0  0  0  0  0  0
   -0.6540   -0.1450   -1.3730 C   0  0  0  0  0  0  0  0  0  0  0  0
    0.4040    0.3060   -0.3920 C   0  0  2  0  0  0  0  0  0  0  0  0
    1.1730   -0.8080    0.0880 N   0  0  0  0  0  0  0  0  0  0  0  0
   -0.1430    1.1740    0.6690 C   0  0  0  0  0  0  0  0  0  0  0  0
   -0.8260    2.1670    0.3120 O   0  0  0  0  0  0  0  0  0  0  0  0
   -1.4560   -0.4520   -4.1770 H   0  0  0  0  0  0  0  0  0  0  0  0
   -1.7800   -1.9090   -3.0870 H   0  0  0  0  0  0  0  0  0  0  0  0
   -0.4620   -1.9290   -4.2870 H   0  0  0  0  0  0  0  0  0  0  0  0
    0.6430   -1.6070   -2.2830 H   0  0  0  0  0  0  0  0  0  0  0  0
    0.3510    1.2900   -2.9890 H   0  0  0  0  0  0  0  0  0  0  0  0
    1.8680    0.3510   -2.8930 H   0  0  0  0  0  0  0  0  0  0  0  0
    0.8190    0.1320   -4.3360 H   0  0  0  0  0  0  0  0  0  0  0  0
   -1.1790    0.8210   -1.7200 H   0  0  0  0  0  0  0  0  0  0  0  0
   -1.4040   -0.8180   -0.9410 H   0  0  0  0  0  0  0  0  0  0  0  0
    1.1270    0.8790   -1.0800 H   0  0  0  0  0  0  0  0  0  0  0  0
    2.1910   -0.6040    0.3980 H   0  0  0  0  0  0  0  0  0  0  0  0
   -3.4050   -0.4450    4.1240 N   0  0  0  0  0  0  0  0  0  0  0  0
   -2.4640    0.3250    3.4040 C   0  0  0  0  0  0  0  0  0  0  0  0
   -2.6330    0.4820    2.1690 O   0  0  0  0  0  0  0  0  0  0  0  0
   -1.3000    0.9440    4.0440 C   0  0  0  0  0  0  0  0  0  0  0  0
   -0.4250    1.7210    3.0950 C   0  0  2  0  0  0  0  0  0  0  0  0
    0.1070    0.8780    2.0320 N   0  0  0  0  0  0  0  0  0  0  0  0
    0.7000    2.2520    3.9060 C   0  0  0  0  0  0  0  0  0  0  0  0
    1.8680    1.9280    3.5900 O   0  0  0  0  0  0  0  0  0  0  0  0
    0.5290    3.0890    4.9950 O   0  0  0  0  0  0  0  0  0  0  0  0
   -3.5680   -0.2970    5.1370 H   0  0  0  0  0  0  0  0  0  0  0  0
   -3.9520   -1.1780    3.6370 H   0  0  0  0  0  0  0  0  0  0  0  0
   -1.6860    1.6830    4.7880 H   0  0  0  0  0  0  0  0  0  0  0  0
   -0.6950    0.2240    4.6340 H   0  0  0  0  0  0  0  0  0  0  0  0
   -1.0440    2.5480    2.6730 H   0  0  0  0  0  0  0  0  0  0  0  0
    0.6810    0.0410    2.2750 H   0  0  0  0  0  0  0  0  0  0  0  0
  2  9  1  0  0  0  0
  2  1  1  0  0  0  0
  3 10  1  6  0  0  0
  3  4  1  0  0  0  0
  3  2  1  0  0  0  0
  4 12  1  0  0  0  0
  5  3  1  0  0  0  0
  6  5  2  0  0  0  0
  7  1  1  0  0  0  0
  8  2  1  0  0  0  0
 11  4  1  0  0  0  0
 13 22  1  0  0  0  0
 13 14  1  0  0  0  0
 14 24  1  0  0  0  0
 14 16  1  0  0  0  0
 15 25  1  0  0  0  0
 15 26  1  0  0  0  0
 15 14  1  0  0  0  0
 16 29  1  0  0  0  0
 16 17  1  0  0  0  0
 17 30  1  6  0  0  0
 17 18  1  0  0  0  0
 17 19  1  0  0  0  0
 18  5  1  0  0  0  0
 18 31  1  0  0  0  0
 19 37  1  0  0  0  0
 20 19  2  0  0  0  0
 21 13  1  0  0  0  0
 23 13  1  0  0  0  0
 27 15  1  0  0  0  0
 28 16  1  0  0  0  0
 32 41  1  0  0  0  0
 33 35  1  0  0  0  0
 33 32  1  0  0  0  0
 34 33  2  0  0  0  0
 35 44  1  0  0  0  0
 35 43  1  0  0  0  0
 36 45  1  6  0  0  0
 36 38  1  0  0  0  0
 36 35  1  0  0  0  0
 37 46  1  0  0  0  0
 37 36  1  0  0  0  0
 38 40  1  0  0  0  0
 39 38  2  0  0  0  0
 42 32  1  0  0  0  0
M  END
$$$$
