SLP.pdb
 OpenBabel07022419083D

 46 46  0  0  1  0  0  0  0  0999 V2000
   -0.1460   -2.5460   -3.0140 O   0  0  0  0  0  0  0  0  0  0  0  0
    0.5080   -3.7090   -2.6270 C   0  0  0  0  0  0  0  0  0  0  0  0
    1.8350   -3.4270   -1.9750 C   0  0  2  0  0  0  0  0  0  0  0  0
    2.4310   -4.6980   -1.6120 N   0  0  0  0  0  0  0  0  0  0  0  0
    1.6510   -2.6360   -0.7190 C   0  0  0  0  0  0  0  0  0  0  0  0
    1.9950   -3.1070    0.3850 O   0  0  0  0  0  0  0  0  0  0  0  0
   -1.0170   -2.7790   -3.3870 H   0  0  0  0  0  0  0  0  0  0  0  0
   -0.1630   -4.2230   -1.8910 H   0  0  0  0  0  0  0  0  0  0  0  0
    0.7010   -4.3560   -3.5090 H   0  0  0  0  0  0  0  0  0  0  0  0
    2.4860   -2.8820   -2.6870 H   0  0  0  0  0  0  0  0  0  0  0  0
    2.9970   -4.5930   -0.7420 H   0  0  0  0  0  0  0  0  0  0  0  0
    1.6460   -5.3530   -1.3890 H   0  0  0  0  0  0  0  0  0  0  0  0
    0.7920    2.4530    1.7020 C   0  0  0  0  0  0  0  0  0  0  0  0
    1.9910    1.6370    1.3270 C   0  0  0  0  0  0  0  0  0  0  0  0
    3.0320    2.6190    0.7480 C   0  0  0  0  0  0  0  0  0  0  0  0
    1.8110    0.5800    0.3380 C   0  0  0  0  0  0  0  0  0  0  0  0
    0.9240   -0.5860    0.5520 C   0  0  2  0  0  0  0  0  0  0  0  0
    1.0840   -1.3360   -0.7490 N   0  0  0  0  0  0  0  0  0  0  0  0
   -0.5130   -0.3430    0.6870 C   0  0  0  0  0  0  0  0  0  0  0  0
   -1.1910   -0.3290   -0.4080 O   0  0  0  0  0  0  0  0  0  0  0  0
    1.0290    3.5400    1.4750 H   0  0  0  0  0  0  0  0  0  0  0  0
    0.5440    2.4370    2.7570 H   0  0  0  0  0  0  0  0  0  0  0  0
   -0.0750    2.1950    1.0460 H   0  0  0  0  0  0  0  0  0  0  0  0
    2.4830    1.2920    2.2800 H   0  0  0  0  0  0  0  0  0  0  0  0
    2.7040    2.8280   -0.2870 H   0  0  0  0  0  0  0  0  0  0  0  0
    2.9680    3.5860    1.2990 H   0  0  0  0  0  0  0  0  0  0  0  0
    4.0420    2.1840    0.7850 H   0  0  0  0  0  0  0  0  0  0  0  0
    1.5650    1.0600   -0.6540 H   0  0  0  0  0  0  0  0  0  0  0  0
    2.8460    0.1430    0.1250 H   0  0  0  0  0  0  0  0  0  0  0  0
    1.3130   -1.2520    1.3430 H   0  0  0  0  0  0  0  0  0  0  0  0
    0.7800   -0.8950   -1.6420 H   0  0  0  0  0  0  0  0  0  0  0  0
   -1.2160   -0.1360    1.9190 N   0  0  0  0  0  0  0  0  0  0  0  0
   -0.7730   -0.0960    3.2760 C   0  0  0  0  0  0  0  0  0  0  0  0
   -1.7930   -1.0210    3.9420 C   0  0  0  0  0  0  0  0  0  0  0  0
   -3.0270   -0.9450    3.0960 C   0  0  0  0  0  0  0  0  0  0  0  0
   -2.6500    0.0290    2.0000 C   0  0  1  0  0  0  0  0  0  0  0  0
   -3.1010    1.3680    2.4180 C   0  0  0  0  0  0  0  0  0  0  0  0
   -2.2990    2.2820    2.6150 O   0  0  0  0  0  0  0  0  0  0  0  0
   -4.4540    1.6680    2.6100 O   0  0  0  0  0  0  0  0  0  0  0  0
    0.2540   -0.4510    3.4300 H   0  0  0  0  0  0  0  0  0  0  0  0
   -0.8780    0.8960    3.7120 H   0  0  0  0  0  0  0  0  0  0  0  0
   -1.4530   -2.0560    3.9950 H   0  0  0  0  0  0  0  0  0  0  0  0
   -1.9640   -0.6720    4.9950 H   0  0  0  0  0  0  0  0  0  0  0  0
   -3.3050   -1.9200    2.6480 H   0  0  0  0  0  0  0  0  0  0  0  0
   -3.8890   -0.5210    3.6810 H   0  0  0  0  0  0  0  0  0  0  0  0
   -3.1370   -0.2720    1.0280 H   0  0  0  0  0  0  0  0  0  0  0  0
  1  2  1  0  0  0  0
  2  3  1  0  0  0  0
  2  8  1  0  0  0  0
  3 10  1  6  0  0  0
  3  4  1  0  0  0  0
  3  5  1  0  0  0  0
  4 12  1  0  0  0  0
  4 11  1  0  0  0  0
  5  6  2  0  0  0  0
  7  1  1  0  0  0  0
  9  2  1  0  0  0  0
 13 22  1  0  0  0  0
 14 13  1  0  0  0  0
 14 24  1  0  0  0  0
 15 27  1  0  0  0  0
 15 26  1  0  0  0  0
 15 14  1  0  0  0  0
 16 17  1  0  0  0  0
 16 14  1  0  0  0  0
 17 19  1  0  0  0  0
 17 30  1  1  0  0  0
 18  5  1  0  0  0  0
 18 17  1  0  0  0  0
 19 32  1  0  0  0  0
 20 19  2  0  0  0  0
 21 13  1  0  0  0  0
 23 13  1  0  0  0  0
 25 15  1  0  0  0  0
 28 16  1  0  0  0  0
 29 16  1  0  0  0  0
 31 18  1  0  0  0  0
 32 36  1  0  0  0  0
 32 33  1  0  0  0  0
 33 40  1  0  0  0  0
 33 41  1  0  0  0  0
 33 34  1  0  0  0  0
 34 42  1  0  0  0  0
 34 43  1  0  0  0  0
 35 45  1  0  0  0  0
 35 34  1  0  0  0  0
 36 46  1  6  0  0  0
 36 37  1  0  0  0  0
 36 35  1  0  0  0  0
 37 39  2  0  0  0  0
 37 38  1  0  0  0  0
 44 35  1  0  0  0  0
M  END
$$$$
