SLQ.pdb
 OpenBabel07022419083D

 49 48  0  0  1  0  0  0  0  0999 V2000
    0.5610   -1.8190    5.7570 O   0  0  0  0  0  0  0  0  0  0  0  0
   -0.0600   -2.9800    5.3560 C   0  0  0  0  0  0  0  0  0  0  0  0
    0.3330   -3.3900    3.9530 C   0  0  2  0  0  0  0  0  0  0  0  0
    1.7860   -3.5880    3.9810 N   0  0  0  0  0  0  0  0  0  0  0  0
   -0.0010   -2.2480    3.0490 C   0  0  0  0  0  0  0  0  0  0  0  0
   -1.2170   -1.9870    2.9410 O   0  0  0  0  0  0  0  0  0  0  0  0
    0.0410   -1.3200    6.4220 H   0  0  0  0  0  0  0  0  0  0  0  0
    0.2460   -3.7950    6.0500 H   0  0  0  0  0  0  0  0  0  0  0  0
   -1.1800   -2.9140    5.4540 H   0  0  0  0  0  0  0  0  0  0  0  0
   -0.1550   -4.3210    3.6750 H   0  0  0  0  0  0  0  0  0  0  0  0
    2.0430   -4.2330    4.7620 H   0  0  0  0  0  0  0  0  0  0  0  0
    2.2050   -2.6460    4.1840 H   0  0  0  0  0  0  0  0  0  0  0  0
   -0.7940    2.5500    1.3050 C   0  0  0  0  0  0  0  0  0  0  0  0
    0.6770    2.2070    1.5050 C   0  0  0  0  0  0  0  0  0  0  0  0
    1.5710    2.6910    0.4090 C   0  0  0  0  0  0  0  0  0  0  0  0
    0.9380    0.8980    2.0830 C   0  0  0  0  0  0  0  0  0  0  0  0
    0.5040   -0.3790    1.4780 C   0  0  2  0  0  0  0  0  0  0  0  0
    0.9390   -1.4970    2.3530 N   0  0  0  0  0  0  0  0  0  0  0  0
    0.8240   -0.6960    0.0990 C   0  0  0  0  0  0  0  0  0  0  0  0
    1.5460   -1.7200   -0.2170 O   0  0  0  0  0  0  0  0  0  0  0  0
   -1.2870    2.9240    2.2270 H   0  0  0  0  0  0  0  0  0  0  0  0
   -0.9230    3.3520    0.5490 H   0  0  0  0  0  0  0  0  0  0  0  0
   -1.3750    1.6200    1.0330 H   0  0  0  0  0  0  0  0  0  0  0  0
    0.9450    2.9320    2.3760 H   0  0  0  0  0  0  0  0  0  0  0  0
    2.3360    3.4570    0.7470 H   0  0  0  0  0  0  0  0  0  0  0  0
    0.9990    3.2800   -0.3690 H   0  0  0  0  0  0  0  0  0  0  0  0
    2.2070    1.8990   -0.0400 H   0  0  0  0  0  0  0  0  0  0  0  0
    0.6400    0.9340    3.1870 H   0  0  0  0  0  0  0  0  0  0  0  0
    2.0710    0.8090    2.1890 H   0  0  0  0  0  0  0  0  0  0  0  0
   -0.6050   -0.3920    1.5670 H   0  0  0  0  0  0  0  0  0  0  0  0
    1.9410   -1.6760    2.4120 H   0  0  0  0  0  0  0  0  0  0  0  0
   -3.4060   -3.1990   -2.6150 N   0  0  0  0  0  0  0  0  0  0  0  0
   -2.5300   -2.1690   -3.0650 C   0  0  0  0  0  0  0  0  0  0  0  0
   -2.8490   -1.5180   -4.0880 O   0  0  0  0  0  0  0  0  0  0  0  0
   -1.2620   -1.8550   -2.3580 C   0  0  0  0  0  0  0  0  0  0  0  0
   -0.5550   -0.7360   -3.0670 C   0  0  0  0  0  0  0  0  0  0  0  0
    0.7520   -0.3640   -2.3880 C   0  0  2  0  0  0  0  0  0  0  0  0
    0.3920    0.0480   -1.0310 N   0  0  0  0  0  0  0  0  0  0  0  0
    1.3590    0.7070   -3.1820 C   0  0  0  0  0  0  0  0  0  0  0  0
    1.7540    0.5210   -4.3810 O   0  0  0  0  0  0  0  0  0  0  0  0
    1.5480    1.9830   -2.7030 O   0  0  0  0  0  0  0  0  0  0  0  0
   -3.4810   -4.0460   -3.2030 H   0  0  0  0  0  0  0  0  0  0  0  0
   -3.9600   -3.1340   -1.7400 H   0  0  0  0  0  0  0  0  0  0  0  0
   -1.4990   -1.6480   -1.3180 H   0  0  0  0  0  0  0  0  0  0  0  0
   -0.6130   -2.7650   -2.3850 H   0  0  0  0  0  0  0  0  0  0  0  0
   -0.3920   -1.0100   -4.1290 H   0  0  0  0  0  0  0  0  0  0  0  0
   -1.1830    0.1800   -3.0660 H   0  0  0  0  0  0  0  0  0  0  0  0
    1.4470   -1.2490   -2.3650 H   0  0  0  0  0  0  0  0  0  0  0  0
   -0.1990    0.9020   -0.9470 H   0  0  0  0  0  0  0  0  0  0  0  0
  1  7  1  0  0  0  0
  2  9  1  0  0  0  0
  2  1  1  0  0  0  0
  2  8  1  0  0  0  0
  3 10  1  6  0  0  0
  3  4  1  0  0  0  0
  3  2  1  0  0  0  0
  4 12  1  0  0  0  0
  4 11  1  0  0  0  0
  5  3  1  0  0  0  0
  6  5  2  0  0  0  0
 13 14  1  0  0  0  0
 13 21  1  0  0  0  0
 14 16  1  0  0  0  0
 14 24  1  0  0  0  0
 15 25  1  0  0  0  0
 15 14  1  0  0  0  0
 16 29  1  0  0  0  0
 16 28  1  0  0  0  0
 17 30  1  1  0  0  0
 17 16  1  0  0  0  0
 17 18  1  0  0  0  0
 18 31  1  0  0  0  0
 18  5  1  0  0  0  0
 19 17  1  0  0  0  0
 20 19  2  0  0  0  0
 22 13  1  0  0  0  0
 23 13  1  0  0  0  0
 26 15  1  0  0  0  0
 27 15  1  0  0  0  0
 32 43  1  0  0  0  0
 33 32  1  0  0  0  0
 33 35  1  0  0  0  0
 34 33  2  0  0  0  0
 35 44  1  0  0  0  0
 36 47  1  0  0  0  0
 36 37  1  0  0  0  0
 36 35  1  0  0  0  0
 37 48  1  1  0  0  0
 37 38  1  0  0  0  0
 38 49  1  0  0  0  0
 38 19  1  0  0  0  0
 39 41  1  0  0  0  0
 39 37  1  0  0  0  0
 40 39  2  0  0  0  0
 42 32  1  0  0  0  0
 45 35  1  0  0  0  0
 46 36  1  0  0  0  0
M  END
$$$$
