SLR.pdb
 OpenBabel07022419083D

 55 54  0  0  1  0  0  0  0  0999 V2000
    5.2440   -2.3930    1.3710 O   0  0  0  0  0  0  0  0  0  0  0  0
    4.6330   -3.4700    1.9690 C   0  0  0  0  0  0  0  0  0  0  0  0
    3.1530   -3.4460    1.6670 C   0  0  2  0  0  0  0  0  0  0  0  0
    2.9830   -3.5080    0.2350 N   0  0  0  0  0  0  0  0  0  0  0  0
    2.5020   -2.2040    2.1550 C   0  0  0  0  0  0  0  0  0  0  0  0
    2.4910   -1.8900    3.3700 O   0  0  0  0  0  0  0  0  0  0  0  0
    5.7100   -2.6670    0.5280 H   0  0  0  0  0  0  0  0  0  0  0  0
    5.0300   -4.3980    1.5200 H   0  0  0  0  0  0  0  0  0  0  0  0
    4.8430   -3.5400    3.0610 H   0  0  0  0  0  0  0  0  0  0  0  0
    2.6470   -4.3570    2.0810 H   0  0  0  0  0  0  0  0  0  0  0  0
    2.4270   -4.3320   -0.0750 H   0  0  0  0  0  0  0  0  0  0  0  0
    3.8920   -3.5290   -0.2380 H   0  0  0  0  0  0  0  0  0  0  0  0
    1.7400    3.5330    0.5540 C   0  0  0  0  0  0  0  0  0  0  0  0
    1.1050    2.3470    1.2880 C   0  0  0  0  0  0  0  0  0  0  0  0
    1.1100    2.5960    2.7690 C   0  0  0  0  0  0  0  0  0  0  0  0
    1.7840    1.0640    0.9040 C   0  0  0  0  0  0  0  0  0  0  0  0
    1.1990   -0.0920    1.6130 C   0  0  2  0  0  0  0  0  0  0  0  0
    1.8750   -1.3450    1.2420 N   0  0  0  0  0  0  0  0  0  0  0  0
   -0.2250   -0.3080    1.3440 C   0  0  0  0  0  0  0  0  0  0  0  0
   -1.0670    0.5550    1.6600 O   0  0  0  0  0  0  0  0  0  0  0  0
    2.0060    3.2670   -0.4720 H   0  0  0  0  0  0  0  0  0  0  0  0
    2.6000    3.9210    1.1380 H   0  0  0  0  0  0  0  0  0  0  0  0
    0.9680    4.3250    0.5160 H   0  0  0  0  0  0  0  0  0  0  0  0
    0.0260    2.3360    0.9580 H   0  0  0  0  0  0  0  0  0  0  0  0
    0.0950    2.5610    3.1910 H   0  0  0  0  0  0  0  0  0  0  0  0
    1.4890    3.6420    2.9360 H   0  0  0  0  0  0  0  0  0  0  0  0
    1.8060    1.9410    3.3290 H   0  0  0  0  0  0  0  0  0  0  0  0
    2.8600    1.2010    1.1780 H   0  0  0  0  0  0  0  0  0  0  0  0
    1.7700    0.9600   -0.2050 H   0  0  0  0  0  0  0  0  0  0  0  0
    1.3490    0.0220    2.7020 H   0  0  0  0  0  0  0  0  0  0  0  0
    1.8590   -1.5550    0.2260 H   0  0  0  0  0  0  0  0  0  0  0  0
   -2.4930    1.2660   -3.1130 N   0  0  0  0  0  0  0  0  0  0  0  0
   -3.2690    0.8310   -2.0100 C   0  0  0  0  0  0  0  0  0  0  0  0
   -2.9840    1.2290   -0.8190 N   0  0  0  0  0  0  0  0  0  0  0  0
   -4.3630   -0.0350   -2.2200 N   0  0  0  0  0  0  0  0  0  0  0  0
   -4.6830   -1.1500   -1.3630 C   0  0  0  0  0  0  0  0  0  0  0  0
   -3.7290   -2.2890   -1.4190 C   0  0  0  0  0  0  0  0  0  0  0  0
   -2.3400   -2.0510   -0.9730 C   0  0  0  0  0  0  0  0  0  0  0  0
   -2.1470   -1.6870    0.4610 C   0  0  2  0  0  0  0  0  0  0  0  0
   -0.7310   -1.4810    0.7220 N   0  0  0  0  0  0  0  0  0  0  0  0
   -2.5440   -2.8970    1.2820 C   0  0  0  0  0  0  0  0  0  0  0  0
   -1.7030   -3.5120    1.9850 O   0  0  0  0  0  0  0  0  0  0  0  0
   -3.8410   -3.3810    1.2960 O   0  0  0  0  0  0  0  0  0  0  0  0
   -2.1940    0.6830   -3.9210 H   0  0  0  0  0  0  0  0  0  0  0  0
   -2.1570    2.2770   -3.1710 H   0  0  0  0  0  0  0  0  0  0  0  0
   -2.2030    1.8650   -0.6010 H   0  0  0  0  0  0  0  0  0  0  0  0
   -4.9680    0.1660   -3.0730 H   0  0  0  0  0  0  0  0  0  0  0  0
   -5.6770   -1.5530   -1.7070 H   0  0  0  0  0  0  0  0  0  0  0  0
   -4.8880   -0.8000   -0.3240 H   0  0  0  0  0  0  0  0  0  0  0  0
   -3.6560   -2.5720   -2.5190 H   0  0  0  0  0  0  0  0  0  0  0  0
   -4.2200   -3.1860   -0.9710 H   0  0  0  0  0  0  0  0  0  0  0  0
   -1.7760   -3.0140   -1.1350 H   0  0  0  0  0  0  0  0  0  0  0  0
   -1.8700   -1.3300   -1.6770 H   0  0  0  0  0  0  0  0  0  0  0  0
   -2.7340   -0.8710    0.8550 H   0  0  0  0  0  0  0  0  0  0  0  0
   -0.0410   -2.2150    0.4490 H   0  0  0  0  0  0  0  0  0  0  0  0
  1  2  1  0  0  0  0
  2  9  1  0  0  0  0
  3  2  1  0  0  0  0
  3 10  1  1  0  0  0
  3  5  1  0  0  0  0
  4  3  1  0  0  0  0
  5  6  2  0  0  0  0
  7  1  1  0  0  0  0
  8  2  1  0  0  0  0
 11  4  1  0  0  0  0
 12  4  1  0  0  0  0
 13 22  1  0  0  0  0
 13 14  1  0  0  0  0
 14 15  1  0  0  0  0
 15 26  1  0  0  0  0
 15 25  1  0  0  0  0
 15 27  1  0  0  0  0
 16 28  1  0  0  0  0
 16 14  1  0  0  0  0
 16 17  1  0  0  0  0
 17 30  1  1  0  0  0
 18 17  1  0  0  0  0
 18  5  1  0  0  0  0
 19 17  1  0  0  0  0
 19 20  2  0  0  0  0
 21 13  1  0  0  0  0
 23 13  1  0  0  0  0
 24 14  1  0  0  0  0
 29 16  1  0  0  0  0
 31 18  1  0  0  0  0
 32 33  1  0  0  0  0
 33 34  2  0  0  0  0
 34 46  1  0  0  0  0
 35 33  1  0  0  0  0
 35 36  1  0  0  0  0
 36 49  1  0  0  0  0
 37 36  1  0  0  0  0
 37 38  1  0  0  0  0
 37 51  1  0  0  0  0
 38 39  1  0  0  0  0
 39 40  1  0  0  0  0
 39 54  1  1  0  0  0
 39 41  1  0  0  0  0
 40 19  1  0  0  0  0
 41 43  2  0  0  0  0
 41 42  1  0  0  0  0
 44 32  1  0  0  0  0
 45 32  1  0  0  0  0
 47 35  1  0  0  0  0
 48 36  1  0  0  0  0
 50 37  1  0  0  0  0
 52 38  1  0  0  0  0
 53 38  1  0  0  0  0
 55 40  1  0  0  0  0
M  END
$$$$
