SLS.pdb
 OpenBabel07022419083D

 43 42  0  0  1  0  0  0  0  0999 V2000
   -1.4180   -5.8580    1.5670 O   0  0  0  0  0  0  0  0  0  0  0  0
   -0.9030   -4.5600    1.7040 C   0  0  0  0  0  0  0  0  0  0  0  0
    0.4290   -4.5540    0.9780 C   0  0  2  0  0  0  0  0  0  0  0  0
    1.2750   -5.5390    1.6080 N   0  0  0  0  0  0  0  0  0  0  0  0
    1.0900   -3.2240    1.0430 C   0  0  0  0  0  0  0  0  0  0  0  0
    2.2260   -3.1160    1.5970 O   0  0  0  0  0  0  0  0  0  0  0  0
   -2.3790   -5.9040    1.7710 H   0  0  0  0  0  0  0  0  0  0  0  0
   -1.6280   -3.8560    1.2170 H   0  0  0  0  0  0  0  0  0  0  0  0
   -0.8010   -4.3630    2.7830 H   0  0  0  0  0  0  0  0  0  0  0  0
    0.2120   -4.8520   -0.0730 H   0  0  0  0  0  0  0  0  0  0  0  0
    1.0060   -5.7540    2.5900 H   0  0  0  0  0  0  0  0  0  0  0  0
    2.2750   -5.2400    1.6330 H   0  0  0  0  0  0  0  0  0  0  0  0
   -0.7320    0.9080   -1.4330 C   0  0  0  0  0  0  0  0  0  0  0  0
    0.3570   -0.0220   -1.7680 C   0  0  0  0  0  0  0  0  0  0  0  0
    1.0260    0.5000   -3.0520 C   0  0  0  0  0  0  0  0  0  0  0  0
    1.4370   -0.2540   -0.7960 C   0  0  0  0  0  0  0  0  0  0  0  0
    1.0740   -0.8090    0.5420 C   0  0  2  0  0  0  0  0  0  0  0  0
    0.4290   -2.0980    0.4780 N   0  0  0  0  0  0  0  0  0  0  0  0
    0.3250    0.1310    1.4140 C   0  0  0  0  0  0  0  0  0  0  0  0
   -0.7330   -0.3050    1.9780 O   0  0  0  0  0  0  0  0  0  0  0  0
   -1.1060    0.9480   -0.4210 H   0  0  0  0  0  0  0  0  0  0  0  0
   -0.4980    1.9750   -1.7260 H   0  0  0  0  0  0  0  0  0  0  0  0
   -1.6190    0.6560   -2.0870 H   0  0  0  0  0  0  0  0  0  0  0  0
   -0.0590   -1.0260   -2.0850 H   0  0  0  0  0  0  0  0  0  0  0  0
    1.7360   -0.2230   -3.4600 H   0  0  0  0  0  0  0  0  0  0  0  0
    0.2550    0.8300   -3.7840 H   0  0  0  0  0  0  0  0  0  0  0  0
    1.6050    1.4340   -2.8030 H   0  0  0  0  0  0  0  0  0  0  0  0
    1.9720    0.7220   -0.5870 H   0  0  0  0  0  0  0  0  0  0  0  0
    2.2150   -0.8800   -1.2830 H   0  0  0  0  0  0  0  0  0  0  0  0
    2.0440   -0.9700    1.0680 H   0  0  0  0  0  0  0  0  0  0  0  0
   -0.5130   -2.2420    0.0290 H   0  0  0  0  0  0  0  0  0  0  0  0
    1.8500    3.5640    3.2650 O   0  0  0  0  0  0  0  0  0  0  0  0
    0.7340    2.8420    3.6950 C   0  0  0  0  0  0  0  0  0  0  0  0
   -0.0790    2.3300    2.5250 C   0  0  2  0  0  0  0  0  0  0  0  0
    0.6810    1.4560    1.6700 N   0  0  0  0  0  0  0  0  0  0  0  0
   -0.5540    3.5300    1.7790 C   0  0  0  0  0  0  0  0  0  0  0  0
   -1.2320    4.4260    2.3110 O   0  0  0  0  0  0  0  0  0  0  0  0
   -0.2230    3.6410    0.4440 O   0  0  0  0  0  0  0  0  0  0  0  0
    2.5910    3.3540    3.8840 H   0  0  0  0  0  0  0  0  0  0  0  0
    0.0730    3.5950    4.2110 H   0  0  0  0  0  0  0  0  0  0  0  0
    0.9650    2.0770    4.4390 H   0  0  0  0  0  0  0  0  0  0  0  0
   -0.9740    1.8410    2.9540 H   0  0  0  0  0  0  0  0  0  0  0  0
    1.5390    1.8470    1.2270 H   0  0  0  0  0  0  0  0  0  0  0  0
  1  2  1  0  0  0  0
  1  7  1  0  0  0  0
  2  9  1  0  0  0  0
  3 10  1  6  0  0  0
  3  5  1  0  0  0  0
  3  4  1  0  0  0  0
  3  2  1  0  0  0  0
  4 12  1  0  0  0  0
  4 11  1  0  0  0  0
  5  6  2  0  0  0  0
  8  2  1  0  0  0  0
 13 21  1  0  0  0  0
 14 13  1  0  0  0  0
 14 16  1  0  0  0  0
 15 27  1  0  0  0  0
 15 14  1  0  0  0  0
 16 28  1  0  0  0  0
 16 17  1  0  0  0  0
 17 30  1  1  0  0  0
 17 19  1  0  0  0  0
 18 17  1  0  0  0  0
 18  5  1  0  0  0  0
 19 35  1  0  0  0  0
 19 20  2  0  0  0  0
 22 13  1  0  0  0  0
 23 13  1  0  0  0  0
 24 14  1  0  0  0  0
 25 15  1  0  0  0  0
 26 15  1  0  0  0  0
 29 16  1  0  0  0  0
 31 18  1  0  0  0  0
 32 33  1  0  0  0  0
 32 39  1  0  0  0  0
 33 40  1  0  0  0  0
 33 41  1  0  0  0  0
 34 42  1  1  0  0  0
 34 33  1  0  0  0  0
 35 34  1  0  0  0  0
 36 37  1  0  0  0  0
 36 34  1  0  0  0  0
 38 36  2  0  0  0  0
 43 35  1  0  0  0  0
M  END
$$$$
