SLT.pdb
 OpenBabel07022419083D

 46 45  0  0  1  0  0  0  0  0999 V2000
    1.4490    1.6730    2.9410 O   0  0  0  0  0  0  0  0  0  0  0  0
    2.4390    2.2410    2.1610 C   0  0  0  0  0  0  0  0  0  0  0  0
    3.3510    1.2360    1.5430 C   0  0  2  0  0  0  0  0  0  0  0  0
    4.3500    1.9780    0.7680 N   0  0  0  0  0  0  0  0  0  0  0  0
    2.6690    0.3130    0.6050 C   0  0  0  0  0  0  0  0  0  0  0  0
    3.0300    0.2840   -0.6050 O   0  0  0  0  0  0  0  0  0  0  0  0
    1.0810    2.3850    3.5190 H   0  0  0  0  0  0  0  0  0  0  0  0
    1.9240    2.8770    1.3890 H   0  0  0  0  0  0  0  0  0  0  0  0
    2.9930    2.9490    2.8140 H   0  0  0  0  0  0  0  0  0  0  0  0
    3.8930    0.6540    2.3120 H   0  0  0  0  0  0  0  0  0  0  0  0
    3.9520    2.4060   -0.0840 H   0  0  0  0  0  0  0  0  0  0  0  0
    4.8210    2.6410    1.4060 H   0  0  0  0  0  0  0  0  0  0  0  0
   -0.7220   -4.1420   -0.2040 C   0  0  0  0  0  0  0  0  0  0  0  0
    0.7630   -4.0450   -0.0640 C   0  0  0  0  0  0  0  0  0  0  0  0
    1.4270   -4.3380   -1.4000 C   0  0  0  0  0  0  0  0  0  0  0  0
    1.2150   -2.8090    0.5630 C   0  0  0  0  0  0  0  0  0  0  0  0
    0.9860   -1.4730   -0.0180 C   0  0  2  0  0  0  0  0  0  0  0  0
    1.6270   -0.5540    0.9780 N   0  0  0  0  0  0  0  0  0  0  0  0
   -0.3860   -0.9850   -0.1610 C   0  0  0  0  0  0  0  0  0  0  0  0
   -1.1070   -1.4360   -1.0800 O   0  0  0  0  0  0  0  0  0  0  0  0
   -1.2690   -3.5220    0.5120 H   0  0  0  0  0  0  0  0  0  0  0  0
   -1.0380   -4.0570   -1.2640 H   0  0  0  0  0  0  0  0  0  0  0  0
   -1.0450   -5.2060    0.0890 H   0  0  0  0  0  0  0  0  0  0  0  0
    1.0720   -4.9160    0.6040 H   0  0  0  0  0  0  0  0  0  0  0  0
    0.8670   -5.2030   -1.8280 H   0  0  0  0  0  0  0  0  0  0  0  0
    1.2190   -3.4820   -2.0640 H   0  0  0  0  0  0  0  0  0  0  0  0
    2.4760   -4.6150   -1.3150 H   0  0  0  0  0  0  0  0  0  0  0  0
    2.3470   -2.8650    0.7280 H   0  0  0  0  0  0  0  0  0  0  0  0
    0.8510   -2.7430    1.6490 H   0  0  0  0  0  0  0  0  0  0  0  0
    1.5890   -1.3030   -0.9520 H   0  0  0  0  0  0  0  0  0  0  0  0
    1.3140   -0.5490    1.9630 H   0  0  0  0  0  0  0  0  0  0  0  0
   -2.6820    0.7050    3.0280 C   0  0  0  0  0  0  0  0  0  0  0  0
   -3.1820    0.1430    1.7350 C   0  0  1  0  0  0  0  0  0  0  0  0
   -4.4670    0.6490    1.5360 O   0  0  0  0  0  0  0  0  0  0  0  0
   -2.3220    0.4690    0.5510 C   0  0  2  0  0  0  0  0  0  0  0  0
   -0.9650   -0.0240    0.6790 N   0  0  0  0  0  0  0  0  0  0  0  0
   -2.3380    1.9180    0.2010 C   0  0  0  0  0  0  0  0  0  0  0  0
   -1.2720    2.5750    0.0470 O   0  0  0  0  0  0  0  0  0  0  0  0
   -3.5180    2.6250    0.0260 O   0  0  0  0  0  0  0  0  0  0  0  0
   -1.8840    1.4410    2.9380 H   0  0  0  0  0  0  0  0  0  0  0  0
   -3.5020    1.2000    3.6260 H   0  0  0  0  0  0  0  0  0  0  0  0
   -2.3550   -0.1510    3.6650 H   0  0  0  0  0  0  0  0  0  0  0  0
   -3.3010   -0.9650    1.7740 H   0  0  0  0  0  0  0  0  0  0  0  0
   -4.9750    0.4460    2.3630 H   0  0  0  0  0  0  0  0  0  0  0  0
   -2.7600   -0.0700   -0.3180 H   0  0  0  0  0  0  0  0  0  0  0  0
   -0.3860    0.3660    1.4500 H   0  0  0  0  0  0  0  0  0  0  0  0
  1  7  1  0  0  0  0
  2  9  1  0  0  0  0
  2  1  1  0  0  0  0
  3  2  1  0  0  0  0
  3 10  1  1  0  0  0
  4 12  1  0  0  0  0
  4  3  1  0  0  0  0
  5 18  1  0  0  0  0
  5  3  1  0  0  0  0
  6  5  2  0  0  0  0
  8  2  1  0  0  0  0
 11  4  1  0  0  0  0
 13 14  1  0  0  0  0
 13 23  1  0  0  0  0
 13 21  1  0  0  0  0
 14 16  1  0  0  0  0
 14 24  1  0  0  0  0
 15 27  1  0  0  0  0
 15 14  1  0  0  0  0
 16 28  1  0  0  0  0
 16 29  1  0  0  0  0
 17 30  1  6  0  0  0
 17 16  1  0  0  0  0
 17 18  1  0  0  0  0
 18 31  1  0  0  0  0
 19 17  1  0  0  0  0
 19 36  1  0  0  0  0
 20 19  2  0  0  0  0
 22 13  1  0  0  0  0
 25 15  1  0  0  0  0
 26 15  1  0  0  0  0
 32 41  1  0  0  0  0
 32 42  1  0  0  0  0
 33 43  1  1  0  0  0
 33 32  1  0  0  0  0
 34 33  1  0  0  0  0
 34 44  1  0  0  0  0
 35 45  1  6  0  0  0
 35 36  1  0  0  0  0
 35 33  1  0  0  0  0
 36 46  1  0  0  0  0
 37 35  1  0  0  0  0
 38 37  1  0  0  0  0
 39 37  2  0  0  0  0
 40 32  1  0  0  0  0
M  END
$$$$
