SLW.pdb
 OpenBabel07022419083D

 56 57  0  0  1  0  0  0  0  0999 V2000
    5.3110   -2.6620   -1.7300 O   0  0  0  0  0  0  0  0  0  0  0  0
    4.7100   -1.7150   -0.8760 C   0  0  0  0  0  0  0  0  0  0  0  0
    3.3420   -2.2650   -0.5150 C   0  0  2  0  0  0  0  0  0  0  0  0
    2.5130   -2.4630   -1.6890 N   0  0  0  0  0  0  0  0  0  0  0  0
    2.6680   -1.4320    0.5060 C   0  0  0  0  0  0  0  0  0  0  0  0
    3.2970   -1.1880    1.5650 O   0  0  0  0  0  0  0  0  0  0  0  0
    4.6090   -3.1340   -2.2540 H   0  0  0  0  0  0  0  0  0  0  0  0
    4.6710   -0.7620   -1.4050 H   0  0  0  0  0  0  0  0  0  0  0  0
    5.3040   -1.6700    0.0560 H   0  0  0  0  0  0  0  0  0  0  0  0
    3.5420   -3.3050   -0.1200 H   0  0  0  0  0  0  0  0  0  0  0  0
    2.3870   -1.6080   -2.2500 H   0  0  0  0  0  0  0  0  0  0  0  0
    1.6230   -2.8900   -1.3600 H   0  0  0  0  0  0  0  0  0  0  0  0
    2.3960    2.4070    1.4290 C   0  0  0  0  0  0  0  0  0  0  0  0
    1.3670    2.1140    0.3620 C   0  0  0  0  0  0  0  0  0  0  0  0
    0.8940    3.3660   -0.3220 C   0  0  0  0  0  0  0  0  0  0  0  0
    0.2460    1.2610    0.8610 C   0  0  0  0  0  0  0  0  0  0  0  0
    0.7000   -0.0760    1.3620 C   0  0  2  0  0  0  0  0  0  0  0  0
    1.3630   -0.8860    0.3800 N   0  0  0  0  0  0  0  0  0  0  0  0
   -0.4300   -0.8240    2.0120 C   0  0  0  0  0  0  0  0  0  0  0  0
   -1.1110   -0.2520    2.9000 O   0  0  0  0  0  0  0  0  0  0  0  0
    3.0460    3.2270    1.0080 H   0  0  0  0  0  0  0  0  0  0  0  0
    3.0350    1.5320    1.5560 H   0  0  0  0  0  0  0  0  0  0  0  0
    1.9390    2.7890    2.3620 H   0  0  0  0  0  0  0  0  0  0  0  0
    1.9050    1.5130   -0.4230 H   0  0  0  0  0  0  0  0  0  0  0  0
   -0.1320    3.2530   -0.7340 H   0  0  0  0  0  0  0  0  0  0  0  0
    0.9250    4.2440    0.3890 H   0  0  0  0  0  0  0  0  0  0  0  0
    1.5540    3.6730   -1.1660 H   0  0  0  0  0  0  0  0  0  0  0  0
   -0.1700    1.7980    1.7660 H   0  0  0  0  0  0  0  0  0  0  0  0
   -0.6050    1.2020    0.1640 H   0  0  0  0  0  0  0  0  0  0  0  0
    1.4130    0.1090    2.2040 H   0  0  0  0  0  0  0  0  0  0  0  0
    0.8720   -1.1230   -0.5340 H   0  0  0  0  0  0  0  0  0  0  0  0
   -0.7210   -2.1680    1.6210 N   0  0  0  0  0  0  0  0  0  0  0  0
   -1.7960   -2.8910    2.2350 C   0  0  1  0  0  0  0  0  0  0  0  0
   -2.9230   -3.2550    1.3270 C   0  0  0  0  0  0  0  0  0  0  0  0
   -3.5580   -2.0450    0.7350 C   0  0  0  0  0  0  0  0  0  0  0  0
   -4.7260   -1.4830    1.2340 C   0  0  0  0  0  0  0  0  0  0  0  0
   -5.0060   -0.4040    0.4950 N   0  0  0  0  0  0  0  0  0  0  0  0
   -4.0790   -0.2370   -0.4590 C   0  0  0  0  0  0  0  0  0  0  0  0
   -3.8880    0.6900   -1.4750 C   0  0  0  0  0  0  0  0  0  0  0  0
   -2.8020    0.5790   -2.3220 C   0  0  0  0  0  0  0  0  0  0  0  0
   -1.8850   -0.4390   -2.1920 C   0  0  0  0  0  0  0  0  0  0  0  0
   -2.0790   -1.3620   -1.1760 C   0  0  0  0  0  0  0  0  0  0  0  0
   -3.1640   -1.2590   -0.3210 C   0  0  0  0  0  0  0  0  0  0  0  0
   -1.3160   -4.1270    2.9100 C   0  0  0  0  0  0  0  0  0  0  0  0
   -2.1270   -4.8810    3.5000 O   0  0  0  0  0  0  0  0  0  0  0  0
    0.0180   -4.4770    2.9090 O   0  0  0  0  0  0  0  0  0  0  0  0
   -0.1010   -2.5580    0.8820 H   0  0  0  0  0  0  0  0  0  0  0  0
   -2.2510   -2.2510    3.0500 H   0  0  0  0  0  0  0  0  0  0  0  0
   -3.6730   -3.8050    1.9180 H   0  0  0  0  0  0  0  0  0  0  0  0
   -2.6160   -3.9350    0.5030 H   0  0  0  0  0  0  0  0  0  0  0  0
   -5.2800   -1.8810    2.0740 H   0  0  0  0  0  0  0  0  0  0  0  0
   -5.8370    0.2350    0.6320 H   0  0  0  0  0  0  0  0  0  0  0  0
   -4.6130    1.4850   -1.5690 H   0  0  0  0  0  0  0  0  0  0  0  0
   -2.7170    1.3400   -3.0940 H   0  0  0  0  0  0  0  0  0  0  0  0
   -1.0450   -0.5210   -2.8510 H   0  0  0  0  0  0  0  0  0  0  0  0
   -1.3680   -2.1670   -1.0760 H   0  0  0  0  0  0  0  0  0  0  0  0
  1  2  1  0  0  0  0
  2  3  1  0  0  0  0
  2  9  1  0  0  0  0
  3 10  1  1  0  0  0
  3  5  1  0  0  0  0
  4 12  1  0  0  0  0
  4  3  1  0  0  0  0
  5  6  2  0  0  0  0
  7  1  1  0  0  0  0
  8  2  1  0  0  0  0
 11  4  1  0  0  0  0
 13 22  1  0  0  0  0
 13 23  1  0  0  0  0
 14 16  1  0  0  0  0
 14 13  1  0  0  0  0
 15 14  1  0  0  0  0
 15 26  1  0  0  0  0
 16 17  1  0  0  0  0
 16 28  1  0  0  0  0
 17 19  1  0  0  0  0
 17 30  1  1  0  0  0
 18  5  1  0  0  0  0
 18 17  1  0  0  0  0
 19 20  2  0  0  0  0
 21 13  1  0  0  0  0
 24 14  1  0  0  0  0
 25 15  1  0  0  0  0
 27 15  1  0  0  0  0
 29 16  1  0  0  0  0
 31 18  1  0  0  0  0
 32 19  1  0  0  0  0
 32 33  1  0  0  0  0
 33 44  1  0  0  0  0
 33 48  1  1  0  0  0
 34 49  1  0  0  0  0
 34 33  1  0  0  0  0
 35 36  2  0  0  0  0
 35 34  1  0  0  0  0
 36 51  1  0  0  0  0
 37 52  1  0  0  0  0
 37 36  1  0  0  0  0
 38 43  1  0  0  0  0
 38 37  1  0  0  0  0
 39 38  2  0  0  0  0
 40 41  2  0  0  0  0
 40 39  1  0  0  0  0
 41 42  1  0  0  0  0
 42 56  1  0  0  0  0
 42 43  2  0  0  0  0
 43 35  1  0  0  0  0
 44 45  1  0  0  0  0
 46 44  2  0  0  0  0
 47 32  1  0  0  0  0
 50 34  1  0  0  0  0
 53 39  1  0  0  0  0
 54 40  1  0  0  0  0
 55 41  1  0  0  0  0
M  END
$$$$
