SMA.pdb
 OpenBabel07022419093D

 40 39  0  0  1  0  0  0  0  0999 V2000
    2.5650   -3.8480    2.2620 O   0  0  0  0  0  0  0  0  0  0  0  0
    1.4810   -4.1710    1.4160 C   0  0  0  0  0  0  0  0  0  0  0  0
    0.4000   -3.1290    1.5110 C   0  0  2  0  0  0  0  0  0  0  0  0
   -0.6730   -3.4940    0.6420 N   0  0  0  0  0  0  0  0  0  0  0  0
    0.9480   -1.7590    1.2080 C   0  0  0  0  0  0  0  0  0  0  0  0
    1.8920   -1.3830    1.9340 O   0  0  0  0  0  0  0  0  0  0  0  0
    2.2250   -3.4470    3.0910 H   0  0  0  0  0  0  0  0  0  0  0  0
    1.7940   -4.3540    0.3900 H   0  0  0  0  0  0  0  0  0  0  0  0
    1.0560   -5.1150    1.8420 H   0  0  0  0  0  0  0  0  0  0  0  0
    0.0880   -3.0830    2.5860 H   0  0  0  0  0  0  0  0  0  0  0  0
   -1.5580   -3.5120    1.2260 H   0  0  0  0  0  0  0  0  0  0  0  0
   -0.5830   -4.4980    0.3000 H   0  0  0  0  0  0  0  0  0  0  0  0
    4.0940   -1.0910   -0.4410 C   0  0  0  0  0  0  0  0  0  0  0  0
    3.7940   -0.1700   -1.9480 S   0  0  0  0  0  0  0  0  0  0  0  0
    2.0700   -0.1170   -2.3680 C   0  0  0  0  0  0  0  0  0  0  0  0
    1.1690    0.6920   -1.5230 C   0  0  0  0  0  0  0  0  0  0  0  0
    0.9830    0.3790   -0.1060 C   0  0  2  0  0  0  0  0  0  0  0  0
    0.4450   -0.9470    0.1850 N   0  0  0  0  0  0  0  0  0  0  0  0
    0.0960    1.4130    0.5800 C   0  0  0  0  0  0  0  0  0  0  0  0
    0.4180    2.6090    0.4320 O   0  0  0  0  0  0  0  0  0  0  0  0
    5.0940   -1.6130   -0.4870 H   0  0  0  0  0  0  0  0  0  0  0  0
    4.0930   -0.4120    0.4130 H   0  0  0  0  0  0  0  0  0  0  0  0
    3.3650   -1.9010   -0.3000 H   0  0  0  0  0  0  0  0  0  0  0  0
    1.6450   -1.1440   -2.5900 H   0  0  0  0  0  0  0  0  0  0  0  0
    2.0130    0.3630   -3.4050 H   0  0  0  0  0  0  0  0  0  0  0  0
    1.5520    1.7650   -1.6110 H   0  0  0  0  0  0  0  0  0  0  0  0
    0.2000    0.7670   -2.1010 H   0  0  0  0  0  0  0  0  0  0  0  0
    1.9300    0.4610    0.4530 H   0  0  0  0  0  0  0  0  0  0  0  0
   -0.3600   -1.3360   -0.3870 H   0  0  0  0  0  0  0  0  0  0  0  0
   -3.3170    1.9160    1.5220 C   0  0  0  0  0  0  0  0  0  0  0  0
   -1.8890    2.0320    2.0070 C   0  0  2  0  0  0  0  0  0  0  0  0
   -1.0250    1.0880    1.3430 N   0  0  0  0  0  0  0  0  0  0  0  0
   -1.8520    1.7590    3.4580 C   0  0  0  0  0  0  0  0  0  0  0  0
   -1.1400    0.8250    3.8920 O   0  0  0  0  0  0  0  0  0  0  0  0
   -2.5870    2.5090    4.3830 O   0  0  0  0  0  0  0  0  0  0  0  0
   -3.9760    2.1090    2.3850 H   0  0  0  0  0  0  0  0  0  0  0  0
   -3.5150    0.8880    1.1570 H   0  0  0  0  0  0  0  0  0  0  0  0
   -3.4990    2.6780    0.7440 H   0  0  0  0  0  0  0  0  0  0  0  0
   -1.5720    3.0830    1.8530 H   0  0  0  0  0  0  0  0  0  0  0  0
   -1.2710    0.0750    1.4490 H   0  0  0  0  0  0  0  0  0  0  0  0
  1  7  1  0  0  0  0
  2  3  1  0  0  0  0
  2  9  1  0  0  0  0
  2  1  1  0  0  0  0
  3 10  1  1  0  0  0
  4 11  1  0  0  0  0
  4  3  1  0  0  0  0
  5  3  1  0  0  0  0
  5  6  2  0  0  0  0
  8  2  1  0  0  0  0
 12  4  1  0  0  0  0
 13 23  1  0  0  0  0
 13 22  1  0  0  0  0
 14 13  1  0  0  0  0
 15 14  1  0  0  0  0
 15 16  1  0  0  0  0
 16 17  1  0  0  0  0
 17 18  1  0  0  0  0
 17 28  1  1  0  0  0
 17 19  1  0  0  0  0
 18  5  1  0  0  0  0
 19 32  1  0  0  0  0
 20 19  2  0  0  0  0
 21 13  1  0  0  0  0
 24 15  1  0  0  0  0
 25 15  1  0  0  0  0
 26 16  1  0  0  0  0
 27 16  1  0  0  0  0
 29 18  1  0  0  0  0
 30 31  1  0  0  0  0
 30 36  1  0  0  0  0
 31 39  1  6  0  0  0
 31 33  1  0  0  0  0
 32 40  1  0  0  0  0
 32 31  1  0  0  0  0
 33 34  2  0  0  0  0
 33 35  1  0  0  0  0
 37 30  1  0  0  0  0
 38 30  1  0  0  0  0
M  END
$$$$
