SMC.pdb
 OpenBabel07022419093D

 41 40  0  0  1  0  0  0  0  0999 V2000
   -1.3890   -3.5470    0.0470 O   0  0  0  0  0  0  0  0  0  0  0  0
   -0.8210   -3.1680   -1.1670 C   0  0  0  0  0  0  0  0  0  0  0  0
    0.6550   -3.5140   -1.1510 C   0  0  2  0  0  0  0  0  0  0  0  0
    0.7330   -4.9480   -0.9600 N   0  0  0  0  0  0  0  0  0  0  0  0
    1.3480   -2.8220   -0.0470 C   0  0  0  0  0  0  0  0  0  0  0  0
    1.8750   -3.5250    0.8830 O   0  0  0  0  0  0  0  0  0  0  0  0
   -2.2920   -3.9080   -0.0340 H   0  0  0  0  0  0  0  0  0  0  0  0
   -0.9770   -2.1210   -1.4260 H   0  0  0  0  0  0  0  0  0  0  0  0
   -1.2950   -3.7960   -1.9450 H   0  0  0  0  0  0  0  0  0  0  0  0
    1.0590   -3.2300   -2.1590 H   0  0  0  0  0  0  0  0  0  0  0  0
    0.2490   -5.1790   -0.0640 H   0  0  0  0  0  0  0  0  0  0  0  0
    0.2770   -5.4070   -1.7880 H   0  0  0  0  0  0  0  0  0  0  0  0
    0.7670    2.0910   -1.0180 C   0  0  0  0  0  0  0  0  0  0  0  0
    2.4940    2.2900   -0.6620 S   0  0  0  0  0  0  0  0  0  0  0  0
    3.4720    0.8420   -0.5420 C   0  0  0  0  0  0  0  0  0  0  0  0
    3.3660   -0.0560    0.6120 C   0  0  0  0  0  0  0  0  0  0  0  0
    2.0600   -0.6570    0.9820 C   0  0  2  0  0  0  0  0  0  0  0  0
    1.4220   -1.4070   -0.0280 N   0  0  0  0  0  0  0  0  0  0  0  0
    1.2290    0.0960    1.9290 C   0  0  0  0  0  0  0  0  0  0  0  0
    1.8830    0.7850    2.7860 O   0  0  0  0  0  0  0  0  0  0  0  0
    0.1730    1.4740   -0.3620 H   0  0  0  0  0  0  0  0  0  0  0  0
    0.3110    3.1270   -1.0030 H   0  0  0  0  0  0  0  0  0  0  0  0
    0.5590    1.7370   -2.0580 H   0  0  0  0  0  0  0  0  0  0  0  0
    3.4370    0.2160   -1.5070 H   0  0  0  0  0  0  0  0  0  0  0  0
    4.5670    1.1770   -0.5750 H   0  0  0  0  0  0  0  0  0  0  0  0
    4.0600   -0.9380    0.3900 H   0  0  0  0  0  0  0  0  0  0  0  0
    3.8710    0.3880    1.5250 H   0  0  0  0  0  0  0  0  0  0  0  0
    2.4370   -1.5350    1.7230 H   0  0  0  0  0  0  0  0  0  0  0  0
    0.9670   -0.8940   -0.8250 H   0  0  0  0  0  0  0  0  0  0  0  0
   -0.1690    0.1490    2.0170 N   0  0  0  0  0  0  0  0  0  0  0  0
   -0.9200    0.8740    2.9790 C   0  0  1  0  0  0  0  0  0  0  0  0
   -1.8200    1.9520    2.5180 C   0  0  0  0  0  0  0  0  0  0  0  0
   -1.0330    3.3140    1.6540 S   0  0  0  0  0  0  0  0  0  0  0  0
   -1.7130   -0.0050    3.8880 C   0  0  0  0  0  0  0  0  0  0  0  0
   -2.4290    0.4960    4.7940 O   0  0  0  0  0  0  0  0  0  0  0  0
   -1.6980   -1.3850    3.7780 O   0  0  0  0  0  0  0  0  0  0  0  0
   -0.6720   -0.4260    1.2690 H   0  0  0  0  0  0  0  0  0  0  0  0
   -0.1710    1.3710    3.6730 H   0  0  0  0  0  0  0  0  0  0  0  0
   -2.2740    2.4010    3.4540 H   0  0  0  0  0  0  0  0  0  0  0  0
   -2.7230    1.5790    1.9670 H   0  0  0  0  0  0  0  0  0  0  0  0
   -0.4800    4.2620    2.5550 H   0  0  0  0  0  0  0  0  0  0  0  0
  2  3  1  0  0  0  0
  2  1  1  0  0  0  0
  3 10  1  6  0  0  0
  3  4  1  0  0  0  0
  3  5  1  0  0  0  0
  4 11  1  0  0  0  0
  5 18  1  0  0  0  0
  5  6  2  0  0  0  0
  7  1  1  0  0  0  0
  8  2  1  0  0  0  0
  9  2  1  0  0  0  0
 12  4  1  0  0  0  0
 13 22  1  0  0  0  0
 13 14  1  0  0  0  0
 13 21  1  0  0  0  0
 14 15  1  0  0  0  0
 15 16  1  0  0  0  0
 16 17  1  0  0  0  0
 16 27  1  0  0  0  0
 17 28  1  1  0  0  0
 17 19  1  0  0  0  0
 18 17  1  0  0  0  0
 19 30  1  0  0  0  0
 19 20  2  0  0  0  0
 23 13  1  0  0  0  0
 24 15  1  0  0  0  0
 25 15  1  0  0  0  0
 26 16  1  0  0  0  0
 29 18  1  0  0  0  0
 30 31  1  0  0  0  0
 31 38  1  1  0  0  0
 31 34  1  0  0  0  0
 32 31  1  0  0  0  0
 32 39  1  0  0  0  0
 33 32  1  0  0  0  0
 33 41  1  0  0  0  0
 34 35  1  0  0  0  0
 36 34  2  0  0  0  0
 37 30  1  0  0  0  0
 40 32  1  0  0  0  0
M  END
$$$$
