SMD.pdb
 OpenBabel07022419093D

 43 42  0  0  1  0  0  0  0  0999 V2000
    0.9390   -1.7290    4.0640 O   0  0  0  0  0  0  0  0  0  0  0  0
    1.0260   -2.6370    3.0180 C   0  0  0  0  0  0  0  0  0  0  0  0
    2.4380   -2.6960    2.4770 C   0  0  2  0  0  0  0  0  0  0  0  0
    3.3530   -3.1010    3.4960 N   0  0  0  0  0  0  0  0  0  0  0  0
    2.7860   -1.4340    1.8240 C   0  0  0  0  0  0  0  0  0  0  0  0
    3.7810   -0.7110    2.0670 O   0  0  0  0  0  0  0  0  0  0  0  0
    1.2310   -2.1870    4.8780 H   0  0  0  0  0  0  0  0  0  0  0  0
    0.2970   -2.4290    2.2080 H   0  0  0  0  0  0  0  0  0  0  0  0
    0.7130   -3.6270    3.4430 H   0  0  0  0  0  0  0  0  0  0  0  0
    2.4300   -3.4990    1.6880 H   0  0  0  0  0  0  0  0  0  0  0  0
    3.6840   -2.2970    4.0600 H   0  0  0  0  0  0  0  0  0  0  0  0
    4.0770   -3.7540    3.1860 H   0  0  0  0  0  0  0  0  0  0  0  0
    0.1910   -3.0190   -2.9010 C   0  0  0  0  0  0  0  0  0  0  0  0
    1.3530   -2.1850   -1.7890 S   0  0  0  0  0  0  0  0  0  0  0  0
    1.6040   -0.4610   -2.2650 C   0  0  0  0  0  0  0  0  0  0  0  0
    2.5680    0.1800   -1.3180 C   0  0  0  0  0  0  0  0  0  0  0  0
    2.1620    0.2540    0.1070 C   0  0  2  0  0  0  0  0  0  0  0  0
    1.9020   -0.9610    0.7930 N   0  0  0  0  0  0  0  0  0  0  0  0
    0.9960    1.1970    0.2230 C   0  0  0  0  0  0  0  0  0  0  0  0
    1.0090    2.3300   -0.3150 O   0  0  0  0  0  0  0  0  0  0  0  0
   -0.2710   -3.8930   -2.4150 H   0  0  0  0  0  0  0  0  0  0  0  0
   -0.6270   -2.2880   -3.1200 H   0  0  0  0  0  0  0  0  0  0  0  0
    0.6960   -3.3720   -3.8210 H   0  0  0  0  0  0  0  0  0  0  0  0
    1.9700   -0.3960   -3.3310 H   0  0  0  0  0  0  0  0  0  0  0  0
    0.6240    0.0880   -2.3030 H   0  0  0  0  0  0  0  0  0  0  0  0
    2.8600    1.2130   -1.6480 H   0  0  0  0  0  0  0  0  0  0  0  0
    3.5320   -0.3970   -1.4340 H   0  0  0  0  0  0  0  0  0  0  0  0
    3.0220    0.7800    0.6330 H   0  0  0  0  0  0  0  0  0  0  0  0
    1.0350   -1.5090    0.5450 H   0  0  0  0  0  0  0  0  0  0  0  0
   -0.1720    0.8460    0.9480 N   0  0  0  0  0  0  0  0  0  0  0  0
   -1.3290    1.7760    1.0660 C   0  0  1  0  0  0  0  0  0  0  0  0
   -2.4700    0.9980    0.4500 C   0  0  0  0  0  0  0  0  0  0  0  0
   -3.7520    1.7030    0.4080 C   0  0  0  0  0  0  0  0  0  0  0  0
   -3.8740    2.8830    0.7860 O   0  0  0  0  0  0  0  0  0  0  0  0
   -1.5610    2.0430    2.5080 C   0  0  0  0  0  0  0  0  0  0  0  0
   -0.8440    1.4830    3.3860 O   0  0  0  0  0  0  0  0  0  0  0  0
   -4.9120    1.0750   -0.0650 O   0  0  0  0  0  0  0  0  0  0  0  0
   -2.5400    2.8910    2.9600 O   0  0  0  0  0  0  0  0  0  0  0  0
   -0.2330   -0.0820    1.4120 H   0  0  0  0  0  0  0  0  0  0  0  0
   -1.1490    2.7110    0.5300 H   0  0  0  0  0  0  0  0  0  0  0  0
   -2.1760    0.5950   -0.5630 H   0  0  0  0  0  0  0  0  0  0  0  0
   -2.6640    0.0520    1.0420 H   0  0  0  0  0  0  0  0  0  0  0  0
   -5.8370    1.4600    0.1420 H   0  0  0  0  0  0  0  0  0  0  0  0
  1  7  1  0  0  0  0
  2  9  1  0  0  0  0
  2  1  1  0  0  0  0
  3 10  1  6  0  0  0
  3  2  1  0  0  0  0
  3  4  1  0  0  0  0
  4 11  1  0  0  0  0
  5  6  2  0  0  0  0
  5  3  1  0  0  0  0
  8  2  1  0  0  0  0
 12  4  1  0  0  0  0
 13 21  1  0  0  0  0
 13 14  1  0  0  0  0
 15 14  1  0  0  0  0
 15 16  1  0  0  0  0
 16 17  1  0  0  0  0
 17 19  1  0  0  0  0
 17 28  1  1  0  0  0
 17 18  1  0  0  0  0
 18  5  1  0  0  0  0
 19 30  1  0  0  0  0
 20 19  2  0  0  0  0
 22 13  1  0  0  0  0
 23 13  1  0  0  0  0
 24 15  1  0  0  0  0
 25 15  1  0  0  0  0
 26 16  1  0  0  0  0
 27 16  1  0  0  0  0
 29 18  1  0  0  0  0
 30 31  1  0  0  0  0
 30 39  1  0  0  0  0
 31 40  1  6  0  0  0
 31 35  1  0  0  0  0
 32 42  1  0  0  0  0
 32 31  1  0  0  0  0
 33 32  1  0  0  0  0
 33 34  2  0  0  0  0
 35 38  2  0  0  0  0
 35 36  1  0  0  0  0
 37 43  1  0  0  0  0
 37 33  1  0  0  0  0
 41 32  1  0  0  0  0
M  END
$$$$
