SME.pdb
 OpenBabel07022419093D

 46 45  0  0  1  0  0  0  0  0999 V2000
    2.7780   -5.3500    3.0300 O   0  0  0  0  0  0  0  0  0  0  0  0
    3.1310   -4.0890    2.5310 C   0  0  0  0  0  0  0  0  0  0  0  0
    2.0210   -3.1270    2.9620 C   0  0  2  0  0  0  0  0  0  0  0  0
    0.8050   -3.6680    2.3520 N   0  0  0  0  0  0  0  0  0  0  0  0
    2.3180   -1.8280    2.2920 C   0  0  0  0  0  0  0  0  0  0  0  0
    3.3060   -1.1220    2.6500 O   0  0  0  0  0  0  0  0  0  0  0  0
    2.2180   -5.8600    2.4160 H   0  0  0  0  0  0  0  0  0  0  0  0
    3.0670   -4.1480    1.4120 H   0  0  0  0  0  0  0  0  0  0  0  0
    4.1160   -3.8100    2.9000 H   0  0  0  0  0  0  0  0  0  0  0  0
    1.9490   -3.0510    4.0510 H   0  0  0  0  0  0  0  0  0  0  0  0
    1.0290   -3.8360    1.3450 H   0  0  0  0  0  0  0  0  0  0  0  0
    0.5450   -4.5790    2.7950 H   0  0  0  0  0  0  0  0  0  0  0  0
   -0.3390    1.6400   -2.7630 C   0  0  0  0  0  0  0  0  0  0  0  0
    1.1030    2.2210   -1.8290 S   0  0  0  0  0  0  0  0  0  0  0  0
    2.3390    0.9660   -1.6660 C   0  0  0  0  0  0  0  0  0  0  0  0
    2.0370   -0.2400   -0.8630 C   0  0  0  0  0  0  0  0  0  0  0  0
    1.8130   -0.0380    0.5670 C   0  0  2  0  0  0  0  0  0  0  0  0
    1.5310   -1.3200    1.2390 N   0  0  0  0  0  0  0  0  0  0  0  0
    0.7250    0.8480    0.9820 C   0  0  0  0  0  0  0  0  0  0  0  0
    0.7360    2.1020    0.7380 O   0  0  0  0  0  0  0  0  0  0  0  0
   -0.5760    0.5970   -2.4730 H   0  0  0  0  0  0  0  0  0  0  0  0
   -0.1080    1.6510   -3.8680 H   0  0  0  0  0  0  0  0  0  0  0  0
   -1.2020    2.2670   -2.5250 H   0  0  0  0  0  0  0  0  0  0  0  0
    3.2760    1.4460   -1.2680 H   0  0  0  0  0  0  0  0  0  0  0  0
    2.6350    0.6360   -2.7200 H   0  0  0  0  0  0  0  0  0  0  0  0
    2.9930   -0.8720   -0.9560 H   0  0  0  0  0  0  0  0  0  0  0  0
    1.1950   -0.8480   -1.3120 H   0  0  0  0  0  0  0  0  0  0  0  0
    2.7600    0.3250    1.0460 H   0  0  0  0  0  0  0  0  0  0  0  0
    0.7080   -1.8370    0.8750 H   0  0  0  0  0  0  0  0  0  0  0  0
   -0.4460    0.3860    1.6960 N   0  0  0  0  0  0  0  0  0  0  0  0
   -1.5080    1.2850    2.0950 C   0  0  1  0  0  0  0  0  0  0  0  0
   -2.8030    0.8890    1.4030 C   0  0  0  0  0  0  0  0  0  0  0  0
   -2.6630    0.9540   -0.1000 C   0  0  0  0  0  0  0  0  0  0  0  0
   -3.9340    0.5670   -0.7510 C   0  0  0  0  0  0  0  0  0  0  0  0
   -4.9090    1.3600   -0.8630 O   0  0  0  0  0  0  0  0  0  0  0  0
   -1.7630    1.2110    3.5580 C   0  0  0  0  0  0  0  0  0  0  0  0
   -2.6440    1.9240    4.0950 O   0  0  0  0  0  0  0  0  0  0  0  0
   -4.0550   -0.7180   -1.2570 O   0  0  0  0  0  0  0  0  0  0  0  0
   -1.0460    0.3590    4.3920 O   0  0  0  0  0  0  0  0  0  0  0  0
   -0.4850   -0.6220    1.9110 H   0  0  0  0  0  0  0  0  0  0  0  0
   -1.2700    2.3440    1.8030 H   0  0  0  0  0  0  0  0  0  0  0  0
   -3.6650    1.4420    1.7720 H   0  0  0  0  0  0  0  0  0  0  0  0
   -2.9360   -0.2040    1.6440 H   0  0  0  0  0  0  0  0  0  0  0  0
   -1.8660    0.3130   -0.4680 H   0  0  0  0  0  0  0  0  0  0  0  0
   -2.4180    2.0220   -0.3660 H   0  0  0  0  0  0  0  0  0  0  0  0
   -4.8860   -1.0130   -1.7780 H   0  0  0  0  0  0  0  0  0  0  0  0
  2  9  1  0  0  0  0
  2  3  1  0  0  0  0
  2  1  1  0  0  0  0
  3 10  1  1  0  0  0
  4 12  1  0  0  0  0
  4  3  1  0  0  0  0
  5  6  2  0  0  0  0
  5  3  1  0  0  0  0
  7  1  1  0  0  0  0
  8  2  1  0  0  0  0
 11  4  1  0  0  0  0
 13 23  1  0  0  0  0
 13 21  1  0  0  0  0
 13 14  1  0  0  0  0
 14 15  1  0  0  0  0
 15 24  1  0  0  0  0
 15 16  1  0  0  0  0
 16 17  1  0  0  0  0
 17 19  1  0  0  0  0
 17 28  1  1  0  0  0
 17 18  1  0  0  0  0
 18  5  1  0  0  0  0
 19 30  1  0  0  0  0
 20 19  2  0  0  0  0
 22 13  1  0  0  0  0
 25 15  1  0  0  0  0
 26 16  1  0  0  0  0
 27 16  1  0  0  0  0
 29 18  1  0  0  0  0
 30 40  1  0  0  0  0
 30 31  1  0  0  0  0
 31 41  1  6  0  0  0
 31 36  1  0  0  0  0
 32 43  1  0  0  0  0
 32 42  1  0  0  0  0
 32 31  1  0  0  0  0
 33 32  1  0  0  0  0
 34 33  1  0  0  0  0
 35 34  2  0  0  0  0
 36 37  2  0  0  0  0
 36 39  1  0  0  0  0
 38 34  1  0  0  0  0
 44 33  1  0  0  0  0
 45 33  1  0  0  0  0
 46 38  1  0  0  0  0
M  END
$$$$
