SMG.pdb
 OpenBabel07022419093D

 37 36  0  0  1  0  0  0  0  0999 V2000
    2.0770   -4.3120    0.4170 O   0  0  0  0  0  0  0  0  0  0  0  0
    2.5480   -3.9990    1.6780 C   0  0  0  0  0  0  0  0  0  0  0  0
    1.8430   -2.7870    2.2770 C   0  0  2  0  0  0  0  0  0  0  0  0
    0.4480   -3.0900    2.3670 N   0  0  0  0  0  0  0  0  0  0  0  0
    2.1280   -1.5620    1.5060 C   0  0  0  0  0  0  0  0  0  0  0  0
    3.3190   -1.1860    1.3540 O   0  0  0  0  0  0  0  0  0  0  0  0
    2.0480   -5.2900    0.2900 H   0  0  0  0  0  0  0  0  0  0  0  0
    3.6500   -3.8050    1.6790 H   0  0  0  0  0  0  0  0  0  0  0  0
    2.4040   -4.8840    2.3280 H   0  0  0  0  0  0  0  0  0  0  0  0
    2.2310   -2.6740    3.3120 H   0  0  0  0  0  0  0  0  0  0  0  0
    0.0850   -3.6800    1.5810 H   0  0  0  0  0  0  0  0  0  0  0  0
    0.1940   -3.5980    3.2500 H   0  0  0  0  0  0  0  0  0  0  0  0
   -2.7000   -1.6670   -1.6240 C   0  0  0  0  0  0  0  0  0  0  0  0
   -0.9870   -1.3810   -1.1400 S   0  0  0  0  0  0  0  0  0  0  0  0
   -0.3640    0.2120   -1.6710 C   0  0  0  0  0  0  0  0  0  0  0  0
    1.0380    0.3920   -1.2500 C   0  0  0  0  0  0  0  0  0  0  0  0
    1.3530    0.3740    0.1950 C   0  0  2  0  0  0  0  0  0  0  0  0
    1.0440   -0.7990    0.9300 N   0  0  0  0  0  0  0  0  0  0  0  0
    0.6890    1.5850    0.8060 C   0  0  0  0  0  0  0  0  0  0  0  0
    0.8350    2.7260    0.3030 O   0  0  0  0  0  0  0  0  0  0  0  0
   -2.9450   -1.0070   -2.4650 H   0  0  0  0  0  0  0  0  0  0  0  0
   -2.8110   -2.7300   -1.8950 H   0  0  0  0  0  0  0  0  0  0  0  0
   -3.3490   -1.4200   -0.7610 H   0  0  0  0  0  0  0  0  0  0  0  0
   -1.0370    1.0560   -1.4260 H   0  0  0  0  0  0  0  0  0  0  0  0
   -0.3670    0.1900   -2.8030 H   0  0  0  0  0  0  0  0  0  0  0  0
    1.4100    1.3480   -1.7270 H   0  0  0  0  0  0  0  0  0  0  0  0
    1.6440   -0.3940   -1.7950 H   0  0  0  0  0  0  0  0  0  0  0  0
    2.4710    0.5500    0.2810 H   0  0  0  0  0  0  0  0  0  0  0  0
    0.0690   -1.1710    1.1060 H   0  0  0  0  0  0  0  0  0  0  0  0
   -0.1100    1.4390    1.9600 N   0  0  0  0  0  0  0  0  0  0  0  0
   -0.7490    2.5650    2.5600 C   0  0  0  0  0  0  0  0  0  0  0  0
   -1.6960    3.2620    1.6540 C   0  0  0  0  0  0  0  0  0  0  0  0
   -1.8680    2.8450    0.4860 O   0  0  0  0  0  0  0  0  0  0  0  0
   -2.3940    4.3610    2.0650 O   0  0  0  0  0  0  0  0  0  0  0  0
   -0.2240    0.4650    2.3720 H   0  0  0  0  0  0  0  0  0  0  0  0
   -1.3440    2.2190    3.4300 H   0  0  0  0  0  0  0  0  0  0  0  0
   -0.0000    3.2800    2.9780 H   0  0  0  0  0  0  0  0  0  0  0  0
  1  2  1  0  0  0  0
  2  8  1  0  0  0  0
  2  3  1  0  0  0  0
  2  9  1  0  0  0  0
  3  4  1  0  0  0  0
  3 10  1  1  0  0  0
  4 12  1  0  0  0  0
  5  3  1  0  0  0  0
  6  5  2  0  0  0  0
  7  1  1  0  0  0  0
 11  4  1  0  0  0  0
 13 14  1  0  0  0  0
 13 23  1  0  0  0  0
 15 24  1  0  0  0  0
 15 16  1  0  0  0  0
 15 14  1  0  0  0  0
 16 17  1  0  0  0  0
 17 28  1  1  0  0  0
 17 19  1  0  0  0  0
 17 18  1  0  0  0  0
 18 29  1  0  0  0  0
 18  5  1  0  0  0  0
 19 30  1  0  0  0  0
 20 19  2  0  0  0  0
 21 13  1  0  0  0  0
 22 13  1  0  0  0  0
 25 15  1  0  0  0  0
 26 16  1  0  0  0  0
 27 16  1  0  0  0  0
 30 35  1  0  0  0  0
 30 31  1  0  0  0  0
 31 37  1  0  0  0  0
 31 36  1  0  0  0  0
 32 34  1  0  0  0  0
 32 31  1  0  0  0  0
 33 32  2  0  0  0  0
M  END
$$$$
