SMH.pdb
 OpenBabel07022419093D

 47 47  0  0  1  0  0  0  0  0999 V2000
    3.6110   -5.6580    1.6900 O   0  0  0  0  0  0  0  0  0  0  0  0
    3.6690   -4.2620    1.5780 C   0  0  0  0  0  0  0  0  0  0  0  0
    2.2680   -3.6820    1.8220 C   0  0  2  0  0  0  0  0  0  0  0  0
    1.4280   -4.2570    0.8120 N   0  0  0  0  0  0  0  0  0  0  0  0
    2.4120   -2.2070    1.6830 C   0  0  0  0  0  0  0  0  0  0  0  0
    3.1110   -1.6290    2.5530 O   0  0  0  0  0  0  0  0  0  0  0  0
    4.3520   -6.0060    2.2390 H   0  0  0  0  0  0  0  0  0  0  0  0
    4.3930   -3.8200    2.2710 H   0  0  0  0  0  0  0  0  0  0  0  0
    3.9850   -4.0490    0.5430 H   0  0  0  0  0  0  0  0  0  0  0  0
    1.9460   -3.8910    2.8520 H   0  0  0  0  0  0  0  0  0  0  0  0
    0.4200   -4.2580    1.0570 H   0  0  0  0  0  0  0  0  0  0  0  0
    1.6520   -3.8670   -0.1090 H   0  0  0  0  0  0  0  0  0  0  0  0
    0.8000    2.4840   -2.5590 C   0  0  0  0  0  0  0  0  0  0  0  0
    1.5990    2.9040   -0.9870 S   0  0  0  0  0  0  0  0  0  0  0  0
    3.0300    1.8310   -0.7720 C   0  0  0  0  0  0  0  0  0  0  0  0
    2.7590    0.3950   -0.5880 C   0  0  0  0  0  0  0  0  0  0  0  0
    2.0440    0.0150    0.6280 C   0  0  2  0  0  0  0  0  0  0  0  0
    1.8400   -1.4460    0.6780 N   0  0  0  0  0  0  0  0  0  0  0  0
    0.7320    0.5730    0.9370 C   0  0  0  0  0  0  0  0  0  0  0  0
    0.6270    1.7990    1.1570 O   0  0  0  0  0  0  0  0  0  0  0  0
    0.1020    3.2600   -2.8810 H   0  0  0  0  0  0  0  0  0  0  0  0
    1.5570    2.3440   -3.3540 H   0  0  0  0  0  0  0  0  0  0  0  0
    0.2230    1.5360   -2.3790 H   0  0  0  0  0  0  0  0  0  0  0  0
    3.6150    2.2630    0.1120 H   0  0  0  0  0  0  0  0  0  0  0  0
    3.7740    1.9970   -1.6250 H   0  0  0  0  0  0  0  0  0  0  0  0
    2.2960    0.0170   -1.5380 H   0  0  0  0  0  0  0  0  0  0  0  0
    3.7560   -0.1260   -0.5590 H   0  0  0  0  0  0  0  0  0  0  0  0
    2.7320    0.2720    1.5000 H   0  0  0  0  0  0  0  0  0  0  0  0
    1.2630   -1.8540   -0.0670 H   0  0  0  0  0  0  0  0  0  0  0  0
   -0.4540   -0.2040    1.0040 N   0  0  0  0  0  0  0  0  0  0  0  0
   -1.7660    0.3460    1.3110 C   0  0  1  0  0  0  0  0  0  0  0  0
   -2.7830    0.0290    0.2840 C   0  0  0  0  0  0  0  0  0  0  0  0
   -4.0900    0.6160    0.6520 C   0  0  0  0  0  0  0  0  0  0  0  0
   -5.0940   -0.0080    1.3480 C   0  0  0  0  0  0  0  0  0  0  0  0
   -6.1560    0.8060    1.4840 N   0  0  0  0  0  0  0  0  0  0  0  0
   -5.8080    1.9490    0.8640 C   0  0  0  0  0  0  0  0  0  0  0  0
   -4.5690    1.8420    0.3620 N   0  0  0  0  0  0  0  0  0  0  0  0
   -2.1320   -0.1910    2.6390 C   0  0  0  0  0  0  0  0  0  0  0  0
   -3.1790    0.1160    3.2670 O   0  0  0  0  0  0  0  0  0  0  0  0
   -1.3160   -1.1180    3.3280 O   0  0  0  0  0  0  0  0  0  0  0  0
   -0.4300   -1.2280    0.8320 H   0  0  0  0  0  0  0  0  0  0  0  0
   -1.6040    1.4350    1.4550 H   0  0  0  0  0  0  0  0  0  0  0  0
   -2.4840    0.2850   -0.7520 H   0  0  0  0  0  0  0  0  0  0  0  0
   -2.9450   -1.0900    0.2370 H   0  0  0  0  0  0  0  0  0  0  0  0
   -5.1300   -1.0190    1.7700 H   0  0  0  0  0  0  0  0  0  0  0  0
   -7.0570    0.6100    1.9600 H   0  0  0  0  0  0  0  0  0  0  0  0
   -6.4900    2.7970    0.8180 H   0  0  0  0  0  0  0  0  0  0  0  0
  1  7  1  0  0  0  0
  2  1  1  0  0  0  0
  2  3  1  0  0  0  0
  2  8  1  0  0  0  0
  3 10  1  1  0  0  0
  4 11  1  0  0  0  0
  4  3  1  0  0  0  0
  5  3  1  0  0  0  0
  5  6  2  0  0  0  0
  9  2  1  0  0  0  0
 12  4  1  0  0  0  0
 13 23  1  0  0  0  0
 13 14  1  0  0  0  0
 14 15  1  0  0  0  0
 15 16  1  0  0  0  0
 15 24  1  0  0  0  0
 16 27  1  0  0  0  0
 16 17  1  0  0  0  0
 17 18  1  0  0  0  0
 17 19  1  0  0  0  0
 17 28  1  1  0  0  0
 18  5  1  0  0  0  0
 19 30  1  0  0  0  0
 19 20  2  0  0  0  0
 21 13  1  0  0  0  0
 22 13  1  0  0  0  0
 25 15  1  0  0  0  0
 26 16  1  0  0  0  0
 29 18  1  0  0  0  0
 30 31  1  0  0  0  0
 31 42  1  1  0  0  0
 31 38  1  0  0  0  0
 32 33  1  0  0  0  0
 32 31  1  0  0  0  0
 33 34  2  0  0  0  0
 34 35  1  0  0  0  0
 34 45  1  0  0  0  0
 35 46  1  0  0  0  0
 36 35  1  0  0  0  0
 37 33  1  0  0  0  0
 37 36  2  0  0  0  0
 38 39  2  0  0  0  0
 38 40  1  0  0  0  0
 41 30  1  0  0  0  0
 43 32  1  0  0  0  0
 44 32  1  0  0  0  0
 47 36  1  0  0  0  0
M  END
$$$$
