SMM.pdb
 OpenBabel07022419093D

 47 46  0  0  1  0  0  0  0  0999 V2000
    1.6760   -3.7110    2.8680 O   0  0  0  0  0  0  0  0  0  0  0  0
    1.4460   -2.4260    2.3540 C   0  0  0  0  0  0  0  0  0  0  0  0
    2.5750   -2.1550    1.3630 C   0  0  2  0  0  0  0  0  0  0  0  0
    3.8170   -2.2320    2.0960 N   0  0  0  0  0  0  0  0  0  0  0  0
    2.4140   -0.8600    0.6850 C   0  0  0  0  0  0  0  0  0  0  0  0
    3.2910    0.0350    0.7700 O   0  0  0  0  0  0  0  0  0  0  0  0
    2.0280   -3.6910    3.7920 H   0  0  0  0  0  0  0  0  0  0  0  0
    1.5230   -1.6730    3.1830 H   0  0  0  0  0  0  0  0  0  0  0  0
    0.4780   -2.3910    1.8360 H   0  0  0  0  0  0  0  0  0  0  0  0
    2.5670   -2.9490    0.5900 H   0  0  0  0  0  0  0  0  0  0  0  0
    4.5750   -1.6590    1.6690 H   0  0  0  0  0  0  0  0  0  0  0  0
    3.6830   -2.0030    3.1080 H   0  0  0  0  0  0  0  0  0  0  0  0
    1.5840   -2.7970   -3.0830 C   0  0  0  0  0  0  0  0  0  0  0  0
    0.1110   -1.9360   -2.5410 S   0  0  0  0  0  0  0  0  0  0  0  0
    0.1140   -0.1970   -2.9340 C   0  0  0  0  0  0  0  0  0  0  0  0
    1.1180    0.6390   -2.2490 C   0  0  0  0  0  0  0  0  0  0  0  0
    1.0850    0.7210   -0.7780 C   0  0  2  0  0  0  0  0  0  0  0  0
    1.2570   -0.5470   -0.1060 N   0  0  0  0  0  0  0  0  0  0  0  0
   -0.0800    1.4560   -0.2280 C   0  0  0  0  0  0  0  0  0  0  0  0
   -0.4560    2.5690   -0.6220 O   0  0  0  0  0  0  0  0  0  0  0  0
    1.3290   -3.8950   -3.1290 H   0  0  0  0  0  0  0  0  0  0  0  0
    1.8850   -2.4120   -4.0660 H   0  0  0  0  0  0  0  0  0  0  0  0
    2.3640   -2.6860   -2.3070 H   0  0  0  0  0  0  0  0  0  0  0  0
    0.3180   -0.1090   -4.0440 H   0  0  0  0  0  0  0  0  0  0  0  0
   -0.8910    0.2820   -2.8230 H   0  0  0  0  0  0  0  0  0  0  0  0
    2.1360    0.2340   -2.5320 H   0  0  0  0  0  0  0  0  0  0  0  0
    1.1080    1.6630   -2.6750 H   0  0  0  0  0  0  0  0  0  0  0  0
    1.9880    1.3370   -0.4750 H   0  0  0  0  0  0  0  0  0  0  0  0
    0.5380   -1.3250   -0.1470 H   0  0  0  0  0  0  0  0  0  0  0  0
   -1.8800   -1.1650    4.0150 C   0  0  0  0  0  0  0  0  0  0  0  0
   -3.4030   -1.1660    3.1160 S   0  0  0  0  0  0  0  0  0  0  0  0
   -3.3920   -0.6550    1.4300 C   0  0  0  0  0  0  0  0  0  0  0  0
   -3.2030    0.7600    1.0760 C   0  0  0  0  0  0  0  0  0  0  0  0
   -1.9690    1.4920    1.4200 C   0  0  2  0  0  0  0  0  0  0  0  0
   -0.8190    0.8470    0.8240 N   0  0  0  0  0  0  0  0  0  0  0  0
   -1.8470    1.8230    2.8320 C   0  0  0  0  0  0  0  0  0  0  0  0
   -0.7620    1.7230    3.4580 O   0  0  0  0  0  0  0  0  0  0  0  0
   -2.9560    2.2660    3.5310 O   0  0  0  0  0  0  0  0  0  0  0  0
   -1.8540   -0.3660    4.7940 H   0  0  0  0  0  0  0  0  0  0  0  0
   -1.0300   -0.9750    3.3300 H   0  0  0  0  0  0  0  0  0  0  0  0
   -1.6340   -2.1590    4.4820 H   0  0  0  0  0  0  0  0  0  0  0  0
   -2.7330   -1.3390    0.7790 H   0  0  0  0  0  0  0  0  0  0  0  0
   -4.4230   -0.9350    1.0030 H   0  0  0  0  0  0  0  0  0  0  0  0
   -3.3490    0.8320   -0.0510 H   0  0  0  0  0  0  0  0  0  0  0  0
   -4.1160    1.3320    1.4800 H   0  0  0  0  0  0  0  0  0  0  0  0
   -2.0990    2.5110    0.8410 H   0  0  0  0  0  0  0  0  0  0  0  0
   -0.5300   -0.0870    1.1780 H   0  0  0  0  0  0  0  0  0  0  0  0
  1  7  1  0  0  0  0
  2  1  1  0  0  0  0
  2  8  1  0  0  0  0
  3 10  1  6  0  0  0
  3  4  1  0  0  0  0
  3  2  1  0  0  0  0
  4 12  1  0  0  0  0
  5  6  2  0  0  0  0
  5  3  1  0  0  0  0
  9  2  1  0  0  0  0
 11  4  1  0  0  0  0
 13 14  1  0  0  0  0
 13 23  1  0  0  0  0
 15 25  1  0  0  0  0
 15 14  1  0  0  0  0
 15 16  1  0  0  0  0
 16 17  1  0  0  0  0
 17 28  1  1  0  0  0
 17 19  1  0  0  0  0
 17 18  1  0  0  0  0
 18  5  1  0  0  0  0
 19 35  1  0  0  0  0
 20 19  2  0  0  0  0
 21 13  1  0  0  0  0
 22 13  1  0  0  0  0
 24 15  1  0  0  0  0
 26 16  1  0  0  0  0
 27 16  1  0  0  0  0
 29 18  1  0  0  0  0
 30 41  1  0  0  0  0
 30 39  1  0  0  0  0
 31 30  1  0  0  0  0
 32 31  1  0  0  0  0
 33 34  1  0  0  0  0
 33 32  1  0  0  0  0
 33 45  1  0  0  0  0
 34 46  1  6  0  0  0
 34 36  1  0  0  0  0
 35 47  1  0  0  0  0
 35 34  1  0  0  0  0
 36 37  2  0  0  0  0
 36 38  1  0  0  0  0
 40 30  1  0  0  0  0
 42 32  1  0  0  0  0
 43 32  1  0  0  0  0
 44 33  1  0  0  0  0
M  END
$$$$
