SMP.pdb
 OpenBabel07022419093D

 44 44  0  0  1  0  0  0  0  0999 V2000
   -0.2390   -5.0230    0.5630 O   0  0  0  0  0  0  0  0  0  0  0  0
    0.0380   -3.7340    1.0790 C   0  0  0  0  0  0  0  0  0  0  0  0
    1.4050   -3.3690    0.6020 C   0  0  2  0  0  0  0  0  0  0  0  0
    2.3700   -4.3390    1.0840 N   0  0  0  0  0  0  0  0  0  0  0  0
    1.8720   -2.0320    0.8950 C   0  0  0  0  0  0  0  0  0  0  0  0
    2.9980   -1.8700    1.4410 O   0  0  0  0  0  0  0  0  0  0  0  0
    0.5540   -5.4550    0.2010 H   0  0  0  0  0  0  0  0  0  0  0  0
   -0.7620   -3.0970    0.6810 H   0  0  0  0  0  0  0  0  0  0  0  0
    0.0520   -3.8470    2.1790 H   0  0  0  0  0  0  0  0  0  0  0  0
    1.4310   -3.4860   -0.5250 H   0  0  0  0  0  0  0  0  0  0  0  0
    2.5780   -5.0810    0.4040 H   0  0  0  0  0  0  0  0  0  0  0  0
    1.9760   -4.7940    1.9370 H   0  0  0  0  0  0  0  0  0  0  0  0
    0.4020   -0.5520   -2.4980 C   0  0  0  0  0  0  0  0  0  0  0  0
    2.0510    0.1280   -2.5720 S   0  0  0  0  0  0  0  0  0  0  0  0
    2.4730    1.3530   -1.3810 C   0  0  0  0  0  0  0  0  0  0  0  0
    2.7080    1.0430    0.0150 C   0  0  0  0  0  0  0  0  0  0  0  0
    1.6960    0.4680    0.9350 C   0  0  2  0  0  0  0  0  0  0  0  0
    1.1620   -0.8090    0.6210 N   0  0  0  0  0  0  0  0  0  0  0  0
    0.7560    1.4860    1.4560 C   0  0  0  0  0  0  0  0  0  0  0  0
    1.2810    2.7100    1.4380 O   0  0  0  0  0  0  0  0  0  0  0  0
   -0.2210    0.1120   -1.8640 H   0  0  0  0  0  0  0  0  0  0  0  0
   -0.1030   -0.5450   -3.4980 H   0  0  0  0  0  0  0  0  0  0  0  0
    0.3550   -1.5680   -2.0550 H   0  0  0  0  0  0  0  0  0  0  0  0
    1.7370    2.2110   -1.5250 H   0  0  0  0  0  0  0  0  0  0  0  0
    3.4370    1.8700   -1.7570 H   0  0  0  0  0  0  0  0  0  0  0  0
    3.1040    1.9670    0.5710 H   0  0  0  0  0  0  0  0  0  0  0  0
    3.6220    0.3590    0.1010 H   0  0  0  0  0  0  0  0  0  0  0  0
    2.3590    0.2440    1.8770 H   0  0  0  0  0  0  0  0  0  0  0  0
    0.2240   -0.9210    0.2140 H   0  0  0  0  0  0  0  0  0  0  0  0
   -0.5170    1.4520    1.9390 N   0  0  0  0  0  0  0  0  0  0  0  0
   -1.2890    2.7280    2.2080 C   0  0  0  0  0  0  0  0  0  0  0  0
   -2.5660    2.3800    1.4300 C   0  0  0  0  0  0  0  0  0  0  0  0
   -2.5880    0.8350    1.3140 C   0  0  0  0  0  0  0  0  0  0  0  0
   -1.5030    0.5290    2.3470 C   0  0  1  0  0  0  0  0  0  0  0  0
   -1.2680   -0.8180    2.7020 C   0  0  0  0  0  0  0  0  0  0  0  0
   -0.2080   -1.2510    3.1820 O   0  0  0  0  0  0  0  0  0  0  0  0
   -2.2900   -1.7700    2.5100 O   0  0  0  0  0  0  0  0  0  0  0  0
   -0.7650    3.5860    1.8120 H   0  0  0  0  0  0  0  0  0  0  0  0
   -1.5040    2.7090    3.2680 H   0  0  0  0  0  0  0  0  0  0  0  0
   -2.5830    2.8470    0.4410 H   0  0  0  0  0  0  0  0  0  0  0  0
   -3.4690    2.6740    1.9960 H   0  0  0  0  0  0  0  0  0  0  0  0
   -3.5690    0.4470    1.5990 H   0  0  0  0  0  0  0  0  0  0  0  0
   -2.2590    0.5590    0.3090 H   0  0  0  0  0  0  0  0  0  0  0  0
   -1.9700    1.0370    3.3180 H   0  0  0  0  0  0  0  0  0  0  0  0
  1  2  1  0  0  0  0
  2  9  1  0  0  0  0
  3 10  1  6  0  0  0
  3  5  1  0  0  0  0
  3  2  1  0  0  0  0
  3  4  1  0  0  0  0
  4 12  1  0  0  0  0
  5  6  2  0  0  0  0
  7  1  1  0  0  0  0
  8  2  1  0  0  0  0
 11  4  1  0  0  0  0
 13 23  1  0  0  0  0
 13 21  1  0  0  0  0
 14 13  1  0  0  0  0
 14 15  1  0  0  0  0
 15 16  1  0  0  0  0
 16 27  1  0  0  0  0
 16 26  1  0  0  0  0
 16 17  1  0  0  0  0
 17 19  1  0  0  0  0
 17 28  1  1  0  0  0
 18  5  1  0  0  0  0
 18 17  1  0  0  0  0
 19 30  1  0  0  0  0
 20 19  2  0  0  0  0
 22 13  1  0  0  0  0
 24 15  1  0  0  0  0
 25 15  1  0  0  0  0
 29 18  1  0  0  0  0
 30 31  1  0  0  0  0
 30 34  1  0  0  0  0
 31 39  1  0  0  0  0
 32 41  1  0  0  0  0
 32 31  1  0  0  0  0
 33 32  1  0  0  0  0
 33 42  1  0  0  0  0
 33 34  1  0  0  0  0
 34 35  1  0  0  0  0
 34 44  1  1  0  0  0
 35 36  1  0  0  0  0
 37 35  2  0  0  0  0
 38 31  1  0  0  0  0
 40 32  1  0  0  0  0
 43 33  1  0  0  0  0
M  END
$$$$
