SMR.pdb
 OpenBabel07022419093D

 53 52  0  0  1  0  0  0  0  0999 V2000
   -1.4380   -4.0930    3.3870 O   0  0  0  0  0  0  0  0  0  0  0  0
   -0.8810   -3.1570    2.4990 C   0  0  0  0  0  0  0  0  0  0  0  0
    0.5420   -2.8830    3.0000 C   0  0  2  0  0  0  0  0  0  0  0  0
    0.4540   -2.3600    4.3350 N   0  0  0  0  0  0  0  0  0  0  0  0
    1.1010   -1.8720    2.0350 C   0  0  0  0  0  0  0  0  0  0  0  0
    1.2470   -2.2230    0.8620 O   0  0  0  0  0  0  0  0  0  0  0  0
   -0.7110   -4.6850    3.6720 H   0  0  0  0  0  0  0  0  0  0  0  0
   -0.8560   -3.6120    1.4800 H   0  0  0  0  0  0  0  0  0  0  0  0
   -1.4860   -2.2400    2.5170 H   0  0  0  0  0  0  0  0  0  0  0  0
    1.1280   -3.8150    3.0090 H   0  0  0  0  0  0  0  0  0  0  0  0
   -0.3850   -2.6450    4.8600 H   0  0  0  0  0  0  0  0  0  0  0  0
    1.3430   -2.4230    4.8670 H   0  0  0  0  0  0  0  0  0  0  0  0
    6.1850    0.7330   -0.7160 C   0  0  0  0  0  0  0  0  0  0  0  0
    5.8110   -0.5770    0.4690 S   0  0  0  0  0  0  0  0  0  0  0  0
    4.0070   -0.7320    0.7190 C   0  0  0  0  0  0  0  0  0  0  0  0
    3.4410    0.4810    1.3780 C   0  0  0  0  0  0  0  0  0  0  0  0
    1.9770    0.4730    1.6220 C   0  0  2  0  0  0  0  0  0  0  0  0
    1.4550   -0.5530    2.4400 N   0  0  0  0  0  0  0  0  0  0  0  0
    1.2360    0.7790    0.3740 C   0  0  0  0  0  0  0  0  0  0  0  0
    1.8300    1.5400   -0.4270 O   0  0  0  0  0  0  0  0  0  0  0  0
    5.4190    0.6530   -1.5400 H   0  0  0  0  0  0  0  0  0  0  0  0
    5.9230    1.7010   -0.1950 H   0  0  0  0  0  0  0  0  0  0  0  0
    7.2050    0.7010   -1.0900 H   0  0  0  0  0  0  0  0  0  0  0  0
    3.5640   -0.9920   -0.2330 H   0  0  0  0  0  0  0  0  0  0  0  0
    3.8310   -1.5940    1.4250 H   0  0  0  0  0  0  0  0  0  0  0  0
    3.9600    0.7230    2.3420 H   0  0  0  0  0  0  0  0  0  0  0  0
    3.7170    1.3540    0.7150 H   0  0  0  0  0  0  0  0  0  0  0  0
    1.7820    1.4560    2.2220 H   0  0  0  0  0  0  0  0  0  0  0  0
    1.2950   -0.3730    3.4680 H   0  0  0  0  0  0  0  0  0  0  0  0
   -5.2220    0.1770    0.9920 N   0  0  0  0  0  0  0  0  0  0  0  0
   -4.8550   -0.7390   -0.0160 C   0  0  0  0  0  0  0  0  0  0  0  0
   -5.7400   -1.4130   -0.6930 N   0  0  0  0  0  0  0  0  0  0  0  0
   -3.4700   -0.9270   -0.3000 N   0  0  0  0  0  0  0  0  0  0  0  0
   -3.0440   -1.6410   -1.4600 C   0  0  0  0  0  0  0  0  0  0  0  0
   -1.6130   -1.6940   -1.7840 C   0  0  0  0  0  0  0  0  0  0  0  0
   -0.8550   -0.5000   -2.1380 C   0  0  0  0  0  0  0  0  0  0  0  0
   -0.6840    0.6470   -1.2200 C   0  0  2  0  0  0  0  0  0  0  0  0
   -0.0400    0.3160    0.0040 N   0  0  0  0  0  0  0  0  0  0  0  0
   -1.8430    1.5360   -1.1750 C   0  0  0  0  0  0  0  0  0  0  0  0
   -2.3480    2.0760   -0.1620 O   0  0  0  0  0  0  0  0  0  0  0  0
   -2.4960    1.8520   -2.3560 O   0  0  0  0  0  0  0  0  0  0  0  0
   -4.6370    1.0120    1.1540 H   0  0  0  0  0  0  0  0  0  0  0  0
   -6.0610    0.0200    1.5630 H   0  0  0  0  0  0  0  0  0  0  0  0
   -6.7470   -1.2490   -0.4590 H   0  0  0  0  0  0  0  0  0  0  0  0
   -2.7970   -0.5530    0.3750 H   0  0  0  0  0  0  0  0  0  0  0  0
   -3.3570   -2.7240   -1.2570 H   0  0  0  0  0  0  0  0  0  0  0  0
   -3.6940   -1.4070   -2.3540 H   0  0  0  0  0  0  0  0  0  0  0  0
   -1.5340   -2.3800   -2.7000 H   0  0  0  0  0  0  0  0  0  0  0  0
   -1.1170   -2.3390   -1.0010 H   0  0  0  0  0  0  0  0  0  0  0  0
   -1.2760   -0.1490   -3.1480 H   0  0  0  0  0  0  0  0  0  0  0  0
    0.1830   -0.8540   -2.4440 H   0  0  0  0  0  0  0  0  0  0  0  0
    0.1090    1.3090   -1.7740 H   0  0  0  0  0  0  0  0  0  0  0  0
   -0.5230   -0.2900    0.6920 H   0  0  0  0  0  0  0  0  0  0  0  0
  1  7  1  0  0  0  0
  2  9  1  0  0  0  0
  2  3  1  0  0  0  0
  2  1  1  0  0  0  0
  3 10  1  6  0  0  0
  3  4  1  0  0  0  0
  4 11  1  0  0  0  0
  4 12  1  0  0  0  0
  5 18  1  0  0  0  0
  5  3  1  0  0  0  0
  6  5  2  0  0  0  0
  8  2  1  0  0  0  0
 13 22  1  0  0  0  0
 13 14  1  0  0  0  0
 14 15  1  0  0  0  0
 15 16  1  0  0  0  0
 15 25  1  0  0  0  0
 16 17  1  0  0  0  0
 16 26  1  0  0  0  0
 17 28  1  1  0  0  0
 17 18  1  0  0  0  0
 18 29  1  0  0  0  0
 19 17  1  0  0  0  0
 20 19  2  0  0  0  0
 21 13  1  0  0  0  0
 23 13  1  0  0  0  0
 24 15  1  0  0  0  0
 27 16  1  0  0  0  0
 30 42  1  0  0  0  0
 30 43  1  0  0  0  0
 31 30  1  0  0  0  0
 32 44  1  0  0  0  0
 32 31  2  0  0  0  0
 33 31  1  0  0  0  0
 33 45  1  0  0  0  0
 34 46  1  0  0  0  0
 34 33  1  0  0  0  0
 35 34  1  0  0  0  0
 35 49  1  0  0  0  0
 36 35  1  0  0  0  0
 36 37  1  0  0  0  0
 37 52  1  6  0  0  0
 37 39  1  0  0  0  0
 37 38  1  0  0  0  0
 38 19  1  0  0  0  0
 38 53  1  0  0  0  0
 39 40  1  0  0  0  0
 41 39  2  0  0  0  0
 47 34  1  0  0  0  0
 48 35  1  0  0  0  0
 50 36  1  0  0  0  0
 51 36  1  0  0  0  0
M  END
$$$$
