SMT.pdb
 OpenBabel07022419093D

 44 43  0  0  1  0  0  0  0  0999 V2000
    4.0920   -3.4670   -1.5590 O   0  0  0  0  0  0  0  0  0  0  0  0
    3.5110   -3.7150   -0.3050 C   0  0  0  0  0  0  0  0  0  0  0  0
    3.1180   -2.4170    0.3730 C   0  0  2  0  0  0  0  0  0  0  0  0
    2.5300   -2.7600    1.6530 N   0  0  0  0  0  0  0  0  0  0  0  0
    2.1440   -1.6810   -0.4550 C   0  0  0  0  0  0  0  0  0  0  0  0
    2.3890   -1.2730   -1.6180 O   0  0  0  0  0  0  0  0  0  0  0  0
    4.2810   -4.3580   -1.9480 H   0  0  0  0  0  0  0  0  0  0  0  0
    2.5660   -4.2640   -0.5030 H   0  0  0  0  0  0  0  0  0  0  0  0
    4.1540   -4.3300    0.3310 H   0  0  0  0  0  0  0  0  0  0  0  0
    4.0270   -1.8200    0.5950 H   0  0  0  0  0  0  0  0  0  0  0  0
    3.2370   -3.3850    2.1370 H   0  0  0  0  0  0  0  0  0  0  0  0
    1.7070   -3.3950    1.4740 H   0  0  0  0  0  0  0  0  0  0  0  0
   -4.7720   -2.1430   -0.3760 C   0  0  0  0  0  0  0  0  0  0  0  0
   -3.9160   -1.8280   -1.9170 S   0  0  0  0  0  0  0  0  0  0  0  0
   -2.4370   -0.7910   -1.6950 C   0  0  0  0  0  0  0  0  0  0  0  0
   -1.3850   -1.4910   -0.9030 C   0  0  0  0  0  0  0  0  0  0  0  0
   -0.1600   -0.6730   -0.7190 C   0  0  2  0  0  0  0  0  0  0  0  0
    0.8540   -1.4020    0.0570 N   0  0  0  0  0  0  0  0  0  0  0  0
   -0.3540    0.6210   -0.0200 C   0  0  0  0  0  0  0  0  0  0  0  0
   -1.1190    1.5380   -0.4120 O   0  0  0  0  0  0  0  0  0  0  0  0
   -4.6800   -1.3240    0.3670 H   0  0  0  0  0  0  0  0  0  0  0  0
   -4.4730   -3.0870    0.1150 H   0  0  0  0  0  0  0  0  0  0  0  0
   -5.8680   -2.2730   -0.6160 H   0  0  0  0  0  0  0  0  0  0  0  0
   -2.7070    0.2070   -1.3050 H   0  0  0  0  0  0  0  0  0  0  0  0
   -2.0410   -0.6070   -2.7350 H   0  0  0  0  0  0  0  0  0  0  0  0
   -1.8450   -1.7850    0.0650 H   0  0  0  0  0  0  0  0  0  0  0  0
   -1.0770   -2.4060   -1.4880 H   0  0  0  0  0  0  0  0  0  0  0  0
    0.3040   -0.4550   -1.6960 H   0  0  0  0  0  0  0  0  0  0  0  0
    0.5810   -1.7060    1.0010 H   0  0  0  0  0  0  0  0  0  0  0  0
    0.4480    1.1830    4.2200 C   0  0  0  0  0  0  0  0  0  0  0  0
   -0.3690    2.0210    3.2960 C   0  0  1  0  0  0  0  0  0  0  0  0
   -0.4310    3.3020    3.8580 O   0  0  0  0  0  0  0  0  0  0  0  0
    0.1950    2.1600    1.9170 C   0  0  2  0  0  0  0  0  0  0  0  0
    0.3300    0.9420    1.1920 N   0  0  0  0  0  0  0  0  0  0  0  0
    1.4770    2.9260    1.9020 C   0  0  0  0  0  0  0  0  0  0  0  0
    2.5100    2.5110    1.3140 O   0  0  0  0  0  0  0  0  0  0  0  0
    1.6170    4.1550    2.5370 O   0  0  0  0  0  0  0  0  0  0  0  0
    1.4910    1.0310    3.9030 H   0  0  0  0  0  0  0  0  0  0  0  0
   -0.0260    0.1700    4.2910 H   0  0  0  0  0  0  0  0  0  0  0  0
    0.4850    1.5610    5.2620 H   0  0  0  0  0  0  0  0  0  0  0  0
   -1.4260    1.6940    3.1990 H   0  0  0  0  0  0  0  0  0  0  0  0
   -1.0850    3.8360    3.3350 H   0  0  0  0  0  0  0  0  0  0  0  0
   -0.5370    2.7880    1.3420 H   0  0  0  0  0  0  0  0  0  0  0  0
    0.9830    0.2100    1.5670 H   0  0  0  0  0  0  0  0  0  0  0  0
  1  2  1  0  0  0  0
  2  9  1  0  0  0  0
  2  3  1  0  0  0  0
  3 10  1  1  0  0  0
  3  4  1  0  0  0  0
  4 11  1  0  0  0  0
  5 18  1  0  0  0  0
  5  3  1  0  0  0  0
  6  5  2  0  0  0  0
  7  1  1  0  0  0  0
  8  2  1  0  0  0  0
 12  4  1  0  0  0  0
 13 22  1  0  0  0  0
 13 21  1  0  0  0  0
 14 15  1  0  0  0  0
 14 13  1  0  0  0  0
 15 24  1  0  0  0  0
 15 16  1  0  0  0  0
 16 17  1  0  0  0  0
 16 26  1  0  0  0  0
 17 28  1  6  0  0  0
 17 19  1  0  0  0  0
 17 18  1  0  0  0  0
 18 29  1  0  0  0  0
 19 34  1  0  0  0  0
 20 19  2  0  0  0  0
 23 13  1  0  0  0  0
 25 15  1  0  0  0  0
 27 16  1  0  0  0  0
 30 39  1  0  0  0  0
 30 40  1  0  0  0  0
 31 41  1  6  0  0  0
 31 32  1  0  0  0  0
 31 30  1  0  0  0  0
 33 43  1  6  0  0  0
 33 31  1  0  0  0  0
 34 44  1  0  0  0  0
 34 33  1  0  0  0  0
 35 33  1  0  0  0  0
 35 37  1  0  0  0  0
 36 35  2  0  0  0  0
 38 30  1  0  0  0  0
 42 32  1  0  0  0  0
M  END
$$$$
