SMW.pdb
 OpenBabel07022419093D

 54 55  0  0  1  0  0  0  0  0999 V2000
    3.2360   -4.4050    0.6450 O   0  0  0  0  0  0  0  0  0  0  0  0
    3.0570   -3.2890    1.4610 C   0  0  0  0  0  0  0  0  0  0  0  0
    1.7570   -2.6450    1.0360 C   0  0  2  0  0  0  0  0  0  0  0  0
    1.8420   -2.2550   -0.3630 N   0  0  0  0  0  0  0  0  0  0  0  0
    1.5980   -1.3920    1.8130 C   0  0  0  0  0  0  0  0  0  0  0  0
    1.5120   -1.4840    3.0610 O   0  0  0  0  0  0  0  0  0  0  0  0
    2.7360   -5.1700    0.9950 H   0  0  0  0  0  0  0  0  0  0  0  0
    2.9650   -3.5830    2.5380 H   0  0  0  0  0  0  0  0  0  0  0  0
    3.8610   -2.5640    1.3330 H   0  0  0  0  0  0  0  0  0  0  0  0
    0.9050   -3.3410    1.1850 H   0  0  0  0  0  0  0  0  0  0  0  0
    2.0800   -3.0960   -0.9420 H   0  0  0  0  0  0  0  0  0  0  0  0
    0.9030   -1.8910   -0.6280 H   0  0  0  0  0  0  0  0  0  0  0  0
    4.1760    0.2100    3.7920 C   0  0  0  0  0  0  0  0  0  0  0  0
    4.5010    1.7760    3.0080 S   0  0  0  0  0  0  0  0  0  0  0  0
    3.6760    2.0650    1.4590 C   0  0  0  0  0  0  0  0  0  0  0  0
    2.2070    2.2440    1.4970 C   0  0  0  0  0  0  0  0  0  0  0  0
    1.3840    1.1030    2.0030 C   0  0  2  0  0  0  0  0  0  0  0  0
    1.5370   -0.1080    1.2250 N   0  0  0  0  0  0  0  0  0  0  0  0
   -0.0710    1.5440    1.8770 C   0  0  0  0  0  0  0  0  0  0  0  0
   -0.4710    2.5790    2.4440 O   0  0  0  0  0  0  0  0  0  0  0  0
    4.0840   -0.5600    2.9940 H   0  0  0  0  0  0  0  0  0  0  0  0
    3.2910    0.1630    4.4400 H   0  0  0  0  0  0  0  0  0  0  0  0
    5.0480   -0.0550    4.4730 H   0  0  0  0  0  0  0  0  0  0  0  0
    4.0940    2.9950    0.9610 H   0  0  0  0  0  0  0  0  0  0  0  0
    3.9560    1.2590    0.7180 H   0  0  0  0  0  0  0  0  0  0  0  0
    1.7950    2.5350    0.4890 H   0  0  0  0  0  0  0  0  0  0  0  0
    1.9140    3.1360    2.1380 H   0  0  0  0  0  0  0  0  0  0  0  0
    1.5100    0.8930    3.0870 H   0  0  0  0  0  0  0  0  0  0  0  0
    1.6050   -0.0280    0.1890 H   0  0  0  0  0  0  0  0  0  0  0  0
   -0.9560    0.7750    1.1190 N   0  0  0  0  0  0  0  0  0  0  0  0
   -2.3620    1.0910    0.9250 C   0  0  1  0  0  0  0  0  0  0  0  0
   -2.7170    1.2690   -0.5020 C   0  0  0  0  0  0  0  0  0  0  0  0
   -2.4500    0.1040   -1.3770 C   0  0  0  0  0  0  0  0  0  0  0  0
   -1.2470   -0.0650   -2.0970 C   0  0  0  0  0  0  0  0  0  0  0  0
   -1.2820   -1.2190   -2.7430 N   0  0  0  0  0  0  0  0  0  0  0  0
   -2.4370   -1.8600   -2.5150 C   0  0  0  0  0  0  0  0  0  0  0  0
   -2.9530   -3.0560   -2.9500 C   0  0  0  0  0  0  0  0  0  0  0  0
   -4.2260   -3.4420   -2.5320 C   0  0  0  0  0  0  0  0  0  0  0  0
   -4.9550   -2.6410   -1.6990 C   0  0  0  0  0  0  0  0  0  0  0  0
   -4.4090   -1.4450   -1.2780 C   0  0  0  0  0  0  0  0  0  0  0  0
   -3.1570   -1.0290   -1.6660 C   0  0  0  0  0  0  0  0  0  0  0  0
   -3.1680    0.0570    1.5670 C   0  0  0  0  0  0  0  0  0  0  0  0
   -4.4230    0.1250    1.7060 O   0  0  0  0  0  0  0  0  0  0  0  0
   -2.5420   -1.1000    2.0730 O   0  0  0  0  0  0  0  0  0  0  0  0
   -0.6170   -0.0920    0.6470 H   0  0  0  0  0  0  0  0  0  0  0  0
   -2.6170    2.0530    1.4470 H   0  0  0  0  0  0  0  0  0  0  0  0
   -3.8440    1.3960   -0.5290 H   0  0  0  0  0  0  0  0  0  0  0  0
   -2.3440    2.2180   -0.9490 H   0  0  0  0  0  0  0  0  0  0  0  0
   -0.4330    0.6270   -2.1200 H   0  0  0  0  0  0  0  0  0  0  0  0
   -0.5370   -1.6170   -3.3560 H   0  0  0  0  0  0  0  0  0  0  0  0
   -2.4190   -3.7260   -3.6100 H   0  0  0  0  0  0  0  0  0  0  0  0
   -4.6360   -4.3950   -2.8790 H   0  0  0  0  0  0  0  0  0  0  0  0
   -5.9450   -2.9450   -1.3760 H   0  0  0  0  0  0  0  0  0  0  0  0
   -5.0020   -0.8110   -0.6380 H   0  0  0  0  0  0  0  0  0  0  0  0
  1  7  1  0  0  0  0
  1  2  1  0  0  0  0
  2  8  1  0  0  0  0
  3 10  1  1  0  0  0
  3  2  1  0  0  0  0
  3  5  1  0  0  0  0
  4  3  1  0  0  0  0
  5  6  2  0  0  0  0
  9  2  1  0  0  0  0
 11  4  1  0  0  0  0
 12  4  1  0  0  0  0
 13 22  1  0  0  0  0
 13 23  1  0  0  0  0
 14 13  1  0  0  0  0
 15 16  1  0  0  0  0
 15 14  1  0  0  0  0
 16 17  1  0  0  0  0
 16 27  1  0  0  0  0
 17 28  1  1  0  0  0
 18  5  1  0  0  0  0
 18 17  1  0  0  0  0
 19 17  1  0  0  0  0
 19 20  2  0  0  0  0
 21 13  1  0  0  0  0
 24 15  1  0  0  0  0
 25 15  1  0  0  0  0
 26 16  1  0  0  0  0
 29 18  1  0  0  0  0
 30 19  1  0  0  0  0
 31 30  1  0  0  0  0
 31 46  1  1  0  0  0
 31 42  1  0  0  0  0
 32 31  1  0  0  0  0
 33 32  1  0  0  0  0
 34 33  2  0  0  0  0
 35 36  1  0  0  0  0
 35 34  1  0  0  0  0
 36 41  1  0  0  0  0
 37 38  1  0  0  0  0
 37 36  2  0  0  0  0
 38 39  2  0  0  0  0
 39 53  1  0  0  0  0
 39 40  1  0  0  0  0
 40 54  1  0  0  0  0
 41 33  1  0  0  0  0
 41 40  2  0  0  0  0
 42 43  2  0  0  0  0
 42 44  1  0  0  0  0
 45 30  1  0  0  0  0
 47 32  1  0  0  0  0
 48 32  1  0  0  0  0
 49 34  1  0  0  0  0
 50 35  1  0  0  0  0
 51 37  1  0  0  0  0
 52 38  1  0  0  0  0
M  END
$$$$
