SNA.pdb
 OpenBabel07022419073D

 37 36  0  0  1  0  0  0  0  0999 V2000
    1.0970   -1.1020    5.6360 O   0  0  0  0  0  0  0  0  0  0  0  0
    0.9540   -2.0400    4.6320 C   0  0  0  0  0  0  0  0  0  0  0  0
   -0.2080   -1.6960    3.6900 C   0  0  2  0  0  0  0  0  0  0  0  0
   -0.2290   -2.7580    2.6970 N   0  0  0  0  0  0  0  0  0  0  0  0
   -0.0020   -0.3710    3.0690 C   0  0  0  0  0  0  0  0  0  0  0  0
   -0.0580    0.6830    3.7440 O   0  0  0  0  0  0  0  0  0  0  0  0
    1.9170   -0.5480    5.4540 H   0  0  0  0  0  0  0  0  0  0  0  0
    0.6680   -3.0140    5.0950 H   0  0  0  0  0  0  0  0  0  0  0  0
    1.8890   -2.2370    4.0600 H   0  0  0  0  0  0  0  0  0  0  0  0
   -1.1260   -1.7760    4.2850 H   0  0  0  0  0  0  0  0  0  0  0  0
   -1.0500   -2.6610    2.0570 H   0  0  0  0  0  0  0  0  0  0  0  0
    0.6660   -2.8940    2.2090 H   0  0  0  0  0  0  0  0  0  0  0  0
    3.1310   -1.1570    0.6410 N   0  0  0  0  0  0  0  0  0  0  0  0
    2.5250   -0.0120    0.0720 C   0  0  0  0  0  0  0  0  0  0  0  0
    2.4330    0.0180   -1.1870 O   0  0  0  0  0  0  0  0  0  0  0  0
    2.0080    1.1200    0.8710 C   0  0  0  0  0  0  0  0  0  0  0  0
    0.4770    0.9960    1.0190 C   0  0  2  0  0  0  0  0  0  0  0  0
    0.2690   -0.2590    1.6820 N   0  0  0  0  0  0  0  0  0  0  0  0
   -0.0780    1.1030   -0.3270 C   0  0  0  0  0  0  0  0  0  0  0  0
    0.0910    2.2020   -0.9580 O   0  0  0  0  0  0  0  0  0  0  0  0
    2.9190   -2.1220    0.3300 H   0  0  0  0  0  0  0  0  0  0  0  0
    3.8200   -1.0170    1.4070 H   0  0  0  0  0  0  0  0  0  0  0  0
    2.4670    1.1110    1.8690 H   0  0  0  0  0  0  0  0  0  0  0  0
    2.2670    2.0930    0.4030 H   0  0  0  0  0  0  0  0  0  0  0  0
    0.2230    1.8690    1.6900 H   0  0  0  0  0  0  0  0  0  0  0  0
    0.3270   -1.1260    1.0800 H   0  0  0  0  0  0  0  0  0  0  0  0
   -0.5830   -0.6860   -3.2640 C   0  0  0  0  0  0  0  0  0  0  0  0
   -1.2940    0.3390   -2.3720 C   0  0  2  0  0  0  0  0  0  0  0  0
   -0.7970    0.1060   -1.0300 N   0  0  0  0  0  0  0  0  0  0  0  0
   -2.7430    0.1680   -2.5050 C   0  0  0  0  0  0  0  0  0  0  0  0
   -3.2840    0.3410   -3.6190 O   0  0  0  0  0  0  0  0  0  0  0  0
   -3.5180   -0.1830   -1.4210 O   0  0  0  0  0  0  0  0  0  0  0  0
   -0.9850   -1.6940   -2.9620 H   0  0  0  0  0  0  0  0  0  0  0  0
    0.4820   -0.7060   -2.9700 H   0  0  0  0  0  0  0  0  0  0  0  0
   -0.7480   -0.4830   -4.3350 H   0  0  0  0  0  0  0  0  0  0  0  0
   -0.9800    1.3630   -2.6930 H   0  0  0  0  0  0  0  0  0  0  0  0
   -0.9560   -0.8030   -0.5460 H   0  0  0  0  0  0  0  0  0  0  0  0
  2  8  1  0  0  0  0
  2  1  1  0  0  0  0
  3 10  1  1  0  0  0
  3  2  1  0  0  0  0
  4  3  1  0  0  0  0
  5  3  1  0  0  0  0
  5  6  2  0  0  0  0
  7  1  1  0  0  0  0
  9  2  1  0  0  0  0
 11  4  1  0  0  0  0
 12  4  1  0  0  0  0
 13 22  1  0  0  0  0
 14 13  1  0  0  0  0
 14 16  1  0  0  0  0
 15 14  2  0  0  0  0
 16 17  1  0  0  0  0
 16 23  1  0  0  0  0
 17 18  1  0  0  0  0
 17 25  1  1  0  0  0
 18  5  1  0  0  0  0
 19 17  1  0  0  0  0
 20 19  2  0  0  0  0
 21 13  1  0  0  0  0
 24 16  1  0  0  0  0
 26 18  1  0  0  0  0
 27 34  1  0  0  0  0
 27 33  1  0  0  0  0
 27 28  1  0  0  0  0
 28 36  1  6  0  0  0
 28 29  1  0  0  0  0
 29 37  1  0  0  0  0
 29 19  1  0  0  0  0
 30 28  1  0  0  0  0
 30 32  1  0  0  0  0
 31 30  2  0  0  0  0
 35 27  1  0  0  0  0
M  END
$$$$
