SND.pdb
 OpenBabel07022419073D

 40 39  0  0  1  0  0  0  0  0999 V2000
    1.1880   -4.0000    0.4050 O   0  0  0  0  0  0  0  0  0  0  0  0
    1.5510   -3.2360   -0.7120 C   0  0  0  0  0  0  0  0  0  0  0  0
    2.9190   -2.6000   -0.4530 C   0  0  2  0  0  0  0  0  0  0  0  0
    3.8350   -3.6980   -0.2450 N   0  0  0  0  0  0  0  0  0  0  0  0
    2.8650   -1.6880    0.7110 C   0  0  0  0  0  0  0  0  0  0  0  0
    3.5710   -1.9470    1.7190 O   0  0  0  0  0  0  0  0  0  0  0  0
    0.8000   -4.8560    0.0840 H   0  0  0  0  0  0  0  0  0  0  0  0
    0.7980   -2.4450   -0.8380 H   0  0  0  0  0  0  0  0  0  0  0  0
    1.6090   -3.8940   -1.5930 H   0  0  0  0  0  0  0  0  0  0  0  0
    3.2380   -2.0670   -1.3700 H   0  0  0  0  0  0  0  0  0  0  0  0
    4.3190   -3.9920   -1.1090 H   0  0  0  0  0  0  0  0  0  0  0  0
    3.4520   -4.4640    0.3280 H   0  0  0  0  0  0  0  0  0  0  0  0
    1.9810    2.0120   -1.1890 N   0  0  0  0  0  0  0  0  0  0  0  0
    1.5760    2.1870    0.1740 C   0  0  0  0  0  0  0  0  0  0  0  0
    0.4580    2.7530    0.3530 O   0  0  0  0  0  0  0  0  0  0  0  0
    2.4340    1.7240    1.2790 C   0  0  0  0  0  0  0  0  0  0  0  0
    1.9520    0.3670    1.8070 C   0  0  2  0  0  0  0  0  0  0  0  0
    2.0270   -0.5410    0.6860 N   0  0  0  0  0  0  0  0  0  0  0  0
    0.5270    0.5620    2.2440 C   0  0  0  0  0  0  0  0  0  0  0  0
    0.2460    1.3160    3.2120 O   0  0  0  0  0  0  0  0  0  0  0  0
    2.9270    2.3110   -1.4670 H   0  0  0  0  0  0  0  0  0  0  0  0
    1.3580    1.5960   -1.9040 H   0  0  0  0  0  0  0  0  0  0  0  0
    3.4560    1.5720    0.8860 H   0  0  0  0  0  0  0  0  0  0  0  0
    2.4330    2.4880    2.0570 H   0  0  0  0  0  0  0  0  0  0  0  0
    2.5790    0.0380    2.6290 H   0  0  0  0  0  0  0  0  0  0  0  0
    1.4720   -0.3980   -0.1940 H   0  0  0  0  0  0  0  0  0  0  0  0
   -0.5460   -0.0900    1.5900 N   0  0  0  0  0  0  0  0  0  0  0  0
   -1.9210    0.1440    2.0660 C   0  0  1  0  0  0  0  0  0  0  0  0
   -2.7690    0.6950    0.9770 C   0  0  0  0  0  0  0  0  0  0  0  0
   -4.1260    0.9870    1.4470 C   0  0  0  0  0  0  0  0  0  0  0  0
   -4.4560    0.9270    2.6480 O   0  0  0  0  0  0  0  0  0  0  0  0
   -2.4590   -1.1570    2.5540 C   0  0  0  0  0  0  0  0  0  0  0  0
   -3.5710   -1.3590    3.0380 O   0  0  0  0  0  0  0  0  0  0  0  0
   -5.1580    1.3590    0.5580 O   0  0  0  0  0  0  0  0  0  0  0  0
   -1.6270   -2.3000    2.4640 O   0  0  0  0  0  0  0  0  0  0  0  0
   -0.3940   -0.7170    0.7970 H   0  0  0  0  0  0  0  0  0  0  0  0
   -1.8690    0.8430    2.9020 H   0  0  0  0  0  0  0  0  0  0  0  0
   -2.8190    0.0060    0.0890 H   0  0  0  0  0  0  0  0  0  0  0  0
   -2.3360    1.6870    0.6620 H   0  0  0  0  0  0  0  0  0  0  0  0
   -5.8920    2.0070    0.8750 H   0  0  0  0  0  0  0  0  0  0  0  0
  2  3  1  0  0  0  0
  2  1  1  0  0  0  0
  3 10  1  6  0  0  0
  3  4  1  0  0  0  0
  3  5  1  0  0  0  0
  4 12  1  0  0  0  0
  5  6  2  0  0  0  0
  7  1  1  0  0  0  0
  8  2  1  0  0  0  0
  9  2  1  0  0  0  0
 11  4  1  0  0  0  0
 13 14  1  0  0  0  0
 14 15  2  0  0  0  0
 14 16  1  0  0  0  0
 16 17  1  0  0  0  0
 16 24  1  0  0  0  0
 17 19  1  0  0  0  0
 17 25  1  1  0  0  0
 18  5  1  0  0  0  0
 18 17  1  0  0  0  0
 19 20  2  0  0  0  0
 21 13  1  0  0  0  0
 22 13  1  0  0  0  0
 23 16  1  0  0  0  0
 26 18  1  0  0  0  0
 27 28  1  0  0  0  0
 27 19  1  0  0  0  0
 28 32  1  0  0  0  0
 28 37  1  1  0  0  0
 29 30  1  0  0  0  0
 29 28  1  0  0  0  0
 30 31  2  0  0  0  0
 32 33  1  0  0  0  0
 34 40  1  0  0  0  0
 34 30  1  0  0  0  0
 35 32  2  0  0  0  0
 36 27  1  0  0  0  0
 38 29  1  0  0  0  0
 39 29  1  0  0  0  0
M  END
$$$$
