SNE.pdb
 OpenBabel07022419073D

 43 42  0  0  1  0  0  0  0  0999 V2000
    3.1160   -4.6320    0.8270 O   0  0  0  0  0  0  0  0  0  0  0  0
    4.0490   -3.6950    1.3010 C   0  0  0  0  0  0  0  0  0  0  0  0
    3.3490   -2.3920    1.6620 C   0  0  2  0  0  0  0  0  0  0  0  0
    2.3760   -2.6660    2.6880 N   0  0  0  0  0  0  0  0  0  0  0  0
    2.7360   -1.7650    0.4720 C   0  0  0  0  0  0  0  0  0  0  0  0
    3.3940   -1.4370   -0.5370 O   0  0  0  0  0  0  0  0  0  0  0  0
    3.5010   -5.5230    0.7710 H   0  0  0  0  0  0  0  0  0  0  0  0
    4.5250   -4.1430    2.1890 H   0  0  0  0  0  0  0  0  0  0  0  0
    4.7970   -3.5640    0.5040 H   0  0  0  0  0  0  0  0  0  0  0  0
    4.1170   -1.7120    2.1000 H   0  0  0  0  0  0  0  0  0  0  0  0
    1.9150   -1.8250    3.0590 H   0  0  0  0  0  0  0  0  0  0  0  0
    1.6450   -3.3470    2.3890 H   0  0  0  0  0  0  0  0  0  0  0  0
   -2.1630   -1.9630   -3.0280 N   0  0  0  0  0  0  0  0  0  0  0  0
   -1.0650   -1.2270   -2.4240 C   0  0  0  0  0  0  0  0  0  0  0  0
   -0.8270   -0.1380   -2.9930 O   0  0  0  0  0  0  0  0  0  0  0  0
   -0.3690   -1.7960   -1.2620 C   0  0  0  0  0  0  0  0  0  0  0  0
    0.6390   -0.9050   -0.6650 C   0  0  2  0  0  0  0  0  0  0  0  0
    1.3420   -1.5220    0.4670 N   0  0  0  0  0  0  0  0  0  0  0  0
    0.1270    0.4350   -0.2310 C   0  0  0  0  0  0  0  0  0  0  0  0
   -0.4930    1.2470   -0.9410 O   0  0  0  0  0  0  0  0  0  0  0  0
   -3.1290   -1.7200   -2.7260 H   0  0  0  0  0  0  0  0  0  0  0  0
   -2.0030   -2.7000   -3.7300 H   0  0  0  0  0  0  0  0  0  0  0  0
   -1.1520   -2.1600   -0.5630 H   0  0  0  0  0  0  0  0  0  0  0  0
    0.0780   -2.7690   -1.6390 H   0  0  0  0  0  0  0  0  0  0  0  0
    1.4220   -0.7030   -1.4060 H   0  0  0  0  0  0  0  0  0  0  0  0
    0.7210   -1.7700    1.2790 H   0  0  0  0  0  0  0  0  0  0  0  0
    0.3450    0.8780    1.1260 N   0  0  0  0  0  0  0  0  0  0  0  0
   -0.1360    2.1720    1.5860 C   0  0  1  0  0  0  0  0  0  0  0  0
   -1.1840    1.8890    2.6380 C   0  0  0  0  0  0  0  0  0  0  0  0
   -2.3390    1.0950    2.1460 C   0  0  0  0  0  0  0  0  0  0  0  0
   -3.1150    1.6840    1.0600 C   0  0  0  0  0  0  0  0  0  0  0  0
   -4.0930    0.9840    0.6270 O   0  0  0  0  0  0  0  0  0  0  0  0
    0.9600    2.9410    2.2250 C   0  0  0  0  0  0  0  0  0  0  0  0
    0.7270    4.0880    2.6850 O   0  0  0  0  0  0  0  0  0  0  0  0
   -2.9190    2.8950    0.4520 O   0  0  0  0  0  0  0  0  0  0  0  0
    2.2570    2.4630    2.3500 O   0  0  0  0  0  0  0  0  0  0  0  0
    0.8540    0.2340    1.7400 H   0  0  0  0  0  0  0  0  0  0  0  0
   -0.6240    2.7430    0.7960 H   0  0  0  0  0  0  0  0  0  0  0  0
   -1.5810    2.8220    3.0980 H   0  0  0  0  0  0  0  0  0  0  0  0
   -0.7060    1.3170    3.4600 H   0  0  0  0  0  0  0  0  0  0  0  0
   -3.0390    0.9730    3.0210 H   0  0  0  0  0  0  0  0  0  0  0  0
   -2.0690    0.0610    1.8540 H   0  0  0  0  0  0  0  0  0  0  0  0
   -3.5870    3.3590   -0.1380 H   0  0  0  0  0  0  0  0  0  0  0  0
  1  2  1  0  0  0  0
  2  3  1  0  0  0  0
  2  8  1  0  0  0  0
  3 10  1  1  0  0  0
  3  4  1  0  0  0  0
  4 11  1  0  0  0  0
  5  3  1  0  0  0  0
  6  5  2  0  0  0  0
  7  1  1  0  0  0  0
  9  2  1  0  0  0  0
 12  4  1  0  0  0  0
 13 21  1  0  0  0  0
 13 14  1  0  0  0  0
 14 16  1  0  0  0  0
 15 14  2  0  0  0  0
 16 17  1  0  0  0  0
 16 23  1  0  0  0  0
 17 25  1  6  0  0  0
 17 19  1  0  0  0  0
 17 18  1  0  0  0  0
 18  5  1  0  0  0  0
 18 26  1  0  0  0  0
 19 27  1  0  0  0  0
 20 19  2  0  0  0  0
 22 13  1  0  0  0  0
 24 16  1  0  0  0  0
 27 28  1  0  0  0  0
 27 37  1  0  0  0  0
 28 38  1  6  0  0  0
 28 33  1  0  0  0  0
 28 29  1  0  0  0  0
 29 39  1  0  0  0  0
 29 40  1  0  0  0  0
 30 29  1  0  0  0  0
 30 41  1  0  0  0  0
 31 30  1  0  0  0  0
 32 31  2  0  0  0  0
 33 36  2  0  0  0  0
 33 34  1  0  0  0  0
 35 31  1  0  0  0  0
 42 30  1  0  0  0  0
 43 35  1  0  0  0  0
M  END
$$$$
