SNH.pdb
 OpenBabel07022419073D

 44 44  0  0  1  0  0  0  0  0999 V2000
    2.2730   -5.3400    0.4490 O   0  0  0  0  0  0  0  0  0  0  0  0
    2.0020   -4.0440    0.8860 C   0  0  0  0  0  0  0  0  0  0  0  0
    3.2220   -3.3100    1.3250 C   0  0  2  0  0  0  0  0  0  0  0  0
    3.8940   -3.9730    2.4230 N   0  0  0  0  0  0  0  0  0  0  0  0
    2.8220   -1.9250    1.6880 C   0  0  0  0  0  0  0  0  0  0  0  0
    3.0910   -1.5090    2.8280 O   0  0  0  0  0  0  0  0  0  0  0  0
    1.4000   -5.7440    0.2270 H   0  0  0  0  0  0  0  0  0  0  0  0
    1.5130   -3.4560    0.0840 H   0  0  0  0  0  0  0  0  0  0  0  0
    1.3400   -4.1650    1.7870 H   0  0  0  0  0  0  0  0  0  0  0  0
    3.9500   -3.2030    0.4790 H   0  0  0  0  0  0  0  0  0  0  0  0
    4.0250   -4.9760    2.1850 H   0  0  0  0  0  0  0  0  0  0  0  0
    3.2360   -3.9650    3.2580 H   0  0  0  0  0  0  0  0  0  0  0  0
    1.4750    0.5780   -1.8210 N   0  0  0  0  0  0  0  0  0  0  0  0
    2.2230    1.4190   -0.9950 C   0  0  0  0  0  0  0  0  0  0  0  0
    2.7980    2.3980   -1.5960 O   0  0  0  0  0  0  0  0  0  0  0  0
    2.4380    1.3370    0.4360 C   0  0  0  0  0  0  0  0  0  0  0  0
    1.7890    0.2570    1.1930 C   0  0  2  0  0  0  0  0  0  0  0  0
    2.1480   -1.0720    0.7790 N   0  0  0  0  0  0  0  0  0  0  0  0
    0.3060    0.3390    1.2960 C   0  0  0  0  0  0  0  0  0  0  0  0
   -0.3130   -0.7160    1.0210 O   0  0  0  0  0  0  0  0  0  0  0  0
    0.4800    0.7780   -2.0030 H   0  0  0  0  0  0  0  0  0  0  0  0
    1.9110   -0.2480   -2.2580 H   0  0  0  0  0  0  0  0  0  0  0  0
    3.5510    1.2310    0.6030 H   0  0  0  0  0  0  0  0  0  0  0  0
    2.1850    2.3120    0.9040 H   0  0  0  0  0  0  0  0  0  0  0  0
    2.1350    0.3700    2.2670 H   0  0  0  0  0  0  0  0  0  0  0  0
    1.9240   -1.4370   -0.1860 H   0  0  0  0  0  0  0  0  0  0  0  0
   -0.2860    1.5380    1.6780 N   0  0  0  0  0  0  0  0  0  0  0  0
   -1.6760    1.7860    1.8040 C   0  0  1  0  0  0  0  0  0  0  0  0
   -2.6390    0.6800    1.5620 C   0  0  0  0  0  0  0  0  0  0  0  0
   -2.6930    0.1660    0.1740 C   0  0  0  0  0  0  0  0  0  0  0  0
   -3.5290   -0.9060   -0.1530 C   0  0  0  0  0  0  0  0  0  0  0  0
   -3.3930   -1.1730   -1.4590 N   0  0  0  0  0  0  0  0  0  0  0  0
   -2.5050   -0.2960   -1.9240 C   0  0  0  0  0  0  0  0  0  0  0  0
   -2.0830    0.5070   -0.9500 N   0  0  0  0  0  0  0  0  0  0  0  0
   -2.0560    2.6960    2.8940 C   0  0  0  0  0  0  0  0  0  0  0  0
   -1.1590    3.1830    3.6240 O   0  0  0  0  0  0  0  0  0  0  0  0
   -3.4070    2.9740    3.0620 O   0  0  0  0  0  0  0  0  0  0  0  0
    0.4020    2.3250    1.8890 H   0  0  0  0  0  0  0  0  0  0  0  0
   -1.8750    2.4320    0.8140 H   0  0  0  0  0  0  0  0  0  0  0  0
   -3.6540    1.0570    1.8010 H   0  0  0  0  0  0  0  0  0  0  0  0
   -2.4830   -0.2020    2.2190 H   0  0  0  0  0  0  0  0  0  0  0  0
   -4.1800   -1.4400    0.5230 H   0  0  0  0  0  0  0  0  0  0  0  0
   -3.9160   -1.9360   -1.9470 H   0  0  0  0  0  0  0  0  0  0  0  0
   -2.1970   -0.2820   -2.9790 H   0  0  0  0  0  0  0  0  0  0  0  0
  1  2  1  0  0  0  0
  2  3  1  0  0  0  0
  2  9  1  0  0  0  0
  3 10  1  6  0  0  0
  3  5  1  0  0  0  0
  3  4  1  0  0  0  0
  4 12  1  0  0  0  0
  5  6  2  0  0  0  0
  7  1  1  0  0  0  0
  8  2  1  0  0  0  0
 11  4  1  0  0  0  0
 13 14  1  0  0  0  0
 14 16  1  0  0  0  0
 15 14  2  0  0  0  0
 16 23  1  0  0  0  0
 16 24  1  0  0  0  0
 16 17  1  0  0  0  0
 17 19  1  0  0  0  0
 17 25  1  1  0  0  0
 18 17  1  0  0  0  0
 18  5  1  0  0  0  0
 19 27  1  0  0  0  0
 20 19  2  0  0  0  0
 21 13  1  0  0  0  0
 22 13  1  0  0  0  0
 26 18  1  0  0  0  0
 27 28  1  0  0  0  0
 27 38  1  0  0  0  0
 28 39  1  6  0  0  0
 28 35  1  0  0  0  0
 29 40  1  0  0  0  0
 29 28  1  0  0  0  0
 29 41  1  0  0  0  0
 30 29  1  0  0  0  0
 31 30  2  0  0  0  0
 31 42  1  0  0  0  0
 32 31  1  0  0  0  0
 33 32  1  0  0  0  0
 33 34  2  0  0  0  0
 34 30  1  0  0  0  0
 35 37  2  0  0  0  0
 35 36  1  0  0  0  0
 43 32  1  0  0  0  0
 44 33  1  0  0  0  0
M  END
$$$$
