SNI.pdb
 OpenBabel07022419073D

 46 45  0  0  1  0  0  0  0  0999 V2000
    3.6810   -2.4540    2.5340 O   0  0  0  0  0  0  0  0  0  0  0  0
    4.0390   -2.7950    1.2340 C   0  0  0  0  0  0  0  0  0  0  0  0
    4.5910   -1.5860    0.4930 C   0  0  2  0  0  0  0  0  0  0  0  0
    5.7570   -1.0360    1.1150 N   0  0  0  0  0  0  0  0  0  0  0  0
    3.5280   -0.5460    0.3500 C   0  0  0  0  0  0  0  0  0  0  0  0
    3.7120    0.6630    0.6950 O   0  0  0  0  0  0  0  0  0  0  0  0
    4.4740   -2.4450    3.1330 H   0  0  0  0  0  0  0  0  0  0  0  0
    3.1830   -3.2380    0.6990 H   0  0  0  0  0  0  0  0  0  0  0  0
    4.8120   -3.5970    1.3070 H   0  0  0  0  0  0  0  0  0  0  0  0
    4.8650   -1.9050   -0.5420 H   0  0  0  0  0  0  0  0  0  0  0  0
    5.6110   -0.9260    2.1290 H   0  0  0  0  0  0  0  0  0  0  0  0
    6.6410   -1.5140    0.8610 H   0  0  0  0  0  0  0  0  0  0  0  0
    0.8900   -1.8730   -3.4320 N   0  0  0  0  0  0  0  0  0  0  0  0
    0.3730   -1.2100   -2.2680 C   0  0  0  0  0  0  0  0  0  0  0  0
   -0.5490   -1.7780   -1.6000 O   0  0  0  0  0  0  0  0  0  0  0  0
    0.8630    0.0920   -1.8170 C   0  0  0  0  0  0  0  0  0  0  0  0
    1.2090    0.0960   -0.3440 C   0  0  2  0  0  0  0  0  0  0  0  0
    2.2620   -0.8980   -0.1870 N   0  0  0  0  0  0  0  0  0  0  0  0
    0.0770   -0.3110    0.5280 C   0  0  0  0  0  0  0  0  0  0  0  0
    0.1640   -1.3440    1.2440 O   0  0  0  0  0  0  0  0  0  0  0  0
    1.8210   -2.3340   -3.3630 H   0  0  0  0  0  0  0  0  0  0  0  0
    0.3910   -1.9260   -4.3430 H   0  0  0  0  0  0  0  0  0  0  0  0
    1.8440    0.2620   -2.3500 H   0  0  0  0  0  0  0  0  0  0  0  0
    0.2290    0.9550   -2.1220 H   0  0  0  0  0  0  0  0  0  0  0  0
    1.5220    1.0910   -0.0080 H   0  0  0  0  0  0  0  0  0  0  0  0
    2.1190   -1.8890   -0.4620 H   0  0  0  0  0  0  0  0  0  0  0  0
   -3.5820   -0.6310    4.0950 C   0  0  0  0  0  0  0  0  0  0  0  0
   -3.6480    0.7270    3.4430 C   0  0  0  0  0  0  0  0  0  0  0  0
   -2.5250    1.0370    2.5190 C   0  0  2  0  0  0  0  0  0  0  0  0
   -2.7420    2.4210    1.9600 C   0  0  0  0  0  0  0  0  0  0  0  0
   -2.2530    0.0090    1.4700 C   0  0  2  0  0  0  0  0  0  0  0  0
   -1.1420    0.4020    0.6190 N   0  0  0  0  0  0  0  0  0  0  0  0
   -3.4350   -0.3890    0.6700 C   0  0  0  0  0  0  0  0  0  0  0  0
   -4.5210   -0.7790    1.1470 O   0  0  0  0  0  0  0  0  0  0  0  0
   -3.3960   -0.3440   -0.7470 O   0  0  0  0  0  0  0  0  0  0  0  0
   -3.2210   -1.4330    3.4300 H   0  0  0  0  0  0  0  0  0  0  0  0
   -4.6430   -0.9090    4.3580 H   0  0  0  0  0  0  0  0  0  0  0  0
   -2.9980   -0.6120    5.0430 H   0  0  0  0  0  0  0  0  0  0  0  0
   -4.6130    0.7790    2.8760 H   0  0  0  0  0  0  0  0  0  0  0  0
   -3.6570    1.4890    4.2570 H   0  0  0  0  0  0  0  0  0  0  0  0
   -1.5830    1.1180    3.1390 H   0  0  0  0  0  0  0  0  0  0  0  0
   -3.4990    2.3790    1.1370 H   0  0  0  0  0  0  0  0  0  0  0  0
   -1.8020    2.9320    1.6700 H   0  0  0  0  0  0  0  0  0  0  0  0
   -3.2120    3.0220    2.7680 H   0  0  0  0  0  0  0  0  0  0  0  0
   -1.9010   -0.9070    1.9930 H   0  0  0  0  0  0  0  0  0  0  0  0
   -1.2310    1.2590    0.0300 H   0  0  0  0  0  0  0  0  0  0  0  0
  1  7  1  0  0  0  0
  2  9  1  0  0  0  0
  2  1  1  0  0  0  0
  3 10  1  6  0  0  0
  3  4  1  0  0  0  0
  3  2  1  0  0  0  0
  4 11  1  0  0  0  0
  5  3  1  0  0  0  0
  5  6  2  0  0  0  0
  8  2  1  0  0  0  0
 12  4  1  0  0  0  0
 13 21  1  0  0  0  0
 13 14  1  0  0  0  0
 14 16  1  0  0  0  0
 14 15  2  0  0  0  0
 16 17  1  0  0  0  0
 17 18  1  0  0  0  0
 17 25  1  1  0  0  0
 17 19  1  0  0  0  0
 18  5  1  0  0  0  0
 19 32  1  0  0  0  0
 19 20  2  0  0  0  0
 22 13  1  0  0  0  0
 23 16  1  0  0  0  0
 24 16  1  0  0  0  0
 26 18  1  0  0  0  0
 27 37  1  0  0  0  0
 27 38  1  0  0  0  0
 28 27  1  0  0  0  0
 28 40  1  0  0  0  0
 29 41  1  1  0  0  0
 29 28  1  0  0  0  0
 30 29  1  0  0  0  0
 30 44  1  0  0  0  0
 31 45  1  1  0  0  0
 31 29  1  0  0  0  0
 32 31  1  0  0  0  0
 33 34  1  0  0  0  0
 33 31  1  0  0  0  0
 35 33  2  0  0  0  0
 36 27  1  0  0  0  0
 39 28  1  0  0  0  0
 42 30  1  0  0  0  0
 43 30  1  0  0  0  0
 46 32  1  0  0  0  0
M  END
$$$$
