SNK.pdb
 OpenBabel07022419073D

 48 47  0  0  1  0  0  0  0  0999 V2000
    0.7490   -3.5330    2.3040 O   0  0  0  0  0  0  0  0  0  0  0  0
    0.8150   -3.5860    0.8970 C   0  0  0  0  0  0  0  0  0  0  0  0
    2.2490   -3.4040    0.4390 C   0  0  2  0  0  0  0  0  0  0  0  0
    3.0230   -4.4730    1.0170 N   0  0  0  0  0  0  0  0  0  0  0  0
    2.7740   -2.0650    0.8080 C   0  0  0  0  0  0  0  0  0  0  0  0
    3.7940   -1.9130    1.5540 O   0  0  0  0  0  0  0  0  0  0  0  0
   -0.0810   -3.9520    2.5910 H   0  0  0  0  0  0  0  0  0  0  0  0
    0.1180   -2.8900    0.4280 H   0  0  0  0  0  0  0  0  0  0  0  0
    0.5130   -4.6150    0.6100 H   0  0  0  0  0  0  0  0  0  0  0  0
    2.2650   -3.5260   -0.6590 H   0  0  0  0  0  0  0  0  0  0  0  0
    3.8390   -4.7270    0.3870 H   0  0  0  0  0  0  0  0  0  0  0  0
    2.4370   -5.3430    1.0510 H   0  0  0  0  0  0  0  0  0  0  0  0
    4.0850    1.0130   -2.8560 N   0  0  0  0  0  0  0  0  0  0  0  0
    3.7290    0.5180   -1.5780 C   0  0  0  0  0  0  0  0  0  0  0  0
    4.3220   -0.5140   -1.1450 O   0  0  0  0  0  0  0  0  0  0  0  0
    2.6960    1.1530   -0.7310 C   0  0  0  0  0  0  0  0  0  0  0  0
    2.5030    0.4340    0.5810 C   0  0  2  0  0  0  0  0  0  0  0  0
    2.0970   -0.9230    0.3000 N   0  0  0  0  0  0  0  0  0  0  0  0
    1.4440    1.1840    1.3150 C   0  0  0  0  0  0  0  0  0  0  0  0
    1.6820    2.3730    1.6150 O   0  0  0  0  0  0  0  0  0  0  0  0
    4.0100    2.0290   -3.0400 H   0  0  0  0  0  0  0  0  0  0  0  0
    4.4120    0.3470   -3.5750 H   0  0  0  0  0  0  0  0  0  0  0  0
    1.7290    1.0880   -1.3040 H   0  0  0  0  0  0  0  0  0  0  0  0
    2.8740    2.2390   -0.5940 H   0  0  0  0  0  0  0  0  0  0  0  0
    3.4180    0.4960    1.1820 H   0  0  0  0  0  0  0  0  0  0  0  0
    1.2600   -1.0580   -0.3100 H   0  0  0  0  0  0  0  0  0  0  0  0
    0.1970    0.6200    1.6830 N   0  0  0  0  0  0  0  0  0  0  0  0
   -0.8300    1.3310    2.3880 C   0  0  1  0  0  0  0  0  0  0  0  0
   -2.0820    1.4440    1.5460 C   0  0  0  0  0  0  0  0  0  0  0  0
   -2.5840    0.0530    1.2150 C   0  0  0  0  0  0  0  0  0  0  0  0
   -3.8490    0.1850    0.3630 C   0  0  0  0  0  0  0  0  0  0  0  0
   -4.3660   -1.2010    0.0220 C   0  0  0  0  0  0  0  0  0  0  0  0
   -5.5570   -1.0630   -0.7790 N   0  0  0  0  0  0  0  0  0  0  0  0
   -1.1880    0.7220    3.6740 C   0  0  0  0  0  0  0  0  0  0  0  0
   -2.0740    1.2660    4.3680 O   0  0  0  0  0  0  0  0  0  0  0  0
   -0.6030   -0.4350    4.1840 O   0  0  0  0  0  0  0  0  0  0  0  0
    0.0360   -0.3750    1.4150 H   0  0  0  0  0  0  0  0  0  0  0  0
   -0.4900    2.3710    2.5920 H   0  0  0  0  0  0  0  0  0  0  0  0
   -1.8530    1.9980    0.6140 H   0  0  0  0  0  0  0  0  0  0  0  0
   -2.8850    1.9470    2.1080 H   0  0  0  0  0  0  0  0  0  0  0  0
   -1.8270   -0.4420    0.5860 H   0  0  0  0  0  0  0  0  0  0  0  0
   -2.7960   -0.5020    2.1480 H   0  0  0  0  0  0  0  0  0  0  0  0
   -4.6030    0.7900    0.9010 H   0  0  0  0  0  0  0  0  0  0  0  0
   -3.5830    0.6610   -0.6020 H   0  0  0  0  0  0  0  0  0  0  0  0
   -4.5880   -1.7960    0.9470 H   0  0  0  0  0  0  0  0  0  0  0  0
   -3.5870   -1.7160   -0.5590 H   0  0  0  0  0  0  0  0  0  0  0  0
   -6.3780   -0.9620   -0.1130 H   0  0  0  0  0  0  0  0  0  0  0  0
   -5.5010   -0.2100   -1.3590 H   0  0  0  0  0  0  0  0  0  0  0  0
  1  7  1  0  0  0  0
  2  1  1  0  0  0  0
  3 10  1  6  0  0  0
  3  5  1  0  0  0  0
  3  2  1  0  0  0  0
  3  4  1  0  0  0  0
  4 12  1  0  0  0  0
  5  6  2  0  0  0  0
  8  2  1  0  0  0  0
  9  2  1  0  0  0  0
 11  4  1  0  0  0  0
 13 14  1  0  0  0  0
 14 15  2  0  0  0  0
 14 16  1  0  0  0  0
 16 24  1  0  0  0  0
 16 17  1  0  0  0  0
 17 25  1  1  0  0  0
 17 19  1  0  0  0  0
 18 17  1  0  0  0  0
 18  5  1  0  0  0  0
 19 20  2  0  0  0  0
 19 27  1  0  0  0  0
 21 13  1  0  0  0  0
 22 13  1  0  0  0  0
 23 16  1  0  0  0  0
 26 18  1  0  0  0  0
 27 28  1  0  0  0  0
 28 38  1  1  0  0  0
 28 34  1  0  0  0  0
 29 40  1  0  0  0  0
 29 28  1  0  0  0  0
 30 29  1  0  0  0  0
 30 42  1  0  0  0  0
 31 43  1  0  0  0  0
 31 30  1  0  0  0  0
 32 31  1  0  0  0  0
 32 45  1  0  0  0  0
 33 47  1  0  0  0  0
 33 32  1  0  0  0  0
 34 36  2  0  0  0  0
 34 35  1  0  0  0  0
 37 27  1  0  0  0  0
 39 29  1  0  0  0  0
 41 30  1  0  0  0  0
 44 31  1  0  0  0  0
 46 32  1  0  0  0  0
 48 33  1  0  0  0  0
M  END
$$$$
