SNL.pdb
 OpenBabel07022419073D

 46 45  0  0  1  0  0  0  0  0999 V2000
    2.2460   -4.6730    0.9190 O   0  0  0  0  0  0  0  0  0  0  0  0
    2.7390   -4.3410   -0.3480 C   0  0  0  0  0  0  0  0  0  0  0  0
    3.7890   -3.2370   -0.2130 C   0  0  2  0  0  0  0  0  0  0  0  0
    4.8660   -3.7130    0.6160 N   0  0  0  0  0  0  0  0  0  0  0  0
    3.1500   -2.0220    0.3470 C   0  0  0  0  0  0  0  0  0  0  0  0
    3.5360   -1.5110    1.4260 O   0  0  0  0  0  0  0  0  0  0  0  0
    1.4330   -4.1310    1.0790 H   0  0  0  0  0  0  0  0  0  0  0  0
    1.9030   -4.0120   -0.9830 H   0  0  0  0  0  0  0  0  0  0  0  0
    3.1960   -5.2510   -0.7750 H   0  0  0  0  0  0  0  0  0  0  0  0
    4.1370   -2.9790   -1.2320 H   0  0  0  0  0  0  0  0  0  0  0  0
    4.6210   -3.5580    1.6170 H   0  0  0  0  0  0  0  0  0  0  0  0
    4.9200   -4.7560    0.4650 H   0  0  0  0  0  0  0  0  0  0  0  0
    0.3930   -0.4460   -2.6470 N   0  0  0  0  0  0  0  0  0  0  0  0
    1.0970    0.6780   -2.1870 C   0  0  0  0  0  0  0  0  0  0  0  0
    1.2970    1.5930   -3.0640 O   0  0  0  0  0  0  0  0  0  0  0  0
    1.5990    0.8810   -0.8370 C   0  0  0  0  0  0  0  0  0  0  0  0
    1.4000   -0.2360    0.1290 C   0  0  2  0  0  0  0  0  0  0  0  0
    2.0720   -1.4250   -0.3600 N   0  0  0  0  0  0  0  0  0  0  0  0
   -0.0460   -0.5180    0.3300 C   0  0  0  0  0  0  0  0  0  0  0  0
   -0.5660   -1.6440    0.1320 O   0  0  0  0  0  0  0  0  0  0  0  0
    0.7890   -1.1900   -3.2790 H   0  0  0  0  0  0  0  0  0  0  0  0
   -0.6010   -0.5830   -2.3660 H   0  0  0  0  0  0  0  0  0  0  0  0
    2.7210    1.0390   -0.9220 H   0  0  0  0  0  0  0  0  0  0  0  0
    1.2410    1.8600   -0.4370 H   0  0  0  0  0  0  0  0  0  0  0  0
    1.8660    0.0620    1.1100 H   0  0  0  0  0  0  0  0  0  0  0  0
    1.7800   -1.8780   -1.2490 H   0  0  0  0  0  0  0  0  0  0  0  0
   -2.9600    1.2440    4.6220 C   0  0  0  0  0  0  0  0  0  0  0  0
   -2.4380    1.5560    3.1940 C   0  0  0  0  0  0  0  0  0  0  0  0
   -0.9430    1.8170    3.4020 C   0  0  0  0  0  0  0  0  0  0  0  0
   -2.7000    0.3230    2.4140 C   0  0  0  0  0  0  0  0  0  0  0  0
   -2.3330    0.3060    0.9800 C   0  0  2  0  0  0  0  0  0  0  0  0
   -0.9430    0.5240    0.7740 N   0  0  0  0  0  0  0  0  0  0  0  0
   -3.2010    1.2360    0.2370 C   0  0  0  0  0  0  0  0  0  0  0  0
   -2.7500    2.1570   -0.5260 O   0  0  0  0  0  0  0  0  0  0  0  0
   -4.5830    1.1600    0.3260 O   0  0  0  0  0  0  0  0  0  0  0  0
   -2.6040    0.2190    4.8540 H   0  0  0  0  0  0  0  0  0  0  0  0
   -4.0530    1.2220    4.5830 H   0  0  0  0  0  0  0  0  0  0  0  0
   -2.5260    1.9440    5.3360 H   0  0  0  0  0  0  0  0  0  0  0  0
   -2.9600    2.4570    2.8770 H   0  0  0  0  0  0  0  0  0  0  0  0
   -0.7260    2.0500    4.4910 H   0  0  0  0  0  0  0  0  0  0  0  0
   -0.6080    2.7230    2.8720 H   0  0  0  0  0  0  0  0  0  0  0  0
   -0.3430    0.9080    3.2010 H   0  0  0  0  0  0  0  0  0  0  0  0
   -3.7970    0.0670    2.4760 H   0  0  0  0  0  0  0  0  0  0  0  0
   -2.2210   -0.5230    2.9910 H   0  0  0  0  0  0  0  0  0  0  0  0
   -2.6160   -0.7340    0.6120 H   0  0  0  0  0  0  0  0  0  0  0  0
   -0.4950    1.4430    0.9150 H   0  0  0  0  0  0  0  0  0  0  0  0
  1  7  1  0  0  0  0
  2  3  1  0  0  0  0
  2  1  1  0  0  0  0
  3 10  1  6  0  0  0
  3  5  1  0  0  0  0
  3  4  1  0  0  0  0
  4 11  1  0  0  0  0
  5  6  2  0  0  0  0
  8  2  1  0  0  0  0
  9  2  1  0  0  0  0
 12  4  1  0  0  0  0
 13 22  1  0  0  0  0
 13 14  1  0  0  0  0
 14 16  1  0  0  0  0
 15 14  2  0  0  0  0
 16 24  1  0  0  0  0
 16 17  1  0  0  0  0
 17 19  1  0  0  0  0
 17 25  1  1  0  0  0
 18 17  1  0  0  0  0
 18  5  1  0  0  0  0
 19 32  1  0  0  0  0
 20 19  2  0  0  0  0
 21 13  1  0  0  0  0
 23 16  1  0  0  0  0
 26 18  1  0  0  0  0
 27 36  1  0  0  0  0
 27 38  1  0  0  0  0
 28 29  1  0  0  0  0
 28 27  1  0  0  0  0
 29 40  1  0  0  0  0
 30 43  1  0  0  0  0
 30 44  1  0  0  0  0
 30 28  1  0  0  0  0
 31 45  1  6  0  0  0
 31 30  1  0  0  0  0
 32 46  1  0  0  0  0
 32 31  1  0  0  0  0
 33 35  1  0  0  0  0
 33 31  1  0  0  0  0
 34 33  2  0  0  0  0
 37 27  1  0  0  0  0
 39 28  1  0  0  0  0
 41 29  1  0  0  0  0
 42 29  1  0  0  0  0
M  END
$$$$
