SNN.pdb
 OpenBabel07022419073D

 41 40  0  0  1  0  0  0  0  0999 V2000
    2.5750   -2.1690    2.4810 O   0  0  0  0  0  0  0  0  0  0  0  0
    2.0020   -3.1120    1.6250 C   0  0  0  0  0  0  0  0  0  0  0  0
    2.6350   -2.9920    0.2480 C   0  0  2  0  0  0  0  0  0  0  0  0
    4.0720   -3.2520    0.4220 N   0  0  0  0  0  0  0  0  0  0  0  0
    2.4720   -1.6150   -0.2920 C   0  0  0  0  0  0  0  0  0  0  0  0
    3.4730   -0.8860   -0.4840 O   0  0  0  0  0  0  0  0  0  0  0  0
    2.6080   -2.5470    3.4200 H   0  0  0  0  0  0  0  0  0  0  0  0
    0.9240   -3.0080    1.5360 H   0  0  0  0  0  0  0  0  0  0  0  0
    2.2330   -4.1080    2.0630 H   0  0  0  0  0  0  0  0  0  0  0  0
    2.2860   -3.7580   -0.4490 H   0  0  0  0  0  0  0  0  0  0  0  0
    4.2980   -2.9700    1.4150 H   0  0  0  0  0  0  0  0  0  0  0  0
    4.2440   -4.2880    0.3760 H   0  0  0  0  0  0  0  0  0  0  0  0
   -1.2110   -1.7660   -3.2160 N   0  0  0  0  0  0  0  0  0  0  0  0
   -0.9480   -0.6400   -2.4060 C   0  0  0  0  0  0  0  0  0  0  0  0
   -1.8220   -0.2470   -1.6050 O   0  0  0  0  0  0  0  0  0  0  0  0
    0.3350    0.0650   -2.4940 C   0  0  0  0  0  0  0  0  0  0  0  0
    0.9850    0.2490   -1.1340 C   0  0  2  0  0  0  0  0  0  0  0  0
    1.2060   -1.0920   -0.6010 N   0  0  0  0  0  0  0  0  0  0  0  0
    0.0760    1.0290   -0.2430 C   0  0  0  0  0  0  0  0  0  0  0  0
   -0.2330    2.1640   -0.6240 O   0  0  0  0  0  0  0  0  0  0  0  0
   -1.5720   -2.6820   -2.8420 H   0  0  0  0  0  0  0  0  0  0  0  0
   -1.0570   -1.7450   -4.2660 H   0  0  0  0  0  0  0  0  0  0  0  0
    1.0570   -0.5550   -3.0980 H   0  0  0  0  0  0  0  0  0  0  0  0
    0.2750    1.0540   -3.0070 H   0  0  0  0  0  0  0  0  0  0  0  0
    1.9450    0.7200   -1.2690 H   0  0  0  0  0  0  0  0  0  0  0  0
    0.3370   -1.6680   -0.4560 H   0  0  0  0  0  0  0  0  0  0  0  0
    0.3580    0.1080    5.2700 N   0  0  0  0  0  0  0  0  0  0  0  0
   -0.2110    0.0910    3.9750 C   0  0  0  0  0  0  0  0  0  0  0  0
   -0.2930   -1.0640    3.4130 O   0  0  0  0  0  0  0  0  0  0  0  0
   -0.6960    1.3060    3.2710 C   0  0  0  0  0  0  0  0  0  0  0  0
   -1.2570    1.0440    1.9150 C   0  0  2  0  0  0  0  0  0  0  0  0
   -0.3900    0.4710    0.9660 N   0  0  0  0  0  0  0  0  0  0  0  0
   -2.1730    2.1160    1.5230 C   0  0  0  0  0  0  0  0  0  0  0  0
   -2.8100    2.6930    2.4510 O   0  0  0  0  0  0  0  0  0  0  0  0
   -2.4040    2.5460    0.2610 O   0  0  0  0  0  0  0  0  0  0  0  0
    1.1370    0.7820    5.4840 H   0  0  0  0  0  0  0  0  0  0  0  0
   -0.0090   -0.5510    6.0100 H   0  0  0  0  0  0  0  0  0  0  0  0
   -1.4760    1.7570    3.9200 H   0  0  0  0  0  0  0  0  0  0  0  0
    0.1660    2.0150    3.2580 H   0  0  0  0  0  0  0  0  0  0  0  0
   -2.0450    0.1720    2.1010 H   0  0  0  0  0  0  0  0  0  0  0  0
   -0.0310   -0.5420    1.1970 H   0  0  0  0  0  0  0  0  0  0  0  0
  1  7  1  0  0  0  0
  2  9  1  0  0  0  0
  2  1  1  0  0  0  0
  3 10  1  6  0  0  0
  3  4  1  0  0  0  0
  3  2  1  0  0  0  0
  4 11  1  0  0  0  0
  5  3  1  0  0  0  0
  6  5  2  0  0  0  0
  8  2  1  0  0  0  0
 12  4  1  0  0  0  0
 13 21  1  0  0  0  0
 13 14  1  0  0  0  0
 14 15  2  0  0  0  0
 16 14  1  0  0  0  0
 16 17  1  0  0  0  0
 17 25  1  6  0  0  0
 17 18  1  0  0  0  0
 17 19  1  0  0  0  0
 18 26  1  0  0  0  0
 18  5  1  0  0  0  0
 19 32  1  0  0  0  0
 20 19  2  0  0  0  0
 22 13  1  0  0  0  0
 23 16  1  0  0  0  0
 24 16  1  0  0  0  0
 27 36  1  0  0  0  0
 27 37  1  0  0  0  0
 28 27  1  0  0  0  0
 29 28  2  0  0  0  0
 30 38  1  0  0  0  0
 30 28  1  0  0  0  0
 31 40  1  1  0  0  0
 31 30  1  0  0  0  0
 32 41  1  0  0  0  0
 32 31  1  0  0  0  0
 33 31  1  0  0  0  0
 33 34  1  0  0  0  0
 35 33  2  0  0  0  0
 39 30  1  0  0  0  0
M  END
$$$$
