SNP.pdb
 OpenBabel07022419073D

 41 41  0  0  1  0  0  0  0  0999 V2000
   -1.7310   -0.5730   -0.9500 O   0  0  0  0  0  0  0  0  0  0  0  0
   -2.0980   -1.8980   -0.7630 C   0  0  0  0  0  0  0  0  0  0  0  0
   -1.0210   -2.8900   -1.0870 C   0  0  2  0  0  0  0  0  0  0  0  0
   -1.5990   -4.2110   -0.8740 N   0  0  0  0  0  0  0  0  0  0  0  0
    0.2440   -2.7310   -0.3820 C   0  0  0  0  0  0  0  0  0  0  0  0
    0.7350   -3.7740    0.1760 O   0  0  0  0  0  0  0  0  0  0  0  0
   -2.5780   -0.0560   -1.0470 H   0  0  0  0  0  0  0  0  0  0  0  0
   -2.9720   -2.0810   -1.4510 H   0  0  0  0  0  0  0  0  0  0  0  0
   -2.4950   -2.0310    0.2680 H   0  0  0  0  0  0  0  0  0  0  0  0
   -0.8090   -2.7970   -2.1940 H   0  0  0  0  0  0  0  0  0  0  0  0
   -2.0920   -4.1790    0.0440 H   0  0  0  0  0  0  0  0  0  0  0  0
   -2.3690   -4.2930   -1.5950 H   0  0  0  0  0  0  0  0  0  0  0  0
    2.1030    1.0120   -1.3690 N   0  0  0  0  0  0  0  0  0  0  0  0
    3.1350    0.0490   -1.4710 C   0  0  0  0  0  0  0  0  0  0  0  0
    3.9720    0.2890   -2.4130 O   0  0  0  0  0  0  0  0  0  0  0  0
    3.3060   -1.1420   -0.6230 C   0  0  0  0  0  0  0  0  0  0  0  0
    2.2070   -1.3560    0.3940 C   0  0  2  0  0  0  0  0  0  0  0  0
    0.9490   -1.5150   -0.2830 N   0  0  0  0  0  0  0  0  0  0  0  0
    2.2770   -0.4670    1.5340 C   0  0  0  0  0  0  0  0  0  0  0  0
    3.4600   -0.2410    2.0120 O   0  0  0  0  0  0  0  0  0  0  0  0
    2.0980    1.6430   -0.5430 H   0  0  0  0  0  0  0  0  0  0  0  0
    1.3470    1.1330   -2.0720 H   0  0  0  0  0  0  0  0  0  0  0  0
    4.3180   -1.1790   -0.1430 H   0  0  0  0  0  0  0  0  0  0  0  0
    3.3150   -2.0240   -1.3310 H   0  0  0  0  0  0  0  0  0  0  0  0
    2.4100   -2.4170    0.8030 H   0  0  0  0  0  0  0  0  0  0  0  0
    0.5560   -0.6550   -0.7210 H   0  0  0  0  0  0  0  0  0  0  0  0
    1.2450    0.2070    2.2270 N   0  0  0  0  0  0  0  0  0  0  0  0
    1.4730    1.1190    3.3580 C   0  0  0  0  0  0  0  0  0  0  0  0
    0.3900    0.6910    4.3120 C   0  0  0  0  0  0  0  0  0  0  0  0
   -0.6700    0.0230    3.4780 C   0  0  0  0  0  0  0  0  0  0  0  0
   -0.1730    0.1850    2.0760 C   0  0  1  0  0  0  0  0  0  0  0  0
   -0.7030    1.4400    1.5120 C   0  0  0  0  0  0  0  0  0  0  0  0
   -1.9620    1.5640    1.3980 O   0  0  0  0  0  0  0  0  0  0  0  0
    0.0930    2.4780    1.1050 O   0  0  0  0  0  0  0  0  0  0  0  0
    2.4900    0.9600    3.7800 H   0  0  0  0  0  0  0  0  0  0  0  0
    1.3320    2.1400    2.9750 H   0  0  0  0  0  0  0  0  0  0  0  0
    0.8600   -0.0120    5.0330 H   0  0  0  0  0  0  0  0  0  0  0  0
   -0.0090    1.5520    4.8940 H   0  0  0  0  0  0  0  0  0  0  0  0
   -1.6630    0.5050    3.5760 H   0  0  0  0  0  0  0  0  0  0  0  0
   -0.8010   -1.0480    3.7650 H   0  0  0  0  0  0  0  0  0  0  0  0
   -0.5130   -0.6660    1.4270 H   0  0  0  0  0  0  0  0  0  0  0  0
  1  2  1  0  0  0  0
  2  9  1  0  0  0  0
  3 10  1  6  0  0  0
  3  4  1  0  0  0  0
  3  2  1  0  0  0  0
  3  5  1  0  0  0  0
  4 11  1  0  0  0  0
  5 18  1  0  0  0  0
  5  6  2  0  0  0  0
  7  1  1  0  0  0  0
  8  2  1  0  0  0  0
 12  4  1  0  0  0  0
 13 21  1  0  0  0  0
 14 13  1  0  0  0  0
 14 16  1  0  0  0  0
 15 14  2  0  0  0  0
 16 23  1  0  0  0  0
 16 17  1  0  0  0  0
 17 25  1  1  0  0  0
 17 19  1  0  0  0  0
 18 17  1  0  0  0  0
 19 20  2  0  0  0  0
 19 27  1  0  0  0  0
 22 13  1  0  0  0  0
 24 16  1  0  0  0  0
 26 18  1  0  0  0  0
 27 28  1  0  0  0  0
 28 35  1  0  0  0  0
 28 29  1  0  0  0  0
 29 38  1  0  0  0  0
 29 37  1  0  0  0  0
 30 39  1  0  0  0  0
 30 40  1  0  0  0  0
 30 29  1  0  0  0  0
 31 41  1  6  0  0  0
 31 27  1  0  0  0  0
 31 30  1  0  0  0  0
 32 31  1  0  0  0  0
 33 32  1  0  0  0  0
 34 32  2  0  0  0  0
 36 28  1  0  0  0  0
M  END
$$$$
