SNQ.pdb
 OpenBabel07022419073D

 44 43  0  0  1  0  0  0  0  0999 V2000
    6.0460   -3.5530   -0.0070 O   0  0  0  0  0  0  0  0  0  0  0  0
    5.0630   -2.5980   -0.3180 C   0  0  0  0  0  0  0  0  0  0  0  0
    4.0360   -2.5350    0.8200 C   0  0  2  0  0  0  0  0  0  0  0  0
    3.4640   -3.8540    0.9230 N   0  0  0  0  0  0  0  0  0  0  0  0
    3.0130   -1.5240    0.4090 C   0  0  0  0  0  0  0  0  0  0  0  0
    3.4020   -0.3200    0.2920 O   0  0  0  0  0  0  0  0  0  0  0  0
    5.6890   -4.4660   -0.0300 H   0  0  0  0  0  0  0  0  0  0  0  0
    4.5480   -2.9010   -1.2460 H   0  0  0  0  0  0  0  0  0  0  0  0
    5.5300   -1.6130   -0.4320 H   0  0  0  0  0  0  0  0  0  0  0  0
    4.5360   -2.2840    1.7580 H   0  0  0  0  0  0  0  0  0  0  0  0
    2.9270   -4.0170    1.7870 H   0  0  0  0  0  0  0  0  0  0  0  0
    2.9500   -4.0990    0.0490 H   0  0  0  0  0  0  0  0  0  0  0  0
   -1.2270   -0.7690   -3.5710 N   0  0  0  0  0  0  0  0  0  0  0  0
   -0.6800   -0.3110   -2.2960 C   0  0  0  0  0  0  0  0  0  0  0  0
   -1.0720    0.8000   -1.9090 O   0  0  0  0  0  0  0  0  0  0  0  0
    0.2480   -1.1980   -1.6380 C   0  0  0  0  0  0  0  0  0  0  0  0
    0.6860   -0.8010   -0.2540 C   0  0  2  0  0  0  0  0  0  0  0  0
    1.6800   -1.8610    0.1580 N   0  0  0  0  0  0  0  0  0  0  0  0
   -0.3800   -0.8420    0.7660 C   0  0  0  0  0  0  0  0  0  0  0  0
   -0.4780   -1.9330    1.4640 O   0  0  0  0  0  0  0  0  0  0  0  0
   -2.2380   -0.9310   -3.6840 H   0  0  0  0  0  0  0  0  0  0  0  0
   -0.5770   -0.9270   -4.3550 H   0  0  0  0  0  0  0  0  0  0  0  0
   -0.1660   -2.2510   -1.6290 H   0  0  0  0  0  0  0  0  0  0  0  0
    1.1900   -1.2770   -2.2640 H   0  0  0  0  0  0  0  0  0  0  0  0
    1.2030    0.1400   -0.2710 H   0  0  0  0  0  0  0  0  0  0  0  0
    1.3470   -2.8360    0.2490 H   0  0  0  0  0  0  0  0  0  0  0  0
   -0.6670    4.0830    2.7550 N   0  0  0  0  0  0  0  0  0  0  0  0
   -0.7170    2.6720    2.9230 C   0  0  0  0  0  0  0  0  0  0  0  0
    0.2590    2.0220    2.4980 O   0  0  0  0  0  0  0  0  0  0  0  0
   -1.8400    2.0170    3.5580 C   0  0  0  0  0  0  0  0  0  0  0  0
   -2.0250    0.5740    3.4110 C   0  0  0  0  0  0  0  0  0  0  0  0
   -2.2940   -0.0280    2.0920 C   0  0  2  0  0  0  0  0  0  0  0  0
   -1.3030    0.1800    1.0720 N   0  0  0  0  0  0  0  0  0  0  0  0
   -3.6730    0.2380    1.5870 C   0  0  0  0  0  0  0  0  0  0  0  0
   -3.7930    0.5830    0.3930 O   0  0  0  0  0  0  0  0  0  0  0  0
   -4.7820    0.1170    2.3760 O   0  0  0  0  0  0  0  0  0  0  0  0
   -1.1740    4.7430    3.3990 H   0  0  0  0  0  0  0  0  0  0  0  0
   -0.1190    4.5200    1.9780 H   0  0  0  0  0  0  0  0  0  0  0  0
   -2.7880    2.5650    3.2490 H   0  0  0  0  0  0  0  0  0  0  0  0
   -1.8210    2.2280    4.6780 H   0  0  0  0  0  0  0  0  0  0  0  0
   -2.8770    0.2540    4.0900 H   0  0  0  0  0  0  0  0  0  0  0  0
   -1.1520    0.0020    3.8500 H   0  0  0  0  0  0  0  0  0  0  0  0
   -2.3080   -1.1520    2.2930 H   0  0  0  0  0  0  0  0  0  0  0  0
   -1.2410    1.0890    0.5510 H   0  0  0  0  0  0  0  0  0  0  0  0
  2  1  1  0  0  0  0
  2  3  1  0  0  0  0
  3  4  1  0  0  0  0
  3 10  1  1  0  0  0
  4 11  1  0  0  0  0
  5  3  1  0  0  0  0
  6  5  2  0  0  0  0
  7  1  1  0  0  0  0
  8  2  1  0  0  0  0
  9  2  1  0  0  0  0
 12  4  1  0  0  0  0
 13 14  1  0  0  0  0
 14 15  2  0  0  0  0
 14 16  1  0  0  0  0
 16 23  1  0  0  0  0
 16 17  1  0  0  0  0
 17 25  1  6  0  0  0
 17 18  1  0  0  0  0
 17 19  1  0  0  0  0
 18 26  1  0  0  0  0
 18  5  1  0  0  0  0
 19 33  1  0  0  0  0
 19 20  2  0  0  0  0
 21 13  1  0  0  0  0
 22 13  1  0  0  0  0
 24 16  1  0  0  0  0
 27 28  1  0  0  0  0
 27 37  1  0  0  0  0
 28 30  1  0  0  0  0
 29 28  2  0  0  0  0
 30 40  1  0  0  0  0
 31 30  1  0  0  0  0
 31 42  1  0  0  0  0
 31 41  1  0  0  0  0
 32 43  1  1  0  0  0
 32 31  1  0  0  0  0
 33 32  1  0  0  0  0
 34 32  1  0  0  0  0
 34 36  1  0  0  0  0
 35 34  2  0  0  0  0
 38 27  1  0  0  0  0
 39 30  1  0  0  0  0
 44 33  1  0  0  0  0
M  END
$$$$
