SNR.pdb
 OpenBabel07022419073D

 50 49  0  0  1  0  0  0  0  0999 V2000
    4.3060   -2.8010    3.2620 O   0  0  0  0  0  0  0  0  0  0  0  0
    3.1540   -3.4930    2.8850 C   0  0  0  0  0  0  0  0  0  0  0  0
    2.0490   -2.4700    2.5840 C   0  0  2  0  0  0  0  0  0  0  0  0
    0.8860   -3.2050    2.2040 N   0  0  0  0  0  0  0  0  0  0  0  0
    2.4950   -1.5830    1.4530 C   0  0  0  0  0  0  0  0  0  0  0  0
    3.5020   -0.8500    1.5490 O   0  0  0  0  0  0  0  0  0  0  0  0
    5.0460   -3.0400    2.6220 H   0  0  0  0  0  0  0  0  0  0  0  0
    3.3110   -4.1500    2.0030 H   0  0  0  0  0  0  0  0  0  0  0  0
    2.8470   -4.1560    3.7140 H   0  0  0  0  0  0  0  0  0  0  0  0
    1.8460   -1.8890    3.5040 H   0  0  0  0  0  0  0  0  0  0  0  0
    0.0060   -2.8880    2.6660 H   0  0  0  0  0  0  0  0  0  0  0  0
    0.9950   -4.2200    2.1500 H   0  0  0  0  0  0  0  0  0  0  0  0
    2.9490   -2.1030   -4.4120 N   0  0  0  0  0  0  0  0  0  0  0  0
    2.7580   -1.1850   -3.3080 C   0  0  0  0  0  0  0  0  0  0  0  0
    2.9440    0.0270   -3.5320 O   0  0  0  0  0  0  0  0  0  0  0  0
    2.3640   -1.7490   -2.0160 C   0  0  0  0  0  0  0  0  0  0  0  0
    2.0930   -0.7590   -0.9160 C   0  0  2  0  0  0  0  0  0  0  0  0
    1.7590   -1.5800    0.2620 N   0  0  0  0  0  0  0  0  0  0  0  0
    0.9730    0.1730   -1.2040 C   0  0  0  0  0  0  0  0  0  0  0  0
    1.0290    0.9630   -2.1930 O   0  0  0  0  0  0  0  0  0  0  0  0
    3.7450   -1.9430   -5.0620 H   0  0  0  0  0  0  0  0  0  0  0  0
    2.2870   -2.8910   -4.5240 H   0  0  0  0  0  0  0  0  0  0  0  0
    3.1090   -2.5230   -1.6870 H   0  0  0  0  0  0  0  0  0  0  0  0
    1.4420   -2.3750   -2.2300 H   0  0  0  0  0  0  0  0  0  0  0  0
    3.0270   -0.2020   -0.7020 H   0  0  0  0  0  0  0  0  0  0  0  0
    0.9190   -2.1870    0.1590 H   0  0  0  0  0  0  0  0  0  0  0  0
   -1.8060    1.7240    4.3980 N   0  0  0  0  0  0  0  0  0  0  0  0
   -2.7570    0.9410    3.7150 C   0  0  0  0  0  0  0  0  0  0  0  0
   -3.9570    0.6930    4.1780 N   0  0  0  0  0  0  0  0  0  0  0  0
   -2.4710    0.3480    2.4280 N   0  0  0  0  0  0  0  0  0  0  0  0
   -3.5570    0.0170    1.5570 C   0  0  0  0  0  0  0  0  0  0  0  0
   -3.2380   -0.4580    0.1980 C   0  0  0  0  0  0  0  0  0  0  0  0
   -2.5840    0.4170   -0.7700 C   0  0  0  0  0  0  0  0  0  0  0  0
   -1.2640    1.0140   -0.5510 C   0  0  2  0  0  0  0  0  0  0  0  0
   -0.1590    0.1560   -0.3410 N   0  0  0  0  0  0  0  0  0  0  0  0
   -1.3520    2.1990    0.3400 C   0  0  0  0  0  0  0  0  0  0  0  0
   -0.5340    2.5110    1.2180 O   0  0  0  0  0  0  0  0  0  0  0  0
   -2.4470    3.0370    0.1790 O   0  0  0  0  0  0  0  0  0  0  0  0
   -0.8730    1.3280    4.6020 H   0  0  0  0  0  0  0  0  0  0  0  0
   -2.0180    2.6900    4.7020 H   0  0  0  0  0  0  0  0  0  0  0  0
   -4.1750    1.1190    5.1050 H   0  0  0  0  0  0  0  0  0  0  0  0
   -1.4690    0.1820    2.2450 H   0  0  0  0  0  0  0  0  0  0  0  0
   -4.1900   -0.7670    2.0910 H   0  0  0  0  0  0  0  0  0  0  0  0
   -4.2820    0.8930    1.5110 H   0  0  0  0  0  0  0  0  0  0  0  0
   -4.2390   -0.7600   -0.2700 H   0  0  0  0  0  0  0  0  0  0  0  0
   -2.7440   -1.4660    0.3130 H   0  0  0  0  0  0  0  0  0  0  0  0
   -3.3140    1.2620   -0.9990 H   0  0  0  0  0  0  0  0  0  0  0  0
   -2.5730   -0.1520   -1.7670 H   0  0  0  0  0  0  0  0  0  0  0  0
   -1.0200    1.5290   -1.5740 H   0  0  0  0  0  0  0  0  0  0  0  0
   -0.1500   -0.5110    0.4510 H   0  0  0  0  0  0  0  0  0  0  0  0
  2  1  1  0  0  0  0
  2  9  1  0  0  0  0
  3  2  1  0  0  0  0
  3 10  1  1  0  0  0
  4  3  1  0  0  0  0
  4 11  1  0  0  0  0
  5  6  2  0  0  0  0
  5  3  1  0  0  0  0
  7  1  1  0  0  0  0
  8  2  1  0  0  0  0
 12  4  1  0  0  0  0
 13 14  1  0  0  0  0
 14 16  1  0  0  0  0
 15 14  2  0  0  0  0
 16 23  1  0  0  0  0
 16 17  1  0  0  0  0
 17 25  1  1  0  0  0
 17 18  1  0  0  0  0
 18  5  1  0  0  0  0
 19 17  1  0  0  0  0
 19 35  1  0  0  0  0
 20 19  2  0  0  0  0
 21 13  1  0  0  0  0
 22 13  1  0  0  0  0
 24 16  1  0  0  0  0
 26 18  1  0  0  0  0
 27 39  1  0  0  0  0
 27 40  1  0  0  0  0
 28 29  2  0  0  0  0
 28 27  1  0  0  0  0
 29 41  1  0  0  0  0
 30 28  1  0  0  0  0
 31 43  1  0  0  0  0
 31 30  1  0  0  0  0
 32 46  1  0  0  0  0
 32 31  1  0  0  0  0
 33 34  1  0  0  0  0
 33 32  1  0  0  0  0
 34 49  1  6  0  0  0
 34 35  1  0  0  0  0
 34 36  1  0  0  0  0
 35 50  1  0  0  0  0
 36 37  1  0  0  0  0
 38 36  2  0  0  0  0
 42 30  1  0  0  0  0
 44 31  1  0  0  0  0
 45 32  1  0  0  0  0
 47 33  1  0  0  0  0
 48 33  1  0  0  0  0
M  END
$$$$
