SNS.pdb
 OpenBabel07022419073D

 38 37  0  0  1  0  0  0  0  0999 V2000
   -2.5250   -1.9240    1.0950 O   0  0  0  0  0  0  0  0  0  0  0  0
   -2.2580   -2.0290   -0.2590 C   0  0  0  0  0  0  0  0  0  0  0  0
   -1.0880   -2.9670   -0.4650 C   0  0  2  0  0  0  0  0  0  0  0  0
   -1.4100   -4.2700    0.0640 N   0  0  0  0  0  0  0  0  0  0  0  0
    0.1380   -2.4350    0.1750 C   0  0  0  0  0  0  0  0  0  0  0  0
    0.7050   -3.1500    1.0500 O   0  0  0  0  0  0  0  0  0  0  0  0
   -1.6660   -1.9280    1.5860 H   0  0  0  0  0  0  0  0  0  0  0  0
   -1.9370   -1.0380   -0.6620 H   0  0  0  0  0  0  0  0  0  0  0  0
   -3.1330   -2.4460   -0.7620 H   0  0  0  0  0  0  0  0  0  0  0  0
   -0.8810   -3.0770   -1.5440 H   0  0  0  0  0  0  0  0  0  0  0  0
   -0.8240   -5.0300   -0.3830 H   0  0  0  0  0  0  0  0  0  0  0  0
   -1.2110   -4.3220    1.0850 H   0  0  0  0  0  0  0  0  0  0  0  0
    2.8110   -2.7380   -1.2240 N   0  0  0  0  0  0  0  0  0  0  0  0
    3.4090   -1.4700   -1.3160 C   0  0  0  0  0  0  0  0  0  0  0  0
    4.3150   -1.2540   -2.1380 O   0  0  0  0  0  0  0  0  0  0  0  0
    2.9820   -0.3600   -0.4410 C   0  0  0  0  0  0  0  0  0  0  0  0
    1.8870   -0.7310    0.5190 C   0  0  2  0  0  0  0  0  0  0  0  0
    0.6930   -1.1750   -0.1460 N   0  0  0  0  0  0  0  0  0  0  0  0
    1.5980    0.3890    1.4700 C   0  0  0  0  0  0  0  0  0  0  0  0
    2.5260    0.8840    2.1230 O   0  0  0  0  0  0  0  0  0  0  0  0
    3.0730   -3.3980   -0.4570 H   0  0  0  0  0  0  0  0  0  0  0  0
    2.0840   -3.0990   -1.8990 H   0  0  0  0  0  0  0  0  0  0  0  0
    3.8190    0.1410    0.0570 H   0  0  0  0  0  0  0  0  0  0  0  0
    2.5390    0.4180   -1.1310 H   0  0  0  0  0  0  0  0  0  0  0  0
    2.2570   -1.5530    1.1640 H   0  0  0  0  0  0  0  0  0  0  0  0
    0.2090   -0.5950   -0.8700 H   0  0  0  0  0  0  0  0  0  0  0  0
   -1.6840    3.0010    1.1670 O   0  0  0  0  0  0  0  0  0  0  0  0
   -0.5180    3.2380    1.8900 C   0  0  0  0  0  0  0  0  0  0  0  0
   -0.0110    1.9960    2.5750 C   0  0  2  0  0  0  0  0  0  0  0  0
    0.3010    0.9270    1.6740 N   0  0  0  0  0  0  0  0  0  0  0  0
   -0.9260    1.6320    3.6500 C   0  0  0  0  0  0  0  0  0  0  0  0
   -1.3740    0.4690    3.7340 O   0  0  0  0  0  0  0  0  0  0  0  0
   -1.3030    2.5750    4.5840 O   0  0  0  0  0  0  0  0  0  0  0  0
   -1.8090    3.6770    0.4590 H   0  0  0  0  0  0  0  0  0  0  0  0
   -0.7970    3.9550    2.7010 H   0  0  0  0  0  0  0  0  0  0  0  0
    0.2530    3.7550    1.2880 H   0  0  0  0  0  0  0  0  0  0  0  0
    0.9670    2.2930    3.0580 H   0  0  0  0  0  0  0  0  0  0  0  0
   -0.4830    0.5060    1.1200 H   0  0  0  0  0  0  0  0  0  0  0  0
  1  7  1  0  0  0  0
  2  1  1  0  0  0  0
  3 10  1  6  0  0  0
  3  2  1  0  0  0  0
  3  4  1  0  0  0  0
  3  5  1  0  0  0  0
  4 12  1  0  0  0  0
  5  6  2  0  0  0  0
  8  2  1  0  0  0  0
  9  2  1  0  0  0  0
 11  4  1  0  0  0  0
 13 21  1  0  0  0  0
 14 13  1  0  0  0  0
 14 16  1  0  0  0  0
 15 14  2  0  0  0  0
 16 23  1  0  0  0  0
 16 17  1  0  0  0  0
 17 25  1  1  0  0  0
 17 19  1  0  0  0  0
 18  5  1  0  0  0  0
 18 17  1  0  0  0  0
 19 30  1  0  0  0  0
 19 20  2  0  0  0  0
 22 13  1  0  0  0  0
 24 16  1  0  0  0  0
 26 18  1  0  0  0  0
 27 28  1  0  0  0  0
 28 29  1  0  0  0  0
 28 35  1  0  0  0  0
 29 37  1  1  0  0  0
 29 31  1  0  0  0  0
 30 29  1  0  0  0  0
 31 32  2  0  0  0  0
 31 33  1  0  0  0  0
 34 27  1  0  0  0  0
 36 28  1  0  0  0  0
 38 30  1  0  0  0  0
M  END
$$$$
