SPA.pdb
 OpenBabel07022419093D

 37 37  0  0  1  0  0  0  0  0999 V2000
   -3.1540   -3.4030    0.4090 O   0  0  0  0  0  0  0  0  0  0  0  0
   -2.0860   -2.5350    0.7410 C   0  0  0  0  0  0  0  0  0  0  0  0
   -0.7920   -3.3640    0.7540 C   0  0  2  0  0  0  0  0  0  0  0  0
   -0.9520   -4.4120    1.7520 N   0  0  0  0  0  0  0  0  0  0  0  0
    0.3970   -2.5300    1.0240 C   0  0  0  0  0  0  0  0  0  0  0  0
    1.0050   -2.7770    2.1250 O   0  0  0  0  0  0  0  0  0  0  0  0
   -2.7950   -4.3000    0.1920 H   0  0  0  0  0  0  0  0  0  0  0  0
   -2.0320   -1.6920    0.0420 H   0  0  0  0  0  0  0  0  0  0  0  0
   -2.3130   -2.1410    1.7470 H   0  0  0  0  0  0  0  0  0  0  0  0
   -0.6940   -3.8250   -0.2380 H   0  0  0  0  0  0  0  0  0  0  0  0
   -0.0480   -4.6940    2.1910 H   0  0  0  0  0  0  0  0  0  0  0  0
   -1.3220   -5.2510    1.2540 H   0  0  0  0  0  0  0  0  0  0  0  0
    0.8840   -1.5220    0.1770 N   0  0  0  0  0  0  0  0  0  0  0  0
    0.3460   -1.1010   -1.0830 C   0  0  0  0  0  0  0  0  0  0  0  0
    1.5490   -0.6150   -1.8720 C   0  0  0  0  0  0  0  0  0  0  0  0
    2.7150   -0.6370   -0.9200 C   0  0  0  0  0  0  0  0  0  0  0  0
    2.0530   -0.7210    0.4320 C   0  0  1  0  0  0  0  0  0  0  0  0
    1.7840    0.6420    0.9050 C   0  0  0  0  0  0  0  0  0  0  0  0
    2.8100    1.4040    0.9910 O   0  0  0  0  0  0  0  0  0  0  0  0
   -0.1330   -1.9250   -1.6510 H   0  0  0  0  0  0  0  0  0  0  0  0
   -0.4020   -0.3210   -0.9510 H   0  0  0  0  0  0  0  0  0  0  0  0
    1.7810   -1.2730   -2.7330 H   0  0  0  0  0  0  0  0  0  0  0  0
    1.3630    0.4290   -2.1630 H   0  0  0  0  0  0  0  0  0  0  0  0
    3.3990   -1.4910   -1.1060 H   0  0  0  0  0  0  0  0  0  0  0  0
    3.2770    0.3240   -0.9510 H   0  0  0  0  0  0  0  0  0  0  0  0
    2.7590   -1.2620    1.1290 H   0  0  0  0  0  0  0  0  0  0  0  0
   -0.4310    3.4180    0.8480 C   0  0  0  0  0  0  0  0  0  0  0  0
    0.4390    2.5600    1.7150 C   0  0  2  0  0  0  0  0  0  0  0  0
    0.5570    1.2020    1.2690 N   0  0  0  0  0  0  0  0  0  0  0  0
   -0.0280    2.6390    3.1330 C   0  0  0  0  0  0  0  0  0  0  0  0
   -0.1960    3.7360    3.7180 O   0  0  0  0  0  0  0  0  0  0  0  0
   -0.2970    1.4880    3.8640 O   0  0  0  0  0  0  0  0  0  0  0  0
   -0.9450    4.1540    1.5020 H   0  0  0  0  0  0  0  0  0  0  0  0
   -1.2270    2.8540    0.3270 H   0  0  0  0  0  0  0  0  0  0  0  0
    0.1570    4.0350    0.1180 H   0  0  0  0  0  0  0  0  0  0  0  0
    1.4620    3.0360    1.7110 H   0  0  0  0  0  0  0  0  0  0  0  0
   -0.2910    0.6000    1.2150 H   0  0  0  0  0  0  0  0  0  0  0  0
  1  2  1  0  0  0  0
  2  3  1  0  0  0  0
  2  9  1  0  0  0  0
  3 10  1  6  0  0  0
  3  5  1  0  0  0  0
  3  4  1  0  0  0  0
  4 11  1  0  0  0  0
  5  6  2  0  0  0  0
  7  1  1  0  0  0  0
  8  2  1  0  0  0  0
 12  4  1  0  0  0  0
 13 17  1  0  0  0  0
 13  5  1  0  0  0  0
 14 21  1  0  0  0  0
 14 13  1  0  0  0  0
 15 14  1  0  0  0  0
 15 16  1  0  0  0  0
 16 17  1  0  0  0  0
 17 18  1  0  0  0  0
 17 26  1  1  0  0  0
 18 19  2  0  0  0  0
 18 29  1  0  0  0  0
 20 14  1  0  0  0  0
 22 15  1  0  0  0  0
 23 15  1  0  0  0  0
 24 16  1  0  0  0  0
 25 16  1  0  0  0  0
 27 33  1  0  0  0  0
 27 28  1  0  0  0  0
 28 36  1  6  0  0  0
 28 30  1  0  0  0  0
 29 28  1  0  0  0  0
 30 31  2  0  0  0  0
 30 32  1  0  0  0  0
 34 27  1  0  0  0  0
 35 27  1  0  0  0  0
 37 29  1  0  0  0  0
M  END
$$$$
