SPC.pdb
 OpenBabel07022419093D

 38 38  0  0  1  0  0  0  0  0999 V2000
    1.5360   -5.6850    2.6640 O   0  0  0  0  0  0  0  0  0  0  0  0
    1.8070   -4.3830    2.2350 C   0  0  0  0  0  0  0  0  0  0  0  0
    0.5770   -3.8190    1.4950 C   0  0  2  0  0  0  0  0  0  0  0  0
    0.3540   -4.6790    0.4010 N   0  0  0  0  0  0  0  0  0  0  0  0
    0.7940   -2.4060    1.2430 C   0  0  0  0  0  0  0  0  0  0  0  0
    1.0780   -1.6510    2.2480 O   0  0  0  0  0  0  0  0  0  0  0  0
    1.1510   -5.7240    3.5610 H   0  0  0  0  0  0  0  0  0  0  0  0
    2.6720   -4.4290    1.5430 H   0  0  0  0  0  0  0  0  0  0  0  0
    2.0870   -3.7220    3.0720 H   0  0  0  0  0  0  0  0  0  0  0  0
   -0.2920   -3.9420    2.2160 H   0  0  0  0  0  0  0  0  0  0  0  0
   -0.5780   -5.1000    0.3200 H   0  0  0  0  0  0  0  0  0  0  0  0
    1.1390   -5.2850    0.1210 H   0  0  0  0  0  0  0  0  0  0  0  0
    0.7320   -1.7330   -0.0110 N   0  0  0  0  0  0  0  0  0  0  0  0
    0.4320   -2.3050   -1.2920 C   0  0  0  0  0  0  0  0  0  0  0  0
   -0.4070   -1.1980   -1.9540 C   0  0  0  0  0  0  0  0  0  0  0  0
    0.5390   -0.0220   -1.6450 C   0  0  0  0  0  0  0  0  0  0  0  0
    0.9940   -0.3040   -0.2320 C   0  0  1  0  0  0  0  0  0  0  0  0
    0.1420    0.5350    0.6630 C   0  0  0  0  0  0  0  0  0  0  0  0
   -0.7170    0.0290    1.4260 O   0  0  0  0  0  0  0  0  0  0  0  0
    1.3560   -2.3830   -1.9400 H   0  0  0  0  0  0  0  0  0  0  0  0
   -0.1280   -3.2410   -1.2730 H   0  0  0  0  0  0  0  0  0  0  0  0
   -1.3360   -1.1330   -1.3660 H   0  0  0  0  0  0  0  0  0  0  0  0
   -0.5330   -1.3570   -3.0230 H   0  0  0  0  0  0  0  0  0  0  0  0
    0.0140    0.9410   -1.7300 H   0  0  0  0  0  0  0  0  0  0  0  0
    1.3890   -0.1280   -2.3520 H   0  0  0  0  0  0  0  0  0  0  0  0
    2.0620   -0.0920   -0.1270 H   0  0  0  0  0  0  0  0  0  0  0  0
    0.2760    1.9460    0.6820 N   0  0  0  0  0  0  0  0  0  0  0  0
   -0.5540    2.7420    1.5520 C   0  0  1  0  0  0  0  0  0  0  0  0
    0.2660    3.4910    2.5810 C   0  0  0  0  0  0  0  0  0  0  0  0
   -0.7490    4.4860    3.6730 S   0  0  0  0  0  0  0  0  0  0  0  0
   -1.4270    3.6530    0.7770 C   0  0  0  0  0  0  0  0  0  0  0  0
   -1.3510    3.6320   -0.4770 O   0  0  0  0  0  0  0  0  0  0  0  0
   -2.3210    4.5250    1.3550 O   0  0  0  0  0  0  0  0  0  0  0  0
    0.9630    2.4490    0.0820 H   0  0  0  0  0  0  0  0  0  0  0  0
   -1.2200    2.0590    2.1120 H   0  0  0  0  0  0  0  0  0  0  0  0
    0.8580    2.7940    3.2030 H   0  0  0  0  0  0  0  0  0  0  0  0
    0.9950    4.1470    2.0600 H   0  0  0  0  0  0  0  0  0  0  0  0
   -0.7820    3.9670    4.9730 H   0  0  0  0  0  0  0  0  0  0  0  0
  1  7  1  0  0  0  0
  2  1  1  0  0  0  0
  2  9  1  0  0  0  0
  3 10  1  1  0  0  0
  3  2  1  0  0  0  0
  4  3  1  0  0  0  0
  5  3  1  0  0  0  0
  5  6  2  0  0  0  0
  8  2  1  0  0  0  0
 11  4  1  0  0  0  0
 12  4  1  0  0  0  0
 13  5  1  0  0  0  0
 14 21  1  0  0  0  0
 14 13  1  0  0  0  0
 15 16  1  0  0  0  0
 15 22  1  0  0  0  0
 15 14  1  0  0  0  0
 16 17  1  0  0  0  0
 17 26  1  1  0  0  0
 17 13  1  0  0  0  0
 17 18  1  0  0  0  0
 18 27  1  0  0  0  0
 18 19  2  0  0  0  0
 20 14  1  0  0  0  0
 23 15  1  0  0  0  0
 24 16  1  0  0  0  0
 25 16  1  0  0  0  0
 27 28  1  0  0  0  0
 28 35  1  1  0  0  0
 28 29  1  0  0  0  0
 29 36  1  0  0  0  0
 29 30  1  0  0  0  0
 30 38  1  0  0  0  0
 31 33  1  0  0  0  0
 31 28  1  0  0  0  0
 32 31  2  0  0  0  0
 34 27  1  0  0  0  0
 37 29  1  0  0  0  0
M  END
$$$$
