SPD.pdb
 OpenBabel07022419093D

 40 40  0  0  1  0  0  0  0  0999 V2000
   -0.6680   -4.1190   -0.6730 O   0  0  0  0  0  0  0  0  0  0  0  0
    0.4780   -4.7820   -0.2750 C   0  0  0  0  0  0  0  0  0  0  0  0
    1.7500   -4.0240   -0.5950 C   0  0  2  0  0  0  0  0  0  0  0  0
    2.8350   -4.8720   -0.1070 N   0  0  0  0  0  0  0  0  0  0  0  0
    1.8160   -2.6720   -0.0530 C   0  0  0  0  0  0  0  0  0  0  0  0
    2.6820   -2.4850    0.8750 O   0  0  0  0  0  0  0  0  0  0  0  0
   -0.9390   -4.3290   -1.5840 H   0  0  0  0  0  0  0  0  0  0  0  0
    0.5280   -5.7170   -0.9070 H   0  0  0  0  0  0  0  0  0  0  0  0
    0.4460   -5.1420    0.7650 H   0  0  0  0  0  0  0  0  0  0  0  0
    1.8360   -4.0060   -1.6980 H   0  0  0  0  0  0  0  0  0  0  0  0
    2.8740   -5.6900   -0.7560 H   0  0  0  0  0  0  0  0  0  0  0  0
    2.7240   -5.1140    0.8850 H   0  0  0  0  0  0  0  0  0  0  0  0
    1.0380   -1.5560   -0.4390 N   0  0  0  0  0  0  0  0  0  0  0  0
   -0.0060   -1.4140   -1.4430 C   0  0  0  0  0  0  0  0  0  0  0  0
    0.1380    0.0010   -1.9770 C   0  0  0  0  0  0  0  0  0  0  0  0
    1.0430    0.7100   -1.0310 C   0  0  0  0  0  0  0  0  0  0  0  0
    1.1340   -0.2060    0.1390 C   0  0  1  0  0  0  0  0  0  0  0  0
    0.0710    0.0010    1.1520 C   0  0  0  0  0  0  0  0  0  0  0  0
   -0.7370   -0.9130    1.4050 O   0  0  0  0  0  0  0  0  0  0  0  0
    0.1050   -2.0750   -2.3030 H   0  0  0  0  0  0  0  0  0  0  0  0
   -1.0220   -1.4290   -0.9690 H   0  0  0  0  0  0  0  0  0  0  0  0
    0.5160    0.0110   -3.0310 H   0  0  0  0  0  0  0  0  0  0  0  0
   -0.8240    0.5510   -2.0190 H   0  0  0  0  0  0  0  0  0  0  0  0
    2.0530    0.7850   -1.4890 H   0  0  0  0  0  0  0  0  0  0  0  0
    0.6890    1.7290   -0.7600 H   0  0  0  0  0  0  0  0  0  0  0  0
    2.1340   -0.0740    0.6090 H   0  0  0  0  0  0  0  0  0  0  0  0
   -0.0440    1.2350    1.8460 N   0  0  0  0  0  0  0  0  0  0  0  0
   -1.0520    1.4920    2.8360 C   0  0  1  0  0  0  0  0  0  0  0  0
   -0.4290    1.7450    4.2100 C   0  0  0  0  0  0  0  0  0  0  0  0
    0.4810    2.9190    4.1750 C   0  0  0  0  0  0  0  0  0  0  0  0
    0.0210    4.1100    4.2200 O   0  0  0  0  0  0  0  0  0  0  0  0
   -1.8910    2.6440    2.4410 C   0  0  0  0  0  0  0  0  0  0  0  0
   -1.6590    3.2350    1.3670 O   0  0  0  0  0  0  0  0  0  0  0  0
    1.8600    2.7940    4.0920 O   0  0  0  0  0  0  0  0  0  0  0  0
   -2.9310    3.0750    3.2450 O   0  0  0  0  0  0  0  0  0  0  0  0
    0.6370    2.0090    1.6340 H   0  0  0  0  0  0  0  0  0  0  0  0
   -1.6650    0.5750    2.9260 H   0  0  0  0  0  0  0  0  0  0  0  0
   -1.2890    2.0160    4.8720 H   0  0  0  0  0  0  0  0  0  0  0  0
    0.1150    0.8700    4.5660 H   0  0  0  0  0  0  0  0  0  0  0  0
    2.4260    3.4690    3.5660 H   0  0  0  0  0  0  0  0  0  0  0  0
  1  2  1  0  0  0  0
  2  9  1  0  0  0  0
  3 10  1  6  0  0  0
  3  2  1  0  0  0  0
  3  4  1  0  0  0  0
  3  5  1  0  0  0  0
  4 12  1  0  0  0  0
  5  6  2  0  0  0  0
  7  1  1  0  0  0  0
  8  2  1  0  0  0  0
 11  4  1  0  0  0  0
 13  5  1  0  0  0  0
 13 17  1  0  0  0  0
 14 21  1  0  0  0  0
 14 13  1  0  0  0  0
 15 14  1  0  0  0  0
 15 16  1  0  0  0  0
 16 25  1  0  0  0  0
 16 17  1  0  0  0  0
 17 26  1  1  0  0  0
 17 18  1  0  0  0  0
 18 19  2  0  0  0  0
 18 27  1  0  0  0  0
 20 14  1  0  0  0  0
 22 15  1  0  0  0  0
 23 15  1  0  0  0  0
 24 16  1  0  0  0  0
 27 28  1  0  0  0  0
 28 37  1  1  0  0  0
 28 29  1  0  0  0  0
 29 39  1  0  0  0  0
 29 38  1  0  0  0  0
 30 29  1  0  0  0  0
 30 31  2  0  0  0  0
 32 28  1  0  0  0  0
 32 35  1  0  0  0  0
 33 32  2  0  0  0  0
 34 30  1  0  0  0  0
 36 27  1  0  0  0  0
 40 34  1  0  0  0  0
M  END
$$$$
