SPF.pdb
 OpenBabel07022419093D

 47 48  0  0  1  0  0  0  0  0999 V2000
    3.3200   -5.1320    2.2110 O   0  0  0  0  0  0  0  0  0  0  0  0
    3.1010   -4.5360    0.9740 C   0  0  0  0  0  0  0  0  0  0  0  0
    3.6090   -3.1070    1.0670 C   0  0  2  0  0  0  0  0  0  0  0  0
    2.9150   -2.3970    2.0770 N   0  0  0  0  0  0  0  0  0  0  0  0
    3.5350   -2.4130   -0.2230 C   0  0  0  0  0  0  0  0  0  0  0  0
    4.0500   -3.0200   -1.2190 O   0  0  0  0  0  0  0  0  0  0  0  0
    2.4990   -5.0310    2.7400 H   0  0  0  0  0  0  0  0  0  0  0  0
    3.6620   -5.0730    0.1930 H   0  0  0  0  0  0  0  0  0  0  0  0
    2.0300   -4.5090    0.7630 H   0  0  0  0  0  0  0  0  0  0  0  0
    4.6770   -3.1870    1.3860 H   0  0  0  0  0  0  0  0  0  0  0  0
    3.2960   -2.4900    3.0400 H   0  0  0  0  0  0  0  0  0  0  0  0
    1.8750   -2.4780    2.0400 H   0  0  0  0  0  0  0  0  0  0  0  0
    2.9520   -1.1440   -0.4750 N   0  0  0  0  0  0  0  0  0  0  0  0
    2.9080   -0.5500   -1.8130 C   0  0  0  0  0  0  0  0  0  0  0  0
    3.1340    0.9120   -1.5940 C   0  0  0  0  0  0  0  0  0  0  0  0
    2.8770    1.1500   -0.1400 C   0  0  0  0  0  0  0  0  0  0  0  0
    2.3150   -0.1790    0.3820 C   0  0  1  0  0  0  0  0  0  0  0  0
    0.8420   -0.1950    0.1990 C   0  0  0  0  0  0  0  0  0  0  0  0
    0.3230   -1.0010   -0.6110 O   0  0  0  0  0  0  0  0  0  0  0  0
    1.9350   -0.7900   -2.2710 H   0  0  0  0  0  0  0  0  0  0  0  0
    3.7070   -0.9920   -2.4610 H   0  0  0  0  0  0  0  0  0  0  0  0
    4.1670    1.2130   -1.8970 H   0  0  0  0  0  0  0  0  0  0  0  0
    2.4480    1.5540   -2.1970 H   0  0  0  0  0  0  0  0  0  0  0  0
    3.8140    1.4230    0.3960 H   0  0  0  0  0  0  0  0  0  0  0  0
    2.1450    1.9700    0.0420 H   0  0  0  0  0  0  0  0  0  0  0  0
    2.5960   -0.2470    1.4500 H   0  0  0  0  0  0  0  0  0  0  0  0
   -0.0340    0.6640    0.8980 N   0  0  0  0  0  0  0  0  0  0  0  0
   -1.4730    0.6400    0.7120 C   0  0  1  0  0  0  0  0  0  0  0  0
   -2.1720    0.1970    1.9750 C   0  0  0  0  0  0  0  0  0  0  0  0
   -3.6240    0.1420    1.8880 C   0  0  0  0  0  0  0  0  0  0  0  0
   -4.2870   -0.9910    1.4800 C   0  0  0  0  0  0  0  0  0  0  0  0
   -5.6600   -0.9800    1.4220 C   0  0  0  0  0  0  0  0  0  0  0  0
   -6.4000    0.1210    1.7570 C   0  0  0  0  0  0  0  0  0  0  0  0
   -5.7510    1.2590    2.1670 C   0  0  0  0  0  0  0  0  0  0  0  0
   -4.3620    1.2480    2.2250 C   0  0  0  0  0  0  0  0  0  0  0  0
   -1.9730    1.9030    0.1710 C   0  0  0  0  0  0  0  0  0  0  0  0
   -3.1740    2.1370   -0.0890 O   0  0  0  0  0  0  0  0  0  0  0  0
   -1.0810    2.9610   -0.0950 O   0  0  0  0  0  0  0  0  0  0  0  0
    0.3580    1.3430    1.5750 H   0  0  0  0  0  0  0  0  0  0  0  0
   -1.6800   -0.1530   -0.0500 H   0  0  0  0  0  0  0  0  0  0  0  0
   -1.8670    0.9390    2.7670 H   0  0  0  0  0  0  0  0  0  0  0  0
   -1.8020   -0.7770    2.3350 H   0  0  0  0  0  0  0  0  0  0  0  0
   -3.7810   -1.9050    1.1960 H   0  0  0  0  0  0  0  0  0  0  0  0
   -6.1960   -1.8760    1.0990 H   0  0  0  0  0  0  0  0  0  0  0  0
   -7.4800    0.1550    1.7210 H   0  0  0  0  0  0  0  0  0  0  0  0
   -6.3050    2.1510    2.4400 H   0  0  0  0  0  0  0  0  0  0  0  0
   -3.9070    2.1910    2.5600 H   0  0  0  0  0  0  0  0  0  0  0  0
  1  7  1  0  0  0  0
  2  3  1  0  0  0  0
  2  1  1  0  0  0  0
  3 10  1  1  0  0  0
  3  4  1  0  0  0  0
  4 11  1  0  0  0  0
  5  3  1  0  0  0  0
  6  5  2  0  0  0  0
  8  2  1  0  0  0  0
  9  2  1  0  0  0  0
 12  4  1  0  0  0  0
 13  5  1  0  0  0  0
 13 17  1  0  0  0  0
 14 15  1  0  0  0  0
 14 13  1  0  0  0  0
 15 16  1  0  0  0  0
 16 25  1  0  0  0  0
 16 17  1  0  0  0  0
 16 24  1  0  0  0  0
 17 26  1  1  0  0  0
 18 17  1  0  0  0  0
 18 27  1  0  0  0  0
 19 18  2  0  0  0  0
 20 14  1  0  0  0  0
 21 14  1  0  0  0  0
 22 15  1  0  0  0  0
 23 15  1  0  0  0  0
 27 39  1  0  0  0  0
 28 40  1  6  0  0  0
 28 27  1  0  0  0  0
 28 29  1  0  0  0  0
 29 42  1  0  0  0  0
 29 41  1  0  0  0  0
 30 29  1  0  0  0  0
 30 35  1  0  0  0  0
 31 30  2  0  0  0  0
 32 31  1  0  0  0  0
 32 33  2  0  0  0  0
 33 34  1  0  0  0  0
 34 35  2  0  0  0  0
 34 46  1  0  0  0  0
 35 47  1  0  0  0  0
 36 28  1  0  0  0  0
 37 36  1  0  0  0  0
 38 36  2  0  0  0  0
 43 31  1  0  0  0  0
 44 32  1  0  0  0  0
 45 33  1  0  0  0  0
M  END
$$$$
