SPG.pdb
 OpenBabel07022419093D

 34 34  0  0  1  0  0  0  0  0999 V2000
   -0.2740   -3.1020    2.0380 O   0  0  0  0  0  0  0  0  0  0  0  0
    1.0210   -3.5260    1.8130 C   0  0  0  0  0  0  0  0  0  0  0  0
    1.5260   -3.1930    0.4100 C   0  0  2  0  0  0  0  0  0  0  0  0
    2.9110   -3.7130    0.3380 N   0  0  0  0  0  0  0  0  0  0  0  0
    1.5110   -1.7440    0.1260 C   0  0  0  0  0  0  0  0  0  0  0  0
    2.6630   -1.1720    0.1740 O   0  0  0  0  0  0  0  0  0  0  0  0
   -0.8100   -3.7430    2.5760 H   0  0  0  0  0  0  0  0  0  0  0  0
    1.0660   -4.6210    1.9710 H   0  0  0  0  0  0  0  0  0  0  0  0
    1.6770   -3.0340    2.5590 H   0  0  0  0  0  0  0  0  0  0  0  0
    0.8550   -3.7130   -0.2940 H   0  0  0  0  0  0  0  0  0  0  0  0
    3.4820   -3.0940   -0.2880 H   0  0  0  0  0  0  0  0  0  0  0  0
    2.8400   -4.6370   -0.1690 H   0  0  0  0  0  0  0  0  0  0  0  0
    0.3590   -0.9810   -0.1860 N   0  0  0  0  0  0  0  0  0  0  0  0
   -0.9780   -1.4780   -0.2970 C   0  0  0  0  0  0  0  0  0  0  0  0
   -1.5380   -0.6580   -1.4450 C   0  0  0  0  0  0  0  0  0  0  0  0
   -0.6110    0.5110   -1.6440 C   0  0  0  0  0  0  0  0  0  0  0  0
    0.3090    0.4320   -0.4530 C   0  0  1  0  0  0  0  0  0  0  0  0
   -0.3380    1.1870    0.6650 C   0  0  0  0  0  0  0  0  0  0  0  0
   -0.7430    0.6510    1.7280 O   0  0  0  0  0  0  0  0  0  0  0  0
   -1.0230   -2.5660   -0.5200 H   0  0  0  0  0  0  0  0  0  0  0  0
   -1.5510   -1.1930    0.6050 H   0  0  0  0  0  0  0  0  0  0  0  0
   -1.6140   -1.2470   -2.3790 H   0  0  0  0  0  0  0  0  0  0  0  0
   -2.5870   -0.3250   -1.2160 H   0  0  0  0  0  0  0  0  0  0  0  0
    0.0410    0.3620   -2.5530 H   0  0  0  0  0  0  0  0  0  0  0  0
   -1.1510    1.4770   -1.6990 H   0  0  0  0  0  0  0  0  0  0  0  0
    1.3170    0.8530   -0.6790 H   0  0  0  0  0  0  0  0  0  0  0  0
   -0.5360    2.6000    0.5830 N   0  0  0  0  0  0  0  0  0  0  0  0
   -1.1630    3.3310    1.6700 C   0  0  0  0  0  0  0  0  0  0  0  0
   -0.3350    3.1510    2.8940 C   0  0  0  0  0  0  0  0  0  0  0  0
   -0.6630    3.6850    3.9940 O   0  0  0  0  0  0  0  0  0  0  0  0
    0.8300    2.3990    2.9050 O   0  0  0  0  0  0  0  0  0  0  0  0
   -0.2270    3.1110   -0.2640 H   0  0  0  0  0  0  0  0  0  0  0  0
   -2.1660    2.9230    1.9160 H   0  0  0  0  0  0  0  0  0  0  0  0
   -1.2880    4.3910    1.4420 H   0  0  0  0  0  0  0  0  0  0  0  0
  1  7  1  0  0  0  0
  2  8  1  0  0  0  0
  2  1  1  0  0  0  0
  2  9  1  0  0  0  0
  3 10  1  6  0  0  0
  3  2  1  0  0  0  0
  4  3  1  0  0  0  0
  5  6  2  0  0  0  0
  5  3  1  0  0  0  0
 11  4  1  0  0  0  0
 12  4  1  0  0  0  0
 13  5  1  0  0  0  0
 14 13  1  0  0  0  0
 14 21  1  0  0  0  0
 15 23  1  0  0  0  0
 15 14  1  0  0  0  0
 16 15  1  0  0  0  0
 16 17  1  0  0  0  0
 17 26  1  6  0  0  0
 17 13  1  0  0  0  0
 17 18  1  0  0  0  0
 18 19  2  0  0  0  0
 20 14  1  0  0  0  0
 22 15  1  0  0  0  0
 24 16  1  0  0  0  0
 25 16  1  0  0  0  0
 27 18  1  0  0  0  0
 27 28  1  0  0  0  0
 28 33  1  0  0  0  0
 28 29  1  0  0  0  0
 29 31  2  0  0  0  0
 29 30  1  0  0  0  0
 32 27  1  0  0  0  0
 34 28  1  0  0  0  0
M  END
$$$$
