SPL.pdb
 OpenBabel07022419093D

 46 46  0  0  1  0  0  0  0  0999 V2000
    0.6230   -4.6030   -0.7590 O   0  0  0  0  0  0  0  0  0  0  0  0
   -0.0780   -4.3160   -1.9320 C   0  0  0  0  0  0  0  0  0  0  0  0
    0.7280   -3.3760   -2.7970 C   0  0  2  0  0  0  0  0  0  0  0  0
    1.9860   -4.0590   -3.1030 N   0  0  0  0  0  0  0  0  0  0  0  0
    1.0440   -2.1100   -2.1270 C   0  0  0  0  0  0  0  0  0  0  0  0
    2.2480   -1.8600   -1.8620 O   0  0  0  0  0  0  0  0  0  0  0  0
    0.7270   -3.8200   -0.1700 H   0  0  0  0  0  0  0  0  0  0  0  0
   -0.1060   -5.2940   -2.4980 H   0  0  0  0  0  0  0  0  0  0  0  0
   -1.1140   -4.0330   -1.7760 H   0  0  0  0  0  0  0  0  0  0  0  0
    0.2170   -3.2090   -3.7660 H   0  0  0  0  0  0  0  0  0  0  0  0
    1.8110   -4.7640   -3.8280 H   0  0  0  0  0  0  0  0  0  0  0  0
    2.4210   -4.4470   -2.2340 H   0  0  0  0  0  0  0  0  0  0  0  0
    0.0760   -1.1410   -1.7560 N   0  0  0  0  0  0  0  0  0  0  0  0
   -1.3640   -1.1440   -1.9370 C   0  0  0  0  0  0  0  0  0  0  0  0
   -1.5860    0.2680   -2.4980 C   0  0  0  0  0  0  0  0  0  0  0  0
   -0.4920    1.0800   -1.8360 C   0  0  0  0  0  0  0  0  0  0  0  0
    0.3570    0.1100   -1.0800 C   0  0  1  0  0  0  0  0  0  0  0  0
   -0.0330    0.0210    0.3630 C   0  0  0  0  0  0  0  0  0  0  0  0
   -0.5320   -1.0350    0.8530 O   0  0  0  0  0  0  0  0  0  0  0  0
   -1.7100   -1.9060   -2.6610 H   0  0  0  0  0  0  0  0  0  0  0  0
   -1.9230   -1.2810   -1.0150 H   0  0  0  0  0  0  0  0  0  0  0  0
   -1.4030    0.2610   -3.5900 H   0  0  0  0  0  0  0  0  0  0  0  0
   -2.5980    0.6460   -2.2280 H   0  0  0  0  0  0  0  0  0  0  0  0
    0.1760    1.5590   -2.6100 H   0  0  0  0  0  0  0  0  0  0  0  0
   -0.8780    1.9120   -1.2300 H   0  0  0  0  0  0  0  0  0  0  0  0
    1.4270    0.3750   -1.0950 H   0  0  0  0  0  0  0  0  0  0  0  0
    1.8860    1.3490    5.8550 C   0  0  0  0  0  0  0  0  0  0  0  0
    0.6170    1.1270    5.0290 C   0  0  0  0  0  0  0  0  0  0  0  0
    0.0660   -0.2140    5.3890 C   0  0  0  0  0  0  0  0  0  0  0  0
    0.9300    1.2220    3.5580 C   0  0  0  0  0  0  0  0  0  0  0  0
   -0.2510    1.0100    2.6690 C   0  0  2  0  0  0  0  0  0  0  0  0
    0.1370    1.1120    1.2540 N   0  0  0  0  0  0  0  0  0  0  0  0
   -1.3530    1.9750    2.9060 C   0  0  0  0  0  0  0  0  0  0  0  0
   -1.7560    2.7270    1.9500 O   0  0  0  0  0  0  0  0  0  0  0  0
   -2.0160    2.1520    4.0980 O   0  0  0  0  0  0  0  0  0  0  0  0
    2.4610    0.3980    5.9120 H   0  0  0  0  0  0  0  0  0  0  0  0
    1.6260    1.6370    6.8890 H   0  0  0  0  0  0  0  0  0  0  0  0
    2.5360    2.0770    5.3380 H   0  0  0  0  0  0  0  0  0  0  0  0
   -0.1090    1.9190    5.3290 H   0  0  0  0  0  0  0  0  0  0  0  0
    0.7440   -0.9940    4.9520 H   0  0  0  0  0  0  0  0  0  0  0  0
    0.0450   -0.3260    6.5000 H   0  0  0  0  0  0  0  0  0  0  0  0
   -0.9690   -0.3880    5.0400 H   0  0  0  0  0  0  0  0  0  0  0  0
    1.2720    2.2880    3.3900 H   0  0  0  0  0  0  0  0  0  0  0  0
    1.7680    0.5570    3.2770 H   0  0  0  0  0  0  0  0  0  0  0  0
   -0.6640    0.0030    2.8860 H   0  0  0  0  0  0  0  0  0  0  0  0
    0.5390    2.0110    0.9270 H   0  0  0  0  0  0  0  0  0  0  0  0
  1  7  1  0  0  0  0
  2  9  1  0  0  0  0
  2  1  1  0  0  0  0
  3 10  1  6  0  0  0
  3  5  1  0  0  0  0
  3  2  1  0  0  0  0
  4  3  1  0  0  0  0
  4 12  1  0  0  0  0
  5  6  2  0  0  0  0
  5 13  1  0  0  0  0
  8  2  1  0  0  0  0
 11  4  1  0  0  0  0
 13 17  1  0  0  0  0
 14 13  1  0  0  0  0
 14 21  1  0  0  0  0
 15 23  1  0  0  0  0
 15 14  1  0  0  0  0
 15 16  1  0  0  0  0
 16 25  1  0  0  0  0
 16 17  1  0  0  0  0
 17 26  1  6  0  0  0
 17 18  1  0  0  0  0
 18 19  2  0  0  0  0
 18 32  1  0  0  0  0
 20 14  1  0  0  0  0
 22 15  1  0  0  0  0
 24 16  1  0  0  0  0
 27 36  1  0  0  0  0
 27 37  1  0  0  0  0
 28 39  1  0  0  0  0
 28 29  1  0  0  0  0
 28 27  1  0  0  0  0
 29 41  1  0  0  0  0
 30 28  1  0  0  0  0
 31 45  1  1  0  0  0
 31 33  1  0  0  0  0
 31 30  1  0  0  0  0
 32 31  1  0  0  0  0
 33 35  1  0  0  0  0
 34 33  2  0  0  0  0
 38 27  1  0  0  0  0
 40 29  1  0  0  0  0
 42 29  1  0  0  0  0
 43 30  1  0  0  0  0
 44 30  1  0  0  0  0
 46 32  1  0  0  0  0
M  END
$$$$
