SPM.pdb
 OpenBabel07022419093D

 44 44  0  0  1  0  0  0  0  0999 V2000
   -3.7500   -2.3910   -1.0090 O   0  0  0  0  0  0  0  0  0  0  0  0
   -2.4840   -2.1650   -0.4890 C   0  0  0  0  0  0  0  0  0  0  0  0
   -1.5780   -3.3810   -0.7350 C   0  0  2  0  0  0  0  0  0  0  0  0
   -2.2270   -4.4890   -0.0650 N   0  0  0  0  0  0  0  0  0  0  0  0
   -0.2500   -3.1730   -0.1120 C   0  0  0  0  0  0  0  0  0  0  0  0
    0.0670   -3.9080    0.8570 O   0  0  0  0  0  0  0  0  0  0  0  0
   -4.1290   -3.1690   -0.5030 H   0  0  0  0  0  0  0  0  0  0  0  0
   -2.4740   -1.9060    0.5760 H   0  0  0  0  0  0  0  0  0  0  0  0
   -2.0280   -1.3220   -1.0390 H   0  0  0  0  0  0  0  0  0  0  0  0
   -1.4520   -3.5540   -1.8170 H   0  0  0  0  0  0  0  0  0  0  0  0
   -2.9040   -4.9070   -0.7530 H   0  0  0  0  0  0  0  0  0  0  0  0
   -2.7870   -4.1800    0.7610 H   0  0  0  0  0  0  0  0  0  0  0  0
    0.6620   -2.1820   -0.5710 N   0  0  0  0  0  0  0  0  0  0  0  0
    0.5250   -1.2350   -1.6460 C   0  0  0  0  0  0  0  0  0  0  0  0
    1.9290   -1.0090   -2.1850 C   0  0  0  0  0  0  0  0  0  0  0  0
    2.8460   -1.5670   -1.1460 C   0  0  0  0  0  0  0  0  0  0  0  0
    1.9710   -1.9490    0.0050 C   0  0  1  0  0  0  0  0  0  0  0  0
    1.9250   -0.9520    1.0780 C   0  0  0  0  0  0  0  0  0  0  0  0
    2.9660   -0.5900    1.6620 O   0  0  0  0  0  0  0  0  0  0  0  0
   -0.1000   -1.6550   -2.4710 H   0  0  0  0  0  0  0  0  0  0  0  0
    0.0890   -0.2720   -1.3750 H   0  0  0  0  0  0  0  0  0  0  0  0
    2.0720   -1.4480   -3.1910 H   0  0  0  0  0  0  0  0  0  0  0  0
    2.1500    0.0890   -2.2620 H   0  0  0  0  0  0  0  0  0  0  0  0
    3.3020   -2.4940   -1.5890 H   0  0  0  0  0  0  0  0  0  0  0  0
    3.6830   -0.9070   -0.8700 H   0  0  0  0  0  0  0  0  0  0  0  0
    2.3660   -2.9310    0.4010 H   0  0  0  0  0  0  0  0  0  0  0  0
    2.5210    4.1090    2.5370 C   0  0  0  0  0  0  0  0  0  0  0  0
    1.4550    3.3710    3.8040 S   0  0  0  0  0  0  0  0  0  0  0  0
   -0.1400    2.9670    2.9980 C   0  0  0  0  0  0  0  0  0  0  0  0
    0.0200    1.9020    1.9810 C   0  0  0  0  0  0  0  0  0  0  0  0
    0.5450    0.6010    2.5080 C   0  0  2  0  0  0  0  0  0  0  0  0
    0.6780   -0.3920    1.4580 N   0  0  0  0  0  0  0  0  0  0  0  0
   -0.2520    0.0220    3.5920 C   0  0  0  0  0  0  0  0  0  0  0  0
   -0.6950   -1.1410    3.4970 O   0  0  0  0  0  0  0  0  0  0  0  0
   -0.5410    0.7240    4.7450 O   0  0  0  0  0  0  0  0  0  0  0  0
    2.0410    4.1110    1.5330 H   0  0  0  0  0  0  0  0  0  0  0  0
    3.4950    3.5810    2.5160 H   0  0  0  0  0  0  0  0  0  0  0  0
    2.7430    5.1770    2.7920 H   0  0  0  0  0  0  0  0  0  0  0  0
   -0.4420    3.9380    2.5020 H   0  0  0  0  0  0  0  0  0  0  0  0
   -0.8680    2.8100    3.7870 H   0  0  0  0  0  0  0  0  0  0  0  0
    0.6600    2.2950    1.1650 H   0  0  0  0  0  0  0  0  0  0  0  0
   -0.9660    1.6940    1.5180 H   0  0  0  0  0  0  0  0  0  0  0  0
    1.5890    0.7940    2.8860 H   0  0  0  0  0  0  0  0  0  0  0  0
   -0.1730   -0.7150    0.9560 H   0  0  0  0  0  0  0  0  0  0  0  0
  1  7  1  0  0  0  0
  1  2  1  0  0  0  0
  2  8  1  0  0  0  0
  3 10  1  6  0  0  0
  3  2  1  0  0  0  0
  3  5  1  0  0  0  0
  3  4  1  0  0  0  0
  4 12  1  0  0  0  0
  5  6  2  0  0  0  0
  9  2  1  0  0  0  0
 11  4  1  0  0  0  0
 13  5  1  0  0  0  0
 13 17  1  0  0  0  0
 14 21  1  0  0  0  0
 14 13  1  0  0  0  0
 15 14  1  0  0  0  0
 15 16  1  0  0  0  0
 16 25  1  0  0  0  0
 16 17  1  0  0  0  0
 17 26  1  1  0  0  0
 17 18  1  0  0  0  0
 18 32  1  0  0  0  0
 18 19  2  0  0  0  0
 20 14  1  0  0  0  0
 22 15  1  0  0  0  0
 23 15  1  0  0  0  0
 24 16  1  0  0  0  0
 27 38  1  0  0  0  0
 27 28  1  0  0  0  0
 29 40  1  0  0  0  0
 29 28  1  0  0  0  0
 30 31  1  0  0  0  0
 30 29  1  0  0  0  0
 31 43  1  1  0  0  0
 31 33  1  0  0  0  0
 32 31  1  0  0  0  0
 33 35  1  0  0  0  0
 34 33  2  0  0  0  0
 36 27  1  0  0  0  0
 37 27  1  0  0  0  0
 39 29  1  0  0  0  0
 41 30  1  0  0  0  0
 42 30  1  0  0  0  0
 44 32  1  0  0  0  0
M  END
$$$$
