SPQ.pdb
 OpenBabel07022419093D

 44 44  0  0  1  0  0  0  0  0999 V2000
    4.4530   -1.2070    2.4540 O   0  0  0  0  0  0  0  0  0  0  0  0
    3.2320   -0.8420    1.8290 C   0  0  0  0  0  0  0  0  0  0  0  0
    3.5640   -0.6470    0.3810 C   0  0  2  0  0  0  0  0  0  0  0  0
    4.5660    0.4030    0.2790 N   0  0  0  0  0  0  0  0  0  0  0  0
    2.4580   -0.3600   -0.5150 C   0  0  0  0  0  0  0  0  0  0  0  0
    2.5090    0.7090   -1.1770 O   0  0  0  0  0  0  0  0  0  0  0  0
    4.2640   -1.6270    3.3340 H   0  0  0  0  0  0  0  0  0  0  0  0
    2.8790    0.0490    2.3450 H   0  0  0  0  0  0  0  0  0  0  0  0
    2.5980   -1.7400    1.9760 H   0  0  0  0  0  0  0  0  0  0  0  0
    4.0700   -1.5930    0.0340 H   0  0  0  0  0  0  0  0  0  0  0  0
    4.4680    0.8730   -0.6570 H   0  0  0  0  0  0  0  0  0  0  0  0
    4.2890    1.1250    0.9980 H   0  0  0  0  0  0  0  0  0  0  0  0
    1.3130   -1.1980   -0.7060 N   0  0  0  0  0  0  0  0  0  0  0  0
    1.0070   -2.4470   -0.0860 C   0  0  0  0  0  0  0  0  0  0  0  0
   -0.0120   -3.1260   -0.9620 C   0  0  0  0  0  0  0  0  0  0  0  0
   -0.3480   -2.1510   -2.0420 C   0  0  0  0  0  0  0  0  0  0  0  0
    0.2520   -0.8690   -1.6170 C   0  0  1  0  0  0  0  0  0  0  0  0
   -0.7380    0.0640   -0.9970 C   0  0  0  0  0  0  0  0  0  0  0  0
   -1.6470    0.5600   -1.7460 O   0  0  0  0  0  0  0  0  0  0  0  0
    0.5530   -2.3440    0.9330 H   0  0  0  0  0  0  0  0  0  0  0  0
    1.8860   -3.1360   -0.0430 H   0  0  0  0  0  0  0  0  0  0  0  0
   -0.9490   -3.4030   -0.4350 H   0  0  0  0  0  0  0  0  0  0  0  0
    0.3710   -4.0920   -1.3930 H   0  0  0  0  0  0  0  0  0  0  0  0
    0.1930   -2.5000   -2.9710 H   0  0  0  0  0  0  0  0  0  0  0  0
   -1.4400   -2.0980   -2.2500 H   0  0  0  0  0  0  0  0  0  0  0  0
    0.6850   -0.3560   -2.5410 H   0  0  0  0  0  0  0  0  0  0  0  0
   -1.0940   -1.9750    3.5220 N   0  0  0  0  0  0  0  0  0  0  0  0
   -1.8720   -1.2460    2.5880 C   0  0  0  0  0  0  0  0  0  0  0  0
   -2.0080   -1.6880    1.4100 O   0  0  0  0  0  0  0  0  0  0  0  0
   -2.5680    0.0260    2.8770 C   0  0  0  0  0  0  0  0  0  0  0  0
   -2.8490    0.8300    1.6700 C   0  0  0  0  0  0  0  0  0  0  0  0
   -1.7240    1.3770    0.8910 C   0  0  2  0  0  0  0  0  0  0  0  0
   -0.7700    0.4590    0.3440 N   0  0  0  0  0  0  0  0  0  0  0  0
   -1.0640    2.5450    1.5430 C   0  0  0  0  0  0  0  0  0  0  0  0
    0.1840    2.6860    1.5950 O   0  0  0  0  0  0  0  0  0  0  0  0
   -1.8310    3.5420    2.1310 O   0  0  0  0  0  0  0  0  0  0  0  0
   -1.4770   -2.8270    4.0260 H   0  0  0  0  0  0  0  0  0  0  0  0
   -0.1160   -1.7000    3.7470 H   0  0  0  0  0  0  0  0  0  0  0  0
   -3.5710   -0.2600    3.3150 H   0  0  0  0  0  0  0  0  0  0  0  0
   -2.0710    0.5840    3.6970 H   0  0  0  0  0  0  0  0  0  0  0  0
   -3.4260    0.1520    0.9630 H   0  0  0  0  0  0  0  0  0  0  0  0
   -3.5820    1.6610    1.8540 H   0  0  0  0  0  0  0  0  0  0  0  0
   -2.2280    1.8340   -0.0380 H   0  0  0  0  0  0  0  0  0  0  0  0
   -0.0380    0.0670    0.9840 H   0  0  0  0  0  0  0  0  0  0  0  0
  1  7  1  0  0  0  0
  2  9  1  0  0  0  0
  2  8  1  0  0  0  0
  2  1  1  0  0  0  0
  3 10  1  6  0  0  0
  3  2  1  0  0  0  0
  4  3  1  0  0  0  0
  4 12  1  0  0  0  0
  5  3  1  0  0  0  0
  6  5  2  0  0  0  0
 11  4  1  0  0  0  0
 13  5  1  0  0  0  0
 13 14  1  0  0  0  0
 14 21  1  0  0  0  0
 14 20  1  0  0  0  0
 15 22  1  0  0  0  0
 15 14  1  0  0  0  0
 16 17  1  0  0  0  0
 16 15  1  0  0  0  0
 17 26  1  6  0  0  0
 17 18  1  0  0  0  0
 17 13  1  0  0  0  0
 18 33  1  0  0  0  0
 19 18  2  0  0  0  0
 23 15  1  0  0  0  0
 24 16  1  0  0  0  0
 25 16  1  0  0  0  0
 27 38  1  0  0  0  0
 27 37  1  0  0  0  0
 28 30  1  0  0  0  0
 28 27  1  0  0  0  0
 29 28  2  0  0  0  0
 30 39  1  0  0  0  0
 30 40  1  0  0  0  0
 31 42  1  0  0  0  0
 31 30  1  0  0  0  0
 32 43  1  6  0  0  0
 32 34  1  0  0  0  0
 32 31  1  0  0  0  0
 33 32  1  0  0  0  0
 33 44  1  0  0  0  0
 34 35  2  0  0  0  0
 34 36  1  0  0  0  0
 41 31  1  0  0  0  0
M  END
$$$$
