SPS.pdb
 OpenBabel07022419093D

 38 38  0  0  1  0  0  0  0  0999 V2000
    1.7440   -4.7010    2.3430 O   0  0  0  0  0  0  0  0  0  0  0  0
    1.5270   -3.4530    1.7370 C   0  0  0  0  0  0  0  0  0  0  0  0
    1.1620   -3.6720    0.2640 C   0  0  2  0  0  0  0  0  0  0  0  0
    2.2990   -4.3640   -0.3190 N   0  0  0  0  0  0  0  0  0  0  0  0
    0.8760   -2.3990   -0.4310 C   0  0  0  0  0  0  0  0  0  0  0  0
    1.7200   -2.0750   -1.3410 O   0  0  0  0  0  0  0  0  0  0  0  0
    1.0650   -5.3120    1.9900 H   0  0  0  0  0  0  0  0  0  0  0  0
    0.7300   -2.9110    2.2380 H   0  0  0  0  0  0  0  0  0  0  0  0
    2.4750   -2.8900    1.8220 H   0  0  0  0  0  0  0  0  0  0  0  0
    0.3050   -4.3680    0.2350 H   0  0  0  0  0  0  0  0  0  0  0  0
    2.2540   -5.3750   -0.0880 H   0  0  0  0  0  0  0  0  0  0  0  0
    2.3040   -4.3040   -1.3690 H   0  0  0  0  0  0  0  0  0  0  0  0
   -0.2180   -1.5480   -0.1780 N   0  0  0  0  0  0  0  0  0  0  0  0
   -1.2570   -1.7370    0.7870 C   0  0  0  0  0  0  0  0  0  0  0  0
   -2.4570   -0.9590    0.2260 C   0  0  0  0  0  0  0  0  0  0  0  0
   -1.9750   -0.3930   -1.0850 C   0  0  0  0  0  0  0  0  0  0  0  0
   -0.4870   -0.3240   -0.8680 C   0  0  1  0  0  0  0  0  0  0  0  0
   -0.2030    0.9030   -0.0720 C   0  0  0  0  0  0  0  0  0  0  0  0
   -0.6200    1.9890   -0.5850 O   0  0  0  0  0  0  0  0  0  0  0  0
   -1.5490   -2.8240    0.8790 H   0  0  0  0  0  0  0  0  0  0  0  0
   -1.0300   -1.3950    1.8090 H   0  0  0  0  0  0  0  0  0  0  0  0
   -2.7140   -0.1000    0.8870 H   0  0  0  0  0  0  0  0  0  0  0  0
   -3.3090   -1.6420    0.1120 H   0  0  0  0  0  0  0  0  0  0  0  0
   -2.4190    0.5940   -1.3130 H   0  0  0  0  0  0  0  0  0  0  0  0
   -2.1460   -1.1290   -1.9030 H   0  0  0  0  0  0  0  0  0  0  0  0
    0.0630   -0.2770   -1.8530 H   0  0  0  0  0  0  0  0  0  0  0  0
    2.1950    4.0010    2.2730 O   0  0  0  0  0  0  0  0  0  0  0  0
    1.9670    2.8640    1.5280 C   0  0  0  0  0  0  0  0  0  0  0  0
    0.7220    2.1360    1.9180 C   0  0  2  0  0  0  0  0  0  0  0  0
    0.4660    0.9480    1.1520 N   0  0  0  0  0  0  0  0  0  0  0  0
   -0.4530    3.0470    2.0490 C   0  0  0  0  0  0  0  0  0  0  0  0
   -1.5790    2.7580    1.6070 O   0  0  0  0  0  0  0  0  0  0  0  0
   -0.2970    4.2680    2.6880 O   0  0  0  0  0  0  0  0  0  0  0  0
    1.9600    3.9100    3.2280 H   0  0  0  0  0  0  0  0  0  0  0  0
    1.9440    3.1710    0.4500 H   0  0  0  0  0  0  0  0  0  0  0  0
    2.8750    2.2330    1.6240 H   0  0  0  0  0  0  0  0  0  0  0  0
    0.8950    1.7460    2.9870 H   0  0  0  0  0  0  0  0  0  0  0  0
    0.8170    0.0180    1.5260 H   0  0  0  0  0  0  0  0  0  0  0  0
  2  9  1  0  0  0  0
  2  8  1  0  0  0  0
  2  1  1  0  0  0  0
  3 10  1  6  0  0  0
  3  2  1  0  0  0  0
  4 11  1  0  0  0  0
  4  3  1  0  0  0  0
  5 13  1  0  0  0  0
  5  3  1  0  0  0  0
  6  5  2  0  0  0  0
  7  1  1  0  0  0  0
 12  4  1  0  0  0  0
 13 14  1  0  0  0  0
 14 20  1  0  0  0  0
 14 21  1  0  0  0  0
 15 14  1  0  0  0  0
 15 22  1  0  0  0  0
 16 17  1  0  0  0  0
 16 15  1  0  0  0  0
 17 26  1  6  0  0  0
 17 13  1  0  0  0  0
 17 18  1  0  0  0  0
 18 30  1  0  0  0  0
 19 18  2  0  0  0  0
 23 15  1  0  0  0  0
 24 16  1  0  0  0  0
 25 16  1  0  0  0  0
 27 34  1  0  0  0  0
 28 36  1  0  0  0  0
 28 29  1  0  0  0  0
 28 27  1  0  0  0  0
 29 31  1  0  0  0  0
 29 37  1  1  0  0  0
 30 38  1  0  0  0  0
 30 29  1  0  0  0  0
 31 33  1  0  0  0  0
 32 31  2  0  0  0  0
 35 28  1  0  0  0  0
M  END
$$$$
