SQA.pdb
 OpenBabel07022419083D

 40 39  0  0  1  0  0  0  0  0999 V2000
   -3.5560   -1.1730   -0.2760 O   0  0  0  0  0  0  0  0  0  0  0  0
   -3.0010   -2.0140    0.7120 C   0  0  0  0  0  0  0  0  0  0  0  0
   -1.6650   -2.4660    0.1840 C   0  0  2  0  0  0  0  0  0  0  0  0
   -0.9820   -3.3440    1.1100 N   0  0  0  0  0  0  0  0  0  0  0  0
   -0.7730   -1.3040   -0.1310 C   0  0  0  0  0  0  0  0  0  0  0  0
   -1.1810   -0.4300   -0.9140 O   0  0  0  0  0  0  0  0  0  0  0  0
   -4.5280   -1.1840   -0.2720 H   0  0  0  0  0  0  0  0  0  0  0  0
   -3.6450   -2.9140    0.7740 H   0  0  0  0  0  0  0  0  0  0  0  0
   -2.9210   -1.4750    1.6730 H   0  0  0  0  0  0  0  0  0  0  0  0
   -1.8390   -3.0160   -0.7580 H   0  0  0  0  0  0  0  0  0  0  0  0
   -0.2160   -3.8540    0.6620 H   0  0  0  0  0  0  0  0  0  0  0  0
   -1.6580   -3.9730    1.6200 H   0  0  0  0  0  0  0  0  0  0  0  0
    3.0610   -1.6470   -3.4880 N   0  0  0  0  0  0  0  0  0  0  0  0
    2.7870   -0.6370   -2.5170 C   0  0  0  0  0  0  0  0  0  0  0  0
    3.6990   -0.1820   -1.8000 O   0  0  0  0  0  0  0  0  0  0  0  0
    1.4070   -0.1110   -2.3540 C   0  0  0  0  0  0  0  0  0  0  0  0
    1.2580    0.6570   -1.0870 C   0  0  0  0  0  0  0  0  0  0  0  0
    1.4440   -0.1250    0.1890 C   0  0  2  0  0  0  0  0  0  0  0  0
    0.5130   -1.1690    0.4320 N   0  0  0  0  0  0  0  0  0  0  0  0
    1.5840    0.7380    1.3650 C   0  0  0  0  0  0  0  0  0  0  0  0
    2.3570    1.7400    1.3950 O   0  0  0  0  0  0  0  0  0  0  0  0
    4.0020   -2.0570   -3.6280 H   0  0  0  0  0  0  0  0  0  0  0  0
    2.2930   -2.0050   -4.0970 H   0  0  0  0  0  0  0  0  0  0  0  0
    0.7540   -0.9630   -2.5220 H   0  0  0  0  0  0  0  0  0  0  0  0
    1.1740    0.6040   -3.1950 H   0  0  0  0  0  0  0  0  0  0  0  0
    0.3570    1.3030   -1.0740 H   0  0  0  0  0  0  0  0  0  0  0  0
    2.1050    1.4130   -1.1020 H   0  0  0  0  0  0  0  0  0  0  0  0
    2.4910   -0.5930    0.0170 H   0  0  0  0  0  0  0  0  0  0  0  0
    0.7780   -1.9560    1.1050 H   0  0  0  0  0  0  0  0  0  0  0  0
   -0.3850    1.9320    4.1200 C   0  0  0  0  0  0  0  0  0  0  0  0
    0.9310    1.2920    3.7430 C   0  0  2  0  0  0  0  0  0  0  0  0
    0.8420    0.4900    2.5600 N   0  0  0  0  0  0  0  0  0  0  0  0
    1.4290    0.5220    4.9180 C   0  0  0  0  0  0  0  0  0  0  0  0
    1.5690    1.0690    6.0400 O   0  0  0  0  0  0  0  0  0  0  0  0
    1.7570   -0.8230    4.8150 O   0  0  0  0  0  0  0  0  0  0  0  0
   -0.5670    2.8250    3.4900 H   0  0  0  0  0  0  0  0  0  0  0  0
   -0.4250    2.1610    5.2080 H   0  0  0  0  0  0  0  0  0  0  0  0
   -1.2330    1.2410    3.9260 H   0  0  0  0  0  0  0  0  0  0  0  0
    1.6560    2.1170    3.5740 H   0  0  0  0  0  0  0  0  0  0  0  0
    0.2020   -0.3430    2.5290 H   0  0  0  0  0  0  0  0  0  0  0  0
  1  7  1  0  0  0  0
  1  2  1  0  0  0  0
  2  8  1  0  0  0  0
  2  9  1  0  0  0  0
  3 10  1  6  0  0  0
  3  2  1  0  0  0  0
  3  4  1  0  0  0  0
  4 12  1  0  0  0  0
  5  3  1  0  0  0  0
  5 19  1  0  0  0  0
  6  5  2  0  0  0  0
 11  4  1  0  0  0  0
 13 14  1  0  0  0  0
 14 16  1  0  0  0  0
 14 15  2  0  0  0  0
 16 17  1  0  0  0  0
 17 26  1  0  0  0  0
 17 18  1  0  0  0  0
 18 28  1  6  0  0  0
 18 19  1  0  0  0  0
 18 20  1  0  0  0  0
 19 29  1  0  0  0  0
 20 21  2  0  0  0  0
 20 32  1  0  0  0  0
 22 13  1  0  0  0  0
 23 13  1  0  0  0  0
 24 16  1  0  0  0  0
 25 16  1  0  0  0  0
 27 17  1  0  0  0  0
 30 37  1  0  0  0  0
 31 39  1  6  0  0  0
 31 30  1  0  0  0  0
 31 33  1  0  0  0  0
 32 31  1  0  0  0  0
 33 34  1  0  0  0  0
 35 33  2  0  0  0  0
 36 30  1  0  0  0  0
 38 30  1  0  0  0  0
 40 32  1  0  0  0  0
M  END
$$$$
