SQC.pdb
 OpenBabel07022419083D

 41 40  0  0  1  0  0  0  0  0999 V2000
   -1.3930   -4.5940    1.1890 O   0  0  0  0  0  0  0  0  0  0  0  0
   -0.6390   -3.4370    1.3630 C   0  0  0  0  0  0  0  0  0  0  0  0
    0.6220   -3.4910    0.5230 C   0  0  2  0  0  0  0  0  0  0  0  0
    1.4180   -4.6160    0.9060 N   0  0  0  0  0  0  0  0  0  0  0  0
    1.4140   -2.2560    0.6350 C   0  0  0  0  0  0  0  0  0  0  0  0
    2.6290   -2.3060    1.0290 O   0  0  0  0  0  0  0  0  0  0  0  0
   -0.8980   -5.2120    0.6090 H   0  0  0  0  0  0  0  0  0  0  0  0
   -1.2520   -2.5530    1.1420 H   0  0  0  0  0  0  0  0  0  0  0  0
   -0.3470   -3.3500    2.4390 H   0  0  0  0  0  0  0  0  0  0  0  0
    0.2990   -3.6610   -0.5380 H   0  0  0  0  0  0  0  0  0  0  0  0
    2.3070   -4.3520    1.3930 H   0  0  0  0  0  0  0  0  0  0  0  0
    0.9070   -5.2680    1.5720 H   0  0  0  0  0  0  0  0  0  0  0  0
    2.6870    0.4750   -4.4970 N   0  0  0  0  0  0  0  0  0  0  0  0
    2.1790    0.9990   -3.2760 C   0  0  0  0  0  0  0  0  0  0  0  0
    1.7150    2.1780   -3.3260 O   0  0  0  0  0  0  0  0  0  0  0  0
    2.1960    0.2030   -2.0210 C   0  0  0  0  0  0  0  0  0  0  0  0
    1.6010    0.9850   -0.8730 C   0  0  0  0  0  0  0  0  0  0  0  0
    1.6000    0.2150    0.4130 C   0  0  2  0  0  0  0  0  0  0  0  0
    0.8330   -1.0100    0.3080 N   0  0  0  0  0  0  0  0  0  0  0  0
    1.0080    1.0950    1.4560 C   0  0  0  0  0  0  0  0  0  0  0  0
    1.5600    2.2040    1.6720 O   0  0  0  0  0  0  0  0  0  0  0  0
    2.0540    0.1570   -5.2680 H   0  0  0  0  0  0  0  0  0  0  0  0
    3.7150    0.3790   -4.6860 H   0  0  0  0  0  0  0  0  0  0  0  0
    3.2800    0.0390   -1.7800 H   0  0  0  0  0  0  0  0  0  0  0  0
    1.7510   -0.7970   -2.1310 H   0  0  0  0  0  0  0  0  0  0  0  0
    2.1440    1.9260   -0.7010 H   0  0  0  0  0  0  0  0  0  0  0  0
    0.5480    1.2310   -1.1190 H   0  0  0  0  0  0  0  0  0  0  0  0
    2.6200   -0.0370    0.7670 H   0  0  0  0  0  0  0  0  0  0  0  0
   -0.1650   -1.0150   -0.0100 H   0  0  0  0  0  0  0  0  0  0  0  0
   -0.1460    0.6610    2.1640 N   0  0  0  0  0  0  0  0  0  0  0  0
   -0.7420    1.4930    3.1810 C   0  0  1  0  0  0  0  0  0  0  0  0
   -2.1800    1.8390    2.8050 C   0  0  0  0  0  0  0  0  0  0  0  0
   -3.1020    0.2750    2.6590 S   0  0  0  0  0  0  0  0  0  0  0  0
   -0.7990    0.7870    4.4760 C   0  0  0  0  0  0  0  0  0  0  0  0
   -1.2820    1.3390    5.4860 O   0  0  0  0  0  0  0  0  0  0  0  0
   -0.3070   -0.5000    4.5540 O   0  0  0  0  0  0  0  0  0  0  0  0
   -0.5320   -0.2750    1.9140 H   0  0  0  0  0  0  0  0  0  0  0  0
   -0.1780    2.4290    3.2800 H   0  0  0  0  0  0  0  0  0  0  0  0
   -2.2230    2.4060    1.8650 H   0  0  0  0  0  0  0  0  0  0  0  0
   -2.6320    2.4280    3.6050 H   0  0  0  0  0  0  0  0  0  0  0  0
   -3.8870    0.2460    1.4910 H   0  0  0  0  0  0  0  0  0  0  0  0
  1  2  1  0  0  0  0
  2  9  1  0  0  0  0
  3 10  1  6  0  0  0
  3  5  1  0  0  0  0
  3  4  1  0  0  0  0
  3  2  1  0  0  0  0
  4 11  1  0  0  0  0
  4 12  1  0  0  0  0
  5  6  2  0  0  0  0
  7  1  1  0  0  0  0
  8  2  1  0  0  0  0
 13 14  1  0  0  0  0
 14 16  1  0  0  0  0
 15 14  2  0  0  0  0
 16 24  1  0  0  0  0
 16 17  1  0  0  0  0
 17 26  1  0  0  0  0
 17 18  1  0  0  0  0
 18 28  1  1  0  0  0
 18 20  1  0  0  0  0
 19 18  1  0  0  0  0
 19  5  1  0  0  0  0
 20 21  2  0  0  0  0
 20 30  1  0  0  0  0
 22 13  1  0  0  0  0
 23 13  1  0  0  0  0
 25 16  1  0  0  0  0
 27 17  1  0  0  0  0
 29 19  1  0  0  0  0
 30 31  1  0  0  0  0
 31 38  1  1  0  0  0
 31 34  1  0  0  0  0
 32 31  1  0  0  0  0
 32 40  1  0  0  0  0
 33 32  1  0  0  0  0
 34 36  2  0  0  0  0
 34 35  1  0  0  0  0
 37 30  1  0  0  0  0
 39 32  1  0  0  0  0
 41 33  1  0  0  0  0
M  END
$$$$
