SQD.pdb
 OpenBabel07022419083D

 43 42  0  0  1  0  0  0  0  0999 V2000
    4.0700   -4.1880    2.6070 O   0  0  0  0  0  0  0  0  0  0  0  0
    3.9860   -2.7810    2.4980 C   0  0  0  0  0  0  0  0  0  0  0  0
    2.5260   -2.4720    2.2500 C   0  0  2  0  0  0  0  0  0  0  0  0
    2.1080   -3.1070    1.0530 N   0  0  0  0  0  0  0  0  0  0  0  0
    2.1940   -1.0460    2.3540 C   0  0  0  0  0  0  0  0  0  0  0  0
    2.5480   -0.4290    3.3910 O   0  0  0  0  0  0  0  0  0  0  0  0
    3.1980   -4.5630    2.9170 H   0  0  0  0  0  0  0  0  0  0  0  0
    4.5980   -2.4940    1.6130 H   0  0  0  0  0  0  0  0  0  0  0  0
    4.3560   -2.3220    3.4410 H   0  0  0  0  0  0  0  0  0  0  0  0
    1.9710   -2.9800    3.0970 H   0  0  0  0  0  0  0  0  0  0  0  0
    1.6500   -4.0180    1.1400 H   0  0  0  0  0  0  0  0  0  0  0  0
    2.7340   -2.9960    0.2340 H   0  0  0  0  0  0  0  0  0  0  0  0
    2.4000   -0.0850   -2.4270 N   0  0  0  0  0  0  0  0  0  0  0  0
    2.6610    0.5570   -1.1990 C   0  0  0  0  0  0  0  0  0  0  0  0
    3.4730   -0.0020   -0.4200 O   0  0  0  0  0  0  0  0  0  0  0  0
    2.0400    1.8330   -0.7980 C   0  0  0  0  0  0  0  0  0  0  0  0
    2.0140    2.0240    0.6720 C   0  0  0  0  0  0  0  0  0  0  0  0
    1.1770    1.0890    1.4730 C   0  0  2  0  0  0  0  0  0  0  0  0
    1.5000   -0.3070    1.3660 N   0  0  0  0  0  0  0  0  0  0  0  0
   -0.2780    1.2940    1.2550 C   0  0  0  0  0  0  0  0  0  0  0  0
   -0.7500    2.4530    1.2820 O   0  0  0  0  0  0  0  0  0  0  0  0
    2.3970   -1.1200   -2.5190 H   0  0  0  0  0  0  0  0  0  0  0  0
    2.2000    0.4770   -3.2820 H   0  0  0  0  0  0  0  0  0  0  0  0
    2.6320    2.6430   -1.3200 H   0  0  0  0  0  0  0  0  0  0  0  0
    1.0110    1.9360   -1.2480 H   0  0  0  0  0  0  0  0  0  0  0  0
    1.7010    3.0970    0.8580 H   0  0  0  0  0  0  0  0  0  0  0  0
    3.0570    2.0000    1.1040 H   0  0  0  0  0  0  0  0  0  0  0  0
    1.4200    1.3570    2.5740 H   0  0  0  0  0  0  0  0  0  0  0  0
    1.2030   -0.8770    0.5240 H   0  0  0  0  0  0  0  0  0  0  0  0
   -1.1030    0.1760    1.0230 N   0  0  0  0  0  0  0  0  0  0  0  0
   -2.5640    0.3150    0.7980 C   0  0  1  0  0  0  0  0  0  0  0  0
   -2.8330   -0.3290   -0.5410 C   0  0  0  0  0  0  0  0  0  0  0  0
   -4.2280   -0.2820   -0.9840 C   0  0  0  0  0  0  0  0  0  0  0  0
   -4.5690   -0.9920   -1.9680 O   0  0  0  0  0  0  0  0  0  0  0  0
   -3.2720   -0.4720    1.8480 C   0  0  0  0  0  0  0  0  0  0  0  0
   -2.6070   -1.1250    2.7240 O   0  0  0  0  0  0  0  0  0  0  0  0
   -5.1730    0.5060   -0.3700 O   0  0  0  0  0  0  0  0  0  0  0  0
   -4.6440   -0.5220    1.9090 O   0  0  0  0  0  0  0  0  0  0  0  0
   -0.7600   -0.8100    0.9950 H   0  0  0  0  0  0  0  0  0  0  0  0
   -2.7700    1.3930    0.8350 H   0  0  0  0  0  0  0  0  0  0  0  0
   -2.4680   -1.3900   -0.5510 H   0  0  0  0  0  0  0  0  0  0  0  0
   -2.2140    0.1590   -1.3510 H   0  0  0  0  0  0  0  0  0  0  0  0
   -6.1290    0.6070   -0.7240 H   0  0  0  0  0  0  0  0  0  0  0  0
  1  7  1  0  0  0  0
  2  1  1  0  0  0  0
  2  9  1  0  0  0  0
  3  5  1  0  0  0  0
  3  2  1  0  0  0  0
  3 10  1  1  0  0  0
  4 11  1  0  0  0  0
  4  3  1  0  0  0  0
  5  6  2  0  0  0  0
  8  2  1  0  0  0  0
 12  4  1  0  0  0  0
 13 14  1  0  0  0  0
 14 16  1  0  0  0  0
 14 15  2  0  0  0  0
 16 17  1  0  0  0  0
 17 26  1  0  0  0  0
 17 27  1  0  0  0  0
 17 18  1  0  0  0  0
 18 28  1  1  0  0  0
 19 18  1  0  0  0  0
 19  5  1  0  0  0  0
 20 21  2  0  0  0  0
 20 18  1  0  0  0  0
 22 13  1  0  0  0  0
 23 13  1  0  0  0  0
 24 16  1  0  0  0  0
 25 16  1  0  0  0  0
 29 19  1  0  0  0  0
 30 20  1  0  0  0  0
 31 40  1  1  0  0  0
 31 30  1  0  0  0  0
 31 35  1  0  0  0  0
 32 31  1  0  0  0  0
 33 32  1  0  0  0  0
 33 37  1  0  0  0  0
 34 33  2  0  0  0  0
 35 38  2  0  0  0  0
 35 36  1  0  0  0  0
 39 30  1  0  0  0  0
 41 32  1  0  0  0  0
 42 32  1  0  0  0  0
 43 37  1  0  0  0  0
M  END
$$$$
