SQF.pdb
 OpenBabel07022419083D

 50 50  0  0  1  0  0  0  0  0999 V2000
    4.2880    0.3900    3.4000 O   0  0  0  0  0  0  0  0  0  0  0  0
    3.2100    0.5290    2.5090 C   0  0  0  0  0  0  0  0  0  0  0  0
    3.5980   -0.1590    1.2420 C   0  0  2  0  0  0  0  0  0  0  0  0
    4.7910    0.4970    0.7450 N   0  0  0  0  0  0  0  0  0  0  0  0
    2.5880   -0.1970    0.2000 C   0  0  0  0  0  0  0  0  0  0  0  0
    2.8710    0.3330   -0.9150 O   0  0  0  0  0  0  0  0  0  0  0  0
    4.1260   -0.2500    4.1130 H   0  0  0  0  0  0  0  0  0  0  0  0
    2.3070    0.1870    2.9960 H   0  0  0  0  0  0  0  0  0  0  0  0
    3.1130    1.6350    2.3550 H   0  0  0  0  0  0  0  0  0  0  0  0
    3.9160   -1.2190    1.4500 H   0  0  0  0  0  0  0  0  0  0  0  0
    5.3920    0.8560    1.5110 H   0  0  0  0  0  0  0  0  0  0  0  0
    5.3080   -0.1180    0.0790 H   0  0  0  0  0  0  0  0  0  0  0  0
    2.8470   -2.8770   -3.4110 N   0  0  0  0  0  0  0  0  0  0  0  0
    1.6170   -2.3440   -2.8990 C   0  0  0  0  0  0  0  0  0  0  0  0
    1.1410   -1.3740   -3.5380 O   0  0  0  0  0  0  0  0  0  0  0  0
    1.0240   -2.9620   -1.6970 C   0  0  0  0  0  0  0  0  0  0  0  0
   -0.1090   -2.1800   -1.1510 C   0  0  0  0  0  0  0  0  0  0  0  0
    0.3040   -0.8190   -0.7180 C   0  0  2  0  0  0  0  0  0  0  0  0
    1.3030   -0.7750    0.3020 N   0  0  0  0  0  0  0  0  0  0  0  0
   -0.8900    0.0240   -0.3340 C   0  0  0  0  0  0  0  0  0  0  0  0
   -1.8780    0.1390   -1.1010 O   0  0  0  0  0  0  0  0  0  0  0  0
    2.9640   -3.8790   -3.6560 H   0  0  0  0  0  0  0  0  0  0  0  0
    3.6770   -2.2350   -3.5500 H   0  0  0  0  0  0  0  0  0  0  0  0
    0.6720   -3.9830   -2.0350 H   0  0  0  0  0  0  0  0  0  0  0  0
    1.8170   -3.1950   -0.9560 H   0  0  0  0  0  0  0  0  0  0  0  0
   -0.8270   -2.0240   -2.0150 H   0  0  0  0  0  0  0  0  0  0  0  0
   -0.7250   -2.7260   -0.4080 H   0  0  0  0  0  0  0  0  0  0  0  0
    0.7300   -0.2960   -1.5950 H   0  0  0  0  0  0  0  0  0  0  0  0
    1.0460   -1.2150    1.2060 H   0  0  0  0  0  0  0  0  0  0  0  0
   -0.9440    0.7150    0.8970 N   0  0  0  0  0  0  0  0  0  0  0  0
   -2.0650    1.5350    1.3050 C   0  0  1  0  0  0  0  0  0  0  0  0
   -2.6760    0.8450    2.5350 C   0  0  0  0  0  0  0  0  0  0  0  0
   -3.1300   -0.5240    2.1870 C   0  0  0  0  0  0  0  0  0  0  0  0
   -4.4060   -0.7890    1.7250 C   0  0  0  0  0  0  0  0  0  0  0  0
   -4.8170   -2.0780    1.4030 C   0  0  0  0  0  0  0  0  0  0  0  0
   -3.9250   -3.1240    1.5480 C   0  0  0  0  0  0  0  0  0  0  0  0
   -2.6700   -2.8570    2.0030 C   0  0  0  0  0  0  0  0  0  0  0  0
   -2.2440   -1.5680    2.3310 C   0  0  0  0  0  0  0  0  0  0  0  0
   -1.6440    2.8780    1.7490 C   0  0  0  0  0  0  0  0  0  0  0  0
   -2.4080    3.7640    2.1490 O   0  0  0  0  0  0  0  0  0  0  0  0
   -0.2750    3.2070    1.7290 O   0  0  0  0  0  0  0  0  0  0  0  0
   -0.1300    0.6300    1.5500 H   0  0  0  0  0  0  0  0  0  0  0  0
   -2.8380    1.5600    0.4890 H   0  0  0  0  0  0  0  0  0  0  0  0
   -1.9220    0.8520    3.3470 H   0  0  0  0  0  0  0  0  0  0  0  0
   -3.5290    1.4750    2.9170 H   0  0  0  0  0  0  0  0  0  0  0  0
   -5.1210    0.0130    1.6040 H   0  0  0  0  0  0  0  0  0  0  0  0
   -5.8050   -2.3150    1.0400 H   0  0  0  0  0  0  0  0  0  0  0  0
   -4.2540   -4.1440    1.2920 H   0  0  0  0  0  0  0  0  0  0  0  0
   -1.9760   -3.6870    2.1140 H   0  0  0  0  0  0  0  0  0  0  0  0
   -1.2290   -1.4180    2.6900 H   0  0  0  0  0  0  0  0  0  0  0  0
  1  7  1  0  0  0  0
  2  8  1  0  0  0  0
  2  1  1  0  0  0  0
  3 10  1  1  0  0  0
  3  2  1  0  0  0  0
  4  3  1  0  0  0  0
  4 11  1  0  0  0  0
  5 19  1  0  0  0  0
  5  3  1  0  0  0  0
  6  5  2  0  0  0  0
  9  2  1  0  0  0  0
 12  4  1  0  0  0  0
 13 14  1  0  0  0  0
 14 16  1  0  0  0  0
 15 14  2  0  0  0  0
 16 17  1  0  0  0  0
 16 25  1  0  0  0  0
 17 18  1  0  0  0  0
 17 27  1  0  0  0  0
 18 28  1  6  0  0  0
 18 20  1  0  0  0  0
 18 19  1  0  0  0  0
 19 29  1  0  0  0  0
 20 30  1  0  0  0  0
 21 20  2  0  0  0  0
 22 13  1  0  0  0  0
 23 13  1  0  0  0  0
 24 16  1  0  0  0  0
 26 17  1  0  0  0  0
 30 31  1  0  0  0  0
 30 42  1  0  0  0  0
 31 43  1  6  0  0  0
 31 39  1  0  0  0  0
 31 32  1  0  0  0  0
 32 45  1  0  0  0  0
 32 44  1  0  0  0  0
 33 38  1  0  0  0  0
 33 32  1  0  0  0  0
 34 33  2  0  0  0  0
 35 36  2  0  0  0  0
 35 34  1  0  0  0  0
 36 37  1  0  0  0  0
 37 49  1  0  0  0  0
 37 38  2  0  0  0  0
 38 50  1  0  0  0  0
 39 40  1  0  0  0  0
 41 39  2  0  0  0  0
 46 34  1  0  0  0  0
 47 35  1  0  0  0  0
 48 36  1  0  0  0  0
M  END
$$$$
