SQH.pdb
 OpenBabel07022419083D

 47 47  0  0  1  0  0  0  0  0999 V2000
    4.2440   -5.1680    1.2160 O   0  0  0  0  0  0  0  0  0  0  0  0
    4.0760   -3.8290    1.5690 C   0  0  0  0  0  0  0  0  0  0  0  0
    2.6170   -3.4420    1.3910 C   0  0  2  0  0  0  0  0  0  0  0  0
    2.1970   -3.6130    0.0410 N   0  0  0  0  0  0  0  0  0  0  0  0
    2.4450   -2.0510    1.8970 C   0  0  0  0  0  0  0  0  0  0  0  0
    2.7930   -1.8240    3.0800 O   0  0  0  0  0  0  0  0  0  0  0  0
    3.4520   -5.7050    1.4110 H   0  0  0  0  0  0  0  0  0  0  0  0
    4.7380   -3.1550    1.0240 H   0  0  0  0  0  0  0  0  0  0  0  0
    4.2900   -3.7540    2.6540 H   0  0  0  0  0  0  0  0  0  0  0  0
    2.0290   -4.1680    2.0230 H   0  0  0  0  0  0  0  0  0  0  0  0
    1.3410   -4.1860   -0.0890 H   0  0  0  0  0  0  0  0  0  0  0  0
    2.9470   -3.8010   -0.6390 H   0  0  0  0  0  0  0  0  0  0  0  0
    1.5050    2.1800   -2.5910 N   0  0  0  0  0  0  0  0  0  0  0  0
    1.4870    1.9980   -1.1500 C   0  0  0  0  0  0  0  0  0  0  0  0
    0.4320    2.2310   -0.5300 O   0  0  0  0  0  0  0  0  0  0  0  0
    2.6970    1.5480   -0.4490 C   0  0  0  0  0  0  0  0  0  0  0  0
    2.6620    1.3320    0.9890 C   0  0  0  0  0  0  0  0  0  0  0  0
    1.7500    0.3450    1.5990 C   0  0  2  0  0  0  0  0  0  0  0  0
    1.9140   -1.0030    1.1010 N   0  0  0  0  0  0  0  0  0  0  0  0
    0.3450    0.7460    1.7950 C   0  0  0  0  0  0  0  0  0  0  0  0
   -0.0290    1.8130    2.3430 O   0  0  0  0  0  0  0  0  0  0  0  0
    0.8560    2.8330   -3.0280 H   0  0  0  0  0  0  0  0  0  0  0  0
    2.1840    1.6370   -3.1450 H   0  0  0  0  0  0  0  0  0  0  0  0
    3.4700    2.3610   -0.6680 H   0  0  0  0  0  0  0  0  0  0  0  0
    3.0960    0.6930   -1.0520 H   0  0  0  0  0  0  0  0  0  0  0  0
    2.3940    2.3310    1.4660 H   0  0  0  0  0  0  0  0  0  0  0  0
    3.7170    1.1820    1.3840 H   0  0  0  0  0  0  0  0  0  0  0  0
    2.1460    0.2530    2.6900 H   0  0  0  0  0  0  0  0  0  0  0  0
    1.6500   -1.2820    0.1280 H   0  0  0  0  0  0  0  0  0  0  0  0
   -0.6710   -0.1330    1.3340 N   0  0  0  0  0  0  0  0  0  0  0  0
   -2.0950    0.1700    1.4790 C   0  0  1  0  0  0  0  0  0  0  0  0
   -2.6510    0.2020    0.0750 C   0  0  0  0  0  0  0  0  0  0  0  0
   -4.0930    0.5010    0.1280 C   0  0  0  0  0  0  0  0  0  0  0  0
   -5.1050   -0.4160    0.2000 C   0  0  0  0  0  0  0  0  0  0  0  0
   -6.2940    0.2540    0.2210 N   0  0  0  0  0  0  0  0  0  0  0  0
   -6.0070    1.5650    0.1620 C   0  0  0  0  0  0  0  0  0  0  0  0
   -4.6530    1.7130    0.1050 N   0  0  0  0  0  0  0  0  0  0  0  0
   -2.7090   -0.8700    2.3310 C   0  0  0  0  0  0  0  0  0  0  0  0
   -3.9170   -0.8640    2.6480 O   0  0  0  0  0  0  0  0  0  0  0  0
   -1.9510   -1.9280    2.8290 O   0  0  0  0  0  0  0  0  0  0  0  0
   -0.4400   -1.0340    0.8700 H   0  0  0  0  0  0  0  0  0  0  0  0
   -2.1990    1.1450    1.9820 H   0  0  0  0  0  0  0  0  0  0  0  0
   -2.1710    0.9770   -0.5460 H   0  0  0  0  0  0  0  0  0  0  0  0
   -2.4350   -0.7740   -0.4110 H   0  0  0  0  0  0  0  0  0  0  0  0
   -5.0190   -1.5040    0.2340 H   0  0  0  0  0  0  0  0  0  0  0  0
   -7.2080   -0.2070    0.2740 H   0  0  0  0  0  0  0  0  0  0  0  0
   -6.7040    2.3880    0.1590 H   0  0  0  0  0  0  0  0  0  0  0  0
  1  7  1  0  0  0  0
  1  2  1  0  0  0  0
  2  9  1  0  0  0  0
  3  2  1  0  0  0  0
  3  5  1  0  0  0  0
  3 10  1  1  0  0  0
  4  3  1  0  0  0  0
  5  6  2  0  0  0  0
  8  2  1  0  0  0  0
 11  4  1  0  0  0  0
 12  4  1  0  0  0  0
 13 14  1  0  0  0  0
 14 15  2  0  0  0  0
 14 16  1  0  0  0  0
 16 17  1  0  0  0  0
 17 27  1  0  0  0  0
 17 26  1  0  0  0  0
 17 18  1  0  0  0  0
 18 20  1  0  0  0  0
 18 28  1  1  0  0  0
 19 18  1  0  0  0  0
 19  5  1  0  0  0  0
 20 21  2  0  0  0  0
 22 13  1  0  0  0  0
 23 13  1  0  0  0  0
 24 16  1  0  0  0  0
 25 16  1  0  0  0  0
 29 19  1  0  0  0  0
 30 31  1  0  0  0  0
 30 20  1  0  0  0  0
 31 42  1  1  0  0  0
 31 38  1  0  0  0  0
 32 33  1  0  0  0  0
 32 31  1  0  0  0  0
 33 34  2  0  0  0  0
 34 35  1  0  0  0  0
 34 45  1  0  0  0  0
 35 46  1  0  0  0  0
 36 35  1  0  0  0  0
 37 33  1  0  0  0  0
 37 36  2  0  0  0  0
 38 39  2  0  0  0  0
 38 40  1  0  0  0  0
 41 30  1  0  0  0  0
 43 32  1  0  0  0  0
 44 32  1  0  0  0  0
 47 36  1  0  0  0  0
M  END
$$$$
