SQI.pdb
 OpenBabel07022419083D

 49 48  0  0  1  0  0  0  0  0999 V2000
    2.8700   -4.1910    2.9020 O   0  0  0  0  0  0  0  0  0  0  0  0
    2.0810   -3.0780    2.6200 C   0  0  0  0  0  0  0  0  0  0  0  0
    2.7350   -1.8040    3.1130 C   0  0  2  0  0  0  0  0  0  0  0  0
    2.9060   -1.9400    4.5450 N   0  0  0  0  0  0  0  0  0  0  0  0
    1.9620   -0.6050    2.7570 C   0  0  0  0  0  0  0  0  0  0  0  0
    1.5670    0.1560    3.6910 O   0  0  0  0  0  0  0  0  0  0  0  0
    2.9480   -4.3620    3.8870 H   0  0  0  0  0  0  0  0  0  0  0  0
    1.0880   -3.2530    3.0810 H   0  0  0  0  0  0  0  0  0  0  0  0
    1.9390   -3.0710    1.5240 H   0  0  0  0  0  0  0  0  0  0  0  0
    3.7570   -1.7740    2.6640 H   0  0  0  0  0  0  0  0  0  0  0  0
    2.4780   -1.1630    5.0700 H   0  0  0  0  0  0  0  0  0  0  0  0
    3.8760   -2.1740    4.7880 H   0  0  0  0  0  0  0  0  0  0  0  0
    0.1960    5.2720    0.6240 N   0  0  0  0  0  0  0  0  0  0  0  0
    0.8050    4.0180    0.9200 C   0  0  0  0  0  0  0  0  0  0  0  0
    0.9910    3.7550    2.1350 O   0  0  0  0  0  0  0  0  0  0  0  0
    1.1840    3.1010   -0.1850 C   0  0  0  0  0  0  0  0  0  0  0  0
    1.7540    1.8060    0.2630 C   0  0  0  0  0  0  0  0  0  0  0  0
    0.8610    0.9560    1.1150 C   0  0  2  0  0  0  0  0  0  0  0  0
    1.6360   -0.2550    1.4250 N   0  0  0  0  0  0  0  0  0  0  0  0
   -0.4220    0.6180    0.4840 C   0  0  0  0  0  0  0  0  0  0  0  0
   -1.2000    1.5440    0.1800 O   0  0  0  0  0  0  0  0  0  0  0  0
    0.5440    5.9000   -0.1370 H   0  0  0  0  0  0  0  0  0  0  0  0
   -0.6320    5.6180    1.1600 H   0  0  0  0  0  0  0  0  0  0  0  0
    0.3730    3.0000   -0.9370 H   0  0  0  0  0  0  0  0  0  0  0  0
    2.0060    3.6310   -0.7470 H   0  0  0  0  0  0  0  0  0  0  0  0
    2.1240    1.2670   -0.6330 H   0  0  0  0  0  0  0  0  0  0  0  0
    2.6700    2.0290    0.8680 H   0  0  0  0  0  0  0  0  0  0  0  0
    0.6470    1.4590    2.0780 H   0  0  0  0  0  0  0  0  0  0  0  0
    1.9690   -0.8920    0.6690 H   0  0  0  0  0  0  0  0  0  0  0  0
   -1.5850   -4.0350   -0.8500 C   0  0  0  0  0  0  0  0  0  0  0  0
   -1.4250   -3.0190   -1.9060 C   0  0  0  0  0  0  0  0  0  0  0  0
   -2.1210   -1.7230   -1.7170 C   0  0  2  0  0  0  0  0  0  0  0  0
   -1.8650   -0.7640   -2.8920 C   0  0  0  0  0  0  0  0  0  0  0  0
   -2.0750   -1.0690   -0.4180 C   0  0  2  0  0  0  0  0  0  0  0  0
   -0.8660   -0.6840    0.1830 N   0  0  0  0  0  0  0  0  0  0  0  0
   -2.9260   -1.8090    0.5470 C   0  0  0  0  0  0  0  0  0  0  0  0
   -4.0630   -2.2830    0.2400 O   0  0  0  0  0  0  0  0  0  0  0  0
   -2.4850   -2.0010    1.8340 O   0  0  0  0  0  0  0  0  0  0  0  0
   -0.9350   -4.9180   -1.1410 H   0  0  0  0  0  0  0  0  0  0  0  0
   -2.6070   -4.4700   -0.7960 H   0  0  0  0  0  0  0  0  0  0  0  0
   -1.2710   -3.7770    0.1520 H   0  0  0  0  0  0  0  0  0  0  0  0
   -0.3370   -2.8170   -2.1030 H   0  0  0  0  0  0  0  0  0  0  0  0
   -1.7390   -3.5290   -2.8710 H   0  0  0  0  0  0  0  0  0  0  0  0
   -3.2280   -1.9760   -1.8450 H   0  0  0  0  0  0  0  0  0  0  0  0
   -1.5150   -1.3070   -3.7950 H   0  0  0  0  0  0  0  0  0  0  0  0
   -2.7920   -0.2380   -3.1960 H   0  0  0  0  0  0  0  0  0  0  0  0
   -1.0410   -0.0480   -2.6480 H   0  0  0  0  0  0  0  0  0  0  0  0
   -2.6440   -0.0890   -0.5690 H   0  0  0  0  0  0  0  0  0  0  0  0
   -0.2010   -1.4650    0.4430 H   0  0  0  0  0  0  0  0  0  0  0  0
  1  7  1  0  0  0  0
  2  1  1  0  0  0  0
  2  8  1  0  0  0  0
  2  3  1  0  0  0  0
  3 10  1  6  0  0  0
  3  4  1  0  0  0  0
  4 12  1  0  0  0  0
  4 11  1  0  0  0  0
  5  3  1  0  0  0  0
  5  6  2  0  0  0  0
  9  2  1  0  0  0  0
 13 14  1  0  0  0  0
 13 23  1  0  0  0  0
 14 15  2  0  0  0  0
 16 17  1  0  0  0  0
 16 14  1  0  0  0  0
 17 27  1  0  0  0  0
 17 18  1  0  0  0  0
 18 19  1  0  0  0  0
 18 28  1  1  0  0  0
 19  5  1  0  0  0  0
 20 18  1  0  0  0  0
 21 20  2  0  0  0  0
 22 13  1  0  0  0  0
 24 16  1  0  0  0  0
 25 16  1  0  0  0  0
 26 17  1  0  0  0  0
 29 19  1  0  0  0  0
 30 40  1  0  0  0  0
 30 41  1  0  0  0  0
 31 32  1  0  0  0  0
 31 30  1  0  0  0  0
 32 44  1  6  0  0  0
 32 34  1  0  0  0  0
 33 47  1  0  0  0  0
 33 32  1  0  0  0  0
 34 48  1  6  0  0  0
 34 35  1  0  0  0  0
 34 36  1  0  0  0  0
 35 49  1  0  0  0  0
 35 20  1  0  0  0  0
 36 38  1  0  0  0  0
 37 36  2  0  0  0  0
 39 30  1  0  0  0  0
 42 31  1  0  0  0  0
 43 31  1  0  0  0  0
 45 33  1  0  0  0  0
 46 33  1  0  0  0  0
M  END
$$$$
