SQK.pdb
 OpenBabel07022419083D

 51 50  0  0  1  0  0  0  0  0999 V2000
    3.7110   -3.9170    5.1170 O   0  0  0  0  0  0  0  0  0  0  0  0
    3.5830   -3.0010    4.0990 C   0  0  0  0  0  0  0  0  0  0  0  0
    2.1550   -2.9660    3.5570 C   0  0  2  0  0  0  0  0  0  0  0  0
    1.7870   -4.2490    3.0470 N   0  0  0  0  0  0  0  0  0  0  0  0
    2.0230   -1.8740    2.5760 C   0  0  0  0  0  0  0  0  0  0  0  0
    2.3340   -0.7110    2.9710 O   0  0  0  0  0  0  0  0  0  0  0  0
    3.8020   -4.8320    4.7370 H   0  0  0  0  0  0  0  0  0  0  0  0
    3.8960   -2.0020    4.4560 H   0  0  0  0  0  0  0  0  0  0  0  0
    4.2390   -3.2450    3.2370 H   0  0  0  0  0  0  0  0  0  0  0  0
    1.5110   -2.7550    4.4370 H   0  0  0  0  0  0  0  0  0  0  0  0
    2.3200   -4.5470    2.2090 H   0  0  0  0  0  0  0  0  0  0  0  0
    1.9860   -4.9550    3.7920 H   0  0  0  0  0  0  0  0  0  0  0  0
    0.6830    1.0870   -3.4060 N   0  0  0  0  0  0  0  0  0  0  0  0
    1.1180   -0.0900   -2.7470 C   0  0  0  0  0  0  0  0  0  0  0  0
    0.4530   -1.1440   -2.9050 O   0  0  0  0  0  0  0  0  0  0  0  0
    2.3090   -0.0930   -1.9090 C   0  0  0  0  0  0  0  0  0  0  0  0
    2.3920   -1.1080   -0.8300 C   0  0  0  0  0  0  0  0  0  0  0  0
    1.4540   -0.9350    0.2780 C   0  0  2  0  0  0  0  0  0  0  0  0
    1.5870   -2.0220    1.2600 N   0  0  0  0  0  0  0  0  0  0  0  0
    0.0410   -0.7070    0.0510 C   0  0  0  0  0  0  0  0  0  0  0  0
   -0.3130    0.3480   -0.5300 O   0  0  0  0  0  0  0  0  0  0  0  0
   -0.3050    1.4550   -3.3300 H   0  0  0  0  0  0  0  0  0  0  0  0
    1.3140    1.6680   -4.0110 H   0  0  0  0  0  0  0  0  0  0  0  0
    2.4690    0.9140   -1.4040 H   0  0  0  0  0  0  0  0  0  0  0  0
    3.2520   -0.1880   -2.5380 H   0  0  0  0  0  0  0  0  0  0  0  0
    2.3370   -2.1240   -1.3170 H   0  0  0  0  0  0  0  0  0  0  0  0
    3.4400   -0.9880   -0.3910 H   0  0  0  0  0  0  0  0  0  0  0  0
    1.8430   -0.0320    0.8780 H   0  0  0  0  0  0  0  0  0  0  0  0
    1.3290   -2.9630    0.9050 H   0  0  0  0  0  0  0  0  0  0  0  0
   -0.9890   -1.5930    0.4380 N   0  0  0  0  0  0  0  0  0  0  0  0
   -2.3980   -1.4330    0.2690 C   0  0  1  0  0  0  0  0  0  0  0  0
   -2.8840    0.0000    0.1440 C   0  0  0  0  0  0  0  0  0  0  0  0
   -2.6110    0.8170    1.3720 C   0  0  0  0  0  0  0  0  0  0  0  0
   -3.1250    2.2110    1.2350 C   0  0  0  0  0  0  0  0  0  0  0  0
   -2.5400    3.0190    0.1240 C   0  0  0  0  0  0  0  0  0  0  0  0
   -1.1250    3.2180    0.2420 N   0  0  0  0  0  0  0  0  0  0  0  0
   -2.9500   -2.3150   -0.7580 C   0  0  0  0  0  0  0  0  0  0  0  0
   -2.2430   -3.1340   -1.4230 O   0  0  0  0  0  0  0  0  0  0  0  0
   -4.3160   -2.2610   -1.0230 O   0  0  0  0  0  0  0  0  0  0  0  0
   -0.6270   -2.4820    0.9170 H   0  0  0  0  0  0  0  0  0  0  0  0
   -2.9190   -1.7360    1.2730 H   0  0  0  0  0  0  0  0  0  0  0  0
   -4.0130   -0.0770    0.0880 H   0  0  0  0  0  0  0  0  0  0  0  0
   -2.6020    0.4930   -0.7920 H   0  0  0  0  0  0  0  0  0  0  0  0
   -1.5790    0.8530    1.7140 H   0  0  0  0  0  0  0  0  0  0  0  0
   -3.2070    0.3170    2.2080 H   0  0  0  0  0  0  0  0  0  0  0  0
   -4.2300    2.1780    1.1180 H   0  0  0  0  0  0  0  0  0  0  0  0
   -2.9390    2.7730    2.1860 H   0  0  0  0  0  0  0  0  0  0  0  0
   -3.0890    4.0040    0.1290 H   0  0  0  0  0  0  0  0  0  0  0  0
   -2.7110    2.5280   -0.8720 H   0  0  0  0  0  0  0  0  0  0  0  0
   -0.7840    4.0560   -0.2660 H   0  0  0  0  0  0  0  0  0  0  0  0
   -0.8080    3.2620    1.2500 H   0  0  0  0  0  0  0  0  0  0  0  0
  2  8  1  0  0  0  0
  2  1  1  0  0  0  0
  3  2  1  0  0  0  0
  3 10  1  1  0  0  0
  4  3  1  0  0  0  0
  4 12  1  0  0  0  0
  5  6  2  0  0  0  0
  5  3  1  0  0  0  0
  7  1  1  0  0  0  0
  9  2  1  0  0  0  0
 11  4  1  0  0  0  0
 13 22  1  0  0  0  0
 13 14  1  0  0  0  0
 14 16  1  0  0  0  0
 15 14  2  0  0  0  0
 16 24  1  0  0  0  0
 16 17  1  0  0  0  0
 17 27  1  0  0  0  0
 17 18  1  0  0  0  0
 18 28  1  1  0  0  0
 18 19  1  0  0  0  0
 19  5  1  0  0  0  0
 20 18  1  0  0  0  0
 20 30  1  0  0  0  0
 21 20  2  0  0  0  0
 23 13  1  0  0  0  0
 25 16  1  0  0  0  0
 26 17  1  0  0  0  0
 29 19  1  0  0  0  0
 30 40  1  0  0  0  0
 31 30  1  0  0  0  0
 31 41  1  1  0  0  0
 32 31  1  0  0  0  0
 32 33  1  0  0  0  0
 33 44  1  0  0  0  0
 33 45  1  0  0  0  0
 34 33  1  0  0  0  0
 34 47  1  0  0  0  0
 35 48  1  0  0  0  0
 35 36  1  0  0  0  0
 35 34  1  0  0  0  0
 36 51  1  0  0  0  0
 37 31  1  0  0  0  0
 38 37  2  0  0  0  0
 39 37  1  0  0  0  0
 42 32  1  0  0  0  0
 43 32  1  0  0  0  0
 46 34  1  0  0  0  0
 49 35  1  0  0  0  0
 50 36  1  0  0  0  0
M  END
$$$$
