SQL.pdb
 OpenBabel07022419083D

 49 48  0  0  1  0  0  0  0  0999 V2000
    3.1140   -3.6370    4.3370 O   0  0  0  0  0  0  0  0  0  0  0  0
    2.5760   -2.3550    4.2320 C   0  0  0  0  0  0  0  0  0  0  0  0
    1.5420   -2.3810    3.1520 C   0  0  2  0  0  0  0  0  0  0  0  0
    2.1960   -2.7750    1.9180 N   0  0  0  0  0  0  0  0  0  0  0  0
    0.8470   -1.0790    2.9900 C   0  0  0  0  0  0  0  0  0  0  0  0
    0.2310   -0.5820    3.9400 O   0  0  0  0  0  0  0  0  0  0  0  0
    2.7270   -4.1340    5.1210 H   0  0  0  0  0  0  0  0  0  0  0  0
    2.1740   -2.0170    5.2130 H   0  0  0  0  0  0  0  0  0  0  0  0
    3.4360   -1.6930    3.9300 H   0  0  0  0  0  0  0  0  0  0  0  0
    0.7750   -3.1450    3.4430 H   0  0  0  0  0  0  0  0  0  0  0  0
    3.2340   -2.5630    1.9810 H   0  0  0  0  0  0  0  0  0  0  0  0
    2.0360   -3.7990    1.8000 H   0  0  0  0  0  0  0  0  0  0  0  0
    0.9260    5.7140    0.7230 N   0  0  0  0  0  0  0  0  0  0  0  0
    1.4290    4.3920    0.8790 C   0  0  0  0  0  0  0  0  0  0  0  0
    2.6310    4.0860    0.7870 O   0  0  0  0  0  0  0  0  0  0  0  0
    0.4120    3.3040    1.1740 C   0  0  0  0  0  0  0  0  0  0  0  0
    1.1300    1.9900    1.3030 C   0  0  0  0  0  0  0  0  0  0  0  0
    0.1860    0.8890    1.6200 C   0  0  2  0  0  0  0  0  0  0  0  0
    0.8770   -0.3910    1.7560 N   0  0  0  0  0  0  0  0  0  0  0  0
   -0.9030    0.6750    0.6550 C   0  0  0  0  0  0  0  0  0  0  0  0
   -1.7220    1.5820    0.3590 O   0  0  0  0  0  0  0  0  0  0  0  0
    1.4670    6.5250    1.0740 H   0  0  0  0  0  0  0  0  0  0  0  0
    0.0220    5.8690    0.2630 H   0  0  0  0  0  0  0  0  0  0  0  0
   -0.3330    3.3350    0.3450 H   0  0  0  0  0  0  0  0  0  0  0  0
   -0.1320    3.5830    2.1000 H   0  0  0  0  0  0  0  0  0  0  0  0
    1.6910    1.8430    0.3560 H   0  0  0  0  0  0  0  0  0  0  0  0
    1.8240    2.1110    2.1740 H   0  0  0  0  0  0  0  0  0  0  0  0
   -0.2610    1.1080    2.6110 H   0  0  0  0  0  0  0  0  0  0  0  0
    1.3700   -0.7400    0.9200 H   0  0  0  0  0  0  0  0  0  0  0  0
   -1.5370   -3.6220   -2.1130 C   0  0  0  0  0  0  0  0  0  0  0  0
   -0.8800   -2.3220   -2.5630 C   0  0  0  0  0  0  0  0  0  0  0  0
    0.5070   -2.2460   -2.0420 C   0  0  0  0  0  0  0  0  0  0  0  0
   -1.7310   -1.1320   -2.3420 C   0  0  0  0  0  0  0  0  0  0  0  0
   -2.1500   -0.8260   -0.9560 C   0  0  2  0  0  0  0  0  0  0  0  0
   -1.1050   -0.5840   -0.0150 N   0  0  0  0  0  0  0  0  0  0  0  0
   -3.1410   -1.8120   -0.4200 C   0  0  0  0  0  0  0  0  0  0  0  0
   -4.1460   -2.1710   -1.0850 O   0  0  0  0  0  0  0  0  0  0  0  0
   -3.0080   -2.3850    0.8420 O   0  0  0  0  0  0  0  0  0  0  0  0
   -0.8690   -4.4360   -2.5240 H   0  0  0  0  0  0  0  0  0  0  0  0
   -2.5150   -3.7860   -2.5990 H   0  0  0  0  0  0  0  0  0  0  0  0
   -1.5310   -3.7530   -1.0300 H   0  0  0  0  0  0  0  0  0  0  0  0
   -0.8100   -2.4360   -3.6890 H   0  0  0  0  0  0  0  0  0  0  0  0
    1.2250   -2.6030   -2.8110 H   0  0  0  0  0  0  0  0  0  0  0  0
    0.8100   -1.1990   -1.8200 H   0  0  0  0  0  0  0  0  0  0  0  0
    0.6890   -2.9290   -1.1660 H   0  0  0  0  0  0  0  0  0  0  0  0
   -2.6790   -1.2920   -2.9370 H   0  0  0  0  0  0  0  0  0  0  0  0
   -1.2470   -0.2620   -2.8300 H   0  0  0  0  0  0  0  0  0  0  0  0
   -2.7350    0.1430   -1.0210 H   0  0  0  0  0  0  0  0  0  0  0  0
   -0.4400   -1.3400    0.2210 H   0  0  0  0  0  0  0  0  0  0  0  0
  1  7  1  0  0  0  0
  2  1  1  0  0  0  0
  2  8  1  0  0  0  0
  3 10  1  1  0  0  0
  3  2  1  0  0  0  0
  4 11  1  0  0  0  0
  4  3  1  0  0  0  0
  5  3  1  0  0  0  0
  5  6  2  0  0  0  0
  9  2  1  0  0  0  0
 12  4  1  0  0  0  0
 13 14  1  0  0  0  0
 13 22  1  0  0  0  0
 14 16  1  0  0  0  0
 15 14  2  0  0  0  0
 16 17  1  0  0  0  0
 16 25  1  0  0  0  0
 17 18  1  0  0  0  0
 17 27  1  0  0  0  0
 18 19  1  0  0  0  0
 18 28  1  1  0  0  0
 19  5  1  0  0  0  0
 20 18  1  0  0  0  0
 21 20  2  0  0  0  0
 23 13  1  0  0  0  0
 24 16  1  0  0  0  0
 26 17  1  0  0  0  0
 29 19  1  0  0  0  0
 30 41  1  0  0  0  0
 31 33  1  0  0  0  0
 31 30  1  0  0  0  0
 31 32  1  0  0  0  0
 32 44  1  0  0  0  0
 32 45  1  0  0  0  0
 33 34  1  0  0  0  0
 34 48  1  6  0  0  0
 34 36  1  0  0  0  0
 34 35  1  0  0  0  0
 35 49  1  0  0  0  0
 35 20  1  0  0  0  0
 36 38  1  0  0  0  0
 37 36  2  0  0  0  0
 39 30  1  0  0  0  0
 40 30  1  0  0  0  0
 42 31  1  0  0  0  0
 43 32  1  0  0  0  0
 46 33  1  0  0  0  0
 47 33  1  0  0  0  0
M  END
$$$$
