SQM.pdb
 OpenBabel07022419083D

 47 46  0  0  1  0  0  0  0  0999 V2000
    1.7430   -2.7870    6.1200 O   0  0  0  0  0  0  0  0  0  0  0  0
    1.9340   -1.6490    5.3660 C   0  0  0  0  0  0  0  0  0  0  0  0
    0.7660   -1.4600    4.3910 C   0  0  2  0  0  0  0  0  0  0  0  0
    0.7310   -2.6260    3.5390 N   0  0  0  0  0  0  0  0  0  0  0  0
    0.9250   -0.2310    3.6040 C   0  0  0  0  0  0  0  0  0  0  0  0
    0.9730    0.8660    4.1980 O   0  0  0  0  0  0  0  0  0  0  0  0
    1.7940   -3.5990    5.5450 H   0  0  0  0  0  0  0  0  0  0  0  0
    2.8390   -1.8010    4.7290 H   0  0  0  0  0  0  0  0  0  0  0  0
    2.0410   -0.7690    6.0290 H   0  0  0  0  0  0  0  0  0  0  0  0
   -0.1490   -1.3660    5.0220 H   0  0  0  0  0  0  0  0  0  0  0  0
    0.3690   -3.4420    4.0650 H   0  0  0  0  0  0  0  0  0  0  0  0
    1.6850   -2.8160    3.2020 H   0  0  0  0  0  0  0  0  0  0  0  0
    2.3150   -1.5850   -1.9460 N   0  0  0  0  0  0  0  0  0  0  0  0
    2.0650   -0.3570   -1.2410 C   0  0  0  0  0  0  0  0  0  0  0  0
    1.1450    0.3500   -1.6780 O   0  0  0  0  0  0  0  0  0  0  0  0
    2.9060   -0.0480   -0.0860 C   0  0  0  0  0  0  0  0  0  0  0  0
    2.5240    1.1180    0.7660 C   0  0  0  0  0  0  0  0  0  0  0  0
    1.1860    0.9620    1.3900 C   0  0  2  0  0  0  0  0  0  0  0  0
    1.0300   -0.2100    2.1870 N   0  0  0  0  0  0  0  0  0  0  0  0
    0.0160    1.3680    0.5950 C   0  0  0  0  0  0  0  0  0  0  0  0
   -0.0130    2.4870   -0.0300 O   0  0  0  0  0  0  0  0  0  0  0  0
    2.2270   -2.5060   -1.4750 H   0  0  0  0  0  0  0  0  0  0  0  0
    2.5850   -1.5260   -2.9330 H   0  0  0  0  0  0  0  0  0  0  0  0
    3.9530    0.1020   -0.5030 H   0  0  0  0  0  0  0  0  0  0  0  0
    3.0430   -0.9790    0.5410 H   0  0  0  0  0  0  0  0  0  0  0  0
    2.5560    2.0110    0.0610 H   0  0  0  0  0  0  0  0  0  0  0  0
    3.3270    1.3910    1.4940 H   0  0  0  0  0  0  0  0  0  0  0  0
    1.2010    1.8110    2.1990 H   0  0  0  0  0  0  0  0  0  0  0  0
    0.9870   -1.1420    1.7150 H   0  0  0  0  0  0  0  0  0  0  0  0
   -1.4620   -2.1730   -3.6910 C   0  0  0  0  0  0  0  0  0  0  0  0
   -3.0250   -2.2350   -2.7720 S   0  0  0  0  0  0  0  0  0  0  0  0
   -2.7680   -1.3480   -1.1900 C   0  0  0  0  0  0  0  0  0  0  0  0
   -2.5350    0.0920   -1.5300 C   0  0  0  0  0  0  0  0  0  0  0  0
   -2.3050    0.9680   -0.3230 C   0  0  2  0  0  0  0  0  0  0  0  0
   -1.1620    0.5700    0.4540 N   0  0  0  0  0  0  0  0  0  0  0  0
   -3.5170    1.1360    0.5070 C   0  0  0  0  0  0  0  0  0  0  0  0
   -3.4030    0.9190    1.7480 O   0  0  0  0  0  0  0  0  0  0  0  0
   -4.7210    1.5110   -0.0250 O   0  0  0  0  0  0  0  0  0  0  0  0
   -1.4730   -1.2290   -4.2800 H   0  0  0  0  0  0  0  0  0  0  0  0
   -1.3650   -3.0090   -4.4130 H   0  0  0  0  0  0  0  0  0  0  0  0
   -0.6120   -2.1940   -2.9820 H   0  0  0  0  0  0  0  0  0  0  0  0
   -3.7210   -1.4500   -0.6310 H   0  0  0  0  0  0  0  0  0  0  0  0
   -1.9790   -1.8060   -0.5970 H   0  0  0  0  0  0  0  0  0  0  0  0
   -1.6610    0.2210   -2.1950 H   0  0  0  0  0  0  0  0  0  0  0  0
   -3.4380    0.4840   -2.0420 H   0  0  0  0  0  0  0  0  0  0  0  0
   -2.0520    1.9870   -0.7420 H   0  0  0  0  0  0  0  0  0  0  0  0
   -1.1880   -0.3380    0.9360 H   0  0  0  0  0  0  0  0  0  0  0  0
  2  9  1  0  0  0  0
  2  1  1  0  0  0  0
  3 10  1  1  0  0  0
  3  2  1  0  0  0  0
  4 11  1  0  0  0  0
  4  3  1  0  0  0  0
  5  6  2  0  0  0  0
  5  3  1  0  0  0  0
  7  1  1  0  0  0  0
  8  2  1  0  0  0  0
 12  4  1  0  0  0  0
 13 22  1  0  0  0  0
 13 14  1  0  0  0  0
 14 16  1  0  0  0  0
 15 14  2  0  0  0  0
 16 25  1  0  0  0  0
 16 17  1  0  0  0  0
 17 18  1  0  0  0  0
 17 27  1  0  0  0  0
 18 19  1  0  0  0  0
 18 28  1  1  0  0  0
 19  5  1  0  0  0  0
 20 18  1  0  0  0  0
 21 20  2  0  0  0  0
 23 13  1  0  0  0  0
 24 16  1  0  0  0  0
 26 17  1  0  0  0  0
 29 19  1  0  0  0  0
 30 41  1  0  0  0  0
 30 31  1  0  0  0  0
 31 32  1  0  0  0  0
 32 42  1  0  0  0  0
 32 43  1  0  0  0  0
 33 32  1  0  0  0  0
 33 34  1  0  0  0  0
 34 46  1  6  0  0  0
 34 35  1  0  0  0  0
 34 36  1  0  0  0  0
 35 20  1  0  0  0  0
 35 47  1  0  0  0  0
 36 37  1  0  0  0  0
 38 36  2  0  0  0  0
 39 30  1  0  0  0  0
 40 30  1  0  0  0  0
 44 33  1  0  0  0  0
 45 33  1  0  0  0  0
M  END
$$$$
