SQP.pdb
 OpenBabel07022419083D

 44 44  0  0  1  0  0  0  0  0999 V2000
    0.3600   -4.9830   -0.2500 O   0  0  0  0  0  0  0  0  0  0  0  0
    0.2730   -3.6590    0.2420 C   0  0  0  0  0  0  0  0  0  0  0  0
    1.6580   -3.0930    0.2490 C   0  0  2  0  0  0  0  0  0  0  0  0
    2.4620   -3.9610    1.1180 N   0  0  0  0  0  0  0  0  0  0  0  0
    1.7560   -1.7110    0.7500 C   0  0  0  0  0  0  0  0  0  0  0  0
    2.5120   -1.4470    1.7530 O   0  0  0  0  0  0  0  0  0  0  0  0
    0.2700   -5.6410    0.4790 H   0  0  0  0  0  0  0  0  0  0  0  0
   -0.1420   -3.6990    1.2570 H   0  0  0  0  0  0  0  0  0  0  0  0
   -0.4140   -3.0670   -0.4340 H   0  0  0  0  0  0  0  0  0  0  0  0
    2.0570   -3.1800   -0.8040 H   0  0  0  0  0  0  0  0  0  0  0  0
    2.5190   -3.5000    2.0400 H   0  0  0  0  0  0  0  0  0  0  0  0
    2.0490   -4.9190    1.1740 H   0  0  0  0  0  0  0  0  0  0  0  0
    4.7030   -0.5960   -1.1630 N   0  0  0  0  0  0  0  0  0  0  0  0
    3.4820    0.1520   -1.2710 C   0  0  0  0  0  0  0  0  0  0  0  0
    2.5490   -0.2640   -2.0090 O   0  0  0  0  0  0  0  0  0  0  0  0
    3.2750    1.4160   -0.5440 C   0  0  0  0  0  0  0  0  0  0  0  0
    1.8480    1.6910   -0.2960 C   0  0  0  0  0  0  0  0  0  0  0  0
    1.1090    0.7300    0.5960 C   0  0  2  0  0  0  0  0  0  0  0  0
    1.0360   -0.6200    0.1620 N   0  0  0  0  0  0  0  0  0  0  0  0
   -0.1020    1.3360    1.1600 C   0  0  0  0  0  0  0  0  0  0  0  0
    0.0090    2.6070    1.4090 O   0  0  0  0  0  0  0  0  0  0  0  0
    5.1450   -0.8520   -0.2640 H   0  0  0  0  0  0  0  0  0  0  0  0
    5.1610   -0.8940   -2.0410 H   0  0  0  0  0  0  0  0  0  0  0  0
    3.9090    1.4820    0.3740 H   0  0  0  0  0  0  0  0  0  0  0  0
    3.7350    2.2120   -1.2140 H   0  0  0  0  0  0  0  0  0  0  0  0
    1.2560    1.8250   -1.2350 H   0  0  0  0  0  0  0  0  0  0  0  0
    1.7930    2.7130    0.1870 H   0  0  0  0  0  0  0  0  0  0  0  0
    1.8400    0.6630    1.5110 H   0  0  0  0  0  0  0  0  0  0  0  0
    0.3970   -0.8570   -0.6550 H   0  0  0  0  0  0  0  0  0  0  0  0
   -1.3420    0.7700    1.4700 N   0  0  0  0  0  0  0  0  0  0  0  0
   -1.8600   -0.5770    1.3810 C   0  0  0  0  0  0  0  0  0  0  0  0
   -3.1690   -0.3010    0.6590 C   0  0  0  0  0  0  0  0  0  0  0  0
   -3.6530    1.0050    1.2490 C   0  0  0  0  0  0  0  0  0  0  0  0
   -2.4740    1.5370    1.9940 C   0  0  1  0  0  0  0  0  0  0  0  0
   -2.6040    1.2640    3.4220 C   0  0  0  0  0  0  0  0  0  0  0  0
   -1.7730    0.5920    4.0720 O   0  0  0  0  0  0  0  0  0  0  0  0
   -3.6930    1.7470    4.1820 O   0  0  0  0  0  0  0  0  0  0  0  0
   -2.1060   -0.9170    2.4260 H   0  0  0  0  0  0  0  0  0  0  0  0
   -1.2430   -1.3110    0.9060 H   0  0  0  0  0  0  0  0  0  0  0  0
   -3.8580   -1.1290    0.9000 H   0  0  0  0  0  0  0  0  0  0  0  0
   -3.0380   -0.2600   -0.4300 H   0  0  0  0  0  0  0  0  0  0  0  0
   -4.5000    0.7730    1.9600 H   0  0  0  0  0  0  0  0  0  0  0  0
   -4.0260    1.6980    0.4670 H   0  0  0  0  0  0  0  0  0  0  0  0
   -2.3120    2.6330    1.7880 H   0  0  0  0  0  0  0  0  0  0  0  0
  1  2  1  0  0  0  0
  1  7  1  0  0  0  0
  2  3  1  0  0  0  0
  2  8  1  0  0  0  0
  3 10  1  6  0  0  0
  3  5  1  0  0  0  0
  3  4  1  0  0  0  0
  4 12  1  0  0  0  0
  4 11  1  0  0  0  0
  5  6  2  0  0  0  0
  9  2  1  0  0  0  0
 13 22  1  0  0  0  0
 14 13  1  0  0  0  0
 14 16  1  0  0  0  0
 15 14  2  0  0  0  0
 16 17  1  0  0  0  0
 16 24  1  0  0  0  0
 17 27  1  0  0  0  0
 17 18  1  0  0  0  0
 18 20  1  0  0  0  0
 18 28  1  1  0  0  0
 19 18  1  0  0  0  0
 19  5  1  0  0  0  0
 20 21  2  0  0  0  0
 20 30  1  0  0  0  0
 23 13  1  0  0  0  0
 25 16  1  0  0  0  0
 26 17  1  0  0  0  0
 29 19  1  0  0  0  0
 30 34  1  0  0  0  0
 31 30  1  0  0  0  0
 31 38  1  0  0  0  0
 32 40  1  0  0  0  0
 32 33  1  0  0  0  0
 32 31  1  0  0  0  0
 33 42  1  0  0  0  0
 33 34  1  0  0  0  0
 34 44  1  6  0  0  0
 34 35  1  0  0  0  0
 35 36  2  0  0  0  0
 35 37  1  0  0  0  0
 39 31  1  0  0  0  0
 41 32  1  0  0  0  0
 43 33  1  0  0  0  0
M  END
$$$$
