SQQ.pdb
 OpenBabel07022419083D

 47 46  0  0  1  0  0  0  0  0999 V2000
    0.3170   -3.6800    2.7600 O   0  0  0  0  0  0  0  0  0  0  0  0
    1.4660   -3.2890    2.0750 C   0  0  0  0  0  0  0  0  0  0  0  0
    2.1350   -2.1570    2.7930 C   0  0  2  0  0  0  0  0  0  0  0  0
    2.4940   -2.5960    4.1280 N   0  0  0  0  0  0  0  0  0  0  0  0
    1.4080   -0.8970    2.7810 C   0  0  0  0  0  0  0  0  0  0  0  0
    1.1810   -0.3490    3.9160 O   0  0  0  0  0  0  0  0  0  0  0  0
    0.1620   -3.1610    3.5830 H   0  0  0  0  0  0  0  0  0  0  0  0
    2.1220   -4.1820    2.0190 H   0  0  0  0  0  0  0  0  0  0  0  0
    1.1620   -3.0540    1.0470 H   0  0  0  0  0  0  0  0  0  0  0  0
    3.1170   -1.9760    2.2650 H   0  0  0  0  0  0  0  0  0  0  0  0
    2.9000   -3.5400    4.0520 H   0  0  0  0  0  0  0  0  0  0  0  0
    1.7160   -2.5120    4.8010 H   0  0  0  0  0  0  0  0  0  0  0  0
    4.1940    4.0490    1.0590 N   0  0  0  0  0  0  0  0  0  0  0  0
    2.8970    3.5400    0.7810 C   0  0  0  0  0  0  0  0  0  0  0  0
    2.2520    4.0580   -0.1590 O   0  0  0  0  0  0  0  0  0  0  0  0
    2.2840    2.4350    1.5470 C   0  0  0  0  0  0  0  0  0  0  0  0
    0.9320    2.1490    1.0020 C   0  0  0  0  0  0  0  0  0  0  0  0
    0.2150    1.0280    1.7190 C   0  0  2  0  0  0  0  0  0  0  0  0
    0.9280   -0.2170    1.6540 N   0  0  0  0  0  0  0  0  0  0  0  0
   -1.1340    0.9410    1.0990 C   0  0  0  0  0  0  0  0  0  0  0  0
   -1.8410    1.9790    1.1030 O   0  0  0  0  0  0  0  0  0  0  0  0
    4.8070    4.4890    0.3510 H   0  0  0  0  0  0  0  0  0  0  0  0
    4.5420    3.9740    2.0330 H   0  0  0  0  0  0  0  0  0  0  0  0
    2.9300    1.5360    1.5900 H   0  0  0  0  0  0  0  0  0  0  0  0
    2.1420    2.8300    2.5940 H   0  0  0  0  0  0  0  0  0  0  0  0
    0.2960    3.0480    1.0260 H   0  0  0  0  0  0  0  0  0  0  0  0
    1.0460    1.8820   -0.0830 H   0  0  0  0  0  0  0  0  0  0  0  0
    0.0960    1.3780    2.7840 H   0  0  0  0  0  0  0  0  0  0  0  0
    1.0940   -0.6330    0.7200 H   0  0  0  0  0  0  0  0  0  0  0  0
   -1.3150   -3.4640   -3.6900 N   0  0  0  0  0  0  0  0  0  0  0  0
   -1.9450   -2.2880   -3.2070 C   0  0  0  0  0  0  0  0  0  0  0  0
   -2.3990   -1.4780   -4.0550 O   0  0  0  0  0  0  0  0  0  0  0  0
   -2.0800   -1.9960   -1.7560 C   0  0  0  0  0  0  0  0  0  0  0  0
   -2.7930   -0.6780   -1.5410 C   0  0  0  0  0  0  0  0  0  0  0  0
   -2.9500   -0.3440   -0.0910 C   0  0  2  0  0  0  0  0  0  0  0  0
   -1.6300   -0.2550    0.5160 N   0  0  0  0  0  0  0  0  0  0  0  0
   -3.7840   -1.3680    0.5590 C   0  0  0  0  0  0  0  0  0  0  0  0
   -4.9430   -1.5480    0.1330 O   0  0  0  0  0  0  0  0  0  0  0  0
   -3.2520   -2.0990    1.6240 O   0  0  0  0  0  0  0  0  0  0  0  0
   -1.8220   -4.2760   -4.0890 H   0  0  0  0  0  0  0  0  0  0  0  0
   -0.2750   -3.5100   -3.6390 H   0  0  0  0  0  0  0  0  0  0  0  0
   -2.6490   -2.8440   -1.3150 H   0  0  0  0  0  0  0  0  0  0  0  0
   -1.0730   -2.0150   -1.3140 H   0  0  0  0  0  0  0  0  0  0  0  0
   -2.2260    0.0910   -2.1040 H   0  0  0  0  0  0  0  0  0  0  0  0
   -3.7950   -0.7820   -1.9930 H   0  0  0  0  0  0  0  0  0  0  0  0
   -3.4360    0.6290   -0.0090 H   0  0  0  0  0  0  0  0  0  0  0  0
   -0.9760   -1.0780    0.5540 H   0  0  0  0  0  0  0  0  0  0  0  0
  1  7  1  0  0  0  0
  2  1  1  0  0  0  0
  2  3  1  0  0  0  0
  3 10  1  6  0  0  0
  3  4  1  0  0  0  0
  4 12  1  0  0  0  0
  5  3  1  0  0  0  0
  5  6  2  0  0  0  0
  8  2  1  0  0  0  0
  9  2  1  0  0  0  0
 11  4  1  0  0  0  0
 13 23  1  0  0  0  0
 14 13  1  0  0  0  0
 14 16  1  0  0  0  0
 15 14  2  0  0  0  0
 16 24  1  0  0  0  0
 16 25  1  0  0  0  0
 17 26  1  0  0  0  0
 17 16  1  0  0  0  0
 17 18  1  0  0  0  0
 18 28  1  1  0  0  0
 19 18  1  0  0  0  0
 19  5  1  0  0  0  0
 20 21  2  0  0  0  0
 20 18  1  0  0  0  0
 22 13  1  0  0  0  0
 27 17  1  0  0  0  0
 29 19  1  0  0  0  0
 30 41  1  0  0  0  0
 30 31  1  0  0  0  0
 31 33  1  0  0  0  0
 32 31  2  0  0  0  0
 33 34  1  0  0  0  0
 33 42  1  0  0  0  0
 33 43  1  0  0  0  0
 34 35  1  0  0  0  0
 35 46  1  1  0  0  0
 35 36  1  0  0  0  0
 35 37  1  0  0  0  0
 36 47  1  0  0  0  0
 36 20  1  0  0  0  0
 37 39  1  0  0  0  0
 38 37  2  0  0  0  0
 40 30  1  0  0  0  0
 44 34  1  0  0  0  0
 45 34  1  0  0  0  0
M  END
$$$$
