SQS.pdb
 OpenBabel07022419083D

 41 40  0  0  1  0  0  0  0  0999 V2000
   -3.6010   -2.0570    2.2230 O   0  0  0  0  0  0  0  0  0  0  0  0
   -2.2620   -1.8420    1.9230 C   0  0  0  0  0  0  0  0  0  0  0  0
   -1.9070   -2.4890    0.5950 C   0  0  2  0  0  0  0  0  0  0  0  0
   -2.1650   -3.9080    0.7200 N   0  0  0  0  0  0  0  0  0  0  0  0
   -0.4750   -2.2480    0.2890 C   0  0  0  0  0  0  0  0  0  0  0  0
    0.3280   -3.2160    0.1730 O   0  0  0  0  0  0  0  0  0  0  0  0
   -3.7350   -2.5870    3.0470 H   0  0  0  0  0  0  0  0  0  0  0  0
   -1.6750   -2.2840    2.7560 H   0  0  0  0  0  0  0  0  0  0  0  0
   -2.0690   -0.7630    1.8460 H   0  0  0  0  0  0  0  0  0  0  0  0
   -2.5060   -2.0340   -0.1950 H   0  0  0  0  0  0  0  0  0  0  0  0
   -1.2830   -4.4370    0.6350 H   0  0  0  0  0  0  0  0  0  0  0  0
   -2.7280   -4.1200    1.5590 H   0  0  0  0  0  0  0  0  0  0  0  0
    1.0860   -2.3970   -4.1730 N   0  0  0  0  0  0  0  0  0  0  0  0
    1.5680   -1.7100   -3.0290 C   0  0  0  0  0  0  0  0  0  0  0  0
    2.5420   -2.2040   -2.4010 O   0  0  0  0  0  0  0  0  0  0  0  0
    0.8980   -0.4630   -2.6510 C   0  0  0  0  0  0  0  0  0  0  0  0
    1.4250    0.2080   -1.4340 C   0  0  0  0  0  0  0  0  0  0  0  0
    1.3560   -0.5850   -0.1720 C   0  0  2  0  0  0  0  0  0  0  0  0
   -0.0080   -0.9210    0.1250 N   0  0  0  0  0  0  0  0  0  0  0  0
    1.9740    0.2480    0.9030 C   0  0  0  0  0  0  0  0  0  0  0  0
    3.1720    0.5880    0.7220 O   0  0  0  0  0  0  0  0  0  0  0  0
    1.1320   -3.4350   -4.1760 H   0  0  0  0  0  0  0  0  0  0  0  0
    0.6890   -1.9220   -5.0090 H   0  0  0  0  0  0  0  0  0  0  0  0
    1.0450    0.2560   -3.5040 H   0  0  0  0  0  0  0  0  0  0  0  0
   -0.1910   -0.6570   -2.6260 H   0  0  0  0  0  0  0  0  0  0  0  0
    2.5210    0.4090   -1.6240 H   0  0  0  0  0  0  0  0  0  0  0  0
    0.9670    1.2090   -1.3100 H   0  0  0  0  0  0  0  0  0  0  0  0
    2.0000   -1.4810   -0.2590 H   0  0  0  0  0  0  0  0  0  0  0  0
   -0.7000   -0.1490    0.2280 H   0  0  0  0  0  0  0  0  0  0  0  0
    1.2010    3.5230    2.0990 O   0  0  0  0  0  0  0  0  0  0  0  0
    1.2400    2.7800    3.2710 C   0  0  0  0  0  0  0  0  0  0  0  0
    1.9470    1.4530    3.0660 C   0  0  2  0  0  0  0  0  0  0  0  0
    1.2830    0.6480    2.0690 N   0  0  0  0  0  0  0  0  0  0  0  0
    1.9920    0.7540    4.3880 C   0  0  0  0  0  0  0  0  0  0  0  0
    2.5350    1.3160    5.3630 O   0  0  0  0  0  0  0  0  0  0  0  0
    1.4490   -0.5020    4.5610 O   0  0  0  0  0  0  0  0  0  0  0  0
    1.6570    4.3980    2.1730 H   0  0  0  0  0  0  0  0  0  0  0  0
    0.2340    2.5900    3.6800 H   0  0  0  0  0  0  0  0  0  0  0  0
    1.7790    3.3920    4.0200 H   0  0  0  0  0  0  0  0  0  0  0  0
    2.9710    1.6600    2.7630 H   0  0  0  0  0  0  0  0  0  0  0  0
    0.2920    0.3350    2.1630 H   0  0  0  0  0  0  0  0  0  0  0  0
  1  7  1  0  0  0  0
  2  1  1  0  0  0  0
  2  8  1  0  0  0  0
  3 10  1  6  0  0  0
  3  4  1  0  0  0  0
  3  2  1  0  0  0  0
  4 12  1  0  0  0  0
  5  3  1  0  0  0  0
  6  5  2  0  0  0  0
  9  2  1  0  0  0  0
 11  4  1  0  0  0  0
 13 14  1  0  0  0  0
 14 16  1  0  0  0  0
 14 15  2  0  0  0  0
 16 25  1  0  0  0  0
 16 17  1  0  0  0  0
 17 27  1  0  0  0  0
 17 18  1  0  0  0  0
 18 28  1  6  0  0  0
 18 19  1  0  0  0  0
 18 20  1  0  0  0  0
 19 29  1  0  0  0  0
 19  5  1  0  0  0  0
 20 33  1  0  0  0  0
 21 20  2  0  0  0  0
 22 13  1  0  0  0  0
 23 13  1  0  0  0  0
 24 16  1  0  0  0  0
 26 17  1  0  0  0  0
 30 37  1  0  0  0  0
 30 31  1  0  0  0  0
 31 38  1  0  0  0  0
 31 39  1  0  0  0  0
 32 40  1  6  0  0  0
 32 31  1  0  0  0  0
 32 34  1  0  0  0  0
 33 41  1  0  0  0  0
 33 32  1  0  0  0  0
 34 36  2  0  0  0  0
 34 35  1  0  0  0  0
M  END
$$$$
