SQT.pdb
 OpenBabel07022419083D

 44 43  0  0  1  0  0  0  0  0999 V2000
    4.0500   -3.6220   -1.1610 O   0  0  0  0  0  0  0  0  0  0  0  0
    3.3870   -4.5730   -0.4080 C   0  0  0  0  0  0  0  0  0  0  0  0
    1.9580   -4.1860   -0.1190 C   0  0  2  0  0  0  0  0  0  0  0  0
    1.1820   -4.0080   -1.3060 N   0  0  0  0  0  0  0  0  0  0  0  0
    1.8490   -2.9830    0.7440 C   0  0  0  0  0  0  0  0  0  0  0  0
    2.4560   -2.8960    1.8540 O   0  0  0  0  0  0  0  0  0  0  0  0
    4.9580   -3.4750   -0.8260 H   0  0  0  0  0  0  0  0  0  0  0  0
    3.9410   -4.7790    0.5280 H   0  0  0  0  0  0  0  0  0  0  0  0
    3.3440   -5.5480   -0.9510 H   0  0  0  0  0  0  0  0  0  0  0  0
    1.5120   -5.0540    0.4480 H   0  0  0  0  0  0  0  0  0  0  0  0
    1.6240   -4.5620   -2.0690 H   0  0  0  0  0  0  0  0  0  0  0  0
    0.1790   -4.2480   -1.2120 H   0  0  0  0  0  0  0  0  0  0  0  0
    1.3100    0.2950   -3.1220 N   0  0  0  0  0  0  0  0  0  0  0  0
    1.8640    0.0620   -1.8340 C   0  0  0  0  0  0  0  0  0  0  0  0
    2.6360   -0.9170   -1.6910 O   0  0  0  0  0  0  0  0  0  0  0  0
    1.5410    0.9430   -0.7250 C   0  0  0  0  0  0  0  0  0  0  0  0
    1.7250    0.4390    0.6490 C   0  0  0  0  0  0  0  0  0  0  0  0
    0.8970   -0.6940    1.1170 C   0  0  2  0  0  0  0  0  0  0  0  0
    1.0450   -1.8830    0.3340 N   0  0  0  0  0  0  0  0  0  0  0  0
   -0.5170   -0.2770    1.2620 C   0  0  0  0  0  0  0  0  0  0  0  0
   -1.4110   -0.9710    0.6940 O   0  0  0  0  0  0  0  0  0  0  0  0
    0.6440    1.0710   -3.3250 H   0  0  0  0  0  0  0  0  0  0  0  0
    1.5470   -0.3130   -3.9550 H   0  0  0  0  0  0  0  0  0  0  0  0
    2.2160    1.8520   -0.8180 H   0  0  0  0  0  0  0  0  0  0  0  0
    0.5170    1.4010   -0.8130 H   0  0  0  0  0  0  0  0  0  0  0  0
    1.4870    1.3110    1.3350 H   0  0  0  0  0  0  0  0  0  0  0  0
    2.7950    0.1930    0.8650 H   0  0  0  0  0  0  0  0  0  0  0  0
    1.2980   -0.9480    2.1480 H   0  0  0  0  0  0  0  0  0  0  0  0
    0.5350   -2.0160   -0.5930 H   0  0  0  0  0  0  0  0  0  0  0  0
   -1.8980    2.0930    4.3260 C   0  0  0  0  0  0  0  0  0  0  0  0
   -2.7620    1.1320    3.5410 C   0  0  1  0  0  0  0  0  0  0  0  0
   -4.0980    1.4360    3.6860 O   0  0  0  0  0  0  0  0  0  0  0  0
   -2.3290    1.1800    2.0850 C   0  0  2  0  0  0  0  0  0  0  0  0
   -0.9190    0.8510    2.0000 N   0  0  0  0  0  0  0  0  0  0  0  0
   -2.6140    2.5140    1.5470 C   0  0  0  0  0  0  0  0  0  0  0  0
   -1.7210    3.2570    1.0780 O   0  0  0  0  0  0  0  0  0  0  0  0
   -3.9170    2.9790    1.5550 O   0  0  0  0  0  0  0  0  0  0  0  0
   -2.4450    2.5440    5.1880 H   0  0  0  0  0  0  0  0  0  0  0  0
   -0.9870    1.5390    4.6570 H   0  0  0  0  0  0  0  0  0  0  0  0
   -1.5370    2.8790    3.6190 H   0  0  0  0  0  0  0  0  0  0  0  0
   -2.6000    0.1200    3.9670 H   0  0  0  0  0  0  0  0  0  0  0  0
   -4.6440    0.6680    3.9230 H   0  0  0  0  0  0  0  0  0  0  0  0
   -2.9230    0.4400    1.5140 H   0  0  0  0  0  0  0  0  0  0  0  0
   -0.1840    1.4280    2.4740 H   0  0  0  0  0  0  0  0  0  0  0  0
  1  7  1  0  0  0  0
  1  2  1  0  0  0  0
  2  3  1  0  0  0  0
  2  8  1  0  0  0  0
  3 10  1  1  0  0  0
  3  5  1  0  0  0  0
  4 12  1  0  0  0  0
  4  3  1  0  0  0  0
  5  6  2  0  0  0  0
  9  2  1  0  0  0  0
 11  4  1  0  0  0  0
 13 14  1  0  0  0  0
 14 15  2  0  0  0  0
 14 16  1  0  0  0  0
 16 17  1  0  0  0  0
 17 27  1  0  0  0  0
 17 18  1  0  0  0  0
 17 26  1  0  0  0  0
 18 20  1  0  0  0  0
 18 28  1  1  0  0  0
 19  5  1  0  0  0  0
 19 18  1  0  0  0  0
 20 34  1  0  0  0  0
 21 20  2  0  0  0  0
 22 13  1  0  0  0  0
 23 13  1  0  0  0  0
 24 16  1  0  0  0  0
 25 16  1  0  0  0  0
 29 19  1  0  0  0  0
 30 39  1  0  0  0  0
 30 38  1  0  0  0  0
 31 32  1  0  0  0  0
 31 41  1  1  0  0  0
 31 30  1  0  0  0  0
 32 42  1  0  0  0  0
 33 43  1  6  0  0  0
 33 31  1  0  0  0  0
 34 33  1  0  0  0  0
 34 44  1  0  0  0  0
 35 37  1  0  0  0  0
 35 33  1  0  0  0  0
 36 35  2  0  0  0  0
 40 30  1  0  0  0  0
M  END
$$$$
