SQV.pdb
 OpenBabel07022419083D

 46 45  0  0  1  0  0  0  0  0999 V2000
    1.6860   -3.9940    3.1140 O   0  0  0  0  0  0  0  0  0  0  0  0
    2.2440   -4.0030    1.8500 C   0  0  0  0  0  0  0  0  0  0  0  0
    3.3510   -2.9950    1.6920 C   0  0  2  0  0  0  0  0  0  0  0  0
    4.4090   -3.2680    2.6320 N   0  0  0  0  0  0  0  0  0  0  0  0
    2.7910   -1.6250    1.8670 C   0  0  0  0  0  0  0  0  0  0  0  0
    3.3000   -0.9140    2.7800 O   0  0  0  0  0  0  0  0  0  0  0  0
    0.7930   -3.5410    3.1230 H   0  0  0  0  0  0  0  0  0  0  0  0
    1.4470   -3.7520    1.1300 H   0  0  0  0  0  0  0  0  0  0  0  0
    2.6400   -5.0250    1.6310 H   0  0  0  0  0  0  0  0  0  0  0  0
    3.7410   -3.1210    0.6440 H   0  0  0  0  0  0  0  0  0  0  0  0
    4.0280   -3.5140    3.5730 H   0  0  0  0  0  0  0  0  0  0  0  0
    5.0470   -4.0100    2.2880 H   0  0  0  0  0  0  0  0  0  0  0  0
    1.4820   -0.5470   -3.1960 N   0  0  0  0  0  0  0  0  0  0  0  0
    1.9750   -0.1140   -1.9100 C   0  0  0  0  0  0  0  0  0  0  0  0
    2.9630   -0.7320   -1.4640 O   0  0  0  0  0  0  0  0  0  0  0  0
    1.3270    0.9900   -1.2100 C   0  0  0  0  0  0  0  0  0  0  0  0
    1.5970    1.1680    0.2180 C   0  0  0  0  0  0  0  0  0  0  0  0
    1.1970    0.1340    1.1900 C   0  0  2  0  0  0  0  0  0  0  0  0
    1.7390   -1.1740    1.0320 N   0  0  0  0  0  0  0  0  0  0  0  0
   -0.2720    0.0660    1.4380 C   0  0  0  0  0  0  0  0  0  0  0  0
   -0.7680   -1.1070    1.4380 O   0  0  0  0  0  0  0  0  0  0  0  0
    0.9230   -1.4110   -3.2250 H   0  0  0  0  0  0  0  0  0  0  0  0
    1.7280    0.0520   -4.0140 H   0  0  0  0  0  0  0  0  0  0  0  0
    1.6950    1.9310   -1.7270 H   0  0  0  0  0  0  0  0  0  0  0  0
    0.2460    0.9690   -1.4840 H   0  0  0  0  0  0  0  0  0  0  0  0
    1.1860    2.1450    0.5450 H   0  0  0  0  0  0  0  0  0  0  0  0
    2.7120    1.2980    0.3330 H   0  0  0  0  0  0  0  0  0  0  0  0
    1.6120    0.5190    2.1870 H   0  0  0  0  0  0  0  0  0  0  0  0
    1.3890   -1.8800    0.3170 H   0  0  0  0  0  0  0  0  0  0  0  0
   -3.1720    2.2080   -0.2000 C   0  0  0  0  0  0  0  0  0  0  0  0
   -3.3300    1.0110    0.7300 C   0  0  0  0  0  0  0  0  0  0  0  0
   -3.2560   -0.2780   -0.0110 C   0  0  0  0  0  0  0  0  0  0  0  0
   -2.4360    1.1460    1.9000 C   0  0  2  0  0  0  0  0  0  0  0  0
   -1.0420    1.2330    1.6570 N   0  0  0  0  0  0  0  0  0  0  0  0
   -2.8280    0.1520    2.9520 C   0  0  0  0  0  0  0  0  0  0  0  0
   -1.9370   -0.4460    3.5780 O   0  0  0  0  0  0  0  0  0  0  0  0
   -4.1490   -0.1240    3.2490 O   0  0  0  0  0  0  0  0  0  0  0  0
   -3.6240    3.0790    0.3140 H   0  0  0  0  0  0  0  0  0  0  0  0
   -2.1030    2.4140   -0.3530 H   0  0  0  0  0  0  0  0  0  0  0  0
   -3.7350    2.0500   -1.1480 H   0  0  0  0  0  0  0  0  0  0  0  0
   -4.3880    1.0970    1.1200 H   0  0  0  0  0  0  0  0  0  0  0  0
   -3.4140   -1.1030    0.7060 H   0  0  0  0  0  0  0  0  0  0  0  0
   -2.3820   -0.3960   -0.6660 H   0  0  0  0  0  0  0  0  0  0  0  0
   -4.1580   -0.3120   -0.6920 H   0  0  0  0  0  0  0  0  0  0  0  0
   -2.7190    2.1320    2.4080 H   0  0  0  0  0  0  0  0  0  0  0  0
   -0.5050    2.1540    1.6280 H   0  0  0  0  0  0  0  0  0  0  0  0
  1  7  1  0  0  0  0
  2  1  1  0  0  0  0
  3 10  1  6  0  0  0
  3  2  1  0  0  0  0
  3  5  1  0  0  0  0
  3  4  1  0  0  0  0
  4 11  1  0  0  0  0
  5  6  2  0  0  0  0
  8  2  1  0  0  0  0
  9  2  1  0  0  0  0
 12  4  1  0  0  0  0
 13 14  1  0  0  0  0
 14 15  2  0  0  0  0
 14 16  1  0  0  0  0
 16 17  1  0  0  0  0
 17 27  1  0  0  0  0
 17 26  1  0  0  0  0
 17 18  1  0  0  0  0
 18 20  1  0  0  0  0
 18 28  1  1  0  0  0
 19 18  1  0  0  0  0
 19  5  1  0  0  0  0
 20 34  1  0  0  0  0
 21 20  2  0  0  0  0
 22 13  1  0  0  0  0
 23 13  1  0  0  0  0
 24 16  1  0  0  0  0
 25 16  1  0  0  0  0
 29 19  1  0  0  0  0
 30 38  1  0  0  0  0
 30 31  1  0  0  0  0
 31 41  1  0  0  0  0
 31 33  1  0  0  0  0
 32 42  1  0  0  0  0
 32 31  1  0  0  0  0
 33 45  1  1  0  0  0
 33 35  1  0  0  0  0
 34 33  1  0  0  0  0
 35 37  2  0  0  0  0
 35 36  1  0  0  0  0
 39 30  1  0  0  0  0
 40 30  1  0  0  0  0
 43 32  1  0  0  0  0
 44 32  1  0  0  0  0
 46 34  1  0  0  0  0
M  END
$$$$
