SQW.pdb
 OpenBabel07022419083D

 54 55  0  0  1  0  0  0  0  0999 V2000
    1.4640   -1.7020   -0.6150 O   0  0  0  0  0  0  0  0  0  0  0  0
    2.5760   -2.1480    0.0650 C   0  0  0  0  0  0  0  0  0  0  0  0
    3.3840   -1.0200    0.6490 C   0  0  2  0  0  0  0  0  0  0  0  0
    4.5720   -1.5760    1.3210 N   0  0  0  0  0  0  0  0  0  0  0  0
    2.5610   -0.2850    1.6360 C   0  0  0  0  0  0  0  0  0  0  0  0
    2.9170   -0.2500    2.8620 O   0  0  0  0  0  0  0  0  0  0  0  0
    1.7650   -1.2420   -1.4560 H   0  0  0  0  0  0  0  0  0  0  0  0
    3.2510   -2.6740   -0.6530 H   0  0  0  0  0  0  0  0  0  0  0  0
    2.2900   -2.8710    0.8640 H   0  0  0  0  0  0  0  0  0  0  0  0
    3.6960   -0.3000   -0.1330 H   0  0  0  0  0  0  0  0  0  0  0  0
    5.4350   -1.4210    0.7660 H   0  0  0  0  0  0  0  0  0  0  0  0
    4.4040   -2.5750    1.4800 H   0  0  0  0  0  0  0  0  0  0  0  0
    4.1980    3.2290    3.1860 N   0  0  0  0  0  0  0  0  0  0  0  0
    2.8080    2.9870    3.0980 C   0  0  0  0  0  0  0  0  0  0  0  0
    2.2260    2.7060    4.1780 O   0  0  0  0  0  0  0  0  0  0  0  0
    2.0700    3.0560    1.8390 C   0  0  0  0  0  0  0  0  0  0  0  0
    0.6660    2.5820    1.8640 C   0  0  0  0  0  0  0  0  0  0  0  0
    0.6240    1.1060    2.2380 C   0  0  2  0  0  0  0  0  0  0  0  0
    1.3850    0.3820    1.2290 N   0  0  0  0  0  0  0  0  0  0  0  0
   -0.7570    0.6030    2.2680 C   0  0  0  0  0  0  0  0  0  0  0  0
   -1.5360    1.1350    3.1310 O   0  0  0  0  0  0  0  0  0  0  0  0
    4.5780    3.7370    3.9950 H   0  0  0  0  0  0  0  0  0  0  0  0
    4.8210    2.8960    2.4390 H   0  0  0  0  0  0  0  0  0  0  0  0
    2.0840    4.1370    1.5050 H   0  0  0  0  0  0  0  0  0  0  0  0
    2.6100    2.5330    1.0000 H   0  0  0  0  0  0  0  0  0  0  0  0
    0.1490    2.6650    0.8970 H   0  0  0  0  0  0  0  0  0  0  0  0
    0.0470    3.1020    2.6270 H   0  0  0  0  0  0  0  0  0  0  0  0
    1.1410    0.9770    3.2050 H   0  0  0  0  0  0  0  0  0  0  0  0
    1.0290    0.3910    0.2460 H   0  0  0  0  0  0  0  0  0  0  0  0
   -1.2520   -0.3860    1.4390 N   0  0  0  0  0  0  0  0  0  0  0  0
   -2.6520   -0.8220    1.5480 C   0  0  1  0  0  0  0  0  0  0  0  0
   -3.4030   -0.4530    0.3160 C   0  0  0  0  0  0  0  0  0  0  0  0
   -2.9040   -0.9960   -0.9470 C   0  0  0  0  0  0  0  0  0  0  0  0
   -2.0300   -0.3240   -1.8200 C   0  0  0  0  0  0  0  0  0  0  0  0
   -1.7550   -1.1220   -2.8370 N   0  0  0  0  0  0  0  0  0  0  0  0
   -2.3920   -2.2960   -2.7060 C   0  0  0  0  0  0  0  0  0  0  0  0
   -2.4000   -3.4110   -3.5350 C   0  0  0  0  0  0  0  0  0  0  0  0
   -3.1600   -4.5000   -3.1720 C   0  0  0  0  0  0  0  0  0  0  0  0
   -3.8790   -4.4310   -2.0020 C   0  0  0  0  0  0  0  0  0  0  0  0
   -3.8660   -3.3280   -1.1900 C   0  0  0  0  0  0  0  0  0  0  0  0
   -3.1110   -2.2260   -1.5320 C   0  0  0  0  0  0  0  0  0  0  0  0
   -2.6710   -2.2340    1.9020 C   0  0  0  0  0  0  0  0  0  0  0  0
   -3.7130   -2.8790    2.1840 O   0  0  0  0  0  0  0  0  0  0  0  0
   -1.4880   -2.9990    1.9540 O   0  0  0  0  0  0  0  0  0  0  0  0
   -0.6760   -0.8460    0.7270 H   0  0  0  0  0  0  0  0  0  0  0  0
   -3.1060   -0.2240    2.3840 H   0  0  0  0  0  0  0  0  0  0  0  0
   -4.4530   -0.8150    0.4430 H   0  0  0  0  0  0  0  0  0  0  0  0
   -3.4300    0.6530    0.2300 H   0  0  0  0  0  0  0  0  0  0  0  0
   -1.6770    0.6760   -1.6370 H   0  0  0  0  0  0  0  0  0  0  0  0
   -1.1230   -0.8990   -3.6610 H   0  0  0  0  0  0  0  0  0  0  0  0
   -1.8330   -3.4590   -4.4530 H   0  0  0  0  0  0  0  0  0  0  0  0
   -3.1910   -5.3850   -3.7910 H   0  0  0  0  0  0  0  0  0  0  0  0
   -4.4710   -5.3050   -1.7410 H   0  0  0  0  0  0  0  0  0  0  0  0
   -4.4470   -3.2920   -0.2930 H   0  0  0  0  0  0  0  0  0  0  0  0
  1  2  1  0  0  0  0
  2  3  1  0  0  0  0
  2  9  1  0  0  0  0
  3 10  1  6  0  0  0
  3  4  1  0  0  0  0
  3  5  1  0  0  0  0
  4 12  1  0  0  0  0
  5  6  2  0  0  0  0
  7  1  1  0  0  0  0
  8  2  1  0  0  0  0
 11  4  1  0  0  0  0
 13 22  1  0  0  0  0
 14 13  1  0  0  0  0
 14 15  2  0  0  0  0
 16 17  1  0  0  0  0
 16 14  1  0  0  0  0
 17 18  1  0  0  0  0
 17 27  1  0  0  0  0
 18 20  1  0  0  0  0
 18 28  1  1  0  0  0
 19  5  1  0  0  0  0
 19 18  1  0  0  0  0
 20 21  2  0  0  0  0
 23 13  1  0  0  0  0
 24 16  1  0  0  0  0
 25 16  1  0  0  0  0
 26 17  1  0  0  0  0
 29 19  1  0  0  0  0
 30 31  1  0  0  0  0
 30 20  1  0  0  0  0
 31 42  1  0  0  0  0
 31 46  1  1  0  0  0
 32 47  1  0  0  0  0
 32 31  1  0  0  0  0
 33 32  1  0  0  0  0
 34 49  1  0  0  0  0
 34 33  2  0  0  0  0
 35 36  1  0  0  0  0
 35 34  1  0  0  0  0
 36 41  1  0  0  0  0
 37 38  1  0  0  0  0
 37 36  2  0  0  0  0
 38 39  2  0  0  0  0
 39 53  1  0  0  0  0
 39 40  1  0  0  0  0
 40 54  1  0  0  0  0
 41 40  2  0  0  0  0
 41 33  1  0  0  0  0
 42 44  2  0  0  0  0
 42 43  1  0  0  0  0
 45 30  1  0  0  0  0
 48 32  1  0  0  0  0
 50 35  1  0  0  0  0
 51 37  1  0  0  0  0
 52 38  1  0  0  0  0
M  END
$$$$
