SRA.pdb
 OpenBabel07022419063D

 46 45  0  0  1  0  0  0  0  0999 V2000
   -0.9510   -2.8920    3.9640 O   0  0  0  0  0  0  0  0  0  0  0  0
   -0.7210   -3.4730    2.7180 C   0  0  0  0  0  0  0  0  0  0  0  0
    0.7820   -3.6410    2.5370 C   0  0  2  0  0  0  0  0  0  0  0  0
    1.2390   -4.5040    3.6090 N   0  0  0  0  0  0  0  0  0  0  0  0
    1.4400   -2.3210    2.5620 C   0  0  0  0  0  0  0  0  0  0  0  0
    2.2790   -1.9930    3.4620 O   0  0  0  0  0  0  0  0  0  0  0  0
   -0.6490   -1.9480    3.9490 H   0  0  0  0  0  0  0  0  0  0  0  0
   -1.1420   -2.8180    1.9410 H   0  0  0  0  0  0  0  0  0  0  0  0
   -1.1800   -4.4620    2.6330 H   0  0  0  0  0  0  0  0  0  0  0  0
    0.9240   -4.1910    1.5850 H   0  0  0  0  0  0  0  0  0  0  0  0
    1.8070   -3.9970    4.3250 H   0  0  0  0  0  0  0  0  0  0  0  0
    1.6970   -5.3780    3.2700 H   0  0  0  0  0  0  0  0  0  0  0  0
    0.0570   -1.2900   -4.4070 N   0  0  0  0  0  0  0  0  0  0  0  0
   -0.0960   -0.6940   -3.1060 C   0  0  0  0  0  0  0  0  0  0  0  0
   -0.8070   -1.2630   -2.1730 N   0  0  0  0  0  0  0  0  0  0  0  0
    0.5190    0.5400   -2.7790 N   0  0  0  0  0  0  0  0  0  0  0  0
    0.9260    0.8510   -1.4160 C   0  0  0  0  0  0  0  0  0  0  0  0
    2.0750   -0.0550   -1.0500 C   0  0  0  0  0  0  0  0  0  0  0  0
    2.6220    0.1440    0.3150 C   0  0  0  0  0  0  0  0  0  0  0  0
    1.7010   -0.0630    1.4600 C   0  0  2  0  0  0  0  0  0  0  0  0
    1.1290   -1.3840    1.5490 N   0  0  0  0  0  0  0  0  0  0  0  0
    0.7250    1.0220    1.6330 C   0  0  0  0  0  0  0  0  0  0  0  0
    1.1650    2.2000    1.5430 O   0  0  0  0  0  0  0  0  0  0  0  0
    0.4050   -2.2940   -4.4240 H   0  0  0  0  0  0  0  0  0  0  0  0
   -0.1460   -0.8120   -5.2890 H   0  0  0  0  0  0  0  0  0  0  0  0
   -1.2620   -2.1760   -2.4200 H   0  0  0  0  0  0  0  0  0  0  0  0
    0.6850    1.2390   -3.5300 H   0  0  0  0  0  0  0  0  0  0  0  0
    0.0880    0.5820   -0.7390 H   0  0  0  0  0  0  0  0  0  0  0  0
    1.1410    1.9080   -1.2680 H   0  0  0  0  0  0  0  0  0  0  0  0
    1.7990   -1.1120   -1.2640 H   0  0  0  0  0  0  0  0  0  0  0  0
    2.8920    0.2070   -1.7880 H   0  0  0  0  0  0  0  0  0  0  0  0
    2.9480    1.2290    0.3650 H   0  0  0  0  0  0  0  0  0  0  0  0
    3.6020   -0.4010    0.4520 H   0  0  0  0  0  0  0  0  0  0  0  0
    2.3730    0.0160    2.3870 H   0  0  0  0  0  0  0  0  0  0  0  0
    0.4420   -1.6590    0.8160 H   0  0  0  0  0  0  0  0  0  0  0  0
   -2.5630    2.0410    0.9490 C   0  0  0  0  0  0  0  0  0  0  0  0
   -1.5170    2.0210    2.0450 C   0  0  2  0  0  0  0  0  0  0  0  0
   -0.6570    0.8710    1.8910 N   0  0  0  0  0  0  0  0  0  0  0  0
   -2.2240    1.9260    3.3430 C   0  0  0  0  0  0  0  0  0  0  0  0
   -2.0400    0.9680    4.1020 O   0  0  0  0  0  0  0  0  0  0  0  0
   -3.1230    2.9220    3.7480 O   0  0  0  0  0  0  0  0  0  0  0  0
   -2.3250    1.3140    0.1530 H   0  0  0  0  0  0  0  0  0  0  0  0
   -3.5770    1.7860    1.3210 H   0  0  0  0  0  0  0  0  0  0  0  0
   -2.6310    3.0730    0.4910 H   0  0  0  0  0  0  0  0  0  0  0  0
   -0.9180    2.9730    1.9670 H   0  0  0  0  0  0  0  0  0  0  0  0
   -1.0410   -0.0720    1.9660 H   0  0  0  0  0  0  0  0  0  0  0  0
  2  1  1  0  0  0  0
  3 10  1  6  0  0  0
  3  5  1  0  0  0  0
  3  2  1  0  0  0  0
  3  4  1  0  0  0  0
  4 11  1  0  0  0  0
  5  6  2  0  0  0  0
  7  1  1  0  0  0  0
  8  2  1  0  0  0  0
  9  2  1  0  0  0  0
 12  4  1  0  0  0  0
 13 14  1  0  0  0  0
 14 16  1  0  0  0  0
 14 15  2  0  0  0  0
 16 17  1  0  0  0  0
 17 29  1  0  0  0  0
 17 18  1  0  0  0  0
 17 28  1  0  0  0  0
 18 19  1  0  0  0  0
 19 32  1  0  0  0  0
 19 33  1  0  0  0  0
 19 20  1  0  0  0  0
 20 21  1  0  0  0  0
 20 22  1  0  0  0  0
 20 34  1  1  0  0  0
 21  5  1  0  0  0  0
 22 38  1  0  0  0  0
 23 22  2  0  0  0  0
 24 13  1  0  0  0  0
 25 13  1  0  0  0  0
 26 15  1  0  0  0  0
 27 16  1  0  0  0  0
 30 18  1  0  0  0  0
 31 18  1  0  0  0  0
 35 21  1  0  0  0  0
 36 43  1  0  0  0  0
 36 37  1  0  0  0  0
 37 45  1  6  0  0  0
 37 39  1  0  0  0  0
 38 46  1  0  0  0  0
 38 37  1  0  0  0  0
 39 41  2  0  0  0  0
 39 40  1  0  0  0  0
 42 36  1  0  0  0  0
 44 36  1  0  0  0  0
M  END
$$$$
