SRE.pdb
 OpenBabel07022419063D

 52 51  0  0  1  0  0  0  0  0999 V2000
   -1.5550    0.2140    6.0830 O   0  0  0  0  0  0  0  0  0  0  0  0
   -1.5560    0.0850    4.7020 C   0  0  0  0  0  0  0  0  0  0  0  0
   -1.3060    1.4230    4.0090 C   0  0  2  0  0  0  0  0  0  0  0  0
   -2.3280    2.3870    4.3580 N   0  0  0  0  0  0  0  0  0  0  0  0
   -1.3790    1.1640    2.5590 C   0  0  0  0  0  0  0  0  0  0  0  0
   -2.2380    1.7520    1.8740 O   0  0  0  0  0  0  0  0  0  0  0  0
   -1.0260   -0.5680    6.4280 H   0  0  0  0  0  0  0  0  0  0  0  0
   -0.7970   -0.6140    4.3220 H   0  0  0  0  0  0  0  0  0  0  0  0
   -2.5440   -0.2750    4.3130 H   0  0  0  0  0  0  0  0  0  0  0  0
   -0.2950    1.8090    4.2740 H   0  0  0  0  0  0  0  0  0  0  0  0
   -2.9380    2.6000    3.5590 H   0  0  0  0  0  0  0  0  0  0  0  0
   -2.9030    2.0130    5.1660 H   0  0  0  0  0  0  0  0  0  0  0  0
    5.7950    0.9300   -0.9060 N   0  0  0  0  0  0  0  0  0  0  0  0
    4.6580    1.4530   -0.2340 C   0  0  0  0  0  0  0  0  0  0  0  0
    4.3160    2.6840   -0.4950 N   0  0  0  0  0  0  0  0  0  0  0  0
    3.9480    0.6490    0.6740 N   0  0  0  0  0  0  0  0  0  0  0  0
    2.5270    0.9000    0.9040 C   0  0  0  0  0  0  0  0  0  0  0  0
    1.7830    0.5470   -0.3330 C   0  0  0  0  0  0  0  0  0  0  0  0
    0.3360    0.7360   -0.3930 C   0  0  0  0  0  0  0  0  0  0  0  0
   -0.5940    0.0310    0.5040 C   0  0  2  0  0  0  0  0  0  0  0  0
   -0.4760    0.2410    1.9110 N   0  0  0  0  0  0  0  0  0  0  0  0
   -0.7540   -1.4170    0.1820 C   0  0  0  0  0  0  0  0  0  0  0  0
   -0.7610   -2.2220    1.1470 O   0  0  0  0  0  0  0  0  0  0  0  0
    5.8530   -0.0710   -1.1920 H   0  0  0  0  0  0  0  0  0  0  0  0
    6.6020    1.5550   -1.1280 H   0  0  0  0  0  0  0  0  0  0  0  0
    4.8470    3.2690   -1.1670 H   0  0  0  0  0  0  0  0  0  0  0  0
    4.4020   -0.1120    1.1800 H   0  0  0  0  0  0  0  0  0  0  0  0
    2.4740    2.0020    1.1310 H   0  0  0  0  0  0  0  0  0  0  0  0
    2.1810    0.3060    1.7450 H   0  0  0  0  0  0  0  0  0  0  0  0
    2.2300    1.2090   -1.1500 H   0  0  0  0  0  0  0  0  0  0  0  0
    2.1300   -0.4790   -0.6200 H   0  0  0  0  0  0  0  0  0  0  0  0
   -0.0710    0.5980   -1.4410 H   0  0  0  0  0  0  0  0  0  0  0  0
    0.1460    1.8540   -0.2130 H   0  0  0  0  0  0  0  0  0  0  0  0
   -1.6270    0.4560    0.2180 H   0  0  0  0  0  0  0  0  0  0  0  0
    0.1840   -0.2140    2.5710 H   0  0  0  0  0  0  0  0  0  0  0  0
   -0.8960   -1.9380   -1.1050 N   0  0  0  0  0  0  0  0  0  0  0  0
   -1.0500   -3.3660   -1.3440 C   0  0  1  0  0  0  0  0  0  0  0  0
   -2.3460   -3.5490   -2.0620 C   0  0  0  0  0  0  0  0  0  0  0  0
   -3.5480   -3.0750   -1.3270 C   0  0  0  0  0  0  0  0  0  0  0  0
   -3.8070   -3.7330   -0.0390 C   0  0  0  0  0  0  0  0  0  0  0  0
   -4.7520   -3.3430    0.6720 O   0  0  0  0  0  0  0  0  0  0  0  0
    0.1160   -3.8020   -2.1530 C   0  0  0  0  0  0  0  0  0  0  0  0
    0.2450   -5.0030   -2.5090 O   0  0  0  0  0  0  0  0  0  0  0  0
   -3.0190   -4.7710    0.3850 O   0  0  0  0  0  0  0  0  0  0  0  0
    1.1010   -2.9130   -2.5460 O   0  0  0  0  0  0  0  0  0  0  0  0
   -0.8940   -1.3130   -1.9110 H   0  0  0  0  0  0  0  0  0  0  0  0
   -1.0270   -3.8770   -0.3460 H   0  0  0  0  0  0  0  0  0  0  0  0
   -2.4210   -4.6100   -2.3560 H   0  0  0  0  0  0  0  0  0  0  0  0
   -2.2620   -2.9780   -3.0230 H   0  0  0  0  0  0  0  0  0  0  0  0
   -4.4660   -3.2620   -1.9570 H   0  0  0  0  0  0  0  0  0  0  0  0
   -3.5540   -1.9830   -1.1350 H   0  0  0  0  0  0  0  0  0  0  0  0
   -3.0480   -5.1960    1.2970 H   0  0  0  0  0  0  0  0  0  0  0  0
  1  7  1  0  0  0  0
  2  1  1  0  0  0  0
  3 10  1  1  0  0  0
  3  4  1  0  0  0  0
  3  2  1  0  0  0  0
  4 12  1  0  0  0  0
  5  3  1  0  0  0  0
  6  5  2  0  0  0  0
  8  2  1  0  0  0  0
  9  2  1  0  0  0  0
 11  4  1  0  0  0  0
 13 14  1  0  0  0  0
 14 16  1  0  0  0  0
 15 14  2  0  0  0  0
 16 17  1  0  0  0  0
 16 27  1  0  0  0  0
 17 28  1  0  0  0  0
 17 29  1  0  0  0  0
 18 17  1  0  0  0  0
 19 18  1  0  0  0  0
 19 33  1  0  0  0  0
 19 20  1  0  0  0  0
 20 34  1  6  0  0  0
 20 21  1  0  0  0  0
 21  5  1  0  0  0  0
 21 35  1  0  0  0  0
 22 20  1  0  0  0  0
 22 23  2  0  0  0  0
 24 13  1  0  0  0  0
 25 13  1  0  0  0  0
 26 15  1  0  0  0  0
 30 18  1  0  0  0  0
 31 18  1  0  0  0  0
 32 19  1  0  0  0  0
 36 22  1  0  0  0  0
 37 36  1  0  0  0  0
 37 47  1  1  0  0  0
 38 37  1  0  0  0  0
 38 39  1  0  0  0  0
 39 51  1  0  0  0  0
 39 40  1  0  0  0  0
 40 44  1  0  0  0  0
 40 41  2  0  0  0  0
 42 37  1  0  0  0  0
 43 42  1  0  0  0  0
 44 52  1  0  0  0  0
 45 42  2  0  0  0  0
 46 36  1  0  0  0  0
 48 38  1  0  0  0  0
 49 38  1  0  0  0  0
 50 39  1  0  0  0  0
M  END
$$$$
