SRG.pdb
 OpenBabel07022419063D

 43 42  0  0  1  0  0  0  0  0999 V2000
   -0.7950   -1.8700    4.1900 O   0  0  0  0  0  0  0  0  0  0  0  0
    0.3190   -2.0590    4.9630 C   0  0  0  0  0  0  0  0  0  0  0  0
    1.4130   -2.7280    4.2100 C   0  0  2  0  0  0  0  0  0  0  0  0
    2.5890   -2.9560    5.0490 N   0  0  0  0  0  0  0  0  0  0  0  0
    1.8090   -1.9940    2.9750 C   0  0  0  0  0  0  0  0  0  0  0  0
    3.0340   -1.6820    2.8290 O   0  0  0  0  0  0  0  0  0  0  0  0
   -1.4100   -1.1730    4.5180 H   0  0  0  0  0  0  0  0  0  0  0  0
    0.7180   -1.1160    5.4030 H   0  0  0  0  0  0  0  0  0  0  0  0
    0.0220   -2.7420    5.8040 H   0  0  0  0  0  0  0  0  0  0  0  0
    1.0550   -3.7230    3.8710 H   0  0  0  0  0  0  0  0  0  0  0  0
    2.7990   -3.9760    5.1190 H   0  0  0  0  0  0  0  0  0  0  0  0
    2.3830   -2.6130    6.0060 H   0  0  0  0  0  0  0  0  0  0  0  0
   -2.5110    0.6110   -3.4080 N   0  0  0  0  0  0  0  0  0  0  0  0
   -1.0940    0.7380   -3.3300 C   0  0  0  0  0  0  0  0  0  0  0  0
   -0.4640    1.7220   -3.8670 N   0  0  0  0  0  0  0  0  0  0  0  0
   -0.3770   -0.2620   -2.6400 N   0  0  0  0  0  0  0  0  0  0  0  0
    1.0720   -0.1500   -2.4770 C   0  0  0  0  0  0  0  0  0  0  0  0
    1.6430   -1.3060   -1.7770 C   0  0  0  0  0  0  0  0  0  0  0  0
    1.2220   -1.7230   -0.4420 C   0  0  0  0  0  0  0  0  0  0  0  0
    1.4490   -0.8760    0.7180 C   0  0  2  0  0  0  0  0  0  0  0  0
    0.9460   -1.6090    1.9360 N   0  0  0  0  0  0  0  0  0  0  0  0
    0.9660    0.4910    0.7780 C   0  0  0  0  0  0  0  0  0  0  0  0
    1.2900    1.4170    0.0260 O   0  0  0  0  0  0  0  0  0  0  0  0
   -3.1260    1.2960   -2.9240 H   0  0  0  0  0  0  0  0  0  0  0  0
   -2.9930   -0.1410   -3.9330 H   0  0  0  0  0  0  0  0  0  0  0  0
    0.5620    1.8500   -3.8320 H   0  0  0  0  0  0  0  0  0  0  0  0
   -0.8240   -1.1090   -2.2200 H   0  0  0  0  0  0  0  0  0  0  0  0
    1.4090   -0.3220   -3.6010 H   0  0  0  0  0  0  0  0  0  0  0  0
    1.4480    0.8430   -2.3180 H   0  0  0  0  0  0  0  0  0  0  0  0
    2.7940   -1.1440   -1.7840 H   0  0  0  0  0  0  0  0  0  0  0  0
    1.5710   -2.1870   -2.5170 H   0  0  0  0  0  0  0  0  0  0  0  0
    1.7830   -2.7110   -0.2340 H   0  0  0  0  0  0  0  0  0  0  0  0
    0.1260   -2.0800   -0.5030 H   0  0  0  0  0  0  0  0  0  0  0  0
    2.5670   -0.8270    0.9000 H   0  0  0  0  0  0  0  0  0  0  0  0
   -0.0600   -1.8390    2.0090 H   0  0  0  0  0  0  0  0  0  0  0  0
    0.0120    0.8610    1.8020 N   0  0  0  0  0  0  0  0  0  0  0  0
   -0.5030    2.1830    1.9370 C   0  0  0  0  0  0  0  0  0  0  0  0
   -1.2340    2.7180    0.7950 C   0  0  0  0  0  0  0  0  0  0  0  0
   -1.6980    3.8830    0.8690 O   0  0  0  0  0  0  0  0  0  0  0  0
   -1.4510    2.0150   -0.3770 O   0  0  0  0  0  0  0  0  0  0  0  0
   -0.2930    0.1260    2.4470 H   0  0  0  0  0  0  0  0  0  0  0  0
   -1.1700    2.2310    2.8400 H   0  0  0  0  0  0  0  0  0  0  0  0
    0.3750    2.8300    2.2300 H   0  0  0  0  0  0  0  0  0  0  0  0
  1  7  1  0  0  0  0
  1  2  1  0  0  0  0
  2  8  1  0  0  0  0
  2  9  1  0  0  0  0
  3 10  1  6  0  0  0
  3  2  1  0  0  0  0
  3  4  1  0  0  0  0
  4 11  1  0  0  0  0
  4 12  1  0  0  0  0
  5  3  1  0  0  0  0
  6  5  2  0  0  0  0
 13 14  1  0  0  0  0
 13 24  1  0  0  0  0
 14 16  1  0  0  0  0
 15 26  1  0  0  0  0
 15 14  2  0  0  0  0
 16 17  1  0  0  0  0
 16 27  1  0  0  0  0
 17 29  1  0  0  0  0
 17 18  1  0  0  0  0
 18 19  1  0  0  0  0
 19 32  1  0  0  0  0
 19 20  1  0  0  0  0
 20 22  1  0  0  0  0
 20 34  1  1  0  0  0
 20 21  1  0  0  0  0
 21 35  1  0  0  0  0
 21  5  1  0  0  0  0
 22 36  1  0  0  0  0
 23 22  2  0  0  0  0
 25 13  1  0  0  0  0
 28 17  1  0  0  0  0
 30 18  1  0  0  0  0
 31 18  1  0  0  0  0
 33 19  1  0  0  0  0
 36 37  1  0  0  0  0
 36 41  1  0  0  0  0
 37 43  1  0  0  0  0
 37 42  1  0  0  0  0
 38 39  1  0  0  0  0
 38 37  1  0  0  0  0
 40 38  2  0  0  0  0
M  END
$$$$
