SRH.pdb
 OpenBabel07022419063D

 53 53  0  0  1  0  0  0  0  0999 V2000
   -0.5940   -2.6620    5.4920 O   0  0  0  0  0  0  0  0  0  0  0  0
    0.6600   -2.7940    4.9230 C   0  0  0  0  0  0  0  0  0  0  0  0
    0.5020   -2.8190    3.4200 C   0  0  2  0  0  0  0  0  0  0  0  0
    1.7570   -2.9540    2.7270 N   0  0  0  0  0  0  0  0  0  0  0  0
   -0.2520   -1.6480    2.9210 C   0  0  0  0  0  0  0  0  0  0  0  0
   -1.3730   -1.3780    3.4310 O   0  0  0  0  0  0  0  0  0  0  0  0
   -0.5980   -3.0380    6.4120 H   0  0  0  0  0  0  0  0  0  0  0  0
    1.0540   -3.7970    5.2190 H   0  0  0  0  0  0  0  0  0  0  0  0
    1.3340   -1.9950    5.2670 H   0  0  0  0  0  0  0  0  0  0  0  0
   -0.0890   -3.7390    3.1790 H   0  0  0  0  0  0  0  0  0  0  0  0
    2.0590   -3.9540    2.7230 H   0  0  0  0  0  0  0  0  0  0  0  0
    2.5010   -2.3490    3.1750 H   0  0  0  0  0  0  0  0  0  0  0  0
    5.2040    1.1170   -1.2930 N   0  0  0  0  0  0  0  0  0  0  0  0
    3.8900    1.0000   -0.7620 C   0  0  0  0  0  0  0  0  0  0  0  0
    3.6050   -0.0380   -0.0440 N   0  0  0  0  0  0  0  0  0  0  0  0
    2.8630    1.9410   -0.9650 N   0  0  0  0  0  0  0  0  0  0  0  0
    1.5390    1.7370   -0.3940 C   0  0  0  0  0  0  0  0  0  0  0  0
    1.5370    1.8350    1.0890 C   0  0  0  0  0  0  0  0  0  0  0  0
    0.1620    1.6480    1.6460 C   0  0  0  0  0  0  0  0  0  0  0  0
   -0.5090    0.3560    1.3850 C   0  0  2  0  0  0  0  0  0  0  0  0
    0.2100   -0.7940    1.8880 N   0  0  0  0  0  0  0  0  0  0  0  0
   -1.0340    0.1500    0.0160 C   0  0  0  0  0  0  0  0  0  0  0  0
   -1.6270    1.0180   -0.6350 O   0  0  0  0  0  0  0  0  0  0  0  0
    5.7570    1.9780   -1.3350 H   0  0  0  0  0  0  0  0  0  0  0  0
    5.6300    0.2200   -1.6750 H   0  0  0  0  0  0  0  0  0  0  0  0
    4.3120   -0.7870    0.1550 H   0  0  0  0  0  0  0  0  0  0  0  0
    3.0530    2.7890   -1.5260 H   0  0  0  0  0  0  0  0  0  0  0  0
    0.8230    2.4800   -0.7990 H   0  0  0  0  0  0  0  0  0  0  0  0
    1.1690    0.7340   -0.7300 H   0  0  0  0  0  0  0  0  0  0  0  0
    2.1800    1.0680    1.5810 H   0  0  0  0  0  0  0  0  0  0  0  0
    1.9830    2.8120    1.3930 H   0  0  0  0  0  0  0  0  0  0  0  0
    0.2740    1.7930    2.7690 H   0  0  0  0  0  0  0  0  0  0  0  0
   -0.4590    2.5320    1.3510 H   0  0  0  0  0  0  0  0  0  0  0  0
   -1.4750    0.3750    2.0220 H   0  0  0  0  0  0  0  0  0  0  0  0
    1.1470   -1.0270    1.4670 H   0  0  0  0  0  0  0  0  0  0  0  0
   -0.8400   -1.1380   -0.5790 N   0  0  0  0  0  0  0  0  0  0  0  0
   -1.2880   -1.5250   -1.8630 C   0  0  1  0  0  0  0  0  0  0  0  0
   -2.6350   -0.9610   -2.2980 C   0  0  0  0  0  0  0  0  0  0  0  0
   -3.7320   -1.4010   -1.4140 C   0  0  0  0  0  0  0  0  0  0  0  0
   -4.2630   -0.8340   -0.2920 C   0  0  0  0  0  0  0  0  0  0  0  0
   -5.2830   -1.5910    0.2010 N   0  0  0  0  0  0  0  0  0  0  0  0
   -5.3980   -2.6450   -0.6150 C   0  0  0  0  0  0  0  0  0  0  0  0
   -4.4770   -2.5450   -1.5860 N   0  0  0  0  0  0  0  0  0  0  0  0
   -0.2970   -1.5010   -2.9440 C   0  0  0  0  0  0  0  0  0  0  0  0
    0.8780   -1.1520   -2.6970 O   0  0  0  0  0  0  0  0  0  0  0  0
   -0.6330   -1.8550   -4.2320 O   0  0  0  0  0  0  0  0  0  0  0  0
   -0.3060   -1.8680   -0.0010 H   0  0  0  0  0  0  0  0  0  0  0  0
   -1.5680   -2.6510   -1.7320 H   0  0  0  0  0  0  0  0  0  0  0  0
   -2.8320   -1.4410   -3.3090 H   0  0  0  0  0  0  0  0  0  0  0  0
   -2.6580    0.1100   -2.4460 H   0  0  0  0  0  0  0  0  0  0  0  0
   -3.9560    0.0960    0.1840 H   0  0  0  0  0  0  0  0  0  0  0  0
   -5.8500   -1.3700    1.0530 H   0  0  0  0  0  0  0  0  0  0  0  0
   -6.1320   -3.4260   -0.4730 H   0  0  0  0  0  0  0  0  0  0  0  0
  1  7  1  0  0  0  0
  2  8  1  0  0  0  0
  2  9  1  0  0  0  0
  2  1  1  0  0  0  0
  3 10  1  6  0  0  0
  3  2  1  0  0  0  0
  4 12  1  0  0  0  0
  4  3  1  0  0  0  0
  5  3  1  0  0  0  0
  5  6  2  0  0  0  0
 11  4  1  0  0  0  0
 13 14  1  0  0  0  0
 14 15  2  0  0  0  0
 15 26  1  0  0  0  0
 16 14  1  0  0  0  0
 16 17  1  0  0  0  0
 17 18  1  0  0  0  0
 18 31  1  0  0  0  0
 18 30  1  0  0  0  0
 18 19  1  0  0  0  0
 19 32  1  0  0  0  0
 20 19  1  0  0  0  0
 20 21  1  0  0  0  0
 20 34  1  1  0  0  0
 21  5  1  0  0  0  0
 22 20  1  0  0  0  0
 23 22  2  0  0  0  0
 24 13  1  0  0  0  0
 25 13  1  0  0  0  0
 27 16  1  0  0  0  0
 28 17  1  0  0  0  0
 29 17  1  0  0  0  0
 33 19  1  0  0  0  0
 35 21  1  0  0  0  0
 36 47  1  0  0  0  0
 36 22  1  0  0  0  0
 37 48  1  1  0  0  0
 37 36  1  0  0  0  0
 38 37  1  0  0  0  0
 38 39  1  0  0  0  0
 39 40  2  0  0  0  0
 40 51  1  0  0  0  0
 40 41  1  0  0  0  0
 41 52  1  0  0  0  0
 42 53  1  0  0  0  0
 42 41  1  0  0  0  0
 43 39  1  0  0  0  0
 43 42  2  0  0  0  0
 44 45  1  0  0  0  0
 44 37  1  0  0  0  0
 46 44  2  0  0  0  0
 49 38  1  0  0  0  0
 50 38  1  0  0  0  0
M  END
$$$$
