SRI.pdb
 OpenBabel07022419063D

 55 54  0  0  1  0  0  0  0  0999 V2000
    1.3410   -4.8200    4.8180 O   0  0  0  0  0  0  0  0  0  0  0  0
    1.3400   -3.4270    4.5980 C   0  0  0  0  0  0  0  0  0  0  0  0
    0.1230   -3.0440    3.7630 C   0  0  2  0  0  0  0  0  0  0  0  0
    0.2320   -3.7580    2.5190 N   0  0  0  0  0  0  0  0  0  0  0  0
    0.2790   -1.5740    3.4730 C   0  0  0  0  0  0  0  0  0  0  0  0
    0.2260   -0.7090    4.3860 O   0  0  0  0  0  0  0  0  0  0  0  0
    1.9920   -5.2840    4.2420 H   0  0  0  0  0  0  0  0  0  0  0  0
    1.2900   -2.8930    5.5580 H   0  0  0  0  0  0  0  0  0  0  0  0
    2.2770   -3.2140    4.0430 H   0  0  0  0  0  0  0  0  0  0  0  0
   -0.8130   -3.2790    4.2630 H   0  0  0  0  0  0  0  0  0  0  0  0
   -0.3870   -4.5690    2.4240 H   0  0  0  0  0  0  0  0  0  0  0  0
    1.1970   -3.8890    2.1800 H   0  0  0  0  0  0  0  0  0  0  0  0
    1.9970    0.5780   -3.2210 N   0  0  0  0  0  0  0  0  0  0  0  0
    2.4600    1.5190   -2.2460 C   0  0  0  0  0  0  0  0  0  0  0  0
    2.0840    2.7480   -2.3230 N   0  0  0  0  0  0  0  0  0  0  0  0
    3.3280    1.1240   -1.1930 N   0  0  0  0  0  0  0  0  0  0  0  0
    3.5260    1.9840   -0.0440 C   0  0  0  0  0  0  0  0  0  0  0  0
    2.1800    1.9880    0.7040 C   0  0  0  0  0  0  0  0  0  0  0  0
    1.9110    0.5750    1.0770 C   0  0  0  0  0  0  0  0  0  0  0  0
    0.6480    0.3230    1.8400 C   0  0  2  0  0  0  0  0  0  0  0  0
    0.4920   -1.1010    2.1560 N   0  0  0  0  0  0  0  0  0  0  0  0
   -0.4960    0.6720    0.9680 C   0  0  0  0  0  0  0  0  0  0  0  0
   -0.6760    1.8430    0.5230 O   0  0  0  0  0  0  0  0  0  0  0  0
    1.1360    0.7580   -3.7800 H   0  0  0  0  0  0  0  0  0  0  0  0
    2.5340   -0.3230   -3.3830 H   0  0  0  0  0  0  0  0  0  0  0  0
    1.4550    3.1010   -3.0620 H   0  0  0  0  0  0  0  0  0  0  0  0
    3.8130    0.1870   -1.2920 H   0  0  0  0  0  0  0  0  0  0  0  0
    3.8130    3.0130   -0.3310 H   0  0  0  0  0  0  0  0  0  0  0  0
    4.3220    1.5650    0.5710 H   0  0  0  0  0  0  0  0  0  0  0  0
    2.1890    2.7020    1.5340 H   0  0  0  0  0  0  0  0  0  0  0  0
    1.4640    2.3750   -0.0490 H   0  0  0  0  0  0  0  0  0  0  0  0
    1.9330   -0.0130    0.1110 H   0  0  0  0  0  0  0  0  0  0  0  0
    2.7650    0.1160    1.6580 H   0  0  0  0  0  0  0  0  0  0  0  0
    0.6120    0.9240    2.7880 H   0  0  0  0  0  0  0  0  0  0  0  0
    0.5420   -1.8120    1.3950 H   0  0  0  0  0  0  0  0  0  0  0  0
   -3.6670   -2.8690   -0.8450 C   0  0  0  0  0  0  0  0  0  0  0  0
   -2.4840   -2.2310   -1.4700 C   0  0  0  0  0  0  0  0  0  0  0  0
   -2.5190   -0.7400   -1.5630 C   0  0  2  0  0  0  0  0  0  0  0  0
   -1.2080   -0.3080   -2.2350 C   0  0  0  0  0  0  0  0  0  0  0  0
   -2.5780   -0.0300   -0.2500 C   0  0  2  0  0  0  0  0  0  0  0  0
   -1.4460   -0.3170    0.5970 N   0  0  0  0  0  0  0  0  0  0  0  0
   -3.8750   -0.1860    0.4500 C   0  0  0  0  0  0  0  0  0  0  0  0
   -4.0070   -0.5260    1.6410 O   0  0  0  0  0  0  0  0  0  0  0  0
   -5.0220    0.0680   -0.2860 O   0  0  0  0  0  0  0  0  0  0  0  0
   -3.6470   -3.9620   -1.1370 H   0  0  0  0  0  0  0  0  0  0  0  0
   -4.6290   -2.4940   -1.2720 H   0  0  0  0  0  0  0  0  0  0  0  0
   -3.6650   -2.8750    0.2610 H   0  0  0  0  0  0  0  0  0  0  0  0
   -1.5690   -2.5940   -0.9600 H   0  0  0  0  0  0  0  0  0  0  0  0
   -2.4050   -2.6160   -2.5210 H   0  0  0  0  0  0  0  0  0  0  0  0
   -3.3400   -0.3710   -2.2040 H   0  0  0  0  0  0  0  0  0  0  0  0
   -0.9790   -0.9140   -3.1110 H   0  0  0  0  0  0  0  0  0  0  0  0
   -1.3010    0.7620   -2.5360 H   0  0  0  0  0  0  0  0  0  0  0  0
   -0.3880   -0.4260   -1.4930 H   0  0  0  0  0  0  0  0  0  0  0  0
   -2.5130    1.0710   -0.5010 H   0  0  0  0  0  0  0  0  0  0  0  0
   -1.3480   -1.2950    0.9370 H   0  0  0  0  0  0  0  0  0  0  0  0
  2  1  1  0  0  0  0
  2  8  1  0  0  0  0
  3 10  1  1  0  0  0
  3  2  1  0  0  0  0
  4  3  1  0  0  0  0
  5  3  1  0  0  0  0
  5  6  2  0  0  0  0
  7  1  1  0  0  0  0
  9  2  1  0  0  0  0
 11  4  1  0  0  0  0
 12  4  1  0  0  0  0
 13 14  1  0  0  0  0
 14 16  1  0  0  0  0
 15 14  2  0  0  0  0
 16 17  1  0  0  0  0
 17 29  1  0  0  0  0
 17 18  1  0  0  0  0
 18 19  1  0  0  0  0
 18 30  1  0  0  0  0
 19 33  1  0  0  0  0
 19 20  1  0  0  0  0
 20 21  1  0  0  0  0
 20 34  1  1  0  0  0
 21  5  1  0  0  0  0
 22 20  1  0  0  0  0
 23 22  2  0  0  0  0
 24 13  1  0  0  0  0
 25 13  1  0  0  0  0
 26 15  1  0  0  0  0
 27 16  1  0  0  0  0
 28 17  1  0  0  0  0
 31 18  1  0  0  0  0
 32 19  1  0  0  0  0
 35 21  1  0  0  0  0
 36 47  1  0  0  0  0
 37 48  1  0  0  0  0
 37 36  1  0  0  0  0
 38 50  1  6  0  0  0
 38 37  1  0  0  0  0
 38 40  1  0  0  0  0
 39 38  1  0  0  0  0
 39 53  1  0  0  0  0
 40 54  1  6  0  0  0
 40 42  1  0  0  0  0
 40 41  1  0  0  0  0
 41 55  1  0  0  0  0
 41 22  1  0  0  0  0
 42 43  1  0  0  0  0
 44 42  2  0  0  0  0
 45 36  1  0  0  0  0
 46 36  1  0  0  0  0
 49 37  1  0  0  0  0
 51 39  1  0  0  0  0
 52 39  1  0  0  0  0
M  END
$$$$
