SRK.pdb
 OpenBabel07022419063D

 57 56  0  0  1  0  0  0  0  0999 V2000
    0.2630    1.4810    6.0140 O   0  0  0  0  0  0  0  0  0  0  0  0
   -1.1200    1.3020    5.9750 C   0  0  0  0  0  0  0  0  0  0  0  0
   -1.5160    0.2260    5.0040 C   0  0  2  0  0  0  0  0  0  0  0  0
   -0.9380   -1.0480    5.3420 N   0  0  0  0  0  0  0  0  0  0  0  0
   -1.1720    0.6290    3.6050 C   0  0  0  0  0  0  0  0  0  0  0  0
   -1.6130    1.6960    3.1050 O   0  0  0  0  0  0  0  0  0  0  0  0
    0.7010    0.8990    6.6780 H   0  0  0  0  0  0  0  0  0  0  0  0
   -1.5410    1.0770    6.9660 H   0  0  0  0  0  0  0  0  0  0  0  0
   -1.5380    2.2620    5.5930 H   0  0  0  0  0  0  0  0  0  0  0  0
   -2.6230    0.1370    5.0490 H   0  0  0  0  0  0  0  0  0  0  0  0
   -1.1770   -1.7860    4.6430 H   0  0  0  0  0  0  0  0  0  0  0  0
    0.0990   -0.9560    5.3730 H   0  0  0  0  0  0  0  0  0  0  0  0
    5.8380   -3.6070    0.7050 N   0  0  0  0  0  0  0  0  0  0  0  0
    4.4340   -3.4000    0.8590 C   0  0  0  0  0  0  0  0  0  0  0  0
    3.5530   -4.3260    0.6330 N   0  0  0  0  0  0  0  0  0  0  0  0
    3.9640   -2.1420    1.2700 N   0  0  0  0  0  0  0  0  0  0  0  0
    2.7130   -1.5660    0.7980 C   0  0  0  0  0  0  0  0  0  0  0  0
    2.5620   -0.2530    1.4600 C   0  0  0  0  0  0  0  0  0  0  0  0
    1.4030    0.5760    1.1710 C   0  0  0  0  0  0  0  0  0  0  0  0
    0.0280    0.1770    1.4070 C   0  0  2  0  0  0  0  0  0  0  0  0
   -0.3480   -0.1420    2.7680 N   0  0  0  0  0  0  0  0  0  0  0  0
   -0.5910   -0.7920    0.4850 C   0  0  0  0  0  0  0  0  0  0  0  0
   -1.3470   -1.6940    0.9270 O   0  0  0  0  0  0  0  0  0  0  0  0
    6.4180   -3.0290    0.0420 H   0  0  0  0  0  0  0  0  0  0  0  0
    6.3440   -4.3420    1.2480 H   0  0  0  0  0  0  0  0  0  0  0  0
    3.9350   -5.2390    0.3280 H   0  0  0  0  0  0  0  0  0  0  0  0
    4.5610   -1.5940    1.9590 H   0  0  0  0  0  0  0  0  0  0  0  0
    2.8330   -1.4820   -0.3220 H   0  0  0  0  0  0  0  0  0  0  0  0
    1.9390   -2.3140    1.0580 H   0  0  0  0  0  0  0  0  0  0  0  0
    3.5320    0.3000    1.2510 H   0  0  0  0  0  0  0  0  0  0  0  0
    2.6490   -0.4450    2.5750 H   0  0  0  0  0  0  0  0  0  0  0  0
    1.4900    0.8810    0.0750 H   0  0  0  0  0  0  0  0  0  0  0  0
    1.5640    1.5840    1.6740 H   0  0  0  0  0  0  0  0  0  0  0  0
   -0.5810    1.1370    1.2310 H   0  0  0  0  0  0  0  0  0  0  0  0
    0.0320   -1.0390    3.1740 H   0  0  0  0  0  0  0  0  0  0  0  0
   -0.4030   -0.8000   -0.9240 N   0  0  0  0  0  0  0  0  0  0  0  0
   -1.0300   -1.7630   -1.8100 C   0  0  1  0  0  0  0  0  0  0  0  0
   -1.9460   -1.0700   -2.8140 C   0  0  0  0  0  0  0  0  0  0  0  0
   -3.0190   -0.3220   -2.1200 C   0  0  0  0  0  0  0  0  0  0  0  0
   -3.9920    0.3640   -2.9880 C   0  0  0  0  0  0  0  0  0  0  0  0
   -3.3590    1.3920   -3.8680 C   0  0  0  0  0  0  0  0  0  0  0  0
   -2.4020    0.8620   -4.7960 N   0  0  0  0  0  0  0  0  0  0  0  0
   -0.0380   -2.6360   -2.4650 C   0  0  0  0  0  0  0  0  0  0  0  0
    1.1960   -2.5330   -2.2550 O   0  0  0  0  0  0  0  0  0  0  0  0
   -0.4470   -3.6240   -3.3580 O   0  0  0  0  0  0  0  0  0  0  0  0
    0.2130   -0.0840   -1.3460 H   0  0  0  0  0  0  0  0  0  0  0  0
   -1.6830   -2.3960   -1.1740 H   0  0  0  0  0  0  0  0  0  0  0  0
   -2.3390   -1.8100   -3.5340 H   0  0  0  0  0  0  0  0  0  0  0  0
   -1.2240   -0.4290   -3.4010 H   0  0  0  0  0  0  0  0  0  0  0  0
   -2.5050    0.3980   -1.4100 H   0  0  0  0  0  0  0  0  0  0  0  0
   -3.5430   -1.0750   -1.4580 H   0  0  0  0  0  0  0  0  0  0  0  0
   -4.6410   -0.3410   -3.5720 H   0  0  0  0  0  0  0  0  0  0  0  0
   -4.6820    0.9530   -2.2950 H   0  0  0  0  0  0  0  0  0  0  0  0
   -4.1240    1.9670   -4.4400 H   0  0  0  0  0  0  0  0  0  0  0  0
   -2.7810    2.0710   -3.1880 H   0  0  0  0  0  0  0  0  0  0  0  0
   -2.8740    0.6700   -5.6900 H   0  0  0  0  0  0  0  0  0  0  0  0
   -1.5380    1.4370   -4.8710 H   0  0  0  0  0  0  0  0  0  0  0  0
  1  7  1  0  0  0  0
  2  1  1  0  0  0  0
  2  8  1  0  0  0  0
  3 10  1  1  0  0  0
  3  4  1  0  0  0  0
  3  2  1  0  0  0  0
  4 12  1  0  0  0  0
  5  3  1  0  0  0  0
  6  5  2  0  0  0  0
  9  2  1  0  0  0  0
 11  4  1  0  0  0  0
 13 14  1  0  0  0  0
 13 25  1  0  0  0  0
 14 16  1  0  0  0  0
 15 14  2  0  0  0  0
 16 27  1  0  0  0  0
 17 29  1  0  0  0  0
 17 16  1  0  0  0  0
 17 18  1  0  0  0  0
 18 31  1  0  0  0  0
 19 20  1  0  0  0  0
 19 18  1  0  0  0  0
 19 33  1  0  0  0  0
 20 34  1  6  0  0  0
 20 21  1  0  0  0  0
 21 35  1  0  0  0  0
 21  5  1  0  0  0  0
 22 23  2  0  0  0  0
 22 20  1  0  0  0  0
 24 13  1  0  0  0  0
 26 15  1  0  0  0  0
 28 17  1  0  0  0  0
 30 18  1  0  0  0  0
 32 19  1  0  0  0  0
 36 22  1  0  0  0  0
 37 47  1  1  0  0  0
 37 36  1  0  0  0  0
 38 39  1  0  0  0  0
 38 37  1  0  0  0  0
 39 51  1  0  0  0  0
 39 50  1  0  0  0  0
 40 53  1  0  0  0  0
 40 39  1  0  0  0  0
 41 55  1  0  0  0  0
 41 40  1  0  0  0  0
 42 41  1  0  0  0  0
 43 44  1  0  0  0  0
 43 37  1  0  0  0  0
 45 43  2  0  0  0  0
 46 36  1  0  0  0  0
 48 38  1  0  0  0  0
 49 38  1  0  0  0  0
 52 40  1  0  0  0  0
 54 41  1  0  0  0  0
 56 42  1  0  0  0  0
 57 42  1  0  0  0  0
M  END
$$$$
