SRL.pdb
 OpenBabel07022419063D

 55 54  0  0  1  0  0  0  0  0999 V2000
    3.4670   -2.0880    4.3180 O   0  0  0  0  0  0  0  0  0  0  0  0
    2.5720   -1.3830    5.1090 C   0  0  0  0  0  0  0  0  0  0  0  0
    1.1390   -1.8750    4.8800 C   0  0  2  0  0  0  0  0  0  0  0  0
    1.0600   -3.2700    5.2140 N   0  0  0  0  0  0  0  0  0  0  0  0
    0.8430   -1.7160    3.4270 C   0  0  0  0  0  0  0  0  0  0  0  0
    0.6230   -2.7290    2.7580 O   0  0  0  0  0  0  0  0  0  0  0  0
    3.6680   -2.9870    4.6820 H   0  0  0  0  0  0  0  0  0  0  0  0
    2.8810   -1.5380    6.1580 H   0  0  0  0  0  0  0  0  0  0  0  0
    2.6560   -0.3030    4.8910 H   0  0  0  0  0  0  0  0  0  0  0  0
    0.4860   -1.2480    5.5070 H   0  0  0  0  0  0  0  0  0  0  0  0
    0.2040   -3.4140    5.8200 H   0  0  0  0  0  0  0  0  0  0  0  0
    0.9440   -3.8940    4.3710 H   0  0  0  0  0  0  0  0  0  0  0  0
    2.2350    2.7620   -2.8070 N   0  0  0  0  0  0  0  0  0  0  0  0
    3.0290    2.3040   -1.7240 C   0  0  0  0  0  0  0  0  0  0  0  0
    3.5160    3.1620   -0.8770 N   0  0  0  0  0  0  0  0  0  0  0  0
    3.3040    0.9070   -1.5540 N   0  0  0  0  0  0  0  0  0  0  0  0
    3.8350    0.5320   -0.2460 C   0  0  0  0  0  0  0  0  0  0  0  0
    2.7900    0.7070    0.8300 C   0  0  0  0  0  0  0  0  0  0  0  0
    1.6240   -0.2000    0.4780 C   0  0  0  0  0  0  0  0  0  0  0  0
    0.5310   -0.1220    1.4570 C   0  0  2  0  0  0  0  0  0  0  0  0
    0.8020   -0.4570    2.7910 N   0  0  0  0  0  0  0  0  0  0  0  0
   -0.6890   -0.8610    0.9910 C   0  0  0  0  0  0  0  0  0  0  0  0
   -1.3390   -1.5740    1.7910 O   0  0  0  0  0  0  0  0  0  0  0  0
    1.8530    3.7470   -2.8160 H   0  0  0  0  0  0  0  0  0  0  0  0
    1.9870    2.1850   -3.6260 H   0  0  0  0  0  0  0  0  0  0  0  0
    3.3170    4.1690   -1.0020 H   0  0  0  0  0  0  0  0  0  0  0  0
    3.1320    0.2350   -2.3100 H   0  0  0  0  0  0  0  0  0  0  0  0
    4.7320    1.1530   -0.0900 H   0  0  0  0  0  0  0  0  0  0  0  0
    4.1710   -0.5450   -0.2640 H   0  0  0  0  0  0  0  0  0  0  0  0
    3.1780    0.5690    1.8360 H   0  0  0  0  0  0  0  0  0  0  0  0
    2.4570    1.7790    0.7590 H   0  0  0  0  0  0  0  0  0  0  0  0
    1.2370    0.2290   -0.4920 H   0  0  0  0  0  0  0  0  0  0  0  0
    1.9550   -1.2180    0.2150 H   0  0  0  0  0  0  0  0  0  0  0  0
    0.1520    0.9630    1.4490 H   0  0  0  0  0  0  0  0  0  0  0  0
    1.0200    0.3520    3.4570 H   0  0  0  0  0  0  0  0  0  0  0  0
   -5.3990   -2.0070   -0.5790 C   0  0  0  0  0  0  0  0  0  0  0  0
   -4.7130   -1.1480   -1.6270 C   0  0  0  0  0  0  0  0  0  0  0  0
   -4.8400   -1.6940   -2.9890 C   0  0  0  0  0  0  0  0  0  0  0  0
   -3.4260   -0.5850   -1.1860 C   0  0  0  0  0  0  0  0  0  0  0  0
   -2.3710   -1.5540   -0.7480 C   0  0  2  0  0  0  0  0  0  0  0  0
   -1.1680   -0.8030   -0.3390 N   0  0  0  0  0  0  0  0  0  0  0  0
   -1.9530   -2.4400   -1.8190 C   0  0  0  0  0  0  0  0  0  0  0  0
   -2.6910   -3.3210   -2.2780 O   0  0  0  0  0  0  0  0  0  0  0  0
   -0.6870   -2.3220   -2.3730 O   0  0  0  0  0  0  0  0  0  0  0  0
   -4.9250   -3.0010   -0.4880 H   0  0  0  0  0  0  0  0  0  0  0  0
   -6.4660   -2.1760   -0.8270 H   0  0  0  0  0  0  0  0  0  0  0  0
   -5.3600   -1.5390    0.4210 H   0  0  0  0  0  0  0  0  0  0  0  0
   -5.4240   -0.2100   -1.6300 H   0  0  0  0  0  0  0  0  0  0  0  0
   -5.6950   -1.1480   -3.5240 H   0  0  0  0  0  0  0  0  0  0  0  0
   -3.9690   -1.4330   -3.6470 H   0  0  0  0  0  0  0  0  0  0  0  0
   -5.1490   -2.7590   -3.0700 H   0  0  0  0  0  0  0  0  0  0  0  0
   -3.0310    0.0350   -2.0510 H   0  0  0  0  0  0  0  0  0  0  0  0
   -3.6410    0.1680   -0.3770 H   0  0  0  0  0  0  0  0  0  0  0  0
   -2.7520   -2.1520    0.1060 H   0  0  0  0  0  0  0  0  0  0  0  0
   -0.6560   -0.2190   -1.0220 H   0  0  0  0  0  0  0  0  0  0  0  0
  1  7  1  0  0  0  0
  1  2  1  0  0  0  0
  2  8  1  0  0  0  0
  3  2  1  0  0  0  0
  3  4  1  0  0  0  0
  3 10  1  1  0  0  0
  4 11  1  0  0  0  0
  5  3  1  0  0  0  0
  6  5  2  0  0  0  0
  9  2  1  0  0  0  0
 12  4  1  0  0  0  0
 13 14  1  0  0  0  0
 14 16  1  0  0  0  0
 14 15  2  0  0  0  0
 16 17  1  0  0  0  0
 17 28  1  0  0  0  0
 17 18  1  0  0  0  0
 18 30  1  0  0  0  0
 19 18  1  0  0  0  0
 19 20  1  0  0  0  0
 20 34  1  1  0  0  0
 20 21  1  0  0  0  0
 21  5  1  0  0  0  0
 21 35  1  0  0  0  0
 22 20  1  0  0  0  0
 22 23  2  0  0  0  0
 24 13  1  0  0  0  0
 25 13  1  0  0  0  0
 26 15  1  0  0  0  0
 27 16  1  0  0  0  0
 29 17  1  0  0  0  0
 31 18  1  0  0  0  0
 32 19  1  0  0  0  0
 33 19  1  0  0  0  0
 36 45  1  0  0  0  0
 36 47  1  0  0  0  0
 37 39  1  0  0  0  0
 37 36  1  0  0  0  0
 38 37  1  0  0  0  0
 39 40  1  0  0  0  0
 39 53  1  0  0  0  0
 40 41  1  0  0  0  0
 40 54  1  1  0  0  0
 41 22  1  0  0  0  0
 42 40  1  0  0  0  0
 43 42  1  0  0  0  0
 44 42  2  0  0  0  0
 46 36  1  0  0  0  0
 48 37  1  0  0  0  0
 49 38  1  0  0  0  0
 50 38  1  0  0  0  0
 51 38  1  0  0  0  0
 52 39  1  0  0  0  0
 55 41  1  0  0  0  0
M  END
$$$$
