SRM.pdb
 OpenBabel07022419063D

 53 52  0  0  1  0  0  0  0  0999 V2000
   -0.2170   -3.1140    1.1150 O   0  0  0  0  0  0  0  0  0  0  0  0
   -0.5880   -3.4300    2.4020 C   0  0  0  0  0  0  0  0  0  0  0  0
    0.1410   -2.6260    3.4520 C   0  0  2  0  0  0  0  0  0  0  0  0
   -0.3190   -3.0340    4.7640 N   0  0  0  0  0  0  0  0  0  0  0  0
   -0.0070   -1.1820    3.3250 C   0  0  0  0  0  0  0  0  0  0  0  0
   -0.4660   -0.5150    4.2860 O   0  0  0  0  0  0  0  0  0  0  0  0
    0.6110   -3.5630    0.8210 H   0  0  0  0  0  0  0  0  0  0  0  0
   -0.2810   -4.5000    2.5670 H   0  0  0  0  0  0  0  0  0  0  0  0
   -1.6870   -3.4290    2.5480 H   0  0  0  0  0  0  0  0  0  0  0  0
    1.2160   -2.9130    3.3930 H   0  0  0  0  0  0  0  0  0  0  0  0
   -0.3300   -2.2510    5.4530 H   0  0  0  0  0  0  0  0  0  0  0  0
   -1.2540   -3.4980    4.7490 H   0  0  0  0  0  0  0  0  0  0  0  0
    2.4040   -1.4690   -1.3910 N   0  0  0  0  0  0  0  0  0  0  0  0
    2.8420   -0.2860   -0.7450 C   0  0  0  0  0  0  0  0  0  0  0  0
    2.9350    0.7830   -1.4600 N   0  0  0  0  0  0  0  0  0  0  0  0
    3.1590   -0.3160    0.6390 N   0  0  0  0  0  0  0  0  0  0  0  0
    3.5490    0.8970    1.3050 C   0  0  0  0  0  0  0  0  0  0  0  0
    2.5520    1.9420    1.4820 C   0  0  0  0  0  0  0  0  0  0  0  0
    1.3330    1.8560    2.2230 C   0  0  0  0  0  0  0  0  0  0  0  0
    0.1880    0.9900    2.0480 C   0  0  2  0  0  0  0  0  0  0  0  0
    0.3430   -0.4320    2.1500 N   0  0  0  0  0  0  0  0  0  0  0  0
   -0.7600    1.3560    0.9430 C   0  0  0  0  0  0  0  0  0  0  0  0
   -1.0380    2.5570    0.6890 O   0  0  0  0  0  0  0  0  0  0  0  0
    2.0750   -2.3050   -0.8480 H   0  0  0  0  0  0  0  0  0  0  0  0
    2.3810   -1.5830   -2.4320 H   0  0  0  0  0  0  0  0  0  0  0  0
    2.7180    0.8440   -2.4560 H   0  0  0  0  0  0  0  0  0  0  0  0
    3.0940   -1.2320    1.1270 H   0  0  0  0  0  0  0  0  0  0  0  0
    4.3670    1.3010    0.6200 H   0  0  0  0  0  0  0  0  0  0  0  0
    4.1470    0.6420    2.2150 H   0  0  0  0  0  0  0  0  0  0  0  0
    3.1270    2.8570    1.8760 H   0  0  0  0  0  0  0  0  0  0  0  0
    2.3250    2.3560    0.4320 H   0  0  0  0  0  0  0  0  0  0  0  0
    1.6380    1.7580    3.3360 H   0  0  0  0  0  0  0  0  0  0  0  0
    0.8950    2.9190    2.2690 H   0  0  0  0  0  0  0  0  0  0  0  0
   -0.4720    1.2400    2.9640 H   0  0  0  0  0  0  0  0  0  0  0  0
    0.6980   -0.9820    1.3530 H   0  0  0  0  0  0  0  0  0  0  0  0
   -2.4150   -3.9490   -2.3470 C   0  0  0  0  0  0  0  0  0  0  0  0
   -2.9100   -2.2200   -2.1700 S   0  0  0  0  0  0  0  0  0  0  0  0
   -1.4520   -1.1780   -2.4200 C   0  0  0  0  0  0  0  0  0  0  0  0
   -1.7610    0.2860   -2.2920 C   0  0  0  0  0  0  0  0  0  0  0  0
   -2.3060    0.6740   -0.9450 C   0  0  2  0  0  0  0  0  0  0  0  0
   -1.3890    0.3780    0.1290 N   0  0  0  0  0  0  0  0  0  0  0  0
   -3.6630    0.1630   -0.6960 C   0  0  0  0  0  0  0  0  0  0  0  0
   -3.9030   -0.4510    0.3590 O   0  0  0  0  0  0  0  0  0  0  0  0
   -4.6810    0.3430   -1.5980 O   0  0  0  0  0  0  0  0  0  0  0  0
   -1.3370   -4.0890   -2.0580 H   0  0  0  0  0  0  0  0  0  0  0  0
   -2.5080   -4.3220   -3.3870 H   0  0  0  0  0  0  0  0  0  0  0  0
   -2.9860   -4.6000   -1.6290 H   0  0  0  0  0  0  0  0  0  0  0  0
   -1.1170   -1.3460   -3.4650 H   0  0  0  0  0  0  0  0  0  0  0  0
   -0.6050   -1.4790   -1.7720 H   0  0  0  0  0  0  0  0  0  0  0  0
   -2.4470    0.5900   -3.1060 H   0  0  0  0  0  0  0  0  0  0  0  0
   -0.8110    0.8370   -2.4450 H   0  0  0  0  0  0  0  0  0  0  0  0
   -2.3940    1.7910   -0.9600 H   0  0  0  0  0  0  0  0  0  0  0  0
   -1.1230   -0.6220    0.3810 H   0  0  0  0  0  0  0  0  0  0  0  0
  1  2  1  0  0  0  0
  2  9  1  0  0  0  0
  2  8  1  0  0  0  0
  2  3  1  0  0  0  0
  3 10  1  6  0  0  0
  3  4  1  0  0  0  0
  4 11  1  0  0  0  0
  5  3  1  0  0  0  0
  5  6  2  0  0  0  0
  7  1  1  0  0  0  0
 12  4  1  0  0  0  0
 13 24  1  0  0  0  0
 13 14  1  0  0  0  0
 14 16  1  0  0  0  0
 15 14  2  0  0  0  0
 16 27  1  0  0  0  0
 16 17  1  0  0  0  0
 17 18  1  0  0  0  0
 17 29  1  0  0  0  0
 18 30  1  0  0  0  0
 18 19  1  0  0  0  0
 19 33  1  0  0  0  0
 19 32  1  0  0  0  0
 20 21  1  0  0  0  0
 20 19  1  0  0  0  0
 20 34  1  1  0  0  0
 21  5  1  0  0  0  0
 22 20  1  0  0  0  0
 23 22  2  0  0  0  0
 25 13  1  0  0  0  0
 26 15  1  0  0  0  0
 28 17  1  0  0  0  0
 31 18  1  0  0  0  0
 35 21  1  0  0  0  0
 36 37  1  0  0  0  0
 36 45  1  0  0  0  0
 36 47  1  0  0  0  0
 38 39  1  0  0  0  0
 38 37  1  0  0  0  0
 38 49  1  0  0  0  0
 39 40  1  0  0  0  0
 40 52  1  6  0  0  0
 40 42  1  0  0  0  0
 40 41  1  0  0  0  0
 41 53  1  0  0  0  0
 41 22  1  0  0  0  0
 42 43  1  0  0  0  0
 44 42  2  0  0  0  0
 46 36  1  0  0  0  0
 48 38  1  0  0  0  0
 50 39  1  0  0  0  0
 51 39  1  0  0  0  0
M  END
$$$$
