SRQ.pdb
 OpenBabel07022419063D

 53 52  0  0  1  0  0  0  0  0999 V2000
   -0.4250   -2.0990   -4.7650 O   0  0  0  0  0  0  0  0  0  0  0  0
   -0.7350   -3.1890   -3.9680 C   0  0  0  0  0  0  0  0  0  0  0  0
   -2.1150   -3.0360   -3.3610 C   0  0  2  0  0  0  0  0  0  0  0  0
   -3.0890   -2.9360   -4.4120 N   0  0  0  0  0  0  0  0  0  0  0  0
   -2.1830   -1.7860   -2.5500 C   0  0  0  0  0  0  0  0  0  0  0  0
   -2.9940   -0.8560   -2.8060 O   0  0  0  0  0  0  0  0  0  0  0  0
   -0.0330   -1.4060   -4.1800 H   0  0  0  0  0  0  0  0  0  0  0  0
   -0.6730   -4.1080   -4.5800 H   0  0  0  0  0  0  0  0  0  0  0  0
    0.0460   -3.2670   -3.1870 H   0  0  0  0  0  0  0  0  0  0  0  0
   -2.3040   -3.8730   -2.6640 H   0  0  0  0  0  0  0  0  0  0  0  0
   -3.0110   -3.7480   -5.0850 H   0  0  0  0  0  0  0  0  0  0  0  0
   -2.9240   -2.0240   -4.8950 H   0  0  0  0  0  0  0  0  0  0  0  0
   -5.1560   -1.6560    1.4180 N   0  0  0  0  0  0  0  0  0  0  0  0
   -4.6100   -0.3750    1.1410 C   0  0  0  0  0  0  0  0  0  0  0  0
   -4.6660    0.1850   -0.0420 N   0  0  0  0  0  0  0  0  0  0  0  0
   -3.9760    0.3450    2.1840 N   0  0  0  0  0  0  0  0  0  0  0  0
   -2.6990    1.0000    2.0270 C   0  0  0  0  0  0  0  0  0  0  0  0
   -1.5810    0.0580    1.8890 C   0  0  0  0  0  0  0  0  0  0  0  0
   -1.4920   -0.8610    0.7670 C   0  0  0  0  0  0  0  0  0  0  0  0
   -1.3740   -0.3610   -0.6230 C   0  0  2  0  0  0  0  0  0  0  0  0
   -1.3260   -1.5950   -1.4450 N   0  0  0  0  0  0  0  0  0  0  0  0
    0.0050    0.2250   -0.8270 C   0  0  0  0  0  0  0  0  0  0  0  0
    0.9030   -0.3600   -1.4770 O   0  0  0  0  0  0  0  0  0  0  0  0
   -4.9840   -2.4540    0.7950 H   0  0  0  0  0  0  0  0  0  0  0  0
   -5.7330   -1.7600    2.2680 H   0  0  0  0  0  0  0  0  0  0  0  0
   -5.1170   -0.2910   -0.8340 H   0  0  0  0  0  0  0  0  0  0  0  0
   -4.4700    0.3930    3.1130 H   0  0  0  0  0  0  0  0  0  0  0  0
   -2.7850    1.7590    1.2240 H   0  0  0  0  0  0  0  0  0  0  0  0
   -2.5220    1.6020    2.9560 H   0  0  0  0  0  0  0  0  0  0  0  0
   -0.6000    0.5920    2.0680 H   0  0  0  0  0  0  0  0  0  0  0  0
   -1.6320   -0.6000    2.8310 H   0  0  0  0  0  0  0  0  0  0  0  0
   -2.3520   -1.6010    0.7650 H   0  0  0  0  0  0  0  0  0  0  0  0
   -0.6010   -1.5420    0.9310 H   0  0  0  0  0  0  0  0  0  0  0  0
   -2.1410    0.2990   -1.0020 H   0  0  0  0  0  0  0  0  0  0  0  0
   -0.6310   -2.3060   -1.1660 H   0  0  0  0  0  0  0  0  0  0  0  0
    6.0730    2.4850   -1.0990 N   0  0  0  0  0  0  0  0  0  0  0  0
    4.9560    1.7330   -0.6590 C   0  0  0  0  0  0  0  0  0  0  0  0
    4.7450    0.6250   -1.2710 O   0  0  0  0  0  0  0  0  0  0  0  0
    4.0970    2.1810    0.4250 C   0  0  0  0  0  0  0  0  0  0  0  0
    2.7070    1.7110    0.4940 C   0  0  0  0  0  0  0  0  0  0  0  0
    1.7020    2.0720   -0.4890 C   0  0  2  0  0  0  0  0  0  0  0  0
    0.3950    1.4810   -0.3050 N   0  0  0  0  0  0  0  0  0  0  0  0
    2.0360    2.2130   -1.9080 C   0  0  0  0  0  0  0  0  0  0  0  0
    3.0690    2.8050   -2.2880 O   0  0  0  0  0  0  0  0  0  0  0  0
    1.2350    1.7050   -2.9140 O   0  0  0  0  0  0  0  0  0  0  0  0
    6.2870    2.5930   -2.1090 H   0  0  0  0  0  0  0  0  0  0  0  0
    6.6750    2.9270   -0.3700 H   0  0  0  0  0  0  0  0  0  0  0  0
    4.6230    1.8370    1.3760 H   0  0  0  0  0  0  0  0  0  0  0  0
    4.2130    3.2920    0.4870 H   0  0  0  0  0  0  0  0  0  0  0  0
    2.7570    0.5980    0.7300 H   0  0  0  0  0  0  0  0  0  0  0  0
    2.3570    2.0760    1.5260 H   0  0  0  0  0  0  0  0  0  0  0  0
    1.4590    3.2010   -0.2490 H   0  0  0  0  0  0  0  0  0  0  0  0
   -0.3010    2.0290    0.2490 H   0  0  0  0  0  0  0  0  0  0  0  0
  1  7  1  0  0  0  0
  1  2  1  0  0  0  0
  2  3  1  0  0  0  0
  2  9  1  0  0  0  0
  3 10  1  1  0  0  0
  3  5  1  0  0  0  0
  4  3  1  0  0  0  0
  5 21  1  0  0  0  0
  6  5  2  0  0  0  0
  8  2  1  0  0  0  0
 11  4  1  0  0  0  0
 12  4  1  0  0  0  0
 13 25  1  0  0  0  0
 14 13  1  0  0  0  0
 14 16  1  0  0  0  0
 15 14  2  0  0  0  0
 16 27  1  0  0  0  0
 17 16  1  0  0  0  0
 17 29  1  0  0  0  0
 18 17  1  0  0  0  0
 18 30  1  0  0  0  0
 18 31  1  0  0  0  0
 19 33  1  0  0  0  0
 19 18  1  0  0  0  0
 20 34  1  6  0  0  0
 20 19  1  0  0  0  0
 21 35  1  0  0  0  0
 21 20  1  0  0  0  0
 22 20  1  0  0  0  0
 22 42  1  0  0  0  0
 23 22  2  0  0  0  0
 24 13  1  0  0  0  0
 26 15  1  0  0  0  0
 28 17  1  0  0  0  0
 32 19  1  0  0  0  0
 36 37  1  0  0  0  0
 36 47  1  0  0  0  0
 37 39  1  0  0  0  0
 38 37  2  0  0  0  0
 39 49  1  0  0  0  0
 39 40  1  0  0  0  0
 39 48  1  0  0  0  0
 40 50  1  0  0  0  0
 40 51  1  0  0  0  0
 41 42  1  0  0  0  0
 41 52  1  1  0  0  0
 41 40  1  0  0  0  0
 42 53  1  0  0  0  0
 43 41  1  0  0  0  0
 44 43  1  0  0  0  0
 45 43  2  0  0  0  0
 46 36  1  0  0  0  0
M  END
$$$$
