SRR.pdb
 OpenBabel07022419063D

 59 58  0  0  1  0  0  0  0  0999 V2000
   -1.3430    1.5010    5.0200 O   0  0  0  0  0  0  0  0  0  0  0  0
   -2.3020    2.1450    4.2570 C   0  0  0  0  0  0  0  0  0  0  0  0
   -2.3690    1.5600    2.8430 C   0  0  2  0  0  0  0  0  0  0  0  0
   -2.6980    0.1900    2.9730 N   0  0  0  0  0  0  0  0  0  0  0  0
   -1.0840    1.7990    2.1500 C   0  0  0  0  0  0  0  0  0  0  0  0
   -0.7050    2.9780    1.9340 O   0  0  0  0  0  0  0  0  0  0  0  0
   -1.7390    0.6730    5.3910 H   0  0  0  0  0  0  0  0  0  0  0  0
   -3.3070    2.0740    4.7470 H   0  0  0  0  0  0  0  0  0  0  0  0
   -2.0460    3.2240    4.2400 H   0  0  0  0  0  0  0  0  0  0  0  0
   -3.1630    2.0910    2.2840 H   0  0  0  0  0  0  0  0  0  0  0  0
   -3.5090   -0.1550    2.4720 H   0  0  0  0  0  0  0  0  0  0  0  0
   -2.2870   -0.3590    3.7070 H   0  0  0  0  0  0  0  0  0  0  0  0
    3.8040   -2.5990    3.2050 N   0  0  0  0  0  0  0  0  0  0  0  0
    4.2260   -1.2620    3.2530 C   0  0  0  0  0  0  0  0  0  0  0  0
    3.9420   -0.5130    4.2860 N   0  0  0  0  0  0  0  0  0  0  0  0
    4.9670   -0.6520    2.2190 N   0  0  0  0  0  0  0  0  0  0  0  0
    4.7630    0.6900    1.7700 C   0  0  0  0  0  0  0  0  0  0  0  0
    3.4830    0.9490    1.0250 C   0  0  0  0  0  0  0  0  0  0  0  0
    2.2380    0.6540    1.8100 C   0  0  0  0  0  0  0  0  0  0  0  0
    1.0380    1.0240    1.0130 C   0  0  2  0  0  0  0  0  0  0  0  0
   -0.2200    0.7720    1.6960 N   0  0  0  0  0  0  0  0  0  0  0  0
    0.9920    0.5350   -0.3810 C   0  0  0  0  0  0  0  0  0  0  0  0
    1.8890    0.6540   -1.2470 O   0  0  0  0  0  0  0  0  0  0  0  0
    4.1950   -3.2670    2.5040 H   0  0  0  0  0  0  0  0  0  0  0  0
    3.0870   -2.9770    3.8640 H   0  0  0  0  0  0  0  0  0  0  0  0
    3.4000   -0.9360    5.0630 H   0  0  0  0  0  0  0  0  0  0  0  0
    5.7170   -1.2520    1.7590 H   0  0  0  0  0  0  0  0  0  0  0  0
    5.6000    0.9820    1.0750 H   0  0  0  0  0  0  0  0  0  0  0  0
    4.8760    1.4230    2.6250 H   0  0  0  0  0  0  0  0  0  0  0  0
    3.4700    1.9170    0.5160 H   0  0  0  0  0  0  0  0  0  0  0  0
    3.4840    0.1540    0.2030 H   0  0  0  0  0  0  0  0  0  0  0  0
    2.2980   -0.4180    2.0710 H   0  0  0  0  0  0  0  0  0  0  0  0
    2.3230    1.2210    2.7590 H   0  0  0  0  0  0  0  0  0  0  0  0
    1.0960    2.1470    0.9430 H   0  0  0  0  0  0  0  0  0  0  0  0
   -0.5370   -0.2060    1.8790 H   0  0  0  0  0  0  0  0  0  0  0  0
   -3.4990   -4.7830   -4.7070 N   0  0  0  0  0  0  0  0  0  0  0  0
   -3.2610   -4.2840   -3.3990 C   0  0  0  0  0  0  0  0  0  0  0  0
   -4.1390   -3.5230   -2.8360 N   0  0  0  0  0  0  0  0  0  0  0  0
   -2.0880   -4.5750   -2.6470 N   0  0  0  0  0  0  0  0  0  0  0  0
   -1.9110   -4.0200   -1.3400 C   0  0  0  0  0  0  0  0  0  0  0  0
   -1.7050   -2.5130   -1.3790 C   0  0  0  0  0  0  0  0  0  0  0  0
   -0.4840   -2.1670   -2.1720 C   0  0  0  0  0  0  0  0  0  0  0  0
   -0.3120   -0.6680   -2.2020 C   0  0  2  0  0  0  0  0  0  0  0  0
   -0.1730   -0.1620   -0.8810 N   0  0  0  0  0  0  0  0  0  0  0  0
   -1.4040   -0.0930   -2.9890 C   0  0  0  0  0  0  0  0  0  0  0  0
   -1.5720   -0.5100   -4.1650 O   0  0  0  0  0  0  0  0  0  0  0  0
   -2.2870    0.8840   -2.5550 O   0  0  0  0  0  0  0  0  0  0  0  0
   -4.1940   -4.2880   -5.3140 H   0  0  0  0  0  0  0  0  0  0  0  0
   -3.0100   -5.6260   -5.0930 H   0  0  0  0  0  0  0  0  0  0  0  0
   -5.0270   -3.2300   -3.2510 H   0  0  0  0  0  0  0  0  0  0  0  0
   -1.3810   -5.1970   -3.0860 H   0  0  0  0  0  0  0  0  0  0  0  0
   -2.7400   -4.2530   -0.6400 H   0  0  0  0  0  0  0  0  0  0  0  0
   -0.9890   -4.4470   -0.8790 H   0  0  0  0  0  0  0  0  0  0  0  0
   -2.5830   -2.0070   -1.8050 H   0  0  0  0  0  0  0  0  0  0  0  0
   -1.6150   -2.2160   -0.2930 H   0  0  0  0  0  0  0  0  0  0  0  0
   -0.6120   -2.5750   -3.1840 H   0  0  0  0  0  0  0  0  0  0  0  0
    0.3850   -2.6550   -1.6420 H   0  0  0  0  0  0  0  0  0  0  0  0
    0.6480   -0.4000   -2.7400 H   0  0  0  0  0  0  0  0  0  0  0  0
   -0.9630   -0.2980   -0.2200 H   0  0  0  0  0  0  0  0  0  0  0  0
  1  7  1  0  0  0  0
  2  8  1  0  0  0  0
  2  1  1  0  0  0  0
  3 10  1  6  0  0  0
  3  4  1  0  0  0  0
  3  2  1  0  0  0  0
  4 12  1  0  0  0  0
  5  3  1  0  0  0  0
  6  5  2  0  0  0  0
  9  2  1  0  0  0  0
 11  4  1  0  0  0  0
 13 14  1  0  0  0  0
 13 25  1  0  0  0  0
 14 15  2  0  0  0  0
 15 26  1  0  0  0  0
 16 14  1  0  0  0  0
 17 16  1  0  0  0  0
 17 29  1  0  0  0  0
 18 17  1  0  0  0  0
 18 19  1  0  0  0  0
 19 32  1  0  0  0  0
 19 33  1  0  0  0  0
 20 34  1  6  0  0  0
 20 21  1  0  0  0  0
 20 19  1  0  0  0  0
 21 35  1  0  0  0  0
 21  5  1  0  0  0  0
 22 20  1  0  0  0  0
 23 22  2  0  0  0  0
 24 13  1  0  0  0  0
 27 16  1  0  0  0  0
 28 17  1  0  0  0  0
 30 18  1  0  0  0  0
 31 18  1  0  0  0  0
 36 37  1  0  0  0  0
 37 38  2  0  0  0  0
 37 39  1  0  0  0  0
 39 40  1  0  0  0  0
 40 53  1  0  0  0  0
 40 52  1  0  0  0  0
 41 40  1  0  0  0  0
 41 55  1  0  0  0  0
 42 57  1  0  0  0  0
 42 41  1  0  0  0  0
 43 58  1  6  0  0  0
 43 42  1  0  0  0  0
 43 44  1  0  0  0  0
 44 22  1  0  0  0  0
 44 59  1  0  0  0  0
 45 47  1  0  0  0  0
 45 43  1  0  0  0  0
 46 45  2  0  0  0  0
 48 36  1  0  0  0  0
 49 36  1  0  0  0  0
 50 38  1  0  0  0  0
 51 39  1  0  0  0  0
 54 41  1  0  0  0  0
 56 42  1  0  0  0  0
M  END
$$$$
