SRS.pdb
 OpenBabel07022419073D

 47 46  0  0  1  0  0  0  0  0999 V2000
    3.4900   -5.1750    2.0710 O   0  0  0  0  0  0  0  0  0  0  0  0
    3.1340   -3.9350    2.6290 C   0  0  0  0  0  0  0  0  0  0  0  0
    1.6540   -3.7510    2.3690 C   0  0  2  0  0  0  0  0  0  0  0  0
    1.4650   -3.7710    0.9420 N   0  0  0  0  0  0  0  0  0  0  0  0
    1.1490   -2.4770    2.9370 C   0  0  0  0  0  0  0  0  0  0  0  0
    1.1870   -2.2630    4.1750 O   0  0  0  0  0  0  0  0  0  0  0  0
    2.9800   -5.9130    2.4830 H   0  0  0  0  0  0  0  0  0  0  0  0
    3.3490   -3.9550    3.7170 H   0  0  0  0  0  0  0  0  0  0  0  0
    3.7190   -3.1480    2.1070 H   0  0  0  0  0  0  0  0  0  0  0  0
    1.1150   -4.5760    2.8490 H   0  0  0  0  0  0  0  0  0  0  0  0
    0.5290   -4.1630    0.6850 H   0  0  0  0  0  0  0  0  0  0  0  0
    2.2250   -4.3680    0.5080 H   0  0  0  0  0  0  0  0  0  0  0  0
    0.9030    2.1910   -3.2940 N   0  0  0  0  0  0  0  0  0  0  0  0
    0.9810    2.4260   -1.9090 C   0  0  0  0  0  0  0  0  0  0  0  0
    0.0300    3.0310   -1.2830 N   0  0  0  0  0  0  0  0  0  0  0  0
    2.1330    1.9780   -1.2160 N   0  0  0  0  0  0  0  0  0  0  0  0
    2.1140    1.9640    0.2370 C   0  0  0  0  0  0  0  0  0  0  0  0
    1.1230    0.8910    0.7100 C   0  0  0  0  0  0  0  0  0  0  0  0
    1.1120    0.8830    2.2170 C   0  0  0  0  0  0  0  0  0  0  0  0
    0.1090   -0.2000    2.6540 C   0  0  2  0  0  0  0  0  0  0  0  0
    0.6010   -1.4410    2.1050 N   0  0  0  0  0  0  0  0  0  0  0  0
   -1.1870    0.2230    2.1090 C   0  0  0  0  0  0  0  0  0  0  0  0
   -1.7270    1.2780    2.5280 O   0  0  0  0  0  0  0  0  0  0  0  0
   -0.0190    2.2980   -3.7700 H   0  0  0  0  0  0  0  0  0  0  0  0
    1.7280    1.9130   -3.8670 H   0  0  0  0  0  0  0  0  0  0  0  0
   -0.8260    3.3770   -1.7310 H   0  0  0  0  0  0  0  0  0  0  0  0
    2.9890    1.6610   -1.7460 H   0  0  0  0  0  0  0  0  0  0  0  0
    1.8250    2.9640    0.6040 H   0  0  0  0  0  0  0  0  0  0  0  0
    3.1230    1.7230    0.6360 H   0  0  0  0  0  0  0  0  0  0  0  0
    1.4900   -0.0600    0.2730 H   0  0  0  0  0  0  0  0  0  0  0  0
    0.1410    1.1870    0.2880 H   0  0  0  0  0  0  0  0  0  0  0  0
    0.6880    1.8450    2.5680 H   0  0  0  0  0  0  0  0  0  0  0  0
    2.0980    0.7150    2.6440 H   0  0  0  0  0  0  0  0  0  0  0  0
    0.1630   -0.2610    3.7560 H   0  0  0  0  0  0  0  0  0  0  0  0
    0.5940   -1.6760    1.0880 H   0  0  0  0  0  0  0  0  0  0  0  0
   -2.9180   -0.9520   -1.6370 O   0  0  0  0  0  0  0  0  0  0  0  0
   -3.2390    0.1750   -0.8810 C   0  0  0  0  0  0  0  0  0  0  0  0
   -3.1690   -0.0680    0.5830 C   0  0  2  0  0  0  0  0  0  0  0  0
   -1.9200   -0.4710    1.1140 N   0  0  0  0  0  0  0  0  0  0  0  0
   -4.2160   -1.0600    0.9410 C   0  0  0  0  0  0  0  0  0  0  0  0
   -3.9730   -2.0880    1.6210 O   0  0  0  0  0  0  0  0  0  0  0  0
   -5.5490   -0.8970    0.5330 O   0  0  0  0  0  0  0  0  0  0  0  0
   -2.2220   -0.7930   -2.3070 H   0  0  0  0  0  0  0  0  0  0  0  0
   -2.6920    1.0790   -1.2280 H   0  0  0  0  0  0  0  0  0  0  0  0
   -4.3050    0.3840   -1.1360 H   0  0  0  0  0  0  0  0  0  0  0  0
   -3.4610    0.8860    1.1010 H   0  0  0  0  0  0  0  0  0  0  0  0
   -1.4950   -1.3540    0.7470 H   0  0  0  0  0  0  0  0  0  0  0  0
  1  7  1  0  0  0  0
  1  2  1  0  0  0  0
  2  8  1  0  0  0  0
  3  2  1  0  0  0  0
  3 10  1  1  0  0  0
  3  5  1  0  0  0  0
  4  3  1  0  0  0  0
  5  6  2  0  0  0  0
  9  2  1  0  0  0  0
 11  4  1  0  0  0  0
 12  4  1  0  0  0  0
 13 14  1  0  0  0  0
 14 15  2  0  0  0  0
 14 16  1  0  0  0  0
 16 17  1  0  0  0  0
 17 28  1  0  0  0  0
 17 29  1  0  0  0  0
 17 18  1  0  0  0  0
 18 19  1  0  0  0  0
 19 32  1  0  0  0  0
 19 33  1  0  0  0  0
 19 20  1  0  0  0  0
 20 34  1  1  0  0  0
 21 20  1  0  0  0  0
 21  5  1  0  0  0  0
 22 23  2  0  0  0  0
 22 20  1  0  0  0  0
 24 13  1  0  0  0  0
 25 13  1  0  0  0  0
 26 15  1  0  0  0  0
 27 16  1  0  0  0  0
 30 18  1  0  0  0  0
 31 18  1  0  0  0  0
 35 21  1  0  0  0  0
 36 37  1  0  0  0  0
 37 38  1  0  0  0  0
 38 40  1  0  0  0  0
 38 46  1  1  0  0  0
 38 39  1  0  0  0  0
 39 22  1  0  0  0  0
 40 41  1  0  0  0  0
 42 40  2  0  0  0  0
 43 36  1  0  0  0  0
 44 37  1  0  0  0  0
 45 37  1  0  0  0  0
 47 39  1  0  0  0  0
M  END
$$$$
