SRW.pdb
 OpenBabel07022419073D

 60 61  0  0  1  0  0  0  0  0999 V2000
    0.3030    3.6730    3.8020 O   0  0  0  0  0  0  0  0  0  0  0  0
    0.1720    2.7400    4.8020 C   0  0  0  0  0  0  0  0  0  0  0  0
   -0.9490    1.7470    4.5550 C   0  0  2  0  0  0  0  0  0  0  0  0
   -0.9560    0.8420    5.6890 N   0  0  0  0  0  0  0  0  0  0  0  0
   -0.6890    0.9410    3.3270 C   0  0  0  0  0  0  0  0  0  0  0  0
   -0.5210   -0.3030    3.4040 O   0  0  0  0  0  0  0  0  0  0  0  0
    1.1880    4.1050    3.9010 H   0  0  0  0  0  0  0  0  0  0  0  0
   -0.0530    3.2240    5.7760 H   0  0  0  0  0  0  0  0  0  0  0  0
    1.1130    2.1580    4.9630 H   0  0  0  0  0  0  0  0  0  0  0  0
   -1.9170    2.2750    4.5170 H   0  0  0  0  0  0  0  0  0  0  0  0
   -1.9140    0.4530    5.8730 H   0  0  0  0  0  0  0  0  0  0  0  0
   -0.2530    0.1000    5.5520 H   0  0  0  0  0  0  0  0  0  0  0  0
    4.3890   -0.7300    4.1670 N   0  0  0  0  0  0  0  0  0  0  0  0
    3.8210    0.1280    3.1790 C   0  0  0  0  0  0  0  0  0  0  0  0
    3.4920    1.3290    3.5020 N   0  0  0  0  0  0  0  0  0  0  0  0
    3.6580   -0.4160    1.8870 N   0  0  0  0  0  0  0  0  0  0  0  0
    3.4350    0.4790    0.7740 C   0  0  0  0  0  0  0  0  0  0  0  0
    2.0910    1.1710    0.8260 C   0  0  0  0  0  0  0  0  0  0  0  0
    1.0060    0.1300    0.8100 C   0  0  0  0  0  0  0  0  0  0  0  0
   -0.3700    0.7330    0.8600 C   0  0  2  0  0  0  0  0  0  0  0  0
   -0.6180    1.5300    2.0380 N   0  0  0  0  0  0  0  0  0  0  0  0
   -1.4330   -0.3360    0.7770 C   0  0  0  0  0  0  0  0  0  0  0  0
   -2.3710   -0.4310    1.6020 O   0  0  0  0  0  0  0  0  0  0  0  0
    4.0250   -0.6310    5.1540 H   0  0  0  0  0  0  0  0  0  0  0  0
    5.1210   -1.4100    3.9080 H   0  0  0  0  0  0  0  0  0  0  0  0
    3.6380    1.6670    4.4640 H   0  0  0  0  0  0  0  0  0  0  0  0
    3.6970   -1.4620    1.7200 H   0  0  0  0  0  0  0  0  0  0  0  0
    4.2520    1.2570    0.8050 H   0  0  0  0  0  0  0  0  0  0  0  0
    3.5390   -0.0780   -0.1850 H   0  0  0  0  0  0  0  0  0  0  0  0
    2.0240    1.8290    1.7140 H   0  0  0  0  0  0  0  0  0  0  0  0
    2.0120    1.7760   -0.1120 H   0  0  0  0  0  0  0  0  0  0  0  0
    1.1000   -0.5180   -0.0640 H   0  0  0  0  0  0  0  0  0  0  0  0
    1.1240   -0.4680    1.7500 H   0  0  0  0  0  0  0  0  0  0  0  0
   -0.5520    1.3920   -0.0470 H   0  0  0  0  0  0  0  0  0  0  0  0
   -0.7540    2.5790    1.9630 H   0  0  0  0  0  0  0  0  0  0  0  0
   -1.3950   -1.2890   -0.2700 N   0  0  0  0  0  0  0  0  0  0  0  0
   -2.3890   -2.3280   -0.3900 C   0  0  1  0  0  0  0  0  0  0  0  0
   -3.2310   -2.1630   -1.6170 C   0  0  0  0  0  0  0  0  0  0  0  0
   -2.5020   -2.1470   -2.8930 C   0  0  0  0  0  0  0  0  0  0  0  0
   -2.1310   -0.9650   -3.5520 C   0  0  0  0  0  0  0  0  0  0  0  0
   -1.4560   -1.2690   -4.6620 N   0  0  0  0  0  0  0  0  0  0  0  0
   -1.3660   -2.6130   -4.7660 C   0  0  0  0  0  0  0  0  0  0  0  0
   -0.7750   -3.4070   -5.7340 C   0  0  0  0  0  0  0  0  0  0  0  0
   -0.8570   -4.7710   -5.5690 C   0  0  0  0  0  0  0  0  0  0  0  0
   -1.4910   -5.3550   -4.4990 C   0  0  0  0  0  0  0  0  0  0  0  0
   -2.0720   -4.5510   -3.5470 C   0  0  0  0  0  0  0  0  0  0  0  0
   -2.0110   -3.1580   -3.6770 C   0  0  0  0  0  0  0  0  0  0  0  0
   -1.8850   -3.6910   -0.1860 C   0  0  0  0  0  0  0  0  0  0  0  0
   -2.6950   -4.6470   -0.1320 O   0  0  0  0  0  0  0  0  0  0  0  0
   -0.5380   -3.9900   -0.0470 O   0  0  0  0  0  0  0  0  0  0  0  0
   -0.6220   -1.2210   -0.9610 H   0  0  0  0  0  0  0  0  0  0  0  0
   -3.1140   -2.1700    0.4840 H   0  0  0  0  0  0  0  0  0  0  0  0
   -3.9040   -1.2610   -1.5090 H   0  0  0  0  0  0  0  0  0  0  0  0
   -3.9680   -3.0200   -1.6440 H   0  0  0  0  0  0  0  0  0  0  0  0
   -2.3590    0.0170   -3.2080 H   0  0  0  0  0  0  0  0  0  0  0  0
   -1.0390   -0.6010   -5.3770 H   0  0  0  0  0  0  0  0  0  0  0  0
   -0.2660   -2.9500   -6.5930 H   0  0  0  0  0  0  0  0  0  0  0  0
   -0.3820   -5.3900   -6.3460 H   0  0  0  0  0  0  0  0  0  0  0  0
   -1.5330   -6.4570   -4.4060 H   0  0  0  0  0  0  0  0  0  0  0  0
   -2.5770   -4.9820   -2.7190 H   0  0  0  0  0  0  0  0  0  0  0  0
  1  7  1  0  0  0  0
  1  2  1  0  0  0  0
  2  9  1  0  0  0  0
  2  8  1  0  0  0  0
  3 10  1  6  0  0  0
  3  2  1  0  0  0  0
  3  4  1  0  0  0  0
  4 11  1  0  0  0  0
  5  6  2  0  0  0  0
  5  3  1  0  0  0  0
 12  4  1  0  0  0  0
 13 24  1  0  0  0  0
 14 15  2  0  0  0  0
 14 13  1  0  0  0  0
 15 26  1  0  0  0  0
 16 14  1  0  0  0  0
 17 28  1  0  0  0  0
 17 18  1  0  0  0  0
 17 16  1  0  0  0  0
 18 30  1  0  0  0  0
 19 18  1  0  0  0  0
 19 20  1  0  0  0  0
 19 33  1  0  0  0  0
 20 34  1  6  0  0  0
 20 21  1  0  0  0  0
 21  5  1  0  0  0  0
 22 20  1  0  0  0  0
 22 23  2  0  0  0  0
 25 13  1  0  0  0  0
 27 16  1  0  0  0  0
 29 17  1  0  0  0  0
 31 18  1  0  0  0  0
 32 19  1  0  0  0  0
 35 21  1  0  0  0  0
 36 22  1  0  0  0  0
 37 36  1  0  0  0  0
 37 48  1  0  0  0  0
 37 52  1  1  0  0  0
 38 53  1  0  0  0  0
 38 37  1  0  0  0  0
 39 38  1  0  0  0  0
 40 55  1  0  0  0  0
 40 39  2  0  0  0  0
 41 40  1  0  0  0  0
 42 41  1  0  0  0  0
 42 47  1  0  0  0  0
 43 44  1  0  0  0  0
 43 42  2  0  0  0  0
 44 45  2  0  0  0  0
 45 59  1  0  0  0  0
 45 46  1  0  0  0  0
 46 60  1  0  0  0  0
 47 46  2  0  0  0  0
 47 39  1  0  0  0  0
 48 49  2  0  0  0  0
 48 50  1  0  0  0  0
 51 36  1  0  0  0  0
 54 38  1  0  0  0  0
 56 41  1  0  0  0  0
 57 43  1  0  0  0  0
 58 44  1  0  0  0  0
M  END
$$$$
