SRY.pdb
 OpenBabel07022419073D

 57 57  0  0  1  0  0  0  0  0999 V2000
    0.5620    0.2040    6.6880 O   0  0  0  0  0  0  0  0  0  0  0  0
    0.9990   -1.0900    6.4960 C   0  0  0  0  0  0  0  0  0  0  0  0
    1.5270   -1.3330    5.0940 C   0  0  2  0  0  0  0  0  0  0  0  0
    2.6360   -0.4900    4.7770 N   0  0  0  0  0  0  0  0  0  0  0  0
    0.3730   -1.1410    4.1410 C   0  0  0  0  0  0  0  0  0  0  0  0
   -0.6550   -1.8410    4.3610 O   0  0  0  0  0  0  0  0  0  0  0  0
   -0.3480    0.2590    7.1100 H   0  0  0  0  0  0  0  0  0  0  0  0
    1.8780   -1.2660    7.1840 H   0  0  0  0  0  0  0  0  0  0  0  0
    0.2420   -1.8570    6.7790 H   0  0  0  0  0  0  0  0  0  0  0  0
    1.8270   -2.4200    5.0720 H   0  0  0  0  0  0  0  0  0  0  0  0
    3.4030   -1.0410    4.3800 H   0  0  0  0  0  0  0  0  0  0  0  0
    2.9060    0.0340    5.6510 H   0  0  0  0  0  0  0  0  0  0  0  0
    3.3540    0.5390    0.4120 N   0  0  0  0  0  0  0  0  0  0  0  0
    2.4870    1.6230    0.7050 C   0  0  0  0  0  0  0  0  0  0  0  0
    2.8710    2.4980    1.5570 N   0  0  0  0  0  0  0  0  0  0  0  0
    1.2140    1.7510    0.0760 N   0  0  0  0  0  0  0  0  0  0  0  0
    0.2240    2.6820    0.4770 C   0  0  0  0  0  0  0  0  0  0  0  0
   -0.4250    2.5150    1.8040 C   0  0  0  0  0  0  0  0  0  0  0  0
   -1.1880    1.3240    2.1320 C   0  0  0  0  0  0  0  0  0  0  0  0
   -0.6100   -0.0280    2.1680 C   0  0  2  0  0  0  0  0  0  0  0  0
    0.4740   -0.2180    3.0720 N   0  0  0  0  0  0  0  0  0  0  0  0
   -0.3480   -0.6800    0.8630 C   0  0  0  0  0  0  0  0  0  0  0  0
    0.7460   -1.3010    0.6240 O   0  0  0  0  0  0  0  0  0  0  0  0
    3.4660    0.1160   -0.5250 H   0  0  0  0  0  0  0  0  0  0  0  0
    3.9310    0.1230    1.1840 H   0  0  0  0  0  0  0  0  0  0  0  0
    3.7900    2.4460    2.0410 H   0  0  0  0  0  0  0  0  0  0  0  0
    1.0850    1.0870   -0.7460 H   0  0  0  0  0  0  0  0  0  0  0  0
    0.7380    3.7020    0.4110 H   0  0  0  0  0  0  0  0  0  0  0  0
   -0.5140    2.7580   -0.3590 H   0  0  0  0  0  0  0  0  0  0  0  0
    0.2740    2.8600    2.6230 H   0  0  0  0  0  0  0  0  0  0  0  0
   -1.1820    3.3820    1.8340 H   0  0  0  0  0  0  0  0  0  0  0  0
   -1.6650    1.5090    3.1540 H   0  0  0  0  0  0  0  0  0  0  0  0
   -2.1270    1.3470    1.4790 H   0  0  0  0  0  0  0  0  0  0  0  0
   -1.4420   -0.7240    2.5900 H   0  0  0  0  0  0  0  0  0  0  0  0
    1.3980    0.2980    3.0150 H   0  0  0  0  0  0  0  0  0  0  0  0
   -1.0870   -4.9310   -6.7710 O   0  0  0  0  0  0  0  0  0  0  0  0
   -1.3170   -4.3190   -5.5260 C   0  0  0  0  0  0  0  0  0  0  0  0
   -2.2550   -3.3220   -5.3810 C   0  0  0  0  0  0  0  0  0  0  0  0
   -2.4770   -2.7260   -4.1600 C   0  0  0  0  0  0  0  0  0  0  0  0
   -1.7770   -3.0900   -3.0230 C   0  0  0  0  0  0  0  0  0  0  0  0
   -2.0020   -2.4480   -1.7160 C   0  0  0  0  0  0  0  0  0  0  0  0
   -1.0450   -1.3040   -1.4950 C   0  0  2  0  0  0  0  0  0  0  0  0
   -1.2780   -0.6680   -0.2090 N   0  0  0  0  0  0  0  0  0  0  0  0
   -1.1600   -0.2700   -2.5330 C   0  0  0  0  0  0  0  0  0  0  0  0
   -0.9570   -0.4760   -3.7740 O   0  0  0  0  0  0  0  0  0  0  0  0
   -0.8350   -4.0970   -3.1860 C   0  0  0  0  0  0  0  0  0  0  0  0
   -0.6070   -4.6990   -4.4050 C   0  0  0  0  0  0  0  0  0  0  0  0
   -1.5070    1.0360   -2.2220 O   0  0  0  0  0  0  0  0  0  0  0  0
   -0.6850   -5.8610   -6.8250 H   0  0  0  0  0  0  0  0  0  0  0  0
   -2.8080   -3.0270   -6.2590 H   0  0  0  0  0  0  0  0  0  0  0  0
   -3.2230   -1.9420   -4.0390 H   0  0  0  0  0  0  0  0  0  0  0  0
   -1.8390   -3.2550   -0.9460 H   0  0  0  0  0  0  0  0  0  0  0  0
   -3.0660   -2.1450   -1.6150 H   0  0  0  0  0  0  0  0  0  0  0  0
   -0.0280   -1.7480   -1.5510 H   0  0  0  0  0  0  0  0  0  0  0  0
   -2.1750   -0.1600   -0.0250 H   0  0  0  0  0  0  0  0  0  0  0  0
   -0.2590   -4.4200   -2.3240 H   0  0  0  0  0  0  0  0  0  0  0  0
    0.1230   -5.4820   -4.5420 H   0  0  0  0  0  0  0  0  0  0  0  0
  1  7  1  0  0  0  0
  2  1  1  0  0  0  0
  2  9  1  0  0  0  0
  2  8  1  0  0  0  0
  3 10  1  6  0  0  0
  3  2  1  0  0  0  0
  4  3  1  0  0  0  0
  4 12  1  0  0  0  0
  5  6  2  0  0  0  0
  5  3  1  0  0  0  0
 11  4  1  0  0  0  0
 13 14  1  0  0  0  0
 13 25  1  0  0  0  0
 14 15  2  0  0  0  0
 15 26  1  0  0  0  0
 16 17  1  0  0  0  0
 16 14  1  0  0  0  0
 17 18  1  0  0  0  0
 18 31  1  0  0  0  0
 18 19  1  0  0  0  0
 18 30  1  0  0  0  0
 19 20  1  0  0  0  0
 19 32  1  0  0  0  0
 20 34  1  1  0  0  0
 20 21  1  0  0  0  0
 21  5  1  0  0  0  0
 22 20  1  0  0  0  0
 23 22  2  0  0  0  0
 24 13  1  0  0  0  0
 27 16  1  0  0  0  0
 28 17  1  0  0  0  0
 29 17  1  0  0  0  0
 33 19  1  0  0  0  0
 35 21  1  0  0  0  0
 36 37  1  0  0  0  0
 37 38  2  0  0  0  0
 37 47  1  0  0  0  0
 38 39  1  0  0  0  0
 39 51  1  0  0  0  0
 39 40  2  0  0  0  0
 40 41  1  0  0  0  0
 41 53  1  0  0  0  0
 41 42  1  0  0  0  0
 41 52  1  0  0  0  0
 42 54  1  6  0  0  0
 42 43  1  0  0  0  0
 43 55  1  0  0  0  0
 43 22  1  0  0  0  0
 44 48  1  0  0  0  0
 44 42  1  0  0  0  0
 45 44  2  0  0  0  0
 46 40  1  0  0  0  0
 46 56  1  0  0  0  0
 47 46  2  0  0  0  0
 49 36  1  0  0  0  0
 50 38  1  0  0  0  0
 57 47  1  0  0  0  0
M  END
$$$$
