SSA.pdb
 OpenBabel07022419093D

 34 33  0  0  1  0  0  0  0  0999 V2000
    2.8470   -3.8970    1.8820 O   0  0  0  0  0  0  0  0  0  0  0  0
    2.0480   -3.2060    2.8210 C   0  0  0  0  0  0  0  0  0  0  0  0
    1.8340   -1.7750    2.3160 C   0  0  2  0  0  0  0  0  0  0  0  0
    1.0200   -1.0700    3.2730 N   0  0  0  0  0  0  0  0  0  0  0  0
    1.1630   -1.9050    0.9970 C   0  0  0  0  0  0  0  0  0  0  0  0
    1.7640   -2.4980    0.0720 O   0  0  0  0  0  0  0  0  0  0  0  0
    3.6700   -3.3930    1.6910 H   0  0  0  0  0  0  0  0  0  0  0  0
    1.0380   -3.6630    2.8400 H   0  0  0  0  0  0  0  0  0  0  0  0
    2.4620   -3.2340    3.8280 H   0  0  0  0  0  0  0  0  0  0  0  0
    2.7990   -1.2370    2.2470 H   0  0  0  0  0  0  0  0  0  0  0  0
    1.1920   -0.0340    3.1260 H   0  0  0  0  0  0  0  0  0  0  0  0
    1.3890   -1.2930    4.2320 H   0  0  0  0  0  0  0  0  0  0  0  0
   -1.7390   -3.5580    0.0610 O   0  0  0  0  0  0  0  0  0  0  0  0
   -2.0900   -2.2820   -0.4370 C   0  0  0  0  0  0  0  0  0  0  0  0
   -0.7920   -1.5060   -0.5420 C   0  0  2  0  0  0  0  0  0  0  0  0
   -0.1430   -1.3800    0.7360 N   0  0  0  0  0  0  0  0  0  0  0  0
   -1.0100   -0.1470   -1.0930 C   0  0  0  0  0  0  0  0  0  0  0  0
   -1.5630    0.0420   -2.2060 O   0  0  0  0  0  0  0  0  0  0  0  0
   -0.8860   -3.8490   -0.3850 H   0  0  0  0  0  0  0  0  0  0  0  0
   -2.8040   -1.8000    0.2610 H   0  0  0  0  0  0  0  0  0  0  0  0
   -2.5010   -2.4590   -1.4420 H   0  0  0  0  0  0  0  0  0  0  0  0
   -0.1700   -2.0480   -1.2850 H   0  0  0  0  0  0  0  0  0  0  0  0
   -0.5980   -0.8960    1.5390 H   0  0  0  0  0  0  0  0  0  0  0  0
   -1.6970    3.0800    0.1180 C   0  0  0  0  0  0  0  0  0  0  0  0
   -0.7730    2.3300   -0.8410 C   0  0  2  0  0  0  0  0  0  0  0  0
   -0.5910    0.9940   -0.3610 N   0  0  0  0  0  0  0  0  0  0  0  0
    0.4930    3.0830   -0.9610 C   0  0  0  0  0  0  0  0  0  0  0  0
    0.4500    4.2670   -1.3730 O   0  0  0  0  0  0  0  0  0  0  0  0
    1.7100    2.4850   -0.6220 O   0  0  0  0  0  0  0  0  0  0  0  0
   -1.4470    4.1460    0.0970 H   0  0  0  0  0  0  0  0  0  0  0  0
   -1.5110    2.6400    1.1220 H   0  0  0  0  0  0  0  0  0  0  0  0
   -2.7320    2.9510   -0.2260 H   0  0  0  0  0  0  0  0  0  0  0  0
   -1.2630    2.3150   -1.8130 H   0  0  0  0  0  0  0  0  0  0  0  0
   -0.1220    0.8420    0.5810 H   0  0  0  0  0  0  0  0  0  0  0  0
  1  2  1  0  0  0  0
  2  8  1  0  0  0  0
  2  9  1  0  0  0  0
  3 10  1  6  0  0  0
  3  2  1  0  0  0  0
  3  4  1  0  0  0  0
  4 12  1  0  0  0  0
  5  3  1  0  0  0  0
  6  5  2  0  0  0  0
  7  1  1  0  0  0  0
 11  4  1  0  0  0  0
 14 13  1  0  0  0  0
 14 20  1  0  0  0  0
 15 22  1  6  0  0  0
 15 14  1  0  0  0  0
 15 16  1  0  0  0  0
 16  5  1  0  0  0  0
 16 23  1  0  0  0  0
 17 15  1  0  0  0  0
 17 26  1  0  0  0  0
 18 17  2  0  0  0  0
 19 13  1  0  0  0  0
 21 14  1  0  0  0  0
 24 31  1  0  0  0  0
 25 33  1  6  0  0  0
 25 26  1  0  0  0  0
 25 24  1  0  0  0  0
 26 34  1  0  0  0  0
 27 25  1  0  0  0  0
 27 29  1  0  0  0  0
 28 27  2  0  0  0  0
 30 24  1  0  0  0  0
 32 24  1  0  0  0  0
M  END
$$$$
