SSC.pdb
 OpenBabel07022419093D

 35 34  0  0  1  0  0  0  0  0999 V2000
   -1.4780   -2.8800    5.0860 O   0  0  0  0  0  0  0  0  0  0  0  0
   -0.8600   -2.2550    4.0090 C   0  0  0  0  0  0  0  0  0  0  0  0
   -0.4740   -3.3200    3.0230 C   0  0  2  0  0  0  0  0  0  0  0  0
    0.4240   -4.2330    3.6590 N   0  0  0  0  0  0  0  0  0  0  0  0
    0.1320   -2.7830    1.7870 C   0  0  0  0  0  0  0  0  0  0  0  0
    1.2870   -3.1500    1.4450 O   0  0  0  0  0  0  0  0  0  0  0  0
   -2.0670   -2.2170    5.5540 H   0  0  0  0  0  0  0  0  0  0  0  0
   -1.4780   -1.5110    3.5040 H   0  0  0  0  0  0  0  0  0  0  0  0
    0.0660   -1.7430    4.3900 H   0  0  0  0  0  0  0  0  0  0  0  0
   -1.4110   -3.8950    2.7850 H   0  0  0  0  0  0  0  0  0  0  0  0
    0.0050   -4.6910    4.4800 H   0  0  0  0  0  0  0  0  0  0  0  0
    1.3440   -3.8060    3.8960 H   0  0  0  0  0  0  0  0  0  0  0  0
   -1.9500   -1.3640   -1.6180 O   0  0  0  0  0  0  0  0  0  0  0  0
   -0.6310   -1.7240   -1.5270 C   0  0  0  0  0  0  0  0  0  0  0  0
    0.0680   -1.3220   -0.2810 C   0  0  2  0  0  0  0  0  0  0  0  0
   -0.5000   -1.8610    0.9300 N   0  0  0  0  0  0  0  0  0  0  0  0
    0.3180    0.1170   -0.1290 C   0  0  0  0  0  0  0  0  0  0  0  0
    0.0320    0.6890    0.9630 O   0  0  0  0  0  0  0  0  0  0  0  0
   -2.2740   -1.5870   -2.5180 H   0  0  0  0  0  0  0  0  0  0  0  0
   -0.0910   -1.2680   -2.3830 H   0  0  0  0  0  0  0  0  0  0  0  0
   -0.4750   -2.8320   -1.6430 H   0  0  0  0  0  0  0  0  0  0  0  0
    1.0890   -1.8070   -0.3500 H   0  0  0  0  0  0  0  0  0  0  0  0
   -1.4600   -1.5340    1.1820 H   0  0  0  0  0  0  0  0  0  0  0  0
    0.8680    0.9530   -1.1270 N   0  0  0  0  0  0  0  0  0  0  0  0
    1.1120    2.3590   -0.9800 C   0  0  1  0  0  0  0  0  0  0  0  0
    2.5430    2.7460   -1.2270 C   0  0  0  0  0  0  0  0  0  0  0  0
    3.6920    1.9380   -0.1050 S   0  0  0  0  0  0  0  0  0  0  0  0
    0.2850    3.0550   -2.0180 C   0  0  0  0  0  0  0  0  0  0  0  0
    0.3090    4.3220   -2.1160 O   0  0  0  0  0  0  0  0  0  0  0  0
   -0.5270    2.3620   -2.9030 O   0  0  0  0  0  0  0  0  0  0  0  0
    1.1100    0.5070   -2.0300 H   0  0  0  0  0  0  0  0  0  0  0  0
    0.8270    2.7500    0.0190 H   0  0  0  0  0  0  0  0  0  0  0  0
    2.8470    2.5880   -2.2900 H   0  0  0  0  0  0  0  0  0  0  0  0
    2.6210    3.8420   -1.0580 H   0  0  0  0  0  0  0  0  0  0  0  0
    3.9200    2.6600    1.0630 H   0  0  0  0  0  0  0  0  0  0  0  0
  1  7  1  0  0  0  0
  2  9  1  0  0  0  0
  2  1  1  0  0  0  0
  3 10  1  6  0  0  0
  3  4  1  0  0  0  0
  3  2  1  0  0  0  0
  4 12  1  0  0  0  0
  4 11  1  0  0  0  0
  5  3  1  0  0  0  0
  6  5  2  0  0  0  0
  8  2  1  0  0  0  0
 13 14  1  0  0  0  0
 14 15  1  0  0  0  0
 15 22  1  6  0  0  0
 15 17  1  0  0  0  0
 15 16  1  0  0  0  0
 16 23  1  0  0  0  0
 16  5  1  0  0  0  0
 17 18  2  0  0  0  0
 19 13  1  0  0  0  0
 20 14  1  0  0  0  0
 21 14  1  0  0  0  0
 24 25  1  0  0  0  0
 24 17  1  0  0  0  0
 25 32  1  1  0  0  0
 26 34  1  0  0  0  0
 26 25  1  0  0  0  0
 26 27  1  0  0  0  0
 27 35  1  0  0  0  0
 28 25  1  0  0  0  0
 29 28  1  0  0  0  0
 30 28  2  0  0  0  0
 31 24  1  0  0  0  0
 33 26  1  0  0  0  0
M  END
$$$$
