SSD.pdb
 OpenBabel07022419093D

 37 36  0  0  1  0  0  0  0  0999 V2000
   -0.8380   -3.5320   -1.5670 O   0  0  0  0  0  0  0  0  0  0  0  0
   -1.0370   -4.4130   -0.5280 C   0  0  0  0  0  0  0  0  0  0  0  0
    0.1910   -4.5550    0.3640 C   0  0  2  0  0  0  0  0  0  0  0  0
   -0.1650   -5.5040    1.4010 N   0  0  0  0  0  0  0  0  0  0  0  0
    0.5300   -3.2660    1.0060 C   0  0  0  0  0  0  0  0  0  0  0  0
    0.4820   -3.1270    2.2680 O   0  0  0  0  0  0  0  0  0  0  0  0
   -1.6770   -2.9940   -1.6860 H   0  0  0  0  0  0  0  0  0  0  0  0
   -1.8550   -4.0580    0.1630 H   0  0  0  0  0  0  0  0  0  0  0  0
   -1.3180   -5.4330   -0.8500 H   0  0  0  0  0  0  0  0  0  0  0  0
    1.0500   -4.9790   -0.1880 H   0  0  0  0  0  0  0  0  0  0  0  0
    0.5900   -5.4710    2.1370 H   0  0  0  0  0  0  0  0  0  0  0  0
   -0.3180   -6.4650    1.0430 H   0  0  0  0  0  0  0  0  0  0  0  0
    2.9060   -0.2440   -0.6480 O   0  0  0  0  0  0  0  0  0  0  0  0
    2.6640   -0.4240    0.7040 C   0  0  0  0  0  0  0  0  0  0  0  0
    1.2480   -0.8780    0.9290 C   0  0  2  0  0  0  0  0  0  0  0  0
    0.9250   -2.1140    0.2890 N   0  0  0  0  0  0  0  0  0  0  0  0
    0.3650    0.2420    0.4350 C   0  0  0  0  0  0  0  0  0  0  0  0
   -0.5030   -0.0140   -0.4410 O   0  0  0  0  0  0  0  0  0  0  0  0
    3.3660   -0.9850   -1.0780 H   0  0  0  0  0  0  0  0  0  0  0  0
    2.7730    0.5690    1.1870 H   0  0  0  0  0  0  0  0  0  0  0  0
    3.4110   -1.0830    1.1920 H   0  0  0  0  0  0  0  0  0  0  0  0
    1.1260   -1.0280    2.0220 H   0  0  0  0  0  0  0  0  0  0  0  0
    0.9890   -2.1480   -0.7570 H   0  0  0  0  0  0  0  0  0  0  0  0
    0.4620    1.5600    0.9060 N   0  0  0  0  0  0  0  0  0  0  0  0
   -0.3760    2.6520    0.4480 C   0  0  1  0  0  0  0  0  0  0  0  0
   -0.9890    3.2820    1.6780 C   0  0  0  0  0  0  0  0  0  0  0  0
   -1.8040    2.3370    2.4490 C   0  0  0  0  0  0  0  0  0  0  0  0
   -1.9170    1.1550    2.0440 O   0  0  0  0  0  0  0  0  0  0  0  0
    0.4510    3.7480   -0.1770 C   0  0  0  0  0  0  0  0  0  0  0  0
   -0.0700    4.7790   -0.6360 O   0  0  0  0  0  0  0  0  0  0  0  0
   -2.4720    2.6630    3.6160 O   0  0  0  0  0  0  0  0  0  0  0  0
    1.8220    3.5320   -0.2040 O   0  0  0  0  0  0  0  0  0  0  0  0
    1.1890    1.7590    1.6350 H   0  0  0  0  0  0  0  0  0  0  0  0
   -1.1340    2.3020   -0.2910 H   0  0  0  0  0  0  0  0  0  0  0  0
   -1.5530    4.2170    1.4150 H   0  0  0  0  0  0  0  0  0  0  0  0
   -0.1300    3.5830    2.3250 H   0  0  0  0  0  0  0  0  0  0  0  0
   -3.3690    2.1970    3.7750 H   0  0  0  0  0  0  0  0  0  0  0  0
  1  2  1  0  0  0  0
  2  8  1  0  0  0  0
  2  3  1  0  0  0  0
  3 10  1  6  0  0  0
  3  5  1  0  0  0  0
  3  4  1  0  0  0  0
  4 11  1  0  0  0  0
  5  6  2  0  0  0  0
  7  1  1  0  0  0  0
  9  2  1  0  0  0  0
 12  4  1  0  0  0  0
 13 14  1  0  0  0  0
 14 15  1  0  0  0  0
 14 20  1  0  0  0  0
 14 21  1  0  0  0  0
 15 22  1  1  0  0  0
 16 15  1  0  0  0  0
 16  5  1  0  0  0  0
 17 24  1  0  0  0  0
 17 15  1  0  0  0  0
 18 17  2  0  0  0  0
 19 13  1  0  0  0  0
 23 16  1  0  0  0  0
 24 33  1  0  0  0  0
 25 34  1  6  0  0  0
 25 24  1  0  0  0  0
 25 26  1  0  0  0  0
 26 36  1  0  0  0  0
 26 27  1  0  0  0  0
 27 31  1  0  0  0  0
 28 27  2  0  0  0  0
 29 25  1  0  0  0  0
 30 29  2  0  0  0  0
 31 37  1  0  0  0  0
 32 29  1  0  0  0  0
 35 26  1  0  0  0  0
M  END
$$$$
