SSE.pdb
 OpenBabel07022419093D

 40 39  0  0  1  0  0  0  0  0999 V2000
   -3.7360   -3.1980   -2.7520 O   0  0  0  0  0  0  0  0  0  0  0  0
   -3.0340   -2.9060   -1.6080 C   0  0  0  0  0  0  0  0  0  0  0  0
   -1.7100   -2.2110   -1.9210 C   0  0  2  0  0  0  0  0  0  0  0  0
   -0.9140   -3.0860   -2.7440 N   0  0  0  0  0  0  0  0  0  0  0  0
   -0.9810   -1.9780   -0.6470 C   0  0  0  0  0  0  0  0  0  0  0  0
    0.1270   -2.5260   -0.4830 O   0  0  0  0  0  0  0  0  0  0  0  0
   -3.5800   -4.1310   -3.0690 H   0  0  0  0  0  0  0  0  0  0  0  0
   -2.8160   -3.8420   -1.0650 H   0  0  0  0  0  0  0  0  0  0  0  0
   -3.6670   -2.2150   -0.9900 H   0  0  0  0  0  0  0  0  0  0  0  0
   -1.9060   -1.2340   -2.4060 H   0  0  0  0  0  0  0  0  0  0  0  0
   -1.1720   -2.9230   -3.7570 H   0  0  0  0  0  0  0  0  0  0  0  0
   -1.1460   -4.0880   -2.5530 H   0  0  0  0  0  0  0  0  0  0  0  0
   -0.1200   -2.1890    3.5000 O   0  0  0  0  0  0  0  0  0  0  0  0
   -0.7920   -2.2260    2.3070 C   0  0  0  0  0  0  0  0  0  0  0  0
   -0.8350   -0.9260    1.5720 C   0  0  2  0  0  0  0  0  0  0  0  0
   -1.5700   -1.1340    0.3490 N   0  0  0  0  0  0  0  0  0  0  0  0
    0.4610   -0.3320    1.2590 C   0  0  0  0  0  0  0  0  0  0  0  0
    0.7530   -0.0640    0.0670 O   0  0  0  0  0  0  0  0  0  0  0  0
   -0.6320   -1.6180    4.1280 H   0  0  0  0  0  0  0  0  0  0  0  0
   -1.8630   -2.4930    2.5470 H   0  0  0  0  0  0  0  0  0  0  0  0
   -0.4210   -3.0770    1.7050 H   0  0  0  0  0  0  0  0  0  0  0  0
   -1.4230   -0.1710    2.1890 H   0  0  0  0  0  0  0  0  0  0  0  0
   -2.4810   -0.7030    0.1810 H   0  0  0  0  0  0  0  0  0  0  0  0
    1.4250   -0.0380    2.2760 N   0  0  0  0  0  0  0  0  0  0  0  0
    2.6750    0.5480    1.8670 C   0  0  1  0  0  0  0  0  0  0  0  0
    2.9570    1.7940    2.6730 C   0  0  0  0  0  0  0  0  0  0  0  0
    1.9020    2.8600    2.5300 C   0  0  0  0  0  0  0  0  0  0  0  0
    1.7220    3.3520    1.1620 C   0  0  0  0  0  0  0  0  0  0  0  0
    2.4200    2.9140    0.2150 O   0  0  0  0  0  0  0  0  0  0  0  0
    3.7610   -0.4380    2.2060 C   0  0  0  0  0  0  0  0  0  0  0  0
    3.5010   -1.5420    2.7460 O   0  0  0  0  0  0  0  0  0  0  0  0
    0.7850    4.3180    0.8290 O   0  0  0  0  0  0  0  0  0  0  0  0
    5.1070   -0.1500    1.9260 O   0  0  0  0  0  0  0  0  0  0  0  0
    1.1800   -0.2610    3.2630 H   0  0  0  0  0  0  0  0  0  0  0  0
    2.7560    0.7100    0.7970 H   0  0  0  0  0  0  0  0  0  0  0  0
    3.9680    2.2040    2.4560 H   0  0  0  0  0  0  0  0  0  0  0  0
    2.9870    1.5510    3.7760 H   0  0  0  0  0  0  0  0  0  0  0  0
    0.9070    2.5030    2.8920 H   0  0  0  0  0  0  0  0  0  0  0  0
    2.1960    3.6780    3.2280 H   0  0  0  0  0  0  0  0  0  0  0  0
    0.9810    5.0690    0.1720 H   0  0  0  0  0  0  0  0  0  0  0  0
  1  2  1  0  0  0  0
  2  8  1  0  0  0  0
  2  9  1  0  0  0  0
  3 10  1  6  0  0  0
  3  2  1  0  0  0  0
  3  5  1  0  0  0  0
  4 12  1  0  0  0  0
  4  3  1  0  0  0  0
  5  6  2  0  0  0  0
  5 16  1  0  0  0  0
  7  1  1  0  0  0  0
 11  4  1  0  0  0  0
 13 19  1  0  0  0  0
 14 20  1  0  0  0  0
 14 13  1  0  0  0  0
 15 22  1  1  0  0  0
 15 14  1  0  0  0  0
 16 15  1  0  0  0  0
 17 15  1  0  0  0  0
 17 24  1  0  0  0  0
 18 17  2  0  0  0  0
 21 14  1  0  0  0  0
 23 16  1  0  0  0  0
 24 34  1  0  0  0  0
 25 35  1  6  0  0  0
 25 30  1  0  0  0  0
 25 24  1  0  0  0  0
 25 26  1  0  0  0  0
 26 37  1  0  0  0  0
 27 26  1  0  0  0  0
 27 38  1  0  0  0  0
 27 39  1  0  0  0  0
 28 27  1  0  0  0  0
 29 28  2  0  0  0  0
 30 31  1  0  0  0  0
 32 28  1  0  0  0  0
 33 30  2  0  0  0  0
 36 26  1  0  0  0  0
 40 32  1  0  0  0  0
M  END
$$$$
