SSF.pdb
 OpenBabel07022419103D

 44 44  0  0  1  0  0  0  0  0999 V2000
    2.4990   -5.0880   -1.3870 O   0  0  0  0  0  0  0  0  0  0  0  0
    3.1230   -3.8630   -1.1570 C   0  0  0  0  0  0  0  0  0  0  0  0
    2.2550   -3.1220   -0.1330 C   0  0  2  0  0  0  0  0  0  0  0  0
    0.9460   -2.9460   -0.6870 N   0  0  0  0  0  0  0  0  0  0  0  0
    2.8610   -1.8160    0.2090 C   0  0  0  0  0  0  0  0  0  0  0  0
    4.0120   -1.7600    0.7100 O   0  0  0  0  0  0  0  0  0  0  0  0
    2.2120   -5.4980   -0.5320 H   0  0  0  0  0  0  0  0  0  0  0  0
    3.2080   -3.2800   -2.0770 H   0  0  0  0  0  0  0  0  0  0  0  0
    4.1250   -4.0380   -0.6820 H   0  0  0  0  0  0  0  0  0  0  0  0
    2.2560   -3.7440    0.7920 H   0  0  0  0  0  0  0  0  0  0  0  0
    0.9960   -3.0390   -1.7130 H   0  0  0  0  0  0  0  0  0  0  0  0
    0.2440   -3.5800   -0.2600 H   0  0  0  0  0  0  0  0  0  0  0  0
    1.4590    1.5710   -1.5960 O   0  0  0  0  0  0  0  0  0  0  0  0
    2.7220    1.4620   -1.0400 C   0  0  0  0  0  0  0  0  0  0  0  0
    2.6450    0.6780    0.2710 C   0  0  2  0  0  0  0  0  0  0  0  0
    2.1180   -0.6330   -0.0380 N   0  0  0  0  0  0  0  0  0  0  0  0
    1.7480    1.4400    1.1730 C   0  0  0  0  0  0  0  0  0  0  0  0
    2.1210    2.5970    1.5000 O   0  0  0  0  0  0  0  0  0  0  0  0
    1.2670    0.7370   -2.1130 H   0  0  0  0  0  0  0  0  0  0  0  0
    3.1550    2.4760   -0.8600 H   0  0  0  0  0  0  0  0  0  0  0  0
    3.3720    0.9280   -1.7620 H   0  0  0  0  0  0  0  0  0  0  0  0
    3.6570    0.5780    0.7010 H   0  0  0  0  0  0  0  0  0  0  0  0
    1.1700   -0.7430   -0.4550 H   0  0  0  0  0  0  0  0  0  0  0  0
    0.5250    0.9500    1.6730 N   0  0  0  0  0  0  0  0  0  0  0  0
   -0.3020    1.7290    2.5420 C   0  0  1  0  0  0  0  0  0  0  0  0
   -1.6550    2.0370    1.9420 C   0  0  0  0  0  0  0  0  0  0  0  0
   -2.4460    0.8470    1.6180 C   0  0  0  0  0  0  0  0  0  0  0  0
   -3.3220    0.2440    2.4900 C   0  0  0  0  0  0  0  0  0  0  0  0
   -4.0540   -0.8740    2.1650 C   0  0  0  0  0  0  0  0  0  0  0  0
   -3.9230   -1.4360    0.9140 C   0  0  0  0  0  0  0  0  0  0  0  0
   -3.0480   -0.8410    0.0290 C   0  0  0  0  0  0  0  0  0  0  0  0
   -2.3090    0.2910    0.3650 C   0  0  0  0  0  0  0  0  0  0  0  0
   -0.5240    1.0840    3.8570 C   0  0  0  0  0  0  0  0  0  0  0  0
   -1.2340    1.6780    4.7090 O   0  0  0  0  0  0  0  0  0  0  0  0
    0.0060   -0.1420    4.2090 O   0  0  0  0  0  0  0  0  0  0  0  0
    0.2550   -0.0330    1.3670 H   0  0  0  0  0  0  0  0  0  0  0  0
    0.1940    2.7070    2.7100 H   0  0  0  0  0  0  0  0  0  0  0  0
   -1.5210    2.6920    1.0370 H   0  0  0  0  0  0  0  0  0  0  0  0
   -2.1900    2.6830    2.6820 H   0  0  0  0  0  0  0  0  0  0  0  0
   -3.4590    0.6450    3.4770 H   0  0  0  0  0  0  0  0  0  0  0  0
   -4.7310   -1.3140    2.8840 H   0  0  0  0  0  0  0  0  0  0  0  0
   -4.4980   -2.3310    0.6270 H   0  0  0  0  0  0  0  0  0  0  0  0
   -2.9580   -1.2960   -0.9490 H   0  0  0  0  0  0  0  0  0  0  0  0
   -1.6510    0.6860   -0.3900 H   0  0  0  0  0  0  0  0  0  0  0  0
  1  2  1  0  0  0  0
  1  7  1  0  0  0  0
  2  9  1  0  0  0  0
  2  3  1  0  0  0  0
  3  5  1  0  0  0  0
  3 10  1  1  0  0  0
  4 12  1  0  0  0  0
  4  3  1  0  0  0  0
  5  6  2  0  0  0  0
  8  2  1  0  0  0  0
 11  4  1  0  0  0  0
 13 14  1  0  0  0  0
 14 20  1  0  0  0  0
 14 15  1  0  0  0  0
 15 22  1  1  0  0  0
 15 17  1  0  0  0  0
 16  5  1  0  0  0  0
 16 15  1  0  0  0  0
 17 18  2  0  0  0  0
 17 24  1  0  0  0  0
 19 13  1  0  0  0  0
 21 14  1  0  0  0  0
 23 16  1  0  0  0  0
 24 25  1  0  0  0  0
 25 37  1  1  0  0  0
 25 33  1  0  0  0  0
 26 25  1  0  0  0  0
 26 39  1  0  0  0  0
 27 26  1  0  0  0  0
 27 28  1  0  0  0  0
 28 40  1  0  0  0  0
 29 28  2  0  0  0  0
 29 41  1  0  0  0  0
 30 29  1  0  0  0  0
 31 32  1  0  0  0  0
 31 30  2  0  0  0  0
 32 27  2  0  0  0  0
 33 35  2  0  0  0  0
 33 34  1  0  0  0  0
 36 24  1  0  0  0  0
 38 26  1  0  0  0  0
 42 30  1  0  0  0  0
 43 31  1  0  0  0  0
 44 32  1  0  0  0  0
M  END
$$$$
