SSH.pdb
 OpenBabel07022419093D

 41 41  0  0  1  0  0  0  0  0999 V2000
    4.5270   -4.0730   -0.8420 O   0  0  0  0  0  0  0  0  0  0  0  0
    3.5760   -3.1420   -0.4940 C   0  0  0  0  0  0  0  0  0  0  0  0
    4.0880   -1.7130   -0.7170 C   0  0  2  0  0  0  0  0  0  0  0  0
    5.2620   -1.5790    0.1270 N   0  0  0  0  0  0  0  0  0  0  0  0
    3.0840   -0.7200   -0.2870 C   0  0  0  0  0  0  0  0  0  0  0  0
    3.3190    0.0750    0.6810 O   0  0  0  0  0  0  0  0  0  0  0  0
    4.3790   -4.9190   -0.3780 H   0  0  0  0  0  0  0  0  0  0  0  0
    3.3090   -3.1940    0.5850 H   0  0  0  0  0  0  0  0  0  0  0  0
    2.6510   -3.2640   -1.1010 H   0  0  0  0  0  0  0  0  0  0  0  0
    4.4070   -1.5770   -1.7680 H   0  0  0  0  0  0  0  0  0  0  0  0
    5.6990   -2.5250    0.3280 H   0  0  0  0  0  0  0  0  0  0  0  0
    4.9160   -1.2510    1.0780 H   0  0  0  0  0  0  0  0  0  0  0  0
   -0.0360    0.8640   -2.6250 O   0  0  0  0  0  0  0  0  0  0  0  0
    0.5280    1.4360   -1.4960 C   0  0  0  0  0  0  0  0  0  0  0  0
    0.8640    0.4190   -0.4360 C   0  0  2  0  0  0  0  0  0  0  0  0
    1.8100   -0.5750   -0.9020 N   0  0  0  0  0  0  0  0  0  0  0  0
   -0.3550   -0.2460    0.1000 C   0  0  0  0  0  0  0  0  0  0  0  0
   -0.4170   -1.5160    0.0860 O   0  0  0  0  0  0  0  0  0  0  0  0
   -0.1820    1.5990   -3.2740 H   0  0  0  0  0  0  0  0  0  0  0  0
   -0.1790    2.1480   -1.0650 H   0  0  0  0  0  0  0  0  0  0  0  0
    1.4460    1.9690   -1.7520 H   0  0  0  0  0  0  0  0  0  0  0  0
    1.3200    0.9690    0.4100 H   0  0  0  0  0  0  0  0  0  0  0  0
    1.6060   -1.2210   -1.6960 H   0  0  0  0  0  0  0  0  0  0  0  0
   -1.4240    0.5230    0.6140 N   0  0  0  0  0  0  0  0  0  0  0  0
   -2.6210   -0.0800    1.1410 C   0  0  1  0  0  0  0  0  0  0  0  0
   -2.7680    0.2430    2.6310 C   0  0  0  0  0  0  0  0  0  0  0  0
   -1.5780   -0.2940    3.3660 C   0  0  0  0  0  0  0  0  0  0  0  0
   -0.3830    0.3790    3.6170 C   0  0  0  0  0  0  0  0  0  0  0  0
    0.3820   -0.4990    4.3040 N   0  0  0  0  0  0  0  0  0  0  0  0
   -0.2690   -1.6460    4.4810 C   0  0  0  0  0  0  0  0  0  0  0  0
   -1.4890   -1.5170    3.8970 N   0  0  0  0  0  0  0  0  0  0  0  0
   -3.8390    0.3320    0.4400 C   0  0  0  0  0  0  0  0  0  0  0  0
   -3.7740    1.1350   -0.5190 O   0  0  0  0  0  0  0  0  0  0  0  0
   -5.0630   -0.1620    0.8300 O   0  0  0  0  0  0  0  0  0  0  0  0
   -1.3380    1.5540    0.6080 H   0  0  0  0  0  0  0  0  0  0  0  0
   -2.5220   -1.1900    1.0600 H   0  0  0  0  0  0  0  0  0  0  0  0
   -3.6550   -0.2510    3.0510 H   0  0  0  0  0  0  0  0  0  0  0  0
   -2.8540    1.3240    2.7960 H   0  0  0  0  0  0  0  0  0  0  0  0
   -0.1620    1.3850    3.3080 H   0  0  0  0  0  0  0  0  0  0  0  0
    1.3510   -0.2680    4.6330 H   0  0  0  0  0  0  0  0  0  0  0  0
    0.1140   -2.5240    5.0020 H   0  0  0  0  0  0  0  0  0  0  0  0
  1  2  1  0  0  0  0
  1  7  1  0  0  0  0
  2  8  1  0  0  0  0
  3 10  1  6  0  0  0
  3  2  1  0  0  0  0
  3  5  1  0  0  0  0
  3  4  1  0  0  0  0
  4 11  1  0  0  0  0
  4 12  1  0  0  0  0
  5  6  2  0  0  0  0
  9  2  1  0  0  0  0
 13 14  1  0  0  0  0
 14 20  1  0  0  0  0
 14 15  1  0  0  0  0
 15 17  1  0  0  0  0
 15 22  1  1  0  0  0
 16 15  1  0  0  0  0
 16  5  1  0  0  0  0
 17 24  1  0  0  0  0
 18 17  2  0  0  0  0
 19 13  1  0  0  0  0
 21 14  1  0  0  0  0
 23 16  1  0  0  0  0
 24 25  1  0  0  0  0
 25 36  1  6  0  0  0
 25 26  1  0  0  0  0
 26 38  1  0  0  0  0
 26 37  1  0  0  0  0
 26 27  1  0  0  0  0
 27 28  2  0  0  0  0
 27 31  1  0  0  0  0
 28 29  1  0  0  0  0
 29 30  1  0  0  0  0
 29 40  1  0  0  0  0
 30 41  1  0  0  0  0
 31 30  2  0  0  0  0
 32 34  1  0  0  0  0
 32 25  1  0  0  0  0
 33 32  2  0  0  0  0
 35 24  1  0  0  0  0
 39 28  1  0  0  0  0
M  END
$$$$
