SSI.pdb
 OpenBabel07022419093D

 43 42  0  0  1  0  0  0  0  0999 V2000
    0.8820   -4.7180    2.3180 O   0  0  0  0  0  0  0  0  0  0  0  0
    0.3590   -5.2230    1.1310 C   0  0  0  0  0  0  0  0  0  0  0  0
    1.3850   -5.0120    0.0380 C   0  0  2  0  0  0  0  0  0  0  0  0
    2.5910   -5.7030    0.3800 N   0  0  0  0  0  0  0  0  0  0  0  0
    1.6230   -3.5580   -0.1170 C   0  0  0  0  0  0  0  0  0  0  0  0
    2.7920   -3.1390    0.0620 O   0  0  0  0  0  0  0  0  0  0  0  0
    0.1560   -4.5270    2.9870 H   0  0  0  0  0  0  0  0  0  0  0  0
   -0.5600   -4.6790    0.8330 H   0  0  0  0  0  0  0  0  0  0  0  0
    0.1480   -6.3010    1.1840 H   0  0  0  0  0  0  0  0  0  0  0  0
    1.0150   -5.3800   -0.9440 H   0  0  0  0  0  0  0  0  0  0  0  0
    2.3850   -6.6170    0.8280 H   0  0  0  0  0  0  0  0  0  0  0  0
    3.2410   -5.1680    0.9790 H   0  0  0  0  0  0  0  0  0  0  0  0
   -0.7670   -1.0210   -2.4520 O   0  0  0  0  0  0  0  0  0  0  0  0
    0.5150   -0.7850   -2.0290 C   0  0  0  0  0  0  0  0  0  0  0  0
    0.7810   -1.2480   -0.6120 C   0  0  2  0  0  0  0  0  0  0  0  0
    0.5680   -2.6700   -0.4560 N   0  0  0  0  0  0  0  0  0  0  0  0
   -0.0280   -0.5130    0.3830 C   0  0  0  0  0  0  0  0  0  0  0  0
   -0.7780   -1.0930    1.2210 O   0  0  0  0  0  0  0  0  0  0  0  0
   -1.4520   -0.8530   -1.7610 H   0  0  0  0  0  0  0  0  0  0  0  0
    0.7260    0.2890   -2.0850 H   0  0  0  0  0  0  0  0  0  0  0  0
    1.2300   -1.3180   -2.6870 H   0  0  0  0  0  0  0  0  0  0  0  0
    1.8660   -1.0490   -0.4190 H   0  0  0  0  0  0  0  0  0  0  0  0
   -0.3800   -3.0880   -0.5910 H   0  0  0  0  0  0  0  0  0  0  0  0
    0.2590    4.4550    1.0280 C   0  0  0  0  0  0  0  0  0  0  0  0
    0.9320    3.4280    1.8920 C   0  0  0  0  0  0  0  0  0  0  0  0
    0.0100    2.3920    2.4100 C   0  0  2  0  0  0  0  0  0  0  0  0
    0.8220    1.4130    3.2950 C   0  0  0  0  0  0  0  0  0  0  0  0
   -0.8010    1.6310    1.4270 C   0  0  2  0  0  0  0  0  0  0  0  0
    0.0010    0.9090    0.4420 N   0  0  0  0  0  0  0  0  0  0  0  0
   -1.8340    2.3940    0.7270 C   0  0  0  0  0  0  0  0  0  0  0  0
   -2.6770    3.1410    1.2980 O   0  0  0  0  0  0  0  0  0  0  0  0
   -1.9280    2.3130   -0.6750 O   0  0  0  0  0  0  0  0  0  0  0  0
   -0.0450    4.0830    0.0380 H   0  0  0  0  0  0  0  0  0  0  0  0
   -0.6280    4.8780    1.5270 H   0  0  0  0  0  0  0  0  0  0  0  0
    0.9530    5.3410    0.8930 H   0  0  0  0  0  0  0  0  0  0  0  0
    1.7700    2.9410    1.3040 H   0  0  0  0  0  0  0  0  0  0  0  0
    1.4370    3.9640    2.7470 H   0  0  0  0  0  0  0  0  0  0  0  0
   -0.7000    2.8670    3.1420 H   0  0  0  0  0  0  0  0  0  0  0  0
    0.2000    1.0580    4.1430 H   0  0  0  0  0  0  0  0  0  0  0  0
    1.6720    1.9720    3.7250 H   0  0  0  0  0  0  0  0  0  0  0  0
    1.1820    0.5690    2.6630 H   0  0  0  0  0  0  0  0  0  0  0  0
   -1.3750    0.8680    2.0490 H   0  0  0  0  0  0  0  0  0  0  0  0
    0.5980    1.4490   -0.2200 H   0  0  0  0  0  0  0  0  0  0  0  0
  1  7  1  0  0  0  0
  2  9  1  0  0  0  0
  2  1  1  0  0  0  0
  3 10  1  6  0  0  0
  3  4  1  0  0  0  0
  3  2  1  0  0  0  0
  4 11  1  0  0  0  0
  4 12  1  0  0  0  0
  5  3  1  0  0  0  0
  5  6  2  0  0  0  0
  8  2  1  0  0  0  0
 13 14  1  0  0  0  0
 13 19  1  0  0  0  0
 14 15  1  0  0  0  0
 15 16  1  0  0  0  0
 15 22  1  1  0  0  0
 15 17  1  0  0  0  0
 16  5  1  0  0  0  0
 17 29  1  0  0  0  0
 17 18  2  0  0  0  0
 20 14  1  0  0  0  0
 21 14  1  0  0  0  0
 23 16  1  0  0  0  0
 24 34  1  0  0  0  0
 24 25  1  0  0  0  0
 25 26  1  0  0  0  0
 25 37  1  0  0  0  0
 26 38  1  1  0  0  0
 26 27  1  0  0  0  0
 27 40  1  0  0  0  0
 27 39  1  0  0  0  0
 28 42  1  1  0  0  0
 28 26  1  0  0  0  0
 29 28  1  0  0  0  0
 30 31  1  0  0  0  0
 30 28  1  0  0  0  0
 32 30  2  0  0  0  0
 33 24  1  0  0  0  0
 35 24  1  0  0  0  0
 36 25  1  0  0  0  0
 41 27  1  0  0  0  0
 43 29  1  0  0  0  0
M  END
$$$$
