SSK.pdb
 OpenBabel07022419103D

 45 44  0  0  1  0  0  0  0  0999 V2000
    5.1260   -3.0850   -1.5600 O   0  0  0  0  0  0  0  0  0  0  0  0
    4.3780   -3.5640   -0.4970 C   0  0  0  0  0  0  0  0  0  0  0  0
    3.8150   -2.4170    0.3320 C   0  0  2  0  0  0  0  0  0  0  0  0
    3.0450   -2.9470    1.4250 N   0  0  0  0  0  0  0  0  0  0  0  0
    2.9630   -1.5650   -0.5680 C   0  0  0  0  0  0  0  0  0  0  0  0
    3.4480   -1.0080   -1.5850 O   0  0  0  0  0  0  0  0  0  0  0  0
    6.0980   -3.2470   -1.4030 H   0  0  0  0  0  0  0  0  0  0  0  0
    3.5660   -4.1900   -0.8830 H   0  0  0  0  0  0  0  0  0  0  0  0
    5.0110   -4.2000    0.1520 H   0  0  0  0  0  0  0  0  0  0  0  0
    4.6400   -1.7890    0.7110 H   0  0  0  0  0  0  0  0  0  0  0  0
    2.5720   -3.8250    1.0880 H   0  0  0  0  0  0  0  0  0  0  0  0
    3.5730   -3.0940    2.2930 H   0  0  0  0  0  0  0  0  0  0  0  0
   -1.0830   -1.9370   -0.7930 O   0  0  0  0  0  0  0  0  0  0  0  0
   -0.3290   -1.4030   -1.8100 C   0  0  0  0  0  0  0  0  0  0  0  0
    0.7610   -0.5400   -1.1680 C   0  0  2  0  0  0  0  0  0  0  0  0
    1.5850   -1.3590   -0.3040 N   0  0  0  0  0  0  0  0  0  0  0  0
    0.1530    0.5430   -0.3600 C   0  0  0  0  0  0  0  0  0  0  0  0
   -0.6030    1.3630   -0.9420 O   0  0  0  0  0  0  0  0  0  0  0  0
   -1.8580   -1.3660   -0.5930 H   0  0  0  0  0  0  0  0  0  0  0  0
    0.1090   -2.1460   -2.4780 H   0  0  0  0  0  0  0  0  0  0  0  0
   -0.9950   -0.7280   -2.3990 H   0  0  0  0  0  0  0  0  0  0  0  0
    1.3750   -0.1460   -2.0020 H   0  0  0  0  0  0  0  0  0  0  0  0
    1.1430   -1.7970    0.5180 H   0  0  0  0  0  0  0  0  0  0  0  0
    0.4180    0.6480    1.0190 N   0  0  0  0  0  0  0  0  0  0  0  0
   -0.1880    1.7150    1.7900 C   0  0  1  0  0  0  0  0  0  0  0  0
   -0.8930    1.2110    3.0130 C   0  0  0  0  0  0  0  0  0  0  0  0
   -2.0010    0.2530    2.7530 C   0  0  0  0  0  0  0  0  0  0  0  0
   -3.1150    0.7920    1.9080 C   0  0  0  0  0  0  0  0  0  0  0  0
   -4.1690   -0.2800    1.7240 C   0  0  0  0  0  0  0  0  0  0  0  0
   -5.2520    0.2080    0.9150 N   0  0  0  0  0  0  0  0  0  0  0  0
    0.9240    2.5820    2.2700 C   0  0  0  0  0  0  0  0  0  0  0  0
    0.7150    3.6060    2.9760 O   0  0  0  0  0  0  0  0  0  0  0  0
    2.2440    2.3070    1.9660 O   0  0  0  0  0  0  0  0  0  0  0  0
    1.0400   -0.0210    1.5140 H   0  0  0  0  0  0  0  0  0  0  0  0
   -0.8290    2.3630    1.1550 H   0  0  0  0  0  0  0  0  0  0  0  0
   -1.2490    2.0930    3.5830 H   0  0  0  0  0  0  0  0  0  0  0  0
   -0.1380    0.7040    3.6480 H   0  0  0  0  0  0  0  0  0  0  0  0
   -2.4280   -0.0430    3.7340 H   0  0  0  0  0  0  0  0  0  0  0  0
   -1.6080   -0.6750    2.2880 H   0  0  0  0  0  0  0  0  0  0  0  0
   -2.7840    1.1490    0.9210 H   0  0  0  0  0  0  0  0  0  0  0  0
   -3.6230    1.6480    2.4000 H   0  0  0  0  0  0  0  0  0  0  0  0
   -4.6090   -0.5200    2.7360 H   0  0  0  0  0  0  0  0  0  0  0  0
   -3.7350   -1.2300    1.3620 H   0  0  0  0  0  0  0  0  0  0  0  0
   -5.1090    0.1060   -0.0940 H   0  0  0  0  0  0  0  0  0  0  0  0
   -6.1710   -0.2400    1.1660 H   0  0  0  0  0  0  0  0  0  0  0  0
  1  7  1  0  0  0  0
  1  2  1  0  0  0  0
  2  9  1  0  0  0  0
  2  3  1  0  0  0  0
  3 10  1  1  0  0  0
  3  4  1  0  0  0  0
  4 12  1  0  0  0  0
  5 16  1  0  0  0  0
  5  3  1  0  0  0  0
  6  5  2  0  0  0  0
  8  2  1  0  0  0  0
 11  4  1  0  0  0  0
 13 19  1  0  0  0  0
 14 15  1  0  0  0  0
 14 13  1  0  0  0  0
 15 22  1  6  0  0  0
 15 17  1  0  0  0  0
 15 16  1  0  0  0  0
 16 23  1  0  0  0  0
 17 24  1  0  0  0  0
 18 17  2  0  0  0  0
 20 14  1  0  0  0  0
 21 14  1  0  0  0  0
 24 34  1  0  0  0  0
 24 25  1  0  0  0  0
 25 35  1  6  0  0  0
 25 31  1  0  0  0  0
 25 26  1  0  0  0  0
 26 36  1  0  0  0  0
 26 37  1  0  0  0  0
 27 26  1  0  0  0  0
 27 38  1  0  0  0  0
 28 41  1  0  0  0  0
 28 27  1  0  0  0  0
 29 28  1  0  0  0  0
 29 42  1  0  0  0  0
 30 45  1  0  0  0  0
 30 29  1  0  0  0  0
 31 32  1  0  0  0  0
 33 31  2  0  0  0  0
 39 27  1  0  0  0  0
 40 28  1  0  0  0  0
 43 29  1  0  0  0  0
 44 30  1  0  0  0  0
M  END
$$$$
