SSL.pdb
 OpenBabel07022419093D

 43 42  0  0  1  0  0  0  0  0999 V2000
   -1.2210   -4.6250   -1.1430 O   0  0  0  0  0  0  0  0  0  0  0  0
   -0.2550   -5.1280   -0.2510 C   0  0  0  0  0  0  0  0  0  0  0  0
   -0.6880   -4.9090    1.1840 C   0  0  2  0  0  0  0  0  0  0  0  0
   -1.9450   -5.6140    1.3560 N   0  0  0  0  0  0  0  0  0  0  0  0
   -0.8990   -3.4950    1.5040 C   0  0  0  0  0  0  0  0  0  0  0  0
   -2.0370   -3.0570    1.8630 O   0  0  0  0  0  0  0  0  0  0  0  0
   -2.1290   -4.6800   -0.7770 H   0  0  0  0  0  0  0  0  0  0  0  0
    0.7270   -4.7030   -0.4770 H   0  0  0  0  0  0  0  0  0  0  0  0
   -0.2100   -6.2180   -0.4390 H   0  0  0  0  0  0  0  0  0  0  0  0
    0.0710   -5.4000    1.8220 H   0  0  0  0  0  0  0  0  0  0  0  0
   -2.7400   -4.9370    1.3700 H   0  0  0  0  0  0  0  0  0  0  0  0
   -1.9770   -6.1730    2.2300 H   0  0  0  0  0  0  0  0  0  0  0  0
    2.0650   -0.8030    2.8510 O   0  0  0  0  0  0  0  0  0  0  0  0
    0.6960   -0.6620    2.9470 C   0  0  0  0  0  0  0  0  0  0  0  0
   -0.0700   -1.1130    1.7550 C   0  0  2  0  0  0  0  0  0  0  0  0
    0.1350   -2.5100    1.4400 N   0  0  0  0  0  0  0  0  0  0  0  0
    0.1180   -0.2280    0.6030 C   0  0  0  0  0  0  0  0  0  0  0  0
    0.4480   -0.7190   -0.5050 O   0  0  0  0  0  0  0  0  0  0  0  0
    2.3700   -1.3490    2.1090 H   0  0  0  0  0  0  0  0  0  0  0  0
    0.3610   -1.2140    3.8580 H   0  0  0  0  0  0  0  0  0  0  0  0
    0.4950    0.4040    3.1730 H   0  0  0  0  0  0  0  0  0  0  0  0
   -1.1630   -1.0310    2.0340 H   0  0  0  0  0  0  0  0  0  0  0  0
    1.0770   -2.8520    1.1460 H   0  0  0  0  0  0  0  0  0  0  0  0
    1.7720    4.3590    0.8650 C   0  0  0  0  0  0  0  0  0  0  0  0
    2.3210    3.0710    0.2950 C   0  0  0  0  0  0  0  0  0  0  0  0
    2.5740    2.0970    1.3940 C   0  0  0  0  0  0  0  0  0  0  0  0
    1.4350    2.4630   -0.7470 C   0  0  0  0  0  0  0  0  0  0  0  0
    0.0640    2.1160   -0.3200 C   0  0  2  0  0  0  0  0  0  0  0  0
   -0.0770    1.1640    0.7450 N   0  0  0  0  0  0  0  0  0  0  0  0
   -0.7590    1.6840   -1.5080 C   0  0  0  0  0  0  0  0  0  0  0  0
   -0.7230    2.3510   -2.5650 O   0  0  0  0  0  0  0  0  0  0  0  0
   -1.5530    0.5650   -1.4480 O   0  0  0  0  0  0  0  0  0  0  0  0
    1.4400    5.0650    0.0780 H   0  0  0  0  0  0  0  0  0  0  0  0
    0.9060    4.1730    1.5200 H   0  0  0  0  0  0  0  0  0  0  0  0
    2.5580    4.8420    1.4720 H   0  0  0  0  0  0  0  0  0  0  0  0
    3.2820    3.3510   -0.2410 H   0  0  0  0  0  0  0  0  0  0  0  0
    2.6620    1.0760    0.9750 H   0  0  0  0  0  0  0  0  0  0  0  0
    1.8530    2.2140    2.2100 H   0  0  0  0  0  0  0  0  0  0  0  0
    3.5830    2.2880    1.8560 H   0  0  0  0  0  0  0  0  0  0  0  0
    1.3280    3.2290   -1.5740 H   0  0  0  0  0  0  0  0  0  0  0  0
    1.9850    1.6090   -1.2020 H   0  0  0  0  0  0  0  0  0  0  0  0
   -0.4380    3.0750    0.0060 H   0  0  0  0  0  0  0  0  0  0  0  0
   -0.3550    1.5170    1.7160 H   0  0  0  0  0  0  0  0  0  0  0  0
  1  7  1  0  0  0  0
  1  2  1  0  0  0  0
  2  3  1  0  0  0  0
  3  4  1  0  0  0  0
  3  5  1  0  0  0  0
  3 10  1  1  0  0  0
  4 11  1  0  0  0  0
  4 12  1  0  0  0  0
  5  6  2  0  0  0  0
  8  2  1  0  0  0  0
  9  2  1  0  0  0  0
 13 14  1  0  0  0  0
 14 21  1  0  0  0  0
 14 20  1  0  0  0  0
 15 22  1  1  0  0  0
 15 14  1  0  0  0  0
 16  5  1  0  0  0  0
 16 15  1  0  0  0  0
 17 29  1  0  0  0  0
 17 15  1  0  0  0  0
 18 17  2  0  0  0  0
 19 13  1  0  0  0  0
 23 16  1  0  0  0  0
 24 35  1  0  0  0  0
 24 34  1  0  0  0  0
 25 24  1  0  0  0  0
 25 26  1  0  0  0  0
 26 39  1  0  0  0  0
 26 38  1  0  0  0  0
 27 28  1  0  0  0  0
 27 25  1  0  0  0  0
 28 42  1  1  0  0  0
 28 29  1  0  0  0  0
 29 43  1  0  0  0  0
 30 32  1  0  0  0  0
 30 28  1  0  0  0  0
 31 30  2  0  0  0  0
 33 24  1  0  0  0  0
 36 25  1  0  0  0  0
 37 26  1  0  0  0  0
 40 27  1  0  0  0  0
 41 27  1  0  0  0  0
M  END
$$$$
