SSN.pdb
 OpenBabel07022419093D

 38 37  0  0  1  0  0  0  0  0999 V2000
   -3.3540   -3.7690    0.2670 O   0  0  0  0  0  0  0  0  0  0  0  0
   -3.4160   -3.4670    1.6400 C   0  0  0  0  0  0  0  0  0  0  0  0
   -2.5890   -2.2140    1.9260 C   0  0  2  0  0  0  0  0  0  0  0  0
   -3.1550   -1.1510    1.1480 N   0  0  0  0  0  0  0  0  0  0  0  0
   -1.2030   -2.5360    1.5180 C   0  0  0  0  0  0  0  0  0  0  0  0
   -0.5640   -3.4420    2.1340 O   0  0  0  0  0  0  0  0  0  0  0  0
   -4.0130   -3.2060   -0.2510 H   0  0  0  0  0  0  0  0  0  0  0  0
   -4.4550   -3.3650    1.9600 H   0  0  0  0  0  0  0  0  0  0  0  0
   -2.9920   -4.3620    2.1510 H   0  0  0  0  0  0  0  0  0  0  0  0
   -2.7120   -1.9950    2.9890 H   0  0  0  0  0  0  0  0  0  0  0  0
   -3.1850   -1.3180    0.1340 H   0  0  0  0  0  0  0  0  0  0  0  0
   -4.0030   -0.7350    1.5590 H   0  0  0  0  0  0  0  0  0  0  0  0
    2.2920   -3.0420   -1.5500 O   0  0  0  0  0  0  0  0  0  0  0  0
    0.9450   -2.7550   -1.3200 C   0  0  0  0  0  0  0  0  0  0  0  0
    0.8380   -2.2340    0.0910 C   0  0  2  0  0  0  0  0  0  0  0  0
   -0.5080   -1.8970    0.4620 N   0  0  0  0  0  0  0  0  0  0  0  0
    1.7630   -1.0860    0.3350 C   0  0  0  0  0  0  0  0  0  0  0  0
    2.9810   -1.2210    0.0620 O   0  0  0  0  0  0  0  0  0  0  0  0
    2.6580   -3.6690   -0.8750 H   0  0  0  0  0  0  0  0  0  0  0  0
    0.4070   -3.7290   -1.3600 H   0  0  0  0  0  0  0  0  0  0  0  0
    0.6240   -2.0520   -2.0890 H   0  0  0  0  0  0  0  0  0  0  0  0
    1.1820   -3.0500    0.7670 H   0  0  0  0  0  0  0  0  0  0  0  0
   -0.9860   -1.1510   -0.0730 H   0  0  0  0  0  0  0  0  0  0  0  0
    2.1950    4.9220   -0.1230 N   0  0  0  0  0  0  0  0  0  0  0  0
    2.6070    3.6820    0.4440 C   0  0  0  0  0  0  0  0  0  0  0  0
    3.7060    3.6670    1.0250 O   0  0  0  0  0  0  0  0  0  0  0  0
    1.7770    2.4810    0.3480 C   0  0  0  0  0  0  0  0  0  0  0  0
    2.2700    1.2760    1.0950 C   0  0  2  0  0  0  0  0  0  0  0  0
    1.3360    0.1450    0.8590 N   0  0  0  0  0  0  0  0  0  0  0  0
    2.2590    1.5190    2.5560 C   0  0  0  0  0  0  0  0  0  0  0  0
    2.9700    2.3990    3.0620 O   0  0  0  0  0  0  0  0  0  0  0  0
    1.4590    0.7800    3.4140 O   0  0  0  0  0  0  0  0  0  0  0  0
    1.9610    4.9530   -1.1340 H   0  0  0  0  0  0  0  0  0  0  0  0
    2.1120    5.8110    0.4110 H   0  0  0  0  0  0  0  0  0  0  0  0
    1.7360    2.1960   -0.7360 H   0  0  0  0  0  0  0  0  0  0  0  0
    0.6990    2.6950    0.6150 H   0  0  0  0  0  0  0  0  0  0  0  0
    3.2980    0.9940    0.8050 H   0  0  0  0  0  0  0  0  0  0  0  0
    0.3360    0.2720    1.0880 H   0  0  0  0  0  0  0  0  0  0  0  0
  1  2  1  0  0  0  0
  2  3  1  0  0  0  0
  2  8  1  0  0  0  0
  2  9  1  0  0  0  0
  3 10  1  1  0  0  0
  4 12  1  0  0  0  0
  4  3  1  0  0  0  0
  5  3  1  0  0  0  0
  5  6  2  0  0  0  0
  7  1  1  0  0  0  0
 11  4  1  0  0  0  0
 13 14  1  0  0  0  0
 13 19  1  0  0  0  0
 14 15  1  0  0  0  0
 15 17  1  0  0  0  0
 15 16  1  0  0  0  0
 15 22  1  1  0  0  0
 16  5  1  0  0  0  0
 17 29  1  0  0  0  0
 18 17  2  0  0  0  0
 20 14  1  0  0  0  0
 21 14  1  0  0  0  0
 23 16  1  0  0  0  0
 24 34  1  0  0  0  0
 24 25  1  0  0  0  0
 25 26  2  0  0  0  0
 27 25  1  0  0  0  0
 27 36  1  0  0  0  0
 27 28  1  0  0  0  0
 28 37  1  6  0  0  0
 28 30  1  0  0  0  0
 29 38  1  0  0  0  0
 29 28  1  0  0  0  0
 30 31  2  0  0  0  0
 30 32  1  0  0  0  0
 33 24  1  0  0  0  0
 35 27  1  0  0  0  0
M  END
$$$$
