SSP.pdb
 OpenBabel07022419103D

 38 38  0  0  1  0  0  0  0  0999 V2000
    2.1220   -4.1100    3.6620 O   0  0  0  0  0  0  0  0  0  0  0  0
    2.0050   -4.3950    2.2960 C   0  0  0  0  0  0  0  0  0  0  0  0
    0.9430   -3.4800    1.7280 C   0  0  2  0  0  0  0  0  0  0  0  0
    0.7740   -3.7260    0.3150 N   0  0  0  0  0  0  0  0  0  0  0  0
    1.2800   -2.0470    1.9910 C   0  0  0  0  0  0  0  0  0  0  0  0
    1.4680   -1.6280    3.1610 O   0  0  0  0  0  0  0  0  0  0  0  0
    1.1980   -3.8760    3.9780 H   0  0  0  0  0  0  0  0  0  0  0  0
    1.6420   -5.4350    2.1790 H   0  0  0  0  0  0  0  0  0  0  0  0
    2.9350   -4.2150    1.7400 H   0  0  0  0  0  0  0  0  0  0  0  0
   -0.0070   -3.7190    2.2510 H   0  0  0  0  0  0  0  0  0  0  0  0
    0.5640   -4.7450    0.2110 H   0  0  0  0  0  0  0  0  0  0  0  0
   -0.0880   -3.2260   -0.0230 H   0  0  0  0  0  0  0  0  0  0  0  0
    3.1100    0.2910   -0.8740 O   0  0  0  0  0  0  0  0  0  0  0  0
    3.0800    0.5460    0.4850 C   0  0  0  0  0  0  0  0  0  0  0  0
    1.7090    0.2330    1.0820 C   0  0  2  0  0  0  0  0  0  0  0  0
    1.3880   -1.1490    0.8790 N   0  0  0  0  0  0  0  0  0  0  0  0
    0.7490    1.2260    0.6200 C   0  0  0  0  0  0  0  0  0  0  0  0
    1.1090    2.4690    0.7270 O   0  0  0  0  0  0  0  0  0  0  0  0
    3.5310   -0.6020   -0.9990 H   0  0  0  0  0  0  0  0  0  0  0  0
    3.7970   -0.1010    1.0400 H   0  0  0  0  0  0  0  0  0  0  0  0
    3.3100    1.6010    0.7420 H   0  0  0  0  0  0  0  0  0  0  0  0
    1.8560    0.4340    2.1830 H   0  0  0  0  0  0  0  0  0  0  0  0
    1.2350   -1.5590   -0.0730 H   0  0  0  0  0  0  0  0  0  0  0  0
   -0.5350    1.0470    0.0610 N   0  0  0  0  0  0  0  0  0  0  0  0
   -1.2190   -0.1960   -0.1390 C   0  0  0  0  0  0  0  0  0  0  0  0
   -2.6870    0.1830    0.1130 C   0  0  0  0  0  0  0  0  0  0  0  0
   -2.7340    1.4390   -0.7680 C   0  0  0  0  0  0  0  0  0  0  0  0
   -1.4120    2.0950   -0.4570 C   0  0  1  0  0  0  0  0  0  0  0  0
   -1.6680    3.1480    0.5330 C   0  0  0  0  0  0  0  0  0  0  0  0
   -2.3960    4.1150    0.1940 O   0  0  0  0  0  0  0  0  0  0  0  0
   -1.1690    3.1660    1.8250 O   0  0  0  0  0  0  0  0  0  0  0  0
   -1.1680   -0.4980   -1.2110 H   0  0  0  0  0  0  0  0  0  0  0  0
   -0.9330   -1.0140    0.5500 H   0  0  0  0  0  0  0  0  0  0  0  0
   -3.3760   -0.5890   -0.2300 H   0  0  0  0  0  0  0  0  0  0  0  0
   -2.7700    0.4680    1.1620 H   0  0  0  0  0  0  0  0  0  0  0  0
   -2.7760    1.0510   -1.8170 H   0  0  0  0  0  0  0  0  0  0  0  0
   -3.6020    2.0670   -0.5130 H   0  0  0  0  0  0  0  0  0  0  0  0
   -0.9540    2.4510   -1.3860 H   0  0  0  0  0  0  0  0  0  0  0  0
  1  7  1  0  0  0  0
  2  1  1  0  0  0  0
  3  5  1  0  0  0  0
  3 10  1  1  0  0  0
  3  2  1  0  0  0  0
  4  3  1  0  0  0  0
  5  6  2  0  0  0  0
  8  2  1  0  0  0  0
  9  2  1  0  0  0  0
 11  4  1  0  0  0  0
 12  4  1  0  0  0  0
 13 14  1  0  0  0  0
 14 21  1  0  0  0  0
 14 20  1  0  0  0  0
 14 15  1  0  0  0  0
 15 22  1  1  0  0  0
 16 15  1  0  0  0  0
 16  5  1  0  0  0  0
 17 18  2  0  0  0  0
 17 15  1  0  0  0  0
 19 13  1  0  0  0  0
 23 16  1  0  0  0  0
 24 17  1  0  0  0  0
 25 24  1  0  0  0  0
 25 26  1  0  0  0  0
 25 33  1  0  0  0  0
 26 35  1  0  0  0  0
 27 37  1  0  0  0  0
 27 28  1  0  0  0  0
 27 26  1  0  0  0  0
 28 38  1  6  0  0  0
 28 24  1  0  0  0  0
 28 29  1  0  0  0  0
 29 31  1  0  0  0  0
 30 29  2  0  0  0  0
 32 25  1  0  0  0  0
 34 26  1  0  0  0  0
 36 27  1  0  0  0  0
M  END
$$$$
