SSQ.pdb
 OpenBabel07022419093D

 41 40  0  0  1  0  0  0  0  0999 V2000
   -0.8760   -4.9320    0.9480 O   0  0  0  0  0  0  0  0  0  0  0  0
   -0.3560   -5.4490   -0.2220 C   0  0  0  0  0  0  0  0  0  0  0  0
   -0.9710   -4.7870   -1.4600 C   0  0  2  0  0  0  0  0  0  0  0  0
   -0.3640   -5.3940   -2.6060 N   0  0  0  0  0  0  0  0  0  0  0  0
   -0.6800   -3.3240   -1.4650 C   0  0  0  0  0  0  0  0  0  0  0  0
    0.0130   -2.7880   -2.3890 O   0  0  0  0  0  0  0  0  0  0  0  0
   -0.1950   -5.0130    1.6730 H   0  0  0  0  0  0  0  0  0  0  0  0
   -0.5940   -6.5310   -0.3040 H   0  0  0  0  0  0  0  0  0  0  0  0
    0.7550   -5.3750   -0.2630 H   0  0  0  0  0  0  0  0  0  0  0  0
   -2.0640   -4.9830   -1.3780 H   0  0  0  0  0  0  0  0  0  0  0  0
    0.2690   -6.1840   -2.3620 H   0  0  0  0  0  0  0  0  0  0  0  0
    0.1670   -4.6850   -3.1580 H   0  0  0  0  0  0  0  0  0  0  0  0
   -3.1090   -0.5970    0.3230 O   0  0  0  0  0  0  0  0  0  0  0  0
   -2.2040   -0.3230   -0.6750 C   0  0  0  0  0  0  0  0  0  0  0  0
   -0.8710   -1.0520   -0.4610 C   0  0  2  0  0  0  0  0  0  0  0  0
   -1.1550   -2.4560   -0.4490 N   0  0  0  0  0  0  0  0  0  0  0  0
   -0.2170   -0.5700    0.7560 C   0  0  0  0  0  0  0  0  0  0  0  0
    0.0440   -1.3690    1.6860 O   0  0  0  0  0  0  0  0  0  0  0  0
   -3.4890    0.2120    0.7580 H   0  0  0  0  0  0  0  0  0  0  0  0
   -2.6190   -0.7380   -1.6320 H   0  0  0  0  0  0  0  0  0  0  0  0
   -2.0390    0.7530   -0.8550 H   0  0  0  0  0  0  0  0  0  0  0  0
   -0.2490   -0.7630   -1.3500 H   0  0  0  0  0  0  0  0  0  0  0  0
   -1.7230   -2.8420    0.3250 H   0  0  0  0  0  0  0  0  0  0  0  0
    5.1860    3.5660    2.8970 N   0  0  0  0  0  0  0  0  0  0  0  0
    4.1950    2.9640    2.0950 C   0  0  0  0  0  0  0  0  0  0  0  0
    4.3490    2.8610    0.8650 O   0  0  0  0  0  0  0  0  0  0  0  0
    2.9620    2.4550    2.7340 C   0  0  0  0  0  0  0  0  0  0  0  0
    2.0870    1.8750    1.6890 C   0  0  0  0  0  0  0  0  0  0  0  0
    0.7910    1.2970    2.1230 C   0  0  2  0  0  0  0  0  0  0  0  0
    0.1320    0.7950    0.9050 N   0  0  0  0  0  0  0  0  0  0  0  0
   -0.0700    2.3580    2.6820 C   0  0  0  0  0  0  0  0  0  0  0  0
   -1.1280    2.6630    2.0640 O   0  0  0  0  0  0  0  0  0  0  0  0
    0.2210    3.0460    3.8610 O   0  0  0  0  0  0  0  0  0  0  0  0
    5.3430    4.5890    2.8160 H   0  0  0  0  0  0  0  0  0  0  0  0
    5.7650    3.0250    3.5640 H   0  0  0  0  0  0  0  0  0  0  0  0
    3.2710    1.7210    3.5180 H   0  0  0  0  0  0  0  0  0  0  0  0
    2.4420    3.2640    3.3050 H   0  0  0  0  0  0  0  0  0  0  0  0
    2.6670    1.0510    1.1860 H   0  0  0  0  0  0  0  0  0  0  0  0
    1.9220    2.6490    0.9100 H   0  0  0  0  0  0  0  0  0  0  0  0
    0.9420    0.4540    2.8300 H   0  0  0  0  0  0  0  0  0  0  0  0
   -0.0900    1.4480    0.1230 H   0  0  0  0  0  0  0  0  0  0  0  0
  1  7  1  0  0  0  0
  2  1  1  0  0  0  0
  3 10  1  6  0  0  0
  3  2  1  0  0  0  0
  4 11  1  0  0  0  0
  4  3  1  0  0  0  0
  5  3  1  0  0  0  0
  5 16  1  0  0  0  0
  6  5  2  0  0  0  0
  8  2  1  0  0  0  0
  9  2  1  0  0  0  0
 12  4  1  0  0  0  0
 13 19  1  0  0  0  0
 14 15  1  0  0  0  0
 14 13  1  0  0  0  0
 15 22  1  6  0  0  0
 15 16  1  0  0  0  0
 15 17  1  0  0  0  0
 16 23  1  0  0  0  0
 17 30  1  0  0  0  0
 17 18  2  0  0  0  0
 20 14  1  0  0  0  0
 21 14  1  0  0  0  0
 24 35  1  0  0  0  0
 25 27  1  0  0  0  0
 25 24  1  0  0  0  0
 26 25  2  0  0  0  0
 27 37  1  0  0  0  0
 27 36  1  0  0  0  0
 28 29  1  0  0  0  0
 28 27  1  0  0  0  0
 29 31  1  0  0  0  0
 29 40  1  1  0  0  0
 30 29  1  0  0  0  0
 31 33  1  0  0  0  0
 32 31  2  0  0  0  0
 34 24  1  0  0  0  0
 38 28  1  0  0  0  0
 39 28  1  0  0  0  0
 41 30  1  0  0  0  0
M  END
$$$$
