SSR.pdb
 OpenBabel07022419093D

 47 46  0  0  1  0  0  0  0  0999 V2000
    5.4060   -1.5440    0.5200 O   0  0  0  0  0  0  0  0  0  0  0  0
    4.6890   -1.0380   -0.5680 C   0  0  0  0  0  0  0  0  0  0  0  0
    3.3220   -0.6260   -0.0590 C   0  0  2  0  0  0  0  0  0  0  0  0
    2.6770   -1.8040    0.4940 N   0  0  0  0  0  0  0  0  0  0  0  0
    2.4900   -0.0350   -1.1280 C   0  0  0  0  0  0  0  0  0  0  0  0
    2.9080    0.9980   -1.7130 O   0  0  0  0  0  0  0  0  0  0  0  0
    5.0620   -1.2040    1.3840 H   0  0  0  0  0  0  0  0  0  0  0  0
    4.5680   -1.8480   -1.3050 H   0  0  0  0  0  0  0  0  0  0  0  0
    5.2600   -0.1770   -0.9620 H   0  0  0  0  0  0  0  0  0  0  0  0
    3.4770    0.1420    0.7500 H   0  0  0  0  0  0  0  0  0  0  0  0
    3.4140   -2.3690    0.9740 H   0  0  0  0  0  0  0  0  0  0  0  0
    1.8930   -1.5470    1.1160 H   0  0  0  0  0  0  0  0  0  0  0  0
   -0.5190   -2.1440   -3.0690 O   0  0  0  0  0  0  0  0  0  0  0  0
    0.1390   -1.0510   -3.6480 C   0  0  0  0  0  0  0  0  0  0  0  0
    0.4070   -0.0550   -2.5410 C   0  0  2  0  0  0  0  0  0  0  0  0
    1.2300   -0.6180   -1.5000 N   0  0  0  0  0  0  0  0  0  0  0  0
   -0.8780    0.4300   -1.9360 C   0  0  0  0  0  0  0  0  0  0  0  0
   -1.7690    0.9650   -2.6330 O   0  0  0  0  0  0  0  0  0  0  0  0
   -1.4050   -1.8260   -2.7660 H   0  0  0  0  0  0  0  0  0  0  0  0
    1.1300   -1.3880   -4.0140 H   0  0  0  0  0  0  0  0  0  0  0  0
   -0.4700   -0.5670   -4.4160 H   0  0  0  0  0  0  0  0  0  0  0  0
    0.9270    0.8400   -2.9380 H   0  0  0  0  0  0  0  0  0  0  0  0
    0.9350   -1.4650   -0.9880 H   0  0  0  0  0  0  0  0  0  0  0  0
    0.1100   -2.1000    5.8000 N   0  0  0  0  0  0  0  0  0  0  0  0
   -0.8170   -1.2340    5.1420 C   0  0  0  0  0  0  0  0  0  0  0  0
   -1.1730   -0.1300    5.6980 N   0  0  0  0  0  0  0  0  0  0  0  0
   -1.3740   -1.5490    3.8730 N   0  0  0  0  0  0  0  0  0  0  0  0
   -1.9740   -0.5650    2.9910 C   0  0  0  0  0  0  0  0  0  0  0  0
   -2.4560   -1.2230    1.7510 C   0  0  0  0  0  0  0  0  0  0  0  0
   -3.1020   -0.3730    0.7320 C   0  0  0  0  0  0  0  0  0  0  0  0
   -2.3150    0.7280    0.1360 C   0  0  2  0  0  0  0  0  0  0  0  0
   -1.1200    0.2960   -0.5430 N   0  0  0  0  0  0  0  0  0  0  0  0
   -2.0630    1.8730    1.0430 C   0  0  0  0  0  0  0  0  0  0  0  0
   -0.9170    2.3700    1.1290 O   0  0  0  0  0  0  0  0  0  0  0  0
   -3.0760    2.4180    1.8100 O   0  0  0  0  0  0  0  0  0  0  0  0
    1.1010   -2.1720    5.4550 H   0  0  0  0  0  0  0  0  0  0  0  0
   -0.1540   -2.6700    6.6150 H   0  0  0  0  0  0  0  0  0  0  0  0
   -0.7830    0.1290    6.6260 H   0  0  0  0  0  0  0  0  0  0  0  0
   -1.3380   -2.5460    3.5790 H   0  0  0  0  0  0  0  0  0  0  0  0
   -1.2990    0.2910    2.8430 H   0  0  0  0  0  0  0  0  0  0  0  0
   -2.8420   -0.1430    3.5820 H   0  0  0  0  0  0  0  0  0  0  0  0
   -1.6330   -1.8690    1.3390 H   0  0  0  0  0  0  0  0  0  0  0  0
   -3.2340   -1.9790    2.0730 H   0  0  0  0  0  0  0  0  0  0  0  0
   -4.0540    0.0220    1.1380 H   0  0  0  0  0  0  0  0  0  0  0  0
   -3.4170   -1.0550   -0.1080 H   0  0  0  0  0  0  0  0  0  0  0  0
   -2.9860    1.1790   -0.6700 H   0  0  0  0  0  0  0  0  0  0  0  0
   -0.3660   -0.1500    0.0180 H   0  0  0  0  0  0  0  0  0  0  0  0
  1  7  1  0  0  0  0
  2  3  1  0  0  0  0
  2  1  1  0  0  0  0
  3  4  1  0  0  0  0
  3 10  1  1  0  0  0
  4 11  1  0  0  0  0
  4 12  1  0  0  0  0
  5  3  1  0  0  0  0
  6  5  2  0  0  0  0
  8  2  1  0  0  0  0
  9  2  1  0  0  0  0
 13 19  1  0  0  0  0
 14 13  1  0  0  0  0
 14 15  1  0  0  0  0
 15 22  1  6  0  0  0
 15 17  1  0  0  0  0
 15 16  1  0  0  0  0
 16  5  1  0  0  0  0
 16 23  1  0  0  0  0
 17 32  1  0  0  0  0
 18 17  2  0  0  0  0
 20 14  1  0  0  0  0
 21 14  1  0  0  0  0
 24 37  1  0  0  0  0
 25 26  2  0  0  0  0
 25 24  1  0  0  0  0
 26 38  1  0  0  0  0
 27 25  1  0  0  0  0
 28 41  1  0  0  0  0
 28 27  1  0  0  0  0
 29 43  1  0  0  0  0
 29 28  1  0  0  0  0
 30 44  1  0  0  0  0
 30 29  1  0  0  0  0
 31 46  1  6  0  0  0
 31 30  1  0  0  0  0
 31 33  1  0  0  0  0
 32 47  1  0  0  0  0
 32 31  1  0  0  0  0
 33 34  2  0  0  0  0
 33 35  1  0  0  0  0
 36 24  1  0  0  0  0
 39 27  1  0  0  0  0
 40 28  1  0  0  0  0
 42 29  1  0  0  0  0
 45 30  1  0  0  0  0
M  END
$$$$
