SSW.pdb
 OpenBabel07022419103D

 48 49  0  0  1  0  0  0  0  0999 V2000
    0.4390    1.1430    4.0450 O   0  0  0  0  0  0  0  0  0  0  0  0
   -0.0430   -0.1710    4.0800 C   0  0  0  0  0  0  0  0  0  0  0  0
    1.0820   -1.1700    4.1960 C   0  0  2  0  0  0  0  0  0  0  0  0
    1.7960   -0.8930    5.4140 N   0  0  0  0  0  0  0  0  0  0  0  0
    2.0030   -1.1490    3.0680 C   0  0  0  0  0  0  0  0  0  0  0  0
    3.2180   -0.8810    3.2780 O   0  0  0  0  0  0  0  0  0  0  0  0
    0.7110    1.3630    4.9850 H   0  0  0  0  0  0  0  0  0  0  0  0
   -0.6510   -0.2580    5.0040 H   0  0  0  0  0  0  0  0  0  0  0  0
   -0.7000   -0.3980    3.2350 H   0  0  0  0  0  0  0  0  0  0  0  0
    0.5970   -2.1730    4.2960 H   0  0  0  0  0  0  0  0  0  0  0  0
    1.1980   -0.4750    6.1640 H   0  0  0  0  0  0  0  0  0  0  0  0
    2.3350   -1.7170    5.7650 H   0  0  0  0  0  0  0  0  0  0  0  0
    3.6940   -2.6140   -1.0450 O   0  0  0  0  0  0  0  0  0  0  0  0
    2.7800   -2.7480    0.0010 C   0  0  0  0  0  0  0  0  0  0  0  0
    2.5880   -1.3790    0.6160 C   0  0  2  0  0  0  0  0  0  0  0  0
    1.6530   -1.4080    1.7170 N   0  0  0  0  0  0  0  0  0  0  0  0
    2.1610   -0.4860   -0.4890 C   0  0  0  0  0  0  0  0  0  0  0  0
    2.9140   -0.3520   -1.4750 O   0  0  0  0  0  0  0  0  0  0  0  0
    4.5290   -3.1100   -0.8870 H   0  0  0  0  0  0  0  0  0  0  0  0
    1.8240   -3.0560   -0.4500 H   0  0  0  0  0  0  0  0  0  0  0  0
    3.2000   -3.4830    0.7000 H   0  0  0  0  0  0  0  0  0  0  0  0
    3.6080   -1.0950    1.0090 H   0  0  0  0  0  0  0  0  0  0  0  0
    0.6630   -1.6330    1.5010 H   0  0  0  0  0  0  0  0  0  0  0  0
    0.9190    0.2370   -0.4850 N   0  0  0  0  0  0  0  0  0  0  0  0
    0.5210    1.0990   -1.5510 C   0  0  1  0  0  0  0  0  0  0  0  0
   -0.6040    0.4790   -2.3330 C   0  0  0  0  0  0  0  0  0  0  0  0
   -1.8220    0.1820   -1.5910 C   0  0  0  0  0  0  0  0  0  0  0  0
   -2.9600    0.9770   -1.4900 C   0  0  0  0  0  0  0  0  0  0  0  0
   -3.8530    0.3760   -0.6930 N   0  0  0  0  0  0  0  0  0  0  0  0
   -3.3220   -0.7930   -0.2730 C   0  0  0  0  0  0  0  0  0  0  0  0
   -3.8590   -1.7640    0.5510 C   0  0  0  0  0  0  0  0  0  0  0  0
   -3.0920   -2.8800    0.8060 C   0  0  0  0  0  0  0  0  0  0  0  0
   -1.8350   -3.0220    0.2620 C   0  0  0  0  0  0  0  0  0  0  0  0
   -1.3230   -2.0590   -0.5450 C   0  0  0  0  0  0  0  0  0  0  0  0
   -2.0700   -0.9260   -0.8190 C   0  0  0  0  0  0  0  0  0  0  0  0
    0.1820    2.4640   -1.1100 C   0  0  0  0  0  0  0  0  0  0  0  0
    0.2400    2.8040    0.0750 O   0  0  0  0  0  0  0  0  0  0  0  0
   -0.2140    3.3870   -2.0620 O   0  0  0  0  0  0  0  0  0  0  0  0
    0.3310    0.0900    0.3620 H   0  0  0  0  0  0  0  0  0  0  0  0
    1.3510    1.2270   -2.3120 H   0  0  0  0  0  0  0  0  0  0  0  0
   -0.8090    1.1000   -3.2560 H   0  0  0  0  0  0  0  0  0  0  0  0
   -0.1980   -0.5190   -2.6850 H   0  0  0  0  0  0  0  0  0  0  0  0
   -3.1310    1.9210   -1.9580 H   0  0  0  0  0  0  0  0  0  0  0  0
   -4.8110    0.7480   -0.4340 H   0  0  0  0  0  0  0  0  0  0  0  0
   -4.8400   -1.6360    0.9660 H   0  0  0  0  0  0  0  0  0  0  0  0
   -3.5280   -3.6350    1.4560 H   0  0  0  0  0  0  0  0  0  0  0  0
   -1.2580   -3.9090    0.4810 H   0  0  0  0  0  0  0  0  0  0  0  0
   -0.3340   -2.1530   -0.9940 H   0  0  0  0  0  0  0  0  0  0  0  0
  1  2  1  0  0  0  0
  1  7  1  0  0  0  0
  2  3  1  0  0  0  0
  2  8  1  0  0  0  0
  3 10  1  1  0  0  0
  3  4  1  0  0  0  0
  4 12  1  0  0  0  0
  4 11  1  0  0  0  0
  5  6  2  0  0  0  0
  5  3  1  0  0  0  0
  9  2  1  0  0  0  0
 13 19  1  0  0  0  0
 13 14  1  0  0  0  0
 14 15  1  0  0  0  0
 14 21  1  0  0  0  0
 15 22  1  1  0  0  0
 15 16  1  0  0  0  0
 16  5  1  0  0  0  0
 17 24  1  0  0  0  0
 17 15  1  0  0  0  0
 18 17  2  0  0  0  0
 20 14  1  0  0  0  0
 23 16  1  0  0  0  0
 24 39  1  0  0  0  0
 25 40  1  6  0  0  0
 25 36  1  0  0  0  0
 25 24  1  0  0  0  0
 26 27  1  0  0  0  0
 26 25  1  0  0  0  0
 27 28  2  0  0  0  0
 27 35  1  0  0  0  0
 28 29  1  0  0  0  0
 29 44  1  0  0  0  0
 29 30  1  0  0  0  0
 30 31  1  0  0  0  0
 31 32  2  0  0  0  0
 31 45  1  0  0  0  0
 32 46  1  0  0  0  0
 33 47  1  0  0  0  0
 33 32  1  0  0  0  0
 34 33  2  0  0  0  0
 35 34  1  0  0  0  0
 35 30  2  0  0  0  0
 36 37  1  0  0  0  0
 38 36  2  0  0  0  0
 41 26  1  0  0  0  0
 42 26  1  0  0  0  0
 43 28  1  0  0  0  0
 48 34  1  0  0  0  0
M  END
$$$$
