SSY.pdb
 OpenBabel07022419103D

 45 45  0  0  1  0  0  0  0  0999 V2000
   -4.1390   -3.8750    4.1500 O   0  0  0  0  0  0  0  0  0  0  0  0
   -2.7780   -4.1740    4.1560 C   0  0  0  0  0  0  0  0  0  0  0  0
   -2.1010   -3.6470    2.9010 C   0  0  2  0  0  0  0  0  0  0  0  0
   -0.7030   -3.9780    2.9510 N   0  0  0  0  0  0  0  0  0  0  0  0
   -2.3080   -2.1790    2.8870 C   0  0  0  0  0  0  0  0  0  0  0  0
   -3.4690   -1.7120    2.8450 O   0  0  0  0  0  0  0  0  0  0  0  0
   -4.6920   -4.5870    3.7490 H   0  0  0  0  0  0  0  0  0  0  0  0
   -2.7020   -5.2840    4.1880 H   0  0  0  0  0  0  0  0  0  0  0  0
   -2.2800   -3.7380    5.0270 H   0  0  0  0  0  0  0  0  0  0  0  0
   -2.5520   -4.1550    2.0430 H   0  0  0  0  0  0  0  0  0  0  0  0
   -0.1850   -3.4930    3.7130 H   0  0  0  0  0  0  0  0  0  0  0  0
   -0.6120   -5.0170    2.9870 H   0  0  0  0  0  0  0  0  0  0  0  0
   -1.3680    0.4270    5.2970 O   0  0  0  0  0  0  0  0  0  0  0  0
   -0.8620    0.8770    4.1040 C   0  0  0  0  0  0  0  0  0  0  0  0
   -1.4640    0.1740    2.9060 C   0  0  2  0  0  0  0  0  0  0  0  0
   -1.2370   -1.2380    2.9200 N   0  0  0  0  0  0  0  0  0  0  0  0
   -0.8300    0.7460    1.6770 C   0  0  0  0  0  0  0  0  0  0  0  0
   -0.9420    1.9890    1.5160 O   0  0  0  0  0  0  0  0  0  0  0  0
   -2.1680    0.9150    5.6060 H   0  0  0  0  0  0  0  0  0  0  0  0
    0.2430    0.8090    4.0330 H   0  0  0  0  0  0  0  0  0  0  0  0
   -1.1130    1.9540    4.0020 H   0  0  0  0  0  0  0  0  0  0  0  0
   -2.5470    0.4010    2.8670 H   0  0  0  0  0  0  0  0  0  0  0  0
   -0.2640   -1.6000    2.9560 H   0  0  0  0  0  0  0  0  0  0  0  0
    4.9020    2.2530   -4.7780 O   0  0  0  0  0  0  0  0  0  0  0  0
    4.1710    1.7680   -3.7040 C   0  0  0  0  0  0  0  0  0  0  0  0
    3.9820    2.5120   -2.5710 C   0  0  0  0  0  0  0  0  0  0  0  0
    3.2520    1.9990   -1.5260 C   0  0  0  0  0  0  0  0  0  0  0  0
    2.6840    0.7400   -1.5570 C   0  0  0  0  0  0  0  0  0  0  0  0
    1.9140    0.2050   -0.4230 C   0  0  0  0  0  0  0  0  0  0  0  0
    0.4550    0.5470   -0.4340 C   0  0  2  0  0  0  0  0  0  0  0  0
   -0.1400   -0.0590    0.7390 N   0  0  0  0  0  0  0  0  0  0  0  0
   -0.1890    0.0010   -1.6330 C   0  0  0  0  0  0  0  0  0  0  0  0
   -1.0970   -0.8930   -1.5400 O   0  0  0  0  0  0  0  0  0  0  0  0
    2.8800   -0.0000   -2.7010 C   0  0  0  0  0  0  0  0  0  0  0  0
    3.6190    0.5020   -3.7770 C   0  0  0  0  0  0  0  0  0  0  0  0
    0.1290    0.4010   -2.9230 O   0  0  0  0  0  0  0  0  0  0  0  0
    5.6220    1.6400   -5.1580 H   0  0  0  0  0  0  0  0  0  0  0  0
    4.3930    3.4980   -2.4730 H   0  0  0  0  0  0  0  0  0  0  0  0
    3.1170    2.6160   -0.6330 H   0  0  0  0  0  0  0  0  0  0  0  0
    1.9700   -0.9230   -0.3770 H   0  0  0  0  0  0  0  0  0  0  0  0
    2.4240    0.5410    0.5080 H   0  0  0  0  0  0  0  0  0  0  0  0
    0.2750    1.6460   -0.4400 H   0  0  0  0  0  0  0  0  0  0  0  0
   -0.0490   -1.0740    0.8720 H   0  0  0  0  0  0  0  0  0  0  0  0
    2.4590   -0.9910   -2.7660 H   0  0  0  0  0  0  0  0  0  0  0  0
    3.7660   -0.0850   -4.6660 H   0  0  0  0  0  0  0  0  0  0  0  0
  1  2  1  0  0  0  0
  2  8  1  0  0  0  0
  2  9  1  0  0  0  0
  3 10  1  6  0  0  0
  3  4  1  0  0  0  0
  3  2  1  0  0  0  0
  4 12  1  0  0  0  0
  4 11  1  0  0  0  0
  5  3  1  0  0  0  0
  5 16  1  0  0  0  0
  6  5  2  0  0  0  0
  7  1  1  0  0  0  0
 13 19  1  0  0  0  0
 14 13  1  0  0  0  0
 15 22  1  6  0  0  0
 15 16  1  0  0  0  0
 15 14  1  0  0  0  0
 16 23  1  0  0  0  0
 17 15  1  0  0  0  0
 18 17  2  0  0  0  0
 20 14  1  0  0  0  0
 21 14  1  0  0  0  0
 24 25  1  0  0  0  0
 25 26  1  0  0  0  0
 26 38  1  0  0  0  0
 26 27  2  0  0  0  0
 27 39  1  0  0  0  0
 28 27  1  0  0  0  0
 28 29  1  0  0  0  0
 29 40  1  0  0  0  0
 29 41  1  0  0  0  0
 30 42  1  1  0  0  0
 30 29  1  0  0  0  0
 30 31  1  0  0  0  0
 31 43  1  0  0  0  0
 31 17  1  0  0  0  0
 32 33  1  0  0  0  0
 32 30  1  0  0  0  0
 34 28  2  0  0  0  0
 35 25  2  0  0  0  0
 35 34  1  0  0  0  0
 36 32  2  0  0  0  0
 37 24  1  0  0  0  0
 44 34  1  0  0  0  0
 45 35  1  0  0  0  0
M  END
$$$$
