STA.pdb
 OpenBabel07022419103D

 37 36  0  0  1  0  0  0  0  0999 V2000
   -0.6450   -4.7070    2.3900 O   0  0  0  0  0  0  0  0  0  0  0  0
   -1.6010   -3.7120    2.6290 C   0  0  0  0  0  0  0  0  0  0  0  0
   -0.8410   -2.4020    2.7770 C   0  0  2  0  0  0  0  0  0  0  0  0
   -1.8050   -1.3500    3.0250 N   0  0  0  0  0  0  0  0  0  0  0  0
   -0.0950   -2.1870    1.5130 C   0  0  0  0  0  0  0  0  0  0  0  0
    0.7680   -3.0320    1.1930 O   0  0  0  0  0  0  0  0  0  0  0  0
   -1.0650   -5.4670    1.9150 H   0  0  0  0  0  0  0  0  0  0  0  0
   -2.3050   -3.6340    1.7830 H   0  0  0  0  0  0  0  0  0  0  0  0
   -2.1160   -3.9860    3.5810 H   0  0  0  0  0  0  0  0  0  0  0  0
   -0.1740   -2.4590    3.6610 H   0  0  0  0  0  0  0  0  0  0  0  0
   -2.5070   -1.2580    2.2660 H   0  0  0  0  0  0  0  0  0  0  0  0
   -2.3310   -1.6510    3.8990 H   0  0  0  0  0  0  0  0  0  0  0  0
   -1.0130   -2.2380   -2.1140 C   0  0  0  0  0  0  0  0  0  0  0  0
   -0.4230   -0.8790   -1.8150 C   0  0  1  0  0  0  0  0  0  0  0  0
   -1.3950    0.1200   -1.7960 O   0  0  0  0  0  0  0  0  0  0  0  0
    0.4290   -0.8790   -0.5780 C   0  0  2  0  0  0  0  0  0  0  0  0
   -0.2920   -1.0850    0.6400 N   0  0  0  0  0  0  0  0  0  0  0  0
    1.2460    0.3530   -0.5790 C   0  0  0  0  0  0  0  0  0  0  0  0
    1.9110    0.6050   -1.6170 O   0  0  0  0  0  0  0  0  0  0  0  0
   -1.9460   -2.1620   -2.7110 H   0  0  0  0  0  0  0  0  0  0  0  0
   -0.3210   -2.8740   -2.7030 H   0  0  0  0  0  0  0  0  0  0  0  0
   -1.3180   -2.7410   -1.1590 H   0  0  0  0  0  0  0  0  0  0  0  0
    0.2440   -0.6300   -2.6690 H   0  0  0  0  0  0  0  0  0  0  0  0
   -1.0330    0.8820   -1.3120 H   0  0  0  0  0  0  0  0  0  0  0  0
    1.1430   -1.7290   -0.6880 H   0  0  0  0  0  0  0  0  0  0  0  0
   -1.0190   -0.3910    0.9300 H   0  0  0  0  0  0  0  0  0  0  0  0
    1.3530    3.7110    0.6660 C   0  0  0  0  0  0  0  0  0  0  0  0
    2.1370    2.4540    0.4670 C   0  0  2  0  0  0  0  0  0  0  0  0
    1.3310    1.2600    0.4970 N   0  0  0  0  0  0  0  0  0  0  0  0
    3.2080    2.4130    1.5170 C   0  0  0  0  0  0  0  0  0  0  0  0
    4.0170    3.3650    1.6510 O   0  0  0  0  0  0  0  0  0  0  0  0
    3.3520    1.3330    2.3770 O   0  0  0  0  0  0  0  0  0  0  0  0
    0.5040    3.5340    1.3840 H   0  0  0  0  0  0  0  0  0  0  0  0
    0.9840    4.1540   -0.2820 H   0  0  0  0  0  0  0  0  0  0  0  0
    2.0040    4.4640    1.1550 H   0  0  0  0  0  0  0  0  0  0  0  0
    2.6480    2.5180   -0.5090 H   0  0  0  0  0  0  0  0  0  0  0  0
    0.7620    1.0250    1.3590 H   0  0  0  0  0  0  0  0  0  0  0  0
  1  2  1  0  0  0  0
  2  3  1  0  0  0  0
  2  9  1  0  0  0  0
  3  4  1  0  0  0  0
  3 10  1  1  0  0  0
  4 12  1  0  0  0  0
  5  3  1  0  0  0  0
  6  5  2  0  0  0  0
  7  1  1  0  0  0  0
  8  2  1  0  0  0  0
 11  4  1  0  0  0  0
 13 14  1  0  0  0  0
 13 22  1  0  0  0  0
 14 23  1  6  0  0  0
 14 15  1  0  0  0  0
 14 16  1  0  0  0  0
 15 24  1  0  0  0  0
 16 25  1  6  0  0  0
 16 17  1  0  0  0  0
 17 26  1  0  0  0  0
 17  5  1  0  0  0  0
 18 16  1  0  0  0  0
 18 29  1  0  0  0  0
 19 18  2  0  0  0  0
 20 13  1  0  0  0  0
 21 13  1  0  0  0  0
 27 35  1  0  0  0  0
 27 33  1  0  0  0  0
 28 36  1  6  0  0  0
 28 29  1  0  0  0  0
 28 27  1  0  0  0  0
 28 30  1  0  0  0  0
 29 37  1  0  0  0  0
 30 31  2  0  0  0  0
 30 32  1  0  0  0  0
 34 27  1  0  0  0  0
M  END
$$$$
