STC.pdb
 OpenBabel07022419103D

 38 37  0  0  1  0  0  0  0  0999 V2000
   -2.3260   -1.5680    0.5890 O   0  0  0  0  0  0  0  0  0  0  0  0
   -2.0260   -2.9130    0.7940 C   0  0  0  0  0  0  0  0  0  0  0  0
   -1.0320   -3.4140   -0.2620 C   0  0  2  0  0  0  0  0  0  0  0  0
   -0.7960   -4.8100    0.0430 N   0  0  0  0  0  0  0  0  0  0  0  0
    0.2230   -2.6650   -0.0680 C   0  0  0  0  0  0  0  0  0  0  0  0
    1.2520   -3.2660    0.3160 O   0  0  0  0  0  0  0  0  0  0  0  0
   -2.4880   -1.0830    1.4330 H   0  0  0  0  0  0  0  0  0  0  0  0
   -1.5870   -3.0140    1.8050 H   0  0  0  0  0  0  0  0  0  0  0  0
   -2.9280   -3.5560    0.7700 H   0  0  0  0  0  0  0  0  0  0  0  0
   -1.4540   -3.2860   -1.2780 H   0  0  0  0  0  0  0  0  0  0  0  0
   -1.6190   -5.2830    0.4590 H   0  0  0  0  0  0  0  0  0  0  0  0
   -0.4100   -5.3100   -0.7940 H   0  0  0  0  0  0  0  0  0  0  0  0
    2.3180   -1.1480   -2.3720 C   0  0  0  0  0  0  0  0  0  0  0  0
    2.1320   -0.0240   -1.3890 C   0  0  1  0  0  0  0  0  0  0  0  0
    1.2490    0.8920   -1.9480 O   0  0  0  0  0  0  0  0  0  0  0  0
    1.5980   -0.5910   -0.0880 C   0  0  2  0  0  0  0  0  0  0  0  0
    0.3520   -1.2610   -0.2940 N   0  0  0  0  0  0  0  0  0  0  0  0
    1.5560    0.4500    0.9680 C   0  0  0  0  0  0  0  0  0  0  0  0
    2.6110    1.0780    1.2030 O   0  0  0  0  0  0  0  0  0  0  0  0
    2.6860   -0.6830   -3.3240 H   0  0  0  0  0  0  0  0  0  0  0  0
    3.1170   -1.8550   -2.0640 H   0  0  0  0  0  0  0  0  0  0  0  0
    1.3870   -1.6700   -2.6030 H   0  0  0  0  0  0  0  0  0  0  0  0
    3.1090    0.4530   -1.2390 H   0  0  0  0  0  0  0  0  0  0  0  0
    1.6000    1.0920   -2.8600 H   0  0  0  0  0  0  0  0  0  0  0  0
    2.3630   -1.3420    0.2550 H   0  0  0  0  0  0  0  0  0  0  0  0
   -0.5010   -0.7550   -0.6140 H   0  0  0  0  0  0  0  0  0  0  0  0
    0.4010    0.7760    1.7250 N   0  0  0  0  0  0  0  0  0  0  0  0
    0.3520    1.7760    2.7420 C   0  0  1  0  0  0  0  0  0  0  0  0
   -0.6440    2.8760    2.4370 C   0  0  0  0  0  0  0  0  0  0  0  0
   -0.6350    4.0910    3.7760 S   0  0  0  0  0  0  0  0  0  0  0  0
    0.0240    1.1480    4.0460 C   0  0  0  0  0  0  0  0  0  0  0  0
   -0.1570   -0.0870    4.0930 O   0  0  0  0  0  0  0  0  0  0  0  0
   -0.0900    1.8910    5.2180 O   0  0  0  0  0  0  0  0  0  0  0  0
   -0.4620    0.2310    1.5010 H   0  0  0  0  0  0  0  0  0  0  0  0
    1.3350    2.2920    2.8920 H   0  0  0  0  0  0  0  0  0  0  0  0
   -0.2870    3.3560    1.4890 H   0  0  0  0  0  0  0  0  0  0  0  0
   -1.6520    2.5050    2.2660 H   0  0  0  0  0  0  0  0  0  0  0  0
    0.6720    4.4620    4.1230 H   0  0  0  0  0  0  0  0  0  0  0  0
  1  2  1  0  0  0  0
  1  7  1  0  0  0  0
  2  8  1  0  0  0  0
  3 10  1  6  0  0  0
  3  5  1  0  0  0  0
  3  4  1  0  0  0  0
  3  2  1  0  0  0  0
  4 11  1  0  0  0  0
  5  6  2  0  0  0  0
  9  2  1  0  0  0  0
 12  4  1  0  0  0  0
 13 21  1  0  0  0  0
 13 14  1  0  0  0  0
 14 23  1  1  0  0  0
 14 16  1  0  0  0  0
 15 14  1  0  0  0  0
 16 25  1  1  0  0  0
 16 18  1  0  0  0  0
 17 16  1  0  0  0  0
 17  5  1  0  0  0  0
 18 19  2  0  0  0  0
 18 27  1  0  0  0  0
 20 13  1  0  0  0  0
 22 13  1  0  0  0  0
 24 15  1  0  0  0  0
 26 17  1  0  0  0  0
 27 28  1  0  0  0  0
 28 35  1  1  0  0  0
 28 31  1  0  0  0  0
 29 28  1  0  0  0  0
 29 30  1  0  0  0  0
 30 38  1  0  0  0  0
 31 32  2  0  0  0  0
 31 33  1  0  0  0  0
 34 27  1  0  0  0  0
 36 29  1  0  0  0  0
 37 29  1  0  0  0  0
M  END
$$$$
