STD.pdb
 OpenBabel07022419103D

 40 39  0  0  1  0  0  0  0  0999 V2000
    0.0170   -2.1630    3.2370 O   0  0  0  0  0  0  0  0  0  0  0  0
   -0.5450   -3.3570    2.7990 C   0  0  0  0  0  0  0  0  0  0  0  0
   -1.7500   -3.1580    1.9300 C   0  0  2  0  0  0  0  0  0  0  0  0
   -2.2460   -4.4620    1.5380 N   0  0  0  0  0  0  0  0  0  0  0  0
   -1.4790   -2.3840    0.7130 C   0  0  0  0  0  0  0  0  0  0  0  0
   -1.6640   -2.8740   -0.4360 O   0  0  0  0  0  0  0  0  0  0  0  0
    0.9710   -2.2590    3.4770 H   0  0  0  0  0  0  0  0  0  0  0  0
   -0.9030   -3.8890    3.7260 H   0  0  0  0  0  0  0  0  0  0  0  0
    0.2130   -4.0310    2.3470 H   0  0  0  0  0  0  0  0  0  0  0  0
   -2.5460   -2.7000    2.5650 H   0  0  0  0  0  0  0  0  0  0  0  0
   -1.9430   -5.1450    2.2640 H   0  0  0  0  0  0  0  0  0  0  0  0
   -1.8610   -4.7940    0.6270 H   0  0  0  0  0  0  0  0  0  0  0  0
   -3.1010    0.5290   -0.6810 C   0  0  0  0  0  0  0  0  0  0  0  0
   -1.6460    0.9330   -0.5750 C   0  0  1  0  0  0  0  0  0  0  0  0
   -1.5400    1.7910    0.5240 O   0  0  0  0  0  0  0  0  0  0  0  0
   -0.7190   -0.2560   -0.4340 C   0  0  2  0  0  0  0  0  0  0  0  0
   -0.9910   -1.0330    0.7310 N   0  0  0  0  0  0  0  0  0  0  0  0
    0.6700    0.2280   -0.5250 C   0  0  0  0  0  0  0  0  0  0  0  0
    1.0350    0.9260   -1.5060 O   0  0  0  0  0  0  0  0  0  0  0  0
   -3.6970    0.8040    0.1970 H   0  0  0  0  0  0  0  0  0  0  0  0
   -3.5410    0.9520   -1.6310 H   0  0  0  0  0  0  0  0  0  0  0  0
   -3.1130   -0.5740   -0.8510 H   0  0  0  0  0  0  0  0  0  0  0  0
   -1.3740    1.5450   -1.4590 H   0  0  0  0  0  0  0  0  0  0  0  0
   -1.5770    1.2860    1.3750 H   0  0  0  0  0  0  0  0  0  0  0  0
   -0.9440   -0.9040   -1.3310 H   0  0  0  0  0  0  0  0  0  0  0  0
   -0.8400   -0.6320    1.7040 H   0  0  0  0  0  0  0  0  0  0  0  0
    1.6810   -0.0420    0.4540 N   0  0  0  0  0  0  0  0  0  0  0  0
    3.0270    0.4600    0.3110 C   0  0  1  0  0  0  0  0  0  0  0  0
    3.4140    1.4210    1.4140 C   0  0  0  0  0  0  0  0  0  0  0  0
    2.5050    2.6080    1.4320 C   0  0  0  0  0  0  0  0  0  0  0  0
    1.3200    2.4300    1.8340 O   0  0  0  0  0  0  0  0  0  0  0  0
    4.0300   -0.6190    0.2280 C   0  0  0  0  0  0  0  0  0  0  0  0
    3.7140   -1.8280    0.2820 O   0  0  0  0  0  0  0  0  0  0  0  0
    2.9610    3.8490    1.0200 O   0  0  0  0  0  0  0  0  0  0  0  0
    5.3630   -0.2880    0.0860 O   0  0  0  0  0  0  0  0  0  0  0  0
    1.3890   -0.6200    1.2730 H   0  0  0  0  0  0  0  0  0  0  0  0
    3.0710    1.0340   -0.6380 H   0  0  0  0  0  0  0  0  0  0  0  0
    3.4030    0.8890    2.3750 H   0  0  0  0  0  0  0  0  0  0  0  0
    4.4370    1.7530    1.2120 H   0  0  0  0  0  0  0  0  0  0  0  0
    2.3000    4.4720    0.5750 H   0  0  0  0  0  0  0  0  0  0  0  0
  1  7  1  0  0  0  0
  2  1  1  0  0  0  0
  2  8  1  0  0  0  0
  3 10  1  1  0  0  0
  3  2  1  0  0  0  0
  4  3  1  0  0  0  0
  4 11  1  0  0  0  0
  5 17  1  0  0  0  0
  5  3  1  0  0  0  0
  6  5  2  0  0  0  0
  9  2  1  0  0  0  0
 12  4  1  0  0  0  0
 13 14  1  0  0  0  0
 13 20  1  0  0  0  0
 14 23  1  6  0  0  0
 14 16  1  0  0  0  0
 14 15  1  0  0  0  0
 15 24  1  0  0  0  0
 16 25  1  6  0  0  0
 16 17  1  0  0  0  0
 17 26  1  0  0  0  0
 18 16  1  0  0  0  0
 18 27  1  0  0  0  0
 19 18  2  0  0  0  0
 21 13  1  0  0  0  0
 22 13  1  0  0  0  0
 27 36  1  0  0  0  0
 28 37  1  6  0  0  0
 28 27  1  0  0  0  0
 28 29  1  0  0  0  0
 29 30  1  0  0  0  0
 29 38  1  0  0  0  0
 30 31  2  0  0  0  0
 32 33  1  0  0  0  0
 32 28  1  0  0  0  0
 34 30  1  0  0  0  0
 35 32  2  0  0  0  0
 39 29  1  0  0  0  0
 40 34  1  0  0  0  0
M  END
$$$$
