STE.pdb
 OpenBabel07022419103D

 43 42  0  0  1  0  0  0  0  0999 V2000
    2.4910   -1.9620    3.3890 O   0  0  0  0  0  0  0  0  0  0  0  0
    2.2590   -2.8610    2.3510 C   0  0  0  0  0  0  0  0  0  0  0  0
    3.2510   -2.7010    1.2310 C   0  0  2  0  0  0  0  0  0  0  0  0
    4.5690   -2.9400    1.7850 N   0  0  0  0  0  0  0  0  0  0  0  0
    3.2050   -1.3940    0.5810 C   0  0  0  0  0  0  0  0  0  0  0  0
    4.2380   -0.6800    0.5780 O   0  0  0  0  0  0  0  0  0  0  0  0
    2.1260   -2.2720    4.2470 H   0  0  0  0  0  0  0  0  0  0  0  0
    1.2110   -2.7430    2.0390 H   0  0  0  0  0  0  0  0  0  0  0  0
    2.3940   -3.8780    2.7770 H   0  0  0  0  0  0  0  0  0  0  0  0
    3.0810   -3.4800    0.4700 H   0  0  0  0  0  0  0  0  0  0  0  0
    4.6640   -3.9740    1.9260 H   0  0  0  0  0  0  0  0  0  0  0  0
    4.5700   -2.5080    2.7570 H   0  0  0  0  0  0  0  0  0  0  0  0
    0.3790   -0.4640   -2.2650 C   0  0  0  0  0  0  0  0  0  0  0  0
    1.7610    0.1800   -2.1790 C   0  0  1  0  0  0  0  0  0  0  0  0
    1.7030    1.3610   -2.9060 O   0  0  0  0  0  0  0  0  0  0  0  0
    2.0210    0.4320   -0.7000 C   0  0  2  0  0  0  0  0  0  0  0  0
    2.0580   -0.8600   -0.0600 N   0  0  0  0  0  0  0  0  0  0  0  0
    0.8880    1.2650   -0.2130 C   0  0  0  0  0  0  0  0  0  0  0  0
    0.7340    2.4210   -0.6870 O   0  0  0  0  0  0  0  0  0  0  0  0
   -0.3240    0.0020   -1.5270 H   0  0  0  0  0  0  0  0  0  0  0  0
   -0.0540   -0.2420   -3.2680 H   0  0  0  0  0  0  0  0  0  0  0  0
    0.4230   -1.5580   -2.1530 H   0  0  0  0  0  0  0  0  0  0  0  0
    2.4660   -0.5560   -2.6070 H   0  0  0  0  0  0  0  0  0  0  0  0
    1.0660    1.2670   -3.6840 H   0  0  0  0  0  0  0  0  0  0  0  0
    2.9930    0.9610   -0.6330 H   0  0  0  0  0  0  0  0  0  0  0  0
    1.1840   -1.4260   -0.0760 H   0  0  0  0  0  0  0  0  0  0  0  0
   -0.0430    0.8420    0.7590 N   0  0  0  0  0  0  0  0  0  0  0  0
   -1.1200    1.7040    1.1840 C   0  0  1  0  0  0  0  0  0  0  0  0
   -2.4180    1.0160    0.8380 C   0  0  0  0  0  0  0  0  0  0  0  0
   -2.4870   -0.3000    1.5630 C   0  0  0  0  0  0  0  0  0  0  0  0
   -3.7800   -0.9900    1.2400 C   0  0  0  0  0  0  0  0  0  0  0  0
   -4.5740   -0.4210    0.4650 O   0  0  0  0  0  0  0  0  0  0  0  0
   -1.1120    1.9240    2.6560 C   0  0  0  0  0  0  0  0  0  0  0  0
   -0.2780    1.4250    3.4290 O   0  0  0  0  0  0  0  0  0  0  0  0
   -4.0980   -2.2230    1.7770 O   0  0  0  0  0  0  0  0  0  0  0  0
   -2.1010    2.7370    3.1820 O   0  0  0  0  0  0  0  0  0  0  0  0
    0.0760   -0.1020    1.1610 H   0  0  0  0  0  0  0  0  0  0  0  0
   -1.0510    2.7080    0.7060 H   0  0  0  0  0  0  0  0  0  0  0  0
   -2.3370    0.7640   -0.2600 H   0  0  0  0  0  0  0  0  0  0  0  0
   -3.2990    1.6530    1.0260 H   0  0  0  0  0  0  0  0  0  0  0  0
   -1.6830   -0.9950    1.3260 H   0  0  0  0  0  0  0  0  0  0  0  0
   -2.4930   -0.1710    2.6690 H   0  0  0  0  0  0  0  0  0  0  0  0
   -5.0410   -2.5830    1.8010 H   0  0  0  0  0  0  0  0  0  0  0  0
  1  7  1  0  0  0  0
  2  9  1  0  0  0  0
  2  1  1  0  0  0  0
  3 10  1  6  0  0  0
  3  4  1  0  0  0  0
  3  2  1  0  0  0  0
  4 11  1  0  0  0  0
  4 12  1  0  0  0  0
  5  3  1  0  0  0  0
  6  5  2  0  0  0  0
  8  2  1  0  0  0  0
 13 14  1  0  0  0  0
 13 22  1  0  0  0  0
 13 20  1  0  0  0  0
 14 23  1  6  0  0  0
 14 16  1  0  0  0  0
 15 14  1  0  0  0  0
 16 25  1  1  0  0  0
 16 18  1  0  0  0  0
 16 17  1  0  0  0  0
 17  5  1  0  0  0  0
 18 27  1  0  0  0  0
 19 18  2  0  0  0  0
 21 13  1  0  0  0  0
 24 15  1  0  0  0  0
 26 17  1  0  0  0  0
 27 37  1  0  0  0  0
 27 28  1  0  0  0  0
 28 38  1  6  0  0  0
 28 33  1  0  0  0  0
 29 40  1  0  0  0  0
 29 28  1  0  0  0  0
 29 30  1  0  0  0  0
 30 42  1  0  0  0  0
 31 30  1  0  0  0  0
 31 35  1  0  0  0  0
 32 31  2  0  0  0  0
 33 36  2  0  0  0  0
 33 34  1  0  0  0  0
 35 43  1  0  0  0  0
 39 29  1  0  0  0  0
 41 30  1  0  0  0  0
M  END
$$$$
