STI.pdb
 OpenBabel07022419103D

 46 45  0  0  1  0  0  0  0  0999 V2000
    4.6580   -3.7870   -1.0620 O   0  0  0  0  0  0  0  0  0  0  0  0
    4.2560   -4.4930    0.0470 C   0  0  0  0  0  0  0  0  0  0  0  0
    2.8010   -4.2860    0.3980 C   0  0  2  0  0  0  0  0  0  0  0  0
    2.0080   -4.7180   -0.7250 N   0  0  0  0  0  0  0  0  0  0  0  0
    2.5180   -2.8750    0.7630 C   0  0  0  0  0  0  0  0  0  0  0  0
    3.0960   -2.2910    1.7140 O   0  0  0  0  0  0  0  0  0  0  0  0
    5.5610   -3.3610   -0.9450 H   0  0  0  0  0  0  0  0  0  0  0  0
    4.8620   -4.3090    0.9510 H   0  0  0  0  0  0  0  0  0  0  0  0
    4.3630   -5.5800   -0.2020 H   0  0  0  0  0  0  0  0  0  0  0  0
    2.5640   -4.9570    1.2460 H   0  0  0  0  0  0  0  0  0  0  0  0
    0.9910   -4.7590   -0.5310 H   0  0  0  0  0  0  0  0  0  0  0  0
    2.2190   -4.1980   -1.6070 H   0  0  0  0  0  0  0  0  0  0  0  0
    3.1160    0.0370   -1.0350 C   0  0  0  0  0  0  0  0  0  0  0  0
    1.6080    0.1290   -0.8640 C   0  0  1  0  0  0  0  0  0  0  0  0
    0.9920   -0.2130   -2.0440 O   0  0  0  0  0  0  0  0  0  0  0  0
    1.2150   -0.7780    0.2900 C   0  0  2  0  0  0  0  0  0  0  0  0
    1.5610   -2.1370    0.0230 N   0  0  0  0  0  0  0  0  0  0  0  0
   -0.2370   -0.5870    0.5260 C   0  0  0  0  0  0  0  0  0  0  0  0
   -1.0650   -1.5480    0.4880 O   0  0  0  0  0  0  0  0  0  0  0  0
    3.5000    0.9450   -1.5740 H   0  0  0  0  0  0  0  0  0  0  0  0
    3.6060   -0.0180   -0.0380 H   0  0  0  0  0  0  0  0  0  0  0  0
    3.3270   -0.8790   -1.6040 H   0  0  0  0  0  0  0  0  0  0  0  0
    1.3220    1.1750   -0.5890 H   0  0  0  0  0  0  0  0  0  0  0  0
    1.5800   -0.8020   -2.5550 H   0  0  0  0  0  0  0  0  0  0  0  0
    1.8310   -0.4350    1.1660 H   0  0  0  0  0  0  0  0  0  0  0  0
    1.0710   -2.6210   -0.7790 H   0  0  0  0  0  0  0  0  0  0  0  0
   -3.9920    1.6600    4.3570 C   0  0  0  0  0  0  0  0  0  0  0  0
   -3.8840    1.5420    2.8300 C   0  0  0  0  0  0  0  0  0  0  0  0
   -2.4420    1.2890    2.4860 C   0  0  2  0  0  0  0  0  0  0  0  0
   -1.5490    2.3940    2.9490 C   0  0  0  0  0  0  0  0  0  0  0  0
   -2.2330    0.8930    1.0470 C   0  0  2  0  0  0  0  0  0  0  0  0
   -0.8210    0.6720    0.8120 N   0  0  0  0  0  0  0  0  0  0  0  0
   -2.8550    1.7900    0.0680 C   0  0  0  0  0  0  0  0  0  0  0  0
   -2.2440    2.3360   -0.8880 O   0  0  0  0  0  0  0  0  0  0  0  0
   -4.2070    2.0940    0.1520 O   0  0  0  0  0  0  0  0  0  0  0  0
   -3.7420    2.6850    4.6360 H   0  0  0  0  0  0  0  0  0  0  0  0
   -3.2040    0.9930    4.7650 H   0  0  0  0  0  0  0  0  0  0  0  0
   -4.9830    1.3170    4.7070 H   0  0  0  0  0  0  0  0  0  0  0  0
   -4.5530    0.7360    2.4710 H   0  0  0  0  0  0  0  0  0  0  0  0
   -4.2790    2.4970    2.4420 H   0  0  0  0  0  0  0  0  0  0  0  0
   -2.1490    0.3840    3.1030 H   0  0  0  0  0  0  0  0  0  0  0  0
   -1.8510    3.3930    2.5780 H   0  0  0  0  0  0  0  0  0  0  0  0
   -1.6670    2.4510    4.0680 H   0  0  0  0  0  0  0  0  0  0  0  0
   -0.4980    2.1440    2.7750 H   0  0  0  0  0  0  0  0  0  0  0  0
   -2.7090   -0.1280    0.9470 H   0  0  0  0  0  0  0  0  0  0  0  0
   -0.2050    1.5110    0.8590 H   0  0  0  0  0  0  0  0  0  0  0  0
  1  7  1  0  0  0  0
  1  2  1  0  0  0  0
  2  3  1  0  0  0  0
  2  8  1  0  0  0  0
  3  5  1  0  0  0  0
  3 10  1  1  0  0  0
  4 11  1  0  0  0  0
  4  3  1  0  0  0  0
  5  6  2  0  0  0  0
  9  2  1  0  0  0  0
 12  4  1  0  0  0  0
 13 14  1  0  0  0  0
 13 21  1  0  0  0  0
 14 23  1  1  0  0  0
 14 16  1  0  0  0  0
 15 14  1  0  0  0  0
 16 18  1  0  0  0  0
 16 25  1  1  0  0  0
 17 16  1  0  0  0  0
 17  5  1  0  0  0  0
 18 32  1  0  0  0  0
 19 18  2  0  0  0  0
 20 13  1  0  0  0  0
 22 13  1  0  0  0  0
 24 15  1  0  0  0  0
 26 17  1  0  0  0  0
 27 36  1  0  0  0  0
 27 38  1  0  0  0  0
 27 37  1  0  0  0  0
 28 27  1  0  0  0  0
 29 28  1  0  0  0  0
 29 30  1  0  0  0  0
 29 41  1  1  0  0  0
 30 43  1  0  0  0  0
 31 45  1  6  0  0  0
 31 29  1  0  0  0  0
 32 46  1  0  0  0  0
 32 31  1  0  0  0  0
 33 35  1  0  0  0  0
 33 31  1  0  0  0  0
 34 33  2  0  0  0  0
 39 28  1  0  0  0  0
 40 28  1  0  0  0  0
 42 30  1  0  0  0  0
 44 30  1  0  0  0  0
M  END
$$$$
