STK.pdb
 OpenBabel07022419103D

 48 47  0  0  1  0  0  0  0  0999 V2000
    3.5010   -2.3270    3.0800 O   0  0  0  0  0  0  0  0  0  0  0  0
    3.5200   -3.0250    1.8770 C   0  0  0  0  0  0  0  0  0  0  0  0
    4.3540   -2.2770    0.8630 C   0  0  2  0  0  0  0  0  0  0  0  0
    5.6870   -2.1490    1.3650 N   0  0  0  0  0  0  0  0  0  0  0  0
    3.7470   -0.9870    0.4790 C   0  0  0  0  0  0  0  0  0  0  0  0
    4.4340    0.0550    0.6250 O   0  0  0  0  0  0  0  0  0  0  0  0
    2.5980   -2.3900    3.4870 H   0  0  0  0  0  0  0  0  0  0  0  0
    2.4930   -3.2210    1.5170 H   0  0  0  0  0  0  0  0  0  0  0  0
    3.9940   -4.0100    2.0510 H   0  0  0  0  0  0  0  0  0  0  0  0
    4.4120   -2.8920   -0.0730 H   0  0  0  0  0  0  0  0  0  0  0  0
    6.2920   -1.4990    0.8380 H   0  0  0  0  0  0  0  0  0  0  0  0
    5.7480   -2.0450    2.3960 H   0  0  0  0  0  0  0  0  0  0  0  0
    0.5990   -0.8730   -2.2500 C   0  0  0  0  0  0  0  0  0  0  0  0
    1.5640    0.2600   -1.9000 C   0  0  1  0  0  0  0  0  0  0  0  0
    0.9940    1.4260   -2.3780 O   0  0  0  0  0  0  0  0  0  0  0  0
    1.8240    0.3090   -0.4160 C   0  0  2  0  0  0  0  0  0  0  0  0
    2.4230   -0.9690   -0.0370 N   0  0  0  0  0  0  0  0  0  0  0  0
    0.5240    0.5130    0.2690 C   0  0  0  0  0  0  0  0  0  0  0  0
   -0.1250    1.5670    0.0520 O   0  0  0  0  0  0  0  0  0  0  0  0
   -0.2010   -0.9570   -1.4850 H   0  0  0  0  0  0  0  0  0  0  0  0
    0.0720   -0.6150   -3.2020 H   0  0  0  0  0  0  0  0  0  0  0  0
    1.1290   -1.8240   -2.4330 H   0  0  0  0  0  0  0  0  0  0  0  0
    2.4990    0.0830   -2.4790 H   0  0  0  0  0  0  0  0  0  0  0  0
    1.1630    1.4640   -3.3490 H   0  0  0  0  0  0  0  0  0  0  0  0
    2.5390    1.1290   -0.2340 H   0  0  0  0  0  0  0  0  0  0  0  0
    1.8930   -1.8620   -0.1390 H   0  0  0  0  0  0  0  0  0  0  0  0
   -0.0420   -0.4190    1.1670 N   0  0  0  0  0  0  0  0  0  0  0  0
   -1.3180   -0.1470    1.7970 C   0  0  1  0  0  0  0  0  0  0  0  0
   -2.2440   -1.2680    1.3620 C   0  0  0  0  0  0  0  0  0  0  0  0
   -3.6240   -1.1520    1.9220 C   0  0  0  0  0  0  0  0  0  0  0  0
   -4.3010    0.1260    1.5100 C   0  0  0  0  0  0  0  0  0  0  0  0
   -4.4350    0.2460    0.0180 C   0  0  0  0  0  0  0  0  0  0  0  0
   -5.0940    1.4970   -0.3020 N   0  0  0  0  0  0  0  0  0  0  0  0
   -1.1610   -0.0770    3.2680 C   0  0  0  0  0  0  0  0  0  0  0  0
   -0.0170   -0.2560    3.7490 O   0  0  0  0  0  0  0  0  0  0  0  0
   -2.2040    0.1750    4.1430 O   0  0  0  0  0  0  0  0  0  0  0  0
    0.4490   -1.3060    1.3840 H   0  0  0  0  0  0  0  0  0  0  0  0
   -1.7240    0.8450    1.4660 H   0  0  0  0  0  0  0  0  0  0  0  0
   -1.7790   -2.2170    1.6900 H   0  0  0  0  0  0  0  0  0  0  0  0
   -2.2820   -1.2400    0.2580 H   0  0  0  0  0  0  0  0  0  0  0  0
   -4.2130   -1.9960    1.4660 H   0  0  0  0  0  0  0  0  0  0  0  0
   -3.6100   -1.3000    3.0120 H   0  0  0  0  0  0  0  0  0  0  0  0
   -5.3170    0.1350    1.9470 H   0  0  0  0  0  0  0  0  0  0  0  0
   -3.7480    1.0100    1.8790 H   0  0  0  0  0  0  0  0  0  0  0  0
   -5.0110   -0.5880   -0.4160 H   0  0  0  0  0  0  0  0  0  0  0  0
   -3.4200    0.2920   -0.4590 H   0  0  0  0  0  0  0  0  0  0  0  0
   -4.6640    2.3050    0.1640 H   0  0  0  0  0  0  0  0  0  0  0  0
   -5.2800    1.6150   -1.3070 H   0  0  0  0  0  0  0  0  0  0  0  0
  1  7  1  0  0  0  0
  2  9  1  0  0  0  0
  2  1  1  0  0  0  0
  3 10  1  6  0  0  0
  3  4  1  0  0  0  0
  3  2  1  0  0  0  0
  4 12  1  0  0  0  0
  5  6  2  0  0  0  0
  5  3  1  0  0  0  0
  8  2  1  0  0  0  0
 11  4  1  0  0  0  0
 13 14  1  0  0  0  0
 13 20  1  0  0  0  0
 14 23  1  6  0  0  0
 14 16  1  0  0  0  0
 15 14  1  0  0  0  0
 16 25  1  1  0  0  0
 16 17  1  0  0  0  0
 16 18  1  0  0  0  0
 17  5  1  0  0  0  0
 18 27  1  0  0  0  0
 19 18  2  0  0  0  0
 21 13  1  0  0  0  0
 22 13  1  0  0  0  0
 24 15  1  0  0  0  0
 26 17  1  0  0  0  0
 27 37  1  0  0  0  0
 27 28  1  0  0  0  0
 28 38  1  6  0  0  0
 28 34  1  0  0  0  0
 29 39  1  0  0  0  0
 29 28  1  0  0  0  0
 29 30  1  0  0  0  0
 30 42  1  0  0  0  0
 31 44  1  0  0  0  0
 31 30  1  0  0  0  0
 31 43  1  0  0  0  0
 32 31  1  0  0  0  0
 33 32  1  0  0  0  0
 33 47  1  0  0  0  0
 34 35  2  0  0  0  0
 34 36  1  0  0  0  0
 40 29  1  0  0  0  0
 41 30  1  0  0  0  0
 45 32  1  0  0  0  0
 46 32  1  0  0  0  0
 48 33  1  0  0  0  0
M  END
$$$$
