STL.pdb
 OpenBabel07022419103D

 46 45  0  0  1  0  0  0  0  0999 V2000
    3.8610   -0.7080   -0.7140 O   0  0  0  0  0  0  0  0  0  0  0  0
    3.7570   -1.3400    0.5260 C   0  0  0  0  0  0  0  0  0  0  0  0
    3.2510   -2.7590    0.3610 C   0  0  2  0  0  0  0  0  0  0  0  0
    4.1830   -3.4800   -0.4700 N   0  0  0  0  0  0  0  0  0  0  0  0
    1.8840   -2.7260   -0.2510 C   0  0  0  0  0  0  0  0  0  0  0  0
    1.6150   -3.2470   -1.3580 O   0  0  0  0  0  0  0  0  0  0  0  0
    3.4320   -1.2890   -1.3840 H   0  0  0  0  0  0  0  0  0  0  0  0
    3.1510   -0.7980    1.2540 H   0  0  0  0  0  0  0  0  0  0  0  0
    4.7920   -1.4110    0.9490 H   0  0  0  0  0  0  0  0  0  0  0  0
    3.2070   -3.2150    1.3670 H   0  0  0  0  0  0  0  0  0  0  0  0
    5.1360   -3.3060   -0.0700 H   0  0  0  0  0  0  0  0  0  0  0  0
    3.9960   -4.4960   -0.3680 H   0  0  0  0  0  0  0  0  0  0  0  0
   -2.8560   -2.8320    0.1020 C   0  0  0  0  0  0  0  0  0  0  0  0
   -1.4820   -2.8530    0.7490 C   0  0  1  0  0  0  0  0  0  0  0  0
   -1.0290   -4.1710    0.7260 O   0  0  0  0  0  0  0  0  0  0  0  0
   -0.5280   -2.0090   -0.0960 C   0  0  2  0  0  0  0  0  0  0  0  0
    0.8190   -2.0820    0.4320 N   0  0  0  0  0  0  0  0  0  0  0  0
   -1.0280   -0.6300   -0.1690 C   0  0  0  0  0  0  0  0  0  0  0  0
   -2.1800   -0.3570   -0.5920 O   0  0  0  0  0  0  0  0  0  0  0  0
   -3.3350   -3.8520    0.1660 H   0  0  0  0  0  0  0  0  0  0  0  0
   -3.5460   -2.1750    0.6800 H   0  0  0  0  0  0  0  0  0  0  0  0
   -2.8260   -2.5560   -0.9650 H   0  0  0  0  0  0  0  0  0  0  0  0
   -1.5490   -2.4850    1.7850 H   0  0  0  0  0  0  0  0  0  0  0  0
   -1.7510   -4.7570    0.4110 H   0  0  0  0  0  0  0  0  0  0  0  0
   -0.5130   -2.5040   -1.0870 H   0  0  0  0  0  0  0  0  0  0  0  0
    1.0270   -1.6440    1.3590 H   0  0  0  0  0  0  0  0  0  0  0  0
   -1.5760    2.6200    3.8740 C   0  0  0  0  0  0  0  0  0  0  0  0
   -1.6370    1.8590    2.5270 C   0  0  0  0  0  0  0  0  0  0  0  0
   -1.3530    0.4260    2.8380 C   0  0  0  0  0  0  0  0  0  0  0  0
   -0.6950    2.4580    1.5570 C   0  0  0  0  0  0  0  0  0  0  0  0
   -0.6510    1.8570    0.1940 C   0  0  2  0  0  0  0  0  0  0  0  0
   -0.2410    0.4850    0.2340 N   0  0  0  0  0  0  0  0  0  0  0  0
    0.2390    2.6760   -0.6760 C   0  0  0  0  0  0  0  0  0  0  0  0
    1.2100    2.1700   -1.2700 O   0  0  0  0  0  0  0  0  0  0  0  0
   -0.0270    4.0160   -0.8200 O   0  0  0  0  0  0  0  0  0  0  0  0
   -0.7360    2.2270    4.4770 H   0  0  0  0  0  0  0  0  0  0  0  0
   -2.5060    2.4350    4.4350 H   0  0  0  0  0  0  0  0  0  0  0  0
   -1.5030    3.6900    3.6440 H   0  0  0  0  0  0  0  0  0  0  0  0
   -2.7080    1.9520    2.2050 H   0  0  0  0  0  0  0  0  0  0  0  0
   -0.3710    0.0520    2.5670 H   0  0  0  0  0  0  0  0  0  0  0  0
   -1.4800    0.2620    3.9650 H   0  0  0  0  0  0  0  0  0  0  0  0
   -2.1300   -0.2440    2.4010 H   0  0  0  0  0  0  0  0  0  0  0  0
   -0.8300    3.5810    1.5030 H   0  0  0  0  0  0  0  0  0  0  0  0
    0.3740    2.3710    1.9510 H   0  0  0  0  0  0  0  0  0  0  0  0
   -1.7000    1.8870   -0.2190 H   0  0  0  0  0  0  0  0  0  0  0  0
    0.7410    0.2900    0.5750 H   0  0  0  0  0  0  0  0  0  0  0  0
  1  2  1  0  0  0  0
  2  9  1  0  0  0  0
  2  8  1  0  0  0  0
  3  2  1  0  0  0  0
  3 10  1  1  0  0  0
  4 12  1  0  0  0  0
  4 11  1  0  0  0  0
  4  3  1  0  0  0  0
  5  3  1  0  0  0  0
  5 17  1  0  0  0  0
  6  5  2  0  0  0  0
  7  1  1  0  0  0  0
 13 20  1  0  0  0  0
 13 21  1  0  0  0  0
 13 14  1  0  0  0  0
 14 23  1  1  0  0  0
 15 14  1  0  0  0  0
 16 25  1  6  0  0  0
 16 17  1  0  0  0  0
 16 14  1  0  0  0  0
 17 26  1  0  0  0  0
 18 16  1  0  0  0  0
 18 32  1  0  0  0  0
 19 18  2  0  0  0  0
 22 13  1  0  0  0  0
 24 15  1  0  0  0  0
 27 37  1  0  0  0  0
 27 36  1  0  0  0  0
 28 29  1  0  0  0  0
 28 27  1  0  0  0  0
 29 41  1  0  0  0  0
 30 44  1  0  0  0  0
 30 28  1  0  0  0  0
 31 45  1  6  0  0  0
 31 32  1  0  0  0  0
 31 30  1  0  0  0  0
 32 46  1  0  0  0  0
 33 31  1  0  0  0  0
 34 33  2  0  0  0  0
 35 33  1  0  0  0  0
 38 27  1  0  0  0  0
 39 28  1  0  0  0  0
 40 29  1  0  0  0  0
 42 29  1  0  0  0  0
 43 30  1  0  0  0  0
M  END
$$$$
