STM.pdb
 OpenBabel07022419103D

 44 43  0  0  1  0  0  0  0  0999 V2000
    2.4090   -4.0990    0.8810 O   0  0  0  0  0  0  0  0  0  0  0  0
    2.3270   -4.4570   -0.4570 C   0  0  0  0  0  0  0  0  0  0  0  0
    0.8870   -4.6240   -0.8890 C   0  0  2  0  0  0  0  0  0  0  0  0
    0.8420   -5.0010   -2.2970 N   0  0  0  0  0  0  0  0  0  0  0  0
    0.0750   -3.4060   -0.6490 C   0  0  0  0  0  0  0  0  0  0  0  0
   -0.4670   -2.8690   -1.6330 O   0  0  0  0  0  0  0  0  0  0  0  0
    3.3400   -4.1520    1.2030 H   0  0  0  0  0  0  0  0  0  0  0  0
    2.7800   -5.4900   -0.5200 H   0  0  0  0  0  0  0  0  0  0  0  0
    2.9010   -3.8240   -1.1350 H   0  0  0  0  0  0  0  0  0  0  0  0
    0.4720   -5.4830   -0.3230 H   0  0  0  0  0  0  0  0  0  0  0  0
    1.6000   -5.7190   -2.4270 H   0  0  0  0  0  0  0  0  0  0  0  0
   -0.0930   -5.4240   -2.5410 H   0  0  0  0  0  0  0  0  0  0  0  0
   -3.0760   -0.7900    1.7440 C   0  0  0  0  0  0  0  0  0  0  0  0
   -2.1070   -1.9500    1.7100 C   0  0  1  0  0  0  0  0  0  0  0  0
   -2.8350   -2.9910    1.0900 O   0  0  0  0  0  0  0  0  0  0  0  0
   -0.9370   -1.6010    0.8300 C   0  0  2  0  0  0  0  0  0  0  0  0
   -0.1240   -2.8170    0.6090 N   0  0  0  0  0  0  0  0  0  0  0  0
   -0.0900   -0.5560    1.4100 C   0  0  0  0  0  0  0  0  0  0  0  0
    1.0820   -0.8960    1.8090 O   0  0  0  0  0  0  0  0  0  0  0  0
   -2.8660   -0.0470    2.5350 H   0  0  0  0  0  0  0  0  0  0  0  0
   -3.1250   -0.2580    0.7720 H   0  0  0  0  0  0  0  0  0  0  0  0
   -4.1120   -1.1650    2.0190 H   0  0  0  0  0  0  0  0  0  0  0  0
   -1.8810   -2.2340    2.7260 H   0  0  0  0  0  0  0  0  0  0  0  0
   -3.7360   -2.9680    1.5270 H   0  0  0  0  0  0  0  0  0  0  0  0
   -1.3160   -1.2810   -0.1390 H   0  0  0  0  0  0  0  0  0  0  0  0
    0.3190   -3.2560    1.4350 H   0  0  0  0  0  0  0  0  0  0  0  0
    2.8390    4.8610   -0.4120 C   0  0  0  0  0  0  0  0  0  0  0  0
    1.6000    3.7920   -1.2160 S   0  0  0  0  0  0  0  0  0  0  0  0
    1.3450    2.3670   -0.1040 C   0  0  0  0  0  0  0  0  0  0  0  0
    0.6990    2.9100    1.1730 C   0  0  0  0  0  0  0  0  0  0  0  0
    0.4530    1.7760    2.1570 C   0  0  2  0  0  0  0  0  0  0  0  0
   -0.4450    0.7720    1.5610 N   0  0  0  0  0  0  0  0  0  0  0  0
   -0.2260    2.3000    3.3610 C   0  0  0  0  0  0  0  0  0  0  0  0
   -1.3570    1.9000    3.7240 O   0  0  0  0  0  0  0  0  0  0  0  0
    0.3720    3.2780    4.1580 O   0  0  0  0  0  0  0  0  0  0  0  0
    3.8270    4.3280   -0.3830 H   0  0  0  0  0  0  0  0  0  0  0  0
    2.5300    4.9640    0.6450 H   0  0  0  0  0  0  0  0  0  0  0  0
    2.8940    5.8230   -0.9430 H   0  0  0  0  0  0  0  0  0  0  0  0
    2.3660    2.0040    0.1720 H   0  0  0  0  0  0  0  0  0  0  0  0
    0.7450    1.5800   -0.5580 H   0  0  0  0  0  0  0  0  0  0  0  0
    1.3540    3.6470    1.6630 H   0  0  0  0  0  0  0  0  0  0  0  0
   -0.2670    3.3850    0.9710 H   0  0  0  0  0  0  0  0  0  0  0  0
    1.4140    1.3270    2.4620 H   0  0  0  0  0  0  0  0  0  0  0  0
   -1.3600    1.1300    1.2410 H   0  0  0  0  0  0  0  0  0  0  0  0
  1  7  1  0  0  0  0
  2  1  1  0  0  0  0
  3  5  1  0  0  0  0
  3  2  1  0  0  0  0
  3 10  1  1  0  0  0
  4  3  1  0  0  0  0
  5 17  1  0  0  0  0
  6  5  2  0  0  0  0
  8  2  1  0  0  0  0
  9  2  1  0  0  0  0
 11  4  1  0  0  0  0
 12  4  1  0  0  0  0
 13 22  1  0  0  0  0
 13 20  1  0  0  0  0
 14 13  1  0  0  0  0
 14 23  1  1  0  0  0
 15 24  1  0  0  0  0
 15 14  1  0  0  0  0
 16 25  1  6  0  0  0
 16 18  1  0  0  0  0
 16 14  1  0  0  0  0
 17 16  1  0  0  0  0
 17 26  1  0  0  0  0
 18 32  1  0  0  0  0
 18 19  2  0  0  0  0
 21 13  1  0  0  0  0
 27 36  1  0  0  0  0
 27 37  1  0  0  0  0
 28 27  1  0  0  0  0
 28 29  1  0  0  0  0
 29 39  1  0  0  0  0
 29 30  1  0  0  0  0
 30 41  1  0  0  0  0
 30 31  1  0  0  0  0
 31 43  1  1  0  0  0
 31 33  1  0  0  0  0
 32 31  1  0  0  0  0
 33 34  2  0  0  0  0
 33 35  1  0  0  0  0
 38 27  1  0  0  0  0
 40 29  1  0  0  0  0
 42 30  1  0  0  0  0
 44 32  1  0  0  0  0
M  END
$$$$
