STN.pdb
 OpenBabel07022419103D

 41 40  0  0  1  0  0  0  0  0999 V2000
    0.9500   -5.4670   -2.3670 O   0  0  0  0  0  0  0  0  0  0  0  0
    1.6460   -5.4440   -1.1700 C   0  0  0  0  0  0  0  0  0  0  0  0
    2.3000   -4.0780   -1.0240 C   0  0  2  0  0  0  0  0  0  0  0  0
    3.0340   -3.9550    0.1910 N   0  0  0  0  0  0  0  0  0  0  0  0
    1.2040   -3.0720   -0.9940 C   0  0  0  0  0  0  0  0  0  0  0  0
    0.4680   -2.8640   -2.0080 O   0  0  0  0  0  0  0  0  0  0  0  0
    1.2930   -4.8340   -3.0300 H   0  0  0  0  0  0  0  0  0  0  0  0
    2.4490   -6.2030   -1.2600 H   0  0  0  0  0  0  0  0  0  0  0  0
    1.0670   -5.6950   -0.2840 H   0  0  0  0  0  0  0  0  0  0  0  0
    2.9460   -3.8880   -1.8750 H   0  0  0  0  0  0  0  0  0  0  0  0
    2.5170   -4.2330    1.0430 H   0  0  0  0  0  0  0  0  0  0  0  0
    4.0300   -4.2660    0.1490 H   0  0  0  0  0  0  0  0  0  0  0  0
   -0.6780   -1.9210    2.4740 C   0  0  0  0  0  0  0  0  0  0  0  0
   -1.2520   -1.8930    1.0840 C   0  0  1  0  0  0  0  0  0  0  0  0
   -2.3340   -1.0000    1.1120 O   0  0  0  0  0  0  0  0  0  0  0  0
   -0.1820   -1.3120    0.1380 C   0  0  2  0  0  0  0  0  0  0  0  0
    0.9050   -2.2860    0.1560 N   0  0  0  0  0  0  0  0  0  0  0  0
    0.3110   -0.0330    0.6960 C   0  0  0  0  0  0  0  0  0  0  0  0
    1.5130    0.0860    1.1020 O   0  0  0  0  0  0  0  0  0  0  0  0
   -0.0670   -0.9970    2.6750 H   0  0  0  0  0  0  0  0  0  0  0  0
   -1.4630   -1.9430    3.2720 H   0  0  0  0  0  0  0  0  0  0  0  0
   -0.0300   -2.7900    2.6500 H   0  0  0  0  0  0  0  0  0  0  0  0
   -1.5510   -2.8850    0.7470 H   0  0  0  0  0  0  0  0  0  0  0  0
   -3.1830   -1.4410    0.9530 H   0  0  0  0  0  0  0  0  0  0  0  0
   -0.6200   -1.2280   -0.8710 H   0  0  0  0  0  0  0  0  0  0  0  0
    1.4970   -2.4470    0.9930 H   0  0  0  0  0  0  0  0  0  0  0  0
    1.9080    4.7010    1.4700 N   0  0  0  0  0  0  0  0  0  0  0  0
    0.5090    4.7100    1.2210 C   0  0  0  0  0  0  0  0  0  0  0  0
   -0.2370    5.6670    1.6060 O   0  0  0  0  0  0  0  0  0  0  0  0
   -0.0560    3.5340    0.4830 C   0  0  0  0  0  0  0  0  0  0  0  0
    0.0260    2.3440    1.3810 C   0  0  2  0  0  0  0  0  0  0  0  0
   -0.4980    1.1220    0.8190 N   0  0  0  0  0  0  0  0  0  0  0  0
   -0.6460    2.6790    2.6760 C   0  0  0  0  0  0  0  0  0  0  0  0
   -0.2930    3.7070    3.2970 O   0  0  0  0  0  0  0  0  0  0  0  0
   -1.6540    1.8860    3.2230 O   0  0  0  0  0  0  0  0  0  0  0  0
    2.5340    4.2500    0.7690 H   0  0  0  0  0  0  0  0  0  0  0  0
    2.3470    5.1330    2.3360 H   0  0  0  0  0  0  0  0  0  0  0  0
    0.5290    3.4590   -0.4410 H   0  0  0  0  0  0  0  0  0  0  0  0
   -1.1380    3.7810    0.2830 H   0  0  0  0  0  0  0  0  0  0  0  0
    1.1030    2.1840    1.6380 H   0  0  0  0  0  0  0  0  0  0  0  0
   -1.4900    1.0940    0.5000 H   0  0  0  0  0  0  0  0  0  0  0  0
  1  2  1  0  0  0  0
  2  3  1  0  0  0  0
  2  9  1  0  0  0  0
  3 10  1  6  0  0  0
  3  5  1  0  0  0  0
  3  4  1  0  0  0  0
  4 11  1  0  0  0  0
  5 17  1  0  0  0  0
  6  5  2  0  0  0  0
  7  1  1  0  0  0  0
  8  2  1  0  0  0  0
 12  4  1  0  0  0  0
 13 22  1  0  0  0  0
 13 20  1  0  0  0  0
 13 21  1  0  0  0  0
 14 23  1  6  0  0  0
 14 15  1  0  0  0  0
 14 13  1  0  0  0  0
 16 25  1  6  0  0  0
 16 17  1  0  0  0  0
 16 18  1  0  0  0  0
 16 14  1  0  0  0  0
 17 26  1  0  0  0  0
 18 32  1  0  0  0  0
 18 19  2  0  0  0  0
 24 15  1  0  0  0  0
 27 37  1  0  0  0  0
 28 27  1  0  0  0  0
 28 29  2  0  0  0  0
 30 28  1  0  0  0  0
 30 31  1  0  0  0  0
 31 40  1  1  0  0  0
 31 33  1  0  0  0  0
 32 31  1  0  0  0  0
 33 35  2  0  0  0  0
 33 34  1  0  0  0  0
 36 27  1  0  0  0  0
 38 30  1  0  0  0  0
 39 30  1  0  0  0  0
 41 32  1  0  0  0  0
M  END
$$$$
