STP.pdb
 OpenBabel07022419103D

 41 41  0  0  1  0  0  0  0  0999 V2000
   -1.1050   -4.7210   -0.7290 O   0  0  0  0  0  0  0  0  0  0  0  0
   -0.1690   -5.0140    0.2510 C   0  0  0  0  0  0  0  0  0  0  0  0
    0.2250   -3.7540    1.0130 C   0  0  2  0  0  0  0  0  0  0  0  0
   -0.9570   -3.2250    1.6160 N   0  0  0  0  0  0  0  0  0  0  0  0
    0.9390   -2.7970    0.1620 C   0  0  0  0  0  0  0  0  0  0  0  0
    1.9950   -3.1390   -0.4260 O   0  0  0  0  0  0  0  0  0  0  0  0
   -1.0480   -5.3590   -1.5010 H   0  0  0  0  0  0  0  0  0  0  0  0
    0.7110   -5.5500   -0.1380 H   0  0  0  0  0  0  0  0  0  0  0  0
   -0.6660   -5.6850    0.9940 H   0  0  0  0  0  0  0  0  0  0  0  0
    0.8890   -4.1130    1.8460 H   0  0  0  0  0  0  0  0  0  0  0  0
   -1.7100   -3.0000    0.9370 H   0  0  0  0  0  0  0  0  0  0  0  0
   -0.8010   -2.5200    2.3430 H   0  0  0  0  0  0  0  0  0  0  0  0
   -1.1790    0.5150   -1.4560 C   0  0  0  0  0  0  0  0  0  0  0  0
    0.1020   -0.0710   -1.9380 C   0  0  1  0  0  0  0  0  0  0  0  0
    0.7330    0.8990   -2.7320 O   0  0  0  0  0  0  0  0  0  0  0  0
    1.0350   -0.4820   -0.7850 C   0  0  2  0  0  0  0  0  0  0  0  0
    0.4100   -1.4620    0.0150 N   0  0  0  0  0  0  0  0  0  0  0  0
    1.4740    0.7570   -0.1600 C   0  0  0  0  0  0  0  0  0  0  0  0
    1.9660    1.6260   -0.9840 O   0  0  0  0  0  0  0  0  0  0  0  0
   -1.5540    0.1310   -0.4960 H   0  0  0  0  0  0  0  0  0  0  0  0
   -0.9920    1.6140   -1.2840 H   0  0  0  0  0  0  0  0  0  0  0  0
   -1.9460    0.4610   -2.2530 H   0  0  0  0  0  0  0  0  0  0  0  0
   -0.0960   -0.9380   -2.5830 H   0  0  0  0  0  0  0  0  0  0  0  0
    0.0580    1.5200   -3.1220 H   0  0  0  0  0  0  0  0  0  0  0  0
    1.9370   -0.9680   -1.2600 H   0  0  0  0  0  0  0  0  0  0  0  0
   -0.4750   -1.2420    0.5210 H   0  0  0  0  0  0  0  0  0  0  0  0
    1.4500    1.1540    1.1780 N   0  0  0  0  0  0  0  0  0  0  0  0
    1.8820    2.4330    1.6930 C   0  0  0  0  0  0  0  0  0  0  0  0
    2.1260    2.2470    3.1650 C   0  0  0  0  0  0  0  0  0  0  0  0
    2.0050    0.7610    3.3890 C   0  0  0  0  0  0  0  0  0  0  0  0
    1.0040    0.3720    2.2890 C   0  0  1  0  0  0  0  0  0  0  0  0
   -0.3620    0.7190    2.7310 C   0  0  0  0  0  0  0  0  0  0  0  0
   -0.8720    0.1030    3.7000 O   0  0  0  0  0  0  0  0  0  0  0  0
   -1.0800    1.7150    2.0850 O   0  0  0  0  0  0  0  0  0  0  0  0
    1.0950    3.2150    1.5930 H   0  0  0  0  0  0  0  0  0  0  0  0
    2.7650    2.8150    1.1450 H   0  0  0  0  0  0  0  0  0  0  0  0
    3.1500    2.5520    3.4680 H   0  0  0  0  0  0  0  0  0  0  0  0
    1.4280    2.8390    3.7930 H   0  0  0  0  0  0  0  0  0  0  0  0
    2.9550    0.2240    3.2660 H   0  0  0  0  0  0  0  0  0  0  0  0
    1.5010    0.5640    4.3560 H   0  0  0  0  0  0  0  0  0  0  0  0
    1.1270   -0.7330    2.1490 H   0  0  0  0  0  0  0  0  0  0  0  0
  1  2  1  0  0  0  0
  2  9  1  0  0  0  0
  2  3  1  0  0  0  0
  3  4  1  0  0  0  0
  3 10  1  1  0  0  0
  4 12  1  0  0  0  0
  5  3  1  0  0  0  0
  6  5  2  0  0  0  0
  7  1  1  0  0  0  0
  8  2  1  0  0  0  0
 11  4  1  0  0  0  0
 13 21  1  0  0  0  0
 13 20  1  0  0  0  0
 14 23  1  6  0  0  0
 14 13  1  0  0  0  0
 14 16  1  0  0  0  0
 15 14  1  0  0  0  0
 16 25  1  6  0  0  0
 16 18  1  0  0  0  0
 16 17  1  0  0  0  0
 17  5  1  0  0  0  0
 17 26  1  0  0  0  0
 18 27  1  0  0  0  0
 19 18  2  0  0  0  0
 22 13  1  0  0  0  0
 24 15  1  0  0  0  0
 27 28  1  0  0  0  0
 27 31  1  0  0  0  0
 28 29  1  0  0  0  0
 29 30  1  0  0  0  0
 29 37  1  0  0  0  0
 29 38  1  0  0  0  0
 30 40  1  0  0  0  0
 31 41  1  6  0  0  0
 31 32  1  0  0  0  0
 31 30  1  0  0  0  0
 32 33  1  0  0  0  0
 34 32  2  0  0  0  0
 35 28  1  0  0  0  0
 36 28  1  0  0  0  0
 39 30  1  0  0  0  0
M  END
$$$$
