STR.pdb
 OpenBabel07022419103D

 50 49  0  0  1  0  0  0  0  0999 V2000
    4.7780   -5.1220    1.6060 O   0  0  0  0  0  0  0  0  0  0  0  0
    4.2010   -3.9380    1.1620 C   0  0  0  0  0  0  0  0  0  0  0  0
    2.7720   -3.7980    1.6800 C   0  0  2  0  0  0  0  0  0  0  0  0
    1.9960   -4.9170    1.1940 N   0  0  0  0  0  0  0  0  0  0  0  0
    2.1970   -2.5560    1.0950 C   0  0  0  0  0  0  0  0  0  0  0  0
    2.7010   -1.4140    1.3650 O   0  0  0  0  0  0  0  0  0  0  0  0
    4.3650   -5.4680    2.4210 H   0  0  0  0  0  0  0  0  0  0  0  0
    4.7880   -3.0850    1.5810 H   0  0  0  0  0  0  0  0  0  0  0  0
    4.2370   -3.8150    0.0640 H   0  0  0  0  0  0  0  0  0  0  0  0
    2.7550   -3.7140    2.7800 H   0  0  0  0  0  0  0  0  0  0  0  0
    2.3060   -5.0630    0.1870 H   0  0  0  0  0  0  0  0  0  0  0  0
    2.2290   -5.8090    1.6750 H   0  0  0  0  0  0  0  0  0  0  0  0
    0.1740   -0.4560   -2.7010 C   0  0  0  0  0  0  0  0  0  0  0  0
    0.6760   -1.5630   -1.8500 C   0  0  1  0  0  0  0  0  0  0  0  0
    2.0690   -1.6750   -2.0870 O   0  0  0  0  0  0  0  0  0  0  0  0
    0.4900   -1.3930   -0.3670 C   0  0  2  0  0  0  0  0  0  0  0  0
    1.0850   -2.6090    0.2310 N   0  0  0  0  0  0  0  0  0  0  0  0
   -0.8980   -1.2600    0.0790 C   0  0  0  0  0  0  0  0  0  0  0  0
   -1.4810   -2.1310    0.8080 O   0  0  0  0  0  0  0  0  0  0  0  0
   -0.9130   -0.5310   -2.8980 H   0  0  0  0  0  0  0  0  0  0  0  0
    0.5080    0.5550   -2.4040 H   0  0  0  0  0  0  0  0  0  0  0  0
    0.6440   -0.6140   -3.7240 H   0  0  0  0  0  0  0  0  0  0  0  0
    0.2200   -2.5080   -2.2060 H   0  0  0  0  0  0  0  0  0  0  0  0
    2.3990   -2.5600   -1.8100 H   0  0  0  0  0  0  0  0  0  0  0  0
    1.0790   -0.5390   -0.0000 H   0  0  0  0  0  0  0  0  0  0  0  0
    0.6450   -3.5150   -0.0140 H   0  0  0  0  0  0  0  0  0  0  0  0
    1.3440    2.8400    4.3790 N   0  0  0  0  0  0  0  0  0  0  0  0
    0.7560    2.8220    3.0820 C   0  0  0  0  0  0  0  0  0  0  0  0
    1.4640    3.0270    2.0010 N   0  0  0  0  0  0  0  0  0  0  0  0
   -0.6330    2.5750    2.9610 N   0  0  0  0  0  0  0  0  0  0  0  0
   -1.2090    2.0650    1.6990 C   0  0  0  0  0  0  0  0  0  0  0  0
   -2.6800    1.8930    1.8360 C   0  0  0  0  0  0  0  0  0  0  0  0
   -3.4090    1.3990    0.6330 C   0  0  0  0  0  0  0  0  0  0  0  0
   -3.0530    0.0430    0.1310 C   0  0  2  0  0  0  0  0  0  0  0  0
   -1.7000   -0.1400   -0.2700 N   0  0  0  0  0  0  0  0  0  0  0  0
   -4.0050   -0.2590   -0.9840 C   0  0  0  0  0  0  0  0  0  0  0  0
   -3.5620   -0.6150   -2.0730 O   0  0  0  0  0  0  0  0  0  0  0  0
   -5.3400   -0.1290   -0.7520 O   0  0  0  0  0  0  0  0  0  0  0  0
    1.8320    1.9690    4.7190 H   0  0  0  0  0  0  0  0  0  0  0  0
    1.2860    3.7010    4.9650 H   0  0  0  0  0  0  0  0  0  0  0  0
    2.4720    3.2040    2.1280 H   0  0  0  0  0  0  0  0  0  0  0  0
   -1.2660    2.7510    3.7630 H   0  0  0  0  0  0  0  0  0  0  0  0
   -1.0400    2.9070    0.9720 H   0  0  0  0  0  0  0  0  0  0  0  0
   -0.6730    1.1640    1.4090 H   0  0  0  0  0  0  0  0  0  0  0  0
   -3.1820    2.8050    2.2530 H   0  0  0  0  0  0  0  0  0  0  0  0
   -2.8520    1.1240    2.6590 H   0  0  0  0  0  0  0  0  0  0  0  0
   -4.5250    1.4670    0.8520 H   0  0  0  0  0  0  0  0  0  0  0  0
   -3.2200    2.1710   -0.1850 H   0  0  0  0  0  0  0  0  0  0  0  0
   -3.2300   -0.7120    0.9630 H   0  0  0  0  0  0  0  0  0  0  0  0
   -1.2770    0.6020   -0.8500 H   0  0  0  0  0  0  0  0  0  0  0  0
  1  7  1  0  0  0  0
  2  8  1  0  0  0  0
  2  1  1  0  0  0  0
  2  3  1  0  0  0  0
  3 10  1  1  0  0  0
  4 12  1  0  0  0  0
  4  3  1  0  0  0  0
  5  6  2  0  0  0  0
  5  3  1  0  0  0  0
  9  2  1  0  0  0  0
 11  4  1  0  0  0  0
 13 21  1  0  0  0  0
 13 14  1  0  0  0  0
 14 23  1  6  0  0  0
 14 16  1  0  0  0  0
 15 14  1  0  0  0  0
 15 24  1  0  0  0  0
 16 25  1  1  0  0  0
 16 18  1  0  0  0  0
 16 17  1  0  0  0  0
 17  5  1  0  0  0  0
 18 19  2  0  0  0  0
 20 13  1  0  0  0  0
 22 13  1  0  0  0  0
 26 17  1  0  0  0  0
 27 39  1  0  0  0  0
 27 40  1  0  0  0  0
 28 27  1  0  0  0  0
 29 41  1  0  0  0  0
 29 28  2  0  0  0  0
 30 28  1  0  0  0  0
 30 42  1  0  0  0  0
 31 32  1  0  0  0  0
 31 30  1  0  0  0  0
 32 45  1  0  0  0  0
 32 46  1  0  0  0  0
 33 47  1  0  0  0  0
 33 32  1  0  0  0  0
 34 33  1  0  0  0  0
 34 49  1  1  0  0  0
 35 18  1  0  0  0  0
 35 34  1  0  0  0  0
 36 38  1  0  0  0  0
 36 34  1  0  0  0  0
 37 36  2  0  0  0  0
 43 31  1  0  0  0  0
 44 31  1  0  0  0  0
 48 33  1  0  0  0  0
 50 35  1  0  0  0  0
M  END
$$$$
