STS.pdb
 OpenBabel07022419103D

 38 37  0  0  1  0  0  0  0  0999 V2000
   -3.3320   -2.9650    1.3740 O   0  0  0  0  0  0  0  0  0  0  0  0
   -2.0420   -2.4630    1.2300 C   0  0  0  0  0  0  0  0  0  0  0  0
   -1.3230   -3.1050    0.0530 C   0  0  2  0  0  0  0  0  0  0  0  0
   -1.2760   -4.5260    0.3300 N   0  0  0  0  0  0  0  0  0  0  0  0
    0.0510   -2.5610    0.0470 C   0  0  0  0  0  0  0  0  0  0  0  0
    1.0080   -3.3390    0.2660 O   0  0  0  0  0  0  0  0  0  0  0  0
   -3.6810   -2.6140    2.2320 H   0  0  0  0  0  0  0  0  0  0  0  0
   -2.0750   -1.3500    1.1140 H   0  0  0  0  0  0  0  0  0  0  0  0
   -1.5070   -2.6530    2.1810 H   0  0  0  0  0  0  0  0  0  0  0  0
   -1.8370   -2.8900   -0.9010 H   0  0  0  0  0  0  0  0  0  0  0  0
   -2.1220   -4.8010    0.8760 H   0  0  0  0  0  0  0  0  0  0  0  0
   -0.4510   -4.6760    0.9570 H   0  0  0  0  0  0  0  0  0  0  0  0
    2.0360   -1.1120   -2.6350 C   0  0  0  0  0  0  0  0  0  0  0  0
    2.0910   -0.0890   -1.5230 C   0  0  1  0  0  0  0  0  0  0  0  0
    1.2580    0.9800   -1.8580 O   0  0  0  0  0  0  0  0  0  0  0  0
    1.7110   -0.6910   -0.1940 C   0  0  2  0  0  0  0  0  0  0  0  0
    0.3520   -1.1940   -0.1940 N   0  0  0  0  0  0  0  0  0  0  0  0
    1.8710    0.3950    0.8320 C   0  0  0  0  0  0  0  0  0  0  0  0
    2.9820    0.9600    0.9860 O   0  0  0  0  0  0  0  0  0  0  0  0
    2.3770   -0.5900   -3.5630 H   0  0  0  0  0  0  0  0  0  0  0  0
    2.6850   -1.9770   -2.3940 H   0  0  0  0  0  0  0  0  0  0  0  0
    0.9860   -1.4240   -2.8370 H   0  0  0  0  0  0  0  0  0  0  0  0
    3.1200    0.2810   -1.4460 H   0  0  0  0  0  0  0  0  0  0  0  0
    1.4970    1.2350   -2.7920 H   0  0  0  0  0  0  0  0  0  0  0  0
    2.4290   -1.5100    0.0150 H   0  0  0  0  0  0  0  0  0  0  0  0
   -0.4520   -0.5560   -0.3750 H   0  0  0  0  0  0  0  0  0  0  0  0
   -1.3390    2.6720    2.3290 O   0  0  0  0  0  0  0  0  0  0  0  0
   -0.0040    3.0350    2.3560 C   0  0  0  0  0  0  0  0  0  0  0  0
    0.9120    1.8530    2.6430 C   0  0  2  0  0  0  0  0  0  0  0  0
    0.7900    0.8230    1.6590 N   0  0  0  0  0  0  0  0  0  0  0  0
    0.6420    1.2830    3.9840 C   0  0  0  0  0  0  0  0  0  0  0  0
    0.6890    2.0060    5.0360 O   0  0  0  0  0  0  0  0  0  0  0  0
    0.3320   -0.0610    4.0960 O   0  0  0  0  0  0  0  0  0  0  0  0
   -1.8660    3.5100    2.3650 H   0  0  0  0  0  0  0  0  0  0  0  0
    0.2210    3.8510    3.0720 H   0  0  0  0  0  0  0  0  0  0  0  0
    0.2580    3.4060    1.3400 H   0  0  0  0  0  0  0  0  0  0  0  0
    1.9410    2.2840    2.6930 H   0  0  0  0  0  0  0  0  0  0  0  0
   -0.1160    0.3300    1.5030 H   0  0  0  0  0  0  0  0  0  0  0  0
  1  7  1  0  0  0  0
  2  1  1  0  0  0  0
  2  9  1  0  0  0  0
  3 10  1  6  0  0  0
  3  4  1  0  0  0  0
  3  2  1  0  0  0  0
  4 11  1  0  0  0  0
  4 12  1  0  0  0  0
  5  3  1  0  0  0  0
  5  6  2  0  0  0  0
  8  2  1  0  0  0  0
 13 21  1  0  0  0  0
 13 14  1  0  0  0  0
 14 23  1  1  0  0  0
 14 16  1  0  0  0  0
 15 14  1  0  0  0  0
 16 17  1  0  0  0  0
 16 25  1  1  0  0  0
 16 18  1  0  0  0  0
 17  5  1  0  0  0  0
 18 19  2  0  0  0  0
 18 30  1  0  0  0  0
 20 13  1  0  0  0  0
 22 13  1  0  0  0  0
 24 15  1  0  0  0  0
 26 17  1  0  0  0  0
 27 28  1  0  0  0  0
 27 34  1  0  0  0  0
 28 29  1  0  0  0  0
 28 35  1  0  0  0  0
 29 37  1  6  0  0  0
 29 31  1  0  0  0  0
 30 29  1  0  0  0  0
 31 33  2  0  0  0  0
 31 32  1  0  0  0  0
 36 28  1  0  0  0  0
 38 30  1  0  0  0  0
M  END
$$$$
