STV.pdb
 OpenBabel07022419103D

 43 42  0  0  1  0  0  0  0  0999 V2000
    3.2170   -3.9730    1.6760 O   0  0  0  0  0  0  0  0  0  0  0  0
    2.4990   -2.9890    1.0030 C   0  0  0  0  0  0  0  0  0  0  0  0
    1.6250   -3.7030   -0.0220 C   0  0  2  0  0  0  0  0  0  0  0  0
    2.4570   -4.4420   -0.9370 N   0  0  0  0  0  0  0  0  0  0  0  0
    0.8330   -2.7360   -0.8190 C   0  0  0  0  0  0  0  0  0  0  0  0
    0.9330   -2.6440   -2.0800 O   0  0  0  0  0  0  0  0  0  0  0  0
    3.0290   -3.9530    2.6530 H   0  0  0  0  0  0  0  0  0  0  0  0
    1.7880   -2.5200    1.7290 H   0  0  0  0  0  0  0  0  0  0  0  0
    3.1600   -2.2480    0.5150 H   0  0  0  0  0  0  0  0  0  0  0  0
    0.9930   -4.4310    0.5270 H   0  0  0  0  0  0  0  0  0  0  0  0
    2.2830   -4.2260   -1.9320 H   0  0  0  0  0  0  0  0  0  0  0  0
    2.4980   -5.4640   -0.7280 H   0  0  0  0  0  0  0  0  0  0  0  0
   -2.7510   -0.8600    0.8010 C   0  0  0  0  0  0  0  0  0  0  0  0
   -2.3650   -1.0640   -0.6480 C   0  0  1  0  0  0  0  0  0  0  0  0
   -2.9900   -0.0160   -1.3680 O   0  0  0  0  0  0  0  0  0  0  0  0
   -0.8930   -0.8980   -0.8480 C   0  0  2  0  0  0  0  0  0  0  0  0
   -0.0820   -1.8630   -0.1970 N   0  0  0  0  0  0  0  0  0  0  0  0
   -0.5590    0.5060   -0.4400 C   0  0  0  0  0  0  0  0  0  0  0  0
   -1.1900    1.4770   -0.9290 O   0  0  0  0  0  0  0  0  0  0  0  0
   -1.8390   -0.9340    1.4320 H   0  0  0  0  0  0  0  0  0  0  0  0
   -3.1410    0.1820    0.9840 H   0  0  0  0  0  0  0  0  0  0  0  0
   -3.5220   -1.5430    1.1540 H   0  0  0  0  0  0  0  0  0  0  0  0
   -2.7830   -1.9880   -1.0740 H   0  0  0  0  0  0  0  0  0  0  0  0
   -3.8830   -0.3050   -1.6850 H   0  0  0  0  0  0  0  0  0  0  0  0
   -0.7060   -0.9210   -1.9610 H   0  0  0  0  0  0  0  0  0  0  0  0
   -0.1620   -1.9440    0.8570 H   0  0  0  0  0  0  0  0  0  0  0  0
    1.3740    1.4280    3.2240 C   0  0  0  0  0  0  0  0  0  0  0  0
    0.5530    2.3750    2.3800 C   0  0  0  0  0  0  0  0  0  0  0  0
   -0.9200    2.2350    2.6960 C   0  0  0  0  0  0  0  0  0  0  0  0
    0.8050    2.1390    0.9080 C   0  0  2  0  0  0  0  0  0  0  0  0
    0.4660    0.7980    0.5000 N   0  0  0  0  0  0  0  0  0  0  0  0
    2.2060    2.4650    0.5720 C   0  0  0  0  0  0  0  0  0  0  0  0
    2.7050    3.5740    0.8370 O   0  0  0  0  0  0  0  0  0  0  0  0
    2.9780    1.5050   -0.0550 O   0  0  0  0  0  0  0  0  0  0  0  0
    2.4460    1.5780    2.9440 H   0  0  0  0  0  0  0  0  0  0  0  0
    1.0560    0.3790    3.1380 H   0  0  0  0  0  0  0  0  0  0  0  0
    1.2840    1.7610    4.2800 H   0  0  0  0  0  0  0  0  0  0  0  0
    0.8720    3.3980    2.6110 H   0  0  0  0  0  0  0  0  0  0  0  0
   -1.1820    3.0060    3.4570 H   0  0  0  0  0  0  0  0  0  0  0  0
   -1.1790    1.2260    3.0550 H   0  0  0  0  0  0  0  0  0  0  0  0
   -1.5150    2.4330    1.7960 H   0  0  0  0  0  0  0  0  0  0  0  0
    0.1190    2.8290    0.3480 H   0  0  0  0  0  0  0  0  0  0  0  0
    0.9750   -0.0340    0.8910 H   0  0  0  0  0  0  0  0  0  0  0  0
  1  7  1  0  0  0  0
  2  1  1  0  0  0  0
  2  8  1  0  0  0  0
  3 10  1  1  0  0  0
  3  2  1  0  0  0  0
  4 12  1  0  0  0  0
  4  3  1  0  0  0  0
  5 17  1  0  0  0  0
  5  3  1  0  0  0  0
  6  5  2  0  0  0  0
  9  2  1  0  0  0  0
 11  4  1  0  0  0  0
 13 21  1  0  0  0  0
 13 22  1  0  0  0  0
 13 20  1  0  0  0  0
 14 23  1  6  0  0  0
 14 13  1  0  0  0  0
 15 14  1  0  0  0  0
 16 25  1  6  0  0  0
 16 14  1  0  0  0  0
 16 18  1  0  0  0  0
 16 17  1  0  0  0  0
 17 26  1  0  0  0  0
 18 31  1  0  0  0  0
 19 18  2  0  0  0  0
 24 15  1  0  0  0  0
 27 37  1  0  0  0  0
 28 38  1  0  0  0  0
 28 29  1  0  0  0  0
 28 27  1  0  0  0  0
 29 40  1  0  0  0  0
 29 39  1  0  0  0  0
 30 42  1  6  0  0  0
 30 28  1  0  0  0  0
 31 43  1  0  0  0  0
 31 30  1  0  0  0  0
 32 33  1  0  0  0  0
 32 30  1  0  0  0  0
 34 32  2  0  0  0  0
 35 27  1  0  0  0  0
 36 27  1  0  0  0  0
 41 29  1  0  0  0  0
M  END
$$$$
