STW.pdb
 OpenBabel07022419103D

 51 52  0  0  1  0  0  0  0  0999 V2000
    4.4750   -1.8510    4.8820 O   0  0  0  0  0  0  0  0  0  0  0  0
    3.4990   -1.2090    4.1580 C   0  0  0  0  0  0  0  0  0  0  0  0
    3.7050    0.3130    4.1920 C   0  0  2  0  0  0  0  0  0  0  0  0
    3.6480    0.7710    5.5700 N   0  0  0  0  0  0  0  0  0  0  0  0
    2.6150    0.9910    3.4430 C   0  0  0  0  0  0  0  0  0  0  0  0
    1.8230    1.7970    4.0180 O   0  0  0  0  0  0  0  0  0  0  0  0
    4.1410   -2.1730    5.7710 H   0  0  0  0  0  0  0  0  0  0  0  0
    3.3700   -1.5560    3.1260 H   0  0  0  0  0  0  0  0  0  0  0  0
    2.5230   -1.3800    4.6950 H   0  0  0  0  0  0  0  0  0  0  0  0
    4.7000    0.4960    3.7810 H   0  0  0  0  0  0  0  0  0  0  0  0
    2.8180    1.3840    5.7460 H   0  0  0  0  0  0  0  0  0  0  0  0
    3.5960   -0.0350    6.2030 H   0  0  0  0  0  0  0  0  0  0  0  0
    1.2380    3.1000   -0.6040 C   0  0  0  0  0  0  0  0  0  0  0  0
    2.1180    2.2740    0.2880 C   0  0  1  0  0  0  0  0  0  0  0  0
    2.9090    3.1530    1.0720 O   0  0  0  0  0  0  0  0  0  0  0  0
    1.3500    1.4210    1.2890 C   0  0  2  0  0  0  0  0  0  0  0  0
    2.4210    0.7680    2.0730 N   0  0  0  0  0  0  0  0  0  0  0  0
    0.5860    0.4140    0.5370 C   0  0  0  0  0  0  0  0  0  0  0  0
    0.9740   -0.8060    0.6060 O   0  0  0  0  0  0  0  0  0  0  0  0
    0.4020    3.5720   -0.0940 H   0  0  0  0  0  0  0  0  0  0  0  0
    0.9540    2.5460   -1.5170 H   0  0  0  0  0  0  0  0  0  0  0  0
    1.8870    3.9480   -0.9850 H   0  0  0  0  0  0  0  0  0  0  0  0
    2.7860    1.5930   -0.2680 H   0  0  0  0  0  0  0  0  0  0  0  0
    3.7680    3.2410    0.5790 H   0  0  0  0  0  0  0  0  0  0  0  0
    0.7320    2.0750    1.9150 H   0  0  0  0  0  0  0  0  0  0  0  0
    3.0610    0.1090    1.5780 H   0  0  0  0  0  0  0  0  0  0  0  0
   -0.5520    0.6430   -0.2660 N   0  0  0  0  0  0  0  0  0  0  0  0
   -1.2010   -0.4610   -0.9460 C   0  0  1  0  0  0  0  0  0  0  0  0
   -2.6170   -0.6670   -0.4230 C   0  0  0  0  0  0  0  0  0  0  0  0
   -3.2910   -1.7840   -1.1040 C   0  0  0  0  0  0  0  0  0  0  0  0
   -4.2630   -1.7700   -2.0850 C   0  0  0  0  0  0  0  0  0  0  0  0
   -4.5940   -3.0300   -2.4190 N   0  0  0  0  0  0  0  0  0  0  0  0
   -3.8480   -3.8630   -1.6660 C   0  0  0  0  0  0  0  0  0  0  0  0
   -3.7520   -5.2480   -1.5700 C   0  0  0  0  0  0  0  0  0  0  0  0
   -2.8820   -5.8600   -0.6930 C   0  0  0  0  0  0  0  0  0  0  0  0
   -2.0690   -5.1140    0.1290 C   0  0  0  0  0  0  0  0  0  0  0  0
   -2.1460   -3.7390    0.0520 C   0  0  0  0  0  0  0  0  0  0  0  0
   -3.0240   -3.1170   -0.8340 C   0  0  0  0  0  0  0  0  0  0  0  0
   -1.2930   -0.1990   -2.3800 C   0  0  0  0  0  0  0  0  0  0  0  0
   -1.8090   -1.0030   -3.2080 O   0  0  0  0  0  0  0  0  0  0  0  0
   -0.8000    0.9800   -2.9010 O   0  0  0  0  0  0  0  0  0  0  0  0
   -0.9020    1.6120   -0.3460 H   0  0  0  0  0  0  0  0  0  0  0  0
   -0.6550   -1.3860   -0.7630 H   0  0  0  0  0  0  0  0  0  0  0  0
   -2.6300   -0.8760    0.6680 H   0  0  0  0  0  0  0  0  0  0  0  0
   -3.1600    0.2760   -0.6160 H   0  0  0  0  0  0  0  0  0  0  0  0
   -4.6820   -0.8590   -2.5070 H   0  0  0  0  0  0  0  0  0  0  0  0
   -5.2860   -3.3760   -3.1180 H   0  0  0  0  0  0  0  0  0  0  0  0
   -4.3810   -5.8500   -2.2070 H   0  0  0  0  0  0  0  0  0  0  0  0
   -2.8330   -6.9550   -0.6440 H   0  0  0  0  0  0  0  0  0  0  0  0
   -1.3700   -5.5280    0.8340 H   0  0  0  0  0  0  0  0  0  0  0  0
   -1.5310   -3.0920    0.6740 H   0  0  0  0  0  0  0  0  0  0  0  0
  1  7  1  0  0  0  0
  2  3  1  0  0  0  0
  2  9  1  0  0  0  0
  2  1  1  0  0  0  0
  3 10  1  6  0  0  0
  3  4  1  0  0  0  0
  4 11  1  0  0  0  0
  4 12  1  0  0  0  0
  5  6  2  0  0  0  0
  5  3  1  0  0  0  0
  8  2  1  0  0  0  0
 13 20  1  0  0  0  0
 13 14  1  0  0  0  0
 14 23  1  6  0  0  0
 14 15  1  0  0  0  0
 14 16  1  0  0  0  0
 16 25  1  1  0  0  0
 16 17  1  0  0  0  0
 17  5  1  0  0  0  0
 18 19  2  0  0  0  0
 18 16  1  0  0  0  0
 21 13  1  0  0  0  0
 22 13  1  0  0  0  0
 24 15  1  0  0  0  0
 26 17  1  0  0  0  0
 27 18  1  0  0  0  0
 28 43  1  1  0  0  0
 28 29  1  0  0  0  0
 28 27  1  0  0  0  0
 29 44  1  0  0  0  0
 30 38  1  0  0  0  0
 30 29  1  0  0  0  0
 31 30  2  0  0  0  0
 32 31  1  0  0  0  0
 32 33  1  0  0  0  0
 33 34  2  0  0  0  0
 33 38  1  0  0  0  0
 34 35  1  0  0  0  0
 35 49  1  0  0  0  0
 35 36  2  0  0  0  0
 36 50  1  0  0  0  0
 37 36  1  0  0  0  0
 37 51  1  0  0  0  0
 38 37  2  0  0  0  0
 39 28  1  0  0  0  0
 40 39  2  0  0  0  0
 41 39  1  0  0  0  0
 42 27  1  0  0  0  0
 45 29  1  0  0  0  0
 46 31  1  0  0  0  0
 47 32  1  0  0  0  0
 48 34  1  0  0  0  0
M  END
$$$$
