STY.pdb
 OpenBabel07022419103D

 48 48  0  0  1  0  0  0  0  0999 V2000
    2.6510   -2.0970    3.8250 O   0  0  0  0  0  0  0  0  0  0  0  0
    2.2150   -1.4750    2.6410 C   0  0  0  0  0  0  0  0  0  0  0  0
    3.0690   -2.0380    1.5270 C   0  0  2  0  0  0  0  0  0  0  0  0
    4.4550   -1.7350    1.8000 N   0  0  0  0  0  0  0  0  0  0  0  0
    2.7130   -1.4920    0.2100 C   0  0  0  0  0  0  0  0  0  0  0  0
    3.5470   -0.8850   -0.4730 O   0  0  0  0  0  0  0  0  0  0  0  0
    2.1490   -1.7330    4.6020 H   0  0  0  0  0  0  0  0  0  0  0  0
    2.3330   -0.3960    2.7640 H   0  0  0  0  0  0  0  0  0  0  0  0
    1.1770   -1.8030    2.4510 H   0  0  0  0  0  0  0  0  0  0  0  0
    2.9300   -3.1450    1.5150 H   0  0  0  0  0  0  0  0  0  0  0  0
    5.0810   -2.3120    1.2010 H   0  0  0  0  0  0  0  0  0  0  0  0
    4.6800   -1.7570    2.8070 H   0  0  0  0  0  0  0  0  0  0  0  0
    0.3910   -1.5440   -3.9710 C   0  0  0  0  0  0  0  0  0  0  0  0
    0.6740   -2.1600   -2.6360 C   0  0  1  0  0  0  0  0  0  0  0  0
    1.7610   -3.0190   -2.7620 O   0  0  0  0  0  0  0  0  0  0  0  0
    1.0660   -1.0870   -1.6450 C   0  0  2  0  0  0  0  0  0  0  0  0
    1.3960   -1.6290   -0.3530 N   0  0  0  0  0  0  0  0  0  0  0  0
    0.0130   -0.0320   -1.5490 C   0  0  0  0  0  0  0  0  0  0  0  0
   -0.4140    0.5680   -2.5660 O   0  0  0  0  0  0  0  0  0  0  0  0
   -0.6880   -1.2260   -4.0360 H   0  0  0  0  0  0  0  0  0  0  0  0
    0.4680   -2.3800   -4.7280 H   0  0  0  0  0  0  0  0  0  0  0  0
    1.0460   -0.7110   -4.2340 H   0  0  0  0  0  0  0  0  0  0  0  0
   -0.2440   -2.6970   -2.3240 H   0  0  0  0  0  0  0  0  0  0  0  0
    2.2530   -2.7610   -3.5790 H   0  0  0  0  0  0  0  0  0  0  0  0
    1.9720   -0.5920   -2.0480 H   0  0  0  0  0  0  0  0  0  0  0  0
    0.7060   -2.1480    0.2460 H   0  0  0  0  0  0  0  0  0  0  0  0
   -1.7910   -1.4950    5.4380 O   0  0  0  0  0  0  0  0  0  0  0  0
   -2.0590   -0.9180    4.2000 C   0  0  0  0  0  0  0  0  0  0  0  0
   -1.8980   -1.6570    3.0540 C   0  0  0  0  0  0  0  0  0  0  0  0
   -2.1580   -1.1010    1.8400 C   0  0  0  0  0  0  0  0  0  0  0  0
   -2.5880    0.2060    1.6950 C   0  0  0  0  0  0  0  0  0  0  0  0
   -2.8500    0.7360    0.3340 C   0  0  0  0  0  0  0  0  0  0  0  0
   -1.5650    1.3540   -0.2350 C   0  0  2  0  0  0  0  0  0  0  0  0
   -0.5500    0.3350   -0.2960 N   0  0  0  0  0  0  0  0  0  0  0  0
   -1.2090    2.5020    0.6150 C   0  0  0  0  0  0  0  0  0  0  0  0
   -0.1490    2.6340    1.2540 O   0  0  0  0  0  0  0  0  0  0  0  0
   -2.7500    0.9480    2.8450 C   0  0  0  0  0  0  0  0  0  0  0  0
   -2.4850    0.3800    4.0810 C   0  0  0  0  0  0  0  0  0  0  0  0
   -2.1360    3.5340    0.7160 O   0  0  0  0  0  0  0  0  0  0  0  0
   -2.2900   -1.1150    6.2490 H   0  0  0  0  0  0  0  0  0  0  0  0
   -1.5600   -2.6840    3.1720 H   0  0  0  0  0  0  0  0  0  0  0  0
   -2.0300   -1.6830    0.9410 H   0  0  0  0  0  0  0  0  0  0  0  0
   -3.5970    1.5550    0.4090 H   0  0  0  0  0  0  0  0  0  0  0  0
   -3.1640   -0.0760   -0.3330 H   0  0  0  0  0  0  0  0  0  0  0  0
   -1.7800    1.7390   -1.2510 H   0  0  0  0  0  0  0  0  0  0  0  0
   -0.2470   -0.1170    0.6020 H   0  0  0  0  0  0  0  0  0  0  0  0
   -3.0890    1.9840    2.7700 H   0  0  0  0  0  0  0  0  0  0  0  0
   -2.6160    0.9720    4.9680 H   0  0  0  0  0  0  0  0  0  0  0  0
  1  7  1  0  0  0  0
  2  8  1  0  0  0  0
  2  1  1  0  0  0  0
  3 10  1  6  0  0  0
  3  4  1  0  0  0  0
  3  2  1  0  0  0  0
  4 12  1  0  0  0  0
  5  3  1  0  0  0  0
  6  5  2  0  0  0  0
  9  2  1  0  0  0  0
 11  4  1  0  0  0  0
 13 14  1  0  0  0  0
 14 23  1  1  0  0  0
 14 16  1  0  0  0  0
 15 14  1  0  0  0  0
 16 25  1  6  0  0  0
 16 18  1  0  0  0  0
 16 17  1  0  0  0  0
 17  5  1  0  0  0  0
 17 26  1  0  0  0  0
 18 34  1  0  0  0  0
 19 18  2  0  0  0  0
 20 13  1  0  0  0  0
 21 13  1  0  0  0  0
 22 13  1  0  0  0  0
 24 15  1  0  0  0  0
 27 40  1  0  0  0  0
 28 27  1  0  0  0  0
 29 41  1  0  0  0  0
 29 28  2  0  0  0  0
 30 29  1  0  0  0  0
 31 30  2  0  0  0  0
 31 37  1  0  0  0  0
 32 43  1  0  0  0  0
 32 31  1  0  0  0  0
 33 45  1  6  0  0  0
 33 32  1  0  0  0  0
 33 35  1  0  0  0  0
 34 33  1  0  0  0  0
 34 46  1  0  0  0  0
 35 39  2  0  0  0  0
 35 36  1  0  0  0  0
 37 38  2  0  0  0  0
 38 28  1  0  0  0  0
 38 48  1  0  0  0  0
 42 30  1  0  0  0  0
 44 32  1  0  0  0  0
 47 37  1  0  0  0  0
M  END
$$$$
