SVE.pdb
 OpenBabel07022419103D

 45 44  0  0  1  0  0  0  0  0999 V2000
    0.7200   -1.7790    4.1230 O   0  0  0  0  0  0  0  0  0  0  0  0
    0.6100   -2.7740    3.1530 C   0  0  0  0  0  0  0  0  0  0  0  0
    1.9260   -3.0640    2.4930 C   0  0  2  0  0  0  0  0  0  0  0  0
    2.8710   -3.5030    3.4660 N   0  0  0  0  0  0  0  0  0  0  0  0
    2.4070   -1.8970    1.7010 C   0  0  0  0  0  0  0  0  0  0  0  0
    3.5330   -1.3700    1.8870 O   0  0  0  0  0  0  0  0  0  0  0  0
    0.9490   -2.2280    4.9740 H   0  0  0  0  0  0  0  0  0  0  0  0
   -0.1070   -2.4940    2.3500 H   0  0  0  0  0  0  0  0  0  0  0  0
    0.2490   -3.6920    3.6380 H   0  0  0  0  0  0  0  0  0  0  0  0
    1.7530   -3.9080    1.7810 H   0  0  0  0  0  0  0  0  0  0  0  0
    3.6890   -4.0100    3.0820 H   0  0  0  0  0  0  0  0  0  0  0  0
    3.1010   -2.8070    4.1870 H   0  0  0  0  0  0  0  0  0  0  0  0
    2.9930   -1.8140   -1.7540 C   0  0  0  0  0  0  0  0  0  0  0  0
    1.9630   -0.7250   -1.5710 C   0  0  0  0  0  0  0  0  0  0  0  0
    2.2670    0.4290   -2.5240 C   0  0  0  0  0  0  0  0  0  0  0  0
    1.9070   -0.2340   -0.1370 C   0  0  2  0  0  0  0  0  0  0  0  0
    1.5620   -1.3590    0.6960 N   0  0  0  0  0  0  0  0  0  0  0  0
    0.8990    0.8500   -0.0730 C   0  0  0  0  0  0  0  0  0  0  0  0
    1.1080    1.8780   -0.7670 O   0  0  0  0  0  0  0  0  0  0  0  0
    3.0580   -1.9990   -2.8550 H   0  0  0  0  0  0  0  0  0  0  0  0
    2.6270   -2.7660   -1.3140 H   0  0  0  0  0  0  0  0  0  0  0  0
    3.9930   -1.5330   -1.4240 H   0  0  0  0  0  0  0  0  0  0  0  0
    0.9860   -1.1410   -1.8930 H   0  0  0  0  0  0  0  0  0  0  0  0
    1.3020    0.8690   -2.8660 H   0  0  0  0  0  0  0  0  0  0  0  0
    2.9520    1.1570   -2.0820 H   0  0  0  0  0  0  0  0  0  0  0  0
    2.7440    0.0110   -3.4530 H   0  0  0  0  0  0  0  0  0  0  0  0
    2.9230    0.1430    0.1210 H   0  0  0  0  0  0  0  0  0  0  0  0
    0.6270   -1.7970    0.5420 H   0  0  0  0  0  0  0  0  0  0  0  0
   -0.2730    0.8110    0.7050 N   0  0  0  0  0  0  0  0  0  0  0  0
   -1.2540    1.8800    0.7600 C   0  0  1  0  0  0  0  0  0  0  0  0
   -2.5460    1.3180    0.1960 C   0  0  0  0  0  0  0  0  0  0  0  0
   -3.0430    0.1400    0.9800 C   0  0  0  0  0  0  0  0  0  0  0  0
   -4.3090   -0.3170    0.3310 C   0  0  0  0  0  0  0  0  0  0  0  0
   -4.8010    0.2320   -0.6790 O   0  0  0  0  0  0  0  0  0  0  0  0
   -1.4220    2.4190    2.1140 C   0  0  0  0  0  0  0  0  0  0  0  0
   -0.7530    1.9500    3.0520 O   0  0  0  0  0  0  0  0  0  0  0  0
   -4.9820   -1.4090    0.8690 O   0  0  0  0  0  0  0  0  0  0  0  0
   -2.3110    3.4370    2.3530 O   0  0  0  0  0  0  0  0  0  0  0  0
   -0.4590   -0.0320    1.2840 H   0  0  0  0  0  0  0  0  0  0  0  0
   -0.9430    2.7350    0.0970 H   0  0  0  0  0  0  0  0  0  0  0  0
   -2.4280    1.0210   -0.8650 H   0  0  0  0  0  0  0  0  0  0  0  0
   -3.3500    2.1020    0.2030 H   0  0  0  0  0  0  0  0  0  0  0  0
   -2.3410   -0.7170    0.9060 H   0  0  0  0  0  0  0  0  0  0  0  0
   -3.2080    0.4800    2.0230 H   0  0  0  0  0  0  0  0  0  0  0  0
   -5.9870   -1.5050    0.8380 H   0  0  0  0  0  0  0  0  0  0  0  0
  1  7  1  0  0  0  0
  2  9  1  0  0  0  0
  2  1  1  0  0  0  0
  3 10  1  6  0  0  0
  3  2  1  0  0  0  0
  3  4  1  0  0  0  0
  4 12  1  0  0  0  0
  5  6  2  0  0  0  0
  5  3  1  0  0  0  0
  8  2  1  0  0  0  0
 11  4  1  0  0  0  0
 13 14  1  0  0  0  0
 13 22  1  0  0  0  0
 13 21  1  0  0  0  0
 14 16  1  0  0  0  0
 15 25  1  0  0  0  0
 15 14  1  0  0  0  0
 16 18  1  0  0  0  0
 16 27  1  1  0  0  0
 16 17  1  0  0  0  0
 17  5  1  0  0  0  0
 18 29  1  0  0  0  0
 19 18  2  0  0  0  0
 20 13  1  0  0  0  0
 23 14  1  0  0  0  0
 24 15  1  0  0  0  0
 26 15  1  0  0  0  0
 28 17  1  0  0  0  0
 29 30  1  0  0  0  0
 29 39  1  0  0  0  0
 30 40  1  6  0  0  0
 30 35  1  0  0  0  0
 31 42  1  0  0  0  0
 31 30  1  0  0  0  0
 31 32  1  0  0  0  0
 32 44  1  0  0  0  0
 33 37  1  0  0  0  0
 33 32  1  0  0  0  0
 34 33  2  0  0  0  0
 35 38  2  0  0  0  0
 35 36  1  0  0  0  0
 41 31  1  0  0  0  0
 43 32  1  0  0  0  0
 45 37  1  0  0  0  0
M  END
$$$$
