SVG.pdb
 OpenBabel07022419103D

 36 35  0  0  1  0  0  0  0  0999 V2000
   -1.1870   -5.1840    0.3640 O   0  0  0  0  0  0  0  0  0  0  0  0
   -0.4050   -4.8560    1.4730 C   0  0  0  0  0  0  0  0  0  0  0  0
    0.7830   -4.0140    1.0380 C   0  0  2  0  0  0  0  0  0  0  0  0
    1.5550   -3.7060    2.2240 N   0  0  0  0  0  0  0  0  0  0  0  0
    0.2580   -2.7890    0.3760 C   0  0  0  0  0  0  0  0  0  0  0  0
   -0.4200   -2.9210   -0.6500 O   0  0  0  0  0  0  0  0  0  0  0  0
   -2.0730   -5.4990    0.5950 H   0  0  0  0  0  0  0  0  0  0  0  0
   -1.0210   -4.2130    2.1330 H   0  0  0  0  0  0  0  0  0  0  0  0
   -0.0770   -5.7760    1.9670 H   0  0  0  0  0  0  0  0  0  0  0  0
    1.4080   -4.5410    0.3050 H   0  0  0  0  0  0  0  0  0  0  0  0
    2.4710   -3.2820    2.0200 H   0  0  0  0  0  0  0  0  0  0  0  0
    0.9940   -3.1810    2.9060 H   0  0  0  0  0  0  0  0  0  0  0  0
   -2.1550   -0.5700    1.4460 C   0  0  0  0  0  0  0  0  0  0  0  0
   -0.9820    0.4020    1.1740 C   0  0  0  0  0  0  0  0  0  0  0  0
   -1.6410    1.6310    0.6290 C   0  0  0  0  0  0  0  0  0  0  0  0
    0.0120   -0.2620    0.2610 C   0  0  2  0  0  0  0  0  0  0  0  0
    0.5160   -1.4960    0.8900 N   0  0  0  0  0  0  0  0  0  0  0  0
    1.1190    0.5620   -0.2120 C   0  0  0  0  0  0  0  0  0  0  0  0
    2.3390    0.2530    0.0540 O   0  0  0  0  0  0  0  0  0  0  0  0
   -1.8680   -1.3330    2.1810 H   0  0  0  0  0  0  0  0  0  0  0  0
   -2.4230   -1.0550    0.4870 H   0  0  0  0  0  0  0  0  0  0  0  0
   -3.0550    0.0000    1.7660 H   0  0  0  0  0  0  0  0  0  0  0  0
   -0.5340    0.5720    2.1740 H   0  0  0  0  0  0  0  0  0  0  0  0
   -0.9840    2.5080    0.7950 H   0  0  0  0  0  0  0  0  0  0  0  0
   -2.5590    1.9010    1.2550 H   0  0  0  0  0  0  0  0  0  0  0  0
   -2.0480    1.5130   -0.3740 H   0  0  0  0  0  0  0  0  0  0  0  0
   -0.5540   -0.6070   -0.6170 H   0  0  0  0  0  0  0  0  0  0  0  0
    1.0940   -1.4590    1.7580 H   0  0  0  0  0  0  0  0  0  0  0  0
    0.9590    1.7240   -0.9770 N   0  0  0  0  0  0  0  0  0  0  0  0
    2.1090    2.5280   -1.4260 C   0  0  0  0  0  0  0  0  0  0  0  0
    2.8090    2.9880   -0.2010 C   0  0  0  0  0  0  0  0  0  0  0  0
    2.4130    2.7100    0.9430 O   0  0  0  0  0  0  0  0  0  0  0  0
    3.9600    3.7660   -0.3310 O   0  0  0  0  0  0  0  0  0  0  0  0
    0.0390    2.0440   -1.2580 H   0  0  0  0  0  0  0  0  0  0  0  0
    2.7850    1.8130   -1.9730 H   0  0  0  0  0  0  0  0  0  0  0  0
    1.7910    3.3570   -2.0730 H   0  0  0  0  0  0  0  0  0  0  0  0
  1  7  1  0  0  0  0
  1  2  1  0  0  0  0
  2  9  1  0  0  0  0
  2  8  1  0  0  0  0
  3 10  1  6  0  0  0
  3  2  1  0  0  0  0
  3  4  1  0  0  0  0
  4 12  1  0  0  0  0
  5 17  1  0  0  0  0
  5  3  1  0  0  0  0
  6  5  2  0  0  0  0
 11  4  1  0  0  0  0
 13 22  1  0  0  0  0
 13 20  1  0  0  0  0
 14 13  1  0  0  0  0
 14 23  1  0  0  0  0
 15 24  1  0  0  0  0
 15 14  1  0  0  0  0
 15 25  1  0  0  0  0
 16 27  1  6  0  0  0
 16 17  1  0  0  0  0
 16 14  1  0  0  0  0
 17 28  1  0  0  0  0
 18 19  2  0  0  0  0
 18 16  1  0  0  0  0
 21 13  1  0  0  0  0
 26 15  1  0  0  0  0
 29 18  1  0  0  0  0
 30 29  1  0  0  0  0
 30 31  1  0  0  0  0
 31 32  1  0  0  0  0
 33 31  2  0  0  0  0
 34 29  1  0  0  0  0
 35 30  1  0  0  0  0
 36 30  1  0  0  0  0
M  END
$$$$
