SVK.pdb
 OpenBabel07022419103D

 50 49  0  0  1  0  0  0  0  0999 V2000
    1.8230   -3.1380    3.6890 O   0  0  0  0  0  0  0  0  0  0  0  0
    1.6460   -3.7080    2.4350 C   0  0  0  0  0  0  0  0  0  0  0  0
    2.8480   -3.4870    1.5400 C   0  0  2  0  0  0  0  0  0  0  0  0
    4.0220   -4.0800    2.1430 N   0  0  0  0  0  0  0  0  0  0  0  0
    3.0340   -2.0470    1.2280 C   0  0  0  0  0  0  0  0  0  0  0  0
    4.1090   -1.4450    1.4750 O   0  0  0  0  0  0  0  0  0  0  0  0
    0.9990   -2.6650    4.0090 H   0  0  0  0  0  0  0  0  0  0  0  0
    0.7270   -3.2630    2.0090 H   0  0  0  0  0  0  0  0  0  0  0  0
    1.4350   -4.7880    2.5650 H   0  0  0  0  0  0  0  0  0  0  0  0
    2.6420   -4.0870    0.6080 H   0  0  0  0  0  0  0  0  0  0  0  0
    4.8510   -3.5240    1.8900 H   0  0  0  0  0  0  0  0  0  0  0  0
    4.1040   -5.0940    1.9560 H   0  0  0  0  0  0  0  0  0  0  0  0
    2.9810   -0.5790   -1.9420 C   0  0  0  0  0  0  0  0  0  0  0  0
    1.8650    0.1550   -1.2180 C   0  0  0  0  0  0  0  0  0  0  0  0
    1.8830    1.5880   -1.7000 C   0  0  0  0  0  0  0  0  0  0  0  0
    2.0200    0.0610    0.2830 C   0  0  2  0  0  0  0  0  0  0  0  0
    1.9850   -1.3330    0.6400 N   0  0  0  0  0  0  0  0  0  0  0  0
    0.9150    0.8390    0.8940 C   0  0  0  0  0  0  0  0  0  0  0  0
    0.8340    2.0720    0.6600 O   0  0  0  0  0  0  0  0  0  0  0  0
    2.8580   -1.6780   -1.8680 H   0  0  0  0  0  0  0  0  0  0  0  0
    2.9360   -0.2760   -2.9990 H   0  0  0  0  0  0  0  0  0  0  0  0
    3.9610   -0.2580   -1.5090 H   0  0  0  0  0  0  0  0  0  0  0  0
    0.9160   -0.2940   -1.5680 H   0  0  0  0  0  0  0  0  0  0  0  0
    2.2060    1.5630   -2.7600 H   0  0  0  0  0  0  0  0  0  0  0  0
    0.8840    2.0600   -1.6800 H   0  0  0  0  0  0  0  0  0  0  0  0
    2.6550    2.1680   -1.1490 H   0  0  0  0  0  0  0  0  0  0  0  0
    3.0080    0.4910    0.5430 H   0  0  0  0  0  0  0  0  0  0  0  0
    1.0880   -1.8440    0.4360 H   0  0  0  0  0  0  0  0  0  0  0  0
   -0.0750    0.2870    1.7390 N   0  0  0  0  0  0  0  0  0  0  0  0
   -1.1510    1.0630    2.3290 C   0  0  1  0  0  0  0  0  0  0  0  0
   -2.4450    0.4410    1.8310 C   0  0  0  0  0  0  0  0  0  0  0  0
   -2.5250    0.4930    0.3090 C   0  0  0  0  0  0  0  0  0  0  0  0
   -3.8570   -0.1570   -0.0580 C   0  0  0  0  0  0  0  0  0  0  0  0
   -4.0670   -0.1720   -1.5520 C   0  0  0  0  0  0  0  0  0  0  0  0
   -5.3480   -0.8030   -1.8030 N   0  0  0  0  0  0  0  0  0  0  0  0
   -1.1630    0.9340    3.8080 C   0  0  0  0  0  0  0  0  0  0  0  0
   -0.2960    0.2130    4.3570 O   0  0  0  0  0  0  0  0  0  0  0  0
   -2.0820    1.5680    4.6250 O   0  0  0  0  0  0  0  0  0  0  0  0
   -0.0220   -0.7380    1.9450 H   0  0  0  0  0  0  0  0  0  0  0  0
   -1.0650    2.1200    2.0170 H   0  0  0  0  0  0  0  0  0  0  0  0
   -3.3410    0.9330    2.2450 H   0  0  0  0  0  0  0  0  0  0  0  0
   -2.5070   -0.6330    2.0990 H   0  0  0  0  0  0  0  0  0  0  0  0
   -2.4970    1.5390   -0.0250 H   0  0  0  0  0  0  0  0  0  0  0  0
   -1.7030   -0.0830   -0.1170 H   0  0  0  0  0  0  0  0  0  0  0  0
   -4.6530    0.3870    0.4740 H   0  0  0  0  0  0  0  0  0  0  0  0
   -3.8170   -1.1830    0.3620 H   0  0  0  0  0  0  0  0  0  0  0  0
   -3.2410   -0.6280   -2.0980 H   0  0  0  0  0  0  0  0  0  0  0  0
   -4.1950    0.9060   -1.8630 H   0  0  0  0  0  0  0  0  0  0  0  0
   -5.4170   -1.7330   -1.3270 H   0  0  0  0  0  0  0  0  0  0  0  0
   -5.5430   -0.9230   -2.8160 H   0  0  0  0  0  0  0  0  0  0  0  0
  1  7  1  0  0  0  0
  2  9  1  0  0  0  0
  2  1  1  0  0  0  0
  3 10  1  6  0  0  0
  3  4  1  0  0  0  0
  3  2  1  0  0  0  0
  5  6  2  0  0  0  0
  5  3  1  0  0  0  0
  8  2  1  0  0  0  0
 11  4  1  0  0  0  0
 12  4  1  0  0  0  0
 13 20  1  0  0  0  0
 13 22  1  0  0  0  0
 13 14  1  0  0  0  0
 14 16  1  0  0  0  0
 15 25  1  0  0  0  0
 15 14  1  0  0  0  0
 15 26  1  0  0  0  0
 16 27  1  1  0  0  0
 16 17  1  0  0  0  0
 16 18  1  0  0  0  0
 17  5  1  0  0  0  0
 18 29  1  0  0  0  0
 19 18  2  0  0  0  0
 21 13  1  0  0  0  0
 23 14  1  0  0  0  0
 24 15  1  0  0  0  0
 28 17  1  0  0  0  0
 29 39  1  0  0  0  0
 29 30  1  0  0  0  0
 30 40  1  6  0  0  0
 30 36  1  0  0  0  0
 31 42  1  0  0  0  0
 31 41  1  0  0  0  0
 31 30  1  0  0  0  0
 32 31  1  0  0  0  0
 33 32  1  0  0  0  0
 33 46  1  0  0  0  0
 33 45  1  0  0  0  0
 34 33  1  0  0  0  0
 35 34  1  0  0  0  0
 35 49  1  0  0  0  0
 36 37  2  0  0  0  0
 36 38  1  0  0  0  0
 43 32  1  0  0  0  0
 44 32  1  0  0  0  0
 47 34  1  0  0  0  0
 48 34  1  0  0  0  0
 50 35  1  0  0  0  0
M  END
$$$$
