SVL.pdb
 OpenBabel07022419103D

 48 47  0  0  1  0  0  0  0  0999 V2000
    0.5550   -3.4060    2.9490 O   0  0  0  0  0  0  0  0  0  0  0  0
    0.6830   -4.1280    1.7870 C   0  0  0  0  0  0  0  0  0  0  0  0
    1.9990   -3.8040    1.0660 C   0  0  2  0  0  0  0  0  0  0  0  0
    3.0640   -4.1450    1.9780 N   0  0  0  0  0  0  0  0  0  0  0  0
    2.0280   -2.3670    0.6910 C   0  0  0  0  0  0  0  0  0  0  0  0
    2.9140   -1.6270    1.1670 O   0  0  0  0  0  0  0  0  0  0  0  0
    0.5740   -2.4350    2.7200 H   0  0  0  0  0  0  0  0  0  0  0  0
   -0.1860   -3.9040    1.1450 H   0  0  0  0  0  0  0  0  0  0  0  0
    0.6380   -5.2060    2.0270 H   0  0  0  0  0  0  0  0  0  0  0  0
    2.0890   -4.4540    0.1730 H   0  0  0  0  0  0  0  0  0  0  0  0
    2.8670   -3.6980    2.9020 H   0  0  0  0  0  0  0  0  0  0  0  0
    3.0180   -5.1780    2.1300 H   0  0  0  0  0  0  0  0  0  0  0  0
    0.2920   -0.8340   -2.9290 C   0  0  0  0  0  0  0  0  0  0  0  0
    1.3120   -0.1890   -2.0560 C   0  0  0  0  0  0  0  0  0  0  0  0
    2.7280   -0.5560   -2.4440 C   0  0  0  0  0  0  0  0  0  0  0  0
    1.0780   -0.4080   -0.5800 C   0  0  2  0  0  0  0  0  0  0  0  0
    1.0840   -1.7840   -0.1950 N   0  0  0  0  0  0  0  0  0  0  0  0
   -0.1460    0.2990   -0.1210 C   0  0  0  0  0  0  0  0  0  0  0  0
   -0.2960    1.5170   -0.3830 O   0  0  0  0  0  0  0  0  0  0  0  0
    0.7290   -0.9630   -3.9420 H   0  0  0  0  0  0  0  0  0  0  0  0
   -0.0300   -1.8340   -2.5730 H   0  0  0  0  0  0  0  0  0  0  0  0
   -0.6160   -0.2050   -3.0700 H   0  0  0  0  0  0  0  0  0  0  0  0
    1.2270    0.9240   -2.2150 H   0  0  0  0  0  0  0  0  0  0  0  0
    3.1240    0.0860   -3.2350 H   0  0  0  0  0  0  0  0  0  0  0  0
    3.3530   -0.3780   -1.5350 H   0  0  0  0  0  0  0  0  0  0  0  0
    2.8020   -1.6450   -2.6920 H   0  0  0  0  0  0  0  0  0  0  0  0
    1.9400    0.1000   -0.0570 H   0  0  0  0  0  0  0  0  0  0  0  0
    0.3500   -2.4290   -0.5800 H   0  0  0  0  0  0  0  0  0  0  0  0
   -1.4100    2.9520    3.4950 C   0  0  0  0  0  0  0  0  0  0  0  0
   -1.3960    1.5000    2.9580 C   0  0  0  0  0  0  0  0  0  0  0  0
    0.0480    1.1360    2.8530 C   0  0  0  0  0  0  0  0  0  0  0  0
   -2.2160    1.4690    1.7380 C   0  0  0  0  0  0  0  0  0  0  0  0
   -2.3040    0.1150    1.0950 C   0  0  2  0  0  0  0  0  0  0  0  0
   -1.1090   -0.4660    0.6120 N   0  0  0  0  0  0  0  0  0  0  0  0
   -3.4150   -0.0400    0.1550 C   0  0  0  0  0  0  0  0  0  0  0  0
   -3.2240   -0.6380   -0.9310 O   0  0  0  0  0  0  0  0  0  0  0  0
   -4.6950    0.4420    0.3930 O   0  0  0  0  0  0  0  0  0  0  0  0
   -2.4740    3.2030    3.6830 H   0  0  0  0  0  0  0  0  0  0  0  0
   -0.7770    3.0150    4.3990 H   0  0  0  0  0  0  0  0  0  0  0  0
   -1.0590    3.5930    2.6660 H   0  0  0  0  0  0  0  0  0  0  0  0
   -1.8230    0.8350    3.7790 H   0  0  0  0  0  0  0  0  0  0  0  0
    0.2360    0.0490    2.6580 H   0  0  0  0  0  0  0  0  0  0  0  0
    0.5660    1.2850    3.8570 H   0  0  0  0  0  0  0  0  0  0  0  0
    0.6460    1.7540    2.1700 H   0  0  0  0  0  0  0  0  0  0  0  0
   -3.2930    1.7210    1.9990 H   0  0  0  0  0  0  0  0  0  0  0  0
   -1.9320    2.2900    1.0500 H   0  0  0  0  0  0  0  0  0  0  0  0
   -2.5850   -0.5470    2.0100 H   0  0  0  0  0  0  0  0  0  0  0  0
   -0.9270   -1.4890    0.7960 H   0  0  0  0  0  0  0  0  0  0  0  0
  2  9  1  0  0  0  0
  2  1  1  0  0  0  0
  3 10  1  6  0  0  0
  3  2  1  0  0  0  0
  3  4  1  0  0  0  0
  4 12  1  0  0  0  0
  4 11  1  0  0  0  0
  5  3  1  0  0  0  0
  5  6  2  0  0  0  0
  7  1  1  0  0  0  0
  8  2  1  0  0  0  0
 13 21  1  0  0  0  0
 13 14  1  0  0  0  0
 14 16  1  0  0  0  0
 15 14  1  0  0  0  0
 15 25  1  0  0  0  0
 16 17  1  0  0  0  0
 16 18  1  0  0  0  0
 16 27  1  1  0  0  0
 17  5  1  0  0  0  0
 18 34  1  0  0  0  0
 19 18  2  0  0  0  0
 20 13  1  0  0  0  0
 22 13  1  0  0  0  0
 23 14  1  0  0  0  0
 24 15  1  0  0  0  0
 26 15  1  0  0  0  0
 28 17  1  0  0  0  0
 29 38  1  0  0  0  0
 29 39  1  0  0  0  0
 30 29  1  0  0  0  0
 30 41  1  0  0  0  0
 31 30  1  0  0  0  0
 31 43  1  0  0  0  0
 32 45  1  0  0  0  0
 32 30  1  0  0  0  0
 33 32  1  0  0  0  0
 33 47  1  1  0  0  0
 34 48  1  0  0  0  0
 34 33  1  0  0  0  0
 35 37  1  0  0  0  0
 35 33  1  0  0  0  0
 36 35  2  0  0  0  0
 40 29  1  0  0  0  0
 42 31  1  0  0  0  0
 44 31  1  0  0  0  0
 46 32  1  0  0  0  0
M  END
$$$$
