SVM.pdb
 OpenBabel07022419103D

 46 45  0  0  1  0  0  0  0  0999 V2000
    3.3900   -3.4540    0.5760 O   0  0  0  0  0  0  0  0  0  0  0  0
    2.8060   -4.6830    0.3930 C   0  0  0  0  0  0  0  0  0  0  0  0
    1.4480   -4.7520    1.0230 C   0  0  2  0  0  0  0  0  0  0  0  0
    0.8480   -6.0600    0.8270 N   0  0  0  0  0  0  0  0  0  0  0  0
    0.5110   -3.6910    0.5030 C   0  0  0  0  0  0  0  0  0  0  0  0
   -0.4900   -4.1000   -0.0960 O   0  0  0  0  0  0  0  0  0  0  0  0
    4.3270   -3.4300    0.2840 H   0  0  0  0  0  0  0  0  0  0  0  0
    2.8040   -5.0140   -0.6690 H   0  0  0  0  0  0  0  0  0  0  0  0
    3.4360   -5.4280    0.9420 H   0  0  0  0  0  0  0  0  0  0  0  0
    1.5530   -4.5870    2.1090 H   0  0  0  0  0  0  0  0  0  0  0  0
    0.4560   -6.4520    1.7130 H   0  0  0  0  0  0  0  0  0  0  0  0
    1.4880   -6.7030    0.3480 H   0  0  0  0  0  0  0  0  0  0  0  0
   -0.3860   -2.1700   -1.9780 C   0  0  0  0  0  0  0  0  0  0  0  0
   -1.0970   -1.5830   -0.7440 C   0  0  0  0  0  0  0  0  0  0  0  0
   -1.8090   -0.3570   -1.2660 C   0  0  0  0  0  0  0  0  0  0  0  0
   -0.0310   -1.1870    0.2290 C   0  0  2  0  0  0  0  0  0  0  0  0
    0.7650   -2.3340    0.6920 N   0  0  0  0  0  0  0  0  0  0  0  0
   -0.3730   -0.3260    1.3350 C   0  0  0  0  0  0  0  0  0  0  0  0
   -0.1670   -0.7980    2.5220 O   0  0  0  0  0  0  0  0  0  0  0  0
    0.6470   -2.4450   -1.7990 H   0  0  0  0  0  0  0  0  0  0  0  0
   -0.9410   -2.9740   -2.4490 H   0  0  0  0  0  0  0  0  0  0  0  0
   -0.3190   -1.3680   -2.7880 H   0  0  0  0  0  0  0  0  0  0  0  0
   -1.8340   -2.3120   -0.3420 H   0  0  0  0  0  0  0  0  0  0  0  0
   -2.3390   -0.6430   -2.2500 H   0  0  0  0  0  0  0  0  0  0  0  0
   -2.5340    0.0720   -0.5820 H   0  0  0  0  0  0  0  0  0  0  0  0
   -1.0390    0.3810   -1.5480 H   0  0  0  0  0  0  0  0  0  0  0  0
    0.7080   -0.6430   -0.4590 H   0  0  0  0  0  0  0  0  0  0  0  0
    1.6570   -2.1190    1.2540 H   0  0  0  0  0  0  0  0  0  0  0  0
    1.4680    5.3980    1.2570 C   0  0  0  0  0  0  0  0  0  0  0  0
    1.8490    4.4600    2.7480 S   0  0  0  0  0  0  0  0  0  0  0  0
    1.0140    2.8410    2.6330 C   0  0  0  0  0  0  0  0  0  0  0  0
   -0.5000    3.0260    2.6700 C   0  0  0  0  0  0  0  0  0  0  0  0
   -1.1980    1.7060    2.5770 C   0  0  2  0  0  0  0  0  0  0  0  0
   -0.9010    0.9750    1.3630 N   0  0  0  0  0  0  0  0  0  0  0  0
   -2.6760    1.8950    2.6060 C   0  0  0  0  0  0  0  0  0  0  0  0
   -3.1740    2.5090    3.5760 O   0  0  0  0  0  0  0  0  0  0  0  0
   -3.5310    1.4290    1.6190 O   0  0  0  0  0  0  0  0  0  0  0  0
    1.4630    6.4870    1.5500 H   0  0  0  0  0  0  0  0  0  0  0  0
    0.4440    5.1140    0.9410 H   0  0  0  0  0  0  0  0  0  0  0  0
    2.2020    5.2880    0.4560 H   0  0  0  0  0  0  0  0  0  0  0  0
    1.3510    2.2250    3.4770 H   0  0  0  0  0  0  0  0  0  0  0  0
    1.3570    2.3790    1.7020 H   0  0  0  0  0  0  0  0  0  0  0  0
   -0.7070    3.4190    3.7050 H   0  0  0  0  0  0  0  0  0  0  0  0
   -0.8450    3.7900    1.9790 H   0  0  0  0  0  0  0  0  0  0  0  0
   -0.9500    1.1280    3.4920 H   0  0  0  0  0  0  0  0  0  0  0  0
   -1.0650    1.4460    0.4620 H   0  0  0  0  0  0  0  0  0  0  0  0
  2  1  1  0  0  0  0
  2  9  1  0  0  0  0
  2  3  1  0  0  0  0
  3 10  1  1  0  0  0
  4  3  1  0  0  0  0
  4 11  1  0  0  0  0
  5 17  1  0  0  0  0
  5  3  1  0  0  0  0
  6  5  2  0  0  0  0
  7  1  1  0  0  0  0
  8  2  1  0  0  0  0
 12  4  1  0  0  0  0
 13 20  1  0  0  0  0
 13 14  1  0  0  0  0
 14 23  1  0  0  0  0
 14 16  1  0  0  0  0
 15 14  1  0  0  0  0
 15 25  1  0  0  0  0
 16 27  1  6  0  0  0
 16 17  1  0  0  0  0
 16 18  1  0  0  0  0
 17 28  1  0  0  0  0
 18 34  1  0  0  0  0
 18 19  2  0  0  0  0
 21 13  1  0  0  0  0
 22 13  1  0  0  0  0
 24 15  1  0  0  0  0
 26 15  1  0  0  0  0
 29 38  1  0  0  0  0
 29 30  1  0  0  0  0
 31 32  1  0  0  0  0
 31 30  1  0  0  0  0
 31 41  1  0  0  0  0
 32 43  1  0  0  0  0
 33 35  1  0  0  0  0
 33 32  1  0  0  0  0
 33 45  1  1  0  0  0
 34 33  1  0  0  0  0
 35 36  1  0  0  0  0
 37 35  2  0  0  0  0
 39 29  1  0  0  0  0
 40 29  1  0  0  0  0
 42 31  1  0  0  0  0
 44 32  1  0  0  0  0
 46 34  1  0  0  0  0
M  END
$$$$
