SVP.pdb
 OpenBabel07022419103D

 43 43  0  0  1  0  0  0  0  0999 V2000
   -2.3470   -3.8380    1.9810 O   0  0  0  0  0  0  0  0  0  0  0  0
   -1.2740   -2.9690    1.8570 C   0  0  0  0  0  0  0  0  0  0  0  0
   -0.1850   -3.6520    1.0730 C   0  0  2  0  0  0  0  0  0  0  0  0
    0.2780   -4.8620    1.7190 N   0  0  0  0  0  0  0  0  0  0  0  0
    0.9380   -2.7440    0.7350 C   0  0  0  0  0  0  0  0  0  0  0  0
    2.1430   -3.0580    1.0090 O   0  0  0  0  0  0  0  0  0  0  0  0
   -2.7920   -3.7700    2.8560 H   0  0  0  0  0  0  0  0  0  0  0  0
   -1.6200   -2.1050    1.2350 H   0  0  0  0  0  0  0  0  0  0  0  0
   -0.8770   -2.6340    2.8280 H   0  0  0  0  0  0  0  0  0  0  0  0
   -0.6730   -3.9970    0.1130 H   0  0  0  0  0  0  0  0  0  0  0  0
   -0.3770   -5.6660    1.5680 H   0  0  0  0  0  0  0  0  0  0  0  0
    0.2340   -4.6730    2.7580 H   0  0  0  0  0  0  0  0  0  0  0  0
    0.4360   -0.0860   -2.3040 C   0  0  0  0  0  0  0  0  0  0  0  0
    1.7730   -0.5410   -1.7950 C   0  0  0  0  0  0  0  0  0  0  0  0
    2.8410    0.3590   -2.3020 C   0  0  0  0  0  0  0  0  0  0  0  0
    1.7150   -0.5810   -0.2620 C   0  0  2  0  0  0  0  0  0  0  0  0
    0.6930   -1.4960    0.0930 N   0  0  0  0  0  0  0  0  0  0  0  0
    1.6970    0.7490    0.3200 C   0  0  0  0  0  0  0  0  0  0  0  0
    2.6460    1.5170   -0.1020 O   0  0  0  0  0  0  0  0  0  0  0  0
   -0.3740   -0.7990   -2.1570 H   0  0  0  0  0  0  0  0  0  0  0  0
    0.1590    0.8830   -1.8140 H   0  0  0  0  0  0  0  0  0  0  0  0
    0.4760    0.1490   -3.3920 H   0  0  0  0  0  0  0  0  0  0  0  0
    1.9570   -1.5590   -2.1760 H   0  0  0  0  0  0  0  0  0  0  0  0
    3.7690    0.2450   -1.7110 H   0  0  0  0  0  0  0  0  0  0  0  0
    3.1120    0.0030   -3.3400 H   0  0  0  0  0  0  0  0  0  0  0  0
    2.5280    1.4120   -2.4380 H   0  0  0  0  0  0  0  0  0  0  0  0
    2.7170   -1.0340    0.0240 H   0  0  0  0  0  0  0  0  0  0  0  0
   -0.3170   -1.2870   -0.1150 H   0  0  0  0  0  0  0  0  0  0  0  0
    0.8200    1.3150    1.2530 N   0  0  0  0  0  0  0  0  0  0  0  0
    0.8540    2.6630    1.7830 C   0  0  0  0  0  0  0  0  0  0  0  0
    0.7500    2.4090    3.2710 C   0  0  0  0  0  0  0  0  0  0  0  0
   -0.2780    1.3050    3.3150 C   0  0  0  0  0  0  0  0  0  0  0  0
   -0.3060    0.6960    1.9060 C   0  0  1  0  0  0  0  0  0  0  0  0
   -1.5800    0.9240    1.2420 C   0  0  0  0  0  0  0  0  0  0  0  0
   -2.6310    0.4360    1.7060 O   0  0  0  0  0  0  0  0  0  0  0  0
   -1.6510    1.6800    0.0920 O   0  0  0  0  0  0  0  0  0  0  0  0
    1.8580    3.0910    1.5790 H   0  0  0  0  0  0  0  0  0  0  0  0
    0.0350    3.2780    1.4020 H   0  0  0  0  0  0  0  0  0  0  0  0
    0.3000    3.2950    3.7660 H   0  0  0  0  0  0  0  0  0  0  0  0
    1.7100    2.1410    3.7240 H   0  0  0  0  0  0  0  0  0  0  0  0
    0.0640    0.5770    4.0750 H   0  0  0  0  0  0  0  0  0  0  0  0
   -1.2840    1.7030    3.5680 H   0  0  0  0  0  0  0  0  0  0  0  0
   -0.0400   -0.3710    2.0600 H   0  0  0  0  0  0  0  0  0  0  0  0
  1  7  1  0  0  0  0
  2  1  1  0  0  0  0
  2  9  1  0  0  0  0
  3 10  1  6  0  0  0
  3  4  1  0  0  0  0
  3  2  1  0  0  0  0
  4 12  1  0  0  0  0
  5  6  2  0  0  0  0
  5  3  1  0  0  0  0
  8  2  1  0  0  0  0
 11  4  1  0  0  0  0
 13 20  1  0  0  0  0
 13 21  1  0  0  0  0
 13 14  1  0  0  0  0
 14 16  1  0  0  0  0
 15 14  1  0  0  0  0
 15 24  1  0  0  0  0
 16 27  1  1  0  0  0
 16 17  1  0  0  0  0
 16 18  1  0  0  0  0
 17  5  1  0  0  0  0
 18 29  1  0  0  0  0
 19 18  2  0  0  0  0
 22 13  1  0  0  0  0
 23 14  1  0  0  0  0
 25 15  1  0  0  0  0
 26 15  1  0  0  0  0
 28 17  1  0  0  0  0
 29 30  1  0  0  0  0
 29 33  1  0  0  0  0
 30 31  1  0  0  0  0
 31 32  1  0  0  0  0
 31 40  1  0  0  0  0
 31 39  1  0  0  0  0
 32 42  1  0  0  0  0
 32 41  1  0  0  0  0
 33 43  1  1  0  0  0
 33 32  1  0  0  0  0
 34 35  1  0  0  0  0
 34 33  1  0  0  0  0
 36 34  2  0  0  0  0
 37 30  1  0  0  0  0
 38 30  1  0  0  0  0
M  END
$$$$
