SVQ.pdb
 OpenBabel07022419103D

 46 45  0  0  1  0  0  0  0  0999 V2000
    4.0490    0.1130   -4.0130 O   0  0  0  0  0  0  0  0  0  0  0  0
    3.0900    0.3220   -3.0160 C   0  0  0  0  0  0  0  0  0  0  0  0
    1.7110   -0.0320   -3.5240 C   0  0  2  0  0  0  0  0  0  0  0  0
    1.4220    0.8120   -4.6720 N   0  0  0  0  0  0  0  0  0  0  0  0
    0.6730    0.1930   -2.4560 C   0  0  0  0  0  0  0  0  0  0  0  0
   -0.1470    1.1290   -2.7060 O   0  0  0  0  0  0  0  0  0  0  0  0
    4.5650   -0.6970   -3.8390 H   0  0  0  0  0  0  0  0  0  0  0  0
    3.0630    1.4480   -2.8400 H   0  0  0  0  0  0  0  0  0  0  0  0
    3.3070   -0.1800   -2.0690 H   0  0  0  0  0  0  0  0  0  0  0  0
    1.6910   -1.0820   -3.8800 H   0  0  0  0  0  0  0  0  0  0  0  0
    0.7150    1.5200   -4.4930 H   0  0  0  0  0  0  0  0  0  0  0  0
    2.2800    1.2220   -5.0670 H   0  0  0  0  0  0  0  0  0  0  0  0
   -1.7990   -1.6910   -1.6800 C   0  0  0  0  0  0  0  0  0  0  0  0
   -1.2930   -1.5440   -0.1960 C   0  0  0  0  0  0  0  0  0  0  0  0
   -2.6100   -1.2760    0.5390 C   0  0  0  0  0  0  0  0  0  0  0  0
   -0.4200   -0.3500   -0.2740 C   0  0  2  0  0  0  0  0  0  0  0  0
    0.6410   -0.5730   -1.3010 N   0  0  0  0  0  0  0  0  0  0  0  0
    0.2470    0.1500    0.9390 C   0  0  0  0  0  0  0  0  0  0  0  0
    1.4670    0.5490    0.7890 O   0  0  0  0  0  0  0  0  0  0  0  0
   -2.1500   -0.6990   -1.9980 H   0  0  0  0  0  0  0  0  0  0  0  0
   -0.9270   -2.0520   -2.2680 H   0  0  0  0  0  0  0  0  0  0  0  0
   -2.5680   -2.4980   -1.7070 H   0  0  0  0  0  0  0  0  0  0  0  0
   -0.8340   -2.5010    0.0290 H   0  0  0  0  0  0  0  0  0  0  0  0
   -2.6830   -1.7600    1.5030 H   0  0  0  0  0  0  0  0  0  0  0  0
   -2.8370   -0.1940    0.5150 H   0  0  0  0  0  0  0  0  0  0  0  0
   -3.4790   -1.7350   -0.0680 H   0  0  0  0  0  0  0  0  0  0  0  0
   -1.0490    0.4850   -0.6810 H   0  0  0  0  0  0  0  0  0  0  0  0
    1.3390   -1.3330   -1.0850 H   0  0  0  0  0  0  0  0  0  0  0  0
   -1.4460   -3.1230    6.1550 N   0  0  0  0  0  0  0  0  0  0  0  0
   -1.3330   -1.7160    5.8980 C   0  0  0  0  0  0  0  0  0  0  0  0
   -1.9030   -0.9320    6.6780 O   0  0  0  0  0  0  0  0  0  0  0  0
   -0.5590   -1.2610    4.7300 C   0  0  0  0  0  0  0  0  0  0  0  0
   -0.5410    0.2500    4.6580 C   0  0  0  0  0  0  0  0  0  0  0  0
    0.2480    0.7310    3.4500 C   0  0  2  0  0  0  0  0  0  0  0  0
   -0.2990    0.2400    2.2340 N   0  0  0  0  0  0  0  0  0  0  0  0
    1.6880    0.6850    3.6960 C   0  0  0  0  0  0  0  0  0  0  0  0
    2.6550    0.3690    3.0050 O   0  0  0  0  0  0  0  0  0  0  0  0
    2.0850    1.0910    5.0310 O   0  0  0  0  0  0  0  0  0  0  0  0
   -1.9300   -3.4270    7.0380 H   0  0  0  0  0  0  0  0  0  0  0  0
   -1.0640   -3.8240    5.4700 H   0  0  0  0  0  0  0  0  0  0  0  0
   -1.0810   -1.6230    3.8120 H   0  0  0  0  0  0  0  0  0  0  0  0
    0.4330   -1.6940    4.7550 H   0  0  0  0  0  0  0  0  0  0  0  0
   -1.5330    0.6890    4.6120 H   0  0  0  0  0  0  0  0  0  0  0  0
   -0.0320    0.5750    5.5980 H   0  0  0  0  0  0  0  0  0  0  0  0
    0.0550    1.8680    3.4190 H   0  0  0  0  0  0  0  0  0  0  0  0
   -1.3370   -0.1310    2.2670 H   0  0  0  0  0  0  0  0  0  0  0  0
  1  7  1  0  0  0  0
  1  2  1  0  0  0  0
  2  8  1  0  0  0  0
  2  9  1  0  0  0  0
  3 10  1  6  0  0  0
  3  2  1  0  0  0  0
  3  5  1  0  0  0  0
  4 11  1  0  0  0  0
  4  3  1  0  0  0  0
  5 17  1  0  0  0  0
  6  5  2  0  0  0  0
 12  4  1  0  0  0  0
 13 14  1  0  0  0  0
 14 23  1  0  0  0  0
 14 15  1  0  0  0  0
 15 24  1  0  0  0  0
 16 27  1  6  0  0  0
 16 14  1  0  0  0  0
 16 18  1  0  0  0  0
 17 28  1  0  0  0  0
 17 16  1  0  0  0  0
 18 35  1  0  0  0  0
 19 18  2  0  0  0  0
 20 13  1  0  0  0  0
 21 13  1  0  0  0  0
 22 13  1  0  0  0  0
 25 15  1  0  0  0  0
 26 15  1  0  0  0  0
 29 39  1  0  0  0  0
 30 29  1  0  0  0  0
 30 31  2  0  0  0  0
 32 42  1  0  0  0  0
 32 30  1  0  0  0  0
 33 32  1  0  0  0  0
 33 44  1  0  0  0  0
 34 45  1  6  0  0  0
 34 36  1  0  0  0  0
 34 33  1  0  0  0  0
 35 46  1  0  0  0  0
 35 34  1  0  0  0  0
 36 38  1  0  0  0  0
 37 36  2  0  0  0  0
 40 29  1  0  0  0  0
 41 32  1  0  0  0  0
 43 33  1  0  0  0  0
M  END
$$$$
