SVT.pdb
 OpenBabel07022419103D

 43 42  0  0  1  0  0  0  0  0999 V2000
    1.2690   -5.9430    2.5950 O   0  0  0  0  0  0  0  0  0  0  0  0
    1.8250   -4.8880    1.8810 C   0  0  0  0  0  0  0  0  0  0  0  0
    1.0400   -3.6050    2.0940 C   0  0  2  0  0  0  0  0  0  0  0  0
   -0.3170   -3.7290    1.6730 N   0  0  0  0  0  0  0  0  0  0  0  0
    1.7020   -2.4550    1.4400 C   0  0  0  0  0  0  0  0  0  0  0  0
    2.9270   -2.1780    1.6880 O   0  0  0  0  0  0  0  0  0  0  0  0
    0.6740   -5.6190    3.3190 H   0  0  0  0  0  0  0  0  0  0  0  0
    1.8130   -5.1690    0.7980 H   0  0  0  0  0  0  0  0  0  0  0  0
    2.8760   -4.7810    2.1850 H   0  0  0  0  0  0  0  0  0  0  0  0
    1.0130   -3.4710    3.2170 H   0  0  0  0  0  0  0  0  0  0  0  0
   -0.8430   -2.8730    1.9050 H   0  0  0  0  0  0  0  0  0  0  0  0
   -0.3430   -3.8670    0.6430 H   0  0  0  0  0  0  0  0  0  0  0  0
    0.1430   -0.9270   -2.0300 C   0  0  0  0  0  0  0  0  0  0  0  0
    1.6040   -0.7700   -1.6260 C   0  0  0  0  0  0  0  0  0  0  0  0
    2.1850    0.3570   -2.4190 C   0  0  0  0  0  0  0  0  0  0  0  0
    1.6100   -0.4990   -0.1380 C   0  0  2  0  0  0  0  0  0  0  0  0
    0.9830   -1.6450    0.5260 N   0  0  0  0  0  0  0  0  0  0  0  0
    0.8240    0.7570    0.1050 C   0  0  0  0  0  0  0  0  0  0  0  0
    1.2710    1.7840   -0.4140 O   0  0  0  0  0  0  0  0  0  0  0  0
   -0.5420   -0.5110   -1.2450 H   0  0  0  0  0  0  0  0  0  0  0  0
   -0.0850   -0.3690   -2.9600 H   0  0  0  0  0  0  0  0  0  0  0  0
   -0.0700   -2.0080   -2.2230 H   0  0  0  0  0  0  0  0  0  0  0  0
    2.1750   -1.6870   -1.8770 H   0  0  0  0  0  0  0  0  0  0  0  0
    3.0640    0.8180   -1.9430 H   0  0  0  0  0  0  0  0  0  0  0  0
    2.5240   -0.0550   -3.3980 H   0  0  0  0  0  0  0  0  0  0  0  0
    1.3870    1.0960   -2.6490 H   0  0  0  0  0  0  0  0  0  0  0  0
    2.6610   -0.3990    0.1850 H   0  0  0  0  0  0  0  0  0  0  0  0
   -0.0090   -1.8950    0.3450 H   0  0  0  0  0  0  0  0  0  0  0  0
   -1.3610    1.7310    3.6350 C   0  0  0  0  0  0  0  0  0  0  0  0
   -0.9230    2.5740    2.4640 C   0  0  1  0  0  0  0  0  0  0  0  0
    0.3660    3.0490    2.6050 O   0  0  0  0  0  0  0  0  0  0  0  0
   -1.1640    1.9030    1.1480 C   0  0  2  0  0  0  0  0  0  0  0  0
   -0.3450    0.7720    0.8730 N   0  0  0  0  0  0  0  0  0  0  0  0
   -1.3290    2.8570    0.0130 C   0  0  0  0  0  0  0  0  0  0  0  0
   -0.9030    2.6630   -1.1280 O   0  0  0  0  0  0  0  0  0  0  0  0
   -2.0240    4.0420    0.3200 O   0  0  0  0  0  0  0  0  0  0  0  0
   -0.4810    1.1800    4.0780 H   0  0  0  0  0  0  0  0  0  0  0  0
   -1.7380    2.3680    4.4880 H   0  0  0  0  0  0  0  0  0  0  0  0
   -2.1820    1.0430    3.3590 H   0  0  0  0  0  0  0  0  0  0  0  0
   -1.5900    3.4830    2.4760 H   0  0  0  0  0  0  0  0  0  0  0  0
    0.9840    2.3260    2.8510 H   0  0  0  0  0  0  0  0  0  0  0  0
   -2.2560    1.4950    1.2260 H   0  0  0  0  0  0  0  0  0  0  0  0
   -0.6360   -0.1830    1.2900 H   0  0  0  0  0  0  0  0  0  0  0  0
  1  7  1  0  0  0  0
  2  3  1  0  0  0  0
  2  9  1  0  0  0  0
  2  1  1  0  0  0  0
  3 10  1  1  0  0  0
  4 11  1  0  0  0  0
  4  3  1  0  0  0  0
  5  6  2  0  0  0  0
  5  3  1  0  0  0  0
  8  2  1  0  0  0  0
 12  4  1  0  0  0  0
 13 14  1  0  0  0  0
 13 20  1  0  0  0  0
 14 16  1  0  0  0  0
 15 24  1  0  0  0  0
 15 14  1  0  0  0  0
 16 18  1  0  0  0  0
 16 27  1  1  0  0  0
 16 17  1  0  0  0  0
 17  5  1  0  0  0  0
 18 33  1  0  0  0  0
 19 18  2  0  0  0  0
 21 13  1  0  0  0  0
 22 13  1  0  0  0  0
 23 14  1  0  0  0  0
 25 15  1  0  0  0  0
 26 15  1  0  0  0  0
 28 17  1  0  0  0  0
 29 37  1  0  0  0  0
 29 38  1  0  0  0  0
 30 40  1  1  0  0  0
 30 31  1  0  0  0  0
 30 29  1  0  0  0  0
 31 41  1  0  0  0  0
 32 42  1  1  0  0  0
 32 30  1  0  0  0  0
 33 32  1  0  0  0  0
 33 43  1  0  0  0  0
 34 36  1  0  0  0  0
 34 32  1  0  0  0  0
 35 34  2  0  0  0  0
 39 29  1  0  0  0  0
M  END
$$$$
