SVV.pdb
 OpenBabel07022419103D

 45 44  0  0  1  0  0  0  0  0999 V2000
   -0.8500   -6.3780    0.3070 O   0  0  0  0  0  0  0  0  0  0  0  0
   -0.0150   -5.3810   -0.1710 C   0  0  0  0  0  0  0  0  0  0  0  0
    0.0220   -4.1990    0.7900 C   0  0  2  0  0  0  0  0  0  0  0  0
   -1.3040   -3.6510    0.9470 N   0  0  0  0  0  0  0  0  0  0  0  0
    0.9500   -3.1770    0.1960 C   0  0  0  0  0  0  0  0  0  0  0  0
    2.1540   -3.4600   -0.0210 O   0  0  0  0  0  0  0  0  0  0  0  0
   -0.8030   -6.4190    1.2990 H   0  0  0  0  0  0  0  0  0  0  0  0
   -0.4090   -4.9650   -1.1340 H   0  0  0  0  0  0  0  0  0  0  0  0
    1.0160   -5.7410   -0.3310 H   0  0  0  0  0  0  0  0  0  0  0  0
    0.4020   -4.5730    1.7490 H   0  0  0  0  0  0  0  0  0  0  0  0
   -1.7200   -3.3300    0.0620 H   0  0  0  0  0  0  0  0  0  0  0  0
   -1.2700   -2.9320    1.7010 H   0  0  0  0  0  0  0  0  0  0  0  0
    1.8170    0.6130   -2.6130 C   0  0  0  0  0  0  0  0  0  0  0  0
    0.8800   -0.4540   -2.0900 C   0  0  0  0  0  0  0  0  0  0  0  0
   -0.5430   -0.0050   -2.1210 C   0  0  0  0  0  0  0  0  0  0  0  0
    1.3380   -0.8570   -0.7040 C   0  0  2  0  0  0  0  0  0  0  0  0
    0.4950   -1.8720   -0.1350 N   0  0  0  0  0  0  0  0  0  0  0  0
    1.3850    0.3620    0.1800 C   0  0  0  0  0  0  0  0  0  0  0  0
    2.0680    1.3690   -0.1360 O   0  0  0  0  0  0  0  0  0  0  0  0
    1.9500    0.5260   -3.7290 H   0  0  0  0  0  0  0  0  0  0  0  0
    1.4180    1.6390   -2.4430 H   0  0  0  0  0  0  0  0  0  0  0  0
    2.8420    0.5220   -2.1950 H   0  0  0  0  0  0  0  0  0  0  0  0
    1.0430   -1.3610   -2.7400 H   0  0  0  0  0  0  0  0  0  0  0  0
   -1.0490   -0.0810   -1.1420 H   0  0  0  0  0  0  0  0  0  0  0  0
   -1.1060   -0.6310   -2.8450 H   0  0  0  0  0  0  0  0  0  0  0  0
   -0.5950    1.0480   -2.5230 H   0  0  0  0  0  0  0  0  0  0  0  0
    2.3540   -1.2910   -0.8200 H   0  0  0  0  0  0  0  0  0  0  0  0
   -0.5240   -1.6610    0.0590 H   0  0  0  0  0  0  0  0  0  0  0  0
   -1.6940    1.2870    2.9880 C   0  0  0  0  0  0  0  0  0  0  0  0
   -0.6730    2.2190    2.4090 C   0  0  0  0  0  0  0  0  0  0  0  0
   -0.5110    3.4470    3.2750 C   0  0  0  0  0  0  0  0  0  0  0  0
    0.6950    1.5910    2.2640 C   0  0  2  0  0  0  0  0  0  0  0  0
    0.6680    0.4310    1.3960 N   0  0  0  0  0  0  0  0  0  0  0  0
    1.1600    1.1610    3.5900 C   0  0  0  0  0  0  0  0  0  0  0  0
    1.4440   -0.0280    3.8020 O   0  0  0  0  0  0  0  0  0  0  0  0
    1.2790    2.0870    4.5990 O   0  0  0  0  0  0  0  0  0  0  0  0
   -1.5720    0.2380    2.7150 H   0  0  0  0  0  0  0  0  0  0  0  0
   -2.6960    1.6020    2.5760 H   0  0  0  0  0  0  0  0  0  0  0  0
   -1.7840    1.4580    4.0880 H   0  0  0  0  0  0  0  0  0  0  0  0
   -1.0150    2.5730    1.4010 H   0  0  0  0  0  0  0  0  0  0  0  0
   -0.7310    3.2360    4.3420 H   0  0  0  0  0  0  0  0  0  0  0  0
   -1.2060    4.2370    2.8750 H   0  0  0  0  0  0  0  0  0  0  0  0
    0.5040    3.8460    3.1040 H   0  0  0  0  0  0  0  0  0  0  0  0
    1.3470    2.3990    1.8450 H   0  0  0  0  0  0  0  0  0  0  0  0
    0.0880   -0.3760    1.7020 H   0  0  0  0  0  0  0  0  0  0  0  0
  1  7  1  0  0  0  0
  2  1  1  0  0  0  0
  2  3  1  0  0  0  0
  3  4  1  0  0  0  0
  3 10  1  1  0  0  0
  4 12  1  0  0  0  0
  5  3  1  0  0  0  0
  6  5  2  0  0  0  0
  8  2  1  0  0  0  0
  9  2  1  0  0  0  0
 11  4  1  0  0  0  0
 13 21  1  0  0  0  0
 13 22  1  0  0  0  0
 13 14  1  0  0  0  0
 14 16  1  0  0  0  0
 15 14  1  0  0  0  0
 15 24  1  0  0  0  0
 16 27  1  6  0  0  0
 16 17  1  0  0  0  0
 16 18  1  0  0  0  0
 17 28  1  0  0  0  0
 17  5  1  0  0  0  0
 18 33  1  0  0  0  0
 19 18  2  0  0  0  0
 20 13  1  0  0  0  0
 23 14  1  0  0  0  0
 25 15  1  0  0  0  0
 26 15  1  0  0  0  0
 29 39  1  0  0  0  0
 30 29  1  0  0  0  0
 30 31  1  0  0  0  0
 31 41  1  0  0  0  0
 32 44  1  6  0  0  0
 32 30  1  0  0  0  0
 32 34  1  0  0  0  0
 33 45  1  0  0  0  0
 33 32  1  0  0  0  0
 34 35  2  0  0  0  0
 34 36  1  0  0  0  0
 37 29  1  0  0  0  0
 38 29  1  0  0  0  0
 40 30  1  0  0  0  0
 42 31  1  0  0  0  0
 43 31  1  0  0  0  0
M  END
$$$$
