SWA.pdb
 OpenBabel07022419103D

 47 48  0  0  1  0  0  0  0  0999 V2000
   -0.7620   -4.2740    3.5920 O   0  0  0  0  0  0  0  0  0  0  0  0
   -0.8340   -3.5230    2.4420 C   0  0  0  0  0  0  0  0  0  0  0  0
    0.2430   -2.4560    2.3580 C   0  0  2  0  0  0  0  0  0  0  0  0
    0.1010   -1.5580    3.4910 N   0  0  0  0  0  0  0  0  0  0  0  0
    0.0850   -1.7320    1.0740 C   0  0  0  0  0  0  0  0  0  0  0  0
    0.1610   -2.3680    0.0060 O   0  0  0  0  0  0  0  0  0  0  0  0
   -0.1510   -5.0270    3.5230 H   0  0  0  0  0  0  0  0  0  0  0  0
   -1.8180   -3.0030    2.4470 H   0  0  0  0  0  0  0  0  0  0  0  0
   -0.7450   -4.1460    1.5200 H   0  0  0  0  0  0  0  0  0  0  0  0
    1.2380   -2.9490    2.4370 H   0  0  0  0  0  0  0  0  0  0  0  0
   -0.5930   -1.9400    4.1980 H   0  0  0  0  0  0  0  0  0  0  0  0
    1.0070   -1.3870    3.9830 H   0  0  0  0  0  0  0  0  0  0  0  0
   -0.1540   -0.3120    1.0870 N   0  0  0  0  0  0  0  0  0  0  0  0
   -0.3270    0.4440   -0.1170 C   0  0  1  0  0  0  0  0  0  0  0  0
    0.9240    0.8350   -0.8470 C   0  0  0  0  0  0  0  0  0  0  0  0
    1.8280    1.6900   -0.0560 C   0  0  0  0  0  0  0  0  0  0  0  0
    1.8710    3.0880   -0.1480 C   0  0  0  0  0  0  0  0  0  0  0  0
    2.7750    3.5460    0.7310 N   0  0  0  0  0  0  0  0  0  0  0  0
    3.3450    2.5250    1.4100 C   0  0  0  0  0  0  0  0  0  0  0  0
    4.3130    2.5050    2.3900 C   0  0  0  0  0  0  0  0  0  0  0  0
    4.6900    1.2760    2.8810 C   0  0  0  0  0  0  0  0  0  0  0  0
    4.1260    0.1020    2.4150 C   0  0  0  0  0  0  0  0  0  0  0  0
    3.1630    0.1620    1.4370 C   0  0  0  0  0  0  0  0  0  0  0  0
    2.7450    1.3700    0.9080 C   0  0  0  0  0  0  0  0  0  0  0  0
   -1.4060   -0.0680   -1.0100 C   0  0  0  0  0  0  0  0  0  0  0  0
   -1.5080    0.4080   -2.1670 O   0  0  0  0  0  0  0  0  0  0  0  0
   -0.1860    0.1130    2.0620 H   0  0  0  0  0  0  0  0  0  0  0  0
   -0.7370    1.4690    0.2630 H   0  0  0  0  0  0  0  0  0  0  0  0
    0.6170    1.4110   -1.7730 H   0  0  0  0  0  0  0  0  0  0  0  0
    1.4850   -0.0610   -1.2010 H   0  0  0  0  0  0  0  0  0  0  0  0
    1.2560    3.6580   -0.8310 H   0  0  0  0  0  0  0  0  0  0  0  0
    3.0210    4.5490    0.8850 H   0  0  0  0  0  0  0  0  0  0  0  0
    4.7860    3.3790    2.7900 H   0  0  0  0  0  0  0  0  0  0  0  0
    5.4600    1.2200    3.6650 H   0  0  0  0  0  0  0  0  0  0  0  0
    4.4390   -0.8420    2.8150 H   0  0  0  0  0  0  0  0  0  0  0  0
    2.6940   -0.7160    1.0220 H   0  0  0  0  0  0  0  0  0  0  0  0
   -3.3050   -2.9970   -1.8390 C   0  0  0  0  0  0  0  0  0  0  0  0
   -3.3750   -1.5180   -1.5950 C   0  0  2  0  0  0  0  0  0  0  0  0
   -2.3470   -1.0680   -0.6430 N   0  0  0  0  0  0  0  0  0  0  0  0
   -4.6900   -1.2220   -0.9940 C   0  0  0  0  0  0  0  0  0  0  0  0
   -4.7520   -0.6740    0.1260 O   0  0  0  0  0  0  0  0  0  0  0  0
   -5.8830   -1.5370   -1.6410 O   0  0  0  0  0  0  0  0  0  0  0  0
   -2.5590   -3.4460   -1.1510 H   0  0  0  0  0  0  0  0  0  0  0  0
   -2.9470   -3.2340   -2.8720 H   0  0  0  0  0  0  0  0  0  0  0  0
   -4.3090   -3.4900   -1.7560 H   0  0  0  0  0  0  0  0  0  0  0  0
   -3.2380   -0.9800   -2.5720 H   0  0  0  0  0  0  0  0  0  0  0  0
   -2.3000   -1.4610    0.3170 H   0  0  0  0  0  0  0  0  0  0  0  0
  2  8  1  0  0  0  0
  2  1  1  0  0  0  0
  3 10  1  1  0  0  0
  3  2  1  0  0  0  0
  3  4  1  0  0  0  0
  4 12  1  0  0  0  0
  4 11  1  0  0  0  0
  5 13  1  0  0  0  0
  5  3  1  0  0  0  0
  6  5  2  0  0  0  0
  7  1  1  0  0  0  0
  9  2  1  0  0  0  0
 13 27  1  0  0  0  0
 14 28  1  1  0  0  0
 14 13  1  0  0  0  0
 15 14  1  0  0  0  0
 15 16  1  0  0  0  0
 16 24  1  0  0  0  0
 17 16  2  0  0  0  0
 17 18  1  0  0  0  0
 18 32  1  0  0  0  0
 18 19  1  0  0  0  0
 19 20  1  0  0  0  0
 20 33  1  0  0  0  0
 20 21  2  0  0  0  0
 21 34  1  0  0  0  0
 22 35  1  0  0  0  0
 22 21  1  0  0  0  0
 23 22  2  0  0  0  0
 24 19  2  0  0  0  0
 24 23  1  0  0  0  0
 25 39  1  0  0  0  0
 25 14  1  0  0  0  0
 26 25  2  0  0  0  0
 29 15  1  0  0  0  0
 30 15  1  0  0  0  0
 31 17  1  0  0  0  0
 36 23  1  0  0  0  0
 37 45  1  0  0  0  0
 37 38  1  0  0  0  0
 37 43  1  0  0  0  0
 38 46  1  6  0  0  0
 38 40  1  0  0  0  0
 38 39  1  0  0  0  0
 39 47  1  0  0  0  0
 40 41  1  0  0  0  0
 42 40  2  0  0  0  0
 44 37  1  0  0  0  0
M  END
$$$$
