SWC.pdb
 OpenBabel07022419103D

 48 49  0  0  1  0  0  0  0  0999 V2000
   -1.8720   -1.6650    4.5180 O   0  0  0  0  0  0  0  0  0  0  0  0
   -0.4890   -1.8330    4.5190 C   0  0  0  0  0  0  0  0  0  0  0  0
    0.2330   -0.5740    4.0920 C   0  0  2  0  0  0  0  0  0  0  0  0
   -0.1180    0.4750    5.0270 N   0  0  0  0  0  0  0  0  0  0  0  0
   -0.2320   -0.2270    2.7280 C   0  0  0  0  0  0  0  0  0  0  0  0
   -0.7980    0.8830    2.5390 O   0  0  0  0  0  0  0  0  0  0  0  0
   -2.1060   -1.0010    3.8330 H   0  0  0  0  0  0  0  0  0  0  0  0
   -0.2720   -2.6610    3.7830 H   0  0  0  0  0  0  0  0  0  0  0  0
   -0.1070   -2.2020    5.5020 H   0  0  0  0  0  0  0  0  0  0  0  0
    1.3240   -0.7710    4.1250 H   0  0  0  0  0  0  0  0  0  0  0  0
    0.7170    1.1090    5.1430 H   0  0  0  0  0  0  0  0  0  0  0  0
   -0.9080    1.0170    4.6000 H   0  0  0  0  0  0  0  0  0  0  0  0
   -0.0760   -1.0780    1.6110 N   0  0  0  0  0  0  0  0  0  0  0  0
   -0.5220   -0.7510    0.2840 C   0  0  1  0  0  0  0  0  0  0  0  0
    0.6620   -0.5760   -0.6240 C   0  0  0  0  0  0  0  0  0  0  0  0
    1.5150    0.5250   -0.1190 C   0  0  0  0  0  0  0  0  0  0  0  0
    1.4540    1.8620   -0.5570 C   0  0  0  0  0  0  0  0  0  0  0  0
    2.3360    2.6050    0.1290 N   0  0  0  0  0  0  0  0  0  0  0  0
    2.9910    1.8310    1.0100 C   0  0  0  0  0  0  0  0  0  0  0  0
    3.9820    2.1480    1.9110 C   0  0  0  0  0  0  0  0  0  0  0  0
    4.4990    1.1420    2.6990 C   0  0  0  0  0  0  0  0  0  0  0  0
    4.0140   -0.1450    2.5650 C   0  0  0  0  0  0  0  0  0  0  0  0
    3.0080   -0.4430    1.6450 C   0  0  0  0  0  0  0  0  0  0  0  0
    2.4870    0.5450    0.8590 C   0  0  0  0  0  0  0  0  0  0  0  0
   -1.4850   -1.7530   -0.2400 C   0  0  0  0  0  0  0  0  0  0  0  0
   -1.8010   -2.7180    0.4960 O   0  0  0  0  0  0  0  0  0  0  0  0
    0.3800   -1.9940    1.7660 H   0  0  0  0  0  0  0  0  0  0  0  0
   -1.0450    0.2590    0.2760 H   0  0  0  0  0  0  0  0  0  0  0  0
    0.3300   -0.3150   -1.6710 H   0  0  0  0  0  0  0  0  0  0  0  0
    1.2970   -1.4930   -0.6670 H   0  0  0  0  0  0  0  0  0  0  0  0
    0.7670    2.1710   -1.3390 H   0  0  0  0  0  0  0  0  0  0  0  0
    2.4650    3.6260   -0.0260 H   0  0  0  0  0  0  0  0  0  0  0  0
    4.3890    3.1410    2.0450 H   0  0  0  0  0  0  0  0  0  0  0  0
    5.2890    1.3650    3.4250 H   0  0  0  0  0  0  0  0  0  0  0  0
    4.4230   -0.9310    3.1850 H   0  0  0  0  0  0  0  0  0  0  0  0
    2.6500   -1.4610    1.5430 H   0  0  0  0  0  0  0  0  0  0  0  0
   -2.0400   -1.6340   -1.5400 N   0  0  0  0  0  0  0  0  0  0  0  0
   -2.9680   -2.5570   -2.1050 C   0  0  1  0  0  0  0  0  0  0  0  0
   -4.3200   -1.9060   -2.3970 C   0  0  0  0  0  0  0  0  0  0  0  0
   -3.9980   -0.5630   -3.5720 S   0  0  0  0  0  0  0  0  0  0  0  0
   -2.4420   -3.2340   -3.3240 C   0  0  0  0  0  0  0  0  0  0  0  0
   -3.1370   -4.0720   -3.9540 O   0  0  0  0  0  0  0  0  0  0  0  0
   -1.1690   -2.9850   -3.8290 O   0  0  0  0  0  0  0  0  0  0  0  0
   -1.7260   -0.7910   -2.1080 H   0  0  0  0  0  0  0  0  0  0  0  0
   -3.1720   -3.3570   -1.3660 H   0  0  0  0  0  0  0  0  0  0  0  0
   -5.0060   -2.6310   -2.8790 H   0  0  0  0  0  0  0  0  0  0  0  0
   -4.8110   -1.5680   -1.4750 H   0  0  0  0  0  0  0  0  0  0  0  0
   -3.4460   -1.1520   -4.7230 H   0  0  0  0  0  0  0  0  0  0  0  0
  1  2  1  0  0  0  0
  2  9  1  0  0  0  0
  3 10  1  1  0  0  0
  3  2  1  0  0  0  0
  3  4  1  0  0  0  0
  4 11  1  0  0  0  0
  5  3  1  0  0  0  0
  6  5  2  0  0  0  0
  7  1  1  0  0  0  0
  8  2  1  0  0  0  0
 12  4  1  0  0  0  0
 13 27  1  0  0  0  0
 13  5  1  0  0  0  0
 14 28  1  1  0  0  0
 14 13  1  0  0  0  0
 15 16  1  0  0  0  0
 15 14  1  0  0  0  0
 16 24  1  0  0  0  0
 17 16  2  0  0  0  0
 17 18  1  0  0  0  0
 18 19  1  0  0  0  0
 19 20  1  0  0  0  0
 20 33  1  0  0  0  0
 20 21  2  0  0  0  0
 21 34  1  0  0  0  0
 22 21  1  0  0  0  0
 22 35  1  0  0  0  0
 23 22  2  0  0  0  0
 24 19  2  0  0  0  0
 24 23  1  0  0  0  0
 25 14  1  0  0  0  0
 25 26  2  0  0  0  0
 29 15  1  0  0  0  0
 30 15  1  0  0  0  0
 31 17  1  0  0  0  0
 32 18  1  0  0  0  0
 36 23  1  0  0  0  0
 37 25  1  0  0  0  0
 38 37  1  0  0  0  0
 38 45  1  1  0  0  0
 39 38  1  0  0  0  0
 39 47  1  0  0  0  0
 40 39  1  0  0  0  0
 41 38  1  0  0  0  0
 42 41  2  0  0  0  0
 43 41  1  0  0  0  0
 44 37  1  0  0  0  0
 46 39  1  0  0  0  0
 48 40  1  0  0  0  0
M  END
$$$$
