SWD.pdb
 OpenBabel07022419103D

 50 51  0  0  1  0  0  0  0  0999 V2000
    3.8540   -2.5500    2.7730 O   0  0  0  0  0  0  0  0  0  0  0  0
    2.5700   -2.1760    2.4420 C   0  0  0  0  0  0  0  0  0  0  0  0
    2.5800   -0.7250    2.0110 C   0  0  2  0  0  0  0  0  0  0  0  0
    3.0760    0.0350    3.1480 N   0  0  0  0  0  0  0  0  0  0  0  0
    1.2210   -0.2480    1.6550 C   0  0  0  0  0  0  0  0  0  0  0  0
    0.6820    0.6830    2.3370 O   0  0  0  0  0  0  0  0  0  0  0  0
    4.4270   -1.7900    3.0440 H   0  0  0  0  0  0  0  0  0  0  0  0
    2.1510   -2.8460    1.6750 H   0  0  0  0  0  0  0  0  0  0  0  0
    1.9500   -2.2310    3.3830 H   0  0  0  0  0  0  0  0  0  0  0  0
    3.3160   -0.5830    1.1890 H   0  0  0  0  0  0  0  0  0  0  0  0
    3.6290    0.8700    2.8570 H   0  0  0  0  0  0  0  0  0  0  0  0
    2.2450    0.4080    3.6940 H   0  0  0  0  0  0  0  0  0  0  0  0
    0.4610   -0.7630    0.5870 N   0  0  0  0  0  0  0  0  0  0  0  0
   -0.8640   -0.2980    0.2410 C   0  0  1  0  0  0  0  0  0  0  0  0
   -0.7990    0.3800   -1.1370 C   0  0  0  0  0  0  0  0  0  0  0  0
    0.1660    1.5140   -0.9890 C   0  0  0  0  0  0  0  0  0  0  0  0
    1.4810    1.5570   -1.4440 C   0  0  0  0  0  0  0  0  0  0  0  0
    2.0220    2.7460   -1.1210 N   0  0  0  0  0  0  0  0  0  0  0  0
    1.1260    3.5050   -0.4660 C   0  0  0  0  0  0  0  0  0  0  0  0
    1.1750    4.7770    0.0720 C   0  0  0  0  0  0  0  0  0  0  0  0
    0.0810    5.3360    0.7100 C   0  0  0  0  0  0  0  0  0  0  0  0
   -1.0660    4.5680    0.7880 C   0  0  0  0  0  0  0  0  0  0  0  0
   -1.1110    3.2970    0.2500 C   0  0  0  0  0  0  0  0  0  0  0  0
   -0.0240    2.7420   -0.3850 C   0  0  0  0  0  0  0  0  0  0  0  0
   -1.8640   -1.3790    0.2490 C   0  0  0  0  0  0  0  0  0  0  0  0
   -3.0700   -1.1650   -0.0150 O   0  0  0  0  0  0  0  0  0  0  0  0
    0.8790   -1.5280    0.0110 H   0  0  0  0  0  0  0  0  0  0  0  0
   -1.2040    0.4980    0.9340 H   0  0  0  0  0  0  0  0  0  0  0  0
   -1.8060    0.7320   -1.4190 H   0  0  0  0  0  0  0  0  0  0  0  0
   -0.4120   -0.3300   -1.8690 H   0  0  0  0  0  0  0  0  0  0  0  0
    1.9580    0.7460   -1.9700 H   0  0  0  0  0  0  0  0  0  0  0  0
    2.9990    3.0070   -1.3590 H   0  0  0  0  0  0  0  0  0  0  0  0
    2.0690    5.3800    0.0130 H   0  0  0  0  0  0  0  0  0  0  0  0
    0.1070    6.3400    1.1390 H   0  0  0  0  0  0  0  0  0  0  0  0
   -1.9330    4.9880    1.2830 H   0  0  0  0  0  0  0  0  0  0  0  0
   -2.0080    2.6790    0.3030 H   0  0  0  0  0  0  0  0  0  0  0  0
   -1.5310   -2.7520    0.5590 N   0  0  0  0  0  0  0  0  0  0  0  0
   -2.5590   -3.7740    0.5500 C   0  0  1  0  0  0  0  0  0  0  0  0
   -2.3380   -4.8000   -0.5160 C   0  0  0  0  0  0  0  0  0  0  0  0
   -1.0560   -5.4850   -0.2980 C   0  0  0  0  0  0  0  0  0  0  0  0
   -0.3550   -5.2230    0.7010 O   0  0  0  0  0  0  0  0  0  0  0  0
   -2.7430   -4.3790    1.8870 C   0  0  0  0  0  0  0  0  0  0  0  0
   -3.5780   -5.2830    2.0920 O   0  0  0  0  0  0  0  0  0  0  0  0
   -0.6580   -6.4370   -1.2510 O   0  0  0  0  0  0  0  0  0  0  0  0
   -1.9670   -3.9290    2.9340 O   0  0  0  0  0  0  0  0  0  0  0  0
   -0.5570   -2.9660    0.7830 H   0  0  0  0  0  0  0  0  0  0  0  0
   -3.5570   -3.2790    0.3240 H   0  0  0  0  0  0  0  0  0  0  0  0
   -3.1790   -5.5320   -0.4710 H   0  0  0  0  0  0  0  0  0  0  0  0
   -2.3880   -4.2730   -1.4930 H   0  0  0  0  0  0  0  0  0  0  0  0
    0.3340   -6.6250   -1.3710 H   0  0  0  0  0  0  0  0  0  0  0  0
  1  7  1  0  0  0  0
  2  1  1  0  0  0  0
  2  9  1  0  0  0  0
  3 10  1  6  0  0  0
  3  2  1  0  0  0  0
  3  4  1  0  0  0  0
  4 12  1  0  0  0  0
  5  3  1  0  0  0  0
  5  6  2  0  0  0  0
  8  2  1  0  0  0  0
 11  4  1  0  0  0  0
 13  5  1  0  0  0  0
 14 25  1  0  0  0  0
 14 13  1  0  0  0  0
 14 28  1  1  0  0  0
 15 16  1  0  0  0  0
 15 14  1  0  0  0  0
 16 24  1  0  0  0  0
 17 18  1  0  0  0  0
 17 16  2  0  0  0  0
 18 19  1  0  0  0  0
 19 24  2  0  0  0  0
 19 20  1  0  0  0  0
 20 21  2  0  0  0  0
 21 22  1  0  0  0  0
 21 34  1  0  0  0  0
 22 35  1  0  0  0  0
 23 36  1  0  0  0  0
 23 22  2  0  0  0  0
 24 23  1  0  0  0  0
 25 37  1  0  0  0  0
 26 25  2  0  0  0  0
 27 13  1  0  0  0  0
 29 15  1  0  0  0  0
 30 15  1  0  0  0  0
 31 17  1  0  0  0  0
 32 18  1  0  0  0  0
 33 20  1  0  0  0  0
 37 46  1  0  0  0  0
 38 47  1  6  0  0  0
 38 37  1  0  0  0  0
 38 42  1  0  0  0  0
 39 48  1  0  0  0  0
 39 40  1  0  0  0  0
 39 38  1  0  0  0  0
 40 41  2  0  0  0  0
 42 43  2  0  0  0  0
 42 45  1  0  0  0  0
 44 40  1  0  0  0  0
 49 39  1  0  0  0  0
 50 44  1  0  0  0  0
M  END
$$$$
