SWE.pdb
 OpenBabel07022419103D

 53 54  0  0  1  0  0  0  0  0999 V2000
    0.3040   -3.2920    4.3010 O   0  0  0  0  0  0  0  0  0  0  0  0
    1.5840   -2.8830    4.0280 C   0  0  0  0  0  0  0  0  0  0  0  0
    1.7280   -1.3630    4.1030 C   0  0  2  0  0  0  0  0  0  0  0  0
    1.3900   -0.9020    5.4130 N   0  0  0  0  0  0  0  0  0  0  0  0
    0.8530   -0.7940    3.0440 C   0  0  0  0  0  0  0  0  0  0  0  0
   -0.0480    0.0050    3.3280 O   0  0  0  0  0  0  0  0  0  0  0  0
   -0.4050   -2.6970    3.9490 H   0  0  0  0  0  0  0  0  0  0  0  0
    2.2780   -3.3800    4.7530 H   0  0  0  0  0  0  0  0  0  0  0  0
    1.8640   -3.2140    3.0070 H   0  0  0  0  0  0  0  0  0  0  0  0
    2.7930   -1.0750    3.9110 H   0  0  0  0  0  0  0  0  0  0  0  0
    2.2390   -1.0260    6.0290 H   0  0  0  0  0  0  0  0  0  0  0  0
    0.6080   -1.4030    5.8560 H   0  0  0  0  0  0  0  0  0  0  0  0
    1.0320   -1.1540    1.6910 N   0  0  0  0  0  0  0  0  0  0  0  0
    0.2690   -0.6840    0.5840 C   0  0  1  0  0  0  0  0  0  0  0  0
    1.1970    0.0200   -0.3810 C   0  0  0  0  0  0  0  0  0  0  0  0
    1.8890    1.1640    0.1950 C   0  0  0  0  0  0  0  0  0  0  0  0
    3.2020    1.2100    0.5950 C   0  0  0  0  0  0  0  0  0  0  0  0
    3.4530    2.4460    1.0710 N   0  0  0  0  0  0  0  0  0  0  0  0
    2.3480    3.2260    1.0010 C   0  0  0  0  0  0  0  0  0  0  0  0
    2.1070    4.5360    1.3570 C   0  0  0  0  0  0  0  0  0  0  0  0
    0.8610    5.0790    1.1680 C   0  0  0  0  0  0  0  0  0  0  0  0
   -0.1160    4.2850    0.6230 C   0  0  0  0  0  0  0  0  0  0  0  0
    0.1180    2.9740    0.2650 C   0  0  0  0  0  0  0  0  0  0  0  0
    1.3710    2.4080    0.4490 C   0  0  0  0  0  0  0  0  0  0  0  0
   -0.4430   -1.7800   -0.1390 C   0  0  0  0  0  0  0  0  0  0  0  0
   -0.3520   -2.9700    0.2410 O   0  0  0  0  0  0  0  0  0  0  0  0
    1.8160   -1.8410    1.4900 H   0  0  0  0  0  0  0  0  0  0  0  0
   -0.5110    0.0480    0.8900 H   0  0  0  0  0  0  0  0  0  0  0  0
    0.5750    0.2750   -1.2700 H   0  0  0  0  0  0  0  0  0  0  0  0
    1.9030   -0.7700   -0.7630 H   0  0  0  0  0  0  0  0  0  0  0  0
    3.9540    0.4340    0.5620 H   0  0  0  0  0  0  0  0  0  0  0  0
    4.3670    2.7730    1.4450 H   0  0  0  0  0  0  0  0  0  0  0  0
    2.8950    5.1520    1.7900 H   0  0  0  0  0  0  0  0  0  0  0  0
    0.6420    6.1090    1.4390 H   0  0  0  0  0  0  0  0  0  0  0  0
   -1.1240    4.6600    0.4490 H   0  0  0  0  0  0  0  0  0  0  0  0
   -0.6770    2.3790   -0.1620 H   0  0  0  0  0  0  0  0  0  0  0  0
   -1.2420   -1.5050   -1.2750 N   0  0  0  0  0  0  0  0  0  0  0  0
   -1.9290   -2.6300   -1.9560 C   0  0  1  0  0  0  0  0  0  0  0  0
   -3.4010   -2.3680   -1.8680 C   0  0  0  0  0  0  0  0  0  0  0  0
   -4.2230   -3.4320   -2.5110 C   0  0  0  0  0  0  0  0  0  0  0  0
   -4.0180   -4.7570   -1.8810 C   0  0  0  0  0  0  0  0  0  0  0  0
   -4.5430   -5.8010   -2.4160 O   0  0  0  0  0  0  0  0  0  0  0  0
   -1.4730   -2.7000   -3.3590 C   0  0  0  0  0  0  0  0  0  0  0  0
   -1.8620   -3.6080   -4.1170 O   0  0  0  0  0  0  0  0  0  0  0  0
   -3.2940   -4.9970   -0.7340 O   0  0  0  0  0  0  0  0  0  0  0  0
   -0.5920   -1.7550   -3.8840 O   0  0  0  0  0  0  0  0  0  0  0  0
   -1.3510   -0.5260   -1.6350 H   0  0  0  0  0  0  0  0  0  0  0  0
   -1.6860   -3.5460   -1.3970 H   0  0  0  0  0  0  0  0  0  0  0  0
   -3.6410   -2.3530   -0.7770 H   0  0  0  0  0  0  0  0  0  0  0  0
   -3.6210   -1.3820   -2.3370 H   0  0  0  0  0  0  0  0  0  0  0  0
   -4.0390   -3.5100   -3.6040 H   0  0  0  0  0  0  0  0  0  0  0  0
   -5.3350   -3.1780   -2.3830 H   0  0  0  0  0  0  0  0  0  0  0  0
   -3.6950   -5.6020   -0.0160 H   0  0  0  0  0  0  0  0  0  0  0  0
  2  3  1  0  0  0  0
  2  1  1  0  0  0  0
  2  8  1  0  0  0  0
  3 10  1  6  0  0  0
  3  4  1  0  0  0  0
  4 12  1  0  0  0  0
  4 11  1  0  0  0  0
  5  6  2  0  0  0  0
  5  3  1  0  0  0  0
  7  1  1  0  0  0  0
  9  2  1  0  0  0  0
 13  5  1  0  0  0  0
 14 28  1  1  0  0  0
 14 13  1  0  0  0  0
 15 16  1  0  0  0  0
 15 14  1  0  0  0  0
 16 24  1  0  0  0  0
 16 17  2  0  0  0  0
 17 18  1  0  0  0  0
 18 32  1  0  0  0  0
 19 18  1  0  0  0  0
 19 20  1  0  0  0  0
 20 33  1  0  0  0  0
 21 20  2  0  0  0  0
 21 34  1  0  0  0  0
 22 21  1  0  0  0  0
 23 24  1  0  0  0  0
 23 22  2  0  0  0  0
 24 19  2  0  0  0  0
 25 26  2  0  0  0  0
 25 14  1  0  0  0  0
 27 13  1  0  0  0  0
 29 15  1  0  0  0  0
 30 15  1  0  0  0  0
 31 17  1  0  0  0  0
 35 22  1  0  0  0  0
 36 23  1  0  0  0  0
 37 25  1  0  0  0  0
 38 39  1  0  0  0  0
 38 48  1  1  0  0  0
 38 37  1  0  0  0  0
 39 49  1  0  0  0  0
 40 52  1  0  0  0  0
 40 41  1  0  0  0  0
 40 39  1  0  0  0  0
 41 45  1  0  0  0  0
 42 41  2  0  0  0  0
 43 38  1  0  0  0  0
 44 43  2  0  0  0  0
 45 53  1  0  0  0  0
 46 43  1  0  0  0  0
 47 37  1  0  0  0  0
 50 39  1  0  0  0  0
 51 40  1  0  0  0  0
M  END
$$$$
