SWF.pdb
 OpenBabel07022419103D

 57 59  0  0  1  0  0  0  0  0999 V2000
    0.4090   -3.4550    3.5240 O   0  0  0  0  0  0  0  0  0  0  0  0
    1.4500   -3.1450    4.3660 C   0  0  0  0  0  0  0  0  0  0  0  0
    2.6170   -2.5860    3.5700 C   0  0  2  0  0  0  0  0  0  0  0  0
    3.6680   -2.3020    4.5420 N   0  0  0  0  0  0  0  0  0  0  0  0
    2.2470   -1.3740    2.8150 C   0  0  0  0  0  0  0  0  0  0  0  0
    2.7770   -0.2660    3.1230 O   0  0  0  0  0  0  0  0  0  0  0  0
   -0.4820   -3.2060    3.8690 H   0  0  0  0  0  0  0  0  0  0  0  0
    1.8210   -4.0290    4.9250 H   0  0  0  0  0  0  0  0  0  0  0  0
    1.0810   -2.3480    5.0540 H   0  0  0  0  0  0  0  0  0  0  0  0
    2.9020   -3.3720    2.8450 H   0  0  0  0  0  0  0  0  0  0  0  0
    3.5760   -1.3220    4.8640 H   0  0  0  0  0  0  0  0  0  0  0  0
    3.5530   -2.9400    5.3490 H   0  0  0  0  0  0  0  0  0  0  0  0
    1.3100   -1.4590    1.7610 N   0  0  0  0  0  0  0  0  0  0  0  0
    0.9030   -0.3080    0.9830 C   0  0  1  0  0  0  0  0  0  0  0  0
    1.4780   -0.5240   -0.4050 C   0  0  0  0  0  0  0  0  0  0  0  0
    1.1760    0.5460   -1.3530 C   0  0  0  0  0  0  0  0  0  0  0  0
    0.2560    0.4890   -2.3770 C   0  0  0  0  0  0  0  0  0  0  0  0
    0.2670    1.6500   -3.0290 N   0  0  0  0  0  0  0  0  0  0  0  0
    1.1730    2.4840   -2.4670 C   0  0  0  0  0  0  0  0  0  0  0  0
    1.5740    3.7780   -2.7490 C   0  0  0  0  0  0  0  0  0  0  0  0
    2.5510    4.3480   -1.9540 C   0  0  0  0  0  0  0  0  0  0  0  0
    3.1290    3.6620   -0.8960 C   0  0  0  0  0  0  0  0  0  0  0  0
    2.7400    2.3750   -0.6060 C   0  0  0  0  0  0  0  0  0  0  0  0
    1.7590    1.8010   -1.4030 C   0  0  0  0  0  0  0  0  0  0  0  0
   -0.5620   -0.1660    0.8770 C   0  0  0  0  0  0  0  0  0  0  0  0
   -1.0490    0.8200    0.2230 O   0  0  0  0  0  0  0  0  0  0  0  0
    0.8960   -2.3800    1.5300 H   0  0  0  0  0  0  0  0  0  0  0  0
    1.4030    0.5870    1.4540 H   0  0  0  0  0  0  0  0  0  0  0  0
    2.5980   -0.6140   -0.3620 H   0  0  0  0  0  0  0  0  0  0  0  0
    1.1110   -1.4940   -0.8010 H   0  0  0  0  0  0  0  0  0  0  0  0
   -0.3970   -0.3450   -2.6530 H   0  0  0  0  0  0  0  0  0  0  0  0
   -0.3220    1.8970   -3.8500 H   0  0  0  0  0  0  0  0  0  0  0  0
    1.1190    4.3090   -3.5760 H   0  0  0  0  0  0  0  0  0  0  0  0
    2.8590    5.3590   -2.1790 H   0  0  0  0  0  0  0  0  0  0  0  0
    3.8940    4.1120   -0.2750 H   0  0  0  0  0  0  0  0  0  0  0  0
    3.1480    1.7850    0.2010 H   0  0  0  0  0  0  0  0  0  0  0  0
   -1.5150   -1.0400    1.4430 N   0  0  0  0  0  0  0  0  0  0  0  0
   -2.9500   -0.8880    1.3290 C   0  0  1  0  0  0  0  0  0  0  0  0
   -3.5660   -2.1170    0.6470 C   0  0  0  0  0  0  0  0  0  0  0  0
   -3.0150   -2.3150   -0.7170 C   0  0  0  0  0  0  0  0  0  0  0  0
   -3.6060   -1.7370   -1.8090 C   0  0  0  0  0  0  0  0  0  0  0  0
   -3.0620   -1.9470   -3.0610 C   0  0  0  0  0  0  0  0  0  0  0  0
   -1.9390   -2.7180   -3.2780 C   0  0  0  0  0  0  0  0  0  0  0  0
   -1.3520   -3.2960   -2.1640 C   0  0  0  0  0  0  0  0  0  0  0  0
   -1.8920   -3.0890   -0.9100 C   0  0  0  0  0  0  0  0  0  0  0  0
   -3.5240   -0.8670    2.6890 C   0  0  0  0  0  0  0  0  0  0  0  0
   -4.7630   -0.7410    2.9090 O   0  0  0  0  0  0  0  0  0  0  0  0
   -2.6740   -0.9910    3.7720 O   0  0  0  0  0  0  0  0  0  0  0  0
   -1.1780   -1.8570    1.9840 H   0  0  0  0  0  0  0  0  0  0  0  0
   -3.2040    0.0210    0.7480 H   0  0  0  0  0  0  0  0  0  0  0  0
   -3.5010   -2.9900    1.2930 H   0  0  0  0  0  0  0  0  0  0  0  0
   -4.6560   -1.8800    0.5190 H   0  0  0  0  0  0  0  0  0  0  0  0
   -4.5000   -1.1120   -1.7120 H   0  0  0  0  0  0  0  0  0  0  0  0
   -3.5550   -1.4720   -3.9140 H   0  0  0  0  0  0  0  0  0  0  0  0
   -1.5260   -2.8700   -4.2790 H   0  0  0  0  0  0  0  0  0  0  0  0
   -0.4760   -3.9060   -2.2720 H   0  0  0  0  0  0  0  0  0  0  0  0
   -1.4540   -3.5300   -0.0040 H   0  0  0  0  0  0  0  0  0  0  0  0
  1  7  1  0  0  0  0
  1  2  1  0  0  0  0
  2  8  1  0  0  0  0
  2  9  1  0  0  0  0
  3 10  1  6  0  0  0
  3  2  1  0  0  0  0
  3  4  1  0  0  0  0
  4 11  1  0  0  0  0
  4 12  1  0  0  0  0
  5  6  2  0  0  0  0
  5  3  1  0  0  0  0
 13  5  1  0  0  0  0
 14 28  1  1  0  0  0
 14 13  1  0  0  0  0
 15 29  1  0  0  0  0
 15 14  1  0  0  0  0
 16 15  1  0  0  0  0
 17 16  2  0  0  0  0
 18 19  1  0  0  0  0
 18 17  1  0  0  0  0
 19 24  1  0  0  0  0
 20 19  2  0  0  0  0
 20 21  1  0  0  0  0
 21 22  2  0  0  0  0
 22 23  1  0  0  0  0
 22 35  1  0  0  0  0
 23 36  1  0  0  0  0
 24 16  1  0  0  0  0
 24 23  2  0  0  0  0
 25 14  1  0  0  0  0
 25 37  1  0  0  0  0
 26 25  2  0  0  0  0
 27 13  1  0  0  0  0
 30 15  1  0  0  0  0
 31 17  1  0  0  0  0
 32 18  1  0  0  0  0
 33 20  1  0  0  0  0
 34 21  1  0  0  0  0
 37 49  1  0  0  0  0
 38 50  1  6  0  0  0
 38 37  1  0  0  0  0
 38 46  1  0  0  0  0
 39 51  1  0  0  0  0
 39 38  1  0  0  0  0
 40 39  1  0  0  0  0
 41 53  1  0  0  0  0
 41 40  2  0  0  0  0
 42 41  1  0  0  0  0
 43 42  2  0  0  0  0
 43 44  1  0  0  0  0
 44 45  2  0  0  0  0
 45 40  1  0  0  0  0
 45 57  1  0  0  0  0
 46 47  2  0  0  0  0
 46 48  1  0  0  0  0
 52 39  1  0  0  0  0
 54 42  1  0  0  0  0
 55 43  1  0  0  0  0
 56 44  1  0  0  0  0
M  END
$$$$
