SWG.pdb
 OpenBabel07022419103D

 44 45  0  0  1  0  0  0  0  0999 V2000
    0.8530   -4.6280    0.8520 O   0  0  0  0  0  0  0  0  0  0  0  0
    2.1390   -4.1430    0.6630 C   0  0  0  0  0  0  0  0  0  0  0  0
    2.2600   -2.6850    1.0320 C   0  0  2  0  0  0  0  0  0  0  0  0
    1.9070   -2.5560    2.4330 N   0  0  0  0  0  0  0  0  0  0  0  0
    1.2900   -1.8480    0.2610 C   0  0  0  0  0  0  0  0  0  0  0  0
    1.4480   -1.8410   -0.9770 O   0  0  0  0  0  0  0  0  0  0  0  0
    0.8460   -5.6090    0.9980 H   0  0  0  0  0  0  0  0  0  0  0  0
    2.5120   -4.3450   -0.3680 H   0  0  0  0  0  0  0  0  0  0  0  0
    2.8090   -4.7020    1.3490 H   0  0  0  0  0  0  0  0  0  0  0  0
    3.3000   -2.3710    0.8910 H   0  0  0  0  0  0  0  0  0  0  0  0
    2.7320   -2.6550    3.0660 H   0  0  0  0  0  0  0  0  0  0  0  0
    1.1230   -3.2070    2.6920 H   0  0  0  0  0  0  0  0  0  0  0  0
    0.2560   -1.1080    0.8660 N   0  0  0  0  0  0  0  0  0  0  0  0
   -0.7240   -0.2930    0.1950 C   0  0  1  0  0  0  0  0  0  0  0  0
   -0.3130    1.1180   -0.0420 C   0  0  0  0  0  0  0  0  0  0  0  0
   -0.0180    1.8650    1.2150 C   0  0  0  0  0  0  0  0  0  0  0  0
   -0.9450    2.7310    1.8110 C   0  0  0  0  0  0  0  0  0  0  0  0
   -0.4130    3.2280    2.9210 N   0  0  0  0  0  0  0  0  0  0  0  0
    0.8090    2.7330    3.0800 C   0  0  0  0  0  0  0  0  0  0  0  0
    1.7810    2.9270    4.0570 C   0  0  0  0  0  0  0  0  0  0  0  0
    3.0090    2.2870    3.9990 C   0  0  0  0  0  0  0  0  0  0  0  0
    3.2300    1.4530    2.9380 C   0  0  0  0  0  0  0  0  0  0  0  0
    2.2760    1.2420    1.9500 C   0  0  0  0  0  0  0  0  0  0  0  0
    1.0750    1.8800    2.0260 C   0  0  0  0  0  0  0  0  0  0  0  0
   -1.2550   -0.9990   -1.0000 C   0  0  0  0  0  0  0  0  0  0  0  0
   -0.9700   -2.1710   -1.3390 O   0  0  0  0  0  0  0  0  0  0  0  0
    0.2440   -1.1970    1.9380 H   0  0  0  0  0  0  0  0  0  0  0  0
   -1.6470   -0.2000    0.9030 H   0  0  0  0  0  0  0  0  0  0  0  0
   -1.1390    1.6450   -0.5520 H   0  0  0  0  0  0  0  0  0  0  0  0
    0.5880    1.2030   -0.6970 H   0  0  0  0  0  0  0  0  0  0  0  0
   -1.9370    2.9720    1.4460 H   0  0  0  0  0  0  0  0  0  0  0  0
   -0.8810    3.9020    3.5680 H   0  0  0  0  0  0  0  0  0  0  0  0
    1.5930    3.5930    4.8960 H   0  0  0  0  0  0  0  0  0  0  0  0
    3.7250    2.4740    4.7840 H   0  0  0  0  0  0  0  0  0  0  0  0
    4.1870    0.9470    2.8820 H   0  0  0  0  0  0  0  0  0  0  0  0
    2.4610    0.5950    1.1200 H   0  0  0  0  0  0  0  0  0  0  0  0
   -2.1830   -0.3460   -1.8950 N   0  0  0  0  0  0  0  0  0  0  0  0
   -2.7140   -1.0160   -3.0670 C   0  0  0  0  0  0  0  0  0  0  0  0
   -3.4510   -2.2150   -2.5970 C   0  0  0  0  0  0  0  0  0  0  0  0
   -3.9970   -2.9720   -3.4360 O   0  0  0  0  0  0  0  0  0  0  0  0
   -3.5630   -2.5370   -1.2580 O   0  0  0  0  0  0  0  0  0  0  0  0
   -2.4540    0.6210   -1.6620 H   0  0  0  0  0  0  0  0  0  0  0  0
   -3.4590   -0.3500   -3.5330 H   0  0  0  0  0  0  0  0  0  0  0  0
   -1.9060   -1.3040   -3.7740 H   0  0  0  0  0  0  0  0  0  0  0  0
  1  7  1  0  0  0  0
  2  1  1  0  0  0  0
  2  3  1  0  0  0  0
  2  9  1  0  0  0  0
  3 10  1  6  0  0  0
  3  4  1  0  0  0  0
  4 12  1  0  0  0  0
  4 11  1  0  0  0  0
  5 13  1  0  0  0  0
  5  3  1  0  0  0  0
  6  5  2  0  0  0  0
  8  2  1  0  0  0  0
 13 27  1  0  0  0  0
 14 13  1  0  0  0  0
 14 28  1  1  0  0  0
 15 14  1  0  0  0  0
 15 16  1  0  0  0  0
 16 17  2  0  0  0  0
 16 24  1  0  0  0  0
 17 18  1  0  0  0  0
 18 19  1  0  0  0  0
 18 32  1  0  0  0  0
 19 20  1  0  0  0  0
 20 33  1  0  0  0  0
 21 20  2  0  0  0  0
 21 34  1  0  0  0  0
 22 21  1  0  0  0  0
 23 24  1  0  0  0  0
 23 22  2  0  0  0  0
 24 19  2  0  0  0  0
 25 14  1  0  0  0  0
 26 25  2  0  0  0  0
 29 15  1  0  0  0  0
 30 15  1  0  0  0  0
 31 17  1  0  0  0  0
 35 22  1  0  0  0  0
 36 23  1  0  0  0  0
 37 42  1  0  0  0  0
 37 25  1  0  0  0  0
 38 39  1  0  0  0  0
 38 37  1  0  0  0  0
 39 41  1  0  0  0  0
 40 39  2  0  0  0  0
 43 38  1  0  0  0  0
 44 38  1  0  0  0  0
M  END
$$$$
