SWH.pdb
 OpenBabel07022419103D

 54 56  0  0  1  0  0  0  0  0999 V2000
    1.5050   -0.6110    6.1930 O   0  0  0  0  0  0  0  0  0  0  0  0
    1.8900   -1.8310    5.6000 C   0  0  0  0  0  0  0  0  0  0  0  0
    0.8300   -2.1470    4.5680 C   0  0  2  0  0  0  0  0  0  0  0  0
    1.1370   -3.3740    3.9090 N   0  0  0  0  0  0  0  0  0  0  0  0
    0.6940   -0.9820    3.6430 C   0  0  0  0  0  0  0  0  0  0  0  0
    0.4720    0.1300    4.2260 O   0  0  0  0  0  0  0  0  0  0  0  0
    2.0150   -0.4070    7.0040 H   0  0  0  0  0  0  0  0  0  0  0  0
    2.8660   -1.6620    5.1450 H   0  0  0  0  0  0  0  0  0  0  0  0
    1.8950   -2.5800    6.4120 H   0  0  0  0  0  0  0  0  0  0  0  0
   -0.1400   -2.3150    5.1200 H   0  0  0  0  0  0  0  0  0  0  0  0
    0.2910   -3.9660    3.7540 H   0  0  0  0  0  0  0  0  0  0  0  0
    1.7600   -3.9420    4.5590 H   0  0  0  0  0  0  0  0  0  0  0  0
    0.8020   -1.1120    2.2440 N   0  0  0  0  0  0  0  0  0  0  0  0
    0.6550    0.0880    1.4170 C   0  0  1  0  0  0  0  0  0  0  0  0
    1.8830    0.3940    0.6630 C   0  0  0  0  0  0  0  0  0  0  0  0
    1.7750    1.5870   -0.1980 C   0  0  0  0  0  0  0  0  0  0  0  0
    2.0700    2.9130    0.1700 C   0  0  0  0  0  0  0  0  0  0  0  0
    1.8030    3.7180   -0.8580 N   0  0  0  0  0  0  0  0  0  0  0  0
    1.3440    3.0250   -1.9110 C   0  0  0  0  0  0  0  0  0  0  0  0
    0.9530    3.3920   -3.1910 C   0  0  0  0  0  0  0  0  0  0  0  0
    0.5420    2.4110   -4.0690 C   0  0  0  0  0  0  0  0  0  0  0  0
    0.5270    1.0940   -3.6620 C   0  0  0  0  0  0  0  0  0  0  0  0
    0.9070    0.7050   -2.4020 C   0  0  0  0  0  0  0  0  0  0  0  0
    1.3230    1.7070   -1.5160 C   0  0  0  0  0  0  0  0  0  0  0  0
   -0.6240    0.0100    0.7350 C   0  0  0  0  0  0  0  0  0  0  0  0
   -1.0980    0.8970   -0.0330 O   0  0  0  0  0  0  0  0  0  0  0  0
    0.9810   -2.0470    1.8450 H   0  0  0  0  0  0  0  0  0  0  0  0
    0.5520    0.9470    2.1830 H   0  0  0  0  0  0  0  0  0  0  0  0
    2.7630    0.5270    1.3290 H   0  0  0  0  0  0  0  0  0  0  0  0
    2.1680   -0.4550   -0.0130 H   0  0  0  0  0  0  0  0  0  0  0  0
    2.4530    3.1560    1.1630 H   0  0  0  0  0  0  0  0  0  0  0  0
    1.9180    4.7530   -0.8900 H   0  0  0  0  0  0  0  0  0  0  0  0
    0.9710    4.4160   -3.4900 H   0  0  0  0  0  0  0  0  0  0  0  0
    0.2310    2.6390   -5.0690 H   0  0  0  0  0  0  0  0  0  0  0  0
    0.2070    0.2880   -4.3340 H   0  0  0  0  0  0  0  0  0  0  0  0
    0.9170   -0.3000   -2.0460 H   0  0  0  0  0  0  0  0  0  0  0  0
   -1.4630   -1.1470    0.9170 N   0  0  0  0  0  0  0  0  0  0  0  0
   -2.7470   -1.2820    0.2820 C   0  0  1  0  0  0  0  0  0  0  0  0
   -2.9890   -2.5730   -0.4140 C   0  0  0  0  0  0  0  0  0  0  0  0
   -2.0770   -2.9040   -1.5040 C   0  0  0  0  0  0  0  0  0  0  0  0
   -2.1720   -4.0720   -2.2560 C   0  0  0  0  0  0  0  0  0  0  0  0
   -1.2010   -4.0900   -3.1810 N   0  0  0  0  0  0  0  0  0  0  0  0
   -0.4880   -2.9620   -3.0390 C   0  0  0  0  0  0  0  0  0  0  0  0
   -1.0280   -2.2510   -2.0190 N   0  0  0  0  0  0  0  0  0  0  0  0
   -3.8310   -1.1500    1.3170 C   0  0  0  0  0  0  0  0  0  0  0  0
   -5.0200   -1.2350    0.9810 O   0  0  0  0  0  0  0  0  0  0  0  0
   -3.4770   -0.9360    2.6200 O   0  0  0  0  0  0  0  0  0  0  0  0
   -1.1260   -1.9120    1.5300 H   0  0  0  0  0  0  0  0  0  0  0  0
   -2.8210   -0.4300   -0.4390 H   0  0  0  0  0  0  0  0  0  0  0  0
   -4.0320   -2.5310   -0.8410 H   0  0  0  0  0  0  0  0  0  0  0  0
   -3.0470   -3.4300    0.3150 H   0  0  0  0  0  0  0  0  0  0  0  0
   -2.9020   -4.8370   -2.1220 H   0  0  0  0  0  0  0  0  0  0  0  0
   -1.0450   -4.8440   -3.8710 H   0  0  0  0  0  0  0  0  0  0  0  0
    0.3600   -2.7280   -3.6670 H   0  0  0  0  0  0  0  0  0  0  0  0
  1  7  1  0  0  0  0
  2  1  1  0  0  0  0
  2  9  1  0  0  0  0
  3 10  1  1  0  0  0
  3  2  1  0  0  0  0
  4 12  1  0  0  0  0
  4  3  1  0  0  0  0
  5  6  2  0  0  0  0
  5  3  1  0  0  0  0
  8  2  1  0  0  0  0
 11  4  1  0  0  0  0
 13  5  1  0  0  0  0
 14 28  1  1  0  0  0
 14 13  1  0  0  0  0
 15 29  1  0  0  0  0
 15 14  1  0  0  0  0
 16 17  2  0  0  0  0
 16 15  1  0  0  0  0
 17 31  1  0  0  0  0
 18 17  1  0  0  0  0
 19 24  1  0  0  0  0
 19 18  1  0  0  0  0
 20 19  2  0  0  0  0
 21 22  2  0  0  0  0
 21 20  1  0  0  0  0
 22 23  1  0  0  0  0
 23 36  1  0  0  0  0
 23 24  2  0  0  0  0
 24 16  1  0  0  0  0
 25 37  1  0  0  0  0
 25 14  1  0  0  0  0
 26 25  2  0  0  0  0
 27 13  1  0  0  0  0
 30 15  1  0  0  0  0
 32 18  1  0  0  0  0
 33 20  1  0  0  0  0
 34 21  1  0  0  0  0
 35 22  1  0  0  0  0
 37 48  1  0  0  0  0
 38 49  1  6  0  0  0
 38 37  1  0  0  0  0
 38 45  1  0  0  0  0
 39 38  1  0  0  0  0
 39 51  1  0  0  0  0
 40 39  1  0  0  0  0
 41 52  1  0  0  0  0
 41 40  2  0  0  0  0
 42 43  1  0  0  0  0
 42 41  1  0  0  0  0
 43 44  2  0  0  0  0
 44 40  1  0  0  0  0
 45 47  1  0  0  0  0
 46 45  2  0  0  0  0
 50 39  1  0  0  0  0
 53 42  1  0  0  0  0
 54 43  1  0  0  0  0
M  END
$$$$
