SWI.pdb
 OpenBabel07022419103D

 56 57  0  0  1  0  0  0  0  0999 V2000
    4.3690   -3.8120   -0.1930 O   0  0  0  0  0  0  0  0  0  0  0  0
    3.2210   -3.2830    0.4190 C   0  0  0  0  0  0  0  0  0  0  0  0
    3.6070   -2.1890    1.4180 C   0  0  2  0  0  0  0  0  0  0  0  0
    4.4750   -2.8810    2.3860 N   0  0  0  0  0  0  0  0  0  0  0  0
    2.4060   -1.7180    2.1190 C   0  0  0  0  0  0  0  0  0  0  0  0
    2.2390   -1.9710    3.3360 O   0  0  0  0  0  0  0  0  0  0  0  0
    5.0380   -3.0970   -0.3690 H   0  0  0  0  0  0  0  0  0  0  0  0
    2.6260   -2.8420   -0.4050 H   0  0  0  0  0  0  0  0  0  0  0  0
    2.6770   -4.0500    1.0040 H   0  0  0  0  0  0  0  0  0  0  0  0
    4.2160   -1.4120    0.9500 H   0  0  0  0  0  0  0  0  0  0  0  0
    4.0020   -3.0760    3.2710 H   0  0  0  0  0  0  0  0  0  0  0  0
    5.4270   -2.5150    2.4180 H   0  0  0  0  0  0  0  0  0  0  0  0
    1.4210   -0.9600    1.3900 N   0  0  0  0  0  0  0  0  0  0  0  0
    0.2140   -0.4690    2.0360 C   0  0  1  0  0  0  0  0  0  0  0  0
    0.1420    1.0000    2.1800 C   0  0  0  0  0  0  0  0  0  0  0  0
    0.1710    1.8130    0.9770 C   0  0  0  0  0  0  0  0  0  0  0  0
    0.1620    1.5300   -0.3650 C   0  0  0  0  0  0  0  0  0  0  0  0
    0.2000    2.6940   -1.0640 N   0  0  0  0  0  0  0  0  0  0  0  0
    0.2340    3.7230   -0.2070 C   0  0  0  0  0  0  0  0  0  0  0  0
    0.2770    5.1050   -0.4180 C   0  0  0  0  0  0  0  0  0  0  0  0
    0.3010    5.9360    0.6760 C   0  0  0  0  0  0  0  0  0  0  0  0
    0.2850    5.4570    1.9800 C   0  0  0  0  0  0  0  0  0  0  0  0
    0.2420    4.0900    2.1440 C   0  0  0  0  0  0  0  0  0  0  0  0
    0.2170    3.2160    1.0710 C   0  0  0  0  0  0  0  0  0  0  0  0
   -1.0240   -1.0930    1.5330 C   0  0  0  0  0  0  0  0  0  0  0  0
   -2.1080   -0.7140    2.0410 O   0  0  0  0  0  0  0  0  0  0  0  0
    1.6600   -0.8080    0.3860 H   0  0  0  0  0  0  0  0  0  0  0  0
    0.3100   -0.8560    3.1120 H   0  0  0  0  0  0  0  0  0  0  0  0
    1.0020    1.3020    2.8520 H   0  0  0  0  0  0  0  0  0  0  0  0
   -0.7600    1.2360    2.7860 H   0  0  0  0  0  0  0  0  0  0  0  0
    0.1230    0.5320   -0.7610 H   0  0  0  0  0  0  0  0  0  0  0  0
    0.2030    2.7200   -2.0920 H   0  0  0  0  0  0  0  0  0  0  0  0
    0.2910    5.5030   -1.4230 H   0  0  0  0  0  0  0  0  0  0  0  0
    0.3330    7.0300    0.5620 H   0  0  0  0  0  0  0  0  0  0  0  0
    0.3050    6.1440    2.8220 H   0  0  0  0  0  0  0  0  0  0  0  0
    0.2290    3.7050    3.1500 H   0  0  0  0  0  0  0  0  0  0  0  0
   -3.9930   -4.2330   -2.3470 C   0  0  0  0  0  0  0  0  0  0  0  0
   -3.9280   -2.8100   -1.9250 C   0  0  0  0  0  0  0  0  0  0  0  0
   -2.6640   -2.3330   -1.3230 C   0  0  2  0  0  0  0  0  0  0  0  0
   -1.4490   -2.4960   -2.2130 C   0  0  0  0  0  0  0  0  0  0  0  0
   -2.4010   -2.6430    0.1070 C   0  0  2  0  0  0  0  0  0  0  0  0
   -1.0890   -2.0870    0.5220 N   0  0  0  0  0  0  0  0  0  0  0  0
   -2.4120   -4.0580    0.5000 C   0  0  0  0  0  0  0  0  0  0  0  0
   -3.4020   -4.8140    0.3850 O   0  0  0  0  0  0  0  0  0  0  0  0
   -1.2710   -4.6840    1.0520 O   0  0  0  0  0  0  0  0  0  0  0  0
   -4.8010   -4.8330   -1.8990 H   0  0  0  0  0  0  0  0  0  0  0  0
   -4.2430   -4.2480   -3.4570 H   0  0  0  0  0  0  0  0  0  0  0  0
   -2.9820   -4.6880   -2.2700 H   0  0  0  0  0  0  0  0  0  0  0  0
   -4.7440   -2.6540   -1.1580 H   0  0  0  0  0  0  0  0  0  0  0  0
   -4.1740   -2.1550   -2.7990 H   0  0  0  0  0  0  0  0  0  0  0  0
   -2.7910   -1.1700   -1.3240 H   0  0  0  0  0  0  0  0  0  0  0  0
   -1.7420   -2.1620   -3.2370 H   0  0  0  0  0  0  0  0  0  0  0  0
   -1.1400   -3.5510   -2.3180 H   0  0  0  0  0  0  0  0  0  0  0  0
   -0.6530   -1.8430   -1.8040 H   0  0  0  0  0  0  0  0  0  0  0  0
   -3.1920   -2.1220    0.7280 H   0  0  0  0  0  0  0  0  0  0  0  0
   -0.2040   -2.4140    0.0860 H   0  0  0  0  0  0  0  0  0  0  0  0
  1  2  1  0  0  0  0
  2  9  1  0  0  0  0
  2  3  1  0  0  0  0
  3 10  1  6  0  0  0
  3  5  1  0  0  0  0
  3  4  1  0  0  0  0
  4 12  1  0  0  0  0
  4 11  1  0  0  0  0
  5  6  2  0  0  0  0
  7  1  1  0  0  0  0
  8  2  1  0  0  0  0
 13 14  1  0  0  0  0
 13  5  1  0  0  0  0
 14 15  1  0  0  0  0
 14 28  1  1  0  0  0
 15 30  1  0  0  0  0
 15 29  1  0  0  0  0
 16 24  1  0  0  0  0
 16 15  1  0  0  0  0
 17 16  2  0  0  0  0
 18 17  1  0  0  0  0
 18 19  1  0  0  0  0
 19 24  1  0  0  0  0
 20 19  2  0  0  0  0
 20 21  1  0  0  0  0
 21 22  2  0  0  0  0
 22 23  1  0  0  0  0
 22 35  1  0  0  0  0
 23 36  1  0  0  0  0
 24 23  2  0  0  0  0
 25 14  1  0  0  0  0
 25 26  2  0  0  0  0
 27 13  1  0  0  0  0
 31 17  1  0  0  0  0
 32 18  1  0  0  0  0
 33 20  1  0  0  0  0
 34 21  1  0  0  0  0
 37 48  1  0  0  0  0
 37 38  1  0  0  0  0
 37 46  1  0  0  0  0
 38 39  1  0  0  0  0
 38 49  1  0  0  0  0
 39 51  1  1  0  0  0
 39 41  1  0  0  0  0
 40 54  1  0  0  0  0
 40 39  1  0  0  0  0
 41 43  1  0  0  0  0
 41 42  1  0  0  0  0
 41 55  1  1  0  0  0
 42 25  1  0  0  0  0
 43 45  1  0  0  0  0
 44 43  2  0  0  0  0
 47 37  1  0  0  0  0
 50 38  1  0  0  0  0
 52 40  1  0  0  0  0
 53 40  1  0  0  0  0
 56 42  1  0  0  0  0
M  END
$$$$
