SWK.pdb
 OpenBabel07022419103D

 58 59  0  0  1  0  0  0  0  0999 V2000
    3.4050   -2.2180    0.1660 O   0  0  0  0  0  0  0  0  0  0  0  0
    4.0230   -2.1220    1.3820 C   0  0  0  0  0  0  0  0  0  0  0  0
    3.7930   -0.8660    2.1370 C   0  0  2  0  0  0  0  0  0  0  0  0
    4.5230   -0.9500    3.3870 N   0  0  0  0  0  0  0  0  0  0  0  0
    2.4300   -0.4810    2.4140 C   0  0  0  0  0  0  0  0  0  0  0  0
    2.1010   -0.2650    3.6130 O   0  0  0  0  0  0  0  0  0  0  0  0
    2.8020   -2.9930    0.0690 H   0  0  0  0  0  0  0  0  0  0  0  0
    3.7610   -3.0210    1.9740 H   0  0  0  0  0  0  0  0  0  0  0  0
    5.1300   -2.2040    1.2060 H   0  0  0  0  0  0  0  0  0  0  0  0
    4.2740    0.0010    1.5870 H   0  0  0  0  0  0  0  0  0  0  0  0
    3.9590   -0.7690    4.2210 H   0  0  0  0  0  0  0  0  0  0  0  0
    4.9970   -1.8840    3.5050 H   0  0  0  0  0  0  0  0  0  0  0  0
    1.4160   -0.3280    1.4000 N   0  0  0  0  0  0  0  0  0  0  0  0
    0.0850    0.0580    1.7270 C   0  0  1  0  0  0  0  0  0  0  0  0
   -0.3780    1.1940    0.8700 C   0  0  0  0  0  0  0  0  0  0  0  0
    0.3800    2.4330    0.9510 C   0  0  0  0  0  0  0  0  0  0  0  0
    1.3670    2.8140    1.8190 C   0  0  0  0  0  0  0  0  0  0  0  0
    1.7730    4.0810    1.5120 N   0  0  0  0  0  0  0  0  0  0  0  0
    1.0460    4.4880    0.4610 C   0  0  0  0  0  0  0  0  0  0  0  0
    1.0970    5.7090   -0.2100 C   0  0  0  0  0  0  0  0  0  0  0  0
    0.2390    5.9030   -1.2740 C   0  0  0  0  0  0  0  0  0  0  0  0
   -0.6430    4.9270   -1.6690 C   0  0  0  0  0  0  0  0  0  0  0  0
   -0.6630    3.7290   -0.9790 C   0  0  0  0  0  0  0  0  0  0  0  0
    0.1760    3.4930    0.0910 C   0  0  0  0  0  0  0  0  0  0  0  0
   -0.9000   -1.0490    1.4820 C   0  0  0  0  0  0  0  0  0  0  0  0
   -2.1270   -0.8190    1.6890 O   0  0  0  0  0  0  0  0  0  0  0  0
    1.7460   -0.5220    0.4290 H   0  0  0  0  0  0  0  0  0  0  0  0
    0.0020    0.3880    2.8040 H   0  0  0  0  0  0  0  0  0  0  0  0
   -0.4310    0.8130   -0.1830 H   0  0  0  0  0  0  0  0  0  0  0  0
   -1.4680    1.4030    1.1110 H   0  0  0  0  0  0  0  0  0  0  0  0
    1.8070    2.2840    2.6340 H   0  0  0  0  0  0  0  0  0  0  0  0
    2.5090    4.6260    2.0030 H   0  0  0  0  0  0  0  0  0  0  0  0
    1.7890    6.4710    0.1040 H   0  0  0  0  0  0  0  0  0  0  0  0
    0.2640    6.8600   -1.8150 H   0  0  0  0  0  0  0  0  0  0  0  0
   -1.3120    5.0690   -2.4950 H   0  0  0  0  0  0  0  0  0  0  0  0
   -1.3480    2.9240   -1.2580 H   0  0  0  0  0  0  0  0  0  0  0  0
   -0.5480   -2.3350    1.0340 N   0  0  0  0  0  0  0  0  0  0  0  0
   -1.5840   -3.3620    0.8120 C   0  0  1  0  0  0  0  0  0  0  0  0
   -1.2980   -3.9110   -0.5670 C   0  0  0  0  0  0  0  0  0  0  0  0
   -2.2620   -4.9630   -0.9940 C   0  0  0  0  0  0  0  0  0  0  0  0
   -3.6630   -4.4150   -1.0190 C   0  0  0  0  0  0  0  0  0  0  0  0
   -3.8150   -3.2560   -1.9790 C   0  0  0  0  0  0  0  0  0  0  0  0
   -3.4760   -3.6900   -3.3340 N   0  0  0  0  0  0  0  0  0  0  0  0
   -1.3250   -4.4440    1.8030 C   0  0  0  0  0  0  0  0  0  0  0  0
   -2.0730   -5.4300    1.8820 O   0  0  0  0  0  0  0  0  0  0  0  0
   -0.2490   -4.3750    2.6560 O   0  0  0  0  0  0  0  0  0  0  0  0
    0.4160   -2.6000    0.8490 H   0  0  0  0  0  0  0  0  0  0  0  0
   -2.5740   -2.9280    0.9350 H   0  0  0  0  0  0  0  0  0  0  0  0
   -0.2600   -4.3520   -0.6010 H   0  0  0  0  0  0  0  0  0  0  0  0
   -1.2990   -3.0990   -1.3320 H   0  0  0  0  0  0  0  0  0  0  0  0
   -2.2430   -5.8570   -0.3530 H   0  0  0  0  0  0  0  0  0  0  0  0
   -2.0220   -5.2370   -2.0670 H   0  0  0  0  0  0  0  0  0  0  0  0
   -3.9630   -4.1170    0.0040 H   0  0  0  0  0  0  0  0  0  0  0  0
   -4.3410   -5.2340   -1.3580 H   0  0  0  0  0  0  0  0  0  0  0  0
   -3.1640   -2.4150   -1.6970 H   0  0  0  0  0  0  0  0  0  0  0  0
   -4.8800   -2.9280   -2.0170 H   0  0  0  0  0  0  0  0  0  0  0  0
   -3.7400   -4.7020   -3.4770 H   0  0  0  0  0  0  0  0  0  0  0  0
   -2.4580   -3.5850   -3.5150 H   0  0  0  0  0  0  0  0  0  0  0  0
  1  2  1  0  0  0  0
  2  8  1  0  0  0  0
  2  3  1  0  0  0  0
  3 10  1  6  0  0  0
  3  5  1  0  0  0  0
  3  4  1  0  0  0  0
  4 12  1  0  0  0  0
  4 11  1  0  0  0  0
  5  6  2  0  0  0  0
  7  1  1  0  0  0  0
  9  2  1  0  0  0  0
 13 14  1  0  0  0  0
 13  5  1  0  0  0  0
 14 28  1  1  0  0  0
 15 16  1  0  0  0  0
 15 30  1  0  0  0  0
 15 14  1  0  0  0  0
 16 17  2  0  0  0  0
 17 31  1  0  0  0  0
 18 17  1  0  0  0  0
 18 32  1  0  0  0  0
 19 18  1  0  0  0  0
 20 33  1  0  0  0  0
 20 19  2  0  0  0  0
 21 20  1  0  0  0  0
 22 21  2  0  0  0  0
 22 23  1  0  0  0  0
 23 24  2  0  0  0  0
 24 19  1  0  0  0  0
 24 16  1  0  0  0  0
 25 26  2  0  0  0  0
 25 14  1  0  0  0  0
 27 13  1  0  0  0  0
 29 15  1  0  0  0  0
 34 21  1  0  0  0  0
 35 22  1  0  0  0  0
 36 23  1  0  0  0  0
 37 25  1  0  0  0  0
 38 48  1  1  0  0  0
 38 37  1  0  0  0  0
 38 44  1  0  0  0  0
 39 38  1  0  0  0  0
 40 39  1  0  0  0  0
 40 51  1  0  0  0  0
 41 40  1  0  0  0  0
 41 53  1  0  0  0  0
 42 55  1  0  0  0  0
 42 41  1  0  0  0  0
 43 42  1  0  0  0  0
 44 45  2  0  0  0  0
 44 46  1  0  0  0  0
 47 37  1  0  0  0  0
 49 39  1  0  0  0  0
 50 39  1  0  0  0  0
 52 40  1  0  0  0  0
 54 41  1  0  0  0  0
 56 42  1  0  0  0  0
 57 43  1  0  0  0  0
 58 43  1  0  0  0  0
M  END
$$$$
