SWM.pdb
 OpenBabel07022419103D

 54 55  0  0  1  0  0  0  0  0999 V2000
    2.6100   -3.3660    1.4400 O   0  0  0  0  0  0  0  0  0  0  0  0
    2.7600   -2.8110    0.1510 C   0  0  0  0  0  0  0  0  0  0  0  0
    3.0220   -1.3200    0.2960 C   0  0  2  0  0  0  0  0  0  0  0  0
    4.2320   -1.0930    1.0670 N   0  0  0  0  0  0  0  0  0  0  0  0
    1.8610   -0.6490    0.9400 C   0  0  0  0  0  0  0  0  0  0  0  0
    1.9520    0.0040    1.9890 O   0  0  0  0  0  0  0  0  0  0  0  0
    2.0290   -2.7510    1.9510 H   0  0  0  0  0  0  0  0  0  0  0  0
    1.7940   -2.9430   -0.3760 H   0  0  0  0  0  0  0  0  0  0  0  0
    3.5760   -3.3010   -0.3790 H   0  0  0  0  0  0  0  0  0  0  0  0
    3.1900   -0.9050   -0.7120 H   0  0  0  0  0  0  0  0  0  0  0  0
    4.4860   -0.0750    0.9030 H   0  0  0  0  0  0  0  0  0  0  0  0
    4.9990   -1.6710    0.6960 H   0  0  0  0  0  0  0  0  0  0  0  0
    0.5800   -0.7550    0.3260 N   0  0  0  0  0  0  0  0  0  0  0  0
   -0.5810   -0.1220    0.9080 C   0  0  1  0  0  0  0  0  0  0  0  0
   -1.1260    0.8340   -0.1520 C   0  0  0  0  0  0  0  0  0  0  0  0
   -0.0050    1.8010   -0.4210 C   0  0  0  0  0  0  0  0  0  0  0  0
    0.8450    1.8420   -1.5010 C   0  0  0  0  0  0  0  0  0  0  0  0
    1.7000    2.8700   -1.3380 N   0  0  0  0  0  0  0  0  0  0  0  0
    1.4440    3.5150   -0.1770 C   0  0  0  0  0  0  0  0  0  0  0  0
    2.0250    4.6100    0.4360 C   0  0  0  0  0  0  0  0  0  0  0  0
    1.5400    5.0570    1.6480 C   0  0  0  0  0  0  0  0  0  0  0  0
    0.4770    4.3950    2.2250 C   0  0  0  0  0  0  0  0  0  0  0  0
   -0.0930    3.3060    1.6040 C   0  0  0  0  0  0  0  0  0  0  0  0
    0.3790    2.8470    0.3940 C   0  0  0  0  0  0  0  0  0  0  0  0
   -1.6340   -1.1250    1.2180 C   0  0  0  0  0  0  0  0  0  0  0  0
   -2.7430   -0.8030    1.7190 O   0  0  0  0  0  0  0  0  0  0  0  0
    0.4620   -1.2910   -0.5560 H   0  0  0  0  0  0  0  0  0  0  0  0
   -0.3120    0.4400    1.8350 H   0  0  0  0  0  0  0  0  0  0  0  0
   -1.9880    1.4050    0.2070 H   0  0  0  0  0  0  0  0  0  0  0  0
   -1.3070    0.2720   -1.0690 H   0  0  0  0  0  0  0  0  0  0  0  0
    0.7910    1.1400   -2.3200 H   0  0  0  0  0  0  0  0  0  0  0  0
    2.4610    3.1510   -1.9950 H   0  0  0  0  0  0  0  0  0  0  0  0
    2.8540    5.1040   -0.0420 H   0  0  0  0  0  0  0  0  0  0  0  0
    1.9910    5.9190    2.1400 H   0  0  0  0  0  0  0  0  0  0  0  0
    0.1060    4.7560    3.1780 H   0  0  0  0  0  0  0  0  0  0  0  0
   -0.9250    2.7790    2.0440 H   0  0  0  0  0  0  0  0  0  0  0  0
   -4.5390   -1.9480   -0.8480 C   0  0  0  0  0  0  0  0  0  0  0  0
   -3.9930   -3.4500   -1.6430 S   0  0  0  0  0  0  0  0  0  0  0  0
   -2.3660   -4.0230   -1.2550 C   0  0  0  0  0  0  0  0  0  0  0  0
   -2.1000   -4.5710    0.0850 C   0  0  0  0  0  0  0  0  0  0  0  0
   -2.3000   -3.5670    1.1760 C   0  0  2  0  0  0  0  0  0  0  0  0
   -1.3880   -2.4710    0.9450 N   0  0  0  0  0  0  0  0  0  0  0  0
   -1.8700   -4.1870    2.5050 C   0  0  0  0  0  0  0  0  0  0  0  0
   -2.5090   -5.1800    2.9500 O   0  0  0  0  0  0  0  0  0  0  0  0
   -0.7970   -3.6170    3.1470 O   0  0  0  0  0  0  0  0  0  0  0  0
   -4.9930   -2.1340    0.1250 H   0  0  0  0  0  0  0  0  0  0  0  0
   -3.7210   -1.1860   -0.7620 H   0  0  0  0  0  0  0  0  0  0  0  0
   -5.3560   -1.4540   -1.4800 H   0  0  0  0  0  0  0  0  0  0  0  0
   -1.6640   -3.1280   -1.3880 H   0  0  0  0  0  0  0  0  0  0  0  0
   -1.9660   -4.7470   -2.0410 H   0  0  0  0  0  0  0  0  0  0  0  0
   -2.6420   -5.5300    0.2920 H   0  0  0  0  0  0  0  0  0  0  0  0
   -0.9960   -4.8390    0.1070 H   0  0  0  0  0  0  0  0  0  0  0  0
   -3.3400   -3.2320    1.3300 H   0  0  0  0  0  0  0  0  0  0  0  0
   -0.4480   -2.7350    0.5320 H   0  0  0  0  0  0  0  0  0  0  0  0
  1  7  1  0  0  0  0
  2  3  1  0  0  0  0
  2  1  1  0  0  0  0
  3 10  1  6  0  0  0
  3  5  1  0  0  0  0
  3  4  1  0  0  0  0
  5  6  2  0  0  0  0
  8  2  1  0  0  0  0
  9  2  1  0  0  0  0
 11  4  1  0  0  0  0
 12  4  1  0  0  0  0
 13 14  1  0  0  0  0
 13  5  1  0  0  0  0
 14 25  1  0  0  0  0
 14 28  1  1  0  0  0
 15 29  1  0  0  0  0
 15 14  1  0  0  0  0
 16 15  1  0  0  0  0
 16 24  1  0  0  0  0
 17 18  1  0  0  0  0
 17 16  2  0  0  0  0
 18 19  1  0  0  0  0
 19 24  2  0  0  0  0
 19 20  1  0  0  0  0
 20 21  2  0  0  0  0
 21 34  1  0  0  0  0
 21 22  1  0  0  0  0
 22 35  1  0  0  0  0
 23 36  1  0  0  0  0
 23 22  2  0  0  0  0
 24 23  1  0  0  0  0
 25 26  2  0  0  0  0
 27 13  1  0  0  0  0
 30 15  1  0  0  0  0
 31 17  1  0  0  0  0
 32 18  1  0  0  0  0
 33 20  1  0  0  0  0
 37 47  1  0  0  0  0
 37 46  1  0  0  0  0
 38 39  1  0  0  0  0
 38 37  1  0  0  0  0
 39 40  1  0  0  0  0
 40 52  1  0  0  0  0
 40 51  1  0  0  0  0
 40 41  1  0  0  0  0
 41 53  1  1  0  0  0
 41 43  1  0  0  0  0
 42 41  1  0  0  0  0
 42 25  1  0  0  0  0
 43 44  2  0  0  0  0
 43 45  1  0  0  0  0
 48 37  1  0  0  0  0
 49 39  1  0  0  0  0
 50 39  1  0  0  0  0
 54 42  1  0  0  0  0
M  END
$$$$
