SWN.pdb
 OpenBabel07022419103D

 51 52  0  0  1  0  0  0  0  0999 V2000
    4.3660   -0.1400    2.5250 O   0  0  0  0  0  0  0  0  0  0  0  0
    4.8900   -1.4190    2.3560 C   0  0  0  0  0  0  0  0  0  0  0  0
    4.0820   -2.1880    1.3010 C   0  0  2  0  0  0  0  0  0  0  0  0
    4.1610   -1.4630    0.0650 N   0  0  0  0  0  0  0  0  0  0  0  0
    2.6950   -2.2520    1.8310 C   0  0  0  0  0  0  0  0  0  0  0  0
    2.4590   -2.8550    2.9120 O   0  0  0  0  0  0  0  0  0  0  0  0
    4.7480    0.5160    1.8820 H   0  0  0  0  0  0  0  0  0  0  0  0
    4.7150   -1.9540    3.3140 H   0  0  0  0  0  0  0  0  0  0  0  0
    5.9550   -1.4020    2.0580 H   0  0  0  0  0  0  0  0  0  0  0  0
    4.5330   -3.1790    1.1790 H   0  0  0  0  0  0  0  0  0  0  0  0
    3.6120   -1.8780   -0.6930 H   0  0  0  0  0  0  0  0  0  0  0  0
    4.1310   -0.4410    0.1550 H   0  0  0  0  0  0  0  0  0  0  0  0
    1.6690   -1.6190    1.0850 N   0  0  0  0  0  0  0  0  0  0  0  0
    0.3010   -1.6210    1.5080 C   0  0  1  0  0  0  0  0  0  0  0  0
   -0.2440   -0.2730    1.8150 C   0  0  0  0  0  0  0  0  0  0  0  0
   -0.2420    0.6910    0.7160 C   0  0  0  0  0  0  0  0  0  0  0  0
   -0.0600    0.5750   -0.6250 C   0  0  0  0  0  0  0  0  0  0  0  0
   -0.1650    1.7920   -1.1920 N   0  0  0  0  0  0  0  0  0  0  0  0
   -0.4110    2.7020   -0.2610 C   0  0  0  0  0  0  0  0  0  0  0  0
   -0.6020    4.0830   -0.3210 C   0  0  0  0  0  0  0  0  0  0  0  0
   -0.8450    4.7790    0.8420 C   0  0  0  0  0  0  0  0  0  0  0  0
   -0.9070    4.1560    2.0700 C   0  0  0  0  0  0  0  0  0  0  0  0
   -0.7160    2.7940    2.1030 C   0  0  0  0  0  0  0  0  0  0  0  0
   -0.4670    2.0520    0.9530 C   0  0  0  0  0  0  0  0  0  0  0  0
   -0.5700   -2.4210    0.5930 C   0  0  0  0  0  0  0  0  0  0  0  0
   -0.0420   -2.9780   -0.3870 O   0  0  0  0  0  0  0  0  0  0  0  0
    1.9290   -1.1400    0.2040 H   0  0  0  0  0  0  0  0  0  0  0  0
    0.2620   -2.2000    2.4820 H   0  0  0  0  0  0  0  0  0  0  0  0
    0.3660    0.1460    2.6550 H   0  0  0  0  0  0  0  0  0  0  0  0
   -1.2780   -0.3980    2.1960 H   0  0  0  0  0  0  0  0  0  0  0  0
    0.1350   -0.3510   -1.1400 H   0  0  0  0  0  0  0  0  0  0  0  0
   -0.0730    2.0310   -2.2230 H   0  0  0  0  0  0  0  0  0  0  0  0
   -0.5540    4.5760   -1.2890 H   0  0  0  0  0  0  0  0  0  0  0  0
   -0.9960    5.8620    0.8060 H   0  0  0  0  0  0  0  0  0  0  0  0
   -1.1030    4.7490    2.9630 H   0  0  0  0  0  0  0  0  0  0  0  0
   -0.7610    2.2870    3.0660 H   0  0  0  0  0  0  0  0  0  0  0  0
   -3.7470   -0.8310   -0.0040 N   0  0  0  0  0  0  0  0  0  0  0  0
   -3.3160   -1.2870   -1.2660 C   0  0  0  0  0  0  0  0  0  0  0  0
   -3.4060   -0.5370   -2.2600 O   0  0  0  0  0  0  0  0  0  0  0  0
   -2.7600   -2.6400   -1.4210 C   0  0  0  0  0  0  0  0  0  0  0  0
   -2.7660   -3.3280   -0.0740 C   0  0  2  0  0  0  0  0  0  0  0  0
   -1.9530   -2.5440    0.8320 N   0  0  0  0  0  0  0  0  0  0  0  0
   -2.2050   -4.6970   -0.1690 C   0  0  0  0  0  0  0  0  0  0  0  0
   -1.2130   -5.1040    0.4770 O   0  0  0  0  0  0  0  0  0  0  0  0
   -2.8010   -5.6300   -1.0320 O   0  0  0  0  0  0  0  0  0  0  0  0
   -4.4480   -1.4350    0.5110 H   0  0  0  0  0  0  0  0  0  0  0  0
   -3.3930    0.0590    0.4020 H   0  0  0  0  0  0  0  0  0  0  0  0
   -3.3830   -3.2320   -2.1460 H   0  0  0  0  0  0  0  0  0  0  0  0
   -1.7450   -2.5560   -1.8530 H   0  0  0  0  0  0  0  0  0  0  0  0
   -3.8290   -3.3740    0.2970 H   0  0  0  0  0  0  0  0  0  0  0  0
   -2.4110   -2.0630    1.6790 H   0  0  0  0  0  0  0  0  0  0  0  0
  2  1  1  0  0  0  0
  2  8  1  0  0  0  0
  3 10  1  6  0  0  0
  3  5  1  0  0  0  0
  3  2  1  0  0  0  0
  4 12  1  0  0  0  0
  4  3  1  0  0  0  0
  5  6  2  0  0  0  0
  7  1  1  0  0  0  0
  9  2  1  0  0  0  0
 11  4  1  0  0  0  0
 13 14  1  0  0  0  0
 13  5  1  0  0  0  0
 14 15  1  0  0  0  0
 14 28  1  1  0  0  0
 15 30  1  0  0  0  0
 15 29  1  0  0  0  0
 16 24  1  0  0  0  0
 16 15  1  0  0  0  0
 17 16  2  0  0  0  0
 18 17  1  0  0  0  0
 18 19  1  0  0  0  0
 19 24  1  0  0  0  0
 20 19  2  0  0  0  0
 20 21  1  0  0  0  0
 21 22  2  0  0  0  0
 22 23  1  0  0  0  0
 22 35  1  0  0  0  0
 23 36  1  0  0  0  0
 24 23  2  0  0  0  0
 25 42  1  0  0  0  0
 25 14  1  0  0  0  0
 26 25  2  0  0  0  0
 27 13  1  0  0  0  0
 31 17  1  0  0  0  0
 32 18  1  0  0  0  0
 33 20  1  0  0  0  0
 34 21  1  0  0  0  0
 37 47  1  0  0  0  0
 37 46  1  0  0  0  0
 38 37  1  0  0  0  0
 39 38  2  0  0  0  0
 40 38  1  0  0  0  0
 40 41  1  0  0  0  0
 41 50  1  1  0  0  0
 41 42  1  0  0  0  0
 42 51  1  0  0  0  0
 43 41  1  0  0  0  0
 43 44  1  0  0  0  0
 45 43  2  0  0  0  0
 48 40  1  0  0  0  0
 49 40  1  0  0  0  0
M  END
$$$$
