SWP.pdb
 OpenBabel07022419103D

 51 53  0  0  1  0  0  0  0  0999 V2000
   -0.0570   -0.1270    5.1660 O   0  0  0  0  0  0  0  0  0  0  0  0
    0.0180    0.2860    3.8140 C   0  0  0  0  0  0  0  0  0  0  0  0
    0.0960   -0.8790    2.9060 C   0  0  2  0  0  0  0  0  0  0  0  0
    1.2770   -1.6690    3.1970 N   0  0  0  0  0  0  0  0  0  0  0  0
   -0.0990   -0.6500    1.4840 C   0  0  0  0  0  0  0  0  0  0  0  0
    0.7250   -1.1780    0.6810 O   0  0  0  0  0  0  0  0  0  0  0  0
   -0.8820   -0.6880    5.2190 H   0  0  0  0  0  0  0  0  0  0  0  0
    0.9760    0.8620    3.7670 H   0  0  0  0  0  0  0  0  0  0  0  0
   -0.7970    0.9810    3.6540 H   0  0  0  0  0  0  0  0  0  0  0  0
   -0.7630   -1.5630    3.2130 H   0  0  0  0  0  0  0  0  0  0  0  0
    2.1250   -1.3110    2.6970 H   0  0  0  0  0  0  0  0  0  0  0  0
    1.4900   -1.6280    4.2200 H   0  0  0  0  0  0  0  0  0  0  0  0
   -1.1610    0.1300    0.9390 N   0  0  0  0  0  0  0  0  0  0  0  0
   -1.3860    0.3600   -0.4440 C   0  0  1  0  0  0  0  0  0  0  0  0
   -0.6440    1.4820   -1.0680 C   0  0  0  0  0  0  0  0  0  0  0  0
    0.8170    1.4260   -1.0220 C   0  0  0  0  0  0  0  0  0  0  0  0
    1.6620    0.9670   -2.0330 C   0  0  0  0  0  0  0  0  0  0  0  0
    2.9160    1.0560   -1.6300 N   0  0  0  0  0  0  0  0  0  0  0  0
    2.9500    1.5560   -0.3890 C   0  0  0  0  0  0  0  0  0  0  0  0
    4.0320    1.8380    0.4410 C   0  0  0  0  0  0  0  0  0  0  0  0
    3.8350    2.3680    1.6950 C   0  0  0  0  0  0  0  0  0  0  0  0
    2.5200    2.6070    2.0910 C   0  0  0  0  0  0  0  0  0  0  0  0
    1.4590    2.3260    1.2670 C   0  0  0  0  0  0  0  0  0  0  0  0
    1.6470    1.7960    0.0110 C   0  0  0  0  0  0  0  0  0  0  0  0
   -1.4620   -0.8660   -1.2600 C   0  0  0  0  0  0  0  0  0  0  0  0
   -1.2710   -0.6560   -2.5190 O   0  0  0  0  0  0  0  0  0  0  0  0
   -1.7820    0.5300    1.7060 H   0  0  0  0  0  0  0  0  0  0  0  0
   -2.5310    0.7130   -0.5100 H   0  0  0  0  0  0  0  0  0  0  0  0
   -0.9230    2.4800   -0.5970 H   0  0  0  0  0  0  0  0  0  0  0  0
   -0.9420    1.6000   -2.1610 H   0  0  0  0  0  0  0  0  0  0  0  0
    1.3330    0.5930   -3.0060 H   0  0  0  0  0  0  0  0  0  0  0  0
    3.7560    0.7750   -2.2010 H   0  0  0  0  0  0  0  0  0  0  0  0
    5.0370    1.6250    0.0630 H   0  0  0  0  0  0  0  0  0  0  0  0
    4.6690    2.5900    2.3470 H   0  0  0  0  0  0  0  0  0  0  0  0
    2.4040    3.0250    3.0850 H   0  0  0  0  0  0  0  0  0  0  0  0
    0.4650    2.5210    1.6010 H   0  0  0  0  0  0  0  0  0  0  0  0
   -1.7130   -2.1860   -0.8790 N   0  0  0  0  0  0  0  0  0  0  0  0
   -1.7100   -3.3150   -1.8440 C   0  0  0  0  0  0  0  0  0  0  0  0
   -2.8450   -4.1950   -1.4120 C   0  0  0  0  0  0  0  0  0  0  0  0
   -3.3020   -3.6980   -0.0490 C   0  0  0  0  0  0  0  0  0  0  0  0
   -2.0830   -2.8370    0.3570 C   0  0  1  0  0  0  0  0  0  0  0  0
   -1.0940   -3.8050    0.8660 C   0  0  0  0  0  0  0  0  0  0  0  0
   -1.3450   -4.3860    1.9590 O   0  0  0  0  0  0  0  0  0  0  0  0
    0.0990   -4.1470    0.2610 O   0  0  0  0  0  0  0  0  0  0  0  0
   -0.7580   -3.8460   -1.8520 H   0  0  0  0  0  0  0  0  0  0  0  0
   -1.8900   -2.9150   -2.8830 H   0  0  0  0  0  0  0  0  0  0  0  0
   -2.5500   -5.2650   -1.3320 H   0  0  0  0  0  0  0  0  0  0  0  0
   -3.7030   -4.0780   -2.1040 H   0  0  0  0  0  0  0  0  0  0  0  0
   -4.1750   -3.0520   -0.0770 H   0  0  0  0  0  0  0  0  0  0  0  0
   -3.4250   -4.5110    0.6900 H   0  0  0  0  0  0  0  0  0  0  0  0
   -2.4250   -2.1640    1.1450 H   0  0  0  0  0  0  0  0  0  0  0  0
  1  7  1  0  0  0  0
  2  1  1  0  0  0  0
  3  4  1  0  0  0  0
  3 10  1  1  0  0  0
  3  2  1  0  0  0  0
  4 12  1  0  0  0  0
  5  3  1  0  0  0  0
  6  5  2  0  0  0  0
  8  2  1  0  0  0  0
  9  2  1  0  0  0  0
 11  4  1  0  0  0  0
 13  5  1  0  0  0  0
 13 27  1  0  0  0  0
 14 28  1  6  0  0  0
 14 13  1  0  0  0  0
 15 16  1  0  0  0  0
 15 29  1  0  0  0  0
 15 14  1  0  0  0  0
 16 24  1  0  0  0  0
 17 18  1  0  0  0  0
 17 16  2  0  0  0  0
 18 19  1  0  0  0  0
 19 24  2  0  0  0  0
 19 20  1  0  0  0  0
 20 21  2  0  0  0  0
 21 22  1  0  0  0  0
 21 34  1  0  0  0  0
 22 35  1  0  0  0  0
 23 36  1  0  0  0  0
 23 22  2  0  0  0  0
 24 23  1  0  0  0  0
 25 37  1  0  0  0  0
 25 14  1  0  0  0  0
 26 25  2  0  0  0  0
 30 15  1  0  0  0  0
 31 17  1  0  0  0  0
 32 18  1  0  0  0  0
 33 20  1  0  0  0  0
 37 41  1  0  0  0  0
 38 39  1  0  0  0  0
 38 37  1  0  0  0  0
 39 47  1  0  0  0  0
 39 40  1  0  0  0  0
 40 41  1  0  0  0  0
 40 50  1  0  0  0  0
 41 42  1  0  0  0  0
 41 51  1  1  0  0  0
 42 43  1  0  0  0  0
 44 42  2  0  0  0  0
 45 38  1  0  0  0  0
 46 38  1  0  0  0  0
 48 39  1  0  0  0  0
 49 40  1  0  0  0  0
M  END
$$$$
