SWQ.pdb
 OpenBabel07022419103D

 54 55  0  0  1  0  0  0  0  0999 V2000
    0.5250   -3.3800    3.7280 O   0  0  0  0  0  0  0  0  0  0  0  0
    1.5870   -3.4010    2.8350 C   0  0  0  0  0  0  0  0  0  0  0  0
    2.2380   -2.0550    2.6710 C   0  0  2  0  0  0  0  0  0  0  0  0
    2.7260   -1.6520    3.9740 N   0  0  0  0  0  0  0  0  0  0  0  0
    1.3680   -1.0210    2.1340 C   0  0  0  0  0  0  0  0  0  0  0  0
    1.1570    0.0170    2.8070 O   0  0  0  0  0  0  0  0  0  0  0  0
    0.5180   -2.4580    4.1340 H   0  0  0  0  0  0  0  0  0  0  0  0
    1.3180   -3.8750    1.8710 H   0  0  0  0  0  0  0  0  0  0  0  0
    2.3610   -4.0730    3.2900 H   0  0  0  0  0  0  0  0  0  0  0  0
    3.0980   -2.2010    1.9710 H   0  0  0  0  0  0  0  0  0  0  0  0
    3.5540   -1.0140    3.8990 H   0  0  0  0  0  0  0  0  0  0  0  0
    2.9560   -2.4600    4.5920 H   0  0  0  0  0  0  0  0  0  0  0  0
    0.7070   -1.0760    0.8720 N   0  0  0  0  0  0  0  0  0  0  0  0
   -0.1460   -0.0760    0.3310 C   0  0  1  0  0  0  0  0  0  0  0  0
    0.3190    0.5700   -0.9390 C   0  0  0  0  0  0  0  0  0  0  0  0
    1.6320    1.2360   -0.7340 C   0  0  0  0  0  0  0  0  0  0  0  0
    2.8870    0.8140   -1.1130 C   0  0  0  0  0  0  0  0  0  0  0  0
    3.7740    1.7410   -0.7100 N   0  0  0  0  0  0  0  0  0  0  0  0
    3.1580    2.7550   -0.0820 C   0  0  0  0  0  0  0  0  0  0  0  0
    3.5470    3.9290    0.5140 C   0  0  0  0  0  0  0  0  0  0  0  0
    2.6630    4.8110    1.0990 C   0  0  0  0  0  0  0  0  0  0  0  0
    1.3260    4.4910    1.0820 C   0  0  0  0  0  0  0  0  0  0  0  0
    0.8920    3.3240    0.4950 C   0  0  0  0  0  0  0  0  0  0  0  0
    1.8110    2.4540   -0.0880 C   0  0  0  0  0  0  0  0  0  0  0  0
   -1.5610   -0.5400    0.1870 C   0  0  0  0  0  0  0  0  0  0  0  0
   -2.3850    0.2840   -0.2810 O   0  0  0  0  0  0  0  0  0  0  0  0
    0.8890   -1.9440    0.3200 H   0  0  0  0  0  0  0  0  0  0  0  0
   -0.1980    0.7580    1.0660 H   0  0  0  0  0  0  0  0  0  0  0  0
    0.3110   -0.0870   -1.8200 H   0  0  0  0  0  0  0  0  0  0  0  0
   -0.4080    1.3840   -1.1630 H   0  0  0  0  0  0  0  0  0  0  0  0
    3.0570   -0.1100   -1.6390 H   0  0  0  0  0  0  0  0  0  0  0  0
    4.8130    1.7110   -0.8490 H   0  0  0  0  0  0  0  0  0  0  0  0
    4.6070    4.1490    0.5090 H   0  0  0  0  0  0  0  0  0  0  0  0
    3.0180    5.7420    1.5660 H   0  0  0  0  0  0  0  0  0  0  0  0
    0.5730    5.1310    1.5190 H   0  0  0  0  0  0  0  0  0  0  0  0
   -0.1650    3.0700    0.4780 H   0  0  0  0  0  0  0  0  0  0  0  0
   -3.2360   -2.0240   -3.9670 N   0  0  0  0  0  0  0  0  0  0  0  0
   -3.6610   -2.3650   -2.6480 C   0  0  0  0  0  0  0  0  0  0  0  0
   -4.6730   -1.7670   -2.1990 O   0  0  0  0  0  0  0  0  0  0  0  0
   -2.9730   -3.3640   -1.8280 C   0  0  0  0  0  0  0  0  0  0  0  0
   -3.4790   -3.5220   -0.4360 C   0  0  0  0  0  0  0  0  0  0  0  0
   -3.3810   -2.2810    0.4050 C   0  0  2  0  0  0  0  0  0  0  0  0
   -2.0140   -1.8210    0.5390 N   0  0  0  0  0  0  0  0  0  0  0  0
   -3.8660   -2.6060    1.7780 C   0  0  0  0  0  0  0  0  0  0  0  0
   -5.0340   -3.0330    1.9550 O   0  0  0  0  0  0  0  0  0  0  0  0
   -3.0650   -2.4540    2.8980 O   0  0  0  0  0  0  0  0  0  0  0  0
   -3.6670   -1.2510   -4.4900 H   0  0  0  0  0  0  0  0  0  0  0  0
   -2.4600   -2.5830   -4.4070 H   0  0  0  0  0  0  0  0  0  0  0  0
   -1.8660   -3.2030   -1.8580 H   0  0  0  0  0  0  0  0  0  0  0  0
   -3.1190   -4.3590   -2.3360 H   0  0  0  0  0  0  0  0  0  0  0  0
   -2.8990   -4.3220    0.0670 H   0  0  0  0  0  0  0  0  0  0  0  0
   -4.5490   -3.8360   -0.5020 H   0  0  0  0  0  0  0  0  0  0  0  0
   -4.0550   -1.5250    0.0020 H   0  0  0  0  0  0  0  0  0  0  0  0
   -1.3160   -2.4890    0.9260 H   0  0  0  0  0  0  0  0  0  0  0  0
  1  7  1  0  0  0  0
  2  9  1  0  0  0  0
  2  1  1  0  0  0  0
  3 10  1  6  0  0  0
  3  2  1  0  0  0  0
  3  4  1  0  0  0  0
  4 12  1  0  0  0  0
  5  3  1  0  0  0  0
  5  6  2  0  0  0  0
  8  2  1  0  0  0  0
 11  4  1  0  0  0  0
 13  5  1  0  0  0  0
 14 13  1  0  0  0  0
 14 28  1  1  0  0  0
 15 16  1  0  0  0  0
 15 14  1  0  0  0  0
 16 24  1  0  0  0  0
 17 16  2  0  0  0  0
 17 18  1  0  0  0  0
 18 19  1  0  0  0  0
 19 20  1  0  0  0  0
 20 21  2  0  0  0  0
 21 34  1  0  0  0  0
 22 21  1  0  0  0  0
 22 35  1  0  0  0  0
 23 22  2  0  0  0  0
 24 19  2  0  0  0  0
 24 23  1  0  0  0  0
 25 14  1  0  0  0  0
 25 43  1  0  0  0  0
 26 25  2  0  0  0  0
 27 13  1  0  0  0  0
 29 15  1  0  0  0  0
 30 15  1  0  0  0  0
 31 17  1  0  0  0  0
 32 18  1  0  0  0  0
 33 20  1  0  0  0  0
 36 23  1  0  0  0  0
 37 38  1  0  0  0  0
 38 39  2  0  0  0  0
 38 40  1  0  0  0  0
 40 41  1  0  0  0  0
 41 51  1  0  0  0  0
 41 42  1  0  0  0  0
 42 53  1  6  0  0  0
 42 43  1  0  0  0  0
 42 44  1  0  0  0  0
 43 54  1  0  0  0  0
 44 45  2  0  0  0  0
 44 46  1  0  0  0  0
 47 37  1  0  0  0  0
 48 37  1  0  0  0  0
 49 40  1  0  0  0  0
 50 40  1  0  0  0  0
 52 41  1  0  0  0  0
M  END
$$$$
