SWR.pdb
 OpenBabel07022419103D

 60 61  0  0  1  0  0  0  0  0999 V2000
    1.2150    2.5990    4.0490 O   0  0  0  0  0  0  0  0  0  0  0  0
    2.0800    1.5930    3.6690 C   0  0  0  0  0  0  0  0  0  0  0  0
    1.3100    0.3720    3.2380 C   0  0  2  0  0  0  0  0  0  0  0  0
    2.2450   -0.6670    2.8470 N   0  0  0  0  0  0  0  0  0  0  0  0
    0.3220    0.6520    2.1840 C   0  0  0  0  0  0  0  0  0  0  0  0
   -0.5500    1.5320    2.4170 O   0  0  0  0  0  0  0  0  0  0  0  0
    1.6120    3.4920    4.0440 H   0  0  0  0  0  0  0  0  0  0  0  0
    2.6750    1.3030    4.5640 H   0  0  0  0  0  0  0  0  0  0  0  0
    2.8230    1.9090    2.9060 H   0  0  0  0  0  0  0  0  0  0  0  0
    0.7580   -0.0060    4.1230 H   0  0  0  0  0  0  0  0  0  0  0  0
    2.8270   -0.8600    3.7070 H   0  0  0  0  0  0  0  0  0  0  0  0
    1.6880   -1.5290    2.6680 H   0  0  0  0  0  0  0  0  0  0  0  0
    0.2700    0.0170    0.9310 N   0  0  0  0  0  0  0  0  0  0  0  0
   -0.6900    0.2810   -0.1090 C   0  0  1  0  0  0  0  0  0  0  0  0
   -0.0460    0.9190   -1.3290 C   0  0  0  0  0  0  0  0  0  0  0  0
    0.5940    2.2200   -0.9640 C   0  0  0  0  0  0  0  0  0  0  0  0
    1.9290    2.5220   -0.7890 C   0  0  0  0  0  0  0  0  0  0  0  0
    2.0690    3.8300   -0.4580 N   0  0  0  0  0  0  0  0  0  0  0  0
    0.8530    4.4110   -0.4080 C   0  0  0  0  0  0  0  0  0  0  0  0
    0.4670    5.7050   -0.1190 C   0  0  0  0  0  0  0  0  0  0  0  0
   -0.8720    6.0410   -0.1380 C   0  0  0  0  0  0  0  0  0  0  0  0
   -1.8150    5.0770   -0.4450 C   0  0  0  0  0  0  0  0  0  0  0  0
   -1.3980    3.7920   -0.7300 C   0  0  0  0  0  0  0  0  0  0  0  0
   -0.0700    3.4130   -0.7230 C   0  0  0  0  0  0  0  0  0  0  0  0
   -1.5350   -0.8730   -0.4310 C   0  0  0  0  0  0  0  0  0  0  0  0
   -2.4300   -0.8560   -1.3250 O   0  0  0  0  0  0  0  0  0  0  0  0
    0.9980   -0.7170    0.7340 H   0  0  0  0  0  0  0  0  0  0  0  0
   -1.3720    1.0790    0.3050 H   0  0  0  0  0  0  0  0  0  0  0  0
   -0.7940    1.1220   -2.1160 H   0  0  0  0  0  0  0  0  0  0  0  0
    0.7580    0.2550   -1.7520 H   0  0  0  0  0  0  0  0  0  0  0  0
    2.7130    1.7820   -0.9100 H   0  0  0  0  0  0  0  0  0  0  0  0
    2.9800    4.3070   -0.2720 H   0  0  0  0  0  0  0  0  0  0  0  0
    1.1660    6.4920    0.1270 H   0  0  0  0  0  0  0  0  0  0  0  0
   -1.2130    7.0630    0.0880 H   0  0  0  0  0  0  0  0  0  0  0  0
   -2.8760    5.2770   -0.4760 H   0  0  0  0  0  0  0  0  0  0  0  0
   -2.1170    2.9960   -0.9800 H   0  0  0  0  0  0  0  0  0  0  0  0
    1.2920   -6.4900    1.3770 N   0  0  0  0  0  0  0  0  0  0  0  0
    0.6260   -6.7640    0.1600 C   0  0  0  0  0  0  0  0  0  0  0  0
   -0.3510   -7.6210    0.0890 N   0  0  0  0  0  0  0  0  0  0  0  0
    0.9940   -6.1210   -1.0380 N   0  0  0  0  0  0  0  0  0  0  0  0
    0.0590   -5.6150   -2.0090 C   0  0  0  0  0  0  0  0  0  0  0  0
   -0.6880   -4.4000   -1.5460 C   0  0  0  0  0  0  0  0  0  0  0  0
   -1.5190   -4.5660   -0.3070 C   0  0  0  0  0  0  0  0  0  0  0  0
   -2.2030   -3.2890   -0.0160 C   0  0  2  0  0  0  0  0  0  0  0  0
   -1.4430   -2.1340    0.2210 N   0  0  0  0  0  0  0  0  0  0  0  0
   -3.0760   -3.5080    1.1970 C   0  0  0  0  0  0  0  0  0  0  0  0
   -3.0530   -2.7380    2.1890 O   0  0  0  0  0  0  0  0  0  0  0  0
   -3.9190   -4.5940    1.1930 O   0  0  0  0  0  0  0  0  0  0  0  0
    1.2620   -5.5530    1.8300 H   0  0  0  0  0  0  0  0  0  0  0  0
    1.8380   -7.2350    1.8590 H   0  0  0  0  0  0  0  0  0  0  0  0
   -0.8750   -7.8690   -0.7510 H   0  0  0  0  0  0  0  0  0  0  0  0
    2.0260   -6.0050   -1.2200 H   0  0  0  0  0  0  0  0  0  0  0  0
   -0.6370   -6.4230   -2.3530 H   0  0  0  0  0  0  0  0  0  0  0  0
    0.6340   -5.3230   -2.9160 H   0  0  0  0  0  0  0  0  0  0  0  0
    0.1090   -3.6110   -1.3640 H   0  0  0  0  0  0  0  0  0  0  0  0
   -1.3030   -4.0590   -2.4140 H   0  0  0  0  0  0  0  0  0  0  0  0
   -0.9070   -4.9650    0.5160 H   0  0  0  0  0  0  0  0  0  0  0  0
   -2.2890   -5.3320   -0.5160 H   0  0  0  0  0  0  0  0  0  0  0  0
   -2.9190   -3.0890   -0.8400 H   0  0  0  0  0  0  0  0  0  0  0  0
   -0.7020   -2.1990    0.9830 H   0  0  0  0  0  0  0  0  0  0  0  0
  2  1  1  0  0  0  0
  2  8  1  0  0  0  0
  3  2  1  0  0  0  0
  3 10  1  1  0  0  0
  4  3  1  0  0  0  0
  4 11  1  0  0  0  0
  5  6  2  0  0  0  0
  5  3  1  0  0  0  0
  7  1  1  0  0  0  0
  9  2  1  0  0  0  0
 12  4  1  0  0  0  0
 13  5  1  0  0  0  0
 14 28  1  1  0  0  0
 14 13  1  0  0  0  0
 15 16  1  0  0  0  0
 15 14  1  0  0  0  0
 16 17  2  0  0  0  0
 16 24  1  0  0  0  0
 17 18  1  0  0  0  0
 18 19  1  0  0  0  0
 18 32  1  0  0  0  0
 19 20  1  0  0  0  0
 20 33  1  0  0  0  0
 21 20  2  0  0  0  0
 21 34  1  0  0  0  0
 22 21  1  0  0  0  0
 23 24  1  0  0  0  0
 23 22  2  0  0  0  0
 24 19  2  0  0  0  0
 25 14  1  0  0  0  0
 25 45  1  0  0  0  0
 26 25  2  0  0  0  0
 27 13  1  0  0  0  0
 29 15  1  0  0  0  0
 30 15  1  0  0  0  0
 31 17  1  0  0  0  0
 35 22  1  0  0  0  0
 36 23  1  0  0  0  0
 37 49  1  0  0  0  0
 37 50  1  0  0  0  0
 38 37  1  0  0  0  0
 39 38  2  0  0  0  0
 40 38  1  0  0  0  0
 41 42  1  0  0  0  0
 41 40  1  0  0  0  0
 42 55  1  0  0  0  0
 42 43  1  0  0  0  0
 43 44  1  0  0  0  0
 43 57  1  0  0  0  0
 44 59  1  6  0  0  0
 44 45  1  0  0  0  0
 44 46  1  0  0  0  0
 45 60  1  0  0  0  0
 46 47  1  0  0  0  0
 48 46  2  0  0  0  0
 51 39  1  0  0  0  0
 52 40  1  0  0  0  0
 53 41  1  0  0  0  0
 54 41  1  0  0  0  0
 56 42  1  0  0  0  0
 58 43  1  0  0  0  0
M  END
$$$$
