SWS.pdb
 OpenBabel07022419103D

 48 49  0  0  1  0  0  0  0  0999 V2000
   -0.7170    0.7270    4.9030 O   0  0  0  0  0  0  0  0  0  0  0  0
   -0.1510    0.2350    3.7380 C   0  0  0  0  0  0  0  0  0  0  0  0
   -1.0750   -0.7240    3.0260 C   0  0  2  0  0  0  0  0  0  0  0  0
   -1.3240   -1.8210    3.9530 N   0  0  0  0  0  0  0  0  0  0  0  0
   -0.5160   -1.2150    1.7480 C   0  0  0  0  0  0  0  0  0  0  0  0
   -0.2730   -2.4640    1.6570 O   0  0  0  0  0  0  0  0  0  0  0  0
   -0.0570    0.6390    5.6350 H   0  0  0  0  0  0  0  0  0  0  0  0
    0.8170   -0.2240    3.9600 H   0  0  0  0  0  0  0  0  0  0  0  0
   -0.0670    1.1250    3.0510 H   0  0  0  0  0  0  0  0  0  0  0  0
   -2.0350   -0.1760    2.8600 H   0  0  0  0  0  0  0  0  0  0  0  0
   -0.4880   -2.1210    4.4760 H   0  0  0  0  0  0  0  0  0  0  0  0
   -1.7820   -2.6260    3.4370 H   0  0  0  0  0  0  0  0  0  0  0  0
   -0.2660   -0.3140    0.6610 N   0  0  0  0  0  0  0  0  0  0  0  0
    0.2350   -0.7290   -0.5920 C   0  0  1  0  0  0  0  0  0  0  0  0
    1.6900   -0.7440   -0.8350 C   0  0  0  0  0  0  0  0  0  0  0  0
    2.2370    0.6370   -0.6710 C   0  0  0  0  0  0  0  0  0  0  0  0
    2.4970    1.5390   -1.6840 C   0  0  0  0  0  0  0  0  0  0  0  0
    2.9520    2.6910   -1.1600 N   0  0  0  0  0  0  0  0  0  0  0  0
    3.0090    2.6010    0.1800 C   0  0  0  0  0  0  0  0  0  0  0  0
    3.4080    3.5030    1.1480 C   0  0  0  0  0  0  0  0  0  0  0  0
    3.3560    3.0990    2.4670 C   0  0  0  0  0  0  0  0  0  0  0  0
    2.9200    1.8340    2.7940 C   0  0  0  0  0  0  0  0  0  0  0  0
    2.5220    0.9430    1.7990 C   0  0  0  0  0  0  0  0  0  0  0  0
    2.5620    1.3130    0.4960 C   0  0  0  0  0  0  0  0  0  0  0  0
   -0.5070   -1.8950   -1.2060 C   0  0  0  0  0  0  0  0  0  0  0  0
    0.0410   -2.4690   -2.1640 O   0  0  0  0  0  0  0  0  0  0  0  0
   -0.4920    0.7020    0.8830 H   0  0  0  0  0  0  0  0  0  0  0  0
   -0.1540    0.1130   -1.3230 H   0  0  0  0  0  0  0  0  0  0  0  0
    2.2800   -1.3950   -0.1420 H   0  0  0  0  0  0  0  0  0  0  0  0
    1.8640   -1.0530   -1.8960 H   0  0  0  0  0  0  0  0  0  0  0  0
    2.3480    1.3350   -2.7330 H   0  0  0  0  0  0  0  0  0  0  0  0
    3.2200    3.5310   -1.7210 H   0  0  0  0  0  0  0  0  0  0  0  0
    3.7540    4.5030    0.9360 H   0  0  0  0  0  0  0  0  0  0  0  0
    3.6580    3.7670    3.2790 H   0  0  0  0  0  0  0  0  0  0  0  0
    2.8820    1.5200    3.8330 H   0  0  0  0  0  0  0  0  0  0  0  0
    2.1770   -0.0630    2.0230 H   0  0  0  0  0  0  0  0  0  0  0  0
   -3.5630   -4.0650    0.6330 O   0  0  0  0  0  0  0  0  0  0  0  0
   -2.7500   -4.5770   -0.3770 C   0  0  0  0  0  0  0  0  0  0  0  0
   -2.4580   -3.4730   -1.3580 C   0  0  2  0  0  0  0  0  0  0  0  0
   -1.7650   -2.3370   -0.7470 N   0  0  0  0  0  0  0  0  0  0  0  0
   -3.6820   -3.0200   -2.0620 C   0  0  0  0  0  0  0  0  0  0  0  0
   -3.9420   -1.7960   -2.0780 O   0  0  0  0  0  0  0  0  0  0  0  0
   -4.5430   -3.8880   -2.7000 O   0  0  0  0  0  0  0  0  0  0  0  0
   -3.0510   -3.6570    1.3810 H   0  0  0  0  0  0  0  0  0  0  0  0
   -3.2190   -5.4530   -0.8690 H   0  0  0  0  0  0  0  0  0  0  0  0
   -1.7990   -4.8630    0.1230 H   0  0  0  0  0  0  0  0  0  0  0  0
   -1.7570   -3.8820   -2.1230 H   0  0  0  0  0  0  0  0  0  0  0  0
   -2.2100   -1.8070    0.0410 H   0  0  0  0  0  0  0  0  0  0  0  0
  1  7  1  0  0  0  0
  2  8  1  0  0  0  0
  2  1  1  0  0  0  0
  3 10  1  6  0  0  0
  3  2  1  0  0  0  0
  3  4  1  0  0  0  0
  4 11  1  0  0  0  0
  5  3  1  0  0  0  0
  6  5  2  0  0  0  0
  9  2  1  0  0  0  0
 12  4  1  0  0  0  0
 13 27  1  0  0  0  0
 13  5  1  0  0  0  0
 14 28  1  6  0  0  0
 14 13  1  0  0  0  0
 15 16  1  0  0  0  0
 15 14  1  0  0  0  0
 15 29  1  0  0  0  0
 16 24  1  0  0  0  0
 17 18  1  0  0  0  0
 17 16  2  0  0  0  0
 18 19  1  0  0  0  0
 19 24  2  0  0  0  0
 19 20  1  0  0  0  0
 20 21  2  0  0  0  0
 21 22  1  0  0  0  0
 21 34  1  0  0  0  0
 22 35  1  0  0  0  0
 23 36  1  0  0  0  0
 23 22  2  0  0  0  0
 24 23  1  0  0  0  0
 25 40  1  0  0  0  0
 25 14  1  0  0  0  0
 26 25  2  0  0  0  0
 30 15  1  0  0  0  0
 31 17  1  0  0  0  0
 32 18  1  0  0  0  0
 33 20  1  0  0  0  0
 37 44  1  0  0  0  0
 38 46  1  0  0  0  0
 38 37  1  0  0  0  0
 39 47  1  6  0  0  0
 39 40  1  0  0  0  0
 39 38  1  0  0  0  0
 40 48  1  0  0  0  0
 41 39  1  0  0  0  0
 42 41  1  0  0  0  0
 43 41  2  0  0  0  0
 45 38  1  0  0  0  0
M  END
$$$$
