SWT.pdb
 OpenBabel07022419103D

 51 52  0  0  1  0  0  0  0  0999 V2000
    4.0260   -3.3930   -0.0310 O   0  0  0  0  0  0  0  0  0  0  0  0
    4.3040   -2.1340   -0.4840 C   0  0  0  0  0  0  0  0  0  0  0  0
    3.9520   -1.0400    0.4830 C   0  0  2  0  0  0  0  0  0  0  0  0
    4.6830   -1.2020    1.7190 N   0  0  0  0  0  0  0  0  0  0  0  0
    2.5270   -0.9290    0.7680 C   0  0  0  0  0  0  0  0  0  0  0  0
    2.1340   -0.9750    1.9600 O   0  0  0  0  0  0  0  0  0  0  0  0
    3.1660   -3.7170   -0.3990 H   0  0  0  0  0  0  0  0  0  0  0  0
    3.8310   -1.9030   -1.4550 H   0  0  0  0  0  0  0  0  0  0  0  0
    5.4150   -2.0690   -0.6450 H   0  0  0  0  0  0  0  0  0  0  0  0
    4.2840   -0.0480    0.0660 H   0  0  0  0  0  0  0  0  0  0  0  0
    4.2340   -1.9030    2.3590 H   0  0  0  0  0  0  0  0  0  0  0  0
    4.8900   -0.3120    2.1950 H   0  0  0  0  0  0  0  0  0  0  0  0
    1.5330   -0.7670   -0.2410 N   0  0  0  0  0  0  0  0  0  0  0  0
    0.1420   -0.6660    0.1400 C   0  0  1  0  0  0  0  0  0  0  0  0
   -0.4160    0.6820   -0.2660 C   0  0  0  0  0  0  0  0  0  0  0  0
    0.3580    1.7540    0.4130 C   0  0  0  0  0  0  0  0  0  0  0  0
    1.3190    2.5750   -0.1340 C   0  0  0  0  0  0  0  0  0  0  0  0
    1.7650    3.3970    0.8200 N   0  0  0  0  0  0  0  0  0  0  0  0
    1.1490    3.1680    1.9840 C   0  0  0  0  0  0  0  0  0  0  0  0
    1.2750    3.7510    3.2130 C   0  0  0  0  0  0  0  0  0  0  0  0
    0.5060    3.3290    4.2920 C   0  0  0  0  0  0  0  0  0  0  0  0
   -0.3830    2.2910    4.0360 C   0  0  0  0  0  0  0  0  0  0  0  0
   -0.5130    1.6990    2.7980 C   0  0  0  0  0  0  0  0  0  0  0  0
    0.2620    2.1430    1.7560 C   0  0  0  0  0  0  0  0  0  0  0  0
   -0.5880   -1.7820   -0.5090 C   0  0  0  0  0  0  0  0  0  0  0  0
    0.0060   -2.6100   -1.2380 O   0  0  0  0  0  0  0  0  0  0  0  0
    1.8550   -0.7280   -1.2370 H   0  0  0  0  0  0  0  0  0  0  0  0
    0.0500   -0.7280    1.2350 H   0  0  0  0  0  0  0  0  0  0  0  0
   -1.4900    0.7440   -0.0570 H   0  0  0  0  0  0  0  0  0  0  0  0
   -0.2670    0.8040   -1.3620 H   0  0  0  0  0  0  0  0  0  0  0  0
    1.6140    2.5060   -1.1780 H   0  0  0  0  0  0  0  0  0  0  0  0
    2.4960    4.1160    0.6610 H   0  0  0  0  0  0  0  0  0  0  0  0
    1.9800    4.5550    3.3620 H   0  0  0  0  0  0  0  0  0  0  0  0
    0.6020    3.7880    5.2660 H   0  0  0  0  0  0  0  0  0  0  0  0
   -0.9820    1.9690    4.8960 H   0  0  0  0  0  0  0  0  0  0  0  0
   -1.2090    0.9000    2.6340 H   0  0  0  0  0  0  0  0  0  0  0  0
   -4.3710   -3.1510    0.9580 C   0  0  0  0  0  0  0  0  0  0  0  0
   -3.3770   -3.9040    0.1200 C   0  0  1  0  0  0  0  0  0  0  0  0
   -4.0990   -4.9310   -0.5290 O   0  0  0  0  0  0  0  0  0  0  0  0
   -2.7410   -3.0340   -0.9440 C   0  0  2  0  0  0  0  0  0  0  0  0
   -1.9930   -1.9750   -0.3400 N   0  0  0  0  0  0  0  0  0  0  0  0
   -3.8030   -2.5370   -1.8540 C   0  0  0  0  0  0  0  0  0  0  0  0
   -3.9250   -1.2970   -1.9910 O   0  0  0  0  0  0  0  0  0  0  0  0
   -4.6640   -3.3590   -2.5580 O   0  0  0  0  0  0  0  0  0  0  0  0
   -5.4030   -3.1860    0.5040 H   0  0  0  0  0  0  0  0  0  0  0  0
   -4.0710   -2.1360    1.2220 H   0  0  0  0  0  0  0  0  0  0  0  0
   -4.4760   -3.7140    1.9190 H   0  0  0  0  0  0  0  0  0  0  0  0
   -2.6340   -4.3710    0.7890 H   0  0  0  0  0  0  0  0  0  0  0  0
   -3.4210   -5.5140   -0.9390 H   0  0  0  0  0  0  0  0  0  0  0  0
   -2.1030   -3.7110   -1.5660 H   0  0  0  0  0  0  0  0  0  0  0  0
   -2.4850   -1.2850    0.2660 H   0  0  0  0  0  0  0  0  0  0  0  0
  2  1  1  0  0  0  0
  2  3  1  0  0  0  0
  3 10  1  6  0  0  0
  3  5  1  0  0  0  0
  3  4  1  0  0  0  0
  4 12  1  0  0  0  0
  4 11  1  0  0  0  0
  5  6  2  0  0  0  0
  7  1  1  0  0  0  0
  8  2  1  0  0  0  0
  9  2  1  0  0  0  0
 13 14  1  0  0  0  0
 13  5  1  0  0  0  0
 14 28  1  1  0  0  0
 15 29  1  0  0  0  0
 15 14  1  0  0  0  0
 15 16  1  0  0  0  0
 16 24  1  0  0  0  0
 17 16  2  0  0  0  0
 17 18  1  0  0  0  0
 18 19  1  0  0  0  0
 19 20  1  0  0  0  0
 20 33  1  0  0  0  0
 20 21  2  0  0  0  0
 21 34  1  0  0  0  0
 22 21  1  0  0  0  0
 22 35  1  0  0  0  0
 23 22  2  0  0  0  0
 24 19  2  0  0  0  0
 24 23  1  0  0  0  0
 25 41  1  0  0  0  0
 25 14  1  0  0  0  0
 26 25  2  0  0  0  0
 27 13  1  0  0  0  0
 30 15  1  0  0  0  0
 31 17  1  0  0  0  0
 32 18  1  0  0  0  0
 36 23  1  0  0  0  0
 37 46  1  0  0  0  0
 37 47  1  0  0  0  0
 38 48  1  1  0  0  0
 38 37  1  0  0  0  0
 39 38  1  0  0  0  0
 40 50  1  6  0  0  0
 40 41  1  0  0  0  0
 40 38  1  0  0  0  0
 41 51  1  0  0  0  0
 42 40  1  0  0  0  0
 43 42  1  0  0  0  0
 44 42  2  0  0  0  0
 45 37  1  0  0  0  0
 49 39  1  0  0  0  0
M  END
$$$$
