SWV.pdb
 OpenBabel07022419103D

 53 54  0  0  1  0  0  0  0  0999 V2000
    4.5970   -2.8790    4.0480 O   0  0  0  0  0  0  0  0  0  0  0  0
    3.1950   -2.8470    4.1220 C   0  0  0  0  0  0  0  0  0  0  0  0
    2.6840   -2.7800    2.7000 C   0  0  2  0  0  0  0  0  0  0  0  0
    3.1830   -1.5970    2.0550 N   0  0  0  0  0  0  0  0  0  0  0  0
    1.1900   -2.8060    2.6740 C   0  0  0  0  0  0  0  0  0  0  0  0
    0.5280   -3.7240    3.2150 O   0  0  0  0  0  0  0  0  0  0  0  0
    4.9180   -2.1430    4.6190 H   0  0  0  0  0  0  0  0  0  0  0  0
    2.8730   -3.7870    4.6170 H   0  0  0  0  0  0  0  0  0  0  0  0
    2.8300   -2.0060    4.7350 H   0  0  0  0  0  0  0  0  0  0  0  0
    3.0540   -3.6710    2.1510 H   0  0  0  0  0  0  0  0  0  0  0  0
    3.7760   -1.8050    1.2230 H   0  0  0  0  0  0  0  0  0  0  0  0
    3.7700   -1.0220    2.7160 H   0  0  0  0  0  0  0  0  0  0  0  0
    0.4880   -1.7750    2.0270 N   0  0  0  0  0  0  0  0  0  0  0  0
   -0.9540   -1.7860    1.9940 C   0  0  1  0  0  0  0  0  0  0  0  0
   -1.3990   -0.6150    2.8440 C   0  0  0  0  0  0  0  0  0  0  0  0
   -0.9230    0.6860    2.4210 C   0  0  0  0  0  0  0  0  0  0  0  0
    0.1980    1.3050    2.9770 C   0  0  0  0  0  0  0  0  0  0  0  0
    0.4170    2.4770    2.3700 N   0  0  0  0  0  0  0  0  0  0  0  0
   -0.5510    2.6300    1.4220 C   0  0  0  0  0  0  0  0  0  0  0  0
   -0.7280    3.6910    0.5570 C   0  0  0  0  0  0  0  0  0  0  0  0
   -1.8020    3.6030   -0.3080 C   0  0  0  0  0  0  0  0  0  0  0  0
   -2.6570    2.5310   -0.3210 C   0  0  0  0  0  0  0  0  0  0  0  0
   -2.4470    1.4970    0.5550 C   0  0  0  0  0  0  0  0  0  0  0  0
   -1.3800    1.5300    1.4490 C   0  0  0  0  0  0  0  0  0  0  0  0
   -1.5370   -1.8780    0.6770 C   0  0  0  0  0  0  0  0  0  0  0  0
   -2.7740   -1.9940    0.5350 O   0  0  0  0  0  0  0  0  0  0  0  0
    0.9640   -0.9620    1.5430 H   0  0  0  0  0  0  0  0  0  0  0  0
   -1.3010   -2.7080    2.5650 H   0  0  0  0  0  0  0  0  0  0  0  0
   -1.2180   -0.8020    3.9240 H   0  0  0  0  0  0  0  0  0  0  0  0
   -2.5280   -0.6000    2.7580 H   0  0  0  0  0  0  0  0  0  0  0  0
    0.8120    0.9060    3.7840 H   0  0  0  0  0  0  0  0  0  0  0  0
    1.1890    3.1730    2.5700 H   0  0  0  0  0  0  0  0  0  0  0  0
   -0.0730    4.5540    0.5380 H   0  0  0  0  0  0  0  0  0  0  0  0
   -1.9830    4.4090   -1.0050 H   0  0  0  0  0  0  0  0  0  0  0  0
   -3.5060    2.4690   -1.0090 H   0  0  0  0  0  0  0  0  0  0  0  0
   -3.0790    0.6320    0.6110 H   0  0  0  0  0  0  0  0  0  0  0  0
    0.3880   -0.5810   -2.9480 C   0  0  0  0  0  0  0  0  0  0  0  0
   -1.0790   -0.7630   -2.6750 C   0  0  0  0  0  0  0  0  0  0  0  0
   -1.8090   -0.8770   -3.9870 C   0  0  0  0  0  0  0  0  0  0  0  0
   -1.3630   -1.9400   -1.7870 C   0  0  2  0  0  0  0  0  0  0  0  0
   -0.7450   -1.8430   -0.5010 N   0  0  0  0  0  0  0  0  0  0  0  0
   -0.9350   -3.1940   -2.5020 C   0  0  0  0  0  0  0  0  0  0  0  0
   -1.4220   -3.3890   -3.6390 O   0  0  0  0  0  0  0  0  0  0  0  0
   -0.0580   -4.0930   -1.9600 O   0  0  0  0  0  0  0  0  0  0  0  0
    0.9460   -0.5670   -2.0000 H   0  0  0  0  0  0  0  0  0  0  0  0
    0.7920   -1.3730   -3.6260 H   0  0  0  0  0  0  0  0  0  0  0  0
    0.6060    0.3800   -3.4530 H   0  0  0  0  0  0  0  0  0  0  0  0
   -1.4170    0.2020   -2.2020 H   0  0  0  0  0  0  0  0  0  0  0  0
   -1.1280   -1.3670   -4.7340 H   0  0  0  0  0  0  0  0  0  0  0  0
   -2.1300    0.1260   -4.3530 H   0  0  0  0  0  0  0  0  0  0  0  0
   -2.7280   -1.4860   -3.9310 H   0  0  0  0  0  0  0  0  0  0  0  0
   -2.4550   -2.0420   -1.6550 H   0  0  0  0  0  0  0  0  0  0  0  0
    0.3040   -1.7460   -0.4690 H   0  0  0  0  0  0  0  0  0  0  0  0
  1  2  1  0  0  0  0
  1  7  1  0  0  0  0
  2  8  1  0  0  0  0
  2  9  1  0  0  0  0
  3 10  1  6  0  0  0
  3  2  1  0  0  0  0
  4  3  1  0  0  0  0
  4 12  1  0  0  0  0
  5  3  1  0  0  0  0
  5  6  2  0  0  0  0
 11  4  1  0  0  0  0
 13  5  1  0  0  0  0
 14 13  1  0  0  0  0
 14 28  1  1  0  0  0
 14 15  1  0  0  0  0
 15 29  1  0  0  0  0
 16 15  1  0  0  0  0
 16 17  2  0  0  0  0
 17 31  1  0  0  0  0
 18 32  1  0  0  0  0
 18 17  1  0  0  0  0
 19 24  1  0  0  0  0
 19 18  1  0  0  0  0
 20 19  2  0  0  0  0
 21 20  1  0  0  0  0
 22 21  2  0  0  0  0
 22 23  1  0  0  0  0
 23 36  1  0  0  0  0
 23 24  2  0  0  0  0
 24 16  1  0  0  0  0
 25 14  1  0  0  0  0
 26 25  2  0  0  0  0
 27 13  1  0  0  0  0
 30 15  1  0  0  0  0
 33 20  1  0  0  0  0
 34 21  1  0  0  0  0
 35 22  1  0  0  0  0
 37 38  1  0  0  0  0
 37 45  1  0  0  0  0
 38 48  1  0  0  0  0
 38 40  1  0  0  0  0
 39 51  1  0  0  0  0
 39 38  1  0  0  0  0
 40 52  1  1  0  0  0
 40 41  1  0  0  0  0
 41 53  1  0  0  0  0
 41 25  1  0  0  0  0
 42 44  1  0  0  0  0
 42 40  1  0  0  0  0
 43 42  2  0  0  0  0
 46 37  1  0  0  0  0
 47 37  1  0  0  0  0
 49 39  1  0  0  0  0
 50 39  1  0  0  0  0
M  END
$$$$
