SWY.pdb
 OpenBabel07022419103D

 58 60  0  0  1  0  0  0  0  0999 V2000
    2.1160   -1.1020    5.4190 O   0  0  0  0  0  0  0  0  0  0  0  0
    3.1290   -1.9080    4.9390 C   0  0  0  0  0  0  0  0  0  0  0  0
    3.5100   -1.5890    3.5100 C   0  0  2  0  0  0  0  0  0  0  0  0
    3.9530   -0.2250    3.4470 N   0  0  0  0  0  0  0  0  0  0  0  0
    2.3310   -1.8550    2.6600 C   0  0  0  0  0  0  0  0  0  0  0  0
    1.8190   -3.0020    2.7050 O   0  0  0  0  0  0  0  0  0  0  0  0
    1.2100   -1.4310    5.2050 H   0  0  0  0  0  0  0  0  0  0  0  0
    2.7290   -2.9540    4.9480 H   0  0  0  0  0  0  0  0  0  0  0  0
    4.0150   -1.9220    5.6140 H   0  0  0  0  0  0  0  0  0  0  0  0
    4.3910   -2.2060    3.1880 H   0  0  0  0  0  0  0  0  0  0  0  0
    4.9250   -0.1970    3.8280 H   0  0  0  0  0  0  0  0  0  0  0  0
    3.3080    0.3460    4.0580 H   0  0  0  0  0  0  0  0  0  0  0  0
    1.7220   -0.9060    1.7820 N   0  0  0  0  0  0  0  0  0  0  0  0
    0.5860   -1.1910    0.9730 C   0  0  1  0  0  0  0  0  0  0  0  0
   -0.5970   -0.3910    1.3810 C   0  0  0  0  0  0  0  0  0  0  0  0
   -0.4880    1.0590    1.3250 C   0  0  0  0  0  0  0  0  0  0  0  0
   -0.9390    1.9000    0.3120 C   0  0  0  0  0  0  0  0  0  0  0  0
   -0.6510    3.1750    0.5930 N   0  0  0  0  0  0  0  0  0  0  0  0
   -0.0180    3.1820    1.7730 C   0  0  0  0  0  0  0  0  0  0  0  0
    0.4560    4.2890    2.4520 C   0  0  0  0  0  0  0  0  0  0  0  0
    1.0780    4.0850    3.6750 C   0  0  0  0  0  0  0  0  0  0  0  0
    1.2090    2.8110    4.1810 C   0  0  0  0  0  0  0  0  0  0  0  0
    0.7250    1.7370    3.4760 C   0  0  0  0  0  0  0  0  0  0  0  0
    0.0970    1.8820    2.2530 C   0  0  0  0  0  0  0  0  0  0  0  0
    0.8670   -1.0670   -0.4850 C   0  0  0  0  0  0  0  0  0  0  0  0
    1.9860   -0.7340   -0.9510 O   0  0  0  0  0  0  0  0  0  0  0  0
    2.1620    0.0340    1.7420 H   0  0  0  0  0  0  0  0  0  0  0  0
    0.2610   -2.2790    1.0820 H   0  0  0  0  0  0  0  0  0  0  0  0
   -1.4630   -0.7680    0.7800 H   0  0  0  0  0  0  0  0  0  0  0  0
   -0.8020   -0.6660    2.4650 H   0  0  0  0  0  0  0  0  0  0  0  0
   -1.4460    1.5910   -0.5700 H   0  0  0  0  0  0  0  0  0  0  0  0
   -0.8870    4.0010   -0.0140 H   0  0  0  0  0  0  0  0  0  0  0  0
    0.3550    5.2950    2.0580 H   0  0  0  0  0  0  0  0  0  0  0  0
    1.4590    4.9230    4.2290 H   0  0  0  0  0  0  0  0  0  0  0  0
    1.6940    2.6770    5.1300 H   0  0  0  0  0  0  0  0  0  0  0  0
    0.8150    0.7210    3.8560 H   0  0  0  0  0  0  0  0  0  0  0  0
   -5.3420   -4.7550   -2.2740 O   0  0  0  0  0  0  0  0  0  0  0  0
   -4.0610   -4.2680   -2.4880 C   0  0  0  0  0  0  0  0  0  0  0  0
   -3.0290   -4.4300   -1.6110 C   0  0  0  0  0  0  0  0  0  0  0  0
   -1.7930   -3.9250   -1.8810 C   0  0  0  0  0  0  0  0  0  0  0  0
   -1.5430   -3.2410   -3.0390 C   0  0  0  0  0  0  0  0  0  0  0  0
   -0.1930   -2.6820   -3.3600 C   0  0  0  0  0  0  0  0  0  0  0  0
   -0.0360   -1.2600   -2.8010 C   0  0  2  0  0  0  0  0  0  0  0  0
   -0.2130   -1.3500   -1.3650 N   0  0  0  0  0  0  0  0  0  0  0  0
   -1.0460   -0.4240   -3.4740 C   0  0  0  0  0  0  0  0  0  0  0  0
   -1.9670    0.0850   -2.7990 O   0  0  0  0  0  0  0  0  0  0  0  0
   -2.5600   -3.0600   -3.9450 C   0  0  0  0  0  0  0  0  0  0  0  0
   -3.8060   -3.5780   -3.6540 C   0  0  0  0  0  0  0  0  0  0  0  0
   -1.0070   -0.1840   -4.8310 O   0  0  0  0  0  0  0  0  0  0  0  0
   -6.0220   -4.3050   -1.6900 H   0  0  0  0  0  0  0  0  0  0  0  0
   -3.2610   -4.9820   -0.6930 H   0  0  0  0  0  0  0  0  0  0  0  0
   -0.9670   -4.0600   -1.1690 H   0  0  0  0  0  0  0  0  0  0  0  0
   -0.0830   -2.6920   -4.4630 H   0  0  0  0  0  0  0  0  0  0  0  0
    0.5510   -3.3410   -2.8610 H   0  0  0  0  0  0  0  0  0  0  0  0
    1.0000   -0.9560   -3.0300 H   0  0  0  0  0  0  0  0  0  0  0  0
   -1.1630   -1.6300   -1.0380 H   0  0  0  0  0  0  0  0  0  0  0  0
   -2.4010   -2.5180   -4.8910 H   0  0  0  0  0  0  0  0  0  0  0  0
   -4.6070   -3.4240   -4.3870 H   0  0  0  0  0  0  0  0  0  0  0  0
  2  8  1  0  0  0  0
  2  1  1  0  0  0  0
  2  9  1  0  0  0  0
  3 10  1  6  0  0  0
  3  2  1  0  0  0  0
  4  3  1  0  0  0  0
  4 11  1  0  0  0  0
  4 12  1  0  0  0  0
  5  6  2  0  0  0  0
  5  3  1  0  0  0  0
  7  1  1  0  0  0  0
 13  5  1  0  0  0  0
 14 28  1  1  0  0  0
 14 15  1  0  0  0  0
 14 13  1  0  0  0  0
 15 30  1  0  0  0  0
 16 15  1  0  0  0  0
 16 24  1  0  0  0  0
 17 18  1  0  0  0  0
 17 16  2  0  0  0  0
 18 19  1  0  0  0  0
 19 24  2  0  0  0  0
 19 20  1  0  0  0  0
 20 21  2  0  0  0  0
 21 22  1  0  0  0  0
 21 34  1  0  0  0  0
 22 35  1  0  0  0  0
 23 36  1  0  0  0  0
 23 22  2  0  0  0  0
 24 23  1  0  0  0  0
 25 14  1  0  0  0  0
 26 25  2  0  0  0  0
 27 13  1  0  0  0  0
 29 15  1  0  0  0  0
 31 17  1  0  0  0  0
 32 18  1  0  0  0  0
 33 20  1  0  0  0  0
 37 50  1  0  0  0  0
 38 37  1  0  0  0  0
 38 39  1  0  0  0  0
 39 51  1  0  0  0  0
 40 39  2  0  0  0  0
 40 52  1  0  0  0  0
 41 40  1  0  0  0  0
 42 41  1  0  0  0  0
 42 54  1  0  0  0  0
 42 43  1  0  0  0  0
 43 55  1  6  0  0  0
 43 44  1  0  0  0  0
 44 56  1  0  0  0  0
 44 25  1  0  0  0  0
 45 43  1  0  0  0  0
 45 46  1  0  0  0  0
 47 48  1  0  0  0  0
 47 41  2  0  0  0  0
 48 38  2  0  0  0  0
 49 45  2  0  0  0  0
 53 42  1  0  0  0  0
 57 47  1  0  0  0  0
 58 48  1  0  0  0  0
M  END
$$$$
