SYA.pdb
 OpenBabel07022419103D

 44 44  0  0  1  0  0  0  0  0999 V2000
    2.2530   -5.0710    3.0650 O   0  0  0  0  0  0  0  0  0  0  0  0
    1.4940   -4.0240    2.5750 C   0  0  0  0  0  0  0  0  0  0  0  0
    1.3550   -2.9570    3.6200 C   0  0  2  0  0  0  0  0  0  0  0  0
    0.7220   -3.3960    4.8250 N   0  0  0  0  0  0  0  0  0  0  0  0
    0.6830   -1.7500    3.1050 C   0  0  0  0  0  0  0  0  0  0  0  0
   -0.3090   -1.2590    3.7280 O   0  0  0  0  0  0  0  0  0  0  0  0
    2.7450   -4.8200    3.8870 H   0  0  0  0  0  0  0  0  0  0  0  0
    0.5510   -4.4230    2.2030 H   0  0  0  0  0  0  0  0  0  0  0  0
    2.0250   -3.5710    1.7090 H   0  0  0  0  0  0  0  0  0  0  0  0
    2.4010   -2.6410    3.8960 H   0  0  0  0  0  0  0  0  0  0  0  0
   -0.2920   -3.2200    4.8770 H   0  0  0  0  0  0  0  0  0  0  0  0
    1.0000   -4.3590    5.1060 H   0  0  0  0  0  0  0  0  0  0  0  0
   -1.4260    5.8510   -0.6470 O   0  0  0  0  0  0  0  0  0  0  0  0
   -0.7470    4.7330   -0.1630 C   0  0  0  0  0  0  0  0  0  0  0  0
   -0.0500    3.9120   -1.0300 C   0  0  0  0  0  0  0  0  0  0  0  0
    0.6310    2.7970   -0.5640 C   0  0  0  0  0  0  0  0  0  0  0  0
    0.6470    2.4530    0.7680 C   0  0  0  0  0  0  0  0  0  0  0  0
    1.3550    1.2680    1.2860 C   0  0  0  0  0  0  0  0  0  0  0  0
    0.4110    0.1190    1.4150 C   0  0  2  0  0  0  0  0  0  0  0  0
    1.0750   -1.0720    1.9230 N   0  0  0  0  0  0  0  0  0  0  0  0
   -0.2120   -0.1900    0.1150 C   0  0  0  0  0  0  0  0  0  0  0  0
   -0.9210    0.5970   -0.5610 O   0  0  0  0  0  0  0  0  0  0  0  0
   -0.0620    3.2920    1.6280 C   0  0  0  0  0  0  0  0  0  0  0  0
   -0.7380    4.3990    1.1710 C   0  0  0  0  0  0  0  0  0  0  0  0
   -2.4160    5.8180   -0.9120 H   0  0  0  0  0  0  0  0  0  0  0  0
   -0.0390    4.1490   -2.0820 H   0  0  0  0  0  0  0  0  0  0  0  0
    1.1880    2.1550   -1.2610 H   0  0  0  0  0  0  0  0  0  0  0  0
    1.8920    1.4820    2.2400 H   0  0  0  0  0  0  0  0  0  0  0  0
    2.1850    1.0380    0.5610 H   0  0  0  0  0  0  0  0  0  0  0  0
   -0.4240    0.4310    2.0920 H   0  0  0  0  0  0  0  0  0  0  0  0
    1.8810   -1.4280    1.3740 H   0  0  0  0  0  0  0  0  0  0  0  0
   -0.0390    3.0080    2.6800 H   0  0  0  0  0  0  0  0  0  0  0  0
   -1.2760    5.0280    1.8590 H   0  0  0  0  0  0  0  0  0  0  0  0
    0.4600   -2.2210   -2.7610 C   0  0  0  0  0  0  0  0  0  0  0  0
   -0.6250   -1.8280   -1.7580 C   0  0  2  0  0  0  0  0  0  0  0  0
   -0.0240   -1.4970   -0.4810 N   0  0  0  0  0  0  0  0  0  0  0  0
   -1.5430   -2.9620   -1.5780 C   0  0  0  0  0  0  0  0  0  0  0  0
   -2.1570   -3.3840   -2.5980 O   0  0  0  0  0  0  0  0  0  0  0  0
   -1.7560   -3.5770   -0.3490 O   0  0  0  0  0  0  0  0  0  0  0  0
    0.7240   -1.3620   -3.4040 H   0  0  0  0  0  0  0  0  0  0  0  0
    1.3340   -2.5470   -2.1600 H   0  0  0  0  0  0  0  0  0  0  0  0
    0.0610   -3.0290   -3.4150 H   0  0  0  0  0  0  0  0  0  0  0  0
   -1.1940   -0.9680   -2.1410 H   0  0  0  0  0  0  0  0  0  0  0  0
    0.5530   -2.1820    0.0400 H   0  0  0  0  0  0  0  0  0  0  0  0
  1  7  1  0  0  0  0
  2  1  1  0  0  0  0
  2  3  1  0  0  0  0
  3 10  1  1  0  0  0
  3  4  1  0  0  0  0
  4 11  1  0  0  0  0
  4 12  1  0  0  0  0
  5  3  1  0  0  0  0
  5  6  2  0  0  0  0
  8  2  1  0  0  0  0
  9  2  1  0  0  0  0
 13 14  1  0  0  0  0
 14 24  1  0  0  0  0
 15 16  1  0  0  0  0
 15 14  2  0  0  0  0
 16 17  2  0  0  0  0
 17 18  1  0  0  0  0
 17 23  1  0  0  0  0
 18 19  1  0  0  0  0
 18 28  1  0  0  0  0
 19 20  1  0  0  0  0
 19 30  1  1  0  0  0
 20  5  1  0  0  0  0
 21 19  1  0  0  0  0
 22 21  2  0  0  0  0
 23 32  1  0  0  0  0
 24 23  2  0  0  0  0
 24 33  1  0  0  0  0
 25 13  1  0  0  0  0
 26 15  1  0  0  0  0
 27 16  1  0  0  0  0
 29 18  1  0  0  0  0
 31 20  1  0  0  0  0
 34 41  1  0  0  0  0
 34 35  1  0  0  0  0
 35 43  1  6  0  0  0
 35 37  1  0  0  0  0
 35 36  1  0  0  0  0
 36 44  1  0  0  0  0
 36 21  1  0  0  0  0
 37 39  1  0  0  0  0
 38 37  2  0  0  0  0
 40 34  1  0  0  0  0
 42 34  1  0  0  0  0
M  END
$$$$
