SYE.pdb
 OpenBabel07022419103D

 50 50  0  0  1  0  0  0  0  0999 V2000
    0.1750    2.2490    4.0160 O   0  0  0  0  0  0  0  0  0  0  0  0
   -0.9240    3.0600    3.8990 C   0  0  0  0  0  0  0  0  0  0  0  0
   -1.2980    3.5010    2.5280 C   0  0  2  0  0  0  0  0  0  0  0  0
   -2.4680    4.3260    2.5760 N   0  0  0  0  0  0  0  0  0  0  0  0
   -1.4680    2.4270    1.5250 C   0  0  0  0  0  0  0  0  0  0  0  0
   -2.5100    2.3850    0.8530 O   0  0  0  0  0  0  0  0  0  0  0  0
    1.0570    2.7130    4.1160 H   0  0  0  0  0  0  0  0  0  0  0  0
   -0.6740    3.9910    4.4980 H   0  0  0  0  0  0  0  0  0  0  0  0
   -1.7640    2.6080    4.4740 H   0  0  0  0  0  0  0  0  0  0  0  0
   -0.4620    4.1930    2.1460 H   0  0  0  0  0  0  0  0  0  0  0  0
   -2.8370    4.3540    3.5320 H   0  0  0  0  0  0  0  0  0  0  0  0
   -3.1520    4.1980    1.8060 H   0  0  0  0  0  0  0  0  0  0  0  0
    5.8960   -0.0070    0.9130 O   0  0  0  0  0  0  0  0  0  0  0  0
    4.5520    0.0660    0.5190 C   0  0  0  0  0  0  0  0  0  0  0  0
    3.9080    1.2960    0.5110 C   0  0  0  0  0  0  0  0  0  0  0  0
    2.5840    1.3650    0.1250 C   0  0  0  0  0  0  0  0  0  0  0  0
    1.8860    0.2380   -0.2510 C   0  0  0  0  0  0  0  0  0  0  0  0
    0.4980    0.3840   -0.6910 C   0  0  0  0  0  0  0  0  0  0  0  0
   -0.5630    0.3940    0.3330 C   0  0  2  0  0  0  0  0  0  0  0  0
   -0.4720    1.4400    1.2950 N   0  0  0  0  0  0  0  0  0  0  0  0
   -0.9290   -0.9150    0.8610 C   0  0  0  0  0  0  0  0  0  0  0  0
   -1.4410   -1.0900    1.9900 O   0  0  0  0  0  0  0  0  0  0  0  0
    2.5050   -0.9670   -0.2430 C   0  0  0  0  0  0  0  0  0  0  0  0
    3.8300   -1.0510    0.1420 C   0  0  0  0  0  0  0  0  0  0  0  0
    6.3320   -0.9030    1.1460 H   0  0  0  0  0  0  0  0  0  0  0  0
    4.4750    2.1700    0.8190 H   0  0  0  0  0  0  0  0  0  0  0  0
    2.1210    2.3640    0.1360 H   0  0  0  0  0  0  0  0  0  0  0  0
    0.3830    1.3470   -1.3230 H   0  0  0  0  0  0  0  0  0  0  0  0
    0.3340   -0.3950   -1.4920 H   0  0  0  0  0  0  0  0  0  0  0  0
   -1.5120    0.6830   -0.2710 H   0  0  0  0  0  0  0  0  0  0  0  0
    0.4060    1.4760    1.8840 H   0  0  0  0  0  0  0  0  0  0  0  0
    2.0410   -1.9080   -0.5180 H   0  0  0  0  0  0  0  0  0  0  0  0
    4.3910   -1.9910    0.1680 H   0  0  0  0  0  0  0  0  0  0  0  0
   -0.7080   -2.0700    0.0840 N   0  0  0  0  0  0  0  0  0  0  0  0
   -1.0940   -3.3760    0.6080 C   0  0  1  0  0  0  0  0  0  0  0  0
   -1.2020   -4.4350   -0.4360 C   0  0  0  0  0  0  0  0  0  0  0  0
   -2.2170   -4.0830   -1.4970 C   0  0  0  0  0  0  0  0  0  0  0  0
   -2.2920   -5.1560   -2.5220 C   0  0  0  0  0  0  0  0  0  0  0  0
   -1.6000   -6.1870   -2.3900 O   0  0  0  0  0  0  0  0  0  0  0  0
    0.0230   -3.7550    1.5950 C   0  0  0  0  0  0  0  0  0  0  0  0
    0.9650   -2.9650    1.7950 O   0  0  0  0  0  0  0  0  0  0  0  0
   -3.1230   -5.0430   -3.6290 O   0  0  0  0  0  0  0  0  0  0  0  0
   -0.0190   -4.9610    2.2530 O   0  0  0  0  0  0  0  0  0  0  0  0
   -0.2910   -2.1030   -0.8660 H   0  0  0  0  0  0  0  0  0  0  0  0
   -1.9720   -3.3310    1.2470 H   0  0  0  0  0  0  0  0  0  0  0  0
   -1.5950   -5.3450    0.0660 H   0  0  0  0  0  0  0  0  0  0  0  0
   -0.2090   -4.6250   -0.9000 H   0  0  0  0  0  0  0  0  0  0  0  0
   -1.9510   -3.1420   -2.0400 H   0  0  0  0  0  0  0  0  0  0  0  0
   -3.2340   -3.9600   -1.0830 H   0  0  0  0  0  0  0  0  0  0  0  0
   -2.8000   -5.3800   -4.5570 H   0  0  0  0  0  0  0  0  0  0  0  0
  1  7  1  0  0  0  0
  2  1  1  0  0  0  0
  2  9  1  0  0  0  0
  2  8  1  0  0  0  0
  3 10  1  6  0  0  0
  3  4  1  0  0  0  0
  3  2  1  0  0  0  0
  4 11  1  0  0  0  0
  5  3  1  0  0  0  0
  6  5  2  0  0  0  0
 12  4  1  0  0  0  0
 13 25  1  0  0  0  0
 14 13  1  0  0  0  0
 15 14  1  0  0  0  0
 15 26  1  0  0  0  0
 16 27  1  0  0  0  0
 16 15  2  0  0  0  0
 17 23  2  0  0  0  0
 17 16  1  0  0  0  0
 18 17  1  0  0  0  0
 18 19  1  0  0  0  0
 19 30  1  6  0  0  0
 19 21  1  0  0  0  0
 19 20  1  0  0  0  0
 20  5  1  0  0  0  0
 20 31  1  0  0  0  0
 21 22  2  0  0  0  0
 23 24  1  0  0  0  0
 24 33  1  0  0  0  0
 24 14  2  0  0  0  0
 28 18  1  0  0  0  0
 29 18  1  0  0  0  0
 32 23  1  0  0  0  0
 34 35  1  0  0  0  0
 34 21  1  0  0  0  0
 35 45  1  1  0  0  0
 35 40  1  0  0  0  0
 36 46  1  0  0  0  0
 36 35  1  0  0  0  0
 37 49  1  0  0  0  0
 37 36  1  0  0  0  0
 38 39  2  0  0  0  0
 38 37  1  0  0  0  0
 40 41  2  0  0  0  0
 40 43  1  0  0  0  0
 42 38  1  0  0  0  0
 44 34  1  0  0  0  0
 47 36  1  0  0  0  0
 48 37  1  0  0  0  0
 50 42  1  0  0  0  0
M  END
$$$$
