SYF.pdb
 OpenBabel07022419103D

 54 55  0  0  1  0  0  0  0  0999 V2000
    4.4790    1.6200   -0.5900 O   0  0  0  0  0  0  0  0  0  0  0  0
    4.5420    0.2580   -0.4200 C   0  0  0  0  0  0  0  0  0  0  0  0
    3.8330   -0.2140    0.8380 C   0  0  2  0  0  0  0  0  0  0  0  0
    3.9830   -1.6510    0.8790 N   0  0  0  0  0  0  0  0  0  0  0  0
    2.4200    0.2340    0.8580 C   0  0  0  0  0  0  0  0  0  0  0  0
    2.1700    1.4850    0.8380 O   0  0  0  0  0  0  0  0  0  0  0  0
    4.2590    1.8620   -1.5400 H   0  0  0  0  0  0  0  0  0  0  0  0
    4.1090   -0.2570   -1.3130 H   0  0  0  0  0  0  0  0  0  0  0  0
    5.6010   -0.0630   -0.3580 H   0  0  0  0  0  0  0  0  0  0  0  0
    4.3910    0.1940    1.7180 H   0  0  0  0  0  0  0  0  0  0  0  0
    3.5190   -1.9950    1.7450 H   0  0  0  0  0  0  0  0  0  0  0  0
    3.5040   -2.0980    0.0700 H   0  0  0  0  0  0  0  0  0  0  0  0
    0.5000   -1.1560    7.2280 O   0  0  0  0  0  0  0  0  0  0  0  0
    0.3460   -0.6840    5.9340 C   0  0  0  0  0  0  0  0  0  0  0  0
   -0.8280   -0.9910    5.2570 C   0  0  0  0  0  0  0  0  0  0  0  0
   -1.0290   -0.5480    3.9750 C   0  0  0  0  0  0  0  0  0  0  0  0
   -0.0500    0.2240    3.3250 C   0  0  0  0  0  0  0  0  0  0  0  0
   -0.3850    0.6600    1.9410 C   0  0  0  0  0  0  0  0  0  0  0  0
   -0.0120   -0.4140    0.9290 C   0  0  2  0  0  0  0  0  0  0  0  0
    1.3860   -0.7310    0.8990 N   0  0  0  0  0  0  0  0  0  0  0  0
   -0.4980   -0.1440   -0.4190 C   0  0  0  0  0  0  0  0  0  0  0  0
    0.2870   -0.1930   -1.4290 O   0  0  0  0  0  0  0  0  0  0  0  0
    1.1100    0.5360    3.9750 C   0  0  0  0  0  0  0  0  0  0  0  0
    1.2930    0.0740    5.2800 C   0  0  0  0  0  0  0  0  0  0  0  0
   -0.2620   -1.2270    7.8980 H   0  0  0  0  0  0  0  0  0  0  0  0
   -1.5940   -1.5930    5.7620 H   0  0  0  0  0  0  0  0  0  0  0  0
   -1.9640   -0.7980    3.4500 H   0  0  0  0  0  0  0  0  0  0  0  0
   -1.4900    0.8310    1.9100 H   0  0  0  0  0  0  0  0  0  0  0  0
    0.0890    1.6280    1.7710 H   0  0  0  0  0  0  0  0  0  0  0  0
   -0.4970   -1.3430    1.4070 H   0  0  0  0  0  0  0  0  0  0  0  0
    1.6910   -1.7460    0.9040 H   0  0  0  0  0  0  0  0  0  0  0  0
    1.8620    1.1290    3.5020 H   0  0  0  0  0  0  0  0  0  0  0  0
    2.2040    0.3090    5.8130 H   0  0  0  0  0  0  0  0  0  0  0  0
   -1.8500    0.1910   -0.7380 N   0  0  0  0  0  0  0  0  0  0  0  0
   -2.2980    0.4530   -2.0910 C   0  0  1  0  0  0  0  0  0  0  0  0
   -3.3050   -0.6530   -2.4160 C   0  0  0  0  0  0  0  0  0  0  0  0
   -2.6520   -1.9840   -2.3210 C   0  0  0  0  0  0  0  0  0  0  0  0
   -2.6280   -2.7050   -1.1320 C   0  0  0  0  0  0  0  0  0  0  0  0
   -2.0170   -3.9370   -1.0590 C   0  0  0  0  0  0  0  0  0  0  0  0
   -1.4100   -4.4950   -2.1590 C   0  0  0  0  0  0  0  0  0  0  0  0
   -1.4330   -3.7860   -3.3350 C   0  0  0  0  0  0  0  0  0  0  0  0
   -2.0430   -2.5530   -3.4120 C   0  0  0  0  0  0  0  0  0  0  0  0
   -2.9420    1.7680   -2.2430 C   0  0  0  0  0  0  0  0  0  0  0  0
   -3.3610    2.0790   -3.3860 O   0  0  0  0  0  0  0  0  0  0  0  0
   -3.1210    2.6900   -1.2240 O   0  0  0  0  0  0  0  0  0  0  0  0
   -2.5470    0.2500    0.0320 H   0  0  0  0  0  0  0  0  0  0  0  0
   -1.4660    0.3910   -2.8200 H   0  0  0  0  0  0  0  0  0  0  0  0
   -4.1530   -0.6380   -1.7070 H   0  0  0  0  0  0  0  0  0  0  0  0
   -3.7140   -0.4850   -3.4280 H   0  0  0  0  0  0  0  0  0  0  0  0
   -3.1040   -2.2560   -0.2870 H   0  0  0  0  0  0  0  0  0  0  0  0
   -2.0100   -4.4780   -0.1270 H   0  0  0  0  0  0  0  0  0  0  0  0
   -0.9160   -5.4750   -2.1270 H   0  0  0  0  0  0  0  0  0  0  0  0
   -0.9570   -4.2240   -4.2010 H   0  0  0  0  0  0  0  0  0  0  0  0
   -2.0670   -1.9850   -4.3360 H   0  0  0  0  0  0  0  0  0  0  0  0
  1  2  1  0  0  0  0
  2  9  1  0  0  0  0
  2  3  1  0  0  0  0
  3  5  1  0  0  0  0
  3  4  1  0  0  0  0
  3 10  1  1  0  0  0
  4 11  1  0  0  0  0
  5 20  1  0  0  0  0
  6  5  2  0  0  0  0
  7  1  1  0  0  0  0
  8  2  1  0  0  0  0
 12  4  1  0  0  0  0
 13 25  1  0  0  0  0
 14 13  1  0  0  0  0
 15 26  1  0  0  0  0
 15 14  2  0  0  0  0
 16 15  1  0  0  0  0
 17 16  2  0  0  0  0
 17 23  1  0  0  0  0
 18 17  1  0  0  0  0
 19 30  1  1  0  0  0
 19 18  1  0  0  0  0
 20 31  1  0  0  0  0
 20 19  1  0  0  0  0
 21 19  1  0  0  0  0
 22 21  2  0  0  0  0
 23 24  2  0  0  0  0
 24 33  1  0  0  0  0
 24 14  1  0  0  0  0
 27 16  1  0  0  0  0
 28 18  1  0  0  0  0
 29 18  1  0  0  0  0
 32 23  1  0  0  0  0
 34 21  1  0  0  0  0
 34 46  1  0  0  0  0
 35 47  1  6  0  0  0
 35 34  1  0  0  0  0
 36 37  1  0  0  0  0
 36 35  1  0  0  0  0
 36 48  1  0  0  0  0
 37 38  1  0  0  0  0
 38 39  2  0  0  0  0
 38 50  1  0  0  0  0
 39 51  1  0  0  0  0
 40 52  1  0  0  0  0
 40 39  1  0  0  0  0
 41 40  2  0  0  0  0
 42 41  1  0  0  0  0
 42 37  2  0  0  0  0
 43 35  1  0  0  0  0
 43 45  1  0  0  0  0
 44 43  2  0  0  0  0
 49 36  1  0  0  0  0
 53 41  1  0  0  0  0
 54 42  1  0  0  0  0
M  END
$$$$
