SYG.pdb
 OpenBabel07022419103D

 41 41  0  0  1  0  0  0  0  0999 V2000
    3.7490   -2.2130    4.8540 O   0  0  0  0  0  0  0  0  0  0  0  0
    4.5290   -2.3100    3.7070 C   0  0  0  0  0  0  0  0  0  0  0  0
    3.6660   -2.8440    2.5840 C   0  0  2  0  0  0  0  0  0  0  0  0
    4.4110   -2.9720    1.3550 N   0  0  0  0  0  0  0  0  0  0  0  0
    2.4210   -2.0570    2.4180 C   0  0  0  0  0  0  0  0  0  0  0  0
    1.7090   -1.8970    3.4430 O   0  0  0  0  0  0  0  0  0  0  0  0
    3.5950   -3.0920    5.2790 H   0  0  0  0  0  0  0  0  0  0  0  0
    5.3170   -3.0990    3.8800 H   0  0  0  0  0  0  0  0  0  0  0  0
    5.0070   -1.3550    3.4700 H   0  0  0  0  0  0  0  0  0  0  0  0
    3.3550   -3.8710    2.8790 H   0  0  0  0  0  0  0  0  0  0  0  0
    3.7080   -3.2630    0.6160 H   0  0  0  0  0  0  0  0  0  0  0  0
    5.0690   -3.7810    1.4240 H   0  0  0  0  0  0  0  0  0  0  0  0
   -3.6750    3.7930    0.0310 O   0  0  0  0  0  0  0  0  0  0  0  0
   -2.5190    3.0400    0.2260 C   0  0  0  0  0  0  0  0  0  0  0  0
   -1.8420    2.5170   -0.8540 C   0  0  0  0  0  0  0  0  0  0  0  0
   -0.6980    1.7700   -0.6820 C   0  0  0  0  0  0  0  0  0  0  0  0
   -0.1640    1.5030    0.5860 C   0  0  0  0  0  0  0  0  0  0  0  0
    1.0510    0.6980    0.7320 C   0  0  0  0  0  0  0  0  0  0  0  0
    0.7450   -0.7090    1.0920 C   0  0  2  0  0  0  0  0  0  0  0  0
    1.9890   -1.4850    1.2150 N   0  0  0  0  0  0  0  0  0  0  0  0
   -0.0880   -1.3800    0.1000 C   0  0  0  0  0  0  0  0  0  0  0  0
    0.4380   -2.2910   -0.6270 O   0  0  0  0  0  0  0  0  0  0  0  0
   -0.8600    2.0390    1.6520 C   0  0  0  0  0  0  0  0  0  0  0  0
   -2.0070    2.7870    1.4820 C   0  0  0  0  0  0  0  0  0  0  0  0
   -4.5430    3.3850   -0.3060 H   0  0  0  0  0  0  0  0  0  0  0  0
   -2.2640    2.7290   -1.8320 H   0  0  0  0  0  0  0  0  0  0  0  0
   -0.1790    1.3760   -1.5170 H   0  0  0  0  0  0  0  0  0  0  0  0
    1.6190    0.7870   -0.2300 H   0  0  0  0  0  0  0  0  0  0  0  0
    1.6770    1.1770    1.5250 H   0  0  0  0  0  0  0  0  0  0  0  0
    0.2500   -0.6770    2.1050 H   0  0  0  0  0  0  0  0  0  0  0  0
    2.5540   -1.6010    0.3620 H   0  0  0  0  0  0  0  0  0  0  0  0
   -0.4500    1.8360    2.6500 H   0  0  0  0  0  0  0  0  0  0  0  0
   -2.5440    3.2020    2.3240 H   0  0  0  0  0  0  0  0  0  0  0  0
   -1.4500   -1.1290   -0.1450 N   0  0  0  0  0  0  0  0  0  0  0  0
   -2.1840   -1.8600   -1.1560 C   0  0  0  0  0  0  0  0  0  0  0  0
   -1.6220   -1.7120   -2.4930 C   0  0  0  0  0  0  0  0  0  0  0  0
   -0.5950   -1.0290   -2.6950 O   0  0  0  0  0  0  0  0  0  0  0  0
   -2.2350   -2.3380   -3.5640 O   0  0  0  0  0  0  0  0  0  0  0  0
   -1.9480   -0.4170    0.4320 H   0  0  0  0  0  0  0  0  0  0  0  0
   -3.2560   -1.5680   -1.0870 H   0  0  0  0  0  0  0  0  0  0  0  0
   -2.1610   -2.9330   -0.7990 H   0  0  0  0  0  0  0  0  0  0  0  0
  1  7  1  0  0  0  0
  2  8  1  0  0  0  0
  2  1  1  0  0  0  0
  3 10  1  1  0  0  0
  3  2  1  0  0  0  0
  4 12  1  0  0  0  0
  4  3  1  0  0  0  0
  5  3  1  0  0  0  0
  5  6  2  0  0  0  0
  9  2  1  0  0  0  0
 11  4  1  0  0  0  0
 13 14  1  0  0  0  0
 14 24  1  0  0  0  0
 15 16  1  0  0  0  0
 15 14  2  0  0  0  0
 16 17  2  0  0  0  0
 17 18  1  0  0  0  0
 17 23  1  0  0  0  0
 18 19  1  0  0  0  0
 18 29  1  0  0  0  0
 19 20  1  0  0  0  0
 19 30  1  1  0  0  0
 20  5  1  0  0  0  0
 21 19  1  0  0  0  0
 22 21  2  0  0  0  0
 23 32  1  0  0  0  0
 24 23  2  0  0  0  0
 24 33  1  0  0  0  0
 25 13  1  0  0  0  0
 26 15  1  0  0  0  0
 27 16  1  0  0  0  0
 28 18  1  0  0  0  0
 31 20  1  0  0  0  0
 34 21  1  0  0  0  0
 34 39  1  0  0  0  0
 35 40  1  0  0  0  0
 35 41  1  0  0  0  0
 35 34  1  0  0  0  0
 36 35  1  0  0  0  0
 37 36  1  0  0  0  0
 38 36  2  0  0  0  0
M  END
$$$$
