SYH.pdb
 OpenBabel07022419103D

 51 52  0  0  1  0  0  0  0  0999 V2000
    2.5860   -2.8260    0.8380 O   0  0  0  0  0  0  0  0  0  0  0  0
    2.5170   -3.4300    2.0720 C   0  0  0  0  0  0  0  0  0  0  0  0
    2.3030   -2.4590    3.2130 C   0  0  2  0  0  0  0  0  0  0  0  0
    2.2500   -3.2070    4.4580 N   0  0  0  0  0  0  0  0  0  0  0  0
    1.0530   -1.6790    3.0980 C   0  0  0  0  0  0  0  0  0  0  0  0
    0.1650   -1.7890    3.9520 O   0  0  0  0  0  0  0  0  0  0  0  0
    3.1750   -3.2640    0.1940 H   0  0  0  0  0  0  0  0  0  0  0  0
    3.4940   -3.9200    2.2610 H   0  0  0  0  0  0  0  0  0  0  0  0
    1.7410   -4.2180    2.0520 H   0  0  0  0  0  0  0  0  0  0  0  0
    3.2030   -1.8020    3.2370 H   0  0  0  0  0  0  0  0  0  0  0  0
    3.1950   -3.2030    4.8950 H   0  0  0  0  0  0  0  0  0  0  0  0
    1.4960   -2.8610    5.0830 H   0  0  0  0  0  0  0  0  0  0  0  0
    4.1690    2.4420   -2.1150 O   0  0  0  0  0  0  0  0  0  0  0  0
    3.1580    2.2050   -1.1710 C   0  0  0  0  0  0  0  0  0  0  0  0
    3.5200    1.7740    0.0910 C   0  0  0  0  0  0  0  0  0  0  0  0
    2.5680    1.5310    1.0430 C   0  0  0  0  0  0  0  0  0  0  0  0
    1.2100    1.7070    0.7720 C   0  0  0  0  0  0  0  0  0  0  0  0
    0.1950    1.4370    1.8220 C   0  0  0  0  0  0  0  0  0  0  0  0
   -0.2690   -0.0060    1.7790 C   0  0  2  0  0  0  0  0  0  0  0  0
    0.9070   -0.8140    1.9940 N   0  0  0  0  0  0  0  0  0  0  0  0
   -0.8660   -0.3960    0.4870 C   0  0  0  0  0  0  0  0  0  0  0  0
   -0.3070   -1.2790   -0.2010 O   0  0  0  0  0  0  0  0  0  0  0  0
    0.8940    2.1380   -0.4990 C   0  0  0  0  0  0  0  0  0  0  0  0
    1.8290    2.3900   -1.4740 C   0  0  0  0  0  0  0  0  0  0  0  0
    5.0790    2.0460   -2.0090 H   0  0  0  0  0  0  0  0  0  0  0  0
    4.5870    1.6390    0.2930 H   0  0  0  0  0  0  0  0  0  0  0  0
    2.8770    1.1950    2.0230 H   0  0  0  0  0  0  0  0  0  0  0  0
    0.7080    1.5670    2.7970 H   0  0  0  0  0  0  0  0  0  0  0  0
   -0.6320    2.1550    1.7870 H   0  0  0  0  0  0  0  0  0  0  0  0
   -1.0000   -0.2000    2.6160 H   0  0  0  0  0  0  0  0  0  0  0  0
    1.6750   -0.7510    1.3070 H   0  0  0  0  0  0  0  0  0  0  0  0
   -0.1390    2.2780   -0.7220 H   0  0  0  0  0  0  0  0  0  0  0  0
    1.5830    2.7260   -2.4670 H   0  0  0  0  0  0  0  0  0  0  0  0
   -2.0630    0.1730   -0.0490 N   0  0  0  0  0  0  0  0  0  0  0  0
   -2.6380   -0.2090   -1.2990 C   0  0  1  0  0  0  0  0  0  0  0  0
   -3.9370   -0.9850   -1.0240 C   0  0  0  0  0  0  0  0  0  0  0  0
   -3.6420   -2.1970   -0.2170 C   0  0  0  0  0  0  0  0  0  0  0  0
   -3.3290   -3.4460   -0.7100 C   0  0  0  0  0  0  0  0  0  0  0  0
   -3.1220   -4.3050    0.3160 N   0  0  0  0  0  0  0  0  0  0  0  0
   -3.3020   -3.6100    1.4490 C   0  0  0  0  0  0  0  0  0  0  0  0
   -3.6170   -2.3320    1.1260 N   0  0  0  0  0  0  0  0  0  0  0  0
   -2.8660    0.8850   -2.2440 C   0  0  0  0  0  0  0  0  0  0  0  0
   -3.3630    0.6520   -3.3820 O   0  0  0  0  0  0  0  0  0  0  0  0
   -2.5690    2.2120   -1.9780 O   0  0  0  0  0  0  0  0  0  0  0  0
   -2.5270    0.9060    0.5200 H   0  0  0  0  0  0  0  0  0  0  0  0
   -1.9810   -0.9790   -1.7960 H   0  0  0  0  0  0  0  0  0  0  0  0
   -4.3220   -1.2920   -2.0100 H   0  0  0  0  0  0  0  0  0  0  0  0
   -4.6070   -0.3160   -0.4720 H   0  0  0  0  0  0  0  0  0  0  0  0
   -3.2590   -3.6990   -1.7580 H   0  0  0  0  0  0  0  0  0  0  0  0
   -2.8710   -5.3170    0.2910 H   0  0  0  0  0  0  0  0  0  0  0  0
   -3.2200   -3.9670    2.4740 H   0  0  0  0  0  0  0  0  0  0  0  0
  1  2  1  0  0  0  0
  2  8  1  0  0  0  0
  2  3  1  0  0  0  0
  3 10  1  1  0  0  0
  3  4  1  0  0  0  0
  4 11  1  0  0  0  0
  4 12  1  0  0  0  0
  5  3  1  0  0  0  0
  5  6  2  0  0  0  0
  7  1  1  0  0  0  0
  9  2  1  0  0  0  0
 13 25  1  0  0  0  0
 13 14  1  0  0  0  0
 14 15  1  0  0  0  0
 15 26  1  0  0  0  0
 15 16  2  0  0  0  0
 16 27  1  0  0  0  0
 17 16  1  0  0  0  0
 17 18  1  0  0  0  0
 18 28  1  0  0  0  0
 19 18  1  0  0  0  0
 19 20  1  0  0  0  0
 19 30  1  1  0  0  0
 20  5  1  0  0  0  0
 21 19  1  0  0  0  0
 22 21  2  0  0  0  0
 23 17  2  0  0  0  0
 24 14  2  0  0  0  0
 24 23  1  0  0  0  0
 29 18  1  0  0  0  0
 31 20  1  0  0  0  0
 32 23  1  0  0  0  0
 33 24  1  0  0  0  0
 34 21  1  0  0  0  0
 34 45  1  0  0  0  0
 35 46  1  6  0  0  0
 35 36  1  0  0  0  0
 35 34  1  0  0  0  0
 36 48  1  0  0  0  0
 36 37  1  0  0  0  0
 37 41  1  0  0  0  0
 38 37  2  0  0  0  0
 38 39  1  0  0  0  0
 39 40  1  0  0  0  0
 40 51  1  0  0  0  0
 41 40  2  0  0  0  0
 42 44  1  0  0  0  0
 42 35  1  0  0  0  0
 43 42  2  0  0  0  0
 47 36  1  0  0  0  0
 49 38  1  0  0  0  0
 50 39  1  0  0  0  0
M  END
$$$$
