SYK.pdb
 OpenBabel07022419103D

 55 55  0  0  1  0  0  0  0  0999 V2000
    1.5770    4.6990    3.5820 O   0  0  0  0  0  0  0  0  0  0  0  0
    1.1260    3.7410    2.6680 C   0  0  0  0  0  0  0  0  0  0  0  0
    2.1860    2.6570    2.6010 C   0  0  2  0  0  0  0  0  0  0  0  0
    3.4250    3.2700    2.1570 N   0  0  0  0  0  0  0  0  0  0  0  0
    1.8100    1.5910    1.6400 C   0  0  0  0  0  0  0  0  0  0  0  0
    2.5080    1.3260    0.6310 O   0  0  0  0  0  0  0  0  0  0  0  0
    0.8440    5.0130    4.1730 H   0  0  0  0  0  0  0  0  0  0  0  0
    0.1430    3.3370    2.9660 H   0  0  0  0  0  0  0  0  0  0  0  0
    1.0270    4.2500    1.6920 H   0  0  0  0  0  0  0  0  0  0  0  0
    2.3010    2.2450    3.6260 H   0  0  0  0  0  0  0  0  0  0  0  0
    3.4660    3.3240    1.1150 H   0  0  0  0  0  0  0  0  0  0  0  0
    3.5380    4.2390    2.5230 H   0  0  0  0  0  0  0  0  0  0  0  0
    5.4510   -2.6200    3.5440 O   0  0  0  0  0  0  0  0  0  0  0  0
    4.1560   -2.3690    3.0730 C   0  0  0  0  0  0  0  0  0  0  0  0
    3.7360   -2.8010    1.8320 C   0  0  0  0  0  0  0  0  0  0  0  0
    2.4510   -2.5320    1.4060 C   0  0  0  0  0  0  0  0  0  0  0  0
    1.5450   -1.8370    2.1780 C   0  0  0  0  0  0  0  0  0  0  0  0
    0.1660   -1.5460    1.7260 C   0  0  0  0  0  0  0  0  0  0  0  0
    0.1720   -0.2090    0.9940 C   0  0  2  0  0  0  0  0  0  0  0  0
    0.6210    0.8380    1.8600 N   0  0  0  0  0  0  0  0  0  0  0  0
   -1.1800    0.1260    0.4850 C   0  0  0  0  0  0  0  0  0  0  0  0
   -1.7710    1.1900    0.8150 O   0  0  0  0  0  0  0  0  0  0  0  0
    1.9640   -1.4000    3.4290 C   0  0  0  0  0  0  0  0  0  0  0  0
    3.2570   -1.6720    3.8540 C   0  0  0  0  0  0  0  0  0  0  0  0
    5.9090   -2.0120    4.1970 H   0  0  0  0  0  0  0  0  0  0  0  0
    4.4470   -3.3440    1.2310 H   0  0  0  0  0  0  0  0  0  0  0  0
    2.1440   -2.8830    0.4260 H   0  0  0  0  0  0  0  0  0  0  0  0
   -0.5270   -1.4720    2.5770 H   0  0  0  0  0  0  0  0  0  0  0  0
   -0.1730   -2.3470    1.0540 H   0  0  0  0  0  0  0  0  0  0  0  0
    0.8780   -0.3430    0.1390 H   0  0  0  0  0  0  0  0  0  0  0  0
    0.0530    1.0670    2.6980 H   0  0  0  0  0  0  0  0  0  0  0  0
    1.2460   -0.8590    4.0210 H   0  0  0  0  0  0  0  0  0  0  0  0
    3.5570   -1.3200    4.8330 H   0  0  0  0  0  0  0  0  0  0  0  0
   -1.8480   -0.7560   -0.3970 N   0  0  0  0  0  0  0  0  0  0  0  0
   -3.1680   -0.5060   -0.9400 C   0  0  1  0  0  0  0  0  0  0  0  0
   -3.1410   -0.4320   -2.4250 C   0  0  0  0  0  0  0  0  0  0  0  0
   -2.6620   -1.5920   -3.1920 C   0  0  0  0  0  0  0  0  0  0  0  0
   -3.3970   -2.8770   -3.0750 C   0  0  0  0  0  0  0  0  0  0  0  0
   -2.7760   -3.9600   -3.9580 C   0  0  0  0  0  0  0  0  0  0  0  0
   -1.3970   -4.2020   -3.5790 N   0  0  0  0  0  0  0  0  0  0  0  0
   -4.1100   -1.5230   -0.4500 C   0  0  0  0  0  0  0  0  0  0  0  0
   -5.3080   -1.5750   -0.8470 O   0  0  0  0  0  0  0  0  0  0  0  0
   -3.7180   -2.4900    0.4920 O   0  0  0  0  0  0  0  0  0  0  0  0
   -1.3620   -1.6360   -0.6710 H   0  0  0  0  0  0  0  0  0  0  0  0
   -3.5460    0.4960   -0.5350 H   0  0  0  0  0  0  0  0  0  0  0  0
   -4.1450   -0.0780   -2.8200 H   0  0  0  0  0  0  0  0  0  0  0  0
   -2.4740    0.4600   -2.6690 H   0  0  0  0  0  0  0  0  0  0  0  0
   -2.5780   -1.2690   -4.2800 H   0  0  0  0  0  0  0  0  0  0  0  0
   -1.6070   -1.7950   -2.8790 H   0  0  0  0  0  0  0  0  0  0  0  0
   -4.4310   -2.7170   -3.4750 H   0  0  0  0  0  0  0  0  0  0  0  0
   -3.4820   -3.2310   -2.0460 H   0  0  0  0  0  0  0  0  0  0  0  0
   -3.3330   -4.9020   -3.7730 H   0  0  0  0  0  0  0  0  0  0  0  0
   -2.8500   -3.6710   -5.0120 H   0  0  0  0  0  0  0  0  0  0  0  0
   -1.0760   -5.1400   -3.8640 H   0  0  0  0  0  0  0  0  0  0  0  0
   -0.7450   -3.4930   -3.9820 H   0  0  0  0  0  0  0  0  0  0  0  0
  1  7  1  0  0  0  0
  2  8  1  0  0  0  0
  2  1  1  0  0  0  0
  3  2  1  0  0  0  0
  3 10  1  1  0  0  0
  4 12  1  0  0  0  0
  4  3  1  0  0  0  0
  5 20  1  0  0  0  0
  5  3  1  0  0  0  0
  6  5  2  0  0  0  0
  9  2  1  0  0  0  0
 11  4  1  0  0  0  0
 13 25  1  0  0  0  0
 14 13  1  0  0  0  0
 14 24  1  0  0  0  0
 15 14  2  0  0  0  0
 16 15  1  0  0  0  0
 16 17  2  0  0  0  0
 17 23  1  0  0  0  0
 18 17  1  0  0  0  0
 18 28  1  0  0  0  0
 19 30  1  6  0  0  0
 19 18  1  0  0  0  0
 19 20  1  0  0  0  0
 20 31  1  0  0  0  0
 21 22  2  0  0  0  0
 21 19  1  0  0  0  0
 23 24  2  0  0  0  0
 23 32  1  0  0  0  0
 24 33  1  0  0  0  0
 26 15  1  0  0  0  0
 27 16  1  0  0  0  0
 29 18  1  0  0  0  0
 34 21  1  0  0  0  0
 35 45  1  1  0  0  0
 35 41  1  0  0  0  0
 35 34  1  0  0  0  0
 36 35  1  0  0  0  0
 37 38  1  0  0  0  0
 37 49  1  0  0  0  0
 37 36  1  0  0  0  0
 38 51  1  0  0  0  0
 39 52  1  0  0  0  0
 39 40  1  0  0  0  0
 39 38  1  0  0  0  0
 41 43  1  0  0  0  0
 42 41  2  0  0  0  0
 44 34  1  0  0  0  0
 46 36  1  0  0  0  0
 47 36  1  0  0  0  0
 48 37  1  0  0  0  0
 50 38  1  0  0  0  0
 53 39  1  0  0  0  0
 54 40  1  0  0  0  0
 55 40  1  0  0  0  0
M  END
$$$$
