SYM.pdb
 OpenBabel07022419103D

 51 51  0  0  1  0  0  0  0  0999 V2000
    4.8520   -3.1420    1.4890 O   0  0  0  0  0  0  0  0  0  0  0  0
    4.6490   -2.9220    0.1290 C   0  0  0  0  0  0  0  0  0  0  0  0
    3.2280   -3.2660   -0.2400 C   0  0  2  0  0  0  0  0  0  0  0  0
    3.0300   -3.0310   -1.6630 N   0  0  0  0  0  0  0  0  0  0  0  0
    2.2430   -2.4340    0.5260 C   0  0  0  0  0  0  0  0  0  0  0  0
    2.2290   -2.4740    1.7750 O   0  0  0  0  0  0  0  0  0  0  0  0
    4.6320   -2.3400    1.9980 H   0  0  0  0  0  0  0  0  0  0  0  0
    4.8720   -1.8760   -0.1730 H   0  0  0  0  0  0  0  0  0  0  0  0
    5.3080   -3.5820   -0.4410 H   0  0  0  0  0  0  0  0  0  0  0  0
    3.0850   -4.3480    0.0070 H   0  0  0  0  0  0  0  0  0  0  0  0
    2.2840   -3.6470   -2.0310 H   0  0  0  0  0  0  0  0  0  0  0  0
    3.9190   -3.3100   -2.1650 H   0  0  0  0  0  0  0  0  0  0  0  0
    5.8860    1.8800    2.1110 O   0  0  0  0  0  0  0  0  0  0  0  0
    4.5900    1.5850    1.6490 C   0  0  0  0  0  0  0  0  0  0  0  0
    4.4160    1.1240    0.3650 C   0  0  0  0  0  0  0  0  0  0  0  0
    3.1430    0.8400   -0.0740 C   0  0  0  0  0  0  0  0  0  0  0  0
    2.0180    0.9980    0.7260 C   0  0  0  0  0  0  0  0  0  0  0  0
    0.6490    0.6880    0.2400 C   0  0  0  0  0  0  0  0  0  0  0  0
    0.3410   -0.7640    0.5410 C   0  0  2  0  0  0  0  0  0  0  0  0
    1.3140   -1.5900   -0.1410 N   0  0  0  0  0  0  0  0  0  0  0  0
   -1.0070   -1.1510    0.0600 C   0  0  0  0  0  0  0  0  0  0  0  0
   -1.1140   -2.0550   -0.7890 O   0  0  0  0  0  0  0  0  0  0  0  0
    2.2500    1.4660    2.0140 C   0  0  0  0  0  0  0  0  0  0  0  0
    3.5010    1.7620    2.4920 C   0  0  0  0  0  0  0  0  0  0  0  0
    6.5910    2.2170    1.4730 H   0  0  0  0  0  0  0  0  0  0  0  0
    5.2640    0.9820   -0.3060 H   0  0  0  0  0  0  0  0  0  0  0  0
    2.9810    0.4770   -1.0780 H   0  0  0  0  0  0  0  0  0  0  0  0
   -0.0730    1.3560    0.7600 H   0  0  0  0  0  0  0  0  0  0  0  0
    0.6170    0.9100   -0.8460 H   0  0  0  0  0  0  0  0  0  0  0  0
    0.4180   -0.8690    1.6490 H   0  0  0  0  0  0  0  0  0  0  0  0
    1.3460   -1.5730   -1.1820 H   0  0  0  0  0  0  0  0  0  0  0  0
    1.3860    1.5990    2.6610 H   0  0  0  0  0  0  0  0  0  0  0  0
    3.7090    2.1260    3.4860 H   0  0  0  0  0  0  0  0  0  0  0  0
   -7.2440    0.3790    1.9620 C   0  0  0  0  0  0  0  0  0  0  0  0
   -6.8870   -0.8330    0.7270 S   0  0  0  0  0  0  0  0  0  0  0  0
   -5.6110   -1.9990    1.0940 C   0  0  0  0  0  0  0  0  0  0  0  0
   -4.2240   -1.5280    1.2230 C   0  0  0  0  0  0  0  0  0  0  0  0
   -3.5420   -0.9070    0.0590 C   0  0  2  0  0  0  0  0  0  0  0  0
   -2.1940   -0.5530    0.5090 N   0  0  0  0  0  0  0  0  0  0  0  0
   -4.1950    0.1780   -0.6390 C   0  0  0  0  0  0  0  0  0  0  0  0
   -5.3000    0.1930   -1.2210 O   0  0  0  0  0  0  0  0  0  0  0  0
   -3.5550    1.4450   -0.7240 O   0  0  0  0  0  0  0  0  0  0  0  0
   -8.3330    0.6640    2.0170 H   0  0  0  0  0  0  0  0  0  0  0  0
   -6.7010    1.3340    1.6990 H   0  0  0  0  0  0  0  0  0  0  0  0
   -6.9340    0.1380    2.9880 H   0  0  0  0  0  0  0  0  0  0  0  0
   -5.8900   -2.4480    2.1030 H   0  0  0  0  0  0  0  0  0  0  0  0
   -5.6610   -2.9240    0.4370 H   0  0  0  0  0  0  0  0  0  0  0  0
   -4.1910   -0.8040    2.1070 H   0  0  0  0  0  0  0  0  0  0  0  0
   -3.5780   -2.3680    1.6440 H   0  0  0  0  0  0  0  0  0  0  0  0
   -3.3650   -1.7350   -0.6940 H   0  0  0  0  0  0  0  0  0  0  0  0
   -2.1280    0.2040    1.2190 H   0  0  0  0  0  0  0  0  0  0  0  0
  1  7  1  0  0  0  0
  2  1  1  0  0  0  0
  3 10  1  1  0  0  0
  3  2  1  0  0  0  0
  3  5  1  0  0  0  0
  4  3  1  0  0  0  0
  5  6  2  0  0  0  0
  8  2  1  0  0  0  0
  9  2  1  0  0  0  0
 11  4  1  0  0  0  0
 12  4  1  0  0  0  0
 14 13  1  0  0  0  0
 14 24  1  0  0  0  0
 15 14  2  0  0  0  0
 16 15  1  0  0  0  0
 16 17  2  0  0  0  0
 17 23  1  0  0  0  0
 18 19  1  0  0  0  0
 18 17  1  0  0  0  0
 18 28  1  0  0  0  0
 19 30  1  1  0  0  0
 20  5  1  0  0  0  0
 20 19  1  0  0  0  0
 21 39  1  0  0  0  0
 21 19  1  0  0  0  0
 22 21  2  0  0  0  0
 23 24  2  0  0  0  0
 23 32  1  0  0  0  0
 24 33  1  0  0  0  0
 25 13  1  0  0  0  0
 26 15  1  0  0  0  0
 27 16  1  0  0  0  0
 29 18  1  0  0  0  0
 31 20  1  0  0  0  0
 34 43  1  0  0  0  0
 34 45  1  0  0  0  0
 35 36  1  0  0  0  0
 35 34  1  0  0  0  0
 36 37  1  0  0  0  0
 36 46  1  0  0  0  0
 37 49  1  0  0  0  0
 37 48  1  0  0  0  0
 38 50  1  6  0  0  0
 38 39  1  0  0  0  0
 38 37  1  0  0  0  0
 39 51  1  0  0  0  0
 40 38  1  0  0  0  0
 41 40  2  0  0  0  0
 42 40  1  0  0  0  0
 44 34  1  0  0  0  0
 47 36  1  0  0  0  0
M  END
$$$$
