SYP.pdb
 OpenBabel07022419103D

 48 49  0  0  1  0  0  0  0  0999 V2000
    2.3730   -2.5350    3.6890 O   0  0  0  0  0  0  0  0  0  0  0  0
    1.2510   -2.9080    4.4500 C   0  0  0  0  0  0  0  0  0  0  0  0
    0.0350   -2.5510    3.5870 C   0  0  2  0  0  0  0  0  0  0  0  0
    0.1190   -3.2960    2.3470 N   0  0  0  0  0  0  0  0  0  0  0  0
    0.1460   -1.0920    3.2960 C   0  0  0  0  0  0  0  0  0  0  0  0
    0.0890   -0.3170    4.2840 O   0  0  0  0  0  0  0  0  0  0  0  0
    2.6940   -3.3180    3.1900 H   0  0  0  0  0  0  0  0  0  0  0  0
    1.2750   -3.9760    4.6880 H   0  0  0  0  0  0  0  0  0  0  0  0
    1.2670   -2.2550    5.3530 H   0  0  0  0  0  0  0  0  0  0  0  0
   -0.8510   -2.8030    4.1840 H   0  0  0  0  0  0  0  0  0  0  0  0
    1.0640   -3.1730    1.9520 H   0  0  0  0  0  0  0  0  0  0  0  0
   -0.1720   -4.2650    2.5080 H   0  0  0  0  0  0  0  0  0  0  0  0
    3.1400   -1.8110   -3.4850 O   0  0  0  0  0  0  0  0  0  0  0  0
    2.8180   -1.1130   -2.3350 C   0  0  0  0  0  0  0  0  0  0  0  0
    2.2310    0.1220   -2.4530 C   0  0  0  0  0  0  0  0  0  0  0  0
    1.9010    0.8370   -1.3040 C   0  0  0  0  0  0  0  0  0  0  0  0
    2.1480    0.3350   -0.0430 C   0  0  0  0  0  0  0  0  0  0  0  0
    1.8120    1.0640    1.1870 C   0  0  0  0  0  0  0  0  0  0  0  0
    0.4100    0.7540    1.6870 C   0  0  2  0  0  0  0  0  0  0  0  0
    0.3050   -0.6360    1.9600 N   0  0  0  0  0  0  0  0  0  0  0  0
   -0.6300    1.3730    0.8710 C   0  0  0  0  0  0  0  0  0  0  0  0
   -0.4530    2.6330    0.5890 O   0  0  0  0  0  0  0  0  0  0  0  0
    2.7390   -0.9100    0.0300 C   0  0  0  0  0  0  0  0  0  0  0  0
    3.0770   -1.6400   -1.0900 C   0  0  0  0  0  0  0  0  0  0  0  0
    3.3520   -1.3600   -4.3630 H   0  0  0  0  0  0  0  0  0  0  0  0
    2.0340    0.5230   -3.4450 H   0  0  0  0  0  0  0  0  0  0  0  0
    1.4440    1.7990   -1.4240 H   0  0  0  0  0  0  0  0  0  0  0  0
    1.9490    2.1500    1.0240 H   0  0  0  0  0  0  0  0  0  0  0  0
    2.5370    0.7570    1.9720 H   0  0  0  0  0  0  0  0  0  0  0  0
    0.3680    1.2910    2.6880 H   0  0  0  0  0  0  0  0  0  0  0  0
    0.3510   -1.3950    1.2190 H   0  0  0  0  0  0  0  0  0  0  0  0
    2.9470   -1.3310    0.9880 H   0  0  0  0  0  0  0  0  0  0  0  0
    3.5470   -2.6280   -0.9810 H   0  0  0  0  0  0  0  0  0  0  0  0
   -1.8030    0.8230    0.3340 N   0  0  0  0  0  0  0  0  0  0  0  0
   -2.7480    1.5390   -0.4980 C   0  0  0  0  0  0  0  0  0  0  0  0
   -4.0550    1.1120    0.1360 C   0  0  0  0  0  0  0  0  0  0  0  0
   -3.8350   -0.2810    0.6220 C   0  0  0  0  0  0  0  0  0  0  0  0
   -2.3250   -0.4940    0.4760 C   0  0  1  0  0  0  0  0  0  0  0  0
   -2.0630   -1.2460   -0.7830 C   0  0  0  0  0  0  0  0  0  0  0  0
   -2.4450   -2.4360   -0.9330 O   0  0  0  0  0  0  0  0  0  0  0  0
   -1.3900   -0.6580   -1.8280 O   0  0  0  0  0  0  0  0  0  0  0  0
   -2.6840    2.6370   -0.3560 H   0  0  0  0  0  0  0  0  0  0  0  0
   -2.6850    1.2520   -1.5590 H   0  0  0  0  0  0  0  0  0  0  0  0
   -4.9050    1.1950   -0.5800 H   0  0  0  0  0  0  0  0  0  0  0  0
   -4.2680    1.7600    1.0210 H   0  0  0  0  0  0  0  0  0  0  0  0
   -4.3940   -1.0260   -0.0120 H   0  0  0  0  0  0  0  0  0  0  0  0
   -4.0920   -0.4340    1.6800 H   0  0  0  0  0  0  0  0  0  0  0  0
   -1.9480   -1.0530    1.3620 H   0  0  0  0  0  0  0  0  0  0  0  0
  1  2  1  0  0  0  0
  2  8  1  0  0  0  0
  2  9  1  0  0  0  0
  3 10  1  1  0  0  0
  3  2  1  0  0  0  0
  4 12  1  0  0  0  0
  4  3  1  0  0  0  0
  5  3  1  0  0  0  0
  5  6  2  0  0  0  0
  7  1  1  0  0  0  0
 11  4  1  0  0  0  0
 13 14  1  0  0  0  0
 14 24  1  0  0  0  0
 15 14  2  0  0  0  0
 15 16  1  0  0  0  0
 16 17  2  0  0  0  0
 17 23  1  0  0  0  0
 17 18  1  0  0  0  0
 18 19  1  0  0  0  0
 18 29  1  0  0  0  0
 19 20  1  0  0  0  0
 19 30  1  1  0  0  0
 20  5  1  0  0  0  0
 21 19  1  0  0  0  0
 22 21  2  0  0  0  0
 23 32  1  0  0  0  0
 24 33  1  0  0  0  0
 24 23  2  0  0  0  0
 25 13  1  0  0  0  0
 26 15  1  0  0  0  0
 27 16  1  0  0  0  0
 28 18  1  0  0  0  0
 31 20  1  0  0  0  0
 34 38  1  0  0  0  0
 34 21  1  0  0  0  0
 35 42  1  0  0  0  0
 35 36  1  0  0  0  0
 35 34  1  0  0  0  0
 36 37  1  0  0  0  0
 36 45  1  0  0  0  0
 37 47  1  0  0  0  0
 38 37  1  0  0  0  0
 38 48  1  1  0  0  0
 39 38  1  0  0  0  0
 40 39  1  0  0  0  0
 41 39  2  0  0  0  0
 43 35  1  0  0  0  0
 44 36  1  0  0  0  0
 46 37  1  0  0  0  0
M  END
$$$$
