SYQ.pdb
 OpenBabel07022419103D

 51 51  0  0  1  0  0  0  0  0999 V2000
    3.8440    1.2890    3.2600 O   0  0  0  0  0  0  0  0  0  0  0  0
    2.8860    1.6600    4.1700 C   0  0  0  0  0  0  0  0  0  0  0  0
    1.7730    0.6460    4.3320 C   0  0  2  0  0  0  0  0  0  0  0  0
    2.3220   -0.5800    4.7700 N   0  0  0  0  0  0  0  0  0  0  0  0
    1.0160    0.5860    3.0750 C   0  0  0  0  0  0  0  0  0  0  0  0
    0.5060    1.6390    2.6110 O   0  0  0  0  0  0  0  0  0  0  0  0
    4.0470    1.9550    2.5800 H   0  0  0  0  0  0  0  0  0  0  0  0
    3.3330    1.9450    5.1490 H   0  0  0  0  0  0  0  0  0  0  0  0
    2.3940    2.5890    3.7720 H   0  0  0  0  0  0  0  0  0  0  0  0
    1.1350    1.0470    5.1750 H   0  0  0  0  0  0  0  0  0  0  0  0
    1.6660   -1.3040    5.0800 H   0  0  0  0  0  0  0  0  0  0  0  0
    3.2070   -0.5250    5.2910 H   0  0  0  0  0  0  0  0  0  0  0  0
    5.5790    1.9900   -0.8280 O   0  0  0  0  0  0  0  0  0  0  0  0
    4.4330    1.2150   -0.6230 C   0  0  0  0  0  0  0  0  0  0  0  0
    3.2660    1.4890   -1.3230 C   0  0  0  0  0  0  0  0  0  0  0  0
    2.1550    0.7120   -1.1020 C   0  0  0  0  0  0  0  0  0  0  0  0
    2.1740   -0.3240   -0.2090 C   0  0  0  0  0  0  0  0  0  0  0  0
    0.9690   -1.1310   -0.0050 C   0  0  0  0  0  0  0  0  0  0  0  0
    0.0510   -0.6110    1.0810 C   0  0  2  0  0  0  0  0  0  0  0  0
    0.8070   -0.6050    2.3150 N   0  0  0  0  0  0  0  0  0  0  0  0
   -1.0890   -1.5710    1.1380 C   0  0  0  0  0  0  0  0  0  0  0  0
   -1.2310   -2.2160    2.2030 O   0  0  0  0  0  0  0  0  0  0  0  0
    3.3420   -0.5760    0.4730 C   0  0  0  0  0  0  0  0  0  0  0  0
    4.4740    0.1820    0.2760 C   0  0  0  0  0  0  0  0  0  0  0  0
    6.5150    1.5590   -0.8420 H   0  0  0  0  0  0  0  0  0  0  0  0
    3.2930    2.3150   -2.0190 H   0  0  0  0  0  0  0  0  0  0  0  0
    1.2570    0.9250   -1.6430 H   0  0  0  0  0  0  0  0  0  0  0  0
    1.2870   -2.1580    0.3430 H   0  0  0  0  0  0  0  0  0  0  0  0
    0.4160   -1.3210   -0.9510 H   0  0  0  0  0  0  0  0  0  0  0  0
   -0.3060    0.4060    0.8130 H   0  0  0  0  0  0  0  0  0  0  0  0
    1.2120   -1.4740    2.6710 H   0  0  0  0  0  0  0  0  0  0  0  0
    3.4190   -1.3890    1.1980 H   0  0  0  0  0  0  0  0  0  0  0  0
    5.4130   -0.0070    0.8130 H   0  0  0  0  0  0  0  0  0  0  0  0
   -4.9660   -0.7790   -3.5550 N   0  0  0  0  0  0  0  0  0  0  0  0
   -4.7660   -1.7300   -2.4790 C   0  0  0  0  0  0  0  0  0  0  0  0
   -4.6160   -2.8950   -2.8520 O   0  0  0  0  0  0  0  0  0  0  0  0
   -4.7660   -1.2280   -1.1370 C   0  0  0  0  0  0  0  0  0  0  0  0
   -4.4310   -2.0820    0.0130 C   0  0  0  0  0  0  0  0  0  0  0  0
   -3.1020   -2.7060    0.1070 C   0  0  2  0  0  0  0  0  0  0  0  0
   -1.9920   -1.7850    0.0810 N   0  0  0  0  0  0  0  0  0  0  0  0
   -2.9320   -3.8200   -0.8180 C   0  0  0  0  0  0  0  0  0  0  0  0
   -1.9980   -3.9380   -1.6560 O   0  0  0  0  0  0  0  0  0  0  0  0
   -3.9050   -4.8430   -0.7450 O   0  0  0  0  0  0  0  0  0  0  0  0
   -4.3090   -0.8360   -4.3770 H   0  0  0  0  0  0  0  0  0  0  0  0
   -5.7260   -0.0940   -3.4830 H   0  0  0  0  0  0  0  0  0  0  0  0
   -5.7550   -0.6810   -0.9180 H   0  0  0  0  0  0  0  0  0  0  0  0
   -4.0480   -0.3280   -1.0780 H   0  0  0  0  0  0  0  0  0  0  0  0
   -4.7530   -1.5700    0.9680 H   0  0  0  0  0  0  0  0  0  0  0  0
   -5.1680   -2.9540   -0.0180 H   0  0  0  0  0  0  0  0  0  0  0  0
   -3.1120   -3.2290    1.1460 H   0  0  0  0  0  0  0  0  0  0  0  0
   -1.8390   -1.2290   -0.7860 H   0  0  0  0  0  0  0  0  0  0  0  0
  1  2  1  0  0  0  0
  2  3  1  0  0  0  0
  2  8  1  0  0  0  0
  3  4  1  0  0  0  0
  3 10  1  1  0  0  0
  4 11  1  0  0  0  0
  4 12  1  0  0  0  0
  5  3  1  0  0  0  0
  6  5  2  0  0  0  0
  7  1  1  0  0  0  0
  9  2  1  0  0  0  0
 13 14  1  0  0  0  0
 14 24  1  0  0  0  0
 15 16  1  0  0  0  0
 15 14  2  0  0  0  0
 16 17  2  0  0  0  0
 17 18  1  0  0  0  0
 17 23  1  0  0  0  0
 18 28  1  0  0  0  0
 18 19  1  0  0  0  0
 19 30  1  6  0  0  0
 19 21  1  0  0  0  0
 19 20  1  0  0  0  0
 20 31  1  0  0  0  0
 20  5  1  0  0  0  0
 21 22  2  0  0  0  0
 23 32  1  0  0  0  0
 24 23  2  0  0  0  0
 24 33  1  0  0  0  0
 25 13  1  0  0  0  0
 26 15  1  0  0  0  0
 27 16  1  0  0  0  0
 29 18  1  0  0  0  0
 34 45  1  0  0  0  0
 34 35  1  0  0  0  0
 35 37  1  0  0  0  0
 36 35  2  0  0  0  0
 37 47  1  0  0  0  0
 37 46  1  0  0  0  0
 37 38  1  0  0  0  0
 38 39  1  0  0  0  0
 38 48  1  0  0  0  0
 39 50  1  1  0  0  0
 40 39  1  0  0  0  0
 40 21  1  0  0  0  0
 41 43  1  0  0  0  0
 41 39  1  0  0  0  0
 42 41  2  0  0  0  0
 44 34  1  0  0  0  0
 49 38  1  0  0  0  0
 51 40  1  0  0  0  0
M  END
$$$$
