SYS.pdb
 OpenBabel07022419103D

 45 45  0  0  1  0  0  0  0  0999 V2000
    5.1210   -2.4620    1.4160 O   0  0  0  0  0  0  0  0  0  0  0  0
    5.1090   -2.2270    2.7970 C   0  0  0  0  0  0  0  0  0  0  0  0
    3.6670   -2.4400    3.2780 C   0  0  2  0  0  0  0  0  0  0  0  0
    3.2590   -3.7900    2.9890 N   0  0  0  0  0  0  0  0  0  0  0  0
    2.8460   -1.4310    2.5610 C   0  0  0  0  0  0  0  0  0  0  0  0
    3.1300   -0.2230    2.7530 O   0  0  0  0  0  0  0  0  0  0  0  0
    5.6230   -1.7700    0.9180 H   0  0  0  0  0  0  0  0  0  0  0  0
    5.3910   -1.1620    2.9310 H   0  0  0  0  0  0  0  0  0  0  0  0
    5.8240   -2.8400    3.3450 H   0  0  0  0  0  0  0  0  0  0  0  0
    3.6870   -2.2960    4.3660 H   0  0  0  0  0  0  0  0  0  0  0  0
    3.0860   -3.9900    2.0030 H   0  0  0  0  0  0  0  0  0  0  0  0
    2.6200   -4.2050    3.6710 H   0  0  0  0  0  0  0  0  0  0  0  0
   -1.8630    2.3730   -4.0000 O   0  0  0  0  0  0  0  0  0  0  0  0
   -1.1070    1.5850   -3.1280 C   0  0  0  0  0  0  0  0  0  0  0  0
   -1.5220    0.3240   -2.7640 C   0  0  0  0  0  0  0  0  0  0  0  0
   -0.7550   -0.4290   -1.9030 C   0  0  0  0  0  0  0  0  0  0  0  0
    0.4420    0.0150   -1.3650 C   0  0  0  0  0  0  0  0  0  0  0  0
    1.1680   -0.8560   -0.4720 C   0  0  0  0  0  0  0  0  0  0  0  0
    0.9710   -0.7450    0.9810 C   0  0  2  0  0  0  0  0  0  0  0  0
    1.7930   -1.7260    1.6980 N   0  0  0  0  0  0  0  0  0  0  0  0
   -0.3700   -0.8110    1.5260 C   0  0  0  0  0  0  0  0  0  0  0  0
   -0.6790   -1.7270    2.3770 O   0  0  0  0  0  0  0  0  0  0  0  0
    0.8370    1.2850   -1.7470 C   0  0  0  0  0  0  0  0  0  0  0  0
    0.0840    2.0400   -2.6000 C   0  0  0  0  0  0  0  0  0  0  0  0
   -2.8770    2.4220   -3.8890 H   0  0  0  0  0  0  0  0  0  0  0  0
   -2.4600   -0.0320   -3.1820 H   0  0  0  0  0  0  0  0  0  0  0  0
   -1.1610   -1.4240   -1.6650 H   0  0  0  0  0  0  0  0  0  0  0  0
    2.2670   -0.6250   -0.6550 H   0  0  0  0  0  0  0  0  0  0  0  0
    0.9710   -1.9210   -0.7980 H   0  0  0  0  0  0  0  0  0  0  0  0
    1.4120    0.2440    1.3110 H   0  0  0  0  0  0  0  0  0  0  0  0
    1.5460   -2.7220    1.5290 H   0  0  0  0  0  0  0  0  0  0  0  0
    1.7480    1.6720   -1.3620 H   0  0  0  0  0  0  0  0  0  0  0  0
    0.3930    3.0460   -2.9050 H   0  0  0  0  0  0  0  0  0  0  0  0
   -2.3300    1.3560    3.7120 O   0  0  0  0  0  0  0  0  0  0  0  0
   -3.1620    1.1260    2.6380 C   0  0  0  0  0  0  0  0  0  0  0  0
   -2.7590   -0.0580    1.8010 C   0  0  2  0  0  0  0  0  0  0  0  0
   -1.4490    0.0530    1.2320 N   0  0  0  0  0  0  0  0  0  0  0  0
   -3.8380   -0.3080    0.8240 C   0  0  0  0  0  0  0  0  0  0  0  0
   -3.6260   -0.4130   -0.4020 O   0  0  0  0  0  0  0  0  0  0  0  0
   -5.1360   -0.4300    1.2820 O   0  0  0  0  0  0  0  0  0  0  0  0
   -1.6680    0.6540    3.8680 H   0  0  0  0  0  0  0  0  0  0  0  0
   -4.1730    0.8850    3.0550 H   0  0  0  0  0  0  0  0  0  0  0  0
   -3.3260    2.0410    2.0140 H   0  0  0  0  0  0  0  0  0  0  0  0
   -2.7420   -0.9400    2.4960 H   0  0  0  0  0  0  0  0  0  0  0  0
   -1.2760    0.8300    0.5670 H   0  0  0  0  0  0  0  0  0  0  0  0
  1  2  1  0  0  0  0
  2  8  1  0  0  0  0
  2  3  1  0  0  0  0
  2  9  1  0  0  0  0
  3 10  1  1  0  0  0
  4  3  1  0  0  0  0
  4 12  1  0  0  0  0
  5  6  2  0  0  0  0
  5  3  1  0  0  0  0
  7  1  1  0  0  0  0
 11  4  1  0  0  0  0
 13 25  1  0  0  0  0
 13 14  1  0  0  0  0
 14 15  2  0  0  0  0
 14 24  1  0  0  0  0
 15 16  1  0  0  0  0
 16 27  1  0  0  0  0
 16 17  2  0  0  0  0
 17 18  1  0  0  0  0
 18 19  1  0  0  0  0
 19 30  1  1  0  0  0
 19 21  1  0  0  0  0
 19 20  1  0  0  0  0
 20  5  1  0  0  0  0
 21 22  2  0  0  0  0
 23 17  1  0  0  0  0
 23 32  1  0  0  0  0
 24 23  2  0  0  0  0
 26 15  1  0  0  0  0
 28 18  1  0  0  0  0
 29 18  1  0  0  0  0
 31 20  1  0  0  0  0
 33 24  1  0  0  0  0
 34 41  1  0  0  0  0
 35 42  1  0  0  0  0
 35 34  1  0  0  0  0
 36 44  1  1  0  0  0
 36 35  1  0  0  0  0
 37 21  1  0  0  0  0
 37 36  1  0  0  0  0
 38 40  1  0  0  0  0
 38 36  1  0  0  0  0
 39 38  2  0  0  0  0
 43 35  1  0  0  0  0
 45 37  1  0  0  0  0
M  END
$$$$
