SYT.pdb
 OpenBabel07022419103D

 48 48  0  0  1  0  0  0  0  0999 V2000
    3.5060   -3.0520    5.4650 O   0  0  0  0  0  0  0  0  0  0  0  0
    3.0000   -1.9600    4.7800 C   0  0  0  0  0  0  0  0  0  0  0  0
    1.5440   -2.1940    4.3560 C   0  0  2  0  0  0  0  0  0  0  0  0
    1.5330   -3.3590    3.4980 N   0  0  0  0  0  0  0  0  0  0  0  0
    1.1520   -0.9960    3.5540 C   0  0  0  0  0  0  0  0  0  0  0  0
    1.1030    0.1340    4.1390 O   0  0  0  0  0  0  0  0  0  0  0  0
    3.6960   -3.7590    4.8050 H   0  0  0  0  0  0  0  0  0  0  0  0
    3.6010   -1.7240    3.8780 H   0  0  0  0  0  0  0  0  0  0  0  0
    3.0440   -1.0380    5.4140 H   0  0  0  0  0  0  0  0  0  0  0  0
    0.8850   -2.2870    5.2200 H   0  0  0  0  0  0  0  0  0  0  0  0
    2.4820   -3.5320    3.1140 H   0  0  0  0  0  0  0  0  0  0  0  0
    1.1300   -4.1990    3.9730 H   0  0  0  0  0  0  0  0  0  0  0  0
    2.4230   -3.7800   -3.4660 O   0  0  0  0  0  0  0  0  0  0  0  0
    2.1840   -2.7560   -2.5350 C   0  0  0  0  0  0  0  0  0  0  0  0
    1.2100   -1.8000   -2.7410 C   0  0  0  0  0  0  0  0  0  0  0  0
    1.0010   -0.7970   -1.7920 C   0  0  0  0  0  0  0  0  0  0  0  0
    1.7530   -0.7360   -0.6390 C   0  0  0  0  0  0  0  0  0  0  0  0
    1.4820    0.3370    0.3090 C   0  0  0  0  0  0  0  0  0  0  0  0
    0.4610    0.0160    1.3620 C   0  0  2  0  0  0  0  0  0  0  0  0
    0.8430   -1.1180    2.1720 N   0  0  0  0  0  0  0  0  0  0  0  0
   -0.9200   -0.0820    0.8950 C   0  0  0  0  0  0  0  0  0  0  0  0
   -1.5870   -1.0990    1.1850 O   0  0  0  0  0  0  0  0  0  0  0  0
    2.7290   -1.7080   -0.4500 C   0  0  0  0  0  0  0  0  0  0  0  0
    2.9470   -2.7070   -1.3810 C   0  0  0  0  0  0  0  0  0  0  0  0
    2.6000   -3.5430   -4.4150 H   0  0  0  0  0  0  0  0  0  0  0  0
    0.6310   -1.8610   -3.6470 H   0  0  0  0  0  0  0  0  0  0  0  0
    0.2230   -0.0860   -2.0250 H   0  0  0  0  0  0  0  0  0  0  0  0
    2.4100    0.6370    0.8270 H   0  0  0  0  0  0  0  0  0  0  0  0
    1.1250    1.2270   -0.2480 H   0  0  0  0  0  0  0  0  0  0  0  0
    0.4770    0.9110    2.0570 H   0  0  0  0  0  0  0  0  0  0  0  0
    0.9040   -2.0710    1.7570 H   0  0  0  0  0  0  0  0  0  0  0  0
    3.3310   -1.6860    0.4400 H   0  0  0  0  0  0  0  0  0  0  0  0
    3.7080   -3.4400   -1.2020 H   0  0  0  0  0  0  0  0  0  0  0  0
   -5.1590    1.7970    0.1200 C   0  0  0  0  0  0  0  0  0  0  0  0
   -3.6960    1.8760    0.4220 C   0  0  1  0  0  0  0  0  0  0  0  0
   -3.5070    1.6490    1.7850 O   0  0  0  0  0  0  0  0  0  0  0  0
   -2.9070    0.7640   -0.2920 C   0  0  2  0  0  0  0  0  0  0  0  0
   -1.5310    0.9340    0.1290 N   0  0  0  0  0  0  0  0  0  0  0  0
   -3.1080    1.0190   -1.7370 C   0  0  0  0  0  0  0  0  0  0  0  0
   -4.2270    0.9060   -2.2890 O   0  0  0  0  0  0  0  0  0  0  0  0
   -2.0130    1.3980   -2.4960 O   0  0  0  0  0  0  0  0  0  0  0  0
   -5.4480    2.2730   -0.8400 H   0  0  0  0  0  0  0  0  0  0  0  0
   -5.5270    0.7530    0.0950 H   0  0  0  0  0  0  0  0  0  0  0  0
   -5.6920    2.3700    0.9170 H   0  0  0  0  0  0  0  0  0  0  0  0
   -3.2610    2.8320    0.1280 H   0  0  0  0  0  0  0  0  0  0  0  0
   -3.6010    2.4900    2.3130 H   0  0  0  0  0  0  0  0  0  0  0  0
   -3.3120   -0.2280   -0.0110 H   0  0  0  0  0  0  0  0  0  0  0  0
   -1.0490    1.8120   -0.1600 H   0  0  0  0  0  0  0  0  0  0  0  0
  2  9  1  0  0  0  0
  2  1  1  0  0  0  0
  3  2  1  0  0  0  0
  3 10  1  1  0  0  0
  4 12  1  0  0  0  0
  4  3  1  0  0  0  0
  5  6  2  0  0  0  0
  5  3  1  0  0  0  0
  7  1  1  0  0  0  0
  8  2  1  0  0  0  0
 11  4  1  0  0  0  0
 13 14  1  0  0  0  0
 14 24  1  0  0  0  0
 15 14  2  0  0  0  0
 15 16  1  0  0  0  0
 16 17  2  0  0  0  0
 17 23  1  0  0  0  0
 17 18  1  0  0  0  0
 18 28  1  0  0  0  0
 18 19  1  0  0  0  0
 19 30  1  1  0  0  0
 19 20  1  0  0  0  0
 20  5  1  0  0  0  0
 21 22  2  0  0  0  0
 21 19  1  0  0  0  0
 23 32  1  0  0  0  0
 24 33  1  0  0  0  0
 24 23  2  0  0  0  0
 25 13  1  0  0  0  0
 26 15  1  0  0  0  0
 27 16  1  0  0  0  0
 29 18  1  0  0  0  0
 31 20  1  0  0  0  0
 34 35  1  0  0  0  0
 34 44  1  0  0  0  0
 35 45  1  6  0  0  0
 35 36  1  0  0  0  0
 36 46  1  0  0  0  0
 37 47  1  1  0  0  0
 37 38  1  0  0  0  0
 37 35  1  0  0  0  0
 38 21  1  0  0  0  0
 39 37  1  0  0  0  0
 40 39  1  0  0  0  0
 41 39  2  0  0  0  0
 42 34  1  0  0  0  0
 43 34  1  0  0  0  0
 48 38  1  0  0  0  0
M  END
$$$$
