SYW.pdb
 OpenBabel07022419103D

 58 60  0  0  1  0  0  0  0  0999 V2000
    0.2220    2.6910    6.7450 O   0  0  0  0  0  0  0  0  0  0  0  0
    0.4440    3.0690    5.4280 C   0  0  0  0  0  0  0  0  0  0  0  0
   -0.3640    2.1710    4.4850 C   0  0  2  0  0  0  0  0  0  0  0  0
    0.0800    0.8080    4.6990 N   0  0  0  0  0  0  0  0  0  0  0  0
   -0.1390    2.5950    3.0800 C   0  0  0  0  0  0  0  0  0  0  0  0
   -0.4310    3.7170    2.6370 O   0  0  0  0  0  0  0  0  0  0  0  0
    0.7790    1.9220    7.0210 H   0  0  0  0  0  0  0  0  0  0  0  0
    0.0790    4.1030    5.2640 H   0  0  0  0  0  0  0  0  0  0  0  0
    1.5190    2.9890    5.2340 H   0  0  0  0  0  0  0  0  0  0  0  0
   -1.4270    2.2420    4.7480 H   0  0  0  0  0  0  0  0  0  0  0  0
    1.1060    0.6970    4.5440 H   0  0  0  0  0  0  0  0  0  0  0  0
   -0.4750    0.1080    4.1970 H   0  0  0  0  0  0  0  0  0  0  0  0
    4.5240   -3.2600    1.1710 O   0  0  0  0  0  0  0  0  0  0  0  0
    3.9570   -2.0100    1.0250 C   0  0  0  0  0  0  0  0  0  0  0  0
    3.3680   -1.6970   -0.1800 C   0  0  0  0  0  0  0  0  0  0  0  0
    2.8040   -0.4430   -0.3150 C   0  0  0  0  0  0  0  0  0  0  0  0
    2.7920    0.5130    0.6760 C   0  0  0  0  0  0  0  0  0  0  0  0
    2.1630    1.8110    0.4370 C   0  0  0  0  0  0  0  0  0  0  0  0
    0.7250    1.9220    0.8060 C   0  0  2  0  0  0  0  0  0  0  0  0
    0.4430    1.6690    2.1890 N   0  0  0  0  0  0  0  0  0  0  0  0
   -0.0750    1.0270   -0.0630 C   0  0  0  0  0  0  0  0  0  0  0  0
   -0.0200    1.0880   -1.3270 O   0  0  0  0  0  0  0  0  0  0  0  0
    3.3940    0.1560    1.8670 C   0  0  0  0  0  0  0  0  0  0  0  0
    3.9670   -1.0830    2.0400 C   0  0  0  0  0  0  0  0  0  0  0  0
    5.3450   -3.5740    0.6710 H   0  0  0  0  0  0  0  0  0  0  0  0
    3.3380   -2.4000   -1.0110 H   0  0  0  0  0  0  0  0  0  0  0  0
    2.3510   -0.2410   -1.2970 H   0  0  0  0  0  0  0  0  0  0  0  0
    2.8030    2.5980    0.8920 H   0  0  0  0  0  0  0  0  0  0  0  0
    2.2260    2.0120   -0.6720 H   0  0  0  0  0  0  0  0  0  0  0  0
    0.4120    2.9700    0.5200 H   0  0  0  0  0  0  0  0  0  0  0  0
    0.7000    0.7050    2.5450 H   0  0  0  0  0  0  0  0  0  0  0  0
    3.4170    0.8480    2.6680 H   0  0  0  0  0  0  0  0  0  0  0  0
    4.4430   -1.3740    2.9750 H   0  0  0  0  0  0  0  0  0  0  0  0
   -0.9650    0.0300    0.4460 N   0  0  0  0  0  0  0  0  0  0  0  0
   -1.7360   -0.8350   -0.4370 C   0  0  1  0  0  0  0  0  0  0  0  0
   -1.1900   -2.2450   -0.2410 C   0  0  0  0  0  0  0  0  0  0  0  0
   -1.8790   -3.2380   -1.0780 C   0  0  0  0  0  0  0  0  0  0  0  0
   -2.8260   -4.1630   -0.6950 C   0  0  0  0  0  0  0  0  0  0  0  0
   -3.1820   -4.8620   -1.7760 N   0  0  0  0  0  0  0  0  0  0  0  0
   -2.4960   -4.4210   -2.8500 C   0  0  0  0  0  0  0  0  0  0  0  0
   -2.4990   -4.8050   -4.1750 C   0  0  0  0  0  0  0  0  0  0  0  0
   -1.6620   -4.1410   -5.0450 C   0  0  0  0  0  0  0  0  0  0  0  0
   -0.8320   -3.1200   -4.6470 C   0  0  0  0  0  0  0  0  0  0  0  0
   -0.8260   -2.7330   -3.3240 C   0  0  0  0  0  0  0  0  0  0  0  0
   -1.6740   -3.4040   -2.4350 C   0  0  0  0  0  0  0  0  0  0  0  0
   -3.1740   -0.7460   -0.1890 C   0  0  0  0  0  0  0  0  0  0  0  0
   -3.6350    0.0070    0.6970 O   0  0  0  0  0  0  0  0  0  0  0  0
   -4.0570   -1.5020   -0.9370 O   0  0  0  0  0  0  0  0  0  0  0  0
   -1.0590   -0.0760    1.4770 H   0  0  0  0  0  0  0  0  0  0  0  0
   -1.5230   -0.5920   -1.5100 H   0  0  0  0  0  0  0  0  0  0  0  0
   -0.1080   -2.1980   -0.5490 H   0  0  0  0  0  0  0  0  0  0  0  0
   -1.1870   -2.4920    0.8290 H   0  0  0  0  0  0  0  0  0  0  0  0
   -3.1850   -4.2590    0.3350 H   0  0  0  0  0  0  0  0  0  0  0  0
   -3.8980   -5.6340   -1.7450 H   0  0  0  0  0  0  0  0  0  0  0  0
   -3.1440   -5.6060   -4.5140 H   0  0  0  0  0  0  0  0  0  0  0  0
   -1.6360   -4.4130   -6.0940 H   0  0  0  0  0  0  0  0  0  0  0  0
   -0.1670   -2.5930   -5.3420 H   0  0  0  0  0  0  0  0  0  0  0  0
   -0.1900   -1.9400   -2.9800 H   0  0  0  0  0  0  0  0  0  0  0  0
  1  7  1  0  0  0  0
  2  1  1  0  0  0  0
  3  4  1  0  0  0  0
  3 10  1  1  0  0  0
  3  2  1  0  0  0  0
  5  3  1  0  0  0  0
  6  5  2  0  0  0  0
  8  2  1  0  0  0  0
  9  2  1  0  0  0  0
 11  4  1  0  0  0  0
 12  4  1  0  0  0  0
 14 13  1  0  0  0  0
 14 24  1  0  0  0  0
 15 14  2  0  0  0  0
 16 15  1  0  0  0  0
 16 17  2  0  0  0  0
 17 23  1  0  0  0  0
 18 17  1  0  0  0  0
 18 19  1  0  0  0  0
 18 28  1  0  0  0  0
 19 30  1  6  0  0  0
 19 20  1  0  0  0  0
 20 31  1  0  0  0  0
 20  5  1  0  0  0  0
 21 34  1  0  0  0  0
 21 19  1  0  0  0  0
 22 21  2  0  0  0  0
 23 24  2  0  0  0  0
 23 32  1  0  0  0  0
 24 33  1  0  0  0  0
 25 13  1  0  0  0  0
 26 15  1  0  0  0  0
 27 16  1  0  0  0  0
 29 18  1  0  0  0  0
 34 49  1  0  0  0  0
 35 50  1  6  0  0  0
 35 36  1  0  0  0  0
 35 46  1  0  0  0  0
 35 34  1  0  0  0  0
 36 52  1  0  0  0  0
 37 38  2  0  0  0  0
 37 36  1  0  0  0  0
 38 53  1  0  0  0  0
 39 54  1  0  0  0  0
 39 38  1  0  0  0  0
 40 45  1  0  0  0  0
 40 39  1  0  0  0  0
 41 40  2  0  0  0  0
 42 43  2  0  0  0  0
 42 41  1  0  0  0  0
 43 44  1  0  0  0  0
 44 58  1  0  0  0  0
 44 45  2  0  0  0  0
 45 37  1  0  0  0  0
 46 47  1  0  0  0  0
 48 46  2  0  0  0  0
 51 36  1  0  0  0  0
 55 41  1  0  0  0  0
 56 42  1  0  0  0  0
 57 43  1  0  0  0  0
M  END
$$$$
