TAC.pdb
 OpenBabel07022419113D

 37 36  0  0  1  0  0  0  0  0999 V2000
   -2.5110   -4.4490   -0.3180 C   0  0  0  0  0  0  0  0  0  0  0  0
   -1.3400   -4.6400    0.5960 C   0  0  1  0  0  0  0  0  0  0  0  0
   -0.9040   -5.9620    0.6080 O   0  0  0  0  0  0  0  0  0  0  0  0
   -0.1460   -3.7800    0.2020 C   0  0  2  0  0  0  0  0  0  0  0  0
    0.8750   -4.0180    1.2230 N   0  0  0  0  0  0  0  0  0  0  0  0
   -0.5350   -2.3260    0.2360 C   0  0  0  0  0  0  0  0  0  0  0  0
   -1.4010   -1.8670   -0.5500 O   0  0  0  0  0  0  0  0  0  0  0  0
   -3.2300   -3.7270    0.1280 H   0  0  0  0  0  0  0  0  0  0  0  0
   -3.0250   -5.4400   -0.4170 H   0  0  0  0  0  0  0  0  0  0  0  0
   -2.2480   -4.0860   -1.3230 H   0  0  0  0  0  0  0  0  0  0  0  0
   -1.6500   -4.3380    1.6170 H   0  0  0  0  0  0  0  0  0  0  0  0
   -0.4590   -6.1280    1.4730 H   0  0  0  0  0  0  0  0  0  0  0  0
    0.2600   -4.0470   -0.7740 H   0  0  0  0  0  0  0  0  0  0  0  0
    1.6670   -3.3610    1.0100 H   0  0  0  0  0  0  0  0  0  0  0  0
    1.2400   -4.9780    1.1650 H   0  0  0  0  0  0  0  0  0  0  0  0
   -0.9280    0.4250    2.4620 C   0  0  0  0  0  0  0  0  0  0  0  0
   -0.3400   -0.0370    1.1570 C   0  0  2  0  0  0  0  0  0  0  0  0
    0.0430   -1.4090    1.1420 N   0  0  0  0  0  0  0  0  0  0  0  0
    0.8490    0.7780    0.8300 C   0  0  0  0  0  0  0  0  0  0  0  0
    1.9690    0.2520    0.5930 O   0  0  0  0  0  0  0  0  0  0  0  0
   -0.4050   -0.1000    3.2950 H   0  0  0  0  0  0  0  0  0  0  0  0
   -2.0170    0.3550    2.5110 H   0  0  0  0  0  0  0  0  0  0  0  0
   -0.6740    1.5020    2.5670 H   0  0  0  0  0  0  0  0  0  0  0  0
   -1.1120    0.1310    0.3800 H   0  0  0  0  0  0  0  0  0  0  0  0
    0.7690   -1.7210    1.8240 H   0  0  0  0  0  0  0  0  0  0  0  0
    0.8060    2.2020    0.7620 N   0  0  0  0  0  0  0  0  0  0  0  0
    1.9590    3.0050    0.4440 C   0  0  1  0  0  0  0  0  0  0  0  0
    1.7150    3.8540   -0.7920 C   0  0  0  0  0  0  0  0  0  0  0  0
    1.3530    2.7900   -2.2160 S   0  0  0  0  0  0  0  0  0  0  0  0
    2.2460    3.9300    1.5710 C   0  0  0  0  0  0  0  0  0  0  0  0
    3.2030    4.7450    1.5540 O   0  0  0  0  0  0  0  0  0  0  0  0
    1.4410    3.9150    2.7020 O   0  0  0  0  0  0  0  0  0  0  0  0
   -0.1050    2.6600    0.9520 H   0  0  0  0  0  0  0  0  0  0  0  0
    2.8620    2.4230    0.2610 H   0  0  0  0  0  0  0  0  0  0  0  0
    0.9240    4.5900   -0.6520 H   0  0  0  0  0  0  0  0  0  0  0  0
    2.6610    4.4010   -0.9840 H   0  0  0  0  0  0  0  0  0  0  0  0
    2.4020    1.8750   -2.4080 H   0  0  0  0  0  0  0  0  0  0  0  0
  1  8  1  0  0  0  0
  1  2  1  0  0  0  0
  2  3  1  0  0  0  0
  2 11  1  1  0  0  0
  3 12  1  0  0  0  0
  4 13  1  6  0  0  0
  4  6  1  0  0  0  0
  4  2  1  0  0  0  0
  4  5  1  0  0  0  0
  6 18  1  0  0  0  0
  7  6  2  0  0  0  0
  9  1  1  0  0  0  0
 10  1  1  0  0  0  0
 14  5  1  0  0  0  0
 15  5  1  0  0  0  0
 16 22  1  0  0  0  0
 16 23  1  0  0  0  0
 16 21  1  0  0  0  0
 17 24  1  6  0  0  0
 17 16  1  0  0  0  0
 18 17  1  0  0  0  0
 18 25  1  0  0  0  0
 19 17  1  0  0  0  0
 20 19  2  0  0  0  0
 26 19  1  0  0  0  0
 26 33  1  0  0  0  0
 27 34  1  6  0  0  0
 27 26  1  0  0  0  0
 27 30  1  0  0  0  0
 28 35  1  0  0  0  0
 28 27  1  0  0  0  0
 29 28  1  0  0  0  0
 30 32  1  0  0  0  0
 31 30  2  0  0  0  0
 36 28  1  0  0  0  0
 37 29  1  0  0  0  0
M  END
$$$$
