TAD.pdb
 OpenBabel07022419103D

 39 38  0  0  1  0  0  0  0  0999 V2000
   -0.5930   -3.7130    2.7270 C   0  0  0  0  0  0  0  0  0  0  0  0
   -0.9230   -4.1600    1.3210 C   0  0  1  0  0  0  0  0  0  0  0  0
   -1.8860   -3.3270    0.8120 O   0  0  0  0  0  0  0  0  0  0  0  0
    0.3270   -4.2360    0.4690 C   0  0  2  0  0  0  0  0  0  0  0  0
    1.2300   -5.1410    1.1500 N   0  0  0  0  0  0  0  0  0  0  0  0
    0.9860   -2.9390    0.3090 C   0  0  0  0  0  0  0  0  0  0  0  0
    2.1550   -2.7700    0.7750 O   0  0  0  0  0  0  0  0  0  0  0  0
   -0.0930   -2.7090    2.7260 H   0  0  0  0  0  0  0  0  0  0  0  0
   -1.5590   -3.6750    3.2850 H   0  0  0  0  0  0  0  0  0  0  0  0
    0.0240   -4.4700    3.2630 H   0  0  0  0  0  0  0  0  0  0  0  0
   -1.3050   -5.2190    1.4130 H   0  0  0  0  0  0  0  0  0  0  0  0
   -2.8060   -3.5910    0.9960 H   0  0  0  0  0  0  0  0  0  0  0  0
    0.0890   -4.6980   -0.5200 H   0  0  0  0  0  0  0  0  0  0  0  0
    1.9780   -5.3780    0.4300 H   0  0  0  0  0  0  0  0  0  0  0  0
    1.7390   -4.5750    1.8670 H   0  0  0  0  0  0  0  0  0  0  0  0
    1.1550   -0.2520   -1.9800 C   0  0  0  0  0  0  0  0  0  0  0  0
    0.9640   -0.6180   -0.5190 C   0  0  2  0  0  0  0  0  0  0  0  0
    0.3010   -1.8890   -0.3700 N   0  0  0  0  0  0  0  0  0  0  0  0
    0.1290    0.4790    0.0700 C   0  0  0  0  0  0  0  0  0  0  0  0
   -0.9680    0.1680    0.5800 O   0  0  0  0  0  0  0  0  0  0  0  0
    0.9940    0.8330   -2.1400 H   0  0  0  0  0  0  0  0  0  0  0  0
    2.1990   -0.5250   -2.2560 H   0  0  0  0  0  0  0  0  0  0  0  0
    0.4410   -0.8840   -2.5470 H   0  0  0  0  0  0  0  0  0  0  0  0
    1.9490   -0.6790   -0.0180 H   0  0  0  0  0  0  0  0  0  0  0  0
   -0.6660   -2.0790   -0.7390 H   0  0  0  0  0  0  0  0  0  0  0  0
    0.5290    1.8230    0.0670 N   0  0  0  0  0  0  0  0  0  0  0  0
   -0.2300    2.9190    0.6160 C   0  0  1  0  0  0  0  0  0  0  0  0
    0.4980    3.5990    1.7560 C   0  0  0  0  0  0  0  0  0  0  0  0
    0.7450    2.6200    2.8410 C   0  0  0  0  0  0  0  0  0  0  0  0
   -0.1660    2.2520    3.6210 O   0  0  0  0  0  0  0  0  0  0  0  0
   -0.4810    3.9240   -0.4340 C   0  0  0  0  0  0  0  0  0  0  0  0
   -0.0600    3.7640   -1.5990 O   0  0  0  0  0  0  0  0  0  0  0  0
    2.0070    2.0890    3.0120 O   0  0  0  0  0  0  0  0  0  0  0  0
   -1.1960    5.0880   -0.1690 O   0  0  0  0  0  0  0  0  0  0  0  0
    1.4550    2.0470   -0.3680 H   0  0  0  0  0  0  0  0  0  0  0  0
   -1.2000    2.5690    1.0420 H   0  0  0  0  0  0  0  0  0  0  0  0
   -0.1200    4.4160    2.1770 H   0  0  0  0  0  0  0  0  0  0  0  0
    1.4660    4.0250    1.4380 H   0  0  0  0  0  0  0  0  0  0  0  0
    2.1510    1.1330    3.3090 H   0  0  0  0  0  0  0  0  0  0  0  0
  1 10  1  0  0  0  0
  1  9  1  0  0  0  0
  2 11  1  1  0  0  0
  2  1  1  0  0  0  0
  3 12  1  0  0  0  0
  3  2  1  0  0  0  0
  4 13  1  6  0  0  0
  4  5  1  0  0  0  0
  4  2  1  0  0  0  0
  5 15  1  0  0  0  0
  6  4  1  0  0  0  0
  6  7  2  0  0  0  0
  8  1  1  0  0  0  0
 14  5  1  0  0  0  0
 16 17  1  0  0  0  0
 17 18  1  0  0  0  0
 17 24  1  1  0  0  0
 17 19  1  0  0  0  0
 18  6  1  0  0  0  0
 19 20  2  0  0  0  0
 21 16  1  0  0  0  0
 22 16  1  0  0  0  0
 23 16  1  0  0  0  0
 25 18  1  0  0  0  0
 26 19  1  0  0  0  0
 26 27  1  0  0  0  0
 27 36  1  1  0  0  0
 27 28  1  0  0  0  0
 28 37  1  0  0  0  0
 28 29  1  0  0  0  0
 29 33  1  0  0  0  0
 29 30  2  0  0  0  0
 31 34  1  0  0  0  0
 31 27  1  0  0  0  0
 32 31  2  0  0  0  0
 33 39  1  0  0  0  0
 35 26  1  0  0  0  0
 38 28  1  0  0  0  0
M  END
$$$$
