TAF.pdb
 OpenBabel07022419113D

 46 46  0  0  1  0  0  0  0  0999 V2000
   -1.2910   -3.7380   -0.1470 C   0  0  0  0  0  0  0  0  0  0  0  0
   -0.2170   -2.6780   -0.0530 C   0  0  1  0  0  0  0  0  0  0  0  0
    0.5790   -2.9820    1.0590 O   0  0  0  0  0  0  0  0  0  0  0  0
    0.6370   -2.6550   -1.3060 C   0  0  2  0  0  0  0  0  0  0  0  0
    1.2170   -3.9920   -1.4290 N   0  0  0  0  0  0  0  0  0  0  0  0
    1.6770   -1.6160   -1.2500 C   0  0  0  0  0  0  0  0  0  0  0  0
    2.9250   -1.8820   -1.2980 O   0  0  0  0  0  0  0  0  0  0  0  0
   -1.4860   -4.1190    0.8710 H   0  0  0  0  0  0  0  0  0  0  0  0
   -1.0050   -4.5840   -0.8060 H   0  0  0  0  0  0  0  0  0  0  0  0
   -2.2410   -3.2590   -0.4820 H   0  0  0  0  0  0  0  0  0  0  0  0
   -0.6990   -1.7220    0.1560 H   0  0  0  0  0  0  0  0  0  0  0  0
   -0.0460   -2.9300    1.8460 H   0  0  0  0  0  0  0  0  0  0  0  0
   -0.0650   -2.5390   -2.1590 H   0  0  0  0  0  0  0  0  0  0  0  0
    0.6280   -4.5970   -2.0710 H   0  0  0  0  0  0  0  0  0  0  0  0
    1.2150   -4.4980   -0.5120 H   0  0  0  0  0  0  0  0  0  0  0  0
    2.2020    1.7500   -2.2360 C   0  0  0  0  0  0  0  0  0  0  0  0
    2.2860    0.8230   -1.0780 C   0  0  2  0  0  0  0  0  0  0  0  0
    1.3220   -0.2650   -1.1390 N   0  0  0  0  0  0  0  0  0  0  0  0
    2.1900    1.4430    0.2410 C   0  0  0  0  0  0  0  0  0  0  0  0
    2.9520    2.4030    0.5030 O   0  0  0  0  0  0  0  0  0  0  0  0
    3.2220    2.1010   -2.5210 H   0  0  0  0  0  0  0  0  0  0  0  0
    1.7830    1.2610   -3.1430 H   0  0  0  0  0  0  0  0  0  0  0  0
    1.5940    2.6520   -2.0710 H   0  0  0  0  0  0  0  0  0  0  0  0
    3.3010    0.3260   -1.1290 H   0  0  0  0  0  0  0  0  0  0  0  0
    0.2900   -0.0330   -1.0980 H   0  0  0  0  0  0  0  0  0  0  0  0
    1.2820    1.0020    1.2090 N   0  0  0  0  0  0  0  0  0  0  0  0
    1.1310    1.5640    2.5320 C   0  0  1  0  0  0  0  0  0  0  0  0
   -0.2650    2.0940    2.6930 C   0  0  0  0  0  0  0  0  0  0  0  0
   -1.3200    1.0940    2.5350 C   0  0  0  0  0  0  0  0  0  0  0  0
   -1.8900    0.8280    1.3130 C   0  0  0  0  0  0  0  0  0  0  0  0
   -2.8950   -0.1220    1.1600 C   0  0  0  0  0  0  0  0  0  0  0  0
   -3.3450   -0.8280    2.2580 C   0  0  0  0  0  0  0  0  0  0  0  0
   -2.7810   -0.5680    3.4780 C   0  0  0  0  0  0  0  0  0  0  0  0
   -1.7730    0.3870    3.6240 C   0  0  0  0  0  0  0  0  0  0  0  0
    1.3930    0.5690    3.5960 C   0  0  0  0  0  0  0  0  0  0  0  0
    1.7090   -0.6290    3.3200 O   0  0  0  0  0  0  0  0  0  0  0  0
    1.3090    0.8810    4.9440 O   0  0  0  0  0  0  0  0  0  0  0  0
    0.6700    0.1970    0.9340 H   0  0  0  0  0  0  0  0  0  0  0  0
    1.8640    2.3720    2.6280 H   0  0  0  0  0  0  0  0  0  0  0  0
   -0.4420    2.9740    2.0170 H   0  0  0  0  0  0  0  0  0  0  0  0
   -0.3370    2.4980    3.7440 H   0  0  0  0  0  0  0  0  0  0  0  0
   -1.5710    1.3500    0.4460 H   0  0  0  0  0  0  0  0  0  0  0  0
   -3.3430   -0.3320    0.2020 H   0  0  0  0  0  0  0  0  0  0  0  0
   -4.1380   -1.5830    2.1560 H   0  0  0  0  0  0  0  0  0  0  0  0
   -3.1310   -1.1190    4.3370 H   0  0  0  0  0  0  0  0  0  0  0  0
   -1.3970    0.5150    4.6290 H   0  0  0  0  0  0  0  0  0  0  0  0
  1  2  1  0  0  0  0
  1  8  1  0  0  0  0
  2 11  1  1  0  0  0
  2  3  1  0  0  0  0
  3 12  1  0  0  0  0
  4 13  1  6  0  0  0
  4  6  1  0  0  0  0
  4  2  1  0  0  0  0
  5  4  1  0  0  0  0
  5 15  1  0  0  0  0
  6 18  1  0  0  0  0
  7  6  2  0  0  0  0
  9  1  1  0  0  0  0
 10  1  1  0  0  0  0
 14  5  1  0  0  0  0
 16 23  1  0  0  0  0
 16 17  1  0  0  0  0
 17 24  1  6  0  0  0
 17 19  1  0  0  0  0
 18 25  1  0  0  0  0
 18 17  1  0  0  0  0
 19 20  2  0  0  0  0
 19 26  1  0  0  0  0
 21 16  1  0  0  0  0
 22 16  1  0  0  0  0
 26 27  1  0  0  0  0
 27 39  1  1  0  0  0
 27 28  1  0  0  0  0
 27 35  1  0  0  0  0
 28 41  1  0  0  0  0
 29 28  1  0  0  0  0
 29 34  1  0  0  0  0
 30 29  2  0  0  0  0
 31 30  1  0  0  0  0
 31 32  2  0  0  0  0
 32 33  1  0  0  0  0
 33 34  2  0  0  0  0
 33 45  1  0  0  0  0
 34 46  1  0  0  0  0
 35 37  1  0  0  0  0
 36 35  2  0  0  0  0
 38 26  1  0  0  0  0
 40 28  1  0  0  0  0
 42 30  1  0  0  0  0
 43 31  1  0  0  0  0
 44 32  1  0  0  0  0
M  END
$$$$
