TAG.pdb
 OpenBabel07022419113D

 33 32  0  0  1  0  0  0  0  0999 V2000
    0.1020   -2.5280    2.7270 C   0  0  0  0  0  0  0  0  0  0  0  0
    1.3180   -3.1640    2.0930 C   0  0  1  0  0  0  0  0  0  0  0  0
    1.3850   -4.4530    2.6900 O   0  0  0  0  0  0  0  0  0  0  0  0
    1.1700   -3.3420    0.5960 C   0  0  2  0  0  0  0  0  0  0  0  0
    2.3360   -4.1050    0.0990 N   0  0  0  0  0  0  0  0  0  0  0  0
    1.0110   -2.1010   -0.1610 C   0  0  0  0  0  0  0  0  0  0  0  0
    1.9740   -1.7500   -0.9410 O   0  0  0  0  0  0  0  0  0  0  0  0
   -0.7970   -2.9880    2.2520 H   0  0  0  0  0  0  0  0  0  0  0  0
    0.0810   -2.7260    3.8330 H   0  0  0  0  0  0  0  0  0  0  0  0
    0.0700   -1.4270    2.6070 H   0  0  0  0  0  0  0  0  0  0  0  0
    2.2340   -2.6490    2.3870 H   0  0  0  0  0  0  0  0  0  0  0  0
    1.5630   -4.2660    3.6650 H   0  0  0  0  0  0  0  0  0  0  0  0
    0.2940   -3.9820    0.4230 H   0  0  0  0  0  0  0  0  0  0  0  0
    2.2200   -5.1070    0.4220 H   0  0  0  0  0  0  0  0  0  0  0  0
    3.1900   -3.7410    0.5950 H   0  0  0  0  0  0  0  0  0  0  0  0
   -1.2550   -0.1310   -1.9240 C   0  0  0  0  0  0  0  0  0  0  0  0
   -0.0920   -0.0020   -0.9680 C   0  0  2  0  0  0  0  0  0  0  0  0
   -0.0910   -1.2230   -0.1420 N   0  0  0  0  0  0  0  0  0  0  0  0
   -0.3020    1.1780   -0.0890 C   0  0  0  0  0  0  0  0  0  0  0  0
   -0.4440    1.0320    1.1550 O   0  0  0  0  0  0  0  0  0  0  0  0
   -1.0500    0.3410   -2.9050 H   0  0  0  0  0  0  0  0  0  0  0  0
   -2.1390    0.3100   -1.4130 H   0  0  0  0  0  0  0  0  0  0  0  0
   -1.4780   -1.2060   -2.1180 H   0  0  0  0  0  0  0  0  0  0  0  0
    0.8420    0.0560   -1.5270 H   0  0  0  0  0  0  0  0  0  0  0  0
   -0.9000   -1.4640    0.4600 H   0  0  0  0  0  0  0  0  0  0  0  0
   -0.3500    2.4990   -0.6120 N   0  0  0  0  0  0  0  0  0  0  0  0
   -0.5540    3.6480    0.2480 C   0  0  0  0  0  0  0  0  0  0  0  0
   -1.8630    3.5410    0.9700 C   0  0  0  0  0  0  0  0  0  0  0  0
   -2.5830    2.5320    0.7580 O   0  0  0  0  0  0  0  0  0  0  0  0
   -2.2930    4.5090    1.8490 O   0  0  0  0  0  0  0  0  0  0  0  0
   -0.2280    2.6010   -1.6620 H   0  0  0  0  0  0  0  0  0  0  0  0
   -0.6210    4.5500   -0.3900 H   0  0  0  0  0  0  0  0  0  0  0  0
    0.2770    3.7050    0.9650 H   0  0  0  0  0  0  0  0  0  0  0  0
  1  9  1  0  0  0  0
  2 11  1  1  0  0  0
  2  3  1  0  0  0  0
  2  1  1  0  0  0  0
  3 12  1  0  0  0  0
  4 13  1  6  0  0  0
  4  2  1  0  0  0  0
  5 14  1  0  0  0  0
  5 15  1  0  0  0  0
  5  4  1  0  0  0  0
  6 18  1  0  0  0  0
  6  4  1  0  0  0  0
  7  6  2  0  0  0  0
  8  1  1  0  0  0  0
 10  1  1  0  0  0  0
 16 22  1  0  0  0  0
 16 17  1  0  0  0  0
 17 24  1  6  0  0  0
 17 18  1  0  0  0  0
 17 19  1  0  0  0  0
 18 25  1  0  0  0  0
 19 20  2  0  0  0  0
 21 16  1  0  0  0  0
 23 16  1  0  0  0  0
 26 19  1  0  0  0  0
 26 27  1  0  0  0  0
 27 33  1  0  0  0  0
 27 28  1  0  0  0  0
 28 30  1  0  0  0  0
 29 28  2  0  0  0  0
 31 26  1  0  0  0  0
 32 27  1  0  0  0  0
M  END
$$$$
