TAI.pdb
 OpenBabel07022419113D

 45 44  0  0  1  0  0  0  0  0999 V2000
    0.8630   -5.0480    1.3250 C   0  0  0  0  0  0  0  0  0  0  0  0
    0.2370   -3.6590    1.2310 C   0  0  1  0  0  0  0  0  0  0  0  0
   -0.3030   -3.5230   -0.0350 O   0  0  0  0  0  0  0  0  0  0  0  0
   -0.9240   -3.6450    2.2130 C   0  0  2  0  0  0  0  0  0  0  0  0
   -1.7840   -4.7690    1.8680 N   0  0  0  0  0  0  0  0  0  0  0  0
   -1.7320   -2.4000    2.0700 C   0  0  0  0  0  0  0  0  0  0  0  0
   -2.9550   -2.4460    1.7010 O   0  0  0  0  0  0  0  0  0  0  0  0
    1.0230   -5.2410    2.4050 H   0  0  0  0  0  0  0  0  0  0  0  0
    0.2470   -5.8090    0.8310 H   0  0  0  0  0  0  0  0  0  0  0  0
    1.8750   -4.9660    0.8640 H   0  0  0  0  0  0  0  0  0  0  0  0
    0.9680   -2.8700    1.4070 H   0  0  0  0  0  0  0  0  0  0  0  0
    0.2300   -2.8790   -0.5860 H   0  0  0  0  0  0  0  0  0  0  0  0
   -0.5810   -3.7900    3.2570 H   0  0  0  0  0  0  0  0  0  0  0  0
   -1.3900   -5.6580    2.2850 H   0  0  0  0  0  0  0  0  0  0  0  0
   -2.6870   -4.6120    2.4070 H   0  0  0  0  0  0  0  0  0  0  0  0
   -2.1920    0.7300    3.5140 C   0  0  0  0  0  0  0  0  0  0  0  0
   -2.0540    0.0790    2.1690 C   0  0  2  0  0  0  0  0  0  0  0  0
   -1.2220   -1.1060    2.3240 N   0  0  0  0  0  0  0  0  0  0  0  0
   -1.4740    0.9560    1.1510 C   0  0  0  0  0  0  0  0  0  0  0  0
   -2.0530    2.0350    0.8700 O   0  0  0  0  0  0  0  0  0  0  0  0
   -3.2000    0.5430    3.9360 H   0  0  0  0  0  0  0  0  0  0  0  0
   -2.1080    1.8470    3.4030 H   0  0  0  0  0  0  0  0  0  0  0  0
   -1.4380    0.4300    4.2410 H   0  0  0  0  0  0  0  0  0  0  0  0
   -3.0750   -0.2250    1.8300 H   0  0  0  0  0  0  0  0  0  0  0  0
   -0.2270   -0.9970    2.6290 H   0  0  0  0  0  0  0  0  0  0  0  0
    3.1950    2.4620   -1.8380 C   0  0  0  0  0  0  0  0  0  0  0  0
    2.3310    3.0520   -0.7810 C   0  0  0  0  0  0  0  0  0  0  0  0
    1.5150    2.1110    0.0280 C   0  0  2  0  0  0  0  0  0  0  0  0
    2.4280    1.1170    0.7190 C   0  0  0  0  0  0  0  0  0  0  0  0
    0.2840    1.5490   -0.5650 C   0  0  2  0  0  0  0  0  0  0  0  0
   -0.2930    0.6590    0.4600 N   0  0  0  0  0  0  0  0  0  0  0  0
    0.3630    0.8960   -1.8590 C   0  0  0  0  0  0  0  0  0  0  0  0
    0.7400    1.4700   -2.9050 O   0  0  0  0  0  0  0  0  0  0  0  0
    0.0160   -0.4610   -2.0500 O   0  0  0  0  0  0  0  0  0  0  0  0
    4.2800    2.7410   -1.6270 H   0  0  0  0  0  0  0  0  0  0  0  0
    3.2090    1.3640   -1.8400 H   0  0  0  0  0  0  0  0  0  0  0  0
    2.9970    2.9390   -2.8180 H   0  0  0  0  0  0  0  0  0  0  0  0
    1.6690    3.8610   -1.1880 H   0  0  0  0  0  0  0  0  0  0  0  0
    2.9900    3.6110   -0.0470 H   0  0  0  0  0  0  0  0  0  0  0  0
    1.1680    2.7690    0.9200 H   0  0  0  0  0  0  0  0  0  0  0  0
    2.8860    0.3970    0.0370 H   0  0  0  0  0  0  0  0  0  0  0  0
    3.2320    1.6720    1.2830 H   0  0  0  0  0  0  0  0  0  0  0  0
    1.8920    0.5400    1.5030 H   0  0  0  0  0  0  0  0  0  0  0  0
   -0.4550    2.4100   -0.6230 H   0  0  0  0  0  0  0  0  0  0  0  0
    0.2060   -0.2260    0.6690 H   0  0  0  0  0  0  0  0  0  0  0  0
  1  8  1  0  0  0  0
  2  1  1  0  0  0  0
  2 11  1  1  0  0  0
  2  4  1  0  0  0  0
  3  2  1  0  0  0  0
  4 13  1  1  0  0  0
  5  4  1  0  0  0  0
  5 14  1  0  0  0  0
  5 15  1  0  0  0  0
  6  4  1  0  0  0  0
  6 18  1  0  0  0  0
  7  6  2  0  0  0  0
  9  1  1  0  0  0  0
 10  1  1  0  0  0  0
 12  3  1  0  0  0  0
 16 21  1  0  0  0  0
 16 23  1  0  0  0  0
 17 24  1  6  0  0  0
 17 18  1  0  0  0  0
 17 16  1  0  0  0  0
 18 25  1  0  0  0  0
 19 17  1  0  0  0  0
 20 19  2  0  0  0  0
 22 16  1  0  0  0  0
 26 35  1  0  0  0  0
 26 27  1  0  0  0  0
 27 39  1  0  0  0  0
 27 28  1  0  0  0  0
 28 29  1  0  0  0  0
 28 40  1  1  0  0  0
 29 42  1  0  0  0  0
 29 43  1  0  0  0  0
 30 44  1  6  0  0  0
 30 28  1  0  0  0  0
 30 31  1  0  0  0  0
 31 45  1  0  0  0  0
 31 19  1  0  0  0  0
 32 30  1  0  0  0  0
 33 32  2  0  0  0  0
 34 32  1  0  0  0  0
 36 26  1  0  0  0  0
 37 26  1  0  0  0  0
 38 27  1  0  0  0  0
 41 29  1  0  0  0  0
M  END
$$$$
