TAK.pdb
 OpenBabel07022419113D

 47 46  0  0  1  0  0  0  0  0999 V2000
    1.4420   -4.2260   -0.7030 C   0  0  0  0  0  0  0  0  0  0  0  0
    2.1730   -3.4230   -1.7670 C   0  0  1  0  0  0  0  0  0  0  0  0
    1.3300   -2.5700   -2.4410 O   0  0  0  0  0  0  0  0  0  0  0  0
    3.3320   -2.7200   -1.0950 C   0  0  2  0  0  0  0  0  0  0  0  0
    4.1140   -3.7710   -0.4350 N   0  0  0  0  0  0  0  0  0  0  0  0
    2.8750   -1.7100   -0.1030 C   0  0  0  0  0  0  0  0  0  0  0  0
    3.1390   -1.7780    1.1240 O   0  0  0  0  0  0  0  0  0  0  0  0
    0.3880   -4.4150   -0.9960 H   0  0  0  0  0  0  0  0  0  0  0  0
    1.9500   -5.1990   -0.5590 H   0  0  0  0  0  0  0  0  0  0  0  0
    1.4370   -3.7040    0.2750 H   0  0  0  0  0  0  0  0  0  0  0  0
    2.6160   -4.1660   -2.4620 H   0  0  0  0  0  0  0  0  0  0  0  0
    0.9320   -3.0260   -3.2490 H   0  0  0  0  0  0  0  0  0  0  0  0
    3.9620   -2.1920   -1.8350 H   0  0  0  0  0  0  0  0  0  0  0  0
    4.3360   -4.4690   -1.1820 H   0  0  0  0  0  0  0  0  0  0  0  0
    4.9990   -3.3860   -0.0410 H   0  0  0  0  0  0  0  0  0  0  0  0
    2.3620    1.6790    0.0370 C   0  0  0  0  0  0  0  0  0  0  0  0
    1.6510    0.3790    0.3880 C   0  0  2  0  0  0  0  0  0  0  0  0
    2.1080   -0.6170   -0.5470 N   0  0  0  0  0  0  0  0  0  0  0  0
    0.1760    0.5460    0.3480 C   0  0  0  0  0  0  0  0  0  0  0  0
   -0.4650   -0.1640   -0.4550 O   0  0  0  0  0  0  0  0  0  0  0  0
    1.7970    2.5460    0.4380 H   0  0  0  0  0  0  0  0  0  0  0  0
    3.3620    1.7180    0.5190 H   0  0  0  0  0  0  0  0  0  0  0  0
    2.5380    1.7550   -1.0540 H   0  0  0  0  0  0  0  0  0  0  0  0
    2.0090    0.0980    1.3960 H   0  0  0  0  0  0  0  0  0  0  0  0
    1.8350   -0.4690   -1.5520 H   0  0  0  0  0  0  0  0  0  0  0  0
   -0.5210    1.4610    1.1680 N   0  0  0  0  0  0  0  0  0  0  0  0
   -1.9730    1.6410    1.1470 C   0  0  1  0  0  0  0  0  0  0  0  0
   -2.5380    1.8130    2.5020 C   0  0  0  0  0  0  0  0  0  0  0  0
   -2.4150    0.8730    3.5830 C   0  0  0  0  0  0  0  0  0  0  0  0
   -2.9130   -0.4840    3.6850 C   0  0  0  0  0  0  0  0  0  0  0  0
   -2.4080   -1.5120    2.7480 C   0  0  0  0  0  0  0  0  0  0  0  0
   -2.7140   -1.3330    1.3850 N   0  0  0  0  0  0  0  0  0  0  0  0
   -2.2190    3.0060    0.4880 C   0  0  0  0  0  0  0  0  0  0  0  0
   -1.2570    3.6560    0.1230 O   0  0  0  0  0  0  0  0  0  0  0  0
   -3.5070    3.4080    0.3500 O   0  0  0  0  0  0  0  0  0  0  0  0
    0.0410    2.0420    1.8280 H   0  0  0  0  0  0  0  0  0  0  0  0
   -2.4390    0.9310    0.4600 H   0  0  0  0  0  0  0  0  0  0  0  0
   -2.1260    2.8300    2.8600 H   0  0  0  0  0  0  0  0  0  0  0  0
   -3.6640    2.0040    2.3260 H   0  0  0  0  0  0  0  0  0  0  0  0
   -1.3170    0.8330    3.9790 H   0  0  0  0  0  0  0  0  0  0  0  0
   -2.8760    1.4240    4.5170 H   0  0  0  0  0  0  0  0  0  0  0  0
   -4.0650   -0.5120    3.7050 H   0  0  0  0  0  0  0  0  0  0  0  0
   -2.6790   -0.8920    4.7480 H   0  0  0  0  0  0  0  0  0  0  0  0
   -1.2790   -1.6540    2.8740 H   0  0  0  0  0  0  0  0  0  0  0  0
   -2.7780   -2.5530    3.0570 H   0  0  0  0  0  0  0  0  0  0  0  0
   -2.5590   -2.1840    0.8160 H   0  0  0  0  0  0  0  0  0  0  0  0
   -3.6750   -0.9860    1.1890 H   0  0  0  0  0  0  0  0  0  0  0  0
  1  9  1  0  0  0  0
  1 10  1  0  0  0  0
  2 11  1  6  0  0  0
  2  4  1  0  0  0  0
  2  1  1  0  0  0  0
  3  2  1  0  0  0  0
  4 13  1  6  0  0  0
  4  5  1  0  0  0  0
  4  6  1  0  0  0  0
  5 15  1  0  0  0  0
  6  7  2  0  0  0  0
  8  1  1  0  0  0  0
 12  3  1  0  0  0  0
 14  5  1  0  0  0  0
 16 17  1  0  0  0  0
 16 21  1  0  0  0  0
 16 22  1  0  0  0  0
 17 24  1  1  0  0  0
 18  6  1  0  0  0  0
 18 17  1  0  0  0  0
 19 17  1  0  0  0  0
 19 26  1  0  0  0  0
 20 19  2  0  0  0  0
 23 16  1  0  0  0  0
 25 18  1  0  0  0  0
 26 36  1  0  0  0  0
 27 37  1  6  0  0  0
 27 26  1  0  0  0  0
 27 28  1  0  0  0  0
 28 38  1  0  0  0  0
 28 29  1  0  0  0  0
 29 30  1  0  0  0  0
 29 40  1  0  0  0  0
 29 41  1  0  0  0  0
 30 42  1  0  0  0  0
 30 43  1  0  0  0  0
 31 44  1  0  0  0  0
 31 45  1  0  0  0  0
 31 30  1  0  0  0  0
 32 31  1  0  0  0  0
 33 27  1  0  0  0  0
 34 33  2  0  0  0  0
 35 33  1  0  0  0  0
 39 28  1  0  0  0  0
 46 32  1  0  0  0  0
 47 32  1  0  0  0  0
M  END
$$$$
