TAL.pdb
 OpenBabel07022419113D

 45 44  0  0  1  0  0  0  0  0999 V2000
   -4.1610   -3.8960    0.8390 C   0  0  0  0  0  0  0  0  0  0  0  0
   -3.6400   -3.7970   -0.5740 C   0  0  1  0  0  0  0  0  0  0  0  0
   -4.5260   -3.0940   -1.4010 O   0  0  0  0  0  0  0  0  0  0  0  0
   -2.3170   -3.0840   -0.6440 C   0  0  2  0  0  0  0  0  0  0  0  0
   -1.2970   -3.7070    0.1700 N   0  0  0  0  0  0  0  0  0  0  0  0
   -2.4410   -1.6510   -0.3580 C   0  0  0  0  0  0  0  0  0  0  0  0
   -3.2790   -0.9580   -0.9740 O   0  0  0  0  0  0  0  0  0  0  0  0
   -4.7100   -2.9420    1.0430 H   0  0  0  0  0  0  0  0  0  0  0  0
   -3.3750   -4.0070    1.5880 H   0  0  0  0  0  0  0  0  0  0  0  0
   -4.8710   -4.7370    0.9610 H   0  0  0  0  0  0  0  0  0  0  0  0
   -3.5190   -4.8190   -0.9820 H   0  0  0  0  0  0  0  0  0  0  0  0
   -5.4390   -3.4350   -1.1980 H   0  0  0  0  0  0  0  0  0  0  0  0
   -1.9640   -3.1880   -1.7100 H   0  0  0  0  0  0  0  0  0  0  0  0
   -1.5710   -4.6890    0.3250 H   0  0  0  0  0  0  0  0  0  0  0  0
   -0.3510   -3.6740   -0.2500 H   0  0  0  0  0  0  0  0  0  0  0  0
   -2.1650    0.4460    2.3750 C   0  0  0  0  0  0  0  0  0  0  0  0
   -1.6970    0.3390    0.9270 C   0  0  2  0  0  0  0  0  0  0  0  0
   -1.6040   -1.0610    0.6210 N   0  0  0  0  0  0  0  0  0  0  0  0
   -0.3920    1.0370    0.8550 C   0  0  0  0  0  0  0  0  0  0  0  0
   -0.3630    2.2710    1.1050 O   0  0  0  0  0  0  0  0  0  0  0  0
   -1.8640    1.4640    2.7240 H   0  0  0  0  0  0  0  0  0  0  0  0
   -1.5720   -0.2570    3.0290 H   0  0  0  0  0  0  0  0  0  0  0  0
   -3.2420    0.2890    2.4720 H   0  0  0  0  0  0  0  0  0  0  0  0
   -2.4780    0.8210    0.3100 H   0  0  0  0  0  0  0  0  0  0  0  0
   -0.8990   -1.6530    1.1360 H   0  0  0  0  0  0  0  0  0  0  0  0
    5.1930    0.6470    2.6460 C   0  0  0  0  0  0  0  0  0  0  0  0
    4.3500    1.2920    1.5320 C   0  0  0  0  0  0  0  0  0  0  0  0
    4.3030    2.7540    1.8190 C   0  0  0  0  0  0  0  0  0  0  0  0
    3.0320    0.6200    1.5020 C   0  0  0  0  0  0  0  0  0  0  0  0
    2.1010    1.1480    0.4660 C   0  0  2  0  0  0  0  0  0  0  0  0
    0.8260    0.4160    0.5260 N   0  0  0  0  0  0  0  0  0  0  0  0
    2.6440    1.1340   -0.9000 C   0  0  0  0  0  0  0  0  0  0  0  0
    3.7050    1.6950   -1.2550 O   0  0  0  0  0  0  0  0  0  0  0  0
    1.9520    0.4500   -1.9200 O   0  0  0  0  0  0  0  0  0  0  0  0
    6.2530    0.9700    2.5600 H   0  0  0  0  0  0  0  0  0  0  0  0
    5.1600   -0.4450    2.5990 H   0  0  0  0  0  0  0  0  0  0  0  0
    4.8410    1.0010    3.6440 H   0  0  0  0  0  0  0  0  0  0  0  0
    4.9300    1.1190    0.6070 H   0  0  0  0  0  0  0  0  0  0  0  0
    3.2900    3.1920    1.7930 H   0  0  0  0  0  0  0  0  0  0  0  0
    4.9280    3.3620    1.1220 H   0  0  0  0  0  0  0  0  0  0  0  0
    4.7040    3.0070    2.8440 H   0  0  0  0  0  0  0  0  0  0  0  0
    3.2190   -0.4610    1.2430 H   0  0  0  0  0  0  0  0  0  0  0  0
    2.5370    0.6090    2.4860 H   0  0  0  0  0  0  0  0  0  0  0  0
    1.8450    2.1970    0.7320 H   0  0  0  0  0  0  0  0  0  0  0  0
    0.8520   -0.5970    0.3130 H   0  0  0  0  0  0  0  0  0  0  0  0
  1 10  1  0  0  0  0
  1  8  1  0  0  0  0
  1  9  1  0  0  0  0
  2 11  1  6  0  0  0
  2  1  1  0  0  0  0
  3 12  1  0  0  0  0
  3  2  1  0  0  0  0
  4 13  1  6  0  0  0
  4  2  1  0  0  0  0
  4  6  1  0  0  0  0
  4  5  1  0  0  0  0
  5 14  1  0  0  0  0
  6 18  1  0  0  0  0
  7  6  2  0  0  0  0
 15  5  1  0  0  0  0
 16 23  1  0  0  0  0
 16 21  1  0  0  0  0
 16 22  1  0  0  0  0
 17 24  1  6  0  0  0
 17 16  1  0  0  0  0
 18 17  1  0  0  0  0
 18 25  1  0  0  0  0
 19 17  1  0  0  0  0
 19 20  2  0  0  0  0
 26 37  1  0  0  0  0
 27 28  1  0  0  0  0
 27 26  1  0  0  0  0
 28 41  1  0  0  0  0
 29 27  1  0  0  0  0
 29 43  1  0  0  0  0
 30 31  1  0  0  0  0
 30 44  1  1  0  0  0
 30 29  1  0  0  0  0
 31 19  1  0  0  0  0
 32 30  1  0  0  0  0
 33 32  1  0  0  0  0
 34 32  2  0  0  0  0
 35 26  1  0  0  0  0
 36 26  1  0  0  0  0
 38 27  1  0  0  0  0
 39 28  1  0  0  0  0
 40 28  1  0  0  0  0
 42 29  1  0  0  0  0
 45 31  1  0  0  0  0
M  END
$$$$
