TAM.pdb
 OpenBabel07022419113D

 43 42  0  0  1  0  0  0  0  0999 V2000
    1.5460   -3.1550    0.7210 C   0  0  0  0  0  0  0  0  0  0  0  0
    2.4180   -2.8070   -0.4840 C   0  0  1  0  0  0  0  0  0  0  0  0
    3.3370   -3.9060   -0.5340 O   0  0  0  0  0  0  0  0  0  0  0  0
    1.6840   -2.8520   -1.7900 C   0  0  2  0  0  0  0  0  0  0  0  0
    2.7050   -2.7760   -2.8640 N   0  0  0  0  0  0  0  0  0  0  0  0
    0.7160   -1.7560   -1.9980 C   0  0  0  0  0  0  0  0  0  0  0  0
    0.9410   -0.9680   -2.9960 O   0  0  0  0  0  0  0  0  0  0  0  0
    1.1800   -2.2020    1.1380 H   0  0  0  0  0  0  0  0  0  0  0  0
    0.7460   -3.8610    0.4820 H   0  0  0  0  0  0  0  0  0  0  0  0
    2.2480   -3.5970    1.5020 H   0  0  0  0  0  0  0  0  0  0  0  0
    2.9160   -1.8640   -0.2690 H   0  0  0  0  0  0  0  0  0  0  0  0
    3.5780   -4.1510    0.4080 H   0  0  0  0  0  0  0  0  0  0  0  0
    1.2220   -3.8510   -1.9000 H   0  0  0  0  0  0  0  0  0  0  0  0
    2.2560   -2.3950   -3.7240 H   0  0  0  0  0  0  0  0  0  0  0  0
    3.5050   -2.2020   -2.5350 H   0  0  0  0  0  0  0  0  0  0  0  0
   -2.7380   -0.8350   -1.5650 C   0  0  0  0  0  0  0  0  0  0  0  0
   -1.3010   -0.4470   -1.4860 C   0  0  2  0  0  0  0  0  0  0  0  0
   -0.4130   -1.5420   -1.1790 N   0  0  0  0  0  0  0  0  0  0  0  0
   -1.1790    0.6930   -0.5130 C   0  0  0  0  0  0  0  0  0  0  0  0
   -1.9430    1.7090   -0.6570 O   0  0  0  0  0  0  0  0  0  0  0  0
   -3.1380   -1.0130   -0.5430 H   0  0  0  0  0  0  0  0  0  0  0  0
   -3.2890   -0.0140   -2.0750 H   0  0  0  0  0  0  0  0  0  0  0  0
   -2.8360   -1.7720   -2.1430 H   0  0  0  0  0  0  0  0  0  0  0  0
   -0.9690    0.0030   -2.4700 H   0  0  0  0  0  0  0  0  0  0  0  0
   -0.6190   -2.1550   -0.3740 H   0  0  0  0  0  0  0  0  0  0  0  0
    0.1410    0.3650    5.9850 C   0  0  0  0  0  0  0  0  0  0  0  0
   -1.1110    1.5290    5.4370 S   0  0  0  0  0  0  0  0  0  0  0  0
   -0.6450    2.3720    3.8890 C   0  0  0  0  0  0  0  0  0  0  0  0
   -0.6100    1.3550    2.8020 C   0  0  0  0  0  0  0  0  0  0  0  0
   -0.2490    1.8900    1.4360 C   0  0  2  0  0  0  0  0  0  0  0  0
   -0.2800    0.7360    0.5580 N   0  0  0  0  0  0  0  0  0  0  0  0
    1.0750    2.5370    1.4380 C   0  0  0  0  0  0  0  0  0  0  0  0
    1.3570    3.5640    2.0970 O   0  0  0  0  0  0  0  0  0  0  0  0
    2.1060    1.9850    0.6570 O   0  0  0  0  0  0  0  0  0  0  0  0
    0.4390    0.5920    7.0330 H   0  0  0  0  0  0  0  0  0  0  0  0
   -0.2880   -0.6690    6.0140 H   0  0  0  0  0  0  0  0  0  0  0  0
    1.0390    0.4170    5.3460 H   0  0  0  0  0  0  0  0  0  0  0  0
    0.3070    2.8860    4.0320 H   0  0  0  0  0  0  0  0  0  0  0  0
   -1.4380    3.1050    3.6800 H   0  0  0  0  0  0  0  0  0  0  0  0
    0.1720    0.5810    3.0550 H   0  0  0  0  0  0  0  0  0  0  0  0
   -1.5630    0.7880    2.7000 H   0  0  0  0  0  0  0  0  0  0  0  0
   -1.0340    2.6390    1.1310 H   0  0  0  0  0  0  0  0  0  0  0  0
    0.3710   -0.0390    0.7420 H   0  0  0  0  0  0  0  0  0  0  0  0
  1  8  1  0  0  0  0
  1 10  1  0  0  0  0
  2 11  1  1  0  0  0
  2  1  1  0  0  0  0
  3  2  1  0  0  0  0
  3 12  1  0  0  0  0
  4 13  1  6  0  0  0
  4  2  1  0  0  0  0
  5 15  1  0  0  0  0
  5  4  1  0  0  0  0
  6  4  1  0  0  0  0
  6 18  1  0  0  0  0
  7  6  2  0  0  0  0
  9  1  1  0  0  0  0
 14  5  1  0  0  0  0
 16 17  1  0  0  0  0
 16 21  1  0  0  0  0
 17 24  1  6  0  0  0
 17 18  1  0  0  0  0
 17 19  1  0  0  0  0
 18 25  1  0  0  0  0
 19 31  1  0  0  0  0
 20 19  2  0  0  0  0
 22 16  1  0  0  0  0
 23 16  1  0  0  0  0
 26 36  1  0  0  0  0
 26 35  1  0  0  0  0
 27 26  1  0  0  0  0
 28 38  1  0  0  0  0
 28 27  1  0  0  0  0
 29 40  1  0  0  0  0
 29 28  1  0  0  0  0
 30 42  1  6  0  0  0
 30 32  1  0  0  0  0
 30 29  1  0  0  0  0
 31 43  1  0  0  0  0
 31 30  1  0  0  0  0
 32 33  1  0  0  0  0
 34 32  2  0  0  0  0
 37 26  1  0  0  0  0
 39 28  1  0  0  0  0
 41 29  1  0  0  0  0
M  END
$$$$
