TAP.pdb
 OpenBabel07022419113D

 40 40  0  0  1  0  0  0  0  0999 V2000
   -1.0320   -5.7550   -0.5020 C   0  0  0  0  0  0  0  0  0  0  0  0
   -0.4950   -4.3710   -0.1960 C   0  0  1  0  0  0  0  0  0  0  0  0
    0.8910   -4.4270   -0.3460 O   0  0  0  0  0  0  0  0  0  0  0  0
   -1.1030   -3.3940   -1.1460 C   0  0  2  0  0  0  0  0  0  0  0  0
   -0.7910   -3.8060   -2.4990 N   0  0  0  0  0  0  0  0  0  0  0  0
   -0.7380   -1.9980   -0.9200 C   0  0  0  0  0  0  0  0  0  0  0  0
   -0.2270   -1.3600   -1.8780 O   0  0  0  0  0  0  0  0  0  0  0  0
   -1.2010   -6.3560    0.4160 H   0  0  0  0  0  0  0  0  0  0  0  0
   -0.3150   -6.2940   -1.1540 H   0  0  0  0  0  0  0  0  0  0  0  0
   -1.9820   -5.6950   -1.0860 H   0  0  0  0  0  0  0  0  0  0  0  0
   -0.7040   -4.1730    0.8620 H   0  0  0  0  0  0  0  0  0  0  0  0
    1.3480   -4.6770    0.5000 H   0  0  0  0  0  0  0  0  0  0  0  0
   -2.2180   -3.4660   -1.0520 H   0  0  0  0  0  0  0  0  0  0  0  0
   -0.9100   -3.0630   -3.2010 H   0  0  0  0  0  0  0  0  0  0  0  0
    0.0920   -4.3300   -2.5650 H   0  0  0  0  0  0  0  0  0  0  0  0
   -1.6690    0.9970    0.7010 C   0  0  0  0  0  0  0  0  0  0  0  0
   -0.4990    0.1150    0.3810 C   0  0  2  0  0  0  0  0  0  0  0  0
   -0.9130   -1.2950    0.2940 N   0  0  0  0  0  0  0  0  0  0  0  0
    0.6180    0.2380    1.3690 C   0  0  0  0  0  0  0  0  0  0  0  0
    1.0410   -0.8010    1.9850 O   0  0  0  0  0  0  0  0  0  0  0  0
   -1.6850    1.3210    1.7620 H   0  0  0  0  0  0  0  0  0  0  0  0
   -1.6810    1.8460    0.0010 H   0  0  0  0  0  0  0  0  0  0  0  0
   -2.5930    0.3800    0.5210 H   0  0  0  0  0  0  0  0  0  0  0  0
   -0.0820    0.4310   -0.5950 H   0  0  0  0  0  0  0  0  0  0  0  0
   -1.3250   -1.7810    1.0930 H   0  0  0  0  0  0  0  0  0  0  0  0
    1.2470    1.4550    1.6660 N   0  0  0  0  0  0  0  0  0  0  0  0
    0.9110    2.7310    1.0750 C   0  0  0  0  0  0  0  0  0  0  0  0
    1.8710    3.7530    1.5830 C   0  0  0  0  0  0  0  0  0  0  0  0
    2.9730    2.9690    2.2060 C   0  0  0  0  0  0  0  0  0  0  0  0
    2.3310    1.6530    2.6000 C   0  0  1  0  0  0  0  0  0  0  0  0
    1.8180    1.6860    3.9870 C   0  0  0  0  0  0  0  0  0  0  0  0
    0.5950    1.5500    4.1890 O   0  0  0  0  0  0  0  0  0  0  0  0
    2.6570    1.8650    5.0760 O   0  0  0  0  0  0  0  0  0  0  0  0
   -0.1140    3.0720    1.3230 H   0  0  0  0  0  0  0  0  0  0  0  0
    1.0260    2.6340   -0.0450 H   0  0  0  0  0  0  0  0  0  0  0  0
    1.3890    4.4020    2.3360 H   0  0  0  0  0  0  0  0  0  0  0  0
    2.2940    4.3260    0.7340 H   0  0  0  0  0  0  0  0  0  0  0  0
    3.8170    2.7720    1.4850 H   0  0  0  0  0  0  0  0  0  0  0  0
    3.3680    3.4320    3.1180 H   0  0  0  0  0  0  0  0  0  0  0  0
    3.1240    0.8730    2.4910 H   0  0  0  0  0  0  0  0  0  0  0  0
  1  2  1  0  0  0  0
  1  8  1  0  0  0  0
  2 11  1  1  0  0  0
  3  2  1  0  0  0  0
  3 12  1  0  0  0  0
  4 13  1  1  0  0  0
  4  6  1  0  0  0  0
  4  2  1  0  0  0  0
  5  4  1  0  0  0  0
  6 18  1  0  0  0  0
  7  6  2  0  0  0  0
  9  1  1  0  0  0  0
 10  1  1  0  0  0  0
 14  5  1  0  0  0  0
 15  5  1  0  0  0  0
 16 21  1  0  0  0  0
 17 24  1  6  0  0  0
 17 16  1  0  0  0  0
 17 19  1  0  0  0  0
 18 17  1  0  0  0  0
 18 25  1  0  0  0  0
 19 26  1  0  0  0  0
 19 20  2  0  0  0  0
 22 16  1  0  0  0  0
 23 16  1  0  0  0  0
 26 30  1  0  0  0  0
 27 34  1  0  0  0  0
 27 28  1  0  0  0  0
 27 26  1  0  0  0  0
 28 29  1  0  0  0  0
 28 36  1  0  0  0  0
 29 30  1  0  0  0  0
 29 39  1  0  0  0  0
 30 40  1  6  0  0  0
 30 31  1  0  0  0  0
 31 32  2  0  0  0  0
 31 33  1  0  0  0  0
 35 27  1  0  0  0  0
 37 28  1  0  0  0  0
 38 29  1  0  0  0  0
M  END
$$$$
