TAR.pdb
 OpenBabel07022419103D

 49 48  0  0  1  0  0  0  0  0999 V2000
   -0.0970   -4.9330    2.5770 C   0  0  0  0  0  0  0  0  0  0  0  0
    0.1690   -3.6480    1.8520 C   0  0  1  0  0  0  0  0  0  0  0  0
    0.4070   -2.6130    2.7760 O   0  0  0  0  0  0  0  0  0  0  0  0
    1.4200   -3.7330    0.9880 C   0  0  2  0  0  0  0  0  0  0  0  0
    2.5680   -4.0280    1.7930 N   0  0  0  0  0  0  0  0  0  0  0  0
    1.6640   -2.4220    0.3020 C   0  0  0  0  0  0  0  0  0  0  0  0
    2.7400   -1.7990    0.4850 O   0  0  0  0  0  0  0  0  0  0  0  0
    0.8820   -5.3060    2.9730 H   0  0  0  0  0  0  0  0  0  0  0  0
   -0.7200   -4.7220    3.4740 H   0  0  0  0  0  0  0  0  0  0  0  0
   -0.5120   -5.7150    1.9420 H   0  0  0  0  0  0  0  0  0  0  0  0
   -0.6880   -3.4470    1.1990 H   0  0  0  0  0  0  0  0  0  0  0  0
    1.3660   -2.6290    3.0030 H   0  0  0  0  0  0  0  0  0  0  0  0
    1.2580   -4.5560    0.2720 H   0  0  0  0  0  0  0  0  0  0  0  0
    2.6820   -5.0270    2.0450 H   0  0  0  0  0  0  0  0  0  0  0  0
    3.4560   -3.6010    1.4350 H   0  0  0  0  0  0  0  0  0  0  0  0
    1.1170   -0.7870   -2.7340 C   0  0  0  0  0  0  0  0  0  0  0  0
    0.8880   -0.5710   -1.2500 C   0  0  2  0  0  0  0  0  0  0  0  0
    0.7140   -1.8380   -0.5630 N   0  0  0  0  0  0  0  0  0  0  0  0
   -0.2660    0.3260   -1.0680 C   0  0  0  0  0  0  0  0  0  0  0  0
   -0.2540    1.4450   -1.6320 O   0  0  0  0  0  0  0  0  0  0  0  0
    0.4840   -0.0870   -3.2930 H   0  0  0  0  0  0  0  0  0  0  0  0
    2.1670   -0.5460   -2.9890 H   0  0  0  0  0  0  0  0  0  0  0  0
    0.9670   -1.8500   -3.0160 H   0  0  0  0  0  0  0  0  0  0  0  0
    1.8090   -0.1050   -0.8520 H   0  0  0  0  0  0  0  0  0  0  0  0
   -0.1900   -2.3810   -0.7090 H   0  0  0  0  0  0  0  0  0  0  0  0
    3.0330    2.1720    0.8700 N   0  0  0  0  0  0  0  0  0  0  0  0
    2.0150    1.5360    1.6600 C   0  0  0  0  0  0  0  0  0  0  0  0
    2.3820    0.5960    2.4500 N   0  0  0  0  0  0  0  0  0  0  0  0
    0.6850    1.9800    1.5340 N   0  0  0  0  0  0  0  0  0  0  0  0
   -0.3850    1.2370    2.1430 C   0  0  0  0  0  0  0  0  0  0  0  0
   -1.7110    1.8770    1.9870 C   0  0  0  0  0  0  0  0  0  0  0  0
   -2.2650    2.0840    0.6370 C   0  0  0  0  0  0  0  0  0  0  0  0
   -2.5570    0.8090   -0.0830 C   0  0  2  0  0  0  0  0  0  0  0  0
   -1.4020    0.0070   -0.2930 N   0  0  0  0  0  0  0  0  0  0  0  0
   -3.3120    1.0520   -1.3460 C   0  0  0  0  0  0  0  0  0  0  0  0
   -2.8990    0.5670   -2.4120 O   0  0  0  0  0  0  0  0  0  0  0  0
   -4.4550    1.8060   -1.3220 O   0  0  0  0  0  0  0  0  0  0  0  0
    3.1930    3.2010    0.9350 H   0  0  0  0  0  0  0  0  0  0  0  0
    3.6170    1.6020    0.2280 H   0  0  0  0  0  0  0  0  0  0  0  0
    3.3740    0.3010    2.5200 H   0  0  0  0  0  0  0  0  0  0  0  0
    0.4700    2.8390    1.0050 H   0  0  0  0  0  0  0  0  0  0  0  0
   -0.1560    1.2860    3.2630 H   0  0  0  0  0  0  0  0  0  0  0  0
   -0.3170    0.1760    1.9140 H   0  0  0  0  0  0  0  0  0  0  0  0
   -1.7260    2.8940    2.5020 H   0  0  0  0  0  0  0  0  0  0  0  0
   -2.4190    1.2810    2.6540 H   0  0  0  0  0  0  0  0  0  0  0  0
   -3.1620    2.7680    0.6350 H   0  0  0  0  0  0  0  0  0  0  0  0
   -1.4670    2.6000    0.0040 H   0  0  0  0  0  0  0  0  0  0  0  0
   -3.2390    0.2330    0.6410 H   0  0  0  0  0  0  0  0  0  0  0  0
   -1.3650   -0.9540    0.1620 H   0  0  0  0  0  0  0  0  0  0  0  0
  1  8  1  0  0  0  0
  1  9  1  0  0  0  0
  2 11  1  6  0  0  0
  2  1  1  0  0  0  0
  2  3  1  0  0  0  0
  3 12  1  0  0  0  0
  4 13  1  6  0  0  0
  4  5  1  0  0  0  0
  4  2  1  0  0  0  0
  5 14  1  0  0  0  0
  6  7  2  0  0  0  0
  6  4  1  0  0  0  0
 10  1  1  0  0  0  0
 15  5  1  0  0  0  0
 16 17  1  0  0  0  0
 17 19  1  0  0  0  0
 17 24  1  1  0  0  0
 17 18  1  0  0  0  0
 18  6  1  0  0  0  0
 19 34  1  0  0  0  0
 20 19  2  0  0  0  0
 21 16  1  0  0  0  0
 22 16  1  0  0  0  0
 23 16  1  0  0  0  0
 25 18  1  0  0  0  0
 26 38  1  0  0  0  0
 26 27  1  0  0  0  0
 27 28  2  0  0  0  0
 28 40  1  0  0  0  0
 29 27  1  0  0  0  0
 29 30  1  0  0  0  0
 30 42  1  0  0  0  0
 31 30  1  0  0  0  0
 31 44  1  0  0  0  0
 31 45  1  0  0  0  0
 32 31  1  0  0  0  0
 33 32  1  0  0  0  0
 33 48  1  1  0  0  0
 34 33  1  0  0  0  0
 34 49  1  0  0  0  0
 35 37  1  0  0  0  0
 35 33  1  0  0  0  0
 36 35  2  0  0  0  0
 39 26  1  0  0  0  0
 41 29  1  0  0  0  0
 43 30  1  0  0  0  0
 46 32  1  0  0  0  0
 47 32  1  0  0  0  0
M  END
$$$$
