TAT.pdb
 OpenBabel07022419113D

 40 39  0  0  1  0  0  0  0  0999 V2000
    1.3080   -3.8970    2.7820 C   0  0  0  0  0  0  0  0  0  0  0  0
   -0.1690   -4.0390    2.5210 C   0  0  1  0  0  0  0  0  0  0  0  0
   -0.8050   -2.9140    2.9740 O   0  0  0  0  0  0  0  0  0  0  0  0
   -0.4860   -4.3190    1.0770 C   0  0  2  0  0  0  0  0  0  0  0  0
    0.2150   -5.5330    0.6360 N   0  0  0  0  0  0  0  0  0  0  0  0
   -0.2210   -3.2140    0.1620 C   0  0  0  0  0  0  0  0  0  0  0  0
    0.5650   -3.4310   -0.8200 O   0  0  0  0  0  0  0  0  0  0  0  0
    1.9330   -4.5220    2.1270 H   0  0  0  0  0  0  0  0  0  0  0  0
    1.4970   -4.2360    3.8260 H   0  0  0  0  0  0  0  0  0  0  0  0
    1.6120   -2.8200    2.7590 H   0  0  0  0  0  0  0  0  0  0  0  0
   -0.5310   -4.9150    3.1060 H   0  0  0  0  0  0  0  0  0  0  0  0
   -1.5340   -3.1270    3.6280 H   0  0  0  0  0  0  0  0  0  0  0  0
   -1.5710   -4.5660    1.0250 H   0  0  0  0  0  0  0  0  0  0  0  0
    0.9030   -5.3340   -0.1120 H   0  0  0  0  0  0  0  0  0  0  0  0
    0.6990   -5.9970    1.4370 H   0  0  0  0  0  0  0  0  0  0  0  0
   -1.7140   -0.4560   -1.3830 C   0  0  0  0  0  0  0  0  0  0  0  0
   -0.4480   -0.8680   -0.6830 C   0  0  2  0  0  0  0  0  0  0  0  0
   -0.7700   -1.9130    0.2800 N   0  0  0  0  0  0  0  0  0  0  0  0
    0.1940    0.2800    0.0290 C   0  0  0  0  0  0  0  0  0  0  0  0
    0.3600    0.2040    1.2670 O   0  0  0  0  0  0  0  0  0  0  0  0
   -2.0810    0.5090   -0.9960 H   0  0  0  0  0  0  0  0  0  0  0  0
   -2.5390   -1.1930   -1.1840 H   0  0  0  0  0  0  0  0  0  0  0  0
   -1.6010   -0.4430   -2.4950 H   0  0  0  0  0  0  0  0  0  0  0  0
    0.2370   -1.2730   -1.4310 H   0  0  0  0  0  0  0  0  0  0  0  0
   -1.4240   -1.7120    1.0840 H   0  0  0  0  0  0  0  0  0  0  0  0
    1.1550    4.5400    1.4220 C   0  0  0  0  0  0  0  0  0  0  0  0
    0.3610    3.3050    0.9660 C   0  0  1  0  0  0  0  0  0  0  0  0
   -0.7640    3.8430    0.3260 O   0  0  0  0  0  0  0  0  0  0  0  0
    1.2380    2.5480    0.0380 C   0  0  2  0  0  0  0  0  0  0  0  0
    0.6210    1.4480   -0.6250 N   0  0  0  0  0  0  0  0  0  0  0  0
    2.4660    2.1380    0.7990 C   0  0  0  0  0  0  0  0  0  0  0  0
    3.1470    2.9170    1.4700 O   0  0  0  0  0  0  0  0  0  0  0  0
    2.8180    0.7860    0.7100 O   0  0  0  0  0  0  0  0  0  0  0  0
    0.4790    5.4180    1.5430 H   0  0  0  0  0  0  0  0  0  0  0  0
    1.9680    4.7520    0.7000 H   0  0  0  0  0  0  0  0  0  0  0  0
    1.6230    4.3710    2.4090 H   0  0  0  0  0  0  0  0  0  0  0  0
    0.1200    2.7490    1.8740 H   0  0  0  0  0  0  0  0  0  0  0  0
   -1.2000    4.5360    0.8460 H   0  0  0  0  0  0  0  0  0  0  0  0
    1.6460    3.2750   -0.7270 H   0  0  0  0  0  0  0  0  0  0  0  0
    0.4640    1.4880   -1.6760 H   0  0  0  0  0  0  0  0  0  0  0  0
  1  9  1  0  0  0  0
  2  1  1  0  0  0  0
  2  3  1  0  0  0  0
  2 11  1  1  0  0  0
  3 12  1  0  0  0  0
  4 13  1  6  0  0  0
  4  2  1  0  0  0  0
  5  4  1  0  0  0  0
  5 15  1  0  0  0  0
  6 18  1  0  0  0  0
  6  4  1  0  0  0  0
  7  6  2  0  0  0  0
  8  1  1  0  0  0  0
 10  1  1  0  0  0  0
 14  5  1  0  0  0  0
 16 22  1  0  0  0  0
 16 21  1  0  0  0  0
 16 17  1  0  0  0  0
 17 24  1  6  0  0  0
 17 19  1  0  0  0  0
 17 18  1  0  0  0  0
 18 25  1  0  0  0  0
 19 20  2  0  0  0  0
 23 16  1  0  0  0  0
 26 34  1  0  0  0  0
 26 36  1  0  0  0  0
 27 26  1  0  0  0  0
 27 37  1  1  0  0  0
 28 38  1  0  0  0  0
 28 27  1  0  0  0  0
 29 39  1  6  0  0  0
 29 31  1  0  0  0  0
 29 27  1  0  0  0  0
 30 19  1  0  0  0  0
 30 29  1  0  0  0  0
 31 32  1  0  0  0  0
 33 31  2  0  0  0  0
 35 26  1  0  0  0  0
 40 30  1  0  0  0  0
M  END
$$$$
