TAV.pdb
 OpenBabel07022419113D

 42 41  0  0  1  0  0  0  0  0999 V2000
   -2.6980   -4.7790    2.0790 C   0  0  0  0  0  0  0  0  0  0  0  0
   -1.5340   -4.0790    2.6990 C   0  0  1  0  0  0  0  0  0  0  0  0
   -0.6770   -5.0890    3.2090 O   0  0  0  0  0  0  0  0  0  0  0  0
   -0.6740   -3.3150    1.7090 C   0  0  2  0  0  0  0  0  0  0  0  0
    0.4590   -2.8190    2.5230 N   0  0  0  0  0  0  0  0  0  0  0  0
   -1.3760   -2.1630    1.0920 C   0  0  0  0  0  0  0  0  0  0  0  0
   -2.3340   -2.2720    0.3140 O   0  0  0  0  0  0  0  0  0  0  0  0
   -3.5020   -4.9040    2.8590 H   0  0  0  0  0  0  0  0  0  0  0  0
   -2.4130   -5.8150    1.7760 H   0  0  0  0  0  0  0  0  0  0  0  0
   -3.1040   -4.2030    1.2580 H   0  0  0  0  0  0  0  0  0  0  0  0
   -1.8210   -3.4570    3.5750 H   0  0  0  0  0  0  0  0  0  0  0  0
   -0.3630   -4.8620    4.1200 H   0  0  0  0  0  0  0  0  0  0  0  0
   -0.2930   -4.0240    0.9700 H   0  0  0  0  0  0  0  0  0  0  0  0
    0.0630   -2.4700    3.4210 H   0  0  0  0  0  0  0  0  0  0  0  0
    1.0090   -3.7000    2.7470 H   0  0  0  0  0  0  0  0  0  0  0  0
   -2.0670    1.2690    1.9240 C   0  0  0  0  0  0  0  0  0  0  0  0
   -1.5350    0.3440    0.8690 C   0  0  2  0  0  0  0  0  0  0  0  0
   -0.9350   -0.8470    1.4030 N   0  0  0  0  0  0  0  0  0  0  0  0
   -0.5110    1.0670    0.0450 C   0  0  0  0  0  0  0  0  0  0  0  0
   -0.7850    2.1510   -0.5370 O   0  0  0  0  0  0  0  0  0  0  0  0
   -2.9790    0.8670    2.3700 H   0  0  0  0  0  0  0  0  0  0  0  0
   -1.2900    1.5450    2.6710 H   0  0  0  0  0  0  0  0  0  0  0  0
   -2.3410    2.2230    1.4120 H   0  0  0  0  0  0  0  0  0  0  0  0
   -2.3640    0.0520    0.2080 H   0  0  0  0  0  0  0  0  0  0  0  0
   -0.1370   -0.7440    2.0500 H   0  0  0  0  0  0  0  0  0  0  0  0
    3.9960    2.3070   -1.0140 C   0  0  0  0  0  0  0  0  0  0  0  0
    3.0250    1.6210   -0.0820 C   0  0  0  0  0  0  0  0  0  0  0  0
    2.6770    2.5830    1.0250 C   0  0  0  0  0  0  0  0  0  0  0  0
    1.8200    1.2340   -0.9000 C   0  0  2  0  0  0  0  0  0  0  0  0
    0.8050    0.5710   -0.1170 N   0  0  0  0  0  0  0  0  0  0  0  0
    2.2920    0.3770   -2.0190 C   0  0  0  0  0  0  0  0  0  0  0  0
    1.8310   -0.7910   -2.1970 O   0  0  0  0  0  0  0  0  0  0  0  0
    3.2490    0.8240   -2.9050 O   0  0  0  0  0  0  0  0  0  0  0  0
    4.5140    3.1220   -0.4280 H   0  0  0  0  0  0  0  0  0  0  0  0
    4.7960    1.6300   -1.3850 H   0  0  0  0  0  0  0  0  0  0  0  0
    3.4810    2.8680   -1.8310 H   0  0  0  0  0  0  0  0  0  0  0  0
    3.5630    0.7210    0.3160 H   0  0  0  0  0  0  0  0  0  0  0  0
    1.6600    2.3630    1.4410 H   0  0  0  0  0  0  0  0  0  0  0  0
    3.3780    2.5240    1.8830 H   0  0  0  0  0  0  0  0  0  0  0  0
    2.7280    3.6470    0.6700 H   0  0  0  0  0  0  0  0  0  0  0  0
    1.3920    2.1620   -1.3230 H   0  0  0  0  0  0  0  0  0  0  0  0
    1.0480   -0.3200    0.3550 H   0  0  0  0  0  0  0  0  0  0  0  0
  1  2  1  0  0  0  0
  1  8  1  0  0  0  0
  2  3  1  0  0  0  0
  2 11  1  1  0  0  0
  3 12  1  0  0  0  0
  4 13  1  6  0  0  0
  4  5  1  0  0  0  0
  4  2  1  0  0  0  0
  5 15  1  0  0  0  0
  5 14  1  0  0  0  0
  6 18  1  0  0  0  0
  6  4  1  0  0  0  0
  7  6  2  0  0  0  0
  9  1  1  0  0  0  0
 10  1  1  0  0  0  0
 16 21  1  0  0  0  0
 16 22  1  0  0  0  0
 17 24  1  6  0  0  0
 17 18  1  0  0  0  0
 17 16  1  0  0  0  0
 18 25  1  0  0  0  0
 19 17  1  0  0  0  0
 20 19  2  0  0  0  0
 23 16  1  0  0  0  0
 26 34  1  0  0  0  0
 26 27  1  0  0  0  0
 27 37  1  0  0  0  0
 27 28  1  0  0  0  0
 28 38  1  0  0  0  0
 28 39  1  0  0  0  0
 29 41  1  6  0  0  0
 29 30  1  0  0  0  0
 29 27  1  0  0  0  0
 30 19  1  0  0  0  0
 30 42  1  0  0  0  0
 31 29  1  0  0  0  0
 32 31  1  0  0  0  0
 33 31  2  0  0  0  0
 35 26  1  0  0  0  0
 36 26  1  0  0  0  0
 40 28  1  0  0  0  0
M  END
$$$$
