TCA.pdb
 OpenBabel07022419123D

 37 36  0  0  1  0  0  0  0  0999 V2000
   -1.3120   -1.9990    2.3360 C   0  0  0  0  0  0  0  0  0  0  0  0
   -0.6280   -3.2960    1.9970 C   0  0  1  0  0  0  0  0  0  0  0  0
   -1.4640   -4.3740    2.3900 O   0  0  0  0  0  0  0  0  0  0  0  0
   -0.4050   -3.4780    0.4910 C   0  0  2  0  0  0  0  0  0  0  0  0
    0.2260   -4.8210    0.3520 N   0  0  0  0  0  0  0  0  0  0  0  0
    0.5500   -2.5060   -0.0730 C   0  0  0  0  0  0  0  0  0  0  0  0
    1.7650   -2.8730   -0.2520 O   0  0  0  0  0  0  0  0  0  0  0  0
   -1.9660   -1.6740    1.5290 H   0  0  0  0  0  0  0  0  0  0  0  0
   -0.5730   -1.2250    2.6220 H   0  0  0  0  0  0  0  0  0  0  0  0
   -1.9840   -2.1930    3.2210 H   0  0  0  0  0  0  0  0  0  0  0  0
    0.3220   -3.4290    2.5180 H   0  0  0  0  0  0  0  0  0  0  0  0
   -1.1600   -4.7210    3.2670 H   0  0  0  0  0  0  0  0  0  0  0  0
   -1.3700   -3.5260   -0.0350 H   0  0  0  0  0  0  0  0  0  0  0  0
    0.3840   -4.9330   -0.6740 H   0  0  0  0  0  0  0  0  0  0  0  0
    1.1920   -4.6810    0.7760 H   0  0  0  0  0  0  0  0  0  0  0  0
    0.2190   -1.1740   -0.4430 N   0  0  0  0  0  0  0  0  0  0  0  0
    1.2310   -0.3060   -0.9910 C   0  0  1  0  0  0  0  0  0  0  0  0
    0.9840   -0.0880   -2.4830 C   0  0  0  0  0  0  0  0  0  0  0  0
    2.2360    0.9960   -3.1980 S   0  0  0  0  0  0  0  0  0  0  0  0
    1.3050    0.9610   -0.2620 C   0  0  0  0  0  0  0  0  0  0  0  0
    2.1640    1.8660   -0.5470 O   0  0  0  0  0  0  0  0  0  0  0  0
   -0.7580   -0.8590   -0.3160 H   0  0  0  0  0  0  0  0  0  0  0  0
    2.2090   -0.8360   -0.9370 H   0  0  0  0  0  0  0  0  0  0  0  0
    1.0500   -1.0660   -2.9950 H   0  0  0  0  0  0  0  0  0  0  0  0
   -0.0190    0.3370   -2.6510 H   0  0  0  0  0  0  0  0  0  0  0  0
    1.9300    1.1670   -4.5550 H   0  0  0  0  0  0  0  0  0  0  0  0
   -0.7890    3.2870    1.4040 C   0  0  0  0  0  0  0  0  0  0  0  0
    0.4700    2.4880    1.5410 C   0  0  2  0  0  0  0  0  0  0  0  0
    0.4040    1.2230    0.8020 N   0  0  0  0  0  0  0  0  0  0  0  0
    0.8420    2.2490    2.9600 C   0  0  0  0  0  0  0  0  0  0  0  0
    1.0640    1.1040    3.4340 O   0  0  0  0  0  0  0  0  0  0  0  0
    0.9590    3.3220    3.8320 O   0  0  0  0  0  0  0  0  0  0  0  0
   -1.6180    2.5820    1.1740 H   0  0  0  0  0  0  0  0  0  0  0  0
   -0.6970    3.9680    0.5340 H   0  0  0  0  0  0  0  0  0  0  0  0
   -0.9680    3.8310    2.3520 H   0  0  0  0  0  0  0  0  0  0  0  0
    1.2960    3.0730    1.0910 H   0  0  0  0  0  0  0  0  0  0  0  0
   -0.3200    0.5240    1.0730 H   0  0  0  0  0  0  0  0  0  0  0  0
  1  9  1  0  0  0  0
  1 10  1  0  0  0  0
  2  1  1  0  0  0  0
  2  3  1  0  0  0  0
  2 11  1  1  0  0  0
  3 12  1  0  0  0  0
  4 13  1  6  0  0  0
  4  2  1  0  0  0  0
  5  4  1  0  0  0  0
  5 15  1  0  0  0  0
  6  4  1  0  0  0  0
  7  6  2  0  0  0  0
  8  1  1  0  0  0  0
 14  5  1  0  0  0  0
 16 22  1  0  0  0  0
 16  6  1  0  0  0  0
 17 23  1  1  0  0  0
 17 16  1  0  0  0  0
 17 20  1  0  0  0  0
 18 17  1  0  0  0  0
 19 18  1  0  0  0  0
 20 29  1  0  0  0  0
 21 20  2  0  0  0  0
 24 18  1  0  0  0  0
 25 18  1  0  0  0  0
 26 19  1  0  0  0  0
 27 28  1  0  0  0  0
 27 35  1  0  0  0  0
 28 36  1  6  0  0  0
 28 30  1  0  0  0  0
 29 37  1  0  0  0  0
 29 28  1  0  0  0  0
 30 31  2  0  0  0  0
 30 32  1  0  0  0  0
 33 27  1  0  0  0  0
 34 27  1  0  0  0  0
M  END
$$$$
