TCC.pdb
 OpenBabel07022419123D

 38 37  0  0  1  0  0  0  0  0999 V2000
   -0.0860   -5.2830    1.7600 C   0  0  0  0  0  0  0  0  0  0  0  0
   -0.5810   -4.2860    0.7320 C   0  0  1  0  0  0  0  0  0  0  0  0
   -1.9140   -4.0130    1.0060 O   0  0  0  0  0  0  0  0  0  0  0  0
    0.2890   -3.0400    0.8680 C   0  0  2  0  0  0  0  0  0  0  0  0
    0.1510   -2.5840    2.2380 N   0  0  0  0  0  0  0  0  0  0  0  0
   -0.1580   -1.9790   -0.0830 C   0  0  0  0  0  0  0  0  0  0  0  0
   -0.1310   -2.1450   -1.3270 O   0  0  0  0  0  0  0  0  0  0  0  0
    0.4200   -6.1250    1.2350 H   0  0  0  0  0  0  0  0  0  0  0  0
    0.6660   -4.8450    2.4360 H   0  0  0  0  0  0  0  0  0  0  0  0
   -0.9080   -5.6650    2.4060 H   0  0  0  0  0  0  0  0  0  0  0  0
   -0.5060   -4.7330   -0.2780 H   0  0  0  0  0  0  0  0  0  0  0  0
   -2.1400   -4.1160    1.9660 H   0  0  0  0  0  0  0  0  0  0  0  0
    1.3300   -3.3310    0.6930 H   0  0  0  0  0  0  0  0  0  0  0  0
   -0.8450   -2.3590    2.4220 H   0  0  0  0  0  0  0  0  0  0  0  0
    0.7070   -1.7250    2.4270 H   0  0  0  0  0  0  0  0  0  0  0  0
   -0.6310   -0.7400    0.3970 N   0  0  0  0  0  0  0  0  0  0  0  0
   -1.0660    0.2940   -0.4910 C   0  0  1  0  0  0  0  0  0  0  0  0
   -2.4790    0.7520   -0.2280 C   0  0  0  0  0  0  0  0  0  0  0  0
   -2.8660    2.0580   -1.4360 S   0  0  0  0  0  0  0  0  0  0  0  0
   -0.1850    1.4860   -0.3570 C   0  0  0  0  0  0  0  0  0  0  0  0
   -0.3550    2.5290   -1.0280 O   0  0  0  0  0  0  0  0  0  0  0  0
   -0.6590   -0.5870    1.4280 H   0  0  0  0  0  0  0  0  0  0  0  0
   -0.9680   -0.0380   -1.5550 H   0  0  0  0  0  0  0  0  0  0  0  0
   -2.4920    1.2290    0.7680 H   0  0  0  0  0  0  0  0  0  0  0  0
   -3.2240   -0.0340   -0.3510 H   0  0  0  0  0  0  0  0  0  0  0  0
   -2.0670    1.9520   -2.5860 H   0  0  0  0  0  0  0  0  0  0  0  0
    0.9230    1.5050    0.5620 N   0  0  0  0  0  0  0  0  0  0  0  0
    1.7870    2.6520    0.7050 C   0  0  1  0  0  0  0  0  0  0  0  0
    1.8250    3.1520    2.1340 C   0  0  0  0  0  0  0  0  0  0  0  0
    2.4370    1.8280    3.1840 S   0  0  0  0  0  0  0  0  0  0  0  0
    3.1670    2.2390    0.3530 C   0  0  0  0  0  0  0  0  0  0  0  0
    4.1330    3.0600    0.3940 O   0  0  0  0  0  0  0  0  0  0  0  0
    3.4220    0.9510   -0.0260 O   0  0  0  0  0  0  0  0  0  0  0  0
    1.0890    0.6490    1.1350 H   0  0  0  0  0  0  0  0  0  0  0  0
    1.4430    3.4580    0.0080 H   0  0  0  0  0  0  0  0  0  0  0  0
    2.5380    3.9950    2.1800 H   0  0  0  0  0  0  0  0  0  0  0  0
    0.8250    3.5280    2.4640 H   0  0  0  0  0  0  0  0  0  0  0  0
    1.3530    1.1260    3.7480 H   0  0  0  0  0  0  0  0  0  0  0  0
  1 10  1  0  0  0  0
  1  9  1  0  0  0  0
  2 11  1  6  0  0  0
  2  4  1  0  0  0  0
  2  3  1  0  0  0  0
  2  1  1  0  0  0  0
  3 12  1  0  0  0  0
  4 13  1  6  0  0  0
  4  5  1  0  0  0  0
  5 14  1  0  0  0  0
  5 15  1  0  0  0  0
  6 16  1  0  0  0  0
  6  4  1  0  0  0  0
  7  6  2  0  0  0  0
  8  1  1  0  0  0  0
 16 22  1  0  0  0  0
 17 23  1  6  0  0  0
 17 20  1  0  0  0  0
 17 18  1  0  0  0  0
 17 16  1  0  0  0  0
 18 24  1  0  0  0  0
 19 18  1  0  0  0  0
 20 27  1  0  0  0  0
 21 20  2  0  0  0  0
 25 18  1  0  0  0  0
 26 19  1  0  0  0  0
 27 28  1  0  0  0  0
 27 34  1  0  0  0  0
 28 35  1  6  0  0  0
 28 29  1  0  0  0  0
 29 36  1  0  0  0  0
 29 37  1  0  0  0  0
 29 30  1  0  0  0  0
 30 38  1  0  0  0  0
 31 32  1  0  0  0  0
 31 28  1  0  0  0  0
 33 31  2  0  0  0  0
M  END
$$$$
