TCD.pdb
 OpenBabel07022419123D

 40 39  0  0  1  0  0  0  0  0999 V2000
   -0.0300   -6.2220   -0.5630 C   0  0  0  0  0  0  0  0  0  0  0  0
    0.2230   -4.7700   -0.8150 C   0  0  1  0  0  0  0  0  0  0  0  0
   -0.6660   -4.2580   -1.7540 O   0  0  0  0  0  0  0  0  0  0  0  0
    0.1640   -3.9720    0.4670 C   0  0  2  0  0  0  0  0  0  0  0  0
   -1.1370   -3.9870    1.0620 N   0  0  0  0  0  0  0  0  0  0  0  0
    0.6000   -2.5770    0.1140 C   0  0  0  0  0  0  0  0  0  0  0  0
    1.7070   -2.3910   -0.4120 O   0  0  0  0  0  0  0  0  0  0  0  0
   -0.4810   -6.6900   -1.4730 H   0  0  0  0  0  0  0  0  0  0  0  0
    0.9420   -6.7250   -0.4100 H   0  0  0  0  0  0  0  0  0  0  0  0
   -0.7160   -6.3420    0.3010 H   0  0  0  0  0  0  0  0  0  0  0  0
    1.2490   -4.6500   -1.2380 H   0  0  0  0  0  0  0  0  0  0  0  0
   -1.5930   -4.3550   -1.3800 H   0  0  0  0  0  0  0  0  0  0  0  0
    0.8820   -4.4060    1.1760 H   0  0  0  0  0  0  0  0  0  0  0  0
   -1.8710   -3.4970    0.5230 H   0  0  0  0  0  0  0  0  0  0  0  0
   -1.1170   -3.7750    2.0730 H   0  0  0  0  0  0  0  0  0  0  0  0
   -0.2310   -1.4760    0.3720 N   0  0  0  0  0  0  0  0  0  0  0  0
    0.1840   -0.1250    0.0330 C   0  0  1  0  0  0  0  0  0  0  0  0
   -0.7860    0.4200   -1.0010 C   0  0  0  0  0  0  0  0  0  0  0  0
   -0.3720    2.0990   -1.5160 S   0  0  0  0  0  0  0  0  0  0  0  0
    0.1930    0.6580    1.2880 C   0  0  0  0  0  0  0  0  0  0  0  0
   -0.2080    0.0860    2.3490 O   0  0  0  0  0  0  0  0  0  0  0  0
   -1.1570   -1.6070    0.8090 H   0  0  0  0  0  0  0  0  0  0  0  0
    1.1980   -0.1620   -0.4260 H   0  0  0  0  0  0  0  0  0  0  0  0
   -1.8200    0.4570   -0.5790 H   0  0  0  0  0  0  0  0  0  0  0  0
   -0.7930   -0.2590   -1.8770 H   0  0  0  0  0  0  0  0  0  0  0  0
   -0.1200    2.1080   -2.9120 H   0  0  0  0  0  0  0  0  0  0  0  0
    0.6130    2.0050    1.4210 N   0  0  0  0  0  0  0  0  0  0  0  0
    0.5960    2.7120    2.6930 C   0  0  1  0  0  0  0  0  0  0  0  0
    1.9450    3.3320    2.9250 C   0  0  0  0  0  0  0  0  0  0  0  0
    2.9770    2.2810    2.9590 C   0  0  0  0  0  0  0  0  0  0  0  0
    2.6480    1.0870    2.8030 O   0  0  0  0  0  0  0  0  0  0  0  0
   -0.4840    3.7460    2.7040 C   0  0  0  0  0  0  0  0  0  0  0  0
   -0.6670    4.4670    3.7120 O   0  0  0  0  0  0  0  0  0  0  0  0
    4.3270    2.5430    3.1570 O   0  0  0  0  0  0  0  0  0  0  0  0
   -1.3060    3.9330    1.6080 O   0  0  0  0  0  0  0  0  0  0  0  0
    0.9500    2.4810    0.5590 H   0  0  0  0  0  0  0  0  0  0  0  0
    0.3690    2.0460    3.5430 H   0  0  0  0  0  0  0  0  0  0  0  0
    2.2050    4.0750    2.1400 H   0  0  0  0  0  0  0  0  0  0  0  0
    1.9860    3.8400    3.9220 H   0  0  0  0  0  0  0  0  0  0  0  0
    5.0300    1.9960    2.6870 H   0  0  0  0  0  0  0  0  0  0  0  0
  1  9  1  0  0  0  0
  1 10  1  0  0  0  0
  2 11  1  6  0  0  0
  2  1  1  0  0  0  0
  2  4  1  0  0  0  0
  3 12  1  0  0  0  0
  3  2  1  0  0  0  0
  4  5  1  0  0  0  0
  4 13  1  1  0  0  0
  5 15  1  0  0  0  0
  6 16  1  0  0  0  0
  6  4  1  0  0  0  0
  7  6  2  0  0  0  0
  8  1  1  0  0  0  0
 14  5  1  0  0  0  0
 16 22  1  0  0  0  0
 17 23  1  6  0  0  0
 17 16  1  0  0  0  0
 17 20  1  0  0  0  0
 18 24  1  0  0  0  0
 18 17  1  0  0  0  0
 19 18  1  0  0  0  0
 20 27  1  0  0  0  0
 20 21  2  0  0  0  0
 25 18  1  0  0  0  0
 26 19  1  0  0  0  0
 27 28  1  0  0  0  0
 28 32  1  0  0  0  0
 28 29  1  0  0  0  0
 28 37  1  1  0  0  0
 29 30  1  0  0  0  0
 29 39  1  0  0  0  0
 30 34  1  0  0  0  0
 31 30  2  0  0  0  0
 32 33  1  0  0  0  0
 35 32  2  0  0  0  0
 36 27  1  0  0  0  0
 38 29  1  0  0  0  0
 40 34  1  0  0  0  0
M  END
$$$$
