TCE.pdb
 OpenBabel07022419123D

 43 42  0  0  1  0  0  0  0  0999 V2000
    2.9960   -3.8290    2.2830 C   0  0  0  0  0  0  0  0  0  0  0  0
    2.4340   -2.7070    1.4340 C   0  0  1  0  0  0  0  0  0  0  0  0
    3.3380   -1.6820    1.2270 O   0  0  0  0  0  0  0  0  0  0  0  0
    1.9460   -3.3280    0.1460 C   0  0  2  0  0  0  0  0  0  0  0  0
    3.1110   -3.8540   -0.5390 N   0  0  0  0  0  0  0  0  0  0  0  0
    1.2620   -2.3870   -0.7350 C   0  0  0  0  0  0  0  0  0  0  0  0
    1.7010   -2.1430   -1.8930 O   0  0  0  0  0  0  0  0  0  0  0  0
    3.7000   -3.4640    3.0580 H   0  0  0  0  0  0  0  0  0  0  0  0
    2.1370   -4.3630    2.7390 H   0  0  0  0  0  0  0  0  0  0  0  0
    3.4730   -4.5580    1.5920 H   0  0  0  0  0  0  0  0  0  0  0  0
    1.5230   -2.3360    1.9670 H   0  0  0  0  0  0  0  0  0  0  0  0
    4.2050   -2.1020    0.9970 H   0  0  0  0  0  0  0  0  0  0  0  0
    1.3310   -4.2070    0.4340 H   0  0  0  0  0  0  0  0  0  0  0  0
    3.4560   -3.1920   -1.2720 H   0  0  0  0  0  0  0  0  0  0  0  0
    2.8540   -4.7300   -1.0410 H   0  0  0  0  0  0  0  0  0  0  0  0
    0.0720   -1.6780   -0.3800 N   0  0  0  0  0  0  0  0  0  0  0  0
   -0.6100   -0.7520   -1.2350 C   0  0  1  0  0  0  0  0  0  0  0  0
   -2.0430   -1.0790   -1.4760 C   0  0  0  0  0  0  0  0  0  0  0  0
   -2.7260    0.2070   -2.5780 S   0  0  0  0  0  0  0  0  0  0  0  0
   -0.5540    0.5900   -0.5570 C   0  0  0  0  0  0  0  0  0  0  0  0
   -1.0850    1.5930   -1.1050 O   0  0  0  0  0  0  0  0  0  0  0  0
   -0.3130   -1.8590    0.5680 H   0  0  0  0  0  0  0  0  0  0  0  0
   -0.1030   -0.6490   -2.2150 H   0  0  0  0  0  0  0  0  0  0  0  0
   -2.6670   -1.0620   -0.5640 H   0  0  0  0  0  0  0  0  0  0  0  0
   -2.1150   -2.0340   -2.0350 H   0  0  0  0  0  0  0  0  0  0  0  0
   -1.7090    0.8300   -3.3180 H   0  0  0  0  0  0  0  0  0  0  0  0
    0.0790    0.7850    0.6890 N   0  0  0  0  0  0  0  0  0  0  0  0
    0.1330    2.0900    1.3460 C   0  0  1  0  0  0  0  0  0  0  0  0
   -0.3560    2.0040    2.7520 C   0  0  0  0  0  0  0  0  0  0  0  0
   -1.7570    1.5360    2.9260 C   0  0  0  0  0  0  0  0  0  0  0  0
   -2.7760    2.3870    2.2770 C   0  0  0  0  0  0  0  0  0  0  0  0
   -2.4070    3.4100    1.6610 O   0  0  0  0  0  0  0  0  0  0  0  0
    1.5580    2.5680    1.4060 C   0  0  0  0  0  0  0  0  0  0  0  0
    1.8340    3.6740    1.9340 O   0  0  0  0  0  0  0  0  0  0  0  0
   -4.1270    2.1060    2.3180 O   0  0  0  0  0  0  0  0  0  0  0  0
    2.6010    1.8150    0.8890 O   0  0  0  0  0  0  0  0  0  0  0  0
    0.5170   -0.0640    1.1300 H   0  0  0  0  0  0  0  0  0  0  0  0
   -0.3860    2.8040    0.6980 H   0  0  0  0  0  0  0  0  0  0  0  0
   -0.2890    3.0300    3.1910 H   0  0  0  0  0  0  0  0  0  0  0  0
    0.3040    1.2920    3.2920 H   0  0  0  0  0  0  0  0  0  0  0  0
   -1.9290    0.5010    2.5640 H   0  0  0  0  0  0  0  0  0  0  0  0
   -1.9450    1.4870    4.0310 H   0  0  0  0  0  0  0  0  0  0  0  0
   -4.7820    2.4530    1.6010 H   0  0  0  0  0  0  0  0  0  0  0  0
  1  9  1  0  0  0  0
  1  8  1  0  0  0  0
  2 11  1  1  0  0  0
  2  1  1  0  0  0  0
  3  2  1  0  0  0  0
  4 13  1  1  0  0  0
  4  2  1  0  0  0  0
  5  4  1  0  0  0  0
  6 16  1  0  0  0  0
  6  4  1  0  0  0  0
  7  6  2  0  0  0  0
 10  1  1  0  0  0  0
 12  3  1  0  0  0  0
 14  5  1  0  0  0  0
 15  5  1  0  0  0  0
 16 22  1  0  0  0  0
 17 23  1  6  0  0  0
 17 20  1  0  0  0  0
 17 16  1  0  0  0  0
 18 17  1  0  0  0  0
 18 24  1  0  0  0  0
 19 18  1  0  0  0  0
 20 27  1  0  0  0  0
 21 20  2  0  0  0  0
 25 18  1  0  0  0  0
 26 19  1  0  0  0  0
 27 37  1  0  0  0  0
 27 28  1  0  0  0  0
 28 38  1  6  0  0  0
 28 33  1  0  0  0  0
 28 29  1  0  0  0  0
 29 30  1  0  0  0  0
 29 39  1  0  0  0  0
 29 40  1  0  0  0  0
 30 42  1  0  0  0  0
 31 35  1  0  0  0  0
 31 30  1  0  0  0  0
 32 31  2  0  0  0  0
 33 34  1  0  0  0  0
 36 33  2  0  0  0  0
 41 30  1  0  0  0  0
 43 35  1  0  0  0  0
M  END
$$$$
