TCG.pdb
 OpenBabel07022419123D

 34 33  0  0  1  0  0  0  0  0999 V2000
   -2.2870   -2.9420    3.0100 C   0  0  0  0  0  0  0  0  0  0  0  0
   -1.2980   -2.1490    2.1880 C   0  0  1  0  0  0  0  0  0  0  0  0
   -0.0970   -2.1360    2.9280 O   0  0  0  0  0  0  0  0  0  0  0  0
   -0.9710   -2.8580    0.8850 C   0  0  2  0  0  0  0  0  0  0  0  0
   -0.5090   -4.2110    1.1240 N   0  0  0  0  0  0  0  0  0  0  0  0
    0.0830   -2.1490    0.1290 C   0  0  0  0  0  0  0  0  0  0  0  0
    1.1750   -2.7210   -0.2080 O   0  0  0  0  0  0  0  0  0  0  0  0
   -3.2640   -2.4330    2.9670 H   0  0  0  0  0  0  0  0  0  0  0  0
   -2.0060   -3.0040    4.0790 H   0  0  0  0  0  0  0  0  0  0  0  0
   -2.4270   -3.9710    2.6280 H   0  0  0  0  0  0  0  0  0  0  0  0
   -1.6490   -1.1320    1.9490 H   0  0  0  0  0  0  0  0  0  0  0  0
    0.2000   -3.0940    2.9340 H   0  0  0  0  0  0  0  0  0  0  0  0
   -1.9230   -2.9320    0.3170 H   0  0  0  0  0  0  0  0  0  0  0  0
   -1.3070   -4.9010    1.0860 H   0  0  0  0  0  0  0  0  0  0  0  0
    0.1560   -4.5310    0.3700 H   0  0  0  0  0  0  0  0  0  0  0  0
   -0.0360   -0.7920   -0.2780 N   0  0  0  0  0  0  0  0  0  0  0  0
    0.9900   -0.1220   -1.0080 C   0  0  1  0  0  0  0  0  0  0  0  0
    0.5240    0.3900   -2.3520 C   0  0  0  0  0  0  0  0  0  0  0  0
    1.8600    1.2270   -3.2310 S   0  0  0  0  0  0  0  0  0  0  0  0
    1.5440    0.9950   -0.1990 C   0  0  0  0  0  0  0  0  0  0  0  0
    2.4610    1.7470   -0.6080 O   0  0  0  0  0  0  0  0  0  0  0  0
   -0.9150   -0.2960   -0.0200 H   0  0  0  0  0  0  0  0  0  0  0  0
    1.8460   -0.8270   -1.1840 H   0  0  0  0  0  0  0  0  0  0  0  0
   -0.2990    1.1130   -2.2280 H   0  0  0  0  0  0  0  0  0  0  0  0
    0.1870   -0.4510   -2.9920 H   0  0  0  0  0  0  0  0  0  0  0  0
    1.3760    2.1910   -4.1450 H   0  0  0  0  0  0  0  0  0  0  0  0
    1.0240    1.2510    1.1170 N   0  0  0  0  0  0  0  0  0  0  0  0
    1.5260    2.3270    1.9500 C   0  0  0  0  0  0  0  0  0  0  0  0
    1.2990    3.5970    1.2160 C   0  0  0  0  0  0  0  0  0  0  0  0
    1.6400    4.7180    1.7000 O   0  0  0  0  0  0  0  0  0  0  0  0
    0.7050    3.6240   -0.0340 O   0  0  0  0  0  0  0  0  0  0  0  0
    0.2510    0.6030    1.4390 H   0  0  0  0  0  0  0  0  0  0  0  0
    2.5940    2.1710    2.2030 H   0  0  0  0  0  0  0  0  0  0  0  0
    0.9040    2.3550    2.8570 H   0  0  0  0  0  0  0  0  0  0  0  0
  1  9  1  0  0  0  0
  2 11  1  6  0  0  0
  2  3  1  0  0  0  0
  2  1  1  0  0  0  0
  3 12  1  0  0  0  0
  4 13  1  6  0  0  0
  4  5  1  0  0  0  0
  4  2  1  0  0  0  0
  6  4  1  0  0  0  0
  7  6  2  0  0  0  0
  8  1  1  0  0  0  0
 10  1  1  0  0  0  0
 14  5  1  0  0  0  0
 15  5  1  0  0  0  0
 16 22  1  0  0  0  0
 16  6  1  0  0  0  0
 17 23  1  6  0  0  0
 17 16  1  0  0  0  0
 17 20  1  0  0  0  0
 18 24  1  0  0  0  0
 18 17  1  0  0  0  0
 19 18  1  0  0  0  0
 20 27  1  0  0  0  0
 21 20  2  0  0  0  0
 25 18  1  0  0  0  0
 26 19  1  0  0  0  0
 27 32  1  0  0  0  0
 27 28  1  0  0  0  0
 28 33  1  0  0  0  0
 28 34  1  0  0  0  0
 29 30  1  0  0  0  0
 29 28  1  0  0  0  0
 31 29  2  0  0  0  0
M  END
$$$$
