TCH.pdb
 OpenBabel07022419123D

 44 44  0  0  1  0  0  0  0  0999 V2000
   -0.7960   -3.8280   -3.0120 C   0  0  0  0  0  0  0  0  0  0  0  0
   -1.6970   -3.2660   -1.9240 C   0  0  1  0  0  0  0  0  0  0  0  0
   -2.5160   -4.3130   -1.5090 O   0  0  0  0  0  0  0  0  0  0  0  0
   -0.8460   -2.7540   -0.7580 C   0  0  2  0  0  0  0  0  0  0  0  0
   -1.7660   -2.3050    0.2510 N   0  0  0  0  0  0  0  0  0  0  0  0
   -0.0400   -1.5940   -1.1980 C   0  0  0  0  0  0  0  0  0  0  0  0
    0.8600   -1.6790   -2.0840 O   0  0  0  0  0  0  0  0  0  0  0  0
   -1.4810   -4.3720   -3.7120 H   0  0  0  0  0  0  0  0  0  0  0  0
   -0.3690   -2.9940   -3.5860 H   0  0  0  0  0  0  0  0  0  0  0  0
   -0.0280   -4.5060   -2.6110 H   0  0  0  0  0  0  0  0  0  0  0  0
   -2.2590   -2.4270   -2.3740 H   0  0  0  0  0  0  0  0  0  0  0  0
   -3.3460   -3.9930   -1.0860 H   0  0  0  0  0  0  0  0  0  0  0  0
   -0.2300   -3.5930   -0.3850 H   0  0  0  0  0  0  0  0  0  0  0  0
   -1.2490   -2.0310    1.1230 H   0  0  0  0  0  0  0  0  0  0  0  0
   -2.5090   -2.9990    0.4870 H   0  0  0  0  0  0  0  0  0  0  0  0
   -0.2400   -0.2900   -0.6350 N   0  0  0  0  0  0  0  0  0  0  0  0
    0.5460    0.8420   -1.0650 C   0  0  1  0  0  0  0  0  0  0  0  0
   -0.3260    1.9370   -1.6570 C   0  0  0  0  0  0  0  0  0  0  0  0
   -1.2460    1.3610   -3.0850 S   0  0  0  0  0  0  0  0  0  0  0  0
    1.3570    1.4170    0.0330 C   0  0  0  0  0  0  0  0  0  0  0  0
    2.0800    2.4050   -0.2310 O   0  0  0  0  0  0  0  0  0  0  0  0
   -0.9790   -0.1920    0.0990 H   0  0  0  0  0  0  0  0  0  0  0  0
    1.2600    0.5020   -1.8440 H   0  0  0  0  0  0  0  0  0  0  0  0
    0.3700    2.7390   -1.9940 H   0  0  0  0  0  0  0  0  0  0  0  0
   -0.9780    2.3690   -0.8760 H   0  0  0  0  0  0  0  0  0  0  0  0
   -0.4490    0.4580   -3.8090 H   0  0  0  0  0  0  0  0  0  0  0  0
    1.3700    0.9220    1.3680 N   0  0  0  0  0  0  0  0  0  0  0  0
    2.1910    1.5520    2.3580 C   0  0  1  0  0  0  0  0  0  0  0  0
    1.4920    2.0610    3.5630 C   0  0  0  0  0  0  0  0  0  0  0  0
    0.7990    1.0800    4.3940 C   0  0  0  0  0  0  0  0  0  0  0  0
    0.7310   -0.2710    4.2940 C   0  0  0  0  0  0  0  0  0  0  0  0
   -0.0150   -0.7540    5.3300 N   0  0  0  0  0  0  0  0  0  0  0  0
   -0.4030    0.3010    6.0650 C   0  0  0  0  0  0  0  0  0  0  0  0
    0.0800    1.4140    5.5140 N   0  0  0  0  0  0  0  0  0  0  0  0
    3.3410    0.6600    2.7430 C   0  0  0  0  0  0  0  0  0  0  0  0
    4.1290    1.1140    3.6100 O   0  0  0  0  0  0  0  0  0  0  0  0
    3.5560   -0.5820    2.2070 O   0  0  0  0  0  0  0  0  0  0  0  0
    0.7640    0.1070    1.5720 H   0  0  0  0  0  0  0  0  0  0  0  0
    2.7060    2.4360    1.8780 H   0  0  0  0  0  0  0  0  0  0  0  0
    2.2400    2.5980    4.2210 H   0  0  0  0  0  0  0  0  0  0  0  0
    0.7550    2.8610    3.2870 H   0  0  0  0  0  0  0  0  0  0  0  0
    1.1640   -0.9300    3.5730 H   0  0  0  0  0  0  0  0  0  0  0  0
   -0.2410   -1.7400    5.5170 H   0  0  0  0  0  0  0  0  0  0  0  0
   -1.0120    0.2050    6.9550 H   0  0  0  0  0  0  0  0  0  0  0  0
  1 10  1  0  0  0  0
  1  2  1  0  0  0  0
  2 11  1  6  0  0  0
  2  3  1  0  0  0  0
  2  4  1  0  0  0  0
  3 12  1  0  0  0  0
  4 13  1  1  0  0  0
  4  5  1  0  0  0  0
  5 15  1  0  0  0  0
  5 14  1  0  0  0  0
  6  4  1  0  0  0  0
  6 16  1  0  0  0  0
  7  6  2  0  0  0  0
  8  1  1  0  0  0  0
  9  1  1  0  0  0  0
 16 22  1  0  0  0  0
 17 23  1  6  0  0  0
 17 16  1  0  0  0  0
 17 20  1  0  0  0  0
 18 17  1  0  0  0  0
 18 25  1  0  0  0  0
 19 18  1  0  0  0  0
 20 27  1  0  0  0  0
 21 20  2  0  0  0  0
 24 18  1  0  0  0  0
 26 19  1  0  0  0  0
 27 38  1  0  0  0  0
 27 28  1  0  0  0  0
 28 39  1  6  0  0  0
 28 35  1  0  0  0  0
 28 29  1  0  0  0  0
 29 40  1  0  0  0  0
 29 30  1  0  0  0  0
 30 34  1  0  0  0  0
 31 30  2  0  0  0  0
 31 32  1  0  0  0  0
 32 43  1  0  0  0  0
 32 33  1  0  0  0  0
 33 44  1  0  0  0  0
 34 33  2  0  0  0  0
 35 36  1  0  0  0  0
 37 35  2  0  0  0  0
 41 29  1  0  0  0  0
 42 31  1  0  0  0  0
M  END
$$$$
