TCI.pdb
 OpenBabel07022419123D

 46 45  0  0  1  0  0  0  0  0999 V2000
    4.4950   -1.6430    0.6060 C   0  0  0  0  0  0  0  0  0  0  0  0
    3.1590   -1.0650    0.1980 C   0  0  1  0  0  0  0  0  0  0  0  0
    3.1730    0.2910    0.5100 O   0  0  0  0  0  0  0  0  0  0  0  0
    2.9830   -1.2840   -1.2770 C   0  0  2  0  0  0  0  0  0  0  0  0
    4.0840   -0.6520   -1.9720 N   0  0  0  0  0  0  0  0  0  0  0  0
    1.6860   -0.7390   -1.7720 C   0  0  0  0  0  0  0  0  0  0  0  0
    1.6840    0.1440   -2.6680 O   0  0  0  0  0  0  0  0  0  0  0  0
    4.8690   -2.3290   -0.1830 H   0  0  0  0  0  0  0  0  0  0  0  0
    4.4250   -2.2050    1.5670 H   0  0  0  0  0  0  0  0  0  0  0  0
    5.2210   -0.8250    0.7760 H   0  0  0  0  0  0  0  0  0  0  0  0
    2.3880   -1.6110    0.7960 H   0  0  0  0  0  0  0  0  0  0  0  0
    3.5200    0.4830    1.3990 H   0  0  0  0  0  0  0  0  0  0  0  0
    2.9960   -2.3760   -1.4770 H   0  0  0  0  0  0  0  0  0  0  0  0
    4.7990   -0.2830   -1.2860 H   0  0  0  0  0  0  0  0  0  0  0  0
    3.7450    0.1300   -2.6050 H   0  0  0  0  0  0  0  0  0  0  0  0
    0.4360   -1.1750   -1.2730 N   0  0  0  0  0  0  0  0  0  0  0  0
   -0.8410   -0.6800   -1.7180 C   0  0  1  0  0  0  0  0  0  0  0  0
   -1.7030   -1.7730   -2.3100 C   0  0  0  0  0  0  0  0  0  0  0  0
   -0.8470   -2.5000   -3.7350 S   0  0  0  0  0  0  0  0  0  0  0  0
   -1.5190   -0.0040   -0.5800 C   0  0  0  0  0  0  0  0  0  0  0  0
   -2.6630    0.5220   -0.6960 O   0  0  0  0  0  0  0  0  0  0  0  0
    0.4680   -1.9140   -0.5250 H   0  0  0  0  0  0  0  0  0  0  0  0
   -0.7130    0.0910   -2.5050 H   0  0  0  0  0  0  0  0  0  0  0  0
   -1.8880   -2.5970   -1.5900 H   0  0  0  0  0  0  0  0  0  0  0  0
   -2.6360   -1.3190   -2.6910 H   0  0  0  0  0  0  0  0  0  0  0  0
   -0.8870   -1.6490   -4.8610 H   0  0  0  0  0  0  0  0  0  0  0  0
   -3.1840   -0.6780    4.9500 C   0  0  0  0  0  0  0  0  0  0  0  0
   -2.5980    0.4580    4.0980 C   0  0  0  0  0  0  0  0  0  0  0  0
   -1.9280   -0.2150    2.9200 C   0  0  2  0  0  0  0  0  0  0  0  0
   -0.8580   -1.1250    3.3810 C   0  0  0  0  0  0  0  0  0  0  0  0
   -1.5700    0.7540    1.8440 C   0  0  2  0  0  0  0  0  0  0  0  0
   -0.9240    0.0960    0.7110 N   0  0  0  0  0  0  0  0  0  0  0  0
   -0.8500    1.9660    2.2670 C   0  0  0  0  0  0  0  0  0  0  0  0
    0.2230    2.3660    1.7010 O   0  0  0  0  0  0  0  0  0  0  0  0
   -1.2660    2.7790    3.3110 O   0  0  0  0  0  0  0  0  0  0  0  0
   -2.5600   -1.5900    4.8710 H   0  0  0  0  0  0  0  0  0  0  0  0
   -4.1980   -0.9450    4.6070 H   0  0  0  0  0  0  0  0  0  0  0  0
   -3.1520   -0.3720    6.0200 H   0  0  0  0  0  0  0  0  0  0  0  0
   -3.3950    1.1150    3.6990 H   0  0  0  0  0  0  0  0  0  0  0  0
   -1.8280    1.0000    4.6870 H   0  0  0  0  0  0  0  0  0  0  0  0
   -2.7400   -0.8730    2.4790 H   0  0  0  0  0  0  0  0  0  0  0  0
    0.0640   -1.1300    2.7830 H   0  0  0  0  0  0  0  0  0  0  0  0
   -0.5710   -0.8380    4.4270 H   0  0  0  0  0  0  0  0  0  0  0  0
   -1.1940   -2.1810    3.4540 H   0  0  0  0  0  0  0  0  0  0  0  0
   -2.5510    1.1110    1.4420 H   0  0  0  0  0  0  0  0  0  0  0  0
    0.0320   -0.3460    0.8000 H   0  0  0  0  0  0  0  0  0  0  0  0
  1 10  1  0  0  0  0
  1  9  1  0  0  0  0
  2  3  1  0  0  0  0
  2  1  1  0  0  0  0
  2 11  1  1  0  0  0
  3 12  1  0  0  0  0
  4 13  1  6  0  0  0
  4  2  1  0  0  0  0
  5 14  1  0  0  0  0
  5  4  1  0  0  0  0
  6  4  1  0  0  0  0
  6 16  1  0  0  0  0
  7  6  2  0  0  0  0
  8  1  1  0  0  0  0
 15  5  1  0  0  0  0
 16 22  1  0  0  0  0
 17 23  1  6  0  0  0
 17 16  1  0  0  0  0
 17 20  1  0  0  0  0
 18 17  1  0  0  0  0
 18 24  1  0  0  0  0
 19 18  1  0  0  0  0
 20 32  1  0  0  0  0
 21 20  2  0  0  0  0
 25 18  1  0  0  0  0
 26 19  1  0  0  0  0
 27 38  1  0  0  0  0
 28 40  1  0  0  0  0
 28 27  1  0  0  0  0
 29 41  1  6  0  0  0
 29 30  1  0  0  0  0
 29 28  1  0  0  0  0
 30 44  1  0  0  0  0
 30 43  1  0  0  0  0
 31 45  1  6  0  0  0
 31 33  1  0  0  0  0
 31 29  1  0  0  0  0
 32 46  1  0  0  0  0
 32 31  1  0  0  0  0
 33 35  1  0  0  0  0
 34 33  2  0  0  0  0
 36 27  1  0  0  0  0
 37 27  1  0  0  0  0
 39 28  1  0  0  0  0
 42 30  1  0  0  0  0
M  END
$$$$
