TCK.pdb
 OpenBabel07022419123D

 48 47  0  0  1  0  0  0  0  0999 V2000
    1.3950   -4.8570    1.3120 C   0  0  0  0  0  0  0  0  0  0  0  0
    1.5820   -3.3690    1.1160 C   0  0  1  0  0  0  0  0  0  0  0  0
    1.6820   -2.7390    2.3470 O   0  0  0  0  0  0  0  0  0  0  0  0
    2.8250   -3.1420    0.2820 C   0  0  2  0  0  0  0  0  0  0  0  0
    4.0090   -3.6580    0.9430 N   0  0  0  0  0  0  0  0  0  0  0  0
    3.0600   -1.7070    0.0170 C   0  0  0  0  0  0  0  0  0  0  0  0
    4.1360   -1.1110    0.3440 O   0  0  0  0  0  0  0  0  0  0  0  0
    2.2720   -5.3210    1.8090 H   0  0  0  0  0  0  0  0  0  0  0  0
    0.5280   -5.0510    1.9800 H   0  0  0  0  0  0  0  0  0  0  0  0
    1.1490   -5.3390    0.3370 H   0  0  0  0  0  0  0  0  0  0  0  0
    0.7130   -2.9990    0.5400 H   0  0  0  0  0  0  0  0  0  0  0  0
    2.4880   -3.0770    2.8090 H   0  0  0  0  0  0  0  0  0  0  0  0
    2.6980   -3.7340   -0.6510 H   0  0  0  0  0  0  0  0  0  0  0  0
    4.8240   -3.3690    0.3460 H   0  0  0  0  0  0  0  0  0  0  0  0
    3.9620   -4.7120    0.8400 H   0  0  0  0  0  0  0  0  0  0  0  0
    2.0870   -0.8700   -0.6320 N   0  0  0  0  0  0  0  0  0  0  0  0
    2.3210    0.5240   -0.8860 C   0  0  1  0  0  0  0  0  0  0  0  0
    2.2780    0.8560   -2.3610 C   0  0  0  0  0  0  0  0  0  0  0  0
    2.5690    2.5920   -2.6910 S   0  0  0  0  0  0  0  0  0  0  0  0
    1.3330    1.3240   -0.1170 C   0  0  0  0  0  0  0  0  0  0  0  0
    1.3120    2.5880   -0.1570 O   0  0  0  0  0  0  0  0  0  0  0  0
    1.1930   -1.3300   -0.9120 H   0  0  0  0  0  0  0  0  0  0  0  0
    3.3310    0.7700   -0.4990 H   0  0  0  0  0  0  0  0  0  0  0  0
    1.3010    0.5800   -2.8100 H   0  0  0  0  0  0  0  0  0  0  0  0
    3.0460    0.2700   -2.9050 H   0  0  0  0  0  0  0  0  0  0  0  0
    1.6870    3.1330   -3.6430 H   0  0  0  0  0  0  0  0  0  0  0  0
    0.3390    0.7090    0.7210 N   0  0  0  0  0  0  0  0  0  0  0  0
   -0.6100    1.5230    1.4570 C   0  0  1  0  0  0  0  0  0  0  0  0
   -2.0550    1.2100    1.0240 C   0  0  0  0  0  0  0  0  0  0  0  0
   -2.3600   -0.2370    1.2870 C   0  0  0  0  0  0  0  0  0  0  0  0
   -3.7190   -0.6630    0.8850 C   0  0  0  0  0  0  0  0  0  0  0  0
   -4.8710    0.0130    1.5260 C   0  0  0  0  0  0  0  0  0  0  0  0
   -4.9150    1.4340    1.2660 N   0  0  0  0  0  0  0  0  0  0  0  0
   -0.4450    1.2350    2.9060 C   0  0  0  0  0  0  0  0  0  0  0  0
    0.4210    0.3920    3.3200 O   0  0  0  0  0  0  0  0  0  0  0  0
   -1.2070    1.8530    3.8830 O   0  0  0  0  0  0  0  0  0  0  0  0
    0.3460   -0.3310    0.7630 H   0  0  0  0  0  0  0  0  0  0  0  0
   -0.4270    2.6070    1.2710 H   0  0  0  0  0  0  0  0  0  0  0  0
   -2.1920    1.5080   -0.0180 H   0  0  0  0  0  0  0  0  0  0  0  0
   -2.6980    1.8230    1.7020 H   0  0  0  0  0  0  0  0  0  0  0  0
   -2.2800   -0.3770    2.3930 H   0  0  0  0  0  0  0  0  0  0  0  0
   -1.5990   -0.9140    0.8260 H   0  0  0  0  0  0  0  0  0  0  0  0
   -3.8490   -1.7770    1.0450 H   0  0  0  0  0  0  0  0  0  0  0  0
   -3.8680   -0.5680   -0.2340 H   0  0  0  0  0  0  0  0  0  0  0  0
   -4.9490   -0.1670    2.6210 H   0  0  0  0  0  0  0  0  0  0  0  0
   -5.8470   -0.3850    1.1160 H   0  0  0  0  0  0  0  0  0  0  0  0
   -5.1620    1.5440    0.2430 H   0  0  0  0  0  0  0  0  0  0  0  0
   -5.6690    1.8800    1.8020 H   0  0  0  0  0  0  0  0  0  0  0  0
  1  8  1  0  0  0  0
  1  9  1  0  0  0  0
  2 11  1  6  0  0  0
  2  1  1  0  0  0  0
  2  3  1  0  0  0  0
  3 12  1  0  0  0  0
  4 13  1  6  0  0  0
  4  5  1  0  0  0  0
  4  2  1  0  0  0  0
  6  4  1  0  0  0  0
  6  7  2  0  0  0  0
 10  1  1  0  0  0  0
 14  5  1  0  0  0  0
 15  5  1  0  0  0  0
 16  6  1  0  0  0  0
 17 16  1  0  0  0  0
 17 23  1  1  0  0  0
 17 20  1  0  0  0  0
 18 17  1  0  0  0  0
 19 18  1  0  0  0  0
 20 27  1  0  0  0  0
 21 20  2  0  0  0  0
 22 16  1  0  0  0  0
 24 18  1  0  0  0  0
 25 18  1  0  0  0  0
 26 19  1  0  0  0  0
 27 37  1  0  0  0  0
 27 28  1  0  0  0  0
 28 38  1  6  0  0  0
 28 34  1  0  0  0  0
 29 30  1  0  0  0  0
 29 28  1  0  0  0  0
 29 40  1  0  0  0  0
 30 41  1  0  0  0  0
 31 43  1  0  0  0  0
 31 30  1  0  0  0  0
 31 32  1  0  0  0  0
 32 45  1  0  0  0  0
 33 32  1  0  0  0  0
 33 48  1  0  0  0  0
 34 35  2  0  0  0  0
 34 36  1  0  0  0  0
 39 29  1  0  0  0  0
 42 30  1  0  0  0  0
 44 31  1  0  0  0  0
 46 32  1  0  0  0  0
 47 33  1  0  0  0  0
M  END
$$$$
