TCL.pdb
 OpenBabel07022419123D

 46 45  0  0  1  0  0  0  0  0999 V2000
    1.7830   -5.0060   -0.6680 C   0  0  0  0  0  0  0  0  0  0  0  0
    0.3570   -4.8950   -0.2080 C   0  0  1  0  0  0  0  0  0  0  0  0
    0.0820   -6.0070    0.5840 O   0  0  0  0  0  0  0  0  0  0  0  0
    0.1190   -3.6700    0.6550 C   0  0  2  0  0  0  0  0  0  0  0  0
   -1.2550   -3.6980    1.0730 N   0  0  0  0  0  0  0  0  0  0  0  0
    0.4630   -2.4110   -0.0650 C   0  0  0  0  0  0  0  0  0  0  0  0
    1.6420   -2.2820   -0.4760 O   0  0  0  0  0  0  0  0  0  0  0  0
    1.9770   -4.4080   -1.6000 H   0  0  0  0  0  0  0  0  0  0  0  0
    2.5200   -4.8180    0.1190 H   0  0  0  0  0  0  0  0  0  0  0  0
    1.9310   -6.0760   -0.9820 H   0  0  0  0  0  0  0  0  0  0  0  0
   -0.3080   -4.9160   -1.0850 H   0  0  0  0  0  0  0  0  0  0  0  0
    0.5160   -5.9590    1.4660 H   0  0  0  0  0  0  0  0  0  0  0  0
    0.7450   -3.7720    1.5670 H   0  0  0  0  0  0  0  0  0  0  0  0
   -1.4460   -3.2350    1.9680 H   0  0  0  0  0  0  0  0  0  0  0  0
   -1.9290   -3.5080    0.3230 H   0  0  0  0  0  0  0  0  0  0  0  0
   -0.4630   -1.3710   -0.3050 N   0  0  0  0  0  0  0  0  0  0  0  0
   -0.1620   -0.1550   -0.9920 C   0  0  1  0  0  0  0  0  0  0  0  0
   -0.9540   -0.0200   -2.2770 C   0  0  0  0  0  0  0  0  0  0  0  0
   -0.5510    1.5300   -3.1260 S   0  0  0  0  0  0  0  0  0  0  0  0
   -0.3390    1.0100   -0.0950 C   0  0  0  0  0  0  0  0  0  0  0  0
   -0.1360    2.1870   -0.4650 O   0  0  0  0  0  0  0  0  0  0  0  0
   -1.4450   -1.5360    0.0650 H   0  0  0  0  0  0  0  0  0  0  0  0
    0.9210   -0.1860   -1.2960 H   0  0  0  0  0  0  0  0  0  0  0  0
   -0.5960   -0.8460   -2.9470 H   0  0  0  0  0  0  0  0  0  0  0  0
   -2.0320   -0.1510   -2.1390 H   0  0  0  0  0  0  0  0  0  0  0  0
    0.8290    1.7020   -3.1530 H   0  0  0  0  0  0  0  0  0  0  0  0
    1.4120    1.7780    4.0420 C   0  0  0  0  0  0  0  0  0  0  0  0
    1.4190    2.4580    2.6640 C   0  0  0  0  0  0  0  0  0  0  0  0
    2.1140    1.5410    1.7260 C   0  0  0  0  0  0  0  0  0  0  0  0
    0.0500    2.9220    2.2910 C   0  0  0  0  0  0  0  0  0  0  0  0
   -0.9560    1.8120    2.2140 C   0  0  2  0  0  0  0  0  0  0  0  0
   -0.7590    0.8000    1.2510 N   0  0  0  0  0  0  0  0  0  0  0  0
   -2.3630    2.2380    2.3100 C   0  0  0  0  0  0  0  0  0  0  0  0
   -2.7840    3.1160    3.0870 O   0  0  0  0  0  0  0  0  0  0  0  0
   -3.3010    1.6140    1.4670 O   0  0  0  0  0  0  0  0  0  0  0  0
    2.4140    1.9270    4.4870 H   0  0  0  0  0  0  0  0  0  0  0  0
    1.2550    0.6980    3.9040 H   0  0  0  0  0  0  0  0  0  0  0  0
    0.6590    2.2210    4.7000 H   0  0  0  0  0  0  0  0  0  0  0  0
    2.0820    3.3700    2.7720 H   0  0  0  0  0  0  0  0  0  0  0  0
    2.2810    1.9110    0.7140 H   0  0  0  0  0  0  0  0  0  0  0  0
    3.1710    1.4370    2.1500 H   0  0  0  0  0  0  0  0  0  0  0  0
    1.7340    0.4920    1.7900 H   0  0  0  0  0  0  0  0  0  0  0  0
   -0.2920    3.5730    3.1490 H   0  0  0  0  0  0  0  0  0  0  0  0
    0.0680    3.5800    1.4190 H   0  0  0  0  0  0  0  0  0  0  0  0
   -0.7350    1.2800    3.2230 H   0  0  0  0  0  0  0  0  0  0  0  0
   -0.9300   -0.1980    1.5160 H   0  0  0  0  0  0  0  0  0  0  0  0
  1  2  1  0  0  0  0
  1  9  1  0  0  0  0
  2 11  1  6  0  0  0
  2  3  1  0  0  0  0
  2  4  1  0  0  0  0
  3 12  1  0  0  0  0
  4  5  1  0  0  0  0
  4 13  1  1  0  0  0
  5 14  1  0  0  0  0
  6  4  1  0  0  0  0
  7  6  2  0  0  0  0
  8  1  1  0  0  0  0
 10  1  1  0  0  0  0
 15  5  1  0  0  0  0
 16  6  1  0  0  0  0
 16 22  1  0  0  0  0
 17 23  1  6  0  0  0
 17 16  1  0  0  0  0
 17 20  1  0  0  0  0
 18 25  1  0  0  0  0
 18 17  1  0  0  0  0
 19 18  1  0  0  0  0
 20 32  1  0  0  0  0
 21 20  2  0  0  0  0
 24 18  1  0  0  0  0
 26 19  1  0  0  0  0
 27 36  1  0  0  0  0
 27 38  1  0  0  0  0
 28 39  1  0  0  0  0
 28 27  1  0  0  0  0
 29 42  1  0  0  0  0
 29 41  1  0  0  0  0
 29 28  1  0  0  0  0
 30 28  1  0  0  0  0
 30 43  1  0  0  0  0
 31 30  1  0  0  0  0
 31 33  1  0  0  0  0
 31 45  1  1  0  0  0
 32 46  1  0  0  0  0
 32 31  1  0  0  0  0
 33 34  1  0  0  0  0
 35 33  2  0  0  0  0
 37 27  1  0  0  0  0
 40 29  1  0  0  0  0
 44 30  1  0  0  0  0
M  END
$$$$
