TCQ.pdb
 OpenBabel07022419123D

 44 43  0  0  1  0  0  0  0  0999 V2000
    3.6310   -3.2290   -0.4360 C   0  0  0  0  0  0  0  0  0  0  0  0
    4.0360   -1.7880   -0.4320 C   0  0  1  0  0  0  0  0  0  0  0  0
    4.3660   -1.3870   -1.7270 O   0  0  0  0  0  0  0  0  0  0  0  0
    2.9920   -0.8780    0.1700 C   0  0  2  0  0  0  0  0  0  0  0  0
    2.6900   -1.3320    1.4940 N   0  0  0  0  0  0  0  0  0  0  0  0
    1.7900   -0.7620   -0.6920 C   0  0  0  0  0  0  0  0  0  0  0  0
    1.8840   -0.3740   -1.8840 O   0  0  0  0  0  0  0  0  0  0  0  0
    2.9110   -3.4730    0.3750 H   0  0  0  0  0  0  0  0  0  0  0  0
    4.5320   -3.8480   -0.2620 H   0  0  0  0  0  0  0  0  0  0  0  0
    3.2240   -3.5480   -1.4180 H   0  0  0  0  0  0  0  0  0  0  0  0
    4.9480   -1.6810    0.1920 H   0  0  0  0  0  0  0  0  0  0  0  0
    5.2090   -1.8340   -1.9750 H   0  0  0  0  0  0  0  0  0  0  0  0
    3.4490    0.1290    0.2410 H   0  0  0  0  0  0  0  0  0  0  0  0
    2.6510   -0.5110    2.1370 H   0  0  0  0  0  0  0  0  0  0  0  0
    3.4260   -1.9680    1.8740 H   0  0  0  0  0  0  0  0  0  0  0  0
    0.4710   -1.0730   -0.2450 N   0  0  0  0  0  0  0  0  0  0  0  0
   -0.6910   -0.9610   -1.0810 C   0  0  1  0  0  0  0  0  0  0  0  0
   -1.4190   -2.2730   -1.2470 C   0  0  0  0  0  0  0  0  0  0  0  0
   -0.4020   -3.5440   -1.9900 S   0  0  0  0  0  0  0  0  0  0  0  0
   -1.5800    0.0860   -0.5190 C   0  0  0  0  0  0  0  0  0  0  0  0
   -2.6650    0.3600   -1.1270 O   0  0  0  0  0  0  0  0  0  0  0  0
    0.3900   -1.3960    0.7420 H   0  0  0  0  0  0  0  0  0  0  0  0
   -0.4370   -0.6110   -2.1150 H   0  0  0  0  0  0  0  0  0  0  0  0
   -2.3690   -2.1440   -1.8010 H   0  0  0  0  0  0  0  0  0  0  0  0
   -1.6960   -2.6090   -0.2150 H   0  0  0  0  0  0  0  0  0  0  0  0
    0.8460   -3.0730   -2.3790 H   0  0  0  0  0  0  0  0  0  0  0  0
   -0.6220   -0.8170    4.3440 N   0  0  0  0  0  0  0  0  0  0  0  0
   -1.5880   -0.4540    3.3800 C   0  0  0  0  0  0  0  0  0  0  0  0
   -1.7570   -1.2590    2.4270 O   0  0  0  0  0  0  0  0  0  0  0  0
   -2.3200    0.8140    3.5570 C   0  0  0  0  0  0  0  0  0  0  0  0
   -2.9680    1.3750    2.3560 C   0  0  0  0  0  0  0  0  0  0  0  0
   -2.1220    1.8200    1.2260 C   0  0  2  0  0  0  0  0  0  0  0  0
   -1.2880    0.7970    0.6560 N   0  0  0  0  0  0  0  0  0  0  0  0
   -1.3680    3.0640    1.5040 C   0  0  0  0  0  0  0  0  0  0  0  0
   -1.9490    4.0560    2.0010 O   0  0  0  0  0  0  0  0  0  0  0  0
   -0.0160    3.1680    1.2270 O   0  0  0  0  0  0  0  0  0  0  0  0
   -0.7510   -1.6700    4.9030 H   0  0  0  0  0  0  0  0  0  0  0  0
    0.2100   -0.2240    4.4840 H   0  0  0  0  0  0  0  0  0  0  0  0
   -3.1440    0.6600    4.3220 H   0  0  0  0  0  0  0  0  0  0  0  0
   -1.6300    1.5210    4.0730 H   0  0  0  0  0  0  0  0  0  0  0  0
   -3.6960    0.6110    1.9650 H   0  0  0  0  0  0  0  0  0  0  0  0
   -3.6250    2.2510    2.6400 H   0  0  0  0  0  0  0  0  0  0  0  0
   -2.8800    2.0650    0.3940 H   0  0  0  0  0  0  0  0  0  0  0  0
   -0.3830    0.5860    1.1480 H   0  0  0  0  0  0  0  0  0  0  0  0
  1  2  1  0  0  0  0
  1  9  1  0  0  0  0
  1  8  1  0  0  0  0
  2  4  1  0  0  0  0
  2 11  1  1  0  0  0
  3  2  1  0  0  0  0
  4 13  1  1  0  0  0
  4  5  1  0  0  0  0
  5 15  1  0  0  0  0
  5 14  1  0  0  0  0
  6 16  1  0  0  0  0
  6  4  1  0  0  0  0
  7  6  2  0  0  0  0
 10  1  1  0  0  0  0
 12  3  1  0  0  0  0
 16 22  1  0  0  0  0
 17 23  1  6  0  0  0
 17 20  1  0  0  0  0
 17 16  1  0  0  0  0
 18 17  1  0  0  0  0
 18 25  1  0  0  0  0
 19 18  1  0  0  0  0
 20 33  1  0  0  0  0
 21 20  2  0  0  0  0
 24 18  1  0  0  0  0
 26 19  1  0  0  0  0
 27 38  1  0  0  0  0
 27 37  1  0  0  0  0
 28 30  1  0  0  0  0
 28 27  1  0  0  0  0
 29 28  2  0  0  0  0
 30 40  1  0  0  0  0
 30 39  1  0  0  0  0
 31 42  1  0  0  0  0
 31 30  1  0  0  0  0
 32 43  1  6  0  0  0
 32 34  1  0  0  0  0
 32 31  1  0  0  0  0
 33 44  1  0  0  0  0
 33 32  1  0  0  0  0
 34 35  1  0  0  0  0
 36 34  2  0  0  0  0
 41 31  1  0  0  0  0
M  END
$$$$
