TCR.pdb
 OpenBabel07022419123D

 50 49  0  0  1  0  0  0  0  0999 V2000
    3.4180   -3.7450    2.0830 C   0  0  0  0  0  0  0  0  0  0  0  0
    2.4600   -2.7760    1.4070 C   0  0  1  0  0  0  0  0  0  0  0  0
    2.9360   -1.4940    1.7770 O   0  0  0  0  0  0  0  0  0  0  0  0
    2.5830   -2.9730   -0.0800 C   0  0  2  0  0  0  0  0  0  0  0  0
    4.0170   -2.8520   -0.3890 N   0  0  0  0  0  0  0  0  0  0  0  0
    1.8580   -2.0080   -0.8940 C   0  0  0  0  0  0  0  0  0  0  0  0
    2.4900   -1.2350   -1.6960 O   0  0  0  0  0  0  0  0  0  0  0  0
    3.5970   -4.5770    1.3740 H   0  0  0  0  0  0  0  0  0  0  0  0
    4.3700   -3.2550    2.3790 H   0  0  0  0  0  0  0  0  0  0  0  0
    2.9050   -4.1940    2.9520 H   0  0  0  0  0  0  0  0  0  0  0  0
    1.4420   -2.9580    1.7780 H   0  0  0  0  0  0  0  0  0  0  0  0
    3.6310   -1.2330    1.1270 H   0  0  0  0  0  0  0  0  0  0  0  0
    2.3220   -4.0300   -0.2850 H   0  0  0  0  0  0  0  0  0  0  0  0
    4.4490   -3.7730   -0.5960 H   0  0  0  0  0  0  0  0  0  0  0  0
    4.1590   -2.2590   -1.2380 H   0  0  0  0  0  0  0  0  0  0  0  0
    0.4270   -1.8190   -0.8970 N   0  0  0  0  0  0  0  0  0  0  0  0
   -0.1850   -0.8310   -1.7580 C   0  0  1  0  0  0  0  0  0  0  0  0
   -0.8230   -1.5510   -2.9680 C   0  0  0  0  0  0  0  0  0  0  0  0
   -1.5870   -0.3140   -4.0480 S   0  0  0  0  0  0  0  0  0  0  0  0
   -1.1890   -0.0130   -1.0830 C   0  0  0  0  0  0  0  0  0  0  0  0
   -1.7530    0.9520   -1.7230 O   0  0  0  0  0  0  0  0  0  0  0  0
   -0.1270   -2.4230   -0.2570 H   0  0  0  0  0  0  0  0  0  0  0  0
    0.6280   -0.2130   -2.1950 H   0  0  0  0  0  0  0  0  0  0  0  0
   -1.6430   -2.2110   -2.6190 H   0  0  0  0  0  0  0  0  0  0  0  0
   -0.0280   -2.0620   -3.5050 H   0  0  0  0  0  0  0  0  0  0  0  0
   -0.9020    0.9040   -3.9270 H   0  0  0  0  0  0  0  0  0  0  0  0
    0.6180   -1.3070    3.8570 N   0  0  0  0  0  0  0  0  0  0  0  0
   -0.0380   -0.0830    3.5230 C   0  0  0  0  0  0  0  0  0  0  0  0
   -0.9230    0.3560    4.3250 N   0  0  0  0  0  0  0  0  0  0  0  0
    0.2650    0.6600    2.3390 N   0  0  0  0  0  0  0  0  0  0  0  0
   -0.0040    2.0500    2.2040 C   0  0  0  0  0  0  0  0  0  0  0  0
   -1.4150    2.4660    2.1760 C   0  0  0  0  0  0  0  0  0  0  0  0
   -2.3510    2.0870    1.1150 C   0  0  0  0  0  0  0  0  0  0  0  0
   -2.6580    0.7090    0.7950 C   0  0  2  0  0  0  0  0  0  0  0  0
   -1.6420   -0.1740    0.2820 N   0  0  0  0  0  0  0  0  0  0  0  0
   -3.9220    0.5750   -0.0250 C   0  0  0  0  0  0  0  0  0  0  0  0
   -3.9340   -0.2390   -0.9560 O   0  0  0  0  0  0  0  0  0  0  0  0
   -5.0410    1.3320    0.2420 O   0  0  0  0  0  0  0  0  0  0  0  0
    1.5710   -1.2540    4.3090 H   0  0  0  0  0  0  0  0  0  0  0  0
    0.2050   -2.2440    3.6770 H   0  0  0  0  0  0  0  0  0  0  0  0
   -1.1650   -0.1540    5.1960 H   0  0  0  0  0  0  0  0  0  0  0  0
    0.7280    0.1170    1.5750 H   0  0  0  0  0  0  0  0  0  0  0  0
    0.5370    2.6300    3.0120 H   0  0  0  0  0  0  0  0  0  0  0  0
    0.5290    2.4250    1.2660 H   0  0  0  0  0  0  0  0  0  0  0  0
   -1.4420    3.6230    2.3200 H   0  0  0  0  0  0  0  0  0  0  0  0
   -1.8480    2.1300    3.1990 H   0  0  0  0  0  0  0  0  0  0  0  0
   -3.3760    2.5800    1.3770 H   0  0  0  0  0  0  0  0  0  0  0  0
   -2.0510    2.6410    0.1280 H   0  0  0  0  0  0  0  0  0  0  0  0
   -2.9840    0.1900    1.7730 H   0  0  0  0  0  0  0  0  0  0  0  0
   -1.1980   -0.9650    0.7860 H   0  0  0  0  0  0  0  0  0  0  0  0
  1  9  1  0  0  0  0
  1 10  1  0  0  0  0
  2  3  1  0  0  0  0
  2 11  1  1  0  0  0
  2  1  1  0  0  0  0
  4 13  1  6  0  0  0
  4  2  1  0  0  0  0
  5  4  1  0  0  0  0
  6  4  1  0  0  0  0
  7  6  2  0  0  0  0
  8  1  1  0  0  0  0
 12  3  1  0  0  0  0
 14  5  1  0  0  0  0
 15  5  1  0  0  0  0
 16  6  1  0  0  0  0
 16 22  1  0  0  0  0
 17 23  1  6  0  0  0
 17 20  1  0  0  0  0
 17 16  1  0  0  0  0
 18 24  1  0  0  0  0
 18 17  1  0  0  0  0
 19 26  1  0  0  0  0
 19 18  1  0  0  0  0
 20 35  1  0  0  0  0
 21 20  2  0  0  0  0
 25 18  1  0  0  0  0
 27 39  1  0  0  0  0
 28 27  1  0  0  0  0
 28 29  2  0  0  0  0
 29 41  1  0  0  0  0
 30 28  1  0  0  0  0
 31 30  1  0  0  0  0
 31 43  1  0  0  0  0
 32 31  1  0  0  0  0
 32 45  1  0  0  0  0
 32 46  1  0  0  0  0
 33 47  1  0  0  0  0
 33 32  1  0  0  0  0
 34 33  1  0  0  0  0
 34 49  1  1  0  0  0
 35 50  1  0  0  0  0
 35 34  1  0  0  0  0
 36 38  1  0  0  0  0
 36 34  1  0  0  0  0
 37 36  2  0  0  0  0
 40 27  1  0  0  0  0
 42 30  1  0  0  0  0
 44 31  1  0  0  0  0
 48 33  1  0  0  0  0
M  END
$$$$
