TCS.pdb
 OpenBabel07022419123D

 38 37  0  0  1  0  0  0  0  0999 V2000
    0.5790   -3.4180    2.2040 C   0  0  0  0  0  0  0  0  0  0  0  0
   -0.3850   -3.4590    1.0310 C   0  0  1  0  0  0  0  0  0  0  0  0
   -1.3360   -2.4760    1.1600 O   0  0  0  0  0  0  0  0  0  0  0  0
    0.3180   -3.4580   -0.2850 C   0  0  2  0  0  0  0  0  0  0  0  0
    1.2870   -4.5570   -0.2580 N   0  0  0  0  0  0  0  0  0  0  0  0
    0.9490   -2.1870   -0.6530 C   0  0  0  0  0  0  0  0  0  0  0  0
    2.1800   -2.1750   -0.8990 O   0  0  0  0  0  0  0  0  0  0  0  0
    0.9640   -4.4410    2.4450 H   0  0  0  0  0  0  0  0  0  0  0  0
    0.0760   -3.0480    3.1180 H   0  0  0  0  0  0  0  0  0  0  0  0
    1.4440   -2.7630    1.9690 H   0  0  0  0  0  0  0  0  0  0  0  0
   -0.9160   -4.4430    1.1150 H   0  0  0  0  0  0  0  0  0  0  0  0
   -1.9030   -2.7040    1.9480 H   0  0  0  0  0  0  0  0  0  0  0  0
   -0.4250   -3.7430   -1.0620 H   0  0  0  0  0  0  0  0  0  0  0  0
    1.5480   -4.7580   -1.2470 H   0  0  0  0  0  0  0  0  0  0  0  0
    2.1420   -4.2160    0.2210 H   0  0  0  0  0  0  0  0  0  0  0  0
    0.2410   -0.9650   -0.7470 N   0  0  0  0  0  0  0  0  0  0  0  0
    0.8580    0.2910   -1.1110 C   0  0  1  0  0  0  0  0  0  0  0  0
    0.2680    0.8570   -2.3830 C   0  0  0  0  0  0  0  0  0  0  0  0
    1.0880    2.4270   -2.7760 S   0  0  0  0  0  0  0  0  0  0  0  0
    0.7840    1.2730    0.0110 C   0  0  0  0  0  0  0  0  0  0  0  0
    1.2620    2.4350   -0.0950 O   0  0  0  0  0  0  0  0  0  0  0  0
   -0.7780   -0.9730   -0.5440 H   0  0  0  0  0  0  0  0  0  0  0  0
    1.9360    0.1170   -1.2940 H   0  0  0  0  0  0  0  0  0  0  0  0
   -0.8380    0.9730   -2.3090 H   0  0  0  0  0  0  0  0  0  0  0  0
    0.4790    0.1560   -3.2010 H   0  0  0  0  0  0  0  0  0  0  0  0
    0.2610    3.2420   -3.5960 H   0  0  0  0  0  0  0  0  0  0  0  0
   -2.0310    2.7020    1.6690 O   0  0  0  0  0  0  0  0  0  0  0  0
   -1.3290    2.1910    2.7650 C   0  0  0  0  0  0  0  0  0  0  0  0
    0.1070    1.9260    2.3460 C   0  0  2  0  0  0  0  0  0  0  0  0
    0.1760    0.9710    1.2620 N   0  0  0  0  0  0  0  0  0  0  0  0
    0.8080    1.3080    3.5110 C   0  0  0  0  0  0  0  0  0  0  0  0
    1.3310    0.1640    3.4640 O   0  0  0  0  0  0  0  0  0  0  0  0
    0.9100    1.9950    4.7200 O   0  0  0  0  0  0  0  0  0  0  0  0
   -1.4900    3.4910    1.3540 H   0  0  0  0  0  0  0  0  0  0  0  0
   -1.2850    2.9250    3.5940 H   0  0  0  0  0  0  0  0  0  0  0  0
   -1.8210    1.2840    3.1580 H   0  0  0  0  0  0  0  0  0  0  0  0
    0.5600    2.8880    2.1160 H   0  0  0  0  0  0  0  0  0  0  0  0
   -0.2380    0.0260    1.4120 H   0  0  0  0  0  0  0  0  0  0  0  0
  1  8  1  0  0  0  0
  1  9  1  0  0  0  0
  2 11  1  1  0  0  0
  2  3  1  0  0  0  0
  2  1  1  0  0  0  0
  3 12  1  0  0  0  0
  4 13  1  6  0  0  0
  4  5  1  0  0  0  0
  4  2  1  0  0  0  0
  5 15  1  0  0  0  0
  6  4  1  0  0  0  0
  7  6  2  0  0  0  0
 10  1  1  0  0  0  0
 14  5  1  0  0  0  0
 16  6  1  0  0  0  0
 16 22  1  0  0  0  0
 17 23  1  6  0  0  0
 17 16  1  0  0  0  0
 17 20  1  0  0  0  0
 18 24  1  0  0  0  0
 18 17  1  0  0  0  0
 19 18  1  0  0  0  0
 20 30  1  0  0  0  0
 21 20  2  0  0  0  0
 25 18  1  0  0  0  0
 26 19  1  0  0  0  0
 27 28  1  0  0  0  0
 28 36  1  0  0  0  0
 28 35  1  0  0  0  0
 29 37  1  6  0  0  0
 29 28  1  0  0  0  0
 29 31  1  0  0  0  0
 30 38  1  0  0  0  0
 30 29  1  0  0  0  0
 31 33  1  0  0  0  0
 32 31  2  0  0  0  0
 34 27  1  0  0  0  0
M  END
$$$$
