TCT.pdb
 OpenBabel07022419123D

 41 40  0  0  1  0  0  0  0  0999 V2000
   -1.1350   -4.9590   -1.0300 C   0  0  0  0  0  0  0  0  0  0  0  0
   -1.6140   -4.4270    0.2980 C   0  0  1  0  0  0  0  0  0  0  0  0
   -1.8210   -5.4930    1.1730 O   0  0  0  0  0  0  0  0  0  0  0  0
   -0.5910   -3.4540    0.8450 C   0  0  2  0  0  0  0  0  0  0  0  0
   -1.0060   -2.8980    2.1080 N   0  0  0  0  0  0  0  0  0  0  0  0
   -0.4070   -2.3570   -0.1390 C   0  0  0  0  0  0  0  0  0  0  0  0
   -0.0430   -2.5980   -1.3190 O   0  0  0  0  0  0  0  0  0  0  0  0
   -0.0330   -4.9180   -1.0480 H   0  0  0  0  0  0  0  0  0  0  0  0
   -1.5110   -4.3310   -1.8630 H   0  0  0  0  0  0  0  0  0  0  0  0
   -1.4400   -6.0220   -1.1810 H   0  0  0  0  0  0  0  0  0  0  0  0
   -2.5780   -3.9160    0.1270 H   0  0  0  0  0  0  0  0  0  0  0  0
   -2.0390   -5.1370    2.0720 H   0  0  0  0  0  0  0  0  0  0  0  0
    0.3730   -3.9690    0.9900 H   0  0  0  0  0  0  0  0  0  0  0  0
   -0.5300   -3.2890    2.9290 H   0  0  0  0  0  0  0  0  0  0  0  0
   -2.0250   -2.7630    2.2010 H   0  0  0  0  0  0  0  0  0  0  0  0
   -0.6380   -1.0050    0.2270 N   0  0  0  0  0  0  0  0  0  0  0  0
   -0.4460    0.0310   -0.7660 C   0  0  1  0  0  0  0  0  0  0  0  0
   -1.7340    0.8000   -1.0300 C   0  0  0  0  0  0  0  0  0  0  0  0
   -1.3560    2.0590   -2.2840 S   0  0  0  0  0  0  0  0  0  0  0  0
    0.6230    0.9570   -0.2960 C   0  0  0  0  0  0  0  0  0  0  0  0
    0.9910    1.9460   -0.9640 O   0  0  0  0  0  0  0  0  0  0  0  0
   -0.9380   -0.7270    1.1730 H   0  0  0  0  0  0  0  0  0  0  0  0
   -0.1260   -0.4000   -1.7330 H   0  0  0  0  0  0  0  0  0  0  0  0
   -2.4280    0.0610   -1.5260 H   0  0  0  0  0  0  0  0  0  0  0  0
   -2.1620    1.2320   -0.1220 H   0  0  0  0  0  0  0  0  0  0  0  0
   -0.2210    1.6890   -3.0470 H   0  0  0  0  0  0  0  0  0  0  0  0
    3.1370    3.2550    3.0650 C   0  0  0  0  0  0  0  0  0  0  0  0
    2.0190    2.2580    2.7680 C   0  0  1  0  0  0  0  0  0  0  0  0
    0.8560    3.0220    2.6160 O   0  0  0  0  0  0  0  0  0  0  0  0
    2.3160    1.6210    1.4410 C   0  0  2  0  0  0  0  0  0  0  0  0
    1.2920    0.7660    0.9510 N   0  0  0  0  0  0  0  0  0  0  0  0
    3.5610    0.8490    1.5810 C   0  0  0  0  0  0  0  0  0  0  0  0
    4.5900    1.4130    1.9990 O   0  0  0  0  0  0  0  0  0  0  0  0
    3.5920   -0.4830    1.2540 O   0  0  0  0  0  0  0  0  0  0  0  0
    3.9060    2.8220    3.7370 H   0  0  0  0  0  0  0  0  0  0  0  0
    3.6010    3.6070    2.1300 H   0  0  0  0  0  0  0  0  0  0  0  0
    2.7260    4.1440    3.6150 H   0  0  0  0  0  0  0  0  0  0  0  0
    1.9820    1.5670    3.6070 H   0  0  0  0  0  0  0  0  0  0  0  0
    1.1360    3.8460    2.1210 H   0  0  0  0  0  0  0  0  0  0  0  0
    2.5350    2.4680    0.7230 H   0  0  0  0  0  0  0  0  0  0  0  0
    1.0080   -0.0500    1.5340 H   0  0  0  0  0  0  0  0  0  0  0  0
  1  2  1  0  0  0  0
  2 11  1  6  0  0  0
  2  4  1  0  0  0  0
  2  3  1  0  0  0  0
  3 12  1  0  0  0  0
  4 13  1  1  0  0  0
  4  5  1  0  0  0  0
  5 15  1  0  0  0  0
  5 14  1  0  0  0  0
  6 16  1  0  0  0  0
  6  4  1  0  0  0  0
  7  6  2  0  0  0  0
  8  1  1  0  0  0  0
  9  1  1  0  0  0  0
 10  1  1  0  0  0  0
 16 22  1  0  0  0  0
 17 23  1  6  0  0  0
 17 20  1  0  0  0  0
 17 16  1  0  0  0  0
 18 17  1  0  0  0  0
 18 25  1  0  0  0  0
 19 18  1  0  0  0  0
 20 31  1  0  0  0  0
 21 20  2  0  0  0  0
 24 18  1  0  0  0  0
 26 19  1  0  0  0  0
 27 37  1  0  0  0  0
 27 35  1  0  0  0  0
 28 27  1  0  0  0  0
 28 38  1  1  0  0  0
 29 28  1  0  0  0  0
 30 40  1  6  0  0  0
 30 32  1  0  0  0  0
 30 28  1  0  0  0  0
 31 30  1  0  0  0  0
 31 41  1  0  0  0  0
 32 33  1  0  0  0  0
 34 32  2  0  0  0  0
 36 27  1  0  0  0  0
 39 29  1  0  0  0  0
M  END
$$$$
