TCV.pdb
 OpenBabel07022419123D

 43 42  0  0  1  0  0  0  0  0999 V2000
   -0.6830   -5.7790    1.2810 C   0  0  0  0  0  0  0  0  0  0  0  0
   -0.2710   -4.3360    1.0820 C   0  0  1  0  0  0  0  0  0  0  0  0
    0.5430   -3.9810    2.1660 O   0  0  0  0  0  0  0  0  0  0  0  0
    0.4890   -4.2380   -0.2190 C   0  0  2  0  0  0  0  0  0  0  0  0
    1.6180   -5.1330   -0.1600 N   0  0  0  0  0  0  0  0  0  0  0  0
    0.8980   -2.8430   -0.5190 C   0  0  0  0  0  0  0  0  0  0  0  0
    2.1340   -2.6250   -0.6790 O   0  0  0  0  0  0  0  0  0  0  0  0
   -1.6980   -5.8730    1.7190 H   0  0  0  0  0  0  0  0  0  0  0  0
   -0.6990   -6.2840    0.2840 H   0  0  0  0  0  0  0  0  0  0  0  0
    0.0950   -6.2850    1.8710 H   0  0  0  0  0  0  0  0  0  0  0  0
   -1.1870   -3.7330    1.0920 H   0  0  0  0  0  0  0  0  0  0  0  0
    0.3160   -4.4640    2.9800 H   0  0  0  0  0  0  0  0  0  0  0  0
   -0.1880   -4.5920   -1.0210 H   0  0  0  0  0  0  0  0  0  0  0  0
    2.0290   -5.2060    0.8040 H   0  0  0  0  0  0  0  0  0  0  0  0
    1.3810   -6.1080   -0.4380 H   0  0  0  0  0  0  0  0  0  0  0  0
    0.0200   -1.7680   -0.6360 N   0  0  0  0  0  0  0  0  0  0  0  0
    0.5080   -0.4230   -0.9340 C   0  0  1  0  0  0  0  0  0  0  0  0
   -0.0680    0.0110   -2.2650 C   0  0  0  0  0  0  0  0  0  0  0  0
    0.4700    1.6600   -2.7520 S   0  0  0  0  0  0  0  0  0  0  0  0
    0.0850    0.4280    0.2020 C   0  0  0  0  0  0  0  0  0  0  0  0
   -0.6270   -0.0610    1.1380 O   0  0  0  0  0  0  0  0  0  0  0  0
   -1.0010   -1.8830   -0.5160 H   0  0  0  0  0  0  0  0  0  0  0  0
    1.5980   -0.4490   -1.0340 H   0  0  0  0  0  0  0  0  0  0  0  0
    0.2770   -0.7130   -3.0300 H   0  0  0  0  0  0  0  0  0  0  0  0
   -1.1750   -0.0410   -2.2700 H   0  0  0  0  0  0  0  0  0  0  0  0
    1.1520    1.6680   -3.9670 H   0  0  0  0  0  0  0  0  0  0  0  0
    0.7190    3.8330    3.4930 C   0  0  0  0  0  0  0  0  0  0  0  0
    1.1840    3.0080    2.2850 C   0  0  0  0  0  0  0  0  0  0  0  0
    1.8930    1.8030    2.8400 C   0  0  0  0  0  0  0  0  0  0  0  0
   -0.0430    2.5830    1.5060 C   0  0  2  0  0  0  0  0  0  0  0  0
    0.4090    1.8010    0.3620 N   0  0  0  0  0  0  0  0  0  0  0  0
   -0.8600    3.7410    1.0910 C   0  0  0  0  0  0  0  0  0  0  0  0
   -1.3410    4.5350    1.9380 O   0  0  0  0  0  0  0  0  0  0  0  0
   -1.1350    4.0100   -0.2480 O   0  0  0  0  0  0  0  0  0  0  0  0
    1.4150    3.6580    4.3460 H   0  0  0  0  0  0  0  0  0  0  0  0
    0.7310    4.8940    3.1900 H   0  0  0  0  0  0  0  0  0  0  0  0
   -0.2830    3.5070    3.8390 H   0  0  0  0  0  0  0  0  0  0  0  0
    1.8790    3.6260    1.6900 H   0  0  0  0  0  0  0  0  0  0  0  0
    1.5160    1.5560    3.8720 H   0  0  0  0  0  0  0  0  0  0  0  0
    3.0030    1.9880    2.9240 H   0  0  0  0  0  0  0  0  0  0  0  0
    1.7230    0.8830    2.2390 H   0  0  0  0  0  0  0  0  0  0  0  0
   -0.6510    1.9710    2.2020 H   0  0  0  0  0  0  0  0  0  0  0  0
    0.9970    2.2260   -0.3820 H   0  0  0  0  0  0  0  0  0  0  0  0
  1  8  1  0  0  0  0
  1 10  1  0  0  0  0
  2 11  1  6  0  0  0
  2  1  1  0  0  0  0
  2  3  1  0  0  0  0
  3 12  1  0  0  0  0
  4 13  1  6  0  0  0
  4  5  1  0  0  0  0
  4  2  1  0  0  0  0
  5 14  1  0  0  0  0
  6  4  1  0  0  0  0
  7  6  2  0  0  0  0
  9  1  1  0  0  0  0
 15  5  1  0  0  0  0
 16  6  1  0  0  0  0
 16 22  1  0  0  0  0
 17 23  1  6  0  0  0
 17 16  1  0  0  0  0
 17 20  1  0  0  0  0
 18 17  1  0  0  0  0
 19 18  1  0  0  0  0
 20 31  1  0  0  0  0
 20 21  2  0  0  0  0
 24 18  1  0  0  0  0
 25 18  1  0  0  0  0
 26 19  1  0  0  0  0
 27 37  1  0  0  0  0
 27 35  1  0  0  0  0
 28 29  1  0  0  0  0
 28 27  1  0  0  0  0
 29 40  1  0  0  0  0
 29 39  1  0  0  0  0
 30 42  1  1  0  0  0
 30 28  1  0  0  0  0
 31 30  1  0  0  0  0
 32 30  1  0  0  0  0
 32 33  1  0  0  0  0
 34 32  2  0  0  0  0
 36 27  1  0  0  0  0
 38 28  1  0  0  0  0
 41 29  1  0  0  0  0
 43 31  1  0  0  0  0
M  END
$$$$
