TCY.pdb
 OpenBabel07022419123D

 48 48  0  0  1  0  0  0  0  0999 V2000
    5.1730   -3.8320    0.0640 C   0  0  0  0  0  0  0  0  0  0  0  0
    4.9640   -2.9260   -1.1190 C   0  0  1  0  0  0  0  0  0  0  0  0
    5.6890   -3.4540   -2.2000 O   0  0  0  0  0  0  0  0  0  0  0  0
    3.5210   -2.8650   -1.5620 C   0  0  2  0  0  0  0  0  0  0  0  0
    3.4900   -1.9890   -2.7380 N   0  0  0  0  0  0  0  0  0  0  0  0
    2.6280   -2.2690   -0.5600 C   0  0  0  0  0  0  0  0  0  0  0  0
    2.5140   -2.8840    0.5450 O   0  0  0  0  0  0  0  0  0  0  0  0
    5.9620   -4.6110   -0.1490 H   0  0  0  0  0  0  0  0  0  0  0  0
    5.5720   -3.2430    0.9340 H   0  0  0  0  0  0  0  0  0  0  0  0
    4.2690   -4.4140    0.3370 H   0  0  0  0  0  0  0  0  0  0  0  0
    5.3700   -1.9030   -0.9600 H   0  0  0  0  0  0  0  0  0  0  0  0
    5.5540   -4.4340   -2.1810 H   0  0  0  0  0  0  0  0  0  0  0  0
    3.1690   -3.8760   -1.7890 H   0  0  0  0  0  0  0  0  0  0  0  0
    4.2740   -2.1940   -3.3930 H   0  0  0  0  0  0  0  0  0  0  0  0
    2.5670   -2.0590   -3.2210 H   0  0  0  0  0  0  0  0  0  0  0  0
    1.8940   -1.0860   -0.7180 N   0  0  0  0  0  0  0  0  0  0  0  0
    1.0170   -0.5140    0.2850 C   0  0  1  0  0  0  0  0  0  0  0  0
    1.5510    0.8460    0.7500 C   0  0  0  0  0  0  0  0  0  0  0  0
    1.6690    2.0170   -0.6070 S   0  0  0  0  0  0  0  0  0  0  0  0
   -0.3680   -0.3490   -0.2400 C   0  0  0  0  0  0  0  0  0  0  0  0
   -0.6470   -0.6900   -1.4140 O   0  0  0  0  0  0  0  0  0  0  0  0
    1.9740   -0.5660   -1.6190 H   0  0  0  0  0  0  0  0  0  0  0  0
    1.0430   -1.1690    1.1590 H   0  0  0  0  0  0  0  0  0  0  0  0
    2.4950    0.6870    1.2920 H   0  0  0  0  0  0  0  0  0  0  0  0
    0.8060    1.2050    1.5090 H   0  0  0  0  0  0  0  0  0  0  0  0
    3.0020    2.5260   -0.6100 H   0  0  0  0  0  0  0  0  0  0  0  0
   -3.6900    1.3230    6.1830 O   0  0  0  0  0  0  0  0  0  0  0  0
   -3.6540    0.8480    4.8880 C   0  0  0  0  0  0  0  0  0  0  0  0
   -2.7610   -0.1150    4.4760 C   0  0  0  0  0  0  0  0  0  0  0  0
   -2.7820   -0.5440    3.1650 C   0  0  0  0  0  0  0  0  0  0  0  0
   -3.6750   -0.0460    2.2170 C   0  0  0  0  0  0  0  0  0  0  0  0
   -3.6660   -0.5330    0.8150 C   0  0  0  0  0  0  0  0  0  0  0  0
   -2.7310    0.3130   -0.0510 C   0  0  2  0  0  0  0  0  0  0  0  0
   -1.4180    0.1890    0.5400 N   0  0  0  0  0  0  0  0  0  0  0  0
   -3.2330    1.7000   -0.0220 C   0  0  0  0  0  0  0  0  0  0  0  0
   -2.5850    2.6520    0.4720 O   0  0  0  0  0  0  0  0  0  0  0  0
   -4.5490    0.9150    2.6750 C   0  0  0  0  0  0  0  0  0  0  0  0
   -4.5560    1.3680    3.9810 C   0  0  0  0  0  0  0  0  0  0  0  0
   -4.4790    1.9840   -0.5630 O   0  0  0  0  0  0  0  0  0  0  0  0
   -3.0880    1.0020    6.9140 H   0  0  0  0  0  0  0  0  0  0  0  0
   -2.0580   -0.5150    5.2000 H   0  0  0  0  0  0  0  0  0  0  0  0
   -2.0770   -1.2990    2.8650 H   0  0  0  0  0  0  0  0  0  0  0  0
   -3.2850   -1.5680    0.8200 H   0  0  0  0  0  0  0  0  0  0  0  0
   -4.7110   -0.4580    0.4480 H   0  0  0  0  0  0  0  0  0  0  0  0
   -2.7570   -0.0290   -1.1040 H   0  0  0  0  0  0  0  0  0  0  0  0
   -1.2640    0.4900    1.5060 H   0  0  0  0  0  0  0  0  0  0  0  0
   -5.2610    1.3310    1.9820 H   0  0  0  0  0  0  0  0  0  0  0  0
   -5.2820    2.1290    4.2520 H   0  0  0  0  0  0  0  0  0  0  0  0
  1 10  1  0  0  0  0
  1  9  1  0  0  0  0
  2 11  1  1  0  0  0
  2  1  1  0  0  0  0
  3 12  1  0  0  0  0
  3  2  1  0  0  0  0
  4 13  1  6  0  0  0
  4  2  1  0  0  0  0
  4  6  1  0  0  0  0
  5  4  1  0  0  0  0
  6  7  2  0  0  0  0
  8  1  1  0  0  0  0
 14  5  1  0  0  0  0
 15  5  1  0  0  0  0
 16  6  1  0  0  0  0
 16 17  1  0  0  0  0
 17 18  1  0  0  0  0
 17 23  1  1  0  0  0
 18 24  1  0  0  0  0
 18 25  1  0  0  0  0
 19 18  1  0  0  0  0
 20 17  1  0  0  0  0
 20 34  1  0  0  0  0
 21 20  2  0  0  0  0
 22 16  1  0  0  0  0
 26 19  1  0  0  0  0
 27 40  1  0  0  0  0
 28 27  1  0  0  0  0
 29 28  1  0  0  0  0
 29 41  1  0  0  0  0
 30 29  2  0  0  0  0
 31 37  2  0  0  0  0
 31 30  1  0  0  0  0
 32 43  1  0  0  0  0
 32 31  1  0  0  0  0
 33 45  1  6  0  0  0
 33 35  1  0  0  0  0
 33 34  1  0  0  0  0
 33 32  1  0  0  0  0
 34 46  1  0  0  0  0
 35 36  1  0  0  0  0
 37 38  1  0  0  0  0
 38 48  1  0  0  0  0
 38 28  2  0  0  0  0
 39 35  2  0  0  0  0
 42 30  1  0  0  0  0
 44 32  1  0  0  0  0
 47 37  1  0  0  0  0
M  END
$$$$
