TDF.pdb
 OpenBabel07022419113D

 49 49  0  0  1  0  0  0  0  0999 V2000
   -0.9530   -1.2160    5.3170 C   0  0  0  0  0  0  0  0  0  0  0  0
    0.5100   -0.9820    4.9990 C   0  0  1  0  0  0  0  0  0  0  0  0
    1.3400   -1.6440    5.8930 O   0  0  0  0  0  0  0  0  0  0  0  0
    0.8270   -1.3820    3.5540 C   0  0  2  0  0  0  0  0  0  0  0  0
    2.1900   -1.0290    3.3010 N   0  0  0  0  0  0  0  0  0  0  0  0
   -0.1210   -0.5970    2.6950 C   0  0  0  0  0  0  0  0  0  0  0  0
   -1.3580   -0.7830    2.7880 O   0  0  0  0  0  0  0  0  0  0  0  0
   -1.0820   -1.4530    6.3930 H   0  0  0  0  0  0  0  0  0  0  0  0
   -1.5780   -0.3260    5.1000 H   0  0  0  0  0  0  0  0  0  0  0  0
   -1.3830   -2.0620    4.7440 H   0  0  0  0  0  0  0  0  0  0  0  0
    0.7010    0.1080    5.0780 H   0  0  0  0  0  0  0  0  0  0  0  0
    1.7960   -2.4170    5.4850 H   0  0  0  0  0  0  0  0  0  0  0  0
    0.6560   -2.4650    3.4840 H   0  0  0  0  0  0  0  0  0  0  0  0
    2.4190   -0.0740    3.6200 H   0  0  0  0  0  0  0  0  0  0  0  0
    2.4250   -1.2050    2.3090 H   0  0  0  0  0  0  0  0  0  0  0  0
    0.3280    0.3730    1.7570 N   0  0  0  0  0  0  0  0  0  0  0  0
   -0.5360    1.1420    0.9220 C   0  0  1  0  0  0  0  0  0  0  0  0
   -0.4490    2.6150    1.1220 C   0  0  0  0  0  0  0  0  0  0  0  0
    0.9010    3.1660    0.8650 C   0  0  0  0  0  0  0  0  0  0  0  0
    1.8780    2.4640    0.5170 O   0  0  0  0  0  0  0  0  0  0  0  0
   -0.2770    0.7790   -0.5180 C   0  0  0  0  0  0  0  0  0  0  0  0
   -0.9050    1.3130   -1.4510 O   0  0  0  0  0  0  0  0  0  0  0  0
    1.1290    4.5270    1.0080 O   0  0  0  0  0  0  0  0  0  0  0  0
    1.3600    0.5130    1.6960 H   0  0  0  0  0  0  0  0  0  0  0  0
   -1.6160    0.8660    1.1130 H   0  0  0  0  0  0  0  0  0  0  0  0
   -1.2140    3.1200    0.5200 H   0  0  0  0  0  0  0  0  0  0  0  0
   -0.6850    2.8290    2.1850 H   0  0  0  0  0  0  0  0  0  0  0  0
    1.9610    4.9930    0.6390 H   0  0  0  0  0  0  0  0  0  0  0  0
    0.7100   -0.2000   -0.8350 N   0  0  0  0  0  0  0  0  0  0  0  0
    1.0390   -0.6350   -2.1670 C   0  0  1  0  0  0  0  0  0  0  0  0
   -0.1700   -0.9700   -3.0340 C   0  0  0  0  0  0  0  0  0  0  0  0
   -0.8960   -2.0910   -2.3850 C   0  0  0  0  0  0  0  0  0  0  0  0
   -1.9620   -1.9280   -1.5430 C   0  0  0  0  0  0  0  0  0  0  0  0
   -2.5550   -3.0630   -0.9750 C   0  0  0  0  0  0  0  0  0  0  0  0
   -2.0980   -4.3310   -1.2400 C   0  0  0  0  0  0  0  0  0  0  0  0
   -1.0250   -4.4850   -2.0890 C   0  0  0  0  0  0  0  0  0  0  0  0
   -0.4430   -3.3840   -2.6450 C   0  0  0  0  0  0  0  0  0  0  0  0
    2.0480    0.1690   -2.8470 C   0  0  0  0  0  0  0  0  0  0  0  0
    2.4110   -0.1190   -4.0120 O   0  0  0  0  0  0  0  0  0  0  0  0
    2.6320    1.2660   -2.2360 O   0  0  0  0  0  0  0  0  0  0  0  0
    1.2260   -0.6210    0.0050 H   0  0  0  0  0  0  0  0  0  0  0  0
    1.4840   -1.6920   -2.0140 H   0  0  0  0  0  0  0  0  0  0  0  0
   -0.8180   -0.1300   -3.2520 H   0  0  0  0  0  0  0  0  0  0  0  0
    0.2610   -1.3120   -4.0000 H   0  0  0  0  0  0  0  0  0  0  0  0
   -2.3660   -0.9540   -1.3150 H   0  0  0  0  0  0  0  0  0  0  0  0
   -3.3960   -2.9430   -0.3100 H   0  0  0  0  0  0  0  0  0  0  0  0
   -2.5930   -5.1680   -0.7750 H   0  0  0  0  0  0  0  0  0  0  0  0
   -0.6500   -5.5080   -2.3070 H   0  0  0  0  0  0  0  0  0  0  0  0
    0.4060   -3.5170   -3.3150 H   0  0  0  0  0  0  0  0  0  0  0  0
  1  8  1  0  0  0  0
  2 11  1  1  0  0  0
  2  1  1  0  0  0  0
  2  3  1  0  0  0  0
  4 13  1  6  0  0  0
  4  2  1  0  0  0  0
  5  4  1  0  0  0  0
  5 14  1  0  0  0  0
  6  7  2  0  0  0  0
  6  4  1  0  0  0  0
  9  1  1  0  0  0  0
 10  1  1  0  0  0  0
 12  3  1  0  0  0  0
 15  5  1  0  0  0  0
 16  6  1  0  0  0  0
 17 25  1  1  0  0  0
 17 18  1  0  0  0  0
 17 16  1  0  0  0  0
 18 27  1  0  0  0  0
 19 23  1  0  0  0  0
 19 18  1  0  0  0  0
 20 19  2  0  0  0  0
 21 17  1  0  0  0  0
 22 21  2  0  0  0  0
 24 16  1  0  0  0  0
 26 18  1  0  0  0  0
 28 23  1  0  0  0  0
 29 21  1  0  0  0  0
 29 41  1  0  0  0  0
 30 42  1  1  0  0  0
 30 29  1  0  0  0  0
 31 32  1  0  0  0  0
 31 30  1  0  0  0  0
 32 33  1  0  0  0  0
 33 45  1  0  0  0  0
 33 34  2  0  0  0  0
 34 46  1  0  0  0  0
 35 34  1  0  0  0  0
 35 47  1  0  0  0  0
 36 35  2  0  0  0  0
 37 32  2  0  0  0  0
 37 36  1  0  0  0  0
 38 40  1  0  0  0  0
 38 30  1  0  0  0  0
 39 38  2  0  0  0  0
 43 31  1  0  0  0  0
 44 31  1  0  0  0  0
 48 36  1  0  0  0  0
 49 37  1  0  0  0  0
M  END
$$$$
