TDG.pdb
 OpenBabel07022419113D

 36 35  0  0  1  0  0  0  0  0999 V2000
   -1.3930   -1.2750    4.1910 C   0  0  0  0  0  0  0  0  0  0  0  0
   -0.7980   -2.4780    3.5110 C   0  0  1  0  0  0  0  0  0  0  0  0
   -1.7360   -3.2490    2.8440 O   0  0  0  0  0  0  0  0  0  0  0  0
    0.2880   -2.1040    2.5500 C   0  0  2  0  0  0  0  0  0  0  0  0
    1.2940   -1.3060    3.1730 N   0  0  0  0  0  0  0  0  0  0  0  0
   -0.2110   -1.5380    1.2760 C   0  0  0  0  0  0  0  0  0  0  0  0
   -1.1050   -2.1360    0.6260 O   0  0  0  0  0  0  0  0  0  0  0  0
   -0.5410   -0.7180    4.6540 H   0  0  0  0  0  0  0  0  0  0  0  0
   -2.1120   -1.6450    4.9640 H   0  0  0  0  0  0  0  0  0  0  0  0
   -1.8960   -0.6550    3.4310 H   0  0  0  0  0  0  0  0  0  0  0  0
   -0.3190   -3.1590    4.2740 H   0  0  0  0  0  0  0  0  0  0  0  0
   -2.6590   -3.1400    3.2180 H   0  0  0  0  0  0  0  0  0  0  0  0
    0.7930   -3.0750    2.2620 H   0  0  0  0  0  0  0  0  0  0  0  0
    2.2450   -1.4360    2.7200 H   0  0  0  0  0  0  0  0  0  0  0  0
    1.3580   -1.3990    4.1900 H   0  0  0  0  0  0  0  0  0  0  0  0
    0.2770   -0.3120    0.7180 N   0  0  0  0  0  0  0  0  0  0  0  0
   -0.2050    0.2390   -0.5190 C   0  0  1  0  0  0  0  0  0  0  0  0
   -0.8270    1.6050   -0.3440 C   0  0  0  0  0  0  0  0  0  0  0  0
   -1.9710    1.5980    0.5680 C   0  0  0  0  0  0  0  0  0  0  0  0
   -1.8170    1.5640    1.8110 O   0  0  0  0  0  0  0  0  0  0  0  0
    0.8680    0.2980   -1.5450 C   0  0  0  0  0  0  0  0  0  0  0  0
    0.6130    0.7540   -2.6810 O   0  0  0  0  0  0  0  0  0  0  0  0
   -3.2650    1.6280    0.0750 O   0  0  0  0  0  0  0  0  0  0  0  0
    1.0130    0.1700    1.2630 H   0  0  0  0  0  0  0  0  0  0  0  0
   -1.0010   -0.4160   -0.9560 H   0  0  0  0  0  0  0  0  0  0  0  0
   -1.0220    2.0750   -1.3280 H   0  0  0  0  0  0  0  0  0  0  0  0
   -0.0430    2.2640    0.1340 H   0  0  0  0  0  0  0  0  0  0  0  0
   -4.0890    1.8100    0.6320 H   0  0  0  0  0  0  0  0  0  0  0  0
    2.1730   -0.1580   -1.2420 N   0  0  0  0  0  0  0  0  0  0  0  0
    3.2680   -0.1330   -2.1800 C   0  0  0  0  0  0  0  0  0  0  0  0
    2.9720   -0.9460   -3.3880 C   0  0  0  0  0  0  0  0  0  0  0  0
    1.8610   -1.5260   -3.4450 O   0  0  0  0  0  0  0  0  0  0  0  0
    3.8460   -1.0990   -4.4490 O   0  0  0  0  0  0  0  0  0  0  0  0
    2.3160   -0.5330   -0.2550 H   0  0  0  0  0  0  0  0  0  0  0  0
    3.5520    0.9150   -2.4560 H   0  0  0  0  0  0  0  0  0  0  0  0
    4.1540   -0.6050   -1.7030 H   0  0  0  0  0  0  0  0  0  0  0  0
  1  8  1  0  0  0  0
  1  9  1  0  0  0  0
  2  1  1  0  0  0  0
  2 11  1  1  0  0  0
  3 12  1  0  0  0  0
  3  2  1  0  0  0  0
  4 13  1  6  0  0  0
  4  5  1  0  0  0  0
  4  2  1  0  0  0  0
  5 15  1  0  0  0  0
  6  4  1  0  0  0  0
  7  6  2  0  0  0  0
 10  1  1  0  0  0  0
 14  5  1  0  0  0  0
 16 24  1  0  0  0  0
 16  6  1  0  0  0  0
 17 25  1  6  0  0  0
 17 18  1  0  0  0  0
 17 16  1  0  0  0  0
 18 27  1  0  0  0  0
 18 19  1  0  0  0  0
 19 20  2  0  0  0  0
 21 29  1  0  0  0  0
 21 17  1  0  0  0  0
 22 21  2  0  0  0  0
 23 19  1  0  0  0  0
 23 28  1  0  0  0  0
 26 18  1  0  0  0  0
 29 34  1  0  0  0  0
 30 36  1  0  0  0  0
 30 29  1  0  0  0  0
 31 30  1  0  0  0  0
 32 31  1  0  0  0  0
 33 31  2  0  0  0  0
 35 30  1  0  0  0  0
M  END
$$$$
