TDH.pdb
 OpenBabel07022419113D

 46 46  0  0  1  0  0  0  0  0999 V2000
    3.0460   -4.4420    3.1100 C   0  0  0  0  0  0  0  0  0  0  0  0
    3.0060   -3.1050    2.4150 C   0  0  1  0  0  0  0  0  0  0  0  0
    2.4810   -3.3240    1.1400 O   0  0  0  0  0  0  0  0  0  0  0  0
    2.1060   -2.1570    3.2000 C   0  0  2  0  0  0  0  0  0  0  0  0
    0.8050   -2.7290    3.3210 N   0  0  0  0  0  0  0  0  0  0  0  0
    2.0520   -0.8210    2.5210 C   0  0  0  0  0  0  0  0  0  0  0  0
    3.0850   -0.1350    2.3900 O   0  0  0  0  0  0  0  0  0  0  0  0
    3.2900   -5.2380    2.3870 H   0  0  0  0  0  0  0  0  0  0  0  0
    3.8460   -4.4360    3.8910 H   0  0  0  0  0  0  0  0  0  0  0  0
    2.0800   -4.6060    3.6200 H   0  0  0  0  0  0  0  0  0  0  0  0
    4.0410   -2.7190    2.3380 H   0  0  0  0  0  0  0  0  0  0  0  0
    2.9860   -4.0500    0.6960 H   0  0  0  0  0  0  0  0  0  0  0  0
    2.5500   -2.0330    4.2140 H   0  0  0  0  0  0  0  0  0  0  0  0
    0.1440   -2.1370    3.8420 H   0  0  0  0  0  0  0  0  0  0  0  0
    0.4310   -2.9700    2.3900 H   0  0  0  0  0  0  0  0  0  0  0  0
    0.8190   -0.3770    2.0450 N   0  0  0  0  0  0  0  0  0  0  0  0
    0.4900    0.8410    1.3970 C   0  0  1  0  0  0  0  0  0  0  0  0
    1.6610    1.7800    1.2410 C   0  0  0  0  0  0  0  0  0  0  0  0
    2.2250    2.2800    2.4980 C   0  0  0  0  0  0  0  0  0  0  0  0
    3.3190    2.9190    2.4750 O   0  0  0  0  0  0  0  0  0  0  0  0
   -0.3230    0.7290    0.1780 C   0  0  0  0  0  0  0  0  0  0  0  0
   -0.7070    1.7740   -0.4500 O   0  0  0  0  0  0  0  0  0  0  0  0
    1.6520    2.1180    3.7630 O   0  0  0  0  0  0  0  0  0  0  0  0
   -0.0490   -1.0260    2.1720 H   0  0  0  0  0  0  0  0  0  0  0  0
   -0.0960    1.4230    2.2390 H   0  0  0  0  0  0  0  0  0  0  0  0
    2.4830    1.2980    0.6590 H   0  0  0  0  0  0  0  0  0  0  0  0
    1.3490    2.6910    0.6500 H   0  0  0  0  0  0  0  0  0  0  0  0
    1.9720    2.6610    4.5640 H   0  0  0  0  0  0  0  0  0  0  0  0
   -0.7010   -0.5180   -0.3310 N   0  0  0  0  0  0  0  0  0  0  0  0
   -1.5010   -0.8420   -1.4700 C   0  0  1  0  0  0  0  0  0  0  0  0
   -2.1070    0.3340   -2.2130 C   0  0  0  0  0  0  0  0  0  0  0  0
   -3.0890    1.0840   -1.3920 C   0  0  0  0  0  0  0  0  0  0  0  0
   -3.8000    2.2170   -1.7160 C   0  0  0  0  0  0  0  0  0  0  0  0
   -4.5950    2.6050   -0.7030 N   0  0  0  0  0  0  0  0  0  0  0  0
   -4.3840    1.7030    0.2770 C   0  0  0  0  0  0  0  0  0  0  0  0
   -3.4840    0.7890   -0.1240 N   0  0  0  0  0  0  0  0  0  0  0  0
   -1.0160   -1.9200   -2.3250 C   0  0  0  0  0  0  0  0  0  0  0  0
   -1.6940   -2.2340   -3.3340 O   0  0  0  0  0  0  0  0  0  0  0  0
    0.1560   -2.6310   -2.0990 O   0  0  0  0  0  0  0  0  0  0  0  0
   -0.3260   -1.3770    0.2210 H   0  0  0  0  0  0  0  0  0  0  0  0
   -2.4860   -1.2410   -0.9550 H   0  0  0  0  0  0  0  0  0  0  0  0
   -2.6700   -0.1010   -3.0850 H   0  0  0  0  0  0  0  0  0  0  0  0
   -1.3500    1.0600   -2.5710 H   0  0  0  0  0  0  0  0  0  0  0  0
   -3.7030    2.7070   -2.6800 H   0  0  0  0  0  0  0  0  0  0  0  0
   -5.2410    3.4250   -0.6680 H   0  0  0  0  0  0  0  0  0  0  0  0
   -4.9020    1.7740    1.2250 H   0  0  0  0  0  0  0  0  0  0  0  0
  1 10  1  0  0  0  0
  1  9  1  0  0  0  0
  2 11  1  6  0  0  0
  2  1  1  0  0  0  0
  2  4  1  0  0  0  0
  3  2  1  0  0  0  0
  4  5  1  0  0  0  0
  4 13  1  1  0  0  0
  5 14  1  0  0  0  0
  6  4  1  0  0  0  0
  7  6  2  0  0  0  0
  8  1  1  0  0  0  0
 12  3  1  0  0  0  0
 15  5  1  0  0  0  0
 16 24  1  0  0  0  0
 16  6  1  0  0  0  0
 17 16  1  0  0  0  0
 17 25  1  1  0  0  0
 18 17  1  0  0  0  0
 18 19  1  0  0  0  0
 19 23  1  0  0  0  0
 20 19  2  0  0  0  0
 21 17  1  0  0  0  0
 22 21  2  0  0  0  0
 23 28  1  0  0  0  0
 26 18  1  0  0  0  0
 27 18  1  0  0  0  0
 29 21  1  0  0  0  0
 29 40  1  0  0  0  0
 30 41  1  1  0  0  0
 30 29  1  0  0  0  0
 31 30  1  0  0  0  0
 31 32  1  0  0  0  0
 32 36  1  0  0  0  0
 33 32  2  0  0  0  0
 33 34  1  0  0  0  0
 34 45  1  0  0  0  0
 34 35  1  0  0  0  0
 35 46  1  0  0  0  0
 36 35  2  0  0  0  0
 37 39  1  0  0  0  0
 37 30  1  0  0  0  0
 38 37  2  0  0  0  0
 42 31  1  0  0  0  0
 43 31  1  0  0  0  0
 44 33  1  0  0  0  0
M  END
$$$$
