TDK.pdb
 OpenBabel07022419113D

 50 49  0  0  1  0  0  0  0  0999 V2000
    4.0330   -3.9880    3.2550 C   0  0  0  0  0  0  0  0  0  0  0  0
    3.9290   -2.7420    4.0650 C   0  0  1  0  0  0  0  0  0  0  0  0
    5.0340   -2.6820    4.9270 O   0  0  0  0  0  0  0  0  0  0  0  0
    3.8180   -1.4740    3.2520 C   0  0  2  0  0  0  0  0  0  0  0  0
    3.6630   -0.3890    4.2080 N   0  0  0  0  0  0  0  0  0  0  0  0
    2.6210   -1.5940    2.3770 C   0  0  0  0  0  0  0  0  0  0  0  0
    2.6580   -2.4940    1.5020 O   0  0  0  0  0  0  0  0  0  0  0  0
    3.0330   -4.3490    2.8740 H   0  0  0  0  0  0  0  0  0  0  0  0
    4.7950   -3.9700    2.4660 H   0  0  0  0  0  0  0  0  0  0  0  0
    4.3480   -4.8120    3.9620 H   0  0  0  0  0  0  0  0  0  0  0  0
    3.0410   -2.8550    4.7360 H   0  0  0  0  0  0  0  0  0  0  0  0
    5.0700   -1.8410    5.4250 H   0  0  0  0  0  0  0  0  0  0  0  0
    4.6980   -1.3440    2.6240 H   0  0  0  0  0  0  0  0  0  0  0  0
    3.0540   -0.6640    5.0060 H   0  0  0  0  0  0  0  0  0  0  0  0
    4.5510   -0.0010    4.5460 H   0  0  0  0  0  0  0  0  0  0  0  0
    1.4920   -0.7840    2.4710 N   0  0  0  0  0  0  0  0  0  0  0  0
    0.3490   -0.9710    1.5620 C   0  0  1  0  0  0  0  0  0  0  0  0
   -0.8500   -1.4130    2.3260 C   0  0  0  0  0  0  0  0  0  0  0  0
   -2.0030   -1.6020    1.4360 C   0  0  0  0  0  0  0  0  0  0  0  0
   -2.9630   -0.7530    1.4030 O   0  0  0  0  0  0  0  0  0  0  0  0
    0.2300    0.2850    0.8170 C   0  0  0  0  0  0  0  0  0  0  0  0
    0.9210    1.2800    1.1380 O   0  0  0  0  0  0  0  0  0  0  0  0
   -2.1400   -2.6900    0.5780 O   0  0  0  0  0  0  0  0  0  0  0  0
    1.4190   -0.0400    3.1700 H   0  0  0  0  0  0  0  0  0  0  0  0
    0.6100   -1.8350    0.8760 H   0  0  0  0  0  0  0  0  0  0  0  0
   -0.6080   -2.4120    2.7510 H   0  0  0  0  0  0  0  0  0  0  0  0
   -1.1630   -0.6940    3.1120 H   0  0  0  0  0  0  0  0  0  0  0  0
   -2.9530   -2.9360    0.0620 H   0  0  0  0  0  0  0  0  0  0  0  0
   -0.6720    0.4740   -0.3280 N   0  0  0  0  0  0  0  0  0  0  0  0
   -0.6970    1.7490   -0.9760 C   0  0  1  0  0  0  0  0  0  0  0  0
   -0.6810    1.6920   -2.4380 C   0  0  0  0  0  0  0  0  0  0  0  0
   -1.7070    1.2110   -3.3260 C   0  0  0  0  0  0  0  0  0  0  0  0
   -2.4000   -0.0790   -3.2220 C   0  0  0  0  0  0  0  0  0  0  0  0
   -3.4360   -0.2360   -2.1600 C   0  0  0  0  0  0  0  0  0  0  0  0
   -3.9920   -1.5950   -2.1580 N   0  0  0  0  0  0  0  0  0  0  0  0
   -1.8440    2.5890   -0.4660 C   0  0  0  0  0  0  0  0  0  0  0  0
   -1.9810    3.7310   -0.9700 O   0  0  0  0  0  0  0  0  0  0  0  0
   -2.7260    2.1840    0.4970 O   0  0  0  0  0  0  0  0  0  0  0  0
   -1.1720   -0.3880   -0.5540 H   0  0  0  0  0  0  0  0  0  0  0  0
    0.2030    2.3730   -0.6440 H   0  0  0  0  0  0  0  0  0  0  0  0
   -0.3550    2.7490   -2.8540 H   0  0  0  0  0  0  0  0  0  0  0  0
    0.3080    1.1380   -2.7780 H   0  0  0  0  0  0  0  0  0  0  0  0
   -2.5220    2.0410   -3.5060 H   0  0  0  0  0  0  0  0  0  0  0  0
   -1.2770    1.2230   -4.4180 H   0  0  0  0  0  0  0  0  0  0  0  0
   -2.9340   -0.3550   -4.1950 H   0  0  0  0  0  0  0  0  0  0  0  0
   -1.6270   -0.9140   -3.1540 H   0  0  0  0  0  0  0  0  0  0  0  0
   -3.2000    0.0710   -1.1840 H   0  0  0  0  0  0  0  0  0  0  0  0
   -4.3370    0.4460   -2.4540 H   0  0  0  0  0  0  0  0  0  0  0  0
   -4.5490   -1.7680   -1.3000 H   0  0  0  0  0  0  0  0  0  0  0  0
   -3.2370   -2.2930   -2.3240 H   0  0  0  0  0  0  0  0  0  0  0  0
  1 10  1  0  0  0  0
  1  2  1  0  0  0  0
  2 11  1  1  0  0  0
  2  3  1  0  0  0  0
  3 12  1  0  0  0  0
  4 13  1  6  0  0  0
  4  2  1  0  0  0  0
  4  5  1  0  0  0  0
  5 15  1  0  0  0  0
  5 14  1  0  0  0  0
  6 16  1  0  0  0  0
  6  4  1  0  0  0  0
  7  6  2  0  0  0  0
  8  1  1  0  0  0  0
  9  1  1  0  0  0  0
 16 24  1  0  0  0  0
 17 25  1  6  0  0  0
 17 18  1  0  0  0  0
 17 16  1  0  0  0  0
 18 26  1  0  0  0  0
 18 27  1  0  0  0  0
 19 18  1  0  0  0  0
 20 19  2  0  0  0  0
 21 22  2  0  0  0  0
 21 17  1  0  0  0  0
 23 19  1  0  0  0  0
 28 23  1  0  0  0  0
 29 21  1  0  0  0  0
 30 40  1  1  0  0  0
 30 36  1  0  0  0  0
 30 29  1  0  0  0  0
 31 30  1  0  0  0  0
 32 33  1  0  0  0  0
 32 31  1  0  0  0  0
 33 46  1  0  0  0  0
 33 34  1  0  0  0  0
 34 35  1  0  0  0  0
 34 47  1  0  0  0  0
 35 49  1  0  0  0  0
 36 38  1  0  0  0  0
 37 36  2  0  0  0  0
 39 29  1  0  0  0  0
 41 31  1  0  0  0  0
 42 31  1  0  0  0  0
 43 32  1  0  0  0  0
 44 32  1  0  0  0  0
 45 33  1  0  0  0  0
 48 34  1  0  0  0  0
 50 35  1  0  0  0  0
M  END
$$$$
