TDL.pdb
 OpenBabel07022419113D

 48 47  0  0  1  0  0  0  0  0999 V2000
    2.3220   -5.5680   -2.3230 C   0  0  0  0  0  0  0  0  0  0  0  0
    2.6970   -4.4190   -1.4370 C   0  0  1  0  0  0  0  0  0  0  0  0
    3.4530   -3.4460   -2.0830 O   0  0  0  0  0  0  0  0  0  0  0  0
    1.4350   -3.7610   -0.9440 C   0  0  2  0  0  0  0  0  0  0  0  0
    0.7020   -3.2200   -2.0330 N   0  0  0  0  0  0  0  0  0  0  0  0
    1.8270   -2.7580    0.0790 C   0  0  0  0  0  0  0  0  0  0  0  0
    2.4800   -3.1900    1.0690 O   0  0  0  0  0  0  0  0  0  0  0  0
    1.9210   -6.3740   -1.6630 H   0  0  0  0  0  0  0  0  0  0  0  0
    1.5520   -5.2680   -3.0530 H   0  0  0  0  0  0  0  0  0  0  0  0
    3.2520   -5.9210   -2.8270 H   0  0  0  0  0  0  0  0  0  0  0  0
    3.2600   -4.7900   -0.5430 H   0  0  0  0  0  0  0  0  0  0  0  0
    4.3460   -3.8220   -2.2290 H   0  0  0  0  0  0  0  0  0  0  0  0
    0.8250   -4.5340   -0.4230 H   0  0  0  0  0  0  0  0  0  0  0  0
    1.1440   -3.2650   -2.9540 H   0  0  0  0  0  0  0  0  0  0  0  0
   -0.3160   -3.3740   -2.0060 H   0  0  0  0  0  0  0  0  0  0  0  0
    1.5310   -1.3950    0.0270 N   0  0  0  0  0  0  0  0  0  0  0  0
    1.9510   -0.4810    1.0690 C   0  0  1  0  0  0  0  0  0  0  0  0
    2.9560    0.5220    0.5420 C   0  0  0  0  0  0  0  0  0  0  0  0
    3.4190    1.4780    1.5590 C   0  0  0  0  0  0  0  0  0  0  0  0
    2.8140    2.5520    1.7600 O   0  0  0  0  0  0  0  0  0  0  0  0
    0.7930    0.1470    1.7520 C   0  0  0  0  0  0  0  0  0  0  0  0
    1.0000    0.9390    2.6920 O   0  0  0  0  0  0  0  0  0  0  0  0
    4.5420    1.2000    2.3140 O   0  0  0  0  0  0  0  0  0  0  0  0
    0.9950   -1.0080   -0.7740 H   0  0  0  0  0  0  0  0  0  0  0  0
    2.5000   -1.0870    1.8210 H   0  0  0  0  0  0  0  0  0  0  0  0
    2.5760    1.0520   -0.3550 H   0  0  0  0  0  0  0  0  0  0  0  0
    3.8470   -0.0460    0.1970 H   0  0  0  0  0  0  0  0  0  0  0  0
    4.8750    1.8260    3.0560 H   0  0  0  0  0  0  0  0  0  0  0  0
   -4.5020    2.7750    0.7670 C   0  0  0  0  0  0  0  0  0  0  0  0
   -3.7310    1.9780    1.8110 C   0  0  0  0  0  0  0  0  0  0  0  0
   -3.3780    2.8960    2.9260 C   0  0  0  0  0  0  0  0  0  0  0  0
   -2.5440    1.3190    1.1550 C   0  0  0  0  0  0  0  0  0  0  0  0
   -1.6980    0.5160    2.0720 C   0  0  2  0  0  0  0  0  0  0  0  0
   -0.5590   -0.0990    1.4020 N   0  0  0  0  0  0  0  0  0  0  0  0
   -2.4450   -0.5740    2.7390 C   0  0  0  0  0  0  0  0  0  0  0  0
   -2.0570   -1.7850    2.6090 O   0  0  0  0  0  0  0  0  0  0  0  0
   -3.5720   -0.4090    3.5280 O   0  0  0  0  0  0  0  0  0  0  0  0
   -4.0140    3.7400    0.5660 H   0  0  0  0  0  0  0  0  0  0  0  0
   -5.5190    2.9390    1.2160 H   0  0  0  0  0  0  0  0  0  0  0  0
   -4.6350    2.1290   -0.1030 H   0  0  0  0  0  0  0  0  0  0  0  0
   -4.4310    1.1880    2.1610 H   0  0  0  0  0  0  0  0  0  0  0  0
   -3.8160    3.9160    2.8400 H   0  0  0  0  0  0  0  0  0  0  0  0
   -3.7540    2.4630    3.8910 H   0  0  0  0  0  0  0  0  0  0  0  0
   -2.2860    3.0280    3.0720 H   0  0  0  0  0  0  0  0  0  0  0  0
   -2.9950    0.6000    0.4030 H   0  0  0  0  0  0  0  0  0  0  0  0
   -1.9740    2.0270    0.5180 H   0  0  0  0  0  0  0  0  0  0  0  0
   -1.3490    1.1980    2.8920 H   0  0  0  0  0  0  0  0  0  0  0  0
   -0.7160   -0.7640    0.6150 H   0  0  0  0  0  0  0  0  0  0  0  0
  1  8  1  0  0  0  0
  1  2  1  0  0  0  0
  2  4  1  0  0  0  0
  2 11  1  1  0  0  0
  3  2  1  0  0  0  0
  4 13  1  1  0  0  0
  4  6  1  0  0  0  0
  5 15  1  0  0  0  0
  5  4  1  0  0  0  0
  6  7  2  0  0  0  0
  9  1  1  0  0  0  0
 10  1  1  0  0  0  0
 12  3  1  0  0  0  0
 14  5  1  0  0  0  0
 16  6  1  0  0  0  0
 16 17  1  0  0  0  0
 17 21  1  0  0  0  0
 17 25  1  1  0  0  0
 18 17  1  0  0  0  0
 18 19  1  0  0  0  0
 19 20  2  0  0  0  0
 19 23  1  0  0  0  0
 21 22  2  0  0  0  0
 23 28  1  0  0  0  0
 24 16  1  0  0  0  0
 26 18  1  0  0  0  0
 27 18  1  0  0  0  0
 29 39  1  0  0  0  0
 29 30  1  0  0  0  0
 30 41  1  0  0  0  0
 30 31  1  0  0  0  0
 31 44  1  0  0  0  0
 31 43  1  0  0  0  0
 32 30  1  0  0  0  0
 32 33  1  0  0  0  0
 33 35  1  0  0  0  0
 33 47  1  1  0  0  0
 34 21  1  0  0  0  0
 34 33  1  0  0  0  0
 35 37  1  0  0  0  0
 36 35  2  0  0  0  0
 38 29  1  0  0  0  0
 40 29  1  0  0  0  0
 42 31  1  0  0  0  0
 45 32  1  0  0  0  0
 46 32  1  0  0  0  0
 48 34  1  0  0  0  0
M  END
$$$$
