TDN.pdb
 OpenBabel07022419113D

 43 42  0  0  1  0  0  0  0  0999 V2000
   -1.8400   -5.3440    0.6310 C   0  0  0  0  0  0  0  0  0  0  0  0
   -0.5840   -4.4840    0.6900 C   0  0  1  0  0  0  0  0  0  0  0  0
    0.3290   -4.8650   -0.2680 O   0  0  0  0  0  0  0  0  0  0  0  0
   -0.9610   -2.9990    0.5790 C   0  0  2  0  0  0  0  0  0  0  0  0
   -1.5280   -2.7500   -0.6920 N   0  0  0  0  0  0  0  0  0  0  0  0
    0.1500   -2.1720    1.0110 C   0  0  0  0  0  0  0  0  0  0  0  0
    0.6420   -2.3960    2.1560 O   0  0  0  0  0  0  0  0  0  0  0  0
   -2.3700   -5.3110    1.6160 H   0  0  0  0  0  0  0  0  0  0  0  0
   -1.5760   -6.3880    0.4450 H   0  0  0  0  0  0  0  0  0  0  0  0
   -2.5190   -4.9320   -0.1440 H   0  0  0  0  0  0  0  0  0  0  0  0
   -0.1350   -4.6770    1.7090 H   0  0  0  0  0  0  0  0  0  0  0  0
    0.9430   -5.5660    0.0640 H   0  0  0  0  0  0  0  0  0  0  0  0
   -1.7840   -2.8830    1.3420 H   0  0  0  0  0  0  0  0  0  0  0  0
   -2.5720   -2.7560   -0.7150 H   0  0  0  0  0  0  0  0  0  0  0  0
   -1.1100   -3.2840   -1.4820 H   0  0  0  0  0  0  0  0  0  0  0  0
    0.7570   -1.1120    0.2630 N   0  0  0  0  0  0  0  0  0  0  0  0
    1.8530   -0.3350    0.7430 C   0  0  1  0  0  0  0  0  0  0  0  0
    3.0300   -0.3030   -0.1870 C   0  0  0  0  0  0  0  0  0  0  0  0
    3.5340   -1.6800   -0.4070 C   0  0  0  0  0  0  0  0  0  0  0  0
    4.5680   -1.8990   -1.1240 O   0  0  0  0  0  0  0  0  0  0  0  0
    1.3820    1.0830    1.0320 C   0  0  0  0  0  0  0  0  0  0  0  0
    2.1980    1.9030    1.4910 O   0  0  0  0  0  0  0  0  0  0  0  0
    2.9380   -2.8010    0.1330 O   0  0  0  0  0  0  0  0  0  0  0  0
    0.3600   -0.9270   -0.6630 H   0  0  0  0  0  0  0  0  0  0  0  0
    2.2320   -0.6800    1.7450 H   0  0  0  0  0  0  0  0  0  0  0  0
    3.8680    0.3020    0.2090 H   0  0  0  0  0  0  0  0  0  0  0  0
    2.7420    0.0910   -1.1900 H   0  0  0  0  0  0  0  0  0  0  0  0
    3.3580   -3.7270    0.1040 H   0  0  0  0  0  0  0  0  0  0  0  0
    1.7350    4.4770    3.3700 N   0  0  0  0  0  0  0  0  0  0  0  0
    0.7380    3.6660    2.8160 C   0  0  0  0  0  0  0  0  0  0  0  0
    0.2770    2.7030    3.5020 O   0  0  0  0  0  0  0  0  0  0  0  0
    0.1830    3.8700    1.4600 C   0  0  0  0  0  0  0  0  0  0  0  0
   -0.6310    2.6790    0.9910 C   0  0  2  0  0  0  0  0  0  0  0  0
    0.0590    1.4600    0.7890 N   0  0  0  0  0  0  0  0  0  0  0  0
   -1.6550    3.0110    0.0020 C   0  0  0  0  0  0  0  0  0  0  0  0
   -2.3360    4.0590    0.1050 O   0  0  0  0  0  0  0  0  0  0  0  0
   -1.9060    2.1830   -1.0780 O   0  0  0  0  0  0  0  0  0  0  0  0
    2.0660    5.3560    2.8990 H   0  0  0  0  0  0  0  0  0  0  0  0
    2.2090    4.2600    4.2800 H   0  0  0  0  0  0  0  0  0  0  0  0
   -0.4580    4.7740    1.5140 H   0  0  0  0  0  0  0  0  0  0  0  0
    1.0740    4.0310    0.7840 H   0  0  0  0  0  0  0  0  0  0  0  0
   -1.2130    2.4520    1.9950 H   0  0  0  0  0  0  0  0  0  0  0  0
   -0.5380    0.6510    0.3630 H   0  0  0  0  0  0  0  0  0  0  0  0
  1  2  1  0  0  0  0
  1  8  1  0  0  0  0
  2 11  1  1  0  0  0
  3 12  1  0  0  0  0
  3  2  1  0  0  0  0
  4  2  1  0  0  0  0
  4  6  1  0  0  0  0
  4 13  1  1  0  0  0
  5  4  1  0  0  0  0
  6  7  2  0  0  0  0
  9  1  1  0  0  0  0
 10  1  1  0  0  0  0
 14  5  1  0  0  0  0
 15  5  1  0  0  0  0
 16 17  1  0  0  0  0
 16  6  1  0  0  0  0
 17 21  1  0  0  0  0
 17 25  1  1  0  0  0
 18 26  1  0  0  0  0
 18 17  1  0  0  0  0
 19 18  1  0  0  0  0
 19 23  1  0  0  0  0
 20 19  2  0  0  0  0
 21 22  2  0  0  0  0
 24 16  1  0  0  0  0
 27 18  1  0  0  0  0
 28 23  1  0  0  0  0
 29 39  1  0  0  0  0
 30 29  1  0  0  0  0
 30 31  2  0  0  0  0
 32 40  1  0  0  0  0
 32 30  1  0  0  0  0
 33 32  1  0  0  0  0
 33 42  1  1  0  0  0
 34 33  1  0  0  0  0
 34 21  1  0  0  0  0
 35 36  1  0  0  0  0
 35 33  1  0  0  0  0
 37 35  2  0  0  0  0
 38 29  1  0  0  0  0
 41 32  1  0  0  0  0
 43 34  1  0  0  0  0
M  END
$$$$
