TDP.pdb
 OpenBabel07022419113D

 43 43  0  0  1  0  0  0  0  0999 V2000
    0.2790   -4.3510   -2.4610 C   0  0  0  0  0  0  0  0  0  0  0  0
    0.3810   -3.0570   -3.2370 C   0  0  1  0  0  0  0  0  0  0  0  0
   -0.0320   -3.2770   -4.5420 O   0  0  0  0  0  0  0  0  0  0  0  0
   -0.4990   -1.9980   -2.5580 C   0  0  2  0  0  0  0  0  0  0  0  0
   -0.4230   -0.7430   -3.2780 N   0  0  0  0  0  0  0  0  0  0  0  0
   -0.0490   -1.8540   -1.1520 C   0  0  0  0  0  0  0  0  0  0  0  0
   -0.0470   -2.8490   -0.3760 O   0  0  0  0  0  0  0  0  0  0  0  0
   -0.7360   -4.4070   -1.9770 H   0  0  0  0  0  0  0  0  0  0  0  0
    1.0810   -4.4540   -1.7150 H   0  0  0  0  0  0  0  0  0  0  0  0
    0.3420   -5.2110   -3.1900 H   0  0  0  0  0  0  0  0  0  0  0  0
    1.4380   -2.7510   -3.2290 H   0  0  0  0  0  0  0  0  0  0  0  0
    0.4050   -4.1140   -4.8470 H   0  0  0  0  0  0  0  0  0  0  0  0
   -1.5400   -2.3630   -2.6500 H   0  0  0  0  0  0  0  0  0  0  0  0
   -1.1880   -0.1260   -2.9300 H   0  0  0  0  0  0  0  0  0  0  0  0
   -0.6880   -0.9800   -4.2820 H   0  0  0  0  0  0  0  0  0  0  0  0
    0.3950   -0.6290   -0.5970 N   0  0  0  0  0  0  0  0  0  0  0  0
    0.8380   -0.4760    0.7800 C   0  0  1  0  0  0  0  0  0  0  0  0
    2.2890   -0.0360    0.8200 C   0  0  0  0  0  0  0  0  0  0  0  0
    2.5280    1.2510    0.1470 C   0  0  0  0  0  0  0  0  0  0  0  0
    3.7380    1.6500    0.1330 O   0  0  0  0  0  0  0  0  0  0  0  0
    0.0160    0.5590    1.4320 C   0  0  0  0  0  0  0  0  0  0  0  0
   -0.7470    1.2480    0.6660 O   0  0  0  0  0  0  0  0  0  0  0  0
    1.6080    2.0560   -0.4580 O   0  0  0  0  0  0  0  0  0  0  0  0
    0.4070    0.2120   -1.2000 H   0  0  0  0  0  0  0  0  0  0  0  0
    0.7740   -1.4300    1.3250 H   0  0  0  0  0  0  0  0  0  0  0  0
    2.5580    0.1050    1.8740 H   0  0  0  0  0  0  0  0  0  0  0  0
    2.9630   -0.8440    0.4340 H   0  0  0  0  0  0  0  0  0  0  0  0
    1.8690    2.6130   -1.2670 H   0  0  0  0  0  0  0  0  0  0  0  0
   -0.0180    0.8650    2.8080 N   0  0  0  0  0  0  0  0  0  0  0  0
   -0.8420    1.9600    3.3570 C   0  0  0  0  0  0  0  0  0  0  0  0
   -0.1500    2.4660    4.5770 C   0  0  0  0  0  0  0  0  0  0  0  0
    1.0770    1.5800    4.6750 C   0  0  0  0  0  0  0  0  0  0  0  0
    0.6010    0.3010    3.9710 C   0  0  1  0  0  0  0  0  0  0  0  0
   -0.4080   -0.3770    4.8560 C   0  0  0  0  0  0  0  0  0  0  0  0
    0.0050   -0.8900    5.9200 O   0  0  0  0  0  0  0  0  0  0  0  0
   -1.7440   -0.4390    4.5200 O   0  0  0  0  0  0  0  0  0  0  0  0
   -0.8720    2.7910    2.6030 H   0  0  0  0  0  0  0  0  0  0  0  0
   -1.8900    1.6440    3.5070 H   0  0  0  0  0  0  0  0  0  0  0  0
    0.0910    3.5310    4.5180 H   0  0  0  0  0  0  0  0  0  0  0  0
   -0.7730    2.2970    5.4930 H   0  0  0  0  0  0  0  0  0  0  0  0
    1.8500    2.0310    4.0410 H   0  0  0  0  0  0  0  0  0  0  0  0
    1.3930    1.3930    5.7010 H   0  0  0  0  0  0  0  0  0  0  0  0
    1.4470   -0.3520    3.8230 H   0  0  0  0  0  0  0  0  0  0  0  0
  1  8  1  0  0  0  0
  1  9  1  0  0  0  0
  2 11  1  6  0  0  0
  2  4  1  0  0  0  0
  2  1  1  0  0  0  0
  3  2  1  0  0  0  0
  4 13  1  6  0  0  0
  4  6  1  0  0  0  0
  5 14  1  0  0  0  0
  5  4  1  0  0  0  0
  6 16  1  0  0  0  0
  6  7  2  0  0  0  0
 10  1  1  0  0  0  0
 12  3  1  0  0  0  0
 15  5  1  0  0  0  0
 16 17  1  0  0  0  0
 17 18  1  0  0  0  0
 17 25  1  1  0  0  0
 17 21  1  0  0  0  0
 18 26  1  0  0  0  0
 19 18  1  0  0  0  0
 20 19  2  0  0  0  0
 21 29  1  0  0  0  0
 22 21  2  0  0  0  0
 23 19  1  0  0  0  0
 24 16  1  0  0  0  0
 27 18  1  0  0  0  0
 28 23  1  0  0  0  0
 29 30  1  0  0  0  0
 29 33  1  0  0  0  0
 30 38  1  0  0  0  0
 30 31  1  0  0  0  0
 31 32  1  0  0  0  0
 31 40  1  0  0  0  0
 32 42  1  0  0  0  0
 33 43  1  6  0  0  0
 33 32  1  0  0  0  0
 33 34  1  0  0  0  0
 34 35  1  0  0  0  0
 36 34  2  0  0  0  0
 37 30  1  0  0  0  0
 39 31  1  0  0  0  0
 41 32  1  0  0  0  0
M  END
$$$$
