TDQ.pdb
 OpenBabel07022419113D

 46 45  0  0  1  0  0  0  0  0999 V2000
    0.9950   -4.8730   -1.6740 C   0  0  0  0  0  0  0  0  0  0  0  0
    1.4370   -4.1550   -0.4030 C   0  0  1  0  0  0  0  0  0  0  0  0
    2.7680   -3.7700   -0.4600 O   0  0  0  0  0  0  0  0  0  0  0  0
    0.5190   -2.9740   -0.1620 C   0  0  2  0  0  0  0  0  0  0  0  0
    0.6400   -1.9970   -1.2160 N   0  0  0  0  0  0  0  0  0  0  0  0
    0.8540   -2.4100    1.1680 C   0  0  0  0  0  0  0  0  0  0  0  0
    0.7830   -3.1710    2.1640 O   0  0  0  0  0  0  0  0  0  0  0  0
    1.0220   -4.1640   -2.5350 H   0  0  0  0  0  0  0  0  0  0  0  0
    1.5780   -5.7740   -1.8550 H   0  0  0  0  0  0  0  0  0  0  0  0
   -0.0700   -5.1500   -1.5100 H   0  0  0  0  0  0  0  0  0  0  0  0
    1.3260   -4.8920    0.4180 H   0  0  0  0  0  0  0  0  0  0  0  0
    2.8480   -2.8640   -0.8990 H   0  0  0  0  0  0  0  0  0  0  0  0
   -0.5240   -3.3580   -0.1970 H   0  0  0  0  0  0  0  0  0  0  0  0
    0.1160   -2.3980   -2.0470 H   0  0  0  0  0  0  0  0  0  0  0  0
    0.0620   -1.1620   -0.9280 H   0  0  0  0  0  0  0  0  0  0  0  0
    1.2490   -1.0670    1.3930 N   0  0  0  0  0  0  0  0  0  0  0  0
    1.5800   -0.5040    2.6760 C   0  0  1  0  0  0  0  0  0  0  0  0
    2.9240    0.1500    2.7140 C   0  0  0  0  0  0  0  0  0  0  0  0
    3.9640   -0.8450    2.3870 C   0  0  0  0  0  0  0  0  0  0  0  0
    3.6410   -2.0270    2.1340 O   0  0  0  0  0  0  0  0  0  0  0  0
    0.4910    0.4280    3.0820 C   0  0  0  0  0  0  0  0  0  0  0  0
    0.5030    1.0670    4.1580 O   0  0  0  0  0  0  0  0  0  0  0  0
    5.3190   -0.5440    2.3410 O   0  0  0  0  0  0  0  0  0  0  0  0
    1.2950   -0.4620    0.5420 H   0  0  0  0  0  0  0  0  0  0  0  0
    1.5610   -1.3040    3.4680 H   0  0  0  0  0  0  0  0  0  0  0  0
    3.1050    0.4680    3.7790 H   0  0  0  0  0  0  0  0  0  0  0  0
    2.9900    1.0400    2.0540 H   0  0  0  0  0  0  0  0  0  0  0  0
    6.0330   -1.2700    2.4100 H   0  0  0  0  0  0  0  0  0  0  0  0
   -2.5490    2.9210   -2.2500 N   0  0  0  0  0  0  0  0  0  0  0  0
   -2.3030    3.1410   -0.8590 C   0  0  0  0  0  0  0  0  0  0  0  0
   -2.2340    4.3340   -0.4810 O   0  0  0  0  0  0  0  0  0  0  0  0
   -2.1420    1.9850    0.0670 C   0  0  0  0  0  0  0  0  0  0  0  0
   -1.8990    2.5430    1.4430 C   0  0  0  0  0  0  0  0  0  0  0  0
   -1.7180    1.4610    2.4810 C   0  0  2  0  0  0  0  0  0  0  0  0
   -0.6080    0.5940    2.2050 N   0  0  0  0  0  0  0  0  0  0  0  0
   -2.9840    0.6990    2.5590 C   0  0  0  0  0  0  0  0  0  0  0  0
   -2.9480   -0.5400    2.3860 O   0  0  0  0  0  0  0  0  0  0  0  0
   -4.2030    1.2950    2.8140 O   0  0  0  0  0  0  0  0  0  0  0  0
   -1.8250    3.1300   -2.9700 H   0  0  0  0  0  0  0  0  0  0  0  0
   -3.4550    2.5460   -2.6050 H   0  0  0  0  0  0  0  0  0  0  0  0
   -1.3000    1.3840   -0.3170 H   0  0  0  0  0  0  0  0  0  0  0  0
   -3.0770    1.3930    0.0000 H   0  0  0  0  0  0  0  0  0  0  0  0
   -2.8090    3.1120    1.7300 H   0  0  0  0  0  0  0  0  0  0  0  0
   -1.0650    3.2450    1.3980 H   0  0  0  0  0  0  0  0  0  0  0  0
   -1.5900    1.9690    3.4610 H   0  0  0  0  0  0  0  0  0  0  0  0
   -0.6480    0.0650    1.2820 H   0  0  0  0  0  0  0  0  0  0  0  0
  1 10  1  0  0  0  0
  1  2  1  0  0  0  0
  2  4  1  0  0  0  0
  2 11  1  1  0  0  0
  3  2  1  0  0  0  0
  4 13  1  1  0  0  0
  4  6  1  0  0  0  0
  5 15  1  0  0  0  0
  5  4  1  0  0  0  0
  6 16  1  0  0  0  0
  6  7  2  0  0  0  0
  8  1  1  0  0  0  0
  9  1  1  0  0  0  0
 12  3  1  0  0  0  0
 14  5  1  0  0  0  0
 16 17  1  0  0  0  0
 17 18  1  0  0  0  0
 17 21  1  0  0  0  0
 17 25  1  1  0  0  0
 18 26  1  0  0  0  0
 19 18  1  0  0  0  0
 20 19  2  0  0  0  0
 21 22  2  0  0  0  0
 23 19  1  0  0  0  0
 23 28  1  0  0  0  0
 24 16  1  0  0  0  0
 27 18  1  0  0  0  0
 29 30  1  0  0  0  0
 30 31  2  0  0  0  0
 30 32  1  0  0  0  0
 32 33  1  0  0  0  0
 33 43  1  0  0  0  0
 33 34  1  0  0  0  0
 34 36  1  0  0  0  0
 34 45  1  1  0  0  0
 35 34  1  0  0  0  0
 35 21  1  0  0  0  0
 36 38  1  0  0  0  0
 37 36  2  0  0  0  0
 39 29  1  0  0  0  0
 40 29  1  0  0  0  0
 41 32  1  0  0  0  0
 42 32  1  0  0  0  0
 44 33  1  0  0  0  0
 46 35  1  0  0  0  0
M  END
$$$$
