TDR.pdb
 OpenBabel07022419113D

 52 51  0  0  1  0  0  0  0  0999 V2000
    3.4560    2.1730    3.1850 C   0  0  0  0  0  0  0  0  0  0  0  0
    3.4040    0.7790    3.7610 C   0  0  1  0  0  0  0  0  0  0  0  0
    2.4430    0.7690    4.7690 O   0  0  0  0  0  0  0  0  0  0  0  0
    3.1490   -0.2890    2.7330 C   0  0  2  0  0  0  0  0  0  0  0  0
    4.1660   -0.2240    1.7300 N   0  0  0  0  0  0  0  0  0  0  0  0
    1.7690   -0.0820    2.1970 C   0  0  0  0  0  0  0  0  0  0  0  0
    0.8150   -0.1140    2.9920 O   0  0  0  0  0  0  0  0  0  0  0  0
    2.6430    2.8310    3.6130 H   0  0  0  0  0  0  0  0  0  0  0  0
    4.3980    2.7070    3.4320 H   0  0  0  0  0  0  0  0  0  0  0  0
    3.3220    2.1990    2.0920 H   0  0  0  0  0  0  0  0  0  0  0  0
    4.3930    0.6150    4.2670 H   0  0  0  0  0  0  0  0  0  0  0  0
    2.8440    1.1660    5.5670 H   0  0  0  0  0  0  0  0  0  0  0  0
    3.1830   -1.2580    3.2830 H   0  0  0  0  0  0  0  0  0  0  0  0
    4.0250    0.5780    1.0810 H   0  0  0  0  0  0  0  0  0  0  0  0
    4.2910   -1.1220    1.2260 H   0  0  0  0  0  0  0  0  0  0  0  0
    1.4930    0.1480    0.8280 N   0  0  0  0  0  0  0  0  0  0  0  0
    0.1610    0.3390    0.3710 C   0  0  1  0  0  0  0  0  0  0  0  0
   -0.0690    1.6580   -0.3340 C   0  0  0  0  0  0  0  0  0  0  0  0
    0.2180    2.8270    0.5330 C   0  0  0  0  0  0  0  0  0  0  0  0
    0.6050    2.6930    1.7270 O   0  0  0  0  0  0  0  0  0  0  0  0
   -0.3130   -0.7510   -0.5180 C   0  0  0  0  0  0  0  0  0  0  0  0
    0.4810   -1.6900   -0.7580 O   0  0  0  0  0  0  0  0  0  0  0  0
    0.0360    4.0830   -0.0440 O   0  0  0  0  0  0  0  0  0  0  0  0
    2.2690    0.1790    0.1350 H   0  0  0  0  0  0  0  0  0  0  0  0
   -0.5130    0.3380    1.2720 H   0  0  0  0  0  0  0  0  0  0  0  0
    0.5520    1.7130   -1.2490 H   0  0  0  0  0  0  0  0  0  0  0  0
   -1.1660    1.7130   -0.5720 H   0  0  0  0  0  0  0  0  0  0  0  0
    0.5490    4.8700    0.3440 H   0  0  0  0  0  0  0  0  0  0  0  0
   -0.1530   -3.6210    1.9440 N   0  0  0  0  0  0  0  0  0  0  0  0
   -1.3980   -3.2980    1.3440 C   0  0  0  0  0  0  0  0  0  0  0  0
   -2.0600   -2.2980    1.8110 N   0  0  0  0  0  0  0  0  0  0  0  0
   -1.9430   -4.0420    0.2410 N   0  0  0  0  0  0  0  0  0  0  0  0
   -3.3330   -4.0450   -0.0320 C   0  0  0  0  0  0  0  0  0  0  0  0
   -3.9500   -2.7920   -0.5340 C   0  0  0  0  0  0  0  0  0  0  0  0
   -3.4720   -2.2620   -1.8250 C   0  0  0  0  0  0  0  0  0  0  0  0
   -2.0640   -1.8660   -1.9840 C   0  0  2  0  0  0  0  0  0  0  0  0
   -1.5940   -0.8070   -1.1160 N   0  0  0  0  0  0  0  0  0  0  0  0
   -1.9390   -1.4090   -3.4350 C   0  0  0  0  0  0  0  0  0  0  0  0
   -2.3000   -2.1860   -4.3530 O   0  0  0  0  0  0  0  0  0  0  0  0
   -1.4440   -0.1720   -3.7710 O   0  0  0  0  0  0  0  0  0  0  0  0
    0.0380   -3.3920    2.9570 H   0  0  0  0  0  0  0  0  0  0  0  0
    0.6330   -4.0900    1.4490 H   0  0  0  0  0  0  0  0  0  0  0  0
   -1.7430   -1.7160    2.5960 H   0  0  0  0  0  0  0  0  0  0  0  0
   -1.2370   -4.5700   -0.3310 H   0  0  0  0  0  0  0  0  0  0  0  0
   -3.8690   -4.3080    0.9250 H   0  0  0  0  0  0  0  0  0  0  0  0
   -3.5200   -4.9010   -0.7470 H   0  0  0  0  0  0  0  0  0  0  0  0
   -5.0470   -3.0380   -0.6870 H   0  0  0  0  0  0  0  0  0  0  0  0
   -4.0090   -1.9980    0.2700 H   0  0  0  0  0  0  0  0  0  0  0  0
   -3.6940   -3.0310   -2.6070 H   0  0  0  0  0  0  0  0  0  0  0  0
   -4.1060   -1.3860   -2.1110 H   0  0  0  0  0  0  0  0  0  0  0  0
   -1.3020   -2.6710   -1.9290 H   0  0  0  0  0  0  0  0  0  0  0  0
   -2.2540   -0.0250   -0.9160 H   0  0  0  0  0  0  0  0  0  0  0  0
  1  9  1  0  0  0  0
  1  8  1  0  0  0  0
  1  2  1  0  0  0  0
  2 11  1  1  0  0  0
  2  3  1  0  0  0  0
  3 12  1  0  0  0  0
  4 13  1  1  0  0  0
  4  2  1  0  0  0  0
  5  4  1  0  0  0  0
  6  4  1  0  0  0  0
  6  7  2  0  0  0  0
 10  1  1  0  0  0  0
 14  5  1  0  0  0  0
 15  5  1  0  0  0  0
 16  6  1  0  0  0  0
 17 16  1  0  0  0  0
 17 25  1  1  0  0  0
 18 17  1  0  0  0  0
 18 19  1  0  0  0  0
 19 20  2  0  0  0  0
 21 17  1  0  0  0  0
 22 21  2  0  0  0  0
 23 28  1  0  0  0  0
 23 19  1  0  0  0  0
 24 16  1  0  0  0  0
 26 18  1  0  0  0  0
 27 18  1  0  0  0  0
 29 41  1  0  0  0  0
 30 31  2  0  0  0  0
 30 29  1  0  0  0  0
 31 43  1  0  0  0  0
 32 30  1  0  0  0  0
 33 32  1  0  0  0  0
 33 45  1  0  0  0  0
 34 33  1  0  0  0  0
 34 48  1  0  0  0  0
 35 34  1  0  0  0  0
 36 51  1  1  0  0  0
 36 35  1  0  0  0  0
 36 37  1  0  0  0  0
 37 52  1  0  0  0  0
 37 21  1  0  0  0  0
 38 36  1  0  0  0  0
 39 38  2  0  0  0  0
 40 38  1  0  0  0  0
 42 29  1  0  0  0  0
 44 32  1  0  0  0  0
 46 33  1  0  0  0  0
 47 34  1  0  0  0  0
 49 35  1  0  0  0  0
 50 35  1  0  0  0  0
M  END
$$$$
