TDS.pdb
 OpenBabel07022419113D

 40 39  0  0  1  0  0  0  0  0999 V2000
   -1.9920   -4.0960   -2.3570 C   0  0  0  0  0  0  0  0  0  0  0  0
   -0.8090   -3.2290   -2.0500 C   0  0  1  0  0  0  0  0  0  0  0  0
   -0.7430   -2.1650   -2.9500 O   0  0  0  0  0  0  0  0  0  0  0  0
   -0.8760   -2.7020   -0.6260 C   0  0  2  0  0  0  0  0  0  0  0  0
   -2.0170   -1.8740   -0.4010 N   0  0  0  0  0  0  0  0  0  0  0  0
    0.4100   -1.9810   -0.3650 C   0  0  0  0  0  0  0  0  0  0  0  0
    1.5180   -2.5600   -0.5130 O   0  0  0  0  0  0  0  0  0  0  0  0
   -2.3920   -3.8070   -3.3600 H   0  0  0  0  0  0  0  0  0  0  0  0
   -1.6540   -5.1420   -2.4350 H   0  0  0  0  0  0  0  0  0  0  0  0
   -2.8010   -3.9770   -1.6010 H   0  0  0  0  0  0  0  0  0  0  0  0
    0.1250   -3.8080   -2.1820 H   0  0  0  0  0  0  0  0  0  0  0  0
   -0.4580   -2.4430   -3.8380 H   0  0  0  0  0  0  0  0  0  0  0  0
   -0.9820   -3.6010    0.0310 H   0  0  0  0  0  0  0  0  0  0  0  0
   -2.3920   -1.8920    0.5710 H   0  0  0  0  0  0  0  0  0  0  0  0
   -1.9980   -0.9440   -0.8360 H   0  0  0  0  0  0  0  0  0  0  0  0
    0.4650   -0.6230    0.0600 N   0  0  0  0  0  0  0  0  0  0  0  0
    1.7650    0.0370    0.3020 C   0  0  1  0  0  0  0  0  0  0  0  0
    1.8210    1.1970   -0.6240 C   0  0  0  0  0  0  0  0  0  0  0  0
    3.0240    2.0160   -0.5950 C   0  0  0  0  0  0  0  0  0  0  0  0
    2.9960    3.0670   -1.3300 O   0  0  0  0  0  0  0  0  0  0  0  0
    1.8330    0.5200    1.7040 C   0  0  0  0  0  0  0  0  0  0  0  0
    2.8080    1.1090    2.1770 O   0  0  0  0  0  0  0  0  0  0  0  0
    4.1790    1.8240    0.1040 O   0  0  0  0  0  0  0  0  0  0  0  0
   -0.4390   -0.1230    0.1870 H   0  0  0  0  0  0  0  0  0  0  0  0
    2.5780   -0.6770    0.0690 H   0  0  0  0  0  0  0  0  0  0  0  0
    1.6550    0.8990   -1.6990 H   0  0  0  0  0  0  0  0  0  0  0  0
    0.9550    1.8920   -0.4050 H   0  0  0  0  0  0  0  0  0  0  0  0
    5.0920    2.1510   -0.2020 H   0  0  0  0  0  0  0  0  0  0  0  0
   -0.3070    2.8540    3.4170 O   0  0  0  0  0  0  0  0  0  0  0  0
   -0.4440    1.6940    4.2100 C   0  0  0  0  0  0  0  0  0  0  0  0
    0.6810    0.7240    3.9370 C   0  0  2  0  0  0  0  0  0  0  0  0
    0.7200    0.2980    2.5590 N   0  0  0  0  0  0  0  0  0  0  0  0
    0.4480   -0.4740    4.7820 C   0  0  0  0  0  0  0  0  0  0  0  0
    0.3200   -1.6160    4.2740 O   0  0  0  0  0  0  0  0  0  0  0  0
    0.3640   -0.3690    6.1660 O   0  0  0  0  0  0  0  0  0  0  0  0
    0.2290    3.5430    3.8840 H   0  0  0  0  0  0  0  0  0  0  0  0
   -1.4390    1.2530    4.1370 H   0  0  0  0  0  0  0  0  0  0  0  0
   -0.3190    2.0460    5.2570 H   0  0  0  0  0  0  0  0  0  0  0  0
    1.6380    1.2190    4.1600 H   0  0  0  0  0  0  0  0  0  0  0  0
   -0.1130   -0.1990    2.1810 H   0  0  0  0  0  0  0  0  0  0  0  0
  1  2  1  0  0  0  0
  1 10  1  0  0  0  0
  2 11  1  6  0  0  0
  2  4  1  0  0  0  0
  3  2  1  0  0  0  0
  4  5  1  0  0  0  0
  4  6  1  0  0  0  0
  4 13  1  1  0  0  0
  5 14  1  0  0  0  0
  6 16  1  0  0  0  0
  7  6  2  0  0  0  0
  8  1  1  0  0  0  0
  9  1  1  0  0  0  0
 12  3  1  0  0  0  0
 15  5  1  0  0  0  0
 16 24  1  0  0  0  0
 16 17  1  0  0  0  0
 17 25  1  6  0  0  0
 17 21  1  0  0  0  0
 18 19  1  0  0  0  0
 18 27  1  0  0  0  0
 18 17  1  0  0  0  0
 19 23  1  0  0  0  0
 20 19  2  0  0  0  0
 21 22  2  0  0  0  0
 21 32  1  0  0  0  0
 26 18  1  0  0  0  0
 28 23  1  0  0  0  0
 29 36  1  0  0  0  0
 29 30  1  0  0  0  0
 30 38  1  0  0  0  0
 31 39  1  1  0  0  0
 31 30  1  0  0  0  0
 31 33  1  0  0  0  0
 32 31  1  0  0  0  0
 33 35  1  0  0  0  0
 34 33  2  0  0  0  0
 37 30  1  0  0  0  0
 40 32  1  0  0  0  0
M  END
$$$$
