TDT.pdb
 OpenBabel07022419113D

 43 42  0  0  1  0  0  0  0  0999 V2000
    0.5260   -4.0880   -3.3650 C   0  0  0  0  0  0  0  0  0  0  0  0
    1.2030   -3.4750   -2.1710 C   0  0  1  0  0  0  0  0  0  0  0  0
    2.2980   -2.7090   -2.5240 O   0  0  0  0  0  0  0  0  0  0  0  0
    0.2190   -2.6050   -1.3720 C   0  0  2  0  0  0  0  0  0  0  0  0
   -0.2170   -1.4930   -2.1440 N   0  0  0  0  0  0  0  0  0  0  0  0
    0.8700   -2.2800   -0.0920 C   0  0  0  0  0  0  0  0  0  0  0  0
    1.2420   -3.2280    0.6850 O   0  0  0  0  0  0  0  0  0  0  0  0
   -0.5770   -4.0820   -3.1560 H   0  0  0  0  0  0  0  0  0  0  0  0
    0.9050   -5.1120   -3.4970 H   0  0  0  0  0  0  0  0  0  0  0  0
    0.7280   -3.4280   -4.2390 H   0  0  0  0  0  0  0  0  0  0  0  0
    1.5130   -4.3120   -1.4810 H   0  0  0  0  0  0  0  0  0  0  0  0
    3.0930   -3.0610   -2.0770 H   0  0  0  0  0  0  0  0  0  0  0  0
   -0.6730   -3.2800   -1.2300 H   0  0  0  0  0  0  0  0  0  0  0  0
   -1.2440   -1.3190   -2.1550 H   0  0  0  0  0  0  0  0  0  0  0  0
    0.3080   -0.6220   -2.0640 H   0  0  0  0  0  0  0  0  0  0  0  0
    1.1320   -0.9860    0.3800 N   0  0  0  0  0  0  0  0  0  0  0  0
    1.7920   -0.7420    1.6860 C   0  0  1  0  0  0  0  0  0  0  0  0
    3.1060   -0.0930    1.4200 C   0  0  0  0  0  0  0  0  0  0  0  0
    3.9150    0.1940    2.5980 C   0  0  0  0  0  0  0  0  0  0  0  0
    4.9500    0.9380    2.4460 O   0  0  0  0  0  0  0  0  0  0  0  0
    0.8970    0.1130    2.5140 C   0  0  0  0  0  0  0  0  0  0  0  0
    1.2500    0.4230    3.6640 O   0  0  0  0  0  0  0  0  0  0  0  0
    3.6900   -0.2530    3.8730 O   0  0  0  0  0  0  0  0  0  0  0  0
    0.8750   -0.1520   -0.1680 H   0  0  0  0  0  0  0  0  0  0  0  0
    1.9630   -1.7000    2.1700 H   0  0  0  0  0  0  0  0  0  0  0  0
    2.9660    0.8600    0.8580 H   0  0  0  0  0  0  0  0  0  0  0  0
    3.7130   -0.7740    0.7650 H   0  0  0  0  0  0  0  0  0  0  0  0
    4.4940   -0.5340    4.4380 H   0  0  0  0  0  0  0  0  0  0  0  0
   -1.8480    2.8340    0.8400 C   0  0  0  0  0  0  0  0  0  0  0  0
   -1.3940    2.8230    2.2600 C   0  0  1  0  0  0  0  0  0  0  0  0
   -2.2720    3.5240    3.0860 O   0  0  0  0  0  0  0  0  0  0  0  0
   -1.2450    1.4340    2.8400 C   0  0  2  0  0  0  0  0  0  0  0  0
   -0.3570    0.6060    2.0650 N   0  0  0  0  0  0  0  0  0  0  0  0
   -2.5360    0.7510    3.0140 C   0  0  0  0  0  0  0  0  0  0  0  0
   -3.4480    1.2930    3.6590 O   0  0  0  0  0  0  0  0  0  0  0  0
   -2.7330   -0.4930    2.4590 O   0  0  0  0  0  0  0  0  0  0  0  0
   -1.3340    3.6620    0.2750 H   0  0  0  0  0  0  0  0  0  0  0  0
   -2.9300    3.0420    0.7640 H   0  0  0  0  0  0  0  0  0  0  0  0
   -1.6780    1.8900    0.2880 H   0  0  0  0  0  0  0  0  0  0  0  0
   -0.4040    3.3540    2.3930 H   0  0  0  0  0  0  0  0  0  0  0  0
   -2.2210    3.2560    4.0290 H   0  0  0  0  0  0  0  0  0  0  0  0
   -0.8290    1.6130    3.8780 H   0  0  0  0  0  0  0  0  0  0  0  0
   -0.6400    0.3370    1.0980 H   0  0  0  0  0  0  0  0  0  0  0  0
  1  8  1  0  0  0  0
  1  2  1  0  0  0  0
  2 11  1  1  0  0  0
  2  4  1  0  0  0  0
  3  2  1  0  0  0  0
  3 12  1  0  0  0  0
  4 13  1  1  0  0  0
  4  6  1  0  0  0  0
  5 15  1  0  0  0  0
  5  4  1  0  0  0  0
  6 16  1  0  0  0  0
  6  7  2  0  0  0  0
  9  1  1  0  0  0  0
 10  1  1  0  0  0  0
 14  5  1  0  0  0  0
 16 17  1  0  0  0  0
 17 25  1  1  0  0  0
 17 21  1  0  0  0  0
 18 17  1  0  0  0  0
 18 19  1  0  0  0  0
 19 23  1  0  0  0  0
 20 19  2  0  0  0  0
 21 22  2  0  0  0  0
 23 28  1  0  0  0  0
 24 16  1  0  0  0  0
 26 18  1  0  0  0  0
 27 18  1  0  0  0  0
 29 30  1  0  0  0  0
 30 40  1  1  0  0  0
 30 32  1  0  0  0  0
 30 31  1  0  0  0  0
 31 41  1  0  0  0  0
 32 34  1  0  0  0  0
 32 42  1  1  0  0  0
 33 21  1  0  0  0  0
 33 32  1  0  0  0  0
 34 35  1  0  0  0  0
 36 34  2  0  0  0  0
 37 29  1  0  0  0  0
 38 29  1  0  0  0  0
 39 29  1  0  0  0  0
 43 33  1  0  0  0  0
M  END
$$$$
