TDV.pdb
 OpenBabel07022419113D

 45 44  0  0  1  0  0  0  0  0999 V2000
    1.7640    1.4830    4.6230 C   0  0  0  0  0  0  0  0  0  0  0  0
    1.5120    1.0820    3.1830 C   0  0  1  0  0  0  0  0  0  0  0  0
    1.0660    2.1930    2.5150 O   0  0  0  0  0  0  0  0  0  0  0  0
    2.7880    0.5050    2.6410 C   0  0  2  0  0  0  0  0  0  0  0  0
    3.8830    1.4530    2.6960 N   0  0  0  0  0  0  0  0  0  0  0  0
    2.6710   -0.0950    1.3170 C   0  0  0  0  0  0  0  0  0  0  0  0
    3.5120    0.2770    0.4260 O   0  0  0  0  0  0  0  0  0  0  0  0
    2.5480    0.8370    5.0220 H   0  0  0  0  0  0  0  0  0  0  0  0
    0.8370    1.4170    5.2330 H   0  0  0  0  0  0  0  0  0  0  0  0
    2.0880    2.5600    4.6150 H   0  0  0  0  0  0  0  0  0  0  0  0
    0.7470    0.2830    3.1710 H   0  0  0  0  0  0  0  0  0  0  0  0
    0.0780    2.1950    2.4360 H   0  0  0  0  0  0  0  0  0  0  0  0
    3.0790   -0.3250    3.3520 H   0  0  0  0  0  0  0  0  0  0  0  0
    4.3480    1.4810    3.6310 H   0  0  0  0  0  0  0  0  0  0  0  0
    3.6570    2.3680    2.2950 H   0  0  0  0  0  0  0  0  0  0  0  0
    1.6820   -1.0570    0.9760 N   0  0  0  0  0  0  0  0  0  0  0  0
    1.6590   -1.5800   -0.3520 C   0  0  1  0  0  0  0  0  0  0  0  0
    1.7580   -3.0790   -0.4120 C   0  0  0  0  0  0  0  0  0  0  0  0
    3.0130   -3.5830    0.1990 C   0  0  0  0  0  0  0  0  0  0  0  0
    3.8410   -2.7850    0.6890 O   0  0  0  0  0  0  0  0  0  0  0  0
    0.3360   -1.2320   -0.9970 C   0  0  0  0  0  0  0  0  0  0  0  0
    0.0750   -1.5860   -2.1750 O   0  0  0  0  0  0  0  0  0  0  0  0
    3.3230   -4.9310    0.2560 O   0  0  0  0  0  0  0  0  0  0  0  0
    1.0200   -1.3260    1.7380 H   0  0  0  0  0  0  0  0  0  0  0  0
    2.4920   -1.1530   -0.9280 H   0  0  0  0  0  0  0  0  0  0  0  0
    0.8700   -3.5240    0.0970 H   0  0  0  0  0  0  0  0  0  0  0  0
    1.7910   -3.3670   -1.4880 H   0  0  0  0  0  0  0  0  0  0  0  0
    4.0470   -5.3110    0.8820 H   0  0  0  0  0  0  0  0  0  0  0  0
   -4.3650   -0.3800   -0.8410 C   0  0  0  0  0  0  0  0  0  0  0  0
   -3.0890   -0.7960   -0.1550 C   0  0  0  0  0  0  0  0  0  0  0  0
   -2.9910   -2.3030   -0.2710 C   0  0  0  0  0  0  0  0  0  0  0  0
   -1.9330   -0.1470   -0.8940 C   0  0  2  0  0  0  0  0  0  0  0  0
   -0.6590   -0.4940   -0.3010 N   0  0  0  0  0  0  0  0  0  0  0  0
   -2.1060    1.3240   -1.0010 C   0  0  0  0  0  0  0  0  0  0  0  0
   -1.2200    2.1210   -0.6050 O   0  0  0  0  0  0  0  0  0  0  0  0
   -3.2590    1.8650   -1.5470 O   0  0  0  0  0  0  0  0  0  0  0  0
   -4.1250   -0.2690   -1.9300 H   0  0  0  0  0  0  0  0  0  0  0  0
   -5.0950   -1.2400   -0.8120 H   0  0  0  0  0  0  0  0  0  0  0  0
   -4.8140    0.5370   -0.4240 H   0  0  0  0  0  0  0  0  0  0  0  0
   -3.1530   -0.4990    0.8930 H   0  0  0  0  0  0  0  0  0  0  0  0
   -2.4480   -2.7220    0.5740 H   0  0  0  0  0  0  0  0  0  0  0  0
   -2.5100   -2.5510   -1.2390 H   0  0  0  0  0  0  0  0  0  0  0  0
   -4.0040   -2.7770   -0.2830 H   0  0  0  0  0  0  0  0  0  0  0  0
   -1.9620   -0.5480   -1.9290 H   0  0  0  0  0  0  0  0  0  0  0  0
   -0.4300   -0.2060    0.6780 H   0  0  0  0  0  0  0  0  0  0  0  0
  1  8  1  0  0  0  0
  1  9  1  0  0  0  0
  2 11  1  6  0  0  0
  2  1  1  0  0  0  0
  3  2  1  0  0  0  0
  4  5  1  0  0  0  0
  4  2  1  0  0  0  0
  4 13  1  1  0  0  0
  5 14  1  0  0  0  0
  6  4  1  0  0  0  0
  7  6  2  0  0  0  0
 10  1  1  0  0  0  0
 12  3  1  0  0  0  0
 15  5  1  0  0  0  0
 16  6  1  0  0  0  0
 16 24  1  0  0  0  0
 17 25  1  6  0  0  0
 17 16  1  0  0  0  0
 18 17  1  0  0  0  0
 18 26  1  0  0  0  0
 18 19  1  0  0  0  0
 19 23  1  0  0  0  0
 19 20  2  0  0  0  0
 21 17  1  0  0  0  0
 21 33  1  0  0  0  0
 22 21  2  0  0  0  0
 23 28  1  0  0  0  0
 27 18  1  0  0  0  0
 29 38  1  0  0  0  0
 29 39  1  0  0  0  0
 29 30  1  0  0  0  0
 30 40  1  0  0  0  0
 31 30  1  0  0  0  0
 31 41  1  0  0  0  0
 32 44  1  6  0  0  0
 32 33  1  0  0  0  0
 32 30  1  0  0  0  0
 33 45  1  0  0  0  0
 34 32  1  0  0  0  0
 34 35  1  0  0  0  0
 36 34  2  0  0  0  0
 37 29  1  0  0  0  0
 42 31  1  0  0  0  0
 43 31  1  0  0  0  0
M  END
$$$$
