TDY.pdb
 OpenBabel07022419113D

 50 50  0  0  1  0  0  0  0  0999 V2000
    1.3980   -2.4140   -0.5100 C   0  0  0  0  0  0  0  0  0  0  0  0
    2.8310   -2.2100   -0.1920 C   0  0  1  0  0  0  0  0  0  0  0  0
    3.5580   -3.0580   -1.0680 O   0  0  0  0  0  0  0  0  0  0  0  0
    3.3850   -0.8440   -0.3960 C   0  0  2  0  0  0  0  0  0  0  0  0
    4.8190   -0.9850   -0.0470 N   0  0  0  0  0  0  0  0  0  0  0  0
    2.8470    0.2140    0.4650 C   0  0  0  0  0  0  0  0  0  0  0  0
    3.5670    0.7610    1.3770 O   0  0  0  0  0  0  0  0  0  0  0  0
    0.8160   -2.4460    0.4570 H   0  0  0  0  0  0  0  0  0  0  0  0
    1.2510   -3.4680   -0.9010 H   0  0  0  0  0  0  0  0  0  0  0  0
    0.9660   -1.7760   -1.2770 H   0  0  0  0  0  0  0  0  0  0  0  0
    3.0310   -2.6100    0.8180 H   0  0  0  0  0  0  0  0  0  0  0  0
    3.1350   -3.9470   -1.1360 H   0  0  0  0  0  0  0  0  0  0  0  0
    3.3830   -0.5880   -1.4730 H   0  0  0  0  0  0  0  0  0  0  0  0
    5.3760   -0.1980   -0.4440 H   0  0  0  0  0  0  0  0  0  0  0  0
    4.8300   -0.9550    1.0010 H   0  0  0  0  0  0  0  0  0  0  0  0
    1.5390    0.7430    0.4080 N   0  0  0  0  0  0  0  0  0  0  0  0
    1.0460    1.7980    1.2830 C   0  0  1  0  0  0  0  0  0  0  0  0
    0.7850    3.0670    0.5200 C   0  0  0  0  0  0  0  0  0  0  0  0
    0.2950    4.1010    1.4520 C   0  0  0  0  0  0  0  0  0  0  0  0
   -0.9030    4.3760    1.6790 O   0  0  0  0  0  0  0  0  0  0  0  0
   -0.1490    1.3840    2.0240 C   0  0  0  0  0  0  0  0  0  0  0  0
   -0.6760    2.1240    2.8870 O   0  0  0  0  0  0  0  0  0  0  0  0
    1.3050    4.8210    2.1260 O   0  0  0  0  0  0  0  0  0  0  0  0
    0.8610    0.3850   -0.2850 H   0  0  0  0  0  0  0  0  0  0  0  0
    1.8630    2.0290    1.9950 H   0  0  0  0  0  0  0  0  0  0  0  0
    1.6750    3.4530    0.0150 H   0  0  0  0  0  0  0  0  0  0  0  0
   -0.0520    2.8410   -0.1790 H   0  0  0  0  0  0  0  0  0  0  0  0
    1.0860    5.5000    2.8190 H   0  0  0  0  0  0  0  0  0  0  0  0
   -1.8870   -4.3230   -2.3270 O   0  0  0  0  0  0  0  0  0  0  0  0
   -2.2000   -3.3620   -1.3490 C   0  0  0  0  0  0  0  0  0  0  0  0
   -1.9130   -2.0250   -1.5160 C   0  0  0  0  0  0  0  0  0  0  0  0
   -2.2190   -1.1040   -0.5640 C   0  0  0  0  0  0  0  0  0  0  0  0
   -2.8350   -1.5060    0.6050 C   0  0  0  0  0  0  0  0  0  0  0  0
   -3.1620   -0.4710    1.6250 C   0  0  0  0  0  0  0  0  0  0  0  0
   -1.9780   -0.2920    2.5530 C   0  0  2  0  0  0  0  0  0  0  0  0
   -0.7960    0.1210    1.8220 N   0  0  0  0  0  0  0  0  0  0  0  0
   -1.6980   -1.5820    3.2090 C   0  0  0  0  0  0  0  0  0  0  0  0
   -0.5830   -2.1290    3.0410 O   0  0  0  0  0  0  0  0  0  0  0  0
   -3.1160   -2.8420    0.7580 C   0  0  0  0  0  0  0  0  0  0  0  0
   -2.8120   -3.7870   -0.1970 C   0  0  0  0  0  0  0  0  0  0  0  0
   -2.6070   -2.2450    4.0200 O   0  0  0  0  0  0  0  0  0  0  0  0
   -0.9740   -4.2680   -2.7940 H   0  0  0  0  0  0  0  0  0  0  0  0
   -1.4270   -1.6880   -2.4330 H   0  0  0  0  0  0  0  0  0  0  0  0
   -1.9970   -0.0320   -0.6810 H   0  0  0  0  0  0  0  0  0  0  0  0
   -3.9890   -0.8760    2.2520 H   0  0  0  0  0  0  0  0  0  0  0  0
   -3.4930    0.4820    1.1810 H   0  0  0  0  0  0  0  0  0  0  0  0
   -2.2900    0.4890    3.2830 H   0  0  0  0  0  0  0  0  0  0  0  0
   -0.3920   -0.5100    1.1200 H   0  0  0  0  0  0  0  0  0  0  0  0
   -3.6060   -3.1870    1.6710 H   0  0  0  0  0  0  0  0  0  0  0  0
   -3.0520   -4.8180   -0.0280 H   0  0  0  0  0  0  0  0  0  0  0  0
  1  2  1  0  0  0  0
  1  8  1  0  0  0  0
  2 11  1  1  0  0  0
  3  2  1  0  0  0  0
  4 13  1  6  0  0  0
  4  2  1  0  0  0  0
  4  5  1  0  0  0  0
  4  6  1  0  0  0  0
  5 15  1  0  0  0  0
  6  7  2  0  0  0  0
  9  1  1  0  0  0  0
 10  1  1  0  0  0  0
 12  3  1  0  0  0  0
 14  5  1  0  0  0  0
 16  6  1  0  0  0  0
 16 17  1  0  0  0  0
 17 25  1  1  0  0  0
 17 21  1  0  0  0  0
 18 17  1  0  0  0  0
 18 19  1  0  0  0  0
 19 20  2  0  0  0  0
 19 23  1  0  0  0  0
 21 22  2  0  0  0  0
 23 28  1  0  0  0  0
 24 16  1  0  0  0  0
 26 18  1  0  0  0  0
 27 18  1  0  0  0  0
 29 30  1  0  0  0  0
 30 40  1  0  0  0  0
 31 30  2  0  0  0  0
 31 32  1  0  0  0  0
 32 33  2  0  0  0  0
 33 39  1  0  0  0  0
 33 34  1  0  0  0  0
 34 45  1  0  0  0  0
 34 35  1  0  0  0  0
 35 37  1  0  0  0  0
 35 47  1  1  0  0  0
 36 21  1  0  0  0  0
 36 35  1  0  0  0  0
 37 41  1  0  0  0  0
 38 37  2  0  0  0  0
 39 49  1  0  0  0  0
 40 50  1  0  0  0  0
 40 39  2  0  0  0  0
 42 29  1  0  0  0  0
 43 31  1  0  0  0  0
 44 32  1  0  0  0  0
 46 34  1  0  0  0  0
 48 36  1  0  0  0  0
M  END
$$$$
