TEA.pdb
 OpenBabel07022419113D

 42 41  0  0  1  0  0  0  0  0999 V2000
   -1.2390   -4.2840    2.9590 C   0  0  0  0  0  0  0  0  0  0  0  0
   -0.7650   -2.9180    2.5210 C   0  0  1  0  0  0  0  0  0  0  0  0
   -1.4260   -1.9570    3.2840 O   0  0  0  0  0  0  0  0  0  0  0  0
    0.7140   -2.8260    2.8080 C   0  0  2  0  0  0  0  0  0  0  0  0
    0.8950   -3.0740    4.2210 N   0  0  0  0  0  0  0  0  0  0  0  0
    1.2680   -1.4950    2.4870 C   0  0  0  0  0  0  0  0  0  0  0  0
    1.7770   -0.8210    3.4160 O   0  0  0  0  0  0  0  0  0  0  0  0
   -1.8080   -4.8030    2.1420 H   0  0  0  0  0  0  0  0  0  0  0  0
   -1.8760   -4.2540    3.8510 H   0  0  0  0  0  0  0  0  0  0  0  0
   -0.3720   -4.9680    3.1720 H   0  0  0  0  0  0  0  0  0  0  0  0
   -0.9920   -2.8210    1.4400 H   0  0  0  0  0  0  0  0  0  0  0  0
   -2.0070   -2.3730    3.9450 H   0  0  0  0  0  0  0  0  0  0  0  0
    1.2560   -3.6360    2.2530 H   0  0  0  0  0  0  0  0  0  0  0  0
    0.2270   -2.4220    4.7240 H   0  0  0  0  0  0  0  0  0  0  0  0
    1.8490   -2.7290    4.4660 H   0  0  0  0  0  0  0  0  0  0  0  0
    1.2400   -0.9560    1.1560 N   0  0  0  0  0  0  0  0  0  0  0  0
    1.7970    0.3340    0.9380 C   0  0  1  0  0  0  0  0  0  0  0  0
    2.9580    0.3200   -0.0400 C   0  0  0  0  0  0  0  0  0  0  0  0
    2.5440   -0.2020   -1.3990 C   0  0  0  0  0  0  0  0  0  0  0  0
    3.7620   -0.1660   -2.2590 C   0  0  0  0  0  0  0  0  0  0  0  0
    3.7240   -0.5500   -3.4730 O   0  0  0  0  0  0  0  0  0  0  0  0
    0.8140    1.3180    0.4140 C   0  0  0  0  0  0  0  0  0  0  0  0
    1.2470    2.4810    0.2000 O   0  0  0  0  0  0  0  0  0  0  0  0
    4.9950    0.2800   -1.8030 O   0  0  0  0  0  0  0  0  0  0  0  0
    0.8050   -1.5630    0.4320 H   0  0  0  0  0  0  0  0  0  0  0  0
    2.1940    0.7640    1.8790 H   0  0  0  0  0  0  0  0  0  0  0  0
    3.3320    1.3530   -0.1910 H   0  0  0  0  0  0  0  0  0  0  0  0
    3.8070   -0.2750    0.3530 H   0  0  0  0  0  0  0  0  0  0  0  0
    1.7860    0.4620   -1.8620 H   0  0  0  0  0  0  0  0  0  0  0  0
    2.1260   -1.2140   -1.3630 H   0  0  0  0  0  0  0  0  0  0  0  0
    5.8280    0.2040   -2.3920 H   0  0  0  0  0  0  0  0  0  0  0  0
   -1.9820    1.5080   -1.7210 C   0  0  0  0  0  0  0  0  0  0  0  0
   -1.4840    2.0060   -0.3620 C   0  0  2  0  0  0  0  0  0  0  0  0
   -0.5340    1.0460    0.1470 N   0  0  0  0  0  0  0  0  0  0  0  0
   -2.6440    2.1940    0.5000 C   0  0  0  0  0  0  0  0  0  0  0  0
   -3.5470    2.9970    0.1790 O   0  0  0  0  0  0  0  0  0  0  0  0
   -2.7650    1.4910    1.6800 O   0  0  0  0  0  0  0  0  0  0  0  0
   -3.0170    1.8890   -1.8620 H   0  0  0  0  0  0  0  0  0  0  0  0
   -2.0540    0.4020   -1.7250 H   0  0  0  0  0  0  0  0  0  0  0  0
   -1.3200    1.9140   -2.4940 H   0  0  0  0  0  0  0  0  0  0  0  0
   -0.9160    2.9700   -0.4870 H   0  0  0  0  0  0  0  0  0  0  0  0
   -0.8880    0.0810    0.3260 H   0  0  0  0  0  0  0  0  0  0  0  0
  1 10  1  0  0  0  0
  1  9  1  0  0  0  0
  2 11  1  6  0  0  0
  2  4  1  0  0  0  0
  2  1  1  0  0  0  0
  2  3  1  0  0  0  0
  3 12  1  0  0  0  0
  4 13  1  6  0  0  0
  4  5  1  0  0  0  0
  5 15  1  0  0  0  0
  5 14  1  0  0  0  0
  6  4  1  0  0  0  0
  6  7  2  0  0  0  0
  8  1  1  0  0  0  0
 16  6  1  0  0  0  0
 17 16  1  0  0  0  0
 17 26  1  1  0  0  0
 18 28  1  0  0  0  0
 18 17  1  0  0  0  0
 19 30  1  0  0  0  0
 19 18  1  0  0  0  0
 20 24  1  0  0  0  0
 20 19  1  0  0  0  0
 21 20  2  0  0  0  0
 22 17  1  0  0  0  0
 23 22  2  0  0  0  0
 25 16  1  0  0  0  0
 27 18  1  0  0  0  0
 29 19  1  0  0  0  0
 31 24  1  0  0  0  0
 32 33  1  0  0  0  0
 33 41  1  6  0  0  0
 33 34  1  0  0  0  0
 33 35  1  0  0  0  0
 34 42  1  0  0  0  0
 34 22  1  0  0  0  0
 35 37  1  0  0  0  0
 36 35  2  0  0  0  0
 38 32  1  0  0  0  0
 39 32  1  0  0  0  0
 40 32  1  0  0  0  0
M  END
$$$$
