TEC.pdb
 OpenBabel07022419113D

 43 42  0  0  1  0  0  0  0  0999 V2000
   -2.4110   -3.0120    1.0330 C   0  0  0  0  0  0  0  0  0  0  0  0
   -3.0530   -2.4020   -0.1800 C   0  0  1  0  0  0  0  0  0  0  0  0
   -2.9290   -1.0360   -0.0850 O   0  0  0  0  0  0  0  0  0  0  0  0
   -2.5070   -2.8890   -1.4720 C   0  0  2  0  0  0  0  0  0  0  0  0
   -2.6370   -4.3300   -1.6270 N   0  0  0  0  0  0  0  0  0  0  0  0
   -1.1090   -2.5160   -1.7630 C   0  0  0  0  0  0  0  0  0  0  0  0
   -0.2980   -3.4710   -2.0350 O   0  0  0  0  0  0  0  0  0  0  0  0
   -1.7820   -3.8750    0.8360 H   0  0  0  0  0  0  0  0  0  0  0  0
   -3.2200   -3.3110    1.7510 H   0  0  0  0  0  0  0  0  0  0  0  0
   -1.8070   -2.2460    1.6030 H   0  0  0  0  0  0  0  0  0  0  0  0
   -4.1570   -2.6270   -0.1850 H   0  0  0  0  0  0  0  0  0  0  0  0
   -3.5840   -0.6200   -0.7000 H   0  0  0  0  0  0  0  0  0  0  0  0
   -3.1440   -2.4450   -2.2880 H   0  0  0  0  0  0  0  0  0  0  0  0
   -1.8750   -4.8450   -1.1410 H   0  0  0  0  0  0  0  0  0  0  0  0
   -3.5940   -4.6640   -1.3920 H   0  0  0  0  0  0  0  0  0  0  0  0
   -0.6210   -1.1670   -1.7590 N   0  0  0  0  0  0  0  0  0  0  0  0
    0.7280   -0.8410   -2.0470 C   0  0  1  0  0  0  0  0  0  0  0  0
    1.0740   -0.2700   -3.3690 C   0  0  0  0  0  0  0  0  0  0  0  0
    0.4400    0.9900   -3.7940 C   0  0  0  0  0  0  0  0  0  0  0  0
   -1.0070    0.8400   -4.0170 C   0  0  0  0  0  0  0  0  0  0  0  0
   -1.5150   -0.3030   -4.0890 O   0  0  0  0  0  0  0  0  0  0  0  0
    1.3590   -0.1030   -0.9090 C   0  0  0  0  0  0  0  0  0  0  0  0
    2.5390    0.3140   -0.9550 O   0  0  0  0  0  0  0  0  0  0  0  0
   -1.8500    1.9490   -4.1530 O   0  0  0  0  0  0  0  0  0  0  0  0
   -1.2720   -0.3920   -1.5120 H   0  0  0  0  0  0  0  0  0  0  0  0
    1.2740   -1.8660   -2.0430 H   0  0  0  0  0  0  0  0  0  0  0  0
    0.9120   -1.0770   -4.1290 H   0  0  0  0  0  0  0  0  0  0  0  0
    2.2020   -0.1240   -3.3610 H   0  0  0  0  0  0  0  0  0  0  0  0
    0.9050    1.3390   -4.7700 H   0  0  0  0  0  0  0  0  0  0  0  0
    0.6440    1.8440   -3.1010 H   0  0  0  0  0  0  0  0  0  0  0  0
   -2.8170    1.8220   -3.9490 H   0  0  0  0  0  0  0  0  0  0  0  0
    0.5960    0.1320    0.2610 N   0  0  0  0  0  0  0  0  0  0  0  0
    1.1950    0.8450    1.3770 C   0  0  1  0  0  0  0  0  0  0  0  0
    0.4640    2.1100    1.7200 C   0  0  0  0  0  0  0  0  0  0  0  0
    0.4460    3.2670    0.3010 S   0  0  0  0  0  0  0  0  0  0  0  0
    1.2030   -0.0520    2.5460 C   0  0  0  0  0  0  0  0  0  0  0  0
    1.6800    0.3670    3.6250 O   0  0  0  0  0  0  0  0  0  0  0  0
    0.6960   -1.3550    2.4900 O   0  0  0  0  0  0  0  0  0  0  0  0
   -0.3800   -0.1720    0.3900 H   0  0  0  0  0  0  0  0  0  0  0  0
    2.2490    1.1400    1.1260 H   0  0  0  0  0  0  0  0  0  0  0  0
    1.0360    2.6180    2.5230 H   0  0  0  0  0  0  0  0  0  0  0  0
   -0.5610    1.9480    2.0700 H   0  0  0  0  0  0  0  0  0  0  0  0
    1.7360    3.4740   -0.1920 H   0  0  0  0  0  0  0  0  0  0  0  0
  1 10  1  0  0  0  0
  1  9  1  0  0  0  0
  2 11  1  1  0  0  0
  2  3  1  0  0  0  0
  2  1  1  0  0  0  0
  4 13  1  6  0  0  0
  4  2  1  0  0  0  0
  5  4  1  0  0  0  0
  5 15  1  0  0  0  0
  5 14  1  0  0  0  0
  6 16  1  0  0  0  0
  6  4  1  0  0  0  0
  7  6  2  0  0  0  0
  8  1  1  0  0  0  0
 12  3  1  0  0  0  0
 16 25  1  0  0  0  0
 17 26  1  1  0  0  0
 17 16  1  0  0  0  0
 17 22  1  0  0  0  0
 18 28  1  0  0  0  0
 18 17  1  0  0  0  0
 19 18  1  0  0  0  0
 19 30  1  0  0  0  0
 20 19  1  0  0  0  0
 21 20  2  0  0  0  0
 22 32  1  0  0  0  0
 23 22  2  0  0  0  0
 24 20  1  0  0  0  0
 24 31  1  0  0  0  0
 27 18  1  0  0  0  0
 29 19  1  0  0  0  0
 32 39  1  0  0  0  0
 32 33  1  0  0  0  0
 33 40  1  6  0  0  0
 33 34  1  0  0  0  0
 33 36  1  0  0  0  0
 34 42  1  0  0  0  0
 34 41  1  0  0  0  0
 35 34  1  0  0  0  0
 36 37  1  0  0  0  0
 38 36  2  0  0  0  0
 43 35  1  0  0  0  0
M  END
$$$$
