TED.pdb
 OpenBabel07022419113D

 45 44  0  0  1  0  0  0  0  0999 V2000
   -0.1600   -2.6480   -2.0490 C   0  0  0  0  0  0  0  0  0  0  0  0
    1.2150   -3.2480   -1.8290 C   0  0  1  0  0  0  0  0  0  0  0  0
    1.5580   -3.7890   -3.0990 O   0  0  0  0  0  0  0  0  0  0  0  0
    2.2680   -2.1680   -1.5940 C   0  0  2  0  0  0  0  0  0  0  0  0
    3.5890   -2.8530   -1.6410 N   0  0  0  0  0  0  0  0  0  0  0  0
    2.2090   -1.5420   -0.2780 C   0  0  0  0  0  0  0  0  0  0  0  0
    3.0910   -1.8240    0.6260 O   0  0  0  0  0  0  0  0  0  0  0  0
   -0.0180   -1.8310   -2.8150 H   0  0  0  0  0  0  0  0  0  0  0  0
   -0.7500   -3.4390   -2.5670 H   0  0  0  0  0  0  0  0  0  0  0  0
   -0.6270   -2.2960   -1.1320 H   0  0  0  0  0  0  0  0  0  0  0  0
    1.2300   -4.0300   -1.0590 H   0  0  0  0  0  0  0  0  0  0  0  0
    1.1210   -4.6770   -3.1020 H   0  0  0  0  0  0  0  0  0  0  0  0
    2.2540   -1.5070   -2.4660 H   0  0  0  0  0  0  0  0  0  0  0  0
    4.2640   -2.2540   -2.1410 H   0  0  0  0  0  0  0  0  0  0  0  0
    3.4810   -3.7550   -2.1490 H   0  0  0  0  0  0  0  0  0  0  0  0
    1.2550   -0.5970    0.1890 N   0  0  0  0  0  0  0  0  0  0  0  0
    1.3380   -0.0510    1.5420 C   0  0  1  0  0  0  0  0  0  0  0  0
    1.7150    1.4030    1.5010 C   0  0  0  0  0  0  0  0  0  0  0  0
    1.8300    1.9520    2.8930 C   0  0  0  0  0  0  0  0  0  0  0  0
    2.2480    3.4030    2.7380 C   0  0  0  0  0  0  0  0  0  0  0  0
    1.5620    4.1810    2.0460 O   0  0  0  0  0  0  0  0  0  0  0  0
    0.0310   -0.2160    2.1840 C   0  0  0  0  0  0  0  0  0  0  0  0
   -0.0790    0.0020    3.4380 O   0  0  0  0  0  0  0  0  0  0  0  0
    3.3960    3.8820    3.3580 O   0  0  0  0  0  0  0  0  0  0  0  0
    0.4960   -0.2830   -0.4240 H   0  0  0  0  0  0  0  0  0  0  0  0
    2.1270   -0.5590    2.1330 H   0  0  0  0  0  0  0  0  0  0  0  0
    0.9300    2.0250    0.9980 H   0  0  0  0  0  0  0  0  0  0  0  0
    2.6820    1.5330    0.9620 H   0  0  0  0  0  0  0  0  0  0  0  0
    0.8620    1.9790    3.4390 H   0  0  0  0  0  0  0  0  0  0  0  0
    2.5530    1.4150    3.5350 H   0  0  0  0  0  0  0  0  0  0  0  0
    3.9420    4.6660    2.9930 H   0  0  0  0  0  0  0  0  0  0  0  0
   -1.1800   -0.6060    1.5490 N   0  0  0  0  0  0  0  0  0  0  0  0
   -2.4370   -0.7510    2.2740 C   0  0  1  0  0  0  0  0  0  0  0  0
   -3.5420    0.0480    1.6200 C   0  0  0  0  0  0  0  0  0  0  0  0
   -3.2420    1.4960    1.5620 C   0  0  0  0  0  0  0  0  0  0  0  0
   -2.5130    1.9270    0.6500 O   0  0  0  0  0  0  0  0  0  0  0  0
   -2.8340   -2.1670    2.2560 C   0  0  0  0  0  0  0  0  0  0  0  0
   -3.8550   -2.6460    2.8020 O   0  0  0  0  0  0  0  0  0  0  0  0
   -3.7610    2.3560    2.5010 O   0  0  0  0  0  0  0  0  0  0  0  0
   -2.0290   -3.0930    1.5790 O   0  0  0  0  0  0  0  0  0  0  0  0
   -1.1540   -0.7790    0.5310 H   0  0  0  0  0  0  0  0  0  0  0  0
   -2.3430   -0.4570    3.3330 H   0  0  0  0  0  0  0  0  0  0  0  0
   -3.7590   -0.3670    0.5930 H   0  0  0  0  0  0  0  0  0  0  0  0
   -4.4340   -0.0760    2.2740 H   0  0  0  0  0  0  0  0  0  0  0  0
   -3.2420    3.1960    2.7930 H   0  0  0  0  0  0  0  0  0  0  0  0
  1  2  1  0  0  0  0
  1 10  1  0  0  0  0
  2  4  1  0  0  0  0
  2 11  1  1  0  0  0
  3  2  1  0  0  0  0
  4 13  1  6  0  0  0
  4  6  1  0  0  0  0
  5  4  1  0  0  0  0
  6 16  1  0  0  0  0
  6  7  2  0  0  0  0
  8  1  1  0  0  0  0
  9  1  1  0  0  0  0
 12  3  1  0  0  0  0
 14  5  1  0  0  0  0
 15  5  1  0  0  0  0
 16 17  1  0  0  0  0
 17 26  1  1  0  0  0
 17 22  1  0  0  0  0
 18 17  1  0  0  0  0
 18 19  1  0  0  0  0
 19 29  1  0  0  0  0
 19 30  1  0  0  0  0
 20 19  1  0  0  0  0
 20 24  1  0  0  0  0
 21 20  2  0  0  0  0
 22 23  2  0  0  0  0
 25 16  1  0  0  0  0
 27 18  1  0  0  0  0
 28 18  1  0  0  0  0
 31 24  1  0  0  0  0
 32 22  1  0  0  0  0
 32 33  1  0  0  0  0
 33 42  1  1  0  0  0
 34 33  1  0  0  0  0
 34 44  1  0  0  0  0
 35 34  1  0  0  0  0
 35 39  1  0  0  0  0
 36 35  2  0  0  0  0
 37 33  1  0  0  0  0
 37 38  1  0  0  0  0
 39 45  1  0  0  0  0
 40 37  2  0  0  0  0
 41 32  1  0  0  0  0
 43 34  1  0  0  0  0
M  END
$$$$
