TEE.pdb
 OpenBabel07022419113D

 48 47  0  0  1  0  0  0  0  0999 V2000
   -0.3410   -3.0820    3.9770 C   0  0  0  0  0  0  0  0  0  0  0  0
   -0.7760   -1.9700    4.8990 C   0  0  1  0  0  0  0  0  0  0  0  0
   -0.9620   -2.5920    6.1540 O   0  0  0  0  0  0  0  0  0  0  0  0
    0.2610   -0.8740    5.0250 C   0  0  2  0  0  0  0  0  0  0  0  0
   -0.1930    0.0980    6.0370 N   0  0  0  0  0  0  0  0  0  0  0  0
    0.4180   -0.1640    3.7360 C   0  0  0  0  0  0  0  0  0  0  0  0
   -0.0040    1.0410    3.6460 O   0  0  0  0  0  0  0  0  0  0  0  0
   -0.6040   -2.8880    2.9240 H   0  0  0  0  0  0  0  0  0  0  0  0
   -0.8670   -4.0250    4.3310 H   0  0  0  0  0  0  0  0  0  0  0  0
    0.7230   -3.3140    4.1020 H   0  0  0  0  0  0  0  0  0  0  0  0
   -1.7500   -1.5700    4.5840 H   0  0  0  0  0  0  0  0  0  0  0  0
   -1.1630   -3.5450    6.0650 H   0  0  0  0  0  0  0  0  0  0  0  0
    1.1970   -1.3210    5.4000 H   0  0  0  0  0  0  0  0  0  0  0  0
   -1.2050   -0.0250    6.1260 H   0  0  0  0  0  0  0  0  0  0  0  0
    0.0090    1.0340    5.6660 H   0  0  0  0  0  0  0  0  0  0  0  0
    1.0040   -0.6920    2.5630 N   0  0  0  0  0  0  0  0  0  0  0  0
    1.1130    0.1190    1.3200 C   0  0  1  0  0  0  0  0  0  0  0  0
    2.5470    0.2420    0.9530 C   0  0  0  0  0  0  0  0  0  0  0  0
    2.7910    1.0310   -0.2740 C   0  0  0  0  0  0  0  0  0  0  0  0
    4.2930    1.1150   -0.5070 C   0  0  0  0  0  0  0  0  0  0  0  0
    5.1160    0.5730    0.2680 O   0  0  0  0  0  0  0  0  0  0  0  0
    0.2120   -0.4560    0.3010 C   0  0  0  0  0  0  0  0  0  0  0  0
   -0.3470   -1.5990    0.5170 O   0  0  0  0  0  0  0  0  0  0  0  0
    4.7440    1.8140   -1.6070 O   0  0  0  0  0  0  0  0  0  0  0  0
    1.3730   -1.6620    2.5810 H   0  0  0  0  0  0  0  0  0  0  0  0
    0.7210    1.1160    1.5870 H   0  0  0  0  0  0  0  0  0  0  0  0
    3.0390    0.7970    1.8110 H   0  0  0  0  0  0  0  0  0  0  0  0
    3.0840   -0.7320    0.9310 H   0  0  0  0  0  0  0  0  0  0  0  0
    2.4090    2.0590   -0.2670 H   0  0  0  0  0  0  0  0  0  0  0  0
    2.4100    0.5350   -1.2030 H   0  0  0  0  0  0  0  0  0  0  0  0
    5.7010    2.1610   -1.6470 H   0  0  0  0  0  0  0  0  0  0  0  0
   -0.1370    0.1160   -0.9400 N   0  0  0  0  0  0  0  0  0  0  0  0
   -1.0570   -0.5830   -1.8630 C   0  0  1  0  0  0  0  0  0  0  0  0
   -2.1700    0.3230   -2.2640 C   0  0  0  0  0  0  0  0  0  0  0  0
   -3.1310   -0.3450   -3.1910 C   0  0  0  0  0  0  0  0  0  0  0  0
   -3.7930   -1.5260   -2.6020 C   0  0  0  0  0  0  0  0  0  0  0  0
   -3.6580   -1.8880   -1.4120 O   0  0  0  0  0  0  0  0  0  0  0  0
   -0.2740   -1.1030   -3.0110 C   0  0  0  0  0  0  0  0  0  0  0  0
   -0.7350   -1.8200   -3.9290 O   0  0  0  0  0  0  0  0  0  0  0  0
   -4.6440   -2.3430   -3.3710 O   0  0  0  0  0  0  0  0  0  0  0  0
    1.1020   -0.8170   -3.1560 O   0  0  0  0  0  0  0  0  0  0  0  0
    0.2180    1.0340   -1.2150 H   0  0  0  0  0  0  0  0  0  0  0  0
   -1.4730   -1.4770   -1.3640 H   0  0  0  0  0  0  0  0  0  0  0  0
   -2.7510    0.6180   -1.3560 H   0  0  0  0  0  0  0  0  0  0  0  0
   -1.8070    1.2620   -2.7550 H   0  0  0  0  0  0  0  0  0  0  0  0
   -2.6180   -0.6580   -4.1160 H   0  0  0  0  0  0  0  0  0  0  0  0
   -3.9720    0.3660   -3.4770 H   0  0  0  0  0  0  0  0  0  0  0  0
   -5.1430   -3.1180   -2.9430 H   0  0  0  0  0  0  0  0  0  0  0  0
  1 10  1  0  0  0  0
  1  9  1  0  0  0  0
  1  2  1  0  0  0  0
  2 11  1  6  0  0  0
  2  4  1  0  0  0  0
  2  3  1  0  0  0  0
  4 13  1  1  0  0  0
  4  5  1  0  0  0  0
  5 14  1  0  0  0  0
  6  4  1  0  0  0  0
  7  6  2  0  0  0  0
  8  1  1  0  0  0  0
 12  3  1  0  0  0  0
 15  5  1  0  0  0  0
 16 25  1  0  0  0  0
 16  6  1  0  0  0  0
 17 26  1  1  0  0  0
 17 16  1  0  0  0  0
 18 17  1  0  0  0  0
 18 27  1  0  0  0  0
 19 29  1  0  0  0  0
 19 18  1  0  0  0  0
 20 19  1  0  0  0  0
 20 21  2  0  0  0  0
 22 23  2  0  0  0  0
 22 17  1  0  0  0  0
 24 20  1  0  0  0  0
 28 18  1  0  0  0  0
 30 19  1  0  0  0  0
 31 24  1  0  0  0  0
 32 22  1  0  0  0  0
 33 43  1  1  0  0  0
 33 32  1  0  0  0  0
 34 33  1  0  0  0  0
 34 44  1  0  0  0  0
 35 36  1  0  0  0  0
 35 34  1  0  0  0  0
 36 37  2  0  0  0  0
 38 33  1  0  0  0  0
 39 38  2  0  0  0  0
 40 48  1  0  0  0  0
 40 36  1  0  0  0  0
 41 38  1  0  0  0  0
 42 32  1  0  0  0  0
 45 34  1  0  0  0  0
 46 35  1  0  0  0  0
 47 35  1  0  0  0  0
M  END
$$$$
