TEF.pdb
 OpenBabel07022419113D

 52 52  0  0  1  0  0  0  0  0999 V2000
    2.5970   -4.2900    1.5390 C   0  0  0  0  0  0  0  0  0  0  0  0
    1.7380   -3.0860    1.2840 C   0  0  1  0  0  0  0  0  0  0  0  0
    0.6970   -3.0390    2.2030 O   0  0  0  0  0  0  0  0  0  0  0  0
    2.5730   -1.8250    1.3000 C   0  0  2  0  0  0  0  0  0  0  0  0
    3.1520   -1.6160    2.5980 N   0  0  0  0  0  0  0  0  0  0  0  0
    1.7630   -0.6290    0.9540 C   0  0  0  0  0  0  0  0  0  0  0  0
    1.2110   -0.6170   -0.1540 O   0  0  0  0  0  0  0  0  0  0  0  0
    2.0330   -5.0170    2.1880 H   0  0  0  0  0  0  0  0  0  0  0  0
    2.8180   -4.8180    0.5870 H   0  0  0  0  0  0  0  0  0  0  0  0
    3.5090   -4.0420    2.1070 H   0  0  0  0  0  0  0  0  0  0  0  0
    1.2720   -3.2070    0.2820 H   0  0  0  0  0  0  0  0  0  0  0  0
   -0.1130   -3.4920    1.9150 H   0  0  0  0  0  0  0  0  0  0  0  0
    3.3730   -1.9580    0.5500 H   0  0  0  0  0  0  0  0  0  0  0  0
    4.1190   -1.9690    2.6990 H   0  0  0  0  0  0  0  0  0  0  0  0
    2.5260   -1.8300    3.3940 H   0  0  0  0  0  0  0  0  0  0  0  0
    1.6010    0.4700    1.8180 N   0  0  0  0  0  0  0  0  0  0  0  0
    0.8400    1.6180    1.5650 C   0  0  1  0  0  0  0  0  0  0  0  0
    1.5070    2.9130    1.4450 C   0  0  0  0  0  0  0  0  0  0  0  0
    2.5310    3.1970    0.4180 C   0  0  0  0  0  0  0  0  0  0  0  0
    2.1270    3.0930   -0.9800 C   0  0  0  0  0  0  0  0  0  0  0  0
    2.0580    1.9710   -1.5270 O   0  0  0  0  0  0  0  0  0  0  0  0
   -0.5280    1.5410    1.0140 C   0  0  0  0  0  0  0  0  0  0  0  0
   -1.0940    2.6310    0.5890 O   0  0  0  0  0  0  0  0  0  0  0  0
    1.8240    4.2360   -1.6900 O   0  0  0  0  0  0  0  0  0  0  0  0
    2.1580    0.3390    2.7530 H   0  0  0  0  0  0  0  0  0  0  0  0
    0.4250    1.7580    2.6900 H   0  0  0  0  0  0  0  0  0  0  0  0
    2.0030    3.1970    2.4240 H   0  0  0  0  0  0  0  0  0  0  0  0
    0.7040    3.7050    1.3330 H   0  0  0  0  0  0  0  0  0  0  0  0
    3.5170    2.6760    0.6230 H   0  0  0  0  0  0  0  0  0  0  0  0
    2.8320    4.2640    0.5810 H   0  0  0  0  0  0  0  0  0  0  0  0
    1.6460    4.1800   -2.6860 H   0  0  0  0  0  0  0  0  0  0  0  0
   -1.3490    0.4060    0.8850 N   0  0  0  0  0  0  0  0  0  0  0  0
   -2.6920    0.4540    0.3460 C   0  0  1  0  0  0  0  0  0  0  0  0
   -2.9570   -0.2950   -0.8940 C   0  0  0  0  0  0  0  0  0  0  0  0
   -2.7230   -1.7490   -0.8700 C   0  0  0  0  0  0  0  0  0  0  0  0
   -1.5050   -2.2510   -1.3130 C   0  0  0  0  0  0  0  0  0  0  0  0
   -1.2720   -3.6010   -1.2850 C   0  0  0  0  0  0  0  0  0  0  0  0
   -2.1950   -4.5270   -0.8300 C   0  0  0  0  0  0  0  0  0  0  0  0
   -3.3960   -3.9800   -0.3980 C   0  0  0  0  0  0  0  0  0  0  0  0
   -3.6640   -2.6410   -0.4110 C   0  0  0  0  0  0  0  0  0  0  0  0
   -3.7060    0.1390    1.3830 C   0  0  0  0  0  0  0  0  0  0  0  0
   -3.3250   -0.1480    2.5540 O   0  0  0  0  0  0  0  0  0  0  0  0
   -5.0630    0.1440    1.1390 O   0  0  0  0  0  0  0  0  0  0  0  0
   -0.9680   -0.4890    1.2190 H   0  0  0  0  0  0  0  0  0  0  0  0
   -2.9030    1.5480    0.0930 H   0  0  0  0  0  0  0  0  0  0  0  0
   -2.4760    0.1880   -1.7890 H   0  0  0  0  0  0  0  0  0  0  0  0
   -4.0610   -0.1780   -1.1150 H   0  0  0  0  0  0  0  0  0  0  0  0
   -0.7630   -1.5400   -1.6910 H   0  0  0  0  0  0  0  0  0  0  0  0
   -0.3070   -3.9800   -1.6370 H   0  0  0  0  0  0  0  0  0  0  0  0
   -1.9970   -5.5980   -0.8130 H   0  0  0  0  0  0  0  0  0  0  0  0
   -4.1410   -4.6990   -0.0340 H   0  0  0  0  0  0  0  0  0  0  0  0
   -4.6350   -2.2690   -0.0570 H   0  0  0  0  0  0  0  0  0  0  0  0
  1 10  1  0  0  0  0
  1  8  1  0  0  0  0
  2 11  1  6  0  0  0
  2  4  1  0  0  0  0
  2  1  1  0  0  0  0
  2  3  1  0  0  0  0
  4 13  1  6  0  0  0
  4  5  1  0  0  0  0
  5 14  1  0  0  0  0
  5 15  1  0  0  0  0
  6  4  1  0  0  0  0
  6 16  1  0  0  0  0
  7  6  2  0  0  0  0
  9  1  1  0  0  0  0
 12  3  1  0  0  0  0
 16 25  1  0  0  0  0
 17 16  1  0  0  0  0
 17 26  1  1  0  0  0
 18 17  1  0  0  0  0
 18 27  1  0  0  0  0
 19 30  1  0  0  0  0
 19 29  1  0  0  0  0
 19 18  1  0  0  0  0
 20 19  1  0  0  0  0
 21 20  2  0  0  0  0
 22 17  1  0  0  0  0
 23 22  2  0  0  0  0
 24 20  1  0  0  0  0
 28 18  1  0  0  0  0
 31 24  1  0  0  0  0
 32 22  1  0  0  0  0
 32 44  1  0  0  0  0
 33 45  1  6  0  0  0
 33 32  1  0  0  0  0
 33 41  1  0  0  0  0
 34 35  1  0  0  0  0
 34 33  1  0  0  0  0
 35 40  1  0  0  0  0
 36 37  1  0  0  0  0
 36 35  2  0  0  0  0
 37 38  2  0  0  0  0
 38 50  1  0  0  0  0
 38 39  1  0  0  0  0
 39 51  1  0  0  0  0
 40 39  2  0  0  0  0
 40 52  1  0  0  0  0
 41 42  1  0  0  0  0
 43 41  2  0  0  0  0
 46 34  1  0  0  0  0
 47 34  1  0  0  0  0
 48 36  1  0  0  0  0
 49 37  1  0  0  0  0
M  END
$$$$
