TEP.pdb
 OpenBabel07022419113D

 46 46  0  0  1  0  0  0  0  0999 V2000
   -0.4190   -3.5970    0.4340 C   0  0  0  0  0  0  0  0  0  0  0  0
    0.9530   -4.1430    0.5870 C   0  0  1  0  0  0  0  0  0  0  0  0
    0.9780   -5.3750   -0.0810 O   0  0  0  0  0  0  0  0  0  0  0  0
    2.0670   -3.2700    0.0700 C   0  0  2  0  0  0  0  0  0  0  0  0
    3.3280   -4.0250    0.3520 N   0  0  0  0  0  0  0  0  0  0  0  0
    2.1170   -1.9750    0.7350 C   0  0  0  0  0  0  0  0  0  0  0  0
    2.9870   -1.7800    1.6440 O   0  0  0  0  0  0  0  0  0  0  0  0
   -0.6930   -2.9290    1.2890 H   0  0  0  0  0  0  0  0  0  0  0  0
   -0.6520   -3.0900   -0.4990 H   0  0  0  0  0  0  0  0  0  0  0  0
   -1.1940   -4.4280    0.5040 H   0  0  0  0  0  0  0  0  0  0  0  0
    1.1170   -4.3390    1.6880 H   0  0  0  0  0  0  0  0  0  0  0  0
    0.9690   -6.1150    0.5670 H   0  0  0  0  0  0  0  0  0  0  0  0
    2.0340   -3.2330   -1.0240 H   0  0  0  0  0  0  0  0  0  0  0  0
    4.1040   -3.3840    0.5540 H   0  0  0  0  0  0  0  0  0  0  0  0
    3.5400   -4.6730   -0.4330 H   0  0  0  0  0  0  0  0  0  0  0  0
    1.2490   -0.8620    0.4430 N   0  0  0  0  0  0  0  0  0  0  0  0
    1.3670    0.3730    1.1190 C   0  0  1  0  0  0  0  0  0  0  0  0
    2.1010    1.4060    0.2050 C   0  0  0  0  0  0  0  0  0  0  0  0
    1.3190    1.6330   -1.0520 C   0  0  0  0  0  0  0  0  0  0  0  0
    2.0730    2.6100   -1.8880 C   0  0  0  0  0  0  0  0  0  0  0  0
    3.2840    2.3110   -2.1930 O   0  0  0  0  0  0  0  0  0  0  0  0
    0.2510    1.0180    1.7470 C   0  0  0  0  0  0  0  0  0  0  0  0
    0.5850    2.1360    2.3400 O   0  0  0  0  0  0  0  0  0  0  0  0
    1.5770    3.7900   -2.3490 O   0  0  0  0  0  0  0  0  0  0  0  0
    0.5630   -1.0630   -0.3090 H   0  0  0  0  0  0  0  0  0  0  0  0
    2.1540    0.2290    1.9310 H   0  0  0  0  0  0  0  0  0  0  0  0
    3.1060    1.0530   -0.0050 H   0  0  0  0  0  0  0  0  0  0  0  0
    2.1460    2.3310    0.8110 H   0  0  0  0  0  0  0  0  0  0  0  0
    1.2590    0.6740   -1.6100 H   0  0  0  0  0  0  0  0  0  0  0  0
    0.3170    2.0660   -0.8630 H   0  0  0  0  0  0  0  0  0  0  0  0
    2.1460    4.6270   -2.4910 H   0  0  0  0  0  0  0  0  0  0  0  0
   -1.1130    0.7110    1.8600 N   0  0  0  0  0  0  0  0  0  0  0  0
   -1.9310   -0.3770    1.3850 C   0  0  0  0  0  0  0  0  0  0  0  0
   -3.2670    0.2650    1.0580 C   0  0  0  0  0  0  0  0  0  0  0  0
   -3.1730    1.6850    1.5640 C   0  0  0  0  0  0  0  0  0  0  0  0
   -2.0800    1.5610    2.5860 C   0  0  1  0  0  0  0  0  0  0  0  0
   -2.5930    0.8790    3.7790 C   0  0  0  0  0  0  0  0  0  0  0  0
   -3.5080    1.4460    4.4850 O   0  0  0  0  0  0  0  0  0  0  0  0
   -2.1970   -0.3530    4.2620 O   0  0  0  0  0  0  0  0  0  0  0  0
   -1.5920   -0.8260    0.4310 H   0  0  0  0  0  0  0  0  0  0  0  0
   -2.1020   -1.1800    2.1320 H   0  0  0  0  0  0  0  0  0  0  0  0
   -4.1090   -0.2820    1.5470 H   0  0  0  0  0  0  0  0  0  0  0  0
   -3.4770    0.2890   -0.0290 H   0  0  0  0  0  0  0  0  0  0  0  0
   -2.8630    2.3720    0.7490 H   0  0  0  0  0  0  0  0  0  0  0  0
   -4.1330    1.9790    2.0340 H   0  0  0  0  0  0  0  0  0  0  0  0
   -1.6110    2.5440    2.8230 H   0  0  0  0  0  0  0  0  0  0  0  0
  1 10  1  0  0  0  0
  1  2  1  0  0  0  0
  1  8  1  0  0  0  0
  2 11  1  1  0  0  0
  3 12  1  0  0  0  0
  3  2  1  0  0  0  0
  4 13  1  6  0  0  0
  4  5  1  0  0  0  0
  4  2  1  0  0  0  0
  4  6  1  0  0  0  0
  5 14  1  0  0  0  0
  6  7  2  0  0  0  0
  9  1  1  0  0  0  0
 15  5  1  0  0  0  0
 16  6  1  0  0  0  0
 16 17  1  0  0  0  0
 17 22  1  0  0  0  0
 17 26  1  1  0  0  0
 18 28  1  0  0  0  0
 18 17  1  0  0  0  0
 19 30  1  0  0  0  0
 19 18  1  0  0  0  0
 20 19  1  0  0  0  0
 21 20  2  0  0  0  0
 22 32  1  0  0  0  0
 22 23  2  0  0  0  0
 24 20  1  0  0  0  0
 25 16  1  0  0  0  0
 27 18  1  0  0  0  0
 29 19  1  0  0  0  0
 31 24  1  0  0  0  0
 32 36  1  0  0  0  0
 33 32  1  0  0  0  0
 33 41  1  0  0  0  0
 34 33  1  0  0  0  0
 34 42  1  0  0  0  0
 34 35  1  0  0  0  0
 35 45  1  0  0  0  0
 35 36  1  0  0  0  0
 36 46  1  1  0  0  0
 36 37  1  0  0  0  0
 37 39  2  0  0  0  0
 37 38  1  0  0  0  0
 40 33  1  0  0  0  0
 43 34  1  0  0  0  0
 44 35  1  0  0  0  0
M  END
$$$$
