TEQ.pdb
 OpenBabel07022419113D

 49 48  0  0  1  0  0  0  0  0999 V2000
   -5.1910   -0.2970   -0.9880 C   0  0  0  0  0  0  0  0  0  0  0  0
   -3.8210   -0.9200   -0.9850 C   0  0  1  0  0  0  0  0  0  0  0  0
   -3.7610   -1.8470    0.0770 O   0  0  0  0  0  0  0  0  0  0  0  0
   -3.6120   -1.7160   -2.2580 C   0  0  2  0  0  0  0  0  0  0  0  0
   -4.6670   -2.7080   -2.3600 N   0  0  0  0  0  0  0  0  0  0  0  0
   -2.2930   -2.3730   -2.1680 C   0  0  0  0  0  0  0  0  0  0  0  0
   -2.2060   -3.6200   -2.1930 O   0  0  0  0  0  0  0  0  0  0  0  0
   -5.1170    0.7870   -0.7350 H   0  0  0  0  0  0  0  0  0  0  0  0
   -5.8320   -0.7500   -0.2210 H   0  0  0  0  0  0  0  0  0  0  0  0
   -5.6630   -0.3780   -1.9930 H   0  0  0  0  0  0  0  0  0  0  0  0
   -3.0630   -0.1310   -0.8590 H   0  0  0  0  0  0  0  0  0  0  0  0
   -4.0850   -1.4190    0.9000 H   0  0  0  0  0  0  0  0  0  0  0  0
   -3.6820   -1.0320   -3.1290 H   0  0  0  0  0  0  0  0  0  0  0  0
   -5.5260   -2.4100   -1.8550 H   0  0  0  0  0  0  0  0  0  0  0  0
   -4.3330   -3.5760   -1.8490 H   0  0  0  0  0  0  0  0  0  0  0  0
   -1.1360   -1.5730   -2.0520 N   0  0  0  0  0  0  0  0  0  0  0  0
    0.1690   -2.1810   -1.9610 C   0  0  1  0  0  0  0  0  0  0  0  0
    1.0180   -1.8630   -3.1770 C   0  0  0  0  0  0  0  0  0  0  0  0
    1.2020   -0.3680   -3.2970 C   0  0  0  0  0  0  0  0  0  0  0  0
    2.0330   -0.0260   -4.4780 C   0  0  0  0  0  0  0  0  0  0  0  0
    2.4740   -0.9410   -5.2130 O   0  0  0  0  0  0  0  0  0  0  0  0
    0.8610   -1.7980   -0.7030 C   0  0  0  0  0  0  0  0  0  0  0  0
    2.0070   -2.2360   -0.4780 O   0  0  0  0  0  0  0  0  0  0  0  0
    2.3300    1.2850   -4.7790 O   0  0  0  0  0  0  0  0  0  0  0  0
   -1.1650   -0.5240   -2.0250 H   0  0  0  0  0  0  0  0  0  0  0  0
    0.0320   -3.2830   -1.9860 H   0  0  0  0  0  0  0  0  0  0  0  0
    1.9860   -2.3960   -3.1470 H   0  0  0  0  0  0  0  0  0  0  0  0
    0.5230   -2.1910   -4.1130 H   0  0  0  0  0  0  0  0  0  0  0  0
    0.2130    0.1170   -3.3620 H   0  0  0  0  0  0  0  0  0  0  0  0
    1.7300    0.0040   -2.4020 H   0  0  0  0  0  0  0  0  0  0  0  0
    3.1850    1.5500   -5.2810 H   0  0  0  0  0  0  0  0  0  0  0  0
    2.9850    3.6890   -0.2420 N   0  0  0  0  0  0  0  0  0  0  0  0
    2.1960    2.9350    0.6460 C   0  0  0  0  0  0  0  0  0  0  0  0
    1.6330    3.5170    1.6140 O   0  0  0  0  0  0  0  0  0  0  0  0
    1.9770    1.4760    0.5200 C   0  0  0  0  0  0  0  0  0  0  0  0
    1.0870    0.9430    1.6190 C   0  0  0  0  0  0  0  0  0  0  0  0
    0.8660   -0.5350    1.4930 C   0  0  2  0  0  0  0  0  0  0  0  0
    0.2480   -0.9320    0.2710 N   0  0  0  0  0  0  0  0  0  0  0  0
    0.1510   -1.0180    2.6970 C   0  0  0  0  0  0  0  0  0  0  0  0
    0.5150   -0.7890    3.8690 O   0  0  0  0  0  0  0  0  0  0  0  0
   -0.9930   -1.7720    2.5200 O   0  0  0  0  0  0  0  0  0  0  0  0
    2.7840    4.6910   -0.3840 H   0  0  0  0  0  0  0  0  0  0  0  0
    3.7630    3.2400   -0.7480 H   0  0  0  0  0  0  0  0  0  0  0  0
    1.4170    1.3230   -0.4300 H   0  0  0  0  0  0  0  0  0  0  0  0
    2.9560    0.9580    0.5240 H   0  0  0  0  0  0  0  0  0  0  0  0
    1.5970    1.1730    2.5770 H   0  0  0  0  0  0  0  0  0  0  0  0
    0.1420    1.5220    1.6290 H   0  0  0  0  0  0  0  0  0  0  0  0
    1.8920   -1.0090    1.5120 H   0  0  0  0  0  0  0  0  0  0  0  0
   -0.7210   -0.6090   -0.0030 H   0  0  0  0  0  0  0  0  0  0  0  0
  1  2  1  0  0  0  0
  1  8  1  0  0  0  0
  1  9  1  0  0  0  0
  2 11  1  1  0  0  0
  2  3  1  0  0  0  0
  3 12  1  0  0  0  0
  4 13  1  6  0  0  0
  4  6  1  0  0  0  0
  4  2  1  0  0  0  0
  5  4  1  0  0  0  0
  5 14  1  0  0  0  0
  5 15  1  0  0  0  0
  6 16  1  0  0  0  0
  7  6  2  0  0  0  0
 10  1  1  0  0  0  0
 16 25  1  0  0  0  0
 16 17  1  0  0  0  0
 17 26  1  1  0  0  0
 17 22  1  0  0  0  0
 18 27  1  0  0  0  0
 18 17  1  0  0  0  0
 19 18  1  0  0  0  0
 19 30  1  0  0  0  0
 20 19  1  0  0  0  0
 21 20  2  0  0  0  0
 22 23  2  0  0  0  0
 22 38  1  0  0  0  0
 24 20  1  0  0  0  0
 28 18  1  0  0  0  0
 29 19  1  0  0  0  0
 31 24  1  0  0  0  0
 32 33  1  0  0  0  0
 33 34  2  0  0  0  0
 35 45  1  0  0  0  0
 35 33  1  0  0  0  0
 35 36  1  0  0  0  0
 36 47  1  0  0  0  0
 36 46  1  0  0  0  0
 37 48  1  1  0  0  0
 37 36  1  0  0  0  0
 37 39  1  0  0  0  0
 38 37  1  0  0  0  0
 39 40  1  0  0  0  0
 41 39  2  0  0  0  0
 42 32  1  0  0  0  0
 43 32  1  0  0  0  0
 44 35  1  0  0  0  0
 49 38  1  0  0  0  0
M  END
$$$$
