TES.pdb
 OpenBabel07022419113D

 43 42  0  0  1  0  0  0  0  0999 V2000
   -0.2100   -5.7150   -0.7050 C   0  0  0  0  0  0  0  0  0  0  0  0
    0.6360   -4.5450   -0.2350 C   0  0  1  0  0  0  0  0  0  0  0  0
    1.4650   -4.0690   -1.2210 O   0  0  0  0  0  0  0  0  0  0  0  0
   -0.2510   -3.4040    0.2560 C   0  0  2  0  0  0  0  0  0  0  0  0
   -1.0570   -2.8740   -0.8270 N   0  0  0  0  0  0  0  0  0  0  0  0
    0.6620   -2.3720    0.8120 C   0  0  0  0  0  0  0  0  0  0  0  0
    1.4250   -2.6860    1.7600 O   0  0  0  0  0  0  0  0  0  0  0  0
    0.4800   -6.5330   -0.9950 H   0  0  0  0  0  0  0  0  0  0  0  0
   -0.8380   -6.1160    0.1130 H   0  0  0  0  0  0  0  0  0  0  0  0
   -0.8600   -5.4570   -1.5530 H   0  0  0  0  0  0  0  0  0  0  0  0
    1.2430   -4.9180    0.6140 H   0  0  0  0  0  0  0  0  0  0  0  0
    2.3610   -4.5150   -1.1940 H   0  0  0  0  0  0  0  0  0  0  0  0
   -0.9680   -3.7740    1.0310 H   0  0  0  0  0  0  0  0  0  0  0  0
   -1.7330   -3.6330   -1.0850 H   0  0  0  0  0  0  0  0  0  0  0  0
   -1.6440   -2.1150   -0.4050 H   0  0  0  0  0  0  0  0  0  0  0  0
    0.7360   -1.0370    0.3420 N   0  0  0  0  0  0  0  0  0  0  0  0
    1.6200   -0.0430    0.8820 C   0  0  1  0  0  0  0  0  0  0  0  0
    2.6900    0.4260   -0.0450 C   0  0  0  0  0  0  0  0  0  0  0  0
    2.2340    1.0230   -1.3310 C   0  0  0  0  0  0  0  0  0  0  0  0
    1.3860    2.2000   -1.1230 C   0  0  0  0  0  0  0  0  0  0  0  0
    0.1470    2.0710   -1.0700 O   0  0  0  0  0  0  0  0  0  0  0  0
    0.9270    1.0420    1.6410 C   0  0  0  0  0  0  0  0  0  0  0  0
    1.6180    1.9650    2.1470 O   0  0  0  0  0  0  0  0  0  0  0  0
    1.9450    3.4510   -0.9860 O   0  0  0  0  0  0  0  0  0  0  0  0
    0.0950   -0.7890   -0.4480 H   0  0  0  0  0  0  0  0  0  0  0  0
    2.2220   -0.5540    1.7360 H   0  0  0  0  0  0  0  0  0  0  0  0
    3.4140   -0.4070   -0.2980 H   0  0  0  0  0  0  0  0  0  0  0  0
    3.3550    1.1540    0.5120 H   0  0  0  0  0  0  0  0  0  0  0  0
    1.7390    0.2610   -1.9830 H   0  0  0  0  0  0  0  0  0  0  0  0
    3.1330    1.3950   -1.9090 H   0  0  0  0  0  0  0  0  0  0  0  0
    1.3450    4.2750   -1.0600 H   0  0  0  0  0  0  0  0  0  0  0  0
   -0.4700    1.4110    4.6680 O   0  0  0  0  0  0  0  0  0  0  0  0
   -1.6150    1.5780    3.9040 C   0  0  0  0  0  0  0  0  0  0  0  0
   -1.2910    1.9910    2.4900 C   0  0  2  0  0  0  0  0  0  0  0  0
   -0.4830    1.0370    1.7990 N   0  0  0  0  0  0  0  0  0  0  0  0
   -0.8680    3.3650    2.3270 C   0  0  0  0  0  0  0  0  0  0  0  0
   -1.4390    4.2900    2.9970 O   0  0  0  0  0  0  0  0  0  0  0  0
    0.1230    3.7650    1.4830 O   0  0  0  0  0  0  0  0  0  0  0  0
   -0.4950    0.5520    5.1720 H   0  0  0  0  0  0  0  0  0  0  0  0
   -2.1020    0.5610    3.8240 H   0  0  0  0  0  0  0  0  0  0  0  0
   -2.3600    2.2230    4.3770 H   0  0  0  0  0  0  0  0  0  0  0  0
   -2.3160    1.9610    1.9430 H   0  0  0  0  0  0  0  0  0  0  0  0
   -0.9400    0.1850    1.3170 H   0  0  0  0  0  0  0  0  0  0  0  0
  1  2  1  0  0  0  0
  1  9  1  0  0  0  0
  2  4  1  0  0  0  0
  2 11  1  1  0  0  0
  3 12  1  0  0  0  0
  3  2  1  0  0  0  0
  4  6  1  0  0  0  0
  4 13  1  1  0  0  0
  5 15  1  0  0  0  0
  5  4  1  0  0  0  0
  6  7  2  0  0  0  0
  8  1  1  0  0  0  0
 10  1  1  0  0  0  0
 14  5  1  0  0  0  0
 16  6  1  0  0  0  0
 16 17  1  0  0  0  0
 17 22  1  0  0  0  0
 17 26  1  1  0  0  0
 18 28  1  0  0  0  0
 18 17  1  0  0  0  0
 19 20  1  0  0  0  0
 19 18  1  0  0  0  0
 20 21  2  0  0  0  0
 20 24  1  0  0  0  0
 22 35  1  0  0  0  0
 22 23  2  0  0  0  0
 25 16  1  0  0  0  0
 27 18  1  0  0  0  0
 29 19  1  0  0  0  0
 30 19  1  0  0  0  0
 31 24  1  0  0  0  0
 32 39  1  0  0  0  0
 33 41  1  0  0  0  0
 33 32  1  0  0  0  0
 34 42  1  6  0  0  0
 34 33  1  0  0  0  0
 35 34  1  0  0  0  0
 36 34  1  0  0  0  0
 36 37  1  0  0  0  0
 38 36  2  0  0  0  0
 40 33  1  0  0  0  0
 43 35  1  0  0  0  0
M  END
$$$$
