TET.pdb
 OpenBabel07022419123D

 46 45  0  0  1  0  0  0  0  0999 V2000
    3.0500   -3.8220   -0.4480 C   0  0  0  0  0  0  0  0  0  0  0  0
    3.1250   -3.6900    1.0430 C   0  0  1  0  0  0  0  0  0  0  0  0
    4.3390   -3.0960    1.3880 O   0  0  0  0  0  0  0  0  0  0  0  0
    1.9450   -2.9490    1.6260 C   0  0  2  0  0  0  0  0  0  0  0  0
    0.7430   -3.6360    1.2150 N   0  0  0  0  0  0  0  0  0  0  0  0
    1.9350   -1.5180    1.2450 C   0  0  0  0  0  0  0  0  0  0  0  0
    2.9270   -0.8040    1.5460 O   0  0  0  0  0  0  0  0  0  0  0  0
    2.0180   -3.9630   -0.8120 H   0  0  0  0  0  0  0  0  0  0  0  0
    3.5820   -3.0000   -0.9670 H   0  0  0  0  0  0  0  0  0  0  0  0
    3.6090   -4.7560   -0.7230 H   0  0  0  0  0  0  0  0  0  0  0  0
    3.1290   -4.7030    1.4950 H   0  0  0  0  0  0  0  0  0  0  0  0
    4.7460   -2.6430    0.5830 H   0  0  0  0  0  0  0  0  0  0  0  0
    2.0140   -3.0450    2.7300 H   0  0  0  0  0  0  0  0  0  0  0  0
   -0.1200   -3.1030    1.5060 H   0  0  0  0  0  0  0  0  0  0  0  0
    0.6830   -4.5460    1.7250 H   0  0  0  0  0  0  0  0  0  0  0  0
    0.8730   -0.8880    0.5570 N   0  0  0  0  0  0  0  0  0  0  0  0
    0.8720    0.5320    0.1830 C   0  0  1  0  0  0  0  0  0  0  0  0
    0.7620    0.6800   -1.3050 C   0  0  0  0  0  0  0  0  0  0  0  0
    0.7760    2.1390   -1.6740 C   0  0  0  0  0  0  0  0  0  0  0  0
    0.7130    2.3100   -3.1650 C   0  0  0  0  0  0  0  0  0  0  0  0
    0.6600    1.2860   -3.8670 O   0  0  0  0  0  0  0  0  0  0  0  0
   -0.1990    1.1660    0.9760 C   0  0  0  0  0  0  0  0  0  0  0  0
   -0.3670    2.4000    0.9140 O   0  0  0  0  0  0  0  0  0  0  0  0
    0.7120    3.5490   -3.7530 O   0  0  0  0  0  0  0  0  0  0  0  0
    0.0460   -1.4530    0.2930 H   0  0  0  0  0  0  0  0  0  0  0  0
    1.8420    1.0070    0.4820 H   0  0  0  0  0  0  0  0  0  0  0  0
    1.6310    0.1390   -1.7480 H   0  0  0  0  0  0  0  0  0  0  0  0
   -0.1280    0.1560   -1.7210 H   0  0  0  0  0  0  0  0  0  0  0  0
    1.6670    2.6670   -1.2880 H   0  0  0  0  0  0  0  0  0  0  0  0
   -0.1130    2.6830   -1.2370 H   0  0  0  0  0  0  0  0  0  0  0  0
    1.1780    3.6990   -4.6450 H   0  0  0  0  0  0  0  0  0  0  0  0
   -3.6850   -0.8900    2.3510 C   0  0  0  0  0  0  0  0  0  0  0  0
   -3.5020    0.5950    2.1900 C   0  0  1  0  0  0  0  0  0  0  0  0
   -4.4960    1.2240    2.9380 O   0  0  0  0  0  0  0  0  0  0  0  0
   -2.1220    1.0550    2.6040 C   0  0  2  0  0  0  0  0  0  0  0  0
   -1.0820    0.4140    1.8390 N   0  0  0  0  0  0  0  0  0  0  0  0
   -1.9090    0.9080    4.0690 C   0  0  0  0  0  0  0  0  0  0  0  0
   -2.7070    1.3980    4.9090 O   0  0  0  0  0  0  0  0  0  0  0  0
   -0.8170    0.2220    4.5940 O   0  0  0  0  0  0  0  0  0  0  0  0
   -4.7540   -1.1520    2.5010 H   0  0  0  0  0  0  0  0  0  0  0  0
   -3.3690   -1.4320    1.4230 H   0  0  0  0  0  0  0  0  0  0  0  0
   -3.1410   -1.2990    3.2270 H   0  0  0  0  0  0  0  0  0  0  0  0
   -3.6720    0.8910    1.1350 H   0  0  0  0  0  0  0  0  0  0  0  0
   -5.2850    1.4540    2.3680 H   0  0  0  0  0  0  0  0  0  0  0  0
   -2.0760    2.1430    2.3840 H   0  0  0  0  0  0  0  0  0  0  0  0
   -0.9030   -0.6120    1.8610 H   0  0  0  0  0  0  0  0  0  0  0  0
  1  2  1  0  0  0  0
  2  3  1  0  0  0  0
  2 11  1  1  0  0  0
  2  4  1  0  0  0  0
  4 13  1  1  0  0  0
  5 14  1  0  0  0  0
  5  4  1  0  0  0  0
  5 15  1  0  0  0  0
  6  7  2  0  0  0  0
  6  4  1  0  0  0  0
  8  1  1  0  0  0  0
  9  1  1  0  0  0  0
 10  1  1  0  0  0  0
 12  3  1  0  0  0  0
 16  6  1  0  0  0  0
 17 26  1  1  0  0  0
 17 16  1  0  0  0  0
 17 22  1  0  0  0  0
 18 17  1  0  0  0  0
 19 18  1  0  0  0  0
 19 29  1  0  0  0  0
 19 30  1  0  0  0  0
 20 19  1  0  0  0  0
 21 20  2  0  0  0  0
 22 36  1  0  0  0  0
 23 22  2  0  0  0  0
 24 20  1  0  0  0  0
 25 16  1  0  0  0  0
 27 18  1  0  0  0  0
 28 18  1  0  0  0  0
 31 24  1  0  0  0  0
 32 40  1  0  0  0  0
 32 42  1  0  0  0  0
 33 43  1  6  0  0  0
 33 32  1  0  0  0  0
 33 35  1  0  0  0  0
 33 34  1  0  0  0  0
 35 45  1  6  0  0  0
 35 37  1  0  0  0  0
 36 46  1  0  0  0  0
 36 35  1  0  0  0  0
 37 39  2  0  0  0  0
 37 38  1  0  0  0  0
 41 32  1  0  0  0  0
 44 34  1  0  0  0  0
M  END
$$$$
