TEW.pdb
 OpenBabel07022419123D

 56 57  0  0  1  0  0  0  0  0999 V2000
    3.0020   -2.5310    3.7470 C   0  0  0  0  0  0  0  0  0  0  0  0
    4.0740   -2.2100    2.7120 C   0  0  1  0  0  0  0  0  0  0  0  0
    3.7620   -2.7450    1.4720 O   0  0  0  0  0  0  0  0  0  0  0  0
    4.3690   -0.7340    2.6760 C   0  0  2  0  0  0  0  0  0  0  0  0
    4.6730   -0.3550    4.0420 N   0  0  0  0  0  0  0  0  0  0  0  0
    3.2960    0.0910    2.1670 C   0  0  0  0  0  0  0  0  0  0  0  0
    2.7810    0.9590    2.9430 O   0  0  0  0  0  0  0  0  0  0  0  0
    2.2620   -3.2630    3.3620 H   0  0  0  0  0  0  0  0  0  0  0  0
    3.4320   -2.9680    4.6710 H   0  0  0  0  0  0  0  0  0  0  0  0
    2.5040   -1.5750    4.0870 H   0  0  0  0  0  0  0  0  0  0  0  0
    5.0020   -2.7130    3.0530 H   0  0  0  0  0  0  0  0  0  0  0  0
    4.5900   -2.9180    0.9810 H   0  0  0  0  0  0  0  0  0  0  0  0
    5.2900   -0.6120    2.0600 H   0  0  0  0  0  0  0  0  0  0  0  0
    3.8740    0.1220    4.5210 H   0  0  0  0  0  0  0  0  0  0  0  0
    5.0670   -1.1360    4.6060 H   0  0  0  0  0  0  0  0  0  0  0  0
    2.7390    0.0420    0.8710 N   0  0  0  0  0  0  0  0  0  0  0  0
    1.6350    0.9430    0.4700 C   0  0  1  0  0  0  0  0  0  0  0  0
    2.2580    1.8140   -0.6040 C   0  0  0  0  0  0  0  0  0  0  0  0
    1.3360    2.8280   -1.1970 C   0  0  0  0  0  0  0  0  0  0  0  0
    2.0630    3.6520   -2.2170 C   0  0  0  0  0  0  0  0  0  0  0  0
    3.2700    3.4120   -2.4380 O   0  0  0  0  0  0  0  0  0  0  0  0
    0.5440    0.0790   -0.0170 C   0  0  0  0  0  0  0  0  0  0  0  0
    0.7490   -1.1780   -0.1700 O   0  0  0  0  0  0  0  0  0  0  0  0
    1.4400    4.6690   -2.9210 O   0  0  0  0  0  0  0  0  0  0  0  0
    3.1090   -0.6340    0.1950 H   0  0  0  0  0  0  0  0  0  0  0  0
    1.3560    1.5860    1.3230 H   0  0  0  0  0  0  0  0  0  0  0  0
    3.1520    2.3470   -0.2150 H   0  0  0  0  0  0  0  0  0  0  0  0
    2.6750    1.1730   -1.4360 H   0  0  0  0  0  0  0  0  0  0  0  0
    0.8990    3.5250   -0.4710 H   0  0  0  0  0  0  0  0  0  0  0  0
    0.5490    2.2420   -1.7650 H   0  0  0  0  0  0  0  0  0  0  0  0
    1.9470    5.2340   -3.6050 H   0  0  0  0  0  0  0  0  0  0  0  0
   -0.7640    0.4980   -0.3470 N   0  0  0  0  0  0  0  0  0  0  0  0
   -1.8080   -0.3900   -0.8300 C   0  0  1  0  0  0  0  0  0  0  0  0
   -2.8480   -0.4680    0.2590 C   0  0  0  0  0  0  0  0  0  0  0  0
   -3.9890   -1.3170   -0.0400 C   0  0  0  0  0  0  0  0  0  0  0  0
   -5.2570   -0.9230   -0.3900 C   0  0  0  0  0  0  0  0  0  0  0  0
   -5.9730   -2.0300   -0.5680 N   0  0  0  0  0  0  0  0  0  0  0  0
   -5.2310   -3.1320   -0.3500 C   0  0  0  0  0  0  0  0  0  0  0  0
   -5.4860   -4.4870   -0.3990 C   0  0  0  0  0  0  0  0  0  0  0  0
   -4.5140   -5.4310   -0.1210 C   0  0  0  0  0  0  0  0  0  0  0  0
   -3.2520   -4.9830    0.2150 C   0  0  0  0  0  0  0  0  0  0  0  0
   -2.9850   -3.6330    0.2670 C   0  0  0  0  0  0  0  0  0  0  0  0
   -3.9810   -2.6920   -0.0170 C   0  0  0  0  0  0  0  0  0  0  0  0
   -2.3100   -0.0300   -2.1440 C   0  0  0  0  0  0  0  0  0  0  0  0
   -1.8580    0.9560   -2.7610 O   0  0  0  0  0  0  0  0  0  0  0  0
   -3.3020   -0.7770   -2.7380 O   0  0  0  0  0  0  0  0  0  0  0  0
   -1.0080    1.5010   -0.2270 H   0  0  0  0  0  0  0  0  0  0  0  0
   -1.3680   -1.4170   -0.8970 H   0  0  0  0  0  0  0  0  0  0  0  0
   -3.2060    0.5720    0.4460 H   0  0  0  0  0  0  0  0  0  0  0  0
   -2.3120   -0.7570    1.1910 H   0  0  0  0  0  0  0  0  0  0  0  0
   -5.6430    0.0940   -0.5110 H   0  0  0  0  0  0  0  0  0  0  0  0
   -6.9880   -2.0370   -0.8430 H   0  0  0  0  0  0  0  0  0  0  0  0
   -6.4900   -4.8090   -0.6670 H   0  0  0  0  0  0  0  0  0  0  0  0
   -4.7420   -6.5040   -0.1670 H   0  0  0  0  0  0  0  0  0  0  0  0
   -2.5050   -5.7300    0.4280 H   0  0  0  0  0  0  0  0  0  0  0  0
   -1.9870   -3.2890    0.5330 H   0  0  0  0  0  0  0  0  0  0  0  0
  1 10  1  0  0  0  0
  1  9  1  0  0  0  0
  2 11  1  1  0  0  0
  2  1  1  0  0  0  0
  3  2  1  0  0  0  0
  4 13  1  6  0  0  0
  4  2  1  0  0  0  0
  4  5  1  0  0  0  0
  5 14  1  0  0  0  0
  5 15  1  0  0  0  0
  6  4  1  0  0  0  0
  6  7  2  0  0  0  0
  8  1  1  0  0  0  0
 12  3  1  0  0  0  0
 16  6  1  0  0  0  0
 17 16  1  0  0  0  0
 17 26  1  1  0  0  0
 18 27  1  0  0  0  0
 18 17  1  0  0  0  0
 19 18  1  0  0  0  0
 19 29  1  0  0  0  0
 20 19  1  0  0  0  0
 21 20  2  0  0  0  0
 22 17  1  0  0  0  0
 23 22  2  0  0  0  0
 24 20  1  0  0  0  0
 25 16  1  0  0  0  0
 28 18  1  0  0  0  0
 30 19  1  0  0  0  0
 31 24  1  0  0  0  0
 32 47  1  0  0  0  0
 32 22  1  0  0  0  0
 33 48  1  6  0  0  0
 33 32  1  0  0  0  0
 33 34  1  0  0  0  0
 34 49  1  0  0  0  0
 34 50  1  0  0  0  0
 35 43  1  0  0  0  0
 35 34  1  0  0  0  0
 36 35  2  0  0  0  0
 37 36  1  0  0  0  0
 37 38  1  0  0  0  0
 38 43  1  0  0  0  0
 39 38  2  0  0  0  0
 39 40  1  0  0  0  0
 40 41  2  0  0  0  0
 41 42  1  0  0  0  0
 41 55  1  0  0  0  0
 42 56  1  0  0  0  0
 43 42  2  0  0  0  0
 44 33  1  0  0  0  0
 45 44  2  0  0  0  0
 46 44  1  0  0  0  0
 51 36  1  0  0  0  0
 52 37  1  0  0  0  0
 53 39  1  0  0  0  0
 54 40  1  0  0  0  0
M  END
$$$$
