TFC.pdb
 OpenBabel07022419133D

 47 47  0  0  1  0  0  0  0  0999 V2000
    1.2320   -5.4850    1.3500 C   0  0  0  0  0  0  0  0  0  0  0  0
    1.4240   -4.9120   -0.0400 C   0  0  1  0  0  0  0  0  0  0  0  0
    1.1600   -5.9600   -0.9390 O   0  0  0  0  0  0  0  0  0  0  0  0
    0.3360   -3.8850   -0.2510 C   0  0  2  0  0  0  0  0  0  0  0  0
    0.3280   -3.3800   -1.6070 N   0  0  0  0  0  0  0  0  0  0  0  0
    0.4560   -2.7300    0.6630 C   0  0  0  0  0  0  0  0  0  0  0  0
    0.4900   -2.8470    1.9150 O   0  0  0  0  0  0  0  0  0  0  0  0
    0.1240   -5.5070    1.5320 H   0  0  0  0  0  0  0  0  0  0  0  0
    1.5760   -6.5340    1.3290 H   0  0  0  0  0  0  0  0  0  0  0  0
    1.7480   -4.8800    2.1220 H   0  0  0  0  0  0  0  0  0  0  0  0
    2.4350   -4.4960   -0.1930 H   0  0  0  0  0  0  0  0  0  0  0  0
    0.3070   -5.8600   -1.4000 H   0  0  0  0  0  0  0  0  0  0  0  0
   -0.6250   -4.4030   -0.0740 H   0  0  0  0  0  0  0  0  0  0  0  0
    1.2220   -3.6260   -2.1080 H   0  0  0  0  0  0  0  0  0  0  0  0
   -0.4900   -3.7580   -2.1670 H   0  0  0  0  0  0  0  0  0  0  0  0
    0.5440   -1.3870    0.2300 N   0  0  0  0  0  0  0  0  0  0  0  0
    0.6620   -0.2400    1.0830 C   0  0  1  0  0  0  0  0  0  0  0  0
    1.8170    0.6170    0.9170 C   0  0  0  0  0  0  0  0  0  0  0  0
    1.8670    1.7800    1.8320 C   0  0  0  0  0  0  0  0  0  0  0  0
    1.3930    3.0320    1.4940 C   0  0  0  0  0  0  0  0  0  0  0  0
    1.4420    4.0990    2.3620 C   0  0  0  0  0  0  0  0  0  0  0  0
    1.9770    3.9610    3.6270 C   0  0  0  0  0  0  0  0  0  0  0  0
    2.4570    2.7300    3.9930 C   0  0  0  0  0  0  0  0  0  0  0  0
    2.4030    1.6700    3.1190 C   0  0  0  0  0  0  0  0  0  0  0  0
   -0.6120    0.5040    0.9710 C   0  0  0  0  0  0  0  0  0  0  0  0
   -0.8570    1.5320    1.6420 O   0  0  0  0  0  0  0  0  0  0  0  0
    0.5220   -1.2110   -0.8020 H   0  0  0  0  0  0  0  0  0  0  0  0
    0.6670   -0.6520    2.1390 H   0  0  0  0  0  0  0  0  0  0  0  0
    1.8160    1.0820   -0.1200 H   0  0  0  0  0  0  0  0  0  0  0  0
    2.8180    0.1510    0.9760 H   0  0  0  0  0  0  0  0  0  0  0  0
    0.9640    3.2090    0.5120 H   0  0  0  0  0  0  0  0  0  0  0  0
    1.0650    5.0730    2.0770 H   0  0  0  0  0  0  0  0  0  0  0  0
    2.0170    4.8110    4.3180 H   0  0  0  0  0  0  0  0  0  0  0  0
    2.8780    2.6360    4.9980 H   0  0  0  0  0  0  0  0  0  0  0  0
    2.7980    0.7240    3.4660 H   0  0  0  0  0  0  0  0  0  0  0  0
   -1.6650    0.0970    0.0790 N   0  0  0  0  0  0  0  0  0  0  0  0
   -2.9120    0.8320   -0.0250 C   0  0  1  0  0  0  0  0  0  0  0  0
   -2.9780    1.3990   -1.4220 C   0  0  0  0  0  0  0  0  0  0  0  0
   -1.5150    2.4910   -1.6050 S   0  0  0  0  0  0  0  0  0  0  0  0
   -4.0580   -0.0070    0.3260 C   0  0  0  0  0  0  0  0  0  0  0  0
   -5.2170    0.4540    0.2960 O   0  0  0  0  0  0  0  0  0  0  0  0
   -3.9240   -1.3450    0.7090 O   0  0  0  0  0  0  0  0  0  0  0  0
   -1.4690   -0.7670   -0.4890 H   0  0  0  0  0  0  0  0  0  0  0  0
   -2.8420    1.6880    0.6830 H   0  0  0  0  0  0  0  0  0  0  0  0
   -3.9060    1.9710   -1.5180 H   0  0  0  0  0  0  0  0  0  0  0  0
   -2.9050    0.6220   -2.1980 H   0  0  0  0  0  0  0  0  0  0  0  0
   -1.6270    3.5920   -0.7100 H   0  0  0  0  0  0  0  0  0  0  0  0
  1  8  1  0  0  0  0
  1 10  1  0  0  0  0
  2 11  1  6  0  0  0
  2  1  1  0  0  0  0
  3  2  1  0  0  0  0
  4 13  1  1  0  0  0
  4  2  1  0  0  0  0
  4  6  1  0  0  0  0
  5  4  1  0  0  0  0
  6  7  2  0  0  0  0
  9  1  1  0  0  0  0
 12  3  1  0  0  0  0
 14  5  1  0  0  0  0
 15  5  1  0  0  0  0
 16  6  1  0  0  0  0
 16 17  1  0  0  0  0
 17 28  1  1  0  0  0
 18 30  1  0  0  0  0
 18 17  1  0  0  0  0
 18 19  1  0  0  0  0
 19 24  1  0  0  0  0
 20 19  2  0  0  0  0
 20 21  1  0  0  0  0
 21 22  2  0  0  0  0
 22 23  1  0  0  0  0
 22 33  1  0  0  0  0
 23 34  1  0  0  0  0
 24 35  1  0  0  0  0
 24 23  2  0  0  0  0
 25 17  1  0  0  0  0
 25 26  2  0  0  0  0
 27 16  1  0  0  0  0
 29 18  1  0  0  0  0
 31 20  1  0  0  0  0
 32 21  1  0  0  0  0
 36 25  1  0  0  0  0
 37 36  1  0  0  0  0
 37 40  1  0  0  0  0
 37 44  1  1  0  0  0
 38 37  1  0  0  0  0
 39 38  1  0  0  0  0
 39 47  1  0  0  0  0
 40 42  1  0  0  0  0
 41 40  2  0  0  0  0
 43 36  1  0  0  0  0
 45 38  1  0  0  0  0
 46 38  1  0  0  0  0
M  END
$$$$
