TFE.pdb
 OpenBabel07022419133D

 52 52  0  0  1  0  0  0  0  0999 V2000
    0.5340   -4.2400    2.3000 C   0  0  0  0  0  0  0  0  0  0  0  0
    1.7040   -3.8600    1.4160 C   0  0  1  0  0  0  0  0  0  0  0  0
    1.3080   -3.5220    0.1390 O   0  0  0  0  0  0  0  0  0  0  0  0
    2.5390   -2.7790    2.0110 C   0  0  2  0  0  0  0  0  0  0  0  0
    2.9590   -3.1440    3.3490 N   0  0  0  0  0  0  0  0  0  0  0  0
    1.9360   -1.4510    2.0460 C   0  0  0  0  0  0  0  0  0  0  0  0
    1.8800   -0.8360    3.1550 O   0  0  0  0  0  0  0  0  0  0  0  0
   -0.3870   -4.2720    1.7190 H   0  0  0  0  0  0  0  0  0  0  0  0
    0.4750   -3.5180    3.1610 H   0  0  0  0  0  0  0  0  0  0  0  0
    0.7080   -5.2330    2.7590 H   0  0  0  0  0  0  0  0  0  0  0  0
    2.3730   -4.7630    1.3170 H   0  0  0  0  0  0  0  0  0  0  0  0
    2.0180   -3.7700   -0.4950 H   0  0  0  0  0  0  0  0  0  0  0  0
    3.4580   -2.6950    1.3610 H   0  0  0  0  0  0  0  0  0  0  0  0
    3.1480   -4.1520    3.4620 H   0  0  0  0  0  0  0  0  0  0  0  0
    3.7310   -2.5340    3.7040 H   0  0  0  0  0  0  0  0  0  0  0  0
    1.3870   -0.7420    0.9550 N   0  0  0  0  0  0  0  0  0  0  0  0
    0.8030    0.5810    1.0490 C   0  0  1  0  0  0  0  0  0  0  0  0
    1.6000    1.5970    0.3030 C   0  0  0  0  0  0  0  0  0  0  0  0
    1.0000    2.9430    0.4030 C   0  0  0  0  0  0  0  0  0  0  0  0
    1.3140    3.7950    1.4510 C   0  0  0  0  0  0  0  0  0  0  0  0
    0.8100    5.0530    1.5970 C   0  0  0  0  0  0  0  0  0  0  0  0
   -0.0740    5.5200    0.6440 C   0  0  0  0  0  0  0  0  0  0  0  0
   -0.4150    4.6910   -0.4240 C   0  0  0  0  0  0  0  0  0  0  0  0
    0.1140    3.4240   -0.5420 C   0  0  0  0  0  0  0  0  0  0  0  0
   -0.6160    0.4850    0.6770 C   0  0  0  0  0  0  0  0  0  0  0  0
   -1.3250    1.5130    0.7400 O   0  0  0  0  0  0  0  0  0  0  0  0
    1.3990   -1.1910    0.0200 H   0  0  0  0  0  0  0  0  0  0  0  0
    0.8910    0.8580    2.1390 H   0  0  0  0  0  0  0  0  0  0  0  0
    2.5940    1.6610    0.8060 H   0  0  0  0  0  0  0  0  0  0  0  0
    1.7010    1.3730   -0.7790 H   0  0  0  0  0  0  0  0  0  0  0  0
    2.0050    3.4450    2.2070 H   0  0  0  0  0  0  0  0  0  0  0  0
    1.0660    5.7140    2.4270 H   0  0  0  0  0  0  0  0  0  0  0  0
   -0.4960    6.5280    0.7360 H   0  0  0  0  0  0  0  0  0  0  0  0
   -1.1090    5.0940   -1.1480 H   0  0  0  0  0  0  0  0  0  0  0  0
   -0.1910    2.8220   -1.4020 H   0  0  0  0  0  0  0  0  0  0  0  0
   -1.1980   -0.7100    0.2580 N   0  0  0  0  0  0  0  0  0  0  0  0
   -2.5750   -0.9030   -0.1260 C   0  0  1  0  0  0  0  0  0  0  0  0
   -2.7800   -1.1610   -1.5610 C   0  0  0  0  0  0  0  0  0  0  0  0
   -2.0460   -2.3270   -2.1190 C   0  0  0  0  0  0  0  0  0  0  0  0
   -2.3200   -3.6610   -1.6030 C   0  0  0  0  0  0  0  0  0  0  0  0
   -3.1340   -4.0080   -0.7570 O   0  0  0  0  0  0  0  0  0  0  0  0
   -3.3860   -1.7290    0.7600 C   0  0  0  0  0  0  0  0  0  0  0  0
   -4.6270   -1.8160    0.5110 O   0  0  0  0  0  0  0  0  0  0  0  0
   -1.5390   -4.7260   -2.1510 O   0  0  0  0  0  0  0  0  0  0  0  0
   -2.9150   -2.4300    1.8570 O   0  0  0  0  0  0  0  0  0  0  0  0
   -0.5960   -1.5670    0.2070 H   0  0  0  0  0  0  0  0  0  0  0  0
   -3.0190    0.1690    0.0470 H   0  0  0  0  0  0  0  0  0  0  0  0
   -2.6800   -0.2470   -2.2010 H   0  0  0  0  0  0  0  0  0  0  0  0
   -3.8870   -1.4110   -1.6890 H   0  0  0  0  0  0  0  0  0  0  0  0
   -2.1990   -2.3990   -3.2420 H   0  0  0  0  0  0  0  0  0  0  0  0
   -0.9170   -2.1870   -1.9480 H   0  0  0  0  0  0  0  0  0  0  0  0
   -1.9110   -5.6740   -2.1020 H   0  0  0  0  0  0  0  0  0  0  0  0
  1 10  1  0  0  0  0
  1  9  1  0  0  0  0
  2 11  1  6  0  0  0
  2  4  1  0  0  0  0
  2  1  1  0  0  0  0
  3  2  1  0  0  0  0
  4 13  1  6  0  0  0
  4  6  1  0  0  0  0
  4  5  1  0  0  0  0
  5 14  1  0  0  0  0
  5 15  1  0  0  0  0
  6  7  2  0  0  0  0
  8  1  1  0  0  0  0
 12  3  1  0  0  0  0
 16 17  1  0  0  0  0
 16  6  1  0  0  0  0
 17 28  1  1  0  0  0
 18 19  1  0  0  0  0
 18 29  1  0  0  0  0
 18 17  1  0  0  0  0
 19 20  1  0  0  0  0
 20 21  2  0  0  0  0
 20 31  1  0  0  0  0
 21 32  1  0  0  0  0
 22 33  1  0  0  0  0
 22 21  1  0  0  0  0
 23 22  2  0  0  0  0
 24 23  1  0  0  0  0
 24 19  2  0  0  0  0
 25 26  2  0  0  0  0
 25 17  1  0  0  0  0
 27 16  1  0  0  0  0
 30 18  1  0  0  0  0
 34 23  1  0  0  0  0
 35 24  1  0  0  0  0
 36 25  1  0  0  0  0
 37 47  1  1  0  0  0
 37 36  1  0  0  0  0
 37 42  1  0  0  0  0
 38 37  1  0  0  0  0
 39 51  1  0  0  0  0
 39 40  1  0  0  0  0
 39 38  1  0  0  0  0
 40 41  2  0  0  0  0
 42 45  1  0  0  0  0
 43 42  2  0  0  0  0
 44 52  1  0  0  0  0
 44 40  1  0  0  0  0
 46 36  1  0  0  0  0
 48 38  1  0  0  0  0
 49 38  1  0  0  0  0
 50 39  1  0  0  0  0
M  END
$$$$
