TFF.pdb
 OpenBabel07022419133D

 56 57  0  0  1  0  0  0  0  0999 V2000
   -0.9610    1.1340    4.7060 C   0  0  0  0  0  0  0  0  0  0  0  0
   -0.9400   -0.3630    4.7580 C   0  0  1  0  0  0  0  0  0  0  0  0
   -2.2440   -0.7920    4.4810 O   0  0  0  0  0  0  0  0  0  0  0  0
    0.0620   -0.9960    3.8420 C   0  0  2  0  0  0  0  0  0  0  0  0
    1.4180   -0.5660    4.1150 N   0  0  0  0  0  0  0  0  0  0  0  0
   -0.2160   -0.8460    2.4180 C   0  0  0  0  0  0  0  0  0  0  0  0
   -1.3580   -1.1090    1.9720 O   0  0  0  0  0  0  0  0  0  0  0  0
    0.0190    1.6110    4.9110 H   0  0  0  0  0  0  0  0  0  0  0  0
   -1.4720    1.5290    3.8030 H   0  0  0  0  0  0  0  0  0  0  0  0
   -1.6180    1.4680    5.5640 H   0  0  0  0  0  0  0  0  0  0  0  0
   -0.7010   -0.6640    5.7980 H   0  0  0  0  0  0  0  0  0  0  0  0
   -2.8890   -0.2830    5.0150 H   0  0  0  0  0  0  0  0  0  0  0  0
    0.0550   -2.0950    4.1170 H   0  0  0  0  0  0  0  0  0  0  0  0
    2.0460   -1.2200    3.5880 H   0  0  0  0  0  0  0  0  0  0  0  0
    1.5700    0.3750    3.7380 H   0  0  0  0  0  0  0  0  0  0  0  0
    0.7640   -0.4100    1.4900 N   0  0  0  0  0  0  0  0  0  0  0  0
    0.4340   -0.2790    0.0900 C   0  0  1  0  0  0  0  0  0  0  0  0
    0.7390    1.0870   -0.4260 C   0  0  0  0  0  0  0  0  0  0  0  0
   -0.0510    2.0840    0.3390 C   0  0  0  0  0  0  0  0  0  0  0  0
   -1.3180    2.4740   -0.0470 C   0  0  0  0  0  0  0  0  0  0  0  0
   -2.0150    3.4150    0.7020 C   0  0  0  0  0  0  0  0  0  0  0  0
   -1.4810    3.9900    1.8420 C   0  0  0  0  0  0  0  0  0  0  0  0
   -0.2210    3.6010    2.2250 C   0  0  0  0  0  0  0  0  0  0  0  0
    0.4730    2.6690    1.4850 C   0  0  0  0  0  0  0  0  0  0  0  0
    1.1270   -1.3450   -0.7170 C   0  0  0  0  0  0  0  0  0  0  0  0
    1.8850   -2.1950   -0.2180 O   0  0  0  0  0  0  0  0  0  0  0  0
    1.7480   -0.1710    1.7780 H   0  0  0  0  0  0  0  0  0  0  0  0
   -0.6540   -0.4820   -0.0840 H   0  0  0  0  0  0  0  0  0  0  0  0
    0.4110    1.1280   -1.4910 H   0  0  0  0  0  0  0  0  0  0  0  0
    1.8210    1.3190   -0.4280 H   0  0  0  0  0  0  0  0  0  0  0  0
   -1.7700    2.0410   -0.9420 H   0  0  0  0  0  0  0  0  0  0  0  0
   -3.0180    3.7170    0.3880 H   0  0  0  0  0  0  0  0  0  0  0  0
   -2.0590    4.7290    2.4070 H   0  0  0  0  0  0  0  0  0  0  0  0
    0.2330    4.0270    3.1110 H   0  0  0  0  0  0  0  0  0  0  0  0
    1.4770    2.3460    1.7740 H   0  0  0  0  0  0  0  0  0  0  0  0
    0.9050   -1.3850   -2.1230 N   0  0  0  0  0  0  0  0  0  0  0  0
    1.5530   -2.4000   -2.9480 C   0  0  1  0  0  0  0  0  0  0  0  0
    0.4590   -3.2060   -3.6200 C   0  0  0  0  0  0  0  0  0  0  0  0
   -0.4210   -3.8600   -2.6230 C   0  0  0  0  0  0  0  0  0  0  0  0
   -0.1400   -5.1230   -2.1600 C   0  0  0  0  0  0  0  0  0  0  0  0
   -0.9940   -5.6770   -1.2290 C   0  0  0  0  0  0  0  0  0  0  0  0
   -2.1110   -4.9830   -0.7670 C   0  0  0  0  0  0  0  0  0  0  0  0
   -2.3470   -3.7190   -1.2640 C   0  0  0  0  0  0  0  0  0  0  0  0
   -1.5250   -3.1260   -2.1920 C   0  0  0  0  0  0  0  0  0  0  0  0
    2.3870   -1.7220   -3.9590 C   0  0  0  0  0  0  0  0  0  0  0  0
    2.4400   -0.4810   -3.9890 O   0  0  0  0  0  0  0  0  0  0  0  0
    3.1330   -2.4330   -4.9030 O   0  0  0  0  0  0  0  0  0  0  0  0
    0.2710   -0.6730   -2.5530 H   0  0  0  0  0  0  0  0  0  0  0  0
    2.1940   -3.0180   -2.3120 H   0  0  0  0  0  0  0  0  0  0  0  0
    0.9250   -3.9670   -4.2800 H   0  0  0  0  0  0  0  0  0  0  0  0
   -0.1770   -2.5760   -4.2660 H   0  0  0  0  0  0  0  0  0  0  0  0
    0.7370   -5.6830   -2.5150 H   0  0  0  0  0  0  0  0  0  0  0  0
   -0.7770   -6.6810   -0.8550 H   0  0  0  0  0  0  0  0  0  0  0  0
   -2.7770   -5.4340   -0.0290 H   0  0  0  0  0  0  0  0  0  0  0  0
   -3.2110   -3.1510   -0.9220 H   0  0  0  0  0  0  0  0  0  0  0  0
   -1.7170   -2.1180   -2.5860 H   0  0  0  0  0  0  0  0  0  0  0  0
  1  2  1  0  0  0  0
  1  8  1  0  0  0  0
  1 10  1  0  0  0  0
  2 11  1  1  0  0  0
  3  2  1  0  0  0  0
  3 12  1  0  0  0  0
  4  5  1  0  0  0  0
  4 13  1  1  0  0  0
  4  2  1  0  0  0  0
  6  4  1  0  0  0  0
  7  6  2  0  0  0  0
  9  1  1  0  0  0  0
 14  5  1  0  0  0  0
 15  5  1  0  0  0  0
 16 27  1  0  0  0  0
 16  6  1  0  0  0  0
 17 28  1  6  0  0  0
 17 16  1  0  0  0  0
 18 17  1  0  0  0  0
 18 19  1  0  0  0  0
 19 24  1  0  0  0  0
 20 19  2  0  0  0  0
 20 21  1  0  0  0  0
 21 22  2  0  0  0  0
 22 23  1  0  0  0  0
 22 33  1  0  0  0  0
 23 34  1  0  0  0  0
 24 35  1  0  0  0  0
 24 23  2  0  0  0  0
 25 26  2  0  0  0  0
 25 17  1  0  0  0  0
 29 18  1  0  0  0  0
 30 18  1  0  0  0  0
 31 20  1  0  0  0  0
 32 21  1  0  0  0  0
 36 25  1  0  0  0  0
 37 49  1  1  0  0  0
 37 36  1  0  0  0  0
 38 37  1  0  0  0  0
 38 39  1  0  0  0  0
 39 44  2  0  0  0  0
 39 40  1  0  0  0  0
 40 41  2  0  0  0  0
 41 53  1  0  0  0  0
 41 42  1  0  0  0  0
 42 54  1  0  0  0  0
 43 55  1  0  0  0  0
 43 42  2  0  0  0  0
 44 43  1  0  0  0  0
 45 37  1  0  0  0  0
 46 45  1  0  0  0  0
 47 45  2  0  0  0  0
 48 36  1  0  0  0  0
 50 38  1  0  0  0  0
 51 38  1  0  0  0  0
 52 40  1  0  0  0  0
 56 44  1  0  0  0  0
M  END
$$$$
