TFH.pdb
 OpenBabel07022419133D

 53 54  0  0  1  0  0  0  0  0999 V2000
   -0.1250   -0.1010    4.7330 C   0  0  0  0  0  0  0  0  0  0  0  0
    1.3300   -0.4750    4.7330 C   0  0  1  0  0  0  0  0  0  0  0  0
    1.5490   -1.0820    6.0010 O   0  0  0  0  0  0  0  0  0  0  0  0
    1.7010   -1.5490    3.7360 C   0  0  2  0  0  0  0  0  0  0  0  0
    3.1010   -1.9400    3.9450 N   0  0  0  0  0  0  0  0  0  0  0  0
    1.4910   -1.1520    2.3250 C   0  0  0  0  0  0  0  0  0  0  0  0
    2.5110   -0.9320    1.6220 O   0  0  0  0  0  0  0  0  0  0  0  0
   -0.7320   -1.0300    4.7240 H   0  0  0  0  0  0  0  0  0  0  0  0
   -0.4480    0.5410    3.9130 H   0  0  0  0  0  0  0  0  0  0  0  0
   -0.3380    0.4540    5.6880 H   0  0  0  0  0  0  0  0  0  0  0  0
    1.9910    0.3960    4.6980 H   0  0  0  0  0  0  0  0  0  0  0  0
    1.4650   -2.0580    5.9500 H   0  0  0  0  0  0  0  0  0  0  0  0
    1.0840   -2.4320    3.9420 H   0  0  0  0  0  0  0  0  0  0  0  0
    3.1160   -2.6050    4.7550 H   0  0  0  0  0  0  0  0  0  0  0  0
    3.5080   -2.3600    3.0920 H   0  0  0  0  0  0  0  0  0  0  0  0
    0.2190   -1.0070    1.7230 N   0  0  0  0  0  0  0  0  0  0  0  0
   -0.0290   -0.6160    0.3760 C   0  0  1  0  0  0  0  0  0  0  0  0
    0.6890    0.6540   -0.0690 C   0  0  0  0  0  0  0  0  0  0  0  0
    0.3070    1.8400    0.7150 C   0  0  0  0  0  0  0  0  0  0  0  0
   -0.8040    2.6310    0.3980 C   0  0  0  0  0  0  0  0  0  0  0  0
   -1.1110    3.7420    1.1580 C   0  0  0  0  0  0  0  0  0  0  0  0
   -0.3360    4.1010    2.2450 C   0  0  0  0  0  0  0  0  0  0  0  0
    0.7570    3.3330    2.5660 C   0  0  0  0  0  0  0  0  0  0  0  0
    1.0460    2.2230    1.7890 C   0  0  0  0  0  0  0  0  0  0  0  0
    0.0790   -1.7140   -0.6040 C   0  0  0  0  0  0  0  0  0  0  0  0
    0.3880   -2.9020   -0.2350 O   0  0  0  0  0  0  0  0  0  0  0  0
   -0.5860   -1.2410    2.3870 H   0  0  0  0  0  0  0  0  0  0  0  0
   -1.1220   -0.2700    0.3780 H   0  0  0  0  0  0  0  0  0  0  0  0
    0.3740    0.8020   -1.1370 H   0  0  0  0  0  0  0  0  0  0  0  0
    1.7710    0.5320   -0.0110 H   0  0  0  0  0  0  0  0  0  0  0  0
   -1.4140    2.3640   -0.4420 H   0  0  0  0  0  0  0  0  0  0  0  0
   -1.9640    4.3870    0.9510 H   0  0  0  0  0  0  0  0  0  0  0  0
   -0.5780    4.9720    2.8400 H   0  0  0  0  0  0  0  0  0  0  0  0
    1.3460    3.6200    3.4050 H   0  0  0  0  0  0  0  0  0  0  0  0
    1.9130    1.6650    2.0770 H   0  0  0  0  0  0  0  0  0  0  0  0
   -0.1430   -1.5600   -1.9980 N   0  0  0  0  0  0  0  0  0  0  0  0
   -0.0180   -2.6880   -2.9080 C   0  0  1  0  0  0  0  0  0  0  0  0
   -1.1380   -2.7210   -3.8650 C   0  0  0  0  0  0  0  0  0  0  0  0
   -2.4890   -2.8650   -3.3240 C   0  0  0  0  0  0  0  0  0  0  0  0
   -2.9340   -3.0150   -2.0330 C   0  0  0  0  0  0  0  0  0  0  0  0
   -4.2840   -3.1180   -2.1140 N   0  0  0  0  0  0  0  0  0  0  0  0
   -4.6530   -3.0370   -3.3930 C   0  0  0  0  0  0  0  0  0  0  0  0
   -3.5730   -2.8810   -4.1510 N   0  0  0  0  0  0  0  0  0  0  0  0
    1.3140   -2.6260   -3.6080 C   0  0  0  0  0  0  0  0  0  0  0  0
    1.5760   -3.5380   -4.4340 O   0  0  0  0  0  0  0  0  0  0  0  0
    2.2340   -1.6380   -3.3880 O   0  0  0  0  0  0  0  0  0  0  0  0
   -0.4050   -0.5970   -2.3730 H   0  0  0  0  0  0  0  0  0  0  0  0
    0.0370   -3.6230   -2.3130 H   0  0  0  0  0  0  0  0  0  0  0  0
   -1.1650   -1.7880   -4.5110 H   0  0  0  0  0  0  0  0  0  0  0  0
   -0.9140   -3.5260   -4.6320 H   0  0  0  0  0  0  0  0  0  0  0  0
   -2.3290   -3.0500   -1.1380 H   0  0  0  0  0  0  0  0  0  0  0  0
   -4.8680   -3.2420   -1.2490 H   0  0  0  0  0  0  0  0  0  0  0  0
   -5.6840   -3.0900   -3.7500 H   0  0  0  0  0  0  0  0  0  0  0  0
  1  2  1  0  0  0  0
  1 10  1  0  0  0  0
  2 11  1  6  0  0  0
  2  3  1  0  0  0  0
  4 13  1  1  0  0  0
  4  5  1  0  0  0  0
  4  2  1  0  0  0  0
  5 14  1  0  0  0  0
  6  4  1  0  0  0  0
  7  6  2  0  0  0  0
  8  1  1  0  0  0  0
  9  1  1  0  0  0  0
 12  3  1  0  0  0  0
 15  5  1  0  0  0  0
 16  6  1  0  0  0  0
 16 27  1  0  0  0  0
 17 28  1  6  0  0  0
 17 16  1  0  0  0  0
 18 30  1  0  0  0  0
 18 17  1  0  0  0  0
 18 19  1  0  0  0  0
 19 24  1  0  0  0  0
 20 19  2  0  0  0  0
 20 21  1  0  0  0  0
 21 22  2  0  0  0  0
 22 23  1  0  0  0  0
 22 33  1  0  0  0  0
 23 34  1  0  0  0  0
 24 35  1  0  0  0  0
 24 23  2  0  0  0  0
 25 26  2  0  0  0  0
 25 17  1  0  0  0  0
 29 18  1  0  0  0  0
 31 20  1  0  0  0  0
 32 21  1  0  0  0  0
 36 25  1  0  0  0  0
 37 48  1  1  0  0  0
 37 36  1  0  0  0  0
 38 39  1  0  0  0  0
 38 37  1  0  0  0  0
 39 40  2  0  0  0  0
 40 51  1  0  0  0  0
 41 40  1  0  0  0  0
 41 52  1  0  0  0  0
 42 41  1  0  0  0  0
 43 42  2  0  0  0  0
 43 39  1  0  0  0  0
 44 46  1  0  0  0  0
 44 37  1  0  0  0  0
 45 44  2  0  0  0  0
 47 36  1  0  0  0  0
 49 38  1  0  0  0  0
 50 38  1  0  0  0  0
 53 42  1  0  0  0  0
M  END
$$$$
