TFI.pdb
 OpenBabel07022419133D

 55 55  0  0  1  0  0  0  0  0999 V2000
    4.7100   -2.3910    2.9910 C   0  0  0  0  0  0  0  0  0  0  0  0
    3.3650   -1.9610    2.4870 C   0  0  1  0  0  0  0  0  0  0  0  0
    2.3910   -2.6840    3.1680 O   0  0  0  0  0  0  0  0  0  0  0  0
    3.1670   -0.4560    2.7000 C   0  0  2  0  0  0  0  0  0  0  0  0
    3.2520   -0.1180    4.0890 N   0  0  0  0  0  0  0  0  0  0  0  0
    1.8460   -0.1280    2.1180 C   0  0  0  0  0  0  0  0  0  0  0  0
    0.9780    0.3880    2.8600 O   0  0  0  0  0  0  0  0  0  0  0  0
    5.2900   -1.4840    3.2420 H   0  0  0  0  0  0  0  0  0  0  0  0
    4.6390   -3.0390    3.8870 H   0  0  0  0  0  0  0  0  0  0  0  0
    5.2230   -2.9330    2.1700 H   0  0  0  0  0  0  0  0  0  0  0  0
    3.2200   -2.1430    1.4070 H   0  0  0  0  0  0  0  0  0  0  0  0
    1.6950   -2.0950    3.5550 H   0  0  0  0  0  0  0  0  0  0  0  0
    4.0030    0.0440    2.1690 H   0  0  0  0  0  0  0  0  0  0  0  0
    2.4990    0.5490    4.3880 H   0  0  0  0  0  0  0  0  0  0  0  0
    4.1950    0.2850    4.3440 H   0  0  0  0  0  0  0  0  0  0  0  0
    1.5160   -0.3690    0.7580 N   0  0  0  0  0  0  0  0  0  0  0  0
    0.2250   -0.0490    0.1810 C   0  0  1  0  0  0  0  0  0  0  0  0
    0.3420    1.0500   -0.8560 C   0  0  0  0  0  0  0  0  0  0  0  0
    0.8900    2.2830   -0.2330 C   0  0  0  0  0  0  0  0  0  0  0  0
    2.2520    2.5280   -0.1840 C   0  0  0  0  0  0  0  0  0  0  0  0
    2.7710    3.6680    0.3920 C   0  0  0  0  0  0  0  0  0  0  0  0
    1.9260    4.6110    0.9450 C   0  0  0  0  0  0  0  0  0  0  0  0
    0.5600    4.3870    0.9070 C   0  0  0  0  0  0  0  0  0  0  0  0
    0.0540    3.2430    0.3280 C   0  0  0  0  0  0  0  0  0  0  0  0
   -0.3590   -1.2770   -0.3540 C   0  0  0  0  0  0  0  0  0  0  0  0
    0.2560   -2.3970   -0.2720 O   0  0  0  0  0  0  0  0  0  0  0  0
    2.2890   -0.8060    0.1790 H   0  0  0  0  0  0  0  0  0  0  0  0
   -0.3810    0.3960    1.0200 H   0  0  0  0  0  0  0  0  0  0  0  0
   -0.6580    1.3190   -1.2540 H   0  0  0  0  0  0  0  0  0  0  0  0
    0.9460    0.7240   -1.7350 H   0  0  0  0  0  0  0  0  0  0  0  0
    2.9010    1.7690   -0.6260 H   0  0  0  0  0  0  0  0  0  0  0  0
    3.8400    3.8250    0.4120 H   0  0  0  0  0  0  0  0  0  0  0  0
    2.3680    5.4960    1.3900 H   0  0  0  0  0  0  0  0  0  0  0  0
   -0.0670    5.1550    1.3530 H   0  0  0  0  0  0  0  0  0  0  0  0
   -1.0230    3.0910    0.3110 H   0  0  0  0  0  0  0  0  0  0  0  0
   -5.1820   -4.4370   -0.0610 C   0  0  0  0  0  0  0  0  0  0  0  0
   -4.0900   -4.1700   -1.0870 C   0  0  0  0  0  0  0  0  0  0  0  0
   -3.3980   -2.9110   -0.6870 C   0  0  2  0  0  0  0  0  0  0  0  0
   -4.3860   -1.7740   -0.6660 C   0  0  0  0  0  0  0  0  0  0  0  0
   -2.1700   -2.6020   -1.5160 C   0  0  2  0  0  0  0  0  0  0  0  0
   -1.6260   -1.3600   -0.9990 N   0  0  0  0  0  0  0  0  0  0  0  0
   -2.4610   -2.4420   -2.9500 C   0  0  0  0  0  0  0  0  0  0  0  0
   -2.9390   -3.4170   -3.5820 O   0  0  0  0  0  0  0  0  0  0  0  0
   -2.2270   -1.2570   -3.6310 O   0  0  0  0  0  0  0  0  0  0  0  0
   -6.1760   -4.5220   -0.5180 H   0  0  0  0  0  0  0  0  0  0  0  0
   -5.2390   -3.6350    0.7030 H   0  0  0  0  0  0  0  0  0  0  0  0
   -4.9820   -5.3780    0.5020 H   0  0  0  0  0  0  0  0  0  0  0  0
   -4.6210   -3.9730   -2.0600 H   0  0  0  0  0  0  0  0  0  0  0  0
   -3.4390   -5.0390   -1.1840 H   0  0  0  0  0  0  0  0  0  0  0  0
   -3.0330   -3.0410    0.3610 H   0  0  0  0  0  0  0  0  0  0  0  0
   -4.3050   -1.1810    0.2790 H   0  0  0  0  0  0  0  0  0  0  0  0
   -5.4260   -2.1580   -0.6920 H   0  0  0  0  0  0  0  0  0  0  0  0
   -4.2590   -1.0870   -1.5330 H   0  0  0  0  0  0  0  0  0  0  0  0
   -1.4620   -3.4570   -1.3360 H   0  0  0  0  0  0  0  0  0  0  0  0
   -2.1930   -0.4970   -1.1090 H   0  0  0  0  0  0  0  0  0  0  0  0
  1  8  1  0  0  0  0
  1  9  1  0  0  0  0
  2 11  1  6  0  0  0
  2  4  1  0  0  0  0
  2  1  1  0  0  0  0
  2  3  1  0  0  0  0
  3 12  1  0  0  0  0
  4 13  1  6  0  0  0
  4  5  1  0  0  0  0
  5 15  1  0  0  0  0
  5 14  1  0  0  0  0
  6  4  1  0  0  0  0
  6  7  2  0  0  0  0
 10  1  1  0  0  0  0
 16  6  1  0  0  0  0
 17 16  1  0  0  0  0
 17 28  1  1  0  0  0
 18 19  1  0  0  0  0
 18 17  1  0  0  0  0
 19 20  2  0  0  0  0
 19 24  1  0  0  0  0
 20 21  1  0  0  0  0
 21 32  1  0  0  0  0
 21 22  2  0  0  0  0
 22 33  1  0  0  0  0
 23 22  1  0  0  0  0
 23 34  1  0  0  0  0
 24 23  2  0  0  0  0
 25 26  2  0  0  0  0
 25 17  1  0  0  0  0
 27 16  1  0  0  0  0
 29 18  1  0  0  0  0
 30 18  1  0  0  0  0
 31 20  1  0  0  0  0
 35 24  1  0  0  0  0
 36 47  1  0  0  0  0
 36 46  1  0  0  0  0
 37 38  1  0  0  0  0
 37 36  1  0  0  0  0
 38 39  1  0  0  0  0
 38 50  1  1  0  0  0
 39 51  1  0  0  0  0
 40 54  1  1  0  0  0
 40 41  1  0  0  0  0
 40 38  1  0  0  0  0
 41 25  1  0  0  0  0
 42 40  1  0  0  0  0
 43 42  1  0  0  0  0
 44 42  2  0  0  0  0
 45 36  1  0  0  0  0
 48 37  1  0  0  0  0
 49 37  1  0  0  0  0
 52 39  1  0  0  0  0
 53 39  1  0  0  0  0
 55 41  1  0  0  0  0
M  END
$$$$
