TFM.pdb
 OpenBabel07022419133D

 53 53  0  0  1  0  0  0  0  0999 V2000
    3.4620   -3.8700    0.3980 C   0  0  0  0  0  0  0  0  0  0  0  0
    2.3980   -2.8550    0.7200 C   0  0  1  0  0  0  0  0  0  0  0  0
    2.0810   -3.0200    2.0760 O   0  0  0  0  0  0  0  0  0  0  0  0
    2.9860   -1.4680    0.5640 C   0  0  2  0  0  0  0  0  0  0  0  0
    4.1940   -1.3590    1.3970 N   0  0  0  0  0  0  0  0  0  0  0  0
    2.0380   -0.4370    1.0580 C   0  0  0  0  0  0  0  0  0  0  0  0
    2.3170    0.3130    2.0330 O   0  0  0  0  0  0  0  0  0  0  0  0
    4.0180   -4.1690    1.3330 H   0  0  0  0  0  0  0  0  0  0  0  0
    4.1910   -3.4450   -0.3030 H   0  0  0  0  0  0  0  0  0  0  0  0
    3.0250   -4.7690   -0.0350 H   0  0  0  0  0  0  0  0  0  0  0  0
    1.4770   -2.9600    0.1400 H   0  0  0  0  0  0  0  0  0  0  0  0
    1.4910   -2.3170    2.4120 H   0  0  0  0  0  0  0  0  0  0  0  0
    3.2580   -1.2220   -0.4620 H   0  0  0  0  0  0  0  0  0  0  0  0
    4.3260   -0.3400    1.6600 H   0  0  0  0  0  0  0  0  0  0  0  0
    4.1270   -1.9140    2.2560 H   0  0  0  0  0  0  0  0  0  0  0  0
    0.7540   -0.2190    0.4730 N   0  0  0  0  0  0  0  0  0  0  0  0
   -0.1530    0.7950    0.9770 C   0  0  1  0  0  0  0  0  0  0  0  0
   -0.3110    1.8460   -0.0960 C   0  0  0  0  0  0  0  0  0  0  0  0
    1.0410    2.4070   -0.3590 C   0  0  0  0  0  0  0  0  0  0  0  0
    1.9080    1.8990   -1.3020 C   0  0  0  0  0  0  0  0  0  0  0  0
    3.1730    2.4560   -1.5180 C   0  0  0  0  0  0  0  0  0  0  0  0
    3.5880    3.5430   -0.7810 C   0  0  0  0  0  0  0  0  0  0  0  0
    2.7350    4.0580    0.1600 C   0  0  0  0  0  0  0  0  0  0  0  0
    1.4970    3.5060    0.3660 C   0  0  0  0  0  0  0  0  0  0  0  0
   -1.4540    0.2240    1.4050 C   0  0  0  0  0  0  0  0  0  0  0  0
   -2.3140    1.0130    1.8620 O   0  0  0  0  0  0  0  0  0  0  0  0
    0.4930   -0.8200   -0.3350 H   0  0  0  0  0  0  0  0  0  0  0  0
    0.2700    1.3200    1.8570 H   0  0  0  0  0  0  0  0  0  0  0  0
   -0.6330    1.3720   -1.0700 H   0  0  0  0  0  0  0  0  0  0  0  0
   -1.0640    2.6030    0.1330 H   0  0  0  0  0  0  0  0  0  0  0  0
    1.5920    1.0470   -1.8860 H   0  0  0  0  0  0  0  0  0  0  0  0
    3.8490    2.0560   -2.2570 H   0  0  0  0  0  0  0  0  0  0  0  0
    4.5690    3.9710   -0.9510 H   0  0  0  0  0  0  0  0  0  0  0  0
    3.0540    4.9040    0.7370 H   0  0  0  0  0  0  0  0  0  0  0  0
    0.7950    3.8960    1.1100 H   0  0  0  0  0  0  0  0  0  0  0  0
   -6.3670   -3.0310   -1.5300 C   0  0  0  0  0  0  0  0  0  0  0  0
   -4.7060   -2.4820   -1.9430 S   0  0  0  0  0  0  0  0  0  0  0  0
   -3.9280   -1.5790   -0.5820 C   0  0  0  0  0  0  0  0  0  0  0  0
   -3.6830   -2.5090    0.6120 C   0  0  0  0  0  0  0  0  0  0  0  0
   -3.0290   -1.7230    1.7360 C   0  0  2  0  0  0  0  0  0  0  0  0
   -1.7600   -1.1620    1.3200 N   0  0  0  0  0  0  0  0  0  0  0  0
   -2.7650   -2.6640    2.8540 C   0  0  0  0  0  0  0  0  0  0  0  0
   -3.7450   -3.2760    3.3800 O   0  0  0  0  0  0  0  0  0  0  0  0
   -1.4800   -2.9000    3.3450 O   0  0  0  0  0  0  0  0  0  0  0  0
   -6.5940   -3.9340   -2.1700 H   0  0  0  0  0  0  0  0  0  0  0  0
   -6.5070   -3.2910   -0.4740 H   0  0  0  0  0  0  0  0  0  0  0  0
   -7.1060   -2.2340   -1.8160 H   0  0  0  0  0  0  0  0  0  0  0  0
   -2.9300   -1.2360   -0.9360 H   0  0  0  0  0  0  0  0  0  0  0  0
   -4.5740   -0.7620   -0.2290 H   0  0  0  0  0  0  0  0  0  0  0  0
   -4.6770   -2.8810    0.9170 H   0  0  0  0  0  0  0  0  0  0  0  0
   -3.0610   -3.3710    0.3380 H   0  0  0  0  0  0  0  0  0  0  0  0
   -3.7190   -0.9470    2.1260 H   0  0  0  0  0  0  0  0  0  0  0  0
   -1.0070   -1.7710    0.9320 H   0  0  0  0  0  0  0  0  0  0  0  0
  1  2  1  0  0  0  0
  1  8  1  0  0  0  0
  2 11  1  6  0  0  0
  2  3  1  0  0  0  0
  3 12  1  0  0  0  0
  4 13  1  6  0  0  0
  4  2  1  0  0  0  0
  4  6  1  0  0  0  0
  4  5  1  0  0  0  0
  5 14  1  0  0  0  0
  5 15  1  0  0  0  0
  6  7  2  0  0  0  0
  9  1  1  0  0  0  0
 10  1  1  0  0  0  0
 16 17  1  0  0  0  0
 16  6  1  0  0  0  0
 17 25  1  0  0  0  0
 17 28  1  1  0  0  0
 18 30  1  0  0  0  0
 18 17  1  0  0  0  0
 19 18  1  0  0  0  0
 19 24  1  0  0  0  0
 20 19  2  0  0  0  0
 21 20  1  0  0  0  0
 21 22  2  0  0  0  0
 22 23  1  0  0  0  0
 23 24  2  0  0  0  0
 23 34  1  0  0  0  0
 24 35  1  0  0  0  0
 25 26  2  0  0  0  0
 27 16  1  0  0  0  0
 29 18  1  0  0  0  0
 31 20  1  0  0  0  0
 32 21  1  0  0  0  0
 33 22  1  0  0  0  0
 36 46  1  0  0  0  0
 37 36  1  0  0  0  0
 37 38  1  0  0  0  0
 38 49  1  0  0  0  0
 38 39  1  0  0  0  0
 39 50  1  0  0  0  0
 39 40  1  0  0  0  0
 40 52  1  1  0  0  0
 40 42  1  0  0  0  0
 41 25  1  0  0  0  0
 41 40  1  0  0  0  0
 42 44  2  0  0  0  0
 42 43  1  0  0  0  0
 45 36  1  0  0  0  0
 47 36  1  0  0  0  0
 48 38  1  0  0  0  0
 51 39  1  0  0  0  0
 53 41  1  0  0  0  0
M  END
$$$$
