TFN.pdb
 OpenBabel07022419133D

 50 50  0  0  1  0  0  0  0  0999 V2000
    1.4580    0.2750    4.7450 C   0  0  0  0  0  0  0  0  0  0  0  0
    0.1840   -0.4370    5.0680 C   0  0  1  0  0  0  0  0  0  0  0  0
   -0.9320    0.3970    5.0070 O   0  0  0  0  0  0  0  0  0  0  0  0
   -0.0510   -1.5650    4.1110 C   0  0  2  0  0  0  0  0  0  0  0  0
    1.0220   -2.5270    4.0530 N   0  0  0  0  0  0  0  0  0  0  0  0
   -0.3100   -0.9990    2.7670 C   0  0  0  0  0  0  0  0  0  0  0  0
   -1.1990   -0.1170    2.6500 O   0  0  0  0  0  0  0  0  0  0  0  0
    2.0430   -0.3570    4.0490 H   0  0  0  0  0  0  0  0  0  0  0  0
    1.2950    1.3080    4.3660 H   0  0  0  0  0  0  0  0  0  0  0  0
    2.0900    0.4140    5.6670 H   0  0  0  0  0  0  0  0  0  0  0  0
    0.2460   -0.7780    6.1290 H   0  0  0  0  0  0  0  0  0  0  0  0
   -1.0760    0.9130    5.8220 H   0  0  0  0  0  0  0  0  0  0  0  0
   -0.9790   -2.1450    4.3740 H   0  0  0  0  0  0  0  0  0  0  0  0
    1.1400   -2.8940    5.0460 H   0  0  0  0  0  0  0  0  0  0  0  0
    0.6720   -3.3390    3.4950 H   0  0  0  0  0  0  0  0  0  0  0  0
    0.3790   -1.3860    1.5980 N   0  0  0  0  0  0  0  0  0  0  0  0
    0.1330   -0.8400    0.2790 C   0  0  1  0  0  0  0  0  0  0  0  0
    1.3250   -0.1400   -0.3110 C   0  0  0  0  0  0  0  0  0  0  0  0
    1.7940    1.0050    0.5060 C   0  0  0  0  0  0  0  0  0  0  0  0
    2.7580    0.8380    1.5060 C   0  0  0  0  0  0  0  0  0  0  0  0
    3.2100    1.8870    2.2750 C   0  0  0  0  0  0  0  0  0  0  0  0
    2.7050    3.1540    2.0650 C   0  0  0  0  0  0  0  0  0  0  0  0
    1.7520    3.3420    1.0820 C   0  0  0  0  0  0  0  0  0  0  0  0
    1.3080    2.2830    0.3190 C   0  0  0  0  0  0  0  0  0  0  0  0
   -0.4260   -1.8600   -0.6400 C   0  0  0  0  0  0  0  0  0  0  0  0
   -0.6310   -3.0290   -0.2360 O   0  0  0  0  0  0  0  0  0  0  0  0
    1.1190   -2.1150    1.6790 H   0  0  0  0  0  0  0  0  0  0  0  0
   -0.6620   -0.0510    0.4310 H   0  0  0  0  0  0  0  0  0  0  0  0
    2.1910   -0.8210   -0.4350 H   0  0  0  0  0  0  0  0  0  0  0  0
    1.0760    0.2530   -1.3070 H   0  0  0  0  0  0  0  0  0  0  0  0
    3.1420   -0.1630    1.6560 H   0  0  0  0  0  0  0  0  0  0  0  0
    3.9640    1.7370    3.0510 H   0  0  0  0  0  0  0  0  0  0  0  0
    3.0370    4.0060    2.6520 H   0  0  0  0  0  0  0  0  0  0  0  0
    1.3580    4.3600    0.9270 H   0  0  0  0  0  0  0  0  0  0  0  0
    0.5650    2.4350   -0.4450 H   0  0  0  0  0  0  0  0  0  0  0  0
   -4.9900   -1.5770   -2.7980 N   0  0  0  0  0  0  0  0  0  0  0  0
   -3.6590   -1.9460   -2.4610 C   0  0  0  0  0  0  0  0  0  0  0  0
   -3.4010   -2.0870   -1.2400 O   0  0  0  0  0  0  0  0  0  0  0  0
   -2.6060   -2.1610   -3.4760 C   0  0  0  0  0  0  0  0  0  0  0  0
   -1.2900   -2.5400   -2.8890 C   0  0  2  0  0  0  0  0  0  0  0  0
   -0.7440   -1.5540   -1.9860 N   0  0  0  0  0  0  0  0  0  0  0  0
   -0.3160   -2.8030   -3.9920 C   0  0  0  0  0  0  0  0  0  0  0  0
   -0.5880   -3.6320   -4.8960 O   0  0  0  0  0  0  0  0  0  0  0  0
    0.9050   -2.1520   -4.0590 O   0  0  0  0  0  0  0  0  0  0  0  0
   -5.5390   -0.9470   -2.1830 H   0  0  0  0  0  0  0  0  0  0  0  0
   -5.3860   -1.9650   -3.6860 H   0  0  0  0  0  0  0  0  0  0  0  0
   -2.9510   -2.9940   -4.1240 H   0  0  0  0  0  0  0  0  0  0  0  0
   -2.5360   -1.2670   -4.1300 H   0  0  0  0  0  0  0  0  0  0  0  0
   -1.4260   -3.5050   -2.3290 H   0  0  0  0  0  0  0  0  0  0  0  0
   -0.5850   -0.5890   -2.3540 H   0  0  0  0  0  0  0  0  0  0  0  0
  1  2  1  0  0  0  0
  1 10  1  0  0  0  0
  2 11  1  1  0  0  0
  3  2  1  0  0  0  0
  3 12  1  0  0  0  0
  4 13  1  1  0  0  0
  4  2  1  0  0  0  0
  5  4  1  0  0  0  0
  5 14  1  0  0  0  0
  6  4  1  0  0  0  0
  7  6  2  0  0  0  0
  8  1  1  0  0  0  0
  9  1  1  0  0  0  0
 15  5  1  0  0  0  0
 16 27  1  0  0  0  0
 16  6  1  0  0  0  0
 17 28  1  1  0  0  0
 17 16  1  0  0  0  0
 18 17  1  0  0  0  0
 18 19  1  0  0  0  0
 19 20  1  0  0  0  0
 20 31  1  0  0  0  0
 20 21  2  0  0  0  0
 21 32  1  0  0  0  0
 22 21  1  0  0  0  0
 22 33  1  0  0  0  0
 23 22  2  0  0  0  0
 24 19  2  0  0  0  0
 24 23  1  0  0  0  0
 25 26  2  0  0  0  0
 25 17  1  0  0  0  0
 29 18  1  0  0  0  0
 30 18  1  0  0  0  0
 34 23  1  0  0  0  0
 35 24  1  0  0  0  0
 36 37  1  0  0  0  0
 36 45  1  0  0  0  0
 37 38  2  0  0  0  0
 39 40  1  0  0  0  0
 39 37  1  0  0  0  0
 40 49  1  1  0  0  0
 40 41  1  0  0  0  0
 41 25  1  0  0  0  0
 42 40  1  0  0  0  0
 43 42  2  0  0  0  0
 44 42  1  0  0  0  0
 46 36  1  0  0  0  0
 47 39  1  0  0  0  0
 48 39  1  0  0  0  0
 50 41  1  0  0  0  0
M  END
$$$$
