TFP.pdb
 OpenBabel07022419133D

 50 51  0  0  1  0  0  0  0  0999 V2000
    2.0360   -3.5280    2.3370 C   0  0  0  0  0  0  0  0  0  0  0  0
    2.4490   -3.1230    0.9470 C   0  0  1  0  0  0  0  0  0  0  0  0
    2.8850   -4.3110    0.3070 O   0  0  0  0  0  0  0  0  0  0  0  0
    1.2090   -2.7020    0.1780 C   0  0  2  0  0  0  0  0  0  0  0  0
    1.6640   -2.5070   -1.2200 N   0  0  0  0  0  0  0  0  0  0  0  0
    0.6510   -1.4140    0.6080 C   0  0  0  0  0  0  0  0  0  0  0  0
    0.7720   -0.3760   -0.1300 O   0  0  0  0  0  0  0  0  0  0  0  0
    2.7650   -4.3050    2.7240 H   0  0  0  0  0  0  0  0  0  0  0  0
    2.0540   -2.6570    3.0170 H   0  0  0  0  0  0  0  0  0  0  0  0
    1.0700   -4.0710    2.3100 H   0  0  0  0  0  0  0  0  0  0  0  0
    3.2300   -2.3680    0.9180 H   0  0  0  0  0  0  0  0  0  0  0  0
    2.3950   -5.0820    0.6700 H   0  0  0  0  0  0  0  0  0  0  0  0
    0.5260   -3.5490    0.1680 H   0  0  0  0  0  0  0  0  0  0  0  0
    2.3560   -3.2560   -1.4690 H   0  0  0  0  0  0  0  0  0  0  0  0
    2.1240   -1.5650   -1.3070 H   0  0  0  0  0  0  0  0  0  0  0  0
   -0.0560   -1.1790    1.8300 N   0  0  0  0  0  0  0  0  0  0  0  0
   -0.5930    0.0770    2.2490 C   0  0  1  0  0  0  0  0  0  0  0  0
    0.3600    1.0520    2.8370 C   0  0  0  0  0  0  0  0  0  0  0  0
    1.4840    1.4860    1.9870 C   0  0  0  0  0  0  0  0  0  0  0  0
    1.3930    2.5490    1.1080 C   0  0  0  0  0  0  0  0  0  0  0  0
    2.4510    2.9690    0.3300 C   0  0  0  0  0  0  0  0  0  0  0  0
    3.6670    2.3230    0.4070 C   0  0  0  0  0  0  0  0  0  0  0  0
    3.7970    1.2580    1.2730 C   0  0  0  0  0  0  0  0  0  0  0  0
    2.7320    0.8500    2.0430 C   0  0  0  0  0  0  0  0  0  0  0  0
   -1.6640    0.6570    1.4160 C   0  0  0  0  0  0  0  0  0  0  0  0
   -1.9350    1.9040    1.6800 O   0  0  0  0  0  0  0  0  0  0  0  0
   -0.1580   -2.0500    2.4250 H   0  0  0  0  0  0  0  0  0  0  0  0
   -1.2210   -0.2420    3.1980 H   0  0  0  0  0  0  0  0  0  0  0  0
    0.7330    0.6260    3.8170 H   0  0  0  0  0  0  0  0  0  0  0  0
   -0.2520    1.9410    3.1830 H   0  0  0  0  0  0  0  0  0  0  0  0
    0.4600    3.0910    1.0080 H   0  0  0  0  0  0  0  0  0  0  0  0
    2.3810    3.8000   -0.3580 H   0  0  0  0  0  0  0  0  0  0  0  0
    4.5150    2.6330   -0.1940 H   0  0  0  0  0  0  0  0  0  0  0  0
    4.7650    0.7760    1.3070 H   0  0  0  0  0  0  0  0  0  0  0  0
    2.8450    0.0230    2.7110 H   0  0  0  0  0  0  0  0  0  0  0  0
   -2.4130    0.0640    0.4120 N   0  0  0  0  0  0  0  0  0  0  0  0
   -3.4580    0.7760   -0.3640 C   0  0  0  0  0  0  0  0  0  0  0  0
   -4.6140   -0.1840   -0.3040 C   0  0  0  0  0  0  0  0  0  0  0  0
   -3.9850   -1.5310   -0.2600 C   0  0  0  0  0  0  0  0  0  0  0  0
   -2.4770   -1.2560   -0.1160 C   0  0  1  0  0  0  0  0  0  0  0  0
   -1.9450   -1.4190   -1.4900 C   0  0  0  0  0  0  0  0  0  0  0  0
   -1.9620   -2.5820   -1.9710 O   0  0  0  0  0  0  0  0  0  0  0  0
   -1.4380   -0.4090   -2.2760 O   0  0  0  0  0  0  0  0  0  0  0  0
   -3.1170    0.9380   -1.3830 H   0  0  0  0  0  0  0  0  0  0  0  0
   -3.7250    1.7270    0.1090 H   0  0  0  0  0  0  0  0  0  0  0  0
   -5.2300   -0.0300    0.6070 H   0  0  0  0  0  0  0  0  0  0  0  0
   -5.2430   -0.1270   -1.2220 H   0  0  0  0  0  0  0  0  0  0  0  0
   -4.2120   -2.1300   -1.1560 H   0  0  0  0  0  0  0  0  0  0  0  0
   -4.3570   -2.0940    0.6070 H   0  0  0  0  0  0  0  0  0  0  0  0
   -2.1070   -2.0690    0.5140 H   0  0  0  0  0  0  0  0  0  0  0  0
  1  8  1  0  0  0  0
  1  9  1  0  0  0  0
  2 11  1  1  0  0  0
  2  1  1  0  0  0  0
  3 12  1  0  0  0  0
  3  2  1  0  0  0  0
  4 13  1  1  0  0  0
  4  6  1  0  0  0  0
  4  2  1  0  0  0  0
  5  4  1  0  0  0  0
  6 16  1  0  0  0  0
  7  6  2  0  0  0  0
 10  1  1  0  0  0  0
 14  5  1  0  0  0  0
 15  5  1  0  0  0  0
 16 17  1  0  0  0  0
 16 27  1  0  0  0  0
 17 18  1  0  0  0  0
 17 28  1  1  0  0  0
 18 30  1  0  0  0  0
 18 29  1  0  0  0  0
 19 24  1  0  0  0  0
 19 18  1  0  0  0  0
 20 19  2  0  0  0  0
 21 22  2  0  0  0  0
 21 20  1  0  0  0  0
 22 23  1  0  0  0  0
 23 34  1  0  0  0  0
 23 24  2  0  0  0  0
 24 35  1  0  0  0  0
 25 26  2  0  0  0  0
 25 17  1  0  0  0  0
 31 20  1  0  0  0  0
 32 21  1  0  0  0  0
 33 22  1  0  0  0  0
 36 25  1  0  0  0  0
 37 38  1  0  0  0  0
 37 45  1  0  0  0  0
 37 36  1  0  0  0  0
 38 39  1  0  0  0  0
 38 46  1  0  0  0  0
 39 40  1  0  0  0  0
 39 49  1  0  0  0  0
 40 36  1  0  0  0  0
 40 50  1  1  0  0  0
 41 40  1  0  0  0  0
 42 41  1  0  0  0  0
 43 41  2  0  0  0  0
 44 37  1  0  0  0  0
 47 38  1  0  0  0  0
 48 39  1  0  0  0  0
M  END
$$$$
