TFQ.pdb
 OpenBabel07022419133D

 53 53  0  0  1  0  0  0  0  0999 V2000
   -0.4770   -0.1100    5.0840 C   0  0  0  0  0  0  0  0  0  0  0  0
    0.9720   -0.3780    4.7330 C   0  0  1  0  0  0  0  0  0  0  0  0
    1.5440   -0.9630    5.8820 O   0  0  0  0  0  0  0  0  0  0  0  0
    1.0140   -1.4170    3.6530 C   0  0  2  0  0  0  0  0  0  0  0  0
    2.3500   -1.8430    3.3580 N   0  0  0  0  0  0  0  0  0  0  0  0
    0.3470   -1.0010    2.4080 C   0  0  0  0  0  0  0  0  0  0  0  0
   -0.8450   -0.5920    2.4840 O   0  0  0  0  0  0  0  0  0  0  0  0
   -0.6280   -0.0060    6.1790 H   0  0  0  0  0  0  0  0  0  0  0  0
   -1.1010   -0.9960    4.7740 H   0  0  0  0  0  0  0  0  0  0  0  0
   -0.8160    0.8210    4.5870 H   0  0  0  0  0  0  0  0  0  0  0  0
    1.5350    0.5140    4.4650 H   0  0  0  0  0  0  0  0  0  0  0  0
    0.9640   -1.7200    6.1780 H   0  0  0  0  0  0  0  0  0  0  0  0
    0.4710   -2.3230    4.0520 H   0  0  0  0  0  0  0  0  0  0  0  0
    2.3170   -2.5880    2.6260 H   0  0  0  0  0  0  0  0  0  0  0  0
    2.9110   -1.0200    3.0560 H   0  0  0  0  0  0  0  0  0  0  0  0
    0.9540   -1.0290    1.1290 N   0  0  0  0  0  0  0  0  0  0  0  0
    0.2120   -0.6000   -0.0240 C   0  0  1  0  0  0  0  0  0  0  0  0
    0.9210    0.5280   -0.7620 C   0  0  0  0  0  0  0  0  0  0  0  0
    1.0950    1.6890    0.1130 C   0  0  0  0  0  0  0  0  0  0  0  0
    2.2330    1.8060    0.8800 C   0  0  0  0  0  0  0  0  0  0  0  0
    2.4130    2.9100    1.7210 C   0  0  0  0  0  0  0  0  0  0  0  0
    1.4140    3.8640    1.7470 C   0  0  0  0  0  0  0  0  0  0  0  0
    0.2610    3.7740    0.9880 C   0  0  0  0  0  0  0  0  0  0  0  0
    0.1180    2.6600    0.1630 C   0  0  0  0  0  0  0  0  0  0  0  0
    0.0340   -1.7430   -0.9790 C   0  0  0  0  0  0  0  0  0  0  0  0
    0.5220   -2.8630   -0.6810 O   0  0  0  0  0  0  0  0  0  0  0  0
    1.9320   -1.3610    1.0400 H   0  0  0  0  0  0  0  0  0  0  0  0
   -0.8080   -0.2800    0.2550 H   0  0  0  0  0  0  0  0  0  0  0  0
    1.8670    0.1490   -1.1960 H   0  0  0  0  0  0  0  0  0  0  0  0
    0.2730    0.7960   -1.6270 H   0  0  0  0  0  0  0  0  0  0  0  0
    2.9800    1.0470    0.8310 H   0  0  0  0  0  0  0  0  0  0  0  0
    3.3170    2.9940    2.3250 H   0  0  0  0  0  0  0  0  0  0  0  0
    1.5450    4.7190    2.3930 H   0  0  0  0  0  0  0  0  0  0  0  0
   -0.4750    4.5540    1.0580 H   0  0  0  0  0  0  0  0  0  0  0  0
   -0.7970    2.6220   -0.4180 H   0  0  0  0  0  0  0  0  0  0  0  0
   -3.1630   -3.0990    0.4460 N   0  0  0  0  0  0  0  0  0  0  0  0
   -3.0650   -2.6630   -0.9210 C   0  0  0  0  0  0  0  0  0  0  0  0
   -3.1420   -1.4200   -1.0750 O   0  0  0  0  0  0  0  0  0  0  0  0
   -2.8940   -3.6250   -2.0220 C   0  0  0  0  0  0  0  0  0  0  0  0
   -2.2740   -3.0540   -3.2530 C   0  0  0  0  0  0  0  0  0  0  0  0
   -0.8810   -2.5700   -3.1330 C   0  0  2  0  0  0  0  0  0  0  0  0
   -0.6880   -1.5200   -2.2010 N   0  0  0  0  0  0  0  0  0  0  0  0
   -0.2730   -2.2050   -4.4410 C   0  0  0  0  0  0  0  0  0  0  0  0
   -0.3660   -3.0450   -5.3720 O   0  0  0  0  0  0  0  0  0  0  0  0
    0.3770   -1.0270   -4.7050 O   0  0  0  0  0  0  0  0  0  0  0  0
   -2.4220   -2.8480    1.1150 H   0  0  0  0  0  0  0  0  0  0  0  0
   -3.9850   -3.6570    0.7150 H   0  0  0  0  0  0  0  0  0  0  0  0
   -3.9500   -3.9300   -2.3090 H   0  0  0  0  0  0  0  0  0  0  0  0
   -2.3750   -4.5580   -1.6760 H   0  0  0  0  0  0  0  0  0  0  0  0
   -2.4160   -3.7820   -4.0910 H   0  0  0  0  0  0  0  0  0  0  0  0
   -2.9470   -2.1810   -3.5410 H   0  0  0  0  0  0  0  0  0  0  0  0
   -0.2790   -3.4830   -2.7870 H   0  0  0  0  0  0  0  0  0  0  0  0
   -1.0500   -0.5490   -2.3960 H   0  0  0  0  0  0  0  0  0  0  0  0
  1  8  1  0  0  0  0
  2 11  1  6  0  0  0
  2  1  1  0  0  0  0
  2  3  1  0  0  0  0
  3 12  1  0  0  0  0
  4 13  1  1  0  0  0
  4  2  1  0  0  0  0
  5  4  1  0  0  0  0
  6  7  2  0  0  0  0
  6  4  1  0  0  0  0
  9  1  1  0  0  0  0
 10  1  1  0  0  0  0
 14  5  1  0  0  0  0
 15  5  1  0  0  0  0
 16  6  1  0  0  0  0
 17 28  1  1  0  0  0
 17 16  1  0  0  0  0
 18 17  1  0  0  0  0
 18 19  1  0  0  0  0
 19 24  2  0  0  0  0
 19 20  1  0  0  0  0
 20 21  2  0  0  0  0
 21 22  1  0  0  0  0
 21 32  1  0  0  0  0
 22 33  1  0  0  0  0
 23 34  1  0  0  0  0
 23 22  2  0  0  0  0
 24 23  1  0  0  0  0
 25 26  2  0  0  0  0
 25 17  1  0  0  0  0
 27 16  1  0  0  0  0
 29 18  1  0  0  0  0
 30 18  1  0  0  0  0
 31 20  1  0  0  0  0
 35 24  1  0  0  0  0
 36 47  1  0  0  0  0
 36 46  1  0  0  0  0
 37 36  1  0  0  0  0
 38 37  2  0  0  0  0
 39 49  1  0  0  0  0
 39 37  1  0  0  0  0
 40 41  1  0  0  0  0
 40 39  1  0  0  0  0
 41 52  1  1  0  0  0
 41 42  1  0  0  0  0
 42 25  1  0  0  0  0
 43 41  1  0  0  0  0
 44 43  2  0  0  0  0
 45 43  1  0  0  0  0
 48 39  1  0  0  0  0
 50 40  1  0  0  0  0
 51 40  1  0  0  0  0
 53 42  1  0  0  0  0
M  END
$$$$
