TFR.pdb
 OpenBabel07022419133D

 59 59  0  0  1  0  0  0  0  0999 V2000
   -0.1880    0.6330    5.5560 C   0  0  0  0  0  0  0  0  0  0  0  0
    1.2990    0.6260    5.2790 C   0  0  1  0  0  0  0  0  0  0  0  0
    1.9330    0.4670    6.5210 O   0  0  0  0  0  0  0  0  0  0  0  0
    1.7060   -0.5200    4.3980 C   0  0  2  0  0  0  0  0  0  0  0  0
    3.1420   -0.4880    4.2460 N   0  0  0  0  0  0  0  0  0  0  0  0
    0.9980   -0.5360    3.1020 C   0  0  0  0  0  0  0  0  0  0  0  0
   -0.2590   -0.5580    3.0710 O   0  0  0  0  0  0  0  0  0  0  0  0
   -0.7170    1.3920    4.9440 H   0  0  0  0  0  0  0  0  0  0  0  0
   -0.4120    0.8830    6.6140 H   0  0  0  0  0  0  0  0  0  0  0  0
   -0.5580   -0.3960    5.3930 H   0  0  0  0  0  0  0  0  0  0  0  0
    1.5580    1.5850    4.8170 H   0  0  0  0  0  0  0  0  0  0  0  0
    2.1150   -0.4990    6.6950 H   0  0  0  0  0  0  0  0  0  0  0  0
    1.4290   -1.4540    4.9300 H   0  0  0  0  0  0  0  0  0  0  0  0
    3.3900    0.4600    3.8710 H   0  0  0  0  0  0  0  0  0  0  0  0
    3.5350   -0.4950    5.2350 H   0  0  0  0  0  0  0  0  0  0  0  0
    1.6660   -0.5280    1.8490 N   0  0  0  0  0  0  0  0  0  0  0  0
    0.9170   -0.5440    0.6020 C   0  0  1  0  0  0  0  0  0  0  0  0
    1.1420    0.7500   -0.1700 C   0  0  0  0  0  0  0  0  0  0  0  0
    0.6890    1.9260    0.6490 C   0  0  0  0  0  0  0  0  0  0  0  0
    1.5550    2.5630    1.4910 C   0  0  0  0  0  0  0  0  0  0  0  0
    1.2060    3.6460    2.2680 C   0  0  0  0  0  0  0  0  0  0  0  0
   -0.1040    4.0720    2.1530 C   0  0  0  0  0  0  0  0  0  0  0  0
   -0.9990    3.4490    1.3120 C   0  0  0  0  0  0  0  0  0  0  0  0
   -0.6090    2.3690    0.5510 C   0  0  0  0  0  0  0  0  0  0  0  0
    1.3130   -1.6690   -0.2600 C   0  0  0  0  0  0  0  0  0  0  0  0
    2.2100   -2.4910    0.0610 O   0  0  0  0  0  0  0  0  0  0  0  0
    2.6910   -0.5100    1.8000 H   0  0  0  0  0  0  0  0  0  0  0  0
   -0.1570   -0.5560    0.8650 H   0  0  0  0  0  0  0  0  0  0  0  0
    2.2050    0.8240   -0.4050 H   0  0  0  0  0  0  0  0  0  0  0  0
    0.4750    0.7170   -1.0530 H   0  0  0  0  0  0  0  0  0  0  0  0
    2.5760    2.2190    1.5720 H   0  0  0  0  0  0  0  0  0  0  0  0
    1.8700    4.1610    2.9360 H   0  0  0  0  0  0  0  0  0  0  0  0
   -0.4440    4.9170    2.7350 H   0  0  0  0  0  0  0  0  0  0  0  0
   -2.0420    3.8000    1.2300 H   0  0  0  0  0  0  0  0  0  0  0  0
   -1.3190    1.8760   -0.1140 H   0  0  0  0  0  0  0  0  0  0  0  0
   -5.2030   -3.2750   -3.8270 N   0  0  0  0  0  0  0  0  0  0  0  0
   -4.0340   -2.7730   -3.1560 C   0  0  0  0  0  0  0  0  0  0  0  0
   -3.3760   -1.8190   -3.7110 N   0  0  0  0  0  0  0  0  0  0  0  0
   -3.6030   -3.2950   -1.9280 N   0  0  0  0  0  0  0  0  0  0  0  0
   -2.1870   -3.1290   -1.4940 C   0  0  0  0  0  0  0  0  0  0  0  0
   -1.3920   -3.9690   -2.4330 C   0  0  0  0  0  0  0  0  0  0  0  0
    0.0650   -4.0640   -2.2680 C   0  0  0  0  0  0  0  0  0  0  0  0
    0.9340   -2.8670   -2.4350 C   0  0  2  0  0  0  0  0  0  0  0  0
    0.6400   -1.8270   -1.5240 N   0  0  0  0  0  0  0  0  0  0  0  0
    0.9150   -2.4530   -3.8550 C   0  0  0  0  0  0  0  0  0  0  0  0
    0.6710   -1.3120   -4.2670 O   0  0  0  0  0  0  0  0  0  0  0  0
    1.1970   -3.4340   -4.8080 O   0  0  0  0  0  0  0  0  0  0  0  0
   -5.5020   -4.2500   -3.6870 H   0  0  0  0  0  0  0  0  0  0  0  0
   -5.7520   -2.6660   -4.4520 H   0  0  0  0  0  0  0  0  0  0  0  0
   -3.6490   -1.3910   -4.6240 H   0  0  0  0  0  0  0  0  0  0  0  0
   -4.2650   -3.7970   -1.3160 H   0  0  0  0  0  0  0  0  0  0  0  0
   -2.1210   -3.5720   -0.4690 H   0  0  0  0  0  0  0  0  0  0  0  0
   -1.9500   -2.0790   -1.4550 H   0  0  0  0  0  0  0  0  0  0  0  0
   -1.8620   -5.0030   -2.4200 H   0  0  0  0  0  0  0  0  0  0  0  0
   -1.6780   -3.6050   -3.4740 H   0  0  0  0  0  0  0  0  0  0  0  0
    0.4910   -4.8610   -2.9730 H   0  0  0  0  0  0  0  0  0  0  0  0
    0.2380   -4.5160   -1.2200 H   0  0  0  0  0  0  0  0  0  0  0  0
    2.0180   -3.1780   -2.2140 H   0  0  0  0  0  0  0  0  0  0  0  0
   -0.0600   -1.1000   -1.7620 H   0  0  0  0  0  0  0  0  0  0  0  0
  1  9  1  0  0  0  0
  2 11  1  6  0  0  0
  2  1  1  0  0  0  0
  2  3  1  0  0  0  0
  3 12  1  0  0  0  0
  4 13  1  1  0  0  0
  4  2  1  0  0  0  0
  5  4  1  0  0  0  0
  5 15  1  0  0  0  0
  6  4  1  0  0  0  0
  7  6  2  0  0  0  0
  8  1  1  0  0  0  0
 10  1  1  0  0  0  0
 14  5  1  0  0  0  0
 16  6  1  0  0  0  0
 17 28  1  1  0  0  0
 17 16  1  0  0  0  0
 18 17  1  0  0  0  0
 18 19  1  0  0  0  0
 19 20  1  0  0  0  0
 20 31  1  0  0  0  0
 20 21  2  0  0  0  0
 21 32  1  0  0  0  0
 22 21  1  0  0  0  0
 22 33  1  0  0  0  0
 23 22  2  0  0  0  0
 24 19  2  0  0  0  0
 24 23  1  0  0  0  0
 25 26  2  0  0  0  0
 25 17  1  0  0  0  0
 27 16  1  0  0  0  0
 29 18  1  0  0  0  0
 30 18  1  0  0  0  0
 34 23  1  0  0  0  0
 35 24  1  0  0  0  0
 36 48  1  0  0  0  0
 36 37  1  0  0  0  0
 37 39  1  0  0  0  0
 38 37  2  0  0  0  0
 39 40  1  0  0  0  0
 39 51  1  0  0  0  0
 40 53  1  0  0  0  0
 40 52  1  0  0  0  0
 41 54  1  0  0  0  0
 41 42  1  0  0  0  0
 41 40  1  0  0  0  0
 42 57  1  0  0  0  0
 43 42  1  0  0  0  0
 43 58  1  1  0  0  0
 43 44  1  0  0  0  0
 44 25  1  0  0  0  0
 45 43  1  0  0  0  0
 46 45  1  0  0  0  0
 47 45  2  0  0  0  0
 49 36  1  0  0  0  0
 50 38  1  0  0  0  0
 55 41  1  0  0  0  0
 56 42  1  0  0  0  0
 59 44  1  0  0  0  0
M  END
$$$$
