TFS.pdb
 OpenBabel07022419133D

 47 47  0  0  1  0  0  0  0  0999 V2000
   -0.7410   -4.1700   -0.4700 C   0  0  0  0  0  0  0  0  0  0  0  0
    0.6690   -4.6240   -0.2070 C   0  0  1  0  0  0  0  0  0  0  0  0
    0.8620   -5.8490   -0.9000 O   0  0  0  0  0  0  0  0  0  0  0  0
    1.6200   -3.6080   -0.8150 C   0  0  2  0  0  0  0  0  0  0  0  0
    2.9610   -4.2250   -0.6160 N   0  0  0  0  0  0  0  0  0  0  0  0
    1.6640   -2.3380   -0.0920 C   0  0  0  0  0  0  0  0  0  0  0  0
    2.6500   -2.0990    0.6890 O   0  0  0  0  0  0  0  0  0  0  0  0
   -0.7920   -3.5760   -1.3840 H   0  0  0  0  0  0  0  0  0  0  0  0
   -1.3530   -5.1020   -0.6280 H   0  0  0  0  0  0  0  0  0  0  0  0
   -1.1410   -3.6720    0.4360 H   0  0  0  0  0  0  0  0  0  0  0  0
    0.8740   -4.7120    0.8590 H   0  0  0  0  0  0  0  0  0  0  0  0
    0.2720   -5.8140   -1.6920 H   0  0  0  0  0  0  0  0  0  0  0  0
    1.4920   -3.5380   -1.9020 H   0  0  0  0  0  0  0  0  0  0  0  0
    3.1650   -4.0780    0.3970 H   0  0  0  0  0  0  0  0  0  0  0  0
    3.6320   -3.5960   -1.1350 H   0  0  0  0  0  0  0  0  0  0  0  0
    0.7090   -1.2880   -0.1560 N   0  0  0  0  0  0  0  0  0  0  0  0
    0.8540   -0.0640    0.5980 C   0  0  1  0  0  0  0  0  0  0  0  0
    1.1960    1.0570   -0.3640 C   0  0  0  0  0  0  0  0  0  0  0  0
    1.3690    2.3660    0.3050 C   0  0  0  0  0  0  0  0  0  0  0  0
    0.3420    3.2660    0.4860 C   0  0  0  0  0  0  0  0  0  0  0  0
    0.5450    4.4720    1.1140 C   0  0  0  0  0  0  0  0  0  0  0  0
    1.8110    4.8150    1.5880 C   0  0  0  0  0  0  0  0  0  0  0  0
    2.8500    3.9270    1.4160 C   0  0  0  0  0  0  0  0  0  0  0  0
    2.6150    2.7400    0.7900 C   0  0  0  0  0  0  0  0  0  0  0  0
   -0.3270    0.2530    1.4240 C   0  0  0  0  0  0  0  0  0  0  0  0
   -0.3600    1.2480    2.1980 O   0  0  0  0  0  0  0  0  0  0  0  0
   -0.1130   -1.4030   -0.7620 H   0  0  0  0  0  0  0  0  0  0  0  0
    1.7370   -0.1700    1.2650 H   0  0  0  0  0  0  0  0  0  0  0  0
    0.4820    1.1450   -1.1970 H   0  0  0  0  0  0  0  0  0  0  0  0
    2.2050    0.7820   -0.7920 H   0  0  0  0  0  0  0  0  0  0  0  0
   -0.6680    3.0230    0.1220 H   0  0  0  0  0  0  0  0  0  0  0  0
   -0.2280    5.2020    1.2760 H   0  0  0  0  0  0  0  0  0  0  0  0
    1.9810    5.7690    2.0880 H   0  0  0  0  0  0  0  0  0  0  0  0
    3.8440    4.1550    1.7690 H   0  0  0  0  0  0  0  0  0  0  0  0
    3.4650    2.0540    0.6680 H   0  0  0  0  0  0  0  0  0  0  0  0
   -3.6440    1.1270    0.5420 O   0  0  0  0  0  0  0  0  0  0  0  0
   -3.8830    0.0050    1.3480 C   0  0  0  0  0  0  0  0  0  0  0  0
   -2.6750   -0.2780    2.1810 C   0  0  2  0  0  0  0  0  0  0  0  0
   -1.4940   -0.5500    1.3880 N   0  0  0  0  0  0  0  0  0  0  0  0
   -2.9630   -1.3420    3.1540 C   0  0  0  0  0  0  0  0  0  0  0  0
   -3.9680   -1.2100    3.8970 O   0  0  0  0  0  0  0  0  0  0  0  0
   -2.2020   -2.4930    3.3170 O   0  0  0  0  0  0  0  0  0  0  0  0
   -3.1650    1.7730    1.1260 H   0  0  0  0  0  0  0  0  0  0  0  0
   -4.2540   -0.8510    0.7850 H   0  0  0  0  0  0  0  0  0  0  0  0
   -4.6910    0.3360    2.0640 H   0  0  0  0  0  0  0  0  0  0  0  0
   -2.4530    0.6450    2.7680 H   0  0  0  0  0  0  0  0  0  0  0  0
   -1.4760   -1.3690    0.7460 H   0  0  0  0  0  0  0  0  0  0  0  0
  1  2  1  0  0  0  0
  1 10  1  0  0  0  0
  2 11  1  1  0  0  0
  3  2  1  0  0  0  0
  4 13  1  6  0  0  0
  4  5  1  0  0  0  0
  4  2  1  0  0  0  0
  4  6  1  0  0  0  0
  5 14  1  0  0  0  0
  6  7  2  0  0  0  0
  8  1  1  0  0  0  0
  9  1  1  0  0  0  0
 12  3  1  0  0  0  0
 15  5  1  0  0  0  0
 16  6  1  0  0  0  0
 16 17  1  0  0  0  0
 17 28  1  1  0  0  0
 17 25  1  0  0  0  0
 18 19  1  0  0  0  0
 18 17  1  0  0  0  0
 19 20  2  0  0  0  0
 19 24  1  0  0  0  0
 20 21  1  0  0  0  0
 21 32  1  0  0  0  0
 21 22  2  0  0  0  0
 22 33  1  0  0  0  0
 23 22  1  0  0  0  0
 23 34  1  0  0  0  0
 24 23  2  0  0  0  0
 25 26  2  0  0  0  0
 27 16  1  0  0  0  0
 29 18  1  0  0  0  0
 30 18  1  0  0  0  0
 31 20  1  0  0  0  0
 35 24  1  0  0  0  0
 36 43  1  0  0  0  0
 36 37  1  0  0  0  0
 37 45  1  0  0  0  0
 37 38  1  0  0  0  0
 38 46  1  1  0  0  0
 38 40  1  0  0  0  0
 39 25  1  0  0  0  0
 39 38  1  0  0  0  0
 40 42  2  0  0  0  0
 40 41  1  0  0  0  0
 44 37  1  0  0  0  0
 47 39  1  0  0  0  0
M  END
$$$$
