TFT.pdb
 OpenBabel07022419133D

 50 50  0  0  1  0  0  0  0  0999 V2000
    3.5650   -3.5460    0.3520 C   0  0  0  0  0  0  0  0  0  0  0  0
    2.2510   -2.8740    0.6900 C   0  0  1  0  0  0  0  0  0  0  0  0
    1.3830   -3.8430    1.1490 O   0  0  0  0  0  0  0  0  0  0  0  0
    2.4900   -1.7820    1.7090 C   0  0  2  0  0  0  0  0  0  0  0  0
    3.0540   -2.3950    2.8870 N   0  0  0  0  0  0  0  0  0  0  0  0
    1.2150   -1.1270    2.0900 C   0  0  0  0  0  0  0  0  0  0  0  0
    0.8060   -1.1690    3.2680 O   0  0  0  0  0  0  0  0  0  0  0  0
    3.4010   -4.3470   -0.3860 H   0  0  0  0  0  0  0  0  0  0  0  0
    4.3340   -2.7980    0.0150 H   0  0  0  0  0  0  0  0  0  0  0  0
    4.0140   -4.0050    1.2780 H   0  0  0  0  0  0  0  0  0  0  0  0
    1.8570   -2.4540   -0.2680 H   0  0  0  0  0  0  0  0  0  0  0  0
    1.6170   -4.1230    2.0660 H   0  0  0  0  0  0  0  0  0  0  0  0
    3.2160   -1.0640    1.2880 H   0  0  0  0  0  0  0  0  0  0  0  0
    2.4860   -2.2460    3.7470 H   0  0  0  0  0  0  0  0  0  0  0  0
    4.0620   -2.1940    3.0160 H   0  0  0  0  0  0  0  0  0  0  0  0
    0.4030   -0.4270    1.1500 N   0  0  0  0  0  0  0  0  0  0  0  0
   -0.8310    0.2230    1.4510 C   0  0  1  0  0  0  0  0  0  0  0  0
   -0.7670    1.7260    1.1460 C   0  0  0  0  0  0  0  0  0  0  0  0
    0.2910    2.3960    1.9390 C   0  0  0  0  0  0  0  0  0  0  0  0
    1.5930    2.5350    1.5020 C   0  0  0  0  0  0  0  0  0  0  0  0
    2.5580    3.1690    2.2710 C   0  0  0  0  0  0  0  0  0  0  0  0
    2.2420    3.6850    3.5100 C   0  0  0  0  0  0  0  0  0  0  0  0
    0.9560    3.5530    3.9550 C   0  0  0  0  0  0  0  0  0  0  0  0
   -0.0050    2.9180    3.1810 C   0  0  0  0  0  0  0  0  0  0  0  0
   -1.9730   -0.2980    0.6570 C   0  0  0  0  0  0  0  0  0  0  0  0
   -3.0910    0.2060    0.8490 O   0  0  0  0  0  0  0  0  0  0  0  0
    0.7480   -0.3940    0.1660 H   0  0  0  0  0  0  0  0  0  0  0  0
   -1.1290    0.1450    2.5170 H   0  0  0  0  0  0  0  0  0  0  0  0
   -1.7690    2.1790    1.2880 H   0  0  0  0  0  0  0  0  0  0  0  0
   -0.5400    1.8330    0.0470 H   0  0  0  0  0  0  0  0  0  0  0  0
    1.8500    2.1350    0.5350 H   0  0  0  0  0  0  0  0  0  0  0  0
    3.5790    3.2810    1.9350 H   0  0  0  0  0  0  0  0  0  0  0  0
    2.9880    4.1880    4.1320 H   0  0  0  0  0  0  0  0  0  0  0  0
    0.6140    3.9330    4.9280 H   0  0  0  0  0  0  0  0  0  0  0  0
   -1.0260    2.8270    3.5610 H   0  0  0  0  0  0  0  0  0  0  0  0
   -2.8480   -0.3460   -3.0820 C   0  0  0  0  0  0  0  0  0  0  0  0
   -2.7740   -1.7850   -2.5640 C   0  0  1  0  0  0  0  0  0  0  0  0
   -1.6660   -2.4470   -3.0480 O   0  0  0  0  0  0  0  0  0  0  0  0
   -2.9340   -1.8590   -1.0860 C   0  0  2  0  0  0  0  0  0  0  0  0
   -1.8790   -1.3230   -0.3000 N   0  0  0  0  0  0  0  0  0  0  0  0
   -3.1500   -3.2860   -0.7180 C   0  0  0  0  0  0  0  0  0  0  0  0
   -2.4740   -3.8710    0.1600 O   0  0  0  0  0  0  0  0  0  0  0  0
   -4.1540   -3.9810   -1.3920 O   0  0  0  0  0  0  0  0  0  0  0  0
   -1.8310    0.1020   -3.1710 H   0  0  0  0  0  0  0  0  0  0  0  0
   -3.2830   -0.3040   -4.1030 H   0  0  0  0  0  0  0  0  0  0  0  0
   -3.5140    0.2670   -2.4410 H   0  0  0  0  0  0  0  0  0  0  0  0
   -3.6540   -2.3040   -3.0060 H   0  0  0  0  0  0  0  0  0  0  0  0
   -1.0390   -1.7830   -3.4510 H   0  0  0  0  0  0  0  0  0  0  0  0
   -3.8720   -1.3230   -0.8180 H   0  0  0  0  0  0  0  0  0  0  0  0
   -0.9250   -1.7410   -0.4520 H   0  0  0  0  0  0  0  0  0  0  0  0
  1  2  1  0  0  0  0
  1 10  1  0  0  0  0
  2 11  1  6  0  0  0
  2  3  1  0  0  0  0
  2  4  1  0  0  0  0
  3 12  1  0  0  0  0
  4 13  1  6  0  0  0
  4  6  1  0  0  0  0
  4  5  1  0  0  0  0
  5 15  1  0  0  0  0
  5 14  1  0  0  0  0
  6  7  2  0  0  0  0
  8  1  1  0  0  0  0
  9  1  1  0  0  0  0
 16 17  1  0  0  0  0
 16  6  1  0  0  0  0
 17 28  1  1  0  0  0
 18 29  1  0  0  0  0
 18 17  1  0  0  0  0
 18 19  1  0  0  0  0
 19 24  1  0  0  0  0
 20 19  2  0  0  0  0
 20 21  1  0  0  0  0
 21 22  2  0  0  0  0
 22 23  1  0  0  0  0
 22 33  1  0  0  0  0
 23 34  1  0  0  0  0
 24 35  1  0  0  0  0
 24 23  2  0  0  0  0
 25 26  2  0  0  0  0
 25 17  1  0  0  0  0
 27 16  1  0  0  0  0
 30 18  1  0  0  0  0
 31 20  1  0  0  0  0
 32 21  1  0  0  0  0
 36 37  1  0  0  0  0
 36 46  1  0  0  0  0
 37 47  1  6  0  0  0
 37 39  1  0  0  0  0
 38 37  1  0  0  0  0
 39 49  1  1  0  0  0
 39 41  1  0  0  0  0
 39 40  1  0  0  0  0
 40 25  1  0  0  0  0
 41 42  1  0  0  0  0
 43 41  2  0  0  0  0
 44 36  1  0  0  0  0
 45 36  1  0  0  0  0
 48 38  1  0  0  0  0
 50 40  1  0  0  0  0
M  END
$$$$
