TGC.pdb
 OpenBabel07022419123D

 34 33  0  0  1  0  0  0  0  0999 V2000
   -2.1070   -2.1560    1.5490 C   0  0  0  0  0  0  0  0  0  0  0  0
   -1.4480   -3.4510    1.9300 C   0  0  1  0  0  0  0  0  0  0  0  0
   -2.3810   -4.4830    1.7690 O   0  0  0  0  0  0  0  0  0  0  0  0
   -0.2140   -3.7630    1.0830 C   0  0  2  0  0  0  0  0  0  0  0  0
    0.3330   -5.0610    1.5530 N   0  0  0  0  0  0  0  0  0  0  0  0
    0.7820   -2.6990    1.3220 C   0  0  0  0  0  0  0  0  0  0  0  0
    1.7970   -2.9680    2.0550 O   0  0  0  0  0  0  0  0  0  0  0  0
   -1.5780   -1.3050    2.0160 H   0  0  0  0  0  0  0  0  0  0  0  0
   -3.1360   -2.1690    1.9930 H   0  0  0  0  0  0  0  0  0  0  0  0
   -2.2250   -2.0660    0.4530 H   0  0  0  0  0  0  0  0  0  0  0  0
   -1.1850   -3.3960    3.0060 H   0  0  0  0  0  0  0  0  0  0  0  0
   -3.1950   -4.1500    1.3070 H   0  0  0  0  0  0  0  0  0  0  0  0
   -0.5080   -3.9150    0.0470 H   0  0  0  0  0  0  0  0  0  0  0  0
   -0.3840   -5.7750    1.2340 H   0  0  0  0  0  0  0  0  0  0  0  0
    1.1650   -5.2220    0.9290 H   0  0  0  0  0  0  0  0  0  0  0  0
    0.7390   -1.3880    0.8160 N   0  0  0  0  0  0  0  0  0  0  0  0
    1.7410   -0.3950    1.0880 C   0  0  0  0  0  0  0  0  0  0  0  0
    1.5130    0.9180    0.4660 C   0  0  0  0  0  0  0  0  0  0  0  0
    2.3830    1.8450    0.6780 O   0  0  0  0  0  0  0  0  0  0  0  0
   -0.0620   -1.1490    0.2100 H   0  0  0  0  0  0  0  0  0  0  0  0
    2.6960   -0.7870    0.6610 H   0  0  0  0  0  0  0  0  0  0  0  0
    1.9290   -0.2710    2.1800 H   0  0  0  0  0  0  0  0  0  0  0  0
    0.4380    1.3120   -0.3550 N   0  0  0  0  0  0  0  0  0  0  0  0
    0.2700    2.6200   -0.9520 C   0  0  1  0  0  0  0  0  0  0  0  0
   -0.3090    3.6510   -0.0530 C   0  0  0  0  0  0  0  0  0  0  0  0
    0.6590    3.9740    1.4180 S   0  0  0  0  0  0  0  0  0  0  0  0
    1.4950    3.0750   -1.6720 C   0  0  0  0  0  0  0  0  0  0  0  0
    1.5100    4.2230   -2.1540 O   0  0  0  0  0  0  0  0  0  0  0  0
    2.5840    2.2510   -1.8070 O   0  0  0  0  0  0  0  0  0  0  0  0
   -0.2960    0.6000   -0.5450 H   0  0  0  0  0  0  0  0  0  0  0  0
   -0.4800    2.4580   -1.8090 H   0  0  0  0  0  0  0  0  0  0  0  0
   -1.3460    3.3860    0.2390 H   0  0  0  0  0  0  0  0  0  0  0  0
   -0.4200    4.5910   -0.6680 H   0  0  0  0  0  0  0  0  0  0  0  0
   -0.2110    4.3110    2.4700 H   0  0  0  0  0  0  0  0  0  0  0  0
  1  2  1  0  0  0  0
  1  9  1  0  0  0  0
  1  8  1  0  0  0  0
  2 11  1  1  0  0  0
  3  2  1  0  0  0  0
  4 13  1  6  0  0  0
  4  6  1  0  0  0  0
  4  5  1  0  0  0  0
  4  2  1  0  0  0  0
  6  7  2  0  0  0  0
 10  1  1  0  0  0  0
 12  3  1  0  0  0  0
 14  5  1  0  0  0  0
 15  5  1  0  0  0  0
 16 17  1  0  0  0  0
 16  6  1  0  0  0  0
 17 22  1  0  0  0  0
 18 19  2  0  0  0  0
 18 17  1  0  0  0  0
 20 16  1  0  0  0  0
 21 17  1  0  0  0  0
 23 18  1  0  0  0  0
 24 31  1  6  0  0  0
 24 23  1  0  0  0  0
 24 25  1  0  0  0  0
 25 32  1  0  0  0  0
 25 26  1  0  0  0  0
 26 34  1  0  0  0  0
 27 24  1  0  0  0  0
 28 27  2  0  0  0  0
 29 27  1  0  0  0  0
 30 23  1  0  0  0  0
 33 25  1  0  0  0  0
M  END
$$$$
