TGD.pdb
 OpenBabel07022419123D

 36 35  0  0  1  0  0  0  0  0999 V2000
    1.1880   -3.3950    2.9240 C   0  0  0  0  0  0  0  0  0  0  0  0
    0.7400   -4.2310    1.7530 C   0  0  1  0  0  0  0  0  0  0  0  0
   -0.6270   -4.3140    1.6380 O   0  0  0  0  0  0  0  0  0  0  0  0
    1.3990   -3.8190    0.4580 C   0  0  2  0  0  0  0  0  0  0  0  0
    2.8300   -3.7440    0.6170 N   0  0  0  0  0  0  0  0  0  0  0  0
    0.8620   -2.5810   -0.1160 C   0  0  0  0  0  0  0  0  0  0  0  0
    1.6890   -1.6400   -0.3670 O   0  0  0  0  0  0  0  0  0  0  0  0
    2.1860   -2.9530    2.7800 H   0  0  0  0  0  0  0  0  0  0  0  0
    1.2710   -4.0240    3.8590 H   0  0  0  0  0  0  0  0  0  0  0  0
    0.4660   -2.5930    3.1830 H   0  0  0  0  0  0  0  0  0  0  0  0
    1.1080   -5.2780    1.9620 H   0  0  0  0  0  0  0  0  0  0  0  0
   -1.1240   -3.6590    2.1980 H   0  0  0  0  0  0  0  0  0  0  0  0
    1.2050   -4.6370   -0.2790 H   0  0  0  0  0  0  0  0  0  0  0  0
    3.3670   -3.9570   -0.2350 H   0  0  0  0  0  0  0  0  0  0  0  0
    3.1860   -4.1750    1.4830 H   0  0  0  0  0  0  0  0  0  0  0  0
   -0.4770   -2.3230   -0.4190 N   0  0  0  0  0  0  0  0  0  0  0  0
   -0.9340   -1.0700   -0.9860 C   0  0  0  0  0  0  0  0  0  0  0  0
   -0.5780    0.0030   -0.0150 C   0  0  0  0  0  0  0  0  0  0  0  0
    0.0080   -0.2260    1.0720 O   0  0  0  0  0  0  0  0  0  0  0  0
   -1.1910   -3.0530   -0.2370 H   0  0  0  0  0  0  0  0  0  0  0  0
   -0.3940   -0.8720   -1.9500 H   0  0  0  0  0  0  0  0  0  0  0  0
   -2.0130   -1.0640   -1.1820 H   0  0  0  0  0  0  0  0  0  0  0  0
   -0.8930    1.3790   -0.2750 N   0  0  0  0  0  0  0  0  0  0  0  0
   -0.5740    2.4530    0.6230 C   0  0  1  0  0  0  0  0  0  0  0  0
    0.2350    3.5510   -0.0040 C   0  0  0  0  0  0  0  0  0  0  0  0
    1.5240    3.0260   -0.5080 C   0  0  0  0  0  0  0  0  0  0  0  0
    2.3180    3.8280   -1.0630 O   0  0  0  0  0  0  0  0  0  0  0  0
   -1.8640    3.0190    1.1230 C   0  0  0  0  0  0  0  0  0  0  0  0
   -1.8520    3.9740    1.9270 O   0  0  0  0  0  0  0  0  0  0  0  0
    1.9230    1.7020   -0.4120 O   0  0  0  0  0  0  0  0  0  0  0  0
   -3.0830    2.5080    0.7160 O   0  0  0  0  0  0  0  0  0  0  0  0
   -1.3800    1.5890   -1.1720 H   0  0  0  0  0  0  0  0  0  0  0  0
   -0.0420    2.1020    1.5360 H   0  0  0  0  0  0  0  0  0  0  0  0
    0.4670    4.2950    0.7730 H   0  0  0  0  0  0  0  0  0  0  0  0
   -0.3400    4.0450   -0.8140 H   0  0  0  0  0  0  0  0  0  0  0  0
    2.9320    1.5360   -0.3510 H   0  0  0  0  0  0  0  0  0  0  0  0
  1 10  1  0  0  0  0
  1  9  1  0  0  0  0
  2 11  1  1  0  0  0
  2  1  1  0  0  0  0
  3  2  1  0  0  0  0
  3 12  1  0  0  0  0
  4 13  1  6  0  0  0
  4  5  1  0  0  0  0
  4  2  1  0  0  0  0
  5 15  1  0  0  0  0
  6  4  1  0  0  0  0
  7  6  2  0  0  0  0
  8  1  1  0  0  0  0
 14  5  1  0  0  0  0
 16 20  1  0  0  0  0
 16  6  1  0  0  0  0
 17 16  1  0  0  0  0
 17 18  1  0  0  0  0
 18 19  2  0  0  0  0
 21 17  1  0  0  0  0
 22 17  1  0  0  0  0
 23 18  1  0  0  0  0
 23 24  1  0  0  0  0
 24 28  1  0  0  0  0
 24 33  1  1  0  0  0
 25 24  1  0  0  0  0
 25 34  1  0  0  0  0
 26 30  1  0  0  0  0
 26 25  1  0  0  0  0
 27 26  2  0  0  0  0
 28 29  1  0  0  0  0
 30 36  1  0  0  0  0
 31 28  2  0  0  0  0
 32 23  1  0  0  0  0
 35 25  1  0  0  0  0
M  END
$$$$
