TGE.pdb
 OpenBabel07022419123D

 39 38  0  0  1  0  0  0  0  0999 V2000
    0.0350   -3.2180    2.0890 C   0  0  0  0  0  0  0  0  0  0  0  0
    1.4870   -3.0030    1.7960 C   0  0  1  0  0  0  0  0  0  0  0  0
    2.1820   -3.9770    2.5460 O   0  0  0  0  0  0  0  0  0  0  0  0
    1.7820   -3.3350    0.3420 C   0  0  2  0  0  0  0  0  0  0  0  0
    3.2430   -3.2630    0.1920 N   0  0  0  0  0  0  0  0  0  0  0  0
    1.1870   -2.3210   -0.5830 C   0  0  0  0  0  0  0  0  0  0  0  0
    1.9530   -1.4880   -1.1750 O   0  0  0  0  0  0  0  0  0  0  0  0
   -0.6090   -2.3440    1.8660 H   0  0  0  0  0  0  0  0  0  0  0  0
   -0.3870   -4.0860    1.5480 H   0  0  0  0  0  0  0  0  0  0  0  0
   -0.0720   -3.4760    3.1850 H   0  0  0  0  0  0  0  0  0  0  0  0
    1.8060   -1.9850    2.0740 H   0  0  0  0  0  0  0  0  0  0  0  0
    2.1690   -3.6620    3.4750 H   0  0  0  0  0  0  0  0  0  0  0  0
    1.4270   -4.3330    0.1250 H   0  0  0  0  0  0  0  0  0  0  0  0
    3.6040   -4.2060    0.4330 H   0  0  0  0  0  0  0  0  0  0  0  0
    3.6290   -2.5150    0.8010 H   0  0  0  0  0  0  0  0  0  0  0  0
   -0.2000   -2.2160   -0.8580 N   0  0  0  0  0  0  0  0  0  0  0  0
   -0.6640   -1.1980   -1.7500 C   0  0  0  0  0  0  0  0  0  0  0  0
   -0.4140    0.1550   -1.2150 C   0  0  0  0  0  0  0  0  0  0  0  0
   -0.7250    1.1410   -1.9630 O   0  0  0  0  0  0  0  0  0  0  0  0
   -0.8780   -2.8750   -0.4240 H   0  0  0  0  0  0  0  0  0  0  0  0
   -1.7490   -1.3590   -1.9620 H   0  0  0  0  0  0  0  0  0  0  0  0
   -0.1490   -1.3010   -2.7570 H   0  0  0  0  0  0  0  0  0  0  0  0
    0.1400    0.3500    0.0650 N   0  0  0  0  0  0  0  0  0  0  0  0
    0.3890    1.6760    0.5770 C   0  0  1  0  0  0  0  0  0  0  0  0
   -0.3690    1.9710    1.8370 C   0  0  0  0  0  0  0  0  0  0  0  0
   -1.8460    1.8960    1.7450 C   0  0  0  0  0  0  0  0  0  0  0  0
   -2.4870    2.8060    0.7990 C   0  0  0  0  0  0  0  0  0  0  0  0
   -1.8800    3.6210    0.0980 O   0  0  0  0  0  0  0  0  0  0  0  0
    1.8230    1.8740    0.8690 C   0  0  0  0  0  0  0  0  0  0  0  0
    2.6420    0.9590    0.6690 O   0  0  0  0  0  0  0  0  0  0  0  0
   -3.8890    2.7630    0.6660 O   0  0  0  0  0  0  0  0  0  0  0  0
    2.2620    3.0770    1.3670 O   0  0  0  0  0  0  0  0  0  0  0  0
    0.3580   -0.4510    0.6700 H   0  0  0  0  0  0  0  0  0  0  0  0
    0.0740    2.4080   -0.1940 H   0  0  0  0  0  0  0  0  0  0  0  0
   -0.0900    2.9670    2.2350 H   0  0  0  0  0  0  0  0  0  0  0  0
   -0.0560    1.2440    2.6390 H   0  0  0  0  0  0  0  0  0  0  0  0
   -2.1460    0.8450    1.5530 H   0  0  0  0  0  0  0  0  0  0  0  0
   -2.2430    2.1520    2.7670 H   0  0  0  0  0  0  0  0  0  0  0  0
   -4.3570    3.4940    0.1460 H   0  0  0  0  0  0  0  0  0  0  0  0
  1 10  1  0  0  0  0
  2 11  1  1  0  0  0
  2  1  1  0  0  0  0
  2  3  1  0  0  0  0
  3 12  1  0  0  0  0
  4 13  1  6  0  0  0
  4  2  1  0  0  0  0
  5  4  1  0  0  0  0
  5 14  1  0  0  0  0
  5 15  1  0  0  0  0
  6  4  1  0  0  0  0
  7  6  2  0  0  0  0
  8  1  1  0  0  0  0
  9  1  1  0  0  0  0
 16  6  1  0  0  0  0
 16 20  1  0  0  0  0
 17 18  1  0  0  0  0
 17 16  1  0  0  0  0
 18 23  1  0  0  0  0
 19 18  2  0  0  0  0
 21 17  1  0  0  0  0
 22 17  1  0  0  0  0
 23 24  1  0  0  0  0
 23 33  1  0  0  0  0
 24 34  1  6  0  0  0
 24 29  1  0  0  0  0
 24 25  1  0  0  0  0
 25 35  1  0  0  0  0
 25 36  1  0  0  0  0
 26 25  1  0  0  0  0
 26 38  1  0  0  0  0
 27 26  1  0  0  0  0
 28 27  2  0  0  0  0
 29 32  1  0  0  0  0
 30 29  2  0  0  0  0
 31 27  1  0  0  0  0
 37 26  1  0  0  0  0
 39 31  1  0  0  0  0
M  END
$$$$
