TGF.pdb
 OpenBabel07022419123D

 43 43  0  0  1  0  0  0  0  0999 V2000
    2.2850   -3.2770   -3.2080 C   0  0  0  0  0  0  0  0  0  0  0  0
    3.1360   -2.8150   -2.0630 C   0  0  1  0  0  0  0  0  0  0  0  0
    3.7740   -1.6360   -2.4610 O   0  0  0  0  0  0  0  0  0  0  0  0
    2.3500   -2.5620   -0.7990 C   0  0  2  0  0  0  0  0  0  0  0  0
    1.6630   -3.7060   -0.3140 N   0  0  0  0  0  0  0  0  0  0  0  0
    1.3840   -1.4410   -0.9710 C   0  0  0  0  0  0  0  0  0  0  0  0
    1.7640   -0.3050   -1.3970 O   0  0  0  0  0  0  0  0  0  0  0  0
    1.5980   -4.0470   -2.8560 H   0  0  0  0  0  0  0  0  0  0  0  0
    2.9440   -3.7020   -3.9850 H   0  0  0  0  0  0  0  0  0  0  0  0
    1.7810   -2.3990   -3.6630 H   0  0  0  0  0  0  0  0  0  0  0  0
    3.9380   -3.5640   -1.9110 H   0  0  0  0  0  0  0  0  0  0  0  0
    4.6540   -1.5290   -2.0060 H   0  0  0  0  0  0  0  0  0  0  0  0
    3.0820   -2.2380   -0.0310 H   0  0  0  0  0  0  0  0  0  0  0  0
    1.4950   -3.7390    0.6930 H   0  0  0  0  0  0  0  0  0  0  0  0
    0.9560   -4.1140   -0.9220 H   0  0  0  0  0  0  0  0  0  0  0  0
    0.0010   -1.5670   -0.6760 N   0  0  0  0  0  0  0  0  0  0  0  0
   -0.9770   -0.5200   -0.8110 C   0  0  0  0  0  0  0  0  0  0  0  0
   -0.7180    0.6360    0.0800 C   0  0  0  0  0  0  0  0  0  0  0  0
   -1.4820    1.6670    0.0370 O   0  0  0  0  0  0  0  0  0  0  0  0
   -0.3080   -2.5020   -0.3350 H   0  0  0  0  0  0  0  0  0  0  0  0
   -1.9890   -0.9190   -0.5120 H   0  0  0  0  0  0  0  0  0  0  0  0
   -1.0940   -0.2080   -1.8720 H   0  0  0  0  0  0  0  0  0  0  0  0
    0.3330    0.7040    1.0100 N   0  0  0  0  0  0  0  0  0  0  0  0
    0.5530    1.8730    1.8690 C   0  0  1  0  0  0  0  0  0  0  0  0
    0.3450    1.5000    3.3180 C   0  0  0  0  0  0  0  0  0  0  0  0
   -1.0560    1.0190    3.4430 C   0  0  0  0  0  0  0  0  0  0  0  0
   -1.4030   -0.3060    3.2760 C   0  0  0  0  0  0  0  0  0  0  0  0
   -2.7190   -0.7170    3.3990 C   0  0  0  0  0  0  0  0  0  0  0  0
   -3.7290    0.1920    3.6940 C   0  0  0  0  0  0  0  0  0  0  0  0
   -3.3890    1.5090    3.8610 C   0  0  0  0  0  0  0  0  0  0  0  0
   -2.0850    1.9130    3.7390 C   0  0  0  0  0  0  0  0  0  0  0  0
    1.8410    2.5050    1.5960 C   0  0  0  0  0  0  0  0  0  0  0  0
    2.1930    3.5170    2.2380 O   0  0  0  0  0  0  0  0  0  0  0  0
    2.6680    1.9800    0.6260 O   0  0  0  0  0  0  0  0  0  0  0  0
    0.9850   -0.0790    1.1320 H   0  0  0  0  0  0  0  0  0  0  0  0
   -0.2460    2.5980    1.6110 H   0  0  0  0  0  0  0  0  0  0  0  0
    1.0390    0.6740    3.6020 H   0  0  0  0  0  0  0  0  0  0  0  0
    0.5200    2.4000    3.9300 H   0  0  0  0  0  0  0  0  0  0  0  0
   -0.6050   -1.0260    3.0420 H   0  0  0  0  0  0  0  0  0  0  0  0
   -2.9880   -1.7510    3.2680 H   0  0  0  0  0  0  0  0  0  0  0  0
   -4.7580   -0.1750    3.7830 H   0  0  0  0  0  0  0  0  0  0  0  0
   -4.1590    2.2180    4.0890 H   0  0  0  0  0  0  0  0  0  0  0  0
   -1.7990    2.9520    3.8680 H   0  0  0  0  0  0  0  0  0  0  0  0
  1  8  1  0  0  0  0
  1  2  1  0  0  0  0
  2 11  1  1  0  0  0
  2  4  1  0  0  0  0
  3  2  1  0  0  0  0
  3 12  1  0  0  0  0
  4  5  1  0  0  0  0
  4 13  1  1  0  0  0
  5 14  1  0  0  0  0
  6  4  1  0  0  0  0
  6 16  1  0  0  0  0
  7  6  2  0  0  0  0
  9  1  1  0  0  0  0
 10  1  1  0  0  0  0
 15  5  1  0  0  0  0
 16 20  1  0  0  0  0
 17 16  1  0  0  0  0
 17 21  1  0  0  0  0
 17 18  1  0  0  0  0
 18 23  1  0  0  0  0
 19 18  2  0  0  0  0
 22 17  1  0  0  0  0
 23 35  1  0  0  0  0
 23 24  1  0  0  0  0
 24 36  1  6  0  0  0
 24 25  1  0  0  0  0
 25 26  1  0  0  0  0
 25 37  1  0  0  0  0
 25 38  1  0  0  0  0
 26 31  1  0  0  0  0
 27 28  1  0  0  0  0
 27 26  2  0  0  0  0
 28 29  2  0  0  0  0
 29 41  1  0  0  0  0
 29 30  1  0  0  0  0
 30 42  1  0  0  0  0
 31 30  2  0  0  0  0
 31 43  1  0  0  0  0
 32 24  1  0  0  0  0
 32 33  1  0  0  0  0
 34 32  2  0  0  0  0
 39 27  1  0  0  0  0
 40 28  1  0  0  0  0
M  END
$$$$
