TGG.pdb
 OpenBabel07022419123D

 30 29  0  0  1  0  0  0  0  0999 V2000
   -3.2330   -2.0590    2.2630 C   0  0  0  0  0  0  0  0  0  0  0  0
   -2.0290   -1.5420    1.5180 C   0  0  1  0  0  0  0  0  0  0  0  0
   -2.0710   -0.1960    1.2490 O   0  0  0  0  0  0  0  0  0  0  0  0
   -0.7400   -1.8800    2.2200 C   0  0  2  0  0  0  0  0  0  0  0  0
   -0.6740   -1.1280    3.4560 N   0  0  0  0  0  0  0  0  0  0  0  0
    0.4610   -1.6130    1.4320 C   0  0  0  0  0  0  0  0  0  0  0  0
    1.3480   -0.8150    1.8920 O   0  0  0  0  0  0  0  0  0  0  0  0
   -3.5970   -1.3050    3.0080 H   0  0  0  0  0  0  0  0  0  0  0  0
   -2.9790   -3.0080    2.7830 H   0  0  0  0  0  0  0  0  0  0  0  0
   -4.0320   -2.3130    1.5190 H   0  0  0  0  0  0  0  0  0  0  0  0
   -1.9960   -2.0910    0.5330 H   0  0  0  0  0  0  0  0  0  0  0  0
   -2.3190    0.0080    0.3040 H   0  0  0  0  0  0  0  0  0  0  0  0
   -0.8120   -2.9570    2.5380 H   0  0  0  0  0  0  0  0  0  0  0  0
    0.3050   -0.8980    3.7340 H   0  0  0  0  0  0  0  0  0  0  0  0
   -1.1730   -1.5890    4.2410 H   0  0  0  0  0  0  0  0  0  0  0  0
    0.6260   -2.2530    0.1540 N   0  0  0  0  0  0  0  0  0  0  0  0
    1.7930   -1.9970   -0.6310 C   0  0  0  0  0  0  0  0  0  0  0  0
    1.9640   -0.6010   -1.0690 C   0  0  0  0  0  0  0  0  0  0  0  0
    2.9990   -0.2630   -1.7430 O   0  0  0  0  0  0  0  0  0  0  0  0
   -0.1530   -2.8940   -0.1310 H   0  0  0  0  0  0  0  0  0  0  0  0
    1.6940   -2.6430   -1.5530 H   0  0  0  0  0  0  0  0  0  0  0  0
    2.7170   -2.3150   -0.0940 H   0  0  0  0  0  0  0  0  0  0  0  0
    1.0350    0.4240   -0.7900 N   0  0  0  0  0  0  0  0  0  0  0  0
    1.2470    1.7960   -1.2410 C   0  0  0  0  0  0  0  0  0  0  0  0
    2.4900    2.3420   -0.6780 C   0  0  0  0  0  0  0  0  0  0  0  0
    2.8830    3.4960   -0.9190 O   0  0  0  0  0  0  0  0  0  0  0  0
    3.2580    1.5440    0.1560 O   0  0  0  0  0  0  0  0  0  0  0  0
    0.1740    0.2170   -0.2690 H   0  0  0  0  0  0  0  0  0  0  0  0
    0.3960    2.4220   -0.9630 H   0  0  0  0  0  0  0  0  0  0  0  0
    1.3360    1.8310   -2.3540 H   0  0  0  0  0  0  0  0  0  0  0  0
  1  9  1  0  0  0  0
  1  8  1  0  0  0  0
  2 11  1  6  0  0  0
  2  4  1  0  0  0  0
  2  1  1  0  0  0  0
  3  2  1  0  0  0  0
  4 13  1  1  0  0  0
  4  5  1  0  0  0  0
  5 14  1  0  0  0  0
  5 15  1  0  0  0  0
  6  7  2  0  0  0  0
  6  4  1  0  0  0  0
 10  1  1  0  0  0  0
 12  3  1  0  0  0  0
 16  6  1  0  0  0  0
 17 22  1  0  0  0  0
 17 16  1  0  0  0  0
 18 23  1  0  0  0  0
 18 17  1  0  0  0  0
 19 18  2  0  0  0  0
 20 16  1  0  0  0  0
 21 17  1  0  0  0  0
 23 28  1  0  0  0  0
 24 29  1  0  0  0  0
 24 23  1  0  0  0  0
 24 25  1  0  0  0  0
 25 27  1  0  0  0  0
 26 25  2  0  0  0  0
 30 24  1  0  0  0  0
M  END
$$$$
