TGI.pdb
 OpenBabel07022419123D

 42 41  0  0  1  0  0  0  0  0999 V2000
   -3.5120    1.6540    4.5140 C   0  0  0  0  0  0  0  0  0  0  0  0
   -3.7970    0.2560    4.0150 C   0  0  1  0  0  0  0  0  0  0  0  0
   -4.5250    0.3170    2.8550 O   0  0  0  0  0  0  0  0  0  0  0  0
   -2.5300   -0.5540    3.9060 C   0  0  2  0  0  0  0  0  0  0  0  0
   -1.8880   -0.5150    5.2070 N   0  0  0  0  0  0  0  0  0  0  0  0
   -1.6040   -0.0790    2.8830 C   0  0  0  0  0  0  0  0  0  0  0  0
   -0.4420    0.2870    3.1960 O   0  0  0  0  0  0  0  0  0  0  0  0
   -2.9450    1.6040    5.4660 H   0  0  0  0  0  0  0  0  0  0  0  0
   -3.0370    2.2980    3.7510 H   0  0  0  0  0  0  0  0  0  0  0  0
   -4.5070    2.1100    4.7650 H   0  0  0  0  0  0  0  0  0  0  0  0
   -4.4240   -0.2350    4.7900 H   0  0  0  0  0  0  0  0  0  0  0  0
   -5.0360   -0.5120    2.6810 H   0  0  0  0  0  0  0  0  0  0  0  0
   -2.8490   -1.6190    3.7480 H   0  0  0  0  0  0  0  0  0  0  0  0
   -2.5780   -0.6560    5.9830 H   0  0  0  0  0  0  0  0  0  0  0  0
   -1.3280    0.3660    5.3260 H   0  0  0  0  0  0  0  0  0  0  0  0
   -1.9510   -0.0050    1.5010 N   0  0  0  0  0  0  0  0  0  0  0  0
   -1.0510    0.4590    0.4820 C   0  0  0  0  0  0  0  0  0  0  0  0
    0.1500   -0.4090    0.4550 C   0  0  0  0  0  0  0  0  0  0  0  0
    0.2300   -1.3690    1.2620 O   0  0  0  0  0  0  0  0  0  0  0  0
   -2.9280   -0.3180    1.2710 H   0  0  0  0  0  0  0  0  0  0  0  0
   -1.5500    0.3580   -0.4980 H   0  0  0  0  0  0  0  0  0  0  0  0
   -0.7890    1.5310    0.5920 H   0  0  0  0  0  0  0  0  0  0  0  0
    4.9220   -2.1220   -2.3340 C   0  0  0  0  0  0  0  0  0  0  0  0
    3.5890   -2.7190   -2.0360 C   0  0  0  0  0  0  0  0  0  0  0  0
    2.4810   -1.7740   -1.7610 C   0  0  2  0  0  0  0  0  0  0  0  0
    2.2670   -0.8250   -2.9370 C   0  0  0  0  0  0  0  0  0  0  0  0
    2.4210   -1.1090   -0.4380 C   0  0  2  0  0  0  0  0  0  0  0  0
    1.2280   -0.2210   -0.4340 N   0  0  0  0  0  0  0  0  0  0  0  0
    3.5590   -0.2690   -0.0490 C   0  0  0  0  0  0  0  0  0  0  0  0
    3.4020    0.9870    0.0780 O   0  0  0  0  0  0  0  0  0  0  0  0
    4.8350   -0.7750    0.2020 O   0  0  0  0  0  0  0  0  0  0  0  0
    5.2310   -2.4820   -3.3620 H   0  0  0  0  0  0  0  0  0  0  0  0
    5.6980   -2.4910   -1.6610 H   0  0  0  0  0  0  0  0  0  0  0  0
    4.8990   -1.0110   -2.4650 H   0  0  0  0  0  0  0  0  0  0  0  0
    3.7400   -3.4600   -1.2090 H   0  0  0  0  0  0  0  0  0  0  0  0
    3.2570   -3.3450   -2.9230 H   0  0  0  0  0  0  0  0  0  0  0  0
    1.5270   -2.4500   -1.8380 H   0  0  0  0  0  0  0  0  0  0  0  0
    1.1940   -0.5730   -3.0430 H   0  0  0  0  0  0  0  0  0  0  0  0
    2.8980    0.0650   -2.7460 H   0  0  0  0  0  0  0  0  0  0  0  0
    2.6610   -1.3460   -3.8380 H   0  0  0  0  0  0  0  0  0  0  0  0
    2.2470   -1.8730    0.3630 H   0  0  0  0  0  0  0  0  0  0  0  0
    1.1990    0.5530   -1.1090 H   0  0  0  0  0  0  0  0  0  0  0  0
  1 10  1  0  0  0  0
  1  8  1  0  0  0  0
  2  1  1  0  0  0  0
  2 11  1  1  0  0  0
  3  2  1  0  0  0  0
  4 13  1  6  0  0  0
  4  2  1  0  0  0  0
  4  5  1  0  0  0  0
  5 15  1  0  0  0  0
  5 14  1  0  0  0  0
  6  7  2  0  0  0  0
  6  4  1  0  0  0  0
  9  1  1  0  0  0  0
 12  3  1  0  0  0  0
 16  6  1  0  0  0  0
 17 22  1  0  0  0  0
 17 16  1  0  0  0  0
 18 17  1  0  0  0  0
 18 19  2  0  0  0  0
 20 16  1  0  0  0  0
 21 17  1  0  0  0  0
 23 24  1  0  0  0  0
 23 33  1  0  0  0  0
 24 25  1  0  0  0  0
 24 35  1  0  0  0  0
 25 37  1  6  0  0  0
 25 27  1  0  0  0  0
 26 39  1  0  0  0  0
 26 25  1  0  0  0  0
 27 28  1  0  0  0  0
 27 29  1  0  0  0  0
 27 41  1  1  0  0  0
 28 18  1  0  0  0  0
 29 30  2  0  0  0  0
 29 31  1  0  0  0  0
 32 23  1  0  0  0  0
 34 23  1  0  0  0  0
 36 24  1  0  0  0  0
 38 26  1  0  0  0  0
 40 26  1  0  0  0  0
 42 28  1  0  0  0  0
M  END
$$$$
