TGK.pdb
 OpenBabel07022419123D

 44 43  0  0  1  0  0  0  0  0999 V2000
   -0.7000   -6.6390    1.2370 C   0  0  0  0  0  0  0  0  0  0  0  0
   -0.8720   -5.1570    0.8840 C   0  0  1  0  0  0  0  0  0  0  0  0
   -1.0720   -4.4960    2.0820 O   0  0  0  0  0  0  0  0  0  0  0  0
    0.3940   -4.7410    0.1820 C   0  0  2  0  0  0  0  0  0  0  0  0
    1.5640   -5.0030    0.9980 N   0  0  0  0  0  0  0  0  0  0  0  0
    0.3660   -3.3770   -0.3440 C   0  0  0  0  0  0  0  0  0  0  0  0
    1.3130   -2.6040   -0.0530 O   0  0  0  0  0  0  0  0  0  0  0  0
   -1.6990   -7.1070    1.3960 H   0  0  0  0  0  0  0  0  0  0  0  0
   -0.1810   -6.7220    2.2360 H   0  0  0  0  0  0  0  0  0  0  0  0
   -0.0900   -7.1590    0.4800 H   0  0  0  0  0  0  0  0  0  0  0  0
   -1.7030   -5.0920    0.1830 H   0  0  0  0  0  0  0  0  0  0  0  0
   -2.0010   -4.3770    2.3400 H   0  0  0  0  0  0  0  0  0  0  0  0
    0.4880   -5.4340   -0.7060 H   0  0  0  0  0  0  0  0  0  0  0  0
    2.3730   -4.3990    0.7290 H   0  0  0  0  0  0  0  0  0  0  0  0
    1.3610   -4.7480    2.0060 H   0  0  0  0  0  0  0  0  0  0  0  0
   -0.6560   -2.8470   -1.1680 N   0  0  0  0  0  0  0  0  0  0  0  0
   -0.6380   -1.4850   -1.6660 C   0  0  0  0  0  0  0  0  0  0  0  0
   -0.6340   -0.5820   -0.4830 C   0  0  0  0  0  0  0  0  0  0  0  0
   -0.6460   -1.0270    0.7130 O   0  0  0  0  0  0  0  0  0  0  0  0
   -1.4440   -3.4520   -1.4260 H   0  0  0  0  0  0  0  0  0  0  0  0
    0.3260   -1.2880   -2.2190 H   0  0  0  0  0  0  0  0  0  0  0  0
   -1.5040   -1.2970   -2.3270 H   0  0  0  0  0  0  0  0  0  0  0  0
   -0.6160    0.8310   -0.6180 N   0  0  0  0  0  0  0  0  0  0  0  0
   -0.6110    1.7160    0.5530 C   0  0  1  0  0  0  0  0  0  0  0  0
    0.6130    2.5760    0.5480 C   0  0  0  0  0  0  0  0  0  0  0  0
    0.6490    3.4830    1.7350 C   0  0  0  0  0  0  0  0  0  0  0  0
    1.9100    4.3380    1.7540 C   0  0  0  0  0  0  0  0  0  0  0  0
    3.1530    3.4910    1.8050 C   0  0  0  0  0  0  0  0  0  0  0  0
    3.2100    2.6500    2.9690 N   0  0  0  0  0  0  0  0  0  0  0  0
   -1.8590    2.5010    0.5050 C   0  0  0  0  0  0  0  0  0  0  0  0
   -2.6720    2.3930   -0.4800 O   0  0  0  0  0  0  0  0  0  0  0  0
   -2.2350    3.3780    1.4840 O   0  0  0  0  0  0  0  0  0  0  0  0
   -0.6050    1.2450   -1.5740 H   0  0  0  0  0  0  0  0  0  0  0  0
   -0.6240    1.1290    1.4870 H   0  0  0  0  0  0  0  0  0  0  0  0
    0.5690    3.1620   -0.4180 H   0  0  0  0  0  0  0  0  0  0  0  0
    1.5510    1.9790    0.4410 H   0  0  0  0  0  0  0  0  0  0  0  0
    0.4580    2.9660    2.6870 H   0  0  0  0  0  0  0  0  0  0  0  0
   -0.1760    4.2480    1.6170 H   0  0  0  0  0  0  0  0  0  0  0  0
    1.8390    5.0080    2.6160 H   0  0  0  0  0  0  0  0  0  0  0  0
    1.9180    4.9330    0.8380 H   0  0  0  0  0  0  0  0  0  0  0  0
    4.0100    4.2190    1.9030 H   0  0  0  0  0  0  0  0  0  0  0  0
    3.3000    2.9290    0.8820 H   0  0  0  0  0  0  0  0  0  0  0  0
    2.5740    2.9180    3.7300 H   0  0  0  0  0  0  0  0  0  0  0  0
    3.2230    1.6390    2.7480 H   0  0  0  0  0  0  0  0  0  0  0  0
  1  8  1  0  0  0  0
  1  9  1  0  0  0  0
  2 11  1  6  0  0  0
  2  1  1  0  0  0  0
  2  3  1  0  0  0  0
  3 12  1  0  0  0  0
  4 13  1  6  0  0  0
  4  2  1  0  0  0  0
  4  5  1  0  0  0  0
  5 15  1  0  0  0  0
  6  7  2  0  0  0  0
  6  4  1  0  0  0  0
 10  1  1  0  0  0  0
 14  5  1  0  0  0  0
 16  6  1  0  0  0  0
 17 16  1  0  0  0  0
 17 18  1  0  0  0  0
 18 19  2  0  0  0  0
 20 16  1  0  0  0  0
 21 17  1  0  0  0  0
 22 17  1  0  0  0  0
 23 18  1  0  0  0  0
 23 24  1  0  0  0  0
 24 34  1  1  0  0  0
 25 24  1  0  0  0  0
 25 26  1  0  0  0  0
 26 27  1  0  0  0  0
 26 37  1  0  0  0  0
 27 28  1  0  0  0  0
 27 39  1  0  0  0  0
 28 41  1  0  0  0  0
 28 29  1  0  0  0  0
 29 43  1  0  0  0  0
 30 24  1  0  0  0  0
 30 32  1  0  0  0  0
 31 30  2  0  0  0  0
 33 23  1  0  0  0  0
 35 25  1  0  0  0  0
 36 25  1  0  0  0  0
 38 26  1  0  0  0  0
 40 27  1  0  0  0  0
 42 28  1  0  0  0  0
 44 29  1  0  0  0  0
M  END
$$$$
