TGP.pdb
 OpenBabel07022419123D

 37 37  0  0  1  0  0  0  0  0999 V2000
   -0.7600   -3.5110    4.0230 C   0  0  0  0  0  0  0  0  0  0  0  0
    0.2890   -3.1360    2.9970 C   0  0  1  0  0  0  0  0  0  0  0  0
    0.7120   -4.3450    2.4000 O   0  0  0  0  0  0  0  0  0  0  0  0
   -0.3010   -2.2870    1.9290 C   0  0  2  0  0  0  0  0  0  0  0  0
   -1.4310   -2.9450    1.3090 N   0  0  0  0  0  0  0  0  0  0  0  0
    0.6100   -1.8000    0.9130 C   0  0  0  0  0  0  0  0  0  0  0  0
    0.3060   -2.0070   -0.3060 O   0  0  0  0  0  0  0  0  0  0  0  0
   -1.7480   -3.3520    3.5540 H   0  0  0  0  0  0  0  0  0  0  0  0
   -0.6430   -4.5690    4.3360 H   0  0  0  0  0  0  0  0  0  0  0  0
   -0.6190   -2.8700    4.9100 H   0  0  0  0  0  0  0  0  0  0  0  0
    1.1460   -2.7300    3.5150 H   0  0  0  0  0  0  0  0  0  0  0  0
    1.4560   -4.7380    2.9100 H   0  0  0  0  0  0  0  0  0  0  0  0
   -0.7350   -1.3780    2.4460 H   0  0  0  0  0  0  0  0  0  0  0  0
   -1.3160   -3.9780    1.2500 H   0  0  0  0  0  0  0  0  0  0  0  0
   -2.3320   -2.6570    1.7280 H   0  0  0  0  0  0  0  0  0  0  0  0
    1.8230   -1.1050    1.1810 N   0  0  0  0  0  0  0  0  0  0  0  0
    2.6790   -0.6380    0.1650 C   0  0  0  0  0  0  0  0  0  0  0  0
    2.2350    0.3950   -0.7530 C   0  0  0  0  0  0  0  0  0  0  0  0
    3.1150    0.6520   -1.6840 O   0  0  0  0  0  0  0  0  0  0  0  0
    2.0430   -0.9600    2.1830 H   0  0  0  0  0  0  0  0  0  0  0  0
    3.6990   -0.3520    0.6020 H   0  0  0  0  0  0  0  0  0  0  0  0
    2.9970   -1.5140   -0.5020 H   0  0  0  0  0  0  0  0  0  0  0  0
    1.0730    1.1510   -0.8250 N   0  0  0  0  0  0  0  0  0  0  0  0
    0.8160    2.1290   -1.9100 C   0  0  0  0  0  0  0  0  0  0  0  0
   -0.0610    3.1930   -1.3380 C   0  0  0  0  0  0  0  0  0  0  0  0
   -0.2030    2.8250    0.1260 C   0  0  0  0  0  0  0  0  0  0  0  0
   -0.0840    1.2840    0.0090 C   0  0  1  0  0  0  0  0  0  0  0  0
   -1.2610    0.7420   -0.6770 C   0  0  0  0  0  0  0  0  0  0  0  0
   -1.1890    0.2360   -1.8200 O   0  0  0  0  0  0  0  0  0  0  0  0
   -2.5170    0.7750   -0.0610 O   0  0  0  0  0  0  0  0  0  0  0  0
    1.8010    2.6200   -2.1640 H   0  0  0  0  0  0  0  0  0  0  0  0
    0.3900    1.6310   -2.7740 H   0  0  0  0  0  0  0  0  0  0  0  0
    0.3510    4.2180   -1.4450 H   0  0  0  0  0  0  0  0  0  0  0  0
   -1.0870    3.2040   -1.7920 H   0  0  0  0  0  0  0  0  0  0  0  0
   -1.1610    3.1150    0.5590 H   0  0  0  0  0  0  0  0  0  0  0  0
    0.6710    3.1600    0.6950 H   0  0  0  0  0  0  0  0  0  0  0  0
    0.0640    0.9260    1.0480 H   0  0  0  0  0  0  0  0  0  0  0  0
  1  9  1  0  0  0  0
  1 10  1  0  0  0  0
  2 11  1  1  0  0  0
  2  1  1  0  0  0  0
  3 12  1  0  0  0  0
  3  2  1  0  0  0  0
  4 13  1  1  0  0  0
  4  2  1  0  0  0  0
  5 15  1  0  0  0  0
  5  4  1  0  0  0  0
  6 16  1  0  0  0  0
  6  4  1  0  0  0  0
  7  6  2  0  0  0  0
  8  1  1  0  0  0  0
 14  5  1  0  0  0  0
 16 20  1  0  0  0  0
 17 21  1  0  0  0  0
 17 16  1  0  0  0  0
 18 17  1  0  0  0  0
 19 18  2  0  0  0  0
 22 17  1  0  0  0  0
 23 18  1  0  0  0  0
 23 27  1  0  0  0  0
 24 25  1  0  0  0  0
 24 23  1  0  0  0  0
 25 26  1  0  0  0  0
 26 35  1  0  0  0  0
 26 36  1  0  0  0  0
 27 26  1  0  0  0  0
 27 37  1  1  0  0  0
 28 30  1  0  0  0  0
 28 27  1  0  0  0  0
 29 28  2  0  0  0  0
 31 24  1  0  0  0  0
 32 24  1  0  0  0  0
 33 25  1  0  0  0  0
 34 25  1  0  0  0  0
M  END
$$$$
