TGQ.pdb
 OpenBabel07022419123D

 40 39  0  0  1  0  0  0  0  0999 V2000
   -1.2130   -2.5660   -0.8470 C   0  0  0  0  0  0  0  0  0  0  0  0
   -1.2970   -2.7260    0.6550 C   0  0  1  0  0  0  0  0  0  0  0  0
   -2.4370   -3.5520    0.8520 O   0  0  0  0  0  0  0  0  0  0  0  0
   -0.1130   -3.4640    1.2330 C   0  0  2  0  0  0  0  0  0  0  0  0
   -0.3930   -3.7000    2.6680 N   0  0  0  0  0  0  0  0  0  0  0  0
    1.1770   -2.7980    1.0650 C   0  0  0  0  0  0  0  0  0  0  0  0
    1.7540   -2.3880    2.1370 O   0  0  0  0  0  0  0  0  0  0  0  0
   -2.2310   -2.3620   -1.2790 H   0  0  0  0  0  0  0  0  0  0  0  0
   -0.5920   -1.7010   -1.1200 H   0  0  0  0  0  0  0  0  0  0  0  0
   -0.7980   -3.5000   -1.3070 H   0  0  0  0  0  0  0  0  0  0  0  0
   -1.4910   -1.7570    1.1060 H   0  0  0  0  0  0  0  0  0  0  0  0
   -2.7020   -3.5250    1.8160 H   0  0  0  0  0  0  0  0  0  0  0  0
   -0.0720   -4.4630    0.7700 H   0  0  0  0  0  0  0  0  0  0  0  0
   -0.8980   -4.6110    2.7720 H   0  0  0  0  0  0  0  0  0  0  0  0
   -1.0130   -2.9660    3.0530 H   0  0  0  0  0  0  0  0  0  0  0  0
    1.8620   -2.5540   -0.1300 N   0  0  0  0  0  0  0  0  0  0  0  0
    3.1290   -1.8680   -0.1490 C   0  0  0  0  0  0  0  0  0  0  0  0
    3.0520   -0.4690    0.3400 C   0  0  0  0  0  0  0  0  0  0  0  0
    4.1130    0.2410    0.4220 O   0  0  0  0  0  0  0  0  0  0  0  0
    1.4620   -2.8720   -1.0140 H   0  0  0  0  0  0  0  0  0  0  0  0
    3.8920   -2.4010    0.4660 H   0  0  0  0  0  0  0  0  0  0  0  0
    3.5380   -1.8190   -1.1830 H   0  0  0  0  0  0  0  0  0  0  0  0
   -2.6490    1.7820    0.5460 N   0  0  0  0  0  0  0  0  0  0  0  0
   -1.2810    2.1440    0.9000 C   0  0  0  0  0  0  0  0  0  0  0  0
   -1.1450    2.3780    2.1200 O   0  0  0  0  0  0  0  0  0  0  0  0
   -0.2500    2.1970   -0.1420 C   0  0  0  0  0  0  0  0  0  0  0  0
    1.1250    2.4800    0.2840 C   0  0  0  0  0  0  0  0  0  0  0  0
    1.8030    1.5580    1.2250 C   0  0  2  0  0  0  0  0  0  0  0  0
    1.8710    0.1950    0.7430 N   0  0  0  0  0  0  0  0  0  0  0  0
    1.4790    1.7120    2.6440 C   0  0  0  0  0  0  0  0  0  0  0  0
    1.1500    0.7540    3.3770 O   0  0  0  0  0  0  0  0  0  0  0  0
    1.5420    2.9760    3.2070 O   0  0  0  0  0  0  0  0  0  0  0  0
   -2.9640    2.0790   -0.4010 H   0  0  0  0  0  0  0  0  0  0  0  0
   -3.2730    1.2710    1.1730 H   0  0  0  0  0  0  0  0  0  0  0  0
   -0.5590    3.0630   -0.8210 H   0  0  0  0  0  0  0  0  0  0  0  0
   -0.3300    1.3230   -0.8470 H   0  0  0  0  0  0  0  0  0  0  0  0
    1.1440    3.5070    0.7700 H   0  0  0  0  0  0  0  0  0  0  0  0
    1.7930    2.6170   -0.6240 H   0  0  0  0  0  0  0  0  0  0  0  0
    2.9130    1.8930    1.1790 H   0  0  0  0  0  0  0  0  0  0  0  0
    0.9530   -0.3280    0.6780 H   0  0  0  0  0  0  0  0  0  0  0  0
  1  2  1  0  0  0  0
  2  3  1  0  0  0  0
  2 11  1  1  0  0  0
  2  4  1  0  0  0  0
  3 12  1  0  0  0  0
  4 13  1  6  0  0  0
  4  5  1  0  0  0  0
  5 14  1  0  0  0  0
  5 15  1  0  0  0  0
  6  4  1  0  0  0  0
  6  7  2  0  0  0  0
  8  1  1  0  0  0  0
  9  1  1  0  0  0  0
 10  1  1  0  0  0  0
 16  6  1  0  0  0  0
 17 16  1  0  0  0  0
 17 18  1  0  0  0  0
 17 21  1  0  0  0  0
 18 19  2  0  0  0  0
 18 29  1  0  0  0  0
 20 16  1  0  0  0  0
 22 17  1  0  0  0  0
 23 24  1  0  0  0  0
 23 34  1  0  0  0  0
 24 25  2  0  0  0  0
 26 27  1  0  0  0  0
 26 24  1  0  0  0  0
 27 37  1  0  0  0  0
 27 28  1  0  0  0  0
 28 39  1  6  0  0  0
 28 30  1  0  0  0  0
 29 28  1  0  0  0  0
 30 32  2  0  0  0  0
 30 31  1  0  0  0  0
 33 23  1  0  0  0  0
 35 26  1  0  0  0  0
 36 26  1  0  0  0  0
 38 27  1  0  0  0  0
 40 29  1  0  0  0  0
M  END
$$$$
