TGT.pdb
 OpenBabel07022419123D

 37 36  0  0  1  0  0  0  0  0999 V2000
   -2.1190   -4.1060    1.9870 C   0  0  0  0  0  0  0  0  0  0  0  0
   -0.8220   -3.4220    1.6670 C   0  0  1  0  0  0  0  0  0  0  0  0
    0.1580   -3.9300    2.5300 O   0  0  0  0  0  0  0  0  0  0  0  0
   -0.3990   -3.7100    0.2390 C   0  0  2  0  0  0  0  0  0  0  0  0
   -0.2540   -5.1120   -0.0060 N   0  0  0  0  0  0  0  0  0  0  0  0
    0.8840   -3.0420   -0.0910 C   0  0  0  0  0  0  0  0  0  0  0  0
    1.9020   -3.6530   -0.5140 O   0  0  0  0  0  0  0  0  0  0  0  0
   -2.8440   -4.0750    1.1420 H   0  0  0  0  0  0  0  0  0  0  0  0
   -2.6220   -3.6340    2.8620 H   0  0  0  0  0  0  0  0  0  0  0  0
   -1.9410   -5.1830    2.2650 H   0  0  0  0  0  0  0  0  0  0  0  0
   -0.9410   -2.3400    1.8160 H   0  0  0  0  0  0  0  0  0  0  0  0
   -0.0710   -3.7170    3.4700 H   0  0  0  0  0  0  0  0  0  0  0  0
   -1.2170   -3.3300   -0.4260 H   0  0  0  0  0  0  0  0  0  0  0  0
   -0.6170   -5.3530   -0.9430 H   0  0  0  0  0  0  0  0  0  0  0  0
    0.7380   -5.3670    0.1280 H   0  0  0  0  0  0  0  0  0  0  0  0
    1.0390   -1.6060    0.0600 N   0  0  0  0  0  0  0  0  0  0  0  0
    2.2690   -0.9620   -0.2560 C   0  0  0  0  0  0  0  0  0  0  0  0
    2.2530    0.4930   -0.0460 C   0  0  0  0  0  0  0  0  0  0  0  0
    3.2920    1.2010   -0.2900 O   0  0  0  0  0  0  0  0  0  0  0  0
    0.1820   -1.1430    0.4090 H   0  0  0  0  0  0  0  0  0  0  0  0
    2.5390   -1.0910   -1.3550 H   0  0  0  0  0  0  0  0  0  0  0  0
    3.1480   -1.4450    0.2550 H   0  0  0  0  0  0  0  0  0  0  0  0
   -1.2260    2.5660   -0.0240 C   0  0  0  0  0  0  0  0  0  0  0  0
    0.1100    3.2240   -0.3020 C   0  0  1  0  0  0  0  0  0  0  0  0
    0.0380    4.6030   -0.2060 O   0  0  0  0  0  0  0  0  0  0  0  0
    1.1650    2.6540    0.6190 C   0  0  2  0  0  0  0  0  0  0  0  0
    1.1390    1.1900    0.4210 N   0  0  0  0  0  0  0  0  0  0  0  0
    0.8020    2.9240    2.0280 C   0  0  0  0  0  0  0  0  0  0  0  0
    0.5350    1.9900    2.8370 O   0  0  0  0  0  0  0  0  0  0  0  0
    0.7450    4.2180    2.5040 O   0  0  0  0  0  0  0  0  0  0  0  0
   -1.2800    1.5660   -0.4560 H   0  0  0  0  0  0  0  0  0  0  0  0
   -2.0550    3.2000   -0.4180 H   0  0  0  0  0  0  0  0  0  0  0  0
   -1.3820    2.4520    1.0850 H   0  0  0  0  0  0  0  0  0  0  0  0
    0.4350    2.9710   -1.3410 H   0  0  0  0  0  0  0  0  0  0  0  0
    0.9590    4.9320   -0.0510 H   0  0  0  0  0  0  0  0  0  0  0  0
    2.1520    3.0700    0.3510 H   0  0  0  0  0  0  0  0  0  0  0  0
    0.2480    0.7500    0.6540 H   0  0  0  0  0  0  0  0  0  0  0  0
  1 10  1  0  0  0  0
  1  9  1  0  0  0  0
  2 11  1  1  0  0  0
  2  1  1  0  0  0  0
  2  3  1  0  0  0  0
  3 12  1  0  0  0  0
  4 13  1  6  0  0  0
  4  2  1  0  0  0  0
  5 15  1  0  0  0  0
  5  4  1  0  0  0  0
  6 16  1  0  0  0  0
  6  4  1  0  0  0  0
  7  6  2  0  0  0  0
  8  1  1  0  0  0  0
 14  5  1  0  0  0  0
 16 20  1  0  0  0  0
 17 18  1  0  0  0  0
 17 16  1  0  0  0  0
 17 22  1  0  0  0  0
 18 27  1  0  0  0  0
 19 18  2  0  0  0  0
 21 17  1  0  0  0  0
 23 33  1  0  0  0  0
 24 34  1  6  0  0  0
 24 25  1  0  0  0  0
 24 23  1  0  0  0  0
 24 26  1  0  0  0  0
 25 35  1  0  0  0  0
 26 36  1  6  0  0  0
 26 28  1  0  0  0  0
 27 26  1  0  0  0  0
 27 37  1  0  0  0  0
 28 30  2  0  0  0  0
 28 29  1  0  0  0  0
 31 23  1  0  0  0  0
 32 23  1  0  0  0  0
M  END
$$$$
