TGV.pdb
 OpenBabel07022419123D

 39 38  0  0  1  0  0  0  0  0999 V2000
   -1.6350   -4.9130    1.0680 C   0  0  0  0  0  0  0  0  0  0  0  0
   -0.5870   -3.8810    1.4200 C   0  0  1  0  0  0  0  0  0  0  0  0
    0.0020   -4.2460    2.6280 O   0  0  0  0  0  0  0  0  0  0  0  0
    0.4570   -3.8890    0.3130 C   0  0  2  0  0  0  0  0  0  0  0  0
    1.0050   -5.2220    0.2070 N   0  0  0  0  0  0  0  0  0  0  0  0
    1.5510   -2.9320    0.5680 C   0  0  0  0  0  0  0  0  0  0  0  0
    2.7440   -3.3130    0.6610 O   0  0  0  0  0  0  0  0  0  0  0  0
   -1.9780   -4.8200    0.0140 H   0  0  0  0  0  0  0  0  0  0  0  0
   -2.5420   -4.7890    1.6970 H   0  0  0  0  0  0  0  0  0  0  0  0
   -1.2330   -5.9380    1.1760 H   0  0  0  0  0  0  0  0  0  0  0  0
   -1.0690   -2.8850    1.5010 H   0  0  0  0  0  0  0  0  0  0  0  0
    0.7350   -3.6330    2.8020 H   0  0  0  0  0  0  0  0  0  0  0  0
   -0.0040   -3.6530   -0.6670 H   0  0  0  0  0  0  0  0  0  0  0  0
    1.8870   -5.2210   -0.3720 H   0  0  0  0  0  0  0  0  0  0  0  0
    0.3230   -5.9060   -0.2140 H   0  0  0  0  0  0  0  0  0  0  0  0
    1.2970   -1.5340    0.7170 N   0  0  0  0  0  0  0  0  0  0  0  0
    2.3720   -0.6440    0.9610 C   0  0  0  0  0  0  0  0  0  0  0  0
    1.9930    0.7740    1.0990 C   0  0  0  0  0  0  0  0  0  0  0  0
    2.9100    1.6500    1.3220 O   0  0  0  0  0  0  0  0  0  0  0  0
    0.2980   -1.2610    0.6330 H   0  0  0  0  0  0  0  0  0  0  0  0
    3.0930   -0.7220    0.0880 H   0  0  0  0  0  0  0  0  0  0  0  0
    2.9610   -1.0050    1.8370 H   0  0  0  0  0  0  0  0  0  0  0  0
   -1.4480    2.7090   -0.4930 C   0  0  0  0  0  0  0  0  0  0  0  0
   -0.1430    3.3270   -0.0930 C   0  0  0  0  0  0  0  0  0  0  0  0
    0.8920    3.2560   -1.1970 C   0  0  0  0  0  0  0  0  0  0  0  0
    0.4340    2.7110    1.1620 C   0  0  2  0  0  0  0  0  0  0  0  0
    0.6830    1.2970    1.0090 N   0  0  0  0  0  0  0  0  0  0  0  0
   -0.4140    2.9990    2.3510 C   0  0  0  0  0  0  0  0  0  0  0  0
   -0.7520    4.1640    2.6700 O   0  0  0  0  0  0  0  0  0  0  0  0
   -0.8700    1.9700    3.1640 O   0  0  0  0  0  0  0  0  0  0  0  0
   -1.6720    1.7650    0.0450 H   0  0  0  0  0  0  0  0  0  0  0  0
   -1.4270    2.5530   -1.6080 H   0  0  0  0  0  0  0  0  0  0  0  0
   -2.3200    3.3830   -0.3150 H   0  0  0  0  0  0  0  0  0  0  0  0
   -0.3280    4.4050    0.0920 H   0  0  0  0  0  0  0  0  0  0  0  0
    0.5570    3.8290   -2.0880 H   0  0  0  0  0  0  0  0  0  0  0  0
    0.9940    2.2000   -1.5450 H   0  0  0  0  0  0  0  0  0  0  0  0
    1.8350    3.6800   -0.8460 H   0  0  0  0  0  0  0  0  0  0  0  0
    1.4030    3.2100    1.3430 H   0  0  0  0  0  0  0  0  0  0  0  0
   -0.1250    0.6230    0.8250 H   0  0  0  0  0  0  0  0  0  0  0  0
  1 10  1  0  0  0  0
  1  2  1  0  0  0  0
  1  9  1  0  0  0  0
  2 11  1  1  0  0  0
  2  3  1  0  0  0  0
  3 12  1  0  0  0  0
  4 13  1  6  0  0  0
  4  6  1  0  0  0  0
  4  2  1  0  0  0  0
  5  4  1  0  0  0  0
  6  7  2  0  0  0  0
  6 16  1  0  0  0  0
  8  1  1  0  0  0  0
 14  5  1  0  0  0  0
 15  5  1  0  0  0  0
 16 17  1  0  0  0  0
 17 18  1  0  0  0  0
 17 22  1  0  0  0  0
 18 19  2  0  0  0  0
 20 16  1  0  0  0  0
 21 17  1  0  0  0  0
 23 33  1  0  0  0  0
 23 24  1  0  0  0  0
 23 31  1  0  0  0  0
 24 34  1  0  0  0  0
 24 26  1  0  0  0  0
 25 37  1  0  0  0  0
 25 24  1  0  0  0  0
 26 38  1  1  0  0  0
 26 28  1  0  0  0  0
 27 18  1  0  0  0  0
 27 26  1  0  0  0  0
 28 29  2  0  0  0  0
 28 30  1  0  0  0  0
 32 23  1  0  0  0  0
 35 25  1  0  0  0  0
 36 25  1  0  0  0  0
 39 27  1  0  0  0  0
M  END
$$$$
