TGY.pdb
 OpenBabel07022419123D

 44 44  0  0  1  0  0  0  0  0999 V2000
    0.1530   -7.1300   -0.0050 C   0  0  0  0  0  0  0  0  0  0  0  0
    0.5440   -5.6850   -0.0320 C   0  0  1  0  0  0  0  0  0  0  0  0
    1.4490   -5.3610   -1.0180 O   0  0  0  0  0  0  0  0  0  0  0  0
   -0.7070   -4.8380   -0.0780 C   0  0  2  0  0  0  0  0  0  0  0  0
   -1.4190   -4.9570   -1.3130 N   0  0  0  0  0  0  0  0  0  0  0  0
   -0.2620   -3.4150    0.1410 C   0  0  0  0  0  0  0  0  0  0  0  0
    0.3830   -3.1000    1.1740 O   0  0  0  0  0  0  0  0  0  0  0  0
   -0.7280   -7.2110    0.6920 H   0  0  0  0  0  0  0  0  0  0  0  0
   -0.1970   -7.4460   -0.9920 H   0  0  0  0  0  0  0  0  0  0  0  0
    0.9370   -7.7990    0.3920 H   0  0  0  0  0  0  0  0  0  0  0  0
    1.0410   -5.4520    0.9520 H   0  0  0  0  0  0  0  0  0  0  0  0
    2.0050   -6.1840   -1.1950 H   0  0  0  0  0  0  0  0  0  0  0  0
   -1.3640   -5.1800    0.7510 H   0  0  0  0  0  0  0  0  0  0  0  0
   -0.8530   -4.7940   -2.1510 H   0  0  0  0  0  0  0  0  0  0  0  0
   -2.0580   -5.7660   -1.3450 H   0  0  0  0  0  0  0  0  0  0  0  0
   -0.5500   -2.3870   -0.7970 N   0  0  0  0  0  0  0  0  0  0  0  0
   -0.1340   -1.0110   -0.6110 C   0  0  0  0  0  0  0  0  0  0  0  0
   -0.7200   -0.4570    0.6310 C   0  0  0  0  0  0  0  0  0  0  0  0
   -1.4560   -1.1910    1.3290 O   0  0  0  0  0  0  0  0  0  0  0  0
   -1.0970   -2.7010   -1.6530 H   0  0  0  0  0  0  0  0  0  0  0  0
   -0.4490   -0.4460   -1.5130 H   0  0  0  0  0  0  0  0  0  0  0  0
    0.9750   -0.9830   -0.6020 H   0  0  0  0  0  0  0  0  0  0  0  0
    3.7100    5.5300    0.5130 O   0  0  0  0  0  0  0  0  0  0  0  0
    2.8220    4.6760    1.1600 C   0  0  0  0  0  0  0  0  0  0  0  0
    3.0070    3.3110    1.1110 C   0  0  0  0  0  0  0  0  0  0  0  0
    2.1510    2.4290    1.7380 C   0  0  0  0  0  0  0  0  0  0  0  0
    1.0490    2.9080    2.4550 C   0  0  0  0  0  0  0  0  0  0  0  0
    0.1590    1.9210    3.1130 C   0  0  0  0  0  0  0  0  0  0  0  0
   -0.9600    1.4860    2.1760 C   0  0  2  0  0  0  0  0  0  0  0  0
   -0.4280    0.8820    0.9880 N   0  0  0  0  0  0  0  0  0  0  0  0
   -1.8040    2.6690    1.9140 C   0  0  0  0  0  0  0  0  0  0  0  0
   -2.3140    3.2560    2.8870 O   0  0  0  0  0  0  0  0  0  0  0  0
    0.8900    4.2630    2.4880 C   0  0  0  0  0  0  0  0  0  0  0  0
    1.7400    5.1510    1.8650 C   0  0  0  0  0  0  0  0  0  0  0  0
   -2.0630    3.1650    0.6480 O   0  0  0  0  0  0  0  0  0  0  0  0
    3.4740    6.1220   -0.2540 H   0  0  0  0  0  0  0  0  0  0  0  0
    3.8730    2.9370    0.5470 H   0  0  0  0  0  0  0  0  0  0  0  0
    2.3070    1.3650    1.6910 H   0  0  0  0  0  0  0  0  0  0  0  0
   -0.3020    2.3170    4.0420 H   0  0  0  0  0  0  0  0  0  0  0  0
    0.7110    1.0140    3.3950 H   0  0  0  0  0  0  0  0  0  0  0  0
   -1.5930    0.7210    2.6960 H   0  0  0  0  0  0  0  0  0  0  0  0
    0.1930    1.4210    0.3510 H   0  0  0  0  0  0  0  0  0  0  0  0
    0.0380    4.6600    3.0430 H   0  0  0  0  0  0  0  0  0  0  0  0
    1.5980    6.2190    1.9020 H   0  0  0  0  0  0  0  0  0  0  0  0
  1 10  1  0  0  0  0
  1  8  1  0  0  0  0
  2  1  1  0  0  0  0
  2 11  1  1  0  0  0
  3  2  1  0  0  0  0
  4  2  1  0  0  0  0
  4  6  1  0  0  0  0
  4 13  1  1  0  0  0
  5  4  1  0  0  0  0
  6  7  2  0  0  0  0
  9  1  1  0  0  0  0
 12  3  1  0  0  0  0
 14  5  1  0  0  0  0
 15  5  1  0  0  0  0
 16 17  1  0  0  0  0
 16  6  1  0  0  0  0
 17 22  1  0  0  0  0
 17 18  1  0  0  0  0
 18 30  1  0  0  0  0
 18 19  2  0  0  0  0
 20 16  1  0  0  0  0
 21 17  1  0  0  0  0
 23 24  1  0  0  0  0
 24 34  1  0  0  0  0
 25 24  2  0  0  0  0
 25 26  1  0  0  0  0
 26 27  2  0  0  0  0
 27 33  1  0  0  0  0
 27 28  1  0  0  0  0
 28 40  1  0  0  0  0
 28 39  1  0  0  0  0
 29 41  1  1  0  0  0
 29 28  1  0  0  0  0
 30 29  1  0  0  0  0
 31 29  1  0  0  0  0
 31 32  1  0  0  0  0
 33 43  1  0  0  0  0
 34 44  1  0  0  0  0
 34 33  2  0  0  0  0
 35 31  2  0  0  0  0
 36 23  1  0  0  0  0
 37 25  1  0  0  0  0
 38 26  1  0  0  0  0
 42 30  1  0  0  0  0
M  END
$$$$
