THA.pdb
 OpenBabel07022419123D

 43 43  0  0  1  0  0  0  0  0999 V2000
    2.7820   -4.0220   -1.2000 C   0  0  0  0  0  0  0  0  0  0  0  0
    3.5340   -3.1340   -0.2890 C   0  0  1  0  0  0  0  0  0  0  0  0
    4.2960   -2.2280   -1.0220 O   0  0  0  0  0  0  0  0  0  0  0  0
    2.7310   -2.4080    0.7350 C   0  0  2  0  0  0  0  0  0  0  0  0
    1.9140   -3.2650    1.5340 N   0  0  0  0  0  0  0  0  0  0  0  0
    1.9820   -1.2410    0.1880 C   0  0  0  0  0  0  0  0  0  0  0  0
    2.5340   -0.3740   -0.5370 O   0  0  0  0  0  0  0  0  0  0  0  0
    3.4480   -4.8940   -1.4690 H   0  0  0  0  0  0  0  0  0  0  0  0
    1.8630   -4.4580   -0.8070 H   0  0  0  0  0  0  0  0  0  0  0  0
    2.6400   -3.4860   -2.1720 H   0  0  0  0  0  0  0  0  0  0  0  0
    4.2890   -3.7530    0.2800 H   0  0  0  0  0  0  0  0  0  0  0  0
    4.5540   -2.6540   -1.8780 H   0  0  0  0  0  0  0  0  0  0  0  0
    3.4820   -1.9490    1.4490 H   0  0  0  0  0  0  0  0  0  0  0  0
    2.1080   -4.2770    1.3700 H   0  0  0  0  0  0  0  0  0  0  0  0
    1.8070   -2.9900    2.5120 H   0  0  0  0  0  0  0  0  0  0  0  0
    0.6100   -1.0710    0.4710 N   0  0  0  0  0  0  0  0  0  0  0  0
   -0.1820    0.0410   -0.0260 C   0  0  1  0  0  0  0  0  0  0  0  0
   -1.3250   -0.4110   -0.8690 C   0  0  0  0  0  0  0  0  0  0  0  0
   -2.0860    0.7700   -1.3440 C   0  0  0  0  0  0  0  0  0  0  0  0
   -1.8070    1.4460   -2.5330 C   0  0  0  0  0  0  0  0  0  0  0  0
   -2.6700    2.4640   -2.6760 N   0  0  0  0  0  0  0  0  0  0  0  0
   -3.4890    2.4530   -1.6120 C   0  0  0  0  0  0  0  0  0  0  0  0
   -3.1300    1.4180   -0.8010 N   0  0  0  0  0  0  0  0  0  0  0  0
   -0.5710    0.8270    1.1710 C   0  0  0  0  0  0  0  0  0  0  0  0
   -1.2600    1.8670    1.0320 O   0  0  0  0  0  0  0  0  0  0  0  0
    0.1400   -1.7820    1.0700 H   0  0  0  0  0  0  0  0  0  0  0  0
    0.4510    0.7300   -0.6500 H   0  0  0  0  0  0  0  0  0  0  0  0
   -2.0280   -1.0440   -0.2730 H   0  0  0  0  0  0  0  0  0  0  0  0
   -0.9100   -0.9630   -1.7290 H   0  0  0  0  0  0  0  0  0  0  0  0
   -1.0100    1.1670   -3.2130 H   0  0  0  0  0  0  0  0  0  0  0  0
   -2.6570    3.1130   -3.4920 H   0  0  0  0  0  0  0  0  0  0  0  0
   -4.2950    3.1480   -1.4320 H   0  0  0  0  0  0  0  0  0  0  0  0
   -1.4270    0.3810    4.5920 C   0  0  0  0  0  0  0  0  0  0  0  0
   -0.5830    1.2370    3.6680 C   0  0  2  0  0  0  0  0  0  0  0  0
   -0.2100    0.4790    2.4960 N   0  0  0  0  0  0  0  0  0  0  0  0
    0.6100    1.7480    4.3950 C   0  0  0  0  0  0  0  0  0  0  0  0
    0.4120    2.4230    5.4320 O   0  0  0  0  0  0  0  0  0  0  0  0
    1.9060    1.5160    3.9840 O   0  0  0  0  0  0  0  0  0  0  0  0
   -2.1670    1.0280    5.1320 H   0  0  0  0  0  0  0  0  0  0  0  0
   -0.7500   -0.0980    5.3090 H   0  0  0  0  0  0  0  0  0  0  0  0
   -1.9250   -0.3960    3.9900 H   0  0  0  0  0  0  0  0  0  0  0  0
   -1.1800    2.1060    3.3600 H   0  0  0  0  0  0  0  0  0  0  0  0
    0.3630   -0.3800    2.6370 H   0  0  0  0  0  0  0  0  0  0  0  0
  1  9  1  0  0  0  0
  1  2  1  0  0  0  0
  2 11  1  1  0  0  0
  2  4  1  0  0  0  0
  3  2  1  0  0  0  0
  4 13  1  1  0  0  0
  4  5  1  0  0  0  0
  5 15  1  0  0  0  0
  6 16  1  0  0  0  0
  6  4  1  0  0  0  0
  7  6  2  0  0  0  0
  8  1  1  0  0  0  0
 10  1  1  0  0  0  0
 12  3  1  0  0  0  0
 14  5  1  0  0  0  0
 16 26  1  0  0  0  0
 17 27  1  6  0  0  0
 17 16  1  0  0  0  0
 17 24  1  0  0  0  0
 18 28  1  0  0  0  0
 18 17  1  0  0  0  0
 19 18  1  0  0  0  0
 19 23  1  0  0  0  0
 20 19  2  0  0  0  0
 21 20  1  0  0  0  0
 21 22  1  0  0  0  0
 22 32  1  0  0  0  0
 22 23  2  0  0  0  0
 24 35  1  0  0  0  0
 25 24  2  0  0  0  0
 29 18  1  0  0  0  0
 30 20  1  0  0  0  0
 31 21  1  0  0  0  0
 33 39  1  0  0  0  0
 33 40  1  0  0  0  0
 34 42  1  6  0  0  0
 34 36  1  0  0  0  0
 34 33  1  0  0  0  0
 35 43  1  0  0  0  0
 35 34  1  0  0  0  0
 36 37  1  0  0  0  0
 38 36  2  0  0  0  0
 41 33  1  0  0  0  0
M  END
$$$$
