THD.pdb
 OpenBabel07022419123D

 46 46  0  0  1  0  0  0  0  0999 V2000
    2.5040   -3.4820    0.6850 C   0  0  0  0  0  0  0  0  0  0  0  0
    3.2010   -2.2160    1.0700 C   0  0  1  0  0  0  0  0  0  0  0  0
    2.7280   -1.1680    0.3020 O   0  0  0  0  0  0  0  0  0  0  0  0
    2.9810   -1.8630    2.5290 C   0  0  2  0  0  0  0  0  0  0  0  0
    3.4840   -2.9740    3.3110 N   0  0  0  0  0  0  0  0  0  0  0  0
    1.5520   -1.6810    2.8560 C   0  0  0  0  0  0  0  0  0  0  0  0
    1.0210   -2.4490    3.6900 O   0  0  0  0  0  0  0  0  0  0  0  0
    3.1810   -4.1310    0.1250 H   0  0  0  0  0  0  0  0  0  0  0  0
    2.1590   -4.0270    1.6060 H   0  0  0  0  0  0  0  0  0  0  0  0
    1.5640   -3.2710    0.1130 H   0  0  0  0  0  0  0  0  0  0  0  0
    4.3030   -2.3610    0.9530 H   0  0  0  0  0  0  0  0  0  0  0  0
    2.3120   -1.4930   -0.5330 H   0  0  0  0  0  0  0  0  0  0  0  0
    3.5930   -0.9710    2.8180 H   0  0  0  0  0  0  0  0  0  0  0  0
    3.8200   -2.5970    4.2390 H   0  0  0  0  0  0  0  0  0  0  0  0
    2.6900   -3.6400    3.5510 H   0  0  0  0  0  0  0  0  0  0  0  0
    0.7200   -0.6820    2.2870 N   0  0  0  0  0  0  0  0  0  0  0  0
   -0.6650   -0.5040    2.6030 C   0  0  1  0  0  0  0  0  0  0  0  0
   -0.8750    0.8260    3.2700 C   0  0  0  0  0  0  0  0  0  0  0  0
   -0.4880    1.9930    2.4830 C   0  0  0  0  0  0  0  0  0  0  0  0
   -1.2980    2.7030    1.6240 C   0  0  0  0  0  0  0  0  0  0  0  0
   -0.5680    3.7250    1.0870 N   0  0  0  0  0  0  0  0  0  0  0  0
    0.6660    3.6530    1.5990 C   0  0  0  0  0  0  0  0  0  0  0  0
    0.7140    2.5970    2.4490 N   0  0  0  0  0  0  0  0  0  0  0  0
   -1.5430   -0.6090    1.4110 C   0  0  0  0  0  0  0  0  0  0  0  0
   -2.7850   -0.4480    1.4790 O   0  0  0  0  0  0  0  0  0  0  0  0
    1.1500   -0.0380    1.5950 H   0  0  0  0  0  0  0  0  0  0  0  0
   -1.0110   -1.2640    3.3750 H   0  0  0  0  0  0  0  0  0  0  0  0
   -0.3310    0.7660    4.2550 H   0  0  0  0  0  0  0  0  0  0  0  0
   -1.9620    0.8500    3.5710 H   0  0  0  0  0  0  0  0  0  0  0  0
   -2.3350    2.5580    1.3560 H   0  0  0  0  0  0  0  0  0  0  0  0
   -0.9170    4.4400    0.3940 H   0  0  0  0  0  0  0  0  0  0  0  0
    1.4620    4.3410    1.3500 H   0  0  0  0  0  0  0  0  0  0  0  0
   -1.0420   -0.9010    0.1030 N   0  0  0  0  0  0  0  0  0  0  0  0
   -1.8480   -1.0140   -1.0690 C   0  0  1  0  0  0  0  0  0  0  0  0
   -1.4900   -0.1480   -2.2200 C   0  0  0  0  0  0  0  0  0  0  0  0
   -1.5360    1.3100   -1.9420 C   0  0  0  0  0  0  0  0  0  0  0  0
   -0.5400    1.8250   -1.4100 O   0  0  0  0  0  0  0  0  0  0  0  0
   -1.9000   -2.4130   -1.5820 C   0  0  0  0  0  0  0  0  0  0  0  0
   -1.3090   -3.3740   -1.0430 O   0  0  0  0  0  0  0  0  0  0  0  0
   -2.6460    2.0600   -2.2650 O   0  0  0  0  0  0  0  0  0  0  0  0
   -2.6480   -2.6510   -2.7180 O   0  0  0  0  0  0  0  0  0  0  0  0
   -0.0140   -1.0420    0.0010 H   0  0  0  0  0  0  0  0  0  0  0  0
   -2.9020   -0.7610   -0.7570 H   0  0  0  0  0  0  0  0  0  0  0  0
   -0.5380   -0.4410   -2.7210 H   0  0  0  0  0  0  0  0  0  0  0  0
   -2.2700   -0.3320   -3.0100 H   0  0  0  0  0  0  0  0  0  0  0  0
   -2.7760    2.9350   -1.7630 H   0  0  0  0  0  0  0  0  0  0  0  0
  1  2  1  0  0  0  0
  1  9  1  0  0  0  0
  2 11  1  6  0  0  0
  2  4  1  0  0  0  0
  3  2  1  0  0  0  0
  4 13  1  1  0  0  0
  4  6  1  0  0  0  0
  4  5  1  0  0  0  0
  5 15  1  0  0  0  0
  5 14  1  0  0  0  0
  6  7  2  0  0  0  0
  8  1  1  0  0  0  0
 10  1  1  0  0  0  0
 12  3  1  0  0  0  0
 16 17  1  0  0  0  0
 16  6  1  0  0  0  0
 17 18  1  0  0  0  0
 17 27  1  1  0  0  0
 18 29  1  0  0  0  0
 18 28  1  0  0  0  0
 19 18  1  0  0  0  0
 20 19  2  0  0  0  0
 21 22  1  0  0  0  0
 21 20  1  0  0  0  0
 22 23  2  0  0  0  0
 23 19  1  0  0  0  0
 24 25  2  0  0  0  0
 24 17  1  0  0  0  0
 26 16  1  0  0  0  0
 30 20  1  0  0  0  0
 31 21  1  0  0  0  0
 32 22  1  0  0  0  0
 33 24  1  0  0  0  0
 34 43  1  1  0  0  0
 34 33  1  0  0  0  0
 35 36  1  0  0  0  0
 35 34  1  0  0  0  0
 36 37  2  0  0  0  0
 38 34  1  0  0  0  0
 38 39  1  0  0  0  0
 40 36  1  0  0  0  0
 40 46  1  0  0  0  0
 41 38  2  0  0  0  0
 42 33  1  0  0  0  0
 44 35  1  0  0  0  0
 45 35  1  0  0  0  0
M  END
$$$$
