THG.pdb
 OpenBabel07022419123D

 40 40  0  0  1  0  0  0  0  0999 V2000
    1.0780   -4.8890    0.2460 C   0  0  0  0  0  0  0  0  0  0  0  0
    0.4900   -3.5220    0.6150 C   0  0  1  0  0  0  0  0  0  0  0  0
   -0.2410   -3.7350    1.7900 O   0  0  0  0  0  0  0  0  0  0  0  0
    1.6280   -2.5990    0.8770 C   0  0  2  0  0  0  0  0  0  0  0  0
    2.4990   -3.1810    1.8790 N   0  0  0  0  0  0  0  0  0  0  0  0
    1.2790   -1.2490    1.2630 C   0  0  0  0  0  0  0  0  0  0  0  0
    1.7260   -0.7660    2.3330 O   0  0  0  0  0  0  0  0  0  0  0  0
    1.4780   -4.7790   -0.7730 H   0  0  0  0  0  0  0  0  0  0  0  0
    1.8650   -5.0890    0.9960 H   0  0  0  0  0  0  0  0  0  0  0  0
    0.2320   -5.6020    0.2970 H   0  0  0  0  0  0  0  0  0  0  0  0
   -0.1680   -3.2400   -0.2010 H   0  0  0  0  0  0  0  0  0  0  0  0
   -0.6910   -2.9270    2.1070 H   0  0  0  0  0  0  0  0  0  0  0  0
    2.2480   -2.5420   -0.0640 H   0  0  0  0  0  0  0  0  0  0  0  0
    1.8670   -3.4210    2.7020 H   0  0  0  0  0  0  0  0  0  0  0  0
    3.1020   -2.3840    2.2390 H   0  0  0  0  0  0  0  0  0  0  0  0
    0.4190   -0.4240    0.4510 N   0  0  0  0  0  0  0  0  0  0  0  0
    0.0610    0.9170    0.8150 C   0  0  1  0  0  0  0  0  0  0  0  0
    0.4600    1.9370   -0.2170 C   0  0  0  0  0  0  0  0  0  0  0  0
    1.9190    1.9580   -0.4560 C   0  0  0  0  0  0  0  0  0  0  0  0
    2.6280    2.7590   -1.3250 C   0  0  0  0  0  0  0  0  0  0  0  0
    3.9500    2.4610   -1.2390 N   0  0  0  0  0  0  0  0  0  0  0  0
    4.0670    1.4880   -0.3290 C   0  0  0  0  0  0  0  0  0  0  0  0
    2.8410    1.1870    0.1410 N   0  0  0  0  0  0  0  0  0  0  0  0
   -1.3870    1.0400    1.1440 C   0  0  0  0  0  0  0  0  0  0  0  0
   -1.8470    2.1580    1.4810 O   0  0  0  0  0  0  0  0  0  0  0  0
    0.0840   -0.8770   -0.4130 H   0  0  0  0  0  0  0  0  0  0  0  0
    0.5820    1.1980    1.7720 H   0  0  0  0  0  0  0  0  0  0  0  0
   -0.0070    1.6210   -1.1910 H   0  0  0  0  0  0  0  0  0  0  0  0
    0.0610    2.9300    0.0240 H   0  0  0  0  0  0  0  0  0  0  0  0
    2.1930    3.5070   -1.9730 H   0  0  0  0  0  0  0  0  0  0  0  0
    4.7500    2.8790   -1.7570 H   0  0  0  0  0  0  0  0  0  0  0  0
    5.0060    1.0300   -0.0330 H   0  0  0  0  0  0  0  0  0  0  0  0
   -2.2490   -0.0810    1.0840 N   0  0  0  0  0  0  0  0  0  0  0  0
   -3.6450   -0.0480    1.3840 C   0  0  0  0  0  0  0  0  0  0  0  0
   -3.9090    0.3990    2.7970 C   0  0  0  0  0  0  0  0  0  0  0  0
   -5.0600    0.4940    3.2520 O   0  0  0  0  0  0  0  0  0  0  0  0
   -2.7960    0.7010    3.5670 O   0  0  0  0  0  0  0  0  0  0  0  0
   -1.7840   -0.9870    0.7920 H   0  0  0  0  0  0  0  0  0  0  0  0
   -4.0500   -1.0790    1.3250 H   0  0  0  0  0  0  0  0  0  0  0  0
   -4.2370    0.5560    0.6670 H   0  0  0  0  0  0  0  0  0  0  0  0
  1 10  1  0  0  0  0
  1  2  1  0  0  0  0
  1  9  1  0  0  0  0
  2 11  1  6  0  0  0
  2  4  1  0  0  0  0
  2  3  1  0  0  0  0
  3 12  1  0  0  0  0
  4 13  1  6  0  0  0
  4  6  1  0  0  0  0
  4  5  1  0  0  0  0
  5 15  1  0  0  0  0
  5 14  1  0  0  0  0
  6  7  2  0  0  0  0
  8  1  1  0  0  0  0
 16 17  1  0  0  0  0
 16  6  1  0  0  0  0
 17 24  1  0  0  0  0
 17 27  1  1  0  0  0
 18 29  1  0  0  0  0
 18 17  1  0  0  0  0
 19 18  1  0  0  0  0
 19 23  1  0  0  0  0
 20 21  1  0  0  0  0
 20 19  2  0  0  0  0
 21 22  1  0  0  0  0
 22 32  1  0  0  0  0
 22 23  2  0  0  0  0
 24 25  2  0  0  0  0
 26 16  1  0  0  0  0
 28 18  1  0  0  0  0
 30 20  1  0  0  0  0
 31 21  1  0  0  0  0
 33 24  1  0  0  0  0
 33 34  1  0  0  0  0
 34 35  1  0  0  0  0
 35 36  2  0  0  0  0
 35 37  1  0  0  0  0
 38 33  1  0  0  0  0
 39 34  1  0  0  0  0
 40 34  1  0  0  0  0
M  END
$$$$
