THI.pdb
 OpenBabel07022419123D

 52 52  0  0  1  0  0  0  0  0999 V2000
    3.0020   -4.7620    2.2030 C   0  0  0  0  0  0  0  0  0  0  0  0
    2.9440   -4.0480    0.8700 C   0  0  1  0  0  0  0  0  0  0  0  0
    3.3240   -4.9440   -0.1330 O   0  0  0  0  0  0  0  0  0  0  0  0
    1.5300   -3.5580    0.5690 C   0  0  2  0  0  0  0  0  0  0  0  0
    1.5270   -2.9070   -0.7030 N   0  0  0  0  0  0  0  0  0  0  0  0
    1.1790   -2.6210    1.6810 C   0  0  0  0  0  0  0  0  0  0  0  0
    1.1280   -3.0070    2.8760 O   0  0  0  0  0  0  0  0  0  0  0  0
    3.7460   -5.5870    2.1690 H   0  0  0  0  0  0  0  0  0  0  0  0
    3.3690   -4.0740    3.0110 H   0  0  0  0  0  0  0  0  0  0  0  0
    2.0270   -5.2300    2.4750 H   0  0  0  0  0  0  0  0  0  0  0  0
    3.6040   -3.1510    0.9030 H   0  0  0  0  0  0  0  0  0  0  0  0
    2.4720   -5.3570   -0.4750 H   0  0  0  0  0  0  0  0  0  0  0  0
    0.8720   -4.4460    0.5540 H   0  0  0  0  0  0  0  0  0  0  0  0
    0.6500   -3.1050   -1.2490 H   0  0  0  0  0  0  0  0  0  0  0  0
    2.3170   -3.2920   -1.2660 H   0  0  0  0  0  0  0  0  0  0  0  0
    0.8810   -1.2430    1.4450 N   0  0  0  0  0  0  0  0  0  0  0  0
    0.5420   -0.3310    2.4990 C   0  0  1  0  0  0  0  0  0  0  0  0
    1.5410    0.7940    2.6400 C   0  0  0  0  0  0  0  0  0  0  0  0
    1.6600    1.6130    1.4200 C   0  0  0  0  0  0  0  0  0  0  0  0
    0.9270    2.7310    1.1120 C   0  0  0  0  0  0  0  0  0  0  0  0
    1.3200    3.1990   -0.0750 N   0  0  0  0  0  0  0  0  0  0  0  0
    2.2910    2.4010   -0.5320 C   0  0  0  0  0  0  0  0  0  0  0  0
    2.4880    1.4450    0.3820 N   0  0  0  0  0  0  0  0  0  0  0  0
   -0.8360    0.1510    2.3110 C   0  0  0  0  0  0  0  0  0  0  0  0
   -1.4380    0.9610    3.0580 O   0  0  0  0  0  0  0  0  0  0  0  0
    0.9210   -0.9140    0.4560 H   0  0  0  0  0  0  0  0  0  0  0  0
    0.5440   -0.8440    3.5080 H   0  0  0  0  0  0  0  0  0  0  0  0
    1.2980    1.4100    3.5300 H   0  0  0  0  0  0  0  0  0  0  0  0
    2.5210    0.2950    2.9010 H   0  0  0  0  0  0  0  0  0  0  0  0
    0.1510    3.1550    1.7470 H   0  0  0  0  0  0  0  0  0  0  0  0
    0.9290    4.0450   -0.5570 H   0  0  0  0  0  0  0  0  0  0  0  0
    2.8240    2.5250   -1.4960 H   0  0  0  0  0  0  0  0  0  0  0  0
   -1.2450   -0.1570   -1.8380 C   0  0  0  0  0  0  0  0  0  0  0  0
   -2.6920    0.0480   -1.5840 C   0  0  0  0  0  0  0  0  0  0  0  0
   -3.0800    0.8150   -0.3840 C   0  0  2  0  0  0  0  0  0  0  0  0
   -2.5220    2.2150   -0.3400 C   0  0  0  0  0  0  0  0  0  0  0  0
   -2.9080    0.0720    0.9100 C   0  0  2  0  0  0  0  0  0  0  0  0
   -1.5630   -0.3400    1.1760 N   0  0  0  0  0  0  0  0  0  0  0  0
   -3.7550   -1.1570    0.8280 C   0  0  0  0  0  0  0  0  0  0  0  0
   -3.2870   -2.3140    0.9780 O   0  0  0  0  0  0  0  0  0  0  0  0
   -5.1250   -1.0280    0.5740 O   0  0  0  0  0  0  0  0  0  0  0  0
   -0.9920    0.1670   -2.9030 H   0  0  0  0  0  0  0  0  0  0  0  0
   -0.9070   -1.2120   -1.8150 H   0  0  0  0  0  0  0  0  0  0  0  0
   -0.5490    0.4400   -1.2210 H   0  0  0  0  0  0  0  0  0  0  0  0
   -3.1850    0.4690   -2.5130 H   0  0  0  0  0  0  0  0  0  0  0  0
   -3.1490   -0.9870   -1.5250 H   0  0  0  0  0  0  0  0  0  0  0  0
   -4.2130    0.9850   -0.4620 H   0  0  0  0  0  0  0  0  0  0  0  0
   -3.0850    2.8420   -1.0630 H   0  0  0  0  0  0  0  0  0  0  0  0
   -1.4400    2.2490   -0.4920 H   0  0  0  0  0  0  0  0  0  0  0  0
   -2.7390    2.6250    0.6680 H   0  0  0  0  0  0  0  0  0  0  0  0
   -3.3160    0.6780    1.7650 H   0  0  0  0  0  0  0  0  0  0  0  0
   -1.1210   -1.0320    0.5180 H   0  0  0  0  0  0  0  0  0  0  0  0
  1 10  1  0  0  0  0
  1  9  1  0  0  0  0
  2 11  1  1  0  0  0
  2  1  1  0  0  0  0
  3  2  1  0  0  0  0
  4 13  1  6  0  0  0
  4  2  1  0  0  0  0
  4  6  1  0  0  0  0
  5  4  1  0  0  0  0
  6  7  2  0  0  0  0
  8  1  1  0  0  0  0
 12  3  1  0  0  0  0
 14  5  1  0  0  0  0
 15  5  1  0  0  0  0
 16  6  1  0  0  0  0
 16 17  1  0  0  0  0
 17 18  1  0  0  0  0
 17 27  1  1  0  0  0
 18 29  1  0  0  0  0
 18 28  1  0  0  0  0
 19 18  1  0  0  0  0
 20 19  2  0  0  0  0
 20 30  1  0  0  0  0
 21 20  1  0  0  0  0
 22 21  1  0  0  0  0
 22 23  2  0  0  0  0
 23 19  1  0  0  0  0
 24 17  1  0  0  0  0
 24 25  2  0  0  0  0
 26 16  1  0  0  0  0
 31 21  1  0  0  0  0
 32 22  1  0  0  0  0
 33 43  1  0  0  0  0
 33 34  1  0  0  0  0
 33 44  1  0  0  0  0
 34 46  1  0  0  0  0
 34 35  1  0  0  0  0
 35 47  1  6  0  0  0
 35 36  1  0  0  0  0
 35 37  1  0  0  0  0
 36 50  1  0  0  0  0
 37 38  1  0  0  0  0
 37 51  1  1  0  0  0
 38 24  1  0  0  0  0
 39 37  1  0  0  0  0
 39 40  1  0  0  0  0
 41 39  2  0  0  0  0
 42 33  1  0  0  0  0
 45 34  1  0  0  0  0
 48 36  1  0  0  0  0
 49 36  1  0  0  0  0
 52 38  1  0  0  0  0
M  END
$$$$
