THK.pdb
 OpenBabel07022419123D

 54 54  0  0  1  0  0  0  0  0999 V2000
   -0.1220   -0.9650    6.5620 C   0  0  0  0  0  0  0  0  0  0  0  0
    1.0860   -1.6460    5.9740 C   0  0  1  0  0  0  0  0  0  0  0  0
    1.4290   -2.7360    6.8050 O   0  0  0  0  0  0  0  0  0  0  0  0
    0.7270   -2.1930    4.5940 C   0  0  2  0  0  0  0  0  0  0  0  0
    1.8130   -2.9030    3.9960 N   0  0  0  0  0  0  0  0  0  0  0  0
    0.2910   -1.0320    3.7670 C   0  0  0  0  0  0  0  0  0  0  0  0
   -0.6390   -0.2760    4.0980 O   0  0  0  0  0  0  0  0  0  0  0  0
   -0.1430    0.1190    6.3780 H   0  0  0  0  0  0  0  0  0  0  0  0
   -1.0270   -1.4800    6.1290 H   0  0  0  0  0  0  0  0  0  0  0  0
   -0.1530   -1.1380    7.6500 H   0  0  0  0  0  0  0  0  0  0  0  0
    1.9420   -0.9840    5.8460 H   0  0  0  0  0  0  0  0  0  0  0  0
    0.6610   -3.3400    6.8980 H   0  0  0  0  0  0  0  0  0  0  0  0
   -0.1010   -2.9190    4.7640 H   0  0  0  0  0  0  0  0  0  0  0  0
    1.7760   -3.9090    4.2790 H   0  0  0  0  0  0  0  0  0  0  0  0
    2.7430   -2.4870    4.1910 H   0  0  0  0  0  0  0  0  0  0  0  0
    0.9640   -0.7860    2.5610 N   0  0  0  0  0  0  0  0  0  0  0  0
    0.5610    0.3830    1.6800 C   0  0  1  0  0  0  0  0  0  0  0  0
    1.7940    1.1950    1.6580 C   0  0  0  0  0  0  0  0  0  0  0  0
    1.8170    2.4740    0.9800 C   0  0  0  0  0  0  0  0  0  0  0  0
    0.9160    3.2830    0.3700 C   0  0  0  0  0  0  0  0  0  0  0  0
    1.4720    4.4420   -0.0680 N   0  0  0  0  0  0  0  0  0  0  0  0
    2.7620    4.3390    0.2870 C   0  0  0  0  0  0  0  0  0  0  0  0
    2.9990    3.1840    0.9110 N   0  0  0  0  0  0  0  0  0  0  0  0
    0.2290   -0.3220    0.4150 C   0  0  0  0  0  0  0  0  0  0  0  0
    0.4870   -1.5800    0.3600 O   0  0  0  0  0  0  0  0  0  0  0  0
    1.7430   -1.3950    2.2540 H   0  0  0  0  0  0  0  0  0  0  0  0
   -0.2650    0.9130    2.1470 H   0  0  0  0  0  0  0  0  0  0  0  0
    2.1360    1.2880    2.7410 H   0  0  0  0  0  0  0  0  0  0  0  0
    2.6370    0.5780    1.2030 H   0  0  0  0  0  0  0  0  0  0  0  0
   -0.1160    3.0880    0.2470 H   0  0  0  0  0  0  0  0  0  0  0  0
    1.0210    5.2370   -0.5660 H   0  0  0  0  0  0  0  0  0  0  0  0
    3.4750    5.1450    0.0600 H   0  0  0  0  0  0  0  0  0  0  0  0
   -0.3390    0.1940   -0.7490 N   0  0  0  0  0  0  0  0  0  0  0  0
   -0.6180   -0.6020   -1.9410 C   0  0  1  0  0  0  0  0  0  0  0  0
   -2.1180   -0.5200   -2.1400 C   0  0  0  0  0  0  0  0  0  0  0  0
   -2.6020   -1.2840   -3.3310 C   0  0  0  0  0  0  0  0  0  0  0  0
   -2.2720   -2.7590   -3.2340 C   0  0  0  0  0  0  0  0  0  0  0  0
   -2.8150   -3.4100   -4.4940 C   0  0  0  0  0  0  0  0  0  0  0  0
   -2.5040   -4.8190   -4.4100 N   0  0  0  0  0  0  0  0  0  0  0  0
    0.1170   -0.0710   -3.1170 C   0  0  0  0  0  0  0  0  0  0  0  0
    0.8540    0.9400   -3.0010 O   0  0  0  0  0  0  0  0  0  0  0  0
    0.0180   -0.6630   -4.3650 O   0  0  0  0  0  0  0  0  0  0  0  0
   -0.6010    1.1830   -0.8120 H   0  0  0  0  0  0  0  0  0  0  0  0
   -0.3320   -1.6490   -1.8180 H   0  0  0  0  0  0  0  0  0  0  0  0
   -2.6550   -0.8450   -1.2470 H   0  0  0  0  0  0  0  0  0  0  0  0
   -2.4150    0.5550   -2.3110 H   0  0  0  0  0  0  0  0  0  0  0  0
   -3.7270   -1.2360   -3.3090 H   0  0  0  0  0  0  0  0  0  0  0  0
   -2.3040   -0.8360   -4.2970 H   0  0  0  0  0  0  0  0  0  0  0  0
   -2.8350   -3.1860   -2.3800 H   0  0  0  0  0  0  0  0  0  0  0  0
   -1.2140   -2.9710   -3.0960 H   0  0  0  0  0  0  0  0  0  0  0  0
   -3.9060   -3.2980   -4.5620 H   0  0  0  0  0  0  0  0  0  0  0  0
   -2.3690   -2.9600   -5.3970 H   0  0  0  0  0  0  0  0  0  0  0  0
   -2.9410   -5.1930   -3.5240 H   0  0  0  0  0  0  0  0  0  0  0  0
   -1.4770   -4.9670   -4.3130 H   0  0  0  0  0  0  0  0  0  0  0  0
  1 10  1  0  0  0  0
  2 11  1  6  0  0  0
  2  1  1  0  0  0  0
  2  3  1  0  0  0  0
  3 12  1  0  0  0  0
  4 13  1  1  0  0  0
  4  2  1  0  0  0  0
  5 15  1  0  0  0  0
  5 14  1  0  0  0  0
  5  4  1  0  0  0  0
  6  7  2  0  0  0  0
  6  4  1  0  0  0  0
  8  1  1  0  0  0  0
  9  1  1  0  0  0  0
 16  6  1  0  0  0  0
 17 27  1  1  0  0  0
 17 16  1  0  0  0  0
 18 17  1  0  0  0  0
 18 28  1  0  0  0  0
 19 18  1  0  0  0  0
 20 19  2  0  0  0  0
 21 22  1  0  0  0  0
 21 20  1  0  0  0  0
 22 23  2  0  0  0  0
 23 19  1  0  0  0  0
 24 17  1  0  0  0  0
 25 24  2  0  0  0  0
 26 16  1  0  0  0  0
 29 18  1  0  0  0  0
 30 20  1  0  0  0  0
 31 21  1  0  0  0  0
 32 22  1  0  0  0  0
 33 24  1  0  0  0  0
 34 44  1  1  0  0  0
 34 33  1  0  0  0  0
 35 34  1  0  0  0  0
 35 45  1  0  0  0  0
 36 47  1  0  0  0  0
 36 37  1  0  0  0  0
 36 35  1  0  0  0  0
 37 50  1  0  0  0  0
 37 49  1  0  0  0  0
 38 39  1  0  0  0  0
 38 37  1  0  0  0  0
 39 54  1  0  0  0  0
 39 53  1  0  0  0  0
 40 41  1  0  0  0  0
 40 34  1  0  0  0  0
 42 40  2  0  0  0  0
 43 33  1  0  0  0  0
 46 35  1  0  0  0  0
 48 36  1  0  0  0  0
 51 38  1  0  0  0  0
 52 38  1  0  0  0  0
M  END
$$$$
