THN.pdb
 OpenBabel07022419123D

 47 47  0  0  1  0  0  0  0  0999 V2000
    3.6810   -0.2090   -0.6910 C   0  0  0  0  0  0  0  0  0  0  0  0
    3.3310    0.9090    0.2980 C   0  0  1  0  0  0  0  0  0  0  0  0
    2.0440    1.2960   -0.0060 O   0  0  0  0  0  0  0  0  0  0  0  0
    3.4710    0.3660    1.7110 C   0  0  2  0  0  0  0  0  0  0  0  0
    4.8590    0.0030    1.9740 N   0  0  0  0  0  0  0  0  0  0  0  0
    2.5750   -0.7870    1.9730 C   0  0  0  0  0  0  0  0  0  0  0  0
    3.0460   -1.9290    2.2970 O   0  0  0  0  0  0  0  0  0  0  0  0
    3.7350    0.2280   -1.6980 H   0  0  0  0  0  0  0  0  0  0  0  0
    4.6470   -0.6460   -0.4310 H   0  0  0  0  0  0  0  0  0  0  0  0
    2.8940   -0.9870   -0.6370 H   0  0  0  0  0  0  0  0  0  0  0  0
    4.0580    1.7220    0.1540 H   0  0  0  0  0  0  0  0  0  0  0  0
    2.0250    2.1540   -0.5180 H   0  0  0  0  0  0  0  0  0  0  0  0
    3.1980    1.1700    2.4140 H   0  0  0  0  0  0  0  0  0  0  0  0
    5.4390    0.7120    1.4890 H   0  0  0  0  0  0  0  0  0  0  0  0
    5.0150    0.0990    3.0000 H   0  0  0  0  0  0  0  0  0  0  0  0
    1.1780   -0.6680    1.8740 N   0  0  0  0  0  0  0  0  0  0  0  0
    0.2890   -1.8140    2.1290 C   0  0  1  0  0  0  0  0  0  0  0  0
   -0.4910   -1.6420    3.4120 C   0  0  0  0  0  0  0  0  0  0  0  0
   -1.3530   -0.4460    3.4200 C   0  0  0  0  0  0  0  0  0  0  0  0
   -2.6590   -0.3760    3.0110 C   0  0  0  0  0  0  0  0  0  0  0  0
   -3.1070    0.8900    3.1760 N   0  0  0  0  0  0  0  0  0  0  0  0
   -2.0840    1.5820    3.6790 C   0  0  0  0  0  0  0  0  0  0  0  0
   -1.0040    0.7790    3.8340 N   0  0  0  0  0  0  0  0  0  0  0  0
   -0.5630   -2.0780    0.9580 C   0  0  0  0  0  0  0  0  0  0  0  0
   -1.3710   -3.0380    1.0510 O   0  0  0  0  0  0  0  0  0  0  0  0
    0.7490    0.2440    1.6170 H   0  0  0  0  0  0  0  0  0  0  0  0
    0.9700   -2.7060    2.2770 H   0  0  0  0  0  0  0  0  0  0  0  0
    0.2340   -1.6450    4.2670 H   0  0  0  0  0  0  0  0  0  0  0  0
   -1.0710   -2.5960    3.5280 H   0  0  0  0  0  0  0  0  0  0  0  0
   -3.2410   -1.2120    2.6170 H   0  0  0  0  0  0  0  0  0  0  0  0
   -4.0800    1.2160    2.9390 H   0  0  0  0  0  0  0  0  0  0  0  0
   -2.1400    2.6390    3.9220 H   0  0  0  0  0  0  0  0  0  0  0  0
   -4.5420   -0.6490   -0.6260 N   0  0  0  0  0  0  0  0  0  0  0  0
   -3.2460   -0.0750   -0.7810 C   0  0  0  0  0  0  0  0  0  0  0  0
   -2.9480    0.8480    0.0300 O   0  0  0  0  0  0  0  0  0  0  0  0
   -2.3010   -0.5400   -1.8400 C   0  0  0  0  0  0  0  0  0  0  0  0
   -1.4220   -1.6560   -1.3900 C   0  0  2  0  0  0  0  0  0  0  0  0
   -0.5720   -1.3680   -0.2610 N   0  0  0  0  0  0  0  0  0  0  0  0
   -0.5790   -2.1310   -2.5150 C   0  0  0  0  0  0  0  0  0  0  0  0
    0.6530   -2.2360   -2.4200 O   0  0  0  0  0  0  0  0  0  0  0  0
   -1.2080   -2.4630   -3.7050 O   0  0  0  0  0  0  0  0  0  0  0  0
   -5.1980   -0.8670   -1.3980 H   0  0  0  0  0  0  0  0  0  0  0  0
   -4.8490   -0.8670    0.3440 H   0  0  0  0  0  0  0  0  0  0  0  0
   -2.9370   -0.9020   -2.6750 H   0  0  0  0  0  0  0  0  0  0  0  0
   -1.7260    0.3200   -2.2770 H   0  0  0  0  0  0  0  0  0  0  0  0
   -2.1070   -2.5300   -1.1710 H   0  0  0  0  0  0  0  0  0  0  0  0
    0.0990   -0.5670   -0.3520 H   0  0  0  0  0  0  0  0  0  0  0  0
  1 10  1  0  0  0  0
  1  9  1  0  0  0  0
  1  2  1  0  0  0  0
  2 11  1  6  0  0  0
  2  4  1  0  0  0  0
  3  2  1  0  0  0  0
  4  6  1  0  0  0  0
  4  5  1  0  0  0  0
  4 13  1  1  0  0  0
  5 15  1  0  0  0  0
  6  7  2  0  0  0  0
  8  1  1  0  0  0  0
 12  3  1  0  0  0  0
 14  5  1  0  0  0  0
 16  6  1  0  0  0  0
 16 17  1  0  0  0  0
 17 27  1  1  0  0  0
 17 18  1  0  0  0  0
 18 19  1  0  0  0  0
 18 29  1  0  0  0  0
 18 28  1  0  0  0  0
 19 23  1  0  0  0  0
 20 21  1  0  0  0  0
 20 19  2  0  0  0  0
 21 22  1  0  0  0  0
 22 23  2  0  0  0  0
 22 32  1  0  0  0  0
 24 25  2  0  0  0  0
 24 17  1  0  0  0  0
 26 16  1  0  0  0  0
 30 20  1  0  0  0  0
 31 21  1  0  0  0  0
 33 43  1  0  0  0  0
 34 33  1  0  0  0  0
 34 35  2  0  0  0  0
 36 37  1  0  0  0  0
 36 34  1  0  0  0  0
 37 46  1  1  0  0  0
 37 38  1  0  0  0  0
 38 24  1  0  0  0  0
 39 40  1  0  0  0  0
 39 37  1  0  0  0  0
 41 39  2  0  0  0  0
 42 33  1  0  0  0  0
 44 36  1  0  0  0  0
 45 36  1  0  0  0  0
 47 38  1  0  0  0  0
M  END
$$$$
