THP.pdb
 OpenBabel07022419123D

 47 48  0  0  1  0  0  0  0  0999 V2000
    0.5500   -3.9340    0.1210 C   0  0  0  0  0  0  0  0  0  0  0  0
    1.9710   -4.0410    0.6190 C   0  0  1  0  0  0  0  0  0  0  0  0
    2.5160   -5.1750   -0.0280 O   0  0  0  0  0  0  0  0  0  0  0  0
    2.7590   -2.8580    0.0440 C   0  0  2  0  0  0  0  0  0  0  0  0
    4.1790   -3.1190    0.3780 N   0  0  0  0  0  0  0  0  0  0  0  0
    2.4130   -1.5770    0.6680 C   0  0  0  0  0  0  0  0  0  0  0  0
    3.2160   -1.0190    1.4740 O   0  0  0  0  0  0  0  0  0  0  0  0
    0.5660   -3.5570   -0.9160 H   0  0  0  0  0  0  0  0  0  0  0  0
    0.1690   -4.9830    0.0640 H   0  0  0  0  0  0  0  0  0  0  0  0
   -0.0770   -3.3530    0.8160 H   0  0  0  0  0  0  0  0  0  0  0  0
    2.0680   -4.0960    1.7030 H   0  0  0  0  0  0  0  0  0  0  0  0
    1.8210   -5.8940    0.0270 H   0  0  0  0  0  0  0  0  0  0  0  0
    2.6890   -2.8970   -1.0410 H   0  0  0  0  0  0  0  0  0  0  0  0
    4.6470   -2.1880    0.3430 H   0  0  0  0  0  0  0  0  0  0  0  0
    4.5820   -3.8070   -0.2820 H   0  0  0  0  0  0  0  0  0  0  0  0
    1.1930   -0.8530    0.4450 N   0  0  0  0  0  0  0  0  0  0  0  0
    0.9670    0.4250    1.1270 C   0  0  1  0  0  0  0  0  0  0  0  0
    1.2270    1.5140    0.1280 C   0  0  0  0  0  0  0  0  0  0  0  0
    1.1280    2.8890    0.5070 C   0  0  0  0  0  0  0  0  0  0  0  0
    0.8870    3.6150    1.6410 C   0  0  0  0  0  0  0  0  0  0  0  0
    0.9510    4.9330    1.3750 N   0  0  0  0  0  0  0  0  0  0  0  0
    1.2300    5.0520    0.0830 C   0  0  0  0  0  0  0  0  0  0  0  0
    1.3400    3.8590   -0.4530 N   0  0  0  0  0  0  0  0  0  0  0  0
   -0.3830    0.3900    1.6520 C   0  0  0  0  0  0  0  0  0  0  0  0
   -0.5600    0.9770    2.7850 O   0  0  0  0  0  0  0  0  0  0  0  0
    0.5350   -1.2860   -0.1990 H   0  0  0  0  0  0  0  0  0  0  0  0
    1.7650    0.5190    1.8850 H   0  0  0  0  0  0  0  0  0  0  0  0
    0.6350    1.3500   -0.8240 H   0  0  0  0  0  0  0  0  0  0  0  0
    2.2900    1.3310   -0.2260 H   0  0  0  0  0  0  0  0  0  0  0  0
    0.6920    3.2360    2.5950 H   0  0  0  0  0  0  0  0  0  0  0  0
    0.8120    5.7450    2.0350 H   0  0  0  0  0  0  0  0  0  0  0  0
    1.3510    5.9910   -0.4550 H   0  0  0  0  0  0  0  0  0  0  0  0
   -1.5650   -0.1880    1.1170 N   0  0  0  0  0  0  0  0  0  0  0  0
   -1.8680   -0.8350   -0.1260 C   0  0  0  0  0  0  0  0  0  0  0  0
   -3.3190   -0.5350   -0.4110 C   0  0  0  0  0  0  0  0  0  0  0  0
   -3.8000    0.2510    0.8100 C   0  0  0  0  0  0  0  0  0  0  0  0
   -2.8500   -0.2590    1.8730 C   0  0  1  0  0  0  0  0  0  0  0  0
   -3.1340   -1.6230    2.3200 C   0  0  0  0  0  0  0  0  0  0  0  0
   -2.3410   -2.5520    2.0820 O   0  0  0  0  0  0  0  0  0  0  0  0
   -4.3010   -1.8810    3.0170 O   0  0  0  0  0  0  0  0  0  0  0  0
   -1.7610   -1.9340   -0.0820 H   0  0  0  0  0  0  0  0  0  0  0  0
   -1.2890   -0.4010   -0.9850 H   0  0  0  0  0  0  0  0  0  0  0  0
   -3.3710    0.1040   -1.3130 H   0  0  0  0  0  0  0  0  0  0  0  0
   -3.9130   -1.4700   -0.5310 H   0  0  0  0  0  0  0  0  0  0  0  0
   -3.6190    1.3140    0.6490 H   0  0  0  0  0  0  0  0  0  0  0  0
   -4.8490   -0.0010    1.0560 H   0  0  0  0  0  0  0  0  0  0  0  0
   -2.7870    0.4620    2.7210 H   0  0  0  0  0  0  0  0  0  0  0  0
  1  2  1  0  0  0  0
  1 10  1  0  0  0  0
  2 11  1  1  0  0  0
  3 12  1  0  0  0  0
  3  2  1  0  0  0  0
  4 13  1  6  0  0  0
  4  5  1  0  0  0  0
  4  2  1  0  0  0  0
  4  6  1  0  0  0  0
  6  7  2  0  0  0  0
  8  1  1  0  0  0  0
  9  1  1  0  0  0  0
 14  5  1  0  0  0  0
 15  5  1  0  0  0  0
 16  6  1  0  0  0  0
 16 17  1  0  0  0  0
 17 24  1  0  0  0  0
 17 27  1  1  0  0  0
 18 19  1  0  0  0  0
 18 17  1  0  0  0  0
 19 20  2  0  0  0  0
 20 30  1  0  0  0  0
 21 20  1  0  0  0  0
 21 31  1  0  0  0  0
 22 21  1  0  0  0  0
 23 22  2  0  0  0  0
 23 19  1  0  0  0  0
 24 25  2  0  0  0  0
 26 16  1  0  0  0  0
 28 18  1  0  0  0  0
 29 18  1  0  0  0  0
 32 22  1  0  0  0  0
 33 24  1  0  0  0  0
 33 37  1  0  0  0  0
 34 41  1  0  0  0  0
 34 33  1  0  0  0  0
 35 34  1  0  0  0  0
 35 36  1  0  0  0  0
 36 46  1  0  0  0  0
 36 37  1  0  0  0  0
 37 38  1  0  0  0  0
 37 47  1  1  0  0  0
 38 40  1  0  0  0  0
 39 38  2  0  0  0  0
 42 34  1  0  0  0  0
 43 35  1  0  0  0  0
 44 35  1  0  0  0  0
 45 36  1  0  0  0  0
M  END
$$$$
