THQ.pdb
 OpenBabel07022419123D

 50 50  0  0  1  0  0  0  0  0999 V2000
    2.0640   -4.2240    0.3230 C   0  0  0  0  0  0  0  0  0  0  0  0
    2.9080   -2.9800    0.2740 C   0  0  1  0  0  0  0  0  0  0  0  0
    2.3040   -1.9950   -0.4830 O   0  0  0  0  0  0  0  0  0  0  0  0
    3.2970   -2.5000    1.6520 C   0  0  2  0  0  0  0  0  0  0  0  0
    3.9140   -3.6130    2.3370 N   0  0  0  0  0  0  0  0  0  0  0  0
    2.1910   -1.9420    2.4250 C   0  0  0  0  0  0  0  0  0  0  0  0
    1.9170   -2.4730    3.5550 O   0  0  0  0  0  0  0  0  0  0  0  0
    2.2890   -4.8420   -0.5890 H   0  0  0  0  0  0  0  0  0  0  0  0
    0.9790   -4.0090    0.2650 H   0  0  0  0  0  0  0  0  0  0  0  0
    2.2310   -4.8220    1.2250 H   0  0  0  0  0  0  0  0  0  0  0  0
    3.8540   -3.2550   -0.2570 H   0  0  0  0  0  0  0  0  0  0  0  0
    2.7720   -1.8070   -1.3270 H   0  0  0  0  0  0  0  0  0  0  0  0
    4.0490   -1.6740    1.5060 H   0  0  0  0  0  0  0  0  0  0  0  0
    4.5430   -4.1700    1.7460 H   0  0  0  0  0  0  0  0  0  0  0  0
    3.2630   -4.1590    2.9260 H   0  0  0  0  0  0  0  0  0  0  0  0
    1.3850   -0.8590    2.0420 N   0  0  0  0  0  0  0  0  0  0  0  0
    0.3120   -0.3820    2.8840 C   0  0  1  0  0  0  0  0  0  0  0  0
    0.4710    1.0360    3.3220 C   0  0  0  0  0  0  0  0  0  0  0  0
    0.5330    2.0240    2.2410 C   0  0  0  0  0  0  0  0  0  0  0  0
   -0.5680    2.6710    1.7060 C   0  0  0  0  0  0  0  0  0  0  0  0
   -0.1060    3.4870    0.7550 N   0  0  0  0  0  0  0  0  0  0  0  0
    1.2300    3.3470    0.7060 C   0  0  0  0  0  0  0  0  0  0  0  0
    1.6450    2.4450    1.6190 N   0  0  0  0  0  0  0  0  0  0  0  0
   -0.9800   -0.5780    2.1780 C   0  0  0  0  0  0  0  0  0  0  0  0
   -2.0700   -0.2100    2.7280 O   0  0  0  0  0  0  0  0  0  0  0  0
    1.5580   -0.3950    1.1480 H   0  0  0  0  0  0  0  0  0  0  0  0
    0.2480   -0.9930    3.8320 H   0  0  0  0  0  0  0  0  0  0  0  0
   -0.4050    1.2520    4.0030 H   0  0  0  0  0  0  0  0  0  0  0  0
    1.3610    1.1620    3.9800 H   0  0  0  0  0  0  0  0  0  0  0  0
   -1.5920    2.5390    2.0030 H   0  0  0  0  0  0  0  0  0  0  0  0
   -0.6770    4.1190    0.1580 H   0  0  0  0  0  0  0  0  0  0  0  0
    1.8580    3.8820    0.0340 H   0  0  0  0  0  0  0  0  0  0  0  0
   -2.1070    2.7330   -2.6500 N   0  0  0  0  0  0  0  0  0  0  0  0
   -2.3000    1.3490   -2.4120 C   0  0  0  0  0  0  0  0  0  0  0  0
   -2.5560    0.6090   -3.3880 O   0  0  0  0  0  0  0  0  0  0  0  0
   -2.2050    0.7810   -1.0520 C   0  0  0  0  0  0  0  0  0  0  0  0
   -2.4530   -0.6940   -1.1070 C   0  0  0  0  0  0  0  0  0  0  0  0
   -2.3690   -1.3280    0.2660 C   0  0  2  0  0  0  0  0  0  0  0  0
   -1.1020   -1.1640    0.8950 N   0  0  0  0  0  0  0  0  0  0  0  0
   -2.7060   -2.7720    0.1330 C   0  0  0  0  0  0  0  0  0  0  0  0
   -1.8760   -3.6060    0.5690 O   0  0  0  0  0  0  0  0  0  0  0  0
   -3.8800   -3.2150   -0.4430 O   0  0  0  0  0  0  0  0  0  0  0  0
   -2.5960    3.4790   -2.1060 H   0  0  0  0  0  0  0  0  0  0  0  0
   -1.4400    3.0090   -3.4080 H   0  0  0  0  0  0  0  0  0  0  0  0
   -2.9790    1.2150   -0.3630 H   0  0  0  0  0  0  0  0  0  0  0  0
   -1.2240    1.0370   -0.5860 H   0  0  0  0  0  0  0  0  0  0  0  0
   -1.8050   -1.2160   -1.8380 H   0  0  0  0  0  0  0  0  0  0  0  0
   -3.4960   -0.8300   -1.4910 H   0  0  0  0  0  0  0  0  0  0  0  0
   -3.1930   -0.9050    0.9030 H   0  0  0  0  0  0  0  0  0  0  0  0
   -0.2380   -1.4740    0.4170 H   0  0  0  0  0  0  0  0  0  0  0  0
  1 10  1  0  0  0  0
  2 11  1  6  0  0  0
  2  1  1  0  0  0  0
  2  4  1  0  0  0  0
  3  2  1  0  0  0  0
  4 13  1  6  0  0  0
  4  5  1  0  0  0  0
  4  6  1  0  0  0  0
  5 15  1  0  0  0  0
  6  7  2  0  0  0  0
  8  1  1  0  0  0  0
  9  1  1  0  0  0  0
 12  3  1  0  0  0  0
 14  5  1  0  0  0  0
 16  6  1  0  0  0  0
 16 17  1  0  0  0  0
 17 18  1  0  0  0  0
 17 27  1  1  0  0  0
 18 29  1  0  0  0  0
 18 28  1  0  0  0  0
 19 18  1  0  0  0  0
 20 30  1  0  0  0  0
 20 19  2  0  0  0  0
 21 20  1  0  0  0  0
 22 21  1  0  0  0  0
 22 23  2  0  0  0  0
 23 19  1  0  0  0  0
 24 25  2  0  0  0  0
 24 17  1  0  0  0  0
 26 16  1  0  0  0  0
 31 21  1  0  0  0  0
 32 22  1  0  0  0  0
 33 34  1  0  0  0  0
 33 43  1  0  0  0  0
 34 36  1  0  0  0  0
 35 34  2  0  0  0  0
 36 46  1  0  0  0  0
 36 45  1  0  0  0  0
 37 36  1  0  0  0  0
 37 38  1  0  0  0  0
 38 39  1  0  0  0  0
 38 49  1  1  0  0  0
 39 24  1  0  0  0  0
 40 38  1  0  0  0  0
 40 41  1  0  0  0  0
 42 40  2  0  0  0  0
 44 33  1  0  0  0  0
 47 37  1  0  0  0  0
 48 37  1  0  0  0  0
 50 39  1  0  0  0  0
M  END
$$$$
