THS.pdb
 OpenBabel07022419123D

 44 44  0  0  1  0  0  0  0  0999 V2000
   -0.2500   -3.5190    1.4780 C   0  0  0  0  0  0  0  0  0  0  0  0
    0.9920   -3.2860    2.2780 C   0  0  1  0  0  0  0  0  0  0  0  0
    2.0960   -3.5510    1.4630 O   0  0  0  0  0  0  0  0  0  0  0  0
    1.0860   -1.8660    2.8020 C   0  0  2  0  0  0  0  0  0  0  0  0
   -0.0480   -1.6100    3.6330 N   0  0  0  0  0  0  0  0  0  0  0  0
    1.2520   -0.8970    1.6910 C   0  0  0  0  0  0  0  0  0  0  0  0
    2.2310   -1.0820    0.9320 O   0  0  0  0  0  0  0  0  0  0  0  0
   -1.1370   -3.2220    2.0450 H   0  0  0  0  0  0  0  0  0  0  0  0
   -0.1450   -3.0140    0.4970 H   0  0  0  0  0  0  0  0  0  0  0  0
   -0.3150   -4.6340    1.3100 H   0  0  0  0  0  0  0  0  0  0  0  0
    1.0290   -4.0150    3.1080 H   0  0  0  0  0  0  0  0  0  0  0  0
    1.9470   -4.3450    0.8900 H   0  0  0  0  0  0  0  0  0  0  0  0
    1.9940   -1.7950    3.4370 H   0  0  0  0  0  0  0  0  0  0  0  0
   -0.9480   -1.5220    3.1540 H   0  0  0  0  0  0  0  0  0  0  0  0
    0.1210   -0.9370    4.4020 H   0  0  0  0  0  0  0  0  0  0  0  0
    0.3550    0.1700    1.5030 N   0  0  0  0  0  0  0  0  0  0  0  0
    0.4400    1.1630    0.4700 C   0  0  1  0  0  0  0  0  0  0  0  0
    1.8520    1.5980    0.1270 C   0  0  0  0  0  0  0  0  0  0  0  0
    2.4690    2.2160    1.3220 C   0  0  0  0  0  0  0  0  0  0  0  0
    3.2300    1.6910    2.3280 C   0  0  0  0  0  0  0  0  0  0  0  0
    3.5790    2.6790    3.2020 N   0  0  0  0  0  0  0  0  0  0  0  0
    3.0470    3.8180    2.7570 C   0  0  0  0  0  0  0  0  0  0  0  0
    2.3690    3.5510    1.6140 N   0  0  0  0  0  0  0  0  0  0  0  0
   -0.4070    0.8980   -0.7030 C   0  0  0  0  0  0  0  0  0  0  0  0
   -0.4660    1.6540   -1.7060 O   0  0  0  0  0  0  0  0  0  0  0  0
   -0.4440    0.2130    2.2090 H   0  0  0  0  0  0  0  0  0  0  0  0
    0.0270    2.1290    0.9590 H   0  0  0  0  0  0  0  0  0  0  0  0
    2.4620    0.8080   -0.3370 H   0  0  0  0  0  0  0  0  0  0  0  0
    1.7100    2.3980   -0.6590 H   0  0  0  0  0  0  0  0  0  0  0  0
    3.5410    0.6560    2.4500 H   0  0  0  0  0  0  0  0  0  0  0  0
    4.1480    2.5550    4.0440 H   0  0  0  0  0  0  0  0  0  0  0  0
    3.1580    4.7800    3.2510 H   0  0  0  0  0  0  0  0  0  0  0  0
   -0.5320   -2.0790   -2.9700 O   0  0  0  0  0  0  0  0  0  0  0  0
   -1.8200   -1.9220   -2.5110 C   0  0  0  0  0  0  0  0  0  0  0  0
   -2.0780   -0.5620   -1.9020 C   0  0  2  0  0  0  0  0  0  0  0  0
   -1.2450   -0.2720   -0.7830 N   0  0  0  0  0  0  0  0  0  0  0  0
   -3.4880   -0.5500   -1.4560 C   0  0  0  0  0  0  0  0  0  0  0  0
   -4.4650   -0.7720   -2.2190 O   0  0  0  0  0  0  0  0  0  0  0  0
   -3.7580   -0.2810   -0.1290 O   0  0  0  0  0  0  0  0  0  0  0  0
   -0.2300   -2.9860   -2.7160 H   0  0  0  0  0  0  0  0  0  0  0  0
   -2.1420   -2.6810   -1.7810 H   0  0  0  0  0  0  0  0  0  0  0  0
   -2.5040   -2.0130   -3.3810 H   0  0  0  0  0  0  0  0  0  0  0  0
   -1.9870    0.2340   -2.6890 H   0  0  0  0  0  0  0  0  0  0  0  0
   -1.2140   -0.9150    0.0380 H   0  0  0  0  0  0  0  0  0  0  0  0
  1  8  1  0  0  0  0
  1  2  1  0  0  0  0
  2  4  1  0  0  0  0
  2 11  1  1  0  0  0
  3  2  1  0  0  0  0
  4 13  1  1  0  0  0
  4  5  1  0  0  0  0
  5 15  1  0  0  0  0
  6  4  1  0  0  0  0
  7  6  2  0  0  0  0
  9  1  1  0  0  0  0
 10  1  1  0  0  0  0
 12  3  1  0  0  0  0
 14  5  1  0  0  0  0
 16  6  1  0  0  0  0
 16 26  1  0  0  0  0
 17 27  1  1  0  0  0
 17 16  1  0  0  0  0
 18 17  1  0  0  0  0
 18 19  1  0  0  0  0
 19 23  1  0  0  0  0
 19 20  2  0  0  0  0
 20 30  1  0  0  0  0
 20 21  1  0  0  0  0
 21 31  1  0  0  0  0
 22 21  1  0  0  0  0
 22 32  1  0  0  0  0
 23 22  2  0  0  0  0
 24 17  1  0  0  0  0
 25 24  2  0  0  0  0
 28 18  1  0  0  0  0
 29 18  1  0  0  0  0
 33 40  1  0  0  0  0
 33 34  1  0  0  0  0
 34 35  1  0  0  0  0
 34 41  1  0  0  0  0
 35 43  1  6  0  0  0
 35 37  1  0  0  0  0
 35 36  1  0  0  0  0
 36 24  1  0  0  0  0
 36 44  1  0  0  0  0
 37 39  1  0  0  0  0
 38 37  2  0  0  0  0
 42 34  1  0  0  0  0
M  END
$$$$
