THT.pdb
 OpenBabel07022419123D

 47 47  0  0  1  0  0  0  0  0999 V2000
    0.4730   -3.9020   -0.0860 C   0  0  0  0  0  0  0  0  0  0  0  0
    1.8830   -3.9950    0.3910 C   0  0  1  0  0  0  0  0  0  0  0  0
    2.4230   -5.1760   -0.1870 O   0  0  0  0  0  0  0  0  0  0  0  0
    2.7810   -2.8590   -0.0780 C   0  0  2  0  0  0  0  0  0  0  0  0
    4.1210   -3.2490    0.4360 N   0  0  0  0  0  0  0  0  0  0  0  0
    2.4660   -1.5630    0.5360 C   0  0  0  0  0  0  0  0  0  0  0  0
    3.2040   -1.0900    1.4720 O   0  0  0  0  0  0  0  0  0  0  0  0
    0.3020   -3.2870   -0.9730 H   0  0  0  0  0  0  0  0  0  0  0  0
    0.0850   -4.9290   -0.3810 H   0  0  0  0  0  0  0  0  0  0  0  0
   -0.1590   -3.6360    0.7990 H   0  0  0  0  0  0  0  0  0  0  0  0
    1.9880   -4.0850    1.4840 H   0  0  0  0  0  0  0  0  0  0  0  0
    1.7400   -5.9040   -0.1270 H   0  0  0  0  0  0  0  0  0  0  0  0
    2.8710   -2.8450   -1.1760 H   0  0  0  0  0  0  0  0  0  0  0  0
    4.7890   -2.6520   -0.1000 H   0  0  0  0  0  0  0  0  0  0  0  0
    4.1510   -2.9090    1.4260 H   0  0  0  0  0  0  0  0  0  0  0  0
    1.3820   -0.7200    0.1980 N   0  0  0  0  0  0  0  0  0  0  0  0
    1.1190    0.5590    0.8380 C   0  0  1  0  0  0  0  0  0  0  0  0
    1.3810    1.7010   -0.1080 C   0  0  0  0  0  0  0  0  0  0  0  0
    1.1140    2.9910    0.5480 C   0  0  0  0  0  0  0  0  0  0  0  0
   -0.0740    3.6890    0.5410 C   0  0  0  0  0  0  0  0  0  0  0  0
    0.0640    4.8400    1.2320 N   0  0  0  0  0  0  0  0  0  0  0  0
    1.3290    4.8800    1.6800 C   0  0  0  0  0  0  0  0  0  0  0  0
    1.9590    3.7730    1.2710 N   0  0  0  0  0  0  0  0  0  0  0  0
   -0.2510    0.5200    1.3810 C   0  0  0  0  0  0  0  0  0  0  0  0
   -0.6540    1.5270    2.0550 O   0  0  0  0  0  0  0  0  0  0  0  0
    0.7250   -1.0030   -0.5510 H   0  0  0  0  0  0  0  0  0  0  0  0
    1.9030    0.6630    1.6380 H   0  0  0  0  0  0  0  0  0  0  0  0
    0.7700    1.6340   -1.0320 H   0  0  0  0  0  0  0  0  0  0  0  0
    2.4750    1.6730   -0.3330 H   0  0  0  0  0  0  0  0  0  0  0  0
   -0.9930    3.3700    0.0510 H   0  0  0  0  0  0  0  0  0  0  0  0
   -0.7080    5.5240    1.3560 H   0  0  0  0  0  0  0  0  0  0  0  0
    1.7510    5.7000    2.2810 H   0  0  0  0  0  0  0  0  0  0  0  0
   -3.5120    0.4340   -0.3030 C   0  0  0  0  0  0  0  0  0  0  0  0
   -3.5510   -0.7170    0.6790 C   0  0  1  0  0  0  0  0  0  0  0  0
   -3.3600   -1.9230    0.0380 O   0  0  0  0  0  0  0  0  0  0  0  0
   -2.5160   -0.5330    1.7810 C   0  0  2  0  0  0  0  0  0  0  0  0
   -1.1650   -0.5550    1.2140 N   0  0  0  0  0  0  0  0  0  0  0  0
   -2.6560   -1.6870    2.7010 C   0  0  0  0  0  0  0  0  0  0  0  0
   -3.7510   -1.8470    3.2930 O   0  0  0  0  0  0  0  0  0  0  0  0
   -1.6180   -2.5760    2.9140 O   0  0  0  0  0  0  0  0  0  0  0  0
   -2.7530    0.2000   -1.0770 H   0  0  0  0  0  0  0  0  0  0  0  0
   -3.3500    1.3930    0.1960 H   0  0  0  0  0  0  0  0  0  0  0  0
   -4.4910    0.4850   -0.8260 H   0  0  0  0  0  0  0  0  0  0  0  0
   -4.5410   -0.7150    1.1690 H   0  0  0  0  0  0  0  0  0  0  0  0
   -3.0120   -1.8350   -0.8870 H   0  0  0  0  0  0  0  0  0  0  0  0
   -2.7060    0.3980    2.3300 H   0  0  0  0  0  0  0  0  0  0  0  0
   -0.8460   -1.3750    0.6650 H   0  0  0  0  0  0  0  0  0  0  0  0
  1  2  1  0  0  0  0
  1 10  1  0  0  0  0
  2 11  1  1  0  0  0
  3 12  1  0  0  0  0
  3  2  1  0  0  0  0
  4 13  1  6  0  0  0
  4  2  1  0  0  0  0
  4  5  1  0  0  0  0
  4  6  1  0  0  0  0
  5 15  1  0  0  0  0
  6  7  2  0  0  0  0
  8  1  1  0  0  0  0
  9  1  1  0  0  0  0
 14  5  1  0  0  0  0
 16  6  1  0  0  0  0
 16 17  1  0  0  0  0
 17 24  1  0  0  0  0
 17 27  1  1  0  0  0
 18 19  1  0  0  0  0
 18 17  1  0  0  0  0
 19 23  1  0  0  0  0
 20 19  2  0  0  0  0
 20 21  1  0  0  0  0
 21 31  1  0  0  0  0
 21 22  1  0  0  0  0
 22 32  1  0  0  0  0
 23 22  2  0  0  0  0
 24 25  2  0  0  0  0
 26 16  1  0  0  0  0
 28 18  1  0  0  0  0
 29 18  1  0  0  0  0
 30 20  1  0  0  0  0
 33 42  1  0  0  0  0
 33 34  1  0  0  0  0
 34 44  1  1  0  0  0
 34 36  1  0  0  0  0
 35 34  1  0  0  0  0
 36 46  1  1  0  0  0
 36 38  1  0  0  0  0
 37 24  1  0  0  0  0
 37 36  1  0  0  0  0
 38 40  2  0  0  0  0
 38 39  1  0  0  0  0
 41 33  1  0  0  0  0
 43 33  1  0  0  0  0
 45 35  1  0  0  0  0
 47 37  1  0  0  0  0
M  END
$$$$
