THW.pdb
 OpenBabel07022419123D

 57 59  0  0  1  0  0  0  0  0999 V2000
    6.2510   -0.6070    0.4750 C   0  0  0  0  0  0  0  0  0  0  0  0
    4.9720   -0.2550   -0.2420 C   0  0  1  0  0  0  0  0  0  0  0  0
    4.6370   -1.2430   -1.1340 O   0  0  0  0  0  0  0  0  0  0  0  0
    3.8450    0.1070    0.6930 C   0  0  2  0  0  0  0  0  0  0  0  0
    3.4770   -1.0860    1.4310 N   0  0  0  0  0  0  0  0  0  0  0  0
    2.6730    0.6460   -0.0560 C   0  0  0  0  0  0  0  0  0  0  0  0
    2.7400    1.7000   -0.7350 O   0  0  0  0  0  0  0  0  0  0  0  0
    6.9750   -1.1060   -0.2320 H   0  0  0  0  0  0  0  0  0  0  0  0
    6.7440    0.3320    0.8620 H   0  0  0  0  0  0  0  0  0  0  0  0
    6.1170   -1.3260    1.2950 H   0  0  0  0  0  0  0  0  0  0  0  0
    5.2120    0.6560   -0.8700 H   0  0  0  0  0  0  0  0  0  0  0  0
    4.2180   -2.0100   -0.6370 H   0  0  0  0  0  0  0  0  0  0  0  0
    4.2010    0.8550    1.4280 H   0  0  0  0  0  0  0  0  0  0  0  0
    2.7020   -0.7770    2.0840 H   0  0  0  0  0  0  0  0  0  0  0  0
    4.2300   -1.5190    1.9700 H   0  0  0  0  0  0  0  0  0  0  0  0
    1.4440   -0.0390   -0.0110 N   0  0  0  0  0  0  0  0  0  0  0  0
    0.2460    0.4020   -0.7040 C   0  0  1  0  0  0  0  0  0  0  0  0
   -0.1540   -0.5200   -1.7970 C   0  0  0  0  0  0  0  0  0  0  0  0
   -1.3710   -0.0230   -2.4680 C   0  0  0  0  0  0  0  0  0  0  0  0
   -2.6930   -0.2890   -2.2450 C   0  0  0  0  0  0  0  0  0  0  0  0
   -3.4320    0.4000   -3.1520 N   0  0  0  0  0  0  0  0  0  0  0  0
   -2.5900    1.0890   -3.9340 C   0  0  0  0  0  0  0  0  0  0  0  0
   -1.3450    0.8330   -3.5200 N   0  0  0  0  0  0  0  0  0  0  0  0
   -0.8510    0.6870    0.2410 C   0  0  0  0  0  0  0  0  0  0  0  0
   -1.9780    1.1370   -0.0830 O   0  0  0  0  0  0  0  0  0  0  0  0
    1.3750   -0.9130    0.5450 H   0  0  0  0  0  0  0  0  0  0  0  0
    0.5360    1.3740   -1.2040 H   0  0  0  0  0  0  0  0  0  0  0  0
    0.6370   -0.6180   -2.5710 H   0  0  0  0  0  0  0  0  0  0  0  0
   -0.3990   -1.5510   -1.4250 H   0  0  0  0  0  0  0  0  0  0  0  0
   -3.0860   -0.9450   -1.4730 H   0  0  0  0  0  0  0  0  0  0  0  0
   -4.4840    0.3780   -3.2090 H   0  0  0  0  0  0  0  0  0  0  0  0
   -2.8900    1.7260   -4.7420 H   0  0  0  0  0  0  0  0  0  0  0  0
   -0.6870    0.4570    1.6660 N   0  0  0  0  0  0  0  0  0  0  0  0
   -1.7300    0.7290    2.5940 C   0  0  1  0  0  0  0  0  0  0  0  0
   -2.2140   -0.5380    3.2400 C   0  0  0  0  0  0  0  0  0  0  0  0
   -2.7520   -1.5260    2.3010 C   0  0  0  0  0  0  0  0  0  0  0  0
   -4.1100   -1.6920    2.0180 C   0  0  0  0  0  0  0  0  0  0  0  0
   -4.2460   -2.6540    1.0990 N   0  0  0  0  0  0  0  0  0  0  0  0
   -3.0460   -3.1470    0.7480 C   0  0  0  0  0  0  0  0  0  0  0  0
   -2.7120   -4.1470   -0.1510 C   0  0  0  0  0  0  0  0  0  0  0  0
   -1.3770   -4.4440   -0.2930 C   0  0  0  0  0  0  0  0  0  0  0  0
   -0.4310   -3.7680    0.4350 C   0  0  0  0  0  0  0  0  0  0  0  0
   -0.7860   -2.7710    1.3290 C   0  0  0  0  0  0  0  0  0  0  0  0
   -2.1240   -2.4470    1.4940 C   0  0  0  0  0  0  0  0  0  0  0  0
   -1.3430    1.7100    3.6370 C   0  0  0  0  0  0  0  0  0  0  0  0
   -2.1550    2.0530    4.5290 O   0  0  0  0  0  0  0  0  0  0  0  0
   -0.0750    2.2700    3.6500 O   0  0  0  0  0  0  0  0  0  0  0  0
    0.2380    0.0900    1.9660 H   0  0  0  0  0  0  0  0  0  0  0  0
   -2.6430    1.1690    2.0810 H   0  0  0  0  0  0  0  0  0  0  0  0
   -2.9270   -0.2920    4.0630 H   0  0  0  0  0  0  0  0  0  0  0  0
   -1.3520   -1.0370    3.7640 H   0  0  0  0  0  0  0  0  0  0  0  0
   -4.9080   -1.1320    2.4710 H   0  0  0  0  0  0  0  0  0  0  0  0
   -5.1450   -2.9880    0.7000 H   0  0  0  0  0  0  0  0  0  0  0  0
   -3.4500   -4.6780   -0.7220 H   0  0  0  0  0  0  0  0  0  0  0  0
   -1.1070   -5.2340   -1.0030 H   0  0  0  0  0  0  0  0  0  0  0  0
    0.6260   -4.0220    0.3060 H   0  0  0  0  0  0  0  0  0  0  0  0
   -0.0480   -2.2470    1.9080 H   0  0  0  0  0  0  0  0  0  0  0  0
  1  9  1  0  0  0  0
  1 10  1  0  0  0  0
  2 11  1  6  0  0  0
  2  1  1  0  0  0  0
  2  4  1  0  0  0  0
  3 12  1  0  0  0  0
  3  2  1  0  0  0  0
  4 13  1  1  0  0  0
  4  5  1  0  0  0  0
  5 15  1  0  0  0  0
  5 14  1  0  0  0  0
  6 16  1  0  0  0  0
  6  4  1  0  0  0  0
  7  6  2  0  0  0  0
  8  1  1  0  0  0  0
 16 26  1  0  0  0  0
 17 27  1  6  0  0  0
 17 16  1  0  0  0  0
 17 24  1  0  0  0  0
 18 29  1  0  0  0  0
 18 17  1  0  0  0  0
 19 20  2  0  0  0  0
 19 18  1  0  0  0  0
 20 30  1  0  0  0  0
 21 20  1  0  0  0  0
 22 23  2  0  0  0  0
 22 21  1  0  0  0  0
 23 19  1  0  0  0  0
 24 33  1  0  0  0  0
 25 24  2  0  0  0  0
 28 18  1  0  0  0  0
 31 21  1  0  0  0  0
 32 22  1  0  0  0  0
 33 48  1  0  0  0  0
 33 34  1  0  0  0  0
 34 49  1  6  0  0  0
 34 35  1  0  0  0  0
 34 45  1  0  0  0  0
 35 51  1  0  0  0  0
 35 50  1  0  0  0  0
 36 35  1  0  0  0  0
 37 36  2  0  0  0  0
 37 52  1  0  0  0  0
 38 37  1  0  0  0  0
 39 38  1  0  0  0  0
 39 44  1  0  0  0  0
 40 39  2  0  0  0  0
 41 40  1  0  0  0  0
 41 42  2  0  0  0  0
 42 43  1  0  0  0  0
 43 44  2  0  0  0  0
 43 57  1  0  0  0  0
 44 36  1  0  0  0  0
 45 47  2  0  0  0  0
 45 46  1  0  0  0  0
 53 38  1  0  0  0  0
 54 40  1  0  0  0  0
 55 41  1  0  0  0  0
 56 42  1  0  0  0  0
M  END
$$$$
