THY.pdb
 OpenBabel07022419123D

 54 55  0  0  1  0  0  0  0  0999 V2000
    3.8200    1.7340    4.6140 C   0  0  0  0  0  0  0  0  0  0  0  0
    3.4620    0.3310    4.9610 C   0  0  1  0  0  0  0  0  0  0  0  0
    2.4910    0.2820    5.9530 O   0  0  0  0  0  0  0  0  0  0  0  0
    3.1240   -0.5500    3.7990 C   0  0  2  0  0  0  0  0  0  0  0  0
    4.1730   -0.4490    2.8060 N   0  0  0  0  0  0  0  0  0  0  0  0
    1.8250   -0.3060    3.1800 C   0  0  0  0  0  0  0  0  0  0  0  0
    0.7520   -0.3300    3.8520 O   0  0  0  0  0  0  0  0  0  0  0  0
    4.9020    1.9560    4.7330 H   0  0  0  0  0  0  0  0  0  0  0  0
    3.5260    2.0520    3.6110 H   0  0  0  0  0  0  0  0  0  0  0  0
    3.2990    2.4130    5.3300 H   0  0  0  0  0  0  0  0  0  0  0  0
    4.3840   -0.1250    5.4340 H   0  0  0  0  0  0  0  0  0  0  0  0
    1.8770    1.0620    5.9310 H   0  0  0  0  0  0  0  0  0  0  0  0
    3.1960   -1.6080    4.1970 H   0  0  0  0  0  0  0  0  0  0  0  0
    4.2540    0.4850    2.3750 H   0  0  0  0  0  0  0  0  0  0  0  0
    4.2040   -1.2430    2.1480 H   0  0  0  0  0  0  0  0  0  0  0  0
    1.7280   -0.0320    1.7920 N   0  0  0  0  0  0  0  0  0  0  0  0
    0.5260    0.2190    1.0740 C   0  0  1  0  0  0  0  0  0  0  0  0
    0.4760    1.5960    0.4540 C   0  0  0  0  0  0  0  0  0  0  0  0
    0.5730    2.6740    1.4440 C   0  0  0  0  0  0  0  0  0  0  0  0
   -0.4740    3.2780    2.0940 C   0  0  0  0  0  0  0  0  0  0  0  0
    0.0250    4.2260    2.9280 N   0  0  0  0  0  0  0  0  0  0  0  0
    1.3620    4.2170    2.8020 C   0  0  0  0  0  0  0  0  0  0  0  0
    1.6870    3.2580    1.8870 N   0  0  0  0  0  0  0  0  0  0  0  0
    0.2120   -0.8190    0.0640 C   0  0  0  0  0  0  0  0  0  0  0  0
    1.0060   -1.7870   -0.0620 O   0  0  0  0  0  0  0  0  0  0  0  0
    2.6360   -0.0140    1.2390 H   0  0  0  0  0  0  0  0  0  0  0  0
   -0.3240    0.1760    1.8160 H   0  0  0  0  0  0  0  0  0  0  0  0
   -0.4220    1.7290   -0.1840 H   0  0  0  0  0  0  0  0  0  0  0  0
    1.3720    1.6890   -0.2170 H   0  0  0  0  0  0  0  0  0  0  0  0
   -1.5220    3.0370    1.9620 H   0  0  0  0  0  0  0  0  0  0  0  0
   -0.5410    4.8390    3.5440 H   0  0  0  0  0  0  0  0  0  0  0  0
    2.0540    4.8490    3.3260 H   0  0  0  0  0  0  0  0  0  0  0  0
   -4.4970   -6.4730   -4.7230 O   0  0  0  0  0  0  0  0  0  0  0  0
   -4.0340   -5.4550   -3.8910 C   0  0  0  0  0  0  0  0  0  0  0  0
   -4.4000   -4.1380   -4.0480 C   0  0  0  0  0  0  0  0  0  0  0  0
   -3.9450   -3.1330   -3.2290 C   0  0  0  0  0  0  0  0  0  0  0  0
   -3.0780   -3.4320   -2.1940 C   0  0  0  0  0  0  0  0  0  0  0  0
   -2.5750   -2.3790   -1.3110 C   0  0  0  0  0  0  0  0  0  0  0  0
   -1.2740   -1.7540   -1.7490 C   0  0  2  0  0  0  0  0  0  0  0  0
   -0.9480   -0.7330   -0.7440 N   0  0  0  0  0  0  0  0  0  0  0  0
   -1.3820   -1.1260   -3.0650 C   0  0  0  0  0  0  0  0  0  0  0  0
   -1.2260    0.1020   -3.1970 O   0  0  0  0  0  0  0  0  0  0  0  0
   -2.6920   -4.7580   -2.0150 C   0  0  0  0  0  0  0  0  0  0  0  0
   -3.1650   -5.7320   -2.8480 C   0  0  0  0  0  0  0  0  0  0  0  0
   -1.6580   -1.8920   -4.1830 O   0  0  0  0  0  0  0  0  0  0  0  0
   -5.4670   -6.7700   -4.5510 H   0  0  0  0  0  0  0  0  0  0  0  0
   -5.0810   -3.9100   -4.8620 H   0  0  0  0  0  0  0  0  0  0  0  0
   -4.2580   -2.0900   -3.3750 H   0  0  0  0  0  0  0  0  0  0  0  0
   -3.3280   -1.5490   -1.2300 H   0  0  0  0  0  0  0  0  0  0  0  0
   -2.4730   -2.7620   -0.2700 H   0  0  0  0  0  0  0  0  0  0  0  0
   -0.4510   -2.5100   -1.6980 H   0  0  0  0  0  0  0  0  0  0  0  0
   -1.5650    0.0920   -0.5930 H   0  0  0  0  0  0  0  0  0  0  0  0
   -2.0070   -4.9760   -1.1930 H   0  0  0  0  0  0  0  0  0  0  0  0
   -2.8520   -6.7710   -2.6940 H   0  0  0  0  0  0  0  0  0  0  0  0
  1  8  1  0  0  0  0
  1  2  1  0  0  0  0
  1 10  1  0  0  0  0
  2 11  1  1  0  0  0
  2  3  1  0  0  0  0
  4 13  1  1  0  0  0
  4  2  1  0  0  0  0
  5  4  1  0  0  0  0
  6  4  1  0  0  0  0
  6  7  2  0  0  0  0
  9  1  1  0  0  0  0
 12  3  1  0  0  0  0
 14  5  1  0  0  0  0
 15  5  1  0  0  0  0
 16  6  1  0  0  0  0
 17 16  1  0  0  0  0
 17 27  1  1  0  0  0
 18 17  1  0  0  0  0
 18 19  1  0  0  0  0
 19 23  1  0  0  0  0
 19 20  2  0  0  0  0
 20 21  1  0  0  0  0
 21 31  1  0  0  0  0
 22 21  1  0  0  0  0
 22 32  1  0  0  0  0
 23 22  2  0  0  0  0
 24 17  1  0  0  0  0
 25 24  2  0  0  0  0
 26 16  1  0  0  0  0
 28 18  1  0  0  0  0
 29 18  1  0  0  0  0
 30 20  1  0  0  0  0
 33 46  1  0  0  0  0
 33 34  1  0  0  0  0
 34 44  1  0  0  0  0
 35 34  2  0  0  0  0
 35 36  1  0  0  0  0
 36 37  2  0  0  0  0
 37 43  1  0  0  0  0
 37 38  1  0  0  0  0
 38 49  1  0  0  0  0
 38 50  1  0  0  0  0
 39 51  1  6  0  0  0
 39 38  1  0  0  0  0
 39 40  1  0  0  0  0
 40 52  1  0  0  0  0
 40 24  1  0  0  0  0
 41 39  1  0  0  0  0
 42 41  1  0  0  0  0
 43 53  1  0  0  0  0
 44 54  1  0  0  0  0
 44 43  2  0  0  0  0
 45 41  2  0  0  0  0
 47 35  1  0  0  0  0
 48 36  1  0  0  0  0
M  END
$$$$
