TID.pdb
 OpenBabel07022419123D

 48 47  0  0  1  0  0  0  0  0999 V2000
    0.0940   -5.3990    0.7360 C   0  0  0  0  0  0  0  0  0  0  0  0
    0.1720   -3.9090    1.0090 C   0  0  1  0  0  0  0  0  0  0  0  0
   -0.0110   -3.7810    2.4080 O   0  0  0  0  0  0  0  0  0  0  0  0
    1.5400   -3.3630    0.6390 C   0  0  2  0  0  0  0  0  0  0  0  0
    2.5030   -4.1860    1.3930 N   0  0  0  0  0  0  0  0  0  0  0  0
    1.7280   -1.9720    1.0870 C   0  0  0  0  0  0  0  0  0  0  0  0
    2.4470   -1.6790    2.0560 O   0  0  0  0  0  0  0  0  0  0  0  0
   -0.5800   -5.8720    1.4700 H   0  0  0  0  0  0  0  0  0  0  0  0
   -0.2590   -5.6390   -0.2830 H   0  0  0  0  0  0  0  0  0  0  0  0
    1.1060   -5.8410    0.9350 H   0  0  0  0  0  0  0  0  0  0  0  0
   -0.6650   -3.3750    0.5320 H   0  0  0  0  0  0  0  0  0  0  0  0
   -0.6710   -4.4680    2.7420 H   0  0  0  0  0  0  0  0  0  0  0  0
    1.6740   -3.4290   -0.4420 H   0  0  0  0  0  0  0  0  0  0  0  0
    2.1680   -4.1570    2.3970 H   0  0  0  0  0  0  0  0  0  0  0  0
    3.4150   -3.6720    1.4120 H   0  0  0  0  0  0  0  0  0  0  0  0
   -0.0160    1.8240   -1.5690 C   0  0  0  0  0  0  0  0  0  0  0  0
    1.4510    1.4920   -1.5020 C   0  0  0  0  0  0  0  0  0  0  0  0
    2.0080    1.3770   -0.1060 C   0  0  2  0  0  0  0  0  0  0  0  0
    3.4910    1.0410   -0.1470 C   0  0  0  0  0  0  0  0  0  0  0  0
    1.2430    0.5060    0.8190 C   0  0  2  0  0  0  0  0  0  0  0  0
    1.0910   -0.8530    0.4270 N   0  0  0  0  0  0  0  0  0  0  0  0
    0.0320    1.1570    1.3640 C   0  0  0  0  0  0  0  0  0  0  0  0
    0.0270    2.3560    1.7350 O   0  0  0  0  0  0  0  0  0  0  0  0
   -0.6840    1.0410   -1.2250 H   0  0  0  0  0  0  0  0  0  0  0  0
   -0.1960    2.7380   -0.9320 H   0  0  0  0  0  0  0  0  0  0  0  0
   -0.3260    2.1000   -2.6060 H   0  0  0  0  0  0  0  0  0  0  0  0
    1.5880    0.5480   -2.0840 H   0  0  0  0  0  0  0  0  0  0  0  0
    1.9720    2.3480   -2.0010 H   0  0  0  0  0  0  0  0  0  0  0  0
    1.9820    2.4310    0.3060 H   0  0  0  0  0  0  0  0  0  0  0  0
    3.9130    0.9220    0.8680 H   0  0  0  0  0  0  0  0  0  0  0  0
    3.6880    0.1760   -0.8110 H   0  0  0  0  0  0  0  0  0  0  0  0
    4.0740    1.8890   -0.6020 H   0  0  0  0  0  0  0  0  0  0  0  0
    1.9130    0.4400    1.7530 H   0  0  0  0  0  0  0  0  0  0  0  0
    0.4940   -1.1410   -0.3860 H   0  0  0  0  0  0  0  0  0  0  0  0
   -1.1870    0.4420    1.4930 N   0  0  0  0  0  0  0  0  0  0  0  0
   -2.4150    0.9620    2.0010 C   0  0  1  0  0  0  0  0  0  0  0  0
   -3.5540    0.6510    1.0590 C   0  0  0  0  0  0  0  0  0  0  0  0
   -3.3440    1.2440   -0.2690 C   0  0  0  0  0  0  0  0  0  0  0  0
   -3.0800    2.4720   -0.3660 O   0  0  0  0  0  0  0  0  0  0  0  0
   -2.7110    0.2890    3.3090 C   0  0  0  0  0  0  0  0  0  0  0  0
   -3.7370    0.5830    3.9290 O   0  0  0  0  0  0  0  0  0  0  0  0
   -3.4290    0.4640   -1.4350 O   0  0  0  0  0  0  0  0  0  0  0  0
   -1.8400   -0.6590    3.8170 O   0  0  0  0  0  0  0  0  0  0  0  0
   -1.1590   -0.5550    1.1800 H   0  0  0  0  0  0  0  0  0  0  0  0
   -2.2990    2.0530    2.1600 H   0  0  0  0  0  0  0  0  0  0  0  0
   -4.4840    1.0210    1.5450 H   0  0  0  0  0  0  0  0  0  0  0  0
   -3.6560   -0.4620    0.9940 H   0  0  0  0  0  0  0  0  0  0  0  0
   -3.0020    0.7950   -2.3130 H   0  0  0  0  0  0  0  0  0  0  0  0
  1 10  1  0  0  0  0
  1  2  1  0  0  0  0
  1  8  1  0  0  0  0
  2 11  1  6  0  0  0
  2  3  1  0  0  0  0
  3 12  1  0  0  0  0
  4 13  1  6  0  0  0
  4  2  1  0  0  0  0
  4  6  1  0  0  0  0
  4  5  1  0  0  0  0
  5 15  1  0  0  0  0
  5 14  1  0  0  0  0
  6  7  2  0  0  0  0
  9  1  1  0  0  0  0
 16 17  1  0  0  0  0
 16 24  1  0  0  0  0
 16 25  1  0  0  0  0
 17 18  1  0  0  0  0
 18 29  1  1  0  0  0
 18 20  1  0  0  0  0
 19 18  1  0  0  0  0
 19 30  1  0  0  0  0
 20 22  1  0  0  0  0
 20 33  1  1  0  0  0
 21 20  1  0  0  0  0
 21  6  1  0  0  0  0
 22 35  1  0  0  0  0
 22 23  2  0  0  0  0
 26 16  1  0  0  0  0
 27 17  1  0  0  0  0
 28 17  1  0  0  0  0
 31 19  1  0  0  0  0
 32 19  1  0  0  0  0
 34 21  1  0  0  0  0
 35 36  1  0  0  0  0
 36 45  1  1  0  0  0
 36 40  1  0  0  0  0
 37 46  1  0  0  0  0
 37 36  1  0  0  0  0
 38 37  1  0  0  0  0
 39 38  2  0  0  0  0
 40 43  2  0  0  0  0
 40 41  1  0  0  0  0
 42 38  1  0  0  0  0
 44 35  1  0  0  0  0
 47 37  1  0  0  0  0
 48 42  1  0  0  0  0
M  END
$$$$
