TIE.pdb
 OpenBabel07022419123D

 51 50  0  0  1  0  0  0  0  0999 V2000
    4.6950   -3.9550    0.1640 C   0  0  0  0  0  0  0  0  0  0  0  0
    4.8030   -2.7040   -0.6380 C   0  0  1  0  0  0  0  0  0  0  0  0
    5.7210   -2.9180   -1.6670 O   0  0  0  0  0  0  0  0  0  0  0  0
    3.5130   -2.2800   -1.2740 C   0  0  2  0  0  0  0  0  0  0  0  0
    3.7590   -1.0610   -2.0170 N   0  0  0  0  0  0  0  0  0  0  0  0
    2.4110   -2.0910   -0.2920 C   0  0  0  0  0  0  0  0  0  0  0  0
    2.0230   -3.0140    0.4670 O   0  0  0  0  0  0  0  0  0  0  0  0
    3.7720   -4.5300   -0.0680 H   0  0  0  0  0  0  0  0  0  0  0  0
    5.5530   -4.6230   -0.0510 H   0  0  0  0  0  0  0  0  0  0  0  0
    4.6900   -3.7860    1.2580 H   0  0  0  0  0  0  0  0  0  0  0  0
    5.2160   -1.8440   -0.0490 H   0  0  0  0  0  0  0  0  0  0  0  0
    5.6660   -3.8880   -1.9280 H   0  0  0  0  0  0  0  0  0  0  0  0
    3.2490   -3.0590   -2.0350 H   0  0  0  0  0  0  0  0  0  0  0  0
    3.8960   -0.2290   -1.4380 H   0  0  0  0  0  0  0  0  0  0  0  0
    3.1680   -0.9480   -2.8480 H   0  0  0  0  0  0  0  0  0  0  0  0
    0.5150    1.5090    3.9360 C   0  0  0  0  0  0  0  0  0  0  0  0
    0.0300    0.5690    2.8330 C   0  0  0  0  0  0  0  0  0  0  0  0
    1.0870    0.3580    1.7910 C   0  0  2  0  0  0  0  0  0  0  0  0
    1.4080    1.6990    1.1650 C   0  0  0  0  0  0  0  0  0  0  0  0
    0.6540   -0.6890    0.8070 C   0  0  2  0  0  0  0  0  0  0  0  0
    1.7640   -0.8490   -0.1920 N   0  0  0  0  0  0  0  0  0  0  0  0
   -0.5360   -0.2540    0.0510 C   0  0  0  0  0  0  0  0  0  0  0  0
   -0.4180    0.1690   -1.1490 O   0  0  0  0  0  0  0  0  0  0  0  0
   -0.2680    1.4450    4.7430 H   0  0  0  0  0  0  0  0  0  0  0  0
    1.4990    1.2340    4.3250 H   0  0  0  0  0  0  0  0  0  0  0  0
    0.4410    2.5440    3.5470 H   0  0  0  0  0  0  0  0  0  0  0  0
   -0.4180   -0.3480    3.2290 H   0  0  0  0  0  0  0  0  0  0  0  0
   -0.7950    1.1350    2.3030 H   0  0  0  0  0  0  0  0  0  0  0  0
    2.0310   -0.0130    2.3270 H   0  0  0  0  0  0  0  0  0  0  0  0
    0.7030    2.4670    1.5300 H   0  0  0  0  0  0  0  0  0  0  0  0
    1.3170    1.7050    0.0600 H   0  0  0  0  0  0  0  0  0  0  0  0
    2.4420    2.0050    1.4100 H   0  0  0  0  0  0  0  0  0  0  0  0
    0.5070   -1.6290    1.3270 H   0  0  0  0  0  0  0  0  0  0  0  0
    1.9870   -0.0210   -0.7540 H   0  0  0  0  0  0  0  0  0  0  0  0
   -1.8460   -0.2770    0.5570 N   0  0  0  0  0  0  0  0  0  0  0  0
   -3.0050    0.1400   -0.1920 C   0  0  1  0  0  0  0  0  0  0  0  0
   -3.9360   -0.9490   -0.5570 C   0  0  0  0  0  0  0  0  0  0  0  0
   -4.5500   -1.7440    0.5250 C   0  0  0  0  0  0  0  0  0  0  0  0
   -5.3760   -1.0430    1.4960 C   0  0  0  0  0  0  0  0  0  0  0  0
   -4.8910   -0.6150    2.5620 O   0  0  0  0  0  0  0  0  0  0  0  0
   -3.7060    1.2460    0.4550 C   0  0  0  0  0  0  0  0  0  0  0  0
   -3.2720    1.7460    1.5130 O   0  0  0  0  0  0  0  0  0  0  0  0
   -6.7210   -0.8350    1.2590 O   0  0  0  0  0  0  0  0  0  0  0  0
   -4.8770    1.7960   -0.0610 O   0  0  0  0  0  0  0  0  0  0  0  0
   -2.0230   -0.6280    1.5140 H   0  0  0  0  0  0  0  0  0  0  0  0
   -2.6040    0.5500   -1.1640 H   0  0  0  0  0  0  0  0  0  0  0  0
   -3.5060   -1.6420   -1.3400 H   0  0  0  0  0  0  0  0  0  0  0  0
   -4.7870   -0.4550   -1.1200 H   0  0  0  0  0  0  0  0  0  0  0  0
   -5.0880   -2.6290    0.0610 H   0  0  0  0  0  0  0  0  0  0  0  0
   -3.6970   -2.2610    1.0700 H   0  0  0  0  0  0  0  0  0  0  0  0
   -7.4140   -0.8150    2.0210 H   0  0  0  0  0  0  0  0  0  0  0  0
  1 10  1  0  0  0  0
  2 11  1  1  0  0  0
  2  1  1  0  0  0  0
  3  2  1  0  0  0  0
  4 13  1  6  0  0  0
  4  2  1  0  0  0  0
  4  6  1  0  0  0  0
  5 14  1  0  0  0  0
  5  4  1  0  0  0  0
  6 21  1  0  0  0  0
  6  7  2  0  0  0  0
  8  1  1  0  0  0  0
  9  1  1  0  0  0  0
 12  3  1  0  0  0  0
 15  5  1  0  0  0  0
 16 25  1  0  0  0  0
 16 24  1  0  0  0  0
 17 27  1  0  0  0  0
 17 16  1  0  0  0  0
 18 29  1  1  0  0  0
 18 17  1  0  0  0  0
 19 32  1  0  0  0  0
 19 30  1  0  0  0  0
 19 18  1  0  0  0  0
 20 33  1  1  0  0  0
 20 18  1  0  0  0  0
 21 20  1  0  0  0  0
 22 35  1  0  0  0  0
 22 20  1  0  0  0  0
 23 22  2  0  0  0  0
 26 16  1  0  0  0  0
 28 17  1  0  0  0  0
 31 19  1  0  0  0  0
 34 21  1  0  0  0  0
 35 45  1  0  0  0  0
 36 46  1  6  0  0  0
 36 41  1  0  0  0  0
 36 35  1  0  0  0  0
 37 36  1  0  0  0  0
 37 38  1  0  0  0  0
 38 50  1  0  0  0  0
 38 39  1  0  0  0  0
 39 40  2  0  0  0  0
 41 42  1  0  0  0  0
 43 39  1  0  0  0  0
 43 51  1  0  0  0  0
 44 41  2  0  0  0  0
 47 37  1  0  0  0  0
 48 37  1  0  0  0  0
 49 38  1  0  0  0  0
M  END
$$$$
