TIG.pdb
 OpenBabel07022419123D

 42 41  0  0  1  0  0  0  0  0999 V2000
   -0.8870   -2.7260    3.9720 C   0  0  0  0  0  0  0  0  0  0  0  0
   -0.3210   -3.8280    3.1060 C   0  0  1  0  0  0  0  0  0  0  0  0
   -1.3640   -4.3790    2.3700 O   0  0  0  0  0  0  0  0  0  0  0  0
    0.7150   -3.3370    2.1510 C   0  0  2  0  0  0  0  0  0  0  0  0
    1.8560   -2.7390    2.8200 N   0  0  0  0  0  0  0  0  0  0  0  0
    0.0810   -2.3860    1.2120 C   0  0  0  0  0  0  0  0  0  0  0  0
   -0.9150   -2.6900    0.5280 O   0  0  0  0  0  0  0  0  0  0  0  0
   -0.1390   -2.3310    4.6910 H   0  0  0  0  0  0  0  0  0  0  0  0
   -1.7710   -3.1130    4.5110 H   0  0  0  0  0  0  0  0  0  0  0  0
   -1.2160   -1.8540    3.3420 H   0  0  0  0  0  0  0  0  0  0  0  0
    0.0810   -4.6030    3.8020 H   0  0  0  0  0  0  0  0  0  0  0  0
   -2.1540   -3.7540    2.3630 H   0  0  0  0  0  0  0  0  0  0  0  0
    1.0860   -4.2000    1.5720 H   0  0  0  0  0  0  0  0  0  0  0  0
    2.3770   -3.4480    3.3800 H   0  0  0  0  0  0  0  0  0  0  0  0
    2.5370   -2.3750    2.1190 H   0  0  0  0  0  0  0  0  0  0  0  0
   -1.9450    3.0610    1.0610 C   0  0  0  0  0  0  0  0  0  0  0  0
   -1.1800    2.0990    0.1760 C   0  0  0  0  0  0  0  0  0  0  0  0
   -0.5290    0.9980    1.0000 C   0  0  2  0  0  0  0  0  0  0  0  0
    0.4300    1.5720    1.9910 C   0  0  0  0  0  0  0  0  0  0  0  0
    0.0150   -0.1000    0.1520 C   0  0  2  0  0  0  0  0  0  0  0  0
    0.6080   -1.0820    1.0710 N   0  0  0  0  0  0  0  0  0  0  0  0
    0.9670    0.3220   -0.8780 C   0  0  0  0  0  0  0  0  0  0  0  0
    0.5950    1.1600   -1.7380 O   0  0  0  0  0  0  0  0  0  0  0  0
   -1.6260    2.8680    2.1200 H   0  0  0  0  0  0  0  0  0  0  0  0
   -1.7620    4.1110    0.7900 H   0  0  0  0  0  0  0  0  0  0  0  0
   -3.0360    2.8000    1.0460 H   0  0  0  0  0  0  0  0  0  0  0  0
   -0.3320    2.7020   -0.2510 H   0  0  0  0  0  0  0  0  0  0  0  0
   -1.7890    1.6950   -0.6400 H   0  0  0  0  0  0  0  0  0  0  0  0
   -1.3760    0.5500    1.5980 H   0  0  0  0  0  0  0  0  0  0  0  0
    0.4000    2.6900    1.9460 H   0  0  0  0  0  0  0  0  0  0  0  0
    1.4850    1.2950    1.8080 H   0  0  0  0  0  0  0  0  0  0  0  0
    0.1740    1.3110    3.0470 H   0  0  0  0  0  0  0  0  0  0  0  0
   -0.8550   -0.6050   -0.3410 H   0  0  0  0  0  0  0  0  0  0  0  0
    1.4380   -0.7380    1.6010 H   0  0  0  0  0  0  0  0  0  0  0  0
    2.3080   -0.1540   -0.9840 N   0  0  0  0  0  0  0  0  0  0  0  0
    3.2160    0.2920   -2.0220 C   0  0  0  0  0  0  0  0  0  0  0  0
    2.6880   -0.0230   -3.3730 C   0  0  0  0  0  0  0  0  0  0  0  0
    3.2800    0.2560   -4.4310 O   0  0  0  0  0  0  0  0  0  0  0  0
    1.4630   -0.6670   -3.4510 O   0  0  0  0  0  0  0  0  0  0  0  0
    2.5910   -0.8600   -0.2450 H   0  0  0  0  0  0  0  0  0  0  0  0
    4.1520   -0.2990   -1.9050 H   0  0  0  0  0  0  0  0  0  0  0  0
    3.4340    1.3750   -1.9510 H   0  0  0  0  0  0  0  0  0  0  0  0
  1  9  1  0  0  0  0
  1  8  1  0  0  0  0
  2 11  1  1  0  0  0
  2  1  1  0  0  0  0
  3  2  1  0  0  0  0
  4 13  1  6  0  0  0
  4  5  1  0  0  0  0
  4  2  1  0  0  0  0
  5 14  1  0  0  0  0
  6  4  1  0  0  0  0
  7  6  2  0  0  0  0
 10  1  1  0  0  0  0
 12  3  1  0  0  0  0
 15  5  1  0  0  0  0
 16 24  1  0  0  0  0
 17 18  1  0  0  0  0
 17 16  1  0  0  0  0
 18 29  1  1  0  0  0
 18 19  1  0  0  0  0
 19 32  1  0  0  0  0
 20 33  1  6  0  0  0
 20 18  1  0  0  0  0
 20 21  1  0  0  0  0
 21  6  1  0  0  0  0
 21 34  1  0  0  0  0
 22 20  1  0  0  0  0
 23 22  2  0  0  0  0
 25 16  1  0  0  0  0
 26 16  1  0  0  0  0
 27 17  1  0  0  0  0
 28 17  1  0  0  0  0
 30 19  1  0  0  0  0
 31 19  1  0  0  0  0
 35 22  1  0  0  0  0
 35 40  1  0  0  0  0
 36 42  1  0  0  0  0
 36 41  1  0  0  0  0
 36 35  1  0  0  0  0
 37 36  1  0  0  0  0
 38 37  2  0  0  0  0
 39 37  1  0  0  0  0
M  END
$$$$
