TIM.pdb
 OpenBabel07022419133D

 52 51  0  0  1  0  0  0  0  0999 V2000
    2.1780   -5.2450    4.0140 C   0  0  0  0  0  0  0  0  0  0  0  0
    1.5160   -4.2170    3.1280 C   0  0  1  0  0  0  0  0  0  0  0  0
    0.2300   -3.9880    3.5880 O   0  0  0  0  0  0  0  0  0  0  0  0
    2.3400   -2.9420    3.0490 C   0  0  2  0  0  0  0  0  0  0  0  0
    2.4220   -2.3690    4.3570 N   0  0  0  0  0  0  0  0  0  0  0  0
    1.7610   -2.0070    2.0310 C   0  0  0  0  0  0  0  0  0  0  0  0
    1.6660   -2.4600    0.8770 O   0  0  0  0  0  0  0  0  0  0  0  0
    1.3610   -5.8810    4.4360 H   0  0  0  0  0  0  0  0  0  0  0  0
    2.8230   -5.9410    3.4390 H   0  0  0  0  0  0  0  0  0  0  0  0
    2.7200   -4.8000    4.8720 H   0  0  0  0  0  0  0  0  0  0  0  0
    1.4210   -4.6830    2.1220 H   0  0  0  0  0  0  0  0  0  0  0  0
    0.0420   -4.4690    4.4390 H   0  0  0  0  0  0  0  0  0  0  0  0
    3.3680   -3.2570    2.7510 H   0  0  0  0  0  0  0  0  0  0  0  0
    3.3650   -1.9880    4.5070 H   0  0  0  0  0  0  0  0  0  0  0  0
    2.0080   -2.9080    5.1190 H   0  0  0  0  0  0  0  0  0  0  0  0
    2.7270    2.9400   -0.4960 C   0  0  0  0  0  0  0  0  0  0  0  0
    1.4620    2.0800   -0.2190 C   0  0  0  0  0  0  0  0  0  0  0  0
    1.8230    1.0390    0.7760 C   0  0  2  0  0  0  0  0  0  0  0  0
    2.9430    0.1920    0.1560 C   0  0  0  0  0  0  0  0  0  0  0  0
    0.7720    0.2390    1.4110 C   0  0  2  0  0  0  0  0  0  0  0  0
    1.3510   -0.7070    2.3520 N   0  0  0  0  0  0  0  0  0  0  0  0
   -0.2820   -0.3780    0.6170 C   0  0  0  0  0  0  0  0  0  0  0  0
   -0.5690   -1.5890    0.7910 O   0  0  0  0  0  0  0  0  0  0  0  0
    2.4390    3.9970   -0.6230 H   0  0  0  0  0  0  0  0  0  0  0  0
    3.3950    2.8520    0.3860 H   0  0  0  0  0  0  0  0  0  0  0  0
    3.2740    2.5180   -1.3610 H   0  0  0  0  0  0  0  0  0  0  0  0
    1.2140    1.6910   -1.2260 H   0  0  0  0  0  0  0  0  0  0  0  0
    0.6540    2.7670    0.0800 H   0  0  0  0  0  0  0  0  0  0  0  0
    2.3830    1.5820    1.6270 H   0  0  0  0  0  0  0  0  0  0  0  0
    3.7230    0.8550   -0.2840 H   0  0  0  0  0  0  0  0  0  0  0  0
    2.5780   -0.4370   -0.6750 H   0  0  0  0  0  0  0  0  0  0  0  0
    3.4580   -0.4400    0.8770 H   0  0  0  0  0  0  0  0  0  0  0  0
    0.1650    0.9380    2.1200 H   0  0  0  0  0  0  0  0  0  0  0  0
    1.4880   -0.4080    3.3770 H   0  0  0  0  0  0  0  0  0  0  0  0
   -6.2470    1.7120   -1.8870 C   0  0  0  0  0  0  0  0  0  0  0  0
   -6.1470    0.0540   -1.1580 S   0  0  0  0  0  0  0  0  0  0  0  0
   -4.5000   -0.6930   -1.5330 C   0  0  0  0  0  0  0  0  0  0  0  0
   -3.4320    0.0890   -0.8280 C   0  0  0  0  0  0  0  0  0  0  0  0
   -2.0820   -0.5120   -1.0850 C   0  0  2  0  0  0  0  0  0  0  0  0
   -1.0510    0.2720   -0.3670 N   0  0  0  0  0  0  0  0  0  0  0  0
   -1.8020   -0.5150   -2.5270 C   0  0  0  0  0  0  0  0  0  0  0  0
   -0.8120    0.2040   -2.9240 O   0  0  0  0  0  0  0  0  0  0  0  0
   -2.4700   -1.1970   -3.5050 O   0  0  0  0  0  0  0  0  0  0  0  0
   -6.3270    2.4550   -1.0540 H   0  0  0  0  0  0  0  0  0  0  0  0
   -7.1660    1.8350   -2.4990 H   0  0  0  0  0  0  0  0  0  0  0  0
   -5.3840    1.9160   -2.5450 H   0  0  0  0  0  0  0  0  0  0  0  0
   -4.5640   -1.7450   -1.2570 H   0  0  0  0  0  0  0  0  0  0  0  0
   -4.4350   -0.6380   -2.6460 H   0  0  0  0  0  0  0  0  0  0  0  0
   -3.6660    0.0340    0.2590 H   0  0  0  0  0  0  0  0  0  0  0  0
   -3.5060    1.1350   -1.1950 H   0  0  0  0  0  0  0  0  0  0  0  0
   -2.1190   -1.5560   -0.7450 H   0  0  0  0  0  0  0  0  0  0  0  0
   -0.9570    1.2660   -0.6140 H   0  0  0  0  0  0  0  0  0  0  0  0
  1  8  1  0  0  0  0
  1 10  1  0  0  0  0
  2 11  1  6  0  0  0
  2  3  1  0  0  0  0
  2  1  1  0  0  0  0
  3 12  1  0  0  0  0
  4 13  1  6  0  0  0
  4  2  1  0  0  0  0
  4  5  1  0  0  0  0
  5 14  1  0  0  0  0
  5 15  1  0  0  0  0
  6 21  1  0  0  0  0
  6  4  1  0  0  0  0
  7  6  2  0  0  0  0
  9  1  1  0  0  0  0
 16 17  1  0  0  0  0
 16 25  1  0  0  0  0
 17 28  1  0  0  0  0
 17 18  1  0  0  0  0
 18 20  1  0  0  0  0
 18 29  1  1  0  0  0
 19 18  1  0  0  0  0
 19 32  1  0  0  0  0
 20 33  1  1  0  0  0
 20 21  1  0  0  0  0
 21 34  1  0  0  0  0
 22 23  2  0  0  0  0
 22 20  1  0  0  0  0
 24 16  1  0  0  0  0
 26 16  1  0  0  0  0
 27 17  1  0  0  0  0
 30 19  1  0  0  0  0
 31 19  1  0  0  0  0
 35 36  1  0  0  0  0
 35 44  1  0  0  0  0
 37 47  1  0  0  0  0
 37 36  1  0  0  0  0
 37 38  1  0  0  0  0
 38 49  1  0  0  0  0
 39 38  1  0  0  0  0
 39 51  1  1  0  0  0
 39 40  1  0  0  0  0
 40 22  1  0  0  0  0
 41 39  1  0  0  0  0
 42 41  1  0  0  0  0
 43 41  2  0  0  0  0
 45 35  1  0  0  0  0
 46 35  1  0  0  0  0
 48 37  1  0  0  0  0
 50 38  1  0  0  0  0
 52 40  1  0  0  0  0
M  END
$$$$
