TIP.pdb
 OpenBabel07022419133D

 49 49  0  0  1  0  0  0  0  0999 V2000
   -0.9790   -5.3510    0.4620 C   0  0  0  0  0  0  0  0  0  0  0  0
   -0.4580   -3.9310    0.7400 C   0  0  1  0  0  0  0  0  0  0  0  0
    0.2240   -3.9370    1.9680 O   0  0  0  0  0  0  0  0  0  0  0  0
    0.4780   -3.6090   -0.3730 C   0  0  2  0  0  0  0  0  0  0  0  0
    1.5150   -4.6600   -0.3570 N   0  0  0  0  0  0  0  0  0  0  0  0
    1.1520   -2.3200   -0.3300 C   0  0  0  0  0  0  0  0  0  0  0  0
    2.4170   -2.2430   -0.2340 O   0  0  0  0  0  0  0  0  0  0  0  0
   -1.9480   -5.4780    0.9970 H   0  0  0  0  0  0  0  0  0  0  0  0
   -0.2480   -6.0970    0.8820 H   0  0  0  0  0  0  0  0  0  0  0  0
   -1.1360   -5.5130   -0.6180 H   0  0  0  0  0  0  0  0  0  0  0  0
   -1.3480   -3.3050    0.8140 H   0  0  0  0  0  0  0  0  0  0  0  0
    0.9490   -4.5940    1.8710 H   0  0  0  0  0  0  0  0  0  0  0  0
   -0.0710   -3.8020   -1.3190 H   0  0  0  0  0  0  0  0  0  0  0  0
    1.8710   -4.7660   -1.3340 H   0  0  0  0  0  0  0  0  0  0  0  0
    2.3330   -4.3250    0.2340 H   0  0  0  0  0  0  0  0  0  0  0  0
    1.0270    3.5010   -0.8260 C   0  0  0  0  0  0  0  0  0  0  0  0
    1.7300    2.4040   -1.5510 C   0  0  0  0  0  0  0  0  0  0  0  0
    1.0860    1.0660   -1.5370 C   0  0  2  0  0  0  0  0  0  0  0  0
   -0.3080    1.1660   -2.0930 C   0  0  0  0  0  0  0  0  0  0  0  0
    1.2260    0.2220   -0.3650 C   0  0  2  0  0  0  0  0  0  0  0  0
    0.5550   -1.0320   -0.3890 N   0  0  0  0  0  0  0  0  0  0  0  0
    1.0900    0.8920    0.9120 C   0  0  0  0  0  0  0  0  0  0  0  0
    1.8990    1.9080    1.1660 O   0  0  0  0  0  0  0  0  0  0  0  0
    1.6370    4.1690   -0.2240 H   0  0  0  0  0  0  0  0  0  0  0  0
    0.0890    3.1880   -0.2940 H   0  0  0  0  0  0  0  0  0  0  0  0
    0.5960    4.1940   -1.6320 H   0  0  0  0  0  0  0  0  0  0  0  0
    2.7900    2.3580   -1.1330 H   0  0  0  0  0  0  0  0  0  0  0  0
    1.9280    2.7730   -2.6060 H   0  0  0  0  0  0  0  0  0  0  0  0
    1.6100    0.5670   -2.4620 H   0  0  0  0  0  0  0  0  0  0  0  0
   -0.2210    1.7310   -3.0640 H   0  0  0  0  0  0  0  0  0  0  0  0
   -1.0330    1.6330   -1.4330 H   0  0  0  0  0  0  0  0  0  0  0  0
   -0.6150    0.1280   -2.4150 H   0  0  0  0  0  0  0  0  0  0  0  0
    2.3440   -0.1050   -0.3770 H   0  0  0  0  0  0  0  0  0  0  0  0
   -0.4840   -0.9980   -0.4870 H   0  0  0  0  0  0  0  0  0  0  0  0
    0.2250    0.6750    2.0000 N   0  0  0  0  0  0  0  0  0  0  0  0
    0.2390    1.4970    3.2340 C   0  0  0  0  0  0  0  0  0  0  0  0
   -0.5510    0.7570    4.2440 C   0  0  0  0  0  0  0  0  0  0  0  0
   -1.0440   -0.5000    3.6280 C   0  0  0  0  0  0  0  0  0  0  0  0
   -0.7910   -0.3190    2.1370 C   0  0  1  0  0  0  0  0  0  0  0  0
   -2.0550    0.1980    1.5720 C   0  0  0  0  0  0  0  0  0  0  0  0
   -2.0840    1.3410    1.0890 O   0  0  0  0  0  0  0  0  0  0  0  0
   -3.1750   -0.6070    1.5960 O   0  0  0  0  0  0  0  0  0  0  0  0
    1.2560    1.7300    3.5390 H   0  0  0  0  0  0  0  0  0  0  0  0
   -0.2610    2.4730    2.9720 H   0  0  0  0  0  0  0  0  0  0  0  0
   -1.4030    1.4000    4.6030 H   0  0  0  0  0  0  0  0  0  0  0  0
    0.0310    0.5270    5.1770 H   0  0  0  0  0  0  0  0  0  0  0  0
   -0.5350   -1.4150    4.0120 H   0  0  0  0  0  0  0  0  0  0  0  0
   -2.1230   -0.6490    3.7960 H   0  0  0  0  0  0  0  0  0  0  0  0
   -0.4850   -1.3020    1.7830 H   0  0  0  0  0  0  0  0  0  0  0  0
  1  2  1  0  0  0  0
  1  9  1  0  0  0  0
  1  8  1  0  0  0  0
  2 11  1  1  0  0  0
  2  3  1  0  0  0  0
  4 13  1  6  0  0  0
  4  5  1  0  0  0  0
  4  6  1  0  0  0  0
  4  2  1  0  0  0  0
  5 15  1  0  0  0  0
  6  7  2  0  0  0  0
 10  1  1  0  0  0  0
 12  3  1  0  0  0  0
 14  5  1  0  0  0  0
 16 25  1  0  0  0  0
 16 24  1  0  0  0  0
 17 18  1  0  0  0  0
 17 27  1  0  0  0  0
 17 16  1  0  0  0  0
 18 29  1  6  0  0  0
 18 20  1  0  0  0  0
 19 18  1  0  0  0  0
 19 31  1  0  0  0  0
 20 33  1  6  0  0  0
 20 22  1  0  0  0  0
 21 20  1  0  0  0  0
 21  6  1  0  0  0  0
 22 23  2  0  0  0  0
 22 35  1  0  0  0  0
 26 16  1  0  0  0  0
 28 17  1  0  0  0  0
 30 19  1  0  0  0  0
 32 19  1  0  0  0  0
 34 21  1  0  0  0  0
 35 39  1  0  0  0  0
 35 36  1  0  0  0  0
 36 43  1  0  0  0  0
 36 37  1  0  0  0  0
 37 45  1  0  0  0  0
 37 46  1  0  0  0  0
 38 48  1  0  0  0  0
 38 47  1  0  0  0  0
 38 37  1  0  0  0  0
 39 49  1  6  0  0  0
 39 38  1  0  0  0  0
 40 42  1  0  0  0  0
 40 39  1  0  0  0  0
 41 40  2  0  0  0  0
 44 36  1  0  0  0  0
M  END
$$$$
