TIT.pdb
 OpenBabel07022419133D

 49 48  0  0  1  0  0  0  0  0999 V2000
    1.1420   -4.9060    1.4180 C   0  0  0  0  0  0  0  0  0  0  0  0
    2.4540   -4.1570    1.5120 C   0  0  1  0  0  0  0  0  0  0  0  0
    2.7450   -3.4500    0.3710 O   0  0  0  0  0  0  0  0  0  0  0  0
    2.3590   -3.2240    2.6920 C   0  0  2  0  0  0  0  0  0  0  0  0
    2.0480   -4.0220    3.8880 N   0  0  0  0  0  0  0  0  0  0  0  0
    1.3190   -2.1760    2.5210 C   0  0  0  0  0  0  0  0  0  0  0  0
    0.3350   -2.0840    3.3330 O   0  0  0  0  0  0  0  0  0  0  0  0
    0.9950   -5.1820    0.3620 H   0  0  0  0  0  0  0  0  0  0  0  0
    1.2040   -5.8750    1.9860 H   0  0  0  0  0  0  0  0  0  0  0  0
    0.2960   -4.3480    1.8600 H   0  0  0  0  0  0  0  0  0  0  0  0
    3.2440   -4.8960    1.7550 H   0  0  0  0  0  0  0  0  0  0  0  0
    3.6580   -3.6000    0.0260 H   0  0  0  0  0  0  0  0  0  0  0  0
    3.3170   -2.7220    2.8840 H   0  0  0  0  0  0  0  0  0  0  0  0
    1.9990   -3.3960    4.7260 H   0  0  0  0  0  0  0  0  0  0  0  0
    1.1530   -4.5280    3.7630 H   0  0  0  0  0  0  0  0  0  0  0  0
    1.8150    1.6390   -0.6160 C   0  0  0  0  0  0  0  0  0  0  0  0
    2.1590    1.5220    0.8510 C   0  0  0  0  0  0  0  0  0  0  0  0
    0.9670    1.1160    1.6260 C   0  0  2  0  0  0  0  0  0  0  0  0
    1.3340    1.0070    3.1190 C   0  0  0  0  0  0  0  0  0  0  0  0
    0.3310   -0.1860    1.2850 C   0  0  2  0  0  0  0  0  0  0  0  0
    1.3320   -1.2180    1.4750 N   0  0  0  0  0  0  0  0  0  0  0  0
   -0.3600   -0.2730    0.0050 C   0  0  0  0  0  0  0  0  0  0  0  0
   -0.0580   -1.1820   -0.8430 O   0  0  0  0  0  0  0  0  0  0  0  0
    1.9030    0.6850   -1.1640 H   0  0  0  0  0  0  0  0  0  0  0  0
    0.8640    2.1810   -0.7780 H   0  0  0  0  0  0  0  0  0  0  0  0
    2.5860    2.3180   -1.1000 H   0  0  0  0  0  0  0  0  0  0  0  0
    2.4300    2.5750    1.1650 H   0  0  0  0  0  0  0  0  0  0  0  0
    3.0650    0.9380    1.0320 H   0  0  0  0  0  0  0  0  0  0  0  0
    0.1630    1.8950    1.6070 H   0  0  0  0  0  0  0  0  0  0  0  0
    1.5780    2.0100    3.5140 H   0  0  0  0  0  0  0  0  0  0  0  0
    0.4520    0.6470    3.6950 H   0  0  0  0  0  0  0  0  0  0  0  0
    2.2190    0.3540    3.2480 H   0  0  0  0  0  0  0  0  0  0  0  0
   -0.3970   -0.3630    2.1490 H   0  0  0  0  0  0  0  0  0  0  0  0
    2.1120   -1.2490    0.7890 H   0  0  0  0  0  0  0  0  0  0  0  0
   -4.0190    1.2710   -0.4710 C   0  0  0  0  0  0  0  0  0  0  0  0
   -3.5160    0.1180   -1.3450 C   0  0  1  0  0  0  0  0  0  0  0  0
   -4.2800   -0.0310   -2.4780 O   0  0  0  0  0  0  0  0  0  0  0  0
   -2.0620    0.4840   -1.6940 C   0  0  2  0  0  0  0  0  0  0  0  0
   -1.3970    0.6040   -0.4150 N   0  0  0  0  0  0  0  0  0  0  0  0
   -2.0430    1.7280   -2.4850 C   0  0  0  0  0  0  0  0  0  0  0  0
   -1.4960    2.7580   -2.0360 O   0  0  0  0  0  0  0  0  0  0  0  0
   -2.6210    1.8020   -3.7370 O   0  0  0  0  0  0  0  0  0  0  0  0
   -3.7950    1.0850    0.6060 H   0  0  0  0  0  0  0  0  0  0  0  0
   -3.4700    2.2160   -0.7260 H   0  0  0  0  0  0  0  0  0  0  0  0
   -5.1070    1.4370   -0.6160 H   0  0  0  0  0  0  0  0  0  0  0  0
   -3.5150   -0.7770   -0.7240 H   0  0  0  0  0  0  0  0  0  0  0  0
   -4.9950   -0.7030   -2.3920 H   0  0  0  0  0  0  0  0  0  0  0  0
   -1.6200   -0.3520   -2.3030 H   0  0  0  0  0  0  0  0  0  0  0  0
   -1.7050    1.3740    0.2150 H   0  0  0  0  0  0  0  0  0  0  0  0
  1  2  1  0  0  0  0
  1 10  1  0  0  0  0
  1  9  1  0  0  0  0
  2 11  1  1  0  0  0
  2  4  1  0  0  0  0
  3  2  1  0  0  0  0
  4 13  1  1  0  0  0
  4  5  1  0  0  0  0
  5 14  1  0  0  0  0
  6  4  1  0  0  0  0
  6  7  2  0  0  0  0
  8  1  1  0  0  0  0
 12  3  1  0  0  0  0
 15  5  1  0  0  0  0
 16 17  1  0  0  0  0
 17 28  1  0  0  0  0
 17 27  1  0  0  0  0
 17 18  1  0  0  0  0
 18 29  1  6  0  0  0
 18 19  1  0  0  0  0
 19 32  1  0  0  0  0
 19 30  1  0  0  0  0
 19 31  1  0  0  0  0
 20 21  1  0  0  0  0
 20 18  1  0  0  0  0
 20 33  1  1  0  0  0
 21  6  1  0  0  0  0
 22 20  1  0  0  0  0
 23 22  2  0  0  0  0
 24 16  1  0  0  0  0
 25 16  1  0  0  0  0
 26 16  1  0  0  0  0
 34 21  1  0  0  0  0
 35 43  1  0  0  0  0
 36 46  1  1  0  0  0
 36 35  1  0  0  0  0
 37 47  1  0  0  0  0
 37 36  1  0  0  0  0
 38 48  1  6  0  0  0
 38 36  1  0  0  0  0
 38 39  1  0  0  0  0
 39 22  1  0  0  0  0
 39 49  1  0  0  0  0
 40 41  1  0  0  0  0
 40 38  1  0  0  0  0
 42 40  2  0  0  0  0
 44 35  1  0  0  0  0
 45 35  1  0  0  0  0
M  END
$$$$
