TIV.pdb
 OpenBabel07022419133D

 51 50  0  0  1  0  0  0  0  0999 V2000
    2.9600   -3.5380    2.9070 C   0  0  0  0  0  0  0  0  0  0  0  0
    3.6010   -3.7800    1.5650 C   0  0  1  0  0  0  0  0  0  0  0  0
    3.9950   -5.1450    1.5830 O   0  0  0  0  0  0  0  0  0  0  0  0
    2.7190   -3.6150    0.3950 C   0  0  2  0  0  0  0  0  0  0  0  0
    3.4570   -3.9810   -0.8400 N   0  0  0  0  0  0  0  0  0  0  0  0
    2.0960   -2.2820    0.2020 C   0  0  0  0  0  0  0  0  0  0  0  0
    2.5350   -1.6340   -0.7830 O   0  0  0  0  0  0  0  0  0  0  0  0
    2.7440   -2.4880    3.1280 H   0  0  0  0  0  0  0  0  0  0  0  0
    3.5960   -3.9470    3.7390 H   0  0  0  0  0  0  0  0  0  0  0  0
    2.0020   -4.1170    2.9290 H   0  0  0  0  0  0  0  0  0  0  0  0
    4.5430   -3.2110    1.5440 H   0  0  0  0  0  0  0  0  0  0  0  0
    4.7420   -5.2830    2.2190 H   0  0  0  0  0  0  0  0  0  0  0  0
    1.8900   -4.3360    0.4610 H   0  0  0  0  0  0  0  0  0  0  0  0
    3.4110   -3.2290   -1.5410 H   0  0  0  0  0  0  0  0  0  0  0  0
    3.2020   -4.9220   -1.1660 H   0  0  0  0  0  0  0  0  0  0  0  0
    3.4570    1.7810    0.5890 C   0  0  0  0  0  0  0  0  0  0  0  0
    2.5610    0.7230    1.1770 C   0  0  0  0  0  0  0  0  0  0  0  0
    1.3090    0.5730    0.3090 C   0  0  2  0  0  0  0  0  0  0  0  0
    0.6160    1.9270    0.3270 C   0  0  0  0  0  0  0  0  0  0  0  0
    0.4360   -0.4580    0.9410 C   0  0  2  0  0  0  0  0  0  0  0  0
    1.1000   -1.7670    1.0300 N   0  0  0  0  0  0  0  0  0  0  0  0
   -0.9130   -0.6190    0.4070 C   0  0  0  0  0  0  0  0  0  0  0  0
   -1.1760   -1.7810   -0.0960 O   0  0  0  0  0  0  0  0  0  0  0  0
    3.2160    1.9240   -0.4970 H   0  0  0  0  0  0  0  0  0  0  0  0
    4.5420    1.5030    0.6950 H   0  0  0  0  0  0  0  0  0  0  0  0
    3.3030    2.7600    1.0880 H   0  0  0  0  0  0  0  0  0  0  0  0
    2.2420    1.0260    2.2260 H   0  0  0  0  0  0  0  0  0  0  0  0
    3.1010   -0.2020    1.3120 H   0  0  0  0  0  0  0  0  0  0  0  0
    1.6430    0.3370   -0.7060 H   0  0  0  0  0  0  0  0  0  0  0  0
    1.4690    2.6760    0.2190 H   0  0  0  0  0  0  0  0  0  0  0  0
    0.2150    2.1250    1.3320 H   0  0  0  0  0  0  0  0  0  0  0  0
   -0.1030    2.0690   -0.4810 H   0  0  0  0  0  0  0  0  0  0  0  0
    0.3620   -0.1410    2.0410 H   0  0  0  0  0  0  0  0  0  0  0  0
    0.8020   -2.4360    1.8020 H   0  0  0  0  0  0  0  0  0  0  0  0
   -4.5230    1.4830    1.3400 C   0  0  0  0  0  0  0  0  0  0  0  0
   -4.3890    0.1030    0.7720 C   0  0  0  0  0  0  0  0  0  0  0  0
   -5.6610   -0.3680    0.0960 C   0  0  0  0  0  0  0  0  0  0  0  0
   -3.2750   -0.0260   -0.2270 C   0  0  2  0  0  0  0  0  0  0  0  0
   -1.9770    0.2970    0.3570 N   0  0  0  0  0  0  0  0  0  0  0  0
   -3.5050    0.8850   -1.3720 C   0  0  0  0  0  0  0  0  0  0  0  0
   -2.6560    1.7550   -1.6980 O   0  0  0  0  0  0  0  0  0  0  0  0
   -4.6590    0.8370   -2.1490 O   0  0  0  0  0  0  0  0  0  0  0  0
   -4.0700    2.2700    0.7100 H   0  0  0  0  0  0  0  0  0  0  0  0
   -4.0890    1.5510    2.3650 H   0  0  0  0  0  0  0  0  0  0  0  0
   -5.6040    1.7410    1.4540 H   0  0  0  0  0  0  0  0  0  0  0  0
   -4.2130   -0.5910    1.6230 H   0  0  0  0  0  0  0  0  0  0  0  0
   -6.3460   -0.8860    0.7930 H   0  0  0  0  0  0  0  0  0  0  0  0
   -6.2030    0.4810   -0.3970 H   0  0  0  0  0  0  0  0  0  0  0  0
   -5.3980   -1.0710   -0.7340 H   0  0  0  0  0  0  0  0  0  0  0  0
   -3.2980   -1.0660   -0.6120 H   0  0  0  0  0  0  0  0  0  0  0  0
   -1.8280    1.2340    0.7740 H   0  0  0  0  0  0  0  0  0  0  0  0
  1 10  1  0  0  0  0
  1  8  1  0  0  0  0
  1  9  1  0  0  0  0
  2 11  1  6  0  0  0
  2  3  1  0  0  0  0
  2  1  1  0  0  0  0
  3 12  1  0  0  0  0
  4 13  1  1  0  0  0
  4  2  1  0  0  0  0
  5  4  1  0  0  0  0
  6  4  1  0  0  0  0
  6 21  1  0  0  0  0
  7  6  2  0  0  0  0
 14  5  1  0  0  0  0
 15  5  1  0  0  0  0
 16 25  1  0  0  0  0
 16 26  1  0  0  0  0
 16 17  1  0  0  0  0
 17 28  1  0  0  0  0
 17 27  1  0  0  0  0
 18 29  1  6  0  0  0
 18 19  1  0  0  0  0
 18 20  1  0  0  0  0
 18 17  1  0  0  0  0
 19 31  1  0  0  0  0
 20 21  1  0  0  0  0
 20 33  1  1  0  0  0
 21 34  1  0  0  0  0
 22 20  1  0  0  0  0
 23 22  2  0  0  0  0
 24 16  1  0  0  0  0
 30 19  1  0  0  0  0
 32 19  1  0  0  0  0
 35 45  1  0  0  0  0
 35 44  1  0  0  0  0
 36 35  1  0  0  0  0
 36 46  1  0  0  0  0
 37 36  1  0  0  0  0
 37 47  1  0  0  0  0
 38 50  1  6  0  0  0
 38 39  1  0  0  0  0
 38 36  1  0  0  0  0
 39 22  1  0  0  0  0
 39 51  1  0  0  0  0
 40 38  1  0  0  0  0
 41 40  1  0  0  0  0
 42 40  2  0  0  0  0
 43 35  1  0  0  0  0
 48 37  1  0  0  0  0
 49 37  1  0  0  0  0
M  END
$$$$
