TIY.pdb
 OpenBabel07022419133D

 56 56  0  0  1  0  0  0  0  0999 V2000
    2.7730   -4.5900    3.4810 C   0  0  0  0  0  0  0  0  0  0  0  0
    2.9600   -3.3130    4.2670 C   0  0  1  0  0  0  0  0  0  0  0  0
    4.0680   -3.4400    5.1020 O   0  0  0  0  0  0  0  0  0  0  0  0
    3.2420   -2.1910    3.2990 C   0  0  2  0  0  0  0  0  0  0  0  0
    3.4710   -0.9340    3.9560 N   0  0  0  0  0  0  0  0  0  0  0  0
    2.1580   -2.0190    2.3040 C   0  0  0  0  0  0  0  0  0  0  0  0
    1.7980   -3.0070    1.6130 O   0  0  0  0  0  0  0  0  0  0  0  0
    3.1260   -5.4840    4.0320 H   0  0  0  0  0  0  0  0  0  0  0  0
    3.3140   -4.5680    2.5160 H   0  0  0  0  0  0  0  0  0  0  0  0
    1.6920   -4.7700    3.2510 H   0  0  0  0  0  0  0  0  0  0  0  0
    2.0940   -3.0980    4.9240 H   0  0  0  0  0  0  0  0  0  0  0  0
    4.2850   -4.3880    5.2910 H   0  0  0  0  0  0  0  0  0  0  0  0
    4.1510   -2.5020    2.7180 H   0  0  0  0  0  0  0  0  0  0  0  0
    2.5960   -0.6460    4.4330 H   0  0  0  0  0  0  0  0  0  0  0  0
    3.7120   -0.2370    3.2160 H   0  0  0  0  0  0  0  0  0  0  0  0
   -2.2620    1.2270    2.9650 C   0  0  0  0  0  0  0  0  0  0  0  0
   -0.8580    0.9610    2.4610 C   0  0  0  0  0  0  0  0  0  0  0  0
   -0.8940   -0.3560    1.7260 C   0  0  2  0  0  0  0  0  0  0  0  0
   -1.3380   -1.4250    2.6910 C   0  0  0  0  0  0  0  0  0  0  0  0
    0.4510   -0.6940    1.1020 C   0  0  2  0  0  0  0  0  0  0  0  0
    1.4850   -0.7940    2.0730 N   0  0  0  0  0  0  0  0  0  0  0  0
    0.7540    0.2480   -0.0070 C   0  0  0  0  0  0  0  0  0  0  0  0
    1.8560    0.8890   -0.0430 O   0  0  0  0  0  0  0  0  0  0  0  0
   -3.0330    0.8210    2.2810 H   0  0  0  0  0  0  0  0  0  0  0  0
   -2.4520    2.3150    3.0940 H   0  0  0  0  0  0  0  0  0  0  0  0
   -2.3800    0.7180    3.9430 H   0  0  0  0  0  0  0  0  0  0  0  0
   -0.6220    1.8090    1.7630 H   0  0  0  0  0  0  0  0  0  0  0  0
   -0.1980    0.9480    3.3360 H   0  0  0  0  0  0  0  0  0  0  0  0
   -1.6860   -0.2700    0.9550 H   0  0  0  0  0  0  0  0  0  0  0  0
   -2.4410   -1.4760    2.7880 H   0  0  0  0  0  0  0  0  0  0  0  0
   -1.0420   -2.4180    2.2420 H   0  0  0  0  0  0  0  0  0  0  0  0
   -0.8770   -1.3150    3.6970 H   0  0  0  0  0  0  0  0  0  0  0  0
    0.2980   -1.6970    0.6070 H   0  0  0  0  0  0  0  0  0  0  0  0
    1.7730    0.0290    2.6370 H   0  0  0  0  0  0  0  0  0  0  0  0
   -4.7250   -2.2580   -4.5060 O   0  0  0  0  0  0  0  0  0  0  0  0
   -3.5430   -1.5570   -4.2490 C   0  0  0  0  0  0  0  0  0  0  0  0
   -2.4920   -2.1290   -3.5650 C   0  0  0  0  0  0  0  0  0  0  0  0
   -1.3280   -1.4500   -3.3090 C   0  0  0  0  0  0  0  0  0  0  0  0
   -1.1830   -0.1600   -3.7360 C   0  0  0  0  0  0  0  0  0  0  0  0
    0.0710    0.5880   -3.4660 C   0  0  0  0  0  0  0  0  0  0  0  0
    0.0190    1.3340   -2.1540 C   0  0  2  0  0  0  0  0  0  0  0  0
   -0.1860    0.4380   -1.0320 N   0  0  0  0  0  0  0  0  0  0  0  0
   -1.0120    2.3930   -2.1330 C   0  0  0  0  0  0  0  0  0  0  0  0
   -1.8840    2.4080   -1.2270 O   0  0  0  0  0  0  0  0  0  0  0  0
   -2.2010    0.4530   -4.4200 C   0  0  0  0  0  0  0  0  0  0  0  0
   -3.3560   -0.2580   -4.6620 C   0  0  0  0  0  0  0  0  0  0  0  0
   -1.0750    3.4030   -3.0820 O   0  0  0  0  0  0  0  0  0  0  0  0
   -4.6670   -3.2670   -4.4370 H   0  0  0  0  0  0  0  0  0  0  0  0
   -2.6380   -3.1580   -3.2380 H   0  0  0  0  0  0  0  0  0  0  0  0
   -0.5600   -1.9860   -2.7640 H   0  0  0  0  0  0  0  0  0  0  0  0
    0.2470    1.3190   -4.2590 H   0  0  0  0  0  0  0  0  0  0  0  0
    0.8950   -0.1500   -3.3790 H   0  0  0  0  0  0  0  0  0  0  0  0
    1.0220    1.7940   -2.0080 H   0  0  0  0  0  0  0  0  0  0  0  0
   -1.0870   -0.0970   -0.9870 H   0  0  0  0  0  0  0  0  0  0  0  0
   -2.1040    1.4980   -4.7760 H   0  0  0  0  0  0  0  0  0  0  0  0
   -4.1560    0.2410   -5.2060 H   0  0  0  0  0  0  0  0  0  0  0  0
  1  8  1  0  0  0  0
  1  2  1  0  0  0  0
  2 11  1  1  0  0  0
  2  3  1  0  0  0  0
  3 12  1  0  0  0  0
  4 13  1  6  0  0  0
  4  5  1  0  0  0  0
  4  2  1  0  0  0  0
  5 14  1  0  0  0  0
  6  4  1  0  0  0  0
  7  6  2  0  0  0  0
  9  1  1  0  0  0  0
 10  1  1  0  0  0  0
 15  5  1  0  0  0  0
 16 25  1  0  0  0  0
 16 26  1  0  0  0  0
 17 16  1  0  0  0  0
 17 28  1  0  0  0  0
 18 29  1  6  0  0  0
 18 17  1  0  0  0  0
 18 19  1  0  0  0  0
 19 30  1  0  0  0  0
 19 32  1  0  0  0  0
 20 33  1  6  0  0  0
 20 18  1  0  0  0  0
 20 21  1  0  0  0  0
 21  6  1  0  0  0  0
 21 34  1  0  0  0  0
 22 20  1  0  0  0  0
 23 22  2  0  0  0  0
 24 16  1  0  0  0  0
 27 17  1  0  0  0  0
 31 19  1  0  0  0  0
 35 48  1  0  0  0  0
 35 36  1  0  0  0  0
 36 37  1  0  0  0  0
 37 38  2  0  0  0  0
 37 49  1  0  0  0  0
 38 50  1  0  0  0  0
 39 40  1  0  0  0  0
 39 38  1  0  0  0  0
 40 52  1  0  0  0  0
 40 41  1  0  0  0  0
 41 43  1  0  0  0  0
 41 53  1  1  0  0  0
 41 42  1  0  0  0  0
 42 54  1  0  0  0  0
 42 22  1  0  0  0  0
 43 44  1  0  0  0  0
 45 39  2  0  0  0  0
 46 45  1  0  0  0  0
 46 36  2  0  0  0  0
 47 43  2  0  0  0  0
 51 40  1  0  0  0  0
 55 45  1  0  0  0  0
 56 46  1  0  0  0  0
M  END
$$$$
