TKC.pdb
 OpenBabel07022419133D

 48 47  0  0  1  0  0  0  0  0999 V2000
    1.9950   -3.8340   -2.3640 C   0  0  0  0  0  0  0  0  0  0  0  0
    3.1940   -3.2870   -1.6590 C   0  0  1  0  0  0  0  0  0  0  0  0
    3.6890   -2.2300   -2.4140 O   0  0  0  0  0  0  0  0  0  0  0  0
    2.9630   -2.8920   -0.2390 C   0  0  2  0  0  0  0  0  0  0  0  0
    2.4500   -3.9520    0.5810 N   0  0  0  0  0  0  0  0  0  0  0  0
    2.1530   -1.6470   -0.0990 C   0  0  0  0  0  0  0  0  0  0  0  0
    2.5050   -0.6750   -0.7670 O   0  0  0  0  0  0  0  0  0  0  0  0
    1.4450   -4.5150   -1.6830 H   0  0  0  0  0  0  0  0  0  0  0  0
    1.2890   -3.0610   -2.6990 H   0  0  0  0  0  0  0  0  0  0  0  0
    2.3180   -4.4910   -3.2230 H   0  0  0  0  0  0  0  0  0  0  0  0
    4.0100   -4.0640   -1.6630 H   0  0  0  0  0  0  0  0  0  0  0  0
    3.6860   -2.4200   -3.3730 H   0  0  0  0  0  0  0  0  0  0  0  0
    3.9730   -2.6280    0.1880 H   0  0  0  0  0  0  0  0  0  0  0  0
    2.4740   -3.6470    1.5710 H   0  0  0  0  0  0  0  0  0  0  0  0
    1.4750   -4.1720    0.3220 H   0  0  0  0  0  0  0  0  0  0  0  0
    1.0510   -1.5760    0.7430 N   0  0  0  0  0  0  0  0  0  0  0  0
    0.1650   -0.5230    1.0470 C   0  0  1  0  0  0  0  0  0  0  0  0
    0.5330    0.8760    0.6800 C   0  0  0  0  0  0  0  0  0  0  0  0
    1.7100    1.4820    1.3130 C   0  0  0  0  0  0  0  0  0  0  0  0
    1.6250    1.5790    2.8250 C   0  0  0  0  0  0  0  0  0  0  0  0
    0.4440    2.4160    3.2730 C   0  0  0  0  0  0  0  0  0  0  0  0
    0.4780    2.4300    4.7280 N   0  0  0  0  0  0  0  0  0  0  0  0
   -1.1950   -0.8390    0.6150 C   0  0  0  0  0  0  0  0  0  0  0  0
   -1.4900   -1.9280    0.0060 O   0  0  0  0  0  0  0  0  0  0  0  0
    0.8260   -2.4950    1.2650 H   0  0  0  0  0  0  0  0  0  0  0  0
    0.1570   -0.4470    2.2130 H   0  0  0  0  0  0  0  0  0  0  0  0
    0.6580    0.9900   -0.4410 H   0  0  0  0  0  0  0  0  0  0  0  0
   -0.3510    1.5170    0.8960 H   0  0  0  0  0  0  0  0  0  0  0  0
    1.8030    2.5640    0.9820 H   0  0  0  0  0  0  0  0  0  0  0  0
    2.6770    1.0480    1.0680 H   0  0  0  0  0  0  0  0  0  0  0  0
    1.5360    0.6060    3.3120 H   0  0  0  0  0  0  0  0  0  0  0  0
    2.5400    2.0770    3.2070 H   0  0  0  0  0  0  0  0  0  0  0  0
   -0.5260    1.9510    2.9960 H   0  0  0  0  0  0  0  0  0  0  0  0
    0.5600    3.4510    2.9330 H   0  0  0  0  0  0  0  0  0  0  0  0
    1.3430    2.8910    5.0820 H   0  0  0  0  0  0  0  0  0  0  0  0
    0.2870    1.5020    5.1470 H   0  0  0  0  0  0  0  0  0  0  0  0
   -2.3450   -0.0080    0.8050 N   0  0  0  0  0  0  0  0  0  0  0  0
   -3.6570   -0.3370    0.3750 C   0  0  1  0  0  0  0  0  0  0  0  0
   -4.6710   -0.4560    1.4730 C   0  0  0  0  0  0  0  0  0  0  0  0
   -4.2060   -1.7490    2.6610 S   0  0  0  0  0  0  0  0  0  0  0  0
   -4.1180    0.6300   -0.6300 C   0  0  0  0  0  0  0  0  0  0  0  0
   -3.3570    1.5660   -0.9700 O   0  0  0  0  0  0  0  0  0  0  0  0
   -5.3580    0.5400   -1.2100 O   0  0  0  0  0  0  0  0  0  0  0  0
   -2.2150    0.9020    1.2970 H   0  0  0  0  0  0  0  0  0  0  0  0
   -3.6130   -1.3340   -0.1280 H   0  0  0  0  0  0  0  0  0  0  0  0
   -4.9410    0.4890    1.9510 H   0  0  0  0  0  0  0  0  0  0  0  0
   -5.6180   -0.8290    0.9780 H   0  0  0  0  0  0  0  0  0  0  0  0
   -3.9140   -2.9190    1.9190 H   0  0  0  0  0  0  0  0  0  0  0  0
  1  8  1  0  0  0  0
  1  2  1  0  0  0  0
  2 11  1  1  0  0  0
  2  4  1  0  0  0  0
  3  2  1  0  0  0  0
  4  6  1  0  0  0  0
  4 13  1  1  0  0  0
  4  5  1  0  0  0  0
  5 14  1  0  0  0  0
  6 16  1  0  0  0  0
  7  6  2  0  0  0  0
  9  1  1  0  0  0  0
 10  1  1  0  0  0  0
 12  3  1  0  0  0  0
 15  5  1  0  0  0  0
 16 17  1  0  0  0  0
 16 25  1  0  0  0  0
 17 26  1  1  0  0  0
 18 28  1  0  0  0  0
 18 17  1  0  0  0  0
 18 19  1  0  0  0  0
 19 20  1  0  0  0  0
 20 32  1  0  0  0  0
 20 21  1  0  0  0  0
 20 31  1  0  0  0  0
 21 22  1  0  0  0  0
 22 35  1  0  0  0  0
 22 36  1  0  0  0  0
 23 37  1  0  0  0  0
 23 17  1  0  0  0  0
 24 23  2  0  0  0  0
 27 18  1  0  0  0  0
 29 19  1  0  0  0  0
 30 19  1  0  0  0  0
 33 21  1  0  0  0  0
 34 21  1  0  0  0  0
 37 44  1  0  0  0  0
 38 45  1  6  0  0  0
 38 37  1  0  0  0  0
 38 39  1  0  0  0  0
 39 46  1  0  0  0  0
 39 40  1  0  0  0  0
 41 38  1  0  0  0  0
 42 41  1  0  0  0  0
 43 41  2  0  0  0  0
 47 39  1  0  0  0  0
 48 40  1  0  0  0  0
M  END
$$$$
