TKD.pdb
 OpenBabel07022419133D

 50 49  0  0  1  0  0  0  0  0999 V2000
   -0.3020   -4.4500    0.8100 C   0  0  0  0  0  0  0  0  0  0  0  0
    0.8190   -4.5350    1.8110 C   0  0  1  0  0  0  0  0  0  0  0  0
    1.1860   -5.9080    1.8120 O   0  0  0  0  0  0  0  0  0  0  0  0
    2.0470   -3.8200    1.2770 C   0  0  2  0  0  0  0  0  0  0  0  0
    3.1390   -4.1990    2.2140 N   0  0  0  0  0  0  0  0  0  0  0  0
    1.9730   -2.3470    1.3740 C   0  0  0  0  0  0  0  0  0  0  0  0
    2.5610   -1.8150    2.3850 O   0  0  0  0  0  0  0  0  0  0  0  0
   -0.0550   -5.0500   -0.1140 H   0  0  0  0  0  0  0  0  0  0  0  0
   -0.5310   -3.4310    0.4960 H   0  0  0  0  0  0  0  0  0  0  0  0
   -1.1910   -4.9460    1.2840 H   0  0  0  0  0  0  0  0  0  0  0  0
    0.5310   -4.2320    2.8250 H   0  0  0  0  0  0  0  0  0  0  0  0
    0.4310   -6.4860    1.5480 H   0  0  0  0  0  0  0  0  0  0  0  0
    2.2550   -4.2120    0.2760 H   0  0  0  0  0  0  0  0  0  0  0  0
    3.8480   -3.4330    2.2440 H   0  0  0  0  0  0  0  0  0  0  0  0
    2.7390   -4.2900    3.1770 H   0  0  0  0  0  0  0  0  0  0  0  0
    1.3530   -1.4610    0.5090 N   0  0  0  0  0  0  0  0  0  0  0  0
    1.3680    0.0480    0.7320 C   0  0  1  0  0  0  0  0  0  0  0  0
    1.9550    0.6250   -0.4520 C   0  0  0  0  0  0  0  0  0  0  0  0
    2.2090    2.0080   -0.7260 C   0  0  0  0  0  0  0  0  0  0  0  0
    1.2520    3.0900   -0.9510 C   0  0  0  0  0  0  0  0  0  0  0  0
    0.2890    3.5620    0.0560 C   0  0  0  0  0  0  0  0  0  0  0  0
    0.9210    4.0270    1.2870 N   0  0  0  0  0  0  0  0  0  0  0  0
    0.0210    0.3170    1.1830 C   0  0  0  0  0  0  0  0  0  0  0  0
   -0.2040    1.2520    2.0070 O   0  0  0  0  0  0  0  0  0  0  0  0
    0.8730   -1.7520   -0.3340 H   0  0  0  0  0  0  0  0  0  0  0  0
    2.0470    0.1480    1.6360 H   0  0  0  0  0  0  0  0  0  0  0  0
    1.3500    0.2300   -1.3730 H   0  0  0  0  0  0  0  0  0  0  0  0
    2.9850    0.0930   -0.5840 H   0  0  0  0  0  0  0  0  0  0  0  0
    3.0260    2.4170    0.0420 H   0  0  0  0  0  0  0  0  0  0  0  0
    2.9350    2.0920   -1.6680 H   0  0  0  0  0  0  0  0  0  0  0  0
    0.5940    2.7740   -1.8560 H   0  0  0  0  0  0  0  0  0  0  0  0
    1.7770    3.9950   -1.4500 H   0  0  0  0  0  0  0  0  0  0  0  0
   -0.1420    4.5470   -0.4110 H   0  0  0  0  0  0  0  0  0  0  0  0
   -0.6240    2.9760    0.2020 H   0  0  0  0  0  0  0  0  0  0  0  0
    1.7140    3.4030    1.5570 H   0  0  0  0  0  0  0  0  0  0  0  0
    0.1690    4.0000    2.0300 H   0  0  0  0  0  0  0  0  0  0  0  0
   -1.0980   -0.4250    0.7410 N   0  0  0  0  0  0  0  0  0  0  0  0
   -2.4580   -0.1220    1.2210 C   0  0  1  0  0  0  0  0  0  0  0  0
   -3.4890   -0.2580    0.1430 C   0  0  0  0  0  0  0  0  0  0  0  0
   -3.2850    0.6190   -1.0260 C   0  0  0  0  0  0  0  0  0  0  0  0
   -2.3500    1.4200   -1.1810 O   0  0  0  0  0  0  0  0  0  0  0  0
   -2.7830   -1.1640    2.2360 C   0  0  0  0  0  0  0  0  0  0  0  0
   -3.8830   -1.1350    2.7990 O   0  0  0  0  0  0  0  0  0  0  0  0
   -4.2520    0.5200   -2.0450 O   0  0  0  0  0  0  0  0  0  0  0  0
   -1.8680   -2.1400    2.5390 O   0  0  0  0  0  0  0  0  0  0  0  0
   -0.9500   -1.1880    0.0560 H   0  0  0  0  0  0  0  0  0  0  0  0
   -2.4760    0.8450    1.7480 H   0  0  0  0  0  0  0  0  0  0  0  0
   -4.5080    0.0020    0.5440 H   0  0  0  0  0  0  0  0  0  0  0  0
   -3.5970   -1.3340   -0.1530 H   0  0  0  0  0  0  0  0  0  0  0  0
   -4.0620    0.8620   -2.9800 H   0  0  0  0  0  0  0  0  0  0  0  0
  1 10  1  0  0  0  0
  1  2  1  0  0  0  0
  2  3  1  0  0  0  0
  2 11  1  1  0  0  0
  4 13  1  6  0  0  0
  4  6  1  0  0  0  0
  4  2  1  0  0  0  0
  4  5  1  0  0  0  0
  5 14  1  0  0  0  0
  5 15  1  0  0  0  0
  6  7  2  0  0  0  0
  8  1  1  0  0  0  0
  9  1  1  0  0  0  0
 12  3  1  0  0  0  0
 16 17  1  0  0  0  0
 16  6  1  0  0  0  0
 17 23  1  0  0  0  0
 17 26  1  1  0  0  0
 18 17  1  0  0  0  0
 19 18  1  0  0  0  0
 19 29  1  0  0  0  0
 20 19  1  0  0  0  0
 20 21  1  0  0  0  0
 21 34  1  0  0  0  0
 21 22  1  0  0  0  0
 22 35  1  0  0  0  0
 22 36  1  0  0  0  0
 23 24  2  0  0  0  0
 25 16  1  0  0  0  0
 27 18  1  0  0  0  0
 28 18  1  0  0  0  0
 30 19  1  0  0  0  0
 31 20  1  0  0  0  0
 32 20  1  0  0  0  0
 33 21  1  0  0  0  0
 37 23  1  0  0  0  0
 37 38  1  0  0  0  0
 38 47  1  1  0  0  0
 38 42  1  0  0  0  0
 39 48  1  0  0  0  0
 39 38  1  0  0  0  0
 40 39  1  0  0  0  0
 41 40  2  0  0  0  0
 42 45  2  0  0  0  0
 42 43  1  0  0  0  0
 44 40  1  0  0  0  0
 46 37  1  0  0  0  0
 49 39  1  0  0  0  0
 50 44  1  0  0  0  0
M  END
$$$$
