TKI.pdb
 OpenBabel07022419133D

 56 55  0  0  1  0  0  0  0  0999 V2000
    0.3560   -4.0340    4.9950 C   0  0  0  0  0  0  0  0  0  0  0  0
    0.2330   -3.2880    3.6830 C   0  0  1  0  0  0  0  0  0  0  0  0
   -0.8570   -3.8000    2.9990 O   0  0  0  0  0  0  0  0  0  0  0  0
    0.0370   -1.8250    4.0090 C   0  0  2  0  0  0  0  0  0  0  0  0
   -1.1500   -1.7190    4.8340 N   0  0  0  0  0  0  0  0  0  0  0  0
   -0.1770   -1.0070    2.7940 C   0  0  0  0  0  0  0  0  0  0  0  0
   -1.2400   -0.3730    2.6130 O   0  0  0  0  0  0  0  0  0  0  0  0
   -0.5010   -4.7500    5.1400 H   0  0  0  0  0  0  0  0  0  0  0  0
    0.3240   -3.3560    5.8690 H   0  0  0  0  0  0  0  0  0  0  0  0
    1.2860   -4.6550    5.0190 H   0  0  0  0  0  0  0  0  0  0  0  0
    1.1870   -3.4320    3.1280 H   0  0  0  0  0  0  0  0  0  0  0  0
   -0.5440   -4.5620    2.4370 H   0  0  0  0  0  0  0  0  0  0  0  0
    0.8980   -1.4860    4.6090 H   0  0  0  0  0  0  0  0  0  0  0  0
   -1.8570   -2.4110    4.5300 H   0  0  0  0  0  0  0  0  0  0  0  0
   -0.9540   -1.7520    5.8420 H   0  0  0  0  0  0  0  0  0  0  0  0
    0.8110   -0.8960    1.7660 N   0  0  0  0  0  0  0  0  0  0  0  0
    0.6230   -0.0960    0.5620 C   0  0  1  0  0  0  0  0  0  0  0  0
    1.7440    0.8410    0.3140 C   0  0  0  0  0  0  0  0  0  0  0  0
    2.0860    1.8560    1.3300 C   0  0  0  0  0  0  0  0  0  0  0  0
    1.1830    2.9300    1.7200 C   0  0  0  0  0  0  0  0  0  0  0  0
   -0.1380    2.6590    2.3200 C   0  0  0  0  0  0  0  0  0  0  0  0
   -0.8000    3.9550    2.6880 N   0  0  0  0  0  0  0  0  0  0  0  0
    0.4380   -1.0280   -0.6180 C   0  0  0  0  0  0  0  0  0  0  0  0
    0.4560   -2.2760   -0.5070 O   0  0  0  0  0  0  0  0  0  0  0  0
    1.6970   -1.4280    1.9170 H   0  0  0  0  0  0  0  0  0  0  0  0
   -0.3260    0.4150    0.6390 H   0  0  0  0  0  0  0  0  0  0  0  0
    1.4520    1.4350   -0.6190 H   0  0  0  0  0  0  0  0  0  0  0  0
    2.6720    0.2930   -0.0430 H   0  0  0  0  0  0  0  0  0  0  0  0
    2.4060    1.3420    2.3170 H   0  0  0  0  0  0  0  0  0  0  0  0
    3.0620    2.3500    0.9740 H   0  0  0  0  0  0  0  0  0  0  0  0
    1.0230    3.6540    0.8600 H   0  0  0  0  0  0  0  0  0  0  0  0
    1.7180    3.6190    2.4700 H   0  0  0  0  0  0  0  0  0  0  0  0
   -0.8790    2.2820    1.5510 H   0  0  0  0  0  0  0  0  0  0  0  0
   -0.1500    2.0660    3.2470 H   0  0  0  0  0  0  0  0  0  0  0  0
   -1.6090    3.7010    3.3270 H   0  0  0  0  0  0  0  0  0  0  0  0
   -0.1450    4.4990    3.2910 H   0  0  0  0  0  0  0  0  0  0  0  0
   -2.3960   -2.7590   -2.2370 C   0  0  0  0  0  0  0  0  0  0  0  0
   -2.3930   -1.3290   -2.6510 C   0  0  0  0  0  0  0  0  0  0  0  0
   -1.3120   -0.9960   -3.6550 C   0  0  2  0  0  0  0  0  0  0  0  0
   -1.5360   -1.8450   -4.8790 C   0  0  0  0  0  0  0  0  0  0  0  0
    0.0460   -1.2890   -3.1030 C   0  0  2  0  0  0  0  0  0  0  0  0
    0.2340   -0.4780   -1.9100 N   0  0  0  0  0  0  0  0  0  0  0  0
    1.0950   -1.0710   -4.0990 C   0  0  0  0  0  0  0  0  0  0  0  0
    2.0110   -0.2540   -3.8520 O   0  0  0  0  0  0  0  0  0  0  0  0
    1.1100   -1.7390   -5.3070 O   0  0  0  0  0  0  0  0  0  0  0  0
   -1.7300   -3.3240   -2.9350 H   0  0  0  0  0  0  0  0  0  0  0  0
   -2.1190   -2.9320   -1.1760 H   0  0  0  0  0  0  0  0  0  0  0  0
   -3.4230   -3.1690   -2.3320 H   0  0  0  0  0  0  0  0  0  0  0  0
   -2.3820   -0.6190   -1.7890 H   0  0  0  0  0  0  0  0  0  0  0  0
   -3.3570   -1.1100   -3.1750 H   0  0  0  0  0  0  0  0  0  0  0  0
   -1.3400    0.0900   -3.8860 H   0  0  0  0  0  0  0  0  0  0  0  0
   -2.5920   -2.1470   -4.9250 H   0  0  0  0  0  0  0  0  0  0  0  0
   -0.9420   -2.7780   -4.7710 H   0  0  0  0  0  0  0  0  0  0  0  0
   -1.2010   -1.2580   -5.7580 H   0  0  0  0  0  0  0  0  0  0  0  0
    0.0540   -2.3610   -2.7720 H   0  0  0  0  0  0  0  0  0  0  0  0
    0.2200    0.5810   -2.0000 H   0  0  0  0  0  0  0  0  0  0  0  0
  1 10  1  0  0  0  0
  1  8  1  0  0  0  0
  1  9  1  0  0  0  0
  2 11  1  6  0  0  0
  2  4  1  0  0  0  0
  2  1  1  0  0  0  0
  3  2  1  0  0  0  0
  4 13  1  1  0  0  0
  4  5  1  0  0  0  0
  5 15  1  0  0  0  0
  6  4  1  0  0  0  0
  7  6  2  0  0  0  0
 12  3  1  0  0  0  0
 14  5  1  0  0  0  0
 16 25  1  0  0  0  0
 16  6  1  0  0  0  0
 17 26  1  1  0  0  0
 17 16  1  0  0  0  0
 18 17  1  0  0  0  0
 18 19  1  0  0  0  0
 19 20  1  0  0  0  0
 19 29  1  0  0  0  0
 20 21  1  0  0  0  0
 20 32  1  0  0  0  0
 21 22  1  0  0  0  0
 21 34  1  0  0  0  0
 22 36  1  0  0  0  0
 22 35  1  0  0  0  0
 23 24  2  0  0  0  0
 23 17  1  0  0  0  0
 27 18  1  0  0  0  0
 28 18  1  0  0  0  0
 30 19  1  0  0  0  0
 31 20  1  0  0  0  0
 33 21  1  0  0  0  0
 37 47  1  0  0  0  0
 38 37  1  0  0  0  0
 38 49  1  0  0  0  0
 39 51  1  6  0  0  0
 39 41  1  0  0  0  0
 39 38  1  0  0  0  0
 40 53  1  0  0  0  0
 40 39  1  0  0  0  0
 41 55  1  1  0  0  0
 41 42  1  0  0  0  0
 42 23  1  0  0  0  0
 43 44  1  0  0  0  0
 43 41  1  0  0  0  0
 45 43  2  0  0  0  0
 46 37  1  0  0  0  0
 48 37  1  0  0  0  0
 50 38  1  0  0  0  0
 52 40  1  0  0  0  0
 54 40  1  0  0  0  0
 56 42  1  0  0  0  0
M  END
$$$$
