TKL.pdb
 OpenBabel07022419133D

 56 55  0  0  1  0  0  0  0  0999 V2000
    0.5350   -4.4350    0.3890 C   0  0  0  0  0  0  0  0  0  0  0  0
    1.6180   -4.6670    1.4140 C   0  0  1  0  0  0  0  0  0  0  0  0
    2.2110   -5.9240    1.2160 O   0  0  0  0  0  0  0  0  0  0  0  0
    2.7390   -3.6650    1.1580 C   0  0  2  0  0  0  0  0  0  0  0  0
    3.7650   -4.0650    2.1730 N   0  0  0  0  0  0  0  0  0  0  0  0
    2.3460   -2.2650    1.4190 C   0  0  0  0  0  0  0  0  0  0  0  0
    2.5880   -1.8280    2.6030 O   0  0  0  0  0  0  0  0  0  0  0  0
    0.8880   -3.9050   -0.5030 H   0  0  0  0  0  0  0  0  0  0  0  0
    0.1300   -5.4480    0.1340 H   0  0  0  0  0  0  0  0  0  0  0  0
   -0.2750   -3.8390    0.8600 H   0  0  0  0  0  0  0  0  0  0  0  0
    1.2330   -4.6040    2.4320 H   0  0  0  0  0  0  0  0  0  0  0  0
    1.4900   -6.6080    1.0550 H   0  0  0  0  0  0  0  0  0  0  0  0
    3.1710   -3.8710    0.1890 H   0  0  0  0  0  0  0  0  0  0  0  0
    4.6520   -3.5430    1.9680 H   0  0  0  0  0  0  0  0  0  0  0  0
    3.9290   -5.1030    2.0660 H   0  0  0  0  0  0  0  0  0  0  0  0
    1.7490   -1.3760    0.5130 N   0  0  0  0  0  0  0  0  0  0  0  0
    1.3970    0.0260    0.8830 C   0  0  1  0  0  0  0  0  0  0  0  0
    2.2680    0.9630    0.1380 C   0  0  0  0  0  0  0  0  0  0  0  0
    2.1310    2.4110    0.3920 C   0  0  0  0  0  0  0  0  0  0  0  0
    2.5170    2.9970    1.6790 C   0  0  0  0  0  0  0  0  0  0  0  0
    1.8930    2.6200    2.9560 C   0  0  0  0  0  0  0  0  0  0  0  0
    0.4780    2.8280    3.0780 N   0  0  0  0  0  0  0  0  0  0  0  0
   -0.0520    0.2150    0.5670 C   0  0  0  0  0  0  0  0  0  0  0  0
   -0.6750    1.2810    0.7580 O   0  0  0  0  0  0  0  0  0  0  0  0
    1.5420   -1.6550   -0.4470 H   0  0  0  0  0  0  0  0  0  0  0  0
    1.5530    0.0710    1.9450 H   0  0  0  0  0  0  0  0  0  0  0  0
    2.1830    0.7830   -0.9880 H   0  0  0  0  0  0  0  0  0  0  0  0
    3.3410    0.6410    0.3950 H   0  0  0  0  0  0  0  0  0  0  0  0
    2.7110    2.9830   -0.4260 H   0  0  0  0  0  0  0  0  0  0  0  0
    1.0500    2.6690    0.1470 H   0  0  0  0  0  0  0  0  0  0  0  0
    2.4330    4.1490    1.6020 H   0  0  0  0  0  0  0  0  0  0  0  0
    3.6580    2.9070    1.8450 H   0  0  0  0  0  0  0  0  0  0  0  0
    2.3500    3.3280    3.7770 H   0  0  0  0  0  0  0  0  0  0  0  0
    2.1800    1.6430    3.3700 H   0  0  0  0  0  0  0  0  0  0  0  0
    0.2900    3.8390    2.8040 H   0  0  0  0  0  0  0  0  0  0  0  0
    0.2510    2.8030    4.1110 H   0  0  0  0  0  0  0  0  0  0  0  0
   -4.4740    0.7480   -1.6980 C   0  0  0  0  0  0  0  0  0  0  0  0
   -4.0010   -0.6480   -2.0550 C   0  0  0  0  0  0  0  0  0  0  0  0
   -4.2500   -0.7710   -3.5660 C   0  0  0  0  0  0  0  0  0  0  0  0
   -2.5500   -0.8530   -1.7430 C   0  0  0  0  0  0  0  0  0  0  0  0
   -2.2730   -0.6500   -0.3030 C   0  0  2  0  0  0  0  0  0  0  0  0
   -0.8550   -0.8310    0.0090 N   0  0  0  0  0  0  0  0  0  0  0  0
   -3.1030   -1.5150    0.5430 C   0  0  0  0  0  0  0  0  0  0  0  0
   -2.5070   -2.3200    1.3450 O   0  0  0  0  0  0  0  0  0  0  0  0
   -4.4770   -1.5720    0.5890 O   0  0  0  0  0  0  0  0  0  0  0  0
   -5.5100    0.8370   -2.0430 H   0  0  0  0  0  0  0  0  0  0  0  0
   -4.3960    0.8870   -0.6130 H   0  0  0  0  0  0  0  0  0  0  0  0
   -3.7980    1.4970   -2.1720 H   0  0  0  0  0  0  0  0  0  0  0  0
   -4.6970   -1.3660   -1.6100 H   0  0  0  0  0  0  0  0  0  0  0  0
   -3.9220   -1.7840   -3.8760 H   0  0  0  0  0  0  0  0  0  0  0  0
   -3.7910    0.0450   -4.1240 H   0  0  0  0  0  0  0  0  0  0  0  0
   -5.3570   -0.7510   -3.6750 H   0  0  0  0  0  0  0  0  0  0  0  0
   -2.0000   -0.1190   -2.3990 H   0  0  0  0  0  0  0  0  0  0  0  0
   -2.2890   -1.8980   -2.0900 H   0  0  0  0  0  0  0  0  0  0  0  0
   -2.5110    0.3980   -0.0370 H   0  0  0  0  0  0  0  0  0  0  0  0
   -0.4500   -1.7500   -0.1940 H   0  0  0  0  0  0  0  0  0  0  0  0
  1 10  1  0  0  0  0
  1  2  1  0  0  0  0
  2 11  1  1  0  0  0
  3  2  1  0  0  0  0
  4 13  1  6  0  0  0
  4  2  1  0  0  0  0
  4  6  1  0  0  0  0
  4  5  1  0  0  0  0
  6  7  2  0  0  0  0
  8  1  1  0  0  0  0
  9  1  1  0  0  0  0
 12  3  1  0  0  0  0
 14  5  1  0  0  0  0
 15  5  1  0  0  0  0
 16 17  1  0  0  0  0
 16  6  1  0  0  0  0
 17 26  1  1  0  0  0
 18 19  1  0  0  0  0
 18 28  1  0  0  0  0
 18 17  1  0  0  0  0
 19 20  1  0  0  0  0
 20 32  1  0  0  0  0
 20 21  1  0  0  0  0
 21 22  1  0  0  0  0
 21 34  1  0  0  0  0
 21 33  1  0  0  0  0
 22 36  1  0  0  0  0
 23 24  2  0  0  0  0
 23 17  1  0  0  0  0
 25 16  1  0  0  0  0
 27 18  1  0  0  0  0
 29 19  1  0  0  0  0
 30 19  1  0  0  0  0
 31 20  1  0  0  0  0
 35 22  1  0  0  0  0
 37 47  1  0  0  0  0
 38 40  1  0  0  0  0
 38 37  1  0  0  0  0
 38 49  1  0  0  0  0
 39 38  1  0  0  0  0
 40 41  1  0  0  0  0
 41 55  1  1  0  0  0
 41 42  1  0  0  0  0
 41 43  1  0  0  0  0
 42 23  1  0  0  0  0
 43 45  2  0  0  0  0
 43 44  1  0  0  0  0
 46 37  1  0  0  0  0
 48 37  1  0  0  0  0
 50 39  1  0  0  0  0
 51 39  1  0  0  0  0
 52 39  1  0  0  0  0
 53 40  1  0  0  0  0
 54 40  1  0  0  0  0
 56 42  1  0  0  0  0
M  END
$$$$
