TKM.pdb
 OpenBabel07022419133D

 54 53  0  0  1  0  0  0  0  0999 V2000
    1.5860   -4.0670    3.6470 C   0  0  0  0  0  0  0  0  0  0  0  0
    1.9940   -4.3370    2.2140 C   0  0  1  0  0  0  0  0  0  0  0  0
    1.7510   -5.7000    1.9560 O   0  0  0  0  0  0  0  0  0  0  0  0
    1.1130   -3.5380    1.3030 C   0  0  2  0  0  0  0  0  0  0  0  0
    1.3990   -3.8280   -0.0880 N   0  0  0  0  0  0  0  0  0  0  0  0
    1.1550   -2.0880    1.5880 C   0  0  0  0  0  0  0  0  0  0  0  0
    0.9920   -1.5890    2.7190 O   0  0  0  0  0  0  0  0  0  0  0  0
    0.5340   -3.7320    3.6370 H   0  0  0  0  0  0  0  0  0  0  0  0
    2.1830   -3.1920    4.0170 H   0  0  0  0  0  0  0  0  0  0  0  0
    1.7350   -4.9640    4.2870 H   0  0  0  0  0  0  0  0  0  0  0  0
    3.0740   -4.1460    2.0600 H   0  0  0  0  0  0  0  0  0  0  0  0
    2.1240   -5.9900    1.0920 H   0  0  0  0  0  0  0  0  0  0  0  0
    0.0610   -3.9160    1.4750 H   0  0  0  0  0  0  0  0  0  0  0  0
    0.7720   -3.3080   -0.7370 H   0  0  0  0  0  0  0  0  0  0  0  0
    2.3840   -3.6330   -0.3570 H   0  0  0  0  0  0  0  0  0  0  0  0
    1.3950   -1.1870    0.5190 N   0  0  0  0  0  0  0  0  0  0  0  0
    1.4510    0.2730    0.7690 C   0  0  1  0  0  0  0  0  0  0  0  0
    2.4530    0.9720   -0.0100 C   0  0  0  0  0  0  0  0  0  0  0  0
    2.7860    2.3470    0.3480 C   0  0  0  0  0  0  0  0  0  0  0  0
    1.9280    3.4830    0.5950 C   0  0  0  0  0  0  0  0  0  0  0  0
    1.0750    3.5100    1.8230 C   0  0  0  0  0  0  0  0  0  0  0  0
    0.2940    4.7610    1.7920 N   0  0  0  0  0  0  0  0  0  0  0  0
    0.1010    0.6070    0.0730 C   0  0  0  0  0  0  0  0  0  0  0  0
   -0.1230    1.7500   -0.3280 O   0  0  0  0  0  0  0  0  0  0  0  0
    1.5470   -1.4450   -0.4750 H   0  0  0  0  0  0  0  0  0  0  0  0
    1.2900    0.4580    1.8090 H   0  0  0  0  0  0  0  0  0  0  0  0
    2.1280    1.0350   -1.1260 H   0  0  0  0  0  0  0  0  0  0  0  0
    3.4080    0.3580   -0.1620 H   0  0  0  0  0  0  0  0  0  0  0  0
    3.5530    2.3350    1.2420 H   0  0  0  0  0  0  0  0  0  0  0  0
    3.5510    2.7290   -0.4610 H   0  0  0  0  0  0  0  0  0  0  0  0
    1.3450    3.8800   -0.2780 H   0  0  0  0  0  0  0  0  0  0  0  0
    2.6530    4.3880    0.7580 H   0  0  0  0  0  0  0  0  0  0  0  0
    0.3840    2.7010    1.9880 H   0  0  0  0  0  0  0  0  0  0  0  0
    1.7320    3.5960    2.7570 H   0  0  0  0  0  0  0  0  0  0  0  0
   -0.5910    4.6530    2.3570 H   0  0  0  0  0  0  0  0  0  0  0  0
    0.9100    5.5150    2.1230 H   0  0  0  0  0  0  0  0  0  0  0  0
   -5.3590   -2.5040   -1.5590 C   0  0  0  0  0  0  0  0  0  0  0  0
   -3.7550   -2.6850   -0.7210 S   0  0  0  0  0  0  0  0  0  0  0  0
   -2.3870   -2.2430   -1.7790 C   0  0  0  0  0  0  0  0  0  0  0  0
   -2.3620   -0.7720   -2.0360 C   0  0  0  0  0  0  0  0  0  0  0  0
   -2.1580   -0.0060   -0.7710 C   0  0  2  0  0  0  0  0  0  0  0  0
   -0.9020   -0.3750   -0.1160 N   0  0  0  0  0  0  0  0  0  0  0  0
   -3.2910   -0.1580    0.1450 C   0  0  0  0  0  0  0  0  0  0  0  0
   -4.4540    0.1890   -0.1800 O   0  0  0  0  0  0  0  0  0  0  0  0
   -3.1360   -0.7000    1.4350 O   0  0  0  0  0  0  0  0  0  0  0  0
   -6.1230   -2.2830   -0.7910 H   0  0  0  0  0  0  0  0  0  0  0  0
   -5.5610   -3.4590   -2.0730 H   0  0  0  0  0  0  0  0  0  0  0  0
   -5.2340   -1.6620   -2.2840 H   0  0  0  0  0  0  0  0  0  0  0  0
   -2.5010   -2.8160   -2.7510 H   0  0  0  0  0  0  0  0  0  0  0  0
   -1.4020   -2.5900   -1.3990 H   0  0  0  0  0  0  0  0  0  0  0  0
   -3.3690   -0.4910   -2.4420 H   0  0  0  0  0  0  0  0  0  0  0  0
   -1.6280   -0.4880   -2.8310 H   0  0  0  0  0  0  0  0  0  0  0  0
   -2.0970    1.0890   -1.0540 H   0  0  0  0  0  0  0  0  0  0  0  0
   -0.7360   -1.3360    0.2110 H   0  0  0  0  0  0  0  0  0  0  0  0
  1  9  1  0  0  0  0
  1 10  1  0  0  0  0
  2 11  1  6  0  0  0
  2  1  1  0  0  0  0
  3  2  1  0  0  0  0
  4 13  1  1  0  0  0
  4  6  1  0  0  0  0
  4  2  1  0  0  0  0
  5  4  1  0  0  0  0
  6  7  2  0  0  0  0
  8  1  1  0  0  0  0
 12  3  1  0  0  0  0
 14  5  1  0  0  0  0
 15  5  1  0  0  0  0
 16 17  1  0  0  0  0
 16  6  1  0  0  0  0
 17 26  1  1  0  0  0
 18 19  1  0  0  0  0
 18 17  1  0  0  0  0
 19 20  1  0  0  0  0
 19 29  1  0  0  0  0
 20 32  1  0  0  0  0
 20 21  1  0  0  0  0
 21 33  1  0  0  0  0
 21 34  1  0  0  0  0
 22 21  1  0  0  0  0
 22 36  1  0  0  0  0
 22 35  1  0  0  0  0
 23 17  1  0  0  0  0
 24 23  2  0  0  0  0
 25 16  1  0  0  0  0
 27 18  1  0  0  0  0
 28 18  1  0  0  0  0
 30 19  1  0  0  0  0
 31 20  1  0  0  0  0
 37 46  1  0  0  0  0
 37 38  1  0  0  0  0
 39 50  1  0  0  0  0
 39 38  1  0  0  0  0
 40 39  1  0  0  0  0
 40 41  1  0  0  0  0
 41 53  1  6  0  0  0
 41 42  1  0  0  0  0
 41 43  1  0  0  0  0
 42 23  1  0  0  0  0
 42 54  1  0  0  0  0
 43 45  1  0  0  0  0
 44 43  2  0  0  0  0
 47 37  1  0  0  0  0
 48 37  1  0  0  0  0
 49 39  1  0  0  0  0
 51 40  1  0  0  0  0
 52 40  1  0  0  0  0
M  END
$$$$
