TKN.pdb
 OpenBabel07022419133D

 51 50  0  0  1  0  0  0  0  0999 V2000
    1.6250   -3.9830    2.8180 C   0  0  0  0  0  0  0  0  0  0  0  0
    1.7600   -4.2650    1.3360 C   0  0  1  0  0  0  0  0  0  0  0  0
    1.4660   -5.6520    1.2210 O   0  0  0  0  0  0  0  0  0  0  0  0
    0.5840   -3.5910    0.6330 C   0  0  2  0  0  0  0  0  0  0  0  0
    0.5360   -4.0750   -0.7590 N   0  0  0  0  0  0  0  0  0  0  0  0
    0.7020   -2.1240    0.5720 C   0  0  0  0  0  0  0  0  0  0  0  0
    0.9470   -1.6000   -0.5640 O   0  0  0  0  0  0  0  0  0  0  0  0
    0.5600   -3.8880    3.1080 H   0  0  0  0  0  0  0  0  0  0  0  0
    2.1440   -3.0630    3.1030 H   0  0  0  0  0  0  0  0  0  0  0  0
    2.0110   -4.8650    3.3920 H   0  0  0  0  0  0  0  0  0  0  0  0
    2.7270   -4.0020    0.9180 H   0  0  0  0  0  0  0  0  0  0  0  0
    0.5240   -5.7190    1.5610 H   0  0  0  0  0  0  0  0  0  0  0  0
   -0.3280   -3.9700    1.1240 H   0  0  0  0  0  0  0  0  0  0  0  0
    1.0040   -4.9930   -0.8390 H   0  0  0  0  0  0  0  0  0  0  0  0
    0.8770   -3.3590   -1.4240 H   0  0  0  0  0  0  0  0  0  0  0  0
    0.5710   -1.2250    1.6440 N   0  0  0  0  0  0  0  0  0  0  0  0
    0.6840    0.2390    1.5480 C   0  0  1  0  0  0  0  0  0  0  0  0
    2.0320    0.7340    1.4320 C   0  0  0  0  0  0  0  0  0  0  0  0
    2.4280    2.1370    1.5300 C   0  0  0  0  0  0  0  0  0  0  0  0
    1.8660    3.2830    0.8430 C   0  0  0  0  0  0  0  0  0  0  0  0
    0.4990    3.7580    1.2160 C   0  0  0  0  0  0  0  0  0  0  0  0
    0.5220    4.1340    2.6340 N   0  0  0  0  0  0  0  0  0  0  0  0
   -0.1030    0.4340    0.2190 C   0  0  0  0  0  0  0  0  0  0  0  0
    0.2540    1.2670   -0.5990 O   0  0  0  0  0  0  0  0  0  0  0  0
    0.3720   -1.5960    2.5860 H   0  0  0  0  0  0  0  0  0  0  0  0
    0.0420    0.6940    2.2750 H   0  0  0  0  0  0  0  0  0  0  0  0
    2.5660    0.3000    0.5030 H   0  0  0  0  0  0  0  0  0  0  0  0
    2.6480    0.1990    2.2650 H   0  0  0  0  0  0  0  0  0  0  0  0
    2.4850    2.4510    2.6570 H   0  0  0  0  0  0  0  0  0  0  0  0
    3.5860    2.2160    1.3220 H   0  0  0  0  0  0  0  0  0  0  0  0
    2.0090    3.2630   -0.2770 H   0  0  0  0  0  0  0  0  0  0  0  0
    2.5440    4.1800    1.1140 H   0  0  0  0  0  0  0  0  0  0  0  0
   -0.3500    3.1680    0.9610 H   0  0  0  0  0  0  0  0  0  0  0  0
    0.3470    4.7580    0.6920 H   0  0  0  0  0  0  0  0  0  0  0  0
    1.0710    4.9950    2.7270 H   0  0  0  0  0  0  0  0  0  0  0  0
   -0.4440    4.1840    3.0150 H   0  0  0  0  0  0  0  0  0  0  0  0
   -3.0880   -2.7150   -0.0090 N   0  0  0  0  0  0  0  0  0  0  0  0
   -2.5520   -2.6720   -1.3040 C   0  0  0  0  0  0  0  0  0  0  0  0
   -2.5240   -3.7750   -1.9450 O   0  0  0  0  0  0  0  0  0  0  0  0
   -2.0190   -1.5030   -2.0070 C   0  0  0  0  0  0  0  0  0  0  0  0
   -2.0350   -0.2280   -1.2380 C   0  0  2  0  0  0  0  0  0  0  0  0
   -1.2350   -0.3620   -0.0150 N   0  0  0  0  0  0  0  0  0  0  0  0
   -3.3940    0.2190   -0.9400 C   0  0  0  0  0  0  0  0  0  0  0  0
   -3.7710    0.4500    0.2300 O   0  0  0  0  0  0  0  0  0  0  0  0
   -4.2990    0.3960   -1.9680 O   0  0  0  0  0  0  0  0  0  0  0  0
   -3.9950   -2.2840    0.2830 H   0  0  0  0  0  0  0  0  0  0  0  0
   -2.5710   -3.2100    0.7620 H   0  0  0  0  0  0  0  0  0  0  0  0
   -2.7000   -1.3380   -2.9000 H   0  0  0  0  0  0  0  0  0  0  0  0
   -1.0170   -1.6460   -2.4550 H   0  0  0  0  0  0  0  0  0  0  0  0
   -1.5330    0.5470   -1.8630 H   0  0  0  0  0  0  0  0  0  0  0  0
   -1.5020   -1.0670    0.7220 H   0  0  0  0  0  0  0  0  0  0  0  0
  1  9  1  0  0  0  0
  1  8  1  0  0  0  0
  1 10  1  0  0  0  0
  2 11  1  6  0  0  0
  2  1  1  0  0  0  0
  3  2  1  0  0  0  0
  3 12  1  0  0  0  0
  4 13  1  1  0  0  0
  4  2  1  0  0  0  0
  5  4  1  0  0  0  0
  6  4  1  0  0  0  0
  6 16  1  0  0  0  0
  7  6  2  0  0  0  0
 14  5  1  0  0  0  0
 15  5  1  0  0  0  0
 16 25  1  0  0  0  0
 17 16  1  0  0  0  0
 17 26  1  1  0  0  0
 18 19  1  0  0  0  0
 18 17  1  0  0  0  0
 18 28  1  0  0  0  0
 19 29  1  0  0  0  0
 20 32  1  0  0  0  0
 20 21  1  0  0  0  0
 20 19  1  0  0  0  0
 21 22  1  0  0  0  0
 22 35  1  0  0  0  0
 22 36  1  0  0  0  0
 23 17  1  0  0  0  0
 24 23  2  0  0  0  0
 27 18  1  0  0  0  0
 30 19  1  0  0  0  0
 31 20  1  0  0  0  0
 33 21  1  0  0  0  0
 34 21  1  0  0  0  0
 37 46  1  0  0  0  0
 37 47  1  0  0  0  0
 38 37  1  0  0  0  0
 39 38  2  0  0  0  0
 40 38  1  0  0  0  0
 40 41  1  0  0  0  0
 41 50  1  6  0  0  0
 41 43  1  0  0  0  0
 41 42  1  0  0  0  0
 42 23  1  0  0  0  0
 42 51  1  0  0  0  0
 43 44  1  0  0  0  0
 45 43  2  0  0  0  0
 48 40  1  0  0  0  0
 49 40  1  0  0  0  0
M  END
$$$$
