TKP.pdb
 OpenBabel07022419133D

 51 51  0  0  1  0  0  0  0  0999 V2000
    0.7570   -4.3240    3.3190 C   0  0  0  0  0  0  0  0  0  0  0  0
    0.0160   -3.0900    3.7710 C   0  0  1  0  0  0  0  0  0  0  0  0
   -0.1980   -3.1780    5.1340 O   0  0  0  0  0  0  0  0  0  0  0  0
    0.8550   -1.8260    3.5340 C   0  0  2  0  0  0  0  0  0  0  0  0
    0.0860   -0.7240    4.0340 N   0  0  0  0  0  0  0  0  0  0  0  0
    1.0840   -1.6630    2.0750 C   0  0  0  0  0  0  0  0  0  0  0  0
    1.8270   -2.5100    1.4610 O   0  0  0  0  0  0  0  0  0  0  0  0
    0.3560   -5.1840    3.9070 H   0  0  0  0  0  0  0  0  0  0  0  0
    1.8250   -4.2080    3.5840 H   0  0  0  0  0  0  0  0  0  0  0  0
    0.6510   -4.4920    2.2240 H   0  0  0  0  0  0  0  0  0  0  0  0
   -0.9560   -2.9760    3.2670 H   0  0  0  0  0  0  0  0  0  0  0  0
   -0.6540   -4.0270    5.3090 H   0  0  0  0  0  0  0  0  0  0  0  0
    1.8050   -1.8990    4.0940 H   0  0  0  0  0  0  0  0  0  0  0  0
   -0.8970   -0.6870    3.7310 H   0  0  0  0  0  0  0  0  0  0  0  0
    0.5370    0.1900    3.9140 H   0  0  0  0  0  0  0  0  0  0  0  0
    0.4740   -0.5770    1.4050 N   0  0  0  0  0  0  0  0  0  0  0  0
    0.5940   -0.2470    0.0410 C   0  0  1  0  0  0  0  0  0  0  0  0
    1.8300   -0.7690   -0.6800 C   0  0  0  0  0  0  0  0  0  0  0  0
    3.1120   -0.2510   -0.1580 C   0  0  0  0  0  0  0  0  0  0  0  0
    3.2490    1.2570   -0.2690 C   0  0  0  0  0  0  0  0  0  0  0  0
    3.1560    1.7770   -1.6610 C   0  0  0  0  0  0  0  0  0  0  0  0
    3.3060    3.2290   -1.5840 N   0  0  0  0  0  0  0  0  0  0  0  0
   -0.5460   -0.2630   -0.8220 C   0  0  0  0  0  0  0  0  0  0  0  0
   -0.3470    0.0180   -2.0570 O   0  0  0  0  0  0  0  0  0  0  0  0
   -0.1350    0.0580    2.0160 H   0  0  0  0  0  0  0  0  0  0  0  0
    0.8990    0.9060    0.0950 H   0  0  0  0  0  0  0  0  0  0  0  0
    1.6520   -0.4650   -1.7600 H   0  0  0  0  0  0  0  0  0  0  0  0
    1.8310   -1.8690   -0.7150 H   0  0  0  0  0  0  0  0  0  0  0  0
    3.9760   -0.7170   -0.6760 H   0  0  0  0  0  0  0  0  0  0  0  0
    3.2290   -0.4640    0.9140 H   0  0  0  0  0  0  0  0  0  0  0  0
    4.3160    1.4570    0.0620 H   0  0  0  0  0  0  0  0  0  0  0  0
    2.6410    1.7980    0.4750 H   0  0  0  0  0  0  0  0  0  0  0  0
    3.9860    1.4390   -2.3080 H   0  0  0  0  0  0  0  0  0  0  0  0
    2.2170    1.4940   -2.1800 H   0  0  0  0  0  0  0  0  0  0  0  0
    3.3430    3.6790   -2.5020 H   0  0  0  0  0  0  0  0  0  0  0  0
    2.5720    3.5780   -0.9550 H   0  0  0  0  0  0  0  0  0  0  0  0
   -1.8750   -0.5600   -0.4420 N   0  0  0  0  0  0  0  0  0  0  0  0
   -2.2980   -0.9180    0.8860 C   0  0  0  0  0  0  0  0  0  0  0  0
   -3.6760   -1.5980    0.6750 C   0  0  0  0  0  0  0  0  0  0  0  0
   -4.2250   -0.7340   -0.4410 C   0  0  0  0  0  0  0  0  0  0  0  0
   -3.0270   -0.5550   -1.3200 C   0  0  1  0  0  0  0  0  0  0  0  0
   -3.1300    0.6880   -2.1330 C   0  0  0  0  0  0  0  0  0  0  0  0
   -2.3490    1.6430   -2.0080 O   0  0  0  0  0  0  0  0  0  0  0  0
   -4.1480    0.7670   -3.0660 O   0  0  0  0  0  0  0  0  0  0  0  0
   -2.4450   -0.0300    1.5500 H   0  0  0  0  0  0  0  0  0  0  0  0
   -1.6140   -1.6780    1.3060 H   0  0  0  0  0  0  0  0  0  0  0  0
   -4.2710   -1.6080    1.5810 H   0  0  0  0  0  0  0  0  0  0  0  0
   -3.4640   -2.5910    0.2410 H   0  0  0  0  0  0  0  0  0  0  0  0
   -5.0900   -1.2040   -0.9570 H   0  0  0  0  0  0  0  0  0  0  0  0
   -4.5060    0.2310    0.0360 H   0  0  0  0  0  0  0  0  0  0  0  0
   -2.9320   -1.4530   -2.0000 H   0  0  0  0  0  0  0  0  0  0  0  0
  1  9  1  0  0  0  0
  1  2  1  0  0  0  0
  1  8  1  0  0  0  0
  2 11  1  6  0  0  0
  2  3  1  0  0  0  0
  3 12  1  0  0  0  0
  4  2  1  0  0  0  0
  4  5  1  0  0  0  0
  4 13  1  1  0  0  0
  6  4  1  0  0  0  0
  7  6  2  0  0  0  0
 10  1  1  0  0  0  0
 14  5  1  0  0  0  0
 15  5  1  0  0  0  0
 16 25  1  0  0  0  0
 16  6  1  0  0  0  0
 17 26  1  1  0  0  0
 17 16  1  0  0  0  0
 18 19  1  0  0  0  0
 18 17  1  0  0  0  0
 19 30  1  0  0  0  0
 20 19  1  0  0  0  0
 20 31  1  0  0  0  0
 20 32  1  0  0  0  0
 21 22  1  0  0  0  0
 21 20  1  0  0  0  0
 22 36  1  0  0  0  0
 23 37  1  0  0  0  0
 23 17  1  0  0  0  0
 24 23  2  0  0  0  0
 27 18  1  0  0  0  0
 28 18  1  0  0  0  0
 29 19  1  0  0  0  0
 33 21  1  0  0  0  0
 34 21  1  0  0  0  0
 35 22  1  0  0  0  0
 37 38  1  0  0  0  0
 38 46  1  0  0  0  0
 38 45  1  0  0  0  0
 39 38  1  0  0  0  0
 39 47  1  0  0  0  0
 40 50  1  0  0  0  0
 40 39  1  0  0  0  0
 41 51  1  6  0  0  0
 41 37  1  0  0  0  0
 41 40  1  0  0  0  0
 42 43  1  0  0  0  0
 42 41  1  0  0  0  0
 44 42  2  0  0  0  0
 48 39  1  0  0  0  0
 49 40  1  0  0  0  0
M  END
$$$$
