TKQ.pdb
 OpenBabel07022419133D

 54 53  0  0  1  0  0  0  0  0999 V2000
    0.0840   -3.2170    3.4700 C   0  0  0  0  0  0  0  0  0  0  0  0
   -0.9090   -2.0770    3.5120 C   0  0  1  0  0  0  0  0  0  0  0  0
   -1.6910   -2.2550    4.6630 O   0  0  0  0  0  0  0  0  0  0  0  0
   -0.1920   -0.7340    3.5600 C   0  0  2  0  0  0  0  0  0  0  0  0
   -1.1450    0.3310    3.6370 N   0  0  0  0  0  0  0  0  0  0  0  0
    0.6610   -0.6190    2.3240 C   0  0  0  0  0  0  0  0  0  0  0  0
    1.5210   -1.5240    2.2050 O   0  0  0  0  0  0  0  0  0  0  0  0
    0.3150   -3.5090    2.4280 H   0  0  0  0  0  0  0  0  0  0  0  0
    1.0130   -2.9370    3.9920 H   0  0  0  0  0  0  0  0  0  0  0  0
   -0.3690   -4.1030    3.9700 H   0  0  0  0  0  0  0  0  0  0  0  0
   -1.5280   -2.1250    2.6090 H   0  0  0  0  0  0  0  0  0  0  0  0
   -2.3070   -2.9980    4.5350 H   0  0  0  0  0  0  0  0  0  0  0  0
    0.4490   -0.7010    4.4620 H   0  0  0  0  0  0  0  0  0  0  0  0
   -1.7660    0.4190    2.8260 H   0  0  0  0  0  0  0  0  0  0  0  0
   -0.7420    1.2370    3.9050 H   0  0  0  0  0  0  0  0  0  0  0  0
    0.5010    0.4090    1.3960 N   0  0  0  0  0  0  0  0  0  0  0  0
    1.2560    0.6140    0.2150 C   0  0  1  0  0  0  0  0  0  0  0  0
    2.6600    0.1350    0.1870 C   0  0  0  0  0  0  0  0  0  0  0  0
    3.6010    0.6970    1.1610 C   0  0  0  0  0  0  0  0  0  0  0  0
    3.9580    2.1200    1.1780 C   0  0  0  0  0  0  0  0  0  0  0  0
    2.9720    3.1770    1.4050 C   0  0  0  0  0  0  0  0  0  0  0  0
    2.2250    3.0800    2.6470 N   0  0  0  0  0  0  0  0  0  0  0  0
    0.4930    0.1400   -0.9950 C   0  0  0  0  0  0  0  0  0  0  0  0
    1.0150    0.2480   -2.1210 O   0  0  0  0  0  0  0  0  0  0  0  0
   -0.2800    1.1110    1.6130 H   0  0  0  0  0  0  0  0  0  0  0  0
    1.3390    1.7340    0.0320 H   0  0  0  0  0  0  0  0  0  0  0  0
    2.6390   -0.9930    0.2890 H   0  0  0  0  0  0  0  0  0  0  0  0
    3.0570    0.3550   -0.8630 H   0  0  0  0  0  0  0  0  0  0  0  0
    3.3910    0.3010    2.2010 H   0  0  0  0  0  0  0  0  0  0  0  0
    4.6010    0.1480    0.9510 H   0  0  0  0  0  0  0  0  0  0  0  0
    4.5170    2.3820    0.2330 H   0  0  0  0  0  0  0  0  0  0  0  0
    4.7700    2.2590    1.9800 H   0  0  0  0  0  0  0  0  0  0  0  0
    3.6340    4.1270    1.6240 H   0  0  0  0  0  0  0  0  0  0  0  0
    2.3520    3.5480    0.6070 H   0  0  0  0  0  0  0  0  0  0  0  0
    1.2150    3.0360    2.3840 H   0  0  0  0  0  0  0  0  0  0  0  0
    2.4240    2.1950    3.1620 H   0  0  0  0  0  0  0  0  0  0  0  0
   -3.8040   -4.9940   -3.6390 N   0  0  0  0  0  0  0  0  0  0  0  0
   -3.0710   -4.2730   -2.6850 C   0  0  0  0  0  0  0  0  0  0  0  0
   -2.6930   -4.8120   -1.6310 O   0  0  0  0  0  0  0  0  0  0  0  0
   -2.7430   -2.8500   -2.9420 C   0  0  0  0  0  0  0  0  0  0  0  0
   -1.9610   -2.3190   -1.7780 C   0  0  0  0  0  0  0  0  0  0  0  0
   -1.5840   -0.8950   -1.9990 C   0  0  2  0  0  0  0  0  0  0  0  0
   -0.7920   -0.4140   -0.8320 N   0  0  0  0  0  0  0  0  0  0  0  0
   -2.7720   -0.0230   -2.0240 C   0  0  0  0  0  0  0  0  0  0  0  0
   -2.9550    0.8320   -1.0930 O   0  0  0  0  0  0  0  0  0  0  0  0
   -3.7590   -0.0450   -3.0180 O   0  0  0  0  0  0  0  0  0  0  0  0
   -3.6240   -4.7920   -4.6490 H   0  0  0  0  0  0  0  0  0  0  0  0
   -4.5080   -5.7090   -3.3460 H   0  0  0  0  0  0  0  0  0  0  0  0
   -3.6380   -2.2480   -3.1190 H   0  0  0  0  0  0  0  0  0  0  0  0
   -2.0800   -2.7410   -3.8390 H   0  0  0  0  0  0  0  0  0  0  0  0
   -0.9870   -2.8860   -1.6630 H   0  0  0  0  0  0  0  0  0  0  0  0
   -2.5250   -2.3900   -0.8180 H   0  0  0  0  0  0  0  0  0  0  0  0
   -1.0110   -0.7410   -2.9140 H   0  0  0  0  0  0  0  0  0  0  0  0
   -1.1840   -0.4830    0.1210 H   0  0  0  0  0  0  0  0  0  0  0  0
  1  2  1  0  0  0  0
  1 10  1  0  0  0  0
  1  9  1  0  0  0  0
  2 11  1  6  0  0  0
  2  4  1  0  0  0  0
  2  3  1  0  0  0  0
  4  5  1  0  0  0  0
  4 13  1  1  0  0  0
  5 15  1  0  0  0  0
  6  4  1  0  0  0  0
  7  6  2  0  0  0  0
  8  1  1  0  0  0  0
 12  3  1  0  0  0  0
 14  5  1  0  0  0  0
 16 25  1  0  0  0  0
 16  6  1  0  0  0  0
 17 26  1  6  0  0  0
 17 16  1  0  0  0  0
 18 17  1  0  0  0  0
 18 27  1  0  0  0  0
 18 19  1  0  0  0  0
 19 20  1  0  0  0  0
 19 29  1  0  0  0  0
 20 21  1  0  0  0  0
 20 32  1  0  0  0  0
 21 33  1  0  0  0  0
 21 22  1  0  0  0  0
 22 36  1  0  0  0  0
 23 43  1  0  0  0  0
 23 17  1  0  0  0  0
 24 23  2  0  0  0  0
 28 18  1  0  0  0  0
 30 19  1  0  0  0  0
 31 20  1  0  0  0  0
 34 21  1  0  0  0  0
 35 22  1  0  0  0  0
 37 48  1  0  0  0  0
 37 38  1  0  0  0  0
 38 39  2  0  0  0  0
 40 38  1  0  0  0  0
 40 41  1  0  0  0  0
 41 51  1  0  0  0  0
 41 52  1  0  0  0  0
 42 53  1  6  0  0  0
 42 41  1  0  0  0  0
 42 43  1  0  0  0  0
 43 54  1  0  0  0  0
 44 42  1  0  0  0  0
 44 45  1  0  0  0  0
 46 44  2  0  0  0  0
 47 37  1  0  0  0  0
 49 40  1  0  0  0  0
 50 40  1  0  0  0  0
M  END
$$$$
