TKR.pdb
 OpenBabel07022419133D

 60 59  0  0  1  0  0  0  0  0999 V2000
    2.9240   -2.5610   -2.4480 C   0  0  0  0  0  0  0  0  0  0  0  0
    4.0500   -2.5290   -1.4380 C   0  0  1  0  0  0  0  0  0  0  0  0
    5.1830   -2.9880   -2.1470 O   0  0  0  0  0  0  0  0  0  0  0  0
    4.3640   -1.1440   -0.9350 C   0  0  2  0  0  0  0  0  0  0  0  0
    5.5510   -1.2810   -0.0840 N   0  0  0  0  0  0  0  0  0  0  0  0
    3.2780   -0.4740   -0.2240 C   0  0  0  0  0  0  0  0  0  0  0  0
    3.4380   -0.2530    1.0320 O   0  0  0  0  0  0  0  0  0  0  0  0
    2.9490   -1.7020   -3.1490 H   0  0  0  0  0  0  0  0  0  0  0  0
    2.9700   -3.4890   -3.0680 H   0  0  0  0  0  0  0  0  0  0  0  0
    1.9670   -2.5190   -1.9030 H   0  0  0  0  0  0  0  0  0  0  0  0
    3.8440   -3.2630   -0.6600 H   0  0  0  0  0  0  0  0  0  0  0  0
    5.0240   -3.9740   -2.2610 H   0  0  0  0  0  0  0  0  0  0  0  0
    4.6640   -0.5260   -1.7970 H   0  0  0  0  0  0  0  0  0  0  0  0
    5.7050   -0.4040    0.4630 H   0  0  0  0  0  0  0  0  0  0  0  0
    6.3830   -1.5330   -0.6660 H   0  0  0  0  0  0  0  0  0  0  0  0
    2.0560   -0.0240   -0.7290 N   0  0  0  0  0  0  0  0  0  0  0  0
    1.0350    0.6400    0.0890 C   0  0  1  0  0  0  0  0  0  0  0  0
    0.8240    2.0210   -0.4140 C   0  0  0  0  0  0  0  0  0  0  0  0
   -0.1620    2.8750    0.2710 C   0  0  0  0  0  0  0  0  0  0  0  0
    0.2000    3.0680    1.7500 C   0  0  0  0  0  0  0  0  0  0  0  0
   -0.8360    3.9510    2.4180 C   0  0  0  0  0  0  0  0  0  0  0  0
   -0.4530    4.1040    3.8090 N   0  0  0  0  0  0  0  0  0  0  0  0
   -0.1460   -0.2540    0.0310 C   0  0  0  0  0  0  0  0  0  0  0  0
   -0.1830   -1.2920   -0.7210 O   0  0  0  0  0  0  0  0  0  0  0  0
    1.8520   -0.1560   -1.7380 H   0  0  0  0  0  0  0  0  0  0  0  0
    1.4380    0.6740    1.1160 H   0  0  0  0  0  0  0  0  0  0  0  0
    0.5260    1.9420   -1.4830 H   0  0  0  0  0  0  0  0  0  0  0  0
    1.8240    2.5420   -0.3250 H   0  0  0  0  0  0  0  0  0  0  0  0
   -1.2140    2.6560    0.1600 H   0  0  0  0  0  0  0  0  0  0  0  0
   -0.0550    3.9370   -0.1380 H   0  0  0  0  0  0  0  0  0  0  0  0
    0.3290    2.1100    2.2700 H   0  0  0  0  0  0  0  0  0  0  0  0
    1.1740    3.5980    1.8180 H   0  0  0  0  0  0  0  0  0  0  0  0
   -0.9150    4.9280    1.9080 H   0  0  0  0  0  0  0  0  0  0  0  0
   -1.8310    3.4750    2.3450 H   0  0  0  0  0  0  0  0  0  0  0  0
   -1.2200    3.7930    4.4450 H   0  0  0  0  0  0  0  0  0  0  0  0
   -0.2310    5.0920    4.0320 H   0  0  0  0  0  0  0  0  0  0  0  0
   -0.8110   -5.9630    0.3140 N   0  0  0  0  0  0  0  0  0  0  0  0
   -2.1710   -5.5580    0.4720 C   0  0  0  0  0  0  0  0  0  0  0  0
   -3.0820   -6.2140   -0.1670 N   0  0  0  0  0  0  0  0  0  0  0  0
   -2.5260   -4.4760    1.2970 N   0  0  0  0  0  0  0  0  0  0  0  0
   -3.7070   -3.7050    1.0040 C   0  0  0  0  0  0  0  0  0  0  0  0
   -3.9250   -2.5970    1.9860 C   0  0  0  0  0  0  0  0  0  0  0  0
   -2.7600   -1.6440    2.0000 C   0  0  0  0  0  0  0  0  0  0  0  0
   -2.4770   -0.9840    0.6870 C   0  0  2  0  0  0  0  0  0  0  0  0
   -1.3390   -0.0740    0.7810 N   0  0  0  0  0  0  0  0  0  0  0  0
   -3.6110   -0.2270    0.1310 C   0  0  0  0  0  0  0  0  0  0  0  0
   -4.7500   -0.7480   -0.0840 O   0  0  0  0  0  0  0  0  0  0  0  0
   -3.4680    1.1350   -0.1890 O   0  0  0  0  0  0  0  0  0  0  0  0
   -0.0830   -5.2840    0.0350 H   0  0  0  0  0  0  0  0  0  0  0  0
   -0.5470   -6.9710    0.4860 H   0  0  0  0  0  0  0  0  0  0  0  0
   -4.0870   -6.0190   -0.1330 H   0  0  0  0  0  0  0  0  0  0  0  0
   -1.9440   -4.2350    2.1080 H   0  0  0  0  0  0  0  0  0  0  0  0
   -4.6090   -4.3790    1.0350 H   0  0  0  0  0  0  0  0  0  0  0  0
   -3.6130   -3.2530   -0.0110 H   0  0  0  0  0  0  0  0  0  0  0  0
   -4.9020   -2.1160    1.7770 H   0  0  0  0  0  0  0  0  0  0  0  0
   -4.0110   -3.0440    3.0120 H   0  0  0  0  0  0  0  0  0  0  0  0
   -1.9040   -2.1850    2.4170 H   0  0  0  0  0  0  0  0  0  0  0  0
   -3.0580   -0.8200    2.7170 H   0  0  0  0  0  0  0  0  0  0  0  0
   -2.2240   -1.7990   -0.0520 H   0  0  0  0  0  0  0  0  0  0  0  0
   -1.4440    0.7210    1.4440 H   0  0  0  0  0  0  0  0  0  0  0  0
  1 10  1  0  0  0  0
  1  2  1  0  0  0  0
  2  4  1  0  0  0  0
  2 11  1  1  0  0  0
  3  2  1  0  0  0  0
  4 13  1  6  0  0  0
  4  6  1  0  0  0  0
  4  5  1  0  0  0  0
  5 14  1  0  0  0  0
  6  7  2  0  0  0  0
  8  1  1  0  0  0  0
  9  1  1  0  0  0  0
 12  3  1  0  0  0  0
 15  5  1  0  0  0  0
 16  6  1  0  0  0  0
 16 17  1  0  0  0  0
 17 26  1  1  0  0  0
 18 28  1  0  0  0  0
 18 17  1  0  0  0  0
 18 19  1  0  0  0  0
 19 20  1  0  0  0  0
 20 32  1  0  0  0  0
 20 31  1  0  0  0  0
 20 21  1  0  0  0  0
 21 22  1  0  0  0  0
 22 36  1  0  0  0  0
 22 35  1  0  0  0  0
 23 17  1  0  0  0  0
 23 45  1  0  0  0  0
 24 23  2  0  0  0  0
 25 16  1  0  0  0  0
 27 18  1  0  0  0  0
 29 19  1  0  0  0  0
 30 19  1  0  0  0  0
 33 21  1  0  0  0  0
 34 21  1  0  0  0  0
 37 38  1  0  0  0  0
 37 50  1  0  0  0  0
 38 40  1  0  0  0  0
 39 51  1  0  0  0  0
 39 38  2  0  0  0  0
 40 52  1  0  0  0  0
 41 53  1  0  0  0  0
 41 40  1  0  0  0  0
 41 42  1  0  0  0  0
 42 43  1  0  0  0  0
 42 56  1  0  0  0  0
 43 57  1  0  0  0  0
 43 58  1  0  0  0  0
 44 59  1  6  0  0  0
 44 45  1  0  0  0  0
 44 43  1  0  0  0  0
 45 60  1  0  0  0  0
 46 44  1  0  0  0  0
 47 46  1  0  0  0  0
 48 46  2  0  0  0  0
 49 37  1  0  0  0  0
 54 41  1  0  0  0  0
 55 42  1  0  0  0  0
M  END
$$$$
