TKS.pdb
 OpenBabel07022419133D

 48 47  0  0  1  0  0  0  0  0999 V2000
   -1.4300   -3.6050    2.2310 C   0  0  0  0  0  0  0  0  0  0  0  0
   -0.0280   -3.8100    1.7540 C   0  0  1  0  0  0  0  0  0  0  0  0
    0.0040   -3.6920    0.3750 O   0  0  0  0  0  0  0  0  0  0  0  0
    0.9360   -2.7960    2.3450 C   0  0  2  0  0  0  0  0  0  0  0  0
    0.9200   -2.9130    3.7940 N   0  0  0  0  0  0  0  0  0  0  0  0
    0.6870   -1.4170    1.8990 C   0  0  0  0  0  0  0  0  0  0  0  0
    0.4570   -0.5610    2.7900 O   0  0  0  0  0  0  0  0  0  0  0  0
   -1.5490   -2.7100    2.8750 H   0  0  0  0  0  0  0  0  0  0  0  0
   -1.7040   -4.4730    2.8780 H   0  0  0  0  0  0  0  0  0  0  0  0
   -2.1230   -3.6010    1.3780 H   0  0  0  0  0  0  0  0  0  0  0  0
    0.3710   -4.8080    2.0800 H   0  0  0  0  0  0  0  0  0  0  0  0
    0.6500   -4.3300   -0.0320 H   0  0  0  0  0  0  0  0  0  0  0  0
    1.9510   -3.0880    2.0090 H   0  0  0  0  0  0  0  0  0  0  0  0
   -0.0150   -3.0570    4.1880 H   0  0  0  0  0  0  0  0  0  0  0  0
    1.3300   -2.0310    4.1620 H   0  0  0  0  0  0  0  0  0  0  0  0
    0.6800   -0.9490    0.5810 N   0  0  0  0  0  0  0  0  0  0  0  0
    0.4340    0.4030    0.2070 C   0  0  1  0  0  0  0  0  0  0  0  0
    1.4790    1.0810   -0.5840 C   0  0  0  0  0  0  0  0  0  0  0  0
    2.8220    1.1690    0.1030 C   0  0  0  0  0  0  0  0  0  0  0  0
    2.7790    1.9210    1.3890 C   0  0  0  0  0  0  0  0  0  0  0  0
    4.2110    1.9150    1.9470 C   0  0  0  0  0  0  0  0  0  0  0  0
    4.1480    2.6510    3.1950 N   0  0  0  0  0  0  0  0  0  0  0  0
   -0.8900    0.5200   -0.4670 C   0  0  0  0  0  0  0  0  0  0  0  0
   -1.2500    1.6690   -0.8610 O   0  0  0  0  0  0  0  0  0  0  0  0
    0.8680   -1.6250   -0.1910 H   0  0  0  0  0  0  0  0  0  0  0  0
    0.2950    0.9830    1.1680 H   0  0  0  0  0  0  0  0  0  0  0  0
    1.5700    0.7300   -1.6320 H   0  0  0  0  0  0  0  0  0  0  0  0
    1.1460    2.1590   -0.6980 H   0  0  0  0  0  0  0  0  0  0  0  0
    3.5840    1.6520   -0.5450 H   0  0  0  0  0  0  0  0  0  0  0  0
    3.2410    0.1550    0.3290 H   0  0  0  0  0  0  0  0  0  0  0  0
    2.5660    3.0040    1.1900 H   0  0  0  0  0  0  0  0  0  0  0  0
    2.1530    1.5020    2.1730 H   0  0  0  0  0  0  0  0  0  0  0  0
    4.4680    0.8440    2.1160 H   0  0  0  0  0  0  0  0  0  0  0  0
    4.9140    2.4070    1.2600 H   0  0  0  0  0  0  0  0  0  0  0  0
    3.2460    2.5290    3.6970 H   0  0  0  0  0  0  0  0  0  0  0  0
    4.4550    3.6350    3.1070 H   0  0  0  0  0  0  0  0  0  0  0  0
   -4.3570   -1.1020   -3.2600 O   0  0  0  0  0  0  0  0  0  0  0  0
   -3.1260   -1.2460   -2.6240 C   0  0  0  0  0  0  0  0  0  0  0  0
   -3.0590   -0.4060   -1.3600 C   0  0  2  0  0  0  0  0  0  0  0  0
   -1.7740   -0.5570   -0.6990 N   0  0  0  0  0  0  0  0  0  0  0  0
   -4.1040   -0.8190   -0.3880 C   0  0  0  0  0  0  0  0  0  0  0  0
   -3.8510   -1.2160    0.7760 O   0  0  0  0  0  0  0  0  0  0  0  0
   -5.4390   -0.7700   -0.7670 O   0  0  0  0  0  0  0  0  0  0  0  0
   -4.7830   -0.2480   -2.9710 H   0  0  0  0  0  0  0  0  0  0  0  0
   -2.2690   -1.0920   -3.2780 H   0  0  0  0  0  0  0  0  0  0  0  0
   -3.0970   -2.3200   -2.2740 H   0  0  0  0  0  0  0  0  0  0  0  0
   -3.2600    0.6340   -1.6550 H   0  0  0  0  0  0  0  0  0  0  0  0
   -1.4560   -1.4940   -0.3650 H   0  0  0  0  0  0  0  0  0  0  0  0
  1  8  1  0  0  0  0
  1  9  1  0  0  0  0
  2 11  1  1  0  0  0
  2  1  1  0  0  0  0
  2  4  1  0  0  0  0
  3  2  1  0  0  0  0
  4 13  1  6  0  0  0
  4  5  1  0  0  0  0
  5 15  1  0  0  0  0
  5 14  1  0  0  0  0
  6  4  1  0  0  0  0
  6  7  2  0  0  0  0
 10  1  1  0  0  0  0
 12  3  1  0  0  0  0
 16  6  1  0  0  0  0
 17 16  1  0  0  0  0
 17 26  1  1  0  0  0
 18 19  1  0  0  0  0
 18 17  1  0  0  0  0
 19 30  1  0  0  0  0
 19 20  1  0  0  0  0
 20 21  1  0  0  0  0
 20 32  1  0  0  0  0
 21 33  1  0  0  0  0
 21 22  1  0  0  0  0
 22 35  1  0  0  0  0
 23 17  1  0  0  0  0
 24 23  2  0  0  0  0
 25 16  1  0  0  0  0
 27 18  1  0  0  0  0
 28 18  1  0  0  0  0
 29 19  1  0  0  0  0
 31 20  1  0  0  0  0
 34 21  1  0  0  0  0
 36 22  1  0  0  0  0
 37 44  1  0  0  0  0
 37 38  1  0  0  0  0
 38 46  1  0  0  0  0
 38 39  1  0  0  0  0
 39 47  1  6  0  0  0
 39 40  1  0  0  0  0
 39 41  1  0  0  0  0
 40 23  1  0  0  0  0
 40 48  1  0  0  0  0
 41 42  1  0  0  0  0
 43 41  2  0  0  0  0
 45 38  1  0  0  0  0
M  END
$$$$
