TKT.pdb
 OpenBabel07022419133D

 51 50  0  0  1  0  0  0  0  0999 V2000
   -0.0700   -3.9580    2.3220 C   0  0  0  0  0  0  0  0  0  0  0  0
   -0.5690   -2.7120    3.0080 C   0  0  1  0  0  0  0  0  0  0  0  0
   -0.8560   -2.9880    4.3320 O   0  0  0  0  0  0  0  0  0  0  0  0
    0.4610   -1.5900    2.9780 C   0  0  2  0  0  0  0  0  0  0  0  0
   -0.1270   -0.4390    3.6390 N   0  0  0  0  0  0  0  0  0  0  0  0
    0.8490   -1.2620    1.5650 C   0  0  0  0  0  0  0  0  0  0  0  0
    1.3720   -2.1970    0.9250 O   0  0  0  0  0  0  0  0  0  0  0  0
   -0.6970   -4.8020    2.7290 H   0  0  0  0  0  0  0  0  0  0  0  0
   -0.1990   -3.9040    1.2030 H   0  0  0  0  0  0  0  0  0  0  0  0
    0.9830   -4.1780    2.5750 H   0  0  0  0  0  0  0  0  0  0  0  0
   -1.4720   -2.3000    2.5190 H   0  0  0  0  0  0  0  0  0  0  0  0
   -0.2910   -3.7350    4.6760 H   0  0  0  0  0  0  0  0  0  0  0  0
    1.3170   -1.9220    3.5820 H   0  0  0  0  0  0  0  0  0  0  0  0
   -1.1570   -0.4620    3.3940 H   0  0  0  0  0  0  0  0  0  0  0  0
   -0.0620   -0.5750    4.6650 H   0  0  0  0  0  0  0  0  0  0  0  0
    0.6210    0.0270    1.0330 N   0  0  0  0  0  0  0  0  0  0  0  0
    0.9450    0.4830   -0.2750 C   0  0  1  0  0  0  0  0  0  0  0  0
    2.1580   -0.1500   -0.8860 C   0  0  0  0  0  0  0  0  0  0  0  0
    3.3980    0.0560   -0.1460 C   0  0  0  0  0  0  0  0  0  0  0  0
    4.0050    1.3630    0.0770 C   0  0  0  0  0  0  0  0  0  0  0  0
    3.3230    2.4420    0.8010 C   0  0  0  0  0  0  0  0  0  0  0  0
    2.9540    2.0120    2.1380 N   0  0  0  0  0  0  0  0  0  0  0  0
   -0.2570    0.3340   -1.1720 C   0  0  0  0  0  0  0  0  0  0  0  0
   -0.2280    0.6720   -2.3760 O   0  0  0  0  0  0  0  0  0  0  0  0
    0.1520    0.7060    1.7230 H   0  0  0  0  0  0  0  0  0  0  0  0
    1.1000    1.5870   -0.2290 H   0  0  0  0  0  0  0  0  0  0  0  0
    2.2240    0.1970   -1.9650 H   0  0  0  0  0  0  0  0  0  0  0  0
    1.9120   -1.2450   -1.0290 H   0  0  0  0  0  0  0  0  0  0  0  0
    4.2000   -0.5610   -0.7010 H   0  0  0  0  0  0  0  0  0  0  0  0
    3.3980   -0.5040    0.8550 H   0  0  0  0  0  0  0  0  0  0  0  0
    4.9730    1.1620    0.6600 H   0  0  0  0  0  0  0  0  0  0  0  0
    4.4530    1.7720   -0.9000 H   0  0  0  0  0  0  0  0  0  0  0  0
    2.6190    3.0830    0.2940 H   0  0  0  0  0  0  0  0  0  0  0  0
    4.1810    3.2020    1.0420 H   0  0  0  0  0  0  0  0  0  0  0  0
    3.7670    1.9270    2.7720 H   0  0  0  0  0  0  0  0  0  0  0  0
    2.1490    2.5390    2.5310 H   0  0  0  0  0  0  0  0  0  0  0  0
   -3.1880   -2.5110   -0.4180 C   0  0  0  0  0  0  0  0  0  0  0  0
   -2.9020   -1.8250   -1.7190 C   0  0  1  0  0  0  0  0  0  0  0  0
   -4.0100   -1.9610   -2.5500 O   0  0  0  0  0  0  0  0  0  0  0  0
   -2.6440   -0.3430   -1.5480 C   0  0  2  0  0  0  0  0  0  0  0  0
   -1.4770   -0.2000   -0.6720 N   0  0  0  0  0  0  0  0  0  0  0  0
   -3.7960    0.3810   -0.9850 C   0  0  0  0  0  0  0  0  0  0  0  0
   -3.6920    0.9990    0.0900 O   0  0  0  0  0  0  0  0  0  0  0  0
   -5.0000    0.3740   -1.6540 O   0  0  0  0  0  0  0  0  0  0  0  0
   -3.2310   -3.6080   -0.6290 H   0  0  0  0  0  0  0  0  0  0  0  0
   -2.3160   -2.3910    0.2770 H   0  0  0  0  0  0  0  0  0  0  0  0
   -4.1430   -2.1890    0.0480 H   0  0  0  0  0  0  0  0  0  0  0  0
   -1.9980   -2.2710   -2.1550 H   0  0  0  0  0  0  0  0  0  0  0  0
   -4.0480   -2.9330   -2.7910 H   0  0  0  0  0  0  0  0  0  0  0  0
   -2.3670    0.0330   -2.5680 H   0  0  0  0  0  0  0  0  0  0  0  0
   -1.5630   -0.4960    0.3130 H   0  0  0  0  0  0  0  0  0  0  0  0
  1 10  1  0  0  0  0
  1  8  1  0  0  0  0
  1  2  1  0  0  0  0
  2 11  1  6  0  0  0
  2  3  1  0  0  0  0
  3 12  1  0  0  0  0
  4  2  1  0  0  0  0
  4 13  1  1  0  0  0
  4  5  1  0  0  0  0
  5 15  1  0  0  0  0
  6  4  1  0  0  0  0
  7  6  2  0  0  0  0
  9  1  1  0  0  0  0
 14  5  1  0  0  0  0
 16  6  1  0  0  0  0
 16 25  1  0  0  0  0
 17 26  1  1  0  0  0
 17 16  1  0  0  0  0
 18 17  1  0  0  0  0
 18 19  1  0  0  0  0
 19 20  1  0  0  0  0
 19 30  1  0  0  0  0
 20 31  1  0  0  0  0
 20 21  1  0  0  0  0
 21 34  1  0  0  0  0
 21 22  1  0  0  0  0
 22 36  1  0  0  0  0
 22 35  1  0  0  0  0
 23 41  1  0  0  0  0
 23 17  1  0  0  0  0
 24 23  2  0  0  0  0
 27 18  1  0  0  0  0
 28 18  1  0  0  0  0
 29 19  1  0  0  0  0
 32 20  1  0  0  0  0
 33 21  1  0  0  0  0
 37 47  1  0  0  0  0
 37 46  1  0  0  0  0
 38 48  1  6  0  0  0
 38 40  1  0  0  0  0
 38 37  1  0  0  0  0
 39 38  1  0  0  0  0
 40 50  1  6  0  0  0
 40 42  1  0  0  0  0
 40 41  1  0  0  0  0
 41 51  1  0  0  0  0
 42 43  1  0  0  0  0
 44 42  2  0  0  0  0
 45 37  1  0  0  0  0
 49 39  1  0  0  0  0
M  END
$$$$
