TKY.pdb
 OpenBabel07022419133D

 58 58  0  0  1  0  0  0  0  0999 V2000
    0.5980   -2.2350    4.5810 C   0  0  0  0  0  0  0  0  0  0  0  0
    0.3360   -1.3620    3.3760 C   0  0  1  0  0  0  0  0  0  0  0  0
   -0.9790   -0.9080    3.3810 O   0  0  0  0  0  0  0  0  0  0  0  0
    1.2450   -0.1710    3.3620 C   0  0  2  0  0  0  0  0  0  0  0  0
    0.9960    0.6280    4.5420 N   0  0  0  0  0  0  0  0  0  0  0  0
    1.0520    0.6180    2.1290 C   0  0  0  0  0  0  0  0  0  0  0  0
    0.7100    1.8310    2.2450 O   0  0  0  0  0  0  0  0  0  0  0  0
    1.5300   -2.8080    4.3740 H   0  0  0  0  0  0  0  0  0  0  0  0
   -0.2040   -2.9540    4.7720 H   0  0  0  0  0  0  0  0  0  0  0  0
    0.8390   -1.6050    5.4770 H   0  0  0  0  0  0  0  0  0  0  0  0
    0.4790   -1.9830    2.4630 H   0  0  0  0  0  0  0  0  0  0  0  0
   -1.4230   -1.2490    4.1740 H   0  0  0  0  0  0  0  0  0  0  0  0
    2.3100   -0.5050    3.4310 H   0  0  0  0  0  0  0  0  0  0  0  0
    1.5680    0.3270    5.3560 H   0  0  0  0  0  0  0  0  0  0  0  0
   -0.0180    0.4710    4.8230 H   0  0  0  0  0  0  0  0  0  0  0  0
    1.2340    0.0700    0.8420 N   0  0  0  0  0  0  0  0  0  0  0  0
    1.0170    0.9400   -0.3300 C   0  0  1  0  0  0  0  0  0  0  0  0
    2.2220    0.9400   -1.1790 C   0  0  0  0  0  0  0  0  0  0  0  0
    2.2450    1.7780   -2.3730 C   0  0  0  0  0  0  0  0  0  0  0  0
    2.2590    3.2380   -2.3010 C   0  0  0  0  0  0  0  0  0  0  0  0
    1.1720    4.0150   -1.6610 C   0  0  0  0  0  0  0  0  0  0  0  0
   -0.1240    3.8030   -2.2510 N   0  0  0  0  0  0  0  0  0  0  0  0
   -0.1750    0.3410   -1.0720 C   0  0  0  0  0  0  0  0  0  0  0  0
   -0.6020    0.8100   -2.1430 O   0  0  0  0  0  0  0  0  0  0  0  0
    1.5130   -0.9200    0.7150 H   0  0  0  0  0  0  0  0  0  0  0  0
    0.7360    1.9170    0.0170 H   0  0  0  0  0  0  0  0  0  0  0  0
    2.4980   -0.1160   -1.5110 H   0  0  0  0  0  0  0  0  0  0  0  0
    3.0780    1.2890   -0.5060 H   0  0  0  0  0  0  0  0  0  0  0  0
    1.4180    1.4420   -3.0930 H   0  0  0  0  0  0  0  0  0  0  0  0
    3.1740    1.4560   -2.9730 H   0  0  0  0  0  0  0  0  0  0  0  0
    2.3460    3.6770   -3.3630 H   0  0  0  0  0  0  0  0  0  0  0  0
    3.2450    3.5950   -1.8470 H   0  0  0  0  0  0  0  0  0  0  0  0
    1.1220    3.9960   -0.5620 H   0  0  0  0  0  0  0  0  0  0  0  0
    1.3830    5.1510   -1.8390 H   0  0  0  0  0  0  0  0  0  0  0  0
   -0.2610    4.4400   -3.0710 H   0  0  0  0  0  0  0  0  0  0  0  0
   -0.9020    3.9180   -1.5740 H   0  0  0  0  0  0  0  0  0  0  0  0
   -0.1510   -6.2960    2.5000 O   0  0  0  0  0  0  0  0  0  0  0  0
   -0.5220   -5.4450    1.4870 C   0  0  0  0  0  0  0  0  0  0  0  0
   -1.8480   -5.3180    1.1330 C   0  0  0  0  0  0  0  0  0  0  0  0
   -2.2610   -4.4820    0.1300 C   0  0  0  0  0  0  0  0  0  0  0  0
   -1.3580   -3.7280   -0.5710 C   0  0  0  0  0  0  0  0  0  0  0  0
   -1.6990   -2.8040   -1.6560 C   0  0  0  0  0  0  0  0  0  0  0  0
   -1.9810   -1.3990   -1.2180 C   0  0  2  0  0  0  0  0  0  0  0  0
   -0.8530   -0.8000   -0.5520 N   0  0  0  0  0  0  0  0  0  0  0  0
   -3.2260   -1.2920   -0.4140 C   0  0  0  0  0  0  0  0  0  0  0  0
   -3.1790   -0.7310    0.6870 O   0  0  0  0  0  0  0  0  0  0  0  0
   -0.0240   -3.8450   -0.2260 C   0  0  0  0  0  0  0  0  0  0  0  0
    0.3930   -4.6810    0.7770 C   0  0  0  0  0  0  0  0  0  0  0  0
   -4.4280   -1.8020   -0.8660 O   0  0  0  0  0  0  0  0  0  0  0  0
   -0.7670   -6.4100    3.3000 H   0  0  0  0  0  0  0  0  0  0  0  0
   -2.6000   -5.9100    1.6760 H   0  0  0  0  0  0  0  0  0  0  0  0
   -3.3000   -4.3900   -0.1390 H   0  0  0  0  0  0  0  0  0  0  0  0
   -2.5730   -3.1460   -2.2660 H   0  0  0  0  0  0  0  0  0  0  0  0
   -0.8440   -2.7700   -2.3590 H   0  0  0  0  0  0  0  0  0  0  0  0
   -2.1630   -0.8040   -2.1430 H   0  0  0  0  0  0  0  0  0  0  0  0
   -0.5020   -1.1950    0.3400 H   0  0  0  0  0  0  0  0  0  0  0  0
    0.7560   -3.2740   -0.7410 H   0  0  0  0  0  0  0  0  0  0  0  0
    1.4350   -4.7730    1.0470 H   0  0  0  0  0  0  0  0  0  0  0  0
  1  9  1  0  0  0  0
  1 10  1  0  0  0  0
  2 11  1  6  0  0  0
  2  3  1  0  0  0  0
  2  1  1  0  0  0  0
  3 12  1  0  0  0  0
  4  2  1  0  0  0  0
  4 13  1  1  0  0  0
  4  5  1  0  0  0  0
  5 15  1  0  0  0  0
  5 14  1  0  0  0  0
  6  7  2  0  0  0  0
  6  4  1  0  0  0  0
  8  1  1  0  0  0  0
 16  6  1  0  0  0  0
 17 26  1  1  0  0  0
 17 16  1  0  0  0  0
 18 28  1  0  0  0  0
 18 17  1  0  0  0  0
 19 20  1  0  0  0  0
 19 18  1  0  0  0  0
 20 32  1  0  0  0  0
 20 21  1  0  0  0  0
 21 33  1  0  0  0  0
 22 21  1  0  0  0  0
 22 36  1  0  0  0  0
 23 44  1  0  0  0  0
 23 17  1  0  0  0  0
 24 23  2  0  0  0  0
 25 16  1  0  0  0  0
 27 18  1  0  0  0  0
 29 19  1  0  0  0  0
 30 19  1  0  0  0  0
 31 20  1  0  0  0  0
 34 21  1  0  0  0  0
 35 22  1  0  0  0  0
 37 50  1  0  0  0  0
 38 37  1  0  0  0  0
 39 38  1  0  0  0  0
 39 51  1  0  0  0  0
 40 39  2  0  0  0  0
 41 47  2  0  0  0  0
 41 40  1  0  0  0  0
 42 43  1  0  0  0  0
 42 41  1  0  0  0  0
 43 55  1  6  0  0  0
 43 44  1  0  0  0  0
 43 45  1  0  0  0  0
 44 56  1  0  0  0  0
 45 46  1  0  0  0  0
 47 48  1  0  0  0  0
 48 58  1  0  0  0  0
 48 38  2  0  0  0  0
 49 45  2  0  0  0  0
 52 40  1  0  0  0  0
 53 42  1  0  0  0  0
 54 42  1  0  0  0  0
 57 47  1  0  0  0  0
M  END
$$$$
