TLC.pdb
 OpenBabel07022419133D

 46 45  0  0  1  0  0  0  0  0999 V2000
   -0.8860   -4.6690    0.4450 C   0  0  0  0  0  0  0  0  0  0  0  0
   -0.6750   -3.2330    0.8750 C   0  0  1  0  0  0  0  0  0  0  0  0
   -1.3250   -3.0530    2.0780 O   0  0  0  0  0  0  0  0  0  0  0  0
    0.7870   -2.9380    1.0700 C   0  0  2  0  0  0  0  0  0  0  0  0
    1.2860   -3.8580    2.0690 N   0  0  0  0  0  0  0  0  0  0  0  0
    1.0830   -1.5590    1.4200 C   0  0  0  0  0  0  0  0  0  0  0  0
    1.7170   -1.3780    2.5190 O   0  0  0  0  0  0  0  0  0  0  0  0
   -1.4580   -4.6430   -0.5240 H   0  0  0  0  0  0  0  0  0  0  0  0
    0.0680   -5.1780    0.2040 H   0  0  0  0  0  0  0  0  0  0  0  0
   -1.4770   -5.2330    1.1750 H   0  0  0  0  0  0  0  0  0  0  0  0
   -1.0410   -2.5140    0.0880 H   0  0  0  0  0  0  0  0  0  0  0  0
   -2.1190   -3.6350    2.1820 H   0  0  0  0  0  0  0  0  0  0  0  0
    1.3680   -3.1750    0.1300 H   0  0  0  0  0  0  0  0  0  0  0  0
    2.0640   -3.4720    2.6370 H   0  0  0  0  0  0  0  0  0  0  0  0
    0.5010   -4.0580    2.7320 H   0  0  0  0  0  0  0  0  0  0  0  0
    3.0640   -0.0890   -1.0190 C   0  0  0  0  0  0  0  0  0  0  0  0
    3.1770    1.2210   -0.2890 C   0  0  0  0  0  0  0  0  0  0  0  0
    4.2410    1.1990    0.7790 C   0  0  0  0  0  0  0  0  0  0  0  0
    1.8650    1.7120    0.1660 C   0  0  0  0  0  0  0  0  0  0  0  0
    1.0780    0.8680    1.1030 C   0  0  2  0  0  0  0  0  0  0  0  0
    0.7230   -0.4240    0.6380 N   0  0  0  0  0  0  0  0  0  0  0  0
   -0.1660    1.6250    1.4040 C   0  0  0  0  0  0  0  0  0  0  0  0
   -0.1380    2.7980    1.8320 O   0  0  0  0  0  0  0  0  0  0  0  0
    2.1420   -0.1830   -1.5890 H   0  0  0  0  0  0  0  0  0  0  0  0
    3.2870   -0.9690   -0.3580 H   0  0  0  0  0  0  0  0  0  0  0  0
    3.8950   -0.1290   -1.7860 H   0  0  0  0  0  0  0  0  0  0  0  0
    3.5430    1.9690   -1.0570 H   0  0  0  0  0  0  0  0  0  0  0  0
    3.7440    1.2840    1.7720 H   0  0  0  0  0  0  0  0  0  0  0  0
    4.8880    0.2970    0.7050 H   0  0  0  0  0  0  0  0  0  0  0  0
    4.9340    2.0690    0.7150 H   0  0  0  0  0  0  0  0  0  0  0  0
    2.0090    2.7090    0.6580 H   0  0  0  0  0  0  0  0  0  0  0  0
    1.2460    1.9450   -0.7460 H   0  0  0  0  0  0  0  0  0  0  0  0
    1.6290    0.7970    2.0740 H   0  0  0  0  0  0  0  0  0  0  0  0
    0.2090   -0.6080   -0.2460 H   0  0  0  0  0  0  0  0  0  0  0  0
   -1.4100    0.9820    1.1940 N   0  0  0  0  0  0  0  0  0  0  0  0
   -2.6910    1.6120    1.4490 C   0  0  1  0  0  0  0  0  0  0  0  0
   -3.4070    1.7520    0.1060 C   0  0  0  0  0  0  0  0  0  0  0  0
   -3.6060    0.0790   -0.5660 S   0  0  0  0  0  0  0  0  0  0  0  0
   -3.5160    0.7860    2.3560 C   0  0  0  0  0  0  0  0  0  0  0  0
   -4.6580    1.1960    2.6750 O   0  0  0  0  0  0  0  0  0  0  0  0
   -3.0850   -0.4230    2.8720 O   0  0  0  0  0  0  0  0  0  0  0  0
   -1.4460   -0.0160    0.8300 H   0  0  0  0  0  0  0  0  0  0  0  0
   -2.5240    2.6360    1.8190 H   0  0  0  0  0  0  0  0  0  0  0  0
   -4.3910    2.2320    0.2390 H   0  0  0  0  0  0  0  0  0  0  0  0
   -2.7380    2.3250   -0.5690 H   0  0  0  0  0  0  0  0  0  0  0  0
   -3.8530    0.1250   -1.9600 H   0  0  0  0  0  0  0  0  0  0  0  0
  1  2  1  0  0  0  0
  1 10  1  0  0  0  0
  2 11  1  6  0  0  0
  2  4  1  0  0  0  0
  2  3  1  0  0  0  0
  3 12  1  0  0  0  0
  4 13  1  6  0  0  0
  4  6  1  0  0  0  0
  4  5  1  0  0  0  0
  5 14  1  0  0  0  0
  5 15  1  0  0  0  0
  6  7  2  0  0  0  0
  8  1  1  0  0  0  0
  9  1  1  0  0  0  0
 16 25  1  0  0  0  0
 16 17  1  0  0  0  0
 17 19  1  0  0  0  0
 17 18  1  0  0  0  0
 18 28  1  0  0  0  0
 19 31  1  0  0  0  0
 19 20  1  0  0  0  0
 20 22  1  0  0  0  0
 20 33  1  1  0  0  0
 21 20  1  0  0  0  0
 21  6  1  0  0  0  0
 22 23  2  0  0  0  0
 24 16  1  0  0  0  0
 26 16  1  0  0  0  0
 27 17  1  0  0  0  0
 29 18  1  0  0  0  0
 30 18  1  0  0  0  0
 32 19  1  0  0  0  0
 34 21  1  0  0  0  0
 35 22  1  0  0  0  0
 35 36  1  0  0  0  0
 36 43  1  1  0  0  0
 36 39  1  0  0  0  0
 37 44  1  0  0  0  0
 37 36  1  0  0  0  0
 38 37  1  0  0  0  0
 39 40  2  0  0  0  0
 39 41  1  0  0  0  0
 42 35  1  0  0  0  0
 45 37  1  0  0  0  0
 46 38  1  0  0  0  0
M  END
$$$$
