TLD.pdb
 OpenBabel07022419133D

 48 47  0  0  1  0  0  0  0  0999 V2000
   -0.8880   -4.0560    2.7380 C   0  0  0  0  0  0  0  0  0  0  0  0
    0.3160   -4.2010    1.8620 C   0  0  1  0  0  0  0  0  0  0  0  0
    0.0310   -3.8980    0.5420 O   0  0  0  0  0  0  0  0  0  0  0  0
    1.5180   -3.4520    2.3850 C   0  0  2  0  0  0  0  0  0  0  0  0
    1.7420   -3.8330    3.7650 N   0  0  0  0  0  0  0  0  0  0  0  0
    1.3700   -1.9800    2.3250 C   0  0  0  0  0  0  0  0  0  0  0  0
    1.4580   -1.3210    3.3800 O   0  0  0  0  0  0  0  0  0  0  0  0
   -0.5700   -3.9310    3.7930 H   0  0  0  0  0  0  0  0  0  0  0  0
   -1.5760   -3.2580    2.4160 H   0  0  0  0  0  0  0  0  0  0  0  0
   -1.4640   -5.0040    2.6920 H   0  0  0  0  0  0  0  0  0  0  0  0
    0.6160   -5.2860    1.8710 H   0  0  0  0  0  0  0  0  0  0  0  0
    0.2250   -4.6380   -0.0860 H   0  0  0  0  0  0  0  0  0  0  0  0
    2.3810   -3.7970    1.7420 H   0  0  0  0  0  0  0  0  0  0  0  0
    1.2920   -4.7330    4.0180 H   0  0  0  0  0  0  0  0  0  0  0  0
    1.3050   -3.1050    4.3730 H   0  0  0  0  0  0  0  0  0  0  0  0
    3.1480    2.8700   -0.6150 C   0  0  0  0  0  0  0  0  0  0  0  0
    1.9920    2.2930    0.2160 C   0  0  0  0  0  0  0  0  0  0  0  0
    2.0370    2.9340    1.5740 C   0  0  0  0  0  0  0  0  0  0  0  0
    2.0920    0.7960    0.2790 C   0  0  0  0  0  0  0  0  0  0  0  0
    0.9870    0.2080    1.0920 C   0  0  2  0  0  0  0  0  0  0  0  0
    1.1320   -1.2600    1.1420 N   0  0  0  0  0  0  0  0  0  0  0  0
   -0.3540    0.5710    0.6330 C   0  0  0  0  0  0  0  0  0  0  0  0
   -0.7330    1.7610    0.5970 O   0  0  0  0  0  0  0  0  0  0  0  0
    4.0960    2.4250   -0.2610 H   0  0  0  0  0  0  0  0  0  0  0  0
    3.0370    2.6420   -1.6770 H   0  0  0  0  0  0  0  0  0  0  0  0
    3.1960    3.9520   -0.4020 H   0  0  0  0  0  0  0  0  0  0  0  0
    1.0730    2.5880   -0.3550 H   0  0  0  0  0  0  0  0  0  0  0  0
    1.0660    3.4450    1.7680 H   0  0  0  0  0  0  0  0  0  0  0  0
    2.2450    2.1910    2.3950 H   0  0  0  0  0  0  0  0  0  0  0  0
    2.8390    3.7300    1.5850 H   0  0  0  0  0  0  0  0  0  0  0  0
    3.0790    0.5300    0.7530 H   0  0  0  0  0  0  0  0  0  0  0  0
    2.1560    0.3370   -0.7330 H   0  0  0  0  0  0  0  0  0  0  0  0
    1.1060    0.5360    2.1430 H   0  0  0  0  0  0  0  0  0  0  0  0
    1.0490   -1.7690    0.2430 H   0  0  0  0  0  0  0  0  0  0  0  0
   -1.3160   -0.3930    0.1970 N   0  0  0  0  0  0  0  0  0  0  0  0
   -2.6260    0.0190   -0.2480 C   0  0  1  0  0  0  0  0  0  0  0  0
   -2.9630   -0.4330   -1.6380 C   0  0  0  0  0  0  0  0  0  0  0  0
   -2.0430    0.0700   -2.6670 C   0  0  0  0  0  0  0  0  0  0  0  0
   -1.0870    0.8050   -2.3220 O   0  0  0  0  0  0  0  0  0  0  0  0
   -3.6780   -0.5750    0.6520 C   0  0  0  0  0  0  0  0  0  0  0  0
   -3.3380   -1.3050    1.6150 O   0  0  0  0  0  0  0  0  0  0  0  0
   -2.1990   -0.2430   -4.0010 O   0  0  0  0  0  0  0  0  0  0  0  0
   -5.0270   -0.3420    0.4530 O   0  0  0  0  0  0  0  0  0  0  0  0
   -1.0230   -1.3920    0.2180 H   0  0  0  0  0  0  0  0  0  0  0  0
   -2.7040    1.1210   -0.2150 H   0  0  0  0  0  0  0  0  0  0  0  0
   -3.0170   -1.5490   -1.7190 H   0  0  0  0  0  0  0  0  0  0  0  0
   -4.0190   -0.0930   -1.8270 H   0  0  0  0  0  0  0  0  0  0  0  0
   -1.7060    0.3440   -4.6780 H   0  0  0  0  0  0  0  0  0  0  0  0
  1  8  1  0  0  0  0
  2 11  1  1  0  0  0
  2  4  1  0  0  0  0
  2  1  1  0  0  0  0
  3  2  1  0  0  0  0
  4 13  1  6  0  0  0
  4  5  1  0  0  0  0
  5 14  1  0  0  0  0
  5 15  1  0  0  0  0
  6  4  1  0  0  0  0
  6  7  2  0  0  0  0
  9  1  1  0  0  0  0
 10  1  1  0  0  0  0
 12  3  1  0  0  0  0
 16 26  1  0  0  0  0
 16 24  1  0  0  0  0
 16 17  1  0  0  0  0
 17 19  1  0  0  0  0
 17 18  1  0  0  0  0
 18 30  1  0  0  0  0
 18 28  1  0  0  0  0
 18 29  1  0  0  0  0
 19 31  1  0  0  0  0
 19 20  1  0  0  0  0
 20 21  1  0  0  0  0
 20 33  1  1  0  0  0
 21  6  1  0  0  0  0
 22 20  1  0  0  0  0
 23 22  2  0  0  0  0
 25 16  1  0  0  0  0
 27 17  1  0  0  0  0
 32 19  1  0  0  0  0
 34 21  1  0  0  0  0
 35 44  1  0  0  0  0
 35 22  1  0  0  0  0
 36 45  1  1  0  0  0
 36 35  1  0  0  0  0
 36 40  1  0  0  0  0
 37 36  1  0  0  0  0
 38 39  2  0  0  0  0
 38 37  1  0  0  0  0
 40 41  1  0  0  0  0
 42 38  1  0  0  0  0
 43 40  2  0  0  0  0
 46 37  1  0  0  0  0
 47 37  1  0  0  0  0
 48 42  1  0  0  0  0
M  END
$$$$
