TLE.pdb
 OpenBabel07022419133D

 51 50  0  0  1  0  0  0  0  0999 V2000
    2.9900   -3.0810    2.5290 C   0  0  0  0  0  0  0  0  0  0  0  0
    2.9750   -3.0790    1.0150 C   0  0  1  0  0  0  0  0  0  0  0  0
    3.3250   -4.4120    0.6640 O   0  0  0  0  0  0  0  0  0  0  0  0
    1.5920   -2.8870    0.4380 C   0  0  2  0  0  0  0  0  0  0  0  0
    1.7110   -3.1070   -0.9870 N   0  0  0  0  0  0  0  0  0  0  0  0
    1.0460   -1.5230    0.6440 C   0  0  0  0  0  0  0  0  0  0  0  0
    0.9120   -0.8000   -0.3680 O   0  0  0  0  0  0  0  0  0  0  0  0
    2.1020   -3.6350    2.8920 H   0  0  0  0  0  0  0  0  0  0  0  0
    3.8800   -3.7050    2.8690 H   0  0  0  0  0  0  0  0  0  0  0  0
    3.1170   -2.0740    2.9690 H   0  0  0  0  0  0  0  0  0  0  0  0
    3.7370   -2.4390    0.5750 H   0  0  0  0  0  0  0  0  0  0  0  0
    2.5460   -4.9500    0.9810 H   0  0  0  0  0  0  0  0  0  0  0  0
    0.9290   -3.6500    0.8480 H   0  0  0  0  0  0  0  0  0  0  0  0
    2.7020   -3.3010   -1.2170 H   0  0  0  0  0  0  0  0  0  0  0  0
    1.4630   -2.2420   -1.5140 H   0  0  0  0  0  0  0  0  0  0  0  0
    2.9060    2.9090    1.6060 C   0  0  0  0  0  0  0  0  0  0  0  0
    1.9860    1.7440    1.1330 C   0  0  0  0  0  0  0  0  0  0  0  0
    1.2550    2.3660   -0.0510 C   0  0  0  0  0  0  0  0  0  0  0  0
    1.1240    1.4150    2.2840 C   0  0  0  0  0  0  0  0  0  0  0  0
    0.1450    0.3030    2.1580 C   0  0  2  0  0  0  0  0  0  0  0  0
    0.6710   -0.9910    1.8930 N   0  0  0  0  0  0  0  0  0  0  0  0
   -1.1240    0.6490    1.4830 C   0  0  0  0  0  0  0  0  0  0  0  0
   -1.5170    1.8420    1.5990 O   0  0  0  0  0  0  0  0  0  0  0  0
    3.1580    2.7710    2.6710 H   0  0  0  0  0  0  0  0  0  0  0  0
    3.7800    2.9580    0.9470 H   0  0  0  0  0  0  0  0  0  0  0  0
    2.3460    3.8680    1.5270 H   0  0  0  0  0  0  0  0  0  0  0  0
    2.6420    0.9180    0.8590 H   0  0  0  0  0  0  0  0  0  0  0  0
    1.9780    2.3710   -0.8890 H   0  0  0  0  0  0  0  0  0  0  0  0
    0.3570    1.8290   -0.3540 H   0  0  0  0  0  0  0  0  0  0  0  0
    1.0460    3.4540    0.1510 H   0  0  0  0  0  0  0  0  0  0  0  0
    0.5230    2.3370    2.5680 H   0  0  0  0  0  0  0  0  0  0  0  0
    1.7960    1.2880    3.1870 H   0  0  0  0  0  0  0  0  0  0  0  0
   -0.2450    0.2010    3.2710 H   0  0  0  0  0  0  0  0  0  0  0  0
    0.8050   -1.6640    2.7090 H   0  0  0  0  0  0  0  0  0  0  0  0
   -1.8730   -0.3040    0.7450 N   0  0  0  0  0  0  0  0  0  0  0  0
   -3.0930    0.1110    0.1310 C   0  0  1  0  0  0  0  0  0  0  0  0
   -3.3900   -0.1680   -1.2650 C   0  0  0  0  0  0  0  0  0  0  0  0
   -3.5140   -1.4800   -1.8500 C   0  0  0  0  0  0  0  0  0  0  0  0
   -2.4750   -2.4550   -1.9480 C   0  0  0  0  0  0  0  0  0  0  0  0
   -1.2730   -2.4380   -1.6670 O   0  0  0  0  0  0  0  0  0  0  0  0
   -4.2650   -0.2930    1.0120 C   0  0  0  0  0  0  0  0  0  0  0  0
   -5.3960   -0.0080    0.6150 O   0  0  0  0  0  0  0  0  0  0  0  0
   -2.8850   -3.7180   -2.4750 O   0  0  0  0  0  0  0  0  0  0  0  0
   -4.0660   -0.9440    2.1910 O   0  0  0  0  0  0  0  0  0  0  0  0
   -1.5720   -1.2970    0.6560 H   0  0  0  0  0  0  0  0  0  0  0  0
   -3.1320    1.2500    0.2450 H   0  0  0  0  0  0  0  0  0  0  0  0
   -2.6630    0.4760   -1.8870 H   0  0  0  0  0  0  0  0  0  0  0  0
   -4.3670    0.3920   -1.5010 H   0  0  0  0  0  0  0  0  0  0  0  0
   -4.4220   -2.0320   -1.3960 H   0  0  0  0  0  0  0  0  0  0  0  0
   -3.9120   -1.3320   -2.9210 H   0  0  0  0  0  0  0  0  0  0  0  0
   -2.2420   -4.4190   -2.7560 H   0  0  0  0  0  0  0  0  0  0  0  0
  1  9  1  0  0  0  0
  1  8  1  0  0  0  0
  1 10  1  0  0  0  0
  2 11  1  6  0  0  0
  2  1  1  0  0  0  0
  3 12  1  0  0  0  0
  3  2  1  0  0  0  0
  4  6  1  0  0  0  0
  4 13  1  1  0  0  0
  4  2  1  0  0  0  0
  5  4  1  0  0  0  0
  6 21  1  0  0  0  0
  7  6  2  0  0  0  0
 14  5  1  0  0  0  0
 15  5  1  0  0  0  0
 16 24  1  0  0  0  0
 17 16  1  0  0  0  0
 17 19  1  0  0  0  0
 18 30  1  0  0  0  0
 18 17  1  0  0  0  0
 19 31  1  0  0  0  0
 19 32  1  0  0  0  0
 20 19  1  0  0  0  0
 20 33  1  1  0  0  0
 21 20  1  0  0  0  0
 21 34  1  0  0  0  0
 22 23  2  0  0  0  0
 22 20  1  0  0  0  0
 25 16  1  0  0  0  0
 26 16  1  0  0  0  0
 27 17  1  0  0  0  0
 28 18  1  0  0  0  0
 29 18  1  0  0  0  0
 35 22  1  0  0  0  0
 36 46  1  1  0  0  0
 36 35  1  0  0  0  0
 36 41  1  0  0  0  0
 37 36  1  0  0  0  0
 38 49  1  0  0  0  0
 38 37  1  0  0  0  0
 39 38  1  0  0  0  0
 39 40  2  0  0  0  0
 41 44  1  0  0  0  0
 42 41  2  0  0  0  0
 43 39  1  0  0  0  0
 45 35  1  0  0  0  0
 47 37  1  0  0  0  0
 48 37  1  0  0  0  0
 50 38  1  0  0  0  0
 51 43  1  0  0  0  0
M  END
$$$$
