TLF.pdb
 OpenBabel07022419133D

 55 55  0  0  1  0  0  0  0  0999 V2000
   -2.9390    1.5940    3.2530 C   0  0  0  0  0  0  0  0  0  0  0  0
   -1.6820    1.1490    2.5360 C   0  0  1  0  0  0  0  0  0  0  0  0
   -1.0870    2.1910    1.8340 O   0  0  0  0  0  0  0  0  0  0  0  0
   -0.7510    0.5320    3.5560 C   0  0  2  0  0  0  0  0  0  0  0  0
   -0.3480    1.5410    4.5110 N   0  0  0  0  0  0  0  0  0  0  0  0
    0.4610   -0.0400    2.9350 C   0  0  0  0  0  0  0  0  0  0  0  0
    1.5860    0.3930    3.2920 O   0  0  0  0  0  0  0  0  0  0  0  0
   -2.9050    1.4240    4.3300 H   0  0  0  0  0  0  0  0  0  0  0  0
   -3.1150    2.6930    3.1080 H   0  0  0  0  0  0  0  0  0  0  0  0
   -3.8500    1.0820    2.8680 H   0  0  0  0  0  0  0  0  0  0  0  0
   -1.9930    0.3930    1.7850 H   0  0  0  0  0  0  0  0  0  0  0  0
   -0.1260    2.2420    2.0800 H   0  0  0  0  0  0  0  0  0  0  0  0
   -1.3450   -0.2260    4.1080 H   0  0  0  0  0  0  0  0  0  0  0  0
   -0.4480    1.2000    5.4890 H   0  0  0  0  0  0  0  0  0  0  0  0
    0.6010    1.9250    4.3020 H   0  0  0  0  0  0  0  0  0  0  0  0
    4.0480   -3.6570    1.5980 C   0  0  0  0  0  0  0  0  0  0  0  0
    2.6720   -3.9530    1.0490 C   0  0  0  0  0  0  0  0  0  0  0  0
    2.6970   -4.2840   -0.4080 C   0  0  0  0  0  0  0  0  0  0  0  0
    1.6070   -3.0690    1.5400 C   0  0  0  0  0  0  0  0  0  0  0  0
    1.6730   -1.6130    1.3430 C   0  0  2  0  0  0  0  0  0  0  0  0
    0.4500   -1.0490    1.9580 N   0  0  0  0  0  0  0  0  0  0  0  0
    1.6940   -1.2230   -0.0760 C   0  0  0  0  0  0  0  0  0  0  0  0
    2.6530   -1.4760   -0.8340 O   0  0  0  0  0  0  0  0  0  0  0  0
    4.7270   -4.4430    1.1680 H   0  0  0  0  0  0  0  0  0  0  0  0
    4.0930   -3.8080    2.6970 H   0  0  0  0  0  0  0  0  0  0  0  0
    4.4540   -2.6960    1.2850 H   0  0  0  0  0  0  0  0  0  0  0  0
    2.4390   -4.9720    1.5540 H   0  0  0  0  0  0  0  0  0  0  0  0
    3.6170   -3.9670   -0.9450 H   0  0  0  0  0  0  0  0  0  0  0  0
    2.7090   -5.4190   -0.5010 H   0  0  0  0  0  0  0  0  0  0  0  0
    1.7510   -4.0100   -0.9210 H   0  0  0  0  0  0  0  0  0  0  0  0
    0.6370   -3.4630    1.1080 H   0  0  0  0  0  0  0  0  0  0  0  0
    1.4690   -3.2980    2.6470 H   0  0  0  0  0  0  0  0  0  0  0  0
    2.5370   -1.1110    1.8180 H   0  0  0  0  0  0  0  0  0  0  0  0
   -0.4460   -1.4460    1.6260 H   0  0  0  0  0  0  0  0  0  0  0  0
    0.5860   -0.5190   -0.6630 N   0  0  0  0  0  0  0  0  0  0  0  0
    0.6130   -0.1390   -2.0560 C   0  0  1  0  0  0  0  0  0  0  0  0
   -0.4850   -0.8250   -2.8420 C   0  0  0  0  0  0  0  0  0  0  0  0
   -1.8310   -0.5050   -2.3490 C   0  0  0  0  0  0  0  0  0  0  0  0
   -2.5260    0.5740   -2.8510 C   0  0  0  0  0  0  0  0  0  0  0  0
   -3.7920    0.9310   -2.4340 C   0  0  0  0  0  0  0  0  0  0  0  0
   -4.3560    0.1370   -1.4600 C   0  0  0  0  0  0  0  0  0  0  0  0
   -3.6810   -0.9460   -0.9430 C   0  0  0  0  0  0  0  0  0  0  0  0
   -2.4160   -1.2850   -1.3750 C   0  0  0  0  0  0  0  0  0  0  0  0
    0.5580    1.3370   -2.2230 C   0  0  0  0  0  0  0  0  0  0  0  0
    0.4970    2.0960   -1.2460 O   0  0  0  0  0  0  0  0  0  0  0  0
    0.5760    1.8620   -3.5050 O   0  0  0  0  0  0  0  0  0  0  0  0
   -0.2140   -0.3060   -0.0340 H   0  0  0  0  0  0  0  0  0  0  0  0
    1.5740   -0.4870   -2.4820 H   0  0  0  0  0  0  0  0  0  0  0  0
   -0.3030   -1.9180   -2.7890 H   0  0  0  0  0  0  0  0  0  0  0  0
   -0.3740   -0.5260   -3.9050 H   0  0  0  0  0  0  0  0  0  0  0  0
   -2.0950    1.2200   -3.6290 H   0  0  0  0  0  0  0  0  0  0  0  0
   -4.3250    1.7860   -2.8430 H   0  0  0  0  0  0  0  0  0  0  0  0
   -5.3640    0.4200   -1.1270 H   0  0  0  0  0  0  0  0  0  0  0  0
   -4.1420   -1.5600   -0.1750 H   0  0  0  0  0  0  0  0  0  0  0  0
   -1.9020   -2.1520   -0.9470 H   0  0  0  0  0  0  0  0  0  0  0  0
  1  8  1  0  0  0  0
  2 11  1  6  0  0  0
  2  1  1  0  0  0  0
  2  4  1  0  0  0  0
  3 12  1  0  0  0  0
  3  2  1  0  0  0  0
  4 13  1  1  0  0  0
  4  5  1  0  0  0  0
  5 14  1  0  0  0  0
  6  7  2  0  0  0  0
  6  4  1  0  0  0  0
  9  1  1  0  0  0  0
 10  1  1  0  0  0  0
 15  5  1  0  0  0  0
 16 25  1  0  0  0  0
 17 19  1  0  0  0  0
 17 27  1  0  0  0  0
 17 16  1  0  0  0  0
 18 17  1  0  0  0  0
 19 32  1  0  0  0  0
 20 19  1  0  0  0  0
 20 33  1  1  0  0  0
 20 21  1  0  0  0  0
 21  6  1  0  0  0  0
 22 20  1  0  0  0  0
 23 22  2  0  0  0  0
 24 16  1  0  0  0  0
 26 16  1  0  0  0  0
 28 18  1  0  0  0  0
 29 18  1  0  0  0  0
 30 18  1  0  0  0  0
 31 19  1  0  0  0  0
 34 21  1  0  0  0  0
 35 22  1  0  0  0  0
 35 47  1  0  0  0  0
 36 48  1  6  0  0  0
 36 35  1  0  0  0  0
 37 49  1  0  0  0  0
 37 38  1  0  0  0  0
 37 36  1  0  0  0  0
 38 43  1  0  0  0  0
 39 40  1  0  0  0  0
 39 38  2  0  0  0  0
 40 41  2  0  0  0  0
 41 53  1  0  0  0  0
 41 42  1  0  0  0  0
 42 54  1  0  0  0  0
 43 55  1  0  0  0  0
 43 42  2  0  0  0  0
 44 36  1  0  0  0  0
 44 45  1  0  0  0  0
 46 44  2  0  0  0  0
 50 37  1  0  0  0  0
 51 39  1  0  0  0  0
 52 40  1  0  0  0  0
M  END
$$$$
