TLG.pdb
 OpenBabel07022419133D

 42 41  0  0  1  0  0  0  0  0999 V2000
    2.9260   -3.6190    4.6810 C   0  0  0  0  0  0  0  0  0  0  0  0
    1.9990   -2.5430    4.1620 C   0  0  1  0  0  0  0  0  0  0  0  0
    2.4840   -1.2700    4.4330 O   0  0  0  0  0  0  0  0  0  0  0  0
    1.7650   -2.7410    2.6590 C   0  0  2  0  0  0  0  0  0  0  0  0
    2.9650   -2.5780    1.8980 N   0  0  0  0  0  0  0  0  0  0  0  0
    0.6680   -1.8460    2.1940 C   0  0  0  0  0  0  0  0  0  0  0  0
   -0.4440   -1.8890    2.7750 O   0  0  0  0  0  0  0  0  0  0  0  0
    2.5190   -4.0170    5.6300 H   0  0  0  0  0  0  0  0  0  0  0  0
    3.9340   -3.2060    4.9300 H   0  0  0  0  0  0  0  0  0  0  0  0
    3.0330   -4.4220    3.9210 H   0  0  0  0  0  0  0  0  0  0  0  0
    1.0060   -2.7090    4.6270 H   0  0  0  0  0  0  0  0  0  0  0  0
    1.9980   -0.9680    5.2630 H   0  0  0  0  0  0  0  0  0  0  0  0
    1.4260   -3.7920    2.5520 H   0  0  0  0  0  0  0  0  0  0  0  0
    3.1790   -3.4280    1.3040 H   0  0  0  0  0  0  0  0  0  0  0  0
    3.7790   -2.5080    2.5620 H   0  0  0  0  0  0  0  0  0  0  0  0
   -2.1290    2.4690    1.2470 C   0  0  0  0  0  0  0  0  0  0  0  0
   -0.7520    2.4620    0.6400 C   0  0  0  0  0  0  0  0  0  0  0  0
   -0.8220    2.8500   -0.8030 C   0  0  0  0  0  0  0  0  0  0  0  0
    0.1090    1.3190    0.9640 C   0  0  0  0  0  0  0  0  0  0  0  0
   -0.2900   -0.0550    0.6700 C   0  0  2  0  0  0  0  0  0  0  0  0
    0.8160   -0.9450    1.1240 N   0  0  0  0  0  0  0  0  0  0  0  0
   -0.7080   -0.4610   -0.6530 C   0  0  0  0  0  0  0  0  0  0  0  0
   -1.6940    0.0830   -1.2020 O   0  0  0  0  0  0  0  0  0  0  0  0
   -2.7630    1.6280    0.8690 H   0  0  0  0  0  0  0  0  0  0  0  0
   -2.1330    2.5400    2.3450 H   0  0  0  0  0  0  0  0  0  0  0  0
   -2.6350    3.3950    0.8710 H   0  0  0  0  0  0  0  0  0  0  0  0
   -0.2790    3.4160    1.1340 H   0  0  0  0  0  0  0  0  0  0  0  0
   -1.8490    2.7410   -1.2530 H   0  0  0  0  0  0  0  0  0  0  0  0
   -0.0940    2.2310   -1.3650 H   0  0  0  0  0  0  0  0  0  0  0  0
   -0.4590    3.9040   -0.9920 H   0  0  0  0  0  0  0  0  0  0  0  0
    1.1450    1.5770    0.5850 H   0  0  0  0  0  0  0  0  0  0  0  0
    0.2820    1.3600    2.0950 H   0  0  0  0  0  0  0  0  0  0  0  0
   -1.1460   -0.3110    1.3680 H   0  0  0  0  0  0  0  0  0  0  0  0
    1.7400   -0.9090    0.6420 H   0  0  0  0  0  0  0  0  0  0  0  0
   -0.0660   -1.4790   -1.4240 N   0  0  0  0  0  0  0  0  0  0  0  0
   -0.5420   -1.8390   -2.7360 C   0  0  0  0  0  0  0  0  0  0  0  0
   -0.5290   -0.7540   -3.7190 C   0  0  0  0  0  0  0  0  0  0  0  0
   -0.9440   -1.0170   -4.8830 O   0  0  0  0  0  0  0  0  0  0  0  0
   -0.1060    0.5460   -3.5040 O   0  0  0  0  0  0  0  0  0  0  0  0
    0.7580   -1.9460   -0.9910 H   0  0  0  0  0  0  0  0  0  0  0  0
   -1.6030   -2.2140   -2.6670 H   0  0  0  0  0  0  0  0  0  0  0  0
    0.0340   -2.7370   -3.0970 H   0  0  0  0  0  0  0  0  0  0  0  0
  1  9  1  0  0  0  0
  1  8  1  0  0  0  0
  2  3  1  0  0  0  0
  2 11  1  1  0  0  0
  2  1  1  0  0  0  0
  3 12  1  0  0  0  0
  4 13  1  6  0  0  0
  4  2  1  0  0  0  0
  5 15  1  0  0  0  0
  5  4  1  0  0  0  0
  6  4  1  0  0  0  0
  6  7  2  0  0  0  0
 10  1  1  0  0  0  0
 14  5  1  0  0  0  0
 16 25  1  0  0  0  0
 17 19  1  0  0  0  0
 17 27  1  0  0  0  0
 17 16  1  0  0  0  0
 18 17  1  0  0  0  0
 19 32  1  0  0  0  0
 20 19  1  0  0  0  0
 20 21  1  0  0  0  0
 20 33  1  1  0  0  0
 21  6  1  0  0  0  0
 22 20  1  0  0  0  0
 23 22  2  0  0  0  0
 24 16  1  0  0  0  0
 26 16  1  0  0  0  0
 28 18  1  0  0  0  0
 29 18  1  0  0  0  0
 30 18  1  0  0  0  0
 31 19  1  0  0  0  0
 34 21  1  0  0  0  0
 35 40  1  0  0  0  0
 35 22  1  0  0  0  0
 36 41  1  0  0  0  0
 36 35  1  0  0  0  0
 37 39  1  0  0  0  0
 37 36  1  0  0  0  0
 38 37  2  0  0  0  0
 42 36  1  0  0  0  0
M  END
$$$$
