TLH.pdb
 OpenBabel07022419133D

 52 52  0  0  1  0  0  0  0  0999 V2000
    3.7090   -5.2230    0.8180 C   0  0  0  0  0  0  0  0  0  0  0  0
    3.5230   -3.7340    1.1220 C   0  0  1  0  0  0  0  0  0  0  0  0
    4.1720   -3.0150    0.1270 O   0  0  0  0  0  0  0  0  0  0  0  0
    2.0500   -3.4770    1.1560 C   0  0  2  0  0  0  0  0  0  0  0  0
    1.4570   -3.8460   -0.0950 N   0  0  0  0  0  0  0  0  0  0  0  0
    1.7080   -2.1010    1.5790 C   0  0  0  0  0  0  0  0  0  0  0  0
    2.1680   -1.6690    2.6540 O   0  0  0  0  0  0  0  0  0  0  0  0
    4.7490   -5.4680    1.1180 H   0  0  0  0  0  0  0  0  0  0  0  0
    3.5260   -5.4440   -0.2360 H   0  0  0  0  0  0  0  0  0  0  0  0
    3.0130   -5.8220    1.4400 H   0  0  0  0  0  0  0  0  0  0  0  0
    3.9820   -3.5010    2.1040 H   0  0  0  0  0  0  0  0  0  0  0  0
    3.7720   -3.1370   -0.7510 H   0  0  0  0  0  0  0  0  0  0  0  0
    1.6200   -4.1620    1.9350 H   0  0  0  0  0  0  0  0  0  0  0  0
    0.4230   -3.9390   -0.0640 H   0  0  0  0  0  0  0  0  0  0  0  0
    1.6800   -3.1030   -0.7940 H   0  0  0  0  0  0  0  0  0  0  0  0
    1.3810    3.0210    1.9290 C   0  0  0  0  0  0  0  0  0  0  0  0
    0.7430    2.5710    0.6430 C   0  0  0  0  0  0  0  0  0  0  0  0
    1.3150    3.4990   -0.4440 C   0  0  0  0  0  0  0  0  0  0  0  0
    1.0150    1.1580    0.2820 C   0  0  0  0  0  0  0  0  0  0  0  0
    0.5590    0.1300    1.2740 C   0  0  2  0  0  0  0  0  0  0  0  0
    0.8770   -1.2290    0.8250 N   0  0  0  0  0  0  0  0  0  0  0  0
   -0.8930    0.1800    1.5300 C   0  0  0  0  0  0  0  0  0  0  0  0
   -1.4200    1.2370    1.9480 O   0  0  0  0  0  0  0  0  0  0  0  0
    2.3880    2.6460    2.0870 H   0  0  0  0  0  0  0  0  0  0  0  0
    0.7160    2.7900    2.8080 H   0  0  0  0  0  0  0  0  0  0  0  0
    1.4370    4.1310    1.8960 H   0  0  0  0  0  0  0  0  0  0  0  0
   -0.3290    2.8360    0.6980 H   0  0  0  0  0  0  0  0  0  0  0  0
    1.2690    3.0170   -1.4330 H   0  0  0  0  0  0  0  0  0  0  0  0
    0.7280    4.4320   -0.5060 H   0  0  0  0  0  0  0  0  0  0  0  0
    2.3580    3.7740   -0.2320 H   0  0  0  0  0  0  0  0  0  0  0  0
    0.4210    0.9550   -0.6610 H   0  0  0  0  0  0  0  0  0  0  0  0
    2.0690    1.0150   -0.0330 H   0  0  0  0  0  0  0  0  0  0  0  0
    1.0590    0.3350    2.2530 H   0  0  0  0  0  0  0  0  0  0  0  0
    0.5000   -1.6040   -0.0730 H   0  0  0  0  0  0  0  0  0  0  0  0
   -1.6890   -0.9660    1.3030 N   0  0  0  0  0  0  0  0  0  0  0  0
   -3.1130   -1.0070    1.5270 C   0  0  1  0  0  0  0  0  0  0  0  0
   -3.8620   -1.2520    0.2150 C   0  0  0  0  0  0  0  0  0  0  0  0
   -3.5660   -0.1590   -0.7540 C   0  0  0  0  0  0  0  0  0  0  0  0
   -2.5170   -0.1830   -1.6600 C   0  0  0  0  0  0  0  0  0  0  0  0
   -2.5780    0.9610   -2.3480 N   0  0  0  0  0  0  0  0  0  0  0  0
   -3.6180    1.6860   -1.9050 C   0  0  0  0  0  0  0  0  0  0  0  0
   -4.2240    0.9930   -0.9230 N   0  0  0  0  0  0  0  0  0  0  0  0
   -3.5040   -2.0470    2.4970 C   0  0  0  0  0  0  0  0  0  0  0  0
   -2.6370   -2.7720    3.0240 O   0  0  0  0  0  0  0  0  0  0  0  0
   -4.8320   -2.2170    2.8220 O   0  0  0  0  0  0  0  0  0  0  0  0
   -1.2510   -1.8680    0.9480 H   0  0  0  0  0  0  0  0  0  0  0  0
   -3.4390   -0.0030    1.8950 H   0  0  0  0  0  0  0  0  0  0  0  0
   -3.6010   -2.2240   -0.2140 H   0  0  0  0  0  0  0  0  0  0  0  0
   -4.9450   -1.2110    0.4150 H   0  0  0  0  0  0  0  0  0  0  0  0
   -1.8060   -0.9890   -1.7620 H   0  0  0  0  0  0  0  0  0  0  0  0
   -1.9190    1.2610   -3.1210 H   0  0  0  0  0  0  0  0  0  0  0  0
   -3.9080    2.6530   -2.2780 H   0  0  0  0  0  0  0  0  0  0  0  0
  1  8  1  0  0  0  0
  1  2  1  0  0  0  0
  1 10  1  0  0  0  0
  2  4  1  0  0  0  0
  2 11  1  1  0  0  0
  3  2  1  0  0  0  0
  4  6  1  0  0  0  0
  4 13  1  1  0  0  0
  5 14  1  0  0  0  0
  5  4  1  0  0  0  0
  6  7  2  0  0  0  0
  9  1  1  0  0  0  0
 12  3  1  0  0  0  0
 15  5  1  0  0  0  0
 16 24  1  0  0  0  0
 16 25  1  0  0  0  0
 17 27  1  0  0  0  0
 17 16  1  0  0  0  0
 18 30  1  0  0  0  0
 18 17  1  0  0  0  0
 19 17  1  0  0  0  0
 19 20  1  0  0  0  0
 20 22  1  0  0  0  0
 20 33  1  1  0  0  0
 21 20  1  0  0  0  0
 21  6  1  0  0  0  0
 22 23  2  0  0  0  0
 26 16  1  0  0  0  0
 28 18  1  0  0  0  0
 29 18  1  0  0  0  0
 31 19  1  0  0  0  0
 32 19  1  0  0  0  0
 34 21  1  0  0  0  0
 35 36  1  0  0  0  0
 35 22  1  0  0  0  0
 36 47  1  1  0  0  0
 36 43  1  0  0  0  0
 37 49  1  0  0  0  0
 37 36  1  0  0  0  0
 38 37  1  0  0  0  0
 39 38  2  0  0  0  0
 40 41  1  0  0  0  0
 40 39  1  0  0  0  0
 41 42  2  0  0  0  0
 42 38  1  0  0  0  0
 43 45  2  0  0  0  0
 43 44  1  0  0  0  0
 46 35  1  0  0  0  0
 48 37  1  0  0  0  0
 50 39  1  0  0  0  0
 51 40  1  0  0  0  0
 52 41  1  0  0  0  0
M  END
$$$$
