TLK.pdb
 OpenBabel07022419133D

 56 55  0  0  1  0  0  0  0  0999 V2000
    3.2290   -4.6320    3.5230 C   0  0  0  0  0  0  0  0  0  0  0  0
    3.8990   -3.7210    2.5430 C   0  0  1  0  0  0  0  0  0  0  0  0
    4.9360   -4.4450    1.9180 O   0  0  0  0  0  0  0  0  0  0  0  0
    2.9610   -3.1640    1.5240 C   0  0  2  0  0  0  0  0  0  0  0  0
    3.6410   -2.2570    0.5870 N   0  0  0  0  0  0  0  0  0  0  0  0
    1.7570   -2.5460    2.0970 C   0  0  0  0  0  0  0  0  0  0  0  0
    1.1760   -3.0870    3.0460 O   0  0  0  0  0  0  0  0  0  0  0  0
    2.3370   -5.1090    3.1110 H   0  0  0  0  0  0  0  0  0  0  0  0
    3.9640   -5.4230    3.8210 H   0  0  0  0  0  0  0  0  0  0  0  0
    2.9630   -4.0330    4.4350 H   0  0  0  0  0  0  0  0  0  0  0  0
    4.4150   -2.9140    3.1310 H   0  0  0  0  0  0  0  0  0  0  0  0
    4.6230   -4.8650    1.0920 H   0  0  0  0  0  0  0  0  0  0  0  0
    2.6570   -4.0280    0.8590 H   0  0  0  0  0  0  0  0  0  0  0  0
    4.4700   -2.8190    0.2220 H   0  0  0  0  0  0  0  0  0  0  0  0
    2.9940   -2.1870   -0.2580 H   0  0  0  0  0  0  0  0  0  0  0  0
    2.4710    1.3920    1.5790 C   0  0  0  0  0  0  0  0  0  0  0  0
    1.0870    1.6940    2.1070 C   0  0  0  0  0  0  0  0  0  0  0  0
    0.3470    2.3400    0.9590 C   0  0  0  0  0  0  0  0  0  0  0  0
    0.3940    0.6070    2.7870 C   0  0  0  0  0  0  0  0  0  0  0  0
    0.0620   -0.6530    2.0930 C   0  0  2  0  0  0  0  0  0  0  0  0
    1.2090   -1.3210    1.6010 N   0  0  0  0  0  0  0  0  0  0  0  0
   -1.0850   -0.5960    1.1930 C   0  0  0  0  0  0  0  0  0  0  0  0
   -2.1050    0.0310    1.5410 O   0  0  0  0  0  0  0  0  0  0  0  0
    2.9620    0.5440    2.1080 H   0  0  0  0  0  0  0  0  0  0  0  0
    2.5150    1.3240    0.4740 H   0  0  0  0  0  0  0  0  0  0  0  0
    3.1530    2.2750    1.8070 H   0  0  0  0  0  0  0  0  0  0  0  0
    1.2160    2.5260    2.8630 H   0  0  0  0  0  0  0  0  0  0  0  0
   -0.5680    2.8630    1.2330 H   0  0  0  0  0  0  0  0  0  0  0  0
    0.1880    1.6010    0.1140 H   0  0  0  0  0  0  0  0  0  0  0  0
    1.0410    3.0950    0.5300 H   0  0  0  0  0  0  0  0  0  0  0  0
    0.9930    0.3560    3.7190 H   0  0  0  0  0  0  0  0  0  0  0  0
   -0.5780    0.9790    3.2390 H   0  0  0  0  0  0  0  0  0  0  0  0
   -0.3080   -1.3490    2.9460 H   0  0  0  0  0  0  0  0  0  0  0  0
    1.7070   -0.9020    0.7900 H   0  0  0  0  0  0  0  0  0  0  0  0
   -1.1200   -1.2190   -0.0750 N   0  0  0  0  0  0  0  0  0  0  0  0
   -2.3270   -1.1080   -0.9100 C   0  0  1  0  0  0  0  0  0  0  0  0
   -1.9410   -0.6400   -2.2860 C   0  0  0  0  0  0  0  0  0  0  0  0
   -3.0690   -0.4640   -3.2260 C   0  0  0  0  0  0  0  0  0  0  0  0
   -4.0960    0.5420   -2.7590 C   0  0  0  0  0  0  0  0  0  0  0  0
   -3.4910    1.9130   -2.5600 C   0  0  0  0  0  0  0  0  0  0  0  0
   -4.5650    2.7940   -2.1120 N   0  0  0  0  0  0  0  0  0  0  0  0
   -2.9310   -2.4710   -1.0370 C   0  0  0  0  0  0  0  0  0  0  0  0
   -2.2890   -3.4370   -0.5000 O   0  0  0  0  0  0  0  0  0  0  0  0
   -4.1220   -2.7270   -1.6890 O   0  0  0  0  0  0  0  0  0  0  0  0
   -0.3250   -1.7730   -0.4690 H   0  0  0  0  0  0  0  0  0  0  0  0
   -3.0700   -0.4860   -0.3980 H   0  0  0  0  0  0  0  0  0  0  0  0
   -1.3120   -1.4850   -2.7130 H   0  0  0  0  0  0  0  0  0  0  0  0
   -1.2250    0.2130   -2.2690 H   0  0  0  0  0  0  0  0  0  0  0  0
   -3.5670   -1.4090   -3.4250 H   0  0  0  0  0  0  0  0  0  0  0  0
   -2.6430   -0.0850   -4.1990 H   0  0  0  0  0  0  0  0  0  0  0  0
   -4.6400    0.1910   -1.8900 H   0  0  0  0  0  0  0  0  0  0  0  0
   -4.8370    0.6470   -3.5940 H   0  0  0  0  0  0  0  0  0  0  0  0
   -2.6900    1.9210   -1.8100 H   0  0  0  0  0  0  0  0  0  0  0  0
   -3.0610    2.3090   -3.5110 H   0  0  0  0  0  0  0  0  0  0  0  0
   -4.2880    3.7970   -2.2820 H   0  0  0  0  0  0  0  0  0  0  0  0
   -4.7100    2.6100   -1.0840 H   0  0  0  0  0  0  0  0  0  0  0  0
  1  9  1  0  0  0  0
  1 10  1  0  0  0  0
  2 11  1  1  0  0  0
  2  1  1  0  0  0  0
  3  2  1  0  0  0  0
  4 13  1  6  0  0  0
  4  6  1  0  0  0  0
  4  2  1  0  0  0  0
  5  4  1  0  0  0  0
  6  7  2  0  0  0  0
  8  1  1  0  0  0  0
 12  3  1  0  0  0  0
 14  5  1  0  0  0  0
 15  5  1  0  0  0  0
 16 26  1  0  0  0  0
 16 17  1  0  0  0  0
 16 24  1  0  0  0  0
 17 19  1  0  0  0  0
 17 27  1  0  0  0  0
 18 28  1  0  0  0  0
 18 17  1  0  0  0  0
 19 32  1  0  0  0  0
 19 31  1  0  0  0  0
 20 19  1  0  0  0  0
 20 33  1  1  0  0  0
 21 20  1  0  0  0  0
 21  6  1  0  0  0  0
 22 23  2  0  0  0  0
 22 20  1  0  0  0  0
 25 16  1  0  0  0  0
 29 18  1  0  0  0  0
 30 18  1  0  0  0  0
 34 21  1  0  0  0  0
 35 22  1  0  0  0  0
 36 46  1  1  0  0  0
 36 35  1  0  0  0  0
 37 48  1  0  0  0  0
 37 36  1  0  0  0  0
 38 39  1  0  0  0  0
 38 37  1  0  0  0  0
 39 40  1  0  0  0  0
 39 51  1  0  0  0  0
 40 41  1  0  0  0  0
 40 53  1  0  0  0  0
 41 56  1  0  0  0  0
 42 36  1  0  0  0  0
 42 43  1  0  0  0  0
 44 42  2  0  0  0  0
 45 35  1  0  0  0  0
 47 37  1  0  0  0  0
 49 38  1  0  0  0  0
 50 38  1  0  0  0  0
 52 39  1  0  0  0  0
 54 40  1  0  0  0  0
 55 41  1  0  0  0  0
M  END
$$$$
