TLL.pdb
 OpenBabel07022419133D

 54 53  0  0  1  0  0  0  0  0999 V2000
    0.2860   -4.8010    2.1510 C   0  0  0  0  0  0  0  0  0  0  0  0
    1.4550   -4.7720    1.2230 C   0  0  1  0  0  0  0  0  0  0  0  0
    1.0860   -4.8930   -0.1220 O   0  0  0  0  0  0  0  0  0  0  0  0
    2.3770   -3.6050    1.4410 C   0  0  2  0  0  0  0  0  0  0  0  0
    2.7120   -3.5470    2.8460 N   0  0  0  0  0  0  0  0  0  0  0  0
    1.7960   -2.3270    0.9510 C   0  0  0  0  0  0  0  0  0  0  0  0
    1.4370   -2.1590   -0.2300 O   0  0  0  0  0  0  0  0  0  0  0  0
    0.5170   -5.3550    3.1080 H   0  0  0  0  0  0  0  0  0  0  0  0
   -0.5340   -5.3860    1.6820 H   0  0  0  0  0  0  0  0  0  0  0  0
   -0.0530   -3.8000    2.4750 H   0  0  0  0  0  0  0  0  0  0  0  0
    2.0640   -5.6960    1.4390 H   0  0  0  0  0  0  0  0  0  0  0  0
    1.9190   -5.1570   -0.6010 H   0  0  0  0  0  0  0  0  0  0  0  0
    3.3060   -3.7900    0.8680 H   0  0  0  0  0  0  0  0  0  0  0  0
    3.3900   -2.8060    3.0610 H   0  0  0  0  0  0  0  0  0  0  0  0
    1.8350   -3.3550    3.3740 H   0  0  0  0  0  0  0  0  0  0  0  0
    2.5200    2.4730   -1.1340 C   0  0  0  0  0  0  0  0  0  0  0  0
    1.5330    1.9880   -0.0460 C   0  0  0  0  0  0  0  0  0  0  0  0
    1.6150    3.0090    1.0750 C   0  0  0  0  0  0  0  0  0  0  0  0
    1.9520    0.6410    0.4480 C   0  0  0  0  0  0  0  0  0  0  0  0
    1.0880    0.0400    1.4950 C   0  0  2  0  0  0  0  0  0  0  0  0
    1.6580   -1.2820    1.8830 N   0  0  0  0  0  0  0  0  0  0  0  0
   -0.3430   -0.1510    1.1400 C   0  0  0  0  0  0  0  0  0  0  0  0
   -0.6890   -1.3510    0.9610 O   0  0  0  0  0  0  0  0  0  0  0  0
    2.5890    1.7280   -1.9450 H   0  0  0  0  0  0  0  0  0  0  0  0
    2.1410    3.4380   -1.5300 H   0  0  0  0  0  0  0  0  0  0  0  0
    3.5090    2.6570   -0.6660 H   0  0  0  0  0  0  0  0  0  0  0  0
    0.5180    1.9920   -0.4710 H   0  0  0  0  0  0  0  0  0  0  0  0
    2.6960    3.2250    1.2360 H   0  0  0  0  0  0  0  0  0  0  0  0
    1.1790    2.6330    1.9950 H   0  0  0  0  0  0  0  0  0  0  0  0
    1.0910    3.9490    0.8010 H   0  0  0  0  0  0  0  0  0  0  0  0
    2.1970   -0.0490   -0.3990 H   0  0  0  0  0  0  0  0  0  0  0  0
    2.9680    0.8040    0.9490 H   0  0  0  0  0  0  0  0  0  0  0  0
    1.1210    0.6630    2.4060 H   0  0  0  0  0  0  0  0  0  0  0  0
    1.9510   -1.3840    2.9020 H   0  0  0  0  0  0  0  0  0  0  0  0
   -2.7040    0.6860   -2.2730 C   0  0  0  0  0  0  0  0  0  0  0  0
   -2.2790   -0.5490   -1.4430 C   0  0  0  0  0  0  0  0  0  0  0  0
   -2.8990   -1.7360   -2.1860 C   0  0  0  0  0  0  0  0  0  0  0  0
   -2.9840   -0.4370   -0.1330 C   0  0  0  0  0  0  0  0  0  0  0  0
   -2.6370    0.7990    0.6470 C   0  0  2  0  0  0  0  0  0  0  0  0
   -1.2540    0.8830    1.0130 N   0  0  0  0  0  0  0  0  0  0  0  0
   -3.5190    0.9340    1.8000 C   0  0  0  0  0  0  0  0  0  0  0  0
   -4.7700    0.8930    1.7300 O   0  0  0  0  0  0  0  0  0  0  0  0
   -2.9790    1.1210    3.0760 O   0  0  0  0  0  0  0  0  0  0  0  0
   -3.7750    0.8930   -2.0670 H   0  0  0  0  0  0  0  0  0  0  0  0
   -2.5550    0.4540   -3.3470 H   0  0  0  0  0  0  0  0  0  0  0  0
   -2.0680    1.5410   -2.0250 H   0  0  0  0  0  0  0  0  0  0  0  0
   -1.1940   -0.5960   -1.4380 H   0  0  0  0  0  0  0  0  0  0  0  0
   -3.9050   -1.4550   -2.5490 H   0  0  0  0  0  0  0  0  0  0  0  0
   -2.9340   -2.6420   -1.5420 H   0  0  0  0  0  0  0  0  0  0  0  0
   -2.2730   -1.9600   -3.0690 H   0  0  0  0  0  0  0  0  0  0  0  0
   -4.1140   -0.3470   -0.3210 H   0  0  0  0  0  0  0  0  0  0  0  0
   -2.8110   -1.3290    0.4820 H   0  0  0  0  0  0  0  0  0  0  0  0
   -2.8360    1.6450   -0.1350 H   0  0  0  0  0  0  0  0  0  0  0  0
   -0.9630    1.9070    1.2340 H   0  0  0  0  0  0  0  0  0  0  0  0
  1 10  1  0  0  0  0
  1  8  1  0  0  0  0
  2 11  1  1  0  0  0
  2  4  1  0  0  0  0
  2  1  1  0  0  0  0
  3  2  1  0  0  0  0
  4 13  1  6  0  0  0
  4  5  1  0  0  0  0
  5 14  1  0  0  0  0
  5 15  1  0  0  0  0
  6  4  1  0  0  0  0
  6 21  1  0  0  0  0
  7  6  2  0  0  0  0
  9  1  1  0  0  0  0
 12  3  1  0  0  0  0
 16 26  1  0  0  0  0
 16 17  1  0  0  0  0
 17 19  1  0  0  0  0
 17 18  1  0  0  0  0
 18 28  1  0  0  0  0
 18 29  1  0  0  0  0
 19 32  1  0  0  0  0
 19 20  1  0  0  0  0
 20 21  1  0  0  0  0
 20 33  1  1  0  0  0
 21 34  1  0  0  0  0
 22 20  1  0  0  0  0
 23 22  2  0  0  0  0
 24 16  1  0  0  0  0
 25 16  1  0  0  0  0
 27 17  1  0  0  0  0
 30 18  1  0  0  0  0
 31 19  1  0  0  0  0
 35 44  1  0  0  0  0
 35 46  1  0  0  0  0
 35 36  1  0  0  0  0
 36 47  1  0  0  0  0
 36 38  1  0  0  0  0
 37 49  1  0  0  0  0
 37 36  1  0  0  0  0
 38 52  1  0  0  0  0
 38 39  1  0  0  0  0
 39 53  1  6  0  0  0
 39 40  1  0  0  0  0
 39 41  1  0  0  0  0
 40 22  1  0  0  0  0
 40 54  1  0  0  0  0
 41 43  1  0  0  0  0
 42 41  2  0  0  0  0
 45 35  1  0  0  0  0
 48 37  1  0  0  0  0
 50 37  1  0  0  0  0
 51 38  1  0  0  0  0
M  END
$$$$
