TLM.pdb
 OpenBabel07022419133D

 52 51  0  0  1  0  0  0  0  0999 V2000
    3.4150   -4.2890   -0.2430 C   0  0  0  0  0  0  0  0  0  0  0  0
    3.4260   -4.1440    1.2590 C   0  0  1  0  0  0  0  0  0  0  0  0
    4.6140   -3.6190    1.7210 O   0  0  0  0  0  0  0  0  0  0  0  0
    2.2010   -3.4330    1.7660 C   0  0  2  0  0  0  0  0  0  0  0  0
    1.0480   -4.1000    1.1950 N   0  0  0  0  0  0  0  0  0  0  0  0
    2.1450   -2.0110    1.3950 C   0  0  0  0  0  0  0  0  0  0  0  0
    3.0940   -1.2660    1.8080 O   0  0  0  0  0  0  0  0  0  0  0  0
    2.6490   -5.0430   -0.5600 H   0  0  0  0  0  0  0  0  0  0  0  0
    4.3940   -4.6820   -0.5720 H   0  0  0  0  0  0  0  0  0  0  0  0
    3.2390   -3.2920   -0.6690 H   0  0  0  0  0  0  0  0  0  0  0  0
    3.3650   -5.1930    1.6660 H   0  0  0  0  0  0  0  0  0  0  0  0
    5.3110   -3.7030    1.0130 H   0  0  0  0  0  0  0  0  0  0  0  0
    2.1430   -3.5760    2.8780 H   0  0  0  0  0  0  0  0  0  0  0  0
    0.1810   -3.7490    1.6650 H   0  0  0  0  0  0  0  0  0  0  0  0
    1.0100   -3.9810    0.1600 H   0  0  0  0  0  0  0  0  0  0  0  0
    0.1310    2.2880   -1.7370 C   0  0  0  0  0  0  0  0  0  0  0  0
    1.3110    1.4000   -1.8440 C   0  0  0  0  0  0  0  0  0  0  0  0
    2.5390    2.2010   -1.4060 C   0  0  0  0  0  0  0  0  0  0  0  0
    1.2530    0.0740   -1.1720 C   0  0  0  0  0  0  0  0  0  0  0  0
    1.1020   -0.0220    0.2790 C   0  0  2  0  0  0  0  0  0  0  0  0
    1.0870   -1.4830    0.6130 N   0  0  0  0  0  0  0  0  0  0  0  0
   -0.0460    0.5140    0.9670 C   0  0  0  0  0  0  0  0  0  0  0  0
   -0.2220    1.7580    1.0190 O   0  0  0  0  0  0  0  0  0  0  0  0
   -0.8330    1.8070   -1.5610 H   0  0  0  0  0  0  0  0  0  0  0  0
    0.3220    3.2060   -1.1200 H   0  0  0  0  0  0  0  0  0  0  0  0
    0.0040    2.7550   -2.7820 H   0  0  0  0  0  0  0  0  0  0  0  0
    1.5160    1.1830   -2.9460 H   0  0  0  0  0  0  0  0  0  0  0  0
    2.9450    2.7710   -2.2440 H   0  0  0  0  0  0  0  0  0  0  0  0
    3.2360    1.4920   -0.9400 H   0  0  0  0  0  0  0  0  0  0  0  0
    2.2200    2.9650   -0.6450 H   0  0  0  0  0  0  0  0  0  0  0  0
    0.5250   -0.5610   -1.7510 H   0  0  0  0  0  0  0  0  0  0  0  0
    2.2430   -0.4310   -1.4480 H   0  0  0  0  0  0  0  0  0  0  0  0
    2.0230    0.3770    0.7610 H   0  0  0  0  0  0  0  0  0  0  0  0
    0.3140   -2.0530    0.2660 H   0  0  0  0  0  0  0  0  0  0  0  0
   -5.8470    0.3450   -0.7080 C   0  0  0  0  0  0  0  0  0  0  0  0
   -6.0140   -0.2740    1.0100 S   0  0  0  0  0  0  0  0  0  0  0  0
   -4.7010    0.4610    2.0610 C   0  0  0  0  0  0  0  0  0  0  0  0
   -3.4080   -0.0780    1.5630 C   0  0  0  0  0  0  0  0  0  0  0  0
   -2.1820    0.4070    2.2950 C   0  0  2  0  0  0  0  0  0  0  0  0
   -1.0520   -0.2510    1.6260 N   0  0  0  0  0  0  0  0  0  0  0  0
   -2.2600   -0.0460    3.7090 C   0  0  0  0  0  0  0  0  0  0  0  0
   -3.1200    0.3610    4.5240 O   0  0  0  0  0  0  0  0  0  0  0  0
   -1.3400   -0.9870    4.2160 O   0  0  0  0  0  0  0  0  0  0  0  0
   -5.5010    1.3900   -0.7180 H   0  0  0  0  0  0  0  0  0  0  0  0
   -6.8330    0.2990   -1.2080 H   0  0  0  0  0  0  0  0  0  0  0  0
   -5.1460   -0.2720   -1.2950 H   0  0  0  0  0  0  0  0  0  0  0  0
   -4.7700    1.5460    2.0850 H   0  0  0  0  0  0  0  0  0  0  0  0
   -4.9200    0.0560    3.0860 H   0  0  0  0  0  0  0  0  0  0  0  0
   -3.2670    0.2530    0.4930 H   0  0  0  0  0  0  0  0  0  0  0  0
   -3.3670   -1.1850    1.5810 H   0  0  0  0  0  0  0  0  0  0  0  0
   -2.0850    1.5100    2.2240 H   0  0  0  0  0  0  0  0  0  0  0  0
   -0.9660   -1.2690    1.6220 H   0  0  0  0  0  0  0  0  0  0  0  0
  1  2  1  0  0  0  0
  2 11  1  1  0  0  0
  2  3  1  0  0  0  0
  2  4  1  0  0  0  0
  4 13  1  1  0  0  0
  5 14  1  0  0  0  0
  5  4  1  0  0  0  0
  6  4  1  0  0  0  0
  6  7  2  0  0  0  0
  8  1  1  0  0  0  0
  9  1  1  0  0  0  0
 10  1  1  0  0  0  0
 12  3  1  0  0  0  0
 15  5  1  0  0  0  0
 16 24  1  0  0  0  0
 16 25  1  0  0  0  0
 17 16  1  0  0  0  0
 17 18  1  0  0  0  0
 17 19  1  0  0  0  0
 18 29  1  0  0  0  0
 18 30  1  0  0  0  0
 19 20  1  0  0  0  0
 20 21  1  0  0  0  0
 20 33  1  1  0  0  0
 20 22  1  0  0  0  0
 21  6  1  0  0  0  0
 22 23  2  0  0  0  0
 22 40  1  0  0  0  0
 26 16  1  0  0  0  0
 27 17  1  0  0  0  0
 28 18  1  0  0  0  0
 31 19  1  0  0  0  0
 32 19  1  0  0  0  0
 34 21  1  0  0  0  0
 35 36  1  0  0  0  0
 36 37  1  0  0  0  0
 37 47  1  0  0  0  0
 37 48  1  0  0  0  0
 38 50  1  0  0  0  0
 38 37  1  0  0  0  0
 38 39  1  0  0  0  0
 39 51  1  6  0  0  0
 39 41  1  0  0  0  0
 40 39  1  0  0  0  0
 41 43  2  0  0  0  0
 41 42  1  0  0  0  0
 44 35  1  0  0  0  0
 45 35  1  0  0  0  0
 46 35  1  0  0  0  0
 49 38  1  0  0  0  0
 52 40  1  0  0  0  0
M  END
$$$$
