TLN.pdb
 OpenBabel07022419133D

 49 48  0  0  1  0  0  0  0  0999 V2000
    2.4370   -2.8630    4.3700 C   0  0  0  0  0  0  0  0  0  0  0  0
    1.8840   -3.8210    3.3730 C   0  0  1  0  0  0  0  0  0  0  0  0
    0.7650   -4.4590    3.8670 O   0  0  0  0  0  0  0  0  0  0  0  0
    1.7180   -3.2470    1.9860 C   0  0  2  0  0  0  0  0  0  0  0  0
    2.9480   -2.6090    1.6040 N   0  0  0  0  0  0  0  0  0  0  0  0
    0.5310   -2.3410    1.9170 C   0  0  0  0  0  0  0  0  0  0  0  0
   -0.5910   -2.7110    2.3280 O   0  0  0  0  0  0  0  0  0  0  0  0
    2.2980   -3.3250    5.3800 H   0  0  0  0  0  0  0  0  0  0  0  0
    1.8430   -1.9020    4.4190 H   0  0  0  0  0  0  0  0  0  0  0  0
    3.5250   -2.6780    4.2960 H   0  0  0  0  0  0  0  0  0  0  0  0
    2.6600   -4.6370    3.2600 H   0  0  0  0  0  0  0  0  0  0  0  0
    0.2370   -4.8560    3.1250 H   0  0  0  0  0  0  0  0  0  0  0  0
    1.5290   -4.1280    1.3100 H   0  0  0  0  0  0  0  0  0  0  0  0
    2.8440   -2.1110    0.6960 H   0  0  0  0  0  0  0  0  0  0  0  0
    3.1470   -1.8520    2.3280 H   0  0  0  0  0  0  0  0  0  0  0  0
   -1.2270    3.4280    2.4660 C   0  0  0  0  0  0  0  0  0  0  0  0
   -1.5410    2.0440    1.8720 C   0  0  0  0  0  0  0  0  0  0  0  0
   -2.7050    1.4770    2.6360 C   0  0  0  0  0  0  0  0  0  0  0  0
   -0.3120    1.1720    1.9060 C   0  0  0  0  0  0  0  0  0  0  0  0
   -0.5930   -0.1650    1.3350 C   0  0  2  0  0  0  0  0  0  0  0  0
    0.6140   -1.0290    1.3860 N   0  0  0  0  0  0  0  0  0  0  0  0
   -1.1140   -0.1790   -0.0550 C   0  0  0  0  0  0  0  0  0  0  0  0
   -2.2270    0.3250   -0.2950 O   0  0  0  0  0  0  0  0  0  0  0  0
   -0.5260    3.9730    1.8000 H   0  0  0  0  0  0  0  0  0  0  0  0
   -2.1770    3.9880    2.4680 H   0  0  0  0  0  0  0  0  0  0  0  0
   -0.8510    3.3440    3.4950 H   0  0  0  0  0  0  0  0  0  0  0  0
   -1.8000    2.2420    0.8200 H   0  0  0  0  0  0  0  0  0  0  0  0
   -2.3880    0.7160    3.4080 H   0  0  0  0  0  0  0  0  0  0  0  0
   -3.4550    0.9750    2.0150 H   0  0  0  0  0  0  0  0  0  0  0  0
   -3.2690    2.3010    3.1720 H   0  0  0  0  0  0  0  0  0  0  0  0
    0.0790    1.0590    2.9450 H   0  0  0  0  0  0  0  0  0  0  0  0
    0.4820    1.7320    1.3460 H   0  0  0  0  0  0  0  0  0  0  0  0
   -1.3510   -0.6850    1.9470 H   0  0  0  0  0  0  0  0  0  0  0  0
    1.4810   -0.6250    1.0260 H   0  0  0  0  0  0  0  0  0  0  0  0
    1.5680    1.4290   -4.2610 N   0  0  0  0  0  0  0  0  0  0  0  0
    0.9520    0.4220   -3.4670 C   0  0  0  0  0  0  0  0  0  0  0  0
    1.6070   -0.4780   -2.9030 O   0  0  0  0  0  0  0  0  0  0  0  0
   -0.5120    0.4450   -3.3060 C   0  0  0  0  0  0  0  0  0  0  0  0
   -0.9520   -0.7550   -2.4490 C   0  0  2  0  0  0  0  0  0  0  0  0
   -0.3710   -0.7620   -1.1500 N   0  0  0  0  0  0  0  0  0  0  0  0
   -0.8550   -2.0250   -3.1840 C   0  0  0  0  0  0  0  0  0  0  0  0
   -1.3830   -2.0210   -4.3480 O   0  0  0  0  0  0  0  0  0  0  0  0
   -0.2700   -3.1820   -2.7580 O   0  0  0  0  0  0  0  0  0  0  0  0
    0.9630    1.9830   -4.9020 H   0  0  0  0  0  0  0  0  0  0  0  0
    2.5820    1.6410   -4.2350 H   0  0  0  0  0  0  0  0  0  0  0  0
   -0.9820    0.2830   -4.3070 H   0  0  0  0  0  0  0  0  0  0  0  0
   -0.9020    1.3480   -2.7950 H   0  0  0  0  0  0  0  0  0  0  0  0
   -2.0660   -0.5390   -2.3180 H   0  0  0  0  0  0  0  0  0  0  0  0
    0.5640   -1.1580   -0.9100 H   0  0  0  0  0  0  0  0  0  0  0  0
  1  9  1  0  0  0  0
  1  8  1  0  0  0  0
  2 11  1  6  0  0  0
  2  3  1  0  0  0  0
  2  1  1  0  0  0  0
  4 13  1  6  0  0  0
  4  2  1  0  0  0  0
  5  4  1  0  0  0  0
  5 15  1  0  0  0  0
  6  4  1  0  0  0  0
  6  7  2  0  0  0  0
 10  1  1  0  0  0  0
 12  3  1  0  0  0  0
 14  5  1  0  0  0  0
 16 25  1  0  0  0  0
 16 26  1  0  0  0  0
 17 19  1  0  0  0  0
 17 16  1  0  0  0  0
 17 18  1  0  0  0  0
 18 30  1  0  0  0  0
 18 28  1  0  0  0  0
 19 31  1  0  0  0  0
 20 21  1  0  0  0  0
 20 19  1  0  0  0  0
 20 33  1  1  0  0  0
 21  6  1  0  0  0  0
 22 20  1  0  0  0  0
 23 22  2  0  0  0  0
 24 16  1  0  0  0  0
 27 17  1  0  0  0  0
 29 18  1  0  0  0  0
 32 19  1  0  0  0  0
 34 21  1  0  0  0  0
 35 45  1  0  0  0  0
 35 36  1  0  0  0  0
 36 38  1  0  0  0  0
 36 37  2  0  0  0  0
 38 47  1  0  0  0  0
 38 39  1  0  0  0  0
 39 48  1  1  0  0  0
 39 40  1  0  0  0  0
 40 49  1  0  0  0  0
 40 22  1  0  0  0  0
 41 43  1  0  0  0  0
 41 39  1  0  0  0  0
 42 41  2  0  0  0  0
 44 35  1  0  0  0  0
 46 38  1  0  0  0  0
M  END
$$$$
