TLP.pdb
 OpenBabel07022419133D

 49 49  0  0  1  0  0  0  0  0999 V2000
    2.6220   -4.7040    0.3430 C   0  0  0  0  0  0  0  0  0  0  0  0
    2.0680   -4.0460   -0.9000 C   0  0  1  0  0  0  0  0  0  0  0  0
    1.9330   -4.9950   -1.9320 O   0  0  0  0  0  0  0  0  0  0  0  0
    0.7190   -3.3890   -0.6220 C   0  0  2  0  0  0  0  0  0  0  0  0
    0.2780   -2.7410   -1.8310 N   0  0  0  0  0  0  0  0  0  0  0  0
    0.9420   -2.4020    0.4690 C   0  0  0  0  0  0  0  0  0  0  0  0
    1.3340   -2.8230    1.6020 O   0  0  0  0  0  0  0  0  0  0  0  0
    3.2370   -4.0130    0.9510 H   0  0  0  0  0  0  0  0  0  0  0  0
    3.2730   -5.5760    0.0910 H   0  0  0  0  0  0  0  0  0  0  0  0
    1.7810   -5.0370    0.9890 H   0  0  0  0  0  0  0  0  0  0  0  0
    2.8150   -3.3050   -1.2500 H   0  0  0  0  0  0  0  0  0  0  0  0
    2.6760   -5.6340   -1.7940 H   0  0  0  0  0  0  0  0  0  0  0  0
    0.0110   -4.1860   -0.3450 H   0  0  0  0  0  0  0  0  0  0  0  0
    0.5300   -3.3810   -2.6370 H   0  0  0  0  0  0  0  0  0  0  0  0
   -0.7520   -2.6240   -1.8570 H   0  0  0  0  0  0  0  0  0  0  0  0
    3.4030    2.9200    0.7630 C   0  0  0  0  0  0  0  0  0  0  0  0
    2.2900    2.1450    1.5630 C   0  0  0  0  0  0  0  0  0  0  0  0
    1.2480    3.2190    1.7780 C   0  0  0  0  0  0  0  0  0  0  0  0
    1.8890    0.9810    0.7740 C   0  0  0  0  0  0  0  0  0  0  0  0
    0.9140   -0.0230    1.2510 C   0  0  2  0  0  0  0  0  0  0  0  0
    0.7080   -1.0360    0.2030 N   0  0  0  0  0  0  0  0  0  0  0  0
   -0.3150    0.4440    1.8960 C   0  0  0  0  0  0  0  0  0  0  0  0
   -0.1230    1.1890    2.9680 O   0  0  0  0  0  0  0  0  0  0  0  0
    4.1050    2.2040    0.3390 H   0  0  0  0  0  0  0  0  0  0  0  0
    3.8160    3.6200    1.4970 H   0  0  0  0  0  0  0  0  0  0  0  0
    2.8690    3.4390   -0.0510 H   0  0  0  0  0  0  0  0  0  0  0  0
    2.7540    1.9230    2.5320 H   0  0  0  0  0  0  0  0  0  0  0  0
    1.6850    4.1830    1.3510 H   0  0  0  0  0  0  0  0  0  0  0  0
    0.3270    3.0950    1.2110 H   0  0  0  0  0  0  0  0  0  0  0  0
    1.1260    3.4970    2.8540 H   0  0  0  0  0  0  0  0  0  0  0  0
    1.5720    1.3840   -0.2540 H   0  0  0  0  0  0  0  0  0  0  0  0
    2.8420    0.4180    0.4760 H   0  0  0  0  0  0  0  0  0  0  0  0
    1.4770   -0.6200    2.0540 H   0  0  0  0  0  0  0  0  0  0  0  0
    0.4150   -0.7420   -0.7510 H   0  0  0  0  0  0  0  0  0  0  0  0
   -1.6440    0.2050    1.5300 N   0  0  0  0  0  0  0  0  0  0  0  0
   -2.7820    0.7940    2.2700 C   0  0  0  0  0  0  0  0  0  0  0  0
   -3.9610   -0.1110    1.9970 C   0  0  0  0  0  0  0  0  0  0  0  0
   -3.3480   -1.3060    1.2970 C   0  0  0  0  0  0  0  0  0  0  0  0
   -2.2370   -0.5620    0.5050 C   0  0  1  0  0  0  0  0  0  0  0  0
   -3.0330    0.2900   -0.4570 C   0  0  0  0  0  0  0  0  0  0  0  0
   -3.1450    1.5160   -0.3570 O   0  0  0  0  0  0  0  0  0  0  0  0
   -3.6580   -0.3760   -1.4960 O   0  0  0  0  0  0  0  0  0  0  0  0
   -2.5730    0.7580    3.3650 H   0  0  0  0  0  0  0  0  0  0  0  0
   -2.9710    1.8360    1.9460 H   0  0  0  0  0  0  0  0  0  0  0  0
   -4.5110   -0.3870    2.9100 H   0  0  0  0  0  0  0  0  0  0  0  0
   -4.6380    0.3710    1.2360 H   0  0  0  0  0  0  0  0  0  0  0  0
   -4.0310   -1.8120    0.6160 H   0  0  0  0  0  0  0  0  0  0  0  0
   -2.9100   -1.9460    2.0670 H   0  0  0  0  0  0  0  0  0  0  0  0
   -1.6330   -1.2890   -0.0290 H   0  0  0  0  0  0  0  0  0  0  0  0
  1  8  1  0  0  0  0
  1 10  1  0  0  0  0
  2 11  1  6  0  0  0
  2  4  1  0  0  0  0
  2  1  1  0  0  0  0
  3 12  1  0  0  0  0
  3  2  1  0  0  0  0
  4 13  1  1  0  0  0
  4  6  1  0  0  0  0
  5  4  1  0  0  0  0
  6  7  2  0  0  0  0
  9  1  1  0  0  0  0
 14  5  1  0  0  0  0
 15  5  1  0  0  0  0
 16 25  1  0  0  0  0
 16 17  1  0  0  0  0
 17 18  1  0  0  0  0
 17 27  1  0  0  0  0
 18 30  1  0  0  0  0
 19 20  1  0  0  0  0
 19 17  1  0  0  0  0
 20 22  1  0  0  0  0
 20 33  1  1  0  0  0
 21  6  1  0  0  0  0
 21 20  1  0  0  0  0
 22 23  2  0  0  0  0
 24 16  1  0  0  0  0
 26 16  1  0  0  0  0
 28 18  1  0  0  0  0
 29 18  1  0  0  0  0
 31 19  1  0  0  0  0
 32 19  1  0  0  0  0
 34 21  1  0  0  0  0
 35 22  1  0  0  0  0
 35 36  1  0  0  0  0
 36 43  1  0  0  0  0
 37 36  1  0  0  0  0
 37 45  1  0  0  0  0
 38 37  1  0  0  0  0
 38 48  1  0  0  0  0
 39 49  1  6  0  0  0
 39 38  1  0  0  0  0
 39 35  1  0  0  0  0
 40 41  1  0  0  0  0
 40 39  1  0  0  0  0
 42 40  2  0  0  0  0
 44 36  1  0  0  0  0
 46 37  1  0  0  0  0
 47 38  1  0  0  0  0
M  END
$$$$
