TLQ.pdb
 OpenBabel07022419133D

 52 51  0  0  1  0  0  0  0  0999 V2000
    3.2710   -3.1400    1.3200 C   0  0  0  0  0  0  0  0  0  0  0  0
    3.5960   -2.4080    0.0340 C   0  0  1  0  0  0  0  0  0  0  0  0
    4.1190   -3.4400   -0.8080 O   0  0  0  0  0  0  0  0  0  0  0  0
    2.3910   -1.9050   -0.6950 C   0  0  2  0  0  0  0  0  0  0  0  0
    2.8820   -1.4550   -2.0120 N   0  0  0  0  0  0  0  0  0  0  0  0
    1.6880   -0.7830   -0.0730 C   0  0  0  0  0  0  0  0  0  0  0  0
    1.6290    0.3120   -0.7280 O   0  0  0  0  0  0  0  0  0  0  0  0
    2.3090   -3.6570    1.1820 H   0  0  0  0  0  0  0  0  0  0  0  0
    4.0970   -3.9060    1.4780 H   0  0  0  0  0  0  0  0  0  0  0  0
    3.2470   -2.5270    2.2130 H   0  0  0  0  0  0  0  0  0  0  0  0
    4.4050   -1.6730    0.1480 H   0  0  0  0  0  0  0  0  0  0  0  0
    4.6650   -4.0720   -0.2450 H   0  0  0  0  0  0  0  0  0  0  0  0
    1.7210   -2.7440   -0.9000 H   0  0  0  0  0  0  0  0  0  0  0  0
    2.9620   -0.3970   -2.0250 H   0  0  0  0  0  0  0  0  0  0  0  0
    2.3090   -1.8280   -2.7830 H   0  0  0  0  0  0  0  0  0  0  0  0
    2.8290    3.2330    2.0110 C   0  0  0  0  0  0  0  0  0  0  0  0
    2.3260    1.7920    2.2670 C   0  0  0  0  0  0  0  0  0  0  0  0
    3.4340    0.8940    1.8770 C   0  0  0  0  0  0  0  0  0  0  0  0
    0.9980    1.6600    1.6550 C   0  0  0  0  0  0  0  0  0  0  0  0
    0.3700    0.3060    1.8150 C   0  0  2  0  0  0  0  0  0  0  0  0
    1.0520   -0.7610    1.1880 N   0  0  0  0  0  0  0  0  0  0  0  0
   -1.0940    0.2970    1.6110 C   0  0  0  0  0  0  0  0  0  0  0  0
   -1.8670    1.1610    2.0900 O   0  0  0  0  0  0  0  0  0  0  0  0
    2.0190    3.9580    2.0940 H   0  0  0  0  0  0  0  0  0  0  0  0
    3.2840    3.1910    0.9990 H   0  0  0  0  0  0  0  0  0  0  0  0
    3.6460    3.3900    2.7470 H   0  0  0  0  0  0  0  0  0  0  0  0
    2.1680    1.7670    3.3920 H   0  0  0  0  0  0  0  0  0  0  0  0
    3.2810   -0.1670    2.1620 H   0  0  0  0  0  0  0  0  0  0  0  0
    3.7180    1.0180    0.8210 H   0  0  0  0  0  0  0  0  0  0  0  0
    4.3850    1.1540    2.4760 H   0  0  0  0  0  0  0  0  0  0  0  0
    0.3120    2.3570    2.2580 H   0  0  0  0  0  0  0  0  0  0  0  0
    0.9510    2.0370    0.6030 H   0  0  0  0  0  0  0  0  0  0  0  0
    0.5490    0.1190    2.9520 H   0  0  0  0  0  0  0  0  0  0  0  0
    1.0970   -1.6940    1.7150 H   0  0  0  0  0  0  0  0  0  0  0  0
   -6.8530   -2.2620   -0.8570 N   0  0  0  0  0  0  0  0  0  0  0  0
   -5.4720   -1.9660   -1.0540 C   0  0  0  0  0  0  0  0  0  0  0  0
   -4.6660   -2.9570   -1.1730 O   0  0  0  0  0  0  0  0  0  0  0  0
   -4.9050   -0.6110   -1.1390 C   0  0  0  0  0  0  0  0  0  0  0  0
   -3.4680   -0.5460   -0.7950 C   0  0  0  0  0  0  0  0  0  0  0  0
   -3.1600   -0.7550    0.6230 C   0  0  2  0  0  0  0  0  0  0  0  0
   -1.6990   -0.7230    0.8410 N   0  0  0  0  0  0  0  0  0  0  0  0
   -3.6690   -1.9520    1.2340 C   0  0  0  0  0  0  0  0  0  0  0  0
   -2.8640   -2.9110    1.4980 O   0  0  0  0  0  0  0  0  0  0  0  0
   -4.9760   -2.1790    1.5870 O   0  0  0  0  0  0  0  0  0  0  0  0
   -7.5700   -1.5530   -1.1340 H   0  0  0  0  0  0  0  0  0  0  0  0
   -7.1370   -3.1580   -0.4480 H   0  0  0  0  0  0  0  0  0  0  0  0
   -5.4820    0.0490   -0.4150 H   0  0  0  0  0  0  0  0  0  0  0  0
   -5.1380   -0.1880   -2.1500 H   0  0  0  0  0  0  0  0  0  0  0  0
   -2.9720   -1.3410   -1.4570 H   0  0  0  0  0  0  0  0  0  0  0  0
   -3.0340    0.4270   -1.1890 H   0  0  0  0  0  0  0  0  0  0  0  0
   -3.5720    0.1450    1.1760 H   0  0  0  0  0  0  0  0  0  0  0  0
   -1.1900   -1.5070    0.3810 H   0  0  0  0  0  0  0  0  0  0  0  0
  1  9  1  0  0  0  0
  1 10  1  0  0  0  0
  2 11  1  1  0  0  0
  2  1  1  0  0  0  0
  3 12  1  0  0  0  0
  3  2  1  0  0  0  0
  4 13  1  6  0  0  0
  4  6  1  0  0  0  0
  4  2  1  0  0  0  0
  5  4  1  0  0  0  0
  6 21  1  0  0  0  0
  7  6  2  0  0  0  0
  8  1  1  0  0  0  0
 14  5  1  0  0  0  0
 15  5  1  0  0  0  0
 16 24  1  0  0  0  0
 16 17  1  0  0  0  0
 16 26  1  0  0  0  0
 17 27  1  0  0  0  0
 18 28  1  0  0  0  0
 18 17  1  0  0  0  0
 18 30  1  0  0  0  0
 19 20  1  0  0  0  0
 19 31  1  0  0  0  0
 19 17  1  0  0  0  0
 20 33  1  1  0  0  0
 21 34  1  0  0  0  0
 21 20  1  0  0  0  0
 22 20  1  0  0  0  0
 22 23  2  0  0  0  0
 25 16  1  0  0  0  0
 29 18  1  0  0  0  0
 32 19  1  0  0  0  0
 35 46  1  0  0  0  0
 36 35  1  0  0  0  0
 37 36  2  0  0  0  0
 38 36  1  0  0  0  0
 38 39  1  0  0  0  0
 38 47  1  0  0  0  0
 39 40  1  0  0  0  0
 40 41  1  0  0  0  0
 40 51  1  1  0  0  0
 40 42  1  0  0  0  0
 41 22  1  0  0  0  0
 42 43  2  0  0  0  0
 42 44  1  0  0  0  0
 45 35  1  0  0  0  0
 48 38  1  0  0  0  0
 49 39  1  0  0  0  0
 50 39  1  0  0  0  0
 52 41  1  0  0  0  0
M  END
$$$$
