TLS.pdb
 OpenBabel07022419133D

 46 45  0  0  1  0  0  0  0  0999 V2000
    1.2890   -4.5760    0.8790 C   0  0  0  0  0  0  0  0  0  0  0  0
    0.2230   -4.0450   -0.0770 C   0  0  1  0  0  0  0  0  0  0  0  0
   -0.7210   -5.0880   -0.1950 O   0  0  0  0  0  0  0  0  0  0  0  0
   -0.4920   -2.9130    0.6250 C   0  0  2  0  0  0  0  0  0  0  0  0
   -1.6160   -2.5070   -0.1570 N   0  0  0  0  0  0  0  0  0  0  0  0
    0.4230   -1.8040    0.9740 C   0  0  0  0  0  0  0  0  0  0  0  0
    1.4360   -2.0930    1.6630 O   0  0  0  0  0  0  0  0  0  0  0  0
    2.2250   -4.0370    0.6320 H   0  0  0  0  0  0  0  0  0  0  0  0
    1.0360   -4.3810    1.9240 H   0  0  0  0  0  0  0  0  0  0  0  0
    1.3940   -5.6770    0.7010 H   0  0  0  0  0  0  0  0  0  0  0  0
    0.6320   -3.7790   -1.0500 H   0  0  0  0  0  0  0  0  0  0  0  0
   -0.8130   -5.5670    0.6520 H   0  0  0  0  0  0  0  0  0  0  0  0
   -0.8780   -3.3310    1.5820 H   0  0  0  0  0  0  0  0  0  0  0  0
   -2.3980   -2.1590    0.4530 H   0  0  0  0  0  0  0  0  0  0  0  0
   -2.0010   -3.2280   -0.7730 H   0  0  0  0  0  0  0  0  0  0  0  0
    1.7360   -0.4080   -1.9330 C   0  0  0  0  0  0  0  0  0  0  0  0
    2.5020    0.6730   -1.2050 C   0  0  0  0  0  0  0  0  0  0  0  0
    3.8510    0.1820   -0.7340 C   0  0  0  0  0  0  0  0  0  0  0  0
    1.7270    1.3790   -0.1670 C   0  0  0  0  0  0  0  0  0  0  0  0
    1.1760    0.5920    0.9650 C   0  0  2  0  0  0  0  0  0  0  0  0
    0.2530   -0.4570    0.5990 N   0  0  0  0  0  0  0  0  0  0  0  0
    0.4460    1.5430    1.8410 C   0  0  0  0  0  0  0  0  0  0  0  0
    0.9840    2.5710    2.3270 O   0  0  0  0  0  0  0  0  0  0  0  0
    1.9120   -1.3970   -1.4690 H   0  0  0  0  0  0  0  0  0  0  0  0
    2.0640   -0.4680   -3.0150 H   0  0  0  0  0  0  0  0  0  0  0  0
    0.6660   -0.1260   -2.0020 H   0  0  0  0  0  0  0  0  0  0  0  0
    2.7350    1.4460   -2.0000 H   0  0  0  0  0  0  0  0  0  0  0  0
    3.8460   -0.1790    0.2960 H   0  0  0  0  0  0  0  0  0  0  0  0
    4.1750   -0.5920   -1.4770 H   0  0  0  0  0  0  0  0  0  0  0  0
    4.6210    0.9820   -0.7970 H   0  0  0  0  0  0  0  0  0  0  0  0
    2.3710    2.1740    0.2650 H   0  0  0  0  0  0  0  0  0  0  0  0
    0.8970    1.9410   -0.6840 H   0  0  0  0  0  0  0  0  0  0  0  0
    2.0220    0.1920    1.5690 H   0  0  0  0  0  0  0  0  0  0  0  0
   -0.5860   -0.2150    0.0300 H   0  0  0  0  0  0  0  0  0  0  0  0
   -3.5770    1.4490    1.7610 O   0  0  0  0  0  0  0  0  0  0  0  0
   -2.8860    2.6080    2.1260 C   0  0  0  0  0  0  0  0  0  0  0  0
   -1.7030    2.1640    2.9950 C   0  0  2  0  0  0  0  0  0  0  0  0
   -0.9090    1.2790    2.1400 N   0  0  0  0  0  0  0  0  0  0  0  0
   -2.2530    1.3140    4.0820 C   0  0  0  0  0  0  0  0  0  0  0  0
   -2.0300    0.0800    4.1740 O   0  0  0  0  0  0  0  0  0  0  0  0
   -3.0560    1.8920    5.0560 O   0  0  0  0  0  0  0  0  0  0  0  0
   -3.8250    1.4430    0.8000 H   0  0  0  0  0  0  0  0  0  0  0  0
   -2.5120    3.1330    1.2440 H   0  0  0  0  0  0  0  0  0  0  0  0
   -3.5510    3.2110    2.7590 H   0  0  0  0  0  0  0  0  0  0  0  0
   -1.1260    3.0210    3.3560 H   0  0  0  0  0  0  0  0  0  0  0  0
   -1.4200    0.4450    1.7720 H   0  0  0  0  0  0  0  0  0  0  0  0
  1  9  1  0  0  0  0
  2 11  1  6  0  0  0
  2  4  1  0  0  0  0
  2  1  1  0  0  0  0
  3  2  1  0  0  0  0
  3 12  1  0  0  0  0
  4  6  1  0  0  0  0
  4 13  1  1  0  0  0
  5 14  1  0  0  0  0
  5  4  1  0  0  0  0
  6  7  2  0  0  0  0
  8  1  1  0  0  0  0
 10  1  1  0  0  0  0
 15  5  1  0  0  0  0
 16 24  1  0  0  0  0
 16 17  1  0  0  0  0
 17 18  1  0  0  0  0
 17 19  1  0  0  0  0
 18 28  1  0  0  0  0
 19 31  1  0  0  0  0
 19 20  1  0  0  0  0
 20 33  1  1  0  0  0
 20 22  1  0  0  0  0
 21 20  1  0  0  0  0
 21  6  1  0  0  0  0
 22 38  1  0  0  0  0
 22 23  2  0  0  0  0
 25 16  1  0  0  0  0
 26 16  1  0  0  0  0
 27 17  1  0  0  0  0
 29 18  1  0  0  0  0
 30 18  1  0  0  0  0
 32 19  1  0  0  0  0
 34 21  1  0  0  0  0
 35 36  1  0  0  0  0
 36 44  1  0  0  0  0
 36 37  1  0  0  0  0
 37 45  1  1  0  0  0
 37 39  1  0  0  0  0
 38 37  1  0  0  0  0
 39 40  2  0  0  0  0
 39 41  1  0  0  0  0
 42 35  1  0  0  0  0
 43 36  1  0  0  0  0
 46 38  1  0  0  0  0
M  END
$$$$
