TLT.pdb
 OpenBabel07022419133D

 49 48  0  0  1  0  0  0  0  0999 V2000
    2.6480   -4.9960   -1.9420 C   0  0  0  0  0  0  0  0  0  0  0  0
    2.5340   -4.0560   -0.7600 C   0  0  1  0  0  0  0  0  0  0  0  0
    3.7000   -3.3190   -0.5980 O   0  0  0  0  0  0  0  0  0  0  0  0
    1.3130   -3.1550   -0.9070 C   0  0  2  0  0  0  0  0  0  0  0  0
    1.4150   -2.2880   -2.0370 N   0  0  0  0  0  0  0  0  0  0  0  0
    1.0490   -2.4490    0.3720 C   0  0  0  0  0  0  0  0  0  0  0  0
    0.9530   -3.1690    1.4020 O   0  0  0  0  0  0  0  0  0  0  0  0
    1.9130   -5.8370   -1.7750 H   0  0  0  0  0  0  0  0  0  0  0  0
    3.6650   -5.4070   -2.0370 H   0  0  0  0  0  0  0  0  0  0  0  0
    2.3070   -4.5150   -2.8910 H   0  0  0  0  0  0  0  0  0  0  0  0
    2.3450   -4.7180    0.1340 H   0  0  0  0  0  0  0  0  0  0  0  0
    4.3440   -3.8990   -0.0930 H   0  0  0  0  0  0  0  0  0  0  0  0
    0.4540   -3.8480   -1.0950 H   0  0  0  0  0  0  0  0  0  0  0  0
    0.5160   -2.0590   -2.4910 H   0  0  0  0  0  0  0  0  0  0  0  0
    2.0550   -1.4890   -1.9230 H   0  0  0  0  0  0  0  0  0  0  0  0
    0.7650    2.3390    3.5830 C   0  0  0  0  0  0  0  0  0  0  0  0
    1.7780    1.2950    3.3400 C   0  0  0  0  0  0  0  0  0  0  0  0
    1.7680    0.3980    4.6080 C   0  0  0  0  0  0  0  0  0  0  0  0
    1.7680    0.4970    2.1190 C   0  0  0  0  0  0  0  0  0  0  0  0
    0.6380   -0.3860    1.8140 C   0  0  2  0  0  0  0  0  0  0  0  0
    0.9040   -1.0700    0.5080 N   0  0  0  0  0  0  0  0  0  0  0  0
   -0.7150    0.1550    1.7430 C   0  0  0  0  0  0  0  0  0  0  0  0
   -1.2700    0.5970    2.7630 O   0  0  0  0  0  0  0  0  0  0  0  0
    1.2780    3.3000    3.9950 H   0  0  0  0  0  0  0  0  0  0  0  0
    0.2170    2.7340    2.7280 H   0  0  0  0  0  0  0  0  0  0  0  0
    0.0460    2.1290    4.4080 H   0  0  0  0  0  0  0  0  0  0  0  0
    2.7950    1.8150    3.4550 H   0  0  0  0  0  0  0  0  0  0  0  0
    0.7420    0.0410    4.8130 H   0  0  0  0  0  0  0  0  0  0  0  0
    2.0330    1.0790    5.4500 H   0  0  0  0  0  0  0  0  0  0  0  0
    2.5160   -0.3910    4.5320 H   0  0  0  0  0  0  0  0  0  0  0  0
    1.9730    1.2090    1.2500 H   0  0  0  0  0  0  0  0  0  0  0  0
    2.7080   -0.1500    2.0910 H   0  0  0  0  0  0  0  0  0  0  0  0
    0.6910   -1.2550    2.5450 H   0  0  0  0  0  0  0  0  0  0  0  0
    0.9820   -0.4420   -0.3000 H   0  0  0  0  0  0  0  0  0  0  0  0
   -2.4930    1.5260   -1.9510 C   0  0  0  0  0  0  0  0  0  0  0  0
   -2.8870    1.8740   -0.5510 C   0  0  1  0  0  0  0  0  0  0  0  0
   -4.2310    2.2660   -0.5750 O   0  0  0  0  0  0  0  0  0  0  0  0
   -2.7800    0.7200    0.4010 C   0  0  2  0  0  0  0  0  0  0  0  0
   -1.4460    0.1990    0.5350 N   0  0  0  0  0  0  0  0  0  0  0  0
   -3.7270   -0.3320   -0.0440 C   0  0  0  0  0  0  0  0  0  0  0  0
   -4.9420   -0.0560   -0.2130 O   0  0  0  0  0  0  0  0  0  0  0  0
   -3.3400   -1.6470   -0.2930 O   0  0  0  0  0  0  0  0  0  0  0  0
   -1.5530    2.0410   -2.2740 H   0  0  0  0  0  0  0  0  0  0  0  0
   -2.4160    0.4270   -2.1010 H   0  0  0  0  0  0  0  0  0  0  0  0
   -3.2660    1.8600   -2.7030 H   0  0  0  0  0  0  0  0  0  0  0  0
   -2.3370    2.7830   -0.1690 H   0  0  0  0  0  0  0  0  0  0  0  0
   -4.6400    2.2560    0.3120 H   0  0  0  0  0  0  0  0  0  0  0  0
   -3.1080    1.0680    1.4020 H   0  0  0  0  0  0  0  0  0  0  0  0
   -0.9970   -0.1690   -0.3260 H   0  0  0  0  0  0  0  0  0  0  0  0
  1  8  1  0  0  0  0
  1  2  1  0  0  0  0
  2  3  1  0  0  0  0
  2 11  1  1  0  0  0
  3 12  1  0  0  0  0
  4 13  1  6  0  0  0
  4  2  1  0  0  0  0
  4  6  1  0  0  0  0
  5 15  1  0  0  0  0
  5  4  1  0  0  0  0
  6 21  1  0  0  0  0
  6  7  2  0  0  0  0
  9  1  1  0  0  0  0
 10  1  1  0  0  0  0
 14  5  1  0  0  0  0
 16 24  1  0  0  0  0
 16 26  1  0  0  0  0
 17 27  1  0  0  0  0
 17 16  1  0  0  0  0
 17 18  1  0  0  0  0
 18 28  1  0  0  0  0
 18 29  1  0  0  0  0
 19 17  1  0  0  0  0
 20 19  1  0  0  0  0
 20 33  1  1  0  0  0
 21 20  1  0  0  0  0
 22 20  1  0  0  0  0
 22 23  2  0  0  0  0
 25 16  1  0  0  0  0
 30 18  1  0  0  0  0
 31 19  1  0  0  0  0
 32 19  1  0  0  0  0
 34 21  1  0  0  0  0
 35 36  1  0  0  0  0
 36 46  1  1  0  0  0
 36 38  1  0  0  0  0
 37 36  1  0  0  0  0
 37 47  1  0  0  0  0
 38 39  1  0  0  0  0
 38 48  1  1  0  0  0
 39 22  1  0  0  0  0
 40 38  1  0  0  0  0
 41 40  1  0  0  0  0
 42 40  2  0  0  0  0
 43 35  1  0  0  0  0
 44 35  1  0  0  0  0
 45 35  1  0  0  0  0
 49 39  1  0  0  0  0
M  END
$$$$
