TLV.pdb
 OpenBabel07022419133D

 51 50  0  0  1  0  0  0  0  0999 V2000
    3.0820   -6.3230    1.0750 C   0  0  0  0  0  0  0  0  0  0  0  0
    2.8410   -4.8960    1.5480 C   0  0  1  0  0  0  0  0  0  0  0  0
    4.0190   -4.1770    1.6620 O   0  0  0  0  0  0  0  0  0  0  0  0
    1.8750   -4.2750    0.5560 C   0  0  2  0  0  0  0  0  0  0  0  0
    2.4220   -4.1940   -0.7560 N   0  0  0  0  0  0  0  0  0  0  0  0
    1.3620   -2.9550    1.0540 C   0  0  0  0  0  0  0  0  0  0  0  0
    0.8640   -2.9530    2.2080 O   0  0  0  0  0  0  0  0  0  0  0  0
    2.1100   -6.8680    1.2470 H   0  0  0  0  0  0  0  0  0  0  0  0
    3.8590   -6.8140    1.6960 H   0  0  0  0  0  0  0  0  0  0  0  0
    3.2900   -6.3740    0.0000 H   0  0  0  0  0  0  0  0  0  0  0  0
    2.3200   -4.9750    2.5210 H   0  0  0  0  0  0  0  0  0  0  0  0
    4.4450   -4.0920    0.7860 H   0  0  0  0  0  0  0  0  0  0  0  0
    0.9770   -4.9490    0.5500 H   0  0  0  0  0  0  0  0  0  0  0  0
    1.8210   -4.5270   -1.5180 H   0  0  0  0  0  0  0  0  0  0  0  0
    2.9920   -3.3700   -0.9580 H   0  0  0  0  0  0  0  0  0  0  0  0
    0.9640    2.7160    0.6430 C   0  0  0  0  0  0  0  0  0  0  0  0
    1.8510    1.8070    1.4330 C   0  0  0  0  0  0  0  0  0  0  0  0
    1.2890    1.8280    2.8660 C   0  0  0  0  0  0  0  0  0  0  0  0
    2.0440    0.4400    0.9390 C   0  0  0  0  0  0  0  0  0  0  0  0
    0.8840   -0.4600    0.8520 C   0  0  2  0  0  0  0  0  0  0  0  0
    1.4090   -1.7810    0.3270 N   0  0  0  0  0  0  0  0  0  0  0  0
   -0.2290   -0.1920   -0.0390 C   0  0  0  0  0  0  0  0  0  0  0  0
   -0.3190   -0.7410   -1.2070 O   0  0  0  0  0  0  0  0  0  0  0  0
    0.7570    2.3200   -0.3580 H   0  0  0  0  0  0  0  0  0  0  0  0
    0.0630    3.0380    1.2100 H   0  0  0  0  0  0  0  0  0  0  0  0
    1.5380    3.6970    0.5090 H   0  0  0  0  0  0  0  0  0  0  0  0
    2.8760    2.2960    1.4770 H   0  0  0  0  0  0  0  0  0  0  0  0
    1.5690    0.9040    3.4110 H   0  0  0  0  0  0  0  0  0  0  0  0
    1.7610    2.6830    3.3930 H   0  0  0  0  0  0  0  0  0  0  0  0
    0.2030    2.0250    2.8690 H   0  0  0  0  0  0  0  0  0  0  0  0
    2.5360    0.5300   -0.0790 H   0  0  0  0  0  0  0  0  0  0  0  0
    2.8490   -0.0390    1.5750 H   0  0  0  0  0  0  0  0  0  0  0  0
    0.4830   -0.6430    1.8790 H   0  0  0  0  0  0  0  0  0  0  0  0
    1.8040   -1.7310   -0.6160 H   0  0  0  0  0  0  0  0  0  0  0  0
   -3.9500    0.8110    1.4010 C   0  0  0  0  0  0  0  0  0  0  0  0
   -3.6400    0.2420    0.0400 C   0  0  0  0  0  0  0  0  0  0  0  0
   -4.8310    0.3390   -0.8760 C   0  0  0  0  0  0  0  0  0  0  0  0
   -2.4120    0.9140   -0.5720 C   0  0  2  0  0  0  0  0  0  0  0  0
   -1.2920    0.6770    0.3240 N   0  0  0  0  0  0  0  0  0  0  0  0
   -2.6600    2.2950   -0.9390 C   0  0  0  0  0  0  0  0  0  0  0  0
   -1.9770    3.2430   -0.5190 O   0  0  0  0  0  0  0  0  0  0  0  0
   -3.7070    2.6640   -1.8100 O   0  0  0  0  0  0  0  0  0  0  0  0
   -3.1080    0.6130    2.0880 H   0  0  0  0  0  0  0  0  0  0  0  0
   -4.2590    1.8730    1.3680 H   0  0  0  0  0  0  0  0  0  0  0  0
   -4.8160    0.2450    1.7970 H   0  0  0  0  0  0  0  0  0  0  0  0
   -3.4200   -0.8370    0.1800 H   0  0  0  0  0  0  0  0  0  0  0  0
   -5.4920   -0.5540   -0.6720 H   0  0  0  0  0  0  0  0  0  0  0  0
   -5.4530    1.2170   -0.6220 H   0  0  0  0  0  0  0  0  0  0  0  0
   -4.5520    0.3200   -1.9500 H   0  0  0  0  0  0  0  0  0  0  0  0
   -2.1930    0.3460   -1.5160 H   0  0  0  0  0  0  0  0  0  0  0  0
   -1.3350    1.1660    1.2440 H   0  0  0  0  0  0  0  0  0  0  0  0
  1  8  1  0  0  0  0
  1  2  1  0  0  0  0
  1  9  1  0  0  0  0
  2  3  1  0  0  0  0
  2 11  1  1  0  0  0
  4 13  1  6  0  0  0
  4  6  1  0  0  0  0
  4  2  1  0  0  0  0
  5  4  1  0  0  0  0
  6  7  2  0  0  0  0
 10  1  1  0  0  0  0
 12  3  1  0  0  0  0
 14  5  1  0  0  0  0
 15  5  1  0  0  0  0
 16 25  1  0  0  0  0
 16 17  1  0  0  0  0
 17 27  1  0  0  0  0
 17 18  1  0  0  0  0
 18 30  1  0  0  0  0
 18 29  1  0  0  0  0
 18 28  1  0  0  0  0
 19 17  1  0  0  0  0
 19 32  1  0  0  0  0
 20 19  1  0  0  0  0
 20 33  1  1  0  0  0
 21 20  1  0  0  0  0
 21  6  1  0  0  0  0
 22 39  1  0  0  0  0
 22 20  1  0  0  0  0
 23 22  2  0  0  0  0
 24 16  1  0  0  0  0
 26 16  1  0  0  0  0
 31 19  1  0  0  0  0
 34 21  1  0  0  0  0
 35 45  1  0  0  0  0
 35 43  1  0  0  0  0
 36 46  1  0  0  0  0
 36 35  1  0  0  0  0
 37 47  1  0  0  0  0
 37 48  1  0  0  0  0
 37 36  1  0  0  0  0
 38 50  1  6  0  0  0
 38 36  1  0  0  0  0
 38 39  1  0  0  0  0
 39 51  1  0  0  0  0
 40 38  1  0  0  0  0
 40 41  1  0  0  0  0
 42 40  2  0  0  0  0
 44 35  1  0  0  0  0
 49 37  1  0  0  0  0
M  END
$$$$
