TLW.pdb
 OpenBabel07022419133D

 59 60  0  0  1  0  0  0  0  0999 V2000
    2.2880   -1.9600    1.8540 C   0  0  0  0  0  0  0  0  0  0  0  0
    3.5490   -1.2780    2.2630 C   0  0  1  0  0  0  0  0  0  0  0  0
    4.6720   -2.0970    2.2180 O   0  0  0  0  0  0  0  0  0  0  0  0
    3.7620   -0.0170    1.4040 C   0  0  2  0  0  0  0  0  0  0  0  0
    4.9340    0.6610    1.9930 N   0  0  0  0  0  0  0  0  0  0  0  0
    2.5800    0.8420    1.6130 C   0  0  0  0  0  0  0  0  0  0  0  0
    2.6630    1.7480    2.5030 O   0  0  0  0  0  0  0  0  0  0  0  0
    2.2310   -2.9430    2.3910 H   0  0  0  0  0  0  0  0  0  0  0  0
    1.4190   -1.3420    2.1510 H   0  0  0  0  0  0  0  0  0  0  0  0
    2.2760   -2.1300    0.7620 H   0  0  0  0  0  0  0  0  0  0  0  0
    3.4470   -0.9790    3.3380 H   0  0  0  0  0  0  0  0  0  0  0  0
    4.5420   -2.7740    2.9420 H   0  0  0  0  0  0  0  0  0  0  0  0
    3.9780   -0.2890    0.3760 H   0  0  0  0  0  0  0  0  0  0  0  0
    5.6680   -0.0750    2.1630 H   0  0  0  0  0  0  0  0  0  0  0  0
    4.6320    1.0470    2.9280 H   0  0  0  0  0  0  0  0  0  0  0  0
   -0.8640    4.4470    1.1300 C   0  0  0  0  0  0  0  0  0  0  0  0
   -0.7460    3.5810   -0.1060 C   0  0  0  0  0  0  0  0  0  0  0  0
   -2.0660    3.1580   -0.6840 C   0  0  0  0  0  0  0  0  0  0  0  0
    0.3030    2.5510   -0.0260 C   0  0  0  0  0  0  0  0  0  0  0  0
    0.2280    1.5380    1.0810 C   0  0  2  0  0  0  0  0  0  0  0  0
    1.4030    0.6780    0.8620 N   0  0  0  0  0  0  0  0  0  0  0  0
   -1.0020    0.7750    1.1810 C   0  0  0  0  0  0  0  0  0  0  0  0
   -2.0630    1.3510    1.5560 O   0  0  0  0  0  0  0  0  0  0  0  0
   -1.7940    5.0520    0.9960 H   0  0  0  0  0  0  0  0  0  0  0  0
   -0.0330    5.2080    1.1730 H   0  0  0  0  0  0  0  0  0  0  0  0
   -0.8240    3.8920    2.0650 H   0  0  0  0  0  0  0  0  0  0  0  0
   -0.3340    4.3360   -0.8790 H   0  0  0  0  0  0  0  0  0  0  0  0
   -2.9390    3.3470   -0.0300 H   0  0  0  0  0  0  0  0  0  0  0  0
   -1.9690    2.1140   -1.0380 H   0  0  0  0  0  0  0  0  0  0  0  0
   -2.2660    3.7510   -1.6210 H   0  0  0  0  0  0  0  0  0  0  0  0
    0.3750    2.0480   -1.0100 H   0  0  0  0  0  0  0  0  0  0  0  0
    1.2890    3.0750    0.1030 H   0  0  0  0  0  0  0  0  0  0  0  0
    0.4610    2.1110    2.0170 H   0  0  0  0  0  0  0  0  0  0  0  0
    1.3490   -0.0470    0.1400 H   0  0  0  0  0  0  0  0  0  0  0  0
   -1.1210   -0.6070    0.8820 N   0  0  0  0  0  0  0  0  0  0  0  0
   -2.3890   -1.3340    1.0050 C   0  0  1  0  0  0  0  0  0  0  0  0
   -2.9590   -1.6690   -0.3300 C   0  0  0  0  0  0  0  0  0  0  0  0
   -2.1150   -2.4880   -1.2140 C   0  0  0  0  0  0  0  0  0  0  0  0
   -1.3300   -1.9280   -2.2270 C   0  0  0  0  0  0  0  0  0  0  0  0
   -0.6840   -2.9190   -2.8150 N   0  0  0  0  0  0  0  0  0  0  0  0
   -0.9800   -4.1010   -2.2690 C   0  0  0  0  0  0  0  0  0  0  0  0
   -0.5340   -5.3910   -2.5830 C   0  0  0  0  0  0  0  0  0  0  0  0
   -1.0420   -6.4240   -1.8280 C   0  0  0  0  0  0  0  0  0  0  0  0
   -1.9470   -6.1670   -0.8160 C   0  0  0  0  0  0  0  0  0  0  0  0
   -2.3680   -4.8870   -0.5280 C   0  0  0  0  0  0  0  0  0  0  0  0
   -1.8770   -3.8350   -1.2650 C   0  0  0  0  0  0  0  0  0  0  0  0
   -2.3390   -2.3940    1.9990 C   0  0  0  0  0  0  0  0  0  0  0  0
   -3.3650   -3.0490    2.3110 O   0  0  0  0  0  0  0  0  0  0  0  0
   -1.1670   -2.7620    2.6720 O   0  0  0  0  0  0  0  0  0  0  0  0
   -0.3170   -1.1510    0.5610 H   0  0  0  0  0  0  0  0  0  0  0  0
   -3.1090   -0.5550    1.4340 H   0  0  0  0  0  0  0  0  0  0  0  0
   -3.3080   -0.7550   -0.8760 H   0  0  0  0  0  0  0  0  0  0  0  0
   -3.9120   -2.2380   -0.1300 H   0  0  0  0  0  0  0  0  0  0  0  0
   -1.2770   -0.8750   -2.4680 H   0  0  0  0  0  0  0  0  0  0  0  0
   -0.0080   -2.8170   -3.6230 H   0  0  0  0  0  0  0  0  0  0  0  0
    0.1730   -5.5700   -3.3770 H   0  0  0  0  0  0  0  0  0  0  0  0
   -0.7360   -7.4330   -2.0230 H   0  0  0  0  0  0  0  0  0  0  0  0
   -2.3570   -6.9640   -0.2130 H   0  0  0  0  0  0  0  0  0  0  0  0
   -3.0820   -4.6710    0.2510 H   0  0  0  0  0  0  0  0  0  0  0  0
  1  9  1  0  0  0  0
  1  2  1  0  0  0  0
  1  8  1  0  0  0  0
  2 11  1  1  0  0  0
  3  2  1  0  0  0  0
  3 12  1  0  0  0  0
  4 13  1  6  0  0  0
  4  6  1  0  0  0  0
  4  5  1  0  0  0  0
  4  2  1  0  0  0  0
  5 14  1  0  0  0  0
  5 15  1  0  0  0  0
  6  7  2  0  0  0  0
 10  1  1  0  0  0  0
 16 25  1  0  0  0  0
 16 26  1  0  0  0  0
 17 19  1  0  0  0  0
 17 16  1  0  0  0  0
 18 17  1  0  0  0  0
 18 28  1  0  0  0  0
 19 32  1  0  0  0  0
 19 20  1  0  0  0  0
 20 22  1  0  0  0  0
 20 33  1  1  0  0  0
 21 20  1  0  0  0  0
 21  6  1  0  0  0  0
 22 23  2  0  0  0  0
 24 16  1  0  0  0  0
 27 17  1  0  0  0  0
 29 18  1  0  0  0  0
 30 18  1  0  0  0  0
 31 19  1  0  0  0  0
 34 21  1  0  0  0  0
 35 36  1  0  0  0  0
 35 22  1  0  0  0  0
 36 51  1  1  0  0  0
 36 47  1  0  0  0  0
 37 53  1  0  0  0  0
 37 36  1  0  0  0  0
 38 37  1  0  0  0  0
 39 38  2  0  0  0  0
 40 41  1  0  0  0  0
 40 39  1  0  0  0  0
 41 46  1  0  0  0  0
 42 41  2  0  0  0  0
 42 43  1  0  0  0  0
 43 44  2  0  0  0  0
 44 45  1  0  0  0  0
 44 58  1  0  0  0  0
 45 59  1  0  0  0  0
 46 38  1  0  0  0  0
 46 45  2  0  0  0  0
 47 48  2  0  0  0  0
 47 49  1  0  0  0  0
 50 35  1  0  0  0  0
 52 37  1  0  0  0  0
 54 39  1  0  0  0  0
 55 40  1  0  0  0  0
 56 42  1  0  0  0  0
 57 43  1  0  0  0  0
M  END
$$$$
