TLY.pdb
 OpenBabel07022419133D

 56 56  0  0  1  0  0  0  0  0999 V2000
    1.9080   -5.3540    2.0620 C   0  0  0  0  0  0  0  0  0  0  0  0
    1.0490   -4.1070    2.1180 C   0  0  1  0  0  0  0  0  0  0  0  0
   -0.2370   -4.3990    2.5100 O   0  0  0  0  0  0  0  0  0  0  0  0
    1.7340   -3.0950    2.9670 C   0  0  2  0  0  0  0  0  0  0  0  0
    1.8320   -3.5300    4.3470 N   0  0  0  0  0  0  0  0  0  0  0  0
    1.1900   -1.7230    2.8590 C   0  0  0  0  0  0  0  0  0  0  0  0
    0.8700   -1.0750    3.9120 O   0  0  0  0  0  0  0  0  0  0  0  0
    1.8980   -5.8180    1.0540 H   0  0  0  0  0  0  0  0  0  0  0  0
    2.9560   -5.0550    2.2530 H   0  0  0  0  0  0  0  0  0  0  0  0
    1.6150   -6.0610    2.8590 H   0  0  0  0  0  0  0  0  0  0  0  0
    0.9980   -3.7110    1.0830 H   0  0  0  0  0  0  0  0  0  0  0  0
   -0.5830   -5.1100    1.9150 H   0  0  0  0  0  0  0  0  0  0  0  0
    2.8030   -3.0410    2.6030 H   0  0  0  0  0  0  0  0  0  0  0  0
    1.7380   -2.6500    4.9340 H   0  0  0  0  0  0  0  0  0  0  0  0
    0.9690   -4.0910    4.5510 H   0  0  0  0  0  0  0  0  0  0  0  0
   -0.0260    3.1050   -0.1220 C   0  0  0  0  0  0  0  0  0  0  0  0
    1.1420    2.6270    0.6460 C   0  0  0  0  0  0  0  0  0  0  0  0
    1.1460    3.4360    1.9540 C   0  0  0  0  0  0  0  0  0  0  0  0
    1.3740    1.2050    0.8570 C   0  0  0  0  0  0  0  0  0  0  0  0
    0.4370    0.3360    1.5820 C   0  0  2  0  0  0  0  0  0  0  0  0
    0.9910   -1.0550    1.6330 N   0  0  0  0  0  0  0  0  0  0  0  0
   -0.8980    0.1640    0.9850 C   0  0  0  0  0  0  0  0  0  0  0  0
   -1.7570    1.0990    0.8660 O   0  0  0  0  0  0  0  0  0  0  0  0
   -0.8490    3.5540    0.5110 H   0  0  0  0  0  0  0  0  0  0  0  0
   -0.3840    2.4740   -0.9400 H   0  0  0  0  0  0  0  0  0  0  0  0
    0.3270    4.0490   -0.6820 H   0  0  0  0  0  0  0  0  0  0  0  0
    2.0750    3.0350    0.1200 H   0  0  0  0  0  0  0  0  0  0  0  0
    2.1410    3.3470    2.3840 H   0  0  0  0  0  0  0  0  0  0  0  0
    0.3150    3.1340    2.6050 H   0  0  0  0  0  0  0  0  0  0  0  0
    0.9520    4.4860    1.6470 H   0  0  0  0  0  0  0  0  0  0  0  0
    2.4280    1.1000    1.2770 H   0  0  0  0  0  0  0  0  0  0  0  0
    1.5150    0.7370   -0.1810 H   0  0  0  0  0  0  0  0  0  0  0  0
    0.2790    0.7010    2.6090 H   0  0  0  0  0  0  0  0  0  0  0  0
    1.2430   -1.5490    0.7540 H   0  0  0  0  0  0  0  0  0  0  0  0
    0.4590    1.6350   -4.8300 O   0  0  0  0  0  0  0  0  0  0  0  0
   -0.2660    0.7850   -4.0080 C   0  0  0  0  0  0  0  0  0  0  0  0
    0.3740   -0.1910   -3.2940 C   0  0  0  0  0  0  0  0  0  0  0  0
   -0.3830   -1.0170   -2.4870 C   0  0  0  0  0  0  0  0  0  0  0  0
   -1.7450   -0.8760   -2.3920 C   0  0  0  0  0  0  0  0  0  0  0  0
   -2.5450   -1.7570   -1.5330 C   0  0  0  0  0  0  0  0  0  0  0  0
   -2.7060   -1.2310   -0.1230 C   0  0  2  0  0  0  0  0  0  0  0  0
   -1.3780   -1.1020    0.4640 N   0  0  0  0  0  0  0  0  0  0  0  0
   -3.4300   -2.2680    0.6490 C   0  0  0  0  0  0  0  0  0  0  0  0
   -4.6140   -2.5920    0.3580 O   0  0  0  0  0  0  0  0  0  0  0  0
   -2.3640    0.1160   -3.1230 C   0  0  0  0  0  0  0  0  0  0  0  0
   -1.6200    0.9560   -3.9390 C   0  0  0  0  0  0  0  0  0  0  0  0
   -2.8380   -2.9200    1.7140 O   0  0  0  0  0  0  0  0  0  0  0  0
    0.9200    1.3140   -5.6790 H   0  0  0  0  0  0  0  0  0  0  0  0
    1.4580   -0.3410   -3.3380 H   0  0  0  0  0  0  0  0  0  0  0  0
    0.1320   -1.7930   -1.9210 H   0  0  0  0  0  0  0  0  0  0  0  0
   -3.5970   -1.8820   -1.9270 H   0  0  0  0  0  0  0  0  0  0  0  0
   -2.1080   -2.7750   -1.5460 H   0  0  0  0  0  0  0  0  0  0  0  0
   -3.2250   -0.2670   -0.1050 H   0  0  0  0  0  0  0  0  0  0  0  0
   -0.7260   -1.9100    0.5320 H   0  0  0  0  0  0  0  0  0  0  0  0
   -3.4350    0.2860   -3.0980 H   0  0  0  0  0  0  0  0  0  0  0  0
   -2.1330    1.7340   -4.5080 H   0  0  0  0  0  0  0  0  0  0  0  0
  1  2  1  0  0  0  0
  1  9  1  0  0  0  0
  1 10  1  0  0  0  0
  2 11  1  6  0  0  0
  2  3  1  0  0  0  0
  2  4  1  0  0  0  0
  4 13  1  6  0  0  0
  4  5  1  0  0  0  0
  5 15  1  0  0  0  0
  5 14  1  0  0  0  0
  6  4  1  0  0  0  0
  6  7  2  0  0  0  0
  8  1  1  0  0  0  0
 12  3  1  0  0  0  0
 16 24  1  0  0  0  0
 16 17  1  0  0  0  0
 17 19  1  0  0  0  0
 17 18  1  0  0  0  0
 18 28  1  0  0  0  0
 18 29  1  0  0  0  0
 19 31  1  0  0  0  0
 19 20  1  0  0  0  0
 20 21  1  0  0  0  0
 20 33  1  1  0  0  0
 21  6  1  0  0  0  0
 22 20  1  0  0  0  0
 23 22  2  0  0  0  0
 25 16  1  0  0  0  0
 26 16  1  0  0  0  0
 27 17  1  0  0  0  0
 30 18  1  0  0  0  0
 32 19  1  0  0  0  0
 34 21  1  0  0  0  0
 35 36  1  0  0  0  0
 36 46  2  0  0  0  0
 36 37  1  0  0  0  0
 37 38  2  0  0  0  0
 38 39  1  0  0  0  0
 38 50  1  0  0  0  0
 39 40  1  0  0  0  0
 40 41  1  0  0  0  0
 41 53  1  1  0  0  0
 41 42  1  0  0  0  0
 41 43  1  0  0  0  0
 42 54  1  0  0  0  0
 42 22  1  0  0  0  0
 43 47  1  0  0  0  0
 44 43  2  0  0  0  0
 45 55  1  0  0  0  0
 45 39  2  0  0  0  0
 46 45  1  0  0  0  0
 48 35  1  0  0  0  0
 49 37  1  0  0  0  0
 51 40  1  0  0  0  0
 52 40  1  0  0  0  0
 56 46  1  0  0  0  0
M  END
$$$$
