TMA.pdb
 OpenBabel07022419133D

 43 42  0  0  1  0  0  0  0  0999 V2000
   -1.9200   -4.4410    1.4710 C   0  0  0  0  0  0  0  0  0  0  0  0
   -2.4590   -3.2590    0.7060 C   0  0  1  0  0  0  0  0  0  0  0  0
   -3.8570   -3.3110    0.7850 O   0  0  0  0  0  0  0  0  0  0  0  0
   -1.9340   -1.9950    1.3720 C   0  0  2  0  0  0  0  0  0  0  0  0
   -2.4810   -0.8120    0.7300 N   0  0  0  0  0  0  0  0  0  0  0  0
   -0.4660   -2.0280    1.3200 C   0  0  0  0  0  0  0  0  0  0  0  0
    0.1910   -2.9530    1.8650 O   0  0  0  0  0  0  0  0  0  0  0  0
   -1.7170   -4.1110    2.5090 H   0  0  0  0  0  0  0  0  0  0  0  0
   -0.9490   -4.8120    1.0590 H   0  0  0  0  0  0  0  0  0  0  0  0
   -2.6620   -5.2740    1.4880 H   0  0  0  0  0  0  0  0  0  0  0  0
   -2.1950   -3.2830   -0.3510 H   0  0  0  0  0  0  0  0  0  0  0  0
   -4.1820   -4.1960    1.0820 H   0  0  0  0  0  0  0  0  0  0  0  0
   -2.2670   -2.0060    2.4110 H   0  0  0  0  0  0  0  0  0  0  0  0
   -2.0240    0.0300    1.0860 H   0  0  0  0  0  0  0  0  0  0  0  0
   -2.5690   -0.8900   -0.2900 H   0  0  0  0  0  0  0  0  0  0  0  0
   -0.1070    0.2560   -2.4420 C   0  0  0  0  0  0  0  0  0  0  0  0
    1.0000   -1.0780   -2.8820 S   0  0  0  0  0  0  0  0  0  0  0  0
    2.4450   -1.1470   -1.8940 C   0  0  0  0  0  0  0  0  0  0  0  0
    2.4640   -1.6160   -0.5250 C   0  0  0  0  0  0  0  0  0  0  0  0
    1.7500   -1.0660    0.6160 C   0  0  2  0  0  0  0  0  0  0  0  0
    0.3370   -1.0240    0.6540 N   0  0  0  0  0  0  0  0  0  0  0  0
    2.3560    0.2220    1.1340 C   0  0  0  0  0  0  0  0  0  0  0  0
    3.5970    0.3970    1.1960 O   0  0  0  0  0  0  0  0  0  0  0  0
    0.3370    0.9750   -1.7150 H   0  0  0  0  0  0  0  0  0  0  0  0
   -0.3900    0.8920   -3.3170 H   0  0  0  0  0  0  0  0  0  0  0  0
   -1.0570   -0.1110   -1.9650 H   0  0  0  0  0  0  0  0  0  0  0  0
    3.1860   -1.8350   -2.4620 H   0  0  0  0  0  0  0  0  0  0  0  0
    3.0360   -0.1590   -1.9900 H   0  0  0  0  0  0  0  0  0  0  0  0
    3.5740   -1.6340   -0.2150 H   0  0  0  0  0  0  0  0  0  0  0  0
    2.2600   -2.7500   -0.5170 H   0  0  0  0  0  0  0  0  0  0  0  0
    2.0260   -1.7970    1.4780 H   0  0  0  0  0  0  0  0  0  0  0  0
   -0.2020   -0.2590    0.2360 H   0  0  0  0  0  0  0  0  0  0  0  0
    1.7230    3.7160    1.2410 C   0  0  0  0  0  0  0  0  0  0  0  0
    2.0970    2.5120    2.0660 C   0  0  2  0  0  0  0  0  0  0  0  0
    1.5340    1.2940    1.5750 N   0  0  0  0  0  0  0  0  0  0  0  0
    1.6970    2.7920    3.4750 C   0  0  0  0  0  0  0  0  0  0  0  0
    0.9460    1.9560    4.0350 O   0  0  0  0  0  0  0  0  0  0  0  0
    2.1200    3.9140    4.1580 O   0  0  0  0  0  0  0  0  0  0  0  0
    1.7750    4.6050    1.9020 H   0  0  0  0  0  0  0  0  0  0  0  0
    0.6800    3.6660    0.8600 H   0  0  0  0  0  0  0  0  0  0  0  0
    2.4540    3.9060    0.4250 H   0  0  0  0  0  0  0  0  0  0  0  0
    3.2250    2.4850    2.0660 H   0  0  0  0  0  0  0  0  0  0  0  0
    0.4960    1.2210    1.5520 H   0  0  0  0  0  0  0  0  0  0  0  0
  1 10  1  0  0  0  0
  1  8  1  0  0  0  0
  2 11  1  6  0  0  0
  2  3  1  0  0  0  0
  2  4  1  0  0  0  0
  2  1  1  0  0  0  0
  3 12  1  0  0  0  0
  4 13  1  1  0  0  0
  5 14  1  0  0  0  0
  5  4  1  0  0  0  0
  6  4  1  0  0  0  0
  6  7  2  0  0  0  0
  9  1  1  0  0  0  0
 15  5  1  0  0  0  0
 16 26  1  0  0  0  0
 16 24  1  0  0  0  0
 17 16  1  0  0  0  0
 17 18  1  0  0  0  0
 18 19  1  0  0  0  0
 19 30  1  0  0  0  0
 19 29  1  0  0  0  0
 19 20  1  0  0  0  0
 20 21  1  0  0  0  0
 20 22  1  0  0  0  0
 20 31  1  1  0  0  0
 21  6  1  0  0  0  0
 22 23  2  0  0  0  0
 22 35  1  0  0  0  0
 25 16  1  0  0  0  0
 27 18  1  0  0  0  0
 28 18  1  0  0  0  0
 32 21  1  0  0  0  0
 33 39  1  0  0  0  0
 33 34  1  0  0  0  0
 34 42  1  6  0  0  0
 34 36  1  0  0  0  0
 35 34  1  0  0  0  0
 36 37  2  0  0  0  0
 36 38  1  0  0  0  0
 40 33  1  0  0  0  0
 41 33  1  0  0  0  0
 43 35  1  0  0  0  0
M  END
$$$$
