TMC.pdb
 OpenBabel07022419133D

 44 43  0  0  1  0  0  0  0  0999 V2000
    1.7930   -5.1310   -0.3090 C   0  0  0  0  0  0  0  0  0  0  0  0
    2.1620   -3.6740   -0.1410 C   0  0  1  0  0  0  0  0  0  0  0  0
    2.0600   -3.0610   -1.3800 O   0  0  0  0  0  0  0  0  0  0  0  0
    1.2740   -2.9980    0.8780 C   0  0  2  0  0  0  0  0  0  0  0  0
   -0.1140   -3.0540    0.4620 N   0  0  0  0  0  0  0  0  0  0  0  0
    1.6980   -1.5690    1.0280 C   0  0  0  0  0  0  0  0  0  0  0  0
    2.8450   -1.2430    1.3870 O   0  0  0  0  0  0  0  0  0  0  0  0
    1.9160   -5.4070   -1.3590 H   0  0  0  0  0  0  0  0  0  0  0  0
    2.4400   -5.7950    0.3070 H   0  0  0  0  0  0  0  0  0  0  0  0
    0.7270   -5.2890   -0.0330 H   0  0  0  0  0  0  0  0  0  0  0  0
    3.2180   -3.6620    0.2170 H   0  0  0  0  0  0  0  0  0  0  0  0
    1.3290   -3.4240   -1.9440 H   0  0  0  0  0  0  0  0  0  0  0  0
    1.3520   -3.5500    1.8350 H   0  0  0  0  0  0  0  0  0  0  0  0
   -0.7050   -2.5850    1.1600 H   0  0  0  0  0  0  0  0  0  0  0  0
   -0.1840   -2.5680   -0.4490 H   0  0  0  0  0  0  0  0  0  0  0  0
   -0.1070    2.2430   -3.4780 C   0  0  0  0  0  0  0  0  0  0  0  0
    1.5870    2.3640   -2.8800 S   0  0  0  0  0  0  0  0  0  0  0  0
    1.8890    1.2050   -1.4900 C   0  0  0  0  0  0  0  0  0  0  0  0
    1.0400    1.6810   -0.3460 C   0  0  0  0  0  0  0  0  0  0  0  0
    1.1560    0.8490    0.8910 C   0  0  2  0  0  0  0  0  0  0  0  0
    0.7950   -0.5060    0.7620 N   0  0  0  0  0  0  0  0  0  0  0  0
    0.3260    1.5000    1.9320 C   0  0  0  0  0  0  0  0  0  0  0  0
    0.4550    2.7200    2.2430 O   0  0  0  0  0  0  0  0  0  0  0  0
   -0.1650    1.5650   -4.3510 H   0  0  0  0  0  0  0  0  0  0  0  0
   -0.7700    1.8820   -2.6750 H   0  0  0  0  0  0  0  0  0  0  0  0
   -0.4640    3.2460   -3.8100 H   0  0  0  0  0  0  0  0  0  0  0  0
    2.9680    1.3100   -1.2560 H   0  0  0  0  0  0  0  0  0  0  0  0
    1.7070    0.1700   -1.7890 H   0  0  0  0  0  0  0  0  0  0  0  0
   -0.0090    1.8770   -0.6410 H   0  0  0  0  0  0  0  0  0  0  0  0
    1.4480    2.6990   -0.0690 H   0  0  0  0  0  0  0  0  0  0  0  0
    2.2170    0.9030    1.2280 H   0  0  0  0  0  0  0  0  0  0  0  0
   -0.1720   -0.7420    0.4610 H   0  0  0  0  0  0  0  0  0  0  0  0
   -0.6500    0.7190    2.6040 N   0  0  0  0  0  0  0  0  0  0  0  0
   -1.4900    1.2820    3.6230 C   0  0  1  0  0  0  0  0  0  0  0  0
   -2.9250    1.1700    3.1400 C   0  0  0  0  0  0  0  0  0  0  0  0
   -3.3960   -0.5430    2.8520 S   0  0  0  0  0  0  0  0  0  0  0  0
   -1.3260    0.5320    4.9080 C   0  0  0  0  0  0  0  0  0  0  0  0
   -1.9920    0.8940    5.9160 O   0  0  0  0  0  0  0  0  0  0  0  0
   -0.4510   -0.5380    4.9610 O   0  0  0  0  0  0  0  0  0  0  0  0
   -0.7920   -0.2950    2.3790 H   0  0  0  0  0  0  0  0  0  0  0  0
   -1.2290    2.3400    3.7520 H   0  0  0  0  0  0  0  0  0  0  0  0
   -2.9890    1.7000    2.1670 H   0  0  0  0  0  0  0  0  0  0  0  0
   -3.5700    1.6030    3.9180 H   0  0  0  0  0  0  0  0  0  0  0  0
   -3.3930   -0.8930    1.5060 H   0  0  0  0  0  0  0  0  0  0  0  0
  1  2  1  0  0  0  0
  1 10  1  0  0  0  0
  1  9  1  0  0  0  0
  2 11  1  1  0  0  0
  2  4  1  0  0  0  0
  3  2  1  0  0  0  0
  4  6  1  0  0  0  0
  4 13  1  1  0  0  0
  5  4  1  0  0  0  0
  5 14  1  0  0  0  0
  6  7  2  0  0  0  0
  8  1  1  0  0  0  0
 12  3  1  0  0  0  0
 15  5  1  0  0  0  0
 16 17  1  0  0  0  0
 16 25  1  0  0  0  0
 17 18  1  0  0  0  0
 18 27  1  0  0  0  0
 18 19  1  0  0  0  0
 19 30  1  0  0  0  0
 19 20  1  0  0  0  0
 20 31  1  1  0  0  0
 20 22  1  0  0  0  0
 21 20  1  0  0  0  0
 21  6  1  0  0  0  0
 22 23  2  0  0  0  0
 22 33  1  0  0  0  0
 24 16  1  0  0  0  0
 26 16  1  0  0  0  0
 28 18  1  0  0  0  0
 29 19  1  0  0  0  0
 32 21  1  0  0  0  0
 33 34  1  0  0  0  0
 34 41  1  1  0  0  0
 34 37  1  0  0  0  0
 35 34  1  0  0  0  0
 35 43  1  0  0  0  0
 36 35  1  0  0  0  0
 37 39  2  0  0  0  0
 37 38  1  0  0  0  0
 40 33  1  0  0  0  0
 42 35  1  0  0  0  0
 44 36  1  0  0  0  0
M  END
$$$$
