TMD.pdb
 OpenBabel07022419133D

 46 45  0  0  1  0  0  0  0  0999 V2000
   -0.9040   -4.7120    0.4110 C   0  0  0  0  0  0  0  0  0  0  0  0
   -0.0820   -3.5120    0.8630 C   0  0  1  0  0  0  0  0  0  0  0  0
    0.6310   -3.7910    2.0190 O   0  0  0  0  0  0  0  0  0  0  0  0
    0.9200   -3.1310   -0.2030 C   0  0  2  0  0  0  0  0  0  0  0  0
    1.8280   -4.2410   -0.4070 N   0  0  0  0  0  0  0  0  0  0  0  0
    1.6070   -1.9110    0.2790 C   0  0  0  0  0  0  0  0  0  0  0  0
    2.8260   -1.9790    0.5640 O   0  0  0  0  0  0  0  0  0  0  0  0
   -1.5660   -5.0750    1.2250 H   0  0  0  0  0  0  0  0  0  0  0  0
   -1.5290   -4.4740   -0.4580 H   0  0  0  0  0  0  0  0  0  0  0  0
   -0.2180   -5.5720    0.1760 H   0  0  0  0  0  0  0  0  0  0  0  0
   -0.8030   -2.7060    1.1000 H   0  0  0  0  0  0  0  0  0  0  0  0
    1.2870   -4.5240    1.9110 H   0  0  0  0  0  0  0  0  0  0  0  0
    0.4440   -2.9070   -1.1760 H   0  0  0  0  0  0  0  0  0  0  0  0
    1.9670   -4.4110   -1.4300 H   0  0  0  0  0  0  0  0  0  0  0  0
    2.6910   -4.1990    0.1420 H   0  0  0  0  0  0  0  0  0  0  0  0
    0.7910    2.4830   -3.3100 C   0  0  0  0  0  0  0  0  0  0  0  0
    2.4900    2.3150   -2.6520 S   0  0  0  0  0  0  0  0  0  0  0  0
    2.4120    1.0110   -1.3970 C   0  0  0  0  0  0  0  0  0  0  0  0
    1.5570    1.5280   -0.2580 C   0  0  0  0  0  0  0  0  0  0  0  0
    1.4360    0.4910    0.8450 C   0  0  2  0  0  0  0  0  0  0  0  0
    0.8360   -0.7220    0.3900 N   0  0  0  0  0  0  0  0  0  0  0  0
    0.7280    1.1170    1.9820 C   0  0  0  0  0  0  0  0  0  0  0  0
    1.0970    2.1820    2.5200 O   0  0  0  0  0  0  0  0  0  0  0  0
    0.2010    3.1780   -2.7060 H   0  0  0  0  0  0  0  0  0  0  0  0
    0.2660    1.4970   -3.2900 H   0  0  0  0  0  0  0  0  0  0  0  0
    0.9130    2.8050   -4.3680 H   0  0  0  0  0  0  0  0  0  0  0  0
    3.4550    0.8450   -1.0640 H   0  0  0  0  0  0  0  0  0  0  0  0
    1.9690    0.1240   -1.8870 H   0  0  0  0  0  0  0  0  0  0  0  0
    2.0790    2.3930    0.1820 H   0  0  0  0  0  0  0  0  0  0  0  0
    0.5710    1.7990   -0.6580 H   0  0  0  0  0  0  0  0  0  0  0  0
    2.4860    0.2700    1.1880 H   0  0  0  0  0  0  0  0  0  0  0  0
   -0.1920   -0.7280    0.1350 H   0  0  0  0  0  0  0  0  0  0  0  0
   -0.4430    0.4780    2.5050 N   0  0  0  0  0  0  0  0  0  0  0  0
   -1.2100    0.9980    3.6140 C   0  0  1  0  0  0  0  0  0  0  0  0
   -2.6420    1.1960    3.1540 C   0  0  0  0  0  0  0  0  0  0  0  0
   -2.7740    2.1340    2.0300 C   0  0  0  0  0  0  0  0  0  0  0  0
   -2.6990    3.3760    2.2180 O   0  0  0  0  0  0  0  0  0  0  0  0
   -1.2740   -0.0130    4.7250 C   0  0  0  0  0  0  0  0  0  0  0  0
   -1.8810    0.2260    5.7760 O   0  0  0  0  0  0  0  0  0  0  0  0
   -2.9860    1.6610    0.7350 O   0  0  0  0  0  0  0  0  0  0  0  0
   -0.6250   -1.2310    4.5340 O   0  0  0  0  0  0  0  0  0  0  0  0
   -0.7680   -0.4110    2.0680 H   0  0  0  0  0  0  0  0  0  0  0  0
   -0.7740    1.9670    3.9880 H   0  0  0  0  0  0  0  0  0  0  0  0
   -3.2580    1.5640    4.0100 H   0  0  0  0  0  0  0  0  0  0  0  0
   -3.0230    0.1760    2.8630 H   0  0  0  0  0  0  0  0  0  0  0  0
   -2.9750    2.2520   -0.0830 H   0  0  0  0  0  0  0  0  0  0  0  0
  1  2  1  0  0  0  0
  1  8  1  0  0  0  0
  2 11  1  1  0  0  0
  2  3  1  0  0  0  0
  4 13  1  6  0  0  0
  4  6  1  0  0  0  0
  4  2  1  0  0  0  0
  5  4  1  0  0  0  0
  5 15  1  0  0  0  0
  6 21  1  0  0  0  0
  6  7  2  0  0  0  0
  9  1  1  0  0  0  0
 10  1  1  0  0  0  0
 12  3  1  0  0  0  0
 14  5  1  0  0  0  0
 16 25  1  0  0  0  0
 16 24  1  0  0  0  0
 16 17  1  0  0  0  0
 17 18  1  0  0  0  0
 18 27  1  0  0  0  0
 18 19  1  0  0  0  0
 19 29  1  0  0  0  0
 19 20  1  0  0  0  0
 20 31  1  1  0  0  0
 20 22  1  0  0  0  0
 21 20  1  0  0  0  0
 22 33  1  0  0  0  0
 22 23  2  0  0  0  0
 26 16  1  0  0  0  0
 28 18  1  0  0  0  0
 30 19  1  0  0  0  0
 32 21  1  0  0  0  0
 33 34  1  0  0  0  0
 34 43  1  1  0  0  0
 34 38  1  0  0  0  0
 35 34  1  0  0  0  0
 35 44  1  0  0  0  0
 36 37  2  0  0  0  0
 36 35  1  0  0  0  0
 38 39  1  0  0  0  0
 40 36  1  0  0  0  0
 41 38  2  0  0  0  0
 42 33  1  0  0  0  0
 45 35  1  0  0  0  0
 46 40  1  0  0  0  0
M  END
$$$$
