TME.pdb
 OpenBabel07022419133D

 49 48  0  0  1  0  0  0  0  0999 V2000
    4.5870   -2.4570   -2.8110 C   0  0  0  0  0  0  0  0  0  0  0  0
    3.9630   -2.2370   -1.4490 C   0  0  1  0  0  0  0  0  0  0  0  0
    4.6300   -1.3050   -0.6890 O   0  0  0  0  0  0  0  0  0  0  0  0
    2.4860   -1.9280   -1.5370 C   0  0  2  0  0  0  0  0  0  0  0  0
    2.2470   -0.6300   -2.1360 N   0  0  0  0  0  0  0  0  0  0  0  0
    1.9160   -1.9890   -0.1850 C   0  0  0  0  0  0  0  0  0  0  0  0
    2.0360   -3.0670    0.4830 O   0  0  0  0  0  0  0  0  0  0  0  0
    4.3500   -1.6570   -3.5310 H   0  0  0  0  0  0  0  0  0  0  0  0
    5.6920   -2.5550   -2.6250 H   0  0  0  0  0  0  0  0  0  0  0  0
    4.2900   -3.4490   -3.2330 H   0  0  0  0  0  0  0  0  0  0  0  0
    4.0720   -3.2200   -0.9090 H   0  0  0  0  0  0  0  0  0  0  0  0
    5.3810   -1.7150   -0.1950 H   0  0  0  0  0  0  0  0  0  0  0  0
    2.0520   -2.6770   -2.2320 H   0  0  0  0  0  0  0  0  0  0  0  0
    1.1900   -0.5630   -2.2430 H   0  0  0  0  0  0  0  0  0  0  0  0
    2.6060   -0.6790   -3.1240 H   0  0  0  0  0  0  0  0  0  0  0  0
    3.5400    0.6340    5.0360 C   0  0  0  0  0  0  0  0  0  0  0  0
    1.8360    1.2540    5.0040 S   0  0  0  0  0  0  0  0  0  0  0  0
    0.8360   -0.0210    4.1270 C   0  0  0  0  0  0  0  0  0  0  0  0
    1.3430   -0.0170    2.7130 C   0  0  0  0  0  0  0  0  0  0  0  0
    0.6700   -1.0070    1.8000 C   0  0  2  0  0  0  0  0  0  0  0  0
    1.2320   -0.9340    0.4550 N   0  0  0  0  0  0  0  0  0  0  0  0
   -0.8080   -0.8040    1.6970 C   0  0  0  0  0  0  0  0  0  0  0  0
   -1.5490   -0.8560    2.7110 O   0  0  0  0  0  0  0  0  0  0  0  0
    4.2350    1.3960    5.4600 H   0  0  0  0  0  0  0  0  0  0  0  0
    3.6340   -0.2700    5.6790 H   0  0  0  0  0  0  0  0  0  0  0  0
    3.9280    0.4120    4.0200 H   0  0  0  0  0  0  0  0  0  0  0  0
    1.0890   -0.9810    4.6590 H   0  0  0  0  0  0  0  0  0  0  0  0
   -0.2330    0.2190    4.2280 H   0  0  0  0  0  0  0  0  0  0  0  0
    1.1540    1.0180    2.3200 H   0  0  0  0  0  0  0  0  0  0  0  0
    2.4340   -0.1550    2.7530 H   0  0  0  0  0  0  0  0  0  0  0  0
    0.8780   -2.0080    2.1820 H   0  0  0  0  0  0  0  0  0  0  0  0
    1.1120   -0.0390   -0.0510 H   0  0  0  0  0  0  0  0  0  0  0  0
   -1.4520   -0.5460    0.4700 N   0  0  0  0  0  0  0  0  0  0  0  0
   -2.9140   -0.3420    0.3480 C   0  0  1  0  0  0  0  0  0  0  0  0
   -3.1960    0.9790   -0.2550 C   0  0  0  0  0  0  0  0  0  0  0  0
   -4.6520    1.2610   -0.3960 C   0  0  0  0  0  0  0  0  0  0  0  0
   -5.3510    1.2840    0.9050 C   0  0  0  0  0  0  0  0  0  0  0  0
   -4.7650    1.1780    1.9960 O   0  0  0  0  0  0  0  0  0  0  0  0
   -3.4460   -1.4380   -0.4730 C   0  0  0  0  0  0  0  0  0  0  0  0
   -2.6370   -2.2450   -1.0110 O   0  0  0  0  0  0  0  0  0  0  0  0
   -6.7450    1.4290    0.9850 O   0  0  0  0  0  0  0  0  0  0  0  0
   -4.7860   -1.6450   -0.6940 O   0  0  0  0  0  0  0  0  0  0  0  0
   -0.8770   -0.4960   -0.3910 H   0  0  0  0  0  0  0  0  0  0  0  0
   -3.3870   -0.4240    1.3380 H   0  0  0  0  0  0  0  0  0  0  0  0
   -2.6520    1.1300   -1.2310 H   0  0  0  0  0  0  0  0  0  0  0  0
   -2.7940    1.7580    0.4560 H   0  0  0  0  0  0  0  0  0  0  0  0
   -5.1240    0.4850   -1.0290 H   0  0  0  0  0  0  0  0  0  0  0  0
   -4.7990    2.2740   -0.9180 H   0  0  0  0  0  0  0  0  0  0  0  0
   -7.2310    1.4830    1.8530 H   0  0  0  0  0  0  0  0  0  0  0  0
  1  9  1  0  0  0  0
  1  2  1  0  0  0  0
  2 11  1  1  0  0  0
  2  3  1  0  0  0  0
  3 12  1  0  0  0  0
  4 13  1  6  0  0  0
  4  2  1  0  0  0  0
  4  6  1  0  0  0  0
  5  4  1  0  0  0  0
  6 21  1  0  0  0  0
  6  7  2  0  0  0  0
  8  1  1  0  0  0  0
 10  1  1  0  0  0  0
 14  5  1  0  0  0  0
 15  5  1  0  0  0  0
 16 24  1  0  0  0  0
 16 25  1  0  0  0  0
 17 16  1  0  0  0  0
 18 28  1  0  0  0  0
 18 27  1  0  0  0  0
 18 17  1  0  0  0  0
 19 30  1  0  0  0  0
 19 18  1  0  0  0  0
 20 31  1  1  0  0  0
 20 19  1  0  0  0  0
 21 20  1  0  0  0  0
 22 20  1  0  0  0  0
 22 23  2  0  0  0  0
 26 16  1  0  0  0  0
 29 19  1  0  0  0  0
 32 21  1  0  0  0  0
 33 22  1  0  0  0  0
 34 33  1  0  0  0  0
 34 44  1  1  0  0  0
 35 34  1  0  0  0  0
 35 46  1  0  0  0  0
 36 35  1  0  0  0  0
 36 37  1  0  0  0  0
 37 41  1  0  0  0  0
 37 38  2  0  0  0  0
 39 34  1  0  0  0  0
 40 39  2  0  0  0  0
 41 49  1  0  0  0  0
 42 39  1  0  0  0  0
 43 33  1  0  0  0  0
 45 35  1  0  0  0  0
 47 36  1  0  0  0  0
 48 36  1  0  0  0  0
M  END
$$$$
