TMG.pdb
 OpenBabel07022419133D

 40 39  0  0  1  0  0  0  0  0999 V2000
    2.5440   -3.3100    3.3730 C   0  0  0  0  0  0  0  0  0  0  0  0
    2.2250   -3.7140    1.9660 C   0  0  1  0  0  0  0  0  0  0  0  0
    0.8620   -3.6450    1.7070 O   0  0  0  0  0  0  0  0  0  0  0  0
    2.9470   -2.9130    0.9220 C   0  0  2  0  0  0  0  0  0  0  0  0
    4.3820   -2.9310    1.1050 N   0  0  0  0  0  0  0  0  0  0  0  0
    2.4900   -1.5100    0.8040 C   0  0  0  0  0  0  0  0  0  0  0  0
    3.3630   -0.5910    0.9820 O   0  0  0  0  0  0  0  0  0  0  0  0
    3.2420   -2.4560    3.4480 H   0  0  0  0  0  0  0  0  0  0  0  0
    3.0100   -4.1490    3.9330 H   0  0  0  0  0  0  0  0  0  0  0  0
    1.5880   -3.0860    3.8970 H   0  0  0  0  0  0  0  0  0  0  0  0
    2.5230   -4.7740    1.8230 H   0  0  0  0  0  0  0  0  0  0  0  0
    0.4440   -4.4160    2.1700 H   0  0  0  0  0  0  0  0  0  0  0  0
    2.7500   -3.4020   -0.0560 H   0  0  0  0  0  0  0  0  0  0  0  0
    4.8960   -2.6440    0.2690 H   0  0  0  0  0  0  0  0  0  0  0  0
    4.7290   -3.7440    1.6170 H   0  0  0  0  0  0  0  0  0  0  0  0
   -1.9150    2.0970   -3.0840 C   0  0  0  0  0  0  0  0  0  0  0  0
   -1.3180    0.3940   -3.1200 S   0  0  0  0  0  0  0  0  0  0  0  0
   -0.9050   -0.1980   -1.4360 C   0  0  0  0  0  0  0  0  0  0  0  0
    0.2770    0.6230   -0.9770 C   0  0  0  0  0  0  0  0  0  0  0  0
    0.7410    0.2520    0.4010 C   0  0  2  0  0  0  0  0  0  0  0  0
    1.1520   -1.1230    0.5080 N   0  0  0  0  0  0  0  0  0  0  0  0
   -0.2160    0.5860    1.4590 C   0  0  0  0  0  0  0  0  0  0  0  0
   -0.5580   -0.2970    2.2830 O   0  0  0  0  0  0  0  0  0  0  0  0
   -2.9830    2.0980   -2.8480 H   0  0  0  0  0  0  0  0  0  0  0  0
   -1.3020    2.6560   -2.3480 H   0  0  0  0  0  0  0  0  0  0  0  0
   -1.6890    2.5300   -4.1020 H   0  0  0  0  0  0  0  0  0  0  0  0
   -1.7620   -0.1510   -0.7630 H   0  0  0  0  0  0  0  0  0  0  0  0
   -0.6410   -1.2690   -1.5560 H   0  0  0  0  0  0  0  0  0  0  0  0
    0.0410    1.6940   -0.9930 H   0  0  0  0  0  0  0  0  0  0  0  0
    1.1080    0.4490   -1.6880 H   0  0  0  0  0  0  0  0  0  0  0  0
    1.6620    0.8770    0.5930 H   0  0  0  0  0  0  0  0  0  0  0  0
    0.4210   -1.8480    0.3520 H   0  0  0  0  0  0  0  0  0  0  0  0
   -0.7390    1.8980    1.5330 N   0  0  0  0  0  0  0  0  0  0  0  0
   -1.6940    2.3050    2.5550 C   0  0  0  0  0  0  0  0  0  0  0  0
   -2.9230    1.4760    2.4490 C   0  0  0  0  0  0  0  0  0  0  0  0
   -3.0400    0.5680    1.5660 O   0  0  0  0  0  0  0  0  0  0  0  0
   -3.9840    1.6540    3.2970 O   0  0  0  0  0  0  0  0  0  0  0  0
   -0.4130    2.5770    0.8180 H   0  0  0  0  0  0  0  0  0  0  0  0
   -1.2730    2.0980    3.5680 H   0  0  0  0  0  0  0  0  0  0  0  0
   -1.9480    3.3640    2.4770 H   0  0  0  0  0  0  0  0  0  0  0  0
  1  8  1  0  0  0  0
  1 10  1  0  0  0  0
  1  9  1  0  0  0  0
  2 11  1  6  0  0  0
  2  1  1  0  0  0  0
  3  2  1  0  0  0  0
  3 12  1  0  0  0  0
  4 13  1  6  0  0  0
  4  5  1  0  0  0  0
  4  2  1  0  0  0  0
  5 15  1  0  0  0  0
  6  4  1  0  0  0  0
  6  7  2  0  0  0  0
 14  5  1  0  0  0  0
 16 24  1  0  0  0  0
 16 25  1  0  0  0  0
 17 16  1  0  0  0  0
 17 18  1  0  0  0  0
 18 19  1  0  0  0  0
 18 27  1  0  0  0  0
 19 20  1  0  0  0  0
 20 21  1  0  0  0  0
 20 31  1  1  0  0  0
 20 22  1  0  0  0  0
 21  6  1  0  0  0  0
 22 33  1  0  0  0  0
 22 23  2  0  0  0  0
 26 16  1  0  0  0  0
 28 18  1  0  0  0  0
 29 19  1  0  0  0  0
 30 19  1  0  0  0  0
 32 21  1  0  0  0  0
 33 34  1  0  0  0  0
 34 39  1  0  0  0  0
 35 34  1  0  0  0  0
 35 37  1  0  0  0  0
 36 35  2  0  0  0  0
 38 33  1  0  0  0  0
 40 34  1  0  0  0  0
M  END
$$$$
