TMH.pdb
 OpenBabel07022419133D

 50 50  0  0  1  0  0  0  0  0999 V2000
    2.0650   -5.5310    0.2070 C   0  0  0  0  0  0  0  0  0  0  0  0
    2.4280   -4.0740    0.3900 C   0  0  1  0  0  0  0  0  0  0  0  0
    3.4070   -3.6360   -0.4690 O   0  0  0  0  0  0  0  0  0  0  0  0
    1.1990   -3.1900    0.4080 C   0  0  2  0  0  0  0  0  0  0  0  0
    0.5560   -3.0770   -0.8630 N   0  0  0  0  0  0  0  0  0  0  0  0
    1.4900   -1.8780    1.0400 C   0  0  0  0  0  0  0  0  0  0  0  0
    2.0530   -1.8650    2.1550 O   0  0  0  0  0  0  0  0  0  0  0  0
    2.8880   -6.0210   -0.3910 H   0  0  0  0  0  0  0  0  0  0  0  0
    1.9570   -6.0490    1.2010 H   0  0  0  0  0  0  0  0  0  0  0  0
    1.1200   -5.6880   -0.3230 H   0  0  0  0  0  0  0  0  0  0  0  0
    2.8630   -3.9990    1.4290 H   0  0  0  0  0  0  0  0  0  0  0  0
    3.1950   -4.0050   -1.3850 H   0  0  0  0  0  0  0  0  0  0  0  0
    0.4790   -3.7030    1.1120 H   0  0  0  0  0  0  0  0  0  0  0  0
    0.6140   -3.9990   -1.3470 H   0  0  0  0  0  0  0  0  0  0  0  0
    0.9960   -2.3800   -1.4990 H   0  0  0  0  0  0  0  0  0  0  0  0
    3.0630    2.0970    3.6740 C   0  0  0  0  0  0  0  0  0  0  0  0
    3.8350    2.7110    2.1830 S   0  0  0  0  0  0  0  0  0  0  0  0
    2.8040    2.7880    0.7360 C   0  0  0  0  0  0  0  0  0  0  0  0
    2.3530    1.4640    0.1980 C   0  0  0  0  0  0  0  0  0  0  0  0
    1.4660    0.6540    1.1010 C   0  0  2  0  0  0  0  0  0  0  0  0
    1.1660   -0.6340    0.4510 N   0  0  0  0  0  0  0  0  0  0  0  0
    0.1530    1.3380    1.3750 C   0  0  0  0  0  0  0  0  0  0  0  0
    0.0710    2.4540    1.9070 O   0  0  0  0  0  0  0  0  0  0  0  0
    3.4750    2.6560    4.5820 H   0  0  0  0  0  0  0  0  0  0  0  0
    3.3610    1.0440    3.8910 H   0  0  0  0  0  0  0  0  0  0  0  0
    1.9750    2.2240    3.7400 H   0  0  0  0  0  0  0  0  0  0  0  0
    3.2930    3.4030   -0.0720 H   0  0  0  0  0  0  0  0  0  0  0  0
    1.8950    3.4060    0.9960 H   0  0  0  0  0  0  0  0  0  0  0  0
    1.8150    1.6440   -0.7820 H   0  0  0  0  0  0  0  0  0  0  0  0
    3.2590    0.8770   -0.0940 H   0  0  0  0  0  0  0  0  0  0  0  0
    1.9600    0.5170    2.0620 H   0  0  0  0  0  0  0  0  0  0  0  0
    0.6990   -0.6410   -0.4760 H   0  0  0  0  0  0  0  0  0  0  0  0
   -1.0890    0.6960    1.0170 N   0  0  0  0  0  0  0  0  0  0  0  0
   -2.3620    1.3400    1.2740 C   0  0  1  0  0  0  0  0  0  0  0  0
   -3.1700    1.4980    0.0000 C   0  0  0  0  0  0  0  0  0  0  0  0
   -3.4640    0.2090   -0.6370 C   0  0  0  0  0  0  0  0  0  0  0  0
   -4.5770   -0.5730   -0.3910 C   0  0  0  0  0  0  0  0  0  0  0  0
   -4.4610   -1.6460   -1.1660 N   0  0  0  0  0  0  0  0  0  0  0  0
   -3.3180   -1.5590   -1.8840 C   0  0  0  0  0  0  0  0  0  0  0  0
   -2.7010   -0.4110   -1.5570 N   0  0  0  0  0  0  0  0  0  0  0  0
   -3.1400    0.4700    2.1860 C   0  0  0  0  0  0  0  0  0  0  0  0
   -4.3040    0.8170    2.5670 O   0  0  0  0  0  0  0  0  0  0  0  0
   -2.6010   -0.7200    2.6240 O   0  0  0  0  0  0  0  0  0  0  0  0
   -0.9980   -0.2370    0.5740 H   0  0  0  0  0  0  0  0  0  0  0  0
   -2.1570    2.3100    1.7480 H   0  0  0  0  0  0  0  0  0  0  0  0
   -2.6380    2.1980   -0.6810 H   0  0  0  0  0  0  0  0  0  0  0  0
   -4.1250    1.9920    0.2930 H   0  0  0  0  0  0  0  0  0  0  0  0
   -5.3630   -0.3330    0.2970 H   0  0  0  0  0  0  0  0  0  0  0  0
   -5.1250   -2.4530   -1.2390 H   0  0  0  0  0  0  0  0  0  0  0  0
   -2.9350   -2.2640   -2.6020 H   0  0  0  0  0  0  0  0  0  0  0  0
  1  2  1  0  0  0  0
  1  9  1  0  0  0  0
  2  4  1  0  0  0  0
  2 11  1  1  0  0  0
  3  2  1  0  0  0  0
  4  6  1  0  0  0  0
  4 13  1  1  0  0  0
  5  4  1  0  0  0  0
  6  7  2  0  0  0  0
  8  1  1  0  0  0  0
 10  1  1  0  0  0  0
 12  3  1  0  0  0  0
 14  5  1  0  0  0  0
 15  5  1  0  0  0  0
 16 26  1  0  0  0  0
 16 25  1  0  0  0  0
 16 24  1  0  0  0  0
 17 16  1  0  0  0  0
 18 28  1  0  0  0  0
 18 17  1  0  0  0  0
 19 18  1  0  0  0  0
 19 20  1  0  0  0  0
 20 22  1  0  0  0  0
 20 31  1  1  0  0  0
 21  6  1  0  0  0  0
 21 20  1  0  0  0  0
 22 23  2  0  0  0  0
 27 18  1  0  0  0  0
 29 19  1  0  0  0  0
 30 19  1  0  0  0  0
 32 21  1  0  0  0  0
 33 34  1  0  0  0  0
 33 22  1  0  0  0  0
 34 45  1  1  0  0  0
 34 41  1  0  0  0  0
 35 47  1  0  0  0  0
 35 34  1  0  0  0  0
 36 37  2  0  0  0  0
 36 35  1  0  0  0  0
 37 48  1  0  0  0  0
 38 37  1  0  0  0  0
 39 40  2  0  0  0  0
 39 38  1  0  0  0  0
 40 36  1  0  0  0  0
 41 42  2  0  0  0  0
 41 43  1  0  0  0  0
 44 33  1  0  0  0  0
 46 35  1  0  0  0  0
 49 38  1  0  0  0  0
 50 39  1  0  0  0  0
M  END
$$$$
