TMI.pdb
 OpenBabel07022419133D

 52 51  0  0  1  0  0  0  0  0999 V2000
    1.1480   -4.6210    2.6040 C   0  0  0  0  0  0  0  0  0  0  0  0
    2.5460   -4.0960    2.8450 C   0  0  1  0  0  0  0  0  0  0  0  0
    3.3730   -4.2900    1.7390 O   0  0  0  0  0  0  0  0  0  0  0  0
    2.5450   -2.6700    3.3310 C   0  0  2  0  0  0  0  0  0  0  0  0
    1.6750   -2.5770    4.4590 N   0  0  0  0  0  0  0  0  0  0  0  0
    2.1350   -1.7160    2.2580 C   0  0  0  0  0  0  0  0  0  0  0  0
    2.7660   -1.6290    1.1830 O   0  0  0  0  0  0  0  0  0  0  0  0
    0.6460   -4.9580    3.5290 H   0  0  0  0  0  0  0  0  0  0  0  0
    1.2400   -5.4990    1.9330 H   0  0  0  0  0  0  0  0  0  0  0  0
    0.4870   -3.8830    2.1100 H   0  0  0  0  0  0  0  0  0  0  0  0
    2.9740   -4.7140    3.6640 H   0  0  0  0  0  0  0  0  0  0  0  0
    3.7350   -5.2170    1.7080 H   0  0  0  0  0  0  0  0  0  0  0  0
    3.5610   -2.4090    3.6500 H   0  0  0  0  0  0  0  0  0  0  0  0
    1.7220   -1.6390    4.9050 H   0  0  0  0  0  0  0  0  0  0  0  0
    0.6890   -2.8450    4.2930 H   0  0  0  0  0  0  0  0  0  0  0  0
    3.2750    3.2680   -0.7940 C   0  0  0  0  0  0  0  0  0  0  0  0
    3.8820    1.9340    0.2640 S   0  0  0  0  0  0  0  0  0  0  0  0
    2.5840    1.2970    1.3570 C   0  0  0  0  0  0  0  0  0  0  0  0
    1.4860    0.6120    0.5820 C   0  0  0  0  0  0  0  0  0  0  0  0
    0.4760    0.0790    1.5870 C   0  0  2  0  0  0  0  0  0  0  0  0
    1.0120   -0.9090    2.4850 N   0  0  0  0  0  0  0  0  0  0  0  0
   -0.8330   -0.2330    1.0420 C   0  0  0  0  0  0  0  0  0  0  0  0
   -1.3340   -1.3630    1.3870 O   0  0  0  0  0  0  0  0  0  0  0  0
    2.1920    3.2230   -0.9260 H   0  0  0  0  0  0  0  0  0  0  0  0
    3.5230    4.2800   -0.3920 H   0  0  0  0  0  0  0  0  0  0  0  0
    3.7590    3.1350   -1.7990 H   0  0  0  0  0  0  0  0  0  0  0  0
    3.0040    0.7150    2.1680 H   0  0  0  0  0  0  0  0  0  0  0  0
    2.1690    2.2280    1.8640 H   0  0  0  0  0  0  0  0  0  0  0  0
    0.9410    1.3970   -0.0130 H   0  0  0  0  0  0  0  0  0  0  0  0
    1.8240   -0.1260   -0.1300 H   0  0  0  0  0  0  0  0  0  0  0  0
    0.3420    1.0430    2.2350 H   0  0  0  0  0  0  0  0  0  0  0  0
    0.4820   -1.0290    3.4270 H   0  0  0  0  0  0  0  0  0  0  0  0
   -2.3710    0.8140   -3.2790 C   0  0  0  0  0  0  0  0  0  0  0  0
   -1.9010   -0.4150   -2.5500 C   0  0  0  0  0  0  0  0  0  0  0  0
   -2.8000   -0.7310   -1.3610 C   0  0  2  0  0  0  0  0  0  0  0  0
   -4.2150   -0.9720   -1.8460 C   0  0  0  0  0  0  0  0  0  0  0  0
   -2.8060    0.3620   -0.3550 C   0  0  2  0  0  0  0  0  0  0  0  0
   -1.5050    0.6510    0.1900 N   0  0  0  0  0  0  0  0  0  0  0  0
   -3.7680   -0.0000    0.7480 C   0  0  0  0  0  0  0  0  0  0  0  0
   -3.4090    0.0150    1.9620 O   0  0  0  0  0  0  0  0  0  0  0  0
   -5.0610   -0.3590    0.4970 O   0  0  0  0  0  0  0  0  0  0  0  0
   -1.8260    1.7270   -2.9850 H   0  0  0  0  0  0  0  0  0  0  0  0
   -2.3050    0.7300   -4.3760 H   0  0  0  0  0  0  0  0  0  0  0  0
   -3.4350    0.9800   -2.9780 H   0  0  0  0  0  0  0  0  0  0  0  0
   -0.8660   -0.3700   -2.2180 H   0  0  0  0  0  0  0  0  0  0  0  0
   -2.0070   -1.2720   -3.2480 H   0  0  0  0  0  0  0  0  0  0  0  0
   -2.4250   -1.6720   -0.9190 H   0  0  0  0  0  0  0  0  0  0  0  0
   -4.8540   -0.0700   -1.7850 H   0  0  0  0  0  0  0  0  0  0  0  0
   -4.7290   -1.7810   -1.2920 H   0  0  0  0  0  0  0  0  0  0  0  0
   -4.2170   -1.3180   -2.9130 H   0  0  0  0  0  0  0  0  0  0  0  0
   -3.2600    1.3130   -0.7790 H   0  0  0  0  0  0  0  0  0  0  0  0
   -1.0550    1.5540   -0.0590 H   0  0  0  0  0  0  0  0  0  0  0  0
  1  2  1  0  0  0  0
  1  8  1  0  0  0  0
  2  4  1  0  0  0  0
  2 11  1  1  0  0  0
  3  2  1  0  0  0  0
  4 13  1  1  0  0  0
  4  5  1  0  0  0  0
  5 14  1  0  0  0  0
  6 21  1  0  0  0  0
  6  4  1  0  0  0  0
  7  6  2  0  0  0  0
  9  1  1  0  0  0  0
 10  1  1  0  0  0  0
 12  3  1  0  0  0  0
 15  5  1  0  0  0  0
 16 25  1  0  0  0  0
 16 17  1  0  0  0  0
 17 18  1  0  0  0  0
 18 28  1  0  0  0  0
 18 27  1  0  0  0  0
 19 18  1  0  0  0  0
 19 20  1  0  0  0  0
 20 31  1  1  0  0  0
 20 21  1  0  0  0  0
 21 32  1  0  0  0  0
 22 23  2  0  0  0  0
 22 20  1  0  0  0  0
 24 16  1  0  0  0  0
 26 16  1  0  0  0  0
 29 19  1  0  0  0  0
 30 19  1  0  0  0  0
 33 42  1  0  0  0  0
 33 44  1  0  0  0  0
 33 34  1  0  0  0  0
 34 45  1  0  0  0  0
 34 35  1  0  0  0  0
 35 47  1  1  0  0  0
 35 37  1  0  0  0  0
 36 48  1  0  0  0  0
 36 35  1  0  0  0  0
 36 49  1  0  0  0  0
 37 51  1  6  0  0  0
 37 38  1  0  0  0  0
 37 39  1  0  0  0  0
 38 22  1  0  0  0  0
 39 40  1  0  0  0  0
 41 39  2  0  0  0  0
 43 33  1  0  0  0  0
 46 34  1  0  0  0  0
 50 36  1  0  0  0  0
 52 38  1  0  0  0  0
M  END
$$$$
