TMK.pdb
 OpenBabel07022419133D

 54 53  0  0  1  0  0  0  0  0999 V2000
    3.9480   -3.8420    2.8090 C   0  0  0  0  0  0  0  0  0  0  0  0
    3.8870   -3.6110    1.3090 C   0  0  1  0  0  0  0  0  0  0  0  0
    4.2750   -4.7750    0.6250 O   0  0  0  0  0  0  0  0  0  0  0  0
    2.4340   -3.3700    0.9630 C   0  0  2  0  0  0  0  0  0  0  0  0
    2.3330   -3.2040   -0.4540 N   0  0  0  0  0  0  0  0  0  0  0  0
    1.9470   -2.1780    1.7080 C   0  0  0  0  0  0  0  0  0  0  0  0
    1.9860   -2.1540    2.9630 O   0  0  0  0  0  0  0  0  0  0  0  0
    4.7720   -4.5950    2.9650 H   0  0  0  0  0  0  0  0  0  0  0  0
    4.1870   -2.8700    3.2870 H   0  0  0  0  0  0  0  0  0  0  0  0
    2.9930   -4.2480    3.1700 H   0  0  0  0  0  0  0  0  0  0  0  0
    4.4680   -2.7340    0.9880 H   0  0  0  0  0  0  0  0  0  0  0  0
    3.7900   -4.8590   -0.2300 H   0  0  0  0  0  0  0  0  0  0  0  0
    1.8500   -4.2930    1.2510 H   0  0  0  0  0  0  0  0  0  0  0  0
    2.0860   -4.0380   -0.9920 H   0  0  0  0  0  0  0  0  0  0  0  0
    3.0640   -2.5950   -0.8640 H   0  0  0  0  0  0  0  0  0  0  0  0
    3.9690    2.5250   -0.8200 C   0  0  0  0  0  0  0  0  0  0  0  0
    4.1490    2.4730    0.9980 S   0  0  0  0  0  0  0  0  0  0  0  0
    3.2050    1.0400    1.5820 C   0  0  0  0  0  0  0  0  0  0  0  0
    1.7390    1.3060    1.3130 C   0  0  0  0  0  0  0  0  0  0  0  0
    0.9530    0.1230    1.7930 C   0  0  2  0  0  0  0  0  0  0  0  0
    1.4240   -1.0330    1.0480 N   0  0  0  0  0  0  0  0  0  0  0  0
   -0.5100    0.3330    1.5300 C   0  0  0  0  0  0  0  0  0  0  0  0
   -1.1150    1.2790    2.0880 O   0  0  0  0  0  0  0  0  0  0  0  0
    2.9820    2.9520   -1.0690 H   0  0  0  0  0  0  0  0  0  0  0  0
    4.8130    3.0580   -1.2960 H   0  0  0  0  0  0  0  0  0  0  0  0
    3.9890    1.4700   -1.1860 H   0  0  0  0  0  0  0  0  0  0  0  0
    3.3710    0.8270    2.6400 H   0  0  0  0  0  0  0  0  0  0  0  0
    3.4960    0.1680    0.9340 H   0  0  0  0  0  0  0  0  0  0  0  0
    1.4440    2.2340    1.8500 H   0  0  0  0  0  0  0  0  0  0  0  0
    1.5830    1.4510    0.2180 H   0  0  0  0  0  0  0  0  0  0  0  0
    1.0950   -0.0470    2.8630 H   0  0  0  0  0  0  0  0  0  0  0  0
    1.3710   -1.0050    0.0250 H   0  0  0  0  0  0  0  0  0  0  0  0
   -1.1860   -0.5370    0.6590 N   0  0  0  0  0  0  0  0  0  0  0  0
   -2.6380   -0.3840    0.3570 C   0  0  1  0  0  0  0  0  0  0  0  0
   -2.7170   -0.2990   -1.1220 C   0  0  0  0  0  0  0  0  0  0  0  0
   -4.0260   -0.0980   -1.7700 C   0  0  0  0  0  0  0  0  0  0  0  0
   -4.7640    1.1520   -1.5770 C   0  0  0  0  0  0  0  0  0  0  0  0
   -5.2140    1.6080   -0.2560 C   0  0  0  0  0  0  0  0  0  0  0  0
   -6.1220    0.7280    0.4470 N   0  0  0  0  0  0  0  0  0  0  0  0
   -3.3040   -1.6160    0.8880 C   0  0  0  0  0  0  0  0  0  0  0  0
   -4.5190   -1.8370    0.7660 O   0  0  0  0  0  0  0  0  0  0  0  0
   -2.5380   -2.5590    1.5480 O   0  0  0  0  0  0  0  0  0  0  0  0
   -0.7190   -1.3240    0.1840 H   0  0  0  0  0  0  0  0  0  0  0  0
   -2.9540    0.4550    0.9490 H   0  0  0  0  0  0  0  0  0  0  0  0
   -2.2060   -1.2430   -1.5110 H   0  0  0  0  0  0  0  0  0  0  0  0
   -1.9780    0.4990   -1.4500 H   0  0  0  0  0  0  0  0  0  0  0  0
   -4.6900   -1.0140   -1.6170 H   0  0  0  0  0  0  0  0  0  0  0  0
   -3.8290   -0.1770   -2.8970 H   0  0  0  0  0  0  0  0  0  0  0  0
   -4.1880    1.9700   -2.1040 H   0  0  0  0  0  0  0  0  0  0  0  0
   -5.7100    1.0630   -2.2210 H   0  0  0  0  0  0  0  0  0  0  0  0
   -4.4590    2.0670    0.4080 H   0  0  0  0  0  0  0  0  0  0  0  0
   -5.8910    2.5260   -0.4800 H   0  0  0  0  0  0  0  0  0  0  0  0
   -6.8570    0.4060   -0.2030 H   0  0  0  0  0  0  0  0  0  0  0  0
   -6.6080    1.3180    1.1810 H   0  0  0  0  0  0  0  0  0  0  0  0
  1  8  1  0  0  0  0
  1 10  1  0  0  0  0
  1  9  1  0  0  0  0
  2 11  1  6  0  0  0
  2  1  1  0  0  0  0
  3  2  1  0  0  0  0
  4 13  1  1  0  0  0
  4  2  1  0  0  0  0
  4  6  1  0  0  0  0
  5  4  1  0  0  0  0
  6  7  2  0  0  0  0
 12  3  1  0  0  0  0
 14  5  1  0  0  0  0
 15  5  1  0  0  0  0
 16 17  1  0  0  0  0
 17 18  1  0  0  0  0
 18 27  1  0  0  0  0
 19 18  1  0  0  0  0
 19 20  1  0  0  0  0
 19 29  1  0  0  0  0
 20 31  1  1  0  0  0
 21  6  1  0  0  0  0
 21 20  1  0  0  0  0
 22 20  1  0  0  0  0
 22 23  2  0  0  0  0
 24 16  1  0  0  0  0
 25 16  1  0  0  0  0
 26 16  1  0  0  0  0
 28 18  1  0  0  0  0
 30 19  1  0  0  0  0
 32 21  1  0  0  0  0
 33 22  1  0  0  0  0
 34 33  1  0  0  0  0
 34 40  1  0  0  0  0
 34 44  1  1  0  0  0
 35 34  1  0  0  0  0
 36 47  1  0  0  0  0
 36 37  1  0  0  0  0
 36 35  1  0  0  0  0
 37 38  1  0  0  0  0
 38 51  1  0  0  0  0
 38 39  1  0  0  0  0
 39 54  1  0  0  0  0
 40 42  1  0  0  0  0
 41 40  2  0  0  0  0
 43 33  1  0  0  0  0
 45 35  1  0  0  0  0
 46 35  1  0  0  0  0
 48 36  1  0  0  0  0
 49 37  1  0  0  0  0
 50 37  1  0  0  0  0
 52 38  1  0  0  0  0
 53 39  1  0  0  0  0
M  END
$$$$
