TML.pdb
 OpenBabel07022419133D

 52 51  0  0  1  0  0  0  0  0999 V2000
    0.0810   -3.5940    4.3810 C   0  0  0  0  0  0  0  0  0  0  0  0
    1.4930   -3.2310    4.7460 C   0  0  1  0  0  0  0  0  0  0  0  0
    2.4040   -4.1260    4.1600 O   0  0  0  0  0  0  0  0  0  0  0  0
    1.8390   -1.8080    4.4250 C   0  0  2  0  0  0  0  0  0  0  0  0
    0.8850   -0.9340    5.0430 N   0  0  0  0  0  0  0  0  0  0  0  0
    1.8410   -1.6280    2.9140 C   0  0  0  0  0  0  0  0  0  0  0  0
    2.6250   -2.3220    2.2330 O   0  0  0  0  0  0  0  0  0  0  0  0
   -0.4140   -2.8360    3.7410 H   0  0  0  0  0  0  0  0  0  0  0  0
    0.1030   -4.5360    3.7970 H   0  0  0  0  0  0  0  0  0  0  0  0
   -0.5500   -3.8040    5.2830 H   0  0  0  0  0  0  0  0  0  0  0  0
    1.5960   -3.3630    5.8440 H   0  0  0  0  0  0  0  0  0  0  0  0
    2.0930   -5.0270    4.4190 H   0  0  0  0  0  0  0  0  0  0  0  0
    2.8750   -1.6250    4.7590 H   0  0  0  0  0  0  0  0  0  0  0  0
    1.0370    0.0690    4.8960 H   0  0  0  0  0  0  0  0  0  0  0  0
   -0.0800   -1.2740    5.0270 H   0  0  0  0  0  0  0  0  0  0  0  0
    2.8560    2.2690   -1.4860 C   0  0  0  0  0  0  0  0  0  0  0  0
    3.1220    1.7940    0.2280 S   0  0  0  0  0  0  0  0  0  0  0  0
    3.3320   -0.0040    0.4090 C   0  0  0  0  0  0  0  0  0  0  0  0
    2.0900   -0.7480    0.0730 C   0  0  0  0  0  0  0  0  0  0  0  0
    0.8900   -0.4210    0.9240 C   0  0  2  0  0  0  0  0  0  0  0  0
    0.9780   -0.7020    2.3060 N   0  0  0  0  0  0  0  0  0  0  0  0
   -0.3330   -0.8590    0.2680 C   0  0  0  0  0  0  0  0  0  0  0  0
   -1.1670   -1.4940    1.0200 O   0  0  0  0  0  0  0  0  0  0  0  0
    3.1280    1.4810   -2.2050 H   0  0  0  0  0  0  0  0  0  0  0  0
    1.8140    2.6480   -1.6240 H   0  0  0  0  0  0  0  0  0  0  0  0
    3.5170    3.1390   -1.7040 H   0  0  0  0  0  0  0  0  0  0  0  0
    4.0990   -0.2840   -0.3720 H   0  0  0  0  0  0  0  0  0  0  0  0
    3.8000   -0.2170    1.3650 H   0  0  0  0  0  0  0  0  0  0  0  0
    1.7940   -0.4030   -0.9710 H   0  0  0  0  0  0  0  0  0  0  0  0
    2.2420   -1.8360    0.0600 H   0  0  0  0  0  0  0  0  0  0  0  0
    0.9100    0.7460    0.8710 H   0  0  0  0  0  0  0  0  0  0  0  0
    0.3350   -0.1710    2.9980 H   0  0  0  0  0  0  0  0  0  0  0  0
   -3.7450    2.2210   -2.0820 C   0  0  0  0  0  0  0  0  0  0  0  0
   -3.0000    1.0940   -1.3520 C   0  0  0  0  0  0  0  0  0  0  0  0
   -3.9290    0.6040   -0.2580 C   0  0  0  0  0  0  0  0  0  0  0  0
   -2.6850   -0.0080   -2.3180 C   0  0  0  0  0  0  0  0  0  0  0  0
   -1.9450   -1.1400   -1.6450 C   0  0  2  0  0  0  0  0  0  0  0  0
   -0.6880   -0.6570   -1.0890 N   0  0  0  0  0  0  0  0  0  0  0  0
   -1.6980   -2.1610   -2.7050 C   0  0  0  0  0  0  0  0  0  0  0  0
   -2.6960   -2.6690   -3.2760 O   0  0  0  0  0  0  0  0  0  0  0  0
   -0.4490   -2.5780   -3.0920 O   0  0  0  0  0  0  0  0  0  0  0  0
   -3.6130    3.1760   -1.5380 H   0  0  0  0  0  0  0  0  0  0  0  0
   -3.2980    2.3660   -3.0930 H   0  0  0  0  0  0  0  0  0  0  0  0
   -4.8060    1.9720   -2.1350 H   0  0  0  0  0  0  0  0  0  0  0  0
   -2.0660    1.5020   -0.9360 H   0  0  0  0  0  0  0  0  0  0  0  0
   -3.4940   -0.2430    0.3040 H   0  0  0  0  0  0  0  0  0  0  0  0
   -4.8780    0.3080   -0.7830 H   0  0  0  0  0  0  0  0  0  0  0  0
   -4.2070    1.4680    0.3910 H   0  0  0  0  0  0  0  0  0  0  0  0
   -3.5520   -0.3750   -2.8710 H   0  0  0  0  0  0  0  0  0  0  0  0
   -1.9580    0.4180   -3.0710 H   0  0  0  0  0  0  0  0  0  0  0  0
   -2.5670   -1.6220   -0.8750 H   0  0  0  0  0  0  0  0  0  0  0  0
   -0.0280   -0.1430   -1.7020 H   0  0  0  0  0  0  0  0  0  0  0  0
  1  2  1  0  0  0  0
  1 10  1  0  0  0  0
  2 11  1  1  0  0  0
  3 12  1  0  0  0  0
  3  2  1  0  0  0  0
  4  2  1  0  0  0  0
  4 13  1  1  0  0  0
  4  5  1  0  0  0  0
  6  4  1  0  0  0  0
  7  6  2  0  0  0  0
  8  1  1  0  0  0  0
  9  1  1  0  0  0  0
 14  5  1  0  0  0  0
 15  5  1  0  0  0  0
 16 17  1  0  0  0  0
 17 18  1  0  0  0  0
 18 28  1  0  0  0  0
 19 18  1  0  0  0  0
 19 20  1  0  0  0  0
 20 31  1  6  0  0  0
 20 21  1  0  0  0  0
 21  6  1  0  0  0  0
 21 32  1  0  0  0  0
 22 20  1  0  0  0  0
 22 23  2  0  0  0  0
 24 16  1  0  0  0  0
 25 16  1  0  0  0  0
 26 16  1  0  0  0  0
 27 18  1  0  0  0  0
 29 19  1  0  0  0  0
 30 19  1  0  0  0  0
 33 42  1  0  0  0  0
 33 34  1  0  0  0  0
 34 45  1  0  0  0  0
 34 35  1  0  0  0  0
 35 46  1  0  0  0  0
 35 48  1  0  0  0  0
 36 37  1  0  0  0  0
 36 34  1  0  0  0  0
 37 38  1  0  0  0  0
 37 51  1  1  0  0  0
 38 22  1  0  0  0  0
 39 37  1  0  0  0  0
 40 39  2  0  0  0  0
 41 39  1  0  0  0  0
 43 33  1  0  0  0  0
 44 33  1  0  0  0  0
 47 35  1  0  0  0  0
 49 36  1  0  0  0  0
 50 36  1  0  0  0  0
 52 38  1  0  0  0  0
M  END
$$$$
