TMN.pdb
 OpenBabel07022419133D

 47 46  0  0  1  0  0  0  0  0999 V2000
   -1.3520   -4.0850    3.4960 C   0  0  0  0  0  0  0  0  0  0  0  0
   -0.5090   -3.2790    4.4260 C   0  0  1  0  0  0  0  0  0  0  0  0
   -0.2280   -4.0260    5.5690 O   0  0  0  0  0  0  0  0  0  0  0  0
    0.7950   -2.8180    3.8340 C   0  0  2  0  0  0  0  0  0  0  0  0
    1.4610   -2.0100    4.8350 N   0  0  0  0  0  0  0  0  0  0  0  0
    0.6340   -2.0590    2.5880 C   0  0  0  0  0  0  0  0  0  0  0  0
    0.0820   -2.6080    1.6060 O   0  0  0  0  0  0  0  0  0  0  0  0
   -1.8880   -4.9020    4.0590 H   0  0  0  0  0  0  0  0  0  0  0  0
   -0.7300   -4.5970    2.7250 H   0  0  0  0  0  0  0  0  0  0  0  0
   -2.1180   -3.4850    2.9600 H   0  0  0  0  0  0  0  0  0  0  0  0
   -1.0870   -2.3790    4.7730 H   0  0  0  0  0  0  0  0  0  0  0  0
    0.0880   -4.9230    5.2320 H   0  0  0  0  0  0  0  0  0  0  0  0
    1.4220   -3.7320    3.6910 H   0  0  0  0  0  0  0  0  0  0  0  0
    2.3440   -1.5920    4.5030 H   0  0  0  0  0  0  0  0  0  0  0  0
    0.8390   -1.2980    5.2650 H   0  0  0  0  0  0  0  0  0  0  0  0
    3.9120   -0.2880   -2.5750 C   0  0  0  0  0  0  0  0  0  0  0  0
    4.0310   -1.3450   -1.1090 S   0  0  0  0  0  0  0  0  0  0  0  0
    3.1540   -0.6230    0.3060 C   0  0  0  0  0  0  0  0  0  0  0  0
    1.6580   -0.5750    0.0540 C   0  0  0  0  0  0  0  0  0  0  0  0
    0.9040    0.0120    1.1960 C   0  0  2  0  0  0  0  0  0  0  0  0
    1.0730   -0.7210    2.4310 N   0  0  0  0  0  0  0  0  0  0  0  0
   -0.5620    0.0410    0.8430 C   0  0  0  0  0  0  0  0  0  0  0  0
   -1.4350   -0.4970    1.5720 O   0  0  0  0  0  0  0  0  0  0  0  0
    4.9030   -0.1760   -3.0270 H   0  0  0  0  0  0  0  0  0  0  0  0
    3.2280   -0.7040   -3.3380 H   0  0  0  0  0  0  0  0  0  0  0  0
    3.5440    0.7150   -2.2150 H   0  0  0  0  0  0  0  0  0  0  0  0
    3.3860   -1.2660    1.1850 H   0  0  0  0  0  0  0  0  0  0  0  0
    3.5630    0.3900    0.5320 H   0  0  0  0  0  0  0  0  0  0  0  0
    1.5290    0.0840   -0.8280 H   0  0  0  0  0  0  0  0  0  0  0  0
    1.3440   -1.6210   -0.1630 H   0  0  0  0  0  0  0  0  0  0  0  0
    1.2070    1.0760    1.3310 H   0  0  0  0  0  0  0  0  0  0  0  0
    1.5500   -0.2110    3.2360 H   0  0  0  0  0  0  0  0  0  0  0  0
   -2.3160    4.3780   -2.0470 N   0  0  0  0  0  0  0  0  0  0  0  0
   -2.0850    3.0050   -1.8200 C   0  0  0  0  0  0  0  0  0  0  0  0
   -1.1860    2.4550   -2.4960 O   0  0  0  0  0  0  0  0  0  0  0  0
   -2.8370    2.1980   -0.8430 C   0  0  0  0  0  0  0  0  0  0  0  0
   -2.3410    0.7750   -0.7670 C   0  0  2  0  0  0  0  0  0  0  0  0
   -0.9660    0.7050   -0.3630 N   0  0  0  0  0  0  0  0  0  0  0  0
   -2.5770    0.1310   -2.0840 C   0  0  0  0  0  0  0  0  0  0  0  0
   -3.7380    0.1280   -2.5460 O   0  0  0  0  0  0  0  0  0  0  0  0
   -1.5540   -0.4540   -2.7990 O   0  0  0  0  0  0  0  0  0  0  0  0
   -2.4910    5.0770   -1.2830 H   0  0  0  0  0  0  0  0  0  0  0  0
   -2.3270    4.7950   -3.0220 H   0  0  0  0  0  0  0  0  0  0  0  0
   -2.6890    2.6370    0.1810 H   0  0  0  0  0  0  0  0  0  0  0  0
   -3.9290    2.1830   -1.0530 H   0  0  0  0  0  0  0  0  0  0  0  0
   -3.0120    0.2360   -0.0410 H   0  0  0  0  0  0  0  0  0  0  0  0
   -0.2080    1.1280   -0.9220 H   0  0  0  0  0  0  0  0  0  0  0  0
  1  8  1  0  0  0  0
  1  2  1  0  0  0  0
  2 11  1  1  0  0  0
  2  3  1  0  0  0  0
  4 13  1  6  0  0  0
  4  2  1  0  0  0  0
  4  5  1  0  0  0  0
  5 15  1  0  0  0  0
  6  4  1  0  0  0  0
  7  6  2  0  0  0  0
  9  1  1  0  0  0  0
 10  1  1  0  0  0  0
 12  3  1  0  0  0  0
 14  5  1  0  0  0  0
 16 26  1  0  0  0  0
 16 17  1  0  0  0  0
 17 18  1  0  0  0  0
 18 28  1  0  0  0  0
 18 27  1  0  0  0  0
 19 18  1  0  0  0  0
 19 20  1  0  0  0  0
 20 31  1  1  0  0  0
 20 21  1  0  0  0  0
 21  6  1  0  0  0  0
 21 32  1  0  0  0  0
 22 20  1  0  0  0  0
 22 23  2  0  0  0  0
 24 16  1  0  0  0  0
 25 16  1  0  0  0  0
 29 19  1  0  0  0  0
 30 19  1  0  0  0  0
 33 34  1  0  0  0  0
 33 42  1  0  0  0  0
 34 36  1  0  0  0  0
 35 34  2  0  0  0  0
 36 37  1  0  0  0  0
 36 44  1  0  0  0  0
 37 38  1  0  0  0  0
 37 46  1  1  0  0  0
 38 22  1  0  0  0  0
 39 37  1  0  0  0  0
 40 39  1  0  0  0  0
 41 39  2  0  0  0  0
 43 33  1  0  0  0  0
 45 36  1  0  0  0  0
 47 38  1  0  0  0  0
M  END
$$$$
