TMP.pdb
 OpenBabel07022419133D

 47 47  0  0  1  0  0  0  0  0999 V2000
    2.9080   -3.8940    3.0490 C   0  0  0  0  0  0  0  0  0  0  0  0
    2.9950   -3.7320    1.5320 C   0  0  1  0  0  0  0  0  0  0  0  0
    3.4180   -4.9540    1.0150 O   0  0  0  0  0  0  0  0  0  0  0  0
    1.6370   -3.3380    0.9760 C   0  0  2  0  0  0  0  0  0  0  0  0
    1.7450   -3.2320   -0.4630 N   0  0  0  0  0  0  0  0  0  0  0  0
    1.1410   -2.1260    1.6270 C   0  0  0  0  0  0  0  0  0  0  0  0
    1.0020   -2.1360    2.8770 O   0  0  0  0  0  0  0  0  0  0  0  0
    3.6540   -4.6630    3.3520 H   0  0  0  0  0  0  0  0  0  0  0  0
    3.1000   -2.9200    3.5470 H   0  0  0  0  0  0  0  0  0  0  0  0
    1.9000   -4.2420    3.3320 H   0  0  0  0  0  0  0  0  0  0  0  0
    3.7220   -2.9300    1.3400 H   0  0  0  0  0  0  0  0  0  0  0  0
    4.0200   -5.3500    1.6830 H   0  0  0  0  0  0  0  0  0  0  0  0
    0.9640   -4.2130    1.1720 H   0  0  0  0  0  0  0  0  0  0  0  0
    2.4890   -2.5640   -0.7550 H   0  0  0  0  0  0  0  0  0  0  0  0
    0.8550   -2.9570   -0.9000 H   0  0  0  0  0  0  0  0  0  0  0  0
    1.8520    4.6110    0.5390 C   0  0  0  0  0  0  0  0  0  0  0  0
    2.6300    3.1590   -0.1860 S   0  0  0  0  0  0  0  0  0  0  0  0
    1.4860    1.7510   -0.1170 C   0  0  0  0  0  0  0  0  0  0  0  0
    1.2870    1.4070    1.3410 C   0  0  0  0  0  0  0  0  0  0  0  0
    0.3340    0.2250    1.5000 C   0  0  2  0  0  0  0  0  0  0  0  0
    0.8160   -0.9440    0.8550 N   0  0  0  0  0  0  0  0  0  0  0  0
   -1.0210    0.6900    1.1660 C   0  0  0  0  0  0  0  0  0  0  0  0
   -1.3770    1.7550    1.8190 O   0  0  0  0  0  0  0  0  0  0  0  0
    2.0390    5.4900   -0.1280 H   0  0  0  0  0  0  0  0  0  0  0  0
    0.7520    4.4530    0.6170 H   0  0  0  0  0  0  0  0  0  0  0  0
    2.3060    4.8300    1.5200 H   0  0  0  0  0  0  0  0  0  0  0  0
    1.9570    0.9190   -0.6700 H   0  0  0  0  0  0  0  0  0  0  0  0
    0.5040    1.9970   -0.6090 H   0  0  0  0  0  0  0  0  0  0  0  0
    0.8530    2.2890    1.8480 H   0  0  0  0  0  0  0  0  0  0  0  0
    2.2760    1.2250    1.7840 H   0  0  0  0  0  0  0  0  0  0  0  0
    0.3910    0.0120    2.6230 H   0  0  0  0  0  0  0  0  0  0  0  0
    0.9970   -1.0660   -0.1650 H   0  0  0  0  0  0  0  0  0  0  0  0
   -1.9160    0.1130    0.2530 N   0  0  0  0  0  0  0  0  0  0  0  0
   -1.5760   -1.0590   -0.5650 C   0  0  0  0  0  0  0  0  0  0  0  0
   -2.8650   -1.5310   -1.2180 C   0  0  0  0  0  0  0  0  0  0  0  0
   -3.8730   -0.9660   -0.2550 C   0  0  0  0  0  0  0  0  0  0  0  0
   -3.2550    0.4500   -0.1070 C   0  0  1  0  0  0  0  0  0  0  0  0
   -4.0860    1.1670    0.8250 C   0  0  0  0  0  0  0  0  0  0  0  0
   -3.8510    1.4550    2.0050 O   0  0  0  0  0  0  0  0  0  0  0  0
   -5.3380    1.6090    0.3470 O   0  0  0  0  0  0  0  0  0  0  0  0
   -0.9070   -0.7650   -1.4020 H   0  0  0  0  0  0  0  0  0  0  0  0
   -1.2310   -1.8680    0.0630 H   0  0  0  0  0  0  0  0  0  0  0  0
   -3.0080   -0.9830   -2.1910 H   0  0  0  0  0  0  0  0  0  0  0  0
   -2.9050   -2.6180   -1.3350 H   0  0  0  0  0  0  0  0  0  0  0  0
   -3.7630   -1.4860    0.7050 H   0  0  0  0  0  0  0  0  0  0  0  0
   -4.8860   -0.9110   -0.6430 H   0  0  0  0  0  0  0  0  0  0  0  0
   -3.3270    0.8810   -1.1280 H   0  0  0  0  0  0  0  0  0  0  0  0
  1 10  1  0  0  0  0
  1  8  1  0  0  0  0
  1  9  1  0  0  0  0
  2 11  1  6  0  0  0
  2  1  1  0  0  0  0
  3  2  1  0  0  0  0
  3 12  1  0  0  0  0
  4 13  1  1  0  0  0
  4  2  1  0  0  0  0
  4  6  1  0  0  0  0
  5  4  1  0  0  0  0
  6  7  2  0  0  0  0
 14  5  1  0  0  0  0
 15  5  1  0  0  0  0
 16 25  1  0  0  0  0
 16 26  1  0  0  0  0
 17 18  1  0  0  0  0
 17 16  1  0  0  0  0
 18 19  1  0  0  0  0
 19 20  1  0  0  0  0
 19 30  1  0  0  0  0
 19 29  1  0  0  0  0
 20 31  1  1  0  0  0
 21 20  1  0  0  0  0
 21  6  1  0  0  0  0
 22 20  1  0  0  0  0
 22 23  2  0  0  0  0
 24 16  1  0  0  0  0
 27 18  1  0  0  0  0
 28 18  1  0  0  0  0
 32 21  1  0  0  0  0
 33 22  1  0  0  0  0
 34 42  1  0  0  0  0
 34 33  1  0  0  0  0
 35 34  1  0  0  0  0
 35 36  1  0  0  0  0
 36 37  1  0  0  0  0
 36 45  1  0  0  0  0
 37 47  1  6  0  0  0
 37 33  1  0  0  0  0
 37 38  1  0  0  0  0
 38 39  1  0  0  0  0
 40 38  2  0  0  0  0
 41 34  1  0  0  0  0
 43 35  1  0  0  0  0
 44 35  1  0  0  0  0
 46 36  1  0  0  0  0
M  END
$$$$
