TMQ.pdb
 OpenBabel07022419133D

 50 49  0  0  1  0  0  0  0  0999 V2000
    3.0440   -3.9790   -0.9710 C   0  0  0  0  0  0  0  0  0  0  0  0
    2.3150   -3.0110   -1.9060 C   0  0  1  0  0  0  0  0  0  0  0  0
    2.2150   -3.5580   -3.1840 O   0  0  0  0  0  0  0  0  0  0  0  0
    0.9420   -2.7550   -1.3050 C   0  0  2  0  0  0  0  0  0  0  0  0
    0.2580   -1.8290   -2.1860 N   0  0  0  0  0  0  0  0  0  0  0  0
    1.1650   -2.1680    0.0390 C   0  0  0  0  0  0  0  0  0  0  0  0
    1.7480   -2.8320    0.9330 O   0  0  0  0  0  0  0  0  0  0  0  0
    3.7030   -4.6020   -1.6230 H   0  0  0  0  0  0  0  0  0  0  0  0
    3.6740   -3.4510   -0.2320 H   0  0  0  0  0  0  0  0  0  0  0  0
    2.3540   -4.6320   -0.4220 H   0  0  0  0  0  0  0  0  0  0  0  0
    2.8570   -2.0480   -1.8990 H   0  0  0  0  0  0  0  0  0  0  0  0
    1.7360   -4.4360   -3.0590 H   0  0  0  0  0  0  0  0  0  0  0  0
    0.3990   -3.6950   -1.3060 H   0  0  0  0  0  0  0  0  0  0  0  0
    0.3080   -2.2710   -3.1510 H   0  0  0  0  0  0  0  0  0  0  0  0
   -0.7850   -1.8260   -1.9730 H   0  0  0  0  0  0  0  0  0  0  0  0
    4.5930   -0.1360    3.5270 C   0  0  0  0  0  0  0  0  0  0  0  0
    2.9200    0.1990    4.1190 S   0  0  0  0  0  0  0  0  0  0  0  0
    2.0750    1.4300    3.0880 C   0  0  0  0  0  0  0  0  0  0  0  0
    1.8230    0.9090    1.7000 C   0  0  0  0  0  0  0  0  0  0  0  0
    0.9930   -0.3180    1.7470 C   0  0  2  0  0  0  0  0  0  0  0  0
    0.7450   -0.8540    0.3930 N   0  0  0  0  0  0  0  0  0  0  0  0
   -0.3560   -0.0700    2.3050 C   0  0  0  0  0  0  0  0  0  0  0  0
   -0.5500    0.3330    3.4900 O   0  0  0  0  0  0  0  0  0  0  0  0
    5.1700    0.8200    3.3730 H   0  0  0  0  0  0  0  0  0  0  0  0
    5.1220   -0.6890    4.3160 H   0  0  0  0  0  0  0  0  0  0  0  0
    4.5850   -0.7580    2.6180 H   0  0  0  0  0  0  0  0  0  0  0  0
    2.7150    2.3740    3.0410 H   0  0  0  0  0  0  0  0  0  0  0  0
    1.1810    1.7650    3.6340 H   0  0  0  0  0  0  0  0  0  0  0  0
    1.2110    1.6990    1.1750 H   0  0  0  0  0  0  0  0  0  0  0  0
    2.7520    0.8080    1.1100 H   0  0  0  0  0  0  0  0  0  0  0  0
    1.5400   -1.1030    2.3070 H   0  0  0  0  0  0  0  0  0  0  0  0
    0.2650   -0.3060   -0.3500 H   0  0  0  0  0  0  0  0  0  0  0  0
   -2.4990    1.3620   -1.9890 N   0  0  0  0  0  0  0  0  0  0  0  0
   -2.4200    1.6200   -0.5860 C   0  0  0  0  0  0  0  0  0  0  0  0
   -1.2930    1.9200   -0.0740 O   0  0  0  0  0  0  0  0  0  0  0  0
   -3.6180    1.5440    0.2420 C   0  0  0  0  0  0  0  0  0  0  0  0
   -3.4400    1.2810    1.6830 C   0  0  0  0  0  0  0  0  0  0  0  0
   -2.8760   -0.0260    2.1030 C   0  0  2  0  0  0  0  0  0  0  0  0
   -1.5700   -0.2630    1.5570 N   0  0  0  0  0  0  0  0  0  0  0  0
   -3.7520   -1.1730    1.8240 C   0  0  0  0  0  0  0  0  0  0  0  0
   -3.3210   -2.1590    1.1940 O   0  0  0  0  0  0  0  0  0  0  0  0
   -5.0640   -1.1710    2.2560 O   0  0  0  0  0  0  0  0  0  0  0  0
   -2.9810    2.0220   -2.6330 H   0  0  0  0  0  0  0  0  0  0  0  0
   -2.0760    0.5070   -2.3990 H   0  0  0  0  0  0  0  0  0  0  0  0
   -4.3490    0.8260   -0.2060 H   0  0  0  0  0  0  0  0  0  0  0  0
   -4.1320    2.5430    0.1500 H   0  0  0  0  0  0  0  0  0  0  0  0
   -2.7560    2.0790    2.1070 H   0  0  0  0  0  0  0  0  0  0  0  0
   -4.4270    1.4880    2.1930 H   0  0  0  0  0  0  0  0  0  0  0  0
   -2.7270    0.0740    3.2410 H   0  0  0  0  0  0  0  0  0  0  0  0
   -1.5160   -0.6140    0.5770 H   0  0  0  0  0  0  0  0  0  0  0  0
  1 10  1  0  0  0  0
  1  9  1  0  0  0  0
  2 11  1  6  0  0  0
  2  4  1  0  0  0  0
  2  1  1  0  0  0  0
  3 12  1  0  0  0  0
  3  2  1  0  0  0  0
  4 13  1  1  0  0  0
  4  6  1  0  0  0  0
  5 15  1  0  0  0  0
  5  4  1  0  0  0  0
  6 21  1  0  0  0  0
  6  7  2  0  0  0  0
  8  1  1  0  0  0  0
 14  5  1  0  0  0  0
 16 17  1  0  0  0  0
 16 25  1  0  0  0  0
 18 28  1  0  0  0  0
 18 17  1  0  0  0  0
 19 20  1  0  0  0  0
 19 18  1  0  0  0  0
 20 22  1  0  0  0  0
 20 31  1  1  0  0  0
 21 20  1  0  0  0  0
 22 23  2  0  0  0  0
 24 16  1  0  0  0  0
 26 16  1  0  0  0  0
 27 18  1  0  0  0  0
 29 19  1  0  0  0  0
 30 19  1  0  0  0  0
 32 21  1  0  0  0  0
 33 34  1  0  0  0  0
 34 35  2  0  0  0  0
 34 36  1  0  0  0  0
 36 37  1  0  0  0  0
 37 38  1  0  0  0  0
 37 47  1  0  0  0  0
 37 48  1  0  0  0  0
 38 49  1  1  0  0  0
 39 38  1  0  0  0  0
 39 22  1  0  0  0  0
 40 38  1  0  0  0  0
 40 42  1  0  0  0  0
 41 40  2  0  0  0  0
 43 33  1  0  0  0  0
 44 33  1  0  0  0  0
 45 36  1  0  0  0  0
 46 36  1  0  0  0  0
 50 39  1  0  0  0  0
M  END
$$$$
