TMT.pdb
 OpenBabel07022419133D

 47 46  0  0  1  0  0  0  0  0999 V2000
    3.1250   -3.7870    3.4640 C   0  0  0  0  0  0  0  0  0  0  0  0
    3.1230   -3.6410    1.9430 C   0  0  1  0  0  0  0  0  0  0  0  0
    3.3820   -4.9200    1.4400 O   0  0  0  0  0  0  0  0  0  0  0  0
    1.7460   -3.2000    1.5000 C   0  0  2  0  0  0  0  0  0  0  0  0
    1.6590   -3.1640    0.0570 N   0  0  0  0  0  0  0  0  0  0  0  0
    1.3700   -1.8910    2.0970 C   0  0  0  0  0  0  0  0  0  0  0  0
    1.3800   -1.6860    3.3330 O   0  0  0  0  0  0  0  0  0  0  0  0
    3.6510   -4.7150    3.7790 H   0  0  0  0  0  0  0  0  0  0  0  0
    3.5800   -2.8840    3.9200 H   0  0  0  0  0  0  0  0  0  0  0  0
    2.0840   -3.8780    3.7960 H   0  0  0  0  0  0  0  0  0  0  0  0
    3.9120   -2.9350    1.6470 H   0  0  0  0  0  0  0  0  0  0  0  0
    4.0220   -5.4150    2.0130 H   0  0  0  0  0  0  0  0  0  0  0  0
    1.0250   -3.9800    1.8460 H   0  0  0  0  0  0  0  0  0  0  0  0
    2.0400   -4.0580   -0.3140 H   0  0  0  0  0  0  0  0  0  0  0  0
    0.6770   -3.0550   -0.2510 H   0  0  0  0  0  0  0  0  0  0  0  0
    1.8010    4.5400   -0.4390 C   0  0  0  0  0  0  0  0  0  0  0  0
    2.5310    2.9690   -0.9700 S   0  0  0  0  0  0  0  0  0  0  0  0
    1.4610    1.6340   -0.3680 C   0  0  0  0  0  0  0  0  0  0  0  0
    1.4720    1.5630    1.1430 C   0  0  0  0  0  0  0  0  0  0  0  0
    0.6020    0.4720    1.6770 C   0  0  2  0  0  0  0  0  0  0  0  0
    0.9860   -0.8400    1.2210 N   0  0  0  0  0  0  0  0  0  0  0  0
   -0.8090    0.7920    1.3440 C   0  0  0  0  0  0  0  0  0  0  0  0
   -1.2550    1.9220    1.6920 O   0  0  0  0  0  0  0  0  0  0  0  0
    1.9970    5.3590   -1.1850 H   0  0  0  0  0  0  0  0  0  0  0  0
    0.7120    4.4160   -0.3000 H   0  0  0  0  0  0  0  0  0  0  0  0
    2.2740    4.8400    0.5240 H   0  0  0  0  0  0  0  0  0  0  0  0
    1.9090    0.6760   -0.7600 H   0  0  0  0  0  0  0  0  0  0  0  0
    0.4660    1.7990   -0.7830 H   0  0  0  0  0  0  0  0  0  0  0  0
    1.0920    2.5390    1.5070 H   0  0  0  0  0  0  0  0  0  0  0  0
    2.5050    1.4780    1.5130 H   0  0  0  0  0  0  0  0  0  0  0  0
    0.6740    0.4810    2.7840 H   0  0  0  0  0  0  0  0  0  0  0  0
    0.9880   -1.0440    0.2000 H   0  0  0  0  0  0  0  0  0  0  0  0
   -2.9720   -1.0580   -1.7030 C   0  0  0  0  0  0  0  0  0  0  0  0
   -3.2710    0.3160   -1.1150 C   0  0  1  0  0  0  0  0  0  0  0  0
   -4.5890    0.6940   -1.3890 O   0  0  0  0  0  0  0  0  0  0  0  0
   -3.0580    0.3150    0.3800 C   0  0  2  0  0  0  0  0  0  0  0  0
   -1.6900   -0.0780    0.6660 N   0  0  0  0  0  0  0  0  0  0  0  0
   -4.0300   -0.5630    1.0690 C   0  0  0  0  0  0  0  0  0  0  0  0
   -3.5960   -1.4920    1.7800 O   0  0  0  0  0  0  0  0  0  0  0  0
   -5.4000   -0.4020    0.9620 O   0  0  0  0  0  0  0  0  0  0  0  0
   -2.1050   -1.0200   -2.3670 H   0  0  0  0  0  0  0  0  0  0  0  0
   -3.8540   -1.4270   -2.2820 H   0  0  0  0  0  0  0  0  0  0  0  0
   -2.8540   -1.7580   -0.8500 H   0  0  0  0  0  0  0  0  0  0  0  0
   -2.5710    1.0360   -1.5640 H   0  0  0  0  0  0  0  0  0  0  0  0
   -4.9300    0.0830   -2.0810 H   0  0  0  0  0  0  0  0  0  0  0  0
   -3.2180    1.3340    0.7570 H   0  0  0  0  0  0  0  0  0  0  0  0
   -1.3110   -1.0150    0.3800 H   0  0  0  0  0  0  0  0  0  0  0  0
  1  8  1  0  0  0  0
  1 10  1  0  0  0  0
  1  9  1  0  0  0  0
  2 11  1  6  0  0  0
  2  1  1  0  0  0  0
  3  2  1  0  0  0  0
  3 12  1  0  0  0  0
  4 13  1  1  0  0  0
  4  2  1  0  0  0  0
  4  6  1  0  0  0  0
  5  4  1  0  0  0  0
  6  7  2  0  0  0  0
 14  5  1  0  0  0  0
 15  5  1  0  0  0  0
 16 25  1  0  0  0  0
 16 26  1  0  0  0  0
 17 16  1  0  0  0  0
 17 18  1  0  0  0  0
 18 19  1  0  0  0  0
 19 29  1  0  0  0  0
 19 30  1  0  0  0  0
 19 20  1  0  0  0  0
 20 31  1  1  0  0  0
 21 20  1  0  0  0  0
 21  6  1  0  0  0  0
 22 20  1  0  0  0  0
 22 23  2  0  0  0  0
 24 16  1  0  0  0  0
 27 18  1  0  0  0  0
 28 18  1  0  0  0  0
 32 21  1  0  0  0  0
 33 34  1  0  0  0  0
 33 43  1  0  0  0  0
 34 44  1  6  0  0  0
 34 36  1  0  0  0  0
 35 34  1  0  0  0  0
 36 37  1  0  0  0  0
 36 46  1  1  0  0  0
 36 38  1  0  0  0  0
 37 22  1  0  0  0  0
 38 39  1  0  0  0  0
 40 38  2  0  0  0  0
 41 33  1  0  0  0  0
 42 33  1  0  0  0  0
 45 35  1  0  0  0  0
 47 37  1  0  0  0  0
M  END
$$$$
