TMV.pdb
 OpenBabel07022419133D

 49 48  0  0  1  0  0  0  0  0999 V2000
    0.7890   -5.3440    0.5830 C   0  0  0  0  0  0  0  0  0  0  0  0
    2.0580   -4.7560    0.1040 C   0  0  1  0  0  0  0  0  0  0  0  0
    1.8280   -4.0840   -1.0710 O   0  0  0  0  0  0  0  0  0  0  0  0
    2.7350   -3.8290    1.0810 C   0  0  2  0  0  0  0  0  0  0  0  0
    3.0120   -4.4940    2.3460 N   0  0  0  0  0  0  0  0  0  0  0  0
    1.9750   -2.6070    1.3900 C   0  0  0  0  0  0  0  0  0  0  0  0
    1.6150   -2.3440    2.5850 O   0  0  0  0  0  0  0  0  0  0  0  0
    0.7950   -6.4360    0.3880 H   0  0  0  0  0  0  0  0  0  0  0  0
    0.5960   -5.2270    1.6660 H   0  0  0  0  0  0  0  0  0  0  0  0
   -0.1160   -4.9640    0.0250 H   0  0  0  0  0  0  0  0  0  0  0  0
    2.7920   -5.5640   -0.1130 H   0  0  0  0  0  0  0  0  0  0  0  0
    2.6900   -3.9810   -1.5640 H   0  0  0  0  0  0  0  0  0  0  0  0
    3.7290   -3.5950    0.6420 H   0  0  0  0  0  0  0  0  0  0  0  0
    2.8920   -3.8370    3.1540 H   0  0  0  0  0  0  0  0  0  0  0  0
    2.4660   -5.3710    2.4630 H   0  0  0  0  0  0  0  0  0  0  0  0
    3.0980    3.7680    1.4310 C   0  0  0  0  0  0  0  0  0  0  0  0
    3.9310    2.2350    0.9320 S   0  0  0  0  0  0  0  0  0  0  0  0
    2.9190    0.7850    1.2470 C   0  0  0  0  0  0  0  0  0  0  0  0
    1.6660    0.7750    0.3630 C   0  0  0  0  0  0  0  0  0  0  0  0
    0.8580   -0.4600    0.6690 C   0  0  2  0  0  0  0  0  0  0  0  0
    1.6050   -1.6730    0.4170 N   0  0  0  0  0  0  0  0  0  0  0  0
   -0.4280   -0.4240   -0.0340 C   0  0  0  0  0  0  0  0  0  0  0  0
   -0.7620   -1.3930   -0.7630 O   0  0  0  0  0  0  0  0  0  0  0  0
    3.7940    4.6080    1.2330 H   0  0  0  0  0  0  0  0  0  0  0  0
    2.8700    3.7640    2.5340 H   0  0  0  0  0  0  0  0  0  0  0  0
    2.1620    3.8860    0.8550 H   0  0  0  0  0  0  0  0  0  0  0  0
    2.5930    0.7610    2.3050 H   0  0  0  0  0  0  0  0  0  0  0  0
    3.5050   -0.1090    0.9910 H   0  0  0  0  0  0  0  0  0  0  0  0
    1.9570    0.8250   -0.7040 H   0  0  0  0  0  0  0  0  0  0  0  0
    1.0550    1.6460    0.6470 H   0  0  0  0  0  0  0  0  0  0  0  0
    0.6610   -0.4440    1.7770 H   0  0  0  0  0  0  0  0  0  0  0  0
    1.8770   -1.8340   -0.5760 H   0  0  0  0  0  0  0  0  0  0  0  0
   -3.6120    2.0590    1.2430 C   0  0  0  0  0  0  0  0  0  0  0  0
   -3.7220    0.8310    0.3830 C   0  0  0  0  0  0  0  0  0  0  0  0
   -3.8400   -0.3870    1.2560 C   0  0  0  0  0  0  0  0  0  0  0  0
   -2.5970    0.7210   -0.6120 C   0  0  2  0  0  0  0  0  0  0  0  0
   -1.3340    0.6580    0.0620 N   0  0  0  0  0  0  0  0  0  0  0  0
   -2.6850    1.8930   -1.5330 C   0  0  0  0  0  0  0  0  0  0  0  0
   -1.7160    2.6860   -1.6480 O   0  0  0  0  0  0  0  0  0  0  0  0
   -3.8190    2.1500   -2.2870 O   0  0  0  0  0  0  0  0  0  0  0  0
   -4.5200    2.0960    1.8840 H   0  0  0  0  0  0  0  0  0  0  0  0
   -3.6010    2.9710    0.5950 H   0  0  0  0  0  0  0  0  0  0  0  0
   -2.7510    2.0590    1.9110 H   0  0  0  0  0  0  0  0  0  0  0  0
   -4.6720    0.9480   -0.2180 H   0  0  0  0  0  0  0  0  0  0  0  0
   -4.6630   -0.1620    1.9930 H   0  0  0  0  0  0  0  0  0  0  0  0
   -4.0940   -1.2880    0.6490 H   0  0  0  0  0  0  0  0  0  0  0  0
   -2.8870   -0.5020    1.8050 H   0  0  0  0  0  0  0  0  0  0  0  0
   -2.7920   -0.1770   -1.2370 H   0  0  0  0  0  0  0  0  0  0  0  0
   -1.0630    1.4710    0.6680 H   0  0  0  0  0  0  0  0  0  0  0  0
  1  9  1  0  0  0  0
  2 11  1  6  0  0  0
  2  1  1  0  0  0  0
  2  4  1  0  0  0  0
  3  2  1  0  0  0  0
  4 13  1  6  0  0  0
  4  6  1  0  0  0  0
  4  5  1  0  0  0  0
  5 15  1  0  0  0  0
  5 14  1  0  0  0  0
  6  7  2  0  0  0  0
  8  1  1  0  0  0  0
 10  1  1  0  0  0  0
 12  3  1  0  0  0  0
 16 25  1  0  0  0  0
 17 18  1  0  0  0  0
 17 16  1  0  0  0  0
 18 27  1  0  0  0  0
 19 30  1  0  0  0  0
 19 20  1  0  0  0  0
 19 18  1  0  0  0  0
 20 31  1  1  0  0  0
 21 20  1  0  0  0  0
 21  6  1  0  0  0  0
 22 37  1  0  0  0  0
 22 20  1  0  0  0  0
 23 22  2  0  0  0  0
 24 16  1  0  0  0  0
 26 16  1  0  0  0  0
 28 18  1  0  0  0  0
 29 19  1  0  0  0  0
 32 21  1  0  0  0  0
 33 41  1  0  0  0  0
 33 43  1  0  0  0  0
 34 33  1  0  0  0  0
 34 35  1  0  0  0  0
 35 47  1  0  0  0  0
 35 45  1  0  0  0  0
 36 48  1  6  0  0  0
 36 37  1  0  0  0  0
 36 34  1  0  0  0  0
 37 49  1  0  0  0  0
 38 36  1  0  0  0  0
 39 38  1  0  0  0  0
 40 38  2  0  0  0  0
 42 33  1  0  0  0  0
 44 34  1  0  0  0  0
 46 35  1  0  0  0  0
M  END
$$$$
