TMW.pdb
 OpenBabel07022419133D

 57 58  0  0  1  0  0  0  0  0999 V2000
    0.1250    2.4790    4.2690 C   0  0  0  0  0  0  0  0  0  0  0  0
    1.5950    2.3840    4.6030 C   0  0  1  0  0  0  0  0  0  0  0  0
    1.6520    2.6680    5.9990 O   0  0  0  0  0  0  0  0  0  0  0  0
    2.1730    1.0110    4.4610 C   0  0  2  0  0  0  0  0  0  0  0  0
    3.5440    0.9970    4.9970 N   0  0  0  0  0  0  0  0  0  0  0  0
    2.2660    0.5170    3.0580 C   0  0  0  0  0  0  0  0  0  0  0  0
    3.4450    0.2810    2.6290 O   0  0  0  0  0  0  0  0  0  0  0  0
    0.0360    2.7800    3.2140 H   0  0  0  0  0  0  0  0  0  0  0  0
   -0.4410    1.5980    4.5590 H   0  0  0  0  0  0  0  0  0  0  0  0
   -0.3450    3.3490    4.8350 H   0  0  0  0  0  0  0  0  0  0  0  0
    2.2230    3.1200    4.1040 H   0  0  0  0  0  0  0  0  0  0  0  0
    1.2740    1.8500    6.4300 H   0  0  0  0  0  0  0  0  0  0  0  0
    1.5570    0.2780    5.0180 H   0  0  0  0  0  0  0  0  0  0  0  0
    3.4100    1.0750    6.0340 H   0  0  0  0  0  0  0  0  0  0  0  0
    3.9700    0.0750    4.7530 H   0  0  0  0  0  0  0  0  0  0  0  0
    0.0700    2.7660   -0.2700 C   0  0  0  0  0  0  0  0  0  0  0  0
    1.6260    2.4260   -1.0490 S   0  0  0  0  0  0  0  0  0  0  0  0
    2.8430    1.5330   -0.0740 C   0  0  0  0  0  0  0  0  0  0  0  0
    2.5300    0.0940    0.1050 C   0  0  0  0  0  0  0  0  0  0  0  0
    1.2710   -0.1690    0.8350 C   0  0  2  0  0  0  0  0  0  0  0  0
    1.1920    0.2950    2.1950 N   0  0  0  0  0  0  0  0  0  0  0  0
    0.7360   -1.5340    0.7270 C   0  0  0  0  0  0  0  0  0  0  0  0
    0.3350   -2.1080    1.7790 O   0  0  0  0  0  0  0  0  0  0  0  0
   -0.8070    2.1850   -0.6510 H   0  0  0  0  0  0  0  0  0  0  0  0
   -0.2190    3.8400   -0.5280 H   0  0  0  0  0  0  0  0  0  0  0  0
    0.0600    2.7270    0.8350 H   0  0  0  0  0  0  0  0  0  0  0  0
    3.8430    1.6660   -0.6070 H   0  0  0  0  0  0  0  0  0  0  0  0
    2.9800    2.0970    0.8860 H   0  0  0  0  0  0  0  0  0  0  0  0
    3.4000   -0.5000    0.4780 H   0  0  0  0  0  0  0  0  0  0  0  0
    2.3870   -0.3260   -0.9440 H   0  0  0  0  0  0  0  0  0  0  0  0
    0.5130    0.5040    0.2760 H   0  0  0  0  0  0  0  0  0  0  0  0
    0.2240    0.4920    2.6220 H   0  0  0  0  0  0  0  0  0  0  0  0
    0.6400   -2.2550   -0.5010 N   0  0  0  0  0  0  0  0  0  0  0  0
    0.1040   -3.5950   -0.5810 C   0  0  1  0  0  0  0  0  0  0  0  0
   -0.9110   -3.7900   -1.6480 C   0  0  0  0  0  0  0  0  0  0  0  0
   -2.1170   -2.9520   -1.5390 C   0  0  0  0  0  0  0  0  0  0  0  0
   -2.5800   -2.0930   -0.5950 C   0  0  0  0  0  0  0  0  0  0  0  0
   -3.7550   -1.5740   -1.0000 N   0  0  0  0  0  0  0  0  0  0  0  0
   -4.0930   -2.0810   -2.2240 C   0  0  0  0  0  0  0  0  0  0  0  0
   -5.1700   -1.8770   -3.0520 C   0  0  0  0  0  0  0  0  0  0  0  0
   -5.2610   -2.5310   -4.2500 C   0  0  0  0  0  0  0  0  0  0  0  0
   -4.2620   -3.3980   -4.6190 C   0  0  0  0  0  0  0  0  0  0  0  0
   -3.1950   -3.5880   -3.7800 C   0  0  0  0  0  0  0  0  0  0  0  0
   -3.0710   -2.9430   -2.5620 C   0  0  0  0  0  0  0  0  0  0  0  0
    1.2030   -4.5850   -0.8650 C   0  0  0  0  0  0  0  0  0  0  0  0
    1.0100   -5.8130   -0.9700 O   0  0  0  0  0  0  0  0  0  0  0  0
    2.4780   -4.0870   -1.0140 O   0  0  0  0  0  0  0  0  0  0  0  0
    0.9900   -1.7400   -1.3600 H   0  0  0  0  0  0  0  0  0  0  0  0
   -0.2500   -3.8590    0.4470 H   0  0  0  0  0  0  0  0  0  0  0  0
   -0.4240   -3.6880   -2.6480 H   0  0  0  0  0  0  0  0  0  0  0  0
   -1.2640   -4.8540   -1.6320 H   0  0  0  0  0  0  0  0  0  0  0  0
   -2.0520   -1.8870    0.3410 H   0  0  0  0  0  0  0  0  0  0  0  0
   -4.3040   -0.8860   -0.4400 H   0  0  0  0  0  0  0  0  0  0  0  0
   -5.9420   -1.1980   -2.7530 H   0  0  0  0  0  0  0  0  0  0  0  0
   -6.1290   -2.3700   -4.9220 H   0  0  0  0  0  0  0  0  0  0  0  0
   -4.3130   -3.9230   -5.5560 H   0  0  0  0  0  0  0  0  0  0  0  0
   -2.3750   -4.2750   -4.0430 H   0  0  0  0  0  0  0  0  0  0  0  0
  1  9  1  0  0  0  0
  1  2  1  0  0  0  0
  1 10  1  0  0  0  0
  2 11  1  6  0  0  0
  2  3  1  0  0  0  0
  3 12  1  0  0  0  0
  4  2  1  0  0  0  0
  4  5  1  0  0  0  0
  4 13  1  1  0  0  0
  5 14  1  0  0  0  0
  6  4  1  0  0  0  0
  7  6  2  0  0  0  0
  8  1  1  0  0  0  0
 15  5  1  0  0  0  0
 16 26  1  0  0  0  0
 17 16  1  0  0  0  0
 17 18  1  0  0  0  0
 18 19  1  0  0  0  0
 18 28  1  0  0  0  0
 19 29  1  0  0  0  0
 19 20  1  0  0  0  0
 20 31  1  6  0  0  0
 20 21  1  0  0  0  0
 21 32  1  0  0  0  0
 21  6  1  0  0  0  0
 22 20  1  0  0  0  0
 22 23  2  0  0  0  0
 24 16  1  0  0  0  0
 25 16  1  0  0  0  0
 27 18  1  0  0  0  0
 30 19  1  0  0  0  0
 33 22  1  0  0  0  0
 34 33  1  0  0  0  0
 34 49  1  1  0  0  0
 35 51  1  0  0  0  0
 35 36  1  0  0  0  0
 35 34  1  0  0  0  0
 36 37  2  0  0  0  0
 37 52  1  0  0  0  0
 38 37  1  0  0  0  0
 38 53  1  0  0  0  0
 39 38  1  0  0  0  0
 40 54  1  0  0  0  0
 40 39  2  0  0  0  0
 41 40  1  0  0  0  0
 42 41  2  0  0  0  0
 42 43  1  0  0  0  0
 43 44  2  0  0  0  0
 44 39  1  0  0  0  0
 44 36  1  0  0  0  0
 45 34  1  0  0  0  0
 46 45  1  0  0  0  0
 47 45  2  0  0  0  0
 48 33  1  0  0  0  0
 50 35  1  0  0  0  0
 55 41  1  0  0  0  0
 56 42  1  0  0  0  0
 57 43  1  0  0  0  0
M  END
$$$$
