TNA.pdb
 OpenBabel07022419113D

 40 39  0  0  1  0  0  0  0  0999 V2000
    0.8790   -4.1800   -2.3310 C   0  0  0  0  0  0  0  0  0  0  0  0
   -0.0210   -4.0240   -1.1600 C   0  0  1  0  0  0  0  0  0  0  0  0
   -0.1730   -5.3220   -0.6080 O   0  0  0  0  0  0  0  0  0  0  0  0
    0.4930   -3.1700   -0.0400 C   0  0  2  0  0  0  0  0  0  0  0  0
   -0.5230   -3.2460    1.0210 N   0  0  0  0  0  0  0  0  0  0  0  0
    0.7440   -1.7630   -0.4000 C   0  0  0  0  0  0  0  0  0  0  0  0
    1.6170   -1.4980   -1.2530 O   0  0  0  0  0  0  0  0  0  0  0  0
    0.2600   -4.1880   -3.2790 H   0  0  0  0  0  0  0  0  0  0  0  0
    1.6330   -3.4150   -2.4920 H   0  0  0  0  0  0  0  0  0  0  0  0
    1.4490   -5.1570   -2.2810 H   0  0  0  0  0  0  0  0  0  0  0  0
   -1.0270   -3.7380   -1.4990 H   0  0  0  0  0  0  0  0  0  0  0  0
   -0.0870   -5.3360    0.3600 H   0  0  0  0  0  0  0  0  0  0  0  0
    1.4010   -3.6450    0.3720 H   0  0  0  0  0  0  0  0  0  0  0  0
   -0.1460   -2.9240    1.9230 H   0  0  0  0  0  0  0  0  0  0  0  0
   -1.4060   -2.7770    0.7390 H   0  0  0  0  0  0  0  0  0  0  0  0
   -3.1270    2.2100   -0.5310 N   0  0  0  0  0  0  0  0  0  0  0  0
   -1.9780    1.5490   -0.0520 C   0  0  0  0  0  0  0  0  0  0  0  0
   -1.9910    1.0880    1.1100 O   0  0  0  0  0  0  0  0  0  0  0  0
   -0.7900    1.3980   -0.8820 C   0  0  0  0  0  0  0  0  0  0  0  0
    0.3490    0.6680   -0.2370 C   0  0  2  0  0  0  0  0  0  0  0  0
    0.0520   -0.6680    0.1620 N   0  0  0  0  0  0  0  0  0  0  0  0
    0.9490    1.4670    0.8910 C   0  0  0  0  0  0  0  0  0  0  0  0
    1.2800    2.6690    0.7280 O   0  0  0  0  0  0  0  0  0  0  0  0
   -3.1940    2.6420   -1.4810 H   0  0  0  0  0  0  0  0  0  0  0  0
   -3.9670    2.2810    0.0820 H   0  0  0  0  0  0  0  0  0  0  0  0
   -1.0040    0.8870   -1.8460 H   0  0  0  0  0  0  0  0  0  0  0  0
   -0.4200    2.4100   -1.1560 H   0  0  0  0  0  0  0  0  0  0  0  0
    1.1570    0.6250   -0.9950 H   0  0  0  0  0  0  0  0  0  0  0  0
   -0.6880   -0.8280    0.8790 H   0  0  0  0  0  0  0  0  0  0  0  0
    0.7190    1.7230    4.4190 C   0  0  0  0  0  0  0  0  0  0  0  0
    1.7190    1.5670    3.2910 C   0  0  2  0  0  0  0  0  0  0  0  0
    1.1530    0.8810    2.1570 N   0  0  0  0  0  0  0  0  0  0  0  0
    2.9060    0.8820    3.8120 C   0  0  0  0  0  0  0  0  0  0  0  0
    3.2920   -0.1750    3.2530 O   0  0  0  0  0  0  0  0  0  0  0  0
    3.5890    1.3960    4.9050 O   0  0  0  0  0  0  0  0  0  0  0  0
    1.3070    1.8150    5.3560 H   0  0  0  0  0  0  0  0  0  0  0  0
    0.0610    0.8560    4.5320 H   0  0  0  0  0  0  0  0  0  0  0  0
    0.1610    2.6900    4.3230 H   0  0  0  0  0  0  0  0  0  0  0  0
    1.9520    2.6080    2.9500 H   0  0  0  0  0  0  0  0  0  0  0  0
    0.8780   -0.1110    2.2880 H   0  0  0  0  0  0  0  0  0  0  0  0
  1 10  1  0  0  0  0
  1  2  1  0  0  0  0
  2 11  1  6  0  0  0
  2  3  1  0  0  0  0
  2  4  1  0  0  0  0
  3 12  1  0  0  0  0
  4 13  1  1  0  0  0
  4  5  1  0  0  0  0
  5 14  1  0  0  0  0
  6  4  1  0  0  0  0
  6 21  1  0  0  0  0
  7  6  2  0  0  0  0
  8  1  1  0  0  0  0
  9  1  1  0  0  0  0
 15  5  1  0  0  0  0
 16 17  1  0  0  0  0
 16 25  1  0  0  0  0
 17 18  2  0  0  0  0
 19 20  1  0  0  0  0
 19 17  1  0  0  0  0
 20 28  1  6  0  0  0
 20 21  1  0  0  0  0
 20 22  1  0  0  0  0
 21 29  1  0  0  0  0
 22 32  1  0  0  0  0
 23 22  2  0  0  0  0
 24 16  1  0  0  0  0
 26 19  1  0  0  0  0
 27 19  1  0  0  0  0
 30 37  1  0  0  0  0
 30 36  1  0  0  0  0
 31 39  1  6  0  0  0
 31 33  1  0  0  0  0
 31 30  1  0  0  0  0
 32 40  1  0  0  0  0
 32 31  1  0  0  0  0
 33 35  1  0  0  0  0
 34 33  2  0  0  0  0
 38 30  1  0  0  0  0
M  END
$$$$
