TNC.pdb
 OpenBabel07022419113D

 41 40  0  0  1  0  0  0  0  0999 V2000
   -1.0940   -3.8700   -1.8130 C   0  0  0  0  0  0  0  0  0  0  0  0
   -0.2900   -3.0150   -0.8610 C   0  0  1  0  0  0  0  0  0  0  0  0
   -0.1940   -3.6220    0.3660 O   0  0  0  0  0  0  0  0  0  0  0  0
    1.0430   -2.7390   -1.5080 C   0  0  2  0  0  0  0  0  0  0  0  0
    1.8070   -3.9360   -1.7230 N   0  0  0  0  0  0  0  0  0  0  0  0
    1.8480   -1.7720   -0.7350 C   0  0  0  0  0  0  0  0  0  0  0  0
    3.0230   -2.0580   -0.3970 O   0  0  0  0  0  0  0  0  0  0  0  0
   -0.8930   -3.5290   -2.8460 H   0  0  0  0  0  0  0  0  0  0  0  0
   -0.7650   -4.9230   -1.6590 H   0  0  0  0  0  0  0  0  0  0  0  0
   -2.1770   -3.8280   -1.5700 H   0  0  0  0  0  0  0  0  0  0  0  0
   -0.8090   -2.0410   -0.7180 H   0  0  0  0  0  0  0  0  0  0  0  0
   -0.9000   -3.2720    0.9680 H   0  0  0  0  0  0  0  0  0  0  0  0
    0.8570   -2.2720   -2.5010 H   0  0  0  0  0  0  0  0  0  0  0  0
    1.5690   -4.6970   -1.0430 H   0  0  0  0  0  0  0  0  0  0  0  0
    2.8400   -3.7570   -1.7640 H   0  0  0  0  0  0  0  0  0  0  0  0
    1.0540    3.7940   -0.3120 N   0  0  0  0  0  0  0  0  0  0  0  0
    1.2450    2.4540   -0.7220 C   0  0  0  0  0  0  0  0  0  0  0  0
    0.3600    1.9010   -1.4200 O   0  0  0  0  0  0  0  0  0  0  0  0
    2.4710    1.7210   -0.3270 C   0  0  0  0  0  0  0  0  0  0  0  0
    2.1530    0.4400    0.4190 C   0  0  2  0  0  0  0  0  0  0  0  0
    1.3610   -0.4960   -0.3360 N   0  0  0  0  0  0  0  0  0  0  0  0
    1.5000    0.7530    1.7340 C   0  0  0  0  0  0  0  0  0  0  0  0
    2.0710    1.5590    2.5120 O   0  0  0  0  0  0  0  0  0  0  0  0
    0.1250    4.0000    0.1550 H   0  0  0  0  0  0  0  0  0  0  0  0
    1.7160    4.5770   -0.4180 H   0  0  0  0  0  0  0  0  0  0  0  0
    2.9670    1.4340   -1.2940 H   0  0  0  0  0  0  0  0  0  0  0  0
    3.1790    2.3250    0.2330 H   0  0  0  0  0  0  0  0  0  0  0  0
    3.1230   -0.0340    0.6220 H   0  0  0  0  0  0  0  0  0  0  0  0
    0.3880   -0.2590   -0.6110 H   0  0  0  0  0  0  0  0  0  0  0  0
    0.2710    0.1870    2.1470 N   0  0  0  0  0  0  0  0  0  0  0  0
   -0.3790    0.4700    3.4000 C   0  0  1  0  0  0  0  0  0  0  0  0
   -1.7780    1.0030    3.2300 C   0  0  0  0  0  0  0  0  0  0  0  0
   -2.4450    1.3050    4.8920 S   0  0  0  0  0  0  0  0  0  0  0  0
   -0.4730   -0.7640    4.2170 C   0  0  0  0  0  0  0  0  0  0  0  0
   -0.9870   -0.7790    5.3620 O   0  0  0  0  0  0  0  0  0  0  0  0
    0.0210   -1.9560    3.7130 O   0  0  0  0  0  0  0  0  0  0  0  0
   -0.1770   -0.4790    1.4790 H   0  0  0  0  0  0  0  0  0  0  0  0
    0.1850    1.2060    4.0130 H   0  0  0  0  0  0  0  0  0  0  0  0
   -1.8150    1.9650    2.7010 H   0  0  0  0  0  0  0  0  0  0  0  0
   -2.4490    0.2760    2.7340 H   0  0  0  0  0  0  0  0  0  0  0  0
   -1.3510    1.7990    5.6730 H   0  0  0  0  0  0  0  0  0  0  0  0
  1  9  1  0  0  0  0
  1 10  1  0  0  0  0
  1  2  1  0  0  0  0
  2 11  1  1  0  0  0
  2  3  1  0  0  0  0
  3 12  1  0  0  0  0
  4 13  1  6  0  0  0
  4  2  1  0  0  0  0
  4  6  1  0  0  0  0
  5  4  1  0  0  0  0
  5 14  1  0  0  0  0
  6  7  2  0  0  0  0
  6 21  1  0  0  0  0
  8  1  1  0  0  0  0
 15  5  1  0  0  0  0
 16 24  1  0  0  0  0
 17 19  1  0  0  0  0
 17 16  1  0  0  0  0
 18 17  2  0  0  0  0
 19 27  1  0  0  0  0
 19 20  1  0  0  0  0
 20 28  1  1  0  0  0
 20 22  1  0  0  0  0
 21 20  1  0  0  0  0
 22 30  1  0  0  0  0
 22 23  2  0  0  0  0
 25 16  1  0  0  0  0
 26 19  1  0  0  0  0
 29 21  1  0  0  0  0
 30 31  1  0  0  0  0
 31 38  1  1  0  0  0
 31 34  1  0  0  0  0
 32 31  1  0  0  0  0
 32 33  1  0  0  0  0
 33 41  1  0  0  0  0
 34 35  1  0  0  0  0
 36 34  2  0  0  0  0
 37 30  1  0  0  0  0
 39 32  1  0  0  0  0
 40 32  1  0  0  0  0
M  END
$$$$
