TND.pdb
 OpenBabel07022419113D

 43 42  0  0  1  0  0  0  0  0999 V2000
    0.7130   -3.2540    2.7900 C   0  0  0  0  0  0  0  0  0  0  0  0
    1.7660   -2.2380    3.1230 C   0  0  1  0  0  0  0  0  0  0  0  0
    2.4420   -1.8560    1.9810 O   0  0  0  0  0  0  0  0  0  0  0  0
    1.2180   -1.0720    3.9090 C   0  0  2  0  0  0  0  0  0  0  0  0
    0.5210   -1.4940    5.0920 N   0  0  0  0  0  0  0  0  0  0  0  0
    0.3390   -0.1910    3.1120 C   0  0  0  0  0  0  0  0  0  0  0  0
   -0.8250    0.0080    3.5500 O   0  0  0  0  0  0  0  0  0  0  0  0
   -0.1060   -3.3080    3.5470 H   0  0  0  0  0  0  0  0  0  0  0  0
    0.2730   -3.0870    1.7650 H   0  0  0  0  0  0  0  0  0  0  0  0
    1.1340   -4.2900    2.7410 H   0  0  0  0  0  0  0  0  0  0  0  0
    2.5070   -2.7490    3.7870 H   0  0  0  0  0  0  0  0  0  0  0  0
    3.1300   -2.5460    1.7960 H   0  0  0  0  0  0  0  0  0  0  0  0
    2.0810   -0.4450    4.2560 H   0  0  0  0  0  0  0  0  0  0  0  0
   -0.5180   -1.4400    4.9780 H   0  0  0  0  0  0  0  0  0  0  0  0
    0.8400   -2.3980    5.4700 H   0  0  0  0  0  0  0  0  0  0  0  0
   -0.4550    4.2240    2.9070 N   0  0  0  0  0  0  0  0  0  0  0  0
    0.5130    3.3170    2.3910 C   0  0  0  0  0  0  0  0  0  0  0  0
    1.5370    3.0530    3.1030 O   0  0  0  0  0  0  0  0  0  0  0  0
    0.3220    2.7020    1.0530 C   0  0  0  0  0  0  0  0  0  0  0  0
   -0.1940    1.2820    1.1780 C   0  0  2  0  0  0  0  0  0  0  0  0
    0.7080    0.4350    1.9100 N   0  0  0  0  0  0  0  0  0  0  0  0
   -0.4900    0.7910   -0.1730 C   0  0  0  0  0  0  0  0  0  0  0  0
   -1.2800    1.4890   -0.8780 O   0  0  0  0  0  0  0  0  0  0  0  0
   -1.0500    4.7840    2.2590 H   0  0  0  0  0  0  0  0  0  0  0  0
   -0.6040    4.3600    3.9300 H   0  0  0  0  0  0  0  0  0  0  0  0
    1.2720    2.7320    0.4540 H   0  0  0  0  0  0  0  0  0  0  0  0
   -0.3930    3.3430    0.5000 H   0  0  0  0  0  0  0  0  0  0  0  0
   -1.1810    1.3470    1.7160 H   0  0  0  0  0  0  0  0  0  0  0  0
    1.6610    0.2850    1.5340 H   0  0  0  0  0  0  0  0  0  0  0  0
    0.0250   -0.3770   -0.7470 N   0  0  0  0  0  0  0  0  0  0  0  0
   -0.3170   -0.8170   -2.1230 C   0  0  1  0  0  0  0  0  0  0  0  0
    0.9390   -0.8960   -2.9470 C   0  0  0  0  0  0  0  0  0  0  0  0
    0.6410   -1.2980   -4.3270 C   0  0  0  0  0  0  0  0  0  0  0  0
    1.6000   -1.6550   -5.1020 O   0  0  0  0  0  0  0  0  0  0  0  0
   -0.9220   -2.1530   -1.9430 C   0  0  0  0  0  0  0  0  0  0  0  0
   -1.0380   -2.6640   -0.8090 O   0  0  0  0  0  0  0  0  0  0  0  0
   -0.6130   -1.3340   -4.9110 O   0  0  0  0  0  0  0  0  0  0  0  0
   -1.3720   -2.8670   -3.0180 O   0  0  0  0  0  0  0  0  0  0  0  0
    0.6710   -0.9670   -0.2000 H   0  0  0  0  0  0  0  0  0  0  0  0
   -1.0060   -0.1210   -2.6040 H   0  0  0  0  0  0  0  0  0  0  0  0
    1.6840   -1.5730   -2.4560 H   0  0  0  0  0  0  0  0  0  0  0  0
    1.3710    0.1440   -3.0020 H   0  0  0  0  0  0  0  0  0  0  0  0
   -0.8660   -1.9900   -5.6420 H   0  0  0  0  0  0  0  0  0  0  0  0
  1  2  1  0  0  0  0
  1  8  1  0  0  0  0
  2 11  1  1  0  0  0
  2  4  1  0  0  0  0
  3  2  1  0  0  0  0
  4 13  1  1  0  0  0
  4  5  1  0  0  0  0
  5 15  1  0  0  0  0
  6  7  2  0  0  0  0
  6  4  1  0  0  0  0
  9  1  1  0  0  0  0
 10  1  1  0  0  0  0
 12  3  1  0  0  0  0
 14  5  1  0  0  0  0
 16 25  1  0  0  0  0
 17 16  1  0  0  0  0
 17 18  2  0  0  0  0
 19 20  1  0  0  0  0
 19 17  1  0  0  0  0
 20 28  1  1  0  0  0
 20 21  1  0  0  0  0
 21  6  1  0  0  0  0
 22 20  1  0  0  0  0
 23 22  2  0  0  0  0
 24 16  1  0  0  0  0
 26 19  1  0  0  0  0
 27 19  1  0  0  0  0
 29 21  1  0  0  0  0
 30 39  1  0  0  0  0
 30 22  1  0  0  0  0
 31 40  1  6  0  0  0
 31 35  1  0  0  0  0
 31 30  1  0  0  0  0
 32 41  1  0  0  0  0
 32 31  1  0  0  0  0
 33 32  1  0  0  0  0
 34 33  2  0  0  0  0
 35 36  1  0  0  0  0
 37 33  1  0  0  0  0
 38 35  2  0  0  0  0
 42 32  1  0  0  0  0
 43 37  1  0  0  0  0
M  END
$$$$
