TNE.pdb
 OpenBabel07022419113D

 46 45  0  0  1  0  0  0  0  0999 V2000
    3.0770   -3.2820   -4.0060 C   0  0  0  0  0  0  0  0  0  0  0  0
    2.9900   -2.7210   -2.6080 C   0  0  1  0  0  0  0  0  0  0  0  0
    3.9660   -1.7900   -2.3150 O   0  0  0  0  0  0  0  0  0  0  0  0
    1.6410   -2.0940   -2.3070 C   0  0  2  0  0  0  0  0  0  0  0  0
    1.4080   -0.9130   -3.0740 N   0  0  0  0  0  0  0  0  0  0  0  0
    1.5370   -1.8810   -0.8410 C   0  0  0  0  0  0  0  0  0  0  0  0
    1.6520   -2.8660   -0.0300 O   0  0  0  0  0  0  0  0  0  0  0  0
    2.4930   -2.6980   -4.7460 H   0  0  0  0  0  0  0  0  0  0  0  0
    4.1620   -3.3120   -4.2700 H   0  0  0  0  0  0  0  0  0  0  0  0
    2.7380   -4.3530   -3.9990 H   0  0  0  0  0  0  0  0  0  0  0  0
    3.1640   -3.5850   -1.9030 H   0  0  0  0  0  0  0  0  0  0  0  0
    4.5620   -1.6710   -3.0910 H   0  0  0  0  0  0  0  0  0  0  0  0
    0.8900   -2.8630   -2.6610 H   0  0  0  0  0  0  0  0  0  0  0  0
    0.3760   -0.7580   -3.1470 H   0  0  0  0  0  0  0  0  0  0  0  0
    1.8880   -0.9030   -3.9990 H   0  0  0  0  0  0  0  0  0  0  0  0
    3.7970    1.5090    3.3210 N   0  0  0  0  0  0  0  0  0  0  0  0
    2.7010    0.6370    2.9640 C   0  0  0  0  0  0  0  0  0  0  0  0
    2.0440    0.2180    3.9560 O   0  0  0  0  0  0  0  0  0  0  0  0
    2.4370    0.3120    1.5560 C   0  0  0  0  0  0  0  0  0  0  0  0
    1.2110   -0.4800    1.2440 C   0  0  2  0  0  0  0  0  0  0  0  0
    1.3130   -0.6390   -0.2510 N   0  0  0  0  0  0  0  0  0  0  0  0
   -0.0720    0.1920    1.4180 C   0  0  0  0  0  0  0  0  0  0  0  0
   -0.6130    0.7360    0.3860 O   0  0  0  0  0  0  0  0  0  0  0  0
    3.9370    1.7170    4.3240 H   0  0  0  0  0  0  0  0  0  0  0  0
    4.3740    1.8710    2.5490 H   0  0  0  0  0  0  0  0  0  0  0  0
    2.5120    1.2460    0.9500 H   0  0  0  0  0  0  0  0  0  0  0  0
    3.3460   -0.2750    1.2150 H   0  0  0  0  0  0  0  0  0  0  0  0
    1.2660   -1.4990    1.6540 H   0  0  0  0  0  0  0  0  0  0  0  0
    1.2110    0.2120   -0.8220 H   0  0  0  0  0  0  0  0  0  0  0  0
   -0.8260    0.3240    2.6060 N   0  0  0  0  0  0  0  0  0  0  0  0
   -2.1070    1.0450    2.6490 C   0  0  1  0  0  0  0  0  0  0  0  0
   -3.1730   -0.0220    2.8400 C   0  0  0  0  0  0  0  0  0  0  0  0
   -4.5640    0.4980    2.9090 C   0  0  0  0  0  0  0  0  0  0  0  0
   -5.4690   -0.6940    3.0820 C   0  0  0  0  0  0  0  0  0  0  0  0
   -6.6900   -0.5240    3.2100 O   0  0  0  0  0  0  0  0  0  0  0  0
   -2.0960    2.0070    3.7400 C   0  0  0  0  0  0  0  0  0  0  0  0
   -1.1040    2.1060    4.4990 O   0  0  0  0  0  0  0  0  0  0  0  0
   -4.9890   -1.9970    3.1030 O   0  0  0  0  0  0  0  0  0  0  0  0
   -3.1700    2.8370    3.9750 O   0  0  0  0  0  0  0  0  0  0  0  0
   -0.4470   -0.1310    3.4530 H   0  0  0  0  0  0  0  0  0  0  0  0
   -2.2620    1.4610    1.6360 H   0  0  0  0  0  0  0  0  0  0  0  0
   -2.8800   -0.5910    3.7670 H   0  0  0  0  0  0  0  0  0  0  0  0
   -3.0280   -0.7380    2.0000 H   0  0  0  0  0  0  0  0  0  0  0  0
   -4.8220    0.8840    1.8800 H   0  0  0  0  0  0  0  0  0  0  0  0
   -4.7780    1.2510    3.6610 H   0  0  0  0  0  0  0  0  0  0  0  0
   -5.5140   -2.7830    2.7150 H   0  0  0  0  0  0  0  0  0  0  0  0
  1 10  1  0  0  0  0
  1  2  1  0  0  0  0
  2  3  1  0  0  0  0
  2  4  1  0  0  0  0
  2 11  1  1  0  0  0
  4 13  1  6  0  0  0
  4  6  1  0  0  0  0
  5  4  1  0  0  0  0
  6 21  1  0  0  0  0
  6  7  2  0  0  0  0
  8  1  1  0  0  0  0
  9  1  1  0  0  0  0
 12  3  1  0  0  0  0
 14  5  1  0  0  0  0
 15  5  1  0  0  0  0
 16 24  1  0  0  0  0
 17 16  1  0  0  0  0
 17 18  2  0  0  0  0
 19 17  1  0  0  0  0
 20 22  1  0  0  0  0
 20 19  1  0  0  0  0
 20 28  1  1  0  0  0
 21 20  1  0  0  0  0
 22 30  1  0  0  0  0
 23 22  2  0  0  0  0
 25 16  1  0  0  0  0
 26 19  1  0  0  0  0
 27 19  1  0  0  0  0
 29 21  1  0  0  0  0
 30 31  1  0  0  0  0
 30 40  1  0  0  0  0
 31 41  1  6  0  0  0
 31 32  1  0  0  0  0
 31 36  1  0  0  0  0
 32 33  1  0  0  0  0
 32 42  1  0  0  0  0
 33 34  1  0  0  0  0
 33 45  1  0  0  0  0
 34 38  1  0  0  0  0
 34 35  2  0  0  0  0
 36 39  2  0  0  0  0
 36 37  1  0  0  0  0
 43 32  1  0  0  0  0
 44 33  1  0  0  0  0
 46 38  1  0  0  0  0
M  END
$$$$
