TNF.pdb
 OpenBabel07022419113D

 50 50  0  0  1  0  0  0  0  0999 V2000
    5.7510   -3.8840    2.3050 C   0  0  0  0  0  0  0  0  0  0  0  0
    5.0270   -2.7280    1.6520 C   0  0  1  0  0  0  0  0  0  0  0  0
    4.2930   -3.2460    0.5910 O   0  0  0  0  0  0  0  0  0  0  0  0
    4.1510   -2.0670    2.6860 C   0  0  2  0  0  0  0  0  0  0  0  0
    3.1980   -2.9780    3.2570 N   0  0  0  0  0  0  0  0  0  0  0  0
    3.4220   -0.9240    2.0490 C   0  0  0  0  0  0  0  0  0  0  0  0
    4.1400   -0.0410    1.5440 O   0  0  0  0  0  0  0  0  0  0  0  0
    6.0420   -3.6330    3.3440 H   0  0  0  0  0  0  0  0  0  0  0  0
    5.1860   -4.8350    2.2210 H   0  0  0  0  0  0  0  0  0  0  0  0
    6.6820   -4.0620    1.6920 H   0  0  0  0  0  0  0  0  0  0  0  0
    5.7590   -2.0080    1.2570 H   0  0  0  0  0  0  0  0  0  0  0  0
    3.7190   -2.5910    0.1380 H   0  0  0  0  0  0  0  0  0  0  0  0
    4.7970   -1.6620    3.4840 H   0  0  0  0  0  0  0  0  0  0  0  0
    2.6010   -3.4330    2.5440 H   0  0  0  0  0  0  0  0  0  0  0  0
    2.5950   -2.5650    3.9850 H   0  0  0  0  0  0  0  0  0  0  0  0
    3.5090    3.1610    1.4790 N   0  0  0  0  0  0  0  0  0  0  0  0
    2.6200    2.0880    1.8480 C   0  0  0  0  0  0  0  0  0  0  0  0
    2.5620    1.8610    3.0910 O   0  0  0  0  0  0  0  0  0  0  0  0
    1.8520    1.3340    0.8430 C   0  0  0  0  0  0  0  0  0  0  0  0
    1.1750    0.1620    1.4900 C   0  0  2  0  0  0  0  0  0  0  0  0
    2.0360   -0.8580    2.0260 N   0  0  0  0  0  0  0  0  0  0  0  0
   -0.0470   -0.3160    0.8590 C   0  0  0  0  0  0  0  0  0  0  0  0
   -0.2720   -1.5760    0.8590 O   0  0  0  0  0  0  0  0  0  0  0  0
    3.2520    3.7930    0.6870 H   0  0  0  0  0  0  0  0  0  0  0  0
    4.4000    3.3340    1.9720 H   0  0  0  0  0  0  0  0  0  0  0  0
    2.4780    1.0640   -0.0350 H   0  0  0  0  0  0  0  0  0  0  0  0
    1.0700    2.0100    0.4510 H   0  0  0  0  0  0  0  0  0  0  0  0
    0.8050    0.7010    2.4870 H   0  0  0  0  0  0  0  0  0  0  0  0
    1.5450   -1.7110    2.4830 H   0  0  0  0  0  0  0  0  0  0  0  0
   -1.0220    0.4950    0.2360 N   0  0  0  0  0  0  0  0  0  0  0  0
   -2.2220   -0.1030   -0.3650 C   0  0  1  0  0  0  0  0  0  0  0  0
   -3.4570    0.5030    0.2080 C   0  0  0  0  0  0  0  0  0  0  0  0
   -4.6560   -0.0950   -0.4010 C   0  0  0  0  0  0  0  0  0  0  0  0
   -5.2030   -1.2730    0.1320 C   0  0  0  0  0  0  0  0  0  0  0  0
   -6.3390   -1.8420   -0.4020 C   0  0  0  0  0  0  0  0  0  0  0  0
   -6.9540   -1.2530   -1.4770 C   0  0  0  0  0  0  0  0  0  0  0  0
   -6.4620   -0.1020   -2.0370 C   0  0  0  0  0  0  0  0  0  0  0  0
   -5.3130    0.4550   -1.4800 C   0  0  0  0  0  0  0  0  0  0  0  0
   -2.1580    0.0690   -1.8290 C   0  0  0  0  0  0  0  0  0  0  0  0
   -1.1920    0.7250   -2.3220 O   0  0  0  0  0  0  0  0  0  0  0  0
   -3.0650   -0.4290   -2.7390 O   0  0  0  0  0  0  0  0  0  0  0  0
   -0.8620    1.5200    0.2210 H   0  0  0  0  0  0  0  0  0  0  0  0
   -2.2090   -1.1930   -0.1220 H   0  0  0  0  0  0  0  0  0  0  0  0
   -3.4680    1.5980   -0.0030 H   0  0  0  0  0  0  0  0  0  0  0  0
   -3.5290    0.3350    1.3060 H   0  0  0  0  0  0  0  0  0  0  0  0
   -4.7110   -1.7230    0.9720 H   0  0  0  0  0  0  0  0  0  0  0  0
   -6.7850   -2.7520   -0.0090 H   0  0  0  0  0  0  0  0  0  0  0  0
   -7.8610   -1.6790   -1.9270 H   0  0  0  0  0  0  0  0  0  0  0  0
   -6.9180    0.4060   -2.8970 H   0  0  0  0  0  0  0  0  0  0  0  0
   -4.9030    1.3730   -1.8970 H   0  0  0  0  0  0  0  0  0  0  0  0
  1  8  1  0  0  0  0
  2 11  1  6  0  0  0
  2  1  1  0  0  0  0
  2  4  1  0  0  0  0
  3  2  1  0  0  0  0
  4  5  1  0  0  0  0
  4 13  1  1  0  0  0
  5 15  1  0  0  0  0
  6  4  1  0  0  0  0
  7  6  2  0  0  0  0
  9  1  1  0  0  0  0
 10  1  1  0  0  0  0
 12  3  1  0  0  0  0
 14  5  1  0  0  0  0
 16 17  1  0  0  0  0
 16 25  1  0  0  0  0
 17 18  2  0  0  0  0
 19 20  1  0  0  0  0
 19 17  1  0  0  0  0
 20 21  1  0  0  0  0
 20 28  1  1  0  0  0
 21  6  1  0  0  0  0
 21 29  1  0  0  0  0
 22 23  2  0  0  0  0
 22 20  1  0  0  0  0
 24 16  1  0  0  0  0
 26 19  1  0  0  0  0
 27 19  1  0  0  0  0
 30 22  1  0  0  0  0
 31 43  1  1  0  0  0
 31 32  1  0  0  0  0
 31 30  1  0  0  0  0
 32 45  1  0  0  0  0
 33 34  1  0  0  0  0
 33 32  1  0  0  0  0
 34 46  1  0  0  0  0
 35 47  1  0  0  0  0
 35 34  2  0  0  0  0
 36 35  1  0  0  0  0
 37 38  1  0  0  0  0
 37 36  2  0  0  0  0
 38 33  2  0  0  0  0
 39 31  1  0  0  0  0
 40 39  1  0  0  0  0
 41 39  2  0  0  0  0
 42 30  1  0  0  0  0
 44 32  1  0  0  0  0
 48 36  1  0  0  0  0
 49 37  1  0  0  0  0
 50 38  1  0  0  0  0
M  END
$$$$
