TNI.pdb
 OpenBabel07022419113D

 49 48  0  0  1  0  0  0  0  0999 V2000
   -1.7630    0.1820    5.7690 C   0  0  0  0  0  0  0  0  0  0  0  0
   -0.6670    0.2660    4.7370 C   0  0  1  0  0  0  0  0  0  0  0  0
    0.4710    0.7550    5.3550 O   0  0  0  0  0  0  0  0  0  0  0  0
   -0.4350   -1.1370    4.1580 C   0  0  2  0  0  0  0  0  0  0  0  0
   -0.0560   -1.9390    5.3300 N   0  0  0  0  0  0  0  0  0  0  0  0
    0.6260   -1.1300    3.1590 C   0  0  0  0  0  0  0  0  0  0  0  0
    1.8530   -1.2110    3.4860 O   0  0  0  0  0  0  0  0  0  0  0  0
   -1.3290    0.0870    6.8040 H   0  0  0  0  0  0  0  0  0  0  0  0
   -2.3970   -0.6920    5.6310 H   0  0  0  0  0  0  0  0  0  0  0  0
   -2.4010    1.0960    5.7750 H   0  0  0  0  0  0  0  0  0  0  0  0
   -0.9550    0.9440    3.9110 H   0  0  0  0  0  0  0  0  0  0  0  0
    0.9740    0.0620    5.8440 H   0  0  0  0  0  0  0  0  0  0  0  0
   -1.3900   -1.4940    3.7880 H   0  0  0  0  0  0  0  0  0  0  0  0
   -0.6080   -2.8460    5.2500 H   0  0  0  0  0  0  0  0  0  0  0  0
    0.9510   -2.2370    5.2220 H   0  0  0  0  0  0  0  0  0  0  0  0
    4.3360   -2.3840    0.0480 N   0  0  0  0  0  0  0  0  0  0  0  0
    3.0160   -2.5470   -0.4250 C   0  0  0  0  0  0  0  0  0  0  0  0
    2.8300   -2.7390   -1.6570 O   0  0  0  0  0  0  0  0  0  0  0  0
    1.8700   -2.4890    0.5050 C   0  0  0  0  0  0  0  0  0  0  0  0
    1.4800   -1.0260    0.8270 C   0  0  2  0  0  0  0  0  0  0  0  0
    0.3600   -1.0360    1.7380 N   0  0  0  0  0  0  0  0  0  0  0  0
    1.3170   -0.2650   -0.4060 C   0  0  0  0  0  0  0  0  0  0  0  0
    2.3590   -0.1290   -1.1350 O   0  0  0  0  0  0  0  0  0  0  0  0
    5.1400   -2.1280   -0.5560 H   0  0  0  0  0  0  0  0  0  0  0  0
    4.5270   -2.5320    1.0650 H   0  0  0  0  0  0  0  0  0  0  0  0
    2.0600   -3.0000    1.4630 H   0  0  0  0  0  0  0  0  0  0  0  0
    0.9630   -2.9190    0.0150 H   0  0  0  0  0  0  0  0  0  0  0  0
    2.3570   -0.6530    1.3780 H   0  0  0  0  0  0  0  0  0  0  0  0
   -0.6240   -0.9860    1.4660 H   0  0  0  0  0  0  0  0  0  0  0  0
   -2.1530   -1.3270   -1.8310 C   0  0  0  0  0  0  0  0  0  0  0  0
   -2.1120   -0.2050   -2.8470 C   0  0  0  0  0  0  0  0  0  0  0  0
   -0.7340    0.2950   -3.1460 C   0  0  2  0  0  0  0  0  0  0  0  0
    0.0760   -0.8570   -3.6780 C   0  0  0  0  0  0  0  0  0  0  0  0
   -0.0650    1.0610   -2.0410 C   0  0  2  0  0  0  0  0  0  0  0  0
    0.0960    0.3140   -0.8160 N   0  0  0  0  0  0  0  0  0  0  0  0
   -0.6080    2.4140   -1.8730 C   0  0  0  0  0  0  0  0  0  0  0  0
   -0.7520    3.1520   -2.8700 O   0  0  0  0  0  0  0  0  0  0  0  0
   -0.9580    2.8810   -0.6320 O   0  0  0  0  0  0  0  0  0  0  0  0
   -2.6820   -0.9150   -0.9280 H   0  0  0  0  0  0  0  0  0  0  0  0
   -1.1630   -1.7100   -1.5440 H   0  0  0  0  0  0  0  0  0  0  0  0
   -2.7900   -2.1870   -2.1720 H   0  0  0  0  0  0  0  0  0  0  0  0
   -2.4490   -0.7010   -3.8170 H   0  0  0  0  0  0  0  0  0  0  0  0
   -2.8580    0.5570   -2.6340 H   0  0  0  0  0  0  0  0  0  0  0  0
   -0.8220    1.0180   -4.0030 H   0  0  0  0  0  0  0  0  0  0  0  0
    0.6540   -0.5830   -4.6050 H   0  0  0  0  0  0  0  0  0  0  0  0
    0.7250   -1.3400   -2.9020 H   0  0  0  0  0  0  0  0  0  0  0  0
   -0.6460   -1.6760   -3.9890 H   0  0  0  0  0  0  0  0  0  0  0  0
    0.9940    1.2240   -2.4310 H   0  0  0  0  0  0  0  0  0  0  0  0
   -0.7250    0.1820   -0.1790 H   0  0  0  0  0  0  0  0  0  0  0  0
  1 10  1  0  0  0  0
  1  8  1  0  0  0  0
  2 11  1  6  0  0  0
  2  3  1  0  0  0  0
  2  1  1  0  0  0  0
  3 12  1  0  0  0  0
  4 13  1  6  0  0  0
  4  2  1  0  0  0  0
  4  5  1  0  0  0  0
  6  7  2  0  0  0  0
  6  4  1  0  0  0  0
  9  1  1  0  0  0  0
 14  5  1  0  0  0  0
 15  5  1  0  0  0  0
 16 25  1  0  0  0  0
 17 16  1  0  0  0  0
 17 19  1  0  0  0  0
 18 17  2  0  0  0  0
 19 20  1  0  0  0  0
 19 26  1  0  0  0  0
 20 28  1  1  0  0  0
 20 21  1  0  0  0  0
 21  6  1  0  0  0  0
 22 20  1  0  0  0  0
 23 22  2  0  0  0  0
 24 16  1  0  0  0  0
 27 19  1  0  0  0  0
 29 21  1  0  0  0  0
 30 40  1  0  0  0  0
 30 39  1  0  0  0  0
 31 43  1  0  0  0  0
 31 30  1  0  0  0  0
 32 44  1  6  0  0  0
 32 31  1  0  0  0  0
 32 34  1  0  0  0  0
 33 32  1  0  0  0  0
 33 46  1  0  0  0  0
 34 48  1  6  0  0  0
 34 36  1  0  0  0  0
 34 35  1  0  0  0  0
 35 22  1  0  0  0  0
 35 49  1  0  0  0  0
 36 38  1  0  0  0  0
 37 36  2  0  0  0  0
 41 30  1  0  0  0  0
 42 31  1  0  0  0  0
 45 33  1  0  0  0  0
 47 33  1  0  0  0  0
M  END
$$$$
