TNK.pdb
 OpenBabel07022419113D

 51 50  0  0  1  0  0  0  0  0999 V2000
    3.2110   -3.7190    4.6950 C   0  0  0  0  0  0  0  0  0  0  0  0
    4.0760   -3.7780    3.4660 C   0  0  1  0  0  0  0  0  0  0  0  0
    4.6740   -5.0600    3.4580 O   0  0  0  0  0  0  0  0  0  0  0  0
    3.3040   -3.6710    2.1930 C   0  0  2  0  0  0  0  0  0  0  0  0
    4.1620   -3.8110    1.0580 N   0  0  0  0  0  0  0  0  0  0  0  0
    2.5060   -2.4330    2.0650 C   0  0  0  0  0  0  0  0  0  0  0  0
    1.7060   -2.1790    3.0020 O   0  0  0  0  0  0  0  0  0  0  0  0
    2.1980   -4.1330    4.4770 H   0  0  0  0  0  0  0  0  0  0  0  0
    3.6470   -4.3810    5.4710 H   0  0  0  0  0  0  0  0  0  0  0  0
    3.1600   -2.7050    5.1400 H   0  0  0  0  0  0  0  0  0  0  0  0
    4.9020   -3.0510    3.5450 H   0  0  0  0  0  0  0  0  0  0  0  0
    3.9000   -5.6950    3.5040 H   0  0  0  0  0  0  0  0  0  0  0  0
    2.5640   -4.5180    2.1880 H   0  0  0  0  0  0  0  0  0  0  0  0
    5.0600   -4.2660    1.3310 H   0  0  0  0  0  0  0  0  0  0  0  0
    3.6830   -4.2880    0.2710 H   0  0  0  0  0  0  0  0  0  0  0  0
    1.1700    2.6820    2.1450 N   0  0  0  0  0  0  0  0  0  0  0  0
    1.8280    2.1930    0.9860 C   0  0  0  0  0  0  0  0  0  0  0  0
    1.7460    2.9330   -0.0430 O   0  0  0  0  0  0  0  0  0  0  0  0
    2.5470    0.9110    1.0090 C   0  0  0  0  0  0  0  0  0  0  0  0
    1.7300   -0.3260    0.9600 C   0  0  2  0  0  0  0  0  0  0  0  0
    2.5720   -1.5320    0.9910 N   0  0  0  0  0  0  0  0  0  0  0  0
    0.7310   -0.4290   -0.1200 C   0  0  0  0  0  0  0  0  0  0  0  0
    0.7500   -1.4290   -0.9370 O   0  0  0  0  0  0  0  0  0  0  0  0
    0.2220    2.3890    2.4430 H   0  0  0  0  0  0  0  0  0  0  0  0
    1.6720    3.3780    2.7300 H   0  0  0  0  0  0  0  0  0  0  0  0
    3.3280    0.9700    0.2170 H   0  0  0  0  0  0  0  0  0  0  0  0
    3.1660    0.9460    1.9610 H   0  0  0  0  0  0  0  0  0  0  0  0
    1.1440   -0.3610    1.9050 H   0  0  0  0  0  0  0  0  0  0  0  0
    3.2390   -1.7500    0.2160 H   0  0  0  0  0  0  0  0  0  0  0  0
   -0.2990    0.4940   -0.3620 N   0  0  0  0  0  0  0  0  0  0  0  0
   -1.2660    0.2980   -1.4710 C   0  0  1  0  0  0  0  0  0  0  0  0
   -2.6490    0.1730   -0.9290 C   0  0  0  0  0  0  0  0  0  0  0  0
   -3.6910   -0.0360   -1.9670 C   0  0  0  0  0  0  0  0  0  0  0  0
   -5.0810   -0.1810   -1.3690 C   0  0  0  0  0  0  0  0  0  0  0  0
   -5.5070    1.0320   -0.5860 C   0  0  0  0  0  0  0  0  0  0  0  0
   -6.8320    0.8810   -0.0290 N   0  0  0  0  0  0  0  0  0  0  0  0
   -1.0510    1.3620   -2.4590 C   0  0  0  0  0  0  0  0  0  0  0  0
   -0.1990    2.3020   -2.3040 O   0  0  0  0  0  0  0  0  0  0  0  0
   -1.7510    1.4460   -3.6540 O   0  0  0  0  0  0  0  0  0  0  0  0
   -0.3840    1.3210    0.2570 H   0  0  0  0  0  0  0  0  0  0  0  0
   -1.0260   -0.6640   -1.9940 H   0  0  0  0  0  0  0  0  0  0  0  0
   -2.8870    1.0540   -0.2590 H   0  0  0  0  0  0  0  0  0  0  0  0
   -2.7180   -0.7020   -0.2180 H   0  0  0  0  0  0  0  0  0  0  0  0
   -3.6930    0.7650   -2.7390 H   0  0  0  0  0  0  0  0  0  0  0  0
   -3.4780   -1.0030   -2.4720 H   0  0  0  0  0  0  0  0  0  0  0  0
   -5.1210   -1.0900   -0.7600 H   0  0  0  0  0  0  0  0  0  0  0  0
   -5.7680   -0.3170   -2.2270 H   0  0  0  0  0  0  0  0  0  0  0  0
   -4.8330    1.2560    0.2550 H   0  0  0  0  0  0  0  0  0  0  0  0
   -5.5090    1.9300   -1.2350 H   0  0  0  0  0  0  0  0  0  0  0  0
   -7.2860   -0.0150   -0.2310 H   0  0  0  0  0  0  0  0  0  0  0  0
   -6.9000    1.1950    0.9510 H   0  0  0  0  0  0  0  0  0  0  0  0
  1 10  1  0  0  0  0
  1  9  1  0  0  0  0
  2 11  1  1  0  0  0
  2  1  1  0  0  0  0
  3  2  1  0  0  0  0
  3 12  1  0  0  0  0
  4 13  1  6  0  0  0
  4  2  1  0  0  0  0
  5 14  1  0  0  0  0
  5  4  1  0  0  0  0
  6  4  1  0  0  0  0
  6  7  2  0  0  0  0
  8  1  1  0  0  0  0
 15  5  1  0  0  0  0
 16 24  1  0  0  0  0
 16 25  1  0  0  0  0
 17 19  1  0  0  0  0
 17 16  1  0  0  0  0
 18 17  2  0  0  0  0
 19 27  1  0  0  0  0
 20 21  1  0  0  0  0
 20 19  1  0  0  0  0
 20 28  1  1  0  0  0
 21  6  1  0  0  0  0
 22 20  1  0  0  0  0
 23 22  2  0  0  0  0
 26 19  1  0  0  0  0
 29 21  1  0  0  0  0
 30 22  1  0  0  0  0
 30 40  1  0  0  0  0
 31 41  1  6  0  0  0
 31 32  1  0  0  0  0
 31 30  1  0  0  0  0
 32 42  1  0  0  0  0
 32 43  1  0  0  0  0
 33 34  1  0  0  0  0
 33 32  1  0  0  0  0
 34 46  1  0  0  0  0
 34 35  1  0  0  0  0
 35 36  1  0  0  0  0
 35 48  1  0  0  0  0
 36 51  1  0  0  0  0
 37 38  1  0  0  0  0
 37 31  1  0  0  0  0
 39 37  2  0  0  0  0
 44 33  1  0  0  0  0
 45 33  1  0  0  0  0
 47 34  1  0  0  0  0
 49 35  1  0  0  0  0
 50 36  1  0  0  0  0
M  END
$$$$
