TNN.pdb
 OpenBabel07022419113D

 44 43  0  0  1  0  0  0  0  0999 V2000
    1.9760   -4.1280    4.2970 C   0  0  0  0  0  0  0  0  0  0  0  0
    1.9150   -2.6550    4.0150 C   0  0  1  0  0  0  0  0  0  0  0  0
    3.1750   -2.2300    3.6240 O   0  0  0  0  0  0  0  0  0  0  0  0
    0.8530   -2.3680    2.9940 C   0  0  2  0  0  0  0  0  0  0  0  0
    1.1790   -3.0420    1.7550 N   0  0  0  0  0  0  0  0  0  0  0  0
    0.7300   -0.9280    2.6890 C   0  0  0  0  0  0  0  0  0  0  0  0
    0.4500   -0.1560    3.6440 O   0  0  0  0  0  0  0  0  0  0  0  0
    1.7650   -4.3510    5.3780 H   0  0  0  0  0  0  0  0  0  0  0  0
    1.2790   -4.7330    3.6860 H   0  0  0  0  0  0  0  0  0  0  0  0
    2.9990   -4.5490    4.1220 H   0  0  0  0  0  0  0  0  0  0  0  0
    1.6520   -2.1320    4.9610 H   0  0  0  0  0  0  0  0  0  0  0  0
    3.8860   -2.8650    3.9030 H   0  0  0  0  0  0  0  0  0  0  0  0
   -0.0930   -2.8140    3.3620 H   0  0  0  0  0  0  0  0  0  0  0  0
    2.1330   -2.8320    1.4240 H   0  0  0  0  0  0  0  0  0  0  0  0
    1.0340   -4.0630    1.7770 H   0  0  0  0  0  0  0  0  0  0  0  0
    2.0680    4.0810    1.2910 N   0  0  0  0  0  0  0  0  0  0  0  0
    1.8580    3.0750    0.2950 C   0  0  0  0  0  0  0  0  0  0  0  0
    1.5100    3.5040   -0.8330 O   0  0  0  0  0  0  0  0  0  0  0  0
    2.0360    1.6360    0.5730 C   0  0  0  0  0  0  0  0  0  0  0  0
    0.7770    1.0710    1.1240 C   0  0  2  0  0  0  0  0  0  0  0  0
    0.8990   -0.3570    1.4210 N   0  0  0  0  0  0  0  0  0  0  0  0
   -0.3820    1.2290    0.2330 C   0  0  0  0  0  0  0  0  0  0  0  0
   -0.7060    2.3810   -0.1480 O   0  0  0  0  0  0  0  0  0  0  0  0
    2.3640    5.0510    1.0650 H   0  0  0  0  0  0  0  0  0  0  0  0
    1.9220    3.8480    2.2960 H   0  0  0  0  0  0  0  0  0  0  0  0
    2.8250    1.5630    1.3610 H   0  0  0  0  0  0  0  0  0  0  0  0
    2.3620    1.1630   -0.3780 H   0  0  0  0  0  0  0  0  0  0  0  0
    0.5790    1.6010    2.0890 H   0  0  0  0  0  0  0  0  0  0  0  0
    1.1340   -0.9710    0.6160 H   0  0  0  0  0  0  0  0  0  0  0  0
   -0.8520   -0.8600   -4.4100 N   0  0  0  0  0  0  0  0  0  0  0  0
   -1.0100   -0.1560   -3.1740 C   0  0  0  0  0  0  0  0  0  0  0  0
   -0.1700    0.7240   -2.9140 O   0  0  0  0  0  0  0  0  0  0  0  0
   -2.1500   -0.5390   -2.3280 C   0  0  0  0  0  0  0  0  0  0  0  0
   -2.2570    0.2300   -1.0570 C   0  0  2  0  0  0  0  0  0  0  0  0
   -1.1260    0.1090   -0.1910 N   0  0  0  0  0  0  0  0  0  0  0  0
   -3.4970   -0.2300   -0.3590 C   0  0  0  0  0  0  0  0  0  0  0  0
   -4.6160   -0.2230   -0.9040 O   0  0  0  0  0  0  0  0  0  0  0  0
   -3.4190   -0.6890    0.9530 O   0  0  0  0  0  0  0  0  0  0  0  0
   -0.1490   -1.6080   -4.5350 H   0  0  0  0  0  0  0  0  0  0  0  0
   -1.4500   -0.6410   -5.2430 H   0  0  0  0  0  0  0  0  0  0  0  0
   -2.0620   -1.6320   -2.1290 H   0  0  0  0  0  0  0  0  0  0  0  0
   -3.1000   -0.3720   -2.8980 H   0  0  0  0  0  0  0  0  0  0  0  0
   -2.4050    1.3070   -1.3000 H   0  0  0  0  0  0  0  0  0  0  0  0
   -0.8230   -0.8230    0.1510 H   0  0  0  0  0  0  0  0  0  0  0  0
  1  8  1  0  0  0  0
  2  1  1  0  0  0  0
  2 11  1  1  0  0  0
  3 12  1  0  0  0  0
  3  2  1  0  0  0  0
  4 13  1  1  0  0  0
  4  2  1  0  0  0  0
  5 15  1  0  0  0  0
  5  4  1  0  0  0  0
  6  4  1  0  0  0  0
  6  7  2  0  0  0  0
  9  1  1  0  0  0  0
 10  1  1  0  0  0  0
 14  5  1  0  0  0  0
 16 25  1  0  0  0  0
 17 19  1  0  0  0  0
 17 16  1  0  0  0  0
 18 17  2  0  0  0  0
 19 20  1  0  0  0  0
 19 26  1  0  0  0  0
 20 21  1  0  0  0  0
 20 28  1  1  0  0  0
 21  6  1  0  0  0  0
 22 20  1  0  0  0  0
 23 22  2  0  0  0  0
 24 16  1  0  0  0  0
 27 19  1  0  0  0  0
 29 21  1  0  0  0  0
 30 31  1  0  0  0  0
 31 32  2  0  0  0  0
 31 33  1  0  0  0  0
 33 41  1  0  0  0  0
 33 34  1  0  0  0  0
 34 43  1  6  0  0  0
 34 36  1  0  0  0  0
 34 35  1  0  0  0  0
 35 44  1  0  0  0  0
 35 22  1  0  0  0  0
 36 38  1  0  0  0  0
 37 36  2  0  0  0  0
 39 30  1  0  0  0  0
 40 30  1  0  0  0  0
 42 33  1  0  0  0  0
M  END
$$$$
