TNP.pdb
 OpenBabel07022419113D

 44 44  0  0  1  0  0  0  0  0999 V2000
   -2.3280   -3.6780    0.5580 C   0  0  0  0  0  0  0  0  0  0  0  0
   -1.0880   -2.7930    0.6020 C   0  0  1  0  0  0  0  0  0  0  0  0
   -0.1200   -3.3690    1.4070 O   0  0  0  0  0  0  0  0  0  0  0  0
   -0.4870   -2.6270   -0.7640 C   0  0  2  0  0  0  0  0  0  0  0  0
   -0.0770   -3.9140   -1.3090 N   0  0  0  0  0  0  0  0  0  0  0  0
    0.6120   -1.6580   -0.7390 C   0  0  0  0  0  0  0  0  0  0  0  0
    1.7450   -2.0470   -1.1580 O   0  0  0  0  0  0  0  0  0  0  0  0
   -2.6430   -3.9180    1.5960 H   0  0  0  0  0  0  0  0  0  0  0  0
   -1.9990   -4.6610    0.1120 H   0  0  0  0  0  0  0  0  0  0  0  0
   -3.1100   -3.2810   -0.0810 H   0  0  0  0  0  0  0  0  0  0  0  0
   -1.4240   -1.8420    1.0410 H   0  0  0  0  0  0  0  0  0  0  0  0
    0.6760   -3.6510    0.9030 H   0  0  0  0  0  0  0  0  0  0  0  0
   -1.2780   -2.2710   -1.5040 H   0  0  0  0  0  0  0  0  0  0  0  0
   -0.7180   -4.2770   -2.0510 H   0  0  0  0  0  0  0  0  0  0  0  0
    0.9200   -3.9440   -1.5610 H   0  0  0  0  0  0  0  0  0  0  0  0
    0.0880    1.3660   -3.5910 N   0  0  0  0  0  0  0  0  0  0  0  0
    1.1590    1.1020   -2.7040 C   0  0  0  0  0  0  0  0  0  0  0  0
    2.0700    0.3400   -3.1080 O   0  0  0  0  0  0  0  0  0  0  0  0
    1.2160    1.6830   -1.3700 C   0  0  0  0  0  0  0  0  0  0  0  0
    1.4520    0.6110   -0.2860 C   0  0  2  0  0  0  0  0  0  0  0  0
    0.4110   -0.3400   -0.2740 N   0  0  0  0  0  0  0  0  0  0  0  0
    1.7280    1.3450    0.9440 C   0  0  0  0  0  0  0  0  0  0  0  0
    2.5790    2.3290    0.8350 O   0  0  0  0  0  0  0  0  0  0  0  0
   -0.1520    0.7530   -4.4030 H   0  0  0  0  0  0  0  0  0  0  0  0
   -0.4880    2.2150   -3.4250 H   0  0  0  0  0  0  0  0  0  0  0  0
    0.2830    2.2340   -1.1380 H   0  0  0  0  0  0  0  0  0  0  0  0
    2.0490    2.4100   -1.2210 H   0  0  0  0  0  0  0  0  0  0  0  0
    2.4000    0.0650   -0.6070 H   0  0  0  0  0  0  0  0  0  0  0  0
   -0.5310   -0.0130    0.0960 H   0  0  0  0  0  0  0  0  0  0  0  0
    1.1850    1.1140    2.2260 N   0  0  0  0  0  0  0  0  0  0  0  0
    1.4750    1.9730    3.3890 C   0  0  0  0  0  0  0  0  0  0  0  0
    1.9330    0.9370    4.3890 C   0  0  0  0  0  0  0  0  0  0  0  0
    0.9510   -0.1870    4.1280 C   0  0  0  0  0  0  0  0  0  0  0  0
    0.3220    0.1090    2.7590 C   0  0  1  0  0  0  0  0  0  0  0  0
   -1.0910    0.5310    2.9090 C   0  0  0  0  0  0  0  0  0  0  0  0
   -1.5130    1.6790    2.6200 O   0  0  0  0  0  0  0  0  0  0  0  0
   -1.9990   -0.3960    3.3940 O   0  0  0  0  0  0  0  0  0  0  0  0
    0.5060    2.3560    3.7700 H   0  0  0  0  0  0  0  0  0  0  0  0
    2.1930    2.7520    3.1590 H   0  0  0  0  0  0  0  0  0  0  0  0
    2.9690    0.6660    4.1090 H   0  0  0  0  0  0  0  0  0  0  0  0
    1.8680    1.3010    5.4300 H   0  0  0  0  0  0  0  0  0  0  0  0
    1.5720   -1.1260    4.0400 H   0  0  0  0  0  0  0  0  0  0  0  0
    0.1700   -0.2550    4.8810 H   0  0  0  0  0  0  0  0  0  0  0  0
    0.3170   -0.8230    2.1550 H   0  0  0  0  0  0  0  0  0  0  0  0
  1  2  1  0  0  0  0
  1  8  1  0  0  0  0
  2 11  1  1  0  0  0
  2  3  1  0  0  0  0
  4 13  1  6  0  0  0
  4  6  1  0  0  0  0
  4  2  1  0  0  0  0
  5  4  1  0  0  0  0
  6 21  1  0  0  0  0
  7  6  2  0  0  0  0
  9  1  1  0  0  0  0
 10  1  1  0  0  0  0
 12  3  1  0  0  0  0
 14  5  1  0  0  0  0
 15  5  1  0  0  0  0
 16 25  1  0  0  0  0
 16 17  1  0  0  0  0
 17 19  1  0  0  0  0
 18 17  2  0  0  0  0
 19 27  1  0  0  0  0
 19 26  1  0  0  0  0
 19 20  1  0  0  0  0
 20 28  1  6  0  0  0
 20 21  1  0  0  0  0
 20 22  1  0  0  0  0
 21 29  1  0  0  0  0
 22 30  1  0  0  0  0
 23 22  2  0  0  0  0
 24 16  1  0  0  0  0
 30 34  1  0  0  0  0
 30 31  1  0  0  0  0
 31 38  1  0  0  0  0
 31 32  1  0  0  0  0
 32 41  1  0  0  0  0
 33 32  1  0  0  0  0
 33 43  1  0  0  0  0
 34 44  1  6  0  0  0
 34 35  1  0  0  0  0
 34 33  1  0  0  0  0
 35 37  1  0  0  0  0
 36 35  2  0  0  0  0
 39 31  1  0  0  0  0
 40 32  1  0  0  0  0
 42 33  1  0  0  0  0
M  END
$$$$
