TNQ.pdb
 OpenBabel07022419113D

 47 46  0  0  1  0  0  0  0  0999 V2000
    0.5510   -4.8720    0.4960 C   0  0  0  0  0  0  0  0  0  0  0  0
    0.6800   -3.4040    0.8340 C   0  0  1  0  0  0  0  0  0  0  0  0
    0.2110   -3.2400    2.1380 O   0  0  0  0  0  0  0  0  0  0  0  0
    2.1310   -2.9870    0.7370 C   0  0  2  0  0  0  0  0  0  0  0  0
    2.9130   -3.8030    1.6280 N   0  0  0  0  0  0  0  0  0  0  0  0
    2.3110   -1.5510    1.0960 C   0  0  0  0  0  0  0  0  0  0  0  0
    3.0610   -1.2290    2.0540 O   0  0  0  0  0  0  0  0  0  0  0  0
    0.3370   -4.9490   -0.6000 H   0  0  0  0  0  0  0  0  0  0  0  0
    1.4880   -5.3890    0.7330 H   0  0  0  0  0  0  0  0  0  0  0  0
   -0.3250   -5.3300    1.0000 H   0  0  0  0  0  0  0  0  0  0  0  0
    0.0280   -2.8440    0.1470 H   0  0  0  0  0  0  0  0  0  0  0  0
    0.9240   -3.4360    2.7750 H   0  0  0  0  0  0  0  0  0  0  0  0
    2.4720   -3.1940   -0.2990 H   0  0  0  0  0  0  0  0  0  0  0  0
    3.3240   -4.5850    1.1020 H   0  0  0  0  0  0  0  0  0  0  0  0
    3.6280   -3.2030    2.1070 H   0  0  0  0  0  0  0  0  0  0  0  0
    3.8720    3.5190    0.5460 N   0  0  0  0  0  0  0  0  0  0  0  0
    2.6420    3.1020   -0.0070 C   0  0  0  0  0  0  0  0  0  0  0  0
    1.7590    3.9770   -0.1800 O   0  0  0  0  0  0  0  0  0  0  0  0
    2.4330    1.6910   -0.3550 C   0  0  0  0  0  0  0  0  0  0  0  0
    1.8660    0.9070    0.7750 C   0  0  2  0  0  0  0  0  0  0  0  0
    1.6710   -0.4890    0.4030 N   0  0  0  0  0  0  0  0  0  0  0  0
    0.5630    1.4890    1.2540 C   0  0  0  0  0  0  0  0  0  0  0  0
    0.4790    2.6740    1.6610 O   0  0  0  0  0  0  0  0  0  0  0  0
    3.9090    3.9530    1.4810 H   0  0  0  0  0  0  0  0  0  0  0  0
    4.7390    3.3860    0.0030 H   0  0  0  0  0  0  0  0  0  0  0  0
    1.7210    1.6110   -1.2220 H   0  0  0  0  0  0  0  0  0  0  0  0
    3.3910    1.2200   -0.6660 H   0  0  0  0  0  0  0  0  0  0  0  0
    2.5630    0.9340    1.6260 H   0  0  0  0  0  0  0  0  0  0  0  0
    1.0470   -0.7650   -0.3970 H   0  0  0  0  0  0  0  0  0  0  0  0
   -4.5850   -1.2850   -1.7800 N   0  0  0  0  0  0  0  0  0  0  0  0
   -4.1770   -0.1360   -1.0690 C   0  0  0  0  0  0  0  0  0  0  0  0
   -4.6940    0.9670   -1.3640 O   0  0  0  0  0  0  0  0  0  0  0  0
   -3.1620   -0.1820    0.0120 C   0  0  0  0  0  0  0  0  0  0  0  0
   -2.9190    1.1900    0.5980 C   0  0  0  0  0  0  0  0  0  0  0  0
   -1.8950    1.1710    1.6940 C   0  0  2  0  0  0  0  0  0  0  0  0
   -0.6090    0.6890    1.2510 N   0  0  0  0  0  0  0  0  0  0  0  0
   -2.3910    0.3510    2.8070 C   0  0  0  0  0  0  0  0  0  0  0  0
   -3.4920    0.5790    3.3620 O   0  0  0  0  0  0  0  0  0  0  0  0
   -1.6360   -0.7130    3.2750 O   0  0  0  0  0  0  0  0  0  0  0  0
   -3.9730   -1.7130   -2.5180 H   0  0  0  0  0  0  0  0  0  0  0  0
   -5.5090   -1.7430   -1.5920 H   0  0  0  0  0  0  0  0  0  0  0  0
   -3.5770   -0.8490    0.8050 H   0  0  0  0  0  0  0  0  0  0  0  0
   -2.1940   -0.5870   -0.3510 H   0  0  0  0  0  0  0  0  0  0  0  0
   -2.6060    1.8740   -0.2150 H   0  0  0  0  0  0  0  0  0  0  0  0
   -3.8580    1.5930    1.0250 H   0  0  0  0  0  0  0  0  0  0  0  0
   -1.7840    2.2430    2.0300 H   0  0  0  0  0  0  0  0  0  0  0  0
   -0.5250   -0.2890    0.9120 H   0  0  0  0  0  0  0  0  0  0  0  0
  1  9  1  0  0  0  0
  1  2  1  0  0  0  0
  1 10  1  0  0  0  0
  2 11  1  6  0  0  0
  2  3  1  0  0  0  0
  3 12  1  0  0  0  0
  4 13  1  6  0  0  0
  4  2  1  0  0  0  0
  4  6  1  0  0  0  0
  4  5  1  0  0  0  0
  5 15  1  0  0  0  0
  6  7  2  0  0  0  0
  8  1  1  0  0  0  0
 14  5  1  0  0  0  0
 16 24  1  0  0  0  0
 17 16  1  0  0  0  0
 18 17  2  0  0  0  0
 19 17  1  0  0  0  0
 19 20  1  0  0  0  0
 20 22  1  0  0  0  0
 20 28  1  1  0  0  0
 21 20  1  0  0  0  0
 21  6  1  0  0  0  0
 22 23  2  0  0  0  0
 25 16  1  0  0  0  0
 26 19  1  0  0  0  0
 27 19  1  0  0  0  0
 29 21  1  0  0  0  0
 30 41  1  0  0  0  0
 30 31  1  0  0  0  0
 31 33  1  0  0  0  0
 32 31  2  0  0  0  0
 33 34  1  0  0  0  0
 33 42  1  0  0  0  0
 34 45  1  0  0  0  0
 34 35  1  0  0  0  0
 35 46  1  1  0  0  0
 35 37  1  0  0  0  0
 36 22  1  0  0  0  0
 36 35  1  0  0  0  0
 37 39  2  0  0  0  0
 37 38  1  0  0  0  0
 40 30  1  0  0  0  0
 43 33  1  0  0  0  0
 44 34  1  0  0  0  0
 47 36  1  0  0  0  0
M  END
$$$$
