TNR.pdb
 OpenBabel07022419113D

 53 52  0  0  1  0  0  0  0  0999 V2000
    2.7640   -4.1330    2.3100 C   0  0  0  0  0  0  0  0  0  0  0  0
    3.5110   -3.0200    1.6240 C   0  0  1  0  0  0  0  0  0  0  0  0
    2.7730   -2.5970    0.5300 O   0  0  0  0  0  0  0  0  0  0  0  0
    3.8310   -1.8790    2.5560 C   0  0  2  0  0  0  0  0  0  0  0  0
    4.6250   -2.3640    3.6960 N   0  0  0  0  0  0  0  0  0  0  0  0
    2.6470   -1.1590    3.0650 C   0  0  0  0  0  0  0  0  0  0  0  0
    2.3390   -1.1310    4.2940 O   0  0  0  0  0  0  0  0  0  0  0  0
    3.2600   -5.0850    1.9840 H   0  0  0  0  0  0  0  0  0  0  0  0
    2.8270   -4.1130    3.4010 H   0  0  0  0  0  0  0  0  0  0  0  0
    1.7280   -4.1950    1.9110 H   0  0  0  0  0  0  0  0  0  0  0  0
    4.5030   -3.3640    1.2200 H   0  0  0  0  0  0  0  0  0  0  0  0
    3.3280   -2.4670   -0.2870 H   0  0  0  0  0  0  0  0  0  0  0  0
    4.4670   -1.1590    2.0090 H   0  0  0  0  0  0  0  0  0  0  0  0
    3.9710   -2.4990    4.4780 H   0  0  0  0  0  0  0  0  0  0  0  0
    5.3510   -1.6690    3.9130 H   0  0  0  0  0  0  0  0  0  0  0  0
    2.5100    2.5200    0.5180 N   0  0  0  0  0  0  0  0  0  0  0  0
    1.2200    2.1370    0.9680 C   0  0  0  0  0  0  0  0  0  0  0  0
    0.2990    2.1150    0.1110 O   0  0  0  0  0  0  0  0  0  0  0  0
    0.8930    1.7680    2.3470 C   0  0  0  0  0  0  0  0  0  0  0  0
    0.6620    0.2710    2.5030 C   0  0  2  0  0  0  0  0  0  0  0  0
    1.8370   -0.4740    2.1220 N   0  0  0  0  0  0  0  0  0  0  0  0
   -0.5750   -0.0940    1.8220 C   0  0  0  0  0  0  0  0  0  0  0  0
   -1.5960    0.5800    2.1310 O   0  0  0  0  0  0  0  0  0  0  0  0
    3.0130    2.0350   -0.2630 H   0  0  0  0  0  0  0  0  0  0  0  0
    2.9570    3.3380    1.0140 H   0  0  0  0  0  0  0  0  0  0  0  0
   -0.0820    2.2630    2.6070 H   0  0  0  0  0  0  0  0  0  0  0  0
    1.7120    2.1090    3.0090 H   0  0  0  0  0  0  0  0  0  0  0  0
    0.5250    0.1250    3.5950 H   0  0  0  0  0  0  0  0  0  0  0  0
    2.0740   -0.4870    1.1090 H   0  0  0  0  0  0  0  0  0  0  0  0
   -2.5000    2.1120   -3.5600 N   0  0  0  0  0  0  0  0  0  0  0  0
   -3.6320    1.3390   -3.1680 C   0  0  0  0  0  0  0  0  0  0  0  0
   -4.4940    1.0080   -4.0530 N   0  0  0  0  0  0  0  0  0  0  0  0
   -3.7660    0.9570   -1.7950 N   0  0  0  0  0  0  0  0  0  0  0  0
   -4.3230   -0.3400   -1.4730 C   0  0  0  0  0  0  0  0  0  0  0  0
   -3.3310   -1.4030   -1.9160 C   0  0  0  0  0  0  0  0  0  0  0  0
   -2.0130   -1.2270   -1.2150 C   0  0  0  0  0  0  0  0  0  0  0  0
   -2.0690   -1.3220    0.2740 C   0  0  2  0  0  0  0  0  0  0  0  0
   -0.7400   -1.1190    0.8580 N   0  0  0  0  0  0  0  0  0  0  0  0
   -2.6260   -2.6280    0.6960 C   0  0  0  0  0  0  0  0  0  0  0  0
   -3.7710   -2.9900    0.3340 O   0  0  0  0  0  0  0  0  0  0  0  0
   -1.9010   -3.5050    1.5100 O   0  0  0  0  0  0  0  0  0  0  0  0
   -2.5020    3.1260   -3.3710 H   0  0  0  0  0  0  0  0  0  0  0  0
   -1.6670    1.7000   -4.0270 H   0  0  0  0  0  0  0  0  0  0  0  0
   -4.4200    1.2680   -5.0440 H   0  0  0  0  0  0  0  0  0  0  0  0
   -3.4500    1.6440   -1.0790 H   0  0  0  0  0  0  0  0  0  0  0  0
   -4.5360   -0.3850   -0.3810 H   0  0  0  0  0  0  0  0  0  0  0  0
   -5.2770   -0.4780   -2.0030 H   0  0  0  0  0  0  0  0  0  0  0  0
   -3.7580   -2.4060   -1.8740 H   0  0  0  0  0  0  0  0  0  0  0  0
   -3.1600   -1.1950   -3.0010 H   0  0  0  0  0  0  0  0  0  0  0  0
   -1.5670   -0.2700   -1.5710 H   0  0  0  0  0  0  0  0  0  0  0  0
   -1.3320   -2.0140   -1.6590 H   0  0  0  0  0  0  0  0  0  0  0  0
   -2.7600   -0.5520    0.6570 H   0  0  0  0  0  0  0  0  0  0  0  0
    0.0720   -1.6860    0.5940 H   0  0  0  0  0  0  0  0  0  0  0  0
  1  9  1  0  0  0  0
  2 11  1  6  0  0  0
  2  1  1  0  0  0  0
  2  4  1  0  0  0  0
  3  2  1  0  0  0  0
  4 13  1  6  0  0  0
  4  6  1  0  0  0  0
  4  5  1  0  0  0  0
  5 15  1  0  0  0  0
  5 14  1  0  0  0  0
  6  7  2  0  0  0  0
  8  1  1  0  0  0  0
 10  1  1  0  0  0  0
 12  3  1  0  0  0  0
 16 17  1  0  0  0  0
 16 25  1  0  0  0  0
 17 19  1  0  0  0  0
 18 17  2  0  0  0  0
 19 20  1  0  0  0  0
 19 26  1  0  0  0  0
 19 27  1  0  0  0  0
 20 28  1  1  0  0  0
 21 20  1  0  0  0  0
 21  6  1  0  0  0  0
 22 23  2  0  0  0  0
 22 20  1  0  0  0  0
 24 16  1  0  0  0  0
 29 21  1  0  0  0  0
 30 42  1  0  0  0  0
 30 31  1  0  0  0  0
 31 33  1  0  0  0  0
 32 31  2  0  0  0  0
 33 34  1  0  0  0  0
 33 45  1  0  0  0  0
 34 46  1  0  0  0  0
 35 48  1  0  0  0  0
 35 34  1  0  0  0  0
 35 36  1  0  0  0  0
 36 37  1  0  0  0  0
 37 52  1  1  0  0  0
 37 39  1  0  0  0  0
 37 38  1  0  0  0  0
 38 22  1  0  0  0  0
 39 41  1  0  0  0  0
 40 39  2  0  0  0  0
 43 30  1  0  0  0  0
 44 32  1  0  0  0  0
 47 34  1  0  0  0  0
 49 35  1  0  0  0  0
 50 36  1  0  0  0  0
 51 36  1  0  0  0  0
 53 38  1  0  0  0  0
M  END
$$$$
