TNS.pdb
 OpenBabel07022419113D

 41 40  0  0  1  0  0  0  0  0999 V2000
   -0.9240   -2.5740   -1.0820 C   0  0  0  0  0  0  0  0  0  0  0  0
    0.2360   -3.4610   -1.2800 C   0  0  1  0  0  0  0  0  0  0  0  0
   -0.0170   -4.1520   -2.4760 O   0  0  0  0  0  0  0  0  0  0  0  0
    1.5950   -2.9590   -1.2650 C   0  0  2  0  0  0  0  0  0  0  0  0
    2.5140   -4.0900   -1.3760 N   0  0  0  0  0  0  0  0  0  0  0  0
    2.1320   -2.0690   -0.3020 C   0  0  0  0  0  0  0  0  0  0  0  0
    3.2160   -2.3470    0.2740 O   0  0  0  0  0  0  0  0  0  0  0  0
   -0.9910   -1.7250   -1.8100 H   0  0  0  0  0  0  0  0  0  0  0  0
   -1.8450   -3.1820   -1.3610 H   0  0  0  0  0  0  0  0  0  0  0  0
   -1.1300   -2.2900   -0.0330 H   0  0  0  0  0  0  0  0  0  0  0  0
    0.1380   -4.2760   -0.5000 H   0  0  0  0  0  0  0  0  0  0  0  0
    0.7760   -4.1160   -3.0580 H   0  0  0  0  0  0  0  0  0  0  0  0
    1.7480   -2.4450   -2.2760 H   0  0  0  0  0  0  0  0  0  0  0  0
    2.0170   -4.9970   -1.2110 H   0  0  0  0  0  0  0  0  0  0  0  0
    3.3650   -3.9770   -0.8190 H   0  0  0  0  0  0  0  0  0  0  0  0
    1.2600    3.4180    0.0300 N   0  0  0  0  0  0  0  0  0  0  0  0
    1.5190    2.0460   -0.2950 C   0  0  0  0  0  0  0  0  0  0  0  0
    0.7880    1.5040   -1.1490 O   0  0  0  0  0  0  0  0  0  0  0  0
    2.6160    1.3110    0.3710 C   0  0  0  0  0  0  0  0  0  0  0  0
    2.1280    0.0410    1.0780 C   0  0  2  0  0  0  0  0  0  0  0  0
    1.5370   -0.8140    0.1050 N   0  0  0  0  0  0  0  0  0  0  0  0
    1.1890    0.4800    2.1330 C   0  0  0  0  0  0  0  0  0  0  0  0
    1.5980    1.2340    3.0530 O   0  0  0  0  0  0  0  0  0  0  0  0
    0.2610    3.6900    0.2250 H   0  0  0  0  0  0  0  0  0  0  0  0
    1.9980    4.1170    0.0740 H   0  0  0  0  0  0  0  0  0  0  0  0
    3.3770    1.0480   -0.3920 H   0  0  0  0  0  0  0  0  0  0  0  0
    3.0970    1.9670    1.1140 H   0  0  0  0  0  0  0  0  0  0  0  0
    3.0400   -0.3950    1.5310 H   0  0  0  0  0  0  0  0  0  0  0  0
    0.6590   -0.6480   -0.3880 H   0  0  0  0  0  0  0  0  0  0  0  0
   -1.6940    2.5140    2.0840 O   0  0  0  0  0  0  0  0  0  0  0  0
   -2.1930    1.4090    2.7400 C   0  0  0  0  0  0  0  0  0  0  0  0
   -1.0410    0.5740    3.2320 C   0  0  2  0  0  0  0  0  0  0  0  0
   -0.1790    0.1130    2.1970 N   0  0  0  0  0  0  0  0  0  0  0  0
   -1.4940   -0.5480    4.0800 C   0  0  0  0  0  0  0  0  0  0  0  0
   -2.2670   -0.3200    5.0340 O   0  0  0  0  0  0  0  0  0  0  0  0
   -1.0890   -1.8530    3.8550 O   0  0  0  0  0  0  0  0  0  0  0  0
   -1.7440    3.3130    2.6320 H   0  0  0  0  0  0  0  0  0  0  0  0
   -2.7340    1.7710    3.6380 H   0  0  0  0  0  0  0  0  0  0  0  0
   -2.9290    0.8310    2.1510 H   0  0  0  0  0  0  0  0  0  0  0  0
   -0.4360    1.2360    3.9100 H   0  0  0  0  0  0  0  0  0  0  0  0
   -0.5710   -0.5100    1.4670 H   0  0  0  0  0  0  0  0  0  0  0  0
  1 10  1  0  0  0  0
  2  4  1  0  0  0  0
  2  1  1  0  0  0  0
  2 11  1  1  0  0  0
  3  2  1  0  0  0  0
  4 13  1  6  0  0  0
  4  6  1  0  0  0  0
  5  4  1  0  0  0  0
  5 14  1  0  0  0  0
  5 15  1  0  0  0  0
  6 21  1  0  0  0  0
  6  7  2  0  0  0  0
  8  1  1  0  0  0  0
  9  1  1  0  0  0  0
 12  3  1  0  0  0  0
 16 25  1  0  0  0  0
 16 24  1  0  0  0  0
 17 16  1  0  0  0  0
 17 19  1  0  0  0  0
 18 17  2  0  0  0  0
 19 20  1  0  0  0  0
 19 27  1  0  0  0  0
 20 28  1  1  0  0  0
 20 22  1  0  0  0  0
 21 20  1  0  0  0  0
 22 33  1  0  0  0  0
 22 23  2  0  0  0  0
 26 19  1  0  0  0  0
 29 21  1  0  0  0  0
 30 37  1  0  0  0  0
 30 31  1  0  0  0  0
 31 32  1  0  0  0  0
 31 38  1  0  0  0  0
 32 40  1  1  0  0  0
 32 34  1  0  0  0  0
 33 32  1  0  0  0  0
 34 35  1  0  0  0  0
 36 34  2  0  0  0  0
 39 31  1  0  0  0  0
 41 33  1  0  0  0  0
M  END
$$$$
