TNT.pdb
 OpenBabel07022419113D

 44 43  0  0  1  0  0  0  0  0999 V2000
   -2.4450   -3.9930   -1.8820 C   0  0  0  0  0  0  0  0  0  0  0  0
   -1.0700   -3.5250   -1.4870 C   0  0  1  0  0  0  0  0  0  0  0  0
   -0.3490   -3.0330   -2.5720 O   0  0  0  0  0  0  0  0  0  0  0  0
   -1.1780   -2.5410   -0.3710 C   0  0  2  0  0  0  0  0  0  0  0  0
   -1.8400   -1.3170   -0.7720 N   0  0  0  0  0  0  0  0  0  0  0  0
    0.1990   -2.2610    0.1430 C   0  0  0  0  0  0  0  0  0  0  0  0
    0.9010   -3.2260    0.5300 O   0  0  0  0  0  0  0  0  0  0  0  0
   -2.7250   -4.8520   -1.2500 H   0  0  0  0  0  0  0  0  0  0  0  0
   -3.1640   -3.1640   -1.6290 H   0  0  0  0  0  0  0  0  0  0  0  0
   -2.5070   -4.2570   -2.9570 H   0  0  0  0  0  0  0  0  0  0  0  0
   -0.5190   -4.4160   -1.0880 H   0  0  0  0  0  0  0  0  0  0  0  0
   -0.4740   -3.6820   -3.3100 H   0  0  0  0  0  0  0  0  0  0  0  0
   -1.7950   -3.0010    0.4280 H   0  0  0  0  0  0  0  0  0  0  0  0
   -1.8630   -0.6210   -0.0070 H   0  0  0  0  0  0  0  0  0  0  0  0
   -1.4410   -0.9060   -1.6370 H   0  0  0  0  0  0  0  0  0  0  0  0
    3.7030   -0.1840   -2.7190 N   0  0  0  0  0  0  0  0  0  0  0  0
    3.0030   -0.6960   -1.5920 C   0  0  0  0  0  0  0  0  0  0  0  0
    2.5080   -1.8450   -1.7180 O   0  0  0  0  0  0  0  0  0  0  0  0
    2.8580    0.0720   -0.3380 C   0  0  0  0  0  0  0  0  0  0  0  0
    2.0830   -0.6670    0.7080 C   0  0  2  0  0  0  0  0  0  0  0  0
    0.7450   -0.9590    0.2120 N   0  0  0  0  0  0  0  0  0  0  0  0
    2.0000    0.1900    1.9480 C   0  0  0  0  0  0  0  0  0  0  0  0
    3.0490    0.5470    2.5230 O   0  0  0  0  0  0  0  0  0  0  0  0
    3.4640   -0.4490   -3.6960 H   0  0  0  0  0  0  0  0  0  0  0  0
    4.4910    0.4870   -2.5920 H   0  0  0  0  0  0  0  0  0  0  0  0
    2.3280    1.0290   -0.6080 H   0  0  0  0  0  0  0  0  0  0  0  0
    3.8600    0.3720   -0.0150 H   0  0  0  0  0  0  0  0  0  0  0  0
    2.6130   -1.5810    0.9760 H   0  0  0  0  0  0  0  0  0  0  0  0
    0.1250   -0.1780   -0.1210 H   0  0  0  0  0  0  0  0  0  0  0  0
   -1.5080    2.5580    2.8480 C   0  0  0  0  0  0  0  0  0  0  0  0
   -0.1260    2.7140    3.3850 C   0  0  1  0  0  0  0  0  0  0  0  0
   -0.2110    3.3790    4.6230 O   0  0  0  0  0  0  0  0  0  0  0  0
    0.5790    1.4090    3.6460 C   0  0  2  0  0  0  0  0  0  0  0  0
    0.7500    0.6020    2.4820 N   0  0  0  0  0  0  0  0  0  0  0  0
   -0.1370    0.6480    4.6940 C   0  0  0  0  0  0  0  0  0  0  0  0
   -0.4090    1.1330    5.8080 O   0  0  0  0  0  0  0  0  0  0  0  0
   -0.5140   -0.6530    4.4190 O   0  0  0  0  0  0  0  0  0  0  0  0
   -2.3030    2.7310    3.6040 H   0  0  0  0  0  0  0  0  0  0  0  0
   -1.6580    3.3730    2.0820 H   0  0  0  0  0  0  0  0  0  0  0  0
   -1.6620    1.6070    2.2980 H   0  0  0  0  0  0  0  0  0  0  0  0
    0.5330    3.3550    2.7520 H   0  0  0  0  0  0  0  0  0  0  0  0
    0.6790    3.6210    4.9700 H   0  0  0  0  0  0  0  0  0  0  0  0
    1.5750    1.6830    4.0970 H   0  0  0  0  0  0  0  0  0  0  0  0
   -0.1040    0.2840    1.9740 H   0  0  0  0  0  0  0  0  0  0  0  0
  1  9  1  0  0  0  0
  1  2  1  0  0  0  0
  1  8  1  0  0  0  0
  2 11  1  1  0  0  0
  2  4  1  0  0  0  0
  3  2  1  0  0  0  0
  4  6  1  0  0  0  0
  4 13  1  1  0  0  0
  5  4  1  0  0  0  0
  5 14  1  0  0  0  0
  6 21  1  0  0  0  0
  6  7  2  0  0  0  0
 10  1  1  0  0  0  0
 12  3  1  0  0  0  0
 15  5  1  0  0  0  0
 16 25  1  0  0  0  0
 16 17  1  0  0  0  0
 17 19  1  0  0  0  0
 18 17  2  0  0  0  0
 19 27  1  0  0  0  0
 19 20  1  0  0  0  0
 20 28  1  1  0  0  0
 20 22  1  0  0  0  0
 21 20  1  0  0  0  0
 22 34  1  0  0  0  0
 22 23  2  0  0  0  0
 24 16  1  0  0  0  0
 26 19  1  0  0  0  0
 29 21  1  0  0  0  0
 30 31  1  0  0  0  0
 30 38  1  0  0  0  0
 31 41  1  6  0  0  0
 31 33  1  0  0  0  0
 31 32  1  0  0  0  0
 32 42  1  0  0  0  0
 33 43  1  1  0  0  0
 33 35  1  0  0  0  0
 34 33  1  0  0  0  0
 35 36  1  0  0  0  0
 37 35  2  0  0  0  0
 39 30  1  0  0  0  0
 40 30  1  0  0  0  0
 44 34  1  0  0  0  0
M  END
$$$$
