TNY.pdb
 OpenBabel07022419113D

 51 51  0  0  1  0  0  0  0  0999 V2000
    1.3170   -3.2620    0.4540 C   0  0  0  0  0  0  0  0  0  0  0  0
    2.6440   -3.3150    1.1120 C   0  0  1  0  0  0  0  0  0  0  0  0
    3.5110   -4.0710    0.3310 O   0  0  0  0  0  0  0  0  0  0  0  0
    3.3070   -1.9680    1.3570 C   0  0  2  0  0  0  0  0  0  0  0  0
    4.5800   -2.3160    2.0450 N   0  0  0  0  0  0  0  0  0  0  0  0
    2.5430   -1.1040    2.2500 C   0  0  0  0  0  0  0  0  0  0  0  0
    2.6980   -1.0370    3.5110 O   0  0  0  0  0  0  0  0  0  0  0  0
    0.5410   -3.4390    1.2630 H   0  0  0  0  0  0  0  0  0  0  0  0
    1.0930   -2.3990   -0.1720 H   0  0  0  0  0  0  0  0  0  0  0  0
    1.1670   -4.1660   -0.2180 H   0  0  0  0  0  0  0  0  0  0  0  0
    2.6180   -3.8510    2.1060 H   0  0  0  0  0  0  0  0  0  0  0  0
    3.0440   -4.3640   -0.4830 H   0  0  0  0  0  0  0  0  0  0  0  0
    3.5810   -1.5470    0.3830 H   0  0  0  0  0  0  0  0  0  0  0  0
    5.1190   -1.4870    2.2920 H   0  0  0  0  0  0  0  0  0  0  0  0
    5.1100   -2.9270    1.3940 H   0  0  0  0  0  0  0  0  0  0  0  0
    0.4230    2.6670    4.7980 N   0  0  0  0  0  0  0  0  0  0  0  0
    0.2740    2.8420    3.3810 C   0  0  0  0  0  0  0  0  0  0  0  0
   -0.6130    3.6260    2.9840 O   0  0  0  0  0  0  0  0  0  0  0  0
    1.1910    2.0670    2.5110 C   0  0  0  0  0  0  0  0  0  0  0  0
    0.7460    0.6230    2.5470 C   0  0  2  0  0  0  0  0  0  0  0  0
    1.5330   -0.2390    1.7370 N   0  0  0  0  0  0  0  0  0  0  0  0
   -0.6670    0.4990    2.2450 C   0  0  0  0  0  0  0  0  0  0  0  0
   -1.4870    1.1430    2.9650 O   0  0  0  0  0  0  0  0  0  0  0  0
    1.2860    2.2810    5.2180 H   0  0  0  0  0  0  0  0  0  0  0  0
   -0.3530    2.9290    5.4560 H   0  0  0  0  0  0  0  0  0  0  0  0
    2.2470    2.2380    2.6880 H   0  0  0  0  0  0  0  0  0  0  0  0
    0.9740    2.4420    1.4650 H   0  0  0  0  0  0  0  0  0  0  0  0
    0.9050    0.2470    3.6170 H   0  0  0  0  0  0  0  0  0  0  0  0
    1.3620   -0.2260    0.7080 H   0  0  0  0  0  0  0  0  0  0  0  0
   -1.0240   -1.3090   -5.1090 O   0  0  0  0  0  0  0  0  0  0  0  0
   -1.5200   -0.8570   -3.8800 C   0  0  0  0  0  0  0  0  0  0  0  0
   -0.8730    0.0940   -3.1290 C   0  0  0  0  0  0  0  0  0  0  0  0
   -1.3540    0.5440   -1.9220 C   0  0  0  0  0  0  0  0  0  0  0  0
   -2.5420    0.0070   -1.4550 C   0  0  0  0  0  0  0  0  0  0  0  0
   -3.1080    0.4630   -0.1840 C   0  0  0  0  0  0  0  0  0  0  0  0
   -2.7010   -0.3180    1.0310 C   0  0  2  0  0  0  0  0  0  0  0  0
   -1.2600   -0.2770    1.2150 N   0  0  0  0  0  0  0  0  0  0  0  0
   -3.1240   -1.7190    0.8810 C   0  0  0  0  0  0  0  0  0  0  0  0
   -4.3320   -2.0700    0.7610 O   0  0  0  0  0  0  0  0  0  0  0  0
   -3.2040   -0.9560   -2.2060 C   0  0  0  0  0  0  0  0  0  0  0  0
   -2.7150   -1.4020   -3.4160 C   0  0  0  0  0  0  0  0  0  0  0  0
   -2.1770   -2.7200    0.8660 O   0  0  0  0  0  0  0  0  0  0  0  0
   -0.0240   -1.2450   -5.2560 H   0  0  0  0  0  0  0  0  0  0  0  0
    0.0580    0.4910   -3.5340 H   0  0  0  0  0  0  0  0  0  0  0  0
   -0.8000    1.3120   -1.3560 H   0  0  0  0  0  0  0  0  0  0  0  0
   -2.8110    1.5360   -0.0450 H   0  0  0  0  0  0  0  0  0  0  0  0
   -4.2290    0.5150   -0.2630 H   0  0  0  0  0  0  0  0  0  0  0  0
   -3.2110    0.1670    1.9130 H   0  0  0  0  0  0  0  0  0  0  0  0
   -0.6790   -0.8390    0.5650 H   0  0  0  0  0  0  0  0  0  0  0  0
   -4.1520   -1.4130   -1.8800 H   0  0  0  0  0  0  0  0  0  0  0  0
   -3.2030   -2.1480   -4.0280 H   0  0  0  0  0  0  0  0  0  0  0  0
  1  2  1  0  0  0  0
  1  8  1  0  0  0  0
  2  4  1  0  0  0  0
  2 11  1  1  0  0  0
  3  2  1  0  0  0  0
  4 13  1  6  0  0  0
  4  5  1  0  0  0  0
  4  6  1  0  0  0  0
  5 14  1  0  0  0  0
  6  7  2  0  0  0  0
  9  1  1  0  0  0  0
 10  1  1  0  0  0  0
 12  3  1  0  0  0  0
 15  5  1  0  0  0  0
 16 24  1  0  0  0  0
 16 25  1  0  0  0  0
 17 16  1  0  0  0  0
 18 17  2  0  0  0  0
 19 20  1  0  0  0  0
 19 26  1  0  0  0  0
 19 17  1  0  0  0  0
 20 28  1  1  0  0  0
 21  6  1  0  0  0  0
 21 20  1  0  0  0  0
 22 20  1  0  0  0  0
 22 23  2  0  0  0  0
 27 19  1  0  0  0  0
 29 21  1  0  0  0  0
 30 31  1  0  0  0  0
 31 41  2  0  0  0  0
 31 32  1  0  0  0  0
 32 33  2  0  0  0  0
 33 34  1  0  0  0  0
 33 45  1  0  0  0  0
 34 35  1  0  0  0  0
 35 46  1  0  0  0  0
 35 36  1  0  0  0  0
 36 37  1  0  0  0  0
 36 48  1  1  0  0  0
 37 22  1  0  0  0  0
 38 36  1  0  0  0  0
 39 38  2  0  0  0  0
 40 50  1  0  0  0  0
 40 34  2  0  0  0  0
 41 40  1  0  0  0  0
 42 38  1  0  0  0  0
 43 30  1  0  0  0  0
 44 32  1  0  0  0  0
 47 35  1  0  0  0  0
 49 37  1  0  0  0  0
 51 41  1  0  0  0  0
M  END
$$$$
