TPA.pdb
 OpenBabel07022419133D

 40 40  0  0  1  0  0  0  0  0999 V2000
   -1.2740   -4.0420   -0.3110 C   0  0  0  0  0  0  0  0  0  0  0  0
   -0.5520   -2.7600    0.0890 C   0  0  1  0  0  0  0  0  0  0  0  0
   -0.6340   -2.6500    1.4710 O   0  0  0  0  0  0  0  0  0  0  0  0
    0.8880   -2.7920   -0.4020 C   0  0  2  0  0  0  0  0  0  0  0  0
    1.5150   -3.9390    0.2060 N   0  0  0  0  0  0  0  0  0  0  0  0
    1.5860   -1.5620    0.0360 C   0  0  0  0  0  0  0  0  0  0  0  0
    2.5290   -1.7090    0.8940 O   0  0  0  0  0  0  0  0  0  0  0  0
   -0.8110   -4.4430   -1.2180 H   0  0  0  0  0  0  0  0  0  0  0  0
   -1.1390   -4.7760    0.5100 H   0  0  0  0  0  0  0  0  0  0  0  0
   -2.3700   -3.8680   -0.4050 H   0  0  0  0  0  0  0  0  0  0  0  0
   -1.1240   -1.9430   -0.3880 H   0  0  0  0  0  0  0  0  0  0  0  0
   -0.7170   -3.5280    1.8830 H   0  0  0  0  0  0  0  0  0  0  0  0
    0.8320   -2.8650   -1.5110 H   0  0  0  0  0  0  0  0  0  0  0  0
    2.4790   -3.7520    0.5070 H   0  0  0  0  0  0  0  0  0  0  0  0
    0.9800   -4.3530    0.9870 H   0  0  0  0  0  0  0  0  0  0  0  0
    1.2690   -0.2800   -0.4360 N   0  0  0  0  0  0  0  0  0  0  0  0
    0.2290    0.0390   -1.3990 C   0  0  0  0  0  0  0  0  0  0  0  0
    0.8300    1.2110   -2.1580 C   0  0  0  0  0  0  0  0  0  0  0  0
    1.7730    1.8900   -1.1890 C   0  0  0  0  0  0  0  0  0  0  0  0
    1.9380    0.9550   -0.0490 C   0  0  1  0  0  0  0  0  0  0  0  0
    1.4580    1.4750    1.2470 C   0  0  0  0  0  0  0  0  0  0  0  0
    1.9730    2.5350    1.6890 O   0  0  0  0  0  0  0  0  0  0  0  0
   -0.7280    0.3340   -0.9350 H   0  0  0  0  0  0  0  0  0  0  0  0
    0.0440   -0.7630   -2.1210 H   0  0  0  0  0  0  0  0  0  0  0  0
   -0.0120    1.8910   -2.4600 H   0  0  0  0  0  0  0  0  0  0  0  0
    1.3280    0.9030   -3.0900 H   0  0  0  0  0  0  0  0  0  0  0  0
    2.7430    2.1050   -1.6930 H   0  0  0  0  0  0  0  0  0  0  0  0
    1.3310    2.8690   -0.9350 H   0  0  0  0  0  0  0  0  0  0  0  0
    3.0190    0.7040    0.0520 H   0  0  0  0  0  0  0  0  0  0  0  0
   -1.4800    1.7870    3.1980 C   0  0  0  0  0  0  0  0  0  0  0  0
   -0.0020    1.3860    3.3000 C   0  0  2  0  0  0  0  0  0  0  0  0
    0.4560    0.8740    2.0450 N   0  0  0  0  0  0  0  0  0  0  0  0
    0.1620    0.3480    4.3330 C   0  0  0  0  0  0  0  0  0  0  0  0
    0.6390   -0.7660    4.0350 O   0  0  0  0  0  0  0  0  0  0  0  0
   -0.2070    0.5890    5.6410 O   0  0  0  0  0  0  0  0  0  0  0  0
   -1.8530    1.8730    4.2380 H   0  0  0  0  0  0  0  0  0  0  0  0
   -1.5440    2.7570    2.7030 H   0  0  0  0  0  0  0  0  0  0  0  0
   -2.0330    0.9920    2.6300 H   0  0  0  0  0  0  0  0  0  0  0  0
    0.5200    2.3290    3.5990 H   0  0  0  0  0  0  0  0  0  0  0  0
    0.0280    0.0030    1.6890 H   0  0  0  0  0  0  0  0  0  0  0  0
  1  2  1  0  0  0  0
  1  9  1  0  0  0  0
  2 11  1  6  0  0  0
  2  3  1  0  0  0  0
  3 12  1  0  0  0  0
  4 13  1  6  0  0  0
  4  6  1  0  0  0  0
  4  2  1  0  0  0  0
  4  5  1  0  0  0  0
  5 14  1  0  0  0  0
  5 15  1  0  0  0  0
  6  7  2  0  0  0  0
  8  1  1  0  0  0  0
 10  1  1  0  0  0  0
 16 20  1  0  0  0  0
 16  6  1  0  0  0  0
 17 23  1  0  0  0  0
 17 16  1  0  0  0  0
 18 17  1  0  0  0  0
 18 19  1  0  0  0  0
 19 28  1  0  0  0  0
 19 20  1  0  0  0  0
 20 29  1  1  0  0  0
 20 21  1  0  0  0  0
 21 22  2  0  0  0  0
 21 32  1  0  0  0  0
 24 17  1  0  0  0  0
 25 18  1  0  0  0  0
 26 18  1  0  0  0  0
 27 19  1  0  0  0  0
 30 31  1  0  0  0  0
 30 36  1  0  0  0  0
 31 39  1  1  0  0  0
 31 33  1  0  0  0  0
 32 31  1  0  0  0  0
 33 35  1  0  0  0  0
 34 33  2  0  0  0  0
 37 30  1  0  0  0  0
 38 30  1  0  0  0  0
 40 32  1  0  0  0  0
M  END
$$$$
