TPC.pdb
 OpenBabel07022419143D

 41 41  0  0  1  0  0  0  0  0999 V2000
    1.7690   -4.3440    1.6790 C   0  0  0  0  0  0  0  0  0  0  0  0
    1.3270   -2.9200    1.3100 C   0  0  1  0  0  0  0  0  0  0  0  0
    0.6260   -2.4510    2.4300 O   0  0  0  0  0  0  0  0  0  0  0  0
    2.5830   -2.1140    1.1660 C   0  0  2  0  0  0  0  0  0  0  0  0
    3.3800   -2.2750    2.3620 N   0  0  0  0  0  0  0  0  0  0  0  0
    2.3610   -0.6970    0.8710 C   0  0  0  0  0  0  0  0  0  0  0  0
    2.8680    0.1390    1.6830 O   0  0  0  0  0  0  0  0  0  0  0  0
    0.9650   -4.8940    2.1820 H   0  0  0  0  0  0  0  0  0  0  0  0
    2.1560   -4.8810    0.7830 H   0  0  0  0  0  0  0  0  0  0  0  0
    2.6280   -4.2610    2.3800 H   0  0  0  0  0  0  0  0  0  0  0  0
    0.7080   -2.9950    0.4210 H   0  0  0  0  0  0  0  0  0  0  0  0
   -0.1580   -3.0720    2.5550 H   0  0  0  0  0  0  0  0  0  0  0  0
    3.1750   -2.5510    0.3240 H   0  0  0  0  0  0  0  0  0  0  0  0
    2.7930   -2.2120    3.2310 H   0  0  0  0  0  0  0  0  0  0  0  0
    4.1540   -1.5790    2.4260 H   0  0  0  0  0  0  0  0  0  0  0  0
    1.6400   -0.1970   -0.2270 N   0  0  0  0  0  0  0  0  0  0  0  0
    0.9910   -0.9730   -1.2610 C   0  0  0  0  0  0  0  0  0  0  0  0
    1.0080   -0.1120   -2.5210 C   0  0  0  0  0  0  0  0  0  0  0  0
    1.2460    1.2790   -2.0330 C   0  0  0  0  0  0  0  0  0  0  0  0
    1.4010    1.1890   -0.5460 C   0  0  1  0  0  0  0  0  0  0  0  0
    0.1640    1.7060    0.0970 C   0  0  0  0  0  0  0  0  0  0  0  0
   -0.2130    2.8920   -0.0860 O   0  0  0  0  0  0  0  0  0  0  0  0
   -0.0350   -1.1720   -0.9500 H   0  0  0  0  0  0  0  0  0  0  0  0
    1.5630   -1.8850   -1.5230 H   0  0  0  0  0  0  0  0  0  0  0  0
    1.8210   -0.4150   -3.2120 H   0  0  0  0  0  0  0  0  0  0  0  0
    0.0460   -0.2230   -3.0620 H   0  0  0  0  0  0  0  0  0  0  0  0
    2.1650    1.7050   -2.5250 H   0  0  0  0  0  0  0  0  0  0  0  0
    0.3530    1.8980   -2.3200 H   0  0  0  0  0  0  0  0  0  0  0  0
    2.2880    1.8290   -0.2770 H   0  0  0  0  0  0  0  0  0  0  0  0
   -0.6610    0.9110    0.9460 N   0  0  0  0  0  0  0  0  0  0  0  0
   -1.8620    1.4490    1.5570 C   0  0  1  0  0  0  0  0  0  0  0  0
   -3.0170    0.5830    1.0440 C   0  0  0  0  0  0  0  0  0  0  0  0
   -2.6780   -1.1190    1.5710 S   0  0  0  0  0  0  0  0  0  0  0  0
   -1.8460    1.2970    3.0280 C   0  0  0  0  0  0  0  0  0  0  0  0
   -0.8860    0.7610    3.6170 O   0  0  0  0  0  0  0  0  0  0  0  0
   -2.9190    1.7590    3.7540 O   0  0  0  0  0  0  0  0  0  0  0  0
   -0.4110   -0.0710    1.1410 H   0  0  0  0  0  0  0  0  0  0  0  0
   -2.0230    2.5120    1.2730 H   0  0  0  0  0  0  0  0  0  0  0  0
   -2.9040    0.5910   -0.0720 H   0  0  0  0  0  0  0  0  0  0  0  0
   -3.9860    0.9510    1.3850 H   0  0  0  0  0  0  0  0  0  0  0  0
   -1.8180   -1.7650    0.6700 H   0  0  0  0  0  0  0  0  0  0  0  0
  1  8  1  0  0  0  0
  1 10  1  0  0  0  0
  2 11  1  6  0  0  0
  2  1  1  0  0  0  0
  2  3  1  0  0  0  0
  3 12  1  0  0  0  0
  4 13  1  6  0  0  0
  4  2  1  0  0  0  0
  4  5  1  0  0  0  0
  5 15  1  0  0  0  0
  5 14  1  0  0  0  0
  6  4  1  0  0  0  0
  6  7  2  0  0  0  0
  9  1  1  0  0  0  0
 16  6  1  0  0  0  0
 17 23  1  0  0  0  0
 17 16  1  0  0  0  0
 18 19  1  0  0  0  0
 18 17  1  0  0  0  0
 19 20  1  0  0  0  0
 20 29  1  1  0  0  0
 20 16  1  0  0  0  0
 20 21  1  0  0  0  0
 21 30  1  0  0  0  0
 22 21  2  0  0  0  0
 24 17  1  0  0  0  0
 25 18  1  0  0  0  0
 26 18  1  0  0  0  0
 27 19  1  0  0  0  0
 28 19  1  0  0  0  0
 30 37  1  0  0  0  0
 30 31  1  0  0  0  0
 31 38  1  6  0  0  0
 31 34  1  0  0  0  0
 32 40  1  0  0  0  0
 32 31  1  0  0  0  0
 32 33  1  0  0  0  0
 34 35  2  0  0  0  0
 34 36  1  0  0  0  0
 39 32  1  0  0  0  0
 41 33  1  0  0  0  0
M  END
$$$$
