TPD.pdb
 OpenBabel07022419143D

 43 43  0  0  1  0  0  0  0  0999 V2000
    0.5210   -3.4740    4.1110 C   0  0  0  0  0  0  0  0  0  0  0  0
    0.6910   -3.8090    2.6480 C   0  0  1  0  0  0  0  0  0  0  0  0
    0.0200   -4.9820    2.3660 O   0  0  0  0  0  0  0  0  0  0  0  0
    0.1290   -2.7130    1.7610 C   0  0  2  0  0  0  0  0  0  0  0  0
    0.3320   -3.0960    0.3910 N   0  0  0  0  0  0  0  0  0  0  0  0
    0.7440   -1.4240    2.1010 C   0  0  0  0  0  0  0  0  0  0  0  0
    0.5710   -0.9180    3.2280 O   0  0  0  0  0  0  0  0  0  0  0  0
    1.3860   -2.8880    4.4820 H   0  0  0  0  0  0  0  0  0  0  0  0
   -0.4340   -2.9120    4.2400 H   0  0  0  0  0  0  0  0  0  0  0  0
    0.4410   -4.4520    4.6550 H   0  0  0  0  0  0  0  0  0  0  0  0
    1.7670   -3.8890    2.4110 H   0  0  0  0  0  0  0  0  0  0  0  0
    0.6230   -5.6360    1.9290 H   0  0  0  0  0  0  0  0  0  0  0  0
   -0.9650   -2.6910    1.9700 H   0  0  0  0  0  0  0  0  0  0  0  0
    0.8250   -4.0110    0.3290 H   0  0  0  0  0  0  0  0  0  0  0  0
   -0.5790   -3.1740   -0.1090 H   0  0  0  0  0  0  0  0  0  0  0  0
    1.5570   -0.7110    1.1530 N   0  0  0  0  0  0  0  0  0  0  0  0
    1.9030   -1.1230   -0.1740 C   0  0  0  0  0  0  0  0  0  0  0  0
    2.8930   -0.0990   -0.6670 C   0  0  0  0  0  0  0  0  0  0  0  0
    3.4070    0.5520    0.6290 C   0  0  0  0  0  0  0  0  0  0  0  0
    2.1400    0.5770    1.4190 C   0  0  1  0  0  0  0  0  0  0  0  0
    1.2380    1.6700    0.9230 C   0  0  0  0  0  0  0  0  0  0  0  0
    1.5950    2.8850    0.9890 O   0  0  0  0  0  0  0  0  0  0  0  0
    2.3510   -2.1510   -0.1970 H   0  0  0  0  0  0  0  0  0  0  0  0
    1.0140   -1.0830   -0.8720 H   0  0  0  0  0  0  0  0  0  0  0  0
    2.4640    0.6510   -1.3320 H   0  0  0  0  0  0  0  0  0  0  0  0
    3.7360   -0.6280   -1.1810 H   0  0  0  0  0  0  0  0  0  0  0  0
    4.0810   -0.2050    1.0870 H   0  0  0  0  0  0  0  0  0  0  0  0
    3.8650    1.5190    0.4450 H   0  0  0  0  0  0  0  0  0  0  0  0
    2.3430    0.7190    2.5120 H   0  0  0  0  0  0  0  0  0  0  0  0
   -0.0430    1.4350    0.3610 N   0  0  0  0  0  0  0  0  0  0  0  0
   -0.8950    2.5070   -0.1120 C   0  0  1  0  0  0  0  0  0  0  0  0
   -1.0780    2.3510   -1.6040 C   0  0  0  0  0  0  0  0  0  0  0  0
   -1.7010    1.0840   -1.9980 C   0  0  0  0  0  0  0  0  0  0  0  0
   -1.8500    0.8850   -3.2360 O   0  0  0  0  0  0  0  0  0  0  0  0
   -2.2070    2.5360    0.5190 C   0  0  0  0  0  0  0  0  0  0  0  0
   -2.5140    1.6900    1.3840 O   0  0  0  0  0  0  0  0  0  0  0  0
   -2.1400    0.0900   -1.1630 O   0  0  0  0  0  0  0  0  0  0  0  0
   -3.1240    3.5010    0.1630 O   0  0  0  0  0  0  0  0  0  0  0  0
   -0.3710    0.4510    0.2970 H   0  0  0  0  0  0  0  0  0  0  0  0
   -0.4140    3.4960    0.0340 H   0  0  0  0  0  0  0  0  0  0  0  0
   -1.7090    3.1930   -1.9960 H   0  0  0  0  0  0  0  0  0  0  0  0
   -0.0850    2.4160   -2.1350 H   0  0  0  0  0  0  0  0  0  0  0  0
   -3.0520   -0.3480   -1.3550 H   0  0  0  0  0  0  0  0  0  0  0  0
  1  9  1  0  0  0  0
  1  8  1  0  0  0  0
  1 10  1  0  0  0  0
  2 11  1  6  0  0  0
  2  1  1  0  0  0  0
  3  2  1  0  0  0  0
  4 13  1  1  0  0  0
  4  6  1  0  0  0  0
  4  2  1  0  0  0  0
  5  4  1  0  0  0  0
  6  7  2  0  0  0  0
 12  3  1  0  0  0  0
 14  5  1  0  0  0  0
 15  5  1  0  0  0  0
 16 20  1  0  0  0  0
 16  6  1  0  0  0  0
 17 16  1  0  0  0  0
 18 17  1  0  0  0  0
 18 19  1  0  0  0  0
 19 27  1  0  0  0  0
 19 20  1  0  0  0  0
 20 29  1  1  0  0  0
 21 22  2  0  0  0  0
 21 20  1  0  0  0  0
 23 17  1  0  0  0  0
 24 17  1  0  0  0  0
 25 18  1  0  0  0  0
 26 18  1  0  0  0  0
 28 19  1  0  0  0  0
 30 21  1  0  0  0  0
 31 40  1  1  0  0  0
 31 30  1  0  0  0  0
 31 35  1  0  0  0  0
 32 31  1  0  0  0  0
 33 32  1  0  0  0  0
 33 37  1  0  0  0  0
 34 33  2  0  0  0  0
 35 36  1  0  0  0  0
 38 35  2  0  0  0  0
 39 30  1  0  0  0  0
 41 32  1  0  0  0  0
 42 32  1  0  0  0  0
 43 37  1  0  0  0  0
M  END
$$$$
