TPE.pdb
 OpenBabel07022419143D

 46 46  0  0  1  0  0  0  0  0999 V2000
    1.2040   -4.3160    2.7120 C   0  0  0  0  0  0  0  0  0  0  0  0
    1.0020   -4.3840    1.2340 C   0  0  1  0  0  0  0  0  0  0  0  0
    0.3970   -5.6000    0.8530 O   0  0  0  0  0  0  0  0  0  0  0  0
    0.1710   -3.1980    0.7160 C   0  0  2  0  0  0  0  0  0  0  0  0
    0.0820   -3.2520   -0.7230 N   0  0  0  0  0  0  0  0  0  0  0  0
    0.8210   -1.9540    1.1260 C   0  0  0  0  0  0  0  0  0  0  0  0
    0.9030   -1.7680    2.3870 O   0  0  0  0  0  0  0  0  0  0  0  0
    2.0940   -3.6810    2.9760 H   0  0  0  0  0  0  0  0  0  0  0  0
    0.3150   -3.8780    3.2160 H   0  0  0  0  0  0  0  0  0  0  0  0
    1.3700   -5.3470    3.0960 H   0  0  0  0  0  0  0  0  0  0  0  0
    1.9950   -4.3690    0.7410 H   0  0  0  0  0  0  0  0  0  0  0  0
   -0.1060   -5.9720    1.6190 H   0  0  0  0  0  0  0  0  0  0  0  0
   -0.8460   -3.3180    1.1510 H   0  0  0  0  0  0  0  0  0  0  0  0
   -0.8940   -3.4080   -1.0750 H   0  0  0  0  0  0  0  0  0  0  0  0
    0.6660   -4.0490   -1.0700 H   0  0  0  0  0  0  0  0  0  0  0  0
    1.3560   -0.9570    0.2310 N   0  0  0  0  0  0  0  0  0  0  0  0
    1.4010   -0.9850   -1.1860 C   0  0  0  0  0  0  0  0  0  0  0  0
    2.5040    0.0270   -1.5320 C   0  0  0  0  0  0  0  0  0  0  0  0
    2.4240    1.0300   -0.4350 C   0  0  0  0  0  0  0  0  0  0  0  0
    1.9370    0.2550    0.7400 C   0  0  1  0  0  0  0  0  0  0  0  0
    0.9070    0.9930    1.5080 C   0  0  0  0  0  0  0  0  0  0  0  0
    1.2680    1.9830    2.2060 O   0  0  0  0  0  0  0  0  0  0  0  0
    1.7230   -1.9620   -1.6290 H   0  0  0  0  0  0  0  0  0  0  0  0
    0.4900   -0.6060   -1.6970 H   0  0  0  0  0  0  0  0  0  0  0  0
    2.3620    0.4830   -2.5140 H   0  0  0  0  0  0  0  0  0  0  0  0
    3.4660   -0.5400   -1.5170 H   0  0  0  0  0  0  0  0  0  0  0  0
    1.7780    1.9020   -0.6850 H   0  0  0  0  0  0  0  0  0  0  0  0
    3.4540    1.3870   -0.2230 H   0  0  0  0  0  0  0  0  0  0  0  0
    2.7990    0.0160    1.4380 H   0  0  0  0  0  0  0  0  0  0  0  0
   -0.4620    0.6740    1.5200 N   0  0  0  0  0  0  0  0  0  0  0  0
   -1.4400    1.4050    2.2770 C   0  0  1  0  0  0  0  0  0  0  0  0
   -2.4920    2.0850    1.4750 C   0  0  0  0  0  0  0  0  0  0  0  0
   -2.0440    3.1250    0.5160 C   0  0  0  0  0  0  0  0  0  0  0  0
   -1.2230    2.7360   -0.6150 C   0  0  0  0  0  0  0  0  0  0  0  0
   -0.9670    1.5870   -0.9710 O   0  0  0  0  0  0  0  0  0  0  0  0
   -2.1110    0.4460    3.2300 C   0  0  0  0  0  0  0  0  0  0  0  0
   -1.8480   -0.7680    3.2820 O   0  0  0  0  0  0  0  0  0  0  0  0
   -0.6580    3.7750   -1.3870 O   0  0  0  0  0  0  0  0  0  0  0  0
   -3.0890    0.9300    4.1160 O   0  0  0  0  0  0  0  0  0  0  0  0
   -0.8040   -0.1420    0.9770 H   0  0  0  0  0  0  0  0  0  0  0  0
   -0.9200    2.1410    2.9610 H   0  0  0  0  0  0  0  0  0  0  0  0
   -3.0760    1.3090    0.8930 H   0  0  0  0  0  0  0  0  0  0  0  0
   -3.2730    2.4820    2.1860 H   0  0  0  0  0  0  0  0  0  0  0  0
   -1.4840    3.8940    1.1350 H   0  0  0  0  0  0  0  0  0  0  0  0
   -2.9540    3.7310    0.1780 H   0  0  0  0  0  0  0  0  0  0  0  0
   -0.4130    3.6020   -2.3670 H   0  0  0  0  0  0  0  0  0  0  0  0
  1  8  1  0  0  0  0
  1 10  1  0  0  0  0
  1  9  1  0  0  0  0
  2 11  1  6  0  0  0
  2  1  1  0  0  0  0
  3  2  1  0  0  0  0
  3 12  1  0  0  0  0
  4  6  1  0  0  0  0
  4 13  1  1  0  0  0
  4  2  1  0  0  0  0
  5  4  1  0  0  0  0
  6  7  2  0  0  0  0
 14  5  1  0  0  0  0
 15  5  1  0  0  0  0
 16 20  1  0  0  0  0
 16  6  1  0  0  0  0
 17 16  1  0  0  0  0
 18 26  1  0  0  0  0
 18 17  1  0  0  0  0
 18 19  1  0  0  0  0
 19 28  1  0  0  0  0
 19 20  1  0  0  0  0
 20 29  1  1  0  0  0
 20 21  1  0  0  0  0
 21 30  1  0  0  0  0
 21 22  2  0  0  0  0
 23 17  1  0  0  0  0
 24 17  1  0  0  0  0
 25 18  1  0  0  0  0
 27 19  1  0  0  0  0
 30 31  1  0  0  0  0
 31 41  1  1  0  0  0
 31 36  1  0  0  0  0
 32 43  1  0  0  0  0
 32 31  1  0  0  0  0
 33 44  1  0  0  0  0
 33 32  1  0  0  0  0
 34 33  1  0  0  0  0
 35 34  2  0  0  0  0
 36 37  2  0  0  0  0
 36 39  1  0  0  0  0
 38 34  1  0  0  0  0
 40 30  1  0  0  0  0
 42 32  1  0  0  0  0
 45 33  1  0  0  0  0
 46 38  1  0  0  0  0
M  END
$$$$
