TPF.pdb
 OpenBabel07022419143D

 50 51  0  0  1  0  0  0  0  0999 V2000
    4.3680   -1.7850    0.4170 C   0  0  0  0  0  0  0  0  0  0  0  0
    4.3620   -0.8790   -0.7730 C   0  0  1  0  0  0  0  0  0  0  0  0
    4.1190   -1.6590   -1.9090 O   0  0  0  0  0  0  0  0  0  0  0  0
    3.1850    0.0860   -0.6610 C   0  0  2  0  0  0  0  0  0  0  0  0
    3.1820    0.9020   -1.9120 N   0  0  0  0  0  0  0  0  0  0  0  0
    3.3010    0.9980    0.4940 C   0  0  0  0  0  0  0  0  0  0  0  0
    4.0490    2.0340    0.3820 O   0  0  0  0  0  0  0  0  0  0  0  0
    5.2440   -2.4990    0.3900 H   0  0  0  0  0  0  0  0  0  0  0  0
    4.3830   -1.2320    1.3820 H   0  0  0  0  0  0  0  0  0  0  0  0
    3.4750   -2.4230    0.3650 H   0  0  0  0  0  0  0  0  0  0  0  0
    5.3190   -0.3180   -0.8830 H   0  0  0  0  0  0  0  0  0  0  0  0
    3.5480   -2.4310   -1.6350 H   0  0  0  0  0  0  0  0  0  0  0  0
    2.2670   -0.4890   -0.5930 H   0  0  0  0  0  0  0  0  0  0  0  0
    4.0920    1.4240   -1.9250 H   0  0  0  0  0  0  0  0  0  0  0  0
    2.4390    1.6160   -1.7650 H   0  0  0  0  0  0  0  0  0  0  0  0
    2.6010    0.7420    1.6980 N   0  0  0  0  0  0  0  0  0  0  0  0
    2.7800    1.6530    2.8550 C   0  0  0  0  0  0  0  0  0  0  0  0
    2.5960    0.7350    4.0350 C   0  0  0  0  0  0  0  0  0  0  0  0
    1.4190   -0.0990    3.5550 C   0  0  0  0  0  0  0  0  0  0  0  0
    1.6520   -0.2610    2.0640 C   0  0  1  0  0  0  0  0  0  0  0  0
    0.3340   -0.0550    1.3790 C   0  0  0  0  0  0  0  0  0  0  0  0
    0.1200    0.8850    0.5890 O   0  0  0  0  0  0  0  0  0  0  0  0
    2.0290    2.4450    2.7890 H   0  0  0  0  0  0  0  0  0  0  0  0
    3.8230    2.0240    2.8890 H   0  0  0  0  0  0  0  0  0  0  0  0
    3.4700    0.0720    4.0950 H   0  0  0  0  0  0  0  0  0  0  0  0
    2.3810    1.2640    4.9680 H   0  0  0  0  0  0  0  0  0  0  0  0
    1.3910   -1.0900    4.0570 H   0  0  0  0  0  0  0  0  0  0  0  0
    0.5050    0.4840    3.7280 H   0  0  0  0  0  0  0  0  0  0  0  0
    2.0490   -1.2570    1.8870 H   0  0  0  0  0  0  0  0  0  0  0  0
   -0.7020   -0.9770    1.6510 N   0  0  0  0  0  0  0  0  0  0  0  0
   -1.9950   -0.8280    1.0190 C   0  0  1  0  0  0  0  0  0  0  0  0
   -2.3140   -2.0010    0.1240 C   0  0  0  0  0  0  0  0  0  0  0  0
   -3.6280   -1.8890   -0.5380 C   0  0  0  0  0  0  0  0  0  0  0  0
   -3.7760   -1.2620   -1.7560 C   0  0  0  0  0  0  0  0  0  0  0  0
   -4.9820   -1.1470   -2.3980 C   0  0  0  0  0  0  0  0  0  0  0  0
   -6.1180   -1.6670   -1.8330 C   0  0  0  0  0  0  0  0  0  0  0  0
   -6.0090   -2.3020   -0.6150 C   0  0  0  0  0  0  0  0  0  0  0  0
   -4.7710   -2.4120    0.0290 C   0  0  0  0  0  0  0  0  0  0  0  0
   -2.9950   -0.5540    2.0450 C   0  0  0  0  0  0  0  0  0  0  0  0
   -2.6400   -0.5010    3.2490 O   0  0  0  0  0  0  0  0  0  0  0  0
   -4.3430   -0.3400    1.8020 O   0  0  0  0  0  0  0  0  0  0  0  0
   -0.5460   -1.7930    2.3240 H   0  0  0  0  0  0  0  0  0  0  0  0
   -1.9250    0.0880    0.3620 H   0  0  0  0  0  0  0  0  0  0  0  0
   -2.1960   -2.9600    0.6800 H   0  0  0  0  0  0  0  0  0  0  0  0
   -1.5180   -2.0300   -0.6650 H   0  0  0  0  0  0  0  0  0  0  0  0
   -2.9130   -0.8350   -2.2470 H   0  0  0  0  0  0  0  0  0  0  0  0
   -5.0850   -0.6430   -3.3700 H   0  0  0  0  0  0  0  0  0  0  0  0
   -7.0990   -1.5860   -2.3320 H   0  0  0  0  0  0  0  0  0  0  0  0
   -6.9140   -2.7060   -0.1820 H   0  0  0  0  0  0  0  0  0  0  0  0
   -4.7450   -2.9140    0.9670 H   0  0  0  0  0  0  0  0  0  0  0  0
  1  9  1  0  0  0  0
  2 11  1  6  0  0  0
  2  4  1  0  0  0  0
  2  1  1  0  0  0  0
  3 12  1  0  0  0  0
  3  2  1  0  0  0  0
  4 13  1  1  0  0  0
  4  6  1  0  0  0  0
  5 15  1  0  0  0  0
  5  4  1  0  0  0  0
  6 16  1  0  0  0  0
  7  6  2  0  0  0  0
  8  1  1  0  0  0  0
 10  1  1  0  0  0  0
 14  5  1  0  0  0  0
 16 20  1  0  0  0  0
 16 17  1  0  0  0  0
 17 24  1  0  0  0  0
 17 18  1  0  0  0  0
 18 25  1  0  0  0  0
 18 26  1  0  0  0  0
 19 28  1  0  0  0  0
 19 18  1  0  0  0  0
 19 27  1  0  0  0  0
 20 29  1  6  0  0  0
 20 19  1  0  0  0  0
 21 30  1  0  0  0  0
 21 20  1  0  0  0  0
 22 21  2  0  0  0  0
 23 17  1  0  0  0  0
 30 42  1  0  0  0  0
 31 43  1  6  0  0  0
 31 30  1  0  0  0  0
 31 39  1  0  0  0  0
 32 44  1  0  0  0  0
 32 31  1  0  0  0  0
 33 38  1  0  0  0  0
 33 32  1  0  0  0  0
 34 33  2  0  0  0  0
 35 36  2  0  0  0  0
 35 34  1  0  0  0  0
 36 37  1  0  0  0  0
 37 49  1  0  0  0  0
 37 38  2  0  0  0  0
 38 50  1  0  0  0  0
 39 40  1  0  0  0  0
 41 39  2  0  0  0  0
 45 32  1  0  0  0  0
 46 34  1  0  0  0  0
 47 35  1  0  0  0  0
 48 36  1  0  0  0  0
M  END
$$$$
