TPH.pdb
 OpenBabel07022419143D

 47 48  0  0  1  0  0  0  0  0999 V2000
    0.7120   -4.6350    1.9010 C   0  0  0  0  0  0  0  0  0  0  0  0
    1.6520   -3.4280    1.9410 C   0  0  1  0  0  0  0  0  0  0  0  0
    2.8750   -3.8220    2.4340 O   0  0  0  0  0  0  0  0  0  0  0  0
    1.7810   -2.9950    0.4680 C   0  0  2  0  0  0  0  0  0  0  0  0
    2.2760   -4.2180   -0.2020 N   0  0  0  0  0  0  0  0  0  0  0  0
    2.7930   -1.9380    0.3090 C   0  0  0  0  0  0  0  0  0  0  0  0
    3.9390   -2.3080   -0.1400 O   0  0  0  0  0  0  0  0  0  0  0  0
    0.0090   -4.5360    1.0540 H   0  0  0  0  0  0  0  0  0  0  0  0
    1.2830   -5.5690    1.8130 H   0  0  0  0  0  0  0  0  0  0  0  0
    0.1140   -4.6470    2.8380 H   0  0  0  0  0  0  0  0  0  0  0  0
    1.1430   -2.6610    2.5430 H   0  0  0  0  0  0  0  0  0  0  0  0
    3.5380   -4.0370    1.7220 H   0  0  0  0  0  0  0  0  0  0  0  0
    0.7830   -2.7440    0.0800 H   0  0  0  0  0  0  0  0  0  0  0  0
    2.8820   -3.8910   -0.9880 H   0  0  0  0  0  0  0  0  0  0  0  0
    1.4670   -4.7680   -0.5780 H   0  0  0  0  0  0  0  0  0  0  0  0
    2.6170   -0.5760    0.6010 N   0  0  0  0  0  0  0  0  0  0  0  0
    3.6580    0.4420    0.4480 C   0  0  0  0  0  0  0  0  0  0  0  0
    3.3520    1.2930    1.6870 C   0  0  0  0  0  0  0  0  0  0  0  0
    1.8640    1.4870    1.4990 C   0  0  0  0  0  0  0  0  0  0  0  0
    1.4300    0.0990    1.0780 C   0  0  1  0  0  0  0  0  0  0  0  0
    0.4440    0.1500   -0.0310 C   0  0  0  0  0  0  0  0  0  0  0  0
    0.7210   -0.3140   -1.1660 O   0  0  0  0  0  0  0  0  0  0  0  0
    3.4430    1.0380   -0.4530 H   0  0  0  0  0  0  0  0  0  0  0  0
    4.6460   -0.0120    0.4850 H   0  0  0  0  0  0  0  0  0  0  0  0
    3.5700    0.6660    2.5560 H   0  0  0  0  0  0  0  0  0  0  0  0
    3.9190    2.2430    1.6590 H   0  0  0  0  0  0  0  0  0  0  0  0
    1.4430    1.8060    2.4550 H   0  0  0  0  0  0  0  0  0  0  0  0
    1.7340    2.2360    0.6960 H   0  0  0  0  0  0  0  0  0  0  0  0
    1.0620   -0.3930    1.9800 H   0  0  0  0  0  0  0  0  0  0  0  0
   -0.8520    0.7180    0.1220 N   0  0  0  0  0  0  0  0  0  0  0  0
   -1.8270    0.7760   -0.9530 C   0  0  1  0  0  0  0  0  0  0  0  0
   -3.0140   -0.1020   -0.5330 C   0  0  0  0  0  0  0  0  0  0  0  0
   -3.6230    0.3910    0.7280 C   0  0  0  0  0  0  0  0  0  0  0  0
   -4.6420    1.3050    0.9110 C   0  0  0  0  0  0  0  0  0  0  0  0
   -4.8830    1.4630    2.2060 N   0  0  0  0  0  0  0  0  0  0  0  0
   -4.0380    0.6680    2.8770 C   0  0  0  0  0  0  0  0  0  0  0  0
   -3.2700    0.0130    1.9850 N   0  0  0  0  0  0  0  0  0  0  0  0
   -2.2720    2.1590   -1.2220 C   0  0  0  0  0  0  0  0  0  0  0  0
   -1.8280    3.1290   -0.5670 O   0  0  0  0  0  0  0  0  0  0  0  0
   -3.2010    2.4050   -2.2150 O   0  0  0  0  0  0  0  0  0  0  0  0
   -1.0820    1.1030    1.0640 H   0  0  0  0  0  0  0  0  0  0  0  0
   -1.4480    0.3330   -1.8860 H   0  0  0  0  0  0  0  0  0  0  0  0
   -3.7920   -0.1070   -1.3310 H   0  0  0  0  0  0  0  0  0  0  0  0
   -2.6900   -1.1570   -0.4230 H   0  0  0  0  0  0  0  0  0  0  0  0
   -5.1630    1.8130    0.1110 H   0  0  0  0  0  0  0  0  0  0  0  0
   -5.5910    2.0810    2.6940 H   0  0  0  0  0  0  0  0  0  0  0  0
   -3.9770    0.5630    3.9490 H   0  0  0  0  0  0  0  0  0  0  0  0
  1  2  1  0  0  0  0
  1 10  1  0  0  0  0
  2  3  1  0  0  0  0
  2 11  1  1  0  0  0
  4 13  1  6  0  0  0
  4  2  1  0  0  0  0
  5  4  1  0  0  0  0
  6  4  1  0  0  0  0
  6 16  1  0  0  0  0
  7  6  2  0  0  0  0
  8  1  1  0  0  0  0
  9  1  1  0  0  0  0
 12  3  1  0  0  0  0
 14  5  1  0  0  0  0
 15  5  1  0  0  0  0
 16 20  1  0  0  0  0
 17 24  1  0  0  0  0
 17 16  1  0  0  0  0
 17 18  1  0  0  0  0
 18 25  1  0  0  0  0
 19 18  1  0  0  0  0
 19 27  1  0  0  0  0
 20 19  1  0  0  0  0
 20 29  1  1  0  0  0
 21 30  1  0  0  0  0
 21 20  1  0  0  0  0
 22 21  2  0  0  0  0
 23 17  1  0  0  0  0
 26 18  1  0  0  0  0
 28 19  1  0  0  0  0
 30 41  1  0  0  0  0
 31 42  1  6  0  0  0
 31 32  1  0  0  0  0
 31 30  1  0  0  0  0
 32 44  1  0  0  0  0
 32 33  1  0  0  0  0
 33 34  2  0  0  0  0
 33 37  1  0  0  0  0
 34 35  1  0  0  0  0
 35 46  1  0  0  0  0
 35 36  1  0  0  0  0
 36 47  1  0  0  0  0
 37 36  2  0  0  0  0
 38 31  1  0  0  0  0
 38 39  1  0  0  0  0
 40 38  2  0  0  0  0
 43 32  1  0  0  0  0
 45 34  1  0  0  0  0
M  END
$$$$
