TPI.pdb
 OpenBabel07022419143D

 49 49  0  0  1  0  0  0  0  0999 V2000
    1.9270   -3.7160    3.5890 C   0  0  0  0  0  0  0  0  0  0  0  0
    2.2940   -3.1660    2.2280 C   0  0  1  0  0  0  0  0  0  0  0  0
    3.2020   -4.0370    1.5890 O   0  0  0  0  0  0  0  0  0  0  0  0
    1.0590   -3.0320    1.3460 C   0  0  2  0  0  0  0  0  0  0  0  0
    0.5410   -4.3930    1.2310 N   0  0  0  0  0  0  0  0  0  0  0  0
    1.4080   -2.4750    0.0240 C   0  0  0  0  0  0  0  0  0  0  0  0
    1.4380   -3.3210   -0.9390 O   0  0  0  0  0  0  0  0  0  0  0  0
    2.8360   -3.6690    4.2200 H   0  0  0  0  0  0  0  0  0  0  0  0
    1.1110   -3.1010    4.0140 H   0  0  0  0  0  0  0  0  0  0  0  0
    1.5880   -4.7740    3.5010 H   0  0  0  0  0  0  0  0  0  0  0  0
    2.8340   -2.2200    2.3840 H   0  0  0  0  0  0  0  0  0  0  0  0
    4.1350   -3.8030    1.8770 H   0  0  0  0  0  0  0  0  0  0  0  0
    0.3760   -2.3390    1.8470 H   0  0  0  0  0  0  0  0  0  0  0  0
   -0.5040   -4.4140    1.4050 H   0  0  0  0  0  0  0  0  0  0  0  0
    0.6470   -4.7440    0.2410 H   0  0  0  0  0  0  0  0  0  0  0  0
    1.6990   -1.1060   -0.2240 N   0  0  0  0  0  0  0  0  0  0  0  0
    2.0810   -0.6480   -1.5770 C   0  0  0  0  0  0  0  0  0  0  0  0
    2.7170    0.6870   -1.4050 C   0  0  0  0  0  0  0  0  0  0  0  0
    2.8770    0.8300    0.0830 C   0  0  0  0  0  0  0  0  0  0  0  0
    1.6950    0.0470    0.6360 C   0  0  1  0  0  0  0  0  0  0  0  0
    0.4530    0.8660    0.5380 C   0  0  0  0  0  0  0  0  0  0  0  0
    0.4050    1.9620    1.1730 O   0  0  0  0  0  0  0  0  0  0  0  0
    1.2620   -0.6990   -2.2890 H   0  0  0  0  0  0  0  0  0  0  0  0
    2.8530   -1.3970   -1.9270 H   0  0  0  0  0  0  0  0  0  0  0  0
    2.0770    1.4810   -1.8500 H   0  0  0  0  0  0  0  0  0  0  0  0
    3.7190    0.6750   -1.9270 H   0  0  0  0  0  0  0  0  0  0  0  0
    2.8660    1.8830    0.4270 H   0  0  0  0  0  0  0  0  0  0  0  0
    3.7930    0.2810    0.3810 H   0  0  0  0  0  0  0  0  0  0  0  0
    1.9380   -0.1580    1.6930 H   0  0  0  0  0  0  0  0  0  0  0  0
   -2.1750   -1.0330    1.7280 C   0  0  0  0  0  0  0  0  0  0  0  0
   -3.2710   -0.1290    1.2400 C   0  0  0  0  0  0  0  0  0  0  0  0
   -2.7590    1.1890    0.7270 C   0  0  2  0  0  0  0  0  0  0  0  0
   -3.9990    1.9870    0.2810 C   0  0  0  0  0  0  0  0  0  0  0  0
   -1.8360    1.1190   -0.4220 C   0  0  2  0  0  0  0  0  0  0  0  0
   -0.6180    0.3950   -0.2540 N   0  0  0  0  0  0  0  0  0  0  0  0
   -1.5070    2.5030   -0.8950 C   0  0  0  0  0  0  0  0  0  0  0  0
   -2.3660    3.3910   -1.0850 O   0  0  0  0  0  0  0  0  0  0  0  0
   -0.1950    2.8470   -1.1440 O   0  0  0  0  0  0  0  0  0  0  0  0
   -2.5670   -1.7750    2.4900 H   0  0  0  0  0  0  0  0  0  0  0  0
   -1.3940   -0.4800    2.2890 H   0  0  0  0  0  0  0  0  0  0  0  0
   -1.7540   -1.6890    0.9310 H   0  0  0  0  0  0  0  0  0  0  0  0
   -3.9400    0.0650    2.1060 H   0  0  0  0  0  0  0  0  0  0  0  0
   -3.9080   -0.6080    0.4690 H   0  0  0  0  0  0  0  0  0  0  0  0
   -2.3490    1.7430    1.5890 H   0  0  0  0  0  0  0  0  0  0  0  0
   -4.9320    1.5050    0.6960 H   0  0  0  0  0  0  0  0  0  0  0  0
   -3.9420    3.0420    0.5460 H   0  0  0  0  0  0  0  0  0  0  0  0
   -4.0880    1.8800   -0.8140 H   0  0  0  0  0  0  0  0  0  0  0  0
   -2.4010    0.6910   -1.3100 H   0  0  0  0  0  0  0  0  0  0  0  0
   -0.5050   -0.5230   -0.7300 H   0  0  0  0  0  0  0  0  0  0  0  0
  1  9  1  0  0  0  0
  1  8  1  0  0  0  0
  2 11  1  1  0  0  0
  2  1  1  0  0  0  0
  3 12  1  0  0  0  0
  3  2  1  0  0  0  0
  4 13  1  1  0  0  0
  4  2  1  0  0  0  0
  5  4  1  0  0  0  0
  5 14  1  0  0  0  0
  6  4  1  0  0  0  0
  7  6  2  0  0  0  0
 10  1  1  0  0  0  0
 15  5  1  0  0  0  0
 16  6  1  0  0  0  0
 16 20  1  0  0  0  0
 17 18  1  0  0  0  0
 17 16  1  0  0  0  0
 18 19  1  0  0  0  0
 19 28  1  0  0  0  0
 19 27  1  0  0  0  0
 19 20  1  0  0  0  0
 20 29  1  1  0  0  0
 21 20  1  0  0  0  0
 21 22  2  0  0  0  0
 23 17  1  0  0  0  0
 24 17  1  0  0  0  0
 25 18  1  0  0  0  0
 26 18  1  0  0  0  0
 30 40  1  0  0  0  0
 30 39  1  0  0  0  0
 31 30  1  0  0  0  0
 31 42  1  0  0  0  0
 32 31  1  0  0  0  0
 32 44  1  1  0  0  0
 33 46  1  0  0  0  0
 33 45  1  0  0  0  0
 33 32  1  0  0  0  0
 34 48  1  6  0  0  0
 34 35  1  0  0  0  0
 34 32  1  0  0  0  0
 35 21  1  0  0  0  0
 36 34  1  0  0  0  0
 37 36  1  0  0  0  0
 38 36  2  0  0  0  0
 41 30  1  0  0  0  0
 43 31  1  0  0  0  0
 47 33  1  0  0  0  0
 49 35  1  0  0  0  0
M  END
$$$$
