TPK.pdb
 OpenBabel07022419143D

 51 51  0  0  1  0  0  0  0  0999 V2000
    2.7520   -5.4080    1.6390 C   0  0  0  0  0  0  0  0  0  0  0  0
    3.8880   -4.5300    1.2050 C   0  0  1  0  0  0  0  0  0  0  0  0
    4.8800   -5.3360    0.6370 O   0  0  0  0  0  0  0  0  0  0  0  0
    3.3460   -3.5460    0.1670 C   0  0  2  0  0  0  0  0  0  0  0  0
    4.3850   -2.7000   -0.3360 N   0  0  0  0  0  0  0  0  0  0  0  0
    2.2340   -2.8240    0.7860 C   0  0  0  0  0  0  0  0  0  0  0  0
    1.2120   -3.4490    1.1480 O   0  0  0  0  0  0  0  0  0  0  0  0
    2.0320   -5.5920    0.7980 H   0  0  0  0  0  0  0  0  0  0  0  0
    3.1550   -6.4050    1.9440 H   0  0  0  0  0  0  0  0  0  0  0  0
    2.2770   -4.9750    2.5340 H   0  0  0  0  0  0  0  0  0  0  0  0
    4.3000   -3.9990    2.0660 H   0  0  0  0  0  0  0  0  0  0  0  0
    4.6150   -5.5560   -0.2860 H   0  0  0  0  0  0  0  0  0  0  0  0
    3.0000   -4.1700   -0.6980 H   0  0  0  0  0  0  0  0  0  0  0  0
    4.5900   -2.8680   -1.3460 H   0  0  0  0  0  0  0  0  0  0  0  0
    5.3080   -2.8970    0.1570 H   0  0  0  0  0  0  0  0  0  0  0  0
    2.2820   -1.4180    0.9880 N   0  0  0  0  0  0  0  0  0  0  0  0
    3.3740   -0.5680    0.6560 C   0  0  0  0  0  0  0  0  0  0  0  0
    3.0240    0.8010    1.2300 C   0  0  0  0  0  0  0  0  0  0  0  0
    1.9180    0.5070    2.2340 C   0  0  0  0  0  0  0  0  0  0  0  0
    1.1980   -0.6060    1.5610 C   0  0  1  0  0  0  0  0  0  0  0  0
    0.3610   -0.1570    0.4180 C   0  0  0  0  0  0  0  0  0  0  0  0
    0.6190   -0.4720   -0.7870 O   0  0  0  0  0  0  0  0  0  0  0  0
    4.3470   -0.9190    1.1190 H   0  0  0  0  0  0  0  0  0  0  0  0
    3.5850   -0.4840   -0.4330 H   0  0  0  0  0  0  0  0  0  0  0  0
    2.6030    1.4660    0.4660 H   0  0  0  0  0  0  0  0  0  0  0  0
    3.9060    1.2120    1.7420 H   0  0  0  0  0  0  0  0  0  0  0  0
    2.3800    0.1100    3.1610 H   0  0  0  0  0  0  0  0  0  0  0  0
    1.3110    1.3850    2.4530 H   0  0  0  0  0  0  0  0  0  0  0  0
    0.5760   -1.2160    2.2450 H   0  0  0  0  0  0  0  0  0  0  0  0
   -0.7860    0.6570    0.6100 N   0  0  0  0  0  0  0  0  0  0  0  0
   -1.6310    1.1180   -0.4740 C   0  0  1  0  0  0  0  0  0  0  0  0
   -3.0240    0.5310   -0.3010 C   0  0  0  0  0  0  0  0  0  0  0  0
   -3.6250    0.9780    1.0330 C   0  0  0  0  0  0  0  0  0  0  0  0
   -4.9980    0.3720    1.1530 C   0  0  0  0  0  0  0  0  0  0  0  0
   -5.9060    0.8180    0.0270 C   0  0  0  0  0  0  0  0  0  0  0  0
   -6.0820    2.2440   -0.0020 N   0  0  0  0  0  0  0  0  0  0  0  0
   -1.6850    2.5910   -0.5510 C   0  0  0  0  0  0  0  0  0  0  0  0
   -1.0540    3.3050    0.2530 O   0  0  0  0  0  0  0  0  0  0  0  0
   -2.4470    3.1930   -1.5300 O   0  0  0  0  0  0  0  0  0  0  0  0
   -1.0280    0.9350    1.5860 H   0  0  0  0  0  0  0  0  0  0  0  0
   -1.2700    0.7560   -1.4610 H   0  0  0  0  0  0  0  0  0  0  0  0
   -2.9290   -0.5550   -0.3550 H   0  0  0  0  0  0  0  0  0  0  0  0
   -3.6290    0.8750   -1.1400 H   0  0  0  0  0  0  0  0  0  0  0  0
   -3.5970    2.0630    1.1310 H   0  0  0  0  0  0  0  0  0  0  0  0
   -3.0110    0.5430    1.8540 H   0  0  0  0  0  0  0  0  0  0  0  0
   -4.9020   -0.7220    1.0860 H   0  0  0  0  0  0  0  0  0  0  0  0
   -5.4750    0.6810    2.0950 H   0  0  0  0  0  0  0  0  0  0  0  0
   -6.9160    0.3790    0.2490 H   0  0  0  0  0  0  0  0  0  0  0  0
   -5.6070    0.4060   -0.9560 H   0  0  0  0  0  0  0  0  0  0  0  0
   -6.2320    2.6420   -0.9380 H   0  0  0  0  0  0  0  0  0  0  0  0
   -5.4600    2.7700    0.6210 H   0  0  0  0  0  0  0  0  0  0  0  0
  1  9  1  0  0  0  0
  1 10  1  0  0  0  0
  2  1  1  0  0  0  0
  2 11  1  1  0  0  0
  3  2  1  0  0  0  0
  4 13  1  6  0  0  0
  4  6  1  0  0  0  0
  4  2  1  0  0  0  0
  5 15  1  0  0  0  0
  5  4  1  0  0  0  0
  6 16  1  0  0  0  0
  6  7  2  0  0  0  0
  8  1  1  0  0  0  0
 12  3  1  0  0  0  0
 14  5  1  0  0  0  0
 16 20  1  0  0  0  0
 17 16  1  0  0  0  0
 17 23  1  0  0  0  0
 17 18  1  0  0  0  0
 18 26  1  0  0  0  0
 18 19  1  0  0  0  0
 19 28  1  0  0  0  0
 19 27  1  0  0  0  0
 20 19  1  0  0  0  0
 20 29  1  1  0  0  0
 21 30  1  0  0  0  0
 21 20  1  0  0  0  0
 22 21  2  0  0  0  0
 24 17  1  0  0  0  0
 25 18  1  0  0  0  0
 30 40  1  0  0  0  0
 31 41  1  6  0  0  0
 31 32  1  0  0  0  0
 31 30  1  0  0  0  0
 32 33  1  0  0  0  0
 33 44  1  0  0  0  0
 33 34  1  0  0  0  0
 33 45  1  0  0  0  0
 34 47  1  0  0  0  0
 35 48  1  0  0  0  0
 35 34  1  0  0  0  0
 36 35  1  0  0  0  0
 36 51  1  0  0  0  0
 37 31  1  0  0  0  0
 37 38  1  0  0  0  0
 39 37  2  0  0  0  0
 42 32  1  0  0  0  0
 43 32  1  0  0  0  0
 46 34  1  0  0  0  0
 49 35  1  0  0  0  0
 50 36  1  0  0  0  0
M  END
$$$$
