TPL.pdb
 OpenBabel07022419143D

 49 49  0  0  1  0  0  0  0  0999 V2000
    2.5700   -5.2620   -0.2560 C   0  0  0  0  0  0  0  0  0  0  0  0
    1.6440   -4.4510    0.6400 C   0  0  1  0  0  0  0  0  0  0  0  0
    2.3430   -3.5150    1.3380 O   0  0  0  0  0  0  0  0  0  0  0  0
    0.5090   -3.9190   -0.2160 C   0  0  2  0  0  0  0  0  0  0  0  0
   -0.0440   -5.1430   -0.8450 N   0  0  0  0  0  0  0  0  0  0  0  0
    1.0580   -3.0360   -1.2770 C   0  0  0  0  0  0  0  0  0  0  0  0
    1.3240   -3.5810   -2.3980 O   0  0  0  0  0  0  0  0  0  0  0  0
    1.8950   -6.0010   -0.7790 H   0  0  0  0  0  0  0  0  0  0  0  0
    3.2900   -5.8600    0.3240 H   0  0  0  0  0  0  0  0  0  0  0  0
    3.0160   -4.6180   -1.0220 H   0  0  0  0  0  0  0  0  0  0  0  0
    1.2100   -5.1820    1.3780 H   0  0  0  0  0  0  0  0  0  0  0  0
    3.3090   -3.7240    1.2930 H   0  0  0  0  0  0  0  0  0  0  0  0
   -0.2390   -3.3640    0.3470 H   0  0  0  0  0  0  0  0  0  0  0  0
   -0.3820   -4.8470   -1.7690 H   0  0  0  0  0  0  0  0  0  0  0  0
   -0.7690   -5.5360   -0.2320 H   0  0  0  0  0  0  0  0  0  0  0  0
    1.2740   -1.6600   -1.0550 N   0  0  0  0  0  0  0  0  0  0  0  0
    1.8600   -0.7630   -2.0680 C   0  0  0  0  0  0  0  0  0  0  0  0
    2.5400    0.3270   -1.2700 C   0  0  0  0  0  0  0  0  0  0  0  0
    2.2410    0.0130    0.1700 C   0  0  0  0  0  0  0  0  0  0  0  0
    0.9900   -0.8400    0.0710 C   0  0  1  0  0  0  0  0  0  0  0  0
   -0.1240    0.1420   -0.2300 C   0  0  0  0  0  0  0  0  0  0  0  0
   -0.6760    0.1660   -1.3420 O   0  0  0  0  0  0  0  0  0  0  0  0
    2.6480   -1.2780   -2.6490 H   0  0  0  0  0  0  0  0  0  0  0  0
    1.1140   -0.3870   -2.7680 H   0  0  0  0  0  0  0  0  0  0  0  0
    2.0800    1.2870   -1.5670 H   0  0  0  0  0  0  0  0  0  0  0  0
    3.6140    0.4050   -1.4700 H   0  0  0  0  0  0  0  0  0  0  0  0
    2.0480    0.9370    0.7540 H   0  0  0  0  0  0  0  0  0  0  0  0
    3.0940   -0.5700    0.5760 H   0  0  0  0  0  0  0  0  0  0  0  0
    0.8170   -1.3480    1.0120 H   0  0  0  0  0  0  0  0  0  0  0  0
   -1.8400    0.4700    3.4140 C   0  0  0  0  0  0  0  0  0  0  0  0
   -2.7350    1.4820    2.8250 C   0  0  0  0  0  0  0  0  0  0  0  0
   -2.4600    2.8410    3.4940 C   0  0  0  0  0  0  0  0  0  0  0  0
   -2.7960    1.6500    1.3740 C   0  0  0  0  0  0  0  0  0  0  0  0
   -1.5890    2.0260    0.6070 C   0  0  2  0  0  0  0  0  0  0  0  0
   -0.5480    1.0470    0.7590 N   0  0  0  0  0  0  0  0  0  0  0  0
   -1.1630    3.4070    0.7300 C   0  0  0  0  0  0  0  0  0  0  0  0
   -1.9800    4.3370    0.6180 O   0  0  0  0  0  0  0  0  0  0  0  0
    0.1480    3.7380    0.9710 O   0  0  0  0  0  0  0  0  0  0  0  0
   -2.3780   -0.0010    4.2930 H   0  0  0  0  0  0  0  0  0  0  0  0
   -0.9200    0.8710    3.8860 H   0  0  0  0  0  0  0  0  0  0  0  0
   -1.6460   -0.4130    2.7520 H   0  0  0  0  0  0  0  0  0  0  0  0
   -3.7870    1.2430    3.1680 H   0  0  0  0  0  0  0  0  0  0  0  0
   -3.2080    3.5770    3.1180 H   0  0  0  0  0  0  0  0  0  0  0  0
   -2.6080    2.7850    4.5900 H   0  0  0  0  0  0  0  0  0  0  0  0
   -1.4220    3.1570    3.3250 H   0  0  0  0  0  0  0  0  0  0  0  0
   -3.5800    2.4370    1.1550 H   0  0  0  0  0  0  0  0  0  0  0  0
   -3.2350    0.7310    0.8790 H   0  0  0  0  0  0  0  0  0  0  0  0
   -1.9090    1.9160   -0.4830 H   0  0  0  0  0  0  0  0  0  0  0  0
   -0.0590    1.0050    1.6780 H   0  0  0  0  0  0  0  0  0  0  0  0
  1  9  1  0  0  0  0
  1  2  1  0  0  0  0
  2  3  1  0  0  0  0
  2 11  1  1  0  0  0
  4 13  1  1  0  0  0
  4  2  1  0  0  0  0
  5 15  1  0  0  0  0
  5  4  1  0  0  0  0
  6 16  1  0  0  0  0
  6  4  1  0  0  0  0
  7  6  2  0  0  0  0
  8  1  1  0  0  0  0
 10  1  1  0  0  0  0
 12  3  1  0  0  0  0
 14  5  1  0  0  0  0
 16 20  1  0  0  0  0
 17 18  1  0  0  0  0
 17 16  1  0  0  0  0
 18 19  1  0  0  0  0
 19 28  1  0  0  0  0
 19 27  1  0  0  0  0
 20 19  1  0  0  0  0
 20 29  1  1  0  0  0
 21 20  1  0  0  0  0
 21 35  1  0  0  0  0
 22 21  2  0  0  0  0
 23 17  1  0  0  0  0
 24 17  1  0  0  0  0
 25 18  1  0  0  0  0
 26 18  1  0  0  0  0
 30 40  1  0  0  0  0
 30 39  1  0  0  0  0
 31 42  1  0  0  0  0
 31 30  1  0  0  0  0
 31 32  1  0  0  0  0
 32 44  1  0  0  0  0
 33 31  1  0  0  0  0
 34 48  1  6  0  0  0
 34 36  1  0  0  0  0
 34 35  1  0  0  0  0
 34 33  1  0  0  0  0
 35 49  1  0  0  0  0
 36 38  1  0  0  0  0
 37 36  2  0  0  0  0
 41 30  1  0  0  0  0
 43 32  1  0  0  0  0
 45 32  1  0  0  0  0
 46 33  1  0  0  0  0
 47 33  1  0  0  0  0
M  END
$$$$
