TPM.pdb
 OpenBabel07022419143D

 47 47  0  0  1  0  0  0  0  0999 V2000
    2.6840   -5.5480   -0.8460 C   0  0  0  0  0  0  0  0  0  0  0  0
    2.4130   -4.2750   -0.0750 C   0  0  1  0  0  0  0  0  0  0  0  0
    3.5680   -3.5210    0.0330 O   0  0  0  0  0  0  0  0  0  0  0  0
    1.2810   -3.4940   -0.7270 C   0  0  2  0  0  0  0  0  0  0  0  0
    1.6690   -3.0840   -2.0530 N   0  0  0  0  0  0  0  0  0  0  0  0
    0.9760   -2.3530    0.1660 C   0  0  0  0  0  0  0  0  0  0  0  0
    0.6210   -2.6250    1.3400 O   0  0  0  0  0  0  0  0  0  0  0  0
    3.0130   -6.3470   -0.1810 H   0  0  0  0  0  0  0  0  0  0  0  0
    1.7430   -5.8500   -1.3470 H   0  0  0  0  0  0  0  0  0  0  0  0
    3.4680   -5.3830   -1.6160 H   0  0  0  0  0  0  0  0  0  0  0  0
    2.0610   -4.5910    0.9370 H   0  0  0  0  0  0  0  0  0  0  0  0
    4.3340   -4.1630    0.0070 H   0  0  0  0  0  0  0  0  0  0  0  0
    0.4150   -4.1950   -0.8050 H   0  0  0  0  0  0  0  0  0  0  0  0
    0.8850   -3.2550   -2.7040 H   0  0  0  0  0  0  0  0  0  0  0  0
    2.4740   -3.6720   -2.3480 H   0  0  0  0  0  0  0  0  0  0  0  0
    1.0560   -0.9890   -0.2090 N   0  0  0  0  0  0  0  0  0  0  0  0
    1.4490   -0.5230   -1.5150 C   0  0  0  0  0  0  0  0  0  0  0  0
    1.5080    0.9890   -1.4620 C   0  0  0  0  0  0  0  0  0  0  0  0
    1.5200    1.3420    0.0110 C   0  0  0  0  0  0  0  0  0  0  0  0
    0.7710    0.1740    0.6030 C   0  0  1  0  0  0  0  0  0  0  0  0
   -0.6960    0.3830    0.5860 C   0  0  0  0  0  0  0  0  0  0  0  0
   -1.4460   -0.3880   -0.0540 O   0  0  0  0  0  0  0  0  0  0  0  0
    2.4940   -0.8890   -1.7210 H   0  0  0  0  0  0  0  0  0  0  0  0
    0.8090   -0.8840   -2.3320 H   0  0  0  0  0  0  0  0  0  0  0  0
    0.6030    1.4540   -1.8940 H   0  0  0  0  0  0  0  0  0  0  0  0
    2.4160    1.3650   -1.9530 H   0  0  0  0  0  0  0  0  0  0  0  0
    2.5530    1.3550    0.4140 H   0  0  0  0  0  0  0  0  0  0  0  0
    1.0130    2.2950    0.2320 H   0  0  0  0  0  0  0  0  0  0  0  0
    1.1640    0.0480    1.6320 H   0  0  0  0  0  0  0  0  0  0  0  0
   -0.6100    0.1410    4.6260 C   0  0  0  0  0  0  0  0  0  0  0  0
   -1.1050    1.8070    4.1770 S   0  0  0  0  0  0  0  0  0  0  0  0
   -2.8490    1.9630    3.8040 C   0  0  0  0  0  0  0  0  0  0  0  0
   -3.3340    1.2550    2.6000 C   0  0  0  0  0  0  0  0  0  0  0  0
   -2.7560    1.6670    1.2760 C   0  0  2  0  0  0  0  0  0  0  0  0
   -1.3320    1.4600    1.2890 N   0  0  0  0  0  0  0  0  0  0  0  0
   -3.1250    3.0530    0.9070 C   0  0  0  0  0  0  0  0  0  0  0  0
   -2.2820    3.9460    0.6340 O   0  0  0  0  0  0  0  0  0  0  0  0
   -4.4650    3.4100    0.8520 O   0  0  0  0  0  0  0  0  0  0  0  0
   -0.5540   -0.0100    5.7290 H   0  0  0  0  0  0  0  0  0  0  0  0
    0.4380   -0.0120    4.2460 H   0  0  0  0  0  0  0  0  0  0  0  0
   -1.2670   -0.6290    4.1630 H   0  0  0  0  0  0  0  0  0  0  0  0
   -3.3990    1.5080    4.6830 H   0  0  0  0  0  0  0  0  0  0  0  0
   -3.0890    3.0500    3.8130 H   0  0  0  0  0  0  0  0  0  0  0  0
   -3.1200    0.1460    2.7180 H   0  0  0  0  0  0  0  0  0  0  0  0
   -4.4650    1.2720    2.5670 H   0  0  0  0  0  0  0  0  0  0  0  0
   -3.2590    1.0020    0.5220 H   0  0  0  0  0  0  0  0  0  0  0  0
   -0.6970    2.0880    1.7910 H   0  0  0  0  0  0  0  0  0  0  0  0
  1  8  1  0  0  0  0
  1  2  1  0  0  0  0
  2  3  1  0  0  0  0
  2 11  1  1  0  0  0
  4 13  1  6  0  0  0
  4  2  1  0  0  0  0
  4  6  1  0  0  0  0
  5  4  1  0  0  0  0
  6  7  2  0  0  0  0
  9  1  1  0  0  0  0
 10  1  1  0  0  0  0
 12  3  1  0  0  0  0
 14  5  1  0  0  0  0
 15  5  1  0  0  0  0
 16  6  1  0  0  0  0
 16 20  1  0  0  0  0
 17 18  1  0  0  0  0
 17 16  1  0  0  0  0
 18 19  1  0  0  0  0
 19 28  1  0  0  0  0
 19 27  1  0  0  0  0
 19 20  1  0  0  0  0
 20 29  1  1  0  0  0
 21 20  1  0  0  0  0
 21 35  1  0  0  0  0
 22 21  2  0  0  0  0
 23 17  1  0  0  0  0
 24 17  1  0  0  0  0
 25 18  1  0  0  0  0
 26 18  1  0  0  0  0
 30 39  1  0  0  0  0
 31 30  1  0  0  0  0
 32 43  1  0  0  0  0
 32 31  1  0  0  0  0
 32 42  1  0  0  0  0
 33 44  1  0  0  0  0
 33 32  1  0  0  0  0
 34 46  1  6  0  0  0
 34 35  1  0  0  0  0
 34 33  1  0  0  0  0
 35 47  1  0  0  0  0
 36 34  1  0  0  0  0
 37 36  2  0  0  0  0
 38 36  1  0  0  0  0
 40 30  1  0  0  0  0
 41 30  1  0  0  0  0
 45 33  1  0  0  0  0
M  END
$$$$
