TPN.pdb
 OpenBabel07022419143D

 44 44  0  0  1  0  0  0  0  0999 V2000
    3.0260   -4.6220   -0.4020 C   0  0  0  0  0  0  0  0  0  0  0  0
    2.1730   -3.8840    0.6390 C   0  0  1  0  0  0  0  0  0  0  0  0
    2.8860   -2.9140    1.2610 O   0  0  0  0  0  0  0  0  0  0  0  0
    0.8860   -3.4390   -0.0230 C   0  0  2  0  0  0  0  0  0  0  0  0
    0.2730   -4.6150   -0.6450 N   0  0  0  0  0  0  0  0  0  0  0  0
    1.1270   -2.4850   -1.1260 C   0  0  0  0  0  0  0  0  0  0  0  0
    1.2780   -2.8690   -2.3230 O   0  0  0  0  0  0  0  0  0  0  0  0
    3.9860   -4.9130    0.0460 H   0  0  0  0  0  0  0  0  0  0  0  0
    2.4570   -5.5480   -0.6970 H   0  0  0  0  0  0  0  0  0  0  0  0
    3.1230   -4.0320   -1.3330 H   0  0  0  0  0  0  0  0  0  0  0  0
    1.9050   -4.6720    1.3890 H   0  0  0  0  0  0  0  0  0  0  0  0
    3.8720   -2.9850    1.0940 H   0  0  0  0  0  0  0  0  0  0  0  0
    0.2130   -2.9860    0.6970 H   0  0  0  0  0  0  0  0  0  0  0  0
    0.0300   -4.4790   -1.6280 H   0  0  0  0  0  0  0  0  0  0  0  0
   -0.4780   -5.0150   -0.0480 H   0  0  0  0  0  0  0  0  0  0  0  0
    1.1860   -1.1020   -0.8140 N   0  0  0  0  0  0  0  0  0  0  0  0
    1.4790   -0.0830   -1.8190 C   0  0  0  0  0  0  0  0  0  0  0  0
    2.2500    0.9760   -1.0310 C   0  0  0  0  0  0  0  0  0  0  0  0
    2.1400    0.5550    0.4270 C   0  0  0  0  0  0  0  0  0  0  0  0
    0.9620   -0.3950    0.4310 C   0  0  1  0  0  0  0  0  0  0  0  0
   -0.3330    0.3580    0.3810 C   0  0  0  0  0  0  0  0  0  0  0  0
   -1.0550    0.2900   -0.6260 O   0  0  0  0  0  0  0  0  0  0  0  0
    2.1160   -0.5270   -2.6070 H   0  0  0  0  0  0  0  0  0  0  0  0
    0.5860    0.3610   -2.2610 H   0  0  0  0  0  0  0  0  0  0  0  0
    1.8040    1.9730   -1.1200 H   0  0  0  0  0  0  0  0  0  0  0  0
    3.3000    0.9510   -1.3740 H   0  0  0  0  0  0  0  0  0  0  0  0
    3.0430   -0.0230    0.6990 H   0  0  0  0  0  0  0  0  0  0  0  0
    2.0360    1.3940    1.1130 H   0  0  0  0  0  0  0  0  0  0  0  0
    1.0210   -1.0370    1.2990 H   0  0  0  0  0  0  0  0  0  0  0  0
   -2.9990    1.3880    5.1010 N   0  0  0  0  0  0  0  0  0  0  0  0
   -2.2970    1.7380    3.9210 C   0  0  0  0  0  0  0  0  0  0  0  0
   -1.1640    2.2540    4.0660 O   0  0  0  0  0  0  0  0  0  0  0  0
   -2.9050    1.4900    2.6030 C   0  0  0  0  0  0  0  0  0  0  0  0
   -2.0130    1.8970    1.4500 C   0  0  2  0  0  0  0  0  0  0  0  0
   -0.7700    1.1610    1.4710 N   0  0  0  0  0  0  0  0  0  0  0  0
   -1.7980    3.3580    1.5750 C   0  0  0  0  0  0  0  0  0  0  0  0
   -0.6340    3.7910    1.6800 O   0  0  0  0  0  0  0  0  0  0  0  0
   -2.8640    4.2270    1.5750 O   0  0  0  0  0  0  0  0  0  0  0  0
   -2.6610    0.5200    5.6000 H   0  0  0  0  0  0  0  0  0  0  0  0
   -3.7910    1.9140    5.4830 H   0  0  0  0  0  0  0  0  0  0  0  0
   -3.8690    2.0700    2.5140 H   0  0  0  0  0  0  0  0  0  0  0  0
   -3.2340    0.4180    2.5000 H   0  0  0  0  0  0  0  0  0  0  0  0
   -2.5480    1.7480    0.4890 H   0  0  0  0  0  0  0  0  0  0  0  0
   -0.1420    1.1920    2.2900 H   0  0  0  0  0  0  0  0  0  0  0  0
  1  8  1  0  0  0  0
  1  2  1  0  0  0  0
  2  3  1  0  0  0  0
  2 11  1  1  0  0  0
  4  2  1  0  0  0  0
  4 13  1  1  0  0  0
  5 15  1  0  0  0  0
  5  4  1  0  0  0  0
  6 16  1  0  0  0  0
  6  4  1  0  0  0  0
  7  6  2  0  0  0  0
  9  1  1  0  0  0  0
 10  1  1  0  0  0  0
 12  3  1  0  0  0  0
 14  5  1  0  0  0  0
 16 20  1  0  0  0  0
 17 18  1  0  0  0  0
 17 16  1  0  0  0  0
 18 19  1  0  0  0  0
 19 20  1  0  0  0  0
 19 27  1  0  0  0  0
 19 28  1  0  0  0  0
 20 29  1  1  0  0  0
 21 20  1  0  0  0  0
 21 35  1  0  0  0  0
 22 21  2  0  0  0  0
 23 17  1  0  0  0  0
 24 17  1  0  0  0  0
 25 18  1  0  0  0  0
 26 18  1  0  0  0  0
 30 40  1  0  0  0  0
 30 39  1  0  0  0  0
 31 32  2  0  0  0  0
 31 30  1  0  0  0  0
 33 31  1  0  0  0  0
 34 43  1  6  0  0  0
 34 35  1  0  0  0  0
 34 36  1  0  0  0  0
 34 33  1  0  0  0  0
 35 44  1  0  0  0  0
 36 38  2  0  0  0  0
 36 37  1  0  0  0  0
 41 33  1  0  0  0  0
 42 33  1  0  0  0  0
M  END
$$$$
