TPP.pdb
 OpenBabel07022419143D

 44 45  0  0  1  0  0  0  0  0999 V2000
   -0.0200   -4.7250    0.2100 C   0  0  0  0  0  0  0  0  0  0  0  0
    0.0830   -3.2450    0.4840 C   0  0  1  0  0  0  0  0  0  0  0  0
   -0.3490   -2.9810    1.7990 O   0  0  0  0  0  0  0  0  0  0  0  0
    1.4510   -2.7180    0.2110 C   0  0  2  0  0  0  0  0  0  0  0  0
    2.4520   -3.2650    1.0920 N   0  0  0  0  0  0  0  0  0  0  0  0
    1.5860   -1.2620    0.1450 C   0  0  0  0  0  0  0  0  0  0  0  0
    2.4210   -0.6970    0.9460 O   0  0  0  0  0  0  0  0  0  0  0  0
   -0.8390   -4.9720   -0.4940 H   0  0  0  0  0  0  0  0  0  0  0  0
    0.9130   -5.1530   -0.1980 H   0  0  0  0  0  0  0  0  0  0  0  0
   -0.2540   -5.2650    1.1520 H   0  0  0  0  0  0  0  0  0  0  0  0
   -0.6710   -2.7520   -0.1620 H   0  0  0  0  0  0  0  0  0  0  0  0
   -1.0930   -3.5920    2.0280 H   0  0  0  0  0  0  0  0  0  0  0  0
    1.7240   -3.1010   -0.8180 H   0  0  0  0  0  0  0  0  0  0  0  0
    2.6690   -4.2500    0.9140 H   0  0  0  0  0  0  0  0  0  0  0  0
    3.2740   -2.6470    1.2330 H   0  0  0  0  0  0  0  0  0  0  0  0
    0.8870   -0.4100   -0.7200 N   0  0  0  0  0  0  0  0  0  0  0  0
   -0.0950   -0.8140   -1.7000 C   0  0  0  0  0  0  0  0  0  0  0  0
    0.1540    0.2220   -2.8350 C   0  0  0  0  0  0  0  0  0  0  0  0
    0.1410    1.4540   -1.9690 C   0  0  0  0  0  0  0  0  0  0  0  0
    1.0340    1.0010   -0.8440 C   0  0  1  0  0  0  0  0  0  0  0  0
    0.9490    1.8140    0.3600 C   0  0  0  0  0  0  0  0  0  0  0  0
    1.5680    2.9430    0.2340 O   0  0  0  0  0  0  0  0  0  0  0  0
    0.1110   -1.7840   -2.1800 H   0  0  0  0  0  0  0  0  0  0  0  0
   -1.1330   -0.6990   -1.3980 H   0  0  0  0  0  0  0  0  0  0  0  0
   -0.6730    0.1820   -3.5570 H   0  0  0  0  0  0  0  0  0  0  0  0
    1.1370    0.0140   -3.2520 H   0  0  0  0  0  0  0  0  0  0  0  0
    0.5590    2.3350   -2.4870 H   0  0  0  0  0  0  0  0  0  0  0  0
   -0.9140    1.5720   -1.6790 H   0  0  0  0  0  0  0  0  0  0  0  0
    2.0670    1.1250   -1.3040 H   0  0  0  0  0  0  0  0  0  0  0  0
    0.3310    1.5990    1.5930 N   0  0  0  0  0  0  0  0  0  0  0  0
    0.4060    2.5540    2.7180 C   0  0  0  0  0  0  0  0  0  0  0  0
    0.2890    1.7460    3.9870 C   0  0  0  0  0  0  0  0  0  0  0  0
    0.1770    0.3170    3.4820 C   0  0  0  0  0  0  0  0  0  0  0  0
   -0.4950    0.5940    2.1580 C   0  0  1  0  0  0  0  0  0  0  0  0
   -1.8640    1.1110    2.4780 C   0  0  0  0  0  0  0  0  0  0  0  0
   -2.2950    2.2380    2.2430 O   0  0  0  0  0  0  0  0  0  0  0  0
   -2.7290    0.2060    3.1100 O   0  0  0  0  0  0  0  0  0  0  0  0
   -0.3480    3.3590    2.6280 H   0  0  0  0  0  0  0  0  0  0  0  0
    1.4250    3.0580    2.6810 H   0  0  0  0  0  0  0  0  0  0  0  0
   -0.6670    1.9640    4.5330 H   0  0  0  0  0  0  0  0  0  0  0  0
    1.1680    1.8790    4.6490 H   0  0  0  0  0  0  0  0  0  0  0  0
    1.1450   -0.1400    3.2900 H   0  0  0  0  0  0  0  0  0  0  0  0
   -0.4780   -0.2860    4.1470 H   0  0  0  0  0  0  0  0  0  0  0  0
   -0.6670   -0.3000    1.5610 H   0  0  0  0  0  0  0  0  0  0  0  0
  1  2  1  0  0  0  0
  1 10  1  0  0  0  0
  2 11  1  6  0  0  0
  2  3  1  0  0  0  0
  3 12  1  0  0  0  0
  4 13  1  6  0  0  0
  4  2  1  0  0  0  0
  4  5  1  0  0  0  0
  5 15  1  0  0  0  0
  6  4  1  0  0  0  0
  6  7  2  0  0  0  0
  8  1  1  0  0  0  0
  9  1  1  0  0  0  0
 14  5  1  0  0  0  0
 16  6  1  0  0  0  0
 17 24  1  0  0  0  0
 17 16  1  0  0  0  0
 18 19  1  0  0  0  0
 18 17  1  0  0  0  0
 19 28  1  0  0  0  0
 19 20  1  0  0  0  0
 20 29  1  6  0  0  0
 20 16  1  0  0  0  0
 20 21  1  0  0  0  0
 21 30  1  0  0  0  0
 22 21  2  0  0  0  0
 23 17  1  0  0  0  0
 25 18  1  0  0  0  0
 26 18  1  0  0  0  0
 27 19  1  0  0  0  0
 30 34  1  0  0  0  0
 30 31  1  0  0  0  0
 31 32  1  0  0  0  0
 32 40  1  0  0  0  0
 32 41  1  0  0  0  0
 33 32  1  0  0  0  0
 33 43  1  0  0  0  0
 34 44  1  6  0  0  0
 34 35  1  0  0  0  0
 34 33  1  0  0  0  0
 35 37  1  0  0  0  0
 36 35  2  0  0  0  0
 38 31  1  0  0  0  0
 39 31  1  0  0  0  0
 42 33  1  0  0  0  0
M  END
$$$$
