TPS.pdb
 OpenBabel07022419143D

 41 41  0  0  1  0  0  0  0  0999 V2000
   -1.4600   -3.5190   -1.4300 C   0  0  0  0  0  0  0  0  0  0  0  0
   -0.7290   -2.4930   -0.5930 C   0  0  1  0  0  0  0  0  0  0  0  0
   -1.5690   -2.1500    0.4900 O   0  0  0  0  0  0  0  0  0  0  0  0
    0.5130   -3.1420   -0.0490 C   0  0  2  0  0  0  0  0  0  0  0  0
    0.1100   -4.3170    0.6810 N   0  0  0  0  0  0  0  0  0  0  0  0
    1.3440   -2.2260    0.7570 C   0  0  0  0  0  0  0  0  0  0  0  0
    1.5570   -2.5790    1.9570 O   0  0  0  0  0  0  0  0  0  0  0  0
   -2.2940   -4.0030   -0.9080 H   0  0  0  0  0  0  0  0  0  0  0  0
   -1.8410   -3.0570   -2.3870 H   0  0  0  0  0  0  0  0  0  0  0  0
   -0.7810   -4.3390   -1.7830 H   0  0  0  0  0  0  0  0  0  0  0  0
   -0.5560   -1.6200   -1.2210 H   0  0  0  0  0  0  0  0  0  0  0  0
   -2.0300   -2.9860    0.7530 H   0  0  0  0  0  0  0  0  0  0  0  0
    1.1220   -3.4760   -0.9140 H   0  0  0  0  0  0  0  0  0  0  0  0
   -0.7480   -4.6940    0.2220 H   0  0  0  0  0  0  0  0  0  0  0  0
   -0.1550   -4.1020    1.6780 H   0  0  0  0  0  0  0  0  0  0  0  0
    1.8970   -1.0270    0.2990 N   0  0  0  0  0  0  0  0  0  0  0  0
    1.7980   -0.4180   -1.0220 C   0  0  0  0  0  0  0  0  0  0  0  0
    3.1200    0.2840   -1.2550 C   0  0  0  0  0  0  0  0  0  0  0  0
    3.4960    0.7260    0.1320 C   0  0  0  0  0  0  0  0  0  0  0  0
    2.7080   -0.1170    1.0780 C   0  0  1  0  0  0  0  0  0  0  0  0
    1.8640    0.7940    1.9010 C   0  0  0  0  0  0  0  0  0  0  0  0
    2.3610    1.6670    2.6560 O   0  0  0  0  0  0  0  0  0  0  0  0
    0.9510    0.2870   -1.0290 H   0  0  0  0  0  0  0  0  0  0  0  0
    1.7180   -1.1870   -1.8280 H   0  0  0  0  0  0  0  0  0  0  0  0
    3.8420   -0.4740   -1.6130 H   0  0  0  0  0  0  0  0  0  0  0  0
    2.9800    1.1150   -1.9620 H   0  0  0  0  0  0  0  0  0  0  0  0
    4.6030    0.6510    0.3140 H   0  0  0  0  0  0  0  0  0  0  0  0
    3.2640    1.8160    0.2230 H   0  0  0  0  0  0  0  0  0  0  0  0
    3.4410   -0.6680    1.7260 H   0  0  0  0  0  0  0  0  0  0  0  0
   -0.4870    3.2800    0.9550 O   0  0  0  0  0  0  0  0  0  0  0  0
   -1.2770    2.4590    1.7500 C   0  0  0  0  0  0  0  0  0  0  0  0
   -0.4200    1.5610    2.6340 C   0  0  2  0  0  0  0  0  0  0  0  0
    0.4410    0.7060    1.8600 N   0  0  0  0  0  0  0  0  0  0  0  0
   -1.2480    0.8120    3.6000 C   0  0  0  0  0  0  0  0  0  0  0  0
   -1.1500   -0.4600    3.6770 O   0  0  0  0  0  0  0  0  0  0  0  0
   -2.1510    1.4120    4.4550 O   0  0  0  0  0  0  0  0  0  0  0  0
    0.1560    3.7340    1.5620 H   0  0  0  0  0  0  0  0  0  0  0  0
   -1.8200    1.7710    1.0540 H   0  0  0  0  0  0  0  0  0  0  0  0
   -1.9590    3.0230    2.4040 H   0  0  0  0  0  0  0  0  0  0  0  0
    0.2350    2.2440    3.2180 H   0  0  0  0  0  0  0  0  0  0  0  0
    0.0170   -0.0220    1.2300 H   0  0  0  0  0  0  0  0  0  0  0  0
  1  8  1  0  0  0  0
  1  2  1  0  0  0  0
  2 11  1  6  0  0  0
  2  4  1  0  0  0  0
  2  3  1  0  0  0  0
  3 12  1  0  0  0  0
  4 13  1  6  0  0  0
  4  5  1  0  0  0  0
  4  6  1  0  0  0  0
  5 15  1  0  0  0  0
  6  7  2  0  0  0  0
  9  1  1  0  0  0  0
 10  1  1  0  0  0  0
 14  5  1  0  0  0  0
 16  6  1  0  0  0  0
 16 20  1  0  0  0  0
 17 16  1  0  0  0  0
 18 17  1  0  0  0  0
 18 19  1  0  0  0  0
 19 28  1  0  0  0  0
 19 27  1  0  0  0  0
 19 20  1  0  0  0  0
 20 29  1  1  0  0  0
 20 21  1  0  0  0  0
 21 22  2  0  0  0  0
 23 17  1  0  0  0  0
 24 17  1  0  0  0  0
 25 18  1  0  0  0  0
 26 18  1  0  0  0  0
 30 37  1  0  0  0  0
 30 31  1  0  0  0  0
 31 39  1  0  0  0  0
 31 32  1  0  0  0  0
 32 40  1  1  0  0  0
 32 34  1  0  0  0  0
 33 21  1  0  0  0  0
 33 32  1  0  0  0  0
 34 35  2  0  0  0  0
 34 36  1  0  0  0  0
 38 31  1  0  0  0  0
 41 33  1  0  0  0  0
M  END
$$$$
