TPT.pdb
 OpenBabel07022419143D

 44 44  0  0  1  0  0  0  0  0999 V2000
    2.6450   -2.9420    4.2250 C   0  0  0  0  0  0  0  0  0  0  0  0
    2.0370   -3.5960    3.0000 C   0  0  1  0  0  0  0  0  0  0  0  0
    0.7990   -4.1010    3.3570 O   0  0  0  0  0  0  0  0  0  0  0  0
    1.7900   -2.4850    1.9660 C   0  0  2  0  0  0  0  0  0  0  0  0
    0.9800   -1.5160    2.6210 N   0  0  0  0  0  0  0  0  0  0  0  0
    1.3140   -3.0140    0.6950 C   0  0  0  0  0  0  0  0  0  0  0  0
    1.6860   -4.2510    0.4890 O   0  0  0  0  0  0  0  0  0  0  0  0
    2.8960   -1.8680    4.0460 H   0  0  0  0  0  0  0  0  0  0  0  0
    3.5940   -3.4280    4.5300 H   0  0  0  0  0  0  0  0  0  0  0  0
    1.9440   -2.9560    5.0870 H   0  0  0  0  0  0  0  0  0  0  0  0
    2.6820   -4.3910    2.5820 H   0  0  0  0  0  0  0  0  0  0  0  0
    0.6970   -4.2360    4.3270 H   0  0  0  0  0  0  0  0  0  0  0  0
    2.8220   -2.0370    1.8290 H   0  0  0  0  0  0  0  0  0  0  0  0
    0.4450   -1.8720    3.4400 H   0  0  0  0  0  0  0  0  0  0  0  0
    1.5400   -0.6980    2.9660 H   0  0  0  0  0  0  0  0  0  0  0  0
    0.5520   -2.4540   -0.3110 N   0  0  0  0  0  0  0  0  0  0  0  0
    0.0480   -3.2740   -1.4790 C   0  0  0  0  0  0  0  0  0  0  0  0
   -1.4220   -2.8930   -1.3830 C   0  0  0  0  0  0  0  0  0  0  0  0
   -1.4680   -1.5240   -0.6560 C   0  0  0  0  0  0  0  0  0  0  0  0
    0.0020   -1.1890   -0.6980 C   0  0  1  0  0  0  0  0  0  0  0  0
    0.4610    0.0340   -0.1360 C   0  0  0  0  0  0  0  0  0  0  0  0
    1.5910    0.1980    0.3310 O   0  0  0  0  0  0  0  0  0  0  0  0
    0.2590   -4.3230   -1.3420 H   0  0  0  0  0  0  0  0  0  0  0  0
    0.4470   -2.8330   -2.4030 H   0  0  0  0  0  0  0  0  0  0  0  0
   -1.8840   -2.7570   -2.3810 H   0  0  0  0  0  0  0  0  0  0  0  0
   -1.9300   -3.6670   -0.7750 H   0  0  0  0  0  0  0  0  0  0  0  0
   -2.1060   -0.8170   -1.1820 H   0  0  0  0  0  0  0  0  0  0  0  0
   -1.7410   -1.7140    0.3960 H   0  0  0  0  0  0  0  0  0  0  0  0
    0.1810   -1.1000   -1.8590 H   0  0  0  0  0  0  0  0  0  0  0  0
   -1.2710    3.8130   -1.1090 C   0  0  0  0  0  0  0  0  0  0  0  0
    0.0760    3.5480   -0.5190 C   0  0  1  0  0  0  0  0  0  0  0  0
    0.5710    4.6660    0.1790 O   0  0  0  0  0  0  0  0  0  0  0  0
    0.0700    2.4050    0.4840 C   0  0  2  0  0  0  0  0  0  0  0  0
   -0.4140    1.1840   -0.0870 N   0  0  0  0  0  0  0  0  0  0  0  0
   -0.7440    2.7570    1.6680 C   0  0  0  0  0  0  0  0  0  0  0  0
   -0.4740    3.7930    2.3040 O   0  0  0  0  0  0  0  0  0  0  0  0
   -1.7920    1.9630    2.0800 O   0  0  0  0  0  0  0  0  0  0  0  0
   -1.7090    4.7740   -0.7240 H   0  0  0  0  0  0  0  0  0  0  0  0
   -1.9980    3.0050   -0.9180 H   0  0  0  0  0  0  0  0  0  0  0  0
   -1.1180    3.9690   -2.2160 H   0  0  0  0  0  0  0  0  0  0  0  0
    0.8330    3.3080   -1.2870 H   0  0  0  0  0  0  0  0  0  0  0  0
    0.7610    5.4100   -0.4640 H   0  0  0  0  0  0  0  0  0  0  0  0
    1.1220    2.3150    0.8410 H   0  0  0  0  0  0  0  0  0  0  0  0
   -1.3830    1.1130   -0.4650 H   0  0  0  0  0  0  0  0  0  0  0  0
  1  9  1  0  0  0  0
  1 10  1  0  0  0  0
  2 11  1  6  0  0  0
  2  3  1  0  0  0  0
  2  1  1  0  0  0  0
  3 12  1  0  0  0  0
  4 13  1  6  0  0  0
  4  5  1  0  0  0  0
  4  2  1  0  0  0  0
  5 15  1  0  0  0  0
  5 14  1  0  0  0  0
  6  4  1  0  0  0  0
  7  6  2  0  0  0  0
  8  1  1  0  0  0  0
 16  6  1  0  0  0  0
 17 18  1  0  0  0  0
 17 23  1  0  0  0  0
 17 16  1  0  0  0  0
 18 26  1  0  0  0  0
 18 19  1  0  0  0  0
 19 28  1  0  0  0  0
 20 29  1  6  0  0  0
 20 19  1  0  0  0  0
 20 16  1  0  0  0  0
 20 21  1  0  0  0  0
 21 34  1  0  0  0  0
 21 22  2  0  0  0  0
 24 17  1  0  0  0  0
 25 18  1  0  0  0  0
 27 19  1  0  0  0  0
 30 39  1  0  0  0  0
 30 38  1  0  0  0  0
 30 31  1  0  0  0  0
 31 41  1  6  0  0  0
 31 32  1  0  0  0  0
 31 33  1  0  0  0  0
 33 43  1  1  0  0  0
 33 35  1  0  0  0  0
 34 33  1  0  0  0  0
 35 37  2  0  0  0  0
 35 36  1  0  0  0  0
 40 30  1  0  0  0  0
 42 32  1  0  0  0  0
 44 34  1  0  0  0  0
M  END
$$$$
