TPW.pdb
 OpenBabel07022419143D

 54 56  0  0  1  0  0  0  0  0999 V2000
    3.6690   -3.4100    5.7730 C   0  0  0  0  0  0  0  0  0  0  0  0
    2.5650   -2.5370    5.2460 C   0  0  1  0  0  0  0  0  0  0  0  0
    2.4510   -1.3840    6.0320 O   0  0  0  0  0  0  0  0  0  0  0  0
    2.9280   -2.1080    3.8370 C   0  0  2  0  0  0  0  0  0  0  0  0
    4.1740   -1.3980    3.8560 N   0  0  0  0  0  0  0  0  0  0  0  0
    1.8720   -1.3260    3.1950 C   0  0  0  0  0  0  0  0  0  0  0  0
    0.7130   -1.8560    3.0990 O   0  0  0  0  0  0  0  0  0  0  0  0
    4.5910   -3.1850    5.2280 H   0  0  0  0  0  0  0  0  0  0  0  0
    3.3640   -4.4780    5.6730 H   0  0  0  0  0  0  0  0  0  0  0  0
    3.8340   -3.2630    6.8710 H   0  0  0  0  0  0  0  0  0  0  0  0
    1.6290   -3.1120    5.2400 H   0  0  0  0  0  0  0  0  0  0  0  0
    3.0850   -1.4170    6.7840 H   0  0  0  0  0  0  0  0  0  0  0  0
    3.0750   -3.0230    3.1910 H   0  0  0  0  0  0  0  0  0  0  0  0
    4.4710   -1.1100    4.8180 H   0  0  0  0  0  0  0  0  0  0  0  0
    4.9340   -1.9990    3.4950 H   0  0  0  0  0  0  0  0  0  0  0  0
    2.0210   -0.0020    2.6550 N   0  0  0  0  0  0  0  0  0  0  0  0
    3.2430    0.7110    2.7020 C   0  0  0  0  0  0  0  0  0  0  0  0
    2.9980    2.0560    2.0950 C   0  0  0  0  0  0  0  0  0  0  0  0
    1.5820    2.0270    1.6150 C   0  0  0  0  0  0  0  0  0  0  0  0
    0.9860    0.7360    2.0190 C   0  0  1  0  0  0  0  0  0  0  0  0
    0.3990   -0.0170    0.8710 C   0  0  0  0  0  0  0  0  0  0  0  0
    0.8970   -1.1170    0.5980 O   0  0  0  0  0  0  0  0  0  0  0  0
    3.6030    0.8660    3.7690 H   0  0  0  0  0  0  0  0  0  0  0  0
    4.0620    0.2020    2.1240 H   0  0  0  0  0  0  0  0  0  0  0  0
    3.1600    2.8870    2.8320 H   0  0  0  0  0  0  0  0  0  0  0  0
    3.7250    2.2010    1.2400 H   0  0  0  0  0  0  0  0  0  0  0  0
    1.6010    2.0910    0.4960 H   0  0  0  0  0  0  0  0  0  0  0  0
    1.0070    2.9150    1.9560 H   0  0  0  0  0  0  0  0  0  0  0  0
    0.1510    0.9190    2.7540 H   0  0  0  0  0  0  0  0  0  0  0  0
   -0.6730    0.4530    0.0960 N   0  0  0  0  0  0  0  0  0  0  0  0
   -1.2550   -0.2730   -1.0270 C   0  0  1  0  0  0  0  0  0  0  0  0
   -2.6710   -0.5970   -0.8310 C   0  0  0  0  0  0  0  0  0  0  0  0
   -3.2640   -1.2890   -1.9860 C   0  0  0  0  0  0  0  0  0  0  0  0
   -3.2580   -2.6820   -2.1850 C   0  0  0  0  0  0  0  0  0  0  0  0
   -3.8360   -2.9830   -3.3510 N   0  0  0  0  0  0  0  0  0  0  0  0
   -4.2190   -1.8340   -3.9180 C   0  0  0  0  0  0  0  0  0  0  0  0
   -4.8820   -1.5970   -5.1220 C   0  0  0  0  0  0  0  0  0  0  0  0
   -5.1780   -0.3070   -5.4530 C   0  0  0  0  0  0  0  0  0  0  0  0
   -4.8500    0.7690   -4.6500 C   0  0  0  0  0  0  0  0  0  0  0  0
   -4.1950    0.5280   -3.4640 C   0  0  0  0  0  0  0  0  0  0  0  0
   -3.8840   -0.7820   -3.1100 C   0  0  0  0  0  0  0  0  0  0  0  0
   -1.0030    0.4420   -2.2730 C   0  0  0  0  0  0  0  0  0  0  0  0
   -0.5690    1.6270   -2.3320 O   0  0  0  0  0  0  0  0  0  0  0  0
   -1.2300   -0.1750   -3.5200 O   0  0  0  0  0  0  0  0  0  0  0  0
   -1.0800    1.3750    0.3370 H   0  0  0  0  0  0  0  0  0  0  0  0
   -0.6980   -1.2690   -1.1420 H   0  0  0  0  0  0  0  0  0  0  0  0
   -3.2250    0.3830   -0.7010 H   0  0  0  0  0  0  0  0  0  0  0  0
   -2.8910   -1.2490    0.0460 H   0  0  0  0  0  0  0  0  0  0  0  0
   -2.8280   -3.3760   -1.4560 H   0  0  0  0  0  0  0  0  0  0  0  0
   -3.9590   -3.9370   -3.7340 H   0  0  0  0  0  0  0  0  0  0  0  0
   -5.1340   -2.4630   -5.7480 H   0  0  0  0  0  0  0  0  0  0  0  0
   -5.6890   -0.0980   -6.3760 H   0  0  0  0  0  0  0  0  0  0  0  0
   -5.0940    1.7790   -4.9330 H   0  0  0  0  0  0  0  0  0  0  0  0
   -3.9060    1.3160   -2.7820 H   0  0  0  0  0  0  0  0  0  0  0  0
  1 10  1  0  0  0  0
  2 11  1  6  0  0  0
  2  1  1  0  0  0  0
  2  3  1  0  0  0  0
  3 12  1  0  0  0  0
  4 13  1  6  0  0  0
  4  5  1  0  0  0  0
  4  2  1  0  0  0  0
  5 14  1  0  0  0  0
  6  4  1  0  0  0  0
  7  6  2  0  0  0  0
  8  1  1  0  0  0  0
  9  1  1  0  0  0  0
 15  5  1  0  0  0  0
 16 17  1  0  0  0  0
 16  6  1  0  0  0  0
 17 23  1  0  0  0  0
 18 17  1  0  0  0  0
 18 25  1  0  0  0  0
 19 28  1  0  0  0  0
 19 20  1  0  0  0  0
 19 18  1  0  0  0  0
 20 16  1  0  0  0  0
 20 29  1  1  0  0  0
 21 20  1  0  0  0  0
 22 21  2  0  0  0  0
 24 17  1  0  0  0  0
 26 18  1  0  0  0  0
 27 19  1  0  0  0  0
 30 45  1  0  0  0  0
 30 21  1  0  0  0  0
 31 46  1  6  0  0  0
 31 32  1  0  0  0  0
 31 30  1  0  0  0  0
 32 47  1  0  0  0  0
 32 48  1  0  0  0  0
 33 32  1  0  0  0  0
 34 33  2  0  0  0  0
 34 49  1  0  0  0  0
 35 34  1  0  0  0  0
 36 35  1  0  0  0  0
 36 41  1  0  0  0  0
 37 36  2  0  0  0  0
 38 37  1  0  0  0  0
 38 39  2  0  0  0  0
 39 40  1  0  0  0  0
 40 41  2  0  0  0  0
 40 54  1  0  0  0  0
 41 33  1  0  0  0  0
 42 31  1  0  0  0  0
 43 42  1  0  0  0  0
 44 42  2  0  0  0  0
 50 35  1  0  0  0  0
 51 37  1  0  0  0  0
 52 38  1  0  0  0  0
 53 39  1  0  0  0  0
M  END
$$$$
