TQA.pdb
 OpenBabel07022419123D

 43 42  0  0  1  0  0  0  0  0999 V2000
    2.0170   -4.0160    2.2760 C   0  0  0  0  0  0  0  0  0  0  0  0
    3.2400   -3.5220    1.5450 C   0  0  1  0  0  0  0  0  0  0  0  0
    3.0700   -3.8010    0.1950 O   0  0  0  0  0  0  0  0  0  0  0  0
    3.5820   -2.0970    1.8160 C   0  0  2  0  0  0  0  0  0  0  0  0
    3.7330   -1.9050    3.2420 N   0  0  0  0  0  0  0  0  0  0  0  0
    2.5590   -1.1640    1.2770 C   0  0  0  0  0  0  0  0  0  0  0  0
    2.3340   -1.2580    0.0440 O   0  0  0  0  0  0  0  0  0  0  0  0
    1.0860   -3.6610    1.7890 H   0  0  0  0  0  0  0  0  0  0  0  0
    2.0410   -5.1430    2.1750 H   0  0  0  0  0  0  0  0  0  0  0  0
    2.0250   -3.8020    3.3580 H   0  0  0  0  0  0  0  0  0  0  0  0
    4.1270   -4.1270    1.9010 H   0  0  0  0  0  0  0  0  0  0  0  0
    2.1250   -3.6250   -0.0340 H   0  0  0  0  0  0  0  0  0  0  0  0
    4.5780   -1.8260    1.3740 H   0  0  0  0  0  0  0  0  0  0  0  0
    4.1170   -0.9450    3.4330 H   0  0  0  0  0  0  0  0  0  0  0  0
    2.7930   -1.9490    3.6710 H   0  0  0  0  0  0  0  0  0  0  0  0
   -0.7870    3.0540   -2.0240 N   0  0  0  0  0  0  0  0  0  0  0  0
    0.0790    2.0930   -1.4160 C   0  0  0  0  0  0  0  0  0  0  0  0
    0.0690    0.9240   -1.8650 O   0  0  0  0  0  0  0  0  0  0  0  0
    0.9170    2.5610   -0.3100 C   0  0  0  0  0  0  0  0  0  0  0  0
    1.6000    1.5700    0.5200 C   0  0  0  0  0  0  0  0  0  0  0  0
    0.8690    0.6520    1.3990 C   0  0  2  0  0  0  0  0  0  0  0  0
    1.8650   -0.2270    2.0460 N   0  0  0  0  0  0  0  0  0  0  0  0
   -0.2870   -0.0970    0.9610 C   0  0  0  0  0  0  0  0  0  0  0  0
   -0.1330   -1.3770    0.8950 O   0  0  0  0  0  0  0  0  0  0  0  0
   -0.9080    3.0400   -3.0580 H   0  0  0  0  0  0  0  0  0  0  0  0
   -1.2880    3.7540   -1.4490 H   0  0  0  0  0  0  0  0  0  0  0  0
    1.7350    3.1830   -0.8080 H   0  0  0  0  0  0  0  0  0  0  0  0
    0.3880    3.3410    0.3080 H   0  0  0  0  0  0  0  0  0  0  0  0
    2.3070    2.1570    1.1980 H   0  0  0  0  0  0  0  0  0  0  0  0
    2.3430    1.0430   -0.1550 H   0  0  0  0  0  0  0  0  0  0  0  0
    0.4890    1.3000    2.2720 H   0  0  0  0  0  0  0  0  0  0  0  0
    2.0540   -0.1560    3.0660 H   0  0  0  0  0  0  0  0  0  0  0  0
   -3.6640   -0.4620    1.3600 C   0  0  0  0  0  0  0  0  0  0  0  0
   -2.6500   -0.4520    0.2040 C   0  0  2  0  0  0  0  0  0  0  0  0
   -1.5710    0.4010    0.6090 N   0  0  0  0  0  0  0  0  0  0  0  0
   -3.3460   -0.0800   -1.0280 C   0  0  0  0  0  0  0  0  0  0  0  0
   -3.0170    0.9340   -1.6740 O   0  0  0  0  0  0  0  0  0  0  0  0
   -4.3950   -0.8360   -1.5270 O   0  0  0  0  0  0  0  0  0  0  0  0
   -3.1670   -0.6690    2.3160 H   0  0  0  0  0  0  0  0  0  0  0  0
   -4.2100    0.4960    1.3700 H   0  0  0  0  0  0  0  0  0  0  0  0
   -4.3980   -1.2710    1.1760 H   0  0  0  0  0  0  0  0  0  0  0  0
   -2.3260   -1.5330    0.1430 H   0  0  0  0  0  0  0  0  0  0  0  0
   -1.7140    1.4240    0.6660 H   0  0  0  0  0  0  0  0  0  0  0  0
  1 10  1  0  0  0  0
  2  4  1  0  0  0  0
  2 11  1  1  0  0  0
  2  1  1  0  0  0  0
  3  2  1  0  0  0  0
  4 13  1  6  0  0  0
  4  5  1  0  0  0  0
  5 14  1  0  0  0  0
  5 15  1  0  0  0  0
  6  4  1  0  0  0  0
  6 22  1  0  0  0  0
  7  6  2  0  0  0  0
  8  1  1  0  0  0  0
  9  1  1  0  0  0  0
 12  3  1  0  0  0  0
 16 26  1  0  0  0  0
 16 17  1  0  0  0  0
 17 19  1  0  0  0  0
 18 17  2  0  0  0  0
 19 28  1  0  0  0  0
 19 20  1  0  0  0  0
 20 29  1  0  0  0  0
 20 21  1  0  0  0  0
 21 22  1  0  0  0  0
 21 31  1  1  0  0  0
 22 32  1  0  0  0  0
 23 21  1  0  0  0  0
 24 23  2  0  0  0  0
 25 16  1  0  0  0  0
 27 19  1  0  0  0  0
 30 20  1  0  0  0  0
 33 40  1  0  0  0  0
 33 39  1  0  0  0  0
 34 42  1  6  0  0  0
 34 35  1  0  0  0  0
 34 33  1  0  0  0  0
 35 43  1  0  0  0  0
 35 23  1  0  0  0  0
 36 34  1  0  0  0  0
 37 36  2  0  0  0  0
 38 36  1  0  0  0  0
 41 33  1  0  0  0  0
M  END
$$$$
