TQC.pdb
 OpenBabel07022419123D

 44 43  0  0  1  0  0  0  0  0999 V2000
    3.4020   -3.9520    1.5870 C   0  0  0  0  0  0  0  0  0  0  0  0
    3.2470   -3.2480    2.9070 C   0  0  1  0  0  0  0  0  0  0  0  0
    4.3720   -2.4830    3.1580 O   0  0  0  0  0  0  0  0  0  0  0  0
    1.9910   -2.4250    2.9960 C   0  0  2  0  0  0  0  0  0  0  0  0
    0.8740   -3.2870    2.7250 N   0  0  0  0  0  0  0  0  0  0  0  0
    2.0100   -1.2810    2.0320 C   0  0  0  0  0  0  0  0  0  0  0  0
    2.8970   -0.3980    2.0780 O   0  0  0  0  0  0  0  0  0  0  0  0
    4.4670   -4.3110    1.5360 H   0  0  0  0  0  0  0  0  0  0  0  0
    2.7740   -4.8430    1.5030 H   0  0  0  0  0  0  0  0  0  0  0  0
    3.2450   -3.3270    0.7150 H   0  0  0  0  0  0  0  0  0  0  0  0
    3.1800   -4.0310    3.6880 H   0  0  0  0  0  0  0  0  0  0  0  0
    4.7520   -2.7240    4.0200 H   0  0  0  0  0  0  0  0  0  0  0  0
    1.9690   -1.9740    4.0100 H   0  0  0  0  0  0  0  0  0  0  0  0
    1.0010   -3.6600    1.7580 H   0  0  0  0  0  0  0  0  0  0  0  0
   -0.0270   -2.7890    2.7620 H   0  0  0  0  0  0  0  0  0  0  0  0
   -0.2270    2.2830   -3.2470 N   0  0  0  0  0  0  0  0  0  0  0  0
   -0.0540    1.0060   -2.6410 C   0  0  0  0  0  0  0  0  0  0  0  0
   -1.0800    0.2990   -2.3380 O   0  0  0  0  0  0  0  0  0  0  0  0
    1.2760    0.4340   -2.3410 C   0  0  0  0  0  0  0  0  0  0  0  0
    1.2750   -0.5730   -1.2600 C   0  0  0  0  0  0  0  0  0  0  0  0
    1.0340   -0.0550    0.0970 C   0  0  2  0  0  0  0  0  0  0  0  0
    1.0060   -1.1980    1.0520 N   0  0  0  0  0  0  0  0  0  0  0  0
   -0.1130    0.8070    0.2740 C   0  0  0  0  0  0  0  0  0  0  0  0
   -0.1490    1.9640   -0.1650 O   0  0  0  0  0  0  0  0  0  0  0  0
   -0.1790    2.3370   -4.2800 H   0  0  0  0  0  0  0  0  0  0  0  0
   -0.3970    3.1400   -2.6960 H   0  0  0  0  0  0  0  0  0  0  0  0
    1.9500    1.3120   -2.0930 H   0  0  0  0  0  0  0  0  0  0  0  0
    1.7360    0.0410   -3.2890 H   0  0  0  0  0  0  0  0  0  0  0  0
    2.2680   -1.1150   -1.3330 H   0  0  0  0  0  0  0  0  0  0  0  0
    0.4940   -1.3560   -1.5570 H   0  0  0  0  0  0  0  0  0  0  0  0
    1.9610    0.5550    0.3640 H   0  0  0  0  0  0  0  0  0  0  0  0
    0.2300   -1.8930    0.9410 H   0  0  0  0  0  0  0  0  0  0  0  0
   -1.2760    0.3760    0.9660 N   0  0  0  0  0  0  0  0  0  0  0  0
   -2.4410    1.1480    1.1850 C   0  0  1  0  0  0  0  0  0  0  0  0
   -3.7290    0.6220    0.6960 C   0  0  0  0  0  0  0  0  0  0  0  0
   -5.0210    1.8540    1.1380 S   0  0  0  0  0  0  0  0  0  0  0  0
   -2.5510    1.4290    2.6420 C   0  0  0  0  0  0  0  0  0  0  0  0
   -1.6960    1.0010    3.4470 O   0  0  0  0  0  0  0  0  0  0  0  0
   -3.5930    2.1690    3.1810 O   0  0  0  0  0  0  0  0  0  0  0  0
   -1.2740   -0.5970    1.3470 H   0  0  0  0  0  0  0  0  0  0  0  0
   -2.2690    2.1580    0.7050 H   0  0  0  0  0  0  0  0  0  0  0  0
   -3.8340    0.5020   -0.3810 H   0  0  0  0  0  0  0  0  0  0  0  0
   -3.9910   -0.2870    1.2880 H   0  0  0  0  0  0  0  0  0  0  0  0
   -4.8070    3.0380    0.4000 H   0  0  0  0  0  0  0  0  0  0  0  0
  1  2  1  0  0  0  0
  2  4  1  0  0  0  0
  2  3  1  0  0  0  0
  2 11  1  1  0  0  0
  3 12  1  0  0  0  0
  4 13  1  1  0  0  0
  5 15  1  0  0  0  0
  5  4  1  0  0  0  0
  6  7  2  0  0  0  0
  6  4  1  0  0  0  0
  8  1  1  0  0  0  0
  9  1  1  0  0  0  0
 10  1  1  0  0  0  0
 14  5  1  0  0  0  0
 16 26  1  0  0  0  0
 16 17  1  0  0  0  0
 17 19  1  0  0  0  0
 17 18  2  0  0  0  0
 19 27  1  0  0  0  0
 19 20  1  0  0  0  0
 20 21  1  0  0  0  0
 21 23  1  0  0  0  0
 21 31  1  1  0  0  0
 21 22  1  0  0  0  0
 22  6  1  0  0  0  0
 23 33  1  0  0  0  0
 24 23  2  0  0  0  0
 25 16  1  0  0  0  0
 28 19  1  0  0  0  0
 29 20  1  0  0  0  0
 30 20  1  0  0  0  0
 32 22  1  0  0  0  0
 33 34  1  0  0  0  0
 33 40  1  0  0  0  0
 34 41  1  6  0  0  0
 34 37  1  0  0  0  0
 35 36  1  0  0  0  0
 35 34  1  0  0  0  0
 35 43  1  0  0  0  0
 37 39  2  0  0  0  0
 37 38  1  0  0  0  0
 42 35  1  0  0  0  0
 44 36  1  0  0  0  0
M  END
$$$$
