TQG.pdb
 OpenBabel07022419123D

 40 39  0  0  1  0  0  0  0  0999 V2000
    3.2050   -4.4950    2.7910 C   0  0  0  0  0  0  0  0  0  0  0  0
    2.8590   -3.5200    1.6960 C   0  0  1  0  0  0  0  0  0  0  0  0
    1.9170   -4.0580    0.8340 O   0  0  0  0  0  0  0  0  0  0  0  0
    2.3170   -2.2160    2.2480 C   0  0  2  0  0  0  0  0  0  0  0  0
    1.1000   -2.4440    2.9550 N   0  0  0  0  0  0  0  0  0  0  0  0
    2.0390   -1.3560    1.0400 C   0  0  0  0  0  0  0  0  0  0  0  0
    2.9600   -1.0160    0.2540 O   0  0  0  0  0  0  0  0  0  0  0  0
    4.2080   -4.9160    2.6360 H   0  0  0  0  0  0  0  0  0  0  0  0
    3.1000   -3.9570    3.7660 H   0  0  0  0  0  0  0  0  0  0  0  0
    2.4320   -5.2870    2.7880 H   0  0  0  0  0  0  0  0  0  0  0  0
    3.7790   -3.2380    1.1040 H   0  0  0  0  0  0  0  0  0  0  0  0
    1.3500   -4.7330    1.3210 H   0  0  0  0  0  0  0  0  0  0  0  0
    3.0370   -1.7250    2.9240 H   0  0  0  0  0  0  0  0  0  0  0  0
    0.7480   -1.6050    3.4260 H   0  0  0  0  0  0  0  0  0  0  0  0
    0.3960   -3.0090    2.4680 H   0  0  0  0  0  0  0  0  0  0  0  0
   -1.9740    2.0970   -3.2220 N   0  0  0  0  0  0  0  0  0  0  0  0
   -2.0110    1.0590   -2.2660 C   0  0  0  0  0  0  0  0  0  0  0  0
   -2.7900    1.1280   -1.2510 O   0  0  0  0  0  0  0  0  0  0  0  0
   -1.1540   -0.1230   -2.4320 C   0  0  0  0  0  0  0  0  0  0  0  0
   -0.6270   -0.7710   -1.2300 C   0  0  0  0  0  0  0  0  0  0  0  0
    0.3780   -0.0780   -0.3830 C   0  0  2  0  0  0  0  0  0  0  0  0
    0.7110   -0.9190    0.7800 N   0  0  0  0  0  0  0  0  0  0  0  0
   -0.0620    1.2160    0.1180 C   0  0  0  0  0  0  0  0  0  0  0  0
   -0.2180    2.2670   -0.5970 O   0  0  0  0  0  0  0  0  0  0  0  0
   -1.3690    2.9450   -3.1290 H   0  0  0  0  0  0  0  0  0  0  0  0
   -2.5710    2.0680   -4.0980 H   0  0  0  0  0  0  0  0  0  0  0  0
   -0.3480    0.0500   -3.1900 H   0  0  0  0  0  0  0  0  0  0  0  0
   -1.8160   -0.8880   -2.9520 H   0  0  0  0  0  0  0  0  0  0  0  0
   -0.2260   -1.7890   -1.5640 H   0  0  0  0  0  0  0  0  0  0  0  0
   -1.4840   -1.0870   -0.5610 H   0  0  0  0  0  0  0  0  0  0  0  0
    1.3450    0.0960   -0.9350 H   0  0  0  0  0  0  0  0  0  0  0  0
   -0.0210   -1.2250    1.4580 H   0  0  0  0  0  0  0  0  0  0  0  0
   -0.3720    1.4500    1.5050 N   0  0  0  0  0  0  0  0  0  0  0  0
   -0.8080    2.7360    2.0020 C   0  0  0  0  0  0  0  0  0  0  0  0
   -1.0490    2.6630    3.4640 C   0  0  0  0  0  0  0  0  0  0  0  0
   -1.4330    3.6510    4.1150 O   0  0  0  0  0  0  0  0  0  0  0  0
   -0.8430    1.4630    4.1270 O   0  0  0  0  0  0  0  0  0  0  0  0
   -0.2790    0.6710    2.1640 H   0  0  0  0  0  0  0  0  0  0  0  0
    0.0540    3.4490    1.8710 H   0  0  0  0  0  0  0  0  0  0  0  0
   -1.7090    3.1080    1.4740 H   0  0  0  0  0  0  0  0  0  0  0  0
  1  9  1  0  0  0  0
  2 11  1  6  0  0  0
  2  4  1  0  0  0  0
  2  1  1  0  0  0  0
  3 12  1  0  0  0  0
  3  2  1  0  0  0  0
  4 13  1  1  0  0  0
  4  5  1  0  0  0  0
  5 14  1  0  0  0  0
  6  4  1  0  0  0  0
  7  6  2  0  0  0  0
  8  1  1  0  0  0  0
 10  1  1  0  0  0  0
 15  5  1  0  0  0  0
 16 25  1  0  0  0  0
 16 17  1  0  0  0  0
 17 18  2  0  0  0  0
 19 17  1  0  0  0  0
 19 20  1  0  0  0  0
 20 30  1  0  0  0  0
 20 21  1  0  0  0  0
 21 31  1  6  0  0  0
 21 23  1  0  0  0  0
 21 22  1  0  0  0  0
 22  6  1  0  0  0  0
 22 32  1  0  0  0  0
 23 33  1  0  0  0  0
 24 23  2  0  0  0  0
 26 16  1  0  0  0  0
 27 19  1  0  0  0  0
 28 19  1  0  0  0  0
 29 20  1  0  0  0  0
 33 34  1  0  0  0  0
 33 38  1  0  0  0  0
 34 35  1  0  0  0  0
 35 36  2  0  0  0  0
 35 37  1  0  0  0  0
 39 34  1  0  0  0  0
 40 34  1  0  0  0  0
M  END
$$$$
