TQI.pdb
 OpenBabel07022419123D

 52 51  0  0  1  0  0  0  0  0999 V2000
    2.6340   -3.2460    2.4500 C   0  0  0  0  0  0  0  0  0  0  0  0
    3.2240   -3.3400    1.0610 C   0  0  1  0  0  0  0  0  0  0  0  0
    3.4390   -4.7300    0.8660 O   0  0  0  0  0  0  0  0  0  0  0  0
    2.1680   -2.9490    0.0580 C   0  0  2  0  0  0  0  0  0  0  0  0
    2.7190   -3.2800   -1.2700 N   0  0  0  0  0  0  0  0  0  0  0  0
    1.8540   -1.4960    0.0510 C   0  0  0  0  0  0  0  0  0  0  0  0
    2.3320   -0.8500   -0.9440 O   0  0  0  0  0  0  0  0  0  0  0  0
    1.5830   -3.5890    2.4320 H   0  0  0  0  0  0  0  0  0  0  0  0
    3.1750   -3.9610    3.1270 H   0  0  0  0  0  0  0  0  0  0  0  0
    2.7380   -2.2080    2.7930 H   0  0  0  0  0  0  0  0  0  0  0  0
    4.1600   -2.8030    0.9430 H   0  0  0  0  0  0  0  0  0  0  0  0
    2.5940   -5.2110    1.0520 H   0  0  0  0  0  0  0  0  0  0  0  0
    1.2220   -3.4930    0.2000 H   0  0  0  0  0  0  0  0  0  0  0  0
    1.9520   -3.4650   -1.9390 H   0  0  0  0  0  0  0  0  0  0  0  0
    3.2820   -2.4770   -1.6390 H   0  0  0  0  0  0  0  0  0  0  0  0
    4.3570    1.5830    3.0730 N   0  0  0  0  0  0  0  0  0  0  0  0
    3.2110    1.8820    2.2950 C   0  0  0  0  0  0  0  0  0  0  0  0
    2.2990    2.5830    2.7710 O   0  0  0  0  0  0  0  0  0  0  0  0
    3.1330    1.3430    0.9100 C   0  0  0  0  0  0  0  0  0  0  0  0
    1.7710    1.4200    0.3220 C   0  0  0  0  0  0  0  0  0  0  0  0
    0.7970    0.5460    1.0770 C   0  0  2  0  0  0  0  0  0  0  0  0
    1.0950   -0.8610    1.0450 N   0  0  0  0  0  0  0  0  0  0  0  0
   -0.6090    0.8910    0.8940 C   0  0  0  0  0  0  0  0  0  0  0  0
   -0.9560    2.0830    0.9070 O   0  0  0  0  0  0  0  0  0  0  0  0
    4.9040    0.7190    2.8970 H   0  0  0  0  0  0  0  0  0  0  0  0
    4.6520    2.2400    3.8290 H   0  0  0  0  0  0  0  0  0  0  0  0
    3.8820    1.8720    0.2560 H   0  0  0  0  0  0  0  0  0  0  0  0
    3.5500    0.3060    0.9960 H   0  0  0  0  0  0  0  0  0  0  0  0
    1.3890    2.4840    0.5030 H   0  0  0  0  0  0  0  0  0  0  0  0
    1.7620    1.3210   -0.7570 H   0  0  0  0  0  0  0  0  0  0  0  0
    1.0570    0.8470    2.1720 H   0  0  0  0  0  0  0  0  0  0  0  0
    0.7140   -1.4810    1.8180 H   0  0  0  0  0  0  0  0  0  0  0  0
   -5.1310    1.1950   -1.2150 C   0  0  0  0  0  0  0  0  0  0  0  0
   -4.7890   -0.2690   -1.2180 C   0  0  0  0  0  0  0  0  0  0  0  0
   -3.3480   -0.4520   -0.8300 C   0  0  2  0  0  0  0  0  0  0  0  0
   -2.9720   -1.9370   -0.8370 C   0  0  0  0  0  0  0  0  0  0  0  0
   -3.0080    0.1560    0.5120 C   0  0  2  0  0  0  0  0  0  0  0  0
   -1.5730   -0.1040    0.7030 N   0  0  0  0  0  0  0  0  0  0  0  0
   -3.7810   -0.4480    1.6060 C   0  0  0  0  0  0  0  0  0  0  0  0
   -3.2530   -1.1220    2.5350 O   0  0  0  0  0  0  0  0  0  0  0  0
   -5.1460   -0.2980    1.6650 O   0  0  0  0  0  0  0  0  0  0  0  0
   -4.4500    1.7070   -1.9300 H   0  0  0  0  0  0  0  0  0  0  0  0
   -6.1880    1.3810   -1.4850 H   0  0  0  0  0  0  0  0  0  0  0  0
   -4.9330    1.6250   -0.2220 H   0  0  0  0  0  0  0  0  0  0  0  0
   -5.4490   -0.8300   -0.5240 H   0  0  0  0  0  0  0  0  0  0  0  0
   -4.9350   -0.6710   -2.2720 H   0  0  0  0  0  0  0  0  0  0  0  0
   -2.7430   -0.0010   -1.6480 H   0  0  0  0  0  0  0  0  0  0  0  0
   -3.1180   -2.2720    0.2270 H   0  0  0  0  0  0  0  0  0  0  0  0
   -3.6150   -2.5160   -1.5160 H   0  0  0  0  0  0  0  0  0  0  0  0
   -1.8960   -2.0110   -1.0860 H   0  0  0  0  0  0  0  0  0  0  0  0
   -3.1160    1.2480    0.5540 H   0  0  0  0  0  0  0  0  0  0  0  0
   -1.2770   -1.1020    0.6930 H   0  0  0  0  0  0  0  0  0  0  0  0
  1 10  1  0  0  0  0
  1  9  1  0  0  0  0
  2 11  1  6  0  0  0
  2  1  1  0  0  0  0
  3 12  1  0  0  0  0
  3  2  1  0  0  0  0
  4 13  1  1  0  0  0
  4  2  1  0  0  0  0
  5  4  1  0  0  0  0
  6  4  1  0  0  0  0
  6 22  1  0  0  0  0
  7  6  2  0  0  0  0
  8  1  1  0  0  0  0
 14  5  1  0  0  0  0
 15  5  1  0  0  0  0
 16 26  1  0  0  0  0
 17 18  2  0  0  0  0
 17 16  1  0  0  0  0
 19 28  1  0  0  0  0
 19 17  1  0  0  0  0
 20 29  1  0  0  0  0
 20 19  1  0  0  0  0
 20 21  1  0  0  0  0
 21 31  1  1  0  0  0
 22 21  1  0  0  0  0
 22 32  1  0  0  0  0
 23 24  2  0  0  0  0
 23 21  1  0  0  0  0
 25 16  1  0  0  0  0
 27 19  1  0  0  0  0
 30 20  1  0  0  0  0
 33 44  1  0  0  0  0
 34 33  1  0  0  0  0
 34 35  1  0  0  0  0
 34 45  1  0  0  0  0
 35 47  1  6  0  0  0
 35 37  1  0  0  0  0
 36 35  1  0  0  0  0
 36 48  1  0  0  0  0
 37 51  1  6  0  0  0
 37 38  1  0  0  0  0
 37 39  1  0  0  0  0
 38 23  1  0  0  0  0
 39 41  2  0  0  0  0
 39 40  1  0  0  0  0
 42 33  1  0  0  0  0
 43 33  1  0  0  0  0
 46 34  1  0  0  0  0
 49 36  1  0  0  0  0
 50 36  1  0  0  0  0
 52 38  1  0  0  0  0
M  END
$$$$
