TQK.pdb
 OpenBabel07022419123D

 54 53  0  0  1  0  0  0  0  0999 V2000
    3.0530   -4.7660    2.5820 C   0  0  0  0  0  0  0  0  0  0  0  0
    2.9730   -4.2140    1.1800 C   0  0  1  0  0  0  0  0  0  0  0  0
    3.0190   -5.2980    0.3050 O   0  0  0  0  0  0  0  0  0  0  0  0
    1.6820   -3.4650    0.9370 C   0  0  2  0  0  0  0  0  0  0  0  0
    1.6930   -3.0210   -0.4450 N   0  0  0  0  0  0  0  0  0  0  0  0
    1.5220   -2.3240    1.8750 C   0  0  0  0  0  0  0  0  0  0  0  0
    1.4940   -2.5370    3.1070 O   0  0  0  0  0  0  0  0  0  0  0  0
    3.7180   -5.6530    2.5410 H   0  0  0  0  0  0  0  0  0  0  0  0
    3.4820   -4.0640    3.3010 H   0  0  0  0  0  0  0  0  0  0  0  0
    2.0500   -5.1550    2.8690 H   0  0  0  0  0  0  0  0  0  0  0  0
    3.8480   -3.5850    0.9950 H   0  0  0  0  0  0  0  0  0  0  0  0
    2.1310   -5.6690    0.0980 H   0  0  0  0  0  0  0  0  0  0  0  0
    0.8560   -4.1910    1.0290 H   0  0  0  0  0  0  0  0  0  0  0  0
    0.8870   -2.4010   -0.6470 H   0  0  0  0  0  0  0  0  0  0  0  0
    1.5730   -3.8790   -1.0350 H   0  0  0  0  0  0  0  0  0  0  0  0
    3.7760    3.5830   -0.2130 N   0  0  0  0  0  0  0  0  0  0  0  0
    3.4930    2.8160    0.9360 C   0  0  0  0  0  0  0  0  0  0  0  0
    4.1660    2.9760    1.9850 O   0  0  0  0  0  0  0  0  0  0  0  0
    2.4090    1.8040    0.9620 C   0  0  0  0  0  0  0  0  0  0  0  0
    2.3170    1.1300    2.3030 C   0  0  0  0  0  0  0  0  0  0  0  0
    1.2440    0.1010    2.3890 C   0  0  2  0  0  0  0  0  0  0  0  0
    1.3970   -0.9760    1.4460 N   0  0  0  0  0  0  0  0  0  0  0  0
   -0.1170    0.6810    2.1810 C   0  0  0  0  0  0  0  0  0  0  0  0
   -0.4600    1.6350    2.9010 O   0  0  0  0  0  0  0  0  0  0  0  0
    4.3370    4.4570   -0.1300 H   0  0  0  0  0  0  0  0  0  0  0  0
    3.4020    3.2330   -1.1280 H   0  0  0  0  0  0  0  0  0  0  0  0
    2.5560    1.1200    0.1290 H   0  0  0  0  0  0  0  0  0  0  0  0
    1.4500    2.3620    0.7990 H   0  0  0  0  0  0  0  0  0  0  0  0
    2.1290    1.8880    3.0900 H   0  0  0  0  0  0  0  0  0  0  0  0
    3.2800    0.6580    2.5150 H   0  0  0  0  0  0  0  0  0  0  0  0
    1.2400   -0.2720    3.4500 H   0  0  0  0  0  0  0  0  0  0  0  0
    1.4150   -0.7480    0.4300 H   0  0  0  0  0  0  0  0  0  0  0  0
   -1.0160    0.2060    1.2220 N   0  0  0  0  0  0  0  0  0  0  0  0
   -2.3390    0.7140    0.9670 C   0  0  1  0  0  0  0  0  0  0  0  0
   -2.5440    1.3390   -0.3440 C   0  0  0  0  0  0  0  0  0  0  0  0
   -2.3110    0.5680   -1.5630 C   0  0  0  0  0  0  0  0  0  0  0  0
   -3.0860   -0.6180   -1.9070 C   0  0  0  0  0  0  0  0  0  0  0  0
   -4.5580   -0.3720   -2.1490 C   0  0  0  0  0  0  0  0  0  0  0  0
   -5.2610   -1.6010   -2.4700 N   0  0  0  0  0  0  0  0  0  0  0  0
   -3.4140   -0.2140    1.3280 C   0  0  0  0  0  0  0  0  0  0  0  0
   -3.2050   -1.4130    1.7160 O   0  0  0  0  0  0  0  0  0  0  0  0
   -4.7360    0.1760    1.2680 O   0  0  0  0  0  0  0  0  0  0  0  0
   -0.7190   -0.5950    0.6230 H   0  0  0  0  0  0  0  0  0  0  0  0
   -2.4440    1.5630    1.7210 H   0  0  0  0  0  0  0  0  0  0  0  0
   -2.0070    2.3350   -0.3560 H   0  0  0  0  0  0  0  0  0  0  0  0
   -3.6320    1.6730   -0.3600 H   0  0  0  0  0  0  0  0  0  0  0  0
   -2.3190    1.2370   -2.4840 H   0  0  0  0  0  0  0  0  0  0  0  0
   -1.2130    0.2660   -1.5490 H   0  0  0  0  0  0  0  0  0  0  0  0
   -3.0430   -1.4620   -1.1920 H   0  0  0  0  0  0  0  0  0  0  0  0
   -2.7180   -1.0810   -2.8720 H   0  0  0  0  0  0  0  0  0  0  0  0
   -4.6350    0.2940   -3.0690 H   0  0  0  0  0  0  0  0  0  0  0  0
   -5.0900    0.1310   -1.3430 H   0  0  0  0  0  0  0  0  0  0  0  0
   -5.5650   -1.6370   -3.4600 H   0  0  0  0  0  0  0  0  0  0  0  0
   -4.7310   -2.4520   -2.1610 H   0  0  0  0  0  0  0  0  0  0  0  0
  1 10  1  0  0  0  0
  1  9  1  0  0  0  0
  2 11  1  6  0  0  0
  2  1  1  0  0  0  0
  3  2  1  0  0  0  0
  4 13  1  1  0  0  0
  4  2  1  0  0  0  0
  4  6  1  0  0  0  0
  5  4  1  0  0  0  0
  6  7  2  0  0  0  0
  8  1  1  0  0  0  0
 12  3  1  0  0  0  0
 14  5  1  0  0  0  0
 15  5  1  0  0  0  0
 16 25  1  0  0  0  0
 16 17  1  0  0  0  0
 17 19  1  0  0  0  0
 17 18  2  0  0  0  0
 19 20  1  0  0  0  0
 20 21  1  0  0  0  0
 20 30  1  0  0  0  0
 20 29  1  0  0  0  0
 21 31  1  1  0  0  0
 22  6  1  0  0  0  0
 22 21  1  0  0  0  0
 23 21  1  0  0  0  0
 23 24  2  0  0  0  0
 26 16  1  0  0  0  0
 27 19  1  0  0  0  0
 28 19  1  0  0  0  0
 32 22  1  0  0  0  0
 33 23  1  0  0  0  0
 34 33  1  0  0  0  0
 34 40  1  0  0  0  0
 34 44  1  1  0  0  0
 35 34  1  0  0  0  0
 36 48  1  0  0  0  0
 36 35  1  0  0  0  0
 37 36  1  0  0  0  0
 37 49  1  0  0  0  0
 38 37  1  0  0  0  0
 38 52  1  0  0  0  0
 39 54  1  0  0  0  0
 39 38  1  0  0  0  0
 40 41  1  0  0  0  0
 42 40  2  0  0  0  0
 43 33  1  0  0  0  0
 45 35  1  0  0  0  0
 46 35  1  0  0  0  0
 47 36  1  0  0  0  0
 50 37  1  0  0  0  0
 51 38  1  0  0  0  0
 53 39  1  0  0  0  0
M  END
$$$$
