TQM.pdb
 OpenBabel07022419123D

 50 49  0  0  1  0  0  0  0  0999 V2000
    5.1670   -1.8910    0.0920 C   0  0  0  0  0  0  0  0  0  0  0  0
    5.0720   -0.4230    0.4480 C   0  0  1  0  0  0  0  0  0  0  0  0
    6.2440    0.2120    0.0690 O   0  0  0  0  0  0  0  0  0  0  0  0
    3.8640    0.1440   -0.2690 C   0  0  2  0  0  0  0  0  0  0  0  0
    3.7000    1.5610    0.0160 N   0  0  0  0  0  0  0  0  0  0  0  0
    2.6560   -0.6180    0.1480 C   0  0  0  0  0  0  0  0  0  0  0  0
    2.6170   -1.8620   -0.0380 O   0  0  0  0  0  0  0  0  0  0  0  0
    6.2430   -2.2270    0.0860 H   0  0  0  0  0  0  0  0  0  0  0  0
    4.7700   -2.1390   -0.8920 H   0  0  0  0  0  0  0  0  0  0  0  0
    4.6700   -2.5430    0.8390 H   0  0  0  0  0  0  0  0  0  0  0  0
    4.9590   -0.3580    1.5490 H   0  0  0  0  0  0  0  0  0  0  0  0
    6.8750   -0.4020   -0.3900 H   0  0  0  0  0  0  0  0  0  0  0  0
    4.0380    0.0280   -1.3580 H   0  0  0  0  0  0  0  0  0  0  0  0
    4.6370    1.9400    0.2350 H   0  0  0  0  0  0  0  0  0  0  0  0
    3.3580    2.0230   -0.8550 H   0  0  0  0  0  0  0  0  0  0  0  0
    3.5080   -1.5410    4.0700 N   0  0  0  0  0  0  0  0  0  0  0  0
    2.4130   -0.7950    3.5580 C   0  0  0  0  0  0  0  0  0  0  0  0
    2.5850    0.3780    3.2110 O   0  0  0  0  0  0  0  0  0  0  0  0
    1.1060   -1.4430    3.4600 C   0  0  0  0  0  0  0  0  0  0  0  0
    0.1160   -0.7680    2.5950 C   0  0  0  0  0  0  0  0  0  0  0  0
    0.4150   -0.6430    1.1510 C   0  0  2  0  0  0  0  0  0  0  0  0
    1.5640    0.0790    0.7540 N   0  0  0  0  0  0  0  0  0  0  0  0
   -0.7830    0.0200    0.5080 C   0  0  0  0  0  0  0  0  0  0  0  0
   -0.6430    1.0370   -0.2140 O   0  0  0  0  0  0  0  0  0  0  0  0
    3.3970   -2.4990    4.4510 H   0  0  0  0  0  0  0  0  0  0  0  0
    4.4610   -1.1250    4.0700 H   0  0  0  0  0  0  0  0  0  0  0  0
    1.2110   -2.5300    3.1900 H   0  0  0  0  0  0  0  0  0  0  0  0
    0.7000   -1.5010    4.5210 H   0  0  0  0  0  0  0  0  0  0  0  0
   -0.1010    0.2450    3.0550 H   0  0  0  0  0  0  0  0  0  0  0  0
   -0.8720   -1.3150    2.6860 H   0  0  0  0  0  0  0  0  0  0  0  0
    0.5110   -1.6960    0.7270 H   0  0  0  0  0  0  0  0  0  0  0  0
    1.6470    1.1370    0.8670 H   0  0  0  0  0  0  0  0  0  0  0  0
   -6.6040   -2.5140   -2.0610 C   0  0  0  0  0  0  0  0  0  0  0  0
   -5.8070   -1.1070   -2.8390 S   0  0  0  0  0  0  0  0  0  0  0  0
   -5.0240   -0.0040   -1.6010 C   0  0  0  0  0  0  0  0  0  0  0  0
   -3.8850   -0.6920   -0.9210 C   0  0  0  0  0  0  0  0  0  0  0  0
   -3.2060    0.2080    0.0470 C   0  0  2  0  0  0  0  0  0  0  0  0
   -2.0850   -0.4740    0.6930 N   0  0  0  0  0  0  0  0  0  0  0  0
   -4.1230    0.7400    1.0540 C   0  0  0  0  0  0  0  0  0  0  0  0
   -5.0930    1.4640    0.8000 O   0  0  0  0  0  0  0  0  0  0  0  0
   -3.8760    0.3970    2.4050 O   0  0  0  0  0  0  0  0  0  0  0  0
   -6.3030   -3.4310   -2.6320 H   0  0  0  0  0  0  0  0  0  0  0  0
   -7.7140   -2.4320   -2.2200 H   0  0  0  0  0  0  0  0  0  0  0  0
   -6.4150   -2.6030   -0.9920 H   0  0  0  0  0  0  0  0  0  0  0  0
   -4.6670    0.8830   -2.1530 H   0  0  0  0  0  0  0  0  0  0  0  0
   -5.7950    0.3180   -0.8700 H   0  0  0  0  0  0  0  0  0  0  0  0
   -3.1740   -1.0560   -1.7140 H   0  0  0  0  0  0  0  0  0  0  0  0
   -4.3480   -1.5930   -0.4080 H   0  0  0  0  0  0  0  0  0  0  0  0
   -2.7930    1.0600   -0.5260 H   0  0  0  0  0  0  0  0  0  0  0  0
   -2.3090   -1.3080    1.2660 H   0  0  0  0  0  0  0  0  0  0  0  0
  1  2  1  0  0  0  0
  1 10  1  0  0  0  0
  2 11  1  1  0  0  0
  3  2  1  0  0  0  0
  4 13  1  6  0  0  0
  4  5  1  0  0  0  0
  4  6  1  0  0  0  0
  4  2  1  0  0  0  0
  5 14  1  0  0  0  0
  6 22  1  0  0  0  0
  7  6  2  0  0  0  0
  8  1  1  0  0  0  0
  9  1  1  0  0  0  0
 12  3  1  0  0  0  0
 15  5  1  0  0  0  0
 16 25  1  0  0  0  0
 17 16  1  0  0  0  0
 18 17  2  0  0  0  0
 19 17  1  0  0  0  0
 19 28  1  0  0  0  0
 20 30  1  0  0  0  0
 20 29  1  0  0  0  0
 20 19  1  0  0  0  0
 21 31  1  6  0  0  0
 21 20  1  0  0  0  0
 22 32  1  0  0  0  0
 22 21  1  0  0  0  0
 23 38  1  0  0  0  0
 23 21  1  0  0  0  0
 24 23  2  0  0  0  0
 26 16  1  0  0  0  0
 27 19  1  0  0  0  0
 33 44  1  0  0  0  0
 34 33  1  0  0  0  0
 34 35  1  0  0  0  0
 35 36  1  0  0  0  0
 35 46  1  0  0  0  0
 36 48  1  0  0  0  0
 36 37  1  0  0  0  0
 37 49  1  6  0  0  0
 37 38  1  0  0  0  0
 37 39  1  0  0  0  0
 38 50  1  0  0  0  0
 39 41  1  0  0  0  0
 40 39  2  0  0  0  0
 42 33  1  0  0  0  0
 43 33  1  0  0  0  0
 45 35  1  0  0  0  0
 47 36  1  0  0  0  0
M  END
$$$$
