TQN.pdb
 OpenBabel07022419123D

 47 46  0  0  1  0  0  0  0  0999 V2000
    2.2870   -2.7760    3.0680 C   0  0  0  0  0  0  0  0  0  0  0  0
    3.0010   -3.1660    1.7900 C   0  0  1  0  0  0  0  0  0  0  0  0
    3.3530   -4.5280    1.9870 O   0  0  0  0  0  0  0  0  0  0  0  0
    2.0400   -3.1430    0.6200 C   0  0  2  0  0  0  0  0  0  0  0  0
    2.7750   -3.7320   -0.5090 N   0  0  0  0  0  0  0  0  0  0  0  0
    1.6610   -1.7590    0.2110 C   0  0  0  0  0  0  0  0  0  0  0  0
    2.1470   -1.3560   -0.8830 O   0  0  0  0  0  0  0  0  0  0  0  0
    1.2690   -3.1840    3.0720 H   0  0  0  0  0  0  0  0  0  0  0  0
    2.9040   -3.2060    3.9100 H   0  0  0  0  0  0  0  0  0  0  0  0
    2.3470   -1.6830    3.2000 H   0  0  0  0  0  0  0  0  0  0  0  0
    3.9200   -2.6130    1.6050 H   0  0  0  0  0  0  0  0  0  0  0  0
    2.4940   -5.0150    2.1230 H   0  0  0  0  0  0  0  0  0  0  0  0
    1.1290   -3.7140    0.8470 H   0  0  0  0  0  0  0  0  0  0  0  0
    3.7300   -3.2850   -0.4860 H   0  0  0  0  0  0  0  0  0  0  0  0
    2.2670   -3.4120   -1.3820 H   0  0  0  0  0  0  0  0  0  0  0  0
    4.0550    2.3640    1.9800 N   0  0  0  0  0  0  0  0  0  0  0  0
    2.8030    2.2590    1.3400 C   0  0  0  0  0  0  0  0  0  0  0  0
    1.8400    2.8910    1.7980 O   0  0  0  0  0  0  0  0  0  0  0  0
    2.7280    1.3700    0.1210 C   0  0  0  0  0  0  0  0  0  0  0  0
    1.3360    1.1370   -0.3290 C   0  0  0  0  0  0  0  0  0  0  0  0
    0.4420    0.4100    0.6360 C   0  0  2  0  0  0  0  0  0  0  0  0
    0.8250   -0.9330    0.9590 N   0  0  0  0  0  0  0  0  0  0  0  0
   -0.9900    0.4760    0.2780 C   0  0  0  0  0  0  0  0  0  0  0  0
   -1.5330    1.5590   -0.0680 O   0  0  0  0  0  0  0  0  0  0  0  0
    4.1600    2.8140    2.9300 H   0  0  0  0  0  0  0  0  0  0  0  0
    4.9050    1.9950    1.5190 H   0  0  0  0  0  0  0  0  0  0  0  0
    3.2800    1.9550   -0.6740 H   0  0  0  0  0  0  0  0  0  0  0  0
    3.3570    0.5130    0.3480 H   0  0  0  0  0  0  0  0  0  0  0  0
    0.8770    2.1760   -0.4600 H   0  0  0  0  0  0  0  0  0  0  0  0
    1.3320    0.7170   -1.3560 H   0  0  0  0  0  0  0  0  0  0  0  0
    0.6390    1.0020    1.6140 H   0  0  0  0  0  0  0  0  0  0  0  0
    0.4280   -1.3440    1.8560 H   0  0  0  0  0  0  0  0  0  0  0  0
   -6.2830    1.0590    1.5350 N   0  0  0  0  0  0  0  0  0  0  0  0
   -5.4420    0.2020    0.7580 C   0  0  0  0  0  0  0  0  0  0  0  0
   -6.0110   -0.4880   -0.1040 O   0  0  0  0  0  0  0  0  0  0  0  0
   -3.9910    0.1290    0.9530 C   0  0  0  0  0  0  0  0  0  0  0  0
   -3.2240   -0.6710   -0.0370 C   0  0  2  0  0  0  0  0  0  0  0  0
   -1.7920   -0.6960    0.3170 N   0  0  0  0  0  0  0  0  0  0  0  0
   -3.3460   -0.1740   -1.4340 C   0  0  0  0  0  0  0  0  0  0  0  0
   -2.3270    0.1530   -2.1180 O   0  0  0  0  0  0  0  0  0  0  0  0
   -4.5540   -0.0430   -2.0600 O   0  0  0  0  0  0  0  0  0  0  0  0
   -6.0630    2.0870    1.6320 H   0  0  0  0  0  0  0  0  0  0  0  0
   -7.1040    0.6480    1.9950 H   0  0  0  0  0  0  0  0  0  0  0  0
   -3.7220   -0.1270    2.0090 H   0  0  0  0  0  0  0  0  0  0  0  0
   -3.6290    1.2050    0.8650 H   0  0  0  0  0  0  0  0  0  0  0  0
   -3.5680   -1.7160   -0.0290 H   0  0  0  0  0  0  0  0  0  0  0  0
   -1.3210   -1.5810    0.6110 H   0  0  0  0  0  0  0  0  0  0  0  0
  1  8  1  0  0  0  0
  1 10  1  0  0  0  0
  1  9  1  0  0  0  0
  2 11  1  6  0  0  0
  2  3  1  0  0  0  0
  2  1  1  0  0  0  0
  3 12  1  0  0  0  0
  4 13  1  1  0  0  0
  4  2  1  0  0  0  0
  5 14  1  0  0  0  0
  5  4  1  0  0  0  0
  6  4  1  0  0  0  0
  6 22  1  0  0  0  0
  7  6  2  0  0  0  0
 15  5  1  0  0  0  0
 16 25  1  0  0  0  0
 17 18  2  0  0  0  0
 17 16  1  0  0  0  0
 19 28  1  0  0  0  0
 19 17  1  0  0  0  0
 20 19  1  0  0  0  0
 20 21  1  0  0  0  0
 21 22  1  0  0  0  0
 21 31  1  1  0  0  0
 22 32  1  0  0  0  0
 23 38  1  0  0  0  0
 23 21  1  0  0  0  0
 24 23  2  0  0  0  0
 26 16  1  0  0  0  0
 27 19  1  0  0  0  0
 29 20  1  0  0  0  0
 30 20  1  0  0  0  0
 33 42  1  0  0  0  0
 33 43  1  0  0  0  0
 34 36  1  0  0  0  0
 34 33  1  0  0  0  0
 35 34  2  0  0  0  0
 36 44  1  0  0  0  0
 37 46  1  1  0  0  0
 37 38  1  0  0  0  0
 37 36  1  0  0  0  0
 38 47  1  0  0  0  0
 39 37  1  0  0  0  0
 40 39  2  0  0  0  0
 41 39  1  0  0  0  0
 45 36  1  0  0  0  0
M  END
$$$$
