TQQ.pdb
 OpenBabel07022419123D

 50 49  0  0  1  0  0  0  0  0999 V2000
    0.3900   -1.6740    4.5560 C   0  0  0  0  0  0  0  0  0  0  0  0
    0.7840   -0.3130    5.0810 C   0  0  1  0  0  0  0  0  0  0  0  0
    1.0730   -0.4280    6.4590 O   0  0  0  0  0  0  0  0  0  0  0  0
    1.9970    0.2600    4.3500 C   0  0  2  0  0  0  0  0  0  0  0  0
    2.2260    1.5760    4.9870 N   0  0  0  0  0  0  0  0  0  0  0  0
    1.6260    0.5170    2.9560 C   0  0  0  0  0  0  0  0  0  0  0  0
    1.4350    1.7030    2.5700 O   0  0  0  0  0  0  0  0  0  0  0  0
   -0.2650   -1.6280    3.6640 H   0  0  0  0  0  0  0  0  0  0  0  0
    1.2850   -2.3200    4.3830 H   0  0  0  0  0  0  0  0  0  0  0  0
   -0.2510   -2.1900    5.3370 H   0  0  0  0  0  0  0  0  0  0  0  0
   -0.0820    0.3600    4.9990 H   0  0  0  0  0  0  0  0  0  0  0  0
    0.6020   -1.2290    6.8470 H   0  0  0  0  0  0  0  0  0  0  0  0
    2.8860   -0.3510    4.4960 H   0  0  0  0  0  0  0  0  0  0  0  0
    2.7220    2.1420    4.2530 H   0  0  0  0  0  0  0  0  0  0  0  0
    1.2530    2.0010    5.0380 H   0  0  0  0  0  0  0  0  0  0  0  0
    5.8320    0.5890   -0.7710 N   0  0  0  0  0  0  0  0  0  0  0  0
    4.5680   -0.0260   -0.9340 C   0  0  0  0  0  0  0  0  0  0  0  0
    4.3690   -0.8480   -1.8610 O   0  0  0  0  0  0  0  0  0  0  0  0
    3.4600    0.2950   -0.0090 C   0  0  0  0  0  0  0  0  0  0  0  0
    2.2040   -0.4890   -0.3860 C   0  0  0  0  0  0  0  0  0  0  0  0
    1.0800   -0.1360    0.5880 C   0  0  2  0  0  0  0  0  0  0  0  0
    1.4500   -0.4710    1.9460 N   0  0  0  0  0  0  0  0  0  0  0  0
   -0.1910   -0.7760    0.1830 C   0  0  0  0  0  0  0  0  0  0  0  0
   -0.8280   -1.5150    0.9770 O   0  0  0  0  0  0  0  0  0  0  0  0
    6.5850    0.1630   -0.1540 H   0  0  0  0  0  0  0  0  0  0  0  0
    6.0780    1.4840   -1.2480 H   0  0  0  0  0  0  0  0  0  0  0  0
    3.7960    0.0360    1.0110 H   0  0  0  0  0  0  0  0  0  0  0  0
    3.2860    1.3820   -0.0620 H   0  0  0  0  0  0  0  0  0  0  0  0
    2.4230   -1.5630   -0.2590 H   0  0  0  0  0  0  0  0  0  0  0  0
    1.8860   -0.2530   -1.4150 H   0  0  0  0  0  0  0  0  0  0  0  0
    0.9780    0.9670    0.5410 H   0  0  0  0  0  0  0  0  0  0  0  0
    1.5970   -1.4620    2.1910 H   0  0  0  0  0  0  0  0  0  0  0  0
   -6.1140   -2.3320   -1.4120 N   0  0  0  0  0  0  0  0  0  0  0  0
   -4.9620   -1.5090   -1.2110 C   0  0  0  0  0  0  0  0  0  0  0  0
   -4.4810   -1.3650   -0.0620 O   0  0  0  0  0  0  0  0  0  0  0  0
   -4.3210   -0.8140   -2.3450 C   0  0  0  0  0  0  0  0  0  0  0  0
   -3.0060   -0.2270   -1.9480 C   0  0  0  0  0  0  0  0  0  0  0  0
   -2.0200   -1.2380   -1.4900 C   0  0  2  0  0  0  0  0  0  0  0  0
   -0.7490   -0.5890   -1.1070 N   0  0  0  0  0  0  0  0  0  0  0  0
   -1.7510   -2.2000   -2.5990 C   0  0  0  0  0  0  0  0  0  0  0  0
   -0.5910   -2.3060   -3.1040 O   0  0  0  0  0  0  0  0  0  0  0  0
   -2.7180   -3.0210   -3.1380 O   0  0  0  0  0  0  0  0  0  0  0  0
   -6.0160   -3.3480   -1.5980 H   0  0  0  0  0  0  0  0  0  0  0  0
   -7.0700   -1.9300   -1.3760 H   0  0  0  0  0  0  0  0  0  0  0  0
   -4.9580    0.0870   -2.6530 H   0  0  0  0  0  0  0  0  0  0  0  0
   -4.3000   -1.4260   -3.2710 H   0  0  0  0  0  0  0  0  0  0  0  0
   -3.1960    0.5760   -1.1980 H   0  0  0  0  0  0  0  0  0  0  0  0
   -2.6250    0.3180   -2.8680 H   0  0  0  0  0  0  0  0  0  0  0  0
   -2.3490   -1.8070   -0.6320 H   0  0  0  0  0  0  0  0  0  0  0  0
   -0.2960    0.0030   -1.8280 H   0  0  0  0  0  0  0  0  0  0  0  0
  1  2  1  0  0  0  0
  1 10  1  0  0  0  0
  2 11  1  6  0  0  0
  2  3  1  0  0  0  0
  3 12  1  0  0  0  0
  4 13  1  1  0  0  0
  4  5  1  0  0  0  0
  4  2  1  0  0  0  0
  5 15  1  0  0  0  0
  6  4  1  0  0  0  0
  7  6  2  0  0  0  0
  8  1  1  0  0  0  0
  9  1  1  0  0  0  0
 14  5  1  0  0  0  0
 16 25  1  0  0  0  0
 17 16  1  0  0  0  0
 17 19  1  0  0  0  0
 18 17  2  0  0  0  0
 19 27  1  0  0  0  0
 20 29  1  0  0  0  0
 20 19  1  0  0  0  0
 20 21  1  0  0  0  0
 21 31  1  6  0  0  0
 21 22  1  0  0  0  0
 22 32  1  0  0  0  0
 22  6  1  0  0  0  0
 23 21  1  0  0  0  0
 23 24  2  0  0  0  0
 26 16  1  0  0  0  0
 28 19  1  0  0  0  0
 30 20  1  0  0  0  0
 33 44  1  0  0  0  0
 33 34  1  0  0  0  0
 34 35  2  0  0  0  0
 36 37  1  0  0  0  0
 36 34  1  0  0  0  0
 37 38  1  0  0  0  0
 37 47  1  0  0  0  0
 38 39  1  0  0  0  0
 38 49  1  1  0  0  0
 39 23  1  0  0  0  0
 40 38  1  0  0  0  0
 41 40  1  0  0  0  0
 42 40  2  0  0  0  0
 43 33  1  0  0  0  0
 45 36  1  0  0  0  0
 46 36  1  0  0  0  0
 48 37  1  0  0  0  0
 50 39  1  0  0  0  0
M  END
$$$$
