TQR.pdb
 OpenBabel07022419123D

 56 55  0  0  1  0  0  0  0  0999 V2000
    0.0850   -1.4230    4.3880 C   0  0  0  0  0  0  0  0  0  0  0  0
    0.6740   -0.0470    4.4910 C   0  0  1  0  0  0  0  0  0  0  0  0
    0.9990    0.3150    5.8020 O   0  0  0  0  0  0  0  0  0  0  0  0
    1.9450    0.0820    3.6590 C   0  0  2  0  0  0  0  0  0  0  0  0
    2.3660    1.4570    3.7400 N   0  0  0  0  0  0  0  0  0  0  0  0
    1.6730   -0.2440    2.2340 C   0  0  0  0  0  0  0  0  0  0  0  0
    1.2980   -1.4110    1.9990 O   0  0  0  0  0  0  0  0  0  0  0  0
   -0.3770   -1.6660    5.3820 H   0  0  0  0  0  0  0  0  0  0  0  0
    0.8790   -2.1610    4.1740 H   0  0  0  0  0  0  0  0  0  0  0  0
   -0.7210   -1.5040    3.6270 H   0  0  0  0  0  0  0  0  0  0  0  0
   -0.0770    0.7290    4.1630 H   0  0  0  0  0  0  0  0  0  0  0  0
    1.8770   -0.1080    6.0070 H   0  0  0  0  0  0  0  0  0  0  0  0
    2.6760   -0.6170    4.1100 H   0  0  0  0  0  0  0  0  0  0  0  0
    3.2570    1.5760    3.2150 H   0  0  0  0  0  0  0  0  0  0  0  0
    1.5780    2.0550    3.4160 H   0  0  0  0  0  0  0  0  0  0  0  0
    5.4030    2.3200    0.1280 N   0  0  0  0  0  0  0  0  0  0  0  0
    4.5600    1.1620    0.0350 C   0  0  0  0  0  0  0  0  0  0  0  0
    4.5090    0.4400    1.0460 O   0  0  0  0  0  0  0  0  0  0  0  0
    3.8030    0.8350   -1.1700 C   0  0  0  0  0  0  0  0  0  0  0  0
    2.6500   -0.1010   -1.0130 C   0  0  0  0  0  0  0  0  0  0  0  0
    1.5520    0.3920   -0.1660 C   0  0  2  0  0  0  0  0  0  0  0  0
    1.8280    0.7020    1.1980 N   0  0  0  0  0  0  0  0  0  0  0  0
    0.2360   -0.3040   -0.3660 C   0  0  0  0  0  0  0  0  0  0  0  0
   -0.5120   -0.4410    0.6290 O   0  0  0  0  0  0  0  0  0  0  0  0
    6.4610    2.2070    0.1240 H   0  0  0  0  0  0  0  0  0  0  0  0
    5.0480    3.2900    0.2010 H   0  0  0  0  0  0  0  0  0  0  0  0
    4.4740    0.4060   -1.9820 H   0  0  0  0  0  0  0  0  0  0  0  0
    3.4810    1.8160   -1.6310 H   0  0  0  0  0  0  0  0  0  0  0  0
    2.2410   -0.2550   -2.0580 H   0  0  0  0  0  0  0  0  0  0  0  0
    3.0250   -1.0950   -0.6630 H   0  0  0  0  0  0  0  0  0  0  0  0
    1.2790    1.4380   -0.6200 H   0  0  0  0  0  0  0  0  0  0  0  0
    2.1590    1.6760    1.5080 H   0  0  0  0  0  0  0  0  0  0  0  0
   -3.6510   -3.6280    0.9350 N   0  0  0  0  0  0  0  0  0  0  0  0
   -4.3930   -3.0940   -0.1570 C   0  0  0  0  0  0  0  0  0  0  0  0
   -5.1160   -3.8380   -0.9340 N   0  0  0  0  0  0  0  0  0  0  0  0
   -4.3520   -1.6890   -0.4230 N   0  0  0  0  0  0  0  0  0  0  0  0
   -4.6860   -1.1170   -1.6780 C   0  0  0  0  0  0  0  0  0  0  0  0
   -3.7910   -1.3290   -2.8400 C   0  0  0  0  0  0  0  0  0  0  0  0
   -2.3950   -0.8240   -2.6970 C   0  0  0  0  0  0  0  0  0  0  0  0
   -1.5430   -1.4880   -1.6630 C   0  0  2  0  0  0  0  0  0  0  0  0
   -0.2190   -0.8160   -1.5980 N   0  0  0  0  0  0  0  0  0  0  0  0
   -1.2660   -2.9240   -2.0410 C   0  0  0  0  0  0  0  0  0  0  0  0
   -0.0560   -3.3280   -2.1780 O   0  0  0  0  0  0  0  0  0  0  0  0
   -2.2210   -3.8780   -2.2630 O   0  0  0  0  0  0  0  0  0  0  0  0
   -3.9750   -4.5240    1.3430 H   0  0  0  0  0  0  0  0  0  0  0  0
   -2.8230   -3.1580    1.3180 H   0  0  0  0  0  0  0  0  0  0  0  0
   -5.1300   -4.8590   -0.7210 H   0  0  0  0  0  0  0  0  0  0  0  0
   -4.0500   -1.0970    0.4200 H   0  0  0  0  0  0  0  0  0  0  0  0
   -4.7640   -0.0090   -1.5140 H   0  0  0  0  0  0  0  0  0  0  0  0
   -5.7440   -1.4580   -1.9090 H   0  0  0  0  0  0  0  0  0  0  0  0
   -3.7360   -2.4050   -3.1640 H   0  0  0  0  0  0  0  0  0  0  0  0
   -4.3110   -0.8420   -3.7260 H   0  0  0  0  0  0  0  0  0  0  0  0
   -1.9000   -0.9860   -3.7080 H   0  0  0  0  0  0  0  0  0  0  0  0
   -2.3620    0.3000   -2.5990 H   0  0  0  0  0  0  0  0  0  0  0  0
   -2.0050   -1.4740   -0.6970 H   0  0  0  0  0  0  0  0  0  0  0  0
    0.3630   -0.7190   -2.4330 H   0  0  0  0  0  0  0  0  0  0  0  0
  1  2  1  0  0  0  0
  1  8  1  0  0  0  0
  2 11  1  6  0  0  0
  2  3  1  0  0  0  0
  3 12  1  0  0  0  0
  4  5  1  0  0  0  0
  4 13  1  1  0  0  0
  4  2  1  0  0  0  0
  6  4  1  0  0  0  0
  7  6  2  0  0  0  0
  9  1  1  0  0  0  0
 10  1  1  0  0  0  0
 14  5  1  0  0  0  0
 15  5  1  0  0  0  0
 16 26  1  0  0  0  0
 17 16  1  0  0  0  0
 17 18  2  0  0  0  0
 19 20  1  0  0  0  0
 19 17  1  0  0  0  0
 20 30  1  0  0  0  0
 20 21  1  0  0  0  0
 21 31  1  6  0  0  0
 21 22  1  0  0  0  0
 22 32  1  0  0  0  0
 22  6  1  0  0  0  0
 23 21  1  0  0  0  0
 23 24  2  0  0  0  0
 25 16  1  0  0  0  0
 27 19  1  0  0  0  0
 28 19  1  0  0  0  0
 29 20  1  0  0  0  0
 33 46  1  0  0  0  0
 33 45  1  0  0  0  0
 34 33  1  0  0  0  0
 35 47  1  0  0  0  0
 35 34  2  0  0  0  0
 36 34  1  0  0  0  0
 36 48  1  0  0  0  0
 37 49  1  0  0  0  0
 37 36  1  0  0  0  0
 38 39  1  0  0  0  0
 38 37  1  0  0  0  0
 39 54  1  0  0  0  0
 39 40  1  0  0  0  0
 40 41  1  0  0  0  0
 40 55  1  1  0  0  0
 41 23  1  0  0  0  0
 42 40  1  0  0  0  0
 43 42  1  0  0  0  0
 44 42  2  0  0  0  0
 50 37  1  0  0  0  0
 51 38  1  0  0  0  0
 52 38  1  0  0  0  0
 53 39  1  0  0  0  0
 56 41  1  0  0  0  0
M  END
$$$$
