TQS.pdb
 OpenBabel07022419123D

 44 43  0  0  1  0  0  0  0  0999 V2000
   -0.4440   -4.2020    3.9650 C   0  0  0  0  0  0  0  0  0  0  0  0
    0.0960   -3.0050    3.2190 C   0  0  1  0  0  0  0  0  0  0  0  0
    0.5640   -2.0560    4.1560 O   0  0  0  0  0  0  0  0  0  0  0  0
    1.2420   -3.3980    2.2770 C   0  0  2  0  0  0  0  0  0  0  0  0
    2.3280   -3.9650    3.0440 N   0  0  0  0  0  0  0  0  0  0  0  0
    1.7470   -2.1930    1.5670 C   0  0  0  0  0  0  0  0  0  0  0  0
    2.8860   -1.7500    1.8340 O   0  0  0  0  0  0  0  0  0  0  0  0
   -0.7740   -3.8650    4.9740 H   0  0  0  0  0  0  0  0  0  0  0  0
    0.2130   -5.0710    3.9810 H   0  0  0  0  0  0  0  0  0  0  0  0
   -1.4030   -4.5170    3.4520 H   0  0  0  0  0  0  0  0  0  0  0  0
   -0.7170   -2.5090    2.6590 H   0  0  0  0  0  0  0  0  0  0  0  0
    1.5500   -2.0260    4.1630 H   0  0  0  0  0  0  0  0  0  0  0  0
    0.8500   -4.1850    1.6120 H   0  0  0  0  0  0  0  0  0  0  0  0
    2.1660   -4.9150    3.4030 H   0  0  0  0  0  0  0  0  0  0  0  0
    3.1870   -3.9910    2.4430 H   0  0  0  0  0  0  0  0  0  0  0  0
    1.6260    2.7050   -3.0820 N   0  0  0  0  0  0  0  0  0  0  0  0
    1.3010    1.3740   -2.6960 C   0  0  0  0  0  0  0  0  0  0  0  0
    0.1110    0.9690   -2.6590 O   0  0  0  0  0  0  0  0  0  0  0  0
    2.3760    0.4290   -2.3360 C   0  0  0  0  0  0  0  0  0  0  0  0
    1.8950   -0.6850   -1.4900 C   0  0  0  0  0  0  0  0  0  0  0  0
    1.4950   -0.3100   -0.1210 C   0  0  2  0  0  0  0  0  0  0  0  0
    0.9810   -1.5130    0.5840 N   0  0  0  0  0  0  0  0  0  0  0  0
    0.6250    0.8280    0.0970 C   0  0  0  0  0  0  0  0  0  0  0  0
    0.9840    2.0320   -0.1110 O   0  0  0  0  0  0  0  0  0  0  0  0
    1.3320    3.0600   -3.9970 H   0  0  0  0  0  0  0  0  0  0  0  0
    2.1640    3.3030   -2.4130 H   0  0  0  0  0  0  0  0  0  0  0  0
    3.1670    0.9750   -1.7300 H   0  0  0  0  0  0  0  0  0  0  0  0
    2.8680    0.0640   -3.2770 H   0  0  0  0  0  0  0  0  0  0  0  0
    1.0540   -1.1750   -2.0670 H   0  0  0  0  0  0  0  0  0  0  0  0
    2.7380   -1.4290   -1.3880 H   0  0  0  0  0  0  0  0  0  0  0  0
    2.4640   -0.0890    0.4430 H   0  0  0  0  0  0  0  0  0  0  0  0
    0.0400   -1.8830    0.3650 H   0  0  0  0  0  0  0  0  0  0  0  0
   -3.5580    0.6420    0.2610 O   0  0  0  0  0  0  0  0  0  0  0  0
   -2.8260    1.7500   -0.0860 C   0  0  0  0  0  0  0  0  0  0  0  0
   -1.5700    1.8570    0.7610 C   0  0  2  0  0  0  0  0  0  0  0  0
   -0.7350    0.7050    0.5680 N   0  0  0  0  0  0  0  0  0  0  0  0
   -2.0090    2.0900    2.1410 C   0  0  0  0  0  0  0  0  0  0  0  0
   -1.6960    1.3980    3.1470 O   0  0  0  0  0  0  0  0  0  0  0  0
   -2.8490    3.1660    2.3760 O   0  0  0  0  0  0  0  0  0  0  0  0
   -3.0710   -0.1890    0.3810 H   0  0  0  0  0  0  0  0  0  0  0  0
   -2.5140    1.7440   -1.1360 H   0  0  0  0  0  0  0  0  0  0  0  0
   -3.4430    2.6610    0.1220 H   0  0  0  0  0  0  0  0  0  0  0  0
   -1.0170    2.7860    0.4460 H   0  0  0  0  0  0  0  0  0  0  0  0
   -1.0760   -0.2480    0.7570 H   0  0  0  0  0  0  0  0  0  0  0  0
  1  9  1  0  0  0  0
  1  8  1  0  0  0  0
  2 11  1  6  0  0  0
  2  1  1  0  0  0  0
  2  3  1  0  0  0  0
  3 12  1  0  0  0  0
  4 13  1  6  0  0  0
  4  5  1  0  0  0  0
  4  2  1  0  0  0  0
  5 14  1  0  0  0  0
  6  7  2  0  0  0  0
  6  4  1  0  0  0  0
 10  1  1  0  0  0  0
 15  5  1  0  0  0  0
 16 17  1  0  0  0  0
 16 26  1  0  0  0  0
 17 18  2  0  0  0  0
 17 19  1  0  0  0  0
 19 27  1  0  0  0  0
 19 20  1  0  0  0  0
 20 30  1  0  0  0  0
 20 21  1  0  0  0  0
 21 23  1  0  0  0  0
 21 31  1  1  0  0  0
 21 22  1  0  0  0  0
 22  6  1  0  0  0  0
 23 36  1  0  0  0  0
 24 23  2  0  0  0  0
 25 16  1  0  0  0  0
 28 19  1  0  0  0  0
 29 20  1  0  0  0  0
 32 22  1  0  0  0  0
 33 40  1  0  0  0  0
 34 42  1  0  0  0  0
 34 33  1  0  0  0  0
 34 35  1  0  0  0  0
 35 43  1  6  0  0  0
 35 37  1  0  0  0  0
 36 44  1  0  0  0  0
 36 35  1  0  0  0  0
 37 39  2  0  0  0  0
 37 38  1  0  0  0  0
 41 34  1  0  0  0  0
M  END
$$$$
