TQT.pdb
 OpenBabel07022419123D

 47 46  0  0  1  0  0  0  0  0999 V2000
    1.1670   -0.3300    4.7810 C   0  0  0  0  0  0  0  0  0  0  0  0
    1.2250   -1.8130    4.8360 C   0  0  1  0  0  0  0  0  0  0  0  0
    0.6560   -2.2810    6.0270 O   0  0  0  0  0  0  0  0  0  0  0  0
    0.4870   -2.5080    3.7110 C   0  0  2  0  0  0  0  0  0  0  0  0
    0.6960   -3.9520    3.8860 N   0  0  0  0  0  0  0  0  0  0  0  0
    1.0890   -2.1450    2.3780 C   0  0  0  0  0  0  0  0  0  0  0  0
    2.2090   -2.5920    2.0360 O   0  0  0  0  0  0  0  0  0  0  0  0
    1.5020    0.1490    5.7440 H   0  0  0  0  0  0  0  0  0  0  0  0
    0.1630    0.0860    4.5940 H   0  0  0  0  0  0  0  0  0  0  0  0
    1.8950    0.0060    3.9900 H   0  0  0  0  0  0  0  0  0  0  0  0
    2.2750   -2.2080    4.7570 H   0  0  0  0  0  0  0  0  0  0  0  0
    0.5250   -1.4940    6.5980 H   0  0  0  0  0  0  0  0  0  0  0  0
   -0.5750   -2.3040    3.7620 H   0  0  0  0  0  0  0  0  0  0  0  0
    0.5650   -4.1730    4.8990 H   0  0  0  0  0  0  0  0  0  0  0  0
   -0.1110   -4.4080    3.3890 H   0  0  0  0  0  0  0  0  0  0  0  0
    3.1160   -0.0110   -3.3430 N   0  0  0  0  0  0  0  0  0  0  0  0
    2.7600   -0.7010   -2.1730 C   0  0  0  0  0  0  0  0  0  0  0  0
    3.5000   -0.5400   -1.1230 O   0  0  0  0  0  0  0  0  0  0  0  0
    1.6130   -1.5930   -2.0710 C   0  0  0  0  0  0  0  0  0  0  0  0
    1.1860   -2.0230   -0.7180 C   0  0  0  0  0  0  0  0  0  0  0  0
    0.8120   -0.8550    0.2070 C   0  0  2  0  0  0  0  0  0  0  0  0
    0.3750   -1.2920    1.5000 N   0  0  0  0  0  0  0  0  0  0  0  0
    0.0340    0.1640   -0.4690 C   0  0  0  0  0  0  0  0  0  0  0  0
    0.4110    0.6340   -1.6100 O   0  0  0  0  0  0  0  0  0  0  0  0
    2.4630    0.0310   -4.1570 H   0  0  0  0  0  0  0  0  0  0  0  0
    4.0440    0.4610   -3.3800 H   0  0  0  0  0  0  0  0  0  0  0  0
    1.9910   -2.5640   -2.5640 H   0  0  0  0  0  0  0  0  0  0  0  0
    0.7630   -1.3140   -2.7590 H   0  0  0  0  0  0  0  0  0  0  0  0
    0.3410   -2.7070   -0.7690 H   0  0  0  0  0  0  0  0  0  0  0  0
    2.0520   -2.5790   -0.2650 H   0  0  0  0  0  0  0  0  0  0  0  0
    1.8560   -0.4370    0.4140 H   0  0  0  0  0  0  0  0  0  0  0  0
   -0.5660   -0.9510    1.9100 H   0  0  0  0  0  0  0  0  0  0  0  0
   -2.7360   -0.1500   -2.0740 C   0  0  0  0  0  0  0  0  0  0  0  0
   -3.1730    1.0690   -1.2370 C   0  0  1  0  0  0  0  0  0  0  0  0
   -3.9480    0.5470   -0.1950 O   0  0  0  0  0  0  0  0  0  0  0  0
   -1.9230    1.7670   -0.7130 C   0  0  2  0  0  0  0  0  0  0  0  0
   -1.1590    0.7450    0.0130 N   0  0  0  0  0  0  0  0  0  0  0  0
   -2.1800    2.9760    0.0310 C   0  0  0  0  0  0  0  0  0  0  0  0
   -2.9490    3.8690   -0.4710 O   0  0  0  0  0  0  0  0  0  0  0  0
   -1.6570    3.2900    1.2860 O   0  0  0  0  0  0  0  0  0  0  0  0
   -2.3340   -0.9380   -1.4050 H   0  0  0  0  0  0  0  0  0  0  0  0
   -1.9900    0.1680   -2.8280 H   0  0  0  0  0  0  0  0  0  0  0  0
   -3.6320   -0.5340   -2.5870 H   0  0  0  0  0  0  0  0  0  0  0  0
   -3.8190    1.7450   -1.8330 H   0  0  0  0  0  0  0  0  0  0  0  0
   -3.4140   -0.0830    0.3590 H   0  0  0  0  0  0  0  0  0  0  0  0
   -1.3680    2.0690   -1.6510 H   0  0  0  0  0  0  0  0  0  0  0  0
   -1.5300    0.4320    0.9560 H   0  0  0  0  0  0  0  0  0  0  0  0
  1  2  1  0  0  0  0
  1  8  1  0  0  0  0
  2 11  1  6  0  0  0
  2  3  1  0  0  0  0
  3 12  1  0  0  0  0
  4 13  1  1  0  0  0
  4  5  1  0  0  0  0
  4  2  1  0  0  0  0
  5 14  1  0  0  0  0
  6  4  1  0  0  0  0
  7  6  2  0  0  0  0
  9  1  1  0  0  0  0
 10  1  1  0  0  0  0
 15  5  1  0  0  0  0
 16 17  1  0  0  0  0
 17 19  1  0  0  0  0
 17 18  2  0  0  0  0
 19 20  1  0  0  0  0
 20 30  1  0  0  0  0
 20 21  1  0  0  0  0
 21 31  1  1  0  0  0
 21 22  1  0  0  0  0
 22 32  1  0  0  0  0
 22  6  1  0  0  0  0
 23 37  1  0  0  0  0
 23 21  1  0  0  0  0
 24 23  2  0  0  0  0
 25 16  1  0  0  0  0
 26 16  1  0  0  0  0
 27 19  1  0  0  0  0
 28 19  1  0  0  0  0
 29 20  1  0  0  0  0
 33 41  1  0  0  0  0
 33 34  1  0  0  0  0
 34 44  1  6  0  0  0
 34 36  1  0  0  0  0
 34 35  1  0  0  0  0
 35 45  1  0  0  0  0
 36 46  1  6  0  0  0
 36 37  1  0  0  0  0
 36 38  1  0  0  0  0
 37 47  1  0  0  0  0
 38 40  1  0  0  0  0
 39 38  2  0  0  0  0
 42 33  1  0  0  0  0
 43 33  1  0  0  0  0
M  END
$$$$
