TQV.pdb
 OpenBabel07022419123D

 49 48  0  0  1  0  0  0  0  0999 V2000
    2.2700   -4.1860    3.7630 C   0  0  0  0  0  0  0  0  0  0  0  0
    3.2010   -3.8700    2.6130 C   0  0  1  0  0  0  0  0  0  0  0  0
    4.1000   -4.9400    2.4150 O   0  0  0  0  0  0  0  0  0  0  0  0
    2.3970   -3.6380    1.3280 C   0  0  2  0  0  0  0  0  0  0  0  0
    3.2620   -3.3170    0.2280 N   0  0  0  0  0  0  0  0  0  0  0  0
    1.4430   -2.5320    1.6220 C   0  0  0  0  0  0  0  0  0  0  0  0
    0.6090   -2.6530    2.5550 O   0  0  0  0  0  0  0  0  0  0  0  0
    1.9690   -3.2990    4.3390 H   0  0  0  0  0  0  0  0  0  0  0  0
    1.3350   -4.6970    3.4200 H   0  0  0  0  0  0  0  0  0  0  0  0
    2.7940   -4.8560    4.4970 H   0  0  0  0  0  0  0  0  0  0  0  0
    3.8180   -2.9920    2.8730 H   0  0  0  0  0  0  0  0  0  0  0  0
    3.6400   -5.5520    1.7930 H   0  0  0  0  0  0  0  0  0  0  0  0
    1.8880   -4.5940    1.1030 H   0  0  0  0  0  0  0  0  0  0  0  0
    2.9040   -3.6270   -0.6970 H   0  0  0  0  0  0  0  0  0  0  0  0
    4.1740   -3.8380    0.3820 H   0  0  0  0  0  0  0  0  0  0  0  0
    2.9680    2.7500   -1.1480 N   0  0  0  0  0  0  0  0  0  0  0  0
    1.9430    2.1690   -0.3240 C   0  0  0  0  0  0  0  0  0  0  0  0
    0.8030    2.1870   -0.8120 O   0  0  0  0  0  0  0  0  0  0  0  0
    2.2110    1.6010    0.9810 C   0  0  0  0  0  0  0  0  0  0  0  0
    1.1570    0.9390    1.7490 C   0  0  0  0  0  0  0  0  0  0  0  0
    0.4740   -0.2530    1.2010 C   0  0  2  0  0  0  0  0  0  0  0  0
    1.4250   -1.3240    0.8900 N   0  0  0  0  0  0  0  0  0  0  0  0
   -0.4530   -0.1080    0.0990 C   0  0  0  0  0  0  0  0  0  0  0  0
   -0.2880   -0.7070   -0.9800 O   0  0  0  0  0  0  0  0  0  0  0  0
    3.0980    2.3080   -2.0840 H   0  0  0  0  0  0  0  0  0  0  0  0
    3.5520    3.5450   -0.8740 H   0  0  0  0  0  0  0  0  0  0  0  0
    2.5760    2.4740    1.6240 H   0  0  0  0  0  0  0  0  0  0  0  0
    3.1420    0.9460    0.9770 H   0  0  0  0  0  0  0  0  0  0  0  0
    1.6250    0.6010    2.7290 H   0  0  0  0  0  0  0  0  0  0  0  0
    0.4000    1.6990    2.1100 H   0  0  0  0  0  0  0  0  0  0  0  0
   -0.1600   -0.6410    2.0940 H   0  0  0  0  0  0  0  0  0  0  0  0
    2.0850   -1.1570    0.1070 H   0  0  0  0  0  0  0  0  0  0  0  0
   -3.5740   -1.1990   -0.0530 C   0  0  0  0  0  0  0  0  0  0  0  0
   -3.8590    0.2730   -0.3060 C   0  0  0  0  0  0  0  0  0  0  0  0
   -4.9670    0.4370   -1.3210 C   0  0  0  0  0  0  0  0  0  0  0  0
   -2.5620    0.9210   -0.8130 C   0  0  2  0  0  0  0  0  0  0  0  0
   -1.5890    0.7300    0.2380 N   0  0  0  0  0  0  0  0  0  0  0  0
   -2.7630    2.3290   -1.1500 C   0  0  0  0  0  0  0  0  0  0  0  0
   -3.5740    2.6590   -2.0440 O   0  0  0  0  0  0  0  0  0  0  0  0
   -2.0630    3.3190   -0.4910 O   0  0  0  0  0  0  0  0  0  0  0  0
   -3.0370   -1.3210    0.9020 H   0  0  0  0  0  0  0  0  0  0  0  0
   -4.5750   -1.6920    0.0640 H   0  0  0  0  0  0  0  0  0  0  0  0
   -3.0650   -1.6370   -0.9150 H   0  0  0  0  0  0  0  0  0  0  0  0
   -4.0860    0.7750    0.6500 H   0  0  0  0  0  0  0  0  0  0  0  0
   -4.5970    0.3830   -2.3560 H   0  0  0  0  0  0  0  0  0  0  0  0
   -5.7470   -0.3280   -1.1200 H   0  0  0  0  0  0  0  0  0  0  0  0
   -5.3820    1.4630   -1.1680 H   0  0  0  0  0  0  0  0  0  0  0  0
   -2.2950    0.3350   -1.7250 H   0  0  0  0  0  0  0  0  0  0  0  0
   -1.7720    1.2580    1.1330 H   0  0  0  0  0  0  0  0  0  0  0  0
  1  8  1  0  0  0  0
  1 10  1  0  0  0  0
  2 11  1  1  0  0  0
  2  1  1  0  0  0  0
  3  2  1  0  0  0  0
  4 13  1  6  0  0  0
  4  6  1  0  0  0  0
  4  2  1  0  0  0  0
  5 15  1  0  0  0  0
  5  4  1  0  0  0  0
  6  7  2  0  0  0  0
  9  1  1  0  0  0  0
 12  3  1  0  0  0  0
 14  5  1  0  0  0  0
 16 26  1  0  0  0  0
 16 17  1  0  0  0  0
 17 19  1  0  0  0  0
 18 17  2  0  0  0  0
 19 27  1  0  0  0  0
 19 20  1  0  0  0  0
 20 30  1  0  0  0  0
 20 29  1  0  0  0  0
 21 20  1  0  0  0  0
 21 31  1  1  0  0  0
 22 21  1  0  0  0  0
 22  6  1  0  0  0  0
 23 37  1  0  0  0  0
 23 21  1  0  0  0  0
 24 23  2  0  0  0  0
 25 16  1  0  0  0  0
 28 19  1  0  0  0  0
 32 22  1  0  0  0  0
 33 42  1  0  0  0  0
 33 41  1  0  0  0  0
 34 33  1  0  0  0  0
 34 44  1  0  0  0  0
 35 47  1  0  0  0  0
 35 46  1  0  0  0  0
 35 34  1  0  0  0  0
 36 48  1  6  0  0  0
 36 34  1  0  0  0  0
 36 37  1  0  0  0  0
 37 49  1  0  0  0  0
 38 36  1  0  0  0  0
 38 40  1  0  0  0  0
 39 38  2  0  0  0  0
 43 33  1  0  0  0  0
 45 35  1  0  0  0  0
M  END
$$$$
