TQW.pdb
 OpenBabel07022419123D

 57 58  0  0  1  0  0  0  0  0999 V2000
    2.1600   -1.8940    2.9820 C   0  0  0  0  0  0  0  0  0  0  0  0
    3.1110   -1.4290    1.8980 C   0  0  1  0  0  0  0  0  0  0  0  0
    2.8480   -1.9670    0.6570 O   0  0  0  0  0  0  0  0  0  0  0  0
    3.2170    0.0870    1.8520 C   0  0  2  0  0  0  0  0  0  0  0  0
    3.4960    0.4950    3.2360 N   0  0  0  0  0  0  0  0  0  0  0  0
    1.9920    0.7400    1.3620 C   0  0  0  0  0  0  0  0  0  0  0  0
    1.6390    0.5660    0.1790 O   0  0  0  0  0  0  0  0  0  0  0  0
    1.3440   -1.1650    3.1630 H   0  0  0  0  0  0  0  0  0  0  0  0
    1.7980   -2.9120    2.7470 H   0  0  0  0  0  0  0  0  0  0  0  0
    2.6810   -1.9870    3.9760 H   0  0  0  0  0  0  0  0  0  0  0  0
    4.1280   -1.7900    2.2040 H   0  0  0  0  0  0  0  0  0  0  0  0
    2.4350   -2.8430    0.6700 H   0  0  0  0  0  0  0  0  0  0  0  0
    4.0720    0.3310    1.2070 H   0  0  0  0  0  0  0  0  0  0  0  0
    2.8060    0.0500    3.8780 H   0  0  0  0  0  0  0  0  0  0  0  0
    4.4530    0.1360    3.4770 H   0  0  0  0  0  0  0  0  0  0  0  0
    3.4710    3.5260   -0.3970 N   0  0  0  0  0  0  0  0  0  0  0  0
    2.5010    3.7180    0.6050 C   0  0  0  0  0  0  0  0  0  0  0  0
    2.8490    3.6970    1.8060 O   0  0  0  0  0  0  0  0  0  0  0  0
    1.0970    3.9460    0.2550 C   0  0  0  0  0  0  0  0  0  0  0  0
    0.1350    3.5730    1.3120 C   0  0  0  0  0  0  0  0  0  0  0  0
    0.0120    2.1670    1.7120 C   0  0  2  0  0  0  0  0  0  0  0  0
    1.1840    1.5700    2.1870 N   0  0  0  0  0  0  0  0  0  0  0  0
   -0.9060    1.3280    0.8940 C   0  0  0  0  0  0  0  0  0  0  0  0
   -1.7950    1.8920    0.1710 O   0  0  0  0  0  0  0  0  0  0  0  0
    3.1670    3.2490   -1.3500 H   0  0  0  0  0  0  0  0  0  0  0  0
    4.4650    3.6580   -0.1890 H   0  0  0  0  0  0  0  0  0  0  0  0
    0.9970    5.0680    0.1230 H   0  0  0  0  0  0  0  0  0  0  0  0
    0.8330    3.5570   -0.7560 H   0  0  0  0  0  0  0  0  0  0  0  0
    0.4020    4.1920    2.2220 H   0  0  0  0  0  0  0  0  0  0  0  0
   -0.8730    3.9990    1.0180 H   0  0  0  0  0  0  0  0  0  0  0  0
   -0.6420    2.2440    2.7090 H   0  0  0  0  0  0  0  0  0  0  0  0
    1.5180    1.7100    3.1630 H   0  0  0  0  0  0  0  0  0  0  0  0
   -0.8780   -0.0700    0.8570 N   0  0  0  0  0  0  0  0  0  0  0  0
   -1.7880   -0.8750    0.0340 C   0  0  1  0  0  0  0  0  0  0  0  0
   -1.0540   -1.5820   -1.0410 C   0  0  0  0  0  0  0  0  0  0  0  0
   -1.9530   -2.4200   -1.8540 C   0  0  0  0  0  0  0  0  0  0  0  0
   -2.6320   -2.0250   -3.0210 C   0  0  0  0  0  0  0  0  0  0  0  0
   -3.3850   -3.0440   -3.4570 N   0  0  0  0  0  0  0  0  0  0  0  0
   -3.2420   -4.0890   -2.6440 C   0  0  0  0  0  0  0  0  0  0  0  0
   -3.8060   -5.3540   -2.7070 C   0  0  0  0  0  0  0  0  0  0  0  0
   -3.4580   -6.2560   -1.7340 C   0  0  0  0  0  0  0  0  0  0  0  0
   -2.5760   -5.9110   -0.7290 C   0  0  0  0  0  0  0  0  0  0  0  0
   -2.0210   -4.6650   -0.6670 C   0  0  0  0  0  0  0  0  0  0  0  0
   -2.3650   -3.7300   -1.6490 C   0  0  0  0  0  0  0  0  0  0  0  0
   -2.6440   -1.6500    0.9210 C   0  0  0  0  0  0  0  0  0  0  0  0
   -3.6340   -2.3510    0.5920 O   0  0  0  0  0  0  0  0  0  0  0  0
   -2.3650   -1.6370    2.3030 O   0  0  0  0  0  0  0  0  0  0  0  0
   -0.2180   -0.6140    1.4500 H   0  0  0  0  0  0  0  0  0  0  0  0
   -2.4640   -0.0890   -0.4540 H   0  0  0  0  0  0  0  0  0  0  0  0
   -0.5530   -0.8800   -1.7400 H   0  0  0  0  0  0  0  0  0  0  0  0
   -0.3210   -2.2690   -0.5590 H   0  0  0  0  0  0  0  0  0  0  0  0
   -2.5230   -1.0270   -3.4590 H   0  0  0  0  0  0  0  0  0  0  0  0
   -3.9870   -2.9860   -4.3160 H   0  0  0  0  0  0  0  0  0  0  0  0
   -4.4980   -5.6380   -3.4910 H   0  0  0  0  0  0  0  0  0  0  0  0
   -3.9120   -7.2520   -1.7970 H   0  0  0  0  0  0  0  0  0  0  0  0
   -2.3190   -6.6430    0.0230 H   0  0  0  0  0  0  0  0  0  0  0  0
   -1.3260   -4.3380    0.0970 H   0  0  0  0  0  0  0  0  0  0  0  0
  1  8  1  0  0  0  0
  1 10  1  0  0  0  0
  2 11  1  1  0  0  0
  2  1  1  0  0  0  0
  3 12  1  0  0  0  0
  3  2  1  0  0  0  0
  4 13  1  6  0  0  0
  4  2  1  0  0  0  0
  4  5  1  0  0  0  0
  5 15  1  0  0  0  0
  5 14  1  0  0  0  0
  6  4  1  0  0  0  0
  6 22  1  0  0  0  0
  7  6  2  0  0  0  0
  9  1  1  0  0  0  0
 16 26  1  0  0  0  0
 16 17  1  0  0  0  0
 17 18  2  0  0  0  0
 19 17  1  0  0  0  0
 19 20  1  0  0  0  0
 20 21  1  0  0  0  0
 20 29  1  0  0  0  0
 21 22  1  0  0  0  0
 21 31  1  1  0  0  0
 22 32  1  0  0  0  0
 23 21  1  0  0  0  0
 24 23  2  0  0  0  0
 25 16  1  0  0  0  0
 27 19  1  0  0  0  0
 28 19  1  0  0  0  0
 30 20  1  0  0  0  0
 33 23  1  0  0  0  0
 33 48  1  0  0  0  0
 34 49  1  6  0  0  0
 34 33  1  0  0  0  0
 34 45  1  0  0  0  0
 35 51  1  0  0  0  0
 35 34  1  0  0  0  0
 36 44  1  0  0  0  0
 36 35  1  0  0  0  0
 37 36  2  0  0  0  0
 38 37  1  0  0  0  0
 38 39  1  0  0  0  0
 39 44  1  0  0  0  0
 40 39  2  0  0  0  0
 40 41  1  0  0  0  0
 41 42  2  0  0  0  0
 42 43  1  0  0  0  0
 42 56  1  0  0  0  0
 43 57  1  0  0  0  0
 44 43  2  0  0  0  0
 45 47  1  0  0  0  0
 46 45  2  0  0  0  0
 50 35  1  0  0  0  0
 52 37  1  0  0  0  0
 53 38  1  0  0  0  0
 54 40  1  0  0  0  0
 55 41  1  0  0  0  0
M  END
$$$$
