TRC.pdb
 OpenBabel07022419113D

 50 49  0  0  1  0  0  0  0  0999 V2000
    2.6840   -0.7790   -2.7380 C   0  0  0  0  0  0  0  0  0  0  0  0
    1.8470   -1.5720   -3.7140 C   0  0  1  0  0  0  0  0  0  0  0  0
    2.7710   -2.0850   -4.6560 O   0  0  0  0  0  0  0  0  0  0  0  0
    1.1450   -2.7520   -3.0830 C   0  0  2  0  0  0  0  0  0  0  0  0
    0.4820   -3.4700   -4.1650 N   0  0  0  0  0  0  0  0  0  0  0  0
    0.1250   -2.3680   -2.0950 C   0  0  0  0  0  0  0  0  0  0  0  0
   -1.1090   -2.6120   -2.3330 O   0  0  0  0  0  0  0  0  0  0  0  0
    3.2380   -1.4310   -2.0450 H   0  0  0  0  0  0  0  0  0  0  0  0
    3.4940   -0.2270   -3.3060 H   0  0  0  0  0  0  0  0  0  0  0  0
    2.1140    0.0240   -2.2440 H   0  0  0  0  0  0  0  0  0  0  0  0
    1.1690   -0.9030   -4.2690 H   0  0  0  0  0  0  0  0  0  0  0  0
    2.6980   -3.0730   -4.7270 H   0  0  0  0  0  0  0  0  0  0  0  0
    1.9070   -3.4210   -2.6680 H   0  0  0  0  0  0  0  0  0  0  0  0
    0.5050   -2.9090   -5.0350 H   0  0  0  0  0  0  0  0  0  0  0  0
    0.8040   -4.4390   -4.2390 H   0  0  0  0  0  0  0  0  0  0  0  0
   -1.0390   -0.7930    5.8700 N   0  0  0  0  0  0  0  0  0  0  0  0
    0.0580   -1.0740    5.0160 C   0  0  0  0  0  0  0  0  0  0  0  0
    0.9810   -0.1850    4.8980 N   0  0  0  0  0  0  0  0  0  0  0  0
    0.1220   -2.3110    4.3200 N   0  0  0  0  0  0  0  0  0  0  0  0
    1.0710   -2.5620    3.2870 C   0  0  0  0  0  0  0  0  0  0  0  0
    0.8920   -1.7990    2.0220 C   0  0  0  0  0  0  0  0  0  0  0  0
   -0.4710   -2.1090    1.4000 C   0  0  0  0  0  0  0  0  0  0  0  0
   -0.6600   -1.3610    0.0980 C   0  0  2  0  0  0  0  0  0  0  0  0
    0.3700   -1.7330   -0.8610 N   0  0  0  0  0  0  0  0  0  0  0  0
   -0.6360    0.0840    0.3880 C   0  0  0  0  0  0  0  0  0  0  0  0
    0.2580    0.7780   -0.1770 O   0  0  0  0  0  0  0  0  0  0  0  0
   -1.9670   -1.2490    5.7340 H   0  0  0  0  0  0  0  0  0  0  0  0
   -0.9750   -0.1200    6.6740 H   0  0  0  0  0  0  0  0  0  0  0  0
    1.8210   -0.2810    4.3070 H   0  0  0  0  0  0  0  0  0  0  0  0
   -0.5930   -3.0380    4.6270 H   0  0  0  0  0  0  0  0  0  0  0  0
    1.0480   -3.6480    3.0180 H   0  0  0  0  0  0  0  0  0  0  0  0
    2.0820   -2.3690    3.6970 H   0  0  0  0  0  0  0  0  0  0  0  0
    1.0030   -0.7050    2.1000 H   0  0  0  0  0  0  0  0  0  0  0  0
    1.6450   -2.2160    1.2900 H   0  0  0  0  0  0  0  0  0  0  0  0
   -0.6100   -3.2000    1.2800 H   0  0  0  0  0  0  0  0  0  0  0  0
   -1.2140   -1.7810    2.1540 H   0  0  0  0  0  0  0  0  0  0  0  0
   -1.6200   -1.6920   -0.3460 H   0  0  0  0  0  0  0  0  0  0  0  0
    1.3460   -1.5110   -0.5970 H   0  0  0  0  0  0  0  0  0  0  0  0
   -1.5260    0.7750    1.2450 N   0  0  0  0  0  0  0  0  0  0  0  0
   -1.4410    2.2050    1.4780 C   0  0  1  0  0  0  0  0  0  0  0  0
   -2.6560    2.9310    0.9360 C   0  0  0  0  0  0  0  0  0  0  0  0
   -2.3970    4.7060    1.3050 S   0  0  0  0  0  0  0  0  0  0  0  0
   -1.4260    2.4280    2.9380 C   0  0  0  0  0  0  0  0  0  0  0  0
   -1.4930    1.4750    3.7520 O   0  0  0  0  0  0  0  0  0  0  0  0
   -1.3380    3.7030    3.5050 O   0  0  0  0  0  0  0  0  0  0  0  0
   -2.2610    0.2380    1.7190 H   0  0  0  0  0  0  0  0  0  0  0  0
   -0.5730    2.6500    0.9420 H   0  0  0  0  0  0  0  0  0  0  0  0
   -2.7150    2.8580   -0.1710 H   0  0  0  0  0  0  0  0  0  0  0  0
   -3.5750    2.6350    1.4470 H   0  0  0  0  0  0  0  0  0  0  0  0
   -1.6720    5.3170    0.2480 H   0  0  0  0  0  0  0  0  0  0  0  0
  1 10  1  0  0  0  0
  1  8  1  0  0  0  0
  2 11  1  6  0  0  0
  2  4  1  0  0  0  0
  2  1  1  0  0  0  0
  3  2  1  0  0  0  0
  4 13  1  1  0  0  0
  4  6  1  0  0  0  0
  5  4  1  0  0  0  0
  6 24  1  0  0  0  0
  7  6  2  0  0  0  0
  9  1  1  0  0  0  0
 12  3  1  0  0  0  0
 14  5  1  0  0  0  0
 15  5  1  0  0  0  0
 16 28  1  0  0  0  0
 17 16  1  0  0  0  0
 18 17  2  0  0  0  0
 19 30  1  0  0  0  0
 19 17  1  0  0  0  0
 20 32  1  0  0  0  0
 20 19  1  0  0  0  0
 21 33  1  0  0  0  0
 21 20  1  0  0  0  0
 22 21  1  0  0  0  0
 22 36  1  0  0  0  0
 23 37  1  6  0  0  0
 23 25  1  0  0  0  0
 23 22  1  0  0  0  0
 24 38  1  0  0  0  0
 24 23  1  0  0  0  0
 25 39  1  0  0  0  0
 26 25  2  0  0  0  0
 27 16  1  0  0  0  0
 29 18  1  0  0  0  0
 31 20  1  0  0  0  0
 34 21  1  0  0  0  0
 35 22  1  0  0  0  0
 39 40  1  0  0  0  0
 39 46  1  0  0  0  0
 40 47  1  6  0  0  0
 40 43  1  0  0  0  0
 41 42  1  0  0  0  0
 41 49  1  0  0  0  0
 41 40  1  0  0  0  0
 43 45  2  0  0  0  0
 43 44  1  0  0  0  0
 48 41  1  0  0  0  0
 50 42  1  0  0  0  0
M  END
$$$$
