TRF.pdb
 OpenBabel07022419113D

 59 59  0  0  1  0  0  0  0  0999 V2000
    0.5900   -3.3660    2.1260 C   0  0  0  0  0  0  0  0  0  0  0  0
    1.5160   -2.6950    3.0750 C   0  0  1  0  0  0  0  0  0  0  0  0
    2.3340   -3.7050    3.6470 O   0  0  0  0  0  0  0  0  0  0  0  0
    2.5110   -1.7520    2.4120 C   0  0  2  0  0  0  0  0  0  0  0  0
    3.4050   -1.2870    3.4910 N   0  0  0  0  0  0  0  0  0  0  0  0
    1.8890   -0.5970    1.7410 C   0  0  0  0  0  0  0  0  0  0  0  0
    1.9360    0.5020    2.3590 O   0  0  0  0  0  0  0  0  0  0  0  0
   -0.4240   -2.8970    2.1930 H   0  0  0  0  0  0  0  0  0  0  0  0
    0.9680   -3.5120    1.1170 H   0  0  0  0  0  0  0  0  0  0  0  0
    0.4180   -4.4170    2.5220 H   0  0  0  0  0  0  0  0  0  0  0  0
    0.9360   -2.1850    3.8560 H   0  0  0  0  0  0  0  0  0  0  0  0
    1.9550   -3.9910    4.5120 H   0  0  0  0  0  0  0  0  0  0  0  0
    3.1380   -2.3620    1.7410 H   0  0  0  0  0  0  0  0  0  0  0  0
    3.5600   -2.1220    4.0970 H   0  0  0  0  0  0  0  0  0  0  0  0
    3.0250   -0.4680    3.9830 H   0  0  0  0  0  0  0  0  0  0  0  0
   -0.1180    5.4270    1.4600 N   0  0  0  0  0  0  0  0  0  0  0  0
    0.6910    5.0710    0.3710 C   0  0  0  0  0  0  0  0  0  0  0  0
    1.6140    5.8330   -0.0440 N   0  0  0  0  0  0  0  0  0  0  0  0
    0.4600    3.8060   -0.2860 N   0  0  0  0  0  0  0  0  0  0  0  0
    1.1870    3.4590   -1.4620 C   0  0  0  0  0  0  0  0  0  0  0  0
    1.0390    2.1420   -2.0790 C   0  0  0  0  0  0  0  0  0  0  0  0
    1.4420    0.9220   -1.3520 C   0  0  0  0  0  0  0  0  0  0  0  0
    0.6860    0.5950   -0.0950 C   0  0  2  0  0  0  0  0  0  0  0  0
    1.2730   -0.6280    0.5020 N   0  0  0  0  0  0  0  0  0  0  0  0
   -0.7180    0.3450   -0.4560 C   0  0  0  0  0  0  0  0  0  0  0  0
   -1.4700    1.2040   -0.9850 O   0  0  0  0  0  0  0  0  0  0  0  0
   -0.4510    4.7320    2.1940 H   0  0  0  0  0  0  0  0  0  0  0  0
   -0.4440    6.4150    1.6120 H   0  0  0  0  0  0  0  0  0  0  0  0
    1.8460    6.7590    0.3720 H   0  0  0  0  0  0  0  0  0  0  0  0
   -0.2530    3.2110    0.1300 H   0  0  0  0  0  0  0  0  0  0  0  0
    2.2980    3.6410   -1.3200 H   0  0  0  0  0  0  0  0  0  0  0  0
    0.8830    4.2610   -2.2280 H   0  0  0  0  0  0  0  0  0  0  0  0
   -0.0240    2.0560   -2.4700 H   0  0  0  0  0  0  0  0  0  0  0  0
    1.6650    2.1890   -3.0550 H   0  0  0  0  0  0  0  0  0  0  0  0
    1.3660    0.0360   -2.0790 H   0  0  0  0  0  0  0  0  0  0  0  0
    2.5530    0.9330   -1.1560 H   0  0  0  0  0  0  0  0  0  0  0  0
    0.8410    1.3630    0.6710 H   0  0  0  0  0  0  0  0  0  0  0  0
    1.2150   -1.4840   -0.0550 H   0  0  0  0  0  0  0  0  0  0  0  0
   -1.3210   -0.9440   -0.2120 N   0  0  0  0  0  0  0  0  0  0  0  0
   -2.7210   -1.1980   -0.5700 C   0  0  1  0  0  0  0  0  0  0  0  0
   -2.8240   -2.3010   -1.5950 C   0  0  0  0  0  0  0  0  0  0  0  0
   -2.2600   -3.5840   -1.1160 C   0  0  0  0  0  0  0  0  0  0  0  0
   -3.0780   -4.4790   -0.4600 C   0  0  0  0  0  0  0  0  0  0  0  0
   -2.5970   -5.6990    0.0090 C   0  0  0  0  0  0  0  0  0  0  0  0
   -1.2690   -6.0180   -0.1880 C   0  0  0  0  0  0  0  0  0  0  0  0
   -0.4290   -5.1170   -0.8530 C   0  0  0  0  0  0  0  0  0  0  0  0
   -0.9350   -3.9140   -1.3070 C   0  0  0  0  0  0  0  0  0  0  0  0
   -3.4340   -1.5190    0.6930 C   0  0  0  0  0  0  0  0  0  0  0  0
   -4.6630   -1.7800    0.6810 O   0  0  0  0  0  0  0  0  0  0  0  0
   -2.8040   -1.5500    1.9290 O   0  0  0  0  0  0  0  0  0  0  0  0
   -0.7190   -1.6570    0.2190 H   0  0  0  0  0  0  0  0  0  0  0  0
   -3.1140   -0.2680   -1.0210 H   0  0  0  0  0  0  0  0  0  0  0  0
   -2.3010   -1.9920   -2.5030 H   0  0  0  0  0  0  0  0  0  0  0  0
   -3.9030   -2.4500   -1.8070 H   0  0  0  0  0  0  0  0  0  0  0  0
   -4.1280   -4.3020   -0.2670 H   0  0  0  0  0  0  0  0  0  0  0  0
   -3.2120   -6.4220    0.5260 H   0  0  0  0  0  0  0  0  0  0  0  0
   -0.8440   -6.9470    0.1530 H   0  0  0  0  0  0  0  0  0  0  0  0
    0.6170   -5.3510   -1.0180 H   0  0  0  0  0  0  0  0  0  0  0  0
   -0.2460   -3.2480   -1.8160 H   0  0  0  0  0  0  0  0  0  0  0  0
  1  8  1  0  0  0  0
  1 10  1  0  0  0  0
  1  2  1  0  0  0  0
  2  3  1  0  0  0  0
  2 11  1  1  0  0  0
  3 12  1  0  0  0  0
  4 13  1  6  0  0  0
  4  2  1  0  0  0  0
  4  5  1  0  0  0  0
  5 15  1  0  0  0  0
  5 14  1  0  0  0  0
  6  7  2  0  0  0  0
  6  4  1  0  0  0  0
  9  1  1  0  0  0  0
 16 28  1  0  0  0  0
 16 27  1  0  0  0  0
 17 16  1  0  0  0  0
 18 17  2  0  0  0  0
 18 29  1  0  0  0  0
 19 30  1  0  0  0  0
 19 17  1  0  0  0  0
 20 31  1  0  0  0  0
 20 19  1  0  0  0  0
 21 20  1  0  0  0  0
 21 22  1  0  0  0  0
 22 36  1  0  0  0  0
 22 23  1  0  0  0  0
 23 24  1  0  0  0  0
 23 37  1  1  0  0  0
 24  6  1  0  0  0  0
 25 39  1  0  0  0  0
 25 23  1  0  0  0  0
 26 25  2  0  0  0  0
 32 20  1  0  0  0  0
 33 21  1  0  0  0  0
 34 21  1  0  0  0  0
 35 22  1  0  0  0  0
 38 24  1  0  0  0  0
 39 51  1  0  0  0  0
 40 52  1  6  0  0  0
 40 39  1  0  0  0  0
 40 48  1  0  0  0  0
 41 42  1  0  0  0  0
 41 40  1  0  0  0  0
 42 43  1  0  0  0  0
 43 55  1  0  0  0  0
 43 44  2  0  0  0  0
 44 56  1  0  0  0  0
 45 44  1  0  0  0  0
 45 57  1  0  0  0  0
 46 45  2  0  0  0  0
 47 42  2  0  0  0  0
 47 46  1  0  0  0  0
 48 50  1  0  0  0  0
 49 48  2  0  0  0  0
 53 41  1  0  0  0  0
 54 41  1  0  0  0  0
 58 46  1  0  0  0  0
 59 47  1  0  0  0  0
M  END
$$$$
