TRG.pdb
 OpenBabel07022419113D

 46 45  0  0  1  0  0  0  0  0999 V2000
   -0.8600   -5.6040    1.1150 C   0  0  0  0  0  0  0  0  0  0  0  0
   -0.5320   -4.1360    1.2960 C   0  0  1  0  0  0  0  0  0  0  0  0
   -0.7030   -3.8580    2.6710 O   0  0  0  0  0  0  0  0  0  0  0  0
    0.9150   -3.9030    0.9200 C   0  0  2  0  0  0  0  0  0  0  0  0
    1.7500   -4.7870    1.7120 N   0  0  0  0  0  0  0  0  0  0  0  0
    1.3220   -2.4890    1.2340 C   0  0  0  0  0  0  0  0  0  0  0  0
    2.1730   -2.2540    2.1020 O   0  0  0  0  0  0  0  0  0  0  0  0
   -1.8070   -5.7770    1.6910 H   0  0  0  0  0  0  0  0  0  0  0  0
   -0.0600   -6.2790    1.4110 H   0  0  0  0  0  0  0  0  0  0  0  0
   -1.1530   -5.7710    0.0380 H   0  0  0  0  0  0  0  0  0  0  0  0
   -1.2470   -3.5080    0.7570 H   0  0  0  0  0  0  0  0  0  0  0  0
    0.1770   -3.9440    3.1360 H   0  0  0  0  0  0  0  0  0  0  0  0
    1.0750   -4.1340   -0.1460 H   0  0  0  0  0  0  0  0  0  0  0  0
    2.7180   -4.3570    1.8460 H   0  0  0  0  0  0  0  0  0  0  0  0
    1.8970   -5.7260    1.2320 H   0  0  0  0  0  0  0  0  0  0  0  0
   -1.8800    2.7110   -0.7910 N   0  0  0  0  0  0  0  0  0  0  0  0
   -0.5830    2.5070   -1.3010 C   0  0  0  0  0  0  0  0  0  0  0  0
   -0.3960    1.6340   -2.2160 N   0  0  0  0  0  0  0  0  0  0  0  0
    0.5170    3.2680   -0.8160 N   0  0  0  0  0  0  0  0  0  0  0  0
    1.8460    2.9100   -0.9480 C   0  0  0  0  0  0  0  0  0  0  0  0
    2.5690    1.8680   -0.1950 C   0  0  0  0  0  0  0  0  0  0  0  0
    2.1000    0.5080   -0.1220 C   0  0  0  0  0  0  0  0  0  0  0  0
    1.0670    0.0160    0.7770 C   0  0  2  0  0  0  0  0  0  0  0  0
    0.7460   -1.3910    0.5490 N   0  0  0  0  0  0  0  0  0  0  0  0
    0.0020    0.7750    1.3730 C   0  0  0  0  0  0  0  0  0  0  0  0
    0.0210    1.9510    1.8030 O   0  0  0  0  0  0  0  0  0  0  0  0
   -2.6780    2.0540   -0.9640 H   0  0  0  0  0  0  0  0  0  0  0  0
   -2.1480    3.5450   -0.1930 H   0  0  0  0  0  0  0  0  0  0  0  0
    0.4990    1.3960   -2.6660 H   0  0  0  0  0  0  0  0  0  0  0  0
    0.2250    4.1720   -0.3270 H   0  0  0  0  0  0  0  0  0  0  0  0
    2.4550    3.9040   -0.9060 H   0  0  0  0  0  0  0  0  0  0  0  0
    2.0270    2.7030   -2.0980 H   0  0  0  0  0  0  0  0  0  0  0  0
    3.6360    1.8780   -0.6670 H   0  0  0  0  0  0  0  0  0  0  0  0
    2.8560    2.2950    0.8330 H   0  0  0  0  0  0  0  0  0  0  0  0
    1.9100    0.1870   -1.2110 H   0  0  0  0  0  0  0  0  0  0  0  0
    3.0280   -0.1630    0.0710 H   0  0  0  0  0  0  0  0  0  0  0  0
    1.7480   -0.1380    1.7720 H   0  0  0  0  0  0  0  0  0  0  0  0
    0.0220   -1.6580   -0.1860 H   0  0  0  0  0  0  0  0  0  0  0  0
   -1.2780    0.1220    1.5140 N   0  0  0  0  0  0  0  0  0  0  0  0
   -2.4380    0.7490    2.0990 C   0  0  0  0  0  0  0  0  0  0  0  0
   -2.2080    1.1720    3.5220 C   0  0  0  0  0  0  0  0  0  0  0  0
   -1.1050    0.9810    4.1110 O   0  0  0  0  0  0  0  0  0  0  0  0
   -3.2070    1.7930    4.2460 O   0  0  0  0  0  0  0  0  0  0  0  0
   -1.3250   -0.8500    1.1630 H   0  0  0  0  0  0  0  0  0  0  0  0
   -2.8260    1.5920    1.5190 H   0  0  0  0  0  0  0  0  0  0  0  0
   -3.2290   -0.0570    2.1860 H   0  0  0  0  0  0  0  0  0  0  0  0
  1  2  1  0  0  0  0
  1  9  1  0  0  0  0
  1  8  1  0  0  0  0
  2 11  1  6  0  0  0
  2  3  1  0  0  0  0
  3 12  1  0  0  0  0
  4 13  1  6  0  0  0
  4  6  1  0  0  0  0
  4  2  1  0  0  0  0
  4  5  1  0  0  0  0
  5 14  1  0  0  0  0
  6  7  2  0  0  0  0
 10  1  1  0  0  0  0
 15  5  1  0  0  0  0
 16 28  1  0  0  0  0
 17 19  1  0  0  0  0
 17 16  1  0  0  0  0
 18 17  2  0  0  0  0
 19 30  1  0  0  0  0
 20 31  1  0  0  0  0
 20 19  1  0  0  0  0
 20 21  1  0  0  0  0
 21 22  1  0  0  0  0
 21 34  1  0  0  0  0
 22 36  1  0  0  0  0
 22 23  1  0  0  0  0
 23 25  1  0  0  0  0
 23 37  1  1  0  0  0
 24 23  1  0  0  0  0
 24  6  1  0  0  0  0
 25 39  1  0  0  0  0
 25 26  2  0  0  0  0
 27 16  1  0  0  0  0
 29 18  1  0  0  0  0
 32 20  1  0  0  0  0
 33 21  1  0  0  0  0
 35 22  1  0  0  0  0
 38 24  1  0  0  0  0
 39 40  1  0  0  0  0
 40 46  1  0  0  0  0
 40 41  1  0  0  0  0
 41 42  2  0  0  0  0
 41 43  1  0  0  0  0
 44 39  1  0  0  0  0
 45 40  1  0  0  0  0
M  END
$$$$
