TRI.pdb
 OpenBabel07022419113D

 58 57  0  0  1  0  0  0  0  0999 V2000
    1.6580   -4.8240    2.8920 C   0  0  0  0  0  0  0  0  0  0  0  0
    1.6400   -3.3710    2.4710 C   0  0  1  0  0  0  0  0  0  0  0  0
    2.9200   -3.0450    2.0500 O   0  0  0  0  0  0  0  0  0  0  0  0
    0.6650   -3.2130    1.3460 C   0  0  2  0  0  0  0  0  0  0  0  0
    1.0390   -4.0770    0.2610 N   0  0  0  0  0  0  0  0  0  0  0  0
    0.4550   -1.8120    0.9150 C   0  0  0  0  0  0  0  0  0  0  0  0
    0.5910   -1.5090   -0.2940 O   0  0  0  0  0  0  0  0  0  0  0  0
    2.4760   -5.3740    2.3790 H   0  0  0  0  0  0  0  0  0  0  0  0
    1.7200   -4.9360    4.0000 H   0  0  0  0  0  0  0  0  0  0  0  0
    0.7150   -5.2960    2.5590 H   0  0  0  0  0  0  0  0  0  0  0  0
    1.3710   -2.7860    3.3720 H   0  0  0  0  0  0  0  0  0  0  0  0
    3.5050   -2.6990    2.7580 H   0  0  0  0  0  0  0  0  0  0  0  0
   -0.3610   -3.5670    1.6680 H   0  0  0  0  0  0  0  0  0  0  0  0
    0.7090   -5.0410    0.4910 H   0  0  0  0  0  0  0  0  0  0  0  0
    0.6150   -3.8050   -0.6440 H   0  0  0  0  0  0  0  0  0  0  0  0
    3.6380    2.3510    4.0980 N   0  0  0  0  0  0  0  0  0  0  0  0
    3.4120    2.8720    2.8020 C   0  0  0  0  0  0  0  0  0  0  0  0
    2.6960    3.9500    2.6280 N   0  0  0  0  0  0  0  0  0  0  0  0
    3.9520    2.2480    1.6620 N   0  0  0  0  0  0  0  0  0  0  0  0
    3.2490    2.0940    0.4260 C   0  0  0  0  0  0  0  0  0  0  0  0
    2.1100    1.1080    0.4390 C   0  0  0  0  0  0  0  0  0  0  0  0
    1.0660    1.4690    1.4190 C   0  0  0  0  0  0  0  0  0  0  0  0
   -0.1310    0.5920    1.4920 C   0  0  2  0  0  0  0  0  0  0  0  0
    0.1000   -0.7800    1.8250 N   0  0  0  0  0  0  0  0  0  0  0  0
   -1.1530    0.8180    0.4380 C   0  0  0  0  0  0  0  0  0  0  0  0
   -1.3380    1.9390   -0.0980 O   0  0  0  0  0  0  0  0  0  0  0  0
    2.9700    1.6360    4.4580 H   0  0  0  0  0  0  0  0  0  0  0  0
    4.4520    2.7020    4.6290 H   0  0  0  0  0  0  0  0  0  0  0  0
    2.5120    4.3560    1.6960 H   0  0  0  0  0  0  0  0  0  0  0  0
    4.9320    1.8690    1.7330 H   0  0  0  0  0  0  0  0  0  0  0  0
    4.0140    1.8100   -0.3610 H   0  0  0  0  0  0  0  0  0  0  0  0
    2.8800    3.0930    0.0340 H   0  0  0  0  0  0  0  0  0  0  0  0
    1.6510    1.1620   -0.5820 H   0  0  0  0  0  0  0  0  0  0  0  0
    2.5540    0.1020    0.6280 H   0  0  0  0  0  0  0  0  0  0  0  0
    1.4910    1.4750    2.4780 H   0  0  0  0  0  0  0  0  0  0  0  0
    0.7500    2.5150    1.2260 H   0  0  0  0  0  0  0  0  0  0  0  0
   -0.6820    0.9890    2.4390 H   0  0  0  0  0  0  0  0  0  0  0  0
    0.0160   -1.1320    2.8350 H   0  0  0  0  0  0  0  0  0  0  0  0
   -3.2170   -3.1490   -3.2010 C   0  0  0  0  0  0  0  0  0  0  0  0
   -3.0000   -2.3520   -1.9140 C   0  0  0  0  0  0  0  0  0  0  0  0
   -2.8650   -0.8780   -2.2360 C   0  0  2  0  0  0  0  0  0  0  0  0
   -1.7070   -0.5800   -3.1470 C   0  0  0  0  0  0  0  0  0  0  0  0
   -2.9780    0.0060   -1.0470 C   0  0  2  0  0  0  0  0  0  0  0  0
   -1.9790   -0.2360   -0.0110 N   0  0  0  0  0  0  0  0  0  0  0  0
   -4.3420   -0.2170   -0.4500 C   0  0  0  0  0  0  0  0  0  0  0  0
   -5.3450   -0.0630   -1.1750 O   0  0  0  0  0  0  0  0  0  0  0  0
   -4.4950   -0.5870    0.8850 O   0  0  0  0  0  0  0  0  0  0  0  0
   -3.9950   -2.6350   -3.8380 H   0  0  0  0  0  0  0  0  0  0  0  0
   -3.6770   -4.1250   -2.9330 H   0  0  0  0  0  0  0  0  0  0  0  0
   -2.2900   -3.2710   -3.7820 H   0  0  0  0  0  0  0  0  0  0  0  0
   -3.8870   -2.5420   -1.2770 H   0  0  0  0  0  0  0  0  0  0  0  0
   -2.1270   -2.7800   -1.4180 H   0  0  0  0  0  0  0  0  0  0  0  0
   -3.7880   -0.6520   -2.8610 H   0  0  0  0  0  0  0  0  0  0  0  0
   -0.7830   -1.1290   -2.9150 H   0  0  0  0  0  0  0  0  0  0  0  0
   -1.5510    0.5210   -3.1660 H   0  0  0  0  0  0  0  0  0  0  0  0
   -1.9920   -0.8610   -4.2040 H   0  0  0  0  0  0  0  0  0  0  0  0
   -2.9730    1.0600   -1.3790 H   0  0  0  0  0  0  0  0  0  0  0  0
   -1.9450   -1.2140    0.3650 H   0  0  0  0  0  0  0  0  0  0  0  0
  1  9  1  0  0  0  0
  2  1  1  0  0  0  0
  2 11  1  1  0  0  0
  3  2  1  0  0  0  0
  3 12  1  0  0  0  0
  4 13  1  1  0  0  0
  4  2  1  0  0  0  0
  5 14  1  0  0  0  0
  5  4  1  0  0  0  0
  6  4  1  0  0  0  0
  6 24  1  0  0  0  0
  7  6  2  0  0  0  0
  8  1  1  0  0  0  0
 10  1  1  0  0  0  0
 15  5  1  0  0  0  0
 16 27  1  0  0  0  0
 16 28  1  0  0  0  0
 17 16  1  0  0  0  0
 18 17  2  0  0  0  0
 19 30  1  0  0  0  0
 19 17  1  0  0  0  0
 20 21  1  0  0  0  0
 20 19  1  0  0  0  0
 21 34  1  0  0  0  0
 21 22  1  0  0  0  0
 22 23  1  0  0  0  0
 22 35  1  0  0  0  0
 23 24  1  0  0  0  0
 23 37  1  1  0  0  0
 24 38  1  0  0  0  0
 25 23  1  0  0  0  0
 26 25  2  0  0  0  0
 29 18  1  0  0  0  0
 31 20  1  0  0  0  0
 32 20  1  0  0  0  0
 33 21  1  0  0  0  0
 36 22  1  0  0  0  0
 39 49  1  0  0  0  0
 39 40  1  0  0  0  0
 40 52  1  0  0  0  0
 40 51  1  0  0  0  0
 41 53  1  6  0  0  0
 41 40  1  0  0  0  0
 41 43  1  0  0  0  0
 42 54  1  0  0  0  0
 42 41  1  0  0  0  0
 43 57  1  6  0  0  0
 43 45  1  0  0  0  0
 43 44  1  0  0  0  0
 44 58  1  0  0  0  0
 44 25  1  0  0  0  0
 45 47  1  0  0  0  0
 46 45  2  0  0  0  0
 48 39  1  0  0  0  0
 50 39  1  0  0  0  0
 55 42  1  0  0  0  0
 56 42  1  0  0  0  0
M  END
$$$$
