TRM.pdb
 OpenBabel07022419113D

 56 55  0  0  1  0  0  0  0  0999 V2000
    0.0120   -2.2940    6.1950 C   0  0  0  0  0  0  0  0  0  0  0  0
   -0.0560   -1.9290    4.7110 C   0  0  1  0  0  0  0  0  0  0  0  0
    0.7130   -2.8680    4.0190 O   0  0  0  0  0  0  0  0  0  0  0  0
   -1.4740   -1.8520    4.2480 C   0  0  2  0  0  0  0  0  0  0  0  0
   -2.2090   -3.0870    4.4390 N   0  0  0  0  0  0  0  0  0  0  0  0
   -1.6210   -1.3400    2.8670 C   0  0  0  0  0  0  0  0  0  0  0  0
   -2.7150   -1.4870    2.2270 O   0  0  0  0  0  0  0  0  0  0  0  0
    0.3320   -3.3610    6.3330 H   0  0  0  0  0  0  0  0  0  0  0  0
    0.7860   -1.6780    6.6470 H   0  0  0  0  0  0  0  0  0  0  0  0
   -0.9560   -2.1100    6.6630 H   0  0  0  0  0  0  0  0  0  0  0  0
    0.4250   -0.9460    4.6000 H   0  0  0  0  0  0  0  0  0  0  0  0
    1.6870   -2.6330    4.0790 H   0  0  0  0  0  0  0  0  0  0  0  0
   -1.9930   -1.0740    4.8960 H   0  0  0  0  0  0  0  0  0  0  0  0
   -2.9540   -3.1540    3.7240 H   0  0  0  0  0  0  0  0  0  0  0  0
   -2.6420   -3.0680    5.3780 H   0  0  0  0  0  0  0  0  0  0  0  0
    4.9010    2.6760   -0.6970 N   0  0  0  0  0  0  0  0  0  0  0  0
    3.8980    2.5570    0.3360 C   0  0  0  0  0  0  0  0  0  0  0  0
    3.3540    3.6290    0.7700 N   0  0  0  0  0  0  0  0  0  0  0  0
    3.5950    1.2630    0.7840 N   0  0  0  0  0  0  0  0  0  0  0  0
    2.2350    1.0330    1.3290 C   0  0  0  0  0  0  0  0  0  0  0  0
    1.3170    1.1530    0.1730 C   0  0  0  0  0  0  0  0  0  0  0  0
   -0.1230    1.0090    0.3170 C   0  0  0  0  0  0  0  0  0  0  0  0
   -0.7880   -0.1830    0.8120 C   0  0  2  0  0  0  0  0  0  0  0  0
   -0.5800   -0.6570    2.1370 N   0  0  0  0  0  0  0  0  0  0  0  0
   -0.6120   -1.3610   -0.1720 C   0  0  0  0  0  0  0  0  0  0  0  0
   -0.3940   -2.5030    0.2980 O   0  0  0  0  0  0  0  0  0  0  0  0
    4.5880    2.8540   -1.6750 H   0  0  0  0  0  0  0  0  0  0  0  0
    5.9090    2.5870   -0.4820 H   0  0  0  0  0  0  0  0  0  0  0  0
    2.6260    3.7030    1.5050 H   0  0  0  0  0  0  0  0  0  0  0  0
    4.2780    0.4990    0.7400 H   0  0  0  0  0  0  0  0  0  0  0  0
    2.1040    1.8080    2.1060 H   0  0  0  0  0  0  0  0  0  0  0  0
    2.2390    0.0490    1.8480 H   0  0  0  0  0  0  0  0  0  0  0  0
    1.4730    2.2350   -0.1950 H   0  0  0  0  0  0  0  0  0  0  0  0
    1.7290    0.5990   -0.7410 H   0  0  0  0  0  0  0  0  0  0  0  0
   -0.5810    1.2450   -0.7080 H   0  0  0  0  0  0  0  0  0  0  0  0
   -0.4730    1.9520    0.8890 H   0  0  0  0  0  0  0  0  0  0  0  0
   -1.9100   -0.0320    0.6910 H   0  0  0  0  0  0  0  0  0  0  0  0
    0.2890   -0.5640    2.6910 H   0  0  0  0  0  0  0  0  0  0  0  0
   -4.3440   -1.0350   -5.0150 C   0  0  0  0  0  0  0  0  0  0  0  0
   -4.2710   -2.6540   -4.1480 S   0  0  0  0  0  0  0  0  0  0  0  0
   -3.0060   -2.5740   -2.8260 C   0  0  0  0  0  0  0  0  0  0  0  0
   -1.6420   -2.4240   -3.4380 C   0  0  0  0  0  0  0  0  0  0  0  0
   -0.5220   -2.3360   -2.4540 C   0  0  2  0  0  0  0  0  0  0  0  0
   -0.6900   -1.1830   -1.5530 N   0  0  0  0  0  0  0  0  0  0  0  0
    0.7370   -2.1740   -3.2450 C   0  0  0  0  0  0  0  0  0  0  0  0
    1.1050   -2.9910   -4.1140 O   0  0  0  0  0  0  0  0  0  0  0  0
    1.5340   -1.0800   -3.0140 O   0  0  0  0  0  0  0  0  0  0  0  0
   -5.3970   -0.6880   -4.9150 H   0  0  0  0  0  0  0  0  0  0  0  0
   -4.0390   -1.1070   -6.0610 H   0  0  0  0  0  0  0  0  0  0  0  0
   -3.6920   -0.2860   -4.5060 H   0  0  0  0  0  0  0  0  0  0  0  0
   -3.0430   -3.5550   -2.3080 H   0  0  0  0  0  0  0  0  0  0  0  0
   -3.2470   -1.8180   -2.0830 H   0  0  0  0  0  0  0  0  0  0  0  0
   -1.4100   -3.2470   -4.1510 H   0  0  0  0  0  0  0  0  0  0  0  0
   -1.6710   -1.4910   -4.0770 H   0  0  0  0  0  0  0  0  0  0  0  0
   -0.3850   -3.2520   -1.8570 H   0  0  0  0  0  0  0  0  0  0  0  0
   -0.8640   -0.2590   -1.9790 H   0  0  0  0  0  0  0  0  0  0  0  0
  1  8  1  0  0  0  0
  1  9  1  0  0  0  0
  1 10  1  0  0  0  0
  2 11  1  6  0  0  0
  2  1  1  0  0  0  0
  3 12  1  0  0  0  0
  3  2  1  0  0  0  0
  4  5  1  0  0  0  0
  4  2  1  0  0  0  0
  4 13  1  1  0  0  0
  5 15  1  0  0  0  0
  6  4  1  0  0  0  0
  7  6  2  0  0  0  0
 14  5  1  0  0  0  0
 16 28  1  0  0  0  0
 16 17  1  0  0  0  0
 17 18  2  0  0  0  0
 17 19  1  0  0  0  0
 18 29  1  0  0  0  0
 19 20  1  0  0  0  0
 20 32  1  0  0  0  0
 20 31  1  0  0  0  0
 21 22  1  0  0  0  0
 21 20  1  0  0  0  0
 22 23  1  0  0  0  0
 22 36  1  0  0  0  0
 23 37  1  6  0  0  0
 23 24  1  0  0  0  0
 24 38  1  0  0  0  0
 24  6  1  0  0  0  0
 25 26  2  0  0  0  0
 25 23  1  0  0  0  0
 27 16  1  0  0  0  0
 30 19  1  0  0  0  0
 33 21  1  0  0  0  0
 34 21  1  0  0  0  0
 35 22  1  0  0  0  0
 39 48  1  0  0  0  0
 39 50  1  0  0  0  0
 39 40  1  0  0  0  0
 40 41  1  0  0  0  0
 41 51  1  0  0  0  0
 41 52  1  0  0  0  0
 42 41  1  0  0  0  0
 42 43  1  0  0  0  0
 43 55  1  1  0  0  0
 43 44  1  0  0  0  0
 44 25  1  0  0  0  0
 45 47  1  0  0  0  0
 45 43  1  0  0  0  0
 46 45  2  0  0  0  0
 49 39  1  0  0  0  0
 53 42  1  0  0  0  0
 54 42  1  0  0  0  0
 56 44  1  0  0  0  0
M  END
$$$$
