TRN.pdb
 OpenBabel07022419113D

 53 52  0  0  1  0  0  0  0  0999 V2000
    3.5320   -1.0990    0.8190 C   0  0  0  0  0  0  0  0  0  0  0  0
    3.2970   -2.5770    0.7750 C   0  0  1  0  0  0  0  0  0  0  0  0
    3.1830   -3.0500    2.0850 O   0  0  0  0  0  0  0  0  0  0  0  0
    1.9800   -2.8390    0.0820 C   0  0  2  0  0  0  0  0  0  0  0  0
    2.0730   -2.3560   -1.2790 N   0  0  0  0  0  0  0  0  0  0  0  0
    0.9210   -2.1270    0.8600 C   0  0  0  0  0  0  0  0  0  0  0  0
    0.8300   -2.4990    2.0780 O   0  0  0  0  0  0  0  0  0  0  0  0
    3.2010   -0.6930    1.7960 H   0  0  0  0  0  0  0  0  0  0  0  0
    2.9340   -0.6220    0.0200 H   0  0  0  0  0  0  0  0  0  0  0  0
    4.6030   -0.8320    0.6130 H   0  0  0  0  0  0  0  0  0  0  0  0
    4.1400   -3.1030    0.2660 H   0  0  0  0  0  0  0  0  0  0  0  0
    2.8430   -3.9760    2.0850 H   0  0  0  0  0  0  0  0  0  0  0  0
    1.7660   -3.9460    0.0610 H   0  0  0  0  0  0  0  0  0  0  0  0
    2.6590   -3.0730   -1.7940 H   0  0  0  0  0  0  0  0  0  0  0  0
    1.1640   -2.3020   -1.7700 H   0  0  0  0  0  0  0  0  0  0  0  0
    3.7500    2.4190    4.4120 N   0  0  0  0  0  0  0  0  0  0  0  0
    2.4320    2.6070    3.9130 C   0  0  0  0  0  0  0  0  0  0  0  0
    1.3740    2.4470    4.6610 N   0  0  0  0  0  0  0  0  0  0  0  0
    2.1840    2.9810    2.5650 N   0  0  0  0  0  0  0  0  0  0  0  0
    0.8720    2.8020    1.9710 C   0  0  0  0  0  0  0  0  0  0  0  0
    0.6420    1.2910    1.8470 C   0  0  0  0  0  0  0  0  0  0  0  0
   -0.6920    0.9910    1.2410 C   0  0  0  0  0  0  0  0  0  0  0  0
   -0.9020   -0.5030    1.1280 C   0  0  2  0  0  0  0  0  0  0  0  0
    0.0910   -1.1330    0.3100 N   0  0  0  0  0  0  0  0  0  0  0  0
   -2.2880   -0.8170    0.6770 C   0  0  0  0  0  0  0  0  0  0  0  0
   -3.2570   -0.3440    1.3120 O   0  0  0  0  0  0  0  0  0  0  0  0
    4.4240    1.7360    4.0040 H   0  0  0  0  0  0  0  0  0  0  0  0
    4.0690    2.9830    5.2210 H   0  0  0  0  0  0  0  0  0  0  0  0
    1.4670    2.1720    5.6660 H   0  0  0  0  0  0  0  0  0  0  0  0
    2.9440    3.3900    1.9830 H   0  0  0  0  0  0  0  0  0  0  0  0
    0.8330    3.2770    0.9720 H   0  0  0  0  0  0  0  0  0  0  0  0
    0.0770    3.2810    2.5720 H   0  0  0  0  0  0  0  0  0  0  0  0
    1.4830    0.8900    1.2650 H   0  0  0  0  0  0  0  0  0  0  0  0
    0.6800    0.9080    2.8980 H   0  0  0  0  0  0  0  0  0  0  0  0
   -0.7380    1.4850    0.2350 H   0  0  0  0  0  0  0  0  0  0  0  0
   -1.4880    1.4580    1.8530 H   0  0  0  0  0  0  0  0  0  0  0  0
   -0.8330   -0.9160    2.1530 H   0  0  0  0  0  0  0  0  0  0  0  0
    0.2050   -0.8680   -0.6790 H   0  0  0  0  0  0  0  0  0  0  0  0
   -3.6330   -1.2890   -4.6430 N   0  0  0  0  0  0  0  0  0  0  0  0
   -3.4550   -1.7630   -3.3220 C   0  0  0  0  0  0  0  0  0  0  0  0
   -2.5340   -2.5880   -3.0950 O   0  0  0  0  0  0  0  0  0  0  0  0
   -4.3020   -1.3340   -2.1900 C   0  0  0  0  0  0  0  0  0  0  0  0
   -3.9310   -1.9320   -0.8770 C   0  0  2  0  0  0  0  0  0  0  0  0
   -2.5970   -1.6280   -0.4400 N   0  0  0  0  0  0  0  0  0  0  0  0
   -4.2510   -3.3660   -0.8200 C   0  0  0  0  0  0  0  0  0  0  0  0
   -5.3980   -3.7310   -1.1860 O   0  0  0  0  0  0  0  0  0  0  0  0
   -3.3750   -4.3500   -0.3880 O   0  0  0  0  0  0  0  0  0  0  0  0
   -2.8490   -0.7890   -5.0890 H   0  0  0  0  0  0  0  0  0  0  0  0
   -4.5490   -1.4660   -5.1060 H   0  0  0  0  0  0  0  0  0  0  0  0
   -4.4170   -0.2320   -2.1290 H   0  0  0  0  0  0  0  0  0  0  0  0
   -5.3410   -1.7090   -2.4300 H   0  0  0  0  0  0  0  0  0  0  0  0
   -4.6140   -1.4310   -0.1220 H   0  0  0  0  0  0  0  0  0  0  0  0
   -1.7910   -2.0240   -0.9700 H   0  0  0  0  0  0  0  0  0  0  0  0
  1  8  1  0  0  0  0
  2 11  1  6  0  0  0
  2  1  1  0  0  0  0
  2  3  1  0  0  0  0
  3 12  1  0  0  0  0
  4 13  1  6  0  0  0
  4  2  1  0  0  0  0
  4  6  1  0  0  0  0
  5  4  1  0  0  0  0
  6  7  2  0  0  0  0
  9  1  1  0  0  0  0
 10  1  1  0  0  0  0
 14  5  1  0  0  0  0
 15  5  1  0  0  0  0
 16 28  1  0  0  0  0
 17 16  1  0  0  0  0
 17 18  2  0  0  0  0
 18 29  1  0  0  0  0
 19 17  1  0  0  0  0
 20 19  1  0  0  0  0
 20 32  1  0  0  0  0
 21 20  1  0  0  0  0
 21 34  1  0  0  0  0
 22 21  1  0  0  0  0
 22 36  1  0  0  0  0
 23 22  1  0  0  0  0
 23 37  1  1  0  0  0
 24  6  1  0  0  0  0
 24 23  1  0  0  0  0
 25 23  1  0  0  0  0
 25 26  2  0  0  0  0
 27 16  1  0  0  0  0
 30 19  1  0  0  0  0
 31 20  1  0  0  0  0
 33 21  1  0  0  0  0
 35 22  1  0  0  0  0
 38 24  1  0  0  0  0
 39 40  1  0  0  0  0
 40 41  2  0  0  0  0
 40 42  1  0  0  0  0
 42 50  1  0  0  0  0
 42 43  1  0  0  0  0
 43 45  1  0  0  0  0
 43 44  1  0  0  0  0
 43 52  1  1  0  0  0
 44 25  1  0  0  0  0
 45 47  1  0  0  0  0
 46 45  2  0  0  0  0
 48 39  1  0  0  0  0
 49 39  1  0  0  0  0
 51 42  1  0  0  0  0
 53 44  1  0  0  0  0
M  END
$$$$
