TRP.pdb
 OpenBabel07022419113D

 53 53  0  0  1  0  0  0  0  0999 V2000
    1.3420   -4.0670    3.6100 C   0  0  0  0  0  0  0  0  0  0  0  0
    2.3370   -3.5250    2.5880 C   0  0  1  0  0  0  0  0  0  0  0  0
    1.9780   -3.8340    1.2980 O   0  0  0  0  0  0  0  0  0  0  0  0
    2.6010   -2.0530    2.8120 C   0  0  2  0  0  0  0  0  0  0  0  0
    2.9670   -1.8600    4.2070 N   0  0  0  0  0  0  0  0  0  0  0  0
    1.4080   -1.2180    2.5340 C   0  0  0  0  0  0  0  0  0  0  0  0
    0.8680   -0.5120    3.4310 O   0  0  0  0  0  0  0  0  0  0  0  0
    1.6390   -5.0810    3.9500 H   0  0  0  0  0  0  0  0  0  0  0  0
    1.4340   -3.3880    4.5010 H   0  0  0  0  0  0  0  0  0  0  0  0
    0.3120   -4.0930    3.2210 H   0  0  0  0  0  0  0  0  0  0  0  0
    3.2990   -4.0500    2.7980 H   0  0  0  0  0  0  0  0  0  0  0  0
    2.7340   -4.0800    0.7150 H   0  0  0  0  0  0  0  0  0  0  0  0
    3.4840   -1.7810    2.2080 H   0  0  0  0  0  0  0  0  0  0  0  0
    2.8370   -0.8390    4.4770 H   0  0  0  0  0  0  0  0  0  0  0  0
    3.9450   -2.1150    4.4020 H   0  0  0  0  0  0  0  0  0  0  0  0
    4.0260    2.2100   -0.6110 N   0  0  0  0  0  0  0  0  0  0  0  0
    3.1570    1.6460   -1.5650 C   0  0  0  0  0  0  0  0  0  0  0  0
    3.5650    0.7020   -2.3260 N   0  0  0  0  0  0  0  0  0  0  0  0
    1.8090    2.0990   -1.7150 N   0  0  0  0  0  0  0  0  0  0  0  0
    0.7710    1.2710   -2.2940 C   0  0  0  0  0  0  0  0  0  0  0  0
    0.4460    0.0940   -1.3640 C   0  0  0  0  0  0  0  0  0  0  0  0
   -0.0230    0.7100   -0.0650 C   0  0  0  0  0  0  0  0  0  0  0  0
   -0.3830   -0.3300    0.9700 C   0  0  2  0  0  0  0  0  0  0  0  0
    0.8020   -1.1600    1.2460 N   0  0  0  0  0  0  0  0  0  0  0  0
   -1.5240   -1.1830    0.5500 C   0  0  0  0  0  0  0  0  0  0  0  0
   -1.2180   -2.3660    0.2570 O   0  0  0  0  0  0  0  0  0  0  0  0
    3.6980    2.5380    0.3370 H   0  0  0  0  0  0  0  0  0  0  0  0
    5.0410    2.3130   -0.8450 H   0  0  0  0  0  0  0  0  0  0  0  0
    4.5420    0.3550   -2.2350 H   0  0  0  0  0  0  0  0  0  0  0  0
    1.6000    3.0650   -1.3860 H   0  0  0  0  0  0  0  0  0  0  0  0
   -0.1540    1.8640   -2.3690 H   0  0  0  0  0  0  0  0  0  0  0  0
    1.0410    0.9040   -3.3000 H   0  0  0  0  0  0  0  0  0  0  0  0
    1.3580   -0.4870   -1.2810 H   0  0  0  0  0  0  0  0  0  0  0  0
   -0.3500   -0.4850   -1.8680 H   0  0  0  0  0  0  0  0  0  0  0  0
   -0.8510    1.3750   -0.3430 H   0  0  0  0  0  0  0  0  0  0  0  0
    0.7870    1.3540    0.3290 H   0  0  0  0  0  0  0  0  0  0  0  0
   -0.6480    0.1740    1.8970 H   0  0  0  0  0  0  0  0  0  0  0  0
    1.2450   -1.7420    0.5000 H   0  0  0  0  0  0  0  0  0  0  0  0
   -2.8540   -0.7620    0.4680 N   0  0  0  0  0  0  0  0  0  0  0  0
   -3.2490    0.6130    0.9040 C   0  0  0  0  0  0  0  0  0  0  0  0
   -3.9760    1.0790   -0.3340 C   0  0  0  0  0  0  0  0  0  0  0  0
   -4.4440   -0.1930   -1.0360 C   0  0  0  0  0  0  0  0  0  0  0  0
   -4.1170   -1.2540    0.0400 C   0  0  1  0  0  0  0  0  0  0  0  0
   -4.2470   -2.5930   -0.4740 C   0  0  0  0  0  0  0  0  0  0  0  0
   -3.2900   -3.3720   -0.6050 O   0  0  0  0  0  0  0  0  0  0  0  0
   -5.4930   -3.1350   -0.8760 O   0  0  0  0  0  0  0  0  0  0  0  0
   -4.0030    0.4110    1.7330 H   0  0  0  0  0  0  0  0  0  0  0  0
   -2.4430    1.2070    1.2660 H   0  0  0  0  0  0  0  0  0  0  0  0
   -3.3070    1.6870   -0.9630 H   0  0  0  0  0  0  0  0  0  0  0  0
   -4.8760    1.6600    0.0010 H   0  0  0  0  0  0  0  0  0  0  0  0
   -5.5150   -0.1660   -1.2410 H   0  0  0  0  0  0  0  0  0  0  0  0
   -3.8320   -0.3340   -1.9280 H   0  0  0  0  0  0  0  0  0  0  0  0
   -4.8690   -1.0290    0.8610 H   0  0  0  0  0  0  0  0  0  0  0  0
  1  8  1  0  0  0  0
  1  9  1  0  0  0  0
  2 11  1  1  0  0  0
  2  4  1  0  0  0  0
  2  1  1  0  0  0  0
  3  2  1  0  0  0  0
  4 13  1  6  0  0  0
  4  5  1  0  0  0  0
  5 15  1  0  0  0  0
  5 14  1  0  0  0  0
  6  4  1  0  0  0  0
  6  7  2  0  0  0  0
 10  1  1  0  0  0  0
 12  3  1  0  0  0  0
 16 27  1  0  0  0  0
 17 16  1  0  0  0  0
 18 29  1  0  0  0  0
 18 17  2  0  0  0  0
 19 17  1  0  0  0  0
 19 30  1  0  0  0  0
 20 19  1  0  0  0  0
 20 21  1  0  0  0  0
 21 33  1  0  0  0  0
 21 22  1  0  0  0  0
 22 36  1  0  0  0  0
 22 23  1  0  0  0  0
 23 24  1  0  0  0  0
 23 37  1  1  0  0  0
 24  6  1  0  0  0  0
 25 23  1  0  0  0  0
 26 25  2  0  0  0  0
 28 16  1  0  0  0  0
 31 20  1  0  0  0  0
 32 20  1  0  0  0  0
 34 21  1  0  0  0  0
 35 22  1  0  0  0  0
 38 24  1  0  0  0  0
 39 25  1  0  0  0  0
 39 40  1  0  0  0  0
 40 48  1  0  0  0  0
 40 47  1  0  0  0  0
 41 50  1  0  0  0  0
 41 40  1  0  0  0  0
 42 41  1  0  0  0  0
 42 43  1  0  0  0  0
 43 39  1  0  0  0  0
 43 53  1  1  0  0  0
 44 43  1  0  0  0  0
 45 44  1  0  0  0  0
 46 44  2  0  0  0  0
 49 41  1  0  0  0  0
 51 42  1  0  0  0  0
 52 42  1  0  0  0  0
M  END
$$$$
