TRR.pdb
 OpenBabel07022419113D

 62 61  0  0  1  0  0  0  0  0999 V2000
    2.3030   -3.4560    2.7460 C   0  0  0  0  0  0  0  0  0  0  0  0
    3.1600   -2.3740    3.2950 C   0  0  1  0  0  0  0  0  0  0  0  0
    4.2590   -3.0290    3.9250 O   0  0  0  0  0  0  0  0  0  0  0  0
    3.7810   -1.4400    2.2920 C   0  0  2  0  0  0  0  0  0  0  0  0
    4.6650   -0.5760    3.1310 N   0  0  0  0  0  0  0  0  0  0  0  0
    2.8580   -0.5470    1.5860 C   0  0  0  0  0  0  0  0  0  0  0  0
    2.8540    0.6910    1.9300 O   0  0  0  0  0  0  0  0  0  0  0  0
    1.2330   -3.3480    2.9980 H   0  0  0  0  0  0  0  0  0  0  0  0
    2.4010   -3.6390    1.6640 H   0  0  0  0  0  0  0  0  0  0  0  0
    2.5740   -4.4610    3.2080 H   0  0  0  0  0  0  0  0  0  0  0  0
    2.6260   -1.8310    4.0940 H   0  0  0  0  0  0  0  0  0  0  0  0
    4.8110   -3.4820    3.2370 H   0  0  0  0  0  0  0  0  0  0  0  0
    4.4470   -1.9560    1.6020 H   0  0  0  0  0  0  0  0  0  0  0  0
    4.0690   -0.1430    3.8890 H   0  0  0  0  0  0  0  0  0  0  0  0
    5.2610   -1.2810    3.6530 H   0  0  0  0  0  0  0  0  0  0  0  0
    0.9200    5.1570    0.2830 N   0  0  0  0  0  0  0  0  0  0  0  0
    0.8560    4.6100   -1.0150 C   0  0  0  0  0  0  0  0  0  0  0  0
    1.0680    5.3350   -2.0330 N   0  0  0  0  0  0  0  0  0  0  0  0
    0.5440    3.2000   -1.1510 N   0  0  0  0  0  0  0  0  0  0  0  0
    0.8810    2.5090   -2.3590 C   0  0  0  0  0  0  0  0  0  0  0  0
    0.6210    1.0720   -2.3930 C   0  0  0  0  0  0  0  0  0  0  0  0
    1.3000    0.1290   -1.5050 C   0  0  0  0  0  0  0  0  0  0  0  0
    1.1230    0.1840   -0.0320 C   0  0  2  0  0  0  0  0  0  0  0  0
    1.9640   -0.8890    0.5550 N   0  0  0  0  0  0  0  0  0  0  0  0
   -0.2840   -0.2310    0.3350 C   0  0  0  0  0  0  0  0  0  0  0  0
   -1.2330    0.5150   -0.0320 O   0  0  0  0  0  0  0  0  0  0  0  0
    1.3230    4.6720    1.1180 H   0  0  0  0  0  0  0  0  0  0  0  0
    0.5430    6.1110    0.4390 H   0  0  0  0  0  0  0  0  0  0  0  0
    1.2970    6.3490   -2.0150 H   0  0  0  0  0  0  0  0  0  0  0  0
    0.0700    2.8000   -0.3440 H   0  0  0  0  0  0  0  0  0  0  0  0
    0.2110    2.9910   -3.1530 H   0  0  0  0  0  0  0  0  0  0  0  0
    1.9050    2.7970   -2.7270 H   0  0  0  0  0  0  0  0  0  0  0  0
   -0.4860    0.8630   -2.3300 H   0  0  0  0  0  0  0  0  0  0  0  0
    0.8480    0.7120   -3.4590 H   0  0  0  0  0  0  0  0  0  0  0  0
    0.9370   -0.9090   -1.8280 H   0  0  0  0  0  0  0  0  0  0  0  0
    2.4130    0.0330   -1.7320 H   0  0  0  0  0  0  0  0  0  0  0  0
    1.3110    1.1270    0.4650 H   0  0  0  0  0  0  0  0  0  0  0  0
    1.9050   -1.8570    0.2200 H   0  0  0  0  0  0  0  0  0  0  0  0
   -6.9570   -2.3270   -1.1720 N   0  0  0  0  0  0  0  0  0  0  0  0
   -5.6260   -1.8750   -1.3910 C   0  0  0  0  0  0  0  0  0  0  0  0
   -5.3730   -0.7860   -2.0490 N   0  0  0  0  0  0  0  0  0  0  0  0
   -4.5510   -2.6450   -0.8700 N   0  0  0  0  0  0  0  0  0  0  0  0
   -3.1800   -2.3560   -1.2830 C   0  0  0  0  0  0  0  0  0  0  0  0
   -2.2090   -3.3010   -0.5950 C   0  0  0  0  0  0  0  0  0  0  0  0
   -2.2670   -3.1760    0.8880 C   0  0  0  0  0  0  0  0  0  0  0  0
   -1.9160   -1.8090    1.4200 C   0  0  2  0  0  0  0  0  0  0  0  0
   -0.5740   -1.4110    1.0670 N   0  0  0  0  0  0  0  0  0  0  0  0
   -2.1220   -1.8530    2.8810 C   0  0  0  0  0  0  0  0  0  0  0  0
   -3.2280   -2.1740    3.3480 O   0  0  0  0  0  0  0  0  0  0  0  0
   -1.0810   -1.5370    3.7230 O   0  0  0  0  0  0  0  0  0  0  0  0
   -7.4670   -1.9310   -0.3550 H   0  0  0  0  0  0  0  0  0  0  0  0
   -7.4110   -3.0260   -1.7970 H   0  0  0  0  0  0  0  0  0  0  0  0
   -6.1090   -0.1880   -2.4490 H   0  0  0  0  0  0  0  0  0  0  0  0
   -4.7590   -3.4220   -0.1860 H   0  0  0  0  0  0  0  0  0  0  0  0
   -2.9790   -1.3010   -1.0790 H   0  0  0  0  0  0  0  0  0  0  0  0
   -3.1600   -2.4860   -2.3810 H   0  0  0  0  0  0  0  0  0  0  0  0
   -1.1780   -3.1270   -0.9920 H   0  0  0  0  0  0  0  0  0  0  0  0
   -2.4830   -4.3300   -0.9050 H   0  0  0  0  0  0  0  0  0  0  0  0
   -1.6150   -3.9610    1.3480 H   0  0  0  0  0  0  0  0  0  0  0  0
   -3.2940   -3.4260    1.2250 H   0  0  0  0  0  0  0  0  0  0  0  0
   -2.6550   -1.0750    1.0230 H   0  0  0  0  0  0  0  0  0  0  0  0
    0.2290   -2.0020    1.3500 H   0  0  0  0  0  0  0  0  0  0  0  0
  1  8  1  0  0  0  0
  1 10  1  0  0  0  0
  1  2  1  0  0  0  0
  2  3  1  0  0  0  0
  2 11  1  1  0  0  0
  4 13  1  6  0  0  0
  4  5  1  0  0  0  0
  4  2  1  0  0  0  0
  5 15  1  0  0  0  0
  5 14  1  0  0  0  0
  6  7  2  0  0  0  0
  6  4  1  0  0  0  0
  9  1  1  0  0  0  0
 12  3  1  0  0  0  0
 16 28  1  0  0  0  0
 16 27  1  0  0  0  0
 17 16  1  0  0  0  0
 18 29  1  0  0  0  0
 18 17  2  0  0  0  0
 19 17  1  0  0  0  0
 19 30  1  0  0  0  0
 20 19  1  0  0  0  0
 21 20  1  0  0  0  0
 21 33  1  0  0  0  0
 21 22  1  0  0  0  0
 22 23  1  0  0  0  0
 23 25  1  0  0  0  0
 23 37  1  1  0  0  0
 23 24  1  0  0  0  0
 24  6  1  0  0  0  0
 25 47  1  0  0  0  0
 26 25  2  0  0  0  0
 31 20  1  0  0  0  0
 32 20  1  0  0  0  0
 34 21  1  0  0  0  0
 35 22  1  0  0  0  0
 36 22  1  0  0  0  0
 38 24  1  0  0  0  0
 39 51  1  0  0  0  0
 40 39  1  0  0  0  0
 40 42  1  0  0  0  0
 41 40  2  0  0  0  0
 42 54  1  0  0  0  0
 43 55  1  0  0  0  0
 43 42  1  0  0  0  0
 43 44  1  0  0  0  0
 44 45  1  0  0  0  0
 45 60  1  0  0  0  0
 45 59  1  0  0  0  0
 45 46  1  0  0  0  0
 46 61  1  6  0  0  0
 46 48  1  0  0  0  0
 47 62  1  0  0  0  0
 47 46  1  0  0  0  0
 48 49  2  0  0  0  0
 48 50  1  0  0  0  0
 52 39  1  0  0  0  0
 53 41  1  0  0  0  0
 56 43  1  0  0  0  0
 57 44  1  0  0  0  0
 58 44  1  0  0  0  0
M  END
$$$$
