TRS.pdb
 OpenBabel07022419113D

 50 49  0  0  1  0  0  0  0  0999 V2000
    0.4340    1.2780    5.9960 C   0  0  0  0  0  0  0  0  0  0  0  0
   -0.1160    0.3010    4.9750 C   0  0  1  0  0  0  0  0  0  0  0  0
   -1.3060    0.7610    4.4440 O   0  0  0  0  0  0  0  0  0  0  0  0
    0.9240    0.0920    3.9080 C   0  0  2  0  0  0  0  0  0  0  0  0
    1.1570    1.3600    3.2490 N   0  0  0  0  0  0  0  0  0  0  0  0
    0.5340   -0.8910    2.8850 C   0  0  0  0  0  0  0  0  0  0  0  0
    0.3030   -2.0550    3.2530 O   0  0  0  0  0  0  0  0  0  0  0  0
    0.6670    2.2680    5.5520 H   0  0  0  0  0  0  0  0  0  0  0  0
   -0.3830    1.4890    6.7470 H   0  0  0  0  0  0  0  0  0  0  0  0
    1.2610    0.8510    6.5780 H   0  0  0  0  0  0  0  0  0  0  0  0
   -0.3240   -0.6400    5.5290 H   0  0  0  0  0  0  0  0  0  0  0  0
   -1.8160    1.2000    5.1700 H   0  0  0  0  0  0  0  0  0  0  0  0
    1.8760   -0.1770    4.4310 H   0  0  0  0  0  0  0  0  0  0  0  0
    2.1000    1.7600    3.4790 H   0  0  0  0  0  0  0  0  0  0  0  0
    0.3840    2.0420    3.3920 H   0  0  0  0  0  0  0  0  0  0  0  0
   -0.1350    2.9000    0.1330 N   0  0  0  0  0  0  0  0  0  0  0  0
   -1.2240    2.0690   -0.2000 C   0  0  0  0  0  0  0  0  0  0  0  0
   -1.7410    2.0240   -1.3870 N   0  0  0  0  0  0  0  0  0  0  0  0
   -1.8170    1.2210    0.7760 N   0  0  0  0  0  0  0  0  0  0  0  0
   -2.7750    0.2260    0.5340 C   0  0  0  0  0  0  0  0  0  0  0  0
   -2.4100   -0.9950   -0.2310 C   0  0  0  0  0  0  0  0  0  0  0  0
   -1.3960   -1.8820    0.2900 C   0  0  0  0  0  0  0  0  0  0  0  0
    0.0130   -1.6410    0.5510 C   0  0  2  0  0  0  0  0  0  0  0  0
    0.3950   -0.6370    1.4980 N   0  0  0  0  0  0  0  0  0  0  0  0
    0.9830   -1.8020   -0.5550 C   0  0  0  0  0  0  0  0  0  0  0  0
    2.0310   -1.0900   -0.6120 O   0  0  0  0  0  0  0  0  0  0  0  0
    0.0870    3.0970    1.1190 H   0  0  0  0  0  0  0  0  0  0  0  0
    0.4410    3.3130   -0.6140 H   0  0  0  0  0  0  0  0  0  0  0  0
   -1.3410    2.6250   -2.1300 H   0  0  0  0  0  0  0  0  0  0  0  0
   -1.4830    1.3880    1.7700 H   0  0  0  0  0  0  0  0  0  0  0  0
   -3.2180   -0.1360    1.5210 H   0  0  0  0  0  0  0  0  0  0  0  0
   -3.6760    0.7590    0.0880 H   0  0  0  0  0  0  0  0  0  0  0  0
   -3.3990   -1.5880   -0.2450 H   0  0  0  0  0  0  0  0  0  0  0  0
   -2.3570   -0.8020   -1.3430 H   0  0  0  0  0  0  0  0  0  0  0  0
   -1.5700   -2.9080   -0.2160 H   0  0  0  0  0  0  0  0  0  0  0  0
   -1.8200   -2.1890    1.3300 H   0  0  0  0  0  0  0  0  0  0  0  0
    0.2830   -2.6070    1.1380 H   0  0  0  0  0  0  0  0  0  0  0  0
    0.6360    0.3740    1.2440 H   0  0  0  0  0  0  0  0  0  0  0  0
    3.3860   -4.2470   -3.7430 O   0  0  0  0  0  0  0  0  0  0  0  0
    2.4910   -4.2190   -2.6780 C   0  0  0  0  0  0  0  0  0  0  0  0
    1.8050   -2.8670   -2.6840 C   0  0  2  0  0  0  0  0  0  0  0  0
    0.8500   -2.7260   -1.6180 N   0  0  0  0  0  0  0  0  0  0  0  0
    1.1900   -2.6610   -3.9950 C   0  0  0  0  0  0  0  0  0  0  0  0
    1.8150   -2.7320   -5.0830 O   0  0  0  0  0  0  0  0  0  0  0  0
   -0.1630   -2.3670   -4.0760 O   0  0  0  0  0  0  0  0  0  0  0  0
    3.8150   -3.3750   -3.8990 H   0  0  0  0  0  0  0  0  0  0  0  0
    3.1100   -4.3520   -1.7510 H   0  0  0  0  0  0  0  0  0  0  0  0
    1.7960   -5.0550   -2.7570 H   0  0  0  0  0  0  0  0  0  0  0  0
    2.6190   -2.1180   -2.4860 H   0  0  0  0  0  0  0  0  0  0  0  0
   -0.0010   -3.3250   -1.6000 H   0  0  0  0  0  0  0  0  0  0  0  0
  1 10  1  0  0  0  0
  1  9  1  0  0  0  0
  2 11  1  1  0  0  0
  2  1  1  0  0  0  0
  3  2  1  0  0  0  0
  3 12  1  0  0  0  0
  4 13  1  1  0  0  0
  4  2  1  0  0  0  0
  5 15  1  0  0  0  0
  5 14  1  0  0  0  0
  5  4  1  0  0  0  0
  6  7  2  0  0  0  0
  6  4  1  0  0  0  0
  8  1  1  0  0  0  0
 16 27  1  0  0  0  0
 17 16  1  0  0  0  0
 17 19  1  0  0  0  0
 18 17  2  0  0  0  0
 19 30  1  0  0  0  0
 20 19  1  0  0  0  0
 20 31  1  0  0  0  0
 21 22  1  0  0  0  0
 21 20  1  0  0  0  0
 22 23  1  0  0  0  0
 22 36  1  0  0  0  0
 23 37  1  1  0  0  0
 23 24  1  0  0  0  0
 24  6  1  0  0  0  0
 25 23  1  0  0  0  0
 26 25  2  0  0  0  0
 28 16  1  0  0  0  0
 29 18  1  0  0  0  0
 32 20  1  0  0  0  0
 33 21  1  0  0  0  0
 34 21  1  0  0  0  0
 35 22  1  0  0  0  0
 38 24  1  0  0  0  0
 39 40  1  0  0  0  0
 40 47  1  0  0  0  0
 41 40  1  0  0  0  0
 41 49  1  1  0  0  0
 41 42  1  0  0  0  0
 42 50  1  0  0  0  0
 42 25  1  0  0  0  0
 43 41  1  0  0  0  0
 44 43  2  0  0  0  0
 45 43  1  0  0  0  0
 46 39  1  0  0  0  0
 48 40  1  0  0  0  0
M  END
$$$$
