TRT.pdb
 OpenBabel07022419113D

 53 52  0  0  1  0  0  0  0  0999 V2000
    0.8940   -4.2290    2.2740 C   0  0  0  0  0  0  0  0  0  0  0  0
    1.7990   -3.6280    1.2220 C   0  0  1  0  0  0  0  0  0  0  0  0
    1.1090   -3.4160    0.0400 O   0  0  0  0  0  0  0  0  0  0  0  0
    2.4900   -2.3840    1.7210 C   0  0  2  0  0  0  0  0  0  0  0  0
    3.1960   -2.7060    2.9720 N   0  0  0  0  0  0  0  0  0  0  0  0
    1.5990   -1.2550    1.9980 C   0  0  0  0  0  0  0  0  0  0  0  0
    1.5410   -0.7420    3.1570 O   0  0  0  0  0  0  0  0  0  0  0  0
    0.8320   -5.3160    2.0650 H   0  0  0  0  0  0  0  0  0  0  0  0
    1.3590   -4.0090    3.2650 H   0  0  0  0  0  0  0  0  0  0  0  0
   -0.1240   -3.8190    2.2030 H   0  0  0  0  0  0  0  0  0  0  0  0
    2.5850   -4.3780    1.0060 H   0  0  0  0  0  0  0  0  0  0  0  0
    0.8820   -4.2750   -0.3740 H   0  0  0  0  0  0  0  0  0  0  0  0
    3.3010   -2.1560    0.9870 H   0  0  0  0  0  0  0  0  0  0  0  0
    3.8670   -3.4660    2.8130 H   0  0  0  0  0  0  0  0  0  0  0  0
    3.6440   -1.8250    3.3170 H   0  0  0  0  0  0  0  0  0  0  0  0
    4.3700    2.9030   -0.3910 N   0  0  0  0  0  0  0  0  0  0  0  0
    3.1660    2.8500   -1.1470 C   0  0  0  0  0  0  0  0  0  0  0  0
    3.1240    2.2030   -2.2490 N   0  0  0  0  0  0  0  0  0  0  0  0
    1.9830    3.5060   -0.7060 N   0  0  0  0  0  0  0  0  0  0  0  0
    0.6610    3.1730   -1.2410 C   0  0  0  0  0  0  0  0  0  0  0  0
    0.2640    1.7600   -0.7950 C   0  0  0  0  0  0  0  0  0  0  0  0
    0.2450    1.7710    0.6920 C   0  0  0  0  0  0  0  0  0  0  0  0
   -0.1180    0.4840    1.3510 C   0  0  2  0  0  0  0  0  0  0  0  0
    0.7360   -0.6190    1.0620 N   0  0  0  0  0  0  0  0  0  0  0  0
   -1.5220    0.0880    1.1810 C   0  0  0  0  0  0  0  0  0  0  0  0
   -2.4990    0.8610    1.3670 O   0  0  0  0  0  0  0  0  0  0  0  0
    5.0970    3.6280   -0.5540 H   0  0  0  0  0  0  0  0  0  0  0  0
    4.5390    2.1880    0.3620 H   0  0  0  0  0  0  0  0  0  0  0  0
    3.9660    1.7190   -2.5920 H   0  0  0  0  0  0  0  0  0  0  0  0
    2.1060    4.2460    0.0290 H   0  0  0  0  0  0  0  0  0  0  0  0
   -0.0630    3.8810   -0.7970 H   0  0  0  0  0  0  0  0  0  0  0  0
    0.6600    3.2760   -2.3370 H   0  0  0  0  0  0  0  0  0  0  0  0
    0.9470    1.0630   -1.2700 H   0  0  0  0  0  0  0  0  0  0  0  0
   -0.7760    1.6230   -1.1660 H   0  0  0  0  0  0  0  0  0  0  0  0
   -0.5190    2.5320    0.9800 H   0  0  0  0  0  0  0  0  0  0  0  0
    1.1910    2.1440    1.1490 H   0  0  0  0  0  0  0  0  0  0  0  0
    0.0030    0.6810    2.4640 H   0  0  0  0  0  0  0  0  0  0  0  0
    0.7400   -1.0020    0.0920 H   0  0  0  0  0  0  0  0  0  0  0  0
   -5.0140   -2.3270   -0.9660 C   0  0  0  0  0  0  0  0  0  0  0  0
   -3.5320   -2.0480   -0.8150 C   0  0  1  0  0  0  0  0  0  0  0  0
   -3.2510   -0.9460   -1.6180 O   0  0  0  0  0  0  0  0  0  0  0  0
   -3.2490   -1.6370    0.6130 C   0  0  2  0  0  0  0  0  0  0  0  0
   -1.8600   -1.2350    0.7850 N   0  0  0  0  0  0  0  0  0  0  0  0
   -3.6090   -2.7070    1.5890 C   0  0  0  0  0  0  0  0  0  0  0  0
   -2.7640   -3.1440    2.4230 O   0  0  0  0  0  0  0  0  0  0  0  0
   -4.8690   -3.2780    1.6430 O   0  0  0  0  0  0  0  0  0  0  0  0
   -5.5830   -1.9070   -0.1110 H   0  0  0  0  0  0  0  0  0  0  0  0
   -5.4010   -1.9130   -1.9190 H   0  0  0  0  0  0  0  0  0  0  0  0
   -5.1880   -3.4390   -0.9450 H   0  0  0  0  0  0  0  0  0  0  0  0
   -2.9790   -2.9550   -1.0810 H   0  0  0  0  0  0  0  0  0  0  0  0
   -4.0770   -0.3870   -1.7260 H   0  0  0  0  0  0  0  0  0  0  0  0
   -3.9000   -0.7660    0.8330 H   0  0  0  0  0  0  0  0  0  0  0  0
   -1.1190   -1.9450    0.6090 H   0  0  0  0  0  0  0  0  0  0  0  0
  1  9  1  0  0  0  0
  2 11  1  6  0  0  0
  2  4  1  0  0  0  0
  2  1  1  0  0  0  0
  3  2  1  0  0  0  0
  4 13  1  6  0  0  0
  4  6  1  0  0  0  0
  4  5  1  0  0  0  0
  5 15  1  0  0  0  0
  6  7  2  0  0  0  0
  8  1  1  0  0  0  0
 10  1  1  0  0  0  0
 12  3  1  0  0  0  0
 14  5  1  0  0  0  0
 16 28  1  0  0  0  0
 17 19  1  0  0  0  0
 17 16  1  0  0  0  0
 18 17  2  0  0  0  0
 19 30  1  0  0  0  0
 20 31  1  0  0  0  0
 20 21  1  0  0  0  0
 20 19  1  0  0  0  0
 21 22  1  0  0  0  0
 22 35  1  0  0  0  0
 22 36  1  0  0  0  0
 22 23  1  0  0  0  0
 23 37  1  1  0  0  0
 24 23  1  0  0  0  0
 24  6  1  0  0  0  0
 25 23  1  0  0  0  0
 25 26  2  0  0  0  0
 27 16  1  0  0  0  0
 29 18  1  0  0  0  0
 32 20  1  0  0  0  0
 33 21  1  0  0  0  0
 34 21  1  0  0  0  0
 38 24  1  0  0  0  0
 39 49  1  0  0  0  0
 39 40  1  0  0  0  0
 39 47  1  0  0  0  0
 40 50  1  6  0  0  0
 40 42  1  0  0  0  0
 41 40  1  0  0  0  0
 42 43  1  0  0  0  0
 42 52  1  1  0  0  0
 42 44  1  0  0  0  0
 43 25  1  0  0  0  0
 44 46  2  0  0  0  0
 44 45  1  0  0  0  0
 48 39  1  0  0  0  0
 51 41  1  0  0  0  0
 53 43  1  0  0  0  0
M  END
$$$$
