TRV.pdb
 OpenBabel07022419113D

 55 54  0  0  1  0  0  0  0  0999 V2000
    3.8600   -2.6480    1.2790 C   0  0  0  0  0  0  0  0  0  0  0  0
    2.6490   -3.2240    0.6430 C   0  0  1  0  0  0  0  0  0  0  0  0
    1.8520   -3.8870    1.5800 O   0  0  0  0  0  0  0  0  0  0  0  0
    1.7900   -2.3020   -0.1400 C   0  0  2  0  0  0  0  0  0  0  0  0
    2.4470   -1.5220   -1.1460 N   0  0  0  0  0  0  0  0  0  0  0  0
    0.8570   -1.4560    0.6230 C   0  0  0  0  0  0  0  0  0  0  0  0
    0.4090   -1.8530    1.7220 O   0  0  0  0  0  0  0  0  0  0  0  0
    4.7470   -3.2990    1.0140 H   0  0  0  0  0  0  0  0  0  0  0  0
    4.1120   -1.6560    0.9060 H   0  0  0  0  0  0  0  0  0  0  0  0
    3.8350   -2.7260    2.4060 H   0  0  0  0  0  0  0  0  0  0  0  0
    2.9850   -4.0260   -0.0710 H   0  0  0  0  0  0  0  0  0  0  0  0
    2.1380   -3.7000    2.5030 H   0  0  0  0  0  0  0  0  0  0  0  0
    1.1230   -3.0190   -0.7660 H   0  0  0  0  0  0  0  0  0  0  0  0
    3.1260   -2.1360   -1.6520 H   0  0  0  0  0  0  0  0  0  0  0  0
    1.7310   -1.2310   -1.8460 H   0  0  0  0  0  0  0  0  0  0  0  0
    3.5080   -0.1510    3.3770 N   0  0  0  0  0  0  0  0  0  0  0  0
    2.8060    0.7980    2.5860 C   0  0  0  0  0  0  0  0  0  0  0  0
    3.2840    1.1020    1.4350 N   0  0  0  0  0  0  0  0  0  0  0  0
    1.5980    1.4130    3.0800 N   0  0  0  0  0  0  0  0  0  0  0  0
    1.2250    2.7060    2.5880 C   0  0  0  0  0  0  0  0  0  0  0  0
    0.7730    2.7780    1.1750 C   0  0  0  0  0  0  0  0  0  0  0  0
   -0.4530    2.0360    0.8130 C   0  0  0  0  0  0  0  0  0  0  0  0
   -0.5050    0.5750    0.9430 C   0  0  2  0  0  0  0  0  0  0  0  0
    0.4300   -0.1920    0.1550 N   0  0  0  0  0  0  0  0  0  0  0  0
   -1.9130    0.0640    0.6680 C   0  0  0  0  0  0  0  0  0  0  0  0
   -2.8670    0.6130    1.2620 O   0  0  0  0  0  0  0  0  0  0  0  0
    4.5620   -0.2300    3.2760 H   0  0  0  0  0  0  0  0  0  0  0  0
    3.0010   -0.7710    4.0540 H   0  0  0  0  0  0  0  0  0  0  0  0
    4.1510    0.6990    1.0430 H   0  0  0  0  0  0  0  0  0  0  0  0
    1.0840    0.8470    3.7820 H   0  0  0  0  0  0  0  0  0  0  0  0
    0.4300    3.0770    3.3070 H   0  0  0  0  0  0  0  0  0  0  0  0
    2.1060    3.3890    2.7790 H   0  0  0  0  0  0  0  0  0  0  0  0
    1.6540    2.5240    0.5340 H   0  0  0  0  0  0  0  0  0  0  0  0
    0.6340    3.8900    0.9560 H   0  0  0  0  0  0  0  0  0  0  0  0
   -0.7630    2.4000   -0.2100 H   0  0  0  0  0  0  0  0  0  0  0  0
   -1.2820    2.5010    1.4560 H   0  0  0  0  0  0  0  0  0  0  0  0
   -0.3630    0.2700    1.9970 H   0  0  0  0  0  0  0  0  0  0  0  0
    0.7810    0.2130   -0.7680 H   0  0  0  0  0  0  0  0  0  0  0  0
   -5.1210   -1.9570   -2.3170 C   0  0  0  0  0  0  0  0  0  0  0  0
   -3.7490   -1.4500   -1.9970 C   0  0  0  0  0  0  0  0  0  0  0  0
   -3.5370   -0.0260   -2.4650 C   0  0  0  0  0  0  0  0  0  0  0  0
   -3.5200   -1.4880   -0.4880 C   0  0  2  0  0  0  0  0  0  0  0  0
   -2.1870   -0.9910   -0.2170 N   0  0  0  0  0  0  0  0  0  0  0  0
   -3.6310   -2.9380   -0.0990 C   0  0  0  0  0  0  0  0  0  0  0  0
   -4.7140   -3.5300   -0.2600 O   0  0  0  0  0  0  0  0  0  0  0  0
   -2.5660   -3.6470    0.4380 O   0  0  0  0  0  0  0  0  0  0  0  0
   -5.8240   -1.8060   -1.4790 H   0  0  0  0  0  0  0  0  0  0  0  0
   -5.4620   -1.4830   -3.2600 H   0  0  0  0  0  0  0  0  0  0  0  0
   -5.0530   -3.0450   -2.5170 H   0  0  0  0  0  0  0  0  0  0  0  0
   -3.0050   -2.1440   -2.4360 H   0  0  0  0  0  0  0  0  0  0  0  0
   -3.9420    0.7060   -1.7530 H   0  0  0  0  0  0  0  0  0  0  0  0
   -2.4320    0.1300   -2.5040 H   0  0  0  0  0  0  0  0  0  0  0  0
   -4.0150    0.0610   -3.4620 H   0  0  0  0  0  0  0  0  0  0  0  0
   -4.3050   -0.9610    0.0550 H   0  0  0  0  0  0  0  0  0  0  0  0
   -1.3970   -1.4480   -0.7110 H   0  0  0  0  0  0  0  0  0  0  0  0
  1 10  1  0  0  0  0
  2 11  1  6  0  0  0
  2  1  1  0  0  0  0
  2  3  1  0  0  0  0
  3 12  1  0  0  0  0
  4 13  1  6  0  0  0
  4  6  1  0  0  0  0
  4  2  1  0  0  0  0
  5  4  1  0  0  0  0
  6  7  2  0  0  0  0
  8  1  1  0  0  0  0
  9  1  1  0  0  0  0
 14  5  1  0  0  0  0
 15  5  1  0  0  0  0
 16 28  1  0  0  0  0
 17 19  1  0  0  0  0
 17 16  1  0  0  0  0
 18 17  2  0  0  0  0
 19 30  1  0  0  0  0
 20 32  1  0  0  0  0
 20 19  1  0  0  0  0
 20 31  1  0  0  0  0
 21 20  1  0  0  0  0
 22 23  1  0  0  0  0
 22 21  1  0  0  0  0
 22 36  1  0  0  0  0
 23 37  1  1  0  0  0
 24  6  1  0  0  0  0
 24 23  1  0  0  0  0
 25 23  1  0  0  0  0
 25 26  2  0  0  0  0
 27 16  1  0  0  0  0
 29 18  1  0  0  0  0
 33 21  1  0  0  0  0
 34 21  1  0  0  0  0
 35 22  1  0  0  0  0
 38 24  1  0  0  0  0
 39 40  1  0  0  0  0
 39 47  1  0  0  0  0
 40 42  1  0  0  0  0
 41 40  1  0  0  0  0
 41 51  1  0  0  0  0
 42 43  1  0  0  0  0
 42 44  1  0  0  0  0
 42 54  1  1  0  0  0
 43 25  1  0  0  0  0
 44 46  1  0  0  0  0
 45 44  2  0  0  0  0
 48 39  1  0  0  0  0
 49 39  1  0  0  0  0
 50 40  1  0  0  0  0
 52 41  1  0  0  0  0
 53 41  1  0  0  0  0
 55 43  1  0  0  0  0
M  END
$$$$
