TRW.pdb
 OpenBabel07022419113D

 63 64  0  0  1  0  0  0  0  0999 V2000
    0.4410   -0.0180    5.4070 C   0  0  0  0  0  0  0  0  0  0  0  0
   -0.8310   -0.7870    5.1190 C   0  0  1  0  0  0  0  0  0  0  0  0
   -1.9520    0.0020    5.3670 O   0  0  0  0  0  0  0  0  0  0  0  0
   -0.9020   -1.2140    3.6790 C   0  0  2  0  0  0  0  0  0  0  0  0
    0.1960   -2.0410    3.2690 N   0  0  0  0  0  0  0  0  0  0  0  0
   -1.1390   -0.0480    2.8310 C   0  0  0  0  0  0  0  0  0  0  0  0
   -2.0600    0.7400    3.1740 O   0  0  0  0  0  0  0  0  0  0  0  0
    0.2980    0.5830    6.3300 H   0  0  0  0  0  0  0  0  0  0  0  0
    1.2960   -0.6980    5.5880 H   0  0  0  0  0  0  0  0  0  0  0  0
    0.6380    0.6680    4.5470 H   0  0  0  0  0  0  0  0  0  0  0  0
   -0.8980   -1.6770    5.7990 H   0  0  0  0  0  0  0  0  0  0  0  0
   -2.5980   -0.4440    5.9640 H   0  0  0  0  0  0  0  0  0  0  0  0
   -1.8190   -1.8650    3.5990 H   0  0  0  0  0  0  0  0  0  0  0  0
    1.1330   -1.6570    3.4750 H   0  0  0  0  0  0  0  0  0  0  0  0
    0.0820   -2.5140    2.3770 H   0  0  0  0  0  0  0  0  0  0  0  0
    4.0780    2.1930   -2.2680 N   0  0  0  0  0  0  0  0  0  0  0  0
    2.9550    2.9690   -1.7980 C   0  0  0  0  0  0  0  0  0  0  0  0
    2.0690    3.3820   -2.6400 N   0  0  0  0  0  0  0  0  0  0  0  0
    2.8850    3.2320   -0.4070 N   0  0  0  0  0  0  0  0  0  0  0  0
    1.9000    4.1210    0.1340 C   0  0  0  0  0  0  0  0  0  0  0  0
    0.4860    3.5340    0.0150 C   0  0  0  0  0  0  0  0  0  0  0  0
    0.5410    2.2460    0.7980 C   0  0  0  0  0  0  0  0  0  0  0  0
   -0.7130    1.4630    0.8480 C   0  0  2  0  0  0  0  0  0  0  0  0
   -0.4270    0.2700    1.6600 N   0  0  0  0  0  0  0  0  0  0  0  0
   -1.2800    1.0200   -0.4180 C   0  0  0  0  0  0  0  0  0  0  0  0
   -1.5990    1.7790   -1.3680 O   0  0  0  0  0  0  0  0  0  0  0  0
    5.0420    2.4830   -2.0740 H   0  0  0  0  0  0  0  0  0  0  0  0
    3.8720    1.3300   -2.8100 H   0  0  0  0  0  0  0  0  0  0  0  0
    2.1710    3.1550   -3.6410 H   0  0  0  0  0  0  0  0  0  0  0  0
    3.5650    2.7700    0.2220 H   0  0  0  0  0  0  0  0  0  0  0  0
    2.0900    4.2590    1.2190 H   0  0  0  0  0  0  0  0  0  0  0  0
    1.9180    5.1120   -0.3640 H   0  0  0  0  0  0  0  0  0  0  0  0
   -0.2100    4.2270    0.5140 H   0  0  0  0  0  0  0  0  0  0  0  0
    0.3070    3.3920   -1.0490 H   0  0  0  0  0  0  0  0  0  0  0  0
    1.4150    1.6450    0.4760 H   0  0  0  0  0  0  0  0  0  0  0  0
    0.7800    2.5420    1.8620 H   0  0  0  0  0  0  0  0  0  0  0  0
   -1.5360    2.0000    1.3930 H   0  0  0  0  0  0  0  0  0  0  0  0
    0.3230   -0.3420    1.3440 H   0  0  0  0  0  0  0  0  0  0  0  0
   -1.5030   -0.3640   -0.6300 N   0  0  0  0  0  0  0  0  0  0  0  0
   -2.0670   -0.9380   -1.8370 C   0  0  1  0  0  0  0  0  0  0  0  0
   -0.9740   -1.7100   -2.5220 C   0  0  0  0  0  0  0  0  0  0  0  0
   -0.3370   -2.7720   -1.7680 C   0  0  0  0  0  0  0  0  0  0  0  0
    0.9150   -2.6280   -1.1520 C   0  0  0  0  0  0  0  0  0  0  0  0
    1.2180   -3.7830   -0.5450 N   0  0  0  0  0  0  0  0  0  0  0  0
    0.2410   -4.6980   -0.7170 C   0  0  0  0  0  0  0  0  0  0  0  0
    0.1250   -6.0000   -0.2950 C   0  0  0  0  0  0  0  0  0  0  0  0
   -1.0040   -6.7120   -0.6470 C   0  0  0  0  0  0  0  0  0  0  0  0
   -1.9870   -6.1240   -1.4020 C   0  0  0  0  0  0  0  0  0  0  0  0
   -1.8350   -4.8260   -1.8010 C   0  0  0  0  0  0  0  0  0  0  0  0
   -0.7220   -4.0510   -1.4820 C   0  0  0  0  0  0  0  0  0  0  0  0
   -3.3390   -1.6180   -1.6630 C   0  0  0  0  0  0  0  0  0  0  0  0
   -3.9120   -2.0730   -2.6870 O   0  0  0  0  0  0  0  0  0  0  0  0
   -3.9770   -1.8040   -0.4440 O   0  0  0  0  0  0  0  0  0  0  0  0
   -1.2620   -1.0820    0.1170 H   0  0  0  0  0  0  0  0  0  0  0  0
   -2.2210    0.0010   -2.5030 H   0  0  0  0  0  0  0  0  0  0  0  0
   -1.3970   -2.1890   -3.4650 H   0  0  0  0  0  0  0  0  0  0  0  0
   -0.2220   -0.9890   -2.9380 H   0  0  0  0  0  0  0  0  0  0  0  0
    1.5190   -1.7320   -1.1760 H   0  0  0  0  0  0  0  0  0  0  0  0
    2.0930   -4.0060    0.0080 H   0  0  0  0  0  0  0  0  0  0  0  0
    0.9090   -6.4390    0.2990 H   0  0  0  0  0  0  0  0  0  0  0  0
   -1.1320   -7.7320   -0.3460 H   0  0  0  0  0  0  0  0  0  0  0  0
   -2.9040   -6.6540   -1.7010 H   0  0  0  0  0  0  0  0  0  0  0  0
   -2.5970   -4.3500   -2.3970 H   0  0  0  0  0  0  0  0  0  0  0  0
  1  9  1  0  0  0  0
  1  8  1  0  0  0  0
  2  3  1  0  0  0  0
  2  1  1  0  0  0  0
  2 11  1  1  0  0  0
  3 12  1  0  0  0  0
  4 13  1  6  0  0  0
  4  2  1  0  0  0  0
  5 14  1  0  0  0  0
  5  4  1  0  0  0  0
  6  7  2  0  0  0  0
  6  4  1  0  0  0  0
 10  1  1  0  0  0  0
 15  5  1  0  0  0  0
 16 27  1  0  0  0  0
 16 17  1  0  0  0  0
 17 19  1  0  0  0  0
 18 17  2  0  0  0  0
 19 20  1  0  0  0  0
 19 30  1  0  0  0  0
 20 31  1  0  0  0  0
 21 20  1  0  0  0  0
 21 33  1  0  0  0  0
 21 22  1  0  0  0  0
 22 23  1  0  0  0  0
 22 36  1  0  0  0  0
 23 37  1  1  0  0  0
 23 24  1  0  0  0  0
 24  6  1  0  0  0  0
 25 23  1  0  0  0  0
 26 25  2  0  0  0  0
 28 16  1  0  0  0  0
 29 18  1  0  0  0  0
 32 20  1  0  0  0  0
 34 21  1  0  0  0  0
 35 22  1  0  0  0  0
 38 24  1  0  0  0  0
 39 25  1  0  0  0  0
 39 54  1  0  0  0  0
 40 55  1  6  0  0  0
 40 51  1  0  0  0  0
 40 39  1  0  0  0  0
 41 40  1  0  0  0  0
 41 42  1  0  0  0  0
 42 50  1  0  0  0  0
 42 43  2  0  0  0  0
 43 44  1  0  0  0  0
 44 59  1  0  0  0  0
 45 44  1  0  0  0  0
 45 46  1  0  0  0  0
 46 60  1  0  0  0  0
 47 61  1  0  0  0  0
 47 46  2  0  0  0  0
 48 47  1  0  0  0  0
 49 50  1  0  0  0  0
 49 48  2  0  0  0  0
 50 45  2  0  0  0  0
 51 53  1  0  0  0  0
 52 51  2  0  0  0  0
 56 41  1  0  0  0  0
 57 41  1  0  0  0  0
 58 43  1  0  0  0  0
 62 48  1  0  0  0  0
 63 49  1  0  0  0  0
M  END
$$$$
