TSA.pdb
 OpenBabel07022419143D

 37 36  0  0  1  0  0  0  0  0999 V2000
   -1.0980   -2.1290    2.2280 C   0  0  0  0  0  0  0  0  0  0  0  0
   -0.6560   -3.4250    1.6110 C   0  0  1  0  0  0  0  0  0  0  0  0
   -1.5570   -4.4100    2.0960 O   0  0  0  0  0  0  0  0  0  0  0  0
   -0.6990   -3.4010    0.1010 C   0  0  2  0  0  0  0  0  0  0  0  0
   -0.3190   -4.7610   -0.3150 N   0  0  0  0  0  0  0  0  0  0  0  0
    0.1810   -2.4080   -0.5220 C   0  0  0  0  0  0  0  0  0  0  0  0
    1.2530   -2.7470   -1.1340 O   0  0  0  0  0  0  0  0  0  0  0  0
   -1.9930   -1.7370    1.7070 H   0  0  0  0  0  0  0  0  0  0  0  0
   -0.2820   -1.4170    2.1190 H   0  0  0  0  0  0  0  0  0  0  0  0
   -1.3320   -2.2450    3.3150 H   0  0  0  0  0  0  0  0  0  0  0  0
    0.3530   -3.7360    1.9420 H   0  0  0  0  0  0  0  0  0  0  0  0
   -1.2350   -4.6140    3.0100 H   0  0  0  0  0  0  0  0  0  0  0  0
   -1.7380   -3.2600   -0.2120 H   0  0  0  0  0  0  0  0  0  0  0  0
    0.3850   -5.1730    0.3200 H   0  0  0  0  0  0  0  0  0  0  0  0
   -0.0960   -4.8070   -1.3130 H   0  0  0  0  0  0  0  0  0  0  0  0
   -1.0910    0.8920   -2.2460 O   0  0  0  0  0  0  0  0  0  0  0  0
    0.1490    0.3200   -2.4610 C   0  0  0  0  0  0  0  0  0  0  0  0
    0.8350   -0.0670   -1.1520 C   0  0  2  0  0  0  0  0  0  0  0  0
   -0.0500   -1.0140   -0.5200 N   0  0  0  0  0  0  0  0  0  0  0  0
    1.2390    1.0820   -0.3650 C   0  0  0  0  0  0  0  0  0  0  0  0
    2.0690    1.9380   -0.8480 O   0  0  0  0  0  0  0  0  0  0  0  0
   -1.1330    1.1580   -1.2910 H   0  0  0  0  0  0  0  0  0  0  0  0
    0.7690    1.0240   -3.0340 H   0  0  0  0  0  0  0  0  0  0  0  0
    0.0330   -0.5930   -3.0450 H   0  0  0  0  0  0  0  0  0  0  0  0
    1.7350   -0.6270   -1.4800 H   0  0  0  0  0  0  0  0  0  0  0  0
   -0.8880   -0.6180   -0.0560 H   0  0  0  0  0  0  0  0  0  0  0  0
    0.1340    3.4860    2.0760 C   0  0  0  0  0  0  0  0  0  0  0  0
    1.2700    2.5810    1.6650 C   0  0  2  0  0  0  0  0  0  0  0  0
    0.8180    1.4140    0.9460 N   0  0  0  0  0  0  0  0  0  0  0  0
    1.9430    2.1160    2.8850 C   0  0  0  0  0  0  0  0  0  0  0  0
    2.4210    2.9560    3.6710 O   0  0  0  0  0  0  0  0  0  0  0  0
    2.0530    0.7790    3.1680 O   0  0  0  0  0  0  0  0  0  0  0  0
    0.4310    3.9820    3.0230 H   0  0  0  0  0  0  0  0  0  0  0  0
   -0.0130    4.3120    1.3360 H   0  0  0  0  0  0  0  0  0  0  0  0
   -0.8030    2.9490    2.2620 H   0  0  0  0  0  0  0  0  0  0  0  0
    1.9830    3.1900    1.0800 H   0  0  0  0  0  0  0  0  0  0  0  0
    0.1390    0.7740    1.4040 H   0  0  0  0  0  0  0  0  0  0  0  0
  1 10  1  0  0  0  0
  2 11  1  1  0  0  0
  2  3  1  0  0  0  0
  2  1  1  0  0  0  0
  3 12  1  0  0  0  0
  4 13  1  6  0  0  0
  4  2  1  0  0  0  0
  5  4  1  0  0  0  0
  5 14  1  0  0  0  0
  6 19  1  0  0  0  0
  6  4  1  0  0  0  0
  7  6  2  0  0  0  0
  8  1  1  0  0  0  0
  9  1  1  0  0  0  0
 15  5  1  0  0  0  0
 16 22  1  0  0  0  0
 17 16  1  0  0  0  0
 17 18  1  0  0  0  0
 18 25  1  6  0  0  0
 18 19  1  0  0  0  0
 18 20  1  0  0  0  0
 19 26  1  0  0  0  0
 20 29  1  0  0  0  0
 21 20  2  0  0  0  0
 23 17  1  0  0  0  0
 24 17  1  0  0  0  0
 27 35  1  0  0  0  0
 27 33  1  0  0  0  0
 28 36  1  6  0  0  0
 28 27  1  0  0  0  0
 28 30  1  0  0  0  0
 29 37  1  0  0  0  0
 29 28  1  0  0  0  0
 30 32  2  0  0  0  0
 30 31  1  0  0  0  0
 34 27  1  0  0  0  0
M  END
$$$$
