TSC.pdb
 OpenBabel07022419143D

 38 37  0  0  1  0  0  0  0  0999 V2000
    1.0230   -4.5140   -0.5920 C   0  0  0  0  0  0  0  0  0  0  0  0
    1.1300   -3.0980   -0.0650 C   0  0  1  0  0  0  0  0  0  0  0  0
    1.7620   -3.1080    1.1690 O   0  0  0  0  0  0  0  0  0  0  0  0
    1.9430   -2.2830   -1.0510 C   0  0  2  0  0  0  0  0  0  0  0  0
    3.2530   -2.8750   -1.1840 N   0  0  0  0  0  0  0  0  0  0  0  0
    2.0380   -0.8570   -0.6150 C   0  0  0  0  0  0  0  0  0  0  0  0
    3.1650   -0.3490   -0.4190 O   0  0  0  0  0  0  0  0  0  0  0  0
    1.8620   -5.0960   -0.1580 H   0  0  0  0  0  0  0  0  0  0  0  0
    0.0700   -4.9780   -0.2520 H   0  0  0  0  0  0  0  0  0  0  0  0
    1.1150   -4.5230   -1.6950 H   0  0  0  0  0  0  0  0  0  0  0  0
    0.1080   -2.7200    0.0540 H   0  0  0  0  0  0  0  0  0  0  0  0
    1.3070   -2.5100    1.8100 H   0  0  0  0  0  0  0  0  0  0  0  0
    1.4520   -2.2820   -2.0440 H   0  0  0  0  0  0  0  0  0  0  0  0
    3.7910   -2.6800   -0.2870 H   0  0  0  0  0  0  0  0  0  0  0  0
    3.1580   -3.9150   -1.2100 H   0  0  0  0  0  0  0  0  0  0  0  0
    0.3540    3.4980   -0.8560 O   0  0  0  0  0  0  0  0  0  0  0  0
    0.3570    2.1450   -1.1450 C   0  0  0  0  0  0  0  0  0  0  0  0
    0.9480    1.3240    0.0080 C   0  0  2  0  0  0  0  0  0  0  0  0
    0.8960   -0.0550   -0.4130 N   0  0  0  0  0  0  0  0  0  0  0  0
    0.1140    1.5750    1.2070 C   0  0  0  0  0  0  0  0  0  0  0  0
    0.0650    2.7350    1.6840 O   0  0  0  0  0  0  0  0  0  0  0  0
   -0.4920    3.9540   -1.1460 H   0  0  0  0  0  0  0  0  0  0  0  0
   -0.7070    1.8510   -1.3150 H   0  0  0  0  0  0  0  0  0  0  0  0
    0.8980    1.9210   -2.0890 H   0  0  0  0  0  0  0  0  0  0  0  0
    1.9920    1.6550    0.1470 H   0  0  0  0  0  0  0  0  0  0  0  0
   -0.0400   -0.4700   -0.5730 H   0  0  0  0  0  0  0  0  0  0  0  0
   -0.6460    0.5720    1.8600 N   0  0  0  0  0  0  0  0  0  0  0  0
   -1.4220    0.8970    3.0060 C   0  0  1  0  0  0  0  0  0  0  0  0
   -2.8970    0.6260    2.8470 C   0  0  0  0  0  0  0  0  0  0  0  0
   -3.6040    1.5800    1.4790 S   0  0  0  0  0  0  0  0  0  0  0  0
   -0.9750    0.1530    4.2200 C   0  0  0  0  0  0  0  0  0  0  0  0
   -1.5350    0.3030    5.3340 O   0  0  0  0  0  0  0  0  0  0  0  0
    0.0890   -0.7180    4.0740 O   0  0  0  0  0  0  0  0  0  0  0  0
   -0.6340   -0.4080    1.4940 H   0  0  0  0  0  0  0  0  0  0  0  0
   -1.3190    1.9730    3.2530 H   0  0  0  0  0  0  0  0  0  0  0  0
   -3.3890    0.9800    3.7780 H   0  0  0  0  0  0  0  0  0  0  0  0
   -3.1320   -0.4550    2.7640 H   0  0  0  0  0  0  0  0  0  0  0  0
   -3.8620    2.9100    1.8720 H   0  0  0  0  0  0  0  0  0  0  0  0
  1  9  1  0  0  0  0
  1  8  1  0  0  0  0
  1  2  1  0  0  0  0
  2 11  1  1  0  0  0
  2  3  1  0  0  0  0
  3 12  1  0  0  0  0
  4 13  1  6  0  0  0
  4  6  1  0  0  0  0
  4  2  1  0  0  0  0
  5  4  1  0  0  0  0
  5 14  1  0  0  0  0
  6  7  2  0  0  0  0
  6 19  1  0  0  0  0
 10  1  1  0  0  0  0
 15  5  1  0  0  0  0
 17 16  1  0  0  0  0
 17 18  1  0  0  0  0
 18 25  1  1  0  0  0
 18 20  1  0  0  0  0
 19 18  1  0  0  0  0
 20 21  2  0  0  0  0
 20 27  1  0  0  0  0
 22 16  1  0  0  0  0
 23 17  1  0  0  0  0
 24 17  1  0  0  0  0
 26 19  1  0  0  0  0
 27 28  1  0  0  0  0
 28 35  1  1  0  0  0
 28 31  1  0  0  0  0
 29 28  1  0  0  0  0
 29 36  1  0  0  0  0
 30 38  1  0  0  0  0
 30 29  1  0  0  0  0
 31 32  1  0  0  0  0
 33 31  2  0  0  0  0
 34 27  1  0  0  0  0
 37 29  1  0  0  0  0
M  END
$$$$
