TSD.pdb
 OpenBabel07022419143D

 40 39  0  0  1  0  0  0  0  0999 V2000
   -2.0040   -6.0580    1.4790 C   0  0  0  0  0  0  0  0  0  0  0  0
   -1.5240   -4.8340    0.7380 C   0  0  1  0  0  0  0  0  0  0  0  0
   -2.5330   -4.2050    0.0280 O   0  0  0  0  0  0  0  0  0  0  0  0
   -0.8610   -3.8530    1.6980 C   0  0  2  0  0  0  0  0  0  0  0  0
   -1.8510   -3.3720    2.5980 N   0  0  0  0  0  0  0  0  0  0  0  0
   -0.2060   -2.8110    0.8950 C   0  0  0  0  0  0  0  0  0  0  0  0
    0.6800   -3.1660    0.0770 O   0  0  0  0  0  0  0  0  0  0  0  0
   -2.4850   -6.7260    0.7350 H   0  0  0  0  0  0  0  0  0  0  0  0
   -1.1180   -6.5770    1.8860 H   0  0  0  0  0  0  0  0  0  0  0  0
   -2.7170   -5.7320    2.2700 H   0  0  0  0  0  0  0  0  0  0  0  0
   -0.7040   -5.1650    0.0390 H   0  0  0  0  0  0  0  0  0  0  0  0
   -2.4600   -3.2280    0.1850 H   0  0  0  0  0  0  0  0  0  0  0  0
   -0.0830   -4.3890    2.2740 H   0  0  0  0  0  0  0  0  0  0  0  0
   -1.7810   -3.7350    3.5670 H   0  0  0  0  0  0  0  0  0  0  0  0
   -2.8180   -3.3490    2.2210 H   0  0  0  0  0  0  0  0  0  0  0  0
   -1.8580    0.8140   -0.1620 O   0  0  0  0  0  0  0  0  0  0  0  0
   -0.8130    0.1830   -0.8150 C   0  0  0  0  0  0  0  0  0  0  0  0
    0.1770   -0.4430    0.1590 C   0  0  2  0  0  0  0  0  0  0  0  0
   -0.4990   -1.4230    0.9730 N   0  0  0  0  0  0  0  0  0  0  0  0
    0.8090    0.5600    1.0230 C   0  0  0  0  0  0  0  0  0  0  0  0
    0.7060    0.4720    2.2650 O   0  0  0  0  0  0  0  0  0  0  0  0
   -2.6010    0.1660    0.0380 H   0  0  0  0  0  0  0  0  0  0  0  0
   -1.2080   -0.6670   -1.4270 H   0  0  0  0  0  0  0  0  0  0  0  0
   -0.2730    0.8410   -1.5120 H   0  0  0  0  0  0  0  0  0  0  0  0
    0.9140   -0.9970   -0.4820 H   0  0  0  0  0  0  0  0  0  0  0  0
   -1.2420   -1.1480    1.6630 H   0  0  0  0  0  0  0  0  0  0  0  0
    1.5600    1.6700    0.5160 N   0  0  0  0  0  0  0  0  0  0  0  0
    2.1770    2.6520    1.3950 C   0  0  1  0  0  0  0  0  0  0  0  0
    3.6710    2.6630    1.2760 C   0  0  0  0  0  0  0  0  0  0  0  0
    4.1430    2.9820   -0.0850 C   0  0  0  0  0  0  0  0  0  0  0  0
    5.3690    3.0180   -0.3010 O   0  0  0  0  0  0  0  0  0  0  0  0
    1.6050    3.9950    1.2000 C   0  0  0  0  0  0  0  0  0  0  0  0
    0.6960    4.2120    0.3620 O   0  0  0  0  0  0  0  0  0  0  0  0
    3.2980    3.2480   -1.1570 O   0  0  0  0  0  0  0  0  0  0  0  0
    2.0730    5.0440    1.9510 O   0  0  0  0  0  0  0  0  0  0  0  0
    1.6380    1.7320   -0.5190 H   0  0  0  0  0  0  0  0  0  0  0  0
    1.9340    2.3420    2.4370 H   0  0  0  0  0  0  0  0  0  0  0  0
    4.0630    3.4210    1.9670 H   0  0  0  0  0  0  0  0  0  0  0  0
    4.0630    1.6620    1.5550 H   0  0  0  0  0  0  0  0  0  0  0  0
    3.6180    3.0800   -2.1230 H   0  0  0  0  0  0  0  0  0  0  0  0
  1  9  1  0  0  0  0
  1 10  1  0  0  0  0
  2 11  1  6  0  0  0
  2  1  1  0  0  0  0
  2  4  1  0  0  0  0
  3 12  1  0  0  0  0
  3  2  1  0  0  0  0
  4 13  1  1  0  0  0
  4  5  1  0  0  0  0
  5 14  1  0  0  0  0
  6 19  1  0  0  0  0
  6  4  1  0  0  0  0
  7  6  2  0  0  0  0
  8  1  1  0  0  0  0
 15  5  1  0  0  0  0
 16 22  1  0  0  0  0
 17 16  1  0  0  0  0
 17 18  1  0  0  0  0
 18 25  1  6  0  0  0
 18 19  1  0  0  0  0
 18 20  1  0  0  0  0
 19 26  1  0  0  0  0
 20 21  2  0  0  0  0
 23 17  1  0  0  0  0
 24 17  1  0  0  0  0
 27 20  1  0  0  0  0
 27 28  1  0  0  0  0
 28 37  1  1  0  0  0
 29 28  1  0  0  0  0
 29 39  1  0  0  0  0
 29 38  1  0  0  0  0
 30 29  1  0  0  0  0
 31 30  2  0  0  0  0
 32 28  1  0  0  0  0
 32 35  1  0  0  0  0
 33 32  2  0  0  0  0
 34 30  1  0  0  0  0
 36 27  1  0  0  0  0
 40 34  1  0  0  0  0
M  END
$$$$
