TSE.pdb
 OpenBabel07022419143D

 43 42  0  0  1  0  0  0  0  0999 V2000
    0.4520   -4.5830    1.1520 C   0  0  0  0  0  0  0  0  0  0  0  0
    0.8880   -3.1750    0.8050 C   0  0  1  0  0  0  0  0  0  0  0  0
    1.8890   -2.7490    1.6590 O   0  0  0  0  0  0  0  0  0  0  0  0
    1.3730   -3.1800   -0.6190 C   0  0  2  0  0  0  0  0  0  0  0  0
    2.5020   -4.0880   -0.6890 N   0  0  0  0  0  0  0  0  0  0  0  0
    1.8030   -1.8570   -1.0890 C   0  0  0  0  0  0  0  0  0  0  0  0
    2.9780   -1.6430   -1.4700 O   0  0  0  0  0  0  0  0  0  0  0  0
    0.5280   -4.7840    2.2400 H   0  0  0  0  0  0  0  0  0  0  0  0
   -0.6110   -4.6720    0.7900 H   0  0  0  0  0  0  0  0  0  0  0  0
    1.0470   -5.2770    0.5420 H   0  0  0  0  0  0  0  0  0  0  0  0
   -0.0120   -2.4980    0.8750 H   0  0  0  0  0  0  0  0  0  0  0  0
    2.7830   -2.9950    1.3260 H   0  0  0  0  0  0  0  0  0  0  0  0
    0.5710   -3.6270   -1.2420 H   0  0  0  0  0  0  0  0  0  0  0  0
    3.3010   -3.6450   -1.1550 H   0  0  0  0  0  0  0  0  0  0  0  0
    2.2610   -4.9930   -1.1160 H   0  0  0  0  0  0  0  0  0  0  0  0
   -0.9680    0.9980   -2.4830 O   0  0  0  0  0  0  0  0  0  0  0  0
    0.3980    1.0050   -2.7550 C   0  0  0  0  0  0  0  0  0  0  0  0
    1.2000    0.5480   -1.5630 C   0  0  2  0  0  0  0  0  0  0  0  0
    0.8940   -0.7690   -1.1280 N   0  0  0  0  0  0  0  0  0  0  0  0
    1.0260    1.5730   -0.5010 C   0  0  0  0  0  0  0  0  0  0  0  0
    1.2640    2.7810   -0.7540 O   0  0  0  0  0  0  0  0  0  0  0  0
   -1.4970    0.5880   -3.2220 H   0  0  0  0  0  0  0  0  0  0  0  0
    0.6480    0.4490   -3.6790 H   0  0  0  0  0  0  0  0  0  0  0  0
    0.6800    2.0630   -2.9440 H   0  0  0  0  0  0  0  0  0  0  0  0
    2.2770    0.6000   -1.8730 H   0  0  0  0  0  0  0  0  0  0  0  0
   -0.0850   -0.9700   -0.8060 H   0  0  0  0  0  0  0  0  0  0  0  0
    0.5930    1.2580    0.8270 N   0  0  0  0  0  0  0  0  0  0  0  0
    0.4320    2.2750    1.8430 C   0  0  1  0  0  0  0  0  0  0  0  0
   -1.0000    2.2620    2.3190 C   0  0  0  0  0  0  0  0  0  0  0  0
   -1.3220    0.9120    2.8980 C   0  0  0  0  0  0  0  0  0  0  0  0
   -2.7180    0.8370    3.3950 C   0  0  0  0  0  0  0  0  0  0  0  0
   -3.4980    1.8000    3.3230 O   0  0  0  0  0  0  0  0  0  0  0  0
    1.2900    1.9330    3.0220 C   0  0  0  0  0  0  0  0  0  0  0  0
    2.0010    0.8960    3.0200 O   0  0  0  0  0  0  0  0  0  0  0  0
   -3.1520   -0.3490    3.9550 O   0  0  0  0  0  0  0  0  0  0  0  0
    1.3060    2.7630    4.1330 O   0  0  0  0  0  0  0  0  0  0  0  0
    0.4100    0.2670    1.0070 H   0  0  0  0  0  0  0  0  0  0  0  0
    0.7250    3.2770    1.4570 H   0  0  0  0  0  0  0  0  0  0  0  0
   -1.7000    2.3890    1.4390 H   0  0  0  0  0  0  0  0  0  0  0  0
   -1.1970    3.0710    3.0580 H   0  0  0  0  0  0  0  0  0  0  0  0
   -1.2370    0.1130    2.1340 H   0  0  0  0  0  0  0  0  0  0  0  0
   -0.6130    0.7030    3.7260 H   0  0  0  0  0  0  0  0  0  0  0  0
   -4.1330   -0.6270    3.9740 H   0  0  0  0  0  0  0  0  0  0  0  0
  1  8  1  0  0  0  0
  2 11  1  1  0  0  0
  2  1  1  0  0  0  0
  2  3  1  0  0  0  0
  4 13  1  6  0  0  0
  4  2  1  0  0  0  0
  5  4  1  0  0  0  0
  6  4  1  0  0  0  0
  7  6  2  0  0  0  0
  9  1  1  0  0  0  0
 10  1  1  0  0  0  0
 12  3  1  0  0  0  0
 14  5  1  0  0  0  0
 15  5  1  0  0  0  0
 17 16  1  0  0  0  0
 17 18  1  0  0  0  0
 18 25  1  6  0  0  0
 18 19  1  0  0  0  0
 18 20  1  0  0  0  0
 19  6  1  0  0  0  0
 19 26  1  0  0  0  0
 20 27  1  0  0  0  0
 21 20  2  0  0  0  0
 22 16  1  0  0  0  0
 23 17  1  0  0  0  0
 24 17  1  0  0  0  0
 27 37  1  0  0  0  0
 27 28  1  0  0  0  0
 28 38  1  6  0  0  0
 28 29  1  0  0  0  0
 28 33  1  0  0  0  0
 29 30  1  0  0  0  0
 29 40  1  0  0  0  0
 30 31  1  0  0  0  0
 30 42  1  0  0  0  0
 31 35  1  0  0  0  0
 32 31  2  0  0  0  0
 33 36  1  0  0  0  0
 34 33  2  0  0  0  0
 35 43  1  0  0  0  0
 39 29  1  0  0  0  0
 41 30  1  0  0  0  0
M  END
$$$$
