TSG.pdb
 OpenBabel07022419143D

 34 33  0  0  1  0  0  0  0  0999 V2000
   -1.8290   -4.9260    1.7170 C   0  0  0  0  0  0  0  0  0  0  0  0
   -0.6870   -3.9440    1.5650 C   0  0  1  0  0  0  0  0  0  0  0  0
    0.2570   -4.3760    0.6300 O   0  0  0  0  0  0  0  0  0  0  0  0
   -1.1740   -2.5710    1.2110 C   0  0  2  0  0  0  0  0  0  0  0  0
   -1.7840   -2.5720   -0.0880 N   0  0  0  0  0  0  0  0  0  0  0  0
   -0.1210   -1.5640    1.3710 C   0  0  0  0  0  0  0  0  0  0  0  0
    0.4680   -1.4900    2.4760 O   0  0  0  0  0  0  0  0  0  0  0  0
   -2.7560   -4.5590    1.2180 H   0  0  0  0  0  0  0  0  0  0  0  0
   -1.4830   -5.8910    1.3030 H   0  0  0  0  0  0  0  0  0  0  0  0
   -2.0820   -5.0980    2.7840 H   0  0  0  0  0  0  0  0  0  0  0  0
   -0.1620   -3.9280    2.5530 H   0  0  0  0  0  0  0  0  0  0  0  0
    0.0850   -5.3550    0.4630 H   0  0  0  0  0  0  0  0  0  0  0  0
   -1.9840   -2.3170    1.9540 H   0  0  0  0  0  0  0  0  0  0  0  0
   -2.1230   -1.6620   -0.4050 H   0  0  0  0  0  0  0  0  0  0  0  0
   -1.2950   -3.1500   -0.7880 H   0  0  0  0  0  0  0  0  0  0  0  0
    1.9570    0.1180   -1.7530 O   0  0  0  0  0  0  0  0  0  0  0  0
    2.4650    0.0410   -0.4500 C   0  0  0  0  0  0  0  0  0  0  0  0
    1.3260    0.3290    0.5390 C   0  0  2  0  0  0  0  0  0  0  0  0
    0.2800   -0.6580    0.3510 N   0  0  0  0  0  0  0  0  0  0  0  0
    0.7380    1.6570    0.1880 C   0  0  0  0  0  0  0  0  0  0  0  0
   -0.4740    1.7750   -0.1940 O   0  0  0  0  0  0  0  0  0  0  0  0
    2.7380    0.1910   -2.3570 H   0  0  0  0  0  0  0  0  0  0  0  0
    3.2730    0.7890   -0.3180 H   0  0  0  0  0  0  0  0  0  0  0  0
    2.9080   -0.9520   -0.2400 H   0  0  0  0  0  0  0  0  0  0  0  0
    1.7650    0.3000    1.5360 H   0  0  0  0  0  0  0  0  0  0  0  0
   -0.2190   -0.7330   -0.5590 H   0  0  0  0  0  0  0  0  0  0  0  0
    1.4880    2.8590    0.2580 N   0  0  0  0  0  0  0  0  0  0  0  0
    0.8930    4.1360   -0.0870 C   0  0  0  0  0  0  0  0  0  0  0  0
   -0.2450    4.3710    0.8230 C   0  0  0  0  0  0  0  0  0  0  0  0
   -0.9150    5.4190    0.6990 O   0  0  0  0  0  0  0  0  0  0  0  0
   -0.5910    3.4700    1.8060 O   0  0  0  0  0  0  0  0  0  0  0  0
    2.4820    2.8300    0.5610 H   0  0  0  0  0  0  0  0  0  0  0  0
    0.4810    4.0680   -1.1270 H   0  0  0  0  0  0  0  0  0  0  0  0
    1.6250    4.9620   -0.0170 H   0  0  0  0  0  0  0  0  0  0  0  0
  1 10  1  0  0  0  0
  2  1  1  0  0  0  0
  2 11  1  1  0  0  0
  3  2  1  0  0  0  0
  4  6  1  0  0  0  0
  4  2  1  0  0  0  0
  4 13  1  1  0  0  0
  5  4  1  0  0  0  0
  6  7  2  0  0  0  0
  8  1  1  0  0  0  0
  9  1  1  0  0  0  0
 12  3  1  0  0  0  0
 14  5  1  0  0  0  0
 15  5  1  0  0  0  0
 16 17  1  0  0  0  0
 17 23  1  0  0  0  0
 17 24  1  0  0  0  0
 17 18  1  0  0  0  0
 18 25  1  1  0  0  0
 19 18  1  0  0  0  0
 19  6  1  0  0  0  0
 20 27  1  0  0  0  0
 20 18  1  0  0  0  0
 21 20  2  0  0  0  0
 22 16  1  0  0  0  0
 26 19  1  0  0  0  0
 27 32  1  0  0  0  0
 28 34  1  0  0  0  0
 28 27  1  0  0  0  0
 28 29  1  0  0  0  0
 29 31  1  0  0  0  0
 30 29  2  0  0  0  0
 33 28  1  0  0  0  0
M  END
$$$$
