TSI.pdb
 OpenBabel07022419143D

 46 45  0  0  1  0  0  0  0  0999 V2000
    4.2230   -3.4240   -2.1760 C   0  0  0  0  0  0  0  0  0  0  0  0
    2.6970   -3.3270   -2.2560 C   0  0  1  0  0  0  0  0  0  0  0  0
    2.2030   -4.5230   -1.7380 O   0  0  0  0  0  0  0  0  0  0  0  0
    2.2760   -2.1410   -1.4000 C   0  0  2  0  0  0  0  0  0  0  0  0
    2.7940   -2.3360   -0.0890 N   0  0  0  0  0  0  0  0  0  0  0  0
    0.8370   -1.8900   -1.4630 C   0  0  0  0  0  0  0  0  0  0  0  0
    0.3040   -1.7080   -2.5800 O   0  0  0  0  0  0  0  0  0  0  0  0
    4.5460   -3.6520   -1.1400 H   0  0  0  0  0  0  0  0  0  0  0  0
    4.6430   -2.4360   -2.4500 H   0  0  0  0  0  0  0  0  0  0  0  0
    4.6040   -4.2390   -2.8160 H   0  0  0  0  0  0  0  0  0  0  0  0
    2.3710   -3.1280   -3.2780 H   0  0  0  0  0  0  0  0  0  0  0  0
    1.2510   -4.3300   -1.4860 H   0  0  0  0  0  0  0  0  0  0  0  0
    2.8010   -1.2490   -1.8460 H   0  0  0  0  0  0  0  0  0  0  0  0
    2.8920   -3.3330    0.1990 H   0  0  0  0  0  0  0  0  0  0  0  0
    3.6320   -1.7590    0.1350 H   0  0  0  0  0  0  0  0  0  0  0  0
   -3.6010   -2.4150   -0.0340 O   0  0  0  0  0  0  0  0  0  0  0  0
   -2.2560   -2.7670    0.0950 C   0  0  0  0  0  0  0  0  0  0  0  0
   -1.4260   -1.5900   -0.3990 C   0  0  2  0  0  0  0  0  0  0  0  0
   -0.0220   -1.8370   -0.3140 N   0  0  0  0  0  0  0  0  0  0  0  0
   -1.8320   -0.3330    0.2950 C   0  0  0  0  0  0  0  0  0  0  0  0
   -3.0440    0.0020    0.2960 O   0  0  0  0  0  0  0  0  0  0  0  0
   -4.1140   -3.1430   -0.4570 H   0  0  0  0  0  0  0  0  0  0  0  0
   -2.0470   -3.6150   -0.5800 H   0  0  0  0  0  0  0  0  0  0  0  0
   -2.0700   -2.9920    1.1540 H   0  0  0  0  0  0  0  0  0  0  0  0
   -1.6980   -1.4540   -1.4670 H   0  0  0  0  0  0  0  0  0  0  0  0
    0.4500   -1.9920    0.6060 H   0  0  0  0  0  0  0  0  0  0  0  0
   -1.2290    2.2940    5.4010 C   0  0  0  0  0  0  0  0  0  0  0  0
   -1.3400    2.7440    3.9380 C   0  0  0  0  0  0  0  0  0  0  0  0
   -1.0080    1.5480    3.0890 C   0  0  2  0  0  0  0  0  0  0  0  0
    0.3900    1.1080    3.4200 C   0  0  0  0  0  0  0  0  0  0  0  0
   -1.2670    1.7250    1.6390 C   0  0  2  0  0  0  0  0  0  0  0  0
   -0.9020    0.5030    0.9580 N   0  0  0  0  0  0  0  0  0  0  0  0
   -0.6710    2.9200    1.0350 C   0  0  0  0  0  0  0  0  0  0  0  0
    0.0890    2.8990    0.0230 O   0  0  0  0  0  0  0  0  0  0  0  0
   -0.9330    4.1710    1.5760 O   0  0  0  0  0  0  0  0  0  0  0  0
   -1.1480    1.2040    5.4870 H   0  0  0  0  0  0  0  0  0  0  0  0
   -2.1920    2.5720    5.9210 H   0  0  0  0  0  0  0  0  0  0  0  0
   -0.3540    2.7500    5.8900 H   0  0  0  0  0  0  0  0  0  0  0  0
   -2.3370    3.1660    3.7510 H   0  0  0  0  0  0  0  0  0  0  0  0
   -0.5140    3.4950    3.7710 H   0  0  0  0  0  0  0  0  0  0  0  0
   -1.6940    0.7230    3.4460 H   0  0  0  0  0  0  0  0  0  0  0  0
    1.1470    1.5260    2.7220 H   0  0  0  0  0  0  0  0  0  0  0  0
    0.6620    1.2990    4.4770 H   0  0  0  0  0  0  0  0  0  0  0  0
    0.4300    0.0070    3.2820 H   0  0  0  0  0  0  0  0  0  0  0  0
   -2.3850    1.8230    1.5120 H   0  0  0  0  0  0  0  0  0  0  0  0
    0.1080    0.1720    0.9270 H   0  0  0  0  0  0  0  0  0  0  0  0
  1  8  1  0  0  0  0
  2 11  1  6  0  0  0
  2  1  1  0  0  0  0
  2  3  1  0  0  0  0
  2  4  1  0  0  0  0
  3 12  1  0  0  0  0
  4 13  1  6  0  0  0
  4  5  1  0  0  0  0
  5 15  1  0  0  0  0
  5 14  1  0  0  0  0
  6  4  1  0  0  0  0
  6 19  1  0  0  0  0
  7  6  2  0  0  0  0
  9  1  1  0  0  0  0
 10  1  1  0  0  0  0
 16 17  1  0  0  0  0
 17 24  1  0  0  0  0
 18 25  1  6  0  0  0
 18 19  1  0  0  0  0
 18 17  1  0  0  0  0
 18 20  1  0  0  0  0
 19 26  1  0  0  0  0
 20 21  2  0  0  0  0
 20 32  1  0  0  0  0
 22 16  1  0  0  0  0
 23 17  1  0  0  0  0
 27 36  1  0  0  0  0
 27 38  1  0  0  0  0
 27 37  1  0  0  0  0
 28 27  1  0  0  0  0
 29 30  1  0  0  0  0
 29 41  1  1  0  0  0
 29 28  1  0  0  0  0
 30 43  1  0  0  0  0
 31 45  1  6  0  0  0
 31 29  1  0  0  0  0
 32 31  1  0  0  0  0
 33 35  1  0  0  0  0
 33 31  1  0  0  0  0
 34 33  2  0  0  0  0
 39 28  1  0  0  0  0
 40 28  1  0  0  0  0
 42 30  1  0  0  0  0
 44 30  1  0  0  0  0
 46 32  1  0  0  0  0
M  END
$$$$
