TSN.pdb
 OpenBabel07022419143D

 41 40  0  0  1  0  0  0  0  0999 V2000
    2.4650   -4.2310    0.3010 C   0  0  0  0  0  0  0  0  0  0  0  0
    2.3540   -3.7160   -1.1070 C   0  0  1  0  0  0  0  0  0  0  0  0
    1.0310   -3.6040   -1.5160 O   0  0  0  0  0  0  0  0  0  0  0  0
    3.1430   -2.4560   -1.3360 C   0  0  2  0  0  0  0  0  0  0  0  0
    4.5110   -2.6320   -0.8930 N   0  0  0  0  0  0  0  0  0  0  0  0
    2.5820   -1.2600   -0.7150 C   0  0  0  0  0  0  0  0  0  0  0  0
    3.3270   -0.6140    0.0950 O   0  0  0  0  0  0  0  0  0  0  0  0
    1.7210   -3.8120    0.9880 H   0  0  0  0  0  0  0  0  0  0  0  0
    2.2520   -5.3380    0.2520 H   0  0  0  0  0  0  0  0  0  0  0  0
    3.4950   -4.1390    0.6480 H   0  0  0  0  0  0  0  0  0  0  0  0
    2.8140   -4.5000   -1.7670 H   0  0  0  0  0  0  0  0  0  0  0  0
    0.9320   -3.6000   -2.4910 H   0  0  0  0  0  0  0  0  0  0  0  0
    3.1820   -2.2910   -2.4310 H   0  0  0  0  0  0  0  0  0  0  0  0
    5.1050   -1.8410   -1.2880 H   0  0  0  0  0  0  0  0  0  0  0  0
    4.5820   -2.4830    0.1580 H   0  0  0  0  0  0  0  0  0  0  0  0
    0.1770    2.6530   -0.5480 O   0  0  0  0  0  0  0  0  0  0  0  0
    0.5750    1.5400   -1.2660 C   0  0  0  0  0  0  0  0  0  0  0  0
    0.8370    0.4190   -0.2750 C   0  0  2  0  0  0  0  0  0  0  0  0
    1.2680   -0.7800   -0.9580 N   0  0  0  0  0  0  0  0  0  0  0  0
   -0.3640    0.0750    0.5270 C   0  0  0  0  0  0  0  0  0  0  0  0
   -0.8130   -1.0950    0.4530 O   0  0  0  0  0  0  0  0  0  0  0  0
   -0.3640    3.2690   -1.0810 H   0  0  0  0  0  0  0  0  0  0  0  0
    1.5520    1.7800   -1.7260 H   0  0  0  0  0  0  0  0  0  0  0  0
   -0.1420    1.2490   -2.0500 H   0  0  0  0  0  0  0  0  0  0  0  0
    1.6640    0.7790    0.3630 H   0  0  0  0  0  0  0  0  0  0  0  0
    0.6590   -1.3110   -1.6240 H   0  0  0  0  0  0  0  0  0  0  0  0
   -0.4590    0.2050    5.5070 N   0  0  0  0  0  0  0  0  0  0  0  0
   -0.8060    0.0560    4.1280 C   0  0  0  0  0  0  0  0  0  0  0  0
   -0.1090   -0.7130    3.4370 O   0  0  0  0  0  0  0  0  0  0  0  0
   -1.9620    0.8160    3.6080 C   0  0  0  0  0  0  0  0  0  0  0  0
   -2.2280    0.5750    2.1420 C   0  0  2  0  0  0  0  0  0  0  0  0
   -1.0570    0.9720    1.3830 N   0  0  0  0  0  0  0  0  0  0  0  0
   -3.4190    1.3820    1.7790 C   0  0  0  0  0  0  0  0  0  0  0  0
   -4.4890    1.1130    2.3840 O   0  0  0  0  0  0  0  0  0  0  0  0
   -3.4310    2.3810    0.8450 O   0  0  0  0  0  0  0  0  0  0  0  0
    0.5240    0.0670    5.8230 H   0  0  0  0  0  0  0  0  0  0  0  0
   -1.1580    0.4530    6.2420 H   0  0  0  0  0  0  0  0  0  0  0  0
   -1.8080    1.9220    3.7140 H   0  0  0  0  0  0  0  0  0  0  0  0
   -2.8380    0.5240    4.2370 H   0  0  0  0  0  0  0  0  0  0  0  0
   -2.4780   -0.4870    2.0080 H   0  0  0  0  0  0  0  0  0  0  0  0
   -0.6860    1.9430    1.4530 H   0  0  0  0  0  0  0  0  0  0  0  0
  1 10  1  0  0  0  0
  1  8  1  0  0  0  0
  2 11  1  6  0  0  0
  2  1  1  0  0  0  0
  3  2  1  0  0  0  0
  4 13  1  6  0  0  0
  4  2  1  0  0  0  0
  4  5  1  0  0  0  0
  4  6  1  0  0  0  0
  5 15  1  0  0  0  0
  6  7  2  0  0  0  0
  9  1  1  0  0  0  0
 12  3  1  0  0  0  0
 14  5  1  0  0  0  0
 17 16  1  0  0  0  0
 17 18  1  0  0  0  0
 18 25  1  1  0  0  0
 18 20  1  0  0  0  0
 19  6  1  0  0  0  0
 19 18  1  0  0  0  0
 20 32  1  0  0  0  0
 21 20  2  0  0  0  0
 22 16  1  0  0  0  0
 23 17  1  0  0  0  0
 24 17  1  0  0  0  0
 26 19  1  0  0  0  0
 27 36  1  0  0  0  0
 27 37  1  0  0  0  0
 28 27  1  0  0  0  0
 29 28  2  0  0  0  0
 30 38  1  0  0  0  0
 30 28  1  0  0  0  0
 30 39  1  0  0  0  0
 31 40  1  6  0  0  0
 31 30  1  0  0  0  0
 32 41  1  0  0  0  0
 32 31  1  0  0  0  0
 33 31  1  0  0  0  0
 33 34  1  0  0  0  0
 35 33  2  0  0  0  0
M  END
$$$$
