TSR.pdb
 OpenBabel07022419143D

 50 49  0  0  1  0  0  0  0  0999 V2000
    4.2800   -4.2470   -2.3700 C   0  0  0  0  0  0  0  0  0  0  0  0
    3.5450   -3.1740   -3.1420 C   0  0  1  0  0  0  0  0  0  0  0  0
    3.4160   -3.5780   -4.4840 O   0  0  0  0  0  0  0  0  0  0  0  0
    2.1680   -2.9180   -2.5460 C   0  0  2  0  0  0  0  0  0  0  0  0
    1.5060   -1.8840   -3.2910 N   0  0  0  0  0  0  0  0  0  0  0  0
    2.3740   -2.5010   -1.1280 C   0  0  0  0  0  0  0  0  0  0  0  0
    2.9440   -3.2650   -0.3060 O   0  0  0  0  0  0  0  0  0  0  0  0
    3.5370   -4.9070   -1.8710 H   0  0  0  0  0  0  0  0  0  0  0  0
    4.8300   -4.8790   -3.0930 H   0  0  0  0  0  0  0  0  0  0  0  0
    5.0120   -3.8490   -1.6540 H   0  0  0  0  0  0  0  0  0  0  0  0
    4.1850   -2.2610   -3.1160 H   0  0  0  0  0  0  0  0  0  0  0  0
    4.1340   -4.2420   -4.6570 H   0  0  0  0  0  0  0  0  0  0  0  0
    1.6090   -3.8610   -2.6320 H   0  0  0  0  0  0  0  0  0  0  0  0
    0.5730   -1.7350   -2.8750 H   0  0  0  0  0  0  0  0  0  0  0  0
    1.3640   -2.2250   -4.2700 H   0  0  0  0  0  0  0  0  0  0  0  0
    3.1910    0.5570    2.2770 O   0  0  0  0  0  0  0  0  0  0  0  0
    3.0690    0.3260    0.8870 C   0  0  0  0  0  0  0  0  0  0  0  0
    2.1660   -0.8790    0.7470 C   0  0  2  0  0  0  0  0  0  0  0  0
    1.9450   -1.2400   -0.6340 N   0  0  0  0  0  0  0  0  0  0  0  0
    0.8870   -0.6950    1.4840 C   0  0  0  0  0  0  0  0  0  0  0  0
    0.9560   -0.3820    2.6850 O   0  0  0  0  0  0  0  0  0  0  0  0
    3.8580    1.2830    2.3590 H   0  0  0  0  0  0  0  0  0  0  0  0
    4.0840    0.0150    0.5510 H   0  0  0  0  0  0  0  0  0  0  0  0
    2.7190    1.2090    0.3530 H   0  0  0  0  0  0  0  0  0  0  0  0
    2.6860   -1.7220    1.2430 H   0  0  0  0  0  0  0  0  0  0  0  0
    1.4710   -0.5940   -1.2980 H   0  0  0  0  0  0  0  0  0  0  0  0
   -2.7780    4.5230    4.3280 N   0  0  0  0  0  0  0  0  0  0  0  0
   -2.9630    3.1100    4.2830 C   0  0  0  0  0  0  0  0  0  0  0  0
   -2.9870    2.4700    5.4030 N   0  0  0  0  0  0  0  0  0  0  0  0
   -3.1180    2.4050    3.0610 N   0  0  0  0  0  0  0  0  0  0  0  0
   -3.7920    1.1130    3.0220 C   0  0  0  0  0  0  0  0  0  0  0  0
   -3.8510    0.5380    1.6470 C   0  0  0  0  0  0  0  0  0  0  0  0
   -2.5690    0.2800    0.9740 C   0  0  0  0  0  0  0  0  0  0  0  0
   -1.6370   -0.6670    1.6480 C   0  0  2  0  0  0  0  0  0  0  0  0
   -0.3890   -0.8540    0.9010 N   0  0  0  0  0  0  0  0  0  0  0  0
   -2.2580   -2.0160    1.7350 C   0  0  0  0  0  0  0  0  0  0  0  0
   -1.7350   -3.0570    1.2160 O   0  0  0  0  0  0  0  0  0  0  0  0
   -3.4580   -2.2360    2.3940 O   0  0  0  0  0  0  0  0  0  0  0  0
   -3.0840    5.0570    5.1710 H   0  0  0  0  0  0  0  0  0  0  0  0
   -2.3340    5.0120    3.5070 H   0  0  0  0  0  0  0  0  0  0  0  0
   -2.8820    2.9150    6.3240 H   0  0  0  0  0  0  0  0  0  0  0  0
   -2.7510    2.8090    2.1960 H   0  0  0  0  0  0  0  0  0  0  0  0
   -4.8410    1.3280    3.3240 H   0  0  0  0  0  0  0  0  0  0  0  0
   -3.3960    0.4240    3.7880 H   0  0  0  0  0  0  0  0  0  0  0  0
   -4.4020    1.3080    1.0260 H   0  0  0  0  0  0  0  0  0  0  0  0
   -4.5430   -0.3270    1.6620 H   0  0  0  0  0  0  0  0  0  0  0  0
   -2.1010    1.2550    0.7070 H   0  0  0  0  0  0  0  0  0  0  0  0
   -2.8170   -0.1720   -0.0340 H   0  0  0  0  0  0  0  0  0  0  0  0
   -1.3970   -0.3910    2.6950 H   0  0  0  0  0  0  0  0  0  0  0  0
   -0.4080   -1.1170   -0.1080 H   0  0  0  0  0  0  0  0  0  0  0  0
  1  8  1  0  0  0  0
  1 10  1  0  0  0  0
  2 11  1  1  0  0  0
  2  4  1  0  0  0  0
  2  1  1  0  0  0  0
  3  2  1  0  0  0  0
  4 13  1  6  0  0  0
  4  6  1  0  0  0  0
  5 14  1  0  0  0  0
  5  4  1  0  0  0  0
  6 19  1  0  0  0  0
  6  7  2  0  0  0  0
  9  1  1  0  0  0  0
 12  3  1  0  0  0  0
 15  5  1  0  0  0  0
 16 22  1  0  0  0  0
 17 16  1  0  0  0  0
 18 17  1  0  0  0  0
 18 25  1  1  0  0  0
 18 20  1  0  0  0  0
 19 18  1  0  0  0  0
 20 21  2  0  0  0  0
 23 17  1  0  0  0  0
 24 17  1  0  0  0  0
 26 19  1  0  0  0  0
 27 39  1  0  0  0  0
 28 27  1  0  0  0  0
 28 29  2  0  0  0  0
 29 41  1  0  0  0  0
 30 28  1  0  0  0  0
 31 30  1  0  0  0  0
 31 43  1  0  0  0  0
 31 44  1  0  0  0  0
 32 46  1  0  0  0  0
 32 31  1  0  0  0  0
 33 32  1  0  0  0  0
 33 34  1  0  0  0  0
 34 36  1  0  0  0  0
 34 49  1  1  0  0  0
 35 20  1  0  0  0  0
 35 34  1  0  0  0  0
 36 38  1  0  0  0  0
 37 36  2  0  0  0  0
 40 27  1  0  0  0  0
 42 30  1  0  0  0  0
 45 32  1  0  0  0  0
 47 33  1  0  0  0  0
 48 33  1  0  0  0  0
 50 35  1  0  0  0  0
M  END
$$$$
