TSS.pdb
 OpenBabel07022419143D

 38 37  0  0  1  0  0  0  0  0999 V2000
   -0.6220   -4.9250    0.5480 C   0  0  0  0  0  0  0  0  0  0  0  0
   -0.2300   -4.7590   -0.9030 C   0  0  1  0  0  0  0  0  0  0  0  0
   -1.4080   -4.6500   -1.6340 O   0  0  0  0  0  0  0  0  0  0  0  0
    0.6850   -3.5730   -1.1000 C   0  0  2  0  0  0  0  0  0  0  0  0
    1.8700   -3.8090   -0.2880 N   0  0  0  0  0  0  0  0  0  0  0  0
   -0.0090   -2.3570   -0.5550 C   0  0  0  0  0  0  0  0  0  0  0  0
   -1.0700   -1.9220   -1.0730 O   0  0  0  0  0  0  0  0  0  0  0  0
   -0.0410   -5.7420    1.0500 H   0  0  0  0  0  0  0  0  0  0  0  0
   -1.6890   -5.1520    0.6900 H   0  0  0  0  0  0  0  0  0  0  0  0
   -0.3750   -3.9980    1.1320 H   0  0  0  0  0  0  0  0  0  0  0  0
    0.3500   -5.6650   -1.1990 H   0  0  0  0  0  0  0  0  0  0  0  0
   -2.1730   -5.0550   -1.1270 H   0  0  0  0  0  0  0  0  0  0  0  0
    0.9440   -3.4400   -2.1550 H   0  0  0  0  0  0  0  0  0  0  0  0
    1.6290   -4.0990    0.6770 H   0  0  0  0  0  0  0  0  0  0  0  0
    2.5050   -2.9860   -0.2810 H   0  0  0  0  0  0  0  0  0  0  0  0
   -1.3220    0.5040    2.8590 O   0  0  0  0  0  0  0  0  0  0  0  0
   -0.6660   -0.6590    2.4790 C   0  0  0  0  0  0  0  0  0  0  0  0
   -0.1990   -0.4810    1.0580 C   0  0  2  0  0  0  0  0  0  0  0  0
    0.4910   -1.6460    0.5580 N   0  0  0  0  0  0  0  0  0  0  0  0
    0.6950    0.6900    0.9150 C   0  0  0  0  0  0  0  0  0  0  0  0
    1.8620    0.4830    0.4710 O   0  0  0  0  0  0  0  0  0  0  0  0
   -2.2910    0.4250    2.8220 H   0  0  0  0  0  0  0  0  0  0  0  0
    0.1500   -0.8270    3.1940 H   0  0  0  0  0  0  0  0  0  0  0  0
   -1.4210   -1.4730    2.4820 H   0  0  0  0  0  0  0  0  0  0  0  0
   -1.0950   -0.3020    0.4410 H   0  0  0  0  0  0  0  0  0  0  0  0
    1.3590   -1.9390    1.0410 H   0  0  0  0  0  0  0  0  0  0  0  0
   -0.5090    4.6170    0.5480 O   0  0  0  0  0  0  0  0  0  0  0  0
    0.7270    4.1490    0.0690 C   0  0  0  0  0  0  0  0  0  0  0  0
    1.2840    3.1350    1.0710 C   0  0  2  0  0  0  0  0  0  0  0  0
    0.3720    2.0180    1.2260 N   0  0  0  0  0  0  0  0  0  0  0  0
    1.4970    3.7670    2.3840 C   0  0  0  0  0  0  0  0  0  0  0  0
    2.2520    4.7550    2.4830 O   0  0  0  0  0  0  0  0  0  0  0  0
    0.8700    3.2780    3.5070 O   0  0  0  0  0  0  0  0  0  0  0  0
   -0.5090    5.5910    0.5480 H   0  0  0  0  0  0  0  0  0  0  0  0
    1.4350    4.9880    0.0030 H   0  0  0  0  0  0  0  0  0  0  0  0
    0.5710    3.6500   -0.8990 H   0  0  0  0  0  0  0  0  0  0  0  0
    2.2700    2.8260    0.6790 H   0  0  0  0  0  0  0  0  0  0  0  0
   -0.5770    2.2390    1.5850 H   0  0  0  0  0  0  0  0  0  0  0  0
  1  9  1  0  0  0  0
  1  8  1  0  0  0  0
  1 10  1  0  0  0  0
  2 11  1  6  0  0  0
  2  1  1  0  0  0  0
  3 12  1  0  0  0  0
  3  2  1  0  0  0  0
  4 13  1  6  0  0  0
  4  2  1  0  0  0  0
  4  6  1  0  0  0  0
  4  5  1  0  0  0  0
  5 15  1  0  0  0  0
  5 14  1  0  0  0  0
  6 19  1  0  0  0  0
  7  6  2  0  0  0  0
 17 24  1  0  0  0  0
 17 16  1  0  0  0  0
 17 23  1  0  0  0  0
 18 25  1  6  0  0  0
 18 17  1  0  0  0  0
 19 26  1  0  0  0  0
 19 18  1  0  0  0  0
 20 18  1  0  0  0  0
 20 30  1  0  0  0  0
 21 20  2  0  0  0  0
 22 16  1  0  0  0  0
 28 27  1  0  0  0  0
 28 29  1  0  0  0  0
 29 37  1  6  0  0  0
 29 30  1  0  0  0  0
 29 31  1  0  0  0  0
 30 38  1  0  0  0  0
 31 32  2  0  0  0  0
 31 33  1  0  0  0  0
 34 27  1  0  0  0  0
 35 28  1  0  0  0  0
 36 28  1  0  0  0  0
M  END
$$$$
