TST.pdb
 OpenBabel07022419143D

 41 40  0  0  1  0  0  0  0  0999 V2000
    1.4620   -5.8600   -0.2110 C   0  0  0  0  0  0  0  0  0  0  0  0
    0.5740   -4.7320   -0.6520 C   0  0  1  0  0  0  0  0  0  0  0  0
   -0.7080   -4.9650   -0.2010 O   0  0  0  0  0  0  0  0  0  0  0  0
    1.1030   -3.3890   -0.1420 C   0  0  2  0  0  0  0  0  0  0  0  0
    1.0850   -3.4700    1.3020 N   0  0  0  0  0  0  0  0  0  0  0  0
    0.2330   -2.2770   -0.5630 C   0  0  0  0  0  0  0  0  0  0  0  0
    0.0480   -1.9620   -1.7670 O   0  0  0  0  0  0  0  0  0  0  0  0
    0.9010   -6.5870    0.3770 H   0  0  0  0  0  0  0  0  0  0  0  0
    1.9040   -6.4030   -1.0720 H   0  0  0  0  0  0  0  0  0  0  0  0
    2.3150   -5.5200    0.4100 H   0  0  0  0  0  0  0  0  0  0  0  0
    0.5970   -4.7000   -1.7720 H   0  0  0  0  0  0  0  0  0  0  0  0
   -0.7320   -5.4230    0.6790 H   0  0  0  0  0  0  0  0  0  0  0  0
    2.1390   -3.3020   -0.4830 H   0  0  0  0  0  0  0  0  0  0  0  0
    1.9140   -3.9610    1.6930 H   0  0  0  0  0  0  0  0  0  0  0  0
    0.1780   -3.7820    1.6890 H   0  0  0  0  0  0  0  0  0  0  0  0
   -3.4050    0.6420    0.0010 O   0  0  0  0  0  0  0  0  0  0  0  0
   -2.7170   -0.4890    0.4790 C   0  0  0  0  0  0  0  0  0  0  0  0
   -1.3120   -0.3920   -0.0010 C   0  0  2  0  0  0  0  0  0  0  0  0
   -0.4670   -1.4720    0.3980 N   0  0  0  0  0  0  0  0  0  0  0  0
   -0.7070    0.8790    0.5400 C   0  0  0  0  0  0  0  0  0  0  0  0
   -1.2440    1.9870    0.3390 O   0  0  0  0  0  0  0  0  0  0  0  0
   -3.3690    0.7020   -0.9810 H   0  0  0  0  0  0  0  0  0  0  0  0
   -2.8120   -0.4700    1.5700 H   0  0  0  0  0  0  0  0  0  0  0  0
   -3.2100   -1.3590   -0.0010 H   0  0  0  0  0  0  0  0  0  0  0  0
   -1.3060   -0.3240   -1.1070 H   0  0  0  0  0  0  0  0  0  0  0  0
   -0.3660   -1.6700    1.4160 H   0  0  0  0  0  0  0  0  0  0  0  0
    2.6470    3.9200    1.4960 C   0  0  0  0  0  0  0  0  0  0  0  0
    1.9610    2.7330    0.8600 C   0  0  1  0  0  0  0  0  0  0  0  0
    2.9300    1.8230    0.3720 O   0  0  0  0  0  0  0  0  0  0  0  0
    1.1540    1.9880    1.8650 C   0  0  2  0  0  0  0  0  0  0  0  0
    0.5020    0.8320    1.2980 N   0  0  0  0  0  0  0  0  0  0  0  0
    0.2300    2.8590    2.6420 C   0  0  0  0  0  0  0  0  0  0  0  0
   -0.9560    2.5350    2.8010 O   0  0  0  0  0  0  0  0  0  0  0  0
    0.7020    4.0250    3.1810 O   0  0  0  0  0  0  0  0  0  0  0  0
    2.0140    4.8250    1.4370 H   0  0  0  0  0  0  0  0  0  0  0  0
    3.6270    4.1380    0.9980 H   0  0  0  0  0  0  0  0  0  0  0  0
    2.9020    3.6400    2.5380 H   0  0  0  0  0  0  0  0  0  0  0  0
    1.3700    3.0940    0.0000 H   0  0  0  0  0  0  0  0  0  0  0  0
    3.7770    1.9180    0.8980 H   0  0  0  0  0  0  0  0  0  0  0  0
    1.8710    1.5920    2.6570 H   0  0  0  0  0  0  0  0  0  0  0  0
    0.9620   -0.1180    1.4590 H   0  0  0  0  0  0  0  0  0  0  0  0
  1  8  1  0  0  0  0
  1 10  1  0  0  0  0
  2 11  1  6  0  0  0
  2  1  1  0  0  0  0
  2  3  1  0  0  0  0
  2  4  1  0  0  0  0
  3 12  1  0  0  0  0
  4 13  1  6  0  0  0
  4  5  1  0  0  0  0
  5 15  1  0  0  0  0
  5 14  1  0  0  0  0
  6  4  1  0  0  0  0
  6 19  1  0  0  0  0
  7  6  2  0  0  0  0
  9  1  1  0  0  0  0
 16 17  1  0  0  0  0
 17 23  1  0  0  0  0
 18 25  1  6  0  0  0
 18 19  1  0  0  0  0
 18 17  1  0  0  0  0
 18 20  1  0  0  0  0
 19 26  1  0  0  0  0
 20 31  1  0  0  0  0
 21 20  2  0  0  0  0
 22 16  1  0  0  0  0
 24 17  1  0  0  0  0
 27 37  1  0  0  0  0
 28 38  1  6  0  0  0
 28 27  1  0  0  0  0
 28 30  1  0  0  0  0
 29 28  1  0  0  0  0
 29 39  1  0  0  0  0
 30 32  1  0  0  0  0
 30 40  1  1  0  0  0
 31 41  1  0  0  0  0
 31 30  1  0  0  0  0
 32 33  2  0  0  0  0
 32 34  1  0  0  0  0
 35 27  1  0  0  0  0
 36 27  1  0  0  0  0
M  END
$$$$
