TSV.pdb
 OpenBabel07022419143D

 43 42  0  0  1  0  0  0  0  0999 V2000
    0.2330   -5.0170   -0.5860 C   0  0  0  0  0  0  0  0  0  0  0  0
    0.7470   -4.2040   -1.7270 C   0  0  1  0  0  0  0  0  0  0  0  0
   -0.2100   -4.2280   -2.7490 O   0  0  0  0  0  0  0  0  0  0  0  0
    1.0770   -2.7840   -1.3370 C   0  0  2  0  0  0  0  0  0  0  0  0
    2.0550   -2.7730   -0.2940 N   0  0  0  0  0  0  0  0  0  0  0  0
   -0.1350   -2.0190   -0.9220 C   0  0  0  0  0  0  0  0  0  0  0  0
   -1.1160   -1.9050   -1.6960 O   0  0  0  0  0  0  0  0  0  0  0  0
   -0.6460   -4.5490   -0.0830 H   0  0  0  0  0  0  0  0  0  0  0  0
    1.0140   -5.3190    0.1450 H   0  0  0  0  0  0  0  0  0  0  0  0
   -0.1520   -5.9790   -1.0130 H   0  0  0  0  0  0  0  0  0  0  0  0
    1.6560   -4.6640   -2.1200 H   0  0  0  0  0  0  0  0  0  0  0  0
   -0.3640   -5.1470   -3.0680 H   0  0  0  0  0  0  0  0  0  0  0  0
    1.5000   -2.2400   -2.2060 H   0  0  0  0  0  0  0  0  0  0  0  0
    3.0010   -3.0360   -0.5790 H   0  0  0  0  0  0  0  0  0  0  0  0
    1.7020   -3.1720    0.5810 H   0  0  0  0  0  0  0  0  0  0  0  0
   -1.2700   -1.1420    3.0130 O   0  0  0  0  0  0  0  0  0  0  0  0
   -2.1300   -1.2100    1.9090 C   0  0  0  0  0  0  0  0  0  0  0  0
   -1.4240   -0.6740    0.6850 C   0  0  2  0  0  0  0  0  0  0  0  0
   -0.2430   -1.3900    0.3440 N   0  0  0  0  0  0  0  0  0  0  0  0
   -1.1440    0.7770    0.9720 C   0  0  0  0  0  0  0  0  0  0  0  0
   -2.1030    1.5250    1.2880 O   0  0  0  0  0  0  0  0  0  0  0  0
   -1.7290   -1.2590    3.8640 H   0  0  0  0  0  0  0  0  0  0  0  0
   -2.5680   -2.1980    1.7720 H   0  0  0  0  0  0  0  0  0  0  0  0
   -2.9620   -0.5050    2.1230 H   0  0  0  0  0  0  0  0  0  0  0  0
   -2.1480   -0.7060   -0.1430 H   0  0  0  0  0  0  0  0  0  0  0  0
    0.5440   -1.4520    1.0290 H   0  0  0  0  0  0  0  0  0  0  0  0
    0.6100    2.2410    3.6210 C   0  0  0  0  0  0  0  0  0  0  0  0
    1.3320    2.8030    2.4140 C   0  0  0  0  0  0  0  0  0  0  0  0
    2.5850    1.9550    2.2290 C   0  0  0  0  0  0  0  0  0  0  0  0
    0.4590    2.7170    1.1700 C   0  0  2  0  0  0  0  0  0  0  0  0
    0.1280    1.3530    0.9100 N   0  0  0  0  0  0  0  0  0  0  0  0
    1.0520    3.4230    0.0280 C   0  0  0  0  0  0  0  0  0  0  0  0
    1.2420    2.8490   -1.0770 O   0  0  0  0  0  0  0  0  0  0  0  0
    1.4400    4.7540    0.0860 O   0  0  0  0  0  0  0  0  0  0  0  0
    0.6200    1.1250    3.5020 H   0  0  0  0  0  0  0  0  0  0  0  0
    1.1760    2.4940    4.5240 H   0  0  0  0  0  0  0  0  0  0  0  0
   -0.4490    2.5680    3.6590 H   0  0  0  0  0  0  0  0  0  0  0  0
    1.6130    3.8430    2.6470 H   0  0  0  0  0  0  0  0  0  0  0  0
    3.3350    2.2770    2.9640 H   0  0  0  0  0  0  0  0  0  0  0  0
    2.9830    2.0420    1.2010 H   0  0  0  0  0  0  0  0  0  0  0  0
    2.2990    0.9120    2.4900 H   0  0  0  0  0  0  0  0  0  0  0  0
   -0.4960    3.2380    1.4310 H   0  0  0  0  0  0  0  0  0  0  0  0
    0.9320    0.7110    0.6420 H   0  0  0  0  0  0  0  0  0  0  0  0
  1  8  1  0  0  0  0
  1  9  1  0  0  0  0
  2 11  1  6  0  0  0
  2  4  1  0  0  0  0
  2  1  1  0  0  0  0
  3  2  1  0  0  0  0
  4 13  1  6  0  0  0
  4  6  1  0  0  0  0
  4  5  1  0  0  0  0
  5 15  1  0  0  0  0
  6 19  1  0  0  0  0
  7  6  2  0  0  0  0
 10  1  1  0  0  0  0
 12  3  1  0  0  0  0
 14  5  1  0  0  0  0
 16 22  1  0  0  0  0
 17 24  1  0  0  0  0
 17 16  1  0  0  0  0
 18 25  1  6  0  0  0
 18 20  1  0  0  0  0
 18 17  1  0  0  0  0
 19 18  1  0  0  0  0
 19 26  1  0  0  0  0
 20 21  2  0  0  0  0
 23 17  1  0  0  0  0
 27 37  1  0  0  0  0
 27 36  1  0  0  0  0
 28 38  1  0  0  0  0
 28 27  1  0  0  0  0
 29 28  1  0  0  0  0
 29 41  1  0  0  0  0
 29 39  1  0  0  0  0
 30 42  1  1  0  0  0
 30 28  1  0  0  0  0
 31 20  1  0  0  0  0
 31 30  1  0  0  0  0
 32 34  1  0  0  0  0
 32 30  1  0  0  0  0
 33 32  2  0  0  0  0
 35 27  1  0  0  0  0
 40 29  1  0  0  0  0
 43 31  1  0  0  0  0
M  END
$$$$
