TTC.pdb
 OpenBabel07022419143D

 41 40  0  0  1  0  0  0  0  0999 V2000
   -1.8350   -3.3510    1.1120 C   0  0  0  0  0  0  0  0  0  0  0  0
   -1.4500   -2.9510   -0.3020 C   0  0  1  0  0  0  0  0  0  0  0  0
   -1.8100   -1.6440   -0.5560 O   0  0  0  0  0  0  0  0  0  0  0  0
   -0.0540   -3.3130   -0.5970 C   0  0  2  0  0  0  0  0  0  0  0  0
    0.1270   -4.7140   -0.2660 N   0  0  0  0  0  0  0  0  0  0  0  0
    1.0240   -2.5410   -0.0530 C   0  0  0  0  0  0  0  0  0  0  0  0
    1.9230   -3.1400    0.5960 O   0  0  0  0  0  0  0  0  0  0  0  0
   -2.9190   -3.5870    1.2010 H   0  0  0  0  0  0  0  0  0  0  0  0
   -1.6200   -2.5610    1.8500 H   0  0  0  0  0  0  0  0  0  0  0  0
   -1.3050   -4.3050    1.3830 H   0  0  0  0  0  0  0  0  0  0  0  0
   -2.1160   -3.5650   -0.9500 H   0  0  0  0  0  0  0  0  0  0  0  0
   -2.7950   -1.5780   -0.5920 H   0  0  0  0  0  0  0  0  0  0  0  0
    0.0630   -3.2760   -1.7270 H   0  0  0  0  0  0  0  0  0  0  0  0
    0.2870   -5.3280   -1.0670 H   0  0  0  0  0  0  0  0  0  0  0  0
    0.8830   -4.8790    0.4240 H   0  0  0  0  0  0  0  0  0  0  0  0
    2.3800    1.2710   -1.4200 C   0  0  0  0  0  0  0  0  0  0  0  0
    3.1650    0.2610   -0.6320 C   0  0  1  0  0  0  0  0  0  0  0  0
    4.2330    0.9240   -0.0300 O   0  0  0  0  0  0  0  0  0  0  0  0
    2.3250   -0.4310    0.4190 C   0  0  2  0  0  0  0  0  0  0  0  0
    1.2040   -1.1320   -0.1630 N   0  0  0  0  0  0  0  0  0  0  0  0
    1.8400    0.5280    1.4480 C   0  0  0  0  0  0  0  0  0  0  0  0
    2.6330    1.2490    2.0870 O   0  0  0  0  0  0  0  0  0  0  0  0
    1.3240    1.3190   -1.1550 H   0  0  0  0  0  0  0  0  0  0  0  0
    2.4210    1.0520   -2.5240 H   0  0  0  0  0  0  0  0  0  0  0  0
    2.7900    2.3010   -1.3210 H   0  0  0  0  0  0  0  0  0  0  0  0
    3.5630   -0.4870   -1.3200 H   0  0  0  0  0  0  0  0  0  0  0  0
    4.8980    1.1350   -0.7510 H   0  0  0  0  0  0  0  0  0  0  0  0
    2.9850   -1.1520    0.9400 H   0  0  0  0  0  0  0  0  0  0  0  0
    0.4640   -0.6350   -0.6980 H   0  0  0  0  0  0  0  0  0  0  0  0
    0.4570    0.6560    1.7370 N   0  0  0  0  0  0  0  0  0  0  0  0
   -0.1110    1.5380    2.6980 C   0  0  1  0  0  0  0  0  0  0  0  0
   -1.0270    2.5790    2.1130 C   0  0  0  0  0  0  0  0  0  0  0  0
   -0.0860    3.5820    0.9400 S   0  0  0  0  0  0  0  0  0  0  0  0
   -0.7400    0.7580    3.7720 C   0  0  0  0  0  0  0  0  0  0  0  0
   -1.3120    1.3300    4.7410 O   0  0  0  0  0  0  0  0  0  0  0  0
   -0.7060   -0.6220    3.7230 O   0  0  0  0  0  0  0  0  0  0  0  0
   -0.1960    0.0510    1.2000 H   0  0  0  0  0  0  0  0  0  0  0  0
    0.7330    2.1120    3.1800 H   0  0  0  0  0  0  0  0  0  0  0  0
   -1.3310    3.2490    2.9450 H   0  0  0  0  0  0  0  0  0  0  0  0
   -1.9480    2.1650    1.6770 H   0  0  0  0  0  0  0  0  0  0  0  0
    0.6910    4.5500    1.5610 H   0  0  0  0  0  0  0  0  0  0  0  0
  1  8  1  0  0  0  0
  1 10  1  0  0  0  0
  1  9  1  0  0  0  0
  2 11  1  6  0  0  0
  2  1  1  0  0  0  0
  3  2  1  0  0  0  0
  4 13  1  6  0  0  0
  4  2  1  0  0  0  0
  4  5  1  0  0  0  0
  4  6  1  0  0  0  0
  5 15  1  0  0  0  0
  6  7  2  0  0  0  0
 12  3  1  0  0  0  0
 14  5  1  0  0  0  0
 16 25  1  0  0  0  0
 16 23  1  0  0  0  0
 16 17  1  0  0  0  0
 17 26  1  6  0  0  0
 17 18  1  0  0  0  0
 17 19  1  0  0  0  0
 19 28  1  1  0  0  0
 19 21  1  0  0  0  0
 20  6  1  0  0  0  0
 20 19  1  0  0  0  0
 21 30  1  0  0  0  0
 21 22  2  0  0  0  0
 24 16  1  0  0  0  0
 27 18  1  0  0  0  0
 29 20  1  0  0  0  0
 30 31  1  0  0  0  0
 31 38  1  1  0  0  0
 31 34  1  0  0  0  0
 32 31  1  0  0  0  0
 32 39  1  0  0  0  0
 33 41  1  0  0  0  0
 33 32  1  0  0  0  0
 34 35  1  0  0  0  0
 36 34  2  0  0  0  0
 37 30  1  0  0  0  0
 40 32  1  0  0  0  0
M  END
$$$$
