TTE.pdb
 OpenBabel07022419143D

 46 45  0  0  1  0  0  0  0  0999 V2000
   -0.3000   -4.5680   -0.8890 C   0  0  0  0  0  0  0  0  0  0  0  0
    0.0880   -3.2590   -0.2160 C   0  0  1  0  0  0  0  0  0  0  0  0
    0.0510   -3.4940    1.1560 O   0  0  0  0  0  0  0  0  0  0  0  0
    1.4610   -2.8930   -0.6910 C   0  0  2  0  0  0  0  0  0  0  0  0
    2.3400   -4.0010   -0.3730 N   0  0  0  0  0  0  0  0  0  0  0  0
    2.0040   -1.6640   -0.1420 C   0  0  0  0  0  0  0  0  0  0  0  0
    3.0870   -1.7070    0.4940 O   0  0  0  0  0  0  0  0  0  0  0  0
   -0.0360   -5.4490   -0.2720 H   0  0  0  0  0  0  0  0  0  0  0  0
    0.2030   -4.5920   -1.8780 H   0  0  0  0  0  0  0  0  0  0  0  0
   -1.4030   -4.5760   -1.1110 H   0  0  0  0  0  0  0  0  0  0  0  0
   -0.6920   -2.5330   -0.4530 H   0  0  0  0  0  0  0  0  0  0  0  0
    0.8280   -4.0350    1.4430 H   0  0  0  0  0  0  0  0  0  0  0  0
    1.4680   -2.8080   -1.8030 H   0  0  0  0  0  0  0  0  0  0  0  0
    2.5510   -4.6060   -1.1870 H   0  0  0  0  0  0  0  0  0  0  0  0
    3.1790   -3.6890    0.1590 H   0  0  0  0  0  0  0  0  0  0  0  0
    2.9320    3.0510   -0.0710 C   0  0  0  0  0  0  0  0  0  0  0  0
    2.2680    1.8740   -0.7530 C   0  0  1  0  0  0  0  0  0  0  0  0
    3.2430    1.3080   -1.5870 O   0  0  0  0  0  0  0  0  0  0  0  0
    1.9250    0.8390    0.2720 C   0  0  2  0  0  0  0  0  0  0  0  0
    1.4100   -0.3760   -0.2580 N   0  0  0  0  0  0  0  0  0  0  0  0
    1.0180    1.3400    1.3340 C   0  0  0  0  0  0  0  0  0  0  0  0
    1.2590    2.4060    1.9550 O   0  0  0  0  0  0  0  0  0  0  0  0
    2.1980    3.8030    0.2880 H   0  0  0  0  0  0  0  0  0  0  0  0
    3.5380    2.7530    0.8040 H   0  0  0  0  0  0  0  0  0  0  0  0
    3.6240    3.5970   -0.7520 H   0  0  0  0  0  0  0  0  0  0  0  0
    1.4050    2.2630   -1.3020 H   0  0  0  0  0  0  0  0  0  0  0  0
    3.5940    2.0750   -2.1390 H   0  0  0  0  0  0  0  0  0  0  0  0
    2.8920    0.5840    0.8000 H   0  0  0  0  0  0  0  0  0  0  0  0
    0.5110   -0.3340   -0.7850 H   0  0  0  0  0  0  0  0  0  0  0  0
   -0.1710    0.6580    1.7150 N   0  0  0  0  0  0  0  0  0  0  0  0
   -1.0620    1.1570    2.7620 C   0  0  1  0  0  0  0  0  0  0  0  0
   -2.3750    1.5780    2.2320 C   0  0  0  0  0  0  0  0  0  0  0  0
   -3.1780    0.5920    1.4880 C   0  0  0  0  0  0  0  0  0  0  0  0
   -3.6350   -0.6150    2.1200 C   0  0  0  0  0  0  0  0  0  0  0  0
   -3.4810   -0.9410    3.2930 O   0  0  0  0  0  0  0  0  0  0  0  0
   -1.1190    0.3220    3.9580 C   0  0  0  0  0  0  0  0  0  0  0  0
   -0.5230   -0.7980    4.0200 O   0  0  0  0  0  0  0  0  0  0  0  0
   -4.3410   -1.5360    1.3150 O   0  0  0  0  0  0  0  0  0  0  0  0
   -1.8250    0.6940    5.1120 O   0  0  0  0  0  0  0  0  0  0  0  0
   -0.4400   -0.2250    1.2520 H   0  0  0  0  0  0  0  0  0  0  0  0
   -0.5930    2.1480    3.1520 H   0  0  0  0  0  0  0  0  0  0  0  0
   -2.2770    2.4860    1.5490 H   0  0  0  0  0  0  0  0  0  0  0  0
   -3.0230    1.9930    3.0650 H   0  0  0  0  0  0  0  0  0  0  0  0
   -2.6890    0.3770    0.4710 H   0  0  0  0  0  0  0  0  0  0  0  0
   -4.1230    1.1600    1.1580 H   0  0  0  0  0  0  0  0  0  0  0  0
   -4.9570   -2.2260    1.7680 H   0  0  0  0  0  0  0  0  0  0  0  0
  1  8  1  0  0  0  0
  1  2  1  0  0  0  0
  2 11  1  6  0  0  0
  2  3  1  0  0  0  0
  3 12  1  0  0  0  0
  4 13  1  6  0  0  0
  4  5  1  0  0  0  0
  4  2  1  0  0  0  0
  4  6  1  0  0  0  0
  5 15  1  0  0  0  0
  6  7  2  0  0  0  0
  9  1  1  0  0  0  0
 10  1  1  0  0  0  0
 14  5  1  0  0  0  0
 16 23  1  0  0  0  0
 16 24  1  0  0  0  0
 17 26  1  6  0  0  0
 17 16  1  0  0  0  0
 17 19  1  0  0  0  0
 18 17  1  0  0  0  0
 19 28  1  1  0  0  0
 19 21  1  0  0  0  0
 20  6  1  0  0  0  0
 20 19  1  0  0  0  0
 21 30  1  0  0  0  0
 21 22  2  0  0  0  0
 25 16  1  0  0  0  0
 27 18  1  0  0  0  0
 29 20  1  0  0  0  0
 30 31  1  0  0  0  0
 31 41  1  1  0  0  0
 31 36  1  0  0  0  0
 32 31  1  0  0  0  0
 32 43  1  0  0  0  0
 33 34  1  0  0  0  0
 33 32  1  0  0  0  0
 34 35  2  0  0  0  0
 36 37  2  0  0  0  0
 36 39  1  0  0  0  0
 38 46  1  0  0  0  0
 38 34  1  0  0  0  0
 40 30  1  0  0  0  0
 42 32  1  0  0  0  0
 44 33  1  0  0  0  0
 45 33  1  0  0  0  0
M  END
$$$$
