TTF.pdb
 OpenBabel07022419143D

 50 50  0  0  1  0  0  0  0  0999 V2000
    0.1280   -4.7870    0.9010 C   0  0  0  0  0  0  0  0  0  0  0  0
    0.0220   -3.3740    1.3730 C   0  0  1  0  0  0  0  0  0  0  0  0
   -1.2650   -3.1250    1.8230 O   0  0  0  0  0  0  0  0  0  0  0  0
    0.9940   -3.1770    2.5160 C   0  0  2  0  0  0  0  0  0  0  0  0
    0.7160   -4.0680    3.6200 N   0  0  0  0  0  0  0  0  0  0  0  0
    0.9790   -1.7860    3.0230 C   0  0  0  0  0  0  0  0  0  0  0  0
    0.7520   -1.5500    4.2270 O   0  0  0  0  0  0  0  0  0  0  0  0
    0.1520   -4.8120   -0.1950 H   0  0  0  0  0  0  0  0  0  0  0  0
    1.0190   -5.2890    1.3210 H   0  0  0  0  0  0  0  0  0  0  0  0
   -0.7770   -5.3700    1.2100 H   0  0  0  0  0  0  0  0  0  0  0  0
    0.3420   -2.6980    0.5620 H   0  0  0  0  0  0  0  0  0  0  0  0
   -1.9290   -3.3100    1.1120 H   0  0  0  0  0  0  0  0  0  0  0  0
    1.9980   -3.4650    2.1210 H   0  0  0  0  0  0  0  0  0  0  0  0
    0.0960   -4.8250    3.2500 H   0  0  0  0  0  0  0  0  0  0  0  0
    0.1520   -3.5390    4.3390 H   0  0  0  0  0  0  0  0  0  0  0  0
    3.6080    0.6380    3.3780 C   0  0  0  0  0  0  0  0  0  0  0  0
    2.6090    1.2880    2.4620 C   0  0  1  0  0  0  0  0  0  0  0  0
    3.0250    1.2440    1.1240 O   0  0  0  0  0  0  0  0  0  0  0  0
    1.2150    0.7030    2.6180 C   0  0  2  0  0  0  0  0  0  0  0  0
    1.2170   -0.6580    2.1840 N   0  0  0  0  0  0  0  0  0  0  0  0
    0.2970    1.5660    1.8480 C   0  0  0  0  0  0  0  0  0  0  0  0
    0.2160    2.7850    2.1480 O   0  0  0  0  0  0  0  0  0  0  0  0
    4.4030    0.0960    2.8280 H   0  0  0  0  0  0  0  0  0  0  0  0
    4.1260    1.4030    3.9990 H   0  0  0  0  0  0  0  0  0  0  0  0
    3.0920   -0.0370    4.0860 H   0  0  0  0  0  0  0  0  0  0  0  0
    2.5290    2.3640    2.7230 H   0  0  0  0  0  0  0  0  0  0  0  0
    4.0010    1.2540    1.0440 H   0  0  0  0  0  0  0  0  0  0  0  0
    0.9990    0.7090    3.7070 H   0  0  0  0  0  0  0  0  0  0  0  0
    1.4070   -0.8570    1.1780 H   0  0  0  0  0  0  0  0  0  0  0  0
   -0.5170    1.1210    0.7760 N   0  0  0  0  0  0  0  0  0  0  0  0
   -1.4140    1.9600    0.0230 C   0  0  1  0  0  0  0  0  0  0  0  0
   -1.0700    2.0180   -1.4460 C   0  0  0  0  0  0  0  0  0  0  0  0
   -1.1060    0.7160   -2.1140 C   0  0  0  0  0  0  0  0  0  0  0  0
   -2.2670    0.2680   -2.6930 C   0  0  0  0  0  0  0  0  0  0  0  0
   -2.3170   -0.9790   -3.3370 C   0  0  0  0  0  0  0  0  0  0  0  0
   -1.1850   -1.7590   -3.3870 C   0  0  0  0  0  0  0  0  0  0  0  0
   -0.0290   -1.3290   -2.8200 C   0  0  0  0  0  0  0  0  0  0  0  0
    0.0070   -0.0860   -2.1820 C   0  0  0  0  0  0  0  0  0  0  0  0
   -2.7890    1.4720    0.2540 C   0  0  0  0  0  0  0  0  0  0  0  0
   -3.0460    0.4950    0.9870 O   0  0  0  0  0  0  0  0  0  0  0  0
   -3.8390    2.1190   -0.3620 O   0  0  0  0  0  0  0  0  0  0  0  0
   -0.4590    0.1120    0.5180 H   0  0  0  0  0  0  0  0  0  0  0  0
   -1.3960    3.0220    0.3850 H   0  0  0  0  0  0  0  0  0  0  0  0
   -0.0840    2.5310   -1.5480 H   0  0  0  0  0  0  0  0  0  0  0  0
   -1.8060    2.7480   -1.8970 H   0  0  0  0  0  0  0  0  0  0  0  0
   -3.1970    0.8190   -2.6970 H   0  0  0  0  0  0  0  0  0  0  0  0
   -3.2150   -1.3440   -3.7930 H   0  0  0  0  0  0  0  0  0  0  0  0
   -1.1730   -2.7420   -3.8790 H   0  0  0  0  0  0  0  0  0  0  0  0
    0.8790   -1.9090   -2.8370 H   0  0  0  0  0  0  0  0  0  0  0  0
    0.9440    0.2240   -1.7410 H   0  0  0  0  0  0  0  0  0  0  0  0
  1 10  1  0  0  0  0
  1  9  1  0  0  0  0
  1  2  1  0  0  0  0
  2 11  1  6  0  0  0
  2  3  1  0  0  0  0
  2  4  1  0  0  0  0
  4 13  1  6  0  0  0
  4  6  1  0  0  0  0
  4  5  1  0  0  0  0
  5 15  1  0  0  0  0
  6  7  2  0  0  0  0
  8  1  1  0  0  0  0
 12  3  1  0  0  0  0
 14  5  1  0  0  0  0
 16 24  1  0  0  0  0
 16 25  1  0  0  0  0
 17 19  1  0  0  0  0
 17 26  1  1  0  0  0
 17 16  1  0  0  0  0
 18 17  1  0  0  0  0
 19 28  1  1  0  0  0
 20 19  1  0  0  0  0
 20  6  1  0  0  0  0
 21 22  2  0  0  0  0
 21 19  1  0  0  0  0
 23 16  1  0  0  0  0
 27 18  1  0  0  0  0
 29 20  1  0  0  0  0
 30 21  1  0  0  0  0
 31 39  1  0  0  0  0
 31 43  1  1  0  0  0
 31 30  1  0  0  0  0
 32 31  1  0  0  0  0
 33 32  1  0  0  0  0
 34 33  2  0  0  0  0
 35 34  1  0  0  0  0
 36 35  2  0  0  0  0
 36 37  1  0  0  0  0
 37 38  2  0  0  0  0
 38 33  1  0  0  0  0
 38 50  1  0  0  0  0
 39 40  1  0  0  0  0
 41 39  2  0  0  0  0
 42 30  1  0  0  0  0
 44 32  1  0  0  0  0
 45 32  1  0  0  0  0
 46 34  1  0  0  0  0
 47 35  1  0  0  0  0
 48 36  1  0  0  0  0
 49 37  1  0  0  0  0
M  END
$$$$
