TTG.pdb
 OpenBabel07022419143D

 37 36  0  0  1  0  0  0  0  0999 V2000
   -1.5370   -2.9950    1.1140 C   0  0  0  0  0  0  0  0  0  0  0  0
   -2.7080   -2.4990    0.2930 C   0  0  1  0  0  0  0  0  0  0  0  0
   -3.9000   -3.0920    0.7890 O   0  0  0  0  0  0  0  0  0  0  0  0
   -2.9190   -1.0140    0.5090 C   0  0  2  0  0  0  0  0  0  0  0  0
   -4.1430   -0.6700   -0.2600 N   0  0  0  0  0  0  0  0  0  0  0  0
   -1.8060   -0.1740    0.0270 C   0  0  0  0  0  0  0  0  0  0  0  0
   -1.9690    0.4860   -1.0260 O   0  0  0  0  0  0  0  0  0  0  0  0
   -1.6390   -2.5560    2.1240 H   0  0  0  0  0  0  0  0  0  0  0  0
   -0.5740   -2.7650    0.6300 H   0  0  0  0  0  0  0  0  0  0  0  0
   -1.5940   -4.1200    1.2340 H   0  0  0  0  0  0  0  0  0  0  0  0
   -2.6370   -2.7860   -0.7570 H   0  0  0  0  0  0  0  0  0  0  0  0
   -3.6290   -3.8970    1.3080 H   0  0  0  0  0  0  0  0  0  0  0  0
   -3.1820   -0.8690    1.5670 H   0  0  0  0  0  0  0  0  0  0  0  0
   -4.0690    0.3510   -0.4710 H   0  0  0  0  0  0  0  0  0  0  0  0
   -4.1560   -1.2740   -1.0980 H   0  0  0  0  0  0  0  0  0  0  0  0
    0.7990    1.1500    2.7160 C   0  0  0  0  0  0  0  0  0  0  0  0
    0.7300    1.7660    1.3420 C   0  0  1  0  0  0  0  0  0  0  0  0
    1.7610    2.6420    1.0880 O   0  0  0  0  0  0  0  0  0  0  0  0
    0.5340    0.7200    0.2670 C   0  0  2  0  0  0  0  0  0  0  0  0
   -0.5900   -0.1000    0.7150 N   0  0  0  0  0  0  0  0  0  0  0  0
    1.7220   -0.0740   -0.0190 C   0  0  0  0  0  0  0  0  0  0  0  0
    1.7180   -1.3420    0.1340 O   0  0  0  0  0  0  0  0  0  0  0  0
    1.2090    1.9240    3.4160 H   0  0  0  0  0  0  0  0  0  0  0  0
    1.4840    0.2870    2.7680 H   0  0  0  0  0  0  0  0  0  0  0  0
   -0.2180    0.9090    3.0410 H   0  0  0  0  0  0  0  0  0  0  0  0
   -0.2170    2.3830    1.3340 H   0  0  0  0  0  0  0  0  0  0  0  0
    2.3160    2.8410    1.8860 H   0  0  0  0  0  0  0  0  0  0  0  0
    0.1990    1.2100   -0.6700 H   0  0  0  0  0  0  0  0  0  0  0  0
   -0.4040   -0.6170    1.6010 H   0  0  0  0  0  0  0  0  0  0  0  0
    2.9300    0.5070   -0.4750 N   0  0  0  0  0  0  0  0  0  0  0  0
    4.1220   -0.2320   -0.7680 C   0  0  0  0  0  0  0  0  0  0  0  0
    4.5520   -0.9390    0.4850 C   0  0  0  0  0  0  0  0  0  0  0  0
    5.5890   -1.6410    0.4120 O   0  0  0  0  0  0  0  0  0  0  0  0
    3.8690   -0.8440    1.6720 O   0  0  0  0  0  0  0  0  0  0  0  0
    2.9340    1.5400   -0.6000 H   0  0  0  0  0  0  0  0  0  0  0  0
    3.9890   -0.9580   -1.6010 H   0  0  0  0  0  0  0  0  0  0  0  0
    4.9390    0.4500   -1.0750 H   0  0  0  0  0  0  0  0  0  0  0  0
  1 10  1  0  0  0  0
  1  8  1  0  0  0  0
  2 11  1  6  0  0  0
  2  4  1  0  0  0  0
  2  3  1  0  0  0  0
  2  1  1  0  0  0  0
  3 12  1  0  0  0  0
  4 13  1  1  0  0  0
  5  4  1  0  0  0  0
  6  4  1  0  0  0  0
  6 20  1  0  0  0  0
  7  6  2  0  0  0  0
  9  1  1  0  0  0  0
 14  5  1  0  0  0  0
 15  5  1  0  0  0  0
 16 24  1  0  0  0  0
 16 25  1  0  0  0  0
 16 23  1  0  0  0  0
 17 26  1  6  0  0  0
 17 16  1  0  0  0  0
 18 17  1  0  0  0  0
 18 27  1  0  0  0  0
 19 28  1  6  0  0  0
 19 20  1  0  0  0  0
 19 17  1  0  0  0  0
 20 29  1  0  0  0  0
 21 22  2  0  0  0  0
 21 19  1  0  0  0  0
 30 21  1  0  0  0  0
 31 30  1  0  0  0  0
 31 32  1  0  0  0  0
 32 34  1  0  0  0  0
 33 32  2  0  0  0  0
 35 30  1  0  0  0  0
 36 31  1  0  0  0  0
 37 31  1  0  0  0  0
M  END
$$$$
