TTH.pdb
 OpenBabel07022419143D

 47 47  0  0  1  0  0  0  0  0999 V2000
    0.7890   -4.7090    0.6100 C   0  0  0  0  0  0  0  0  0  0  0  0
    1.9270   -4.6090    1.6030 C   0  0  1  0  0  0  0  0  0  0  0  0
    2.4160   -5.9320    1.7220 O   0  0  0  0  0  0  0  0  0  0  0  0
    3.0780   -3.8100    1.0200 C   0  0  2  0  0  0  0  0  0  0  0  0
    4.2410   -3.9060    1.9310 N   0  0  0  0  0  0  0  0  0  0  0  0
    2.7960   -2.3750    0.8710 C   0  0  0  0  0  0  0  0  0  0  0  0
    3.4240   -1.5180    1.5940 O   0  0  0  0  0  0  0  0  0  0  0  0
    1.1330   -4.7540   -0.4370 H   0  0  0  0  0  0  0  0  0  0  0  0
    0.1940   -5.6470    0.7800 H   0  0  0  0  0  0  0  0  0  0  0  0
    0.0710   -3.8880    0.7070 H   0  0  0  0  0  0  0  0  0  0  0  0
    1.5830   -4.2740    2.5760 H   0  0  0  0  0  0  0  0  0  0  0  0
    2.1580   -6.4970    0.9630 H   0  0  0  0  0  0  0  0  0  0  0  0
    3.3850   -4.3260    0.0910 H   0  0  0  0  0  0  0  0  0  0  0  0
    4.3980   -3.0060    2.4370 H   0  0  0  0  0  0  0  0  0  0  0  0
    5.1070   -4.0810    1.3730 H   0  0  0  0  0  0  0  0  0  0  0  0
    1.9680    1.6490   -1.5150 C   0  0  0  0  0  0  0  0  0  0  0  0
    2.0300    0.1380   -1.4920 C   0  0  1  0  0  0  0  0  0  0  0  0
    3.3830   -0.1960   -1.6620 O   0  0  0  0  0  0  0  0  0  0  0  0
    1.6350   -0.3430   -0.1130 C   0  0  2  0  0  0  0  0  0  0  0  0
    1.8700   -1.7890   -0.0180 N   0  0  0  0  0  0  0  0  0  0  0  0
    0.2040   -0.1460    0.1790 C   0  0  0  0  0  0  0  0  0  0  0  0
   -0.5270   -1.1930    0.2910 O   0  0  0  0  0  0  0  0  0  0  0  0
    2.2290    2.1260   -0.5590 H   0  0  0  0  0  0  0  0  0  0  0  0
    0.9900    2.0400   -1.8440 H   0  0  0  0  0  0  0  0  0  0  0  0
    2.7640    2.0420   -2.2330 H   0  0  0  0  0  0  0  0  0  0  0  0
    1.4200   -0.2600   -2.3050 H   0  0  0  0  0  0  0  0  0  0  0  0
    3.9400    0.5340   -1.3520 H   0  0  0  0  0  0  0  0  0  0  0  0
    2.3000    0.1420    0.6180 H   0  0  0  0  0  0  0  0  0  0  0  0
    1.3240   -2.4020   -0.6470 H   0  0  0  0  0  0  0  0  0  0  0  0
   -0.4660    1.0820    0.3550 N   0  0  0  0  0  0  0  0  0  0  0  0
   -1.9160    1.1340    0.6410 C   0  0  1  0  0  0  0  0  0  0  0  0
   -2.0530    1.9210    1.9020 C   0  0  0  0  0  0  0  0  0  0  0  0
   -3.4140    2.0010    2.4170 C   0  0  0  0  0  0  0  0  0  0  0  0
   -4.5510    1.3590    2.0430 C   0  0  0  0  0  0  0  0  0  0  0  0
   -5.5530    1.7200    2.8920 N   0  0  0  0  0  0  0  0  0  0  0  0
   -5.0520    2.5800    3.7940 C   0  0  0  0  0  0  0  0  0  0  0  0
   -3.7580    2.7440    3.5000 N   0  0  0  0  0  0  0  0  0  0  0  0
   -2.5190    1.9560   -0.4780 C   0  0  0  0  0  0  0  0  0  0  0  0
   -1.8040    2.3830   -1.4300 O   0  0  0  0  0  0  0  0  0  0  0  0
   -3.8450    2.2490   -0.4760 O   0  0  0  0  0  0  0  0  0  0  0  0
    0.0630    1.9620    0.2970 H   0  0  0  0  0  0  0  0  0  0  0  0
   -2.4090    0.1950    0.6850 H   0  0  0  0  0  0  0  0  0  0  0  0
   -1.3530    1.4470    2.6590 H   0  0  0  0  0  0  0  0  0  0  0  0
   -1.6540    2.9760    1.7420 H   0  0  0  0  0  0  0  0  0  0  0  0
   -4.7500    0.6490    1.2620 H   0  0  0  0  0  0  0  0  0  0  0  0
   -6.5560    1.3990    2.8730 H   0  0  0  0  0  0  0  0  0  0  0  0
   -5.6180    3.0420    4.6040 H   0  0  0  0  0  0  0  0  0  0  0  0
  1 10  1  0  0  0  0
  1  9  1  0  0  0  0
  1  2  1  0  0  0  0
  2  3  1  0  0  0  0
  2 11  1  1  0  0  0
  4 13  1  6  0  0  0
  4  2  1  0  0  0  0
  4  5  1  0  0  0  0
  5 14  1  0  0  0  0
  6  4  1  0  0  0  0
  6  7  2  0  0  0  0
  8  1  1  0  0  0  0
 12  3  1  0  0  0  0
 15  5  1  0  0  0  0
 16 17  1  0  0  0  0
 16 23  1  0  0  0  0
 17 26  1  6  0  0  0
 17 19  1  0  0  0  0
 18 17  1  0  0  0  0
 18 27  1  0  0  0  0
 19 20  1  0  0  0  0
 19 21  1  0  0  0  0
 19 28  1  1  0  0  0
 20  6  1  0  0  0  0
 21 22  2  0  0  0  0
 21 30  1  0  0  0  0
 24 16  1  0  0  0  0
 25 16  1  0  0  0  0
 29 20  1  0  0  0  0
 30 31  1  0  0  0  0
 31 42  1  1  0  0  0
 31 32  1  0  0  0  0
 32 33  1  0  0  0  0
 32 43  1  0  0  0  0
 33 37  1  0  0  0  0
 34 33  2  0  0  0  0
 34 35  1  0  0  0  0
 35 36  1  0  0  0  0
 36 47  1  0  0  0  0
 37 36  2  0  0  0  0
 38 40  1  0  0  0  0
 38 31  1  0  0  0  0
 39 38  2  0  0  0  0
 41 30  1  0  0  0  0
 44 32  1  0  0  0  0
 45 34  1  0  0  0  0
 46 35  1  0  0  0  0
M  END
$$$$
