TTI.pdb
 OpenBabel07022419143D

 49 48  0  0  1  0  0  0  0  0999 V2000
    4.0560   -3.8080   -0.9590 C   0  0  0  0  0  0  0  0  0  0  0  0
    4.1190   -3.5960    0.5540 C   0  0  1  0  0  0  0  0  0  0  0  0
    4.7550   -2.3890    0.7900 O   0  0  0  0  0  0  0  0  0  0  0  0
    2.7080   -3.6410    1.1000 C   0  0  2  0  0  0  0  0  0  0  0  0
    2.1590   -4.9450    0.7910 N   0  0  0  0  0  0  0  0  0  0  0  0
    1.8420   -2.6100    0.4890 C   0  0  0  0  0  0  0  0  0  0  0  0
    0.8410   -2.9420   -0.1640 O   0  0  0  0  0  0  0  0  0  0  0  0
    4.8300   -4.5420   -1.2700 H   0  0  0  0  0  0  0  0  0  0  0  0
    3.0530   -4.2560   -1.2170 H   0  0  0  0  0  0  0  0  0  0  0  0
    4.1940   -2.8480   -1.4720 H   0  0  0  0  0  0  0  0  0  0  0  0
    4.6650   -4.4570    0.9950 H   0  0  0  0  0  0  0  0  0  0  0  0
    5.3320   -2.1860    0.0240 H   0  0  0  0  0  0  0  0  0  0  0  0
    2.7720   -3.5280    2.2090 H   0  0  0  0  0  0  0  0  0  0  0  0
    1.2140   -4.8720    0.3490 H   0  0  0  0  0  0  0  0  0  0  0  0
    2.1430   -5.5590    1.6320 H   0  0  0  0  0  0  0  0  0  0  0  0
    0.5900    0.7620   -2.1640 C   0  0  0  0  0  0  0  0  0  0  0  0
    1.2940   -0.3820   -1.4840 C   0  0  1  0  0  0  0  0  0  0  0  0
    2.6730   -0.2350   -1.8200 O   0  0  0  0  0  0  0  0  0  0  0  0
    1.2360   -0.1930    0.0020 C   0  0  2  0  0  0  0  0  0  0  0  0
    2.1170   -1.2190    0.6240 N   0  0  0  0  0  0  0  0  0  0  0  0
   -0.1000   -0.2830    0.6050 C   0  0  0  0  0  0  0  0  0  0  0  0
   -0.3390   -1.2310    1.4420 O   0  0  0  0  0  0  0  0  0  0  0  0
    1.0520    0.9120   -3.1930 H   0  0  0  0  0  0  0  0  0  0  0  0
   -0.4570    0.5330   -2.3660 H   0  0  0  0  0  0  0  0  0  0  0  0
    0.7660    1.7220   -1.6580 H   0  0  0  0  0  0  0  0  0  0  0  0
    1.0010   -1.3600   -1.8580 H   0  0  0  0  0  0  0  0  0  0  0  0
    2.7620    0.2310   -2.6920 H   0  0  0  0  0  0  0  0  0  0  0  0
    1.6830    0.7820    0.2510 H   0  0  0  0  0  0  0  0  0  0  0  0
    2.9600   -0.9470    1.1750 H   0  0  0  0  0  0  0  0  0  0  0  0
   -2.4500    3.0430    3.7340 C   0  0  0  0  0  0  0  0  0  0  0  0
   -1.8890    1.8870    2.9390 C   0  0  0  0  0  0  0  0  0  0  0  0
   -2.9090    1.5570    1.8490 C   0  0  2  0  0  0  0  0  0  0  0  0
   -4.1890    1.1890    2.5730 C   0  0  0  0  0  0  0  0  0  0  0  0
   -2.4790    0.3630    1.0450 C   0  0  2  0  0  0  0  0  0  0  0  0
   -1.2010    0.5670    0.3820 N   0  0  0  0  0  0  0  0  0  0  0  0
   -3.4990    0.0770    0.0020 C   0  0  0  0  0  0  0  0  0  0  0  0
   -4.7040   -0.1400    0.3140 O   0  0  0  0  0  0  0  0  0  0  0  0
   -3.1910    0.0320   -1.3570 O   0  0  0  0  0  0  0  0  0  0  0  0
   -2.8100    2.7230    4.7330 H   0  0  0  0  0  0  0  0  0  0  0  0
   -3.3240    3.5020    3.2270 H   0  0  0  0  0  0  0  0  0  0  0  0
   -1.6690    3.8220    3.8800 H   0  0  0  0  0  0  0  0  0  0  0  0
   -1.7870    1.0370    3.6440 H   0  0  0  0  0  0  0  0  0  0  0  0
   -0.8910    2.0810    2.5270 H   0  0  0  0  0  0  0  0  0  0  0  0
   -3.1360    2.4460    1.2370 H   0  0  0  0  0  0  0  0  0  0  0  0
   -5.0890    1.4570    1.9770 H   0  0  0  0  0  0  0  0  0  0  0  0
   -4.1430    0.1020    2.7850 H   0  0  0  0  0  0  0  0  0  0  0  0
   -4.2210    1.6820    3.5860 H   0  0  0  0  0  0  0  0  0  0  0  0
   -2.4550   -0.5170    1.7180 H   0  0  0  0  0  0  0  0  0  0  0  0
   -1.0850    1.3680   -0.2710 H   0  0  0  0  0  0  0  0  0  0  0  0
  1  2  1  0  0  0  0
  2  3  1  0  0  0  0
  2 11  1  1  0  0  0
  2  4  1  0  0  0  0
  4 13  1  1  0  0  0
  5  4  1  0  0  0  0
  5 15  1  0  0  0  0
  6 20  1  0  0  0  0
  6  4  1  0  0  0  0
  7  6  2  0  0  0  0
  8  1  1  0  0  0  0
  9  1  1  0  0  0  0
 10  1  1  0  0  0  0
 12  3  1  0  0  0  0
 14  5  1  0  0  0  0
 16 25  1  0  0  0  0
 16 17  1  0  0  0  0
 17 26  1  6  0  0  0
 17 19  1  0  0  0  0
 18 17  1  0  0  0  0
 19 28  1  1  0  0  0
 19 21  1  0  0  0  0
 19 20  1  0  0  0  0
 20 29  1  0  0  0  0
 21 22  2  0  0  0  0
 23 16  1  0  0  0  0
 24 16  1  0  0  0  0
 27 18  1  0  0  0  0
 30 41  1  0  0  0  0
 30 39  1  0  0  0  0
 31 42  1  0  0  0  0
 31 30  1  0  0  0  0
 32 44  1  6  0  0  0
 32 33  1  0  0  0  0
 32 31  1  0  0  0  0
 33 46  1  0  0  0  0
 33 47  1  0  0  0  0
 34 48  1  1  0  0  0
 34 32  1  0  0  0  0
 35 21  1  0  0  0  0
 35 34  1  0  0  0  0
 36 37  1  0  0  0  0
 36 34  1  0  0  0  0
 38 36  2  0  0  0  0
 40 30  1  0  0  0  0
 43 31  1  0  0  0  0
 45 33  1  0  0  0  0
 49 35  1  0  0  0  0
M  END
$$$$
