TTK.pdb
 OpenBabel07022419143D

 51 50  0  0  1  0  0  0  0  0999 V2000
    0.2680   -2.5680    4.9790 C   0  0  0  0  0  0  0  0  0  0  0  0
    0.6740   -1.8930    3.6880 C   0  0  1  0  0  0  0  0  0  0  0  0
    0.7120   -0.5090    3.9600 O   0  0  0  0  0  0  0  0  0  0  0  0
    2.0710   -2.3100    3.2700 C   0  0  2  0  0  0  0  0  0  0  0  0
    2.9870   -2.0200    4.3700 N   0  0  0  0  0  0  0  0  0  0  0  0
    2.5440   -1.5630    2.0970 C   0  0  0  0  0  0  0  0  0  0  0  0
    3.5810   -0.8140    2.1380 O   0  0  0  0  0  0  0  0  0  0  0  0
   -0.5830   -1.9920    5.4240 H   0  0  0  0  0  0  0  0  0  0  0  0
   -0.0580   -3.6020    4.8130 H   0  0  0  0  0  0  0  0  0  0  0  0
    1.1180   -2.5500    5.6730 H   0  0  0  0  0  0  0  0  0  0  0  0
   -0.0560   -2.0290    2.8730 H   0  0  0  0  0  0  0  0  0  0  0  0
    1.5590   -0.3290    4.4740 H   0  0  0  0  0  0  0  0  0  0  0  0
    2.0630   -3.4080    3.1410 H   0  0  0  0  0  0  0  0  0  0  0  0
    3.9390   -1.8270    3.9750 H   0  0  0  0  0  0  0  0  0  0  0  0
    3.0290   -2.8420    5.0220 H   0  0  0  0  0  0  0  0  0  0  0  0
    3.3970   -0.8460   -2.5320 C   0  0  0  0  0  0  0  0  0  0  0  0
    2.8090   -1.7380   -1.4560 C   0  0  1  0  0  0  0  0  0  0  0  0
    3.8350   -2.5700   -0.9670 O   0  0  0  0  0  0  0  0  0  0  0  0
    2.3880   -0.8610   -0.3030 C   0  0  2  0  0  0  0  0  0  0  0  0
    1.9000   -1.6020    0.8200 N   0  0  0  0  0  0  0  0  0  0  0  0
    1.3880    0.1540   -0.7620 C   0  0  0  0  0  0  0  0  0  0  0  0
    1.6510    0.8920   -1.7240 O   0  0  0  0  0  0  0  0  0  0  0  0
    2.6130   -0.6100   -3.2990 H   0  0  0  0  0  0  0  0  0  0  0  0
    3.8530    0.0610   -2.1020 H   0  0  0  0  0  0  0  0  0  0  0  0
    4.2000   -1.4640   -3.0260 H   0  0  0  0  0  0  0  0  0  0  0  0
    1.9840   -2.2920   -1.9040 H   0  0  0  0  0  0  0  0  0  0  0  0
    4.7130   -2.1530   -1.0880 H   0  0  0  0  0  0  0  0  0  0  0  0
    3.2890   -0.2950    0.0100 H   0  0  0  0  0  0  0  0  0  0  0  0
    1.0470   -2.1910    0.7070 H   0  0  0  0  0  0  0  0  0  0  0  0
    0.1300    0.3080   -0.1290 N   0  0  0  0  0  0  0  0  0  0  0  0
   -0.8070    1.2880   -0.5890 C   0  0  1  0  0  0  0  0  0  0  0  0
   -1.9520    0.5250   -1.2580 C   0  0  0  0  0  0  0  0  0  0  0  0
   -2.6110   -0.4140   -0.2560 C   0  0  0  0  0  0  0  0  0  0  0  0
   -3.7380   -1.1770   -0.8840 C   0  0  0  0  0  0  0  0  0  0  0  0
   -4.8260   -0.2820   -1.4190 C   0  0  0  0  0  0  0  0  0  0  0  0
   -5.4260    0.5400   -0.4020 N   0  0  0  0  0  0  0  0  0  0  0  0
   -1.2800    2.1980    0.4430 C   0  0  0  0  0  0  0  0  0  0  0  0
   -0.8700    2.0920    1.6180 O   0  0  0  0  0  0  0  0  0  0  0  0
   -2.1860    3.1940    0.1450 O   0  0  0  0  0  0  0  0  0  0  0  0
   -0.1220   -0.3030    0.6900 H   0  0  0  0  0  0  0  0  0  0  0  0
   -0.3220    1.8370   -1.4500 H   0  0  0  0  0  0  0  0  0  0  0  0
   -1.5270   -0.0510   -2.1030 H   0  0  0  0  0  0  0  0  0  0  0  0
   -2.7080    1.2310   -1.6130 H   0  0  0  0  0  0  0  0  0  0  0  0
   -2.8860    0.1280    0.6470 H   0  0  0  0  0  0  0  0  0  0  0  0
   -1.8290   -1.1780    0.0110 H   0  0  0  0  0  0  0  0  0  0  0  0
   -3.3470   -1.7620   -1.7440 H   0  0  0  0  0  0  0  0  0  0  0  0
   -4.1670   -1.8560   -0.1420 H   0  0  0  0  0  0  0  0  0  0  0  0
   -5.6040   -0.9220   -1.8720 H   0  0  0  0  0  0  0  0  0  0  0  0
   -4.4350    0.3470   -2.2700 H   0  0  0  0  0  0  0  0  0  0  0  0
   -5.9740    1.3030   -0.8120 H   0  0  0  0  0  0  0  0  0  0  0  0
   -4.7930    0.7940    0.3650 H   0  0  0  0  0  0  0  0  0  0  0  0
  1  8  1  0  0  0  0
  1 10  1  0  0  0  0
  2 11  1  6  0  0  0
  2  3  1  0  0  0  0
  2  1  1  0  0  0  0
  3 12  1  0  0  0  0
  4 13  1  6  0  0  0
  4  2  1  0  0  0  0
  4  5  1  0  0  0  0
  5 15  1  0  0  0  0
  6  7  2  0  0  0  0
  6  4  1  0  0  0  0
  9  1  1  0  0  0  0
 14  5  1  0  0  0  0
 16 24  1  0  0  0  0
 16 17  1  0  0  0  0
 17 26  1  6  0  0  0
 17 18  1  0  0  0  0
 17 19  1  0  0  0  0
 19 28  1  1  0  0  0
 19 20  1  0  0  0  0
 20  6  1  0  0  0  0
 21 19  1  0  0  0  0
 21 30  1  0  0  0  0
 22 21  2  0  0  0  0
 23 16  1  0  0  0  0
 25 16  1  0  0  0  0
 27 18  1  0  0  0  0
 29 20  1  0  0  0  0
 30 40  1  0  0  0  0
 31 41  1  6  0  0  0
 31 30  1  0  0  0  0
 31 37  1  0  0  0  0
 32 31  1  0  0  0  0
 32 33  1  0  0  0  0
 33 45  1  0  0  0  0
 33 44  1  0  0  0  0
 34 33  1  0  0  0  0
 34 47  1  0  0  0  0
 35 34  1  0  0  0  0
 35 36  1  0  0  0  0
 36 51  1  0  0  0  0
 37 38  1  0  0  0  0
 39 37  2  0  0  0  0
 42 32  1  0  0  0  0
 43 32  1  0  0  0  0
 46 34  1  0  0  0  0
 48 35  1  0  0  0  0
 49 35  1  0  0  0  0
 50 36  1  0  0  0  0
M  END
$$$$
