TTL.pdb
 OpenBabel07022419143D

 49 48  0  0  1  0  0  0  0  0999 V2000
    3.6130   -3.8050    1.0350 C   0  0  0  0  0  0  0  0  0  0  0  0
    3.9130   -2.6090    1.8800 C   0  0  1  0  0  0  0  0  0  0  0  0
    5.0210   -1.9020    1.4220 O   0  0  0  0  0  0  0  0  0  0  0  0
    2.7600   -1.6450    1.9960 C   0  0  2  0  0  0  0  0  0  0  0  0
    1.5850   -2.3510    2.4720 N   0  0  0  0  0  0  0  0  0  0  0  0
    2.4100   -1.0400    0.6840 C   0  0  0  0  0  0  0  0  0  0  0  0
    3.2970   -0.3820    0.1020 O   0  0  0  0  0  0  0  0  0  0  0  0
    4.5650   -4.2000    0.6370 H   0  0  0  0  0  0  0  0  0  0  0  0
    3.1180   -4.5760    1.6810 H   0  0  0  0  0  0  0  0  0  0  0  0
    2.9550   -3.5190    0.2130 H   0  0  0  0  0  0  0  0  0  0  0  0
    4.1580   -2.9650    2.9000 H   0  0  0  0  0  0  0  0  0  0  0  0
    5.4790   -2.4650    0.7500 H   0  0  0  0  0  0  0  0  0  0  0  0
    3.0600   -0.8570    2.7150 H   0  0  0  0  0  0  0  0  0  0  0  0
    1.3190   -3.0800    1.7860 H   0  0  0  0  0  0  0  0  0  0  0  0
    0.8240   -1.6700    2.5630 H   0  0  0  0  0  0  0  0  0  0  0  0
    0.1970   -0.8200   -3.5480 C   0  0  0  0  0  0  0  0  0  0  0  0
    0.3950   -1.5860   -2.2370 C   0  0  1  0  0  0  0  0  0  0  0  0
    1.4640   -2.4620   -2.4770 O   0  0  0  0  0  0  0  0  0  0  0  0
    0.7910   -0.5880   -1.1970 C   0  0  2  0  0  0  0  0  0  0  0  0
    1.1510   -1.1610    0.0630 N   0  0  0  0  0  0  0  0  0  0  0  0
   -0.2930    0.4320   -1.0550 C   0  0  0  0  0  0  0  0  0  0  0  0
   -0.7450    1.0450   -2.0370 O   0  0  0  0  0  0  0  0  0  0  0  0
   -0.8800   -0.6450   -3.7480 H   0  0  0  0  0  0  0  0  0  0  0  0
    0.7590    0.1200   -3.5680 H   0  0  0  0  0  0  0  0  0  0  0  0
    0.5570   -1.4460   -4.4140 H   0  0  0  0  0  0  0  0  0  0  0  0
   -0.5480   -2.0980   -2.0380 H   0  0  0  0  0  0  0  0  0  0  0  0
    1.3860   -2.8280   -3.3870 H   0  0  0  0  0  0  0  0  0  0  0  0
    1.6860   -0.0400   -1.5800 H   0  0  0  0  0  0  0  0  0  0  0  0
    0.4140   -1.7170    0.5660 H   0  0  0  0  0  0  0  0  0  0  0  0
   -2.5100   -0.9090    2.1560 C   0  0  0  0  0  0  0  0  0  0  0  0
   -3.3360    0.3470    2.0770 C   0  0  0  0  0  0  0  0  0  0  0  0
   -3.2030    1.1440    3.3580 C   0  0  0  0  0  0  0  0  0  0  0  0
   -3.2060    1.1410    0.8490 C   0  0  0  0  0  0  0  0  0  0  0  0
   -1.8890    1.6990    0.4610 C   0  0  2  0  0  0  0  0  0  0  0  0
   -0.8400    0.7260    0.2440 N   0  0  0  0  0  0  0  0  0  0  0  0
   -1.4490    2.8450    1.2690 C   0  0  0  0  0  0  0  0  0  0  0  0
   -2.2440    3.7570    1.5340 O   0  0  0  0  0  0  0  0  0  0  0  0
   -0.1640    2.9200    1.7360 O   0  0  0  0  0  0  0  0  0  0  0  0
   -3.0870   -1.7430    2.6620 H   0  0  0  0  0  0  0  0  0  0  0  0
   -1.6200   -0.7950    2.8360 H   0  0  0  0  0  0  0  0  0  0  0  0
   -2.2630   -1.3190    1.1690 H   0  0  0  0  0  0  0  0  0  0  0  0
   -4.4120   -0.0140    2.0940 H   0  0  0  0  0  0  0  0  0  0  0  0
   -4.0340    1.8480    3.4360 H   0  0  0  0  0  0  0  0  0  0  0  0
   -2.2080    1.5840    3.4940 H   0  0  0  0  0  0  0  0  0  0  0  0
   -3.3380    0.4030    4.1910 H   0  0  0  0  0  0  0  0  0  0  0  0
   -3.9250    1.9900    0.9100 H   0  0  0  0  0  0  0  0  0  0  0  0
   -3.5760    0.5240   -0.0080 H   0  0  0  0  0  0  0  0  0  0  0  0
   -2.0840    2.1380   -0.5720 H   0  0  0  0  0  0  0  0  0  0  0  0
   -0.4130    0.1790    1.0260 H   0  0  0  0  0  0  0  0  0  0  0  0
  1  9  1  0  0  0  0
  1  2  1  0  0  0  0
  2  4  1  0  0  0  0
  2 11  1  1  0  0  0
  3  2  1  0  0  0  0
  4  5  1  0  0  0  0
  4 13  1  1  0  0  0
  5 15  1  0  0  0  0
  6  4  1  0  0  0  0
  7  6  2  0  0  0  0
  8  1  1  0  0  0  0
 10  1  1  0  0  0  0
 12  3  1  0  0  0  0
 14  5  1  0  0  0  0
 16 17  1  0  0  0  0
 17 26  1  1  0  0  0
 17 19  1  0  0  0  0
 18 17  1  0  0  0  0
 19 28  1  6  0  0  0
 19 21  1  0  0  0  0
 19 20  1  0  0  0  0
 20 29  1  0  0  0  0
 20  6  1  0  0  0  0
 21 35  1  0  0  0  0
 22 21  2  0  0  0  0
 23 16  1  0  0  0  0
 24 16  1  0  0  0  0
 25 16  1  0  0  0  0
 27 18  1  0  0  0  0
 30 39  1  0  0  0  0
 30 40  1  0  0  0  0
 31 42  1  0  0  0  0
 31 30  1  0  0  0  0
 31 32  1  0  0  0  0
 32 43  1  0  0  0  0
 32 44  1  0  0  0  0
 32 45  1  0  0  0  0
 33 46  1  0  0  0  0
 33 31  1  0  0  0  0
 34 48  1  6  0  0  0
 34 33  1  0  0  0  0
 34 36  1  0  0  0  0
 35 34  1  0  0  0  0
 35 49  1  0  0  0  0
 36 37  2  0  0  0  0
 36 38  1  0  0  0  0
 41 30  1  0  0  0  0
 47 33  1  0  0  0  0
M  END
$$$$
