TTM.pdb
 OpenBabel07022419143D

 47 46  0  0  1  0  0  0  0  0999 V2000
    2.1750   -4.1810    1.9700 C   0  0  0  0  0  0  0  0  0  0  0  0
    1.6120   -2.9040    1.3840 C   0  0  1  0  0  0  0  0  0  0  0  0
    2.2320   -1.8480    2.0630 O   0  0  0  0  0  0  0  0  0  0  0  0
    2.0020   -2.8550   -0.0700 C   0  0  2  0  0  0  0  0  0  0  0  0
    3.4670   -2.9850   -0.1030 N   0  0  0  0  0  0  0  0  0  0  0  0
    1.6710   -1.5840   -0.7260 C   0  0  0  0  0  0  0  0  0  0  0  0
    2.5600   -0.7970   -1.2040 O   0  0  0  0  0  0  0  0  0  0  0  0
    2.6640   -3.9960    2.9530 H   0  0  0  0  0  0  0  0  0  0  0  0
    1.3230   -4.9010    2.1040 H   0  0  0  0  0  0  0  0  0  0  0  0
    2.8750   -4.6610    1.2750 H   0  0  0  0  0  0  0  0  0  0  0  0
    0.5230   -2.8470    1.5500 H   0  0  0  0  0  0  0  0  0  0  0  0
    3.1580   -1.7950    1.7170 H   0  0  0  0  0  0  0  0  0  0  0  0
    1.6000   -3.7420   -0.5640 H   0  0  0  0  0  0  0  0  0  0  0  0
    3.9070   -2.2550   -0.6860 H   0  0  0  0  0  0  0  0  0  0  0  0
    3.7760   -3.9070   -0.4190 H   0  0  0  0  0  0  0  0  0  0  0  0
   -0.9930    1.3730   -3.3590 C   0  0  0  0  0  0  0  0  0  0  0  0
   -0.8380   -0.0090   -2.7550 C   0  0  1  0  0  0  0  0  0  0  0  0
   -0.1800   -0.7970   -3.6980 O   0  0  0  0  0  0  0  0  0  0  0  0
    0.0180    0.1270   -1.5310 C   0  0  2  0  0  0  0  0  0  0  0  0
    0.3320   -1.1080   -0.8930 N   0  0  0  0  0  0  0  0  0  0  0  0
   -0.6310    1.0630   -0.5630 C   0  0  0  0  0  0  0  0  0  0  0  0
   -0.9930    2.2150   -0.9100 O   0  0  0  0  0  0  0  0  0  0  0  0
   -1.0910    1.2420   -4.4560 H   0  0  0  0  0  0  0  0  0  0  0  0
   -1.9490    1.8520   -3.0320 H   0  0  0  0  0  0  0  0  0  0  0  0
   -0.1170    2.0130   -3.1780 H   0  0  0  0  0  0  0  0  0  0  0  0
   -1.8560   -0.3630   -2.5400 H   0  0  0  0  0  0  0  0  0  0  0  0
    0.7660   -0.5100   -3.7350 H   0  0  0  0  0  0  0  0  0  0  0  0
    0.9670    0.6090   -1.8480 H   0  0  0  0  0  0  0  0  0  0  0  0
   -0.4260   -1.7050   -0.5250 H   0  0  0  0  0  0  0  0  0  0  0  0
   -0.2670   -0.6060    4.3720 C   0  0  0  0  0  0  0  0  0  0  0  0
   -2.0260   -0.4420    4.4120 S   0  0  0  0  0  0  0  0  0  0  0  0
   -2.8870   -0.1760    2.9050 C   0  0  0  0  0  0  0  0  0  0  0  0
   -2.8050    1.1250    2.2090 C   0  0  0  0  0  0  0  0  0  0  0  0
   -1.4900    1.5890    1.7240 C   0  0  2  0  0  0  0  0  0  0  0  0
   -0.8710    0.6950    0.8010 N   0  0  0  0  0  0  0  0  0  0  0  0
   -0.6390    2.1300    2.7900 C   0  0  0  0  0  0  0  0  0  0  0  0
    0.6240    1.9930    2.8530 O   0  0  0  0  0  0  0  0  0  0  0  0
   -1.2550    2.8440    3.8070 O   0  0  0  0  0  0  0  0  0  0  0  0
    0.2800    0.2300    4.8850 H   0  0  0  0  0  0  0  0  0  0  0  0
    0.1060   -0.6300    3.3310 H   0  0  0  0  0  0  0  0  0  0  0  0
    0.0760   -1.5930    4.8100 H   0  0  0  0  0  0  0  0  0  0  0  0
   -4.0050   -0.3260    3.1240 H   0  0  0  0  0  0  0  0  0  0  0  0
   -2.7110   -1.0210    2.1530 H   0  0  0  0  0  0  0  0  0  0  0  0
   -3.4760    1.0670    1.2870 H   0  0  0  0  0  0  0  0  0  0  0  0
   -3.2910    1.9320    2.8690 H   0  0  0  0  0  0  0  0  0  0  0  0
   -1.7480    2.5730    1.1180 H   0  0  0  0  0  0  0  0  0  0  0  0
   -0.5780   -0.2550    1.0970 H   0  0  0  0  0  0  0  0  0  0  0  0
  1  9  1  0  0  0  0
  1  8  1  0  0  0  0
  2 11  1  1  0  0  0
  2  1  1  0  0  0  0
  2  3  1  0  0  0  0
  4 13  1  6  0  0  0
  4  2  1  0  0  0  0
  5  4  1  0  0  0  0
  6  4  1  0  0  0  0
  7  6  2  0  0  0  0
 10  1  1  0  0  0  0
 12  3  1  0  0  0  0
 14  5  1  0  0  0  0
 15  5  1  0  0  0  0
 16 25  1  0  0  0  0
 16 24  1  0  0  0  0
 16 17  1  0  0  0  0
 17 26  1  1  0  0  0
 17 19  1  0  0  0  0
 18 17  1  0  0  0  0
 19 28  1  6  0  0  0
 19 20  1  0  0  0  0
 19 21  1  0  0  0  0
 20  6  1  0  0  0  0
 20 29  1  0  0  0  0
 21 35  1  0  0  0  0
 22 21  2  0  0  0  0
 23 16  1  0  0  0  0
 27 18  1  0  0  0  0
 30 31  1  0  0  0  0
 30 41  1  0  0  0  0
 30 39  1  0  0  0  0
 32 42  1  0  0  0  0
 32 31  1  0  0  0  0
 33 45  1  0  0  0  0
 33 32  1  0  0  0  0
 34 46  1  6  0  0  0
 34 33  1  0  0  0  0
 34 36  1  0  0  0  0
 35 47  1  0  0  0  0
 35 34  1  0  0  0  0
 36 37  2  0  0  0  0
 36 38  1  0  0  0  0
 40 30  1  0  0  0  0
 43 32  1  0  0  0  0
 44 33  1  0  0  0  0
M  END
$$$$
