TTN.pdb
 OpenBabel07022419143D

 44 43  0  0  1  0  0  0  0  0999 V2000
   -2.9800   -3.1970   -1.4070 C   0  0  0  0  0  0  0  0  0  0  0  0
   -1.8280   -2.5250   -0.6890 C   0  0  1  0  0  0  0  0  0  0  0  0
   -1.5700   -3.2370    0.4850 O   0  0  0  0  0  0  0  0  0  0  0  0
   -0.6070   -2.6910   -1.5770 C   0  0  2  0  0  0  0  0  0  0  0  0
   -0.5000   -4.1430   -1.7960 N   0  0  0  0  0  0  0  0  0  0  0  0
    0.6380   -2.2370   -0.9520 C   0  0  0  0  0  0  0  0  0  0  0  0
    1.5800   -3.0570   -0.6680 O   0  0  0  0  0  0  0  0  0  0  0  0
   -3.1120   -4.2510   -1.0790 H   0  0  0  0  0  0  0  0  0  0  0  0
   -3.9330   -2.6740   -1.1120 H   0  0  0  0  0  0  0  0  0  0  0  0
   -2.9050   -3.0970   -2.5070 H   0  0  0  0  0  0  0  0  0  0  0  0
   -2.0900   -1.4790   -0.4990 H   0  0  0  0  0  0  0  0  0  0  0  0
   -1.1460   -4.0870    0.2290 H   0  0  0  0  0  0  0  0  0  0  0  0
   -0.8380   -2.2410   -2.5380 H   0  0  0  0  0  0  0  0  0  0  0  0
    0.5270   -4.4200   -1.7720 H   0  0  0  0  0  0  0  0  0  0  0  0
   -0.9000   -4.4130   -2.7190 H   0  0  0  0  0  0  0  0  0  0  0  0
    4.2650    0.7220   -0.1110 C   0  0  0  0  0  0  0  0  0  0  0  0
    2.9680    0.4620   -0.8500 C   0  0  1  0  0  0  0  0  0  0  0  0
    3.3000   -0.2130   -2.0140 O   0  0  0  0  0  0  0  0  0  0  0  0
    2.1410   -0.4560    0.0020 C   0  0  2  0  0  0  0  0  0  0  0  0
    0.9280   -0.8930   -0.6060 N   0  0  0  0  0  0  0  0  0  0  0  0
    1.8430    0.1380    1.3370 C   0  0  0  0  0  0  0  0  0  0  0  0
    2.7800    0.5810    2.0800 O   0  0  0  0  0  0  0  0  0  0  0  0
    5.0460    0.9280   -0.8990 H   0  0  0  0  0  0  0  0  0  0  0  0
    4.1400    1.6470    0.5030 H   0  0  0  0  0  0  0  0  0  0  0  0
    4.5880   -0.1390    0.5110 H   0  0  0  0  0  0  0  0  0  0  0  0
    2.5070    1.4460   -1.0360 H   0  0  0  0  0  0  0  0  0  0  0  0
    2.8980    0.1880   -2.8190 H   0  0  0  0  0  0  0  0  0  0  0  0
    2.7810   -1.3590    0.1770 H   0  0  0  0  0  0  0  0  0  0  0  0
    0.1990   -0.1770   -0.8120 H   0  0  0  0  0  0  0  0  0  0  0  0
   -1.6710    4.0140    4.2260 N   0  0  0  0  0  0  0  0  0  0  0  0
   -0.8140    2.8530    4.2460 C   0  0  0  0  0  0  0  0  0  0  0  0
   -0.3310    2.4920    5.3460 O   0  0  0  0  0  0  0  0  0  0  0  0
   -0.5120    2.1140    3.0310 C   0  0  0  0  0  0  0  0  0  0  0  0
    0.2790    0.8500    3.1940 C   0  0  2  0  0  0  0  0  0  0  0  0
    0.5290    0.2500    1.8580 N   0  0  0  0  0  0  0  0  0  0  0  0
   -0.3620   -0.1570    4.0640 C   0  0  0  0  0  0  0  0  0  0  0  0
   -0.6990   -0.0130    5.2540 O   0  0  0  0  0  0  0  0  0  0  0  0
   -0.6270   -1.4150    3.5140 O   0  0  0  0  0  0  0  0  0  0  0  0
   -1.2030    4.9290    4.3840 H   0  0  0  0  0  0  0  0  0  0  0  0
   -2.6970    3.9690    4.0670 H   0  0  0  0  0  0  0  0  0  0  0  0
   -0.0310    2.8110    2.2990 H   0  0  0  0  0  0  0  0  0  0  0  0
   -1.5140    1.8890    2.5440 H   0  0  0  0  0  0  0  0  0  0  0  0
    1.2660    1.1010    3.6020 H   0  0  0  0  0  0  0  0  0  0  0  0
   -0.2560   -0.1040    1.2690 H   0  0  0  0  0  0  0  0  0  0  0  0
  1  9  1  0  0  0  0
  1  8  1  0  0  0  0
  1  2  1  0  0  0  0
  2 11  1  1  0  0  0
  2  3  1  0  0  0  0
  4 13  1  6  0  0  0
  4  6  1  0  0  0  0
  4  2  1  0  0  0  0
  5 14  1  0  0  0  0
  5  4  1  0  0  0  0
  6  7  2  0  0  0  0
  6 20  1  0  0  0  0
 10  1  1  0  0  0  0
 12  3  1  0  0  0  0
 15  5  1  0  0  0  0
 16 24  1  0  0  0  0
 16 25  1  0  0  0  0
 17 26  1  6  0  0  0
 17 16  1  0  0  0  0
 17 19  1  0  0  0  0
 18 17  1  0  0  0  0
 19 28  1  1  0  0  0
 19 21  1  0  0  0  0
 20 19  1  0  0  0  0
 21 35  1  0  0  0  0
 21 22  2  0  0  0  0
 23 16  1  0  0  0  0
 27 18  1  0  0  0  0
 29 20  1  0  0  0  0
 30 31  1  0  0  0  0
 30 39  1  0  0  0  0
 31 32  2  0  0  0  0
 33 34  1  0  0  0  0
 33 31  1  0  0  0  0
 34 43  1  1  0  0  0
 34 36  1  0  0  0  0
 35 34  1  0  0  0  0
 36 37  1  0  0  0  0
 38 36  2  0  0  0  0
 40 30  1  0  0  0  0
 41 33  1  0  0  0  0
 42 33  1  0  0  0  0
 44 35  1  0  0  0  0
M  END
$$$$
