TTP.pdb
 OpenBabel07022419143D

 44 44  0  0  1  0  0  0  0  0999 V2000
    1.0420   -5.5560    0.0050 C   0  0  0  0  0  0  0  0  0  0  0  0
    1.5090   -4.1640   -0.3110 C   0  0  1  0  0  0  0  0  0  0  0  0
    1.1930   -3.8370   -1.6100 O   0  0  0  0  0  0  0  0  0  0  0  0
    0.8600   -3.1430    0.6320 C   0  0  2  0  0  0  0  0  0  0  0  0
   -0.5460   -3.2010    0.4280 N   0  0  0  0  0  0  0  0  0  0  0  0
    1.4400   -1.8000    0.4180 C   0  0  0  0  0  0  0  0  0  0  0  0
    2.6700   -1.6400    0.5720 O   0  0  0  0  0  0  0  0  0  0  0  0
    0.0170   -5.7120   -0.4230 H   0  0  0  0  0  0  0  0  0  0  0  0
    1.7480   -6.3300   -0.3090 H   0  0  0  0  0  0  0  0  0  0  0  0
    0.9060   -5.6420    1.1110 H   0  0  0  0  0  0  0  0  0  0  0  0
    2.6260   -4.1380   -0.2020 H   0  0  0  0  0  0  0  0  0  0  0  0
    1.5660   -2.9590   -1.8750 H   0  0  0  0  0  0  0  0  0  0  0  0
    1.0580   -3.4560    1.6950 H   0  0  0  0  0  0  0  0  0  0  0  0
   -1.1130   -2.7170    1.1420 H   0  0  0  0  0  0  0  0  0  0  0  0
   -0.8640   -3.1010   -0.5390 H   0  0  0  0  0  0  0  0  0  0  0  0
    1.4960    2.3310   -1.9480 C   0  0  0  0  0  0  0  0  0  0  0  0
    0.9870    0.9670   -1.6270 C   0  0  1  0  0  0  0  0  0  0  0  0
    1.6470    0.0350   -2.4500 O   0  0  0  0  0  0  0  0  0  0  0  0
    1.1460    0.5780   -0.1650 C   0  0  2  0  0  0  0  0  0  0  0  0
    0.5810   -0.7250    0.0420 N   0  0  0  0  0  0  0  0  0  0  0  0
    0.7030    1.6320    0.7420 C   0  0  0  0  0  0  0  0  0  0  0  0
    1.1740    2.8090    0.4930 O   0  0  0  0  0  0  0  0  0  0  0  0
    0.7670    3.1280   -1.7790 H   0  0  0  0  0  0  0  0  0  0  0  0
    1.7380    2.3770   -3.0450 H   0  0  0  0  0  0  0  0  0  0  0  0
    2.4480    2.5960   -1.4440 H   0  0  0  0  0  0  0  0  0  0  0  0
   -0.0870    0.9080   -1.8900 H   0  0  0  0  0  0  0  0  0  0  0  0
    1.3780    0.2570   -3.3840 H   0  0  0  0  0  0  0  0  0  0  0  0
    2.2680    0.4760   -0.0300 H   0  0  0  0  0  0  0  0  0  0  0  0
   -0.4650   -0.8980   -0.0950 H   0  0  0  0  0  0  0  0  0  0  0  0
   -0.1650    1.5320    1.8460 N   0  0  0  0  0  0  0  0  0  0  0  0
   -0.5500    2.7070    2.6570 C   0  0  0  0  0  0  0  0  0  0  0  0
   -0.6070    2.1640    4.0610 C   0  0  0  0  0  0  0  0  0  0  0  0
   -0.5870    0.6780    3.9560 C   0  0  0  0  0  0  0  0  0  0  0  0
   -0.8470    0.4330    2.4600 C   0  0  1  0  0  0  0  0  0  0  0  0
   -2.3120    0.4610    2.2760 C   0  0  0  0  0  0  0  0  0  0  0  0
   -2.9550    1.3240    1.6430 O   0  0  0  0  0  0  0  0  0  0  0  0
   -3.0440   -0.5660    2.8620 O   0  0  0  0  0  0  0  0  0  0  0  0
   -1.5500    3.0350    2.3490 H   0  0  0  0  0  0  0  0  0  0  0  0
    0.2160    3.5120    2.5530 H   0  0  0  0  0  0  0  0  0  0  0  0
   -1.4810    2.5690    4.6060 H   0  0  0  0  0  0  0  0  0  0  0  0
    0.3250    2.5190    4.5860 H   0  0  0  0  0  0  0  0  0  0  0  0
    0.3730    0.2070    4.2090 H   0  0  0  0  0  0  0  0  0  0  0  0
   -1.4430    0.2450    4.5460 H   0  0  0  0  0  0  0  0  0  0  0  0
   -0.4120   -0.5600    2.2060 H   0  0  0  0  0  0  0  0  0  0  0  0
  1 10  1  0  0  0  0
  2 11  1  1  0  0  0
  2  1  1  0  0  0  0
  2  4  1  0  0  0  0
  3  2  1  0  0  0  0
  4 13  1  1  0  0  0
  5  4  1  0  0  0  0
  5 14  1  0  0  0  0
  6  7  2  0  0  0  0
  6  4  1  0  0  0  0
  8  1  1  0  0  0  0
  9  1  1  0  0  0  0
 12  3  1  0  0  0  0
 15  5  1  0  0  0  0
 16 23  1  0  0  0  0
 16 17  1  0  0  0  0
 16 25  1  0  0  0  0
 17 26  1  6  0  0  0
 17 19  1  0  0  0  0
 18 17  1  0  0  0  0
 19 28  1  1  0  0  0
 19 20  1  0  0  0  0
 19 21  1  0  0  0  0
 20  6  1  0  0  0  0
 21 30  1  0  0  0  0
 22 21  2  0  0  0  0
 24 16  1  0  0  0  0
 27 18  1  0  0  0  0
 29 20  1  0  0  0  0
 30 34  1  0  0  0  0
 30 31  1  0  0  0  0
 31 32  1  0  0  0  0
 32 41  1  0  0  0  0
 32 40  1  0  0  0  0
 33 32  1  0  0  0  0
 33 42  1  0  0  0  0
 33 43  1  0  0  0  0
 34 44  1  6  0  0  0
 34 33  1  0  0  0  0
 35 34  1  0  0  0  0
 35 37  1  0  0  0  0
 36 35  2  0  0  0  0
 38 31  1  0  0  0  0
 39 31  1  0  0  0  0
M  END
$$$$
