TTR.pdb
 OpenBabel07022419143D

 53 52  0  0  1  0  0  0  0  0999 V2000
   -0.5650   -3.4930    4.1030 C   0  0  0  0  0  0  0  0  0  0  0  0
   -1.6720   -2.6640    3.4870 C   0  0  1  0  0  0  0  0  0  0  0  0
   -1.8940   -1.4900    4.1920 O   0  0  0  0  0  0  0  0  0  0  0  0
   -1.4540   -2.4340    2.0110 C   0  0  2  0  0  0  0  0  0  0  0  0
   -1.2480   -3.7300    1.3970 N   0  0  0  0  0  0  0  0  0  0  0  0
   -0.2950   -1.5740    1.6990 C   0  0  0  0  0  0  0  0  0  0  0  0
    0.6040   -2.0450    0.9790 O   0  0  0  0  0  0  0  0  0  0  0  0
   -0.3570   -3.1240    5.1500 H   0  0  0  0  0  0  0  0  0  0  0  0
    0.3600   -3.4840    3.4870 H   0  0  0  0  0  0  0  0  0  0  0  0
   -0.8370   -4.5650    4.2200 H   0  0  0  0  0  0  0  0  0  0  0  0
   -2.5980   -3.2720    3.5720 H   0  0  0  0  0  0  0  0  0  0  0  0
   -2.7640   -1.5040    4.6800 H   0  0  0  0  0  0  0  0  0  0  0  0
   -2.3490   -1.9740    1.5920 H   0  0  0  0  0  0  0  0  0  0  0  0
   -0.3040   -3.7300    0.9590 H   0  0  0  0  0  0  0  0  0  0  0  0
   -1.1910   -4.5050    2.1290 H   0  0  0  0  0  0  0  0  0  0  0  0
    2.8740   -0.9910    2.3410 C   0  0  0  0  0  0  0  0  0  0  0  0
    2.2550    0.3350    2.5930 C   0  0  1  0  0  0  0  0  0  0  0  0
    3.1640    1.3760    2.2410 O   0  0  0  0  0  0  0  0  0  0  0  0
    0.9470    0.6490    1.9500 C   0  0  2  0  0  0  0  0  0  0  0  0
   -0.1370   -0.2480    2.1710 N   0  0  0  0  0  0  0  0  0  0  0  0
    1.0470    1.3300    0.6680 C   0  0  0  0  0  0  0  0  0  0  0  0
    2.0610    2.0740    0.4510 O   0  0  0  0  0  0  0  0  0  0  0  0
    3.1010   -1.2180    1.2790 H   0  0  0  0  0  0  0  0  0  0  0  0
    2.3870   -1.8040    2.9060 H   0  0  0  0  0  0  0  0  0  0  0  0
    3.9360   -1.0040    2.8010 H   0  0  0  0  0  0  0  0  0  0  0  0
    2.2010    0.4450    3.7200 H   0  0  0  0  0  0  0  0  0  0  0  0
    3.9620    1.3150    2.8170 H   0  0  0  0  0  0  0  0  0  0  0  0
    0.6040    1.5840    2.6450 H   0  0  0  0  0  0  0  0  0  0  0  0
   -0.9970    0.0610    2.7670 H   0  0  0  0  0  0  0  0  0  0  0  0
   -2.7700   -2.6090   -1.1430 N   0  0  0  0  0  0  0  0  0  0  0  0
   -1.5100   -2.5750   -1.7970 C   0  0  0  0  0  0  0  0  0  0  0  0
   -0.7770   -3.6490   -1.7800 N   0  0  0  0  0  0  0  0  0  0  0  0
   -1.0380   -1.4160   -2.4640 N   0  0  0  0  0  0  0  0  0  0  0  0
    0.3690   -1.0740   -2.5000 C   0  0  0  0  0  0  0  0  0  0  0  0
    0.5970    0.1590   -3.3460 C   0  0  0  0  0  0  0  0  0  0  0  0
   -0.0830    1.3860   -2.8870 C   0  0  0  0  0  0  0  0  0  0  0  0
    0.2590    1.9820   -1.6010 C   0  0  2  0  0  0  0  0  0  0  0  0
    0.0980    1.2450   -0.3750 N   0  0  0  0  0  0  0  0  0  0  0  0
   -0.4990    3.2930   -1.5050 C   0  0  0  0  0  0  0  0  0  0  0  0
   -0.4390    4.0280   -2.5140 O   0  0  0  0  0  0  0  0  0  0  0  0
   -1.2130    3.6840   -0.4120 O   0  0  0  0  0  0  0  0  0  0  0  0
   -3.1580   -1.7800   -0.6530 H   0  0  0  0  0  0  0  0  0  0  0  0
   -3.3170   -3.4930   -1.1590 H   0  0  0  0  0  0  0  0  0  0  0  0
   -1.0560   -4.5190   -1.3220 H   0  0  0  0  0  0  0  0  0  0  0  0
   -1.7420   -0.8100   -2.9320 H   0  0  0  0  0  0  0  0  0  0  0  0
    0.7150   -0.9290   -1.4600 H   0  0  0  0  0  0  0  0  0  0  0  0
    0.9090   -1.9520   -2.9010 H   0  0  0  0  0  0  0  0  0  0  0  0
    0.1590   -0.0960   -4.3570 H   0  0  0  0  0  0  0  0  0  0  0  0
    1.6810    0.3160   -3.5570 H   0  0  0  0  0  0  0  0  0  0  0  0
    0.1210    2.1680   -3.6970 H   0  0  0  0  0  0  0  0  0  0  0  0
   -1.1920    1.2230   -3.0270 H   0  0  0  0  0  0  0  0  0  0  0  0
    1.3350    2.3520   -1.6060 H   0  0  0  0  0  0  0  0  0  0  0  0
   -0.7450    0.6420   -0.2770 H   0  0  0  0  0  0  0  0  0  0  0  0
  1 10  1  0  0  0  0
  1  8  1  0  0  0  0
  2 11  1  1  0  0  0
  2  1  1  0  0  0  0
  2  3  1  0  0  0  0
  3 12  1  0  0  0  0
  4 13  1  6  0  0  0
  4  2  1  0  0  0  0
  5  4  1  0  0  0  0
  5 15  1  0  0  0  0
  6  4  1  0  0  0  0
  6 20  1  0  0  0  0
  7  6  2  0  0  0  0
  9  1  1  0  0  0  0
 14  5  1  0  0  0  0
 16 17  1  0  0  0  0
 16 25  1  0  0  0  0
 16 24  1  0  0  0  0
 17 26  1  1  0  0  0
 18 17  1  0  0  0  0
 18 27  1  0  0  0  0
 19 20  1  0  0  0  0
 19 17  1  0  0  0  0
 19 28  1  1  0  0  0
 20 29  1  0  0  0  0
 21 19  1  0  0  0  0
 22 21  2  0  0  0  0
 23 16  1  0  0  0  0
 30 42  1  0  0  0  0
 31 32  2  0  0  0  0
 31 30  1  0  0  0  0
 32 44  1  0  0  0  0
 33 31  1  0  0  0  0
 34 33  1  0  0  0  0
 34 46  1  0  0  0  0
 35 36  1  0  0  0  0
 35 34  1  0  0  0  0
 36 37  1  0  0  0  0
 37 52  1  6  0  0  0
 37 39  1  0  0  0  0
 37 38  1  0  0  0  0
 38 53  1  0  0  0  0
 38 21  1  0  0  0  0
 39 41  1  0  0  0  0
 40 39  2  0  0  0  0
 43 30  1  0  0  0  0
 45 33  1  0  0  0  0
 47 34  1  0  0  0  0
 48 35  1  0  0  0  0
 49 35  1  0  0  0  0
 50 36  1  0  0  0  0
 51 36  1  0  0  0  0
M  END
$$$$
