TTS.pdb
 OpenBabel07022419143D

 41 40  0  0  1  0  0  0  0  0999 V2000
   -0.3480   -5.5510   -0.6580 C   0  0  0  0  0  0  0  0  0  0  0  0
    0.4880   -4.3090   -0.8730 C   0  0  1  0  0  0  0  0  0  0  0  0
    0.3250   -3.8940   -2.1810 O   0  0  0  0  0  0  0  0  0  0  0  0
    0.1300   -3.2490    0.1360 C   0  0  2  0  0  0  0  0  0  0  0  0
   -1.2450   -2.8240    0.0240 N   0  0  0  0  0  0  0  0  0  0  0  0
    1.0740   -2.1070    0.1210 C   0  0  0  0  0  0  0  0  0  0  0  0
    2.3130   -2.3060    0.2120 O   0  0  0  0  0  0  0  0  0  0  0  0
   -0.4130   -6.1490   -1.5980 H   0  0  0  0  0  0  0  0  0  0  0  0
   -1.3870   -5.3170   -0.3730 H   0  0  0  0  0  0  0  0  0  0  0  0
    0.1400   -6.2370    0.0930 H   0  0  0  0  0  0  0  0  0  0  0  0
    1.5460   -4.6190   -0.7600 H   0  0  0  0  0  0  0  0  0  0  0  0
   -0.6470   -3.8660   -2.4460 H   0  0  0  0  0  0  0  0  0  0  0  0
    0.2320   -3.7270    1.1440 H   0  0  0  0  0  0  0  0  0  0  0  0
   -1.8470   -3.1980    0.7990 H   0  0  0  0  0  0  0  0  0  0  0  0
   -1.7000   -3.0780   -0.8580 H   0  0  0  0  0  0  0  0  0  0  0  0
    2.3810    2.3850   -1.2320 C   0  0  0  0  0  0  0  0  0  0  0  0
    1.4990    1.1680   -1.2800 C   0  0  1  0  0  0  0  0  0  0  0  0
    1.7780    0.4070   -2.3990 O   0  0  0  0  0  0  0  0  0  0  0  0
    1.5900    0.3540   -0.0060 C   0  0  2  0  0  0  0  0  0  0  0  0
    0.6720   -0.7460    0.0080 N   0  0  0  0  0  0  0  0  0  0  0  0
    1.3090    1.1930    1.1870 C   0  0  0  0  0  0  0  0  0  0  0  0
    2.0160    2.2140    1.3540 O   0  0  0  0  0  0  0  0  0  0  0  0
    1.8610    3.2900   -0.9200 H   0  0  0  0  0  0  0  0  0  0  0  0
    2.7640    2.5640   -2.2700 H   0  0  0  0  0  0  0  0  0  0  0  0
    3.2940    2.2290   -0.6120 H   0  0  0  0  0  0  0  0  0  0  0  0
    0.4460    1.5420   -1.3700 H   0  0  0  0  0  0  0  0  0  0  0  0
    2.3420    0.8930   -3.0650 H   0  0  0  0  0  0  0  0  0  0  0  0
    2.6520    0.0340    0.0820 H   0  0  0  0  0  0  0  0  0  0  0  0
   -0.3410   -0.5530   -0.0680 H   0  0  0  0  0  0  0  0  0  0  0  0
   -1.5770    3.0560    4.3480 O   0  0  0  0  0  0  0  0  0  0  0  0
   -1.3660    2.2780    3.2110 C   0  0  0  0  0  0  0  0  0  0  0  0
    0.0220    1.6930    3.2740 C   0  0  2  0  0  0  0  0  0  0  0  0
    0.2920    0.8780    2.1180 N   0  0  0  0  0  0  0  0  0  0  0  0
    0.2710    0.9430    4.5150 C   0  0  0  0  0  0  0  0  0  0  0  0
    0.1120    1.4230    5.6650 O   0  0  0  0  0  0  0  0  0  0  0  0
    0.7020   -0.3620    4.4350 O   0  0  0  0  0  0  0  0  0  0  0  0
   -0.9030    3.7800    4.4020 H   0  0  0  0  0  0  0  0  0  0  0  0
   -2.1550    1.5170    3.1700 H   0  0  0  0  0  0  0  0  0  0  0  0
   -1.3980    2.9410    2.3070 H   0  0  0  0  0  0  0  0  0  0  0  0
    0.7350    2.5650    3.2800 H   0  0  0  0  0  0  0  0  0  0  0  0
   -0.2960    0.0170    1.9680 H   0  0  0  0  0  0  0  0  0  0  0  0
  1  9  1  0  0  0  0
  1 10  1  0  0  0  0
  2 11  1  1  0  0  0
  2  1  1  0  0  0  0
  2  4  1  0  0  0  0
  3  2  1  0  0  0  0
  4 13  1  1  0  0  0
  5  4  1  0  0  0  0
  5 14  1  0  0  0  0
  6  4  1  0  0  0  0
  6  7  2  0  0  0  0
  8  1  1  0  0  0  0
 12  3  1  0  0  0  0
 15  5  1  0  0  0  0
 16 23  1  0  0  0  0
 16 25  1  0  0  0  0
 17 26  1  6  0  0  0
 17 16  1  0  0  0  0
 17 19  1  0  0  0  0
 18 17  1  0  0  0  0
 19 20  1  0  0  0  0
 19 28  1  1  0  0  0
 19 21  1  0  0  0  0
 20  6  1  0  0  0  0
 21 22  2  0  0  0  0
 21 33  1  0  0  0  0
 24 16  1  0  0  0  0
 27 18  1  0  0  0  0
 29 20  1  0  0  0  0
 30 37  1  0  0  0  0
 31 32  1  0  0  0  0
 31 30  1  0  0  0  0
 32 40  1  6  0  0  0
 32 34  1  0  0  0  0
 33 32  1  0  0  0  0
 34 35  1  0  0  0  0
 36 34  2  0  0  0  0
 38 31  1  0  0  0  0
 39 31  1  0  0  0  0
 41 33  1  0  0  0  0
M  END
$$$$
