TTW.pdb
 OpenBabel07022419143D

 54 55  0  0  1  0  0  0  0  0999 V2000
    1.3790   -2.6830   -0.0230 C   0  0  0  0  0  0  0  0  0  0  0  0
    2.8760   -2.7790    0.1000 C   0  0  1  0  0  0  0  0  0  0  0  0
    3.2490   -3.8940   -0.6770 O   0  0  0  0  0  0  0  0  0  0  0  0
    3.5360   -1.5270   -0.4410 C   0  0  2  0  0  0  0  0  0  0  0  0
    5.0100   -1.7320   -0.3920 N   0  0  0  0  0  0  0  0  0  0  0  0
    3.1890   -0.3750    0.4020 C   0  0  0  0  0  0  0  0  0  0  0  0
    4.0320    0.0330    1.2660 O   0  0  0  0  0  0  0  0  0  0  0  0
    0.9960   -3.7430   -0.0510 H   0  0  0  0  0  0  0  0  0  0  0  0
    1.1290   -2.1870   -0.9580 H   0  0  0  0  0  0  0  0  0  0  0  0
    0.9230   -2.2390    0.8950 H   0  0  0  0  0  0  0  0  0  0  0  0
    3.1270   -2.8970    1.1570 H   0  0  0  0  0  0  0  0  0  0  0  0
    2.5030   -4.5670   -0.7220 H   0  0  0  0  0  0  0  0  0  0  0  0
    3.2930   -1.3810   -1.4970 H   0  0  0  0  0  0  0  0  0  0  0  0
    5.4720   -1.1120   -1.1000 H   0  0  0  0  0  0  0  0  0  0  0  0
    5.1960   -2.7140   -0.6910 H   0  0  0  0  0  0  0  0  0  0  0  0
    1.7680    3.9530    1.3830 C   0  0  0  0  0  0  0  0  0  0  0  0
    1.9210    2.8040    0.4360 C   0  0  1  0  0  0  0  0  0  0  0  0
    3.2180    2.7750   -0.0540 O   0  0  0  0  0  0  0  0  0  0  0  0
    1.7580    1.4960    1.2410 C   0  0  2  0  0  0  0  0  0  0  0  0
    1.9710    0.3710    0.3570 N   0  0  0  0  0  0  0  0  0  0  0  0
    0.4450    1.4480    1.8640 C   0  0  0  0  0  0  0  0  0  0  0  0
    0.1490    2.3330    2.7140 O   0  0  0  0  0  0  0  0  0  0  0  0
    2.3990    4.8150    1.0610 H   0  0  0  0  0  0  0  0  0  0  0  0
    2.1550    3.6180    2.3770 H   0  0  0  0  0  0  0  0  0  0  0  0
    0.7070    4.2690    1.4980 H   0  0  0  0  0  0  0  0  0  0  0  0
    1.1940    2.8190   -0.4080 H   0  0  0  0  0  0  0  0  0  0  0  0
    3.7930    3.2930    0.5580 H   0  0  0  0  0  0  0  0  0  0  0  0
    2.5530    1.5680    2.0150 H   0  0  0  0  0  0  0  0  0  0  0  0
    1.2570    0.0820   -0.3350 H   0  0  0  0  0  0  0  0  0  0  0  0
   -0.5130    0.4730    1.5720 N   0  0  0  0  0  0  0  0  0  0  0  0
   -1.8280    0.4140    2.1880 C   0  0  1  0  0  0  0  0  0  0  0  0
   -2.9370    0.5860    1.2240 C   0  0  0  0  0  0  0  0  0  0  0  0
   -3.0100   -0.3790    0.1200 C   0  0  0  0  0  0  0  0  0  0  0  0
   -2.4150   -0.1060   -1.1220 C   0  0  0  0  0  0  0  0  0  0  0  0
   -2.5870   -1.1710   -1.9380 N   0  0  0  0  0  0  0  0  0  0  0  0
   -3.2680   -2.1320   -1.2890 C   0  0  0  0  0  0  0  0  0  0  0  0
   -3.7170   -3.3910   -1.6380 C   0  0  0  0  0  0  0  0  0  0  0  0
   -4.4280   -4.1790   -0.7470 C   0  0  0  0  0  0  0  0  0  0  0  0
   -4.6780   -3.6780    0.5010 C   0  0  0  0  0  0  0  0  0  0  0  0
   -4.2390   -2.4260    0.8680 C   0  0  0  0  0  0  0  0  0  0  0  0
   -3.5240   -1.6350   -0.0230 C   0  0  0  0  0  0  0  0  0  0  0  0
   -1.9400   -0.8380    2.9330 C   0  0  0  0  0  0  0  0  0  0  0  0
   -2.9150   -1.0930    3.6750 O   0  0  0  0  0  0  0  0  0  0  0  0
   -0.9570   -1.8200    2.8520 O   0  0  0  0  0  0  0  0  0  0  0  0
   -0.3000   -0.2520    0.8770 H   0  0  0  0  0  0  0  0  0  0  0  0
   -1.8720    1.2930    2.8880 H   0  0  0  0  0  0  0  0  0  0  0  0
   -3.8830    0.4280    1.8350 H   0  0  0  0  0  0  0  0  0  0  0  0
   -3.0690    1.6390    0.8740 H   0  0  0  0  0  0  0  0  0  0  0  0
   -1.8960    0.7960   -1.4160 H   0  0  0  0  0  0  0  0  0  0  0  0
   -2.2580   -1.2720   -2.9230 H   0  0  0  0  0  0  0  0  0  0  0  0
   -3.5320   -3.8090   -2.6190 H   0  0  0  0  0  0  0  0  0  0  0  0
   -4.7790   -5.1750   -1.0370 H   0  0  0  0  0  0  0  0  0  0  0  0
   -5.2440   -4.3050    1.2080 H   0  0  0  0  0  0  0  0  0  0  0  0
   -4.4840   -2.0830    1.8580 H   0  0  0  0  0  0  0  0  0  0  0  0
  1  2  1  0  0  0  0
  1 10  1  0  0  0  0
  2 11  1  1  0  0  0
  3  2  1  0  0  0  0
  4 13  1  6  0  0  0
  4  5  1  0  0  0  0
  4  2  1  0  0  0  0
  4  6  1  0  0  0  0
  6  7  2  0  0  0  0
  8  1  1  0  0  0  0
  9  1  1  0  0  0  0
 12  3  1  0  0  0  0
 14  5  1  0  0  0  0
 15  5  1  0  0  0  0
 16 25  1  0  0  0  0
 16 24  1  0  0  0  0
 17 26  1  6  0  0  0
 17 19  1  0  0  0  0
 17 16  1  0  0  0  0
 18 17  1  0  0  0  0
 18 27  1  0  0  0  0
 19 21  1  0  0  0  0
 19 28  1  1  0  0  0
 20  6  1  0  0  0  0
 20 19  1  0  0  0  0
 21 22  2  0  0  0  0
 23 16  1  0  0  0  0
 29 20  1  0  0  0  0
 30 21  1  0  0  0  0
 30 31  1  0  0  0  0
 31 46  1  1  0  0  0
 31 42  1  0  0  0  0
 32 47  1  0  0  0  0
 32 31  1  0  0  0  0
 33 32  1  0  0  0  0
 34 33  2  0  0  0  0
 35 36  1  0  0  0  0
 35 34  1  0  0  0  0
 36 41  1  0  0  0  0
 37 36  2  0  0  0  0
 37 38  1  0  0  0  0
 38 39  2  0  0  0  0
 39 40  1  0  0  0  0
 39 53  1  0  0  0  0
 40 54  1  0  0  0  0
 41 33  1  0  0  0  0
 41 40  2  0  0  0  0
 42 43  1  0  0  0  0
 44 42  2  0  0  0  0
 45 30  1  0  0  0  0
 48 32  1  0  0  0  0
 49 34  1  0  0  0  0
 50 35  1  0  0  0  0
 51 37  1  0  0  0  0
 52 38  1  0  0  0  0
M  END
$$$$
