TTY.pdb
 OpenBabel07022419143D

 51 51  0  0  1  0  0  0  0  0999 V2000
    2.0490    0.3110   -1.9890 C   0  0  0  0  0  0  0  0  0  0  0  0
    3.0340   -0.4800   -1.2070 C   0  0  1  0  0  0  0  0  0  0  0  0
    4.3000   -0.3250   -1.8230 O   0  0  0  0  0  0  0  0  0  0  0  0
    3.2110   -0.0510    0.2120 C   0  0  2  0  0  0  0  0  0  0  0  0
    4.2440   -0.9410    0.7720 N   0  0  0  0  0  0  0  0  0  0  0  0
    1.9810   -0.1840    1.0470 C   0  0  0  0  0  0  0  0  0  0  0  0
    0.9460    0.4540    0.7990 O   0  0  0  0  0  0  0  0  0  0  0  0
    2.5690    0.8740   -2.7870 H   0  0  0  0  0  0  0  0  0  0  0  0
    1.5270    1.0770   -1.3710 H   0  0  0  0  0  0  0  0  0  0  0  0
    1.3260   -0.3540   -2.5120 H   0  0  0  0  0  0  0  0  0  0  0  0
    2.7980   -1.5620   -1.3080 H   0  0  0  0  0  0  0  0  0  0  0  0
    4.8540   -1.1200   -1.7300 H   0  0  0  0  0  0  0  0  0  0  0  0
    3.5960    0.9690    0.2840 H   0  0  0  0  0  0  0  0  0  0  0  0
    4.0380   -1.9010    0.3960 H   0  0  0  0  0  0  0  0  0  0  0  0
    5.1850   -0.6820    0.3840 H   0  0  0  0  0  0  0  0  0  0  0  0
    0.4480    1.2390    3.5760 C   0  0  0  0  0  0  0  0  0  0  0  0
    0.5480   -0.1610    3.9930 C   0  0  1  0  0  0  0  0  0  0  0  0
   -0.6210   -0.5430    4.6990 O   0  0  0  0  0  0  0  0  0  0  0  0
    0.8180   -1.2210    2.9970 C   0  0  2  0  0  0  0  0  0  0  0  0
    1.9650   -1.0560    2.1640 N   0  0  0  0  0  0  0  0  0  0  0  0
   -0.3810   -1.7970    2.3650 C   0  0  0  0  0  0  0  0  0  0  0  0
   -1.4680   -1.9440    3.0270 O   0  0  0  0  0  0  0  0  0  0  0  0
   -0.3730    1.5240    2.9160 H   0  0  0  0  0  0  0  0  0  0  0  0
    0.2540    1.8420    4.5230 H   0  0  0  0  0  0  0  0  0  0  0  0
    1.3880    1.6590    3.1930 H   0  0  0  0  0  0  0  0  0  0  0  0
    1.3620   -0.2140    4.7770 H   0  0  0  0  0  0  0  0  0  0  0  0
   -0.4400   -1.4140    5.1660 H   0  0  0  0  0  0  0  0  0  0  0  0
    1.1440   -2.1070    3.6860 H   0  0  0  0  0  0  0  0  0  0  0  0
    2.8740   -1.6050    2.3700 H   0  0  0  0  0  0  0  0  0  0  0  0
   -3.6190    3.2970   -0.5720 O   0  0  0  0  0  0  0  0  0  0  0  0
   -3.3050    1.9530   -0.6080 C   0  0  0  0  0  0  0  0  0  0  0  0
   -4.2050    0.9500   -0.2930 C   0  0  0  0  0  0  0  0  0  0  0  0
   -3.8760   -0.3810   -0.3340 C   0  0  0  0  0  0  0  0  0  0  0  0
   -2.6290   -0.7830   -0.6930 C   0  0  0  0  0  0  0  0  0  0  0  0
   -2.1680   -2.1770   -0.7840 C   0  0  0  0  0  0  0  0  0  0  0  0
   -1.6260   -2.8090    0.4200 C   0  0  2  0  0  0  0  0  0  0  0  0
   -0.4590   -2.2300    1.0390 N   0  0  0  0  0  0  0  0  0  0  0  0
   -1.2740   -4.2210    0.0870 C   0  0  0  0  0  0  0  0  0  0  0  0
   -0.1580   -4.7280    0.3310 O   0  0  0  0  0  0  0  0  0  0  0  0
   -1.7180    0.2150   -1.0110 C   0  0  0  0  0  0  0  0  0  0  0  0
   -2.0440    1.5610   -0.9720 C   0  0  0  0  0  0  0  0  0  0  0  0
   -2.2160   -5.0570   -0.5330 O   0  0  0  0  0  0  0  0  0  0  0  0
   -4.2910    3.7220    0.0250 H   0  0  0  0  0  0  0  0  0  0  0  0
   -5.2070    1.3000   -0.0050 H   0  0  0  0  0  0  0  0  0  0  0  0
   -4.6200   -1.0980   -0.0780 H   0  0  0  0  0  0  0  0  0  0  0  0
   -1.4110   -2.3140   -1.6120 H   0  0  0  0  0  0  0  0  0  0  0  0
   -3.0450   -2.7800   -1.1290 H   0  0  0  0  0  0  0  0  0  0  0  0
   -2.3800   -2.8990    1.2590 H   0  0  0  0  0  0  0  0  0  0  0  0
    0.3770   -2.1500    0.4230 H   0  0  0  0  0  0  0  0  0  0  0  0
   -0.7230   -0.0470   -1.3040 H   0  0  0  0  0  0  0  0  0  0  0  0
   -1.3260    2.3420   -1.2220 H   0  0  0  0  0  0  0  0  0  0  0  0
  1  9  1  0  0  0  0
  1  2  1  0  0  0  0
  2 11  1  6  0  0  0
  2  4  1  0  0  0  0
  3 12  1  0  0  0  0
  3  2  1  0  0  0  0
  4 13  1  1  0  0  0
  4  5  1  0  0  0  0
  4  6  1  0  0  0  0
  6 20  1  0  0  0  0
  7  6  2  0  0  0  0
  8  1  1  0  0  0  0
 10  1  1  0  0  0  0
 14  5  1  0  0  0  0
 15  5  1  0  0  0  0
 16 17  1  0  0  0  0
 16 24  1  0  0  0  0
 17 18  1  0  0  0  0
 17 26  1  1  0  0  0
 18 27  1  0  0  0  0
 19 28  1  1  0  0  0
 19 17  1  0  0  0  0
 20 29  1  0  0  0  0
 20 19  1  0  0  0  0
 21 19  1  0  0  0  0
 21 22  2  0  0  0  0
 23 16  1  0  0  0  0
 25 16  1  0  0  0  0
 30 43  1  0  0  0  0
 31 30  1  0  0  0  0
 31 32  1  0  0  0  0
 32 44  1  0  0  0  0
 33 32  2  0  0  0  0
 33 45  1  0  0  0  0
 34 33  1  0  0  0  0
 35 34  1  0  0  0  0
 35 36  1  0  0  0  0
 36 37  1  0  0  0  0
 36 48  1  1  0  0  0
 37 21  1  0  0  0  0
 38 39  1  0  0  0  0
 38 36  1  0  0  0  0
 40 41  1  0  0  0  0
 40 34  2  0  0  0  0
 41 31  2  0  0  0  0
 42 38  2  0  0  0  0
 46 35  1  0  0  0  0
 47 35  1  0  0  0  0
 49 37  1  0  0  0  0
 50 40  1  0  0  0  0
 51 41  1  0  0  0  0
M  END
$$$$
