TVA.pdb
 OpenBabel07022419153D

 42 41  0  0  1  0  0  0  0  0999 V2000
   -1.0920   -3.9920   -1.1830 C   0  0  0  0  0  0  0  0  0  0  0  0
    0.0900   -4.4020   -0.3470 C   0  0  1  0  0  0  0  0  0  0  0  0
    1.1710   -4.5490   -1.2440 O   0  0  0  0  0  0  0  0  0  0  0  0
    0.4280   -3.3870    0.7220 C   0  0  2  0  0  0  0  0  0  0  0  0
   -0.6920   -3.2660    1.6170 N   0  0  0  0  0  0  0  0  0  0  0  0
    0.8730   -2.1010    0.1520 C   0  0  0  0  0  0  0  0  0  0  0  0
    1.8330   -2.1070   -0.6460 O   0  0  0  0  0  0  0  0  0  0  0  0
   -1.7370   -3.3440   -0.5860 H   0  0  0  0  0  0  0  0  0  0  0  0
   -1.6370   -4.9220   -1.4740 H   0  0  0  0  0  0  0  0  0  0  0  0
   -0.7640   -3.5270   -2.1310 H   0  0  0  0  0  0  0  0  0  0  0  0
   -0.0870   -5.4030    0.0920 H   0  0  0  0  0  0  0  0  0  0  0  0
    0.8770   -4.9470   -2.0900 H   0  0  0  0  0  0  0  0  0  0  0  0
    1.2560   -3.8510    1.3270 H   0  0  0  0  0  0  0  0  0  0  0  0
   -0.3220   -3.0090    2.5590 H   0  0  0  0  0  0  0  0  0  0  0  0
   -1.4540   -2.6600    1.3040 H   0  0  0  0  0  0  0  0  0  0  0  0
   -1.5280    1.4640   -0.1830 C   0  0  0  0  0  0  0  0  0  0  0  0
   -0.2770    1.1010   -0.9540 C   0  0  0  0  0  0  0  0  0  0  0  0
   -0.5940    0.3610   -2.2390 C   0  0  0  0  0  0  0  0  0  0  0  0
    0.7200    0.3670   -0.1050 C   0  0  2  0  0  0  0  0  0  0  0  0
    0.2810   -0.8560    0.4510 N   0  0  0  0  0  0  0  0  0  0  0  0
    1.2430    1.3160    0.8940 C   0  0  0  0  0  0  0  0  0  0  0  0
    1.6610    2.4300    0.5290 O   0  0  0  0  0  0  0  0  0  0  0  0
   -1.4270    1.2060    0.9100 H   0  0  0  0  0  0  0  0  0  0  0  0
   -1.7280    2.5610   -0.1910 H   0  0  0  0  0  0  0  0  0  0  0  0
   -2.4360    0.9930   -0.6220 H   0  0  0  0  0  0  0  0  0  0  0  0
    0.1930    2.0610   -1.2630 H   0  0  0  0  0  0  0  0  0  0  0  0
   -0.7190   -0.7290   -1.9730 H   0  0  0  0  0  0  0  0  0  0  0  0
   -1.5760    0.6600   -2.6600 H   0  0  0  0  0  0  0  0  0  0  0  0
    0.1550    0.5120   -3.0250 H   0  0  0  0  0  0  0  0  0  0  0  0
    1.5900    0.1380   -0.7920 H   0  0  0  0  0  0  0  0  0  0  0  0
   -0.5200   -0.8650    1.1190 H   0  0  0  0  0  0  0  0  0  0  0  0
    0.7450    2.2970    4.2500 C   0  0  0  0  0  0  0  0  0  0  0  0
    1.7880    1.9050    3.2440 C   0  0  2  0  0  0  0  0  0  0  0  0
    1.2720    0.9690    2.2580 N   0  0  0  0  0  0  0  0  0  0  0  0
    2.9530    1.3000    3.9630 C   0  0  0  0  0  0  0  0  0  0  0  0
    3.3200    0.1560    3.6610 O   0  0  0  0  0  0  0  0  0  0  0  0
    3.5960    2.0320    4.9490 O   0  0  0  0  0  0  0  0  0  0  0  0
    1.2060    2.3250    5.2550 H   0  0  0  0  0  0  0  0  0  0  0  0
    0.3650    3.3380    4.0700 H   0  0  0  0  0  0  0  0  0  0  0  0
   -0.1250    1.6100    4.2280 H   0  0  0  0  0  0  0  0  0  0  0  0
    2.1140    2.8430    2.7350 H   0  0  0  0  0  0  0  0  0  0  0  0
    0.9260    0.0380    2.5860 H   0  0  0  0  0  0  0  0  0  0  0  0
  1  8  1  0  0  0  0
  1  2  1  0  0  0  0
  2 11  1  1  0  0  0
  2  4  1  0  0  0  0
  3  2  1  0  0  0  0
  4 13  1  1  0  0  0
  4  5  1  0  0  0  0
  5 14  1  0  0  0  0
  6 20  1  0  0  0  0
  6  4  1  0  0  0  0
  7  6  2  0  0  0  0
  9  1  1  0  0  0  0
 10  1  1  0  0  0  0
 12  3  1  0  0  0  0
 15  5  1  0  0  0  0
 16 23  1  0  0  0  0
 17 16  1  0  0  0  0
 17 19  1  0  0  0  0
 18 27  1  0  0  0  0
 18 17  1  0  0  0  0
 19 30  1  6  0  0  0
 19 20  1  0  0  0  0
 19 21  1  0  0  0  0
 20 31  1  0  0  0  0
 21 34  1  0  0  0  0
 22 21  2  0  0  0  0
 24 16  1  0  0  0  0
 25 16  1  0  0  0  0
 26 17  1  0  0  0  0
 28 18  1  0  0  0  0
 29 18  1  0  0  0  0
 32 38  1  0  0  0  0
 33 41  1  6  0  0  0
 33 35  1  0  0  0  0
 33 32  1  0  0  0  0
 34 42  1  0  0  0  0
 34 33  1  0  0  0  0
 35 37  1  0  0  0  0
 36 35  2  0  0  0  0
 39 32  1  0  0  0  0
 40 32  1  0  0  0  0
M  END
$$$$
