TVC.pdb
 OpenBabel07022419153D

 43 42  0  0  1  0  0  0  0  0999 V2000
    1.5070   -4.6040    3.4090 C   0  0  0  0  0  0  0  0  0  0  0  0
    1.6080   -3.9860    2.0300 C   0  0  1  0  0  0  0  0  0  0  0  0
    0.6440   -4.5670    1.2340 O   0  0  0  0  0  0  0  0  0  0  0  0
    1.3900   -2.4910    2.1980 C   0  0  2  0  0  0  0  0  0  0  0  0
    0.1000   -2.2420    2.8120 N   0  0  0  0  0  0  0  0  0  0  0  0
    1.5300   -1.7740    0.9040 C   0  0  0  0  0  0  0  0  0  0  0  0
    2.6150   -1.9230    0.2850 O   0  0  0  0  0  0  0  0  0  0  0  0
    0.4410   -4.6290    3.7260 H   0  0  0  0  0  0  0  0  0  0  0  0
    1.7870   -5.6900    3.2740 H   0  0  0  0  0  0  0  0  0  0  0  0
    2.1650   -4.1050    4.1470 H   0  0  0  0  0  0  0  0  0  0  0  0
    2.6440   -4.1420    1.6660 H   0  0  0  0  0  0  0  0  0  0  0  0
    0.4940   -5.4910    1.5640 H   0  0  0  0  0  0  0  0  0  0  0  0
    2.1580   -2.1510    2.9310 H   0  0  0  0  0  0  0  0  0  0  0  0
    0.0150   -1.1950    2.9170 H   0  0  0  0  0  0  0  0  0  0  0  0
    0.1700   -2.6080    3.8040 H   0  0  0  0  0  0  0  0  0  0  0  0
   -1.7010   -0.3210   -1.4030 C   0  0  0  0  0  0  0  0  0  0  0  0
   -0.3450   -0.6990   -1.9240 C   0  0  0  0  0  0  0  0  0  0  0  0
   -0.2360   -2.1780   -2.2460 C   0  0  0  0  0  0  0  0  0  0  0  0
    0.7210   -0.2950   -0.8950 C   0  0  2  0  0  0  0  0  0  0  0  0
    0.5120   -0.9500    0.3530 N   0  0  0  0  0  0  0  0  0  0  0  0
    0.6570    1.1820   -0.8010 C   0  0  0  0  0  0  0  0  0  0  0  0
    0.8320    1.8370   -1.8610 O   0  0  0  0  0  0  0  0  0  0  0  0
   -2.1920    0.4790   -2.0310 H   0  0  0  0  0  0  0  0  0  0  0  0
   -1.6080    0.1260   -0.3910 H   0  0  0  0  0  0  0  0  0  0  0  0
   -2.3790   -1.2230   -1.3820 H   0  0  0  0  0  0  0  0  0  0  0  0
   -0.1920   -0.1520   -2.8740 H   0  0  0  0  0  0  0  0  0  0  0  0
   -0.5230   -2.3830   -3.3120 H   0  0  0  0  0  0  0  0  0  0  0  0
    0.8270   -2.5250   -2.1610 H   0  0  0  0  0  0  0  0  0  0  0  0
   -0.9240   -2.7760   -1.6230 H   0  0  0  0  0  0  0  0  0  0  0  0
    1.7280   -0.5470   -1.2800 H   0  0  0  0  0  0  0  0  0  0  0  0
   -0.3620   -0.8770    0.9270 H   0  0  0  0  0  0  0  0  0  0  0  0
    0.4170    1.9040    0.3810 N   0  0  0  0  0  0  0  0  0  0  0  0
    0.3540    3.3300    0.4830 C   0  0  1  0  0  0  0  0  0  0  0  0
   -1.0610    3.6840    0.9620 C   0  0  0  0  0  0  0  0  0  0  0  0
   -1.3510    2.8970    2.5930 S   0  0  0  0  0  0  0  0  0  0  0  0
    1.3570    3.8590    1.4690 C   0  0  0  0  0  0  0  0  0  0  0  0
    2.1150    3.0650    2.0800 O   0  0  0  0  0  0  0  0  0  0  0  0
    1.4750    5.2100    1.7300 O   0  0  0  0  0  0  0  0  0  0  0  0
    0.2730    1.3520    1.2590 H   0  0  0  0  0  0  0  0  0  0  0  0
    0.5120    3.8590   -0.4620 H   0  0  0  0  0  0  0  0  0  0  0  0
   -1.7930    3.2120    0.2750 H   0  0  0  0  0  0  0  0  0  0  0  0
   -1.1870    4.7640    1.0640 H   0  0  0  0  0  0  0  0  0  0  0  0
   -1.5770    1.5210    2.4040 H   0  0  0  0  0  0  0  0  0  0  0  0
  1  8  1  0  0  0  0
  1 10  1  0  0  0  0
  2 11  1  6  0  0  0
  2  4  1  0  0  0  0
  2  1  1  0  0  0  0
  3 12  1  0  0  0  0
  3  2  1  0  0  0  0
  4  5  1  0  0  0  0
  4 13  1  1  0  0  0
  5 14  1  0  0  0  0
  5 15  1  0  0  0  0
  6  4  1  0  0  0  0
  7  6  2  0  0  0  0
  9  1  1  0  0  0  0
 16 25  1  0  0  0  0
 16 24  1  0  0  0  0
 17 16  1  0  0  0  0
 17 19  1  0  0  0  0
 18 28  1  0  0  0  0
 18 17  1  0  0  0  0
 18 29  1  0  0  0  0
 19 30  1  6  0  0  0
 19 21  1  0  0  0  0
 19 20  1  0  0  0  0
 20  6  1  0  0  0  0
 20 31  1  0  0  0  0
 21 32  1  0  0  0  0
 22 21  2  0  0  0  0
 23 16  1  0  0  0  0
 26 17  1  0  0  0  0
 27 18  1  0  0  0  0
 32 33  1  0  0  0  0
 32 39  1  0  0  0  0
 33 40  1  6  0  0  0
 33 34  1  0  0  0  0
 33 36  1  0  0  0  0
 34 42  1  0  0  0  0
 34 35  1  0  0  0  0
 36 38  2  0  0  0  0
 36 37  1  0  0  0  0
 41 34  1  0  0  0  0
 43 35  1  0  0  0  0
M  END
$$$$
