TVD.pdb
 OpenBabel07022419153D

 45 44  0  0  1  0  0  0  0  0999 V2000
   -0.4540   -4.4870    1.4830 C   0  0  0  0  0  0  0  0  0  0  0  0
    0.2650   -3.1700    1.3230 C   0  0  1  0  0  0  0  0  0  0  0  0
    1.0470   -2.8880    2.4560 O   0  0  0  0  0  0  0  0  0  0  0  0
    1.1920   -3.1940    0.1060 C   0  0  2  0  0  0  0  0  0  0  0  0
    2.2050   -4.2170    0.2630 N   0  0  0  0  0  0  0  0  0  0  0  0
    1.7910   -1.8380    0.0050 C   0  0  0  0  0  0  0  0  0  0  0  0
    3.0420   -1.7460    0.0990 O   0  0  0  0  0  0  0  0  0  0  0  0
   -1.3860   -4.2850    2.0700 H   0  0  0  0  0  0  0  0  0  0  0  0
    0.1820   -5.1220    2.1560 H   0  0  0  0  0  0  0  0  0  0  0  0
   -0.6870   -4.9830    0.5330 H   0  0  0  0  0  0  0  0  0  0  0  0
   -0.5000   -2.3820    1.1810 H   0  0  0  0  0  0  0  0  0  0  0  0
    1.9770   -3.2470    2.3020 H   0  0  0  0  0  0  0  0  0  0  0  0
    0.5850   -3.4610   -0.7800 H   0  0  0  0  0  0  0  0  0  0  0  0
    1.8900   -5.1470   -0.0400 H   0  0  0  0  0  0  0  0  0  0  0  0
    3.1430   -3.9250   -0.0160 H   0  0  0  0  0  0  0  0  0  0  0  0
   -0.2880    1.4450   -1.8030 C   0  0  0  0  0  0  0  0  0  0  0  0
    1.1870    1.2690   -1.6050 C   0  0  0  0  0  0  0  0  0  0  0  0
    1.8340    0.6050   -2.7830 C   0  0  0  0  0  0  0  0  0  0  0  0
    1.5270    0.6000   -0.2880 C   0  0  2  0  0  0  0  0  0  0  0  0
    0.9330   -0.7220   -0.1920 N   0  0  0  0  0  0  0  0  0  0  0  0
    0.9740    1.4630    0.7750 C   0  0  0  0  0  0  0  0  0  0  0  0
    1.3790    2.6390    0.8750 O   0  0  0  0  0  0  0  0  0  0  0  0
   -0.4590    1.5210   -2.9070 H   0  0  0  0  0  0  0  0  0  0  0  0
   -0.8780    0.5640   -1.4800 H   0  0  0  0  0  0  0  0  0  0  0  0
   -0.6730    2.3870   -1.3610 H   0  0  0  0  0  0  0  0  0  0  0  0
    1.6270    2.3040   -1.5320 H   0  0  0  0  0  0  0  0  0  0  0  0
    1.2350   -0.2090   -3.2310 H   0  0  0  0  0  0  0  0  0  0  0  0
    2.8640    0.2990   -2.5040 H   0  0  0  0  0  0  0  0  0  0  0  0
    1.9510    1.3790   -3.5730 H   0  0  0  0  0  0  0  0  0  0  0  0
    2.6360    0.5330   -0.2380 H   0  0  0  0  0  0  0  0  0  0  0  0
   -0.0940   -0.8760   -0.2680 H   0  0  0  0  0  0  0  0  0  0  0  0
   -0.0020    0.9680    1.6670 N   0  0  0  0  0  0  0  0  0  0  0  0
   -0.5680    1.7940    2.7300 C   0  0  1  0  0  0  0  0  0  0  0  0
   -1.9820    2.1680    2.3590 C   0  0  0  0  0  0  0  0  0  0  0  0
   -2.8320    0.9740    2.2020 C   0  0  0  0  0  0  0  0  0  0  0  0
   -4.0140    1.0710    1.7520 O   0  0  0  0  0  0  0  0  0  0  0  0
   -0.5500    1.0900    4.0290 C   0  0  0  0  0  0  0  0  0  0  0  0
   -1.0000    1.6660    5.0410 O   0  0  0  0  0  0  0  0  0  0  0  0
   -2.3310   -0.2640    2.5510 O   0  0  0  0  0  0  0  0  0  0  0  0
   -0.0510   -0.1920    4.1660 O   0  0  0  0  0  0  0  0  0  0  0  0
   -0.3030   -0.0180    1.5410 H   0  0  0  0  0  0  0  0  0  0  0  0
   -0.0230    2.7870    2.7670 H   0  0  0  0  0  0  0  0  0  0  0  0
   -1.9640    2.6650    1.3420 H   0  0  0  0  0  0  0  0  0  0  0  0
   -2.4120    2.8920    3.1010 H   0  0  0  0  0  0  0  0  0  0  0  0
   -2.9850   -1.0390    2.5650 H   0  0  0  0  0  0  0  0  0  0  0  0
  1  8  1  0  0  0  0
  1  9  1  0  0  0  0
  2 11  1  6  0  0  0
  2  1  1  0  0  0  0
  2  3  1  0  0  0  0
  4 13  1  6  0  0  0
  4  5  1  0  0  0  0
  4  2  1  0  0  0  0
  6  7  2  0  0  0  0
  6  4  1  0  0  0  0
 10  1  1  0  0  0  0
 12  3  1  0  0  0  0
 14  5  1  0  0  0  0
 15  5  1  0  0  0  0
 16 17  1  0  0  0  0
 16 24  1  0  0  0  0
 16 25  1  0  0  0  0
 17 26  1  0  0  0  0
 17 19  1  0  0  0  0
 18 28  1  0  0  0  0
 18 17  1  0  0  0  0
 19 30  1  1  0  0  0
 19 20  1  0  0  0  0
 19 21  1  0  0  0  0
 20  6  1  0  0  0  0
 21 22  2  0  0  0  0
 21 32  1  0  0  0  0
 23 16  1  0  0  0  0
 27 18  1  0  0  0  0
 29 18  1  0  0  0  0
 31 20  1  0  0  0  0
 32 33  1  0  0  0  0
 33 42  1  1  0  0  0
 33 37  1  0  0  0  0
 34 33  1  0  0  0  0
 34 44  1  0  0  0  0
 35 34  1  0  0  0  0
 35 39  1  0  0  0  0
 36 35  2  0  0  0  0
 37 40  2  0  0  0  0
 37 38  1  0  0  0  0
 39 45  1  0  0  0  0
 41 32  1  0  0  0  0
 43 34  1  0  0  0  0
M  END
$$$$
