TVF.pdb
 OpenBabel07022419153D

 52 52  0  0  1  0  0  0  0  0999 V2000
    2.8880   -4.9030    2.4850 C   0  0  0  0  0  0  0  0  0  0  0  0
    2.8440   -4.4140    1.0420 C   0  0  1  0  0  0  0  0  0  0  0  0
    2.9720   -5.5670    0.2420 O   0  0  0  0  0  0  0  0  0  0  0  0
    1.4610   -3.8630    0.7660 C   0  0  2  0  0  0  0  0  0  0  0  0
    1.2910   -3.5260   -0.6110 N   0  0  0  0  0  0  0  0  0  0  0  0
    1.2170   -2.7090    1.6760 C   0  0  0  0  0  0  0  0  0  0  0  0
    1.3270   -2.8360    2.9220 O   0  0  0  0  0  0  0  0  0  0  0  0
    3.4520   -5.8510    2.5840 H   0  0  0  0  0  0  0  0  0  0  0  0
    3.4030   -4.1360    3.1020 H   0  0  0  0  0  0  0  0  0  0  0  0
    1.8620   -5.1110    2.8730 H   0  0  0  0  0  0  0  0  0  0  0  0
    3.6130   -3.6700    0.8280 H   0  0  0  0  0  0  0  0  0  0  0  0
    2.0770   -6.0020    0.2480 H   0  0  0  0  0  0  0  0  0  0  0  0
    0.7440   -4.7050    0.9910 H   0  0  0  0  0  0  0  0  0  0  0  0
    2.1720   -3.4070   -1.1390 H   0  0  0  0  0  0  0  0  0  0  0  0
    0.5550   -4.0500   -1.0990 H   0  0  0  0  0  0  0  0  0  0  0  0
    2.9810    0.5060    1.9380 C   0  0  0  0  0  0  0  0  0  0  0  0
    1.5280    0.8750    1.7780 C   0  0  0  0  0  0  0  0  0  0  0  0
    1.2390    1.4730    0.4230 C   0  0  0  0  0  0  0  0  0  0  0  0
    0.6130   -0.2890    2.0730 C   0  0  2  0  0  0  0  0  0  0  0  0
    0.8530   -1.4200    1.1950 N   0  0  0  0  0  0  0  0  0  0  0  0
   -0.7990    0.1510    1.9260 C   0  0  0  0  0  0  0  0  0  0  0  0
   -1.2180    1.1320    2.6070 O   0  0  0  0  0  0  0  0  0  0  0  0
    3.3720    0.0330    0.9950 H   0  0  0  0  0  0  0  0  0  0  0  0
    3.0680   -0.1840    2.8040 H   0  0  0  0  0  0  0  0  0  0  0  0
    3.6200    1.3790    2.1590 H   0  0  0  0  0  0  0  0  0  0  0  0
    1.2990    1.6590    2.5290 H   0  0  0  0  0  0  0  0  0  0  0  0
    1.0620    0.7030   -0.3470 H   0  0  0  0  0  0  0  0  0  0  0  0
    0.3580    2.1450    0.4350 H   0  0  0  0  0  0  0  0  0  0  0  0
    2.1320    2.0750    0.0960 H   0  0  0  0  0  0  0  0  0  0  0  0
    0.7490   -0.5560    3.1390 H   0  0  0  0  0  0  0  0  0  0  0  0
    0.7560   -1.2910    0.1640 H   0  0  0  0  0  0  0  0  0  0  0  0
   -1.7020   -0.4990    1.0370 N   0  0  0  0  0  0  0  0  0  0  0  0
   -3.0520   -0.0320    0.9370 C   0  0  1  0  0  0  0  0  0  0  0  0
   -3.4270    0.3080   -0.4900 C   0  0  0  0  0  0  0  0  0  0  0  0
   -2.5960    1.3520   -1.0880 C   0  0  0  0  0  0  0  0  0  0  0  0
   -1.4470    1.0360   -1.7680 C   0  0  0  0  0  0  0  0  0  0  0  0
   -0.6720    2.0440   -2.3290 C   0  0  0  0  0  0  0  0  0  0  0  0
   -1.0250    3.3580   -2.2210 C   0  0  0  0  0  0  0  0  0  0  0  0
   -2.1810    3.6740   -1.5360 C   0  0  0  0  0  0  0  0  0  0  0  0
   -2.9630    2.6700   -0.9710 C   0  0  0  0  0  0  0  0  0  0  0  0
   -3.9690   -1.1100    1.3710 C   0  0  0  0  0  0  0  0  0  0  0  0
   -3.4950   -2.2070    1.7420 O   0  0  0  0  0  0  0  0  0  0  0  0
   -5.3450   -0.9490    1.3820 O   0  0  0  0  0  0  0  0  0  0  0  0
   -1.3170   -1.3010    0.4970 H   0  0  0  0  0  0  0  0  0  0  0  0
   -3.2330    0.8380    1.6050 H   0  0  0  0  0  0  0  0  0  0  0  0
   -3.3980   -0.5880   -1.1420 H   0  0  0  0  0  0  0  0  0  0  0  0
   -4.5180    0.5970   -0.4510 H   0  0  0  0  0  0  0  0  0  0  0  0
   -1.0950    0.0260   -1.9010 H   0  0  0  0  0  0  0  0  0  0  0  0
    0.2330    1.7830   -2.8640 H   0  0  0  0  0  0  0  0  0  0  0  0
   -0.4070    4.1230   -2.6650 H   0  0  0  0  0  0  0  0  0  0  0  0
   -2.4820    4.7080   -1.4370 H   0  0  0  0  0  0  0  0  0  0  0  0
   -3.8540    3.0010   -0.4510 H   0  0  0  0  0  0  0  0  0  0  0  0
  1  8  1  0  0  0  0
  1 10  1  0  0  0  0
  1  9  1  0  0  0  0
  2 11  1  6  0  0  0
  2  1  1  0  0  0  0
  3 12  1  0  0  0  0
  3  2  1  0  0  0  0
  4 13  1  1  0  0  0
  4  2  1  0  0  0  0
  4  6  1  0  0  0  0
  5  4  1  0  0  0  0
  6  7  2  0  0  0  0
 14  5  1  0  0  0  0
 15  5  1  0  0  0  0
 16 25  1  0  0  0  0
 16 24  1  0  0  0  0
 17 16  1  0  0  0  0
 17 19  1  0  0  0  0
 17 26  1  0  0  0  0
 18 28  1  0  0  0  0
 18 17  1  0  0  0  0
 19 30  1  1  0  0  0
 20  6  1  0  0  0  0
 20 19  1  0  0  0  0
 21 19  1  0  0  0  0
 21 22  2  0  0  0  0
 23 16  1  0  0  0  0
 27 18  1  0  0  0  0
 29 18  1  0  0  0  0
 31 20  1  0  0  0  0
 32 21  1  0  0  0  0
 33 32  1  0  0  0  0
 33 41  1  0  0  0  0
 33 45  1  1  0  0  0
 34 47  1  0  0  0  0
 34 33  1  0  0  0  0
 35 40  1  0  0  0  0
 35 34  1  0  0  0  0
 36 35  2  0  0  0  0
 37 38  2  0  0  0  0
 37 36  1  0  0  0  0
 38 39  1  0  0  0  0
 39 51  1  0  0  0  0
 39 40  2  0  0  0  0
 40 52  1  0  0  0  0
 41 43  2  0  0  0  0
 41 42  1  0  0  0  0
 44 32  1  0  0  0  0
 46 34  1  0  0  0  0
 48 36  1  0  0  0  0
 49 37  1  0  0  0  0
 50 38  1  0  0  0  0
M  END
$$$$
