TVG.pdb
 OpenBabel07022419153D

 39 38  0  0  1  0  0  0  0  0999 V2000
   -1.4340   -4.1250    1.8600 C   0  0  0  0  0  0  0  0  0  0  0  0
   -0.5730   -2.8860    1.7230 C   0  0  1  0  0  0  0  0  0  0  0  0
    0.1760   -2.7810    2.8940 O   0  0  0  0  0  0  0  0  0  0  0  0
    0.3070   -3.0380    0.5200 C   0  0  2  0  0  0  0  0  0  0  0  0
    1.0940   -4.2420    0.6980 N   0  0  0  0  0  0  0  0  0  0  0  0
    1.1640   -1.8940    0.2370 C   0  0  0  0  0  0  0  0  0  0  0  0
    2.4310   -2.0730    0.1800 O   0  0  0  0  0  0  0  0  0  0  0  0
   -2.4010   -3.9310    1.3550 H   0  0  0  0  0  0  0  0  0  0  0  0
   -1.6750   -4.3570    2.9200 H   0  0  0  0  0  0  0  0  0  0  0  0
   -0.9840   -4.9960    1.3450 H   0  0  0  0  0  0  0  0  0  0  0  0
   -1.2450   -2.0230    1.6860 H   0  0  0  0  0  0  0  0  0  0  0  0
    1.0680   -3.1820    2.7060 H   0  0  0  0  0  0  0  0  0  0  0  0
   -0.3390   -3.2210   -0.3720 H   0  0  0  0  0  0  0  0  0  0  0  0
    2.1100   -4.0960    0.5200 H   0  0  0  0  0  0  0  0  0  0  0  0
    0.7680   -5.0310    0.0860 H   0  0  0  0  0  0  0  0  0  0  0  0
   -0.3260    1.6050   -1.7100 C   0  0  0  0  0  0  0  0  0  0  0  0
    1.1160    1.1570   -1.6010 C   0  0  0  0  0  0  0  0  0  0  0  0
    1.5040    0.2570   -2.7470 C   0  0  0  0  0  0  0  0  0  0  0  0
    1.3980    0.5400   -0.2540 C   0  0  2  0  0  0  0  0  0  0  0  0
    0.5980   -0.6080    0.0270 N   0  0  0  0  0  0  0  0  0  0  0  0
    1.2190    1.6080    0.7630 C   0  0  0  0  0  0  0  0  0  0  0  0
    1.8770    2.6710    0.6180 O   0  0  0  0  0  0  0  0  0  0  0  0
   -1.0290    0.8940   -1.2170 H   0  0  0  0  0  0  0  0  0  0  0  0
   -0.5980    1.7640   -2.7730 H   0  0  0  0  0  0  0  0  0  0  0  0
   -0.4890    2.5850   -1.1950 H   0  0  0  0  0  0  0  0  0  0  0  0
    1.7440    2.0690   -1.6860 H   0  0  0  0  0  0  0  0  0  0  0  0
    2.5850    0.1810   -2.8480 H   0  0  0  0  0  0  0  0  0  0  0  0
    1.1040    0.7150   -3.6760 H   0  0  0  0  0  0  0  0  0  0  0  0
    0.9970   -0.7460   -2.6720 H   0  0  0  0  0  0  0  0  0  0  0  0
    2.4820    0.2400   -0.2730 H   0  0  0  0  0  0  0  0  0  0  0  0
   -0.4400   -0.5570    0.0910 H   0  0  0  0  0  0  0  0  0  0  0  0
    0.3680    1.5130    1.8710 N   0  0  0  0  0  0  0  0  0  0  0  0
    0.1760    2.5300    2.8690 C   0  0  0  0  0  0  0  0  0  0  0  0
   -0.7980    2.0950    3.9030 C   0  0  0  0  0  0  0  0  0  0  0  0
   -1.3050    0.9510    3.7820 O   0  0  0  0  0  0  0  0  0  0  0  0
   -1.1760    2.8550    4.9720 O   0  0  0  0  0  0  0  0  0  0  0  0
   -0.1730    0.6230    1.9790 H   0  0  0  0  0  0  0  0  0  0  0  0
   -0.0880    3.5180    2.4450 H   0  0  0  0  0  0  0  0  0  0  0  0
    1.1530    2.6710    3.4140 H   0  0  0  0  0  0  0  0  0  0  0  0
  1  9  1  0  0  0  0
  2 11  1  6  0  0  0
  2  1  1  0  0  0  0
  2  3  1  0  0  0  0
  4 13  1  6  0  0  0
  4  5  1  0  0  0  0
  4  2  1  0  0  0  0
  6  4  1  0  0  0  0
  7  6  2  0  0  0  0
  8  1  1  0  0  0  0
 10  1  1  0  0  0  0
 12  3  1  0  0  0  0
 14  5  1  0  0  0  0
 15  5  1  0  0  0  0
 16 17  1  0  0  0  0
 16 23  1  0  0  0  0
 16 25  1  0  0  0  0
 17 19  1  0  0  0  0
 18 29  1  0  0  0  0
 18 17  1  0  0  0  0
 19 30  1  1  0  0  0
 19 20  1  0  0  0  0
 19 21  1  0  0  0  0
 20 31  1  0  0  0  0
 20  6  1  0  0  0  0
 21 32  1  0  0  0  0
 22 21  2  0  0  0  0
 24 16  1  0  0  0  0
 26 17  1  0  0  0  0
 27 18  1  0  0  0  0
 28 18  1  0  0  0  0
 32 37  1  0  0  0  0
 32 33  1  0  0  0  0
 33 39  1  0  0  0  0
 33 34  1  0  0  0  0
 34 36  1  0  0  0  0
 35 34  2  0  0  0  0
 38 33  1  0  0  0  0
M  END
$$$$
