TVI.pdb
 OpenBabel07022419153D

 51 50  0  0  1  0  0  0  0  0999 V2000
    3.2970   -3.9520    3.7280 C   0  0  0  0  0  0  0  0  0  0  0  0
    3.4580   -2.8000    2.7640 C   0  0  1  0  0  0  0  0  0  0  0  0
    3.7080   -3.3020    1.4790 O   0  0  0  0  0  0  0  0  0  0  0  0
    2.1540   -2.0390    2.7420 C   0  0  2  0  0  0  0  0  0  0  0  0
    1.1190   -2.9790    2.3370 N   0  0  0  0  0  0  0  0  0  0  0  0
    2.1930   -0.8750    1.8240 C   0  0  0  0  0  0  0  0  0  0  0  0
    3.0340    0.0210    2.0440 O   0  0  0  0  0  0  0  0  0  0  0  0
    3.9730   -3.8980    4.5920 H   0  0  0  0  0  0  0  0  0  0  0  0
    2.2570   -4.0100    4.1430 H   0  0  0  0  0  0  0  0  0  0  0  0
    3.4300   -4.9260    3.1780 H   0  0  0  0  0  0  0  0  0  0  0  0
    4.2960   -2.1290    3.0960 H   0  0  0  0  0  0  0  0  0  0  0  0
    4.6780   -3.1670    1.3010 H   0  0  0  0  0  0  0  0  0  0  0  0
    1.9580   -1.6260    3.7620 H   0  0  0  0  0  0  0  0  0  0  0  0
    1.4110   -3.3530    1.4070 H   0  0  0  0  0  0  0  0  0  0  0  0
    0.1790   -2.5330    2.2830 H   0  0  0  0  0  0  0  0  0  0  0  0
    1.7640    1.0780   -2.5440 C   0  0  0  0  0  0  0  0  0  0  0  0
    1.7050   -0.0680   -1.5780 C   0  0  0  0  0  0  0  0  0  0  0  0
    3.0500   -0.7580   -1.5530 C   0  0  0  0  0  0  0  0  0  0  0  0
    1.3770    0.4230   -0.1820 C   0  0  2  0  0  0  0  0  0  0  0  0
    1.3310   -0.7260    0.7170 N   0  0  0  0  0  0  0  0  0  0  0  0
    0.0560    1.1220   -0.2060 C   0  0  0  0  0  0  0  0  0  0  0  0
   -0.0840    2.1220   -0.9190 O   0  0  0  0  0  0  0  0  0  0  0  0
    0.7790    1.2380   -3.0600 H   0  0  0  0  0  0  0  0  0  0  0  0
    2.0650    2.0360   -2.0750 H   0  0  0  0  0  0  0  0  0  0  0  0
    2.5160    0.8640   -3.3430 H   0  0  0  0  0  0  0  0  0  0  0  0
    0.9130   -0.7580   -1.9290 H   0  0  0  0  0  0  0  0  0  0  0  0
    3.7660   -0.1720   -0.9440 H   0  0  0  0  0  0  0  0  0  0  0  0
    2.9080   -1.7500   -1.0450 H   0  0  0  0  0  0  0  0  0  0  0  0
    3.3790   -0.8940   -2.5990 H   0  0  0  0  0  0  0  0  0  0  0  0
    2.1680    1.1220    0.1440 H   0  0  0  0  0  0  0  0  0  0  0  0
    0.6320   -1.4800    0.5410 H   0  0  0  0  0  0  0  0  0  0  0  0
   -4.8220   -1.6060    0.2850 C   0  0  0  0  0  0  0  0  0  0  0  0
   -3.6160   -0.8520    0.8020 C   0  0  0  0  0  0  0  0  0  0  0  0
   -3.4410    0.4310    0.0280 C   0  0  2  0  0  0  0  0  0  0  0  0
   -3.2390    0.1240   -1.4340 C   0  0  0  0  0  0  0  0  0  0  0  0
   -2.3380    1.2930    0.5880 C   0  0  2  0  0  0  0  0  0  0  0  0
   -1.0530    0.6520    0.5820 N   0  0  0  0  0  0  0  0  0  0  0  0
   -2.7100    1.8090    1.9270 C   0  0  0  0  0  0  0  0  0  0  0  0
   -1.8980    1.6380    2.8680 O   0  0  0  0  0  0  0  0  0  0  0  0
   -3.8880    2.4680    2.2210 O   0  0  0  0  0  0  0  0  0  0  0  0
   -5.0180   -1.4090   -0.7860 H   0  0  0  0  0  0  0  0  0  0  0  0
   -5.7070   -1.1810    0.8320 H   0  0  0  0  0  0  0  0  0  0  0  0
   -4.7510   -2.6930    0.4840 H   0  0  0  0  0  0  0  0  0  0  0  0
   -3.7100   -0.7070    1.8760 H   0  0  0  0  0  0  0  0  0  0  0  0
   -2.7120   -1.5040    0.6360 H   0  0  0  0  0  0  0  0  0  0  0  0
   -4.3790    1.0170    0.1150 H   0  0  0  0  0  0  0  0  0  0  0  0
   -2.8320   -0.9250   -1.4860 H   0  0  0  0  0  0  0  0  0  0  0  0
   -4.2300    0.0860   -1.9250 H   0  0  0  0  0  0  0  0  0  0  0  0
   -2.5520    0.8410   -1.9280 H   0  0  0  0  0  0  0  0  0  0  0  0
   -2.2530    2.1720   -0.1180 H   0  0  0  0  0  0  0  0  0  0  0  0
   -0.8520   -0.1980    1.1560 H   0  0  0  0  0  0  0  0  0  0  0  0
  1  9  1  0  0  0  0
  1  8  1  0  0  0  0
  2 11  1  1  0  0  0
  2  1  1  0  0  0  0
  3  2  1  0  0  0  0
  4  2  1  0  0  0  0
  4 13  1  1  0  0  0
  5  4  1  0  0  0  0
  6  7  2  0  0  0  0
  6  4  1  0  0  0  0
 10  1  1  0  0  0  0
 12  3  1  0  0  0  0
 14  5  1  0  0  0  0
 15  5  1  0  0  0  0
 16 24  1  0  0  0  0
 16 17  1  0  0  0  0
 17 18  1  0  0  0  0
 17 19  1  0  0  0  0
 18 28  1  0  0  0  0
 18 27  1  0  0  0  0
 19 30  1  1  0  0  0
 19 20  1  0  0  0  0
 20  6  1  0  0  0  0
 21 19  1  0  0  0  0
 21 37  1  0  0  0  0
 22 21  2  0  0  0  0
 23 16  1  0  0  0  0
 25 16  1  0  0  0  0
 26 17  1  0  0  0  0
 29 18  1  0  0  0  0
 31 20  1  0  0  0  0
 32 43  1  0  0  0  0
 32 33  1  0  0  0  0
 32 42  1  0  0  0  0
 33 44  1  0  0  0  0
 34 46  1  1  0  0  0
 34 36  1  0  0  0  0
 34 33  1  0  0  0  0
 35 34  1  0  0  0  0
 36 50  1  6  0  0  0
 36 38  1  0  0  0  0
 37 36  1  0  0  0  0
 37 51  1  0  0  0  0
 38 40  2  0  0  0  0
 38 39  1  0  0  0  0
 41 32  1  0  0  0  0
 45 33  1  0  0  0  0
 47 35  1  0  0  0  0
 48 35  1  0  0  0  0
 49 35  1  0  0  0  0
M  END
$$$$
