TVK.pdb
 OpenBabel07022419153D

 53 52  0  0  1  0  0  0  0  0999 V2000
    2.3550   -2.6700    5.7960 C   0  0  0  0  0  0  0  0  0  0  0  0
    2.8780   -2.2570    4.4250 C   0  0  1  0  0  0  0  0  0  0  0  0
    2.9910   -3.4060    3.6520 O   0  0  0  0  0  0  0  0  0  0  0  0
    1.8590   -1.2870    3.8530 C   0  0  2  0  0  0  0  0  0  0  0  0
    0.5830   -1.9760    3.8210 N   0  0  0  0  0  0  0  0  0  0  0  0
    2.2890   -0.8920    2.4890 C   0  0  0  0  0  0  0  0  0  0  0  0
    3.3550   -0.2850    2.2500 O   0  0  0  0  0  0  0  0  0  0  0  0
    2.0950   -1.7690    6.4010 H   0  0  0  0  0  0  0  0  0  0  0  0
    1.4300   -3.2680    5.6140 H   0  0  0  0  0  0  0  0  0  0  0  0
    3.0880   -3.3120    6.3270 H   0  0  0  0  0  0  0  0  0  0  0  0
    3.8420   -1.7320    4.5180 H   0  0  0  0  0  0  0  0  0  0  0  0
    2.3310   -4.0820    3.9200 H   0  0  0  0  0  0  0  0  0  0  0  0
    1.8030   -0.4350    4.5500 H   0  0  0  0  0  0  0  0  0  0  0  0
   -0.1940   -1.3710    3.4730 H   0  0  0  0  0  0  0  0  0  0  0  0
    0.6450   -2.8370    3.2480 H   0  0  0  0  0  0  0  0  0  0  0  0
    2.2820   -1.5190   -2.2500 C   0  0  0  0  0  0  0  0  0  0  0  0
    1.8930   -2.0170   -0.8830 C   0  0  0  0  0  0  0  0  0  0  0  0
    0.5460   -2.6950   -1.0010 C   0  0  0  0  0  0  0  0  0  0  0  0
    1.8120   -0.8640    0.0610 C   0  0  2  0  0  0  0  0  0  0  0  0
    1.4490   -1.2190    1.4020 N   0  0  0  0  0  0  0  0  0  0  0  0
    0.7720    0.0760   -0.4480 C   0  0  0  0  0  0  0  0  0  0  0  0
    0.8280    0.5630   -1.6130 O   0  0  0  0  0  0  0  0  0  0  0  0
    1.4030   -1.3000   -2.8900 H   0  0  0  0  0  0  0  0  0  0  0  0
    2.9920   -0.6610   -2.2010 H   0  0  0  0  0  0  0  0  0  0  0  0
    2.8190   -2.3400   -2.7670 H   0  0  0  0  0  0  0  0  0  0  0  0
    2.6160   -2.7900   -0.5950 H   0  0  0  0  0  0  0  0  0  0  0  0
    0.5950   -3.5590   -1.6990 H   0  0  0  0  0  0  0  0  0  0  0  0
   -0.1500   -1.9700   -1.4250 H   0  0  0  0  0  0  0  0  0  0  0  0
    0.2230   -3.0090   -0.0100 H   0  0  0  0  0  0  0  0  0  0  0  0
    2.7910   -0.3250    0.0120 H   0  0  0  0  0  0  0  0  0  0  0  0
    0.5450   -1.7250    1.5380 H   0  0  0  0  0  0  0  0  0  0  0  0
   -0.3380    0.4750    0.3460 N   0  0  0  0  0  0  0  0  0  0  0  0
   -1.3520    1.3720   -0.1100 C   0  0  1  0  0  0  0  0  0  0  0  0
   -2.7300    0.7770   -0.0880 C   0  0  0  0  0  0  0  0  0  0  0  0
   -2.9080   -0.4370   -0.9350 C   0  0  0  0  0  0  0  0  0  0  0  0
   -2.6500   -0.2430   -2.3890 C   0  0  0  0  0  0  0  0  0  0  0  0
   -3.5570    0.7900   -3.0190 C   0  0  0  0  0  0  0  0  0  0  0  0
   -4.9460    0.4550   -2.9130 N   0  0  0  0  0  0  0  0  0  0  0  0
   -1.4090    2.6260    0.6850 C   0  0  0  0  0  0  0  0  0  0  0  0
   -2.2330    3.5360    0.4390 O   0  0  0  0  0  0  0  0  0  0  0  0
   -0.5310    2.8160    1.7370 O   0  0  0  0  0  0  0  0  0  0  0  0
   -0.4230    0.0960    1.3170 H   0  0  0  0  0  0  0  0  0  0  0  0
   -1.1180    1.6260   -1.1770 H   0  0  0  0  0  0  0  0  0  0  0  0
   -3.4910    1.5240   -0.4140 H   0  0  0  0  0  0  0  0  0  0  0  0
   -3.0170    0.4870    0.9560 H   0  0  0  0  0  0  0  0  0  0  0  0
   -3.9790   -0.7450   -0.8310 H   0  0  0  0  0  0  0  0  0  0  0  0
   -2.2900   -1.2880   -0.5870 H   0  0  0  0  0  0  0  0  0  0  0  0
   -2.9050   -1.2160   -2.8940 H   0  0  0  0  0  0  0  0  0  0  0  0
   -1.6290   -0.0090   -2.6780 H   0  0  0  0  0  0  0  0  0  0  0  0
   -3.2990    0.8210   -4.1090 H   0  0  0  0  0  0  0  0  0  0  0  0
   -3.3810    1.7970   -2.6190 H   0  0  0  0  0  0  0  0  0  0  0  0
   -5.4490    0.9650   -3.6970 H   0  0  0  0  0  0  0  0  0  0  0  0
   -5.0800   -0.5620   -3.1170 H   0  0  0  0  0  0  0  0  0  0  0  0
  1 10  1  0  0  0  0
  1  8  1  0  0  0  0
  2 11  1  1  0  0  0
  2  1  1  0  0  0  0
  3 12  1  0  0  0  0
  3  2  1  0  0  0  0
  4  2  1  0  0  0  0
  4 13  1  1  0  0  0
  5  4  1  0  0  0  0
  6  4  1  0  0  0  0
  7  6  2  0  0  0  0
  9  1  1  0  0  0  0
 14  5  1  0  0  0  0
 15  5  1  0  0  0  0
 16 24  1  0  0  0  0
 16 17  1  0  0  0  0
 17 26  1  0  0  0  0
 17 19  1  0  0  0  0
 18 17  1  0  0  0  0
 18 29  1  0  0  0  0
 19 30  1  1  0  0  0
 19 20  1  0  0  0  0
 20 31  1  0  0  0  0
 20  6  1  0  0  0  0
 21 19  1  0  0  0  0
 21 32  1  0  0  0  0
 22 21  2  0  0  0  0
 23 16  1  0  0  0  0
 25 16  1  0  0  0  0
 27 18  1  0  0  0  0
 28 18  1  0  0  0  0
 32 42  1  0  0  0  0
 33 43  1  6  0  0  0
 33 34  1  0  0  0  0
 33 32  1  0  0  0  0
 33 39  1  0  0  0  0
 34 45  1  0  0  0  0
 35 46  1  0  0  0  0
 35 47  1  0  0  0  0
 35 34  1  0  0  0  0
 36 35  1  0  0  0  0
 37 38  1  0  0  0  0
 37 51  1  0  0  0  0
 37 36  1  0  0  0  0
 39 41  1  0  0  0  0
 40 39  2  0  0  0  0
 44 34  1  0  0  0  0
 48 36  1  0  0  0  0
 49 36  1  0  0  0  0
 50 37  1  0  0  0  0
 52 38  1  0  0  0  0
 53 38  1  0  0  0  0
M  END
$$$$
