TVL.pdb
 OpenBabel07022419153D

 51 50  0  0  1  0  0  0  0  0999 V2000
    3.9830   -4.8510   -1.2020 C   0  0  0  0  0  0  0  0  0  0  0  0
    3.6660   -3.8380   -0.1440 C   0  0  1  0  0  0  0  0  0  0  0  0
    4.5130   -2.7450   -0.1790 O   0  0  0  0  0  0  0  0  0  0  0  0
    2.2440   -3.3320   -0.2580 C   0  0  2  0  0  0  0  0  0  0  0  0
    1.9950   -2.6070   -1.4690 N   0  0  0  0  0  0  0  0  0  0  0  0
    1.8450   -2.5820    0.9590 C   0  0  0  0  0  0  0  0  0  0  0  0
    2.0230   -3.1330    2.0730 O   0  0  0  0  0  0  0  0  0  0  0  0
    3.1970   -5.6050   -1.2730 H   0  0  0  0  0  0  0  0  0  0  0  0
    4.9380   -5.3530   -0.9500 H   0  0  0  0  0  0  0  0  0  0  0  0
    4.0720   -4.3550   -2.2030 H   0  0  0  0  0  0  0  0  0  0  0  0
    3.7150   -4.3710    0.8490 H   0  0  0  0  0  0  0  0  0  0  0  0
    5.4050   -3.0260   -0.4930 H   0  0  0  0  0  0  0  0  0  0  0  0
    1.5860   -4.2500   -0.2860 H   0  0  0  0  0  0  0  0  0  0  0  0
    0.9870   -2.6370   -1.7280 H   0  0  0  0  0  0  0  0  0  0  0  0
    2.3810   -1.6500   -1.4740 H   0  0  0  0  0  0  0  0  0  0  0  0
    1.3500    1.4650    3.5300 C   0  0  0  0  0  0  0  0  0  0  0  0
    1.6900    0.6950    2.2970 C   0  0  0  0  0  0  0  0  0  0  0  0
    1.6310    1.5250    1.0340 C   0  0  0  0  0  0  0  0  0  0  0  0
    0.8990   -0.5840    2.1650 C   0  0  2  0  0  0  0  0  0  0  0  0
    1.2750   -1.2810    0.9500 N   0  0  0  0  0  0  0  0  0  0  0  0
   -0.5700   -0.3360    2.1820 C   0  0  0  0  0  0  0  0  0  0  0  0
   -1.0880    0.2610    3.1610 O   0  0  0  0  0  0  0  0  0  0  0  0
    2.2600    1.9130    4.0280 H   0  0  0  0  0  0  0  0  0  0  0  0
    0.7170    2.3580    3.2630 H   0  0  0  0  0  0  0  0  0  0  0  0
    0.8650    0.8550    4.3190 H   0  0  0  0  0  0  0  0  0  0  0  0
    2.7660    0.3750    2.3990 H   0  0  0  0  0  0  0  0  0  0  0  0
    1.9030    2.5610    1.3060 H   0  0  0  0  0  0  0  0  0  0  0  0
    2.4030    1.1750    0.3230 H   0  0  0  0  0  0  0  0  0  0  0  0
    0.6490    1.4550    0.5280 H   0  0  0  0  0  0  0  0  0  0  0  0
    1.1460   -1.2580    3.0070 H   0  0  0  0  0  0  0  0  0  0  0  0
    1.1360   -0.8410   -0.0020 H   0  0  0  0  0  0  0  0  0  0  0  0
   -2.9390    2.5410    0.6140 C   0  0  0  0  0  0  0  0  0  0  0  0
   -2.7400    1.4810   -0.4010 C   0  0  0  0  0  0  0  0  0  0  0  0
   -3.3520    1.9720   -1.7010 C   0  0  0  0  0  0  0  0  0  0  0  0
   -3.3580    0.1630   -0.0940 C   0  0  0  0  0  0  0  0  0  0  0  0
   -2.8760   -0.4930    1.1660 C   0  0  2  0  0  0  0  0  0  0  0  0
   -1.4370   -0.7450    1.1320 N   0  0  0  0  0  0  0  0  0  0  0  0
   -3.5310   -1.8310    1.2210 C   0  0  0  0  0  0  0  0  0  0  0  0
   -2.8670   -2.9030    1.2310 O   0  0  0  0  0  0  0  0  0  0  0  0
   -4.9150   -1.9670    1.2650 O   0  0  0  0  0  0  0  0  0  0  0  0
   -3.1670    2.1750    1.6320 H   0  0  0  0  0  0  0  0  0  0  0  0
   -3.6530    3.3210    0.2750 H   0  0  0  0  0  0  0  0  0  0  0  0
   -1.9560    3.0900    0.7230 H   0  0  0  0  0  0  0  0  0  0  0  0
   -1.6500    1.3050   -0.6360 H   0  0  0  0  0  0  0  0  0  0  0  0
   -4.4010    1.6080   -1.7330 H   0  0  0  0  0  0  0  0  0  0  0  0
   -3.4260    3.0890   -1.7140 H   0  0  0  0  0  0  0  0  0  0  0  0
   -2.8160    1.5900   -2.5920 H   0  0  0  0  0  0  0  0  0  0  0  0
   -3.1490   -0.5230   -0.9330 H   0  0  0  0  0  0  0  0  0  0  0  0
   -4.4560    0.2940   -0.0100 H   0  0  0  0  0  0  0  0  0  0  0  0
   -3.1780    0.0340    2.0790 H   0  0  0  0  0  0  0  0  0  0  0  0
   -0.9900   -1.2380    0.3290 H   0  0  0  0  0  0  0  0  0  0  0  0
  1  9  1  0  0  0  0
  1  2  1  0  0  0  0
  2 11  1  1  0  0  0
  3  2  1  0  0  0  0
  4 13  1  6  0  0  0
  4  2  1  0  0  0  0
  4  6  1  0  0  0  0
  5  4  1  0  0  0  0
  6  7  2  0  0  0  0
  8  1  1  0  0  0  0
 10  1  1  0  0  0  0
 12  3  1  0  0  0  0
 14  5  1  0  0  0  0
 15  5  1  0  0  0  0
 16 23  1  0  0  0  0
 16 25  1  0  0  0  0
 17 26  1  0  0  0  0
 17 16  1  0  0  0  0
 18 27  1  0  0  0  0
 18 17  1  0  0  0  0
 19 21  1  0  0  0  0
 19 17  1  0  0  0  0
 19 30  1  1  0  0  0
 20  6  1  0  0  0  0
 20 19  1  0  0  0  0
 21 22  2  0  0  0  0
 24 16  1  0  0  0  0
 28 18  1  0  0  0  0
 29 18  1  0  0  0  0
 31 20  1  0  0  0  0
 32 43  1  0  0  0  0
 32 41  1  0  0  0  0
 33 35  1  0  0  0  0
 33 32  1  0  0  0  0
 34 33  1  0  0  0  0
 35 49  1  0  0  0  0
 35 36  1  0  0  0  0
 36 38  1  0  0  0  0
 36 50  1  1  0  0  0
 37 36  1  0  0  0  0
 37 21  1  0  0  0  0
 38 39  2  0  0  0  0
 38 40  1  0  0  0  0
 42 32  1  0  0  0  0
 44 33  1  0  0  0  0
 45 34  1  0  0  0  0
 46 34  1  0  0  0  0
 47 34  1  0  0  0  0
 48 35  1  0  0  0  0
 51 37  1  0  0  0  0
M  END
$$$$
