TVN.pdb
 OpenBabel07022419153D

 46 45  0  0  1  0  0  0  0  0999 V2000
   -1.2660   -4.4120    1.9570 C   0  0  0  0  0  0  0  0  0  0  0  0
   -0.6040   -3.1830    1.3910 C   0  0  1  0  0  0  0  0  0  0  0  0
    0.7220   -3.1540    1.8070 O   0  0  0  0  0  0  0  0  0  0  0  0
   -0.6210   -3.2590   -0.1270 C   0  0  2  0  0  0  0  0  0  0  0  0
    0.0770   -4.4760   -0.4870 N   0  0  0  0  0  0  0  0  0  0  0  0
    0.1220   -2.1130   -0.6580 C   0  0  0  0  0  0  0  0  0  0  0  0
    1.1800   -2.2920   -1.3040 O   0  0  0  0  0  0  0  0  0  0  0  0
   -0.4980   -5.2180    1.9620 H   0  0  0  0  0  0  0  0  0  0  0  0
   -1.5870   -4.1770    2.9920 H   0  0  0  0  0  0  0  0  0  0  0  0
   -2.1480   -4.6370    1.3580 H   0  0  0  0  0  0  0  0  0  0  0  0
   -1.1390   -2.2530    1.6650 H   0  0  0  0  0  0  0  0  0  0  0  0
    1.0660   -4.0780    1.7910 H   0  0  0  0  0  0  0  0  0  0  0  0
   -1.6550   -3.3570   -0.5150 H   0  0  0  0  0  0  0  0  0  0  0  0
    0.7660   -4.3310   -1.2690 H   0  0  0  0  0  0  0  0  0  0  0  0
   -0.5760   -5.2200   -0.7930 H   0  0  0  0  0  0  0  0  0  0  0  0
    0.6510    2.2640   -2.4710 C   0  0  0  0  0  0  0  0  0  0  0  0
   -0.2660    1.1460   -2.0140 C   0  0  0  0  0  0  0  0  0  0  0  0
   -0.5200    0.2850   -3.2410 C   0  0  0  0  0  0  0  0  0  0  0  0
    0.4410    0.3050   -1.0000 C   0  0  2  0  0  0  0  0  0  0  0  0
   -0.2900   -0.7820   -0.4820 N   0  0  0  0  0  0  0  0  0  0  0  0
    0.9810    1.0910    0.1310 C   0  0  0  0  0  0  0  0  0  0  0  0
    1.6690    2.1020   -0.0860 O   0  0  0  0  0  0  0  0  0  0  0  0
    0.2760    2.5580   -3.4920 H   0  0  0  0  0  0  0  0  0  0  0  0
    1.6900    1.9540   -2.6030 H   0  0  0  0  0  0  0  0  0  0  0  0
    0.5360    3.1820   -1.8540 H   0  0  0  0  0  0  0  0  0  0  0  0
   -1.1690    1.6420   -1.6510 H   0  0  0  0  0  0  0  0  0  0  0  0
   -1.2140   -0.5510   -2.9990 H   0  0  0  0  0  0  0  0  0  0  0  0
    0.3980   -0.0170   -3.7430 H   0  0  0  0  0  0  0  0  0  0  0  0
   -1.0820    0.9330   -3.9740 H   0  0  0  0  0  0  0  0  0  0  0  0
    1.3450   -0.1060   -1.5280 H   0  0  0  0  0  0  0  0  0  0  0  0
   -1.1840   -0.5770    0.0590 H   0  0  0  0  0  0  0  0  0  0  0  0
   -1.6330    1.3370    5.0310 N   0  0  0  0  0  0  0  0  0  0  0  0
   -0.5710    0.9380    4.1500 C   0  0  0  0  0  0  0  0  0  0  0  0
   -0.3600   -0.2770    3.9530 O   0  0  0  0  0  0  0  0  0  0  0  0
    0.2180    2.0060    3.5230 C   0  0  0  0  0  0  0  0  0  0  0  0
    1.2670    1.4990    2.5930 C   0  0  2  0  0  0  0  0  0  0  0  0
    0.7410    0.7330    1.4800 N   0  0  0  0  0  0  0  0  0  0  0  0
    2.2050    0.6510    3.4140 C   0  0  0  0  0  0  0  0  0  0  0  0
    2.4550   -0.5370    3.1260 O   0  0  0  0  0  0  0  0  0  0  0  0
    2.8080    1.1990    4.5190 O   0  0  0  0  0  0  0  0  0  0  0  0
   -2.4170    0.6970    5.2870 H   0  0  0  0  0  0  0  0  0  0  0  0
   -1.6660    2.2920    5.4580 H   0  0  0  0  0  0  0  0  0  0  0  0
    0.7520    2.5310    4.3700 H   0  0  0  0  0  0  0  0  0  0  0  0
   -0.4120    2.8060    3.0760 H   0  0  0  0  0  0  0  0  0  0  0  0
    1.8840    2.3600    2.2420 H   0  0  0  0  0  0  0  0  0  0  0  0
    0.1670   -0.1150    1.7370 H   0  0  0  0  0  0  0  0  0  0  0  0
  1  8  1  0  0  0  0
  1  9  1  0  0  0  0
  2 11  1  1  0  0  0
  2  3  1  0  0  0  0
  2  1  1  0  0  0  0
  4 13  1  6  0  0  0
  4  2  1  0  0  0  0
  5  4  1  0  0  0  0
  6 20  1  0  0  0  0
  6  4  1  0  0  0  0
  7  6  2  0  0  0  0
 10  1  1  0  0  0  0
 12  3  1  0  0  0  0
 14  5  1  0  0  0  0
 15  5  1  0  0  0  0
 16 17  1  0  0  0  0
 16 25  1  0  0  0  0
 17 26  1  0  0  0  0
 17 19  1  0  0  0  0
 18 27  1  0  0  0  0
 18 17  1  0  0  0  0
 19 30  1  6  0  0  0
 19 20  1  0  0  0  0
 19 21  1  0  0  0  0
 20 31  1  0  0  0  0
 21 37  1  0  0  0  0
 22 21  2  0  0  0  0
 23 16  1  0  0  0  0
 24 16  1  0  0  0  0
 28 18  1  0  0  0  0
 29 18  1  0  0  0  0
 32 41  1  0  0  0  0
 32 42  1  0  0  0  0
 33 32  1  0  0  0  0
 34 33  2  0  0  0  0
 35 33  1  0  0  0  0
 35 43  1  0  0  0  0
 36 45  1  6  0  0  0
 36 38  1  0  0  0  0
 36 35  1  0  0  0  0
 37 46  1  0  0  0  0
 37 36  1  0  0  0  0
 38 40  1  0  0  0  0
 39 38  2  0  0  0  0
 44 35  1  0  0  0  0
M  END
$$$$
