TVP.pdb
 OpenBabel07022419153D

 46 46  0  0  1  0  0  0  0  0999 V2000
    3.6900   -2.7080   -0.8790 C   0  0  0  0  0  0  0  0  0  0  0  0
    2.3040   -3.1870   -1.3240 C   0  0  1  0  0  0  0  0  0  0  0  0
    2.3700   -4.5710   -1.5240 O   0  0  0  0  0  0  0  0  0  0  0  0
    1.3440   -2.8540   -0.2020 C   0  0  2  0  0  0  0  0  0  0  0  0
    0.0100   -3.3380   -0.4830 N   0  0  0  0  0  0  0  0  0  0  0  0
    1.3820   -1.3970    0.0120 C   0  0  0  0  0  0  0  0  0  0  0  0
    2.4320   -0.8240    0.2960 O   0  0  0  0  0  0  0  0  0  0  0  0
    3.8970   -1.6940   -1.2670 H   0  0  0  0  0  0  0  0  0  0  0  0
    3.7890   -2.6940    0.2080 H   0  0  0  0  0  0  0  0  0  0  0  0
    4.4280   -3.4300   -1.3330 H   0  0  0  0  0  0  0  0  0  0  0  0
    1.9530   -2.6410   -2.2240 H   0  0  0  0  0  0  0  0  0  0  0  0
    2.2040   -5.0360   -0.6480 H   0  0  0  0  0  0  0  0  0  0  0  0
    1.6990   -3.3790    0.7040 H   0  0  0  0  0  0  0  0  0  0  0  0
   -0.0800   -4.3510   -0.3160 H   0  0  0  0  0  0  0  0  0  0  0  0
   -0.3950   -2.9820   -1.3520 H   0  0  0  0  0  0  0  0  0  0  0  0
   -1.7880    1.4540   -1.3490 C   0  0  0  0  0  0  0  0  0  0  0  0
   -0.3640    1.7060   -0.9570 C   0  0  0  0  0  0  0  0  0  0  0  0
    0.5530    1.9190   -2.1420 C   0  0  0  0  0  0  0  0  0  0  0  0
    0.1770    0.8330    0.0960 C   0  0  2  0  0  0  0  0  0  0  0  0
    0.2330   -0.5600   -0.0900 N   0  0  0  0  0  0  0  0  0  0  0  0
   -0.3780    1.3040    1.3940 C   0  0  0  0  0  0  0  0  0  0  0  0
   -0.4140    2.5900    1.4670 O   0  0  0  0  0  0  0  0  0  0  0  0
   -2.3660    1.2810   -0.4310 H   0  0  0  0  0  0  0  0  0  0  0  0
   -1.9560    0.6210   -2.0330 H   0  0  0  0  0  0  0  0  0  0  0  0
   -2.2260    2.3570   -1.8330 H   0  0  0  0  0  0  0  0  0  0  0  0
   -0.4450    2.7210   -0.4950 H   0  0  0  0  0  0  0  0  0  0  0  0
    0.0730    2.5350   -2.9340 H   0  0  0  0  0  0  0  0  0  0  0  0
    0.7970    0.9580   -2.6640 H   0  0  0  0  0  0  0  0  0  0  0  0
    1.4650    2.4870   -1.8600 H   0  0  0  0  0  0  0  0  0  0  0  0
    1.2720    1.1460    0.2120 H   0  0  0  0  0  0  0  0  0  0  0  0
   -0.6480   -1.0790   -0.3470 H   0  0  0  0  0  0  0  0  0  0  0  0
   -0.8350    0.5560    2.4760 N   0  0  0  0  0  0  0  0  0  0  0  0
   -0.9410   -0.8590    2.7480 C   0  0  0  0  0  0  0  0  0  0  0  0
   -2.2000   -0.9970    3.6130 C   0  0  0  0  0  0  0  0  0  0  0  0
   -2.5600    0.3760    4.0730 C   0  0  0  0  0  0  0  0  0  0  0  0
   -1.3530    1.1650    3.6940 C   0  0  1  0  0  0  0  0  0  0  0  0
   -0.3600    1.0200    4.8180 C   0  0  0  0  0  0  0  0  0  0  0  0
   -0.6060    1.4540    5.9630 O   0  0  0  0  0  0  0  0  0  0  0  0
    0.8690    0.4010    4.6390 O   0  0  0  0  0  0  0  0  0  0  0  0
   -1.1180   -1.5040    1.9000 H   0  0  0  0  0  0  0  0  0  0  0  0
   -0.0550   -1.2510    3.2900 H   0  0  0  0  0  0  0  0  0  0  0  0
   -1.9700   -1.6830    4.4550 H   0  0  0  0  0  0  0  0  0  0  0  0
   -3.0580   -1.3960    3.0330 H   0  0  0  0  0  0  0  0  0  0  0  0
   -3.4680    0.7840    3.5820 H   0  0  0  0  0  0  0  0  0  0  0  0
   -2.7220    0.3510    5.1710 H   0  0  0  0  0  0  0  0  0  0  0  0
   -1.5560    2.2500    3.5660 H   0  0  0  0  0  0  0  0  0  0  0  0
  1  9  1  0  0  0  0
  2 11  1  6  0  0  0
  2  1  1  0  0  0  0
  2  4  1  0  0  0  0
  3  2  1  0  0  0  0
  3 12  1  0  0  0  0
  4  6  1  0  0  0  0
  4 13  1  1  0  0  0
  5 14  1  0  0  0  0
  5  4  1  0  0  0  0
  6  7  2  0  0  0  0
  8  1  1  0  0  0  0
 10  1  1  0  0  0  0
 15  5  1  0  0  0  0
 16 17  1  0  0  0  0
 16 23  1  0  0  0  0
 17 26  1  0  0  0  0
 17 19  1  0  0  0  0
 18 29  1  0  0  0  0
 18 17  1  0  0  0  0
 19 30  1  1  0  0  0
 19 21  1  0  0  0  0
 20  6  1  0  0  0  0
 20 19  1  0  0  0  0
 21 22  2  0  0  0  0
 21 32  1  0  0  0  0
 24 16  1  0  0  0  0
 25 16  1  0  0  0  0
 27 18  1  0  0  0  0
 28 18  1  0  0  0  0
 31 20  1  0  0  0  0
 32 33  1  0  0  0  0
 32 36  1  0  0  0  0
 33 41  1  0  0  0  0
 33 34  1  0  0  0  0
 34 35  1  0  0  0  0
 34 42  1  0  0  0  0
 35 45  1  0  0  0  0
 36 46  1  6  0  0  0
 36 35  1  0  0  0  0
 36 37  1  0  0  0  0
 37 38  1  0  0  0  0
 39 37  2  0  0  0  0
 40 33  1  0  0  0  0
 43 34  1  0  0  0  0
 44 35  1  0  0  0  0
M  END
$$$$
