TVR.pdb
 OpenBabel07022419153D

 55 54  0  0  1  0  0  0  0  0999 V2000
    4.5470   -3.4950    0.4180 C   0  0  0  0  0  0  0  0  0  0  0  0
    3.1590   -2.9270    0.7340 C   0  0  1  0  0  0  0  0  0  0  0  0
    2.2370   -3.9530    0.5970 O   0  0  0  0  0  0  0  0  0  0  0  0
    3.2300   -2.4320    2.1720 C   0  0  2  0  0  0  0  0  0  0  0  0
    3.6400   -3.5400    3.0330 N   0  0  0  0  0  0  0  0  0  0  0  0
    1.9190   -1.9460    2.6440 C   0  0  0  0  0  0  0  0  0  0  0  0
    1.3700   -2.5100    3.6180 O   0  0  0  0  0  0  0  0  0  0  0  0
    4.7370   -3.5320   -0.6790 H   0  0  0  0  0  0  0  0  0  0  0  0
    5.2760   -2.8310    0.9110 H   0  0  0  0  0  0  0  0  0  0  0  0
    4.6440   -4.4980    0.9080 H   0  0  0  0  0  0  0  0  0  0  0  0
    2.9220   -2.1420    0.0080 H   0  0  0  0  0  0  0  0  0  0  0  0
    2.1670   -4.2230   -0.3510 H   0  0  0  0  0  0  0  0  0  0  0  0
    3.9220   -1.5880    2.1980 H   0  0  0  0  0  0  0  0  0  0  0  0
    2.8110   -4.1770    3.1230 H   0  0  0  0  0  0  0  0  0  0  0  0
    3.9200   -3.1300    3.9630 H   0  0  0  0  0  0  0  0  0  0  0  0
    0.9880    1.0510    4.2210 C   0  0  0  0  0  0  0  0  0  0  0  0
   -0.0200    0.9840    3.1070 C   0  0  0  0  0  0  0  0  0  0  0  0
    0.3540    1.9640    2.0150 C   0  0  0  0  0  0  0  0  0  0  0  0
   -0.0760   -0.4260    2.5710 C   0  0  2  0  0  0  0  0  0  0  0  0
    1.2120   -0.8460    2.0490 N   0  0  0  0  0  0  0  0  0  0  0  0
   -1.1150   -0.6050    1.5360 C   0  0  0  0  0  0  0  0  0  0  0  0
   -2.3330   -0.3740    1.7360 O   0  0  0  0  0  0  0  0  0  0  0  0
    2.0360    1.0810    3.8030 H   0  0  0  0  0  0  0  0  0  0  0  0
    0.8880    0.2060    4.9360 H   0  0  0  0  0  0  0  0  0  0  0  0
    0.8900    1.9770    4.8230 H   0  0  0  0  0  0  0  0  0  0  0  0
   -1.0130    1.2510    3.4780 H   0  0  0  0  0  0  0  0  0  0  0  0
    0.6580    2.9000    2.5390 H   0  0  0  0  0  0  0  0  0  0  0  0
   -0.5390    2.1250    1.3800 H   0  0  0  0  0  0  0  0  0  0  0  0
    1.2400    1.6330    1.4350 H   0  0  0  0  0  0  0  0  0  0  0  0
   -0.3510   -1.0760    3.4290 H   0  0  0  0  0  0  0  0  0  0  0  0
    1.6400   -0.3680    1.2510 H   0  0  0  0  0  0  0  0  0  0  0  0
   -2.5990    3.1770   -1.6950 N   0  0  0  0  0  0  0  0  0  0  0  0
   -3.3360    1.9910   -1.5640 C   0  0  0  0  0  0  0  0  0  0  0  0
   -3.5880    1.5460   -0.3690 N   0  0  0  0  0  0  0  0  0  0  0  0
   -3.8310    1.2420   -2.6370 N   0  0  0  0  0  0  0  0  0  0  0  0
   -3.7590   -0.1610   -2.8450 C   0  0  0  0  0  0  0  0  0  0  0  0
   -2.3670   -0.6270   -3.1490 C   0  0  0  0  0  0  0  0  0  0  0  0
   -1.3970   -0.4540   -2.0390 C   0  0  0  0  0  0  0  0  0  0  0  0
   -1.7300   -1.2590   -0.8440 C   0  0  2  0  0  0  0  0  0  0  0  0
   -0.7650   -1.0560    0.2380 N   0  0  0  0  0  0  0  0  0  0  0  0
   -1.7630   -2.7150   -1.1520 C   0  0  0  0  0  0  0  0  0  0  0  0
   -0.9450   -3.4630   -0.5130 O   0  0  0  0  0  0  0  0  0  0  0  0
   -2.5720   -3.3470   -2.0430 O   0  0  0  0  0  0  0  0  0  0  0  0
   -1.7930    3.3070   -2.3120 H   0  0  0  0  0  0  0  0  0  0  0  0
   -2.9120    3.9910   -1.1070 H   0  0  0  0  0  0  0  0  0  0  0  0
   -3.2600    2.0410    0.4740 H   0  0  0  0  0  0  0  0  0  0  0  0
   -4.3240    1.8020   -3.4140 H   0  0  0  0  0  0  0  0  0  0  0  0
   -4.0630   -0.6820   -1.8970 H   0  0  0  0  0  0  0  0  0  0  0  0
   -4.4660   -0.5260   -3.6270 H   0  0  0  0  0  0  0  0  0  0  0  0
   -1.9700   -0.0440   -4.0660 H   0  0  0  0  0  0  0  0  0  0  0  0
   -2.4810   -1.6860   -3.5160 H   0  0  0  0  0  0  0  0  0  0  0  0
   -0.3880   -0.7720   -2.4580 H   0  0  0  0  0  0  0  0  0  0  0  0
   -1.3390    0.6370   -1.8310 H   0  0  0  0  0  0  0  0  0  0  0  0
   -2.7130   -0.9990   -0.4480 H   0  0  0  0  0  0  0  0  0  0  0  0
    0.2220   -1.2590    0.0210 H   0  0  0  0  0  0  0  0  0  0  0  0
  1  2  1  0  0  0  0
  1 10  1  0  0  0  0
  1  9  1  0  0  0  0
  2 11  1  6  0  0  0
  2  4  1  0  0  0  0
  3  2  1  0  0  0  0
  4 13  1  1  0  0  0
  4  6  1  0  0  0  0
  4  5  1  0  0  0  0
  5 14  1  0  0  0  0
  5 15  1  0  0  0  0
  6  7  2  0  0  0  0
  8  1  1  0  0  0  0
 12  3  1  0  0  0  0
 16 25  1  0  0  0  0
 16 24  1  0  0  0  0
 17 26  1  0  0  0  0
 17 16  1  0  0  0  0
 18 27  1  0  0  0  0
 18 17  1  0  0  0  0
 19 17  1  0  0  0  0
 19 30  1  1  0  0  0
 20 19  1  0  0  0  0
 20  6  1  0  0  0  0
 21 22  2  0  0  0  0
 21 19  1  0  0  0  0
 23 16  1  0  0  0  0
 28 18  1  0  0  0  0
 29 18  1  0  0  0  0
 31 20  1  0  0  0  0
 32 33  1  0  0  0  0
 32 45  1  0  0  0  0
 33 34  2  0  0  0  0
 34 46  1  0  0  0  0
 35 33  1  0  0  0  0
 36 35  1  0  0  0  0
 36 48  1  0  0  0  0
 37 36  1  0  0  0  0
 37 38  1  0  0  0  0
 38 53  1  0  0  0  0
 38 39  1  0  0  0  0
 39 54  1  1  0  0  0
 39 40  1  0  0  0  0
 40 21  1  0  0  0  0
 41 39  1  0  0  0  0
 41 42  1  0  0  0  0
 43 41  2  0  0  0  0
 44 32  1  0  0  0  0
 47 35  1  0  0  0  0
 49 36  1  0  0  0  0
 50 37  1  0  0  0  0
 51 37  1  0  0  0  0
 52 38  1  0  0  0  0
 55 40  1  0  0  0  0
M  END
$$$$
