TVT.pdb
 OpenBabel07022419153D

 46 45  0  0  1  0  0  0  0  0999 V2000
    3.5300   -1.8530   -2.1140 C   0  0  0  0  0  0  0  0  0  0  0  0
    2.8150   -2.8020   -1.1910 C   0  0  1  0  0  0  0  0  0  0  0  0
    3.8040   -3.6730   -0.7170 O   0  0  0  0  0  0  0  0  0  0  0  0
    2.1660   -2.1050   -0.0320 C   0  0  2  0  0  0  0  0  0  0  0  0
    1.6070   -3.1000    0.8520 N   0  0  0  0  0  0  0  0  0  0  0  0
    1.1570   -1.1110   -0.4280 C   0  0  0  0  0  0  0  0  0  0  0  0
    1.3220   -0.2230   -1.3060 O   0  0  0  0  0  0  0  0  0  0  0  0
    4.1850   -1.1540   -1.5850 H   0  0  0  0  0  0  0  0  0  0  0  0
    2.8260   -1.3230   -2.8210 H   0  0  0  0  0  0  0  0  0  0  0  0
    4.1830   -2.4700   -2.7700 H   0  0  0  0  0  0  0  0  0  0  0  0
    2.0970   -3.3890   -1.7920 H   0  0  0  0  0  0  0  0  0  0  0  0
    3.5870   -4.6200   -0.9090 H   0  0  0  0  0  0  0  0  0  0  0  0
    2.9460   -1.5560    0.5490 H   0  0  0  0  0  0  0  0  0  0  0  0
    2.2540   -3.4550    1.5560 H   0  0  0  0  0  0  0  0  0  0  0  0
    1.2110   -3.9020    0.3240 H   0  0  0  0  0  0  0  0  0  0  0  0
   -3.1170   -1.9010    0.2430 C   0  0  0  0  0  0  0  0  0  0  0  0
   -2.4460   -0.8710   -0.6420 C   0  0  0  0  0  0  0  0  0  0  0  0
   -2.1070   -1.5790   -1.9660 C   0  0  0  0  0  0  0  0  0  0  0  0
   -1.2050   -0.2600   -0.0560 C   0  0  2  0  0  0  0  0  0  0  0  0
   -0.1280   -1.1440    0.2290 N   0  0  0  0  0  0  0  0  0  0  0  0
   -1.4450    0.7930    0.9490 C   0  0  0  0  0  0  0  0  0  0  0  0
   -2.5130    1.4330    0.9320 O   0  0  0  0  0  0  0  0  0  0  0  0
   -3.5760   -2.7100   -0.3730 H   0  0  0  0  0  0  0  0  0  0  0  0
   -3.9920   -1.4660    0.8040 H   0  0  0  0  0  0  0  0  0  0  0  0
   -2.4280   -2.2880    1.0150 H   0  0  0  0  0  0  0  0  0  0  0  0
   -3.1890   -0.0960   -0.9080 H   0  0  0  0  0  0  0  0  0  0  0  0
   -2.7250   -1.2360   -2.8100 H   0  0  0  0  0  0  0  0  0  0  0  0
   -2.2840   -2.6640   -1.8500 H   0  0  0  0  0  0  0  0  0  0  0  0
   -1.0400   -1.3770   -2.2420 H   0  0  0  0  0  0  0  0  0  0  0  0
   -0.7920    0.3700   -0.9440 H   0  0  0  0  0  0  0  0  0  0  0  0
   -0.2230   -1.8860    0.9680 H   0  0  0  0  0  0  0  0  0  0  0  0
   -0.6880    0.4720    4.8730 C   0  0  0  0  0  0  0  0  0  0  0  0
   -0.0260    1.6810    4.2740 C   0  0  1  0  0  0  0  0  0  0  0  0
    1.3570    1.4680    4.1030 O   0  0  0  0  0  0  0  0  0  0  0  0
   -0.6290    2.1030    2.9550 C   0  0  2  0  0  0  0  0  0  0  0  0
   -0.4760    1.0880    1.9280 N   0  0  0  0  0  0  0  0  0  0  0  0
    0.0340    3.3740    2.4880 C   0  0  0  0  0  0  0  0  0  0  0  0
    0.5750    3.3580    1.3620 O   0  0  0  0  0  0  0  0  0  0  0  0
    0.0670    4.5270    3.2360 O   0  0  0  0  0  0  0  0  0  0  0  0
    0.0600   -0.3670    4.9210 H   0  0  0  0  0  0  0  0  0  0  0  0
   -1.0170    0.6210    5.9290 H   0  0  0  0  0  0  0  0  0  0  0  0
   -1.5700    0.1480    4.2910 H   0  0  0  0  0  0  0  0  0  0  0  0
   -0.1090    2.5050    5.0280 H   0  0  0  0  0  0  0  0  0  0  0  0
    1.7720    2.3920    4.0020 H   0  0  0  0  0  0  0  0  0  0  0  0
   -1.6850    2.3290    3.0860 H   0  0  0  0  0  0  0  0  0  0  0  0
    0.4090    0.5190    1.8820 H   0  0  0  0  0  0  0  0  0  0  0  0
  1  8  1  0  0  0  0
  1  2  1  0  0  0  0
  2 11  1  6  0  0  0
  2  3  1  0  0  0  0
  2  4  1  0  0  0  0
  4 13  1  1  0  0  0
  4  5  1  0  0  0  0
  5 14  1  0  0  0  0
  6  4  1  0  0  0  0
  6 20  1  0  0  0  0
  7  6  2  0  0  0  0
  9  1  1  0  0  0  0
 10  1  1  0  0  0  0
 12  3  1  0  0  0  0
 15  5  1  0  0  0  0
 16 24  1  0  0  0  0
 16 25  1  0  0  0  0
 17 19  1  0  0  0  0
 17 16  1  0  0  0  0
 18 28  1  0  0  0  0
 18 17  1  0  0  0  0
 19 30  1  6  0  0  0
 19 20  1  0  0  0  0
 19 21  1  0  0  0  0
 20 31  1  0  0  0  0
 21 36  1  0  0  0  0
 22 21  2  0  0  0  0
 23 16  1  0  0  0  0
 26 17  1  0  0  0  0
 27 18  1  0  0  0  0
 29 18  1  0  0  0  0
 32 40  1  0  0  0  0
 32 41  1  0  0  0  0
 33 32  1  0  0  0  0
 33 43  1  1  0  0  0
 34 33  1  0  0  0  0
 35 45  1  1  0  0  0
 35 33  1  0  0  0  0
 36 35  1  0  0  0  0
 37 35  1  0  0  0  0
 37 39  1  0  0  0  0
 38 37  2  0  0  0  0
 42 32  1  0  0  0  0
 44 34  1  0  0  0  0
 46 36  1  0  0  0  0
M  END
$$$$
