TVV.pdb
 OpenBabel07022419153D

 48 47  0  0  1  0  0  0  0  0999 V2000
    1.5120   -4.0070   -2.7950 C   0  0  0  0  0  0  0  0  0  0  0  0
    0.1530   -3.4580   -2.5240 C   0  0  1  0  0  0  0  0  0  0  0  0
   -0.7910   -4.4330   -2.8390 O   0  0  0  0  0  0  0  0  0  0  0  0
   -0.0760   -3.0740   -1.0810 C   0  0  2  0  0  0  0  0  0  0  0  0
   -1.4370   -2.5630   -0.9980 N   0  0  0  0  0  0  0  0  0  0  0  0
    0.8840   -2.0480   -0.6030 C   0  0  0  0  0  0  0  0  0  0  0  0
    2.1140   -2.2790   -0.5830 O   0  0  0  0  0  0  0  0  0  0  0  0
    1.4240   -4.8120   -3.5530 H   0  0  0  0  0  0  0  0  0  0  0  0
    2.1950   -3.2430   -3.2710 H   0  0  0  0  0  0  0  0  0  0  0  0
    1.9880   -4.4590   -1.9030 H   0  0  0  0  0  0  0  0  0  0  0  0
   -0.0380   -2.5860   -3.2040 H   0  0  0  0  0  0  0  0  0  0  0  0
   -0.5860   -5.3160   -2.4910 H   0  0  0  0  0  0  0  0  0  0  0  0
   -0.0370   -4.0080   -0.4760 H   0  0  0  0  0  0  0  0  0  0  0  0
   -2.1090   -3.1410   -1.5210 H   0  0  0  0  0  0  0  0  0  0  0  0
   -1.7140   -2.3240   -0.0320 H   0  0  0  0  0  0  0  0  0  0  0  0
   -0.0380    2.1060   -0.6430 C   0  0  0  0  0  0  0  0  0  0  0  0
    1.3430    1.4880   -0.5640 C   0  0  0  0  0  0  0  0  0  0  0  0
    1.8940    1.1780   -1.9310 C   0  0  0  0  0  0  0  0  0  0  0  0
    1.3310    0.2610    0.3250 C   0  0  2  0  0  0  0  0  0  0  0  0
    0.4440   -0.7550   -0.1440 N   0  0  0  0  0  0  0  0  0  0  0  0
    1.1390    0.6030    1.7500 C   0  0  0  0  0  0  0  0  0  0  0  0
    1.8660    1.4830    2.2640 O   0  0  0  0  0  0  0  0  0  0  0  0
   -0.7720    1.6250    0.0020 H   0  0  0  0  0  0  0  0  0  0  0  0
   -0.0340    3.1920   -0.4010 H   0  0  0  0  0  0  0  0  0  0  0  0
   -0.4190    2.0310   -1.6840 H   0  0  0  0  0  0  0  0  0  0  0  0
    2.0050    2.2710   -0.1290 H   0  0  0  0  0  0  0  0  0  0  0  0
    1.3450    1.6910   -2.7500 H   0  0  0  0  0  0  0  0  0  0  0  0
    1.7470    0.0810   -2.1300 H   0  0  0  0  0  0  0  0  0  0  0  0
    2.9610    1.4680   -2.0340 H   0  0  0  0  0  0  0  0  0  0  0  0
    2.3750   -0.1670    0.2520 H   0  0  0  0  0  0  0  0  0  0  0  0
   -0.6030   -0.6140   -0.1830 H   0  0  0  0  0  0  0  0  0  0  0  0
   -1.6300    2.1210    3.3620 C   0  0  0  0  0  0  0  0  0  0  0  0
   -1.4730    0.8110    4.1360 C   0  0  0  0  0  0  0  0  0  0  0  0
   -2.5790   -0.1020    3.7070 C   0  0  0  0  0  0  0  0  0  0  0  0
   -0.0960    0.2240    3.9110 C   0  0  2  0  0  0  0  0  0  0  0  0
    0.1460   -0.0600    2.5140 N   0  0  0  0  0  0  0  0  0  0  0  0
    0.1630   -0.9360    4.7790 C   0  0  0  0  0  0  0  0  0  0  0  0
   -0.0070   -0.8310    6.0090 O   0  0  0  0  0  0  0  0  0  0  0  0
    0.5880   -2.1270    4.2390 O   0  0  0  0  0  0  0  0  0  0  0  0
   -1.4320    1.9790    2.2800 H   0  0  0  0  0  0  0  0  0  0  0  0
   -0.9190    2.8630    3.8040 H   0  0  0  0  0  0  0  0  0  0  0  0
   -2.6690    2.4980    3.4380 H   0  0  0  0  0  0  0  0  0  0  0  0
   -1.6180    1.0660    5.2050 H   0  0  0  0  0  0  0  0  0  0  0  0
   -3.2980    0.4060    3.0000 H   0  0  0  0  0  0  0  0  0  0  0  0
   -2.2340   -1.0090    3.1760 H   0  0  0  0  0  0  0  0  0  0  0  0
   -3.2240   -0.4300    4.5720 H   0  0  0  0  0  0  0  0  0  0  0  0
    0.6300    1.0230    4.2080 H   0  0  0  0  0  0  0  0  0  0  0  0
   -0.4190   -0.7820    2.0090 H   0  0  0  0  0  0  0  0  0  0  0  0
  1  2  1  0  0  0  0
  1 10  1  0  0  0  0
  2 11  1  6  0  0  0
  2  4  1  0  0  0  0
  3  2  1  0  0  0  0
  3 12  1  0  0  0  0
  4  5  1  0  0  0  0
  4  6  1  0  0  0  0
  4 13  1  1  0  0  0
  5 15  1  0  0  0  0
  6  7  2  0  0  0  0
  6 20  1  0  0  0  0
  8  1  1  0  0  0  0
  9  1  1  0  0  0  0
 14  5  1  0  0  0  0
 16 17  1  0  0  0  0
 16 24  1  0  0  0  0
 16 23  1  0  0  0  0
 17 26  1  0  0  0  0
 17 19  1  0  0  0  0
 18 17  1  0  0  0  0
 19 30  1  6  0  0  0
 19 21  1  0  0  0  0
 20 19  1  0  0  0  0
 21 22  2  0  0  0  0
 21 36  1  0  0  0  0
 25 16  1  0  0  0  0
 27 18  1  0  0  0  0
 28 18  1  0  0  0  0
 29 18  1  0  0  0  0
 31 20  1  0  0  0  0
 32 42  1  0  0  0  0
 32 41  1  0  0  0  0
 32 33  1  0  0  0  0
 33 43  1  0  0  0  0
 34 33  1  0  0  0  0
 34 46  1  0  0  0  0
 35 33  1  0  0  0  0
 35 47  1  1  0  0  0
 35 37  1  0  0  0  0
 36 35  1  0  0  0  0
 37 38  1  0  0  0  0
 39 37  2  0  0  0  0
 40 32  1  0  0  0  0
 44 34  1  0  0  0  0
 45 34  1  0  0  0  0
 48 36  1  0  0  0  0
M  END
$$$$
