TVY.pdb
 OpenBabel07022419153D

 53 53  0  0  1  0  0  0  0  0999 V2000
    1.6030   -4.0760    2.0660 C   0  0  0  0  0  0  0  0  0  0  0  0
    2.7870   -3.3280    1.5030 C   0  0  1  0  0  0  0  0  0  0  0  0
    2.4260   -2.7390    0.3090 O   0  0  0  0  0  0  0  0  0  0  0  0
    3.3730   -2.3630    2.5080 C   0  0  2  0  0  0  0  0  0  0  0  0
    3.6960   -3.1510    3.7020 N   0  0  0  0  0  0  0  0  0  0  0  0
    2.4910   -1.2370    2.8350 C   0  0  0  0  0  0  0  0  0  0  0  0
    2.1290   -1.1000    4.0360 O   0  0  0  0  0  0  0  0  0  0  0  0
    1.8980   -5.1090    2.3760 H   0  0  0  0  0  0  0  0  0  0  0  0
    0.8130   -4.1990    1.2920 H   0  0  0  0  0  0  0  0  0  0  0  0
    1.1530   -3.5940    2.9400 H   0  0  0  0  0  0  0  0  0  0  0  0
    3.6010   -4.0760    1.2940 H   0  0  0  0  0  0  0  0  0  0  0  0
    3.1670   -2.7280   -0.3640 H   0  0  0  0  0  0  0  0  0  0  0  0
    4.3390   -1.9500    2.1590 H   0  0  0  0  0  0  0  0  0  0  0  0
    3.8020   -2.5360    4.5440 H   0  0  0  0  0  0  0  0  0  0  0  0
    4.6290   -3.5940    3.5530 H   0  0  0  0  0  0  0  0  0  0  0  0
    3.1070    2.2510    2.6890 C   0  0  0  0  0  0  0  0  0  0  0  0
    1.8610    2.0880    1.8810 C   0  0  0  0  0  0  0  0  0  0  0  0
    2.1290    2.3350    0.4310 C   0  0  0  0  0  0  0  0  0  0  0  0
    1.2150    0.7440    2.1400 C   0  0  2  0  0  0  0  0  0  0  0  0
    2.0770   -0.3530    1.8080 N   0  0  0  0  0  0  0  0  0  0  0  0
   -0.1000    0.6720    1.4660 C   0  0  0  0  0  0  0  0  0  0  0  0
   -0.9240    1.5840    1.6850 O   0  0  0  0  0  0  0  0  0  0  0  0
    3.8330    1.4260    2.5370 H   0  0  0  0  0  0  0  0  0  0  0  0
    3.5990    3.2070    2.3530 H   0  0  0  0  0  0  0  0  0  0  0  0
    2.9030    2.3660    3.7730 H   0  0  0  0  0  0  0  0  0  0  0  0
    1.1250    2.8550    2.2550 H   0  0  0  0  0  0  0  0  0  0  0  0
    2.8390    3.1950    0.3580 H   0  0  0  0  0  0  0  0  0  0  0  0
    2.5260    1.4130   -0.0250 H   0  0  0  0  0  0  0  0  0  0  0  0
    1.1490    2.6180   -0.0400 H   0  0  0  0  0  0  0  0  0  0  0  0
    1.0080    0.7070    3.2260 H   0  0  0  0  0  0  0  0  0  0  0  0
    2.3770   -0.4600    0.7950 H   0  0  0  0  0  0  0  0  0  0  0  0
   -6.8130   -0.4350   -4.0770 O   0  0  0  0  0  0  0  0  0  0  0  0
   -5.5630   -0.4790   -3.4550 C   0  0  0  0  0  0  0  0  0  0  0  0
   -4.9710    0.6980   -3.0860 C   0  0  0  0  0  0  0  0  0  0  0  0
   -3.7420    0.6740   -2.4730 C   0  0  0  0  0  0  0  0  0  0  0  0
   -3.0570   -0.4940   -2.2030 C   0  0  0  0  0  0  0  0  0  0  0  0
   -1.7300   -0.4320   -1.5490 C   0  0  0  0  0  0  0  0  0  0  0  0
   -1.7880   -0.4200   -0.0690 C   0  0  2  0  0  0  0  0  0  0  0  0
   -0.4970   -0.3630    0.5840 N   0  0  0  0  0  0  0  0  0  0  0  0
   -2.5380   -1.5730    0.4850 C   0  0  0  0  0  0  0  0  0  0  0  0
   -3.7010   -1.8960    0.1630 O   0  0  0  0  0  0  0  0  0  0  0  0
   -3.6750   -1.6670   -2.5850 C   0  0  0  0  0  0  0  0  0  0  0  0
   -4.9180   -1.6690   -3.2060 C   0  0  0  0  0  0  0  0  0  0  0  0
   -1.9490   -2.4120    1.4540 O   0  0  0  0  0  0  0  0  0  0  0  0
   -7.6160   -0.9290   -3.6730 H   0  0  0  0  0  0  0  0  0  0  0  0
   -5.4940    1.6210   -3.2910 H   0  0  0  0  0  0  0  0  0  0  0  0
   -3.2910    1.6000   -2.1910 H   0  0  0  0  0  0  0  0  0  0  0  0
   -1.2140   -1.3950   -1.8530 H   0  0  0  0  0  0  0  0  0  0  0  0
   -1.0860    0.3560   -1.9900 H   0  0  0  0  0  0  0  0  0  0  0  0
   -2.3980    0.4850    0.2300 H   0  0  0  0  0  0  0  0  0  0  0  0
    0.2020   -1.1190    0.4110 H   0  0  0  0  0  0  0  0  0  0  0  0
   -3.1980   -2.6070   -2.4110 H   0  0  0  0  0  0  0  0  0  0  0  0
   -5.3820   -2.5800   -3.4940 H   0  0  0  0  0  0  0  0  0  0  0  0
  1  8  1  0  0  0  0
  1 10  1  0  0  0  0
  2 11  1  6  0  0  0
  2  1  1  0  0  0  0
  2  4  1  0  0  0  0
  3  2  1  0  0  0  0
  4 13  1  6  0  0  0
  4  6  1  0  0  0  0
  4  5  1  0  0  0  0
  5 14  1  0  0  0  0
  6  7  2  0  0  0  0
  9  1  1  0  0  0  0
 12  3  1  0  0  0  0
 15  5  1  0  0  0  0
 16 25  1  0  0  0  0
 17 19  1  0  0  0  0
 17 26  1  0  0  0  0
 17 16  1  0  0  0  0
 18 17  1  0  0  0  0
 19 30  1  1  0  0  0
 20 19  1  0  0  0  0
 20  6  1  0  0  0  0
 21 22  2  0  0  0  0
 21 19  1  0  0  0  0
 23 16  1  0  0  0  0
 24 16  1  0  0  0  0
 27 18  1  0  0  0  0
 28 18  1  0  0  0  0
 29 18  1  0  0  0  0
 31 20  1  0  0  0  0
 32 45  1  0  0  0  0
 32 33  1  0  0  0  0
 33 43  2  0  0  0  0
 33 34  1  0  0  0  0
 34 35  2  0  0  0  0
 35 36  1  0  0  0  0
 35 47  1  0  0  0  0
 36 37  1  0  0  0  0
 37 38  1  0  0  0  0
 38 50  1  1  0  0  0
 38 40  1  0  0  0  0
 38 39  1  0  0  0  0
 39 21  1  0  0  0  0
 40 44  1  0  0  0  0
 41 40  2  0  0  0  0
 42 52  1  0  0  0  0
 42 36  2  0  0  0  0
 43 42  1  0  0  0  0
 46 34  1  0  0  0  0
 48 37  1  0  0  0  0
 49 37  1  0  0  0  0
 51 39  1  0  0  0  0
 53 43  1  0  0  0  0
M  END
$$$$
