TWA.pdb
 OpenBabel07022419143D

 50 51  0  0  1  0  0  0  0  0999 V2000
    3.9310   -1.6480    1.8910 C   0  0  0  0  0  0  0  0  0  0  0  0
    3.4510   -0.9510    3.1290 C   0  0  1  0  0  0  0  0  0  0  0  0
    3.6240    0.4060    3.0700 O   0  0  0  0  0  0  0  0  0  0  0  0
    2.0240   -1.3550    3.4920 C   0  0  2  0  0  0  0  0  0  0  0  0
    2.0040   -2.8030    3.5130 N   0  0  0  0  0  0  0  0  0  0  0  0
    1.0330   -0.7950    2.5610 C   0  0  0  0  0  0  0  0  0  0  0  0
    0.9430    0.4680    2.4420 O   0  0  0  0  0  0  0  0  0  0  0  0
    5.0460   -1.7380    1.9700 H   0  0  0  0  0  0  0  0  0  0  0  0
    3.5530   -2.6820    1.8420 H   0  0  0  0  0  0  0  0  0  0  0  0
    3.7400   -1.0690    0.9670 H   0  0  0  0  0  0  0  0  0  0  0  0
    4.0900   -1.3270    3.9780 H   0  0  0  0  0  0  0  0  0  0  0  0
    4.2100    0.7090    2.3330 H   0  0  0  0  0  0  0  0  0  0  0  0
    1.8600   -1.0210    4.5270 H   0  0  0  0  0  0  0  0  0  0  0  0
    1.1310   -3.1620    3.9810 H   0  0  0  0  0  0  0  0  0  0  0  0
    2.8030   -3.1830    4.0630 H   0  0  0  0  0  0  0  0  0  0  0  0
    0.1490   -1.5600    1.7660 N   0  0  0  0  0  0  0  0  0  0  0  0
   -0.7930   -0.9590    0.8790 C   0  0  1  0  0  0  0  0  0  0  0  0
   -0.5540   -1.2590   -0.5810 C   0  0  0  0  0  0  0  0  0  0  0  0
    0.7560   -0.8000   -1.0510 C   0  0  0  0  0  0  0  0  0  0  0  0
    1.8450   -1.6050   -1.2940 C   0  0  0  0  0  0  0  0  0  0  0  0
    2.8510   -0.8170   -1.7100 N   0  0  0  0  0  0  0  0  0  0  0  0
    2.4880    0.4700   -1.7560 C   0  0  0  0  0  0  0  0  0  0  0  0
    3.1250    1.6420   -2.1030 C   0  0  0  0  0  0  0  0  0  0  0  0
    2.4910    2.8670   -2.0560 C   0  0  0  0  0  0  0  0  0  0  0  0
    1.1730    2.8580   -1.6390 C   0  0  0  0  0  0  0  0  0  0  0  0
    0.5250    1.6970   -1.2890 C   0  0  0  0  0  0  0  0  0  0  0  0
    1.1530    0.4820   -1.3360 C   0  0  0  0  0  0  0  0  0  0  0  0
   -2.2000   -1.2350    1.2530 C   0  0  0  0  0  0  0  0  0  0  0  0
   -2.3980   -1.9330    2.2770 O   0  0  0  0  0  0  0  0  0  0  0  0
    0.2200   -2.6120    1.8610 H   0  0  0  0  0  0  0  0  0  0  0  0
   -0.6760    0.1620    0.9640 H   0  0  0  0  0  0  0  0  0  0  0  0
   -1.3790   -0.7170   -1.1310 H   0  0  0  0  0  0  0  0  0  0  0  0
   -0.6880   -2.3190   -0.8390 H   0  0  0  0  0  0  0  0  0  0  0  0
    1.8960   -2.6930   -1.1750 H   0  0  0  0  0  0  0  0  0  0  0  0
    3.8010   -1.1590   -1.9680 H   0  0  0  0  0  0  0  0  0  0  0  0
    4.1650    1.6190   -2.4290 H   0  0  0  0  0  0  0  0  0  0  0  0
    2.9790    3.7950   -2.3250 H   0  0  0  0  0  0  0  0  0  0  0  0
    0.6670    3.8040   -1.5970 H   0  0  0  0  0  0  0  0  0  0  0  0
   -0.4880    1.7510   -0.9760 H   0  0  0  0  0  0  0  0  0  0  0  0
   -5.5240    0.0920    1.2150 C   0  0  0  0  0  0  0  0  0  0  0  0
   -4.6420   -1.1040    1.0070 C   0  0  2  0  0  0  0  0  0  0  0  0
   -3.3200   -0.7640    0.5340 N   0  0  0  0  0  0  0  0  0  0  0  0
   -5.3380   -1.9680   -0.0150 C   0  0  0  0  0  0  0  0  0  0  0  0
   -4.7640   -2.2910   -1.0860 O   0  0  0  0  0  0  0  0  0  0  0  0
   -6.6300   -2.4230    0.2120 O   0  0  0  0  0  0  0  0  0  0  0  0
   -5.5680    0.3640    2.2900 H   0  0  0  0  0  0  0  0  0  0  0  0
   -5.2030    0.9770    0.6410 H   0  0  0  0  0  0  0  0  0  0  0  0
   -6.5940   -0.1250    0.9370 H   0  0  0  0  0  0  0  0  0  0  0  0
   -4.5860   -1.7110    1.9490 H   0  0  0  0  0  0  0  0  0  0  0  0
   -3.1910   -0.1950   -0.3050 H   0  0  0  0  0  0  0  0  0  0  0  0
  1  8  1  0  0  0  0
  1  2  1  0  0  0  0
  2  4  1  0  0  0  0
  2 11  1  1  0  0  0
  3  2  1  0  0  0  0
  4  5  1  0  0  0  0
  4 13  1  1  0  0  0
  5 14  1  0  0  0  0
  5 15  1  0  0  0  0
  6  4  1  0  0  0  0
  7  6  2  0  0  0  0
  9  1  1  0  0  0  0
 10  1  1  0  0  0  0
 12  3  1  0  0  0  0
 16 30  1  0  0  0  0
 16  6  1  0  0  0  0
 17 31  1  1  0  0  0
 17 28  1  0  0  0  0
 17 16  1  0  0  0  0
 18 17  1  0  0  0  0
 19 18  1  0  0  0  0
 20 34  1  0  0  0  0
 20 19  2  0  0  0  0
 21 20  1  0  0  0  0
 22 21  1  0  0  0  0
 22 27  1  0  0  0  0
 23 24  1  0  0  0  0
 23 22  2  0  0  0  0
 24 25  2  0  0  0  0
 25 38  1  0  0  0  0
 25 26  1  0  0  0  0
 26 39  1  0  0  0  0
 27 26  2  0  0  0  0
 27 19  1  0  0  0  0
 28 29  2  0  0  0  0
 32 18  1  0  0  0  0
 33 18  1  0  0  0  0
 35 21  1  0  0  0  0
 36 23  1  0  0  0  0
 37 24  1  0  0  0  0
 40 46  1  0  0  0  0
 41 40  1  0  0  0  0
 41 49  1  1  0  0  0
 42 41  1  0  0  0  0
 42 28  1  0  0  0  0
 43 45  1  0  0  0  0
 43 41  1  0  0  0  0
 44 43  2  0  0  0  0
 47 40  1  0  0  0  0
 48 40  1  0  0  0  0
 50 42  1  0  0  0  0
M  END
$$$$
