TWE.pdb
 OpenBabel07022419143D

 56 57  0  0  1  0  0  0  0  0999 V2000
    3.7310    0.6090    3.4010 C   0  0  0  0  0  0  0  0  0  0  0  0
    4.5630   -0.0110    2.3000 C   0  0  1  0  0  0  0  0  0  0  0  0
    5.1170   -1.1710    2.8280 O   0  0  0  0  0  0  0  0  0  0  0  0
    3.7060   -0.3210    1.0800 C   0  0  2  0  0  0  0  0  0  0  0  0
    3.1340    0.8540    0.5070 N   0  0  0  0  0  0  0  0  0  0  0  0
    2.6540   -1.2840    1.5310 C   0  0  0  0  0  0  0  0  0  0  0  0
    2.9940   -2.3470    2.0960 O   0  0  0  0  0  0  0  0  0  0  0  0
    3.3960    1.6250    3.1960 H   0  0  0  0  0  0  0  0  0  0  0  0
    2.7970    0.0010    3.5830 H   0  0  0  0  0  0  0  0  0  0  0  0
    4.2720    0.5480    4.3680 H   0  0  0  0  0  0  0  0  0  0  0  0
    5.3930    0.6720    2.0430 H   0  0  0  0  0  0  0  0  0  0  0  0
    5.0540   -1.2720    3.7880 H   0  0  0  0  0  0  0  0  0  0  0  0
    4.3570   -0.7780    0.2960 H   0  0  0  0  0  0  0  0  0  0  0  0
    2.6360    0.6000   -0.3680 H   0  0  0  0  0  0  0  0  0  0  0  0
    2.4650    1.2780    1.1680 H   0  0  0  0  0  0  0  0  0  0  0  0
    1.2790   -1.0220    1.3330 N   0  0  0  0  0  0  0  0  0  0  0  0
    0.1930   -1.9060    1.7420 C   0  0  1  0  0  0  0  0  0  0  0  0
   -0.5870   -1.3110    2.8780 C   0  0  0  0  0  0  0  0  0  0  0  0
   -1.1930   -0.0090    2.6500 C   0  0  0  0  0  0  0  0  0  0  0  0
   -0.5960    1.2120    3.0220 C   0  0  0  0  0  0  0  0  0  0  0  0
   -1.4150    2.1860    2.6220 N   0  0  0  0  0  0  0  0  0  0  0  0
   -2.4930    1.7090    2.0220 C   0  0  0  0  0  0  0  0  0  0  0  0
   -3.5800    2.3630    1.4740 C   0  0  0  0  0  0  0  0  0  0  0  0
   -4.6000    1.6400    0.9080 C   0  0  0  0  0  0  0  0  0  0  0  0
   -4.5070    0.2500    0.9040 C   0  0  0  0  0  0  0  0  0  0  0  0
   -3.4090   -0.3680    1.4590 C   0  0  0  0  0  0  0  0  0  0  0  0
   -2.3640    0.3290    2.0360 C   0  0  0  0  0  0  0  0  0  0  0  0
   -0.5870   -2.3920    0.6010 C   0  0  0  0  0  0  0  0  0  0  0  0
   -1.5610   -3.1720    0.7540 O   0  0  0  0  0  0  0  0  0  0  0  0
    1.0600   -0.1020    0.8420 H   0  0  0  0  0  0  0  0  0  0  0  0
    0.7500   -2.7860    2.2280 H   0  0  0  0  0  0  0  0  0  0  0  0
   -1.4060   -2.0480    3.1530 H   0  0  0  0  0  0  0  0  0  0  0  0
    0.0850   -1.2490    3.7780 H   0  0  0  0  0  0  0  0  0  0  0  0
    0.3350    1.3550    3.5270 H   0  0  0  0  0  0  0  0  0  0  0  0
   -1.2150    3.2210    2.7720 H   0  0  0  0  0  0  0  0  0  0  0  0
   -3.6180    3.4610    1.4950 H   0  0  0  0  0  0  0  0  0  0  0  0
   -5.4700    2.1320    0.4670 H   0  0  0  0  0  0  0  0  0  0  0  0
   -5.3240   -0.2850    0.4530 H   0  0  0  0  0  0  0  0  0  0  0  0
   -3.3790   -1.4430    1.4530 H   0  0  0  0  0  0  0  0  0  0  0  0
   -0.3080   -2.0280   -0.7480 N   0  0  0  0  0  0  0  0  0  0  0  0
   -1.1520   -2.5560   -1.8740 C   0  0  1  0  0  0  0  0  0  0  0  0
   -1.5360   -1.4120   -2.7280 C   0  0  0  0  0  0  0  0  0  0  0  0
   -2.4010   -1.6510   -3.8950 C   0  0  0  0  0  0  0  0  0  0  0  0
   -1.8370   -2.5110   -4.9380 C   0  0  0  0  0  0  0  0  0  0  0  0
   -2.4640   -3.5100   -5.4320 O   0  0  0  0  0  0  0  0  0  0  0  0
   -0.2910   -3.5730   -2.5020 C   0  0  0  0  0  0  0  0  0  0  0  0
   -0.6370   -4.4290   -3.3420 O   0  0  0  0  0  0  0  0  0  0  0  0
   -0.5600   -2.2750   -5.4540 O   0  0  0  0  0  0  0  0  0  0  0  0
    1.0770   -3.6290   -2.1540 O   0  0  0  0  0  0  0  0  0  0  0  0
    0.4880   -1.3970   -0.9340 H   0  0  0  0  0  0  0  0  0  0  0  0
   -2.0170   -3.0780   -1.4550 H   0  0  0  0  0  0  0  0  0  0  0  0
   -1.8920   -0.5330   -2.1080 H   0  0  0  0  0  0  0  0  0  0  0  0
   -0.5620   -0.9720   -3.1620 H   0  0  0  0  0  0  0  0  0  0  0  0
   -2.6390   -0.6450   -4.3830 H   0  0  0  0  0  0  0  0  0  0  0  0
   -3.4070   -2.1080   -3.5930 H   0  0  0  0  0  0  0  0  0  0  0  0
   -0.2090   -2.7970   -6.2640 H   0  0  0  0  0  0  0  0  0  0  0  0
  1  9  1  0  0  0  0
  1 10  1  0  0  0  0
  2 11  1  6  0  0  0
  2  3  1  0  0  0  0
  2  1  1  0  0  0  0
  3 12  1  0  0  0  0
  4 13  1  6  0  0  0
  4  6  1  0  0  0  0
  4  2  1  0  0  0  0
  5  4  1  0  0  0  0
  5 15  1  0  0  0  0
  6  7  2  0  0  0  0
  8  1  1  0  0  0  0
 14  5  1  0  0  0  0
 16  6  1  0  0  0  0
 16 17  1  0  0  0  0
 17 31  1  1  0  0  0
 17 18  1  0  0  0  0
 18 32  1  0  0  0  0
 18 33  1  0  0  0  0
 19 18  1  0  0  0  0
 19 20  2  0  0  0  0
 20 34  1  0  0  0  0
 21 35  1  0  0  0  0
 21 20  1  0  0  0  0
 22 27  1  0  0  0  0
 22 21  1  0  0  0  0
 23 36  1  0  0  0  0
 23 22  2  0  0  0  0
 24 23  1  0  0  0  0
 25 24  2  0  0  0  0
 25 26  1  0  0  0  0
 26 27  2  0  0  0  0
 27 19  1  0  0  0  0
 28 29  2  0  0  0  0
 28 17  1  0  0  0  0
 30 16  1  0  0  0  0
 37 24  1  0  0  0  0
 38 25  1  0  0  0  0
 39 26  1  0  0  0  0
 40 28  1  0  0  0  0
 41 51  1  1  0  0  0
 41 40  1  0  0  0  0
 42 52  1  0  0  0  0
 42 41  1  0  0  0  0
 43 55  1  0  0  0  0
 43 42  1  0  0  0  0
 44 43  1  0  0  0  0
 45 44  2  0  0  0  0
 46 49  1  0  0  0  0
 46 41  1  0  0  0  0
 47 46  2  0  0  0  0
 48 44  1  0  0  0  0
 50 40  1  0  0  0  0
 53 42  1  0  0  0  0
 54 43  1  0  0  0  0
 56 48  1  0  0  0  0
M  END
$$$$
