TWH.pdb
 OpenBabel07022419143D

 57 59  0  0  1  0  0  0  0  0999 V2000
    0.5150    0.0730    6.5430 C   0  0  0  0  0  0  0  0  0  0  0  0
    0.3840   -0.5810    5.1710 C   0  0  1  0  0  0  0  0  0  0  0  0
   -0.7910   -1.2970    5.0330 O   0  0  0  0  0  0  0  0  0  0  0  0
    0.5640    0.4930    4.1560 C   0  0  2  0  0  0  0  0  0  0  0  0
   -0.4990    1.4770    4.1960 N   0  0  0  0  0  0  0  0  0  0  0  0
    0.7580   -0.0330    2.7600 C   0  0  0  0  0  0  0  0  0  0  0  0
    1.6480   -0.8890    2.5410 O   0  0  0  0  0  0  0  0  0  0  0  0
    0.1890   -0.6370    7.3170 H   0  0  0  0  0  0  0  0  0  0  0  0
   -0.0640    1.0240    6.5860 H   0  0  0  0  0  0  0  0  0  0  0  0
    1.5910    0.3730    6.6410 H   0  0  0  0  0  0  0  0  0  0  0  0
    1.2480   -1.2850    5.0630 H   0  0  0  0  0  0  0  0  0  0  0  0
   -0.6200   -2.2310    5.3120 H   0  0  0  0  0  0  0  0  0  0  0  0
    1.5020    1.0450    4.4140 H   0  0  0  0  0  0  0  0  0  0  0  0
   -1.4250    1.0510    3.9890 H   0  0  0  0  0  0  0  0  0  0  0  0
   -0.2700    2.3060    3.6230 H   0  0  0  0  0  0  0  0  0  0  0  0
   -0.0520    0.4240    1.6790 N   0  0  0  0  0  0  0  0  0  0  0  0
    0.0600   -0.0300    0.3130 C   0  0  1  0  0  0  0  0  0  0  0  0
    1.1440    0.6380   -0.4140 C   0  0  0  0  0  0  0  0  0  0  0  0
    0.9580    2.1240   -0.4830 C   0  0  0  0  0  0  0  0  0  0  0  0
    1.6120    3.1120    0.2470 C   0  0  0  0  0  0  0  0  0  0  0  0
    1.1440    4.3190   -0.1230 N   0  0  0  0  0  0  0  0  0  0  0  0
    0.1970    4.1630   -1.0790 C   0  0  0  0  0  0  0  0  0  0  0  0
   -0.5840    5.0680   -1.7850 C   0  0  0  0  0  0  0  0  0  0  0  0
   -1.4830    4.6100   -2.7150 C   0  0  0  0  0  0  0  0  0  0  0  0
   -1.6210    3.2610   -2.9600 C   0  0  0  0  0  0  0  0  0  0  0  0
   -0.8350    2.3720   -2.2480 C   0  0  0  0  0  0  0  0  0  0  0  0
    0.0810    2.8070   -1.3010 C   0  0  0  0  0  0  0  0  0  0  0  0
    0.0050   -1.4800    0.2650 C   0  0  0  0  0  0  0  0  0  0  0  0
   -0.2000   -2.1340    1.3120 O   0  0  0  0  0  0  0  0  0  0  0  0
   -0.7700    1.1520    1.9720 H   0  0  0  0  0  0  0  0  0  0  0  0
   -0.9330    0.3000   -0.1630 H   0  0  0  0  0  0  0  0  0  0  0  0
    2.1000    0.4960    0.1750 H   0  0  0  0  0  0  0  0  0  0  0  0
    1.3670    0.2940   -1.4170 H   0  0  0  0  0  0  0  0  0  0  0  0
    2.3810    2.9020    0.9960 H   0  0  0  0  0  0  0  0  0  0  0  0
    1.4430    5.2570    0.2490 H   0  0  0  0  0  0  0  0  0  0  0  0
   -0.4420    6.1160   -1.5600 H   0  0  0  0  0  0  0  0  0  0  0  0
   -2.0980    5.3150   -3.2720 H   0  0  0  0  0  0  0  0  0  0  0  0
   -2.3080    2.8430   -3.6760 H   0  0  0  0  0  0  0  0  0  0  0  0
   -0.9020    1.3150   -2.3980 H   0  0  0  0  0  0  0  0  0  0  0  0
    0.1740   -2.2390   -0.9210 N   0  0  0  0  0  0  0  0  0  0  0  0
    0.1300   -3.6590   -1.0260 C   0  0  1  0  0  0  0  0  0  0  0  0
   -1.0860   -4.0320   -1.8530 C   0  0  0  0  0  0  0  0  0  0  0  0
   -1.2350   -5.4820   -2.0300 C   0  0  0  0  0  0  0  0  0  0  0  0
   -1.9300   -6.3380   -1.2070 C   0  0  0  0  0  0  0  0  0  0  0  0
   -1.8340   -7.5800   -1.7020 N   0  0  0  0  0  0  0  0  0  0  0  0
   -1.0870   -7.5220   -2.8280 C   0  0  0  0  0  0  0  0  0  0  0  0
   -0.7310   -6.2440   -3.0140 N   0  0  0  0  0  0  0  0  0  0  0  0
    1.3600   -4.2900   -1.4730 C   0  0  0  0  0  0  0  0  0  0  0  0
    1.4860   -5.5270   -1.6240 O   0  0  0  0  0  0  0  0  0  0  0  0
    2.4740   -3.5190   -1.7570 O   0  0  0  0  0  0  0  0  0  0  0  0
    0.3460   -1.6780   -1.7900 H   0  0  0  0  0  0  0  0  0  0  0  0
   -0.0760   -4.0520    0.0140 H   0  0  0  0  0  0  0  0  0  0  0  0
   -1.0350   -3.5770   -2.8690 H   0  0  0  0  0  0  0  0  0  0  0  0
   -1.9990   -3.5870   -1.3820 H   0  0  0  0  0  0  0  0  0  0  0  0
   -2.4880   -6.1060   -0.2890 H   0  0  0  0  0  0  0  0  0  0  0  0
   -2.2800   -8.4370   -1.2620 H   0  0  0  0  0  0  0  0  0  0  0  0
   -0.8580   -8.4000   -3.4240 H   0  0  0  0  0  0  0  0  0  0  0  0
  1  9  1  0  0  0  0
  1 10  1  0  0  0  0
  1  8  1  0  0  0  0
  2 11  1  6  0  0  0
  2  1  1  0  0  0  0
  3  2  1  0  0  0  0
  3 12  1  0  0  0  0
  4  5  1  0  0  0  0
  4 13  1  1  0  0  0
  4  2  1  0  0  0  0
  6  4  1  0  0  0  0
  7  6  2  0  0  0  0
 14  5  1  0  0  0  0
 15  5  1  0  0  0  0
 16 30  1  0  0  0  0
 16  6  1  0  0  0  0
 17 31  1  6  0  0  0
 17 16  1  0  0  0  0
 18 32  1  0  0  0  0
 18 17  1  0  0  0  0
 19 18  1  0  0  0  0
 19 20  2  0  0  0  0
 20 34  1  0  0  0  0
 21 20  1  0  0  0  0
 21 35  1  0  0  0  0
 22 21  1  0  0  0  0
 23 36  1  0  0  0  0
 23 22  2  0  0  0  0
 24 23  1  0  0  0  0
 25 24  2  0  0  0  0
 25 26  1  0  0  0  0
 26 27  2  0  0  0  0
 27 22  1  0  0  0  0
 27 19  1  0  0  0  0
 28 17  1  0  0  0  0
 28 29  2  0  0  0  0
 33 18  1  0  0  0  0
 37 24  1  0  0  0  0
 38 25  1  0  0  0  0
 39 26  1  0  0  0  0
 40 28  1  0  0  0  0
 41 40  1  0  0  0  0
 41 52  1  1  0  0  0
 42 54  1  0  0  0  0
 42 41  1  0  0  0  0
 43 42  1  0  0  0  0
 43 44  2  0  0  0  0
 44 55  1  0  0  0  0
 45 56  1  0  0  0  0
 45 44  1  0  0  0  0
 46 45  1  0  0  0  0
 47 46  2  0  0  0  0
 47 43  1  0  0  0  0
 48 41  1  0  0  0  0
 49 48  1  0  0  0  0
 50 48  2  0  0  0  0
 51 40  1  0  0  0  0
 53 42  1  0  0  0  0
 57 46  1  0  0  0  0
M  END
$$$$
