TWK.pdb
 OpenBabel07022419143D

 61 62  0  0  1  0  0  0  0  0999 V2000
    4.8170    3.2250    0.1900 C   0  0  0  0  0  0  0  0  0  0  0  0
    3.3210    3.4010    0.2540 C   0  0  1  0  0  0  0  0  0  0  0  0
    3.0570    4.6840   -0.2610 O   0  0  0  0  0  0  0  0  0  0  0  0
    2.6100    2.3760   -0.6350 C   0  0  2  0  0  0  0  0  0  0  0  0
    1.1850    2.7350   -0.5490 N   0  0  0  0  0  0  0  0  0  0  0  0
    2.8300    1.0290   -0.0800 C   0  0  0  0  0  0  0  0  0  0  0  0
    4.0000    0.5540   -0.1490 O   0  0  0  0  0  0  0  0  0  0  0  0
    5.1010    3.1270   -0.8960 H   0  0  0  0  0  0  0  0  0  0  0  0
    5.3580    4.1280    0.5550 H   0  0  0  0  0  0  0  0  0  0  0  0
    5.1770    2.3710    0.7920 H   0  0  0  0  0  0  0  0  0  0  0  0
    2.9660    3.3430    1.2890 H   0  0  0  0  0  0  0  0  0  0  0  0
    3.4070    4.7280   -1.2010 H   0  0  0  0  0  0  0  0  0  0  0  0
    2.9710    2.5390   -1.6460 H   0  0  0  0  0  0  0  0  0  0  0  0
    0.9520    3.1250    0.3950 H   0  0  0  0  0  0  0  0  0  0  0  0
    0.9280    3.3910   -1.3260 H   0  0  0  0  0  0  0  0  0  0  0  0
    1.8290    0.2390    0.5200 N   0  0  0  0  0  0  0  0  0  0  0  0
    2.0500   -1.0940    1.0670 C   0  0  1  0  0  0  0  0  0  0  0  0
    2.0650   -1.0640    2.5690 C   0  0  0  0  0  0  0  0  0  0  0  0
    0.8660   -0.5510    3.2220 C   0  0  0  0  0  0  0  0  0  0  0  0
    0.6960    0.7500    3.6680 C   0  0  0  0  0  0  0  0  0  0  0  0
   -0.5350    0.8350    4.1640 N   0  0  0  0  0  0  0  0  0  0  0  0
   -1.1850   -0.3370    4.0720 C   0  0  0  0  0  0  0  0  0  0  0  0
   -2.4410   -0.7760    4.4340 C   0  0  0  0  0  0  0  0  0  0  0  0
   -2.8670   -2.0650    4.2310 C   0  0  0  0  0  0  0  0  0  0  0  0
   -2.0000   -2.9520    3.6420 C   0  0  0  0  0  0  0  0  0  0  0  0
   -0.7480   -2.5170    3.2810 C   0  0  0  0  0  0  0  0  0  0  0  0
   -0.3070   -1.2060    3.4830 C   0  0  0  0  0  0  0  0  0  0  0  0
    1.2600   -2.1220    0.4220 C   0  0  0  0  0  0  0  0  0  0  0  0
    1.3930   -3.3480    0.6570 O   0  0  0  0  0  0  0  0  0  0  0  0
    0.8670    0.6170    0.5850 H   0  0  0  0  0  0  0  0  0  0  0  0
    3.1430   -1.3060    0.8070 H   0  0  0  0  0  0  0  0  0  0  0  0
    2.9380   -0.4230    2.8670 H   0  0  0  0  0  0  0  0  0  0  0  0
    2.3200   -2.0860    2.9130 H   0  0  0  0  0  0  0  0  0  0  0  0
    1.4510    1.5260    3.6040 H   0  0  0  0  0  0  0  0  0  0  0  0
   -0.9940    1.6860    4.5880 H   0  0  0  0  0  0  0  0  0  0  0  0
   -3.1210   -0.0740    4.8980 H   0  0  0  0  0  0  0  0  0  0  0  0
   -3.8700   -2.3860    4.5270 H   0  0  0  0  0  0  0  0  0  0  0  0
   -2.3190   -3.9910    3.4710 H   0  0  0  0  0  0  0  0  0  0  0  0
   -0.0690   -3.2380    2.8310 H   0  0  0  0  0  0  0  0  0  0  0  0
    0.2500   -1.7990   -0.5460 N   0  0  0  0  0  0  0  0  0  0  0  0
   -0.5540   -2.8480   -1.1970 C   0  0  1  0  0  0  0  0  0  0  0  0
   -1.9870   -2.6740   -0.8510 C   0  0  0  0  0  0  0  0  0  0  0  0
   -2.8610   -3.7100   -1.4730 C   0  0  0  0  0  0  0  0  0  0  0  0
   -4.3220   -3.5250   -1.0690 C   0  0  0  0  0  0  0  0  0  0  0  0
   -4.8440   -2.1800   -1.4910 C   0  0  0  0  0  0  0  0  0  0  0  0
   -4.7530   -2.0400   -2.9290 N   0  0  0  0  0  0  0  0  0  0  0  0
   -0.2690   -2.7750   -2.6400 C   0  0  0  0  0  0  0  0  0  0  0  0
   -0.7820   -3.5930   -3.4300 O   0  0  0  0  0  0  0  0  0  0  0  0
    0.5690   -1.8130   -3.1870 O   0  0  0  0  0  0  0  0  0  0  0  0
    0.0930   -0.8190   -0.7840 H   0  0  0  0  0  0  0  0  0  0  0  0
   -0.2290   -3.8540   -0.8210 H   0  0  0  0  0  0  0  0  0  0  0  0
   -2.0530   -2.6880    0.2750 H   0  0  0  0  0  0  0  0  0  0  0  0
   -2.3020   -1.6310   -1.1370 H   0  0  0  0  0  0  0  0  0  0  0  0
   -2.5580   -4.7320   -1.1790 H   0  0  0  0  0  0  0  0  0  0  0  0
   -2.8640   -3.6460   -2.5830 H   0  0  0  0  0  0  0  0  0  0  0  0
   -4.9100   -4.2990   -1.6300 H   0  0  0  0  0  0  0  0  0  0  0  0
   -4.4770   -3.7210   -0.0080 H   0  0  0  0  0  0  0  0  0  0  0  0
   -4.3370   -1.3450   -0.9730 H   0  0  0  0  0  0  0  0  0  0  0  0
   -5.9140   -2.1300   -1.2180 H   0  0  0  0  0  0  0  0  0  0  0  0
   -5.2500   -2.8830   -3.3380 H   0  0  0  0  0  0  0  0  0  0  0  0
   -5.3700   -1.2180   -3.1940 H   0  0  0  0  0  0  0  0  0  0  0  0
  1  2  1  0  0  0  0
  1  9  1  0  0  0  0
  1 10  1  0  0  0  0
  2 11  1  1  0  0  0
  3  2  1  0  0  0  0
  4 13  1  6  0  0  0
  4  5  1  0  0  0  0
  4  6  1  0  0  0  0
  4  2  1  0  0  0  0
  5 14  1  0  0  0  0
  6 16  1  0  0  0  0
  7  6  2  0  0  0  0
  8  1  1  0  0  0  0
 12  3  1  0  0  0  0
 15  5  1  0  0  0  0
 16 30  1  0  0  0  0
 16 17  1  0  0  0  0
 17 31  1  6  0  0  0
 17 18  1  0  0  0  0
 18 32  1  0  0  0  0
 18 33  1  0  0  0  0
 18 19  1  0  0  0  0
 19 27  1  0  0  0  0
 19 20  2  0  0  0  0
 20 21  1  0  0  0  0
 21 35  1  0  0  0  0
 22 21  1  0  0  0  0
 22 23  1  0  0  0  0
 23 36  1  0  0  0  0
 24 23  2  0  0  0  0
 24 37  1  0  0  0  0
 25 24  1  0  0  0  0
 26 27  1  0  0  0  0
 26 25  2  0  0  0  0
 27 22  2  0  0  0  0
 28 29  2  0  0  0  0
 28 17  1  0  0  0  0
 34 20  1  0  0  0  0
 38 25  1  0  0  0  0
 39 26  1  0  0  0  0
 40 28  1  0  0  0  0
 41 42  1  0  0  0  0
 41 51  1  1  0  0  0
 41 40  1  0  0  0  0
 42 52  1  0  0  0  0
 43 54  1  0  0  0  0
 43 44  1  0  0  0  0
 43 42  1  0  0  0  0
 44 57  1  0  0  0  0
 45 59  1  0  0  0  0
 45 44  1  0  0  0  0
 45 58  1  0  0  0  0
 46 45  1  0  0  0  0
 47 41  1  0  0  0  0
 48 47  2  0  0  0  0
 49 47  1  0  0  0  0
 50 40  1  0  0  0  0
 53 42  1  0  0  0  0
 55 43  1  0  0  0  0
 56 44  1  0  0  0  0
 60 46  1  0  0  0  0
 61 46  1  0  0  0  0
M  END
$$$$
