TWM.pdb
 OpenBabel07022419143D

 57 58  0  0  1  0  0  0  0  0999 V2000
    0.0130    0.8240    4.9690 C   0  0  0  0  0  0  0  0  0  0  0  0
    1.4210    0.7780    4.3990 C   0  0  1  0  0  0  0  0  0  0  0  0
    2.2770    0.8250    5.5210 O   0  0  0  0  0  0  0  0  0  0  0  0
    1.7040   -0.5040    3.6910 C   0  0  2  0  0  0  0  0  0  0  0  0
    3.0700   -0.5530    3.2760 N   0  0  0  0  0  0  0  0  0  0  0  0
    0.7880   -0.6680    2.5240 C   0  0  0  0  0  0  0  0  0  0  0  0
   -0.4570   -0.6300    2.6630 O   0  0  0  0  0  0  0  0  0  0  0  0
   -0.6440    1.5240    4.4210 H   0  0  0  0  0  0  0  0  0  0  0  0
   -0.3680   -0.2230    4.9600 H   0  0  0  0  0  0  0  0  0  0  0  0
   -0.0080    1.1440    6.0310 H   0  0  0  0  0  0  0  0  0  0  0  0
    1.6390    1.6360    3.7330 H   0  0  0  0  0  0  0  0  0  0  0  0
    2.0190    0.1310    6.1630 H   0  0  0  0  0  0  0  0  0  0  0  0
    1.5470   -1.3290    4.4350 H   0  0  0  0  0  0  0  0  0  0  0  0
    3.6980   -0.8800    4.0470 H   0  0  0  0  0  0  0  0  0  0  0  0
    3.4390    0.3850    2.9730 H   0  0  0  0  0  0  0  0  0  0  0  0
    1.3430   -0.8710    1.2330 N   0  0  0  0  0  0  0  0  0  0  0  0
    0.5320   -1.0410    0.0440 C   0  0  1  0  0  0  0  0  0  0  0  0
    0.8030    0.0700   -0.9600 C   0  0  0  0  0  0  0  0  0  0  0  0
    0.4920    1.4080   -0.3960 C   0  0  0  0  0  0  0  0  0  0  0  0
    1.3850    2.3700    0.0630 C   0  0  0  0  0  0  0  0  0  0  0  0
    0.6970    3.4430    0.4930 N   0  0  0  0  0  0  0  0  0  0  0  0
   -0.6230    3.2410    0.3420 C   0  0  0  0  0  0  0  0  0  0  0  0
   -1.7350    4.0320    0.6280 C   0  0  0  0  0  0  0  0  0  0  0  0
   -3.0020    3.5600    0.3610 C   0  0  0  0  0  0  0  0  0  0  0  0
   -3.1300    2.3000   -0.1890 C   0  0  0  0  0  0  0  0  0  0  0  0
   -2.0230    1.5010   -0.4790 C   0  0  0  0  0  0  0  0  0  0  0  0
   -0.7600    1.9830   -0.2090 C   0  0  0  0  0  0  0  0  0  0  0  0
    0.6730   -2.3640   -0.5520 C   0  0  0  0  0  0  0  0  0  0  0  0
    1.4220   -3.2090   -0.0080 O   0  0  0  0  0  0  0  0  0  0  0  0
    2.3960   -0.9050    1.1040 H   0  0  0  0  0  0  0  0  0  0  0  0
   -0.5150   -0.9180    0.3850 H   0  0  0  0  0  0  0  0  0  0  0  0
    0.1650   -0.0840   -1.8350 H   0  0  0  0  0  0  0  0  0  0  0  0
    1.8880    0.0650   -1.2080 H   0  0  0  0  0  0  0  0  0  0  0  0
    2.4590    2.2290    0.0540 H   0  0  0  0  0  0  0  0  0  0  0  0
    1.1090    4.3030    0.8850 H   0  0  0  0  0  0  0  0  0  0  0  0
   -1.6390    5.0170    1.0580 H   0  0  0  0  0  0  0  0  0  0  0  0
   -3.9060    4.1250    0.5600 H   0  0  0  0  0  0  0  0  0  0  0  0
   -4.1020    1.9170   -0.4030 H   0  0  0  0  0  0  0  0  0  0  0  0
   -2.1030    0.5290   -0.9030 H   0  0  0  0  0  0  0  0  0  0  0  0
   -2.6220   -2.9250   -0.3330 C   0  0  0  0  0  0  0  0  0  0  0  0
   -3.1440   -3.8520   -1.7510 S   0  0  0  0  0  0  0  0  0  0  0  0
   -2.1360   -5.1870   -2.2980 C   0  0  0  0  0  0  0  0  0  0  0  0
   -0.8670   -4.8250   -2.9590 C   0  0  0  0  0  0  0  0  0  0  0  0
    0.1980   -4.1050   -2.2830 C   0  0  2  0  0  0  0  0  0  0  0  0
    0.0010   -2.7950   -1.7580 N   0  0  0  0  0  0  0  0  0  0  0  0
    1.4310   -4.0220   -3.2030 C   0  0  0  0  0  0  0  0  0  0  0  0
    1.8290   -5.0500   -3.7870 O   0  0  0  0  0  0  0  0  0  0  0  0
    2.0660   -2.8360   -3.3670 O   0  0  0  0  0  0  0  0  0  0  0  0
   -1.8270   -3.4080    0.2680 H   0  0  0  0  0  0  0  0  0  0  0  0
   -2.3830   -1.8850   -0.6430 H   0  0  0  0  0  0  0  0  0  0  0  0
   -3.5210   -2.7730    0.3600 H   0  0  0  0  0  0  0  0  0  0  0  0
   -2.7330   -5.8140   -3.0430 H   0  0  0  0  0  0  0  0  0  0  0  0
   -1.9700   -5.9570   -1.4700 H   0  0  0  0  0  0  0  0  0  0  0  0
   -1.1550   -4.3320   -3.9510 H   0  0  0  0  0  0  0  0  0  0  0  0
   -0.4080   -5.8110   -3.3390 H   0  0  0  0  0  0  0  0  0  0  0  0
    0.6290   -4.7660   -1.4550 H   0  0  0  0  0  0  0  0  0  0  0  0
   -0.6330   -2.1220   -2.2480 H   0  0  0  0  0  0  0  0  0  0  0  0
  1 10  1  0  0  0  0
  2 11  1  6  0  0  0
  2  1  1  0  0  0  0
  2  3  1  0  0  0  0
  3 12  1  0  0  0  0
  4  2  1  0  0  0  0
  4 13  1  1  0  0  0
  5  4  1  0  0  0  0
  5 14  1  0  0  0  0
  6  7  2  0  0  0  0
  6  4  1  0  0  0  0
  8  1  1  0  0  0  0
  9  1  1  0  0  0  0
 15  5  1  0  0  0  0
 16  6  1  0  0  0  0
 17 31  1  1  0  0  0
 17 16  1  0  0  0  0
 18 19  1  0  0  0  0
 18 17  1  0  0  0  0
 19 27  1  0  0  0  0
 19 20  2  0  0  0  0
 20 21  1  0  0  0  0
 21 35  1  0  0  0  0
 22 21  1  0  0  0  0
 22 23  1  0  0  0  0
 23 36  1  0  0  0  0
 24 37  1  0  0  0  0
 24 23  2  0  0  0  0
 25 24  1  0  0  0  0
 26 27  1  0  0  0  0
 26 25  2  0  0  0  0
 27 22  2  0  0  0  0
 28 29  2  0  0  0  0
 28 17  1  0  0  0  0
 30 16  1  0  0  0  0
 32 18  1  0  0  0  0
 33 18  1  0  0  0  0
 34 20  1  0  0  0  0
 38 25  1  0  0  0  0
 39 26  1  0  0  0  0
 40 49  1  0  0  0  0
 40 51  1  0  0  0  0
 41 40  1  0  0  0  0
 42 41  1  0  0  0  0
 42 53  1  0  0  0  0
 43 42  1  0  0  0  0
 43 44  1  0  0  0  0
 44 45  1  0  0  0  0
 44 56  1  1  0  0  0
 45 28  1  0  0  0  0
 46 44  1  0  0  0  0
 47 46  2  0  0  0  0
 48 46  1  0  0  0  0
 50 40  1  0  0  0  0
 52 42  1  0  0  0  0
 54 43  1  0  0  0  0
 55 43  1  0  0  0  0
 57 45  1  0  0  0  0
M  END
$$$$
