TWN.pdb
 OpenBabel07022419143D

 54 55  0  0  1  0  0  0  0  0999 V2000
    2.6960    3.0920    1.3450 C   0  0  0  0  0  0  0  0  0  0  0  0
    3.4420    1.8320    1.5740 C   0  0  1  0  0  0  0  0  0  0  0  0
    3.2190    1.3970    2.8810 O   0  0  0  0  0  0  0  0  0  0  0  0
    3.2020    0.7320    0.5760 C   0  0  2  0  0  0  0  0  0  0  0  0
    3.4290    1.2400   -0.7580 N   0  0  0  0  0  0  0  0  0  0  0  0
    1.9580   -0.0100    0.7470 C   0  0  0  0  0  0  0  0  0  0  0  0
    1.5990   -0.5350    1.8330 O   0  0  0  0  0  0  0  0  0  0  0  0
    2.6630    3.4170    0.2850 H   0  0  0  0  0  0  0  0  0  0  0  0
    1.7100    3.0860    1.8230 H   0  0  0  0  0  0  0  0  0  0  0  0
    3.2640    3.9200    1.8680 H   0  0  0  0  0  0  0  0  0  0  0  0
    4.5440    2.0930    1.5510 H   0  0  0  0  0  0  0  0  0  0  0  0
    2.2530    1.5640    3.1190 H   0  0  0  0  0  0  0  0  0  0  0  0
    4.0650    0.0070    0.7430 H   0  0  0  0  0  0  0  0  0  0  0  0
    4.3670    1.6910   -0.7620 H   0  0  0  0  0  0  0  0  0  0  0  0
    2.7350    1.9170   -1.0850 H   0  0  0  0  0  0  0  0  0  0  0  0
    1.0770   -0.1670   -0.3610 N   0  0  0  0  0  0  0  0  0  0  0  0
   -0.1740   -0.8990   -0.2740 C   0  0  1  0  0  0  0  0  0  0  0  0
   -1.2930    0.0550   -0.4780 C   0  0  0  0  0  0  0  0  0  0  0  0
   -1.2860    1.1160    0.5640 C   0  0  0  0  0  0  0  0  0  0  0  0
   -0.8870    2.4330    0.4730 C   0  0  0  0  0  0  0  0  0  0  0  0
   -1.0590    3.0290    1.6720 N   0  0  0  0  0  0  0  0  0  0  0  0
   -1.5610    2.1610    2.5720 C   0  0  0  0  0  0  0  0  0  0  0  0
   -1.9020    2.2980    3.9050 C   0  0  0  0  0  0  0  0  0  0  0  0
   -2.4070    1.2210    4.6040 C   0  0  0  0  0  0  0  0  0  0  0  0
   -2.5510    0.0300    3.9280 C   0  0  0  0  0  0  0  0  0  0  0  0
   -2.2040   -0.0890    2.5900 C   0  0  0  0  0  0  0  0  0  0  0  0
   -1.7050    0.9710    1.8930 C   0  0  0  0  0  0  0  0  0  0  0  0
   -0.1990   -2.0830   -1.1170 C   0  0  0  0  0  0  0  0  0  0  0  0
    0.7800   -2.3390   -1.8480 O   0  0  0  0  0  0  0  0  0  0  0  0
    1.2860    0.2400   -1.3110 H   0  0  0  0  0  0  0  0  0  0  0  0
   -0.2430   -1.2650    0.7950 H   0  0  0  0  0  0  0  0  0  0  0  0
   -2.2900   -0.4030   -0.5410 H   0  0  0  0  0  0  0  0  0  0  0  0
   -1.1440    0.6050   -1.4560 H   0  0  0  0  0  0  0  0  0  0  0  0
   -0.4960    2.9010   -0.4280 H   0  0  0  0  0  0  0  0  0  0  0  0
   -0.8440    4.0260    1.9120 H   0  0  0  0  0  0  0  0  0  0  0  0
   -1.7920    3.2260    4.4410 H   0  0  0  0  0  0  0  0  0  0  0  0
   -2.6850    1.3060    5.6640 H   0  0  0  0  0  0  0  0  0  0  0  0
   -2.9520   -0.8250    4.4770 H   0  0  0  0  0  0  0  0  0  0  0  0
   -2.3190   -1.0330    2.0590 H   0  0  0  0  0  0  0  0  0  0  0  0
    0.9020   -6.3520   -0.6430 N   0  0  0  0  0  0  0  0  0  0  0  0
   -0.1610   -5.5100   -0.2770 C   0  0  0  0  0  0  0  0  0  0  0  0
   -0.0830   -4.8390    0.7750 O   0  0  0  0  0  0  0  0  0  0  0  0
   -1.3660   -5.4080   -1.1180 C   0  0  0  0  0  0  0  0  0  0  0  0
   -1.3550   -4.1510   -1.9720 C   0  0  2  0  0  0  0  0  0  0  0  0
   -1.3000   -2.9580   -1.1330 N   0  0  0  0  0  0  0  0  0  0  0  0
   -2.5640   -4.1490   -2.8320 C   0  0  0  0  0  0  0  0  0  0  0  0
   -2.8260   -5.0610   -3.6290 O   0  0  0  0  0  0  0  0  0  0  0  0
   -3.4790   -3.0820   -2.7700 O   0  0  0  0  0  0  0  0  0  0  0  0
    1.8110   -6.3320   -0.1150 H   0  0  0  0  0  0  0  0  0  0  0  0
    0.8710   -7.0320   -1.4310 H   0  0  0  0  0  0  0  0  0  0  0  0
   -2.2880   -5.4530   -0.5020 H   0  0  0  0  0  0  0  0  0  0  0  0
   -1.3910   -6.2920   -1.7930 H   0  0  0  0  0  0  0  0  0  0  0  0
   -0.4770   -4.2310   -2.6170 H   0  0  0  0  0  0  0  0  0  0  0  0
   -2.1520   -2.7900   -0.5320 H   0  0  0  0  0  0  0  0  0  0  0  0
  1  2  1  0  0  0  0
  1  9  1  0  0  0  0
  1 10  1  0  0  0  0
  2 11  1  6  0  0  0
  2  3  1  0  0  0  0
  3 12  1  0  0  0  0
  4 13  1  1  0  0  0
  4  6  1  0  0  0  0
  4  2  1  0  0  0  0
  5  4  1  0  0  0  0
  6  7  2  0  0  0  0
  8  1  1  0  0  0  0
 14  5  1  0  0  0  0
 15  5  1  0  0  0  0
 16 17  1  0  0  0  0
 16  6  1  0  0  0  0
 17 31  1  1  0  0  0
 18 17  1  0  0  0  0
 18 19  1  0  0  0  0
 19 27  1  0  0  0  0
 20 19  2  0  0  0  0
 20 21  1  0  0  0  0
 21 35  1  0  0  0  0
 21 22  1  0  0  0  0
 22 23  1  0  0  0  0
 23 36  1  0  0  0  0
 23 24  2  0  0  0  0
 24 37  1  0  0  0  0
 25 38  1  0  0  0  0
 25 24  1  0  0  0  0
 26 25  2  0  0  0  0
 27 22  2  0  0  0  0
 27 26  1  0  0  0  0
 28 17  1  0  0  0  0
 29 28  2  0  0  0  0
 30 16  1  0  0  0  0
 32 18  1  0  0  0  0
 33 18  1  0  0  0  0
 34 20  1  0  0  0  0
 39 26  1  0  0  0  0
 40 41  1  0  0  0  0
 40 49  1  0  0  0  0
 41 42  2  0  0  0  0
 43 51  1  0  0  0  0
 43 41  1  0  0  0  0
 44 53  1  6  0  0  0
 44 45  1  0  0  0  0
 44 43  1  0  0  0  0
 45 28  1  0  0  0  0
 45 54  1  0  0  0  0
 46 48  1  0  0  0  0
 46 44  1  0  0  0  0
 47 46  2  0  0  0  0
 50 40  1  0  0  0  0
 52 43  1  0  0  0  0
M  END
$$$$
