TWP.pdb
 OpenBabel07022419143D

 54 56  0  0  1  0  0  0  0  0999 V2000
   -0.7780   -1.0860    4.4130 C   0  0  0  0  0  0  0  0  0  0  0  0
    0.6140   -1.3770    3.8970 C   0  0  1  0  0  0  0  0  0  0  0  0
    1.3630   -2.0910    4.8400 O   0  0  0  0  0  0  0  0  0  0  0  0
    0.5300   -2.1540    2.5860 C   0  0  2  0  0  0  0  0  0  0  0  0
    1.8610   -2.3780    2.0470 N   0  0  0  0  0  0  0  0  0  0  0  0
   -0.3210   -1.3970    1.6400 C   0  0  0  0  0  0  0  0  0  0  0  0
   -1.4920   -1.1250    1.9480 O   0  0  0  0  0  0  0  0  0  0  0  0
   -1.5050   -1.8900    4.1560 H   0  0  0  0  0  0  0  0  0  0  0  0
   -1.1260   -0.1130    4.0210 H   0  0  0  0  0  0  0  0  0  0  0  0
   -0.6920   -1.0380    5.5300 H   0  0  0  0  0  0  0  0  0  0  0  0
    1.1200   -0.4290    3.7000 H   0  0  0  0  0  0  0  0  0  0  0  0
    1.4490   -3.0280    4.4910 H   0  0  0  0  0  0  0  0  0  0  0  0
    0.1090   -3.1630    2.8150 H   0  0  0  0  0  0  0  0  0  0  0  0
    2.5700   -2.2630    2.7810 H   0  0  0  0  0  0  0  0  0  0  0  0
    1.8730   -3.2900    1.5560 H   0  0  0  0  0  0  0  0  0  0  0  0
    0.2030   -0.9850    0.3810 N   0  0  0  0  0  0  0  0  0  0  0  0
   -0.5530   -0.2510   -0.5890 C   0  0  1  0  0  0  0  0  0  0  0  0
    0.0870    1.1040   -0.8750 C   0  0  0  0  0  0  0  0  0  0  0  0
    0.1810    1.9490    0.3290 C   0  0  0  0  0  0  0  0  0  0  0  0
    1.3230    2.1900    1.0580 C   0  0  0  0  0  0  0  0  0  0  0  0
    0.9970    3.0010    2.0720 N   0  0  0  0  0  0  0  0  0  0  0  0
   -0.3090    3.3190    2.0610 C   0  0  0  0  0  0  0  0  0  0  0  0
   -1.0790    4.1070    2.8870 C   0  0  0  0  0  0  0  0  0  0  0  0
   -2.4280    4.2280    2.5890 C   0  0  0  0  0  0  0  0  0  0  0  0
   -2.9610    3.5660    1.4850 C   0  0  0  0  0  0  0  0  0  0  0  0
   -2.1780    2.7800    0.6670 C   0  0  0  0  0  0  0  0  0  0  0  0
   -0.8310    2.6500    0.9520 C   0  0  0  0  0  0  0  0  0  0  0  0
   -0.6590   -0.9430   -1.8760 C   0  0  0  0  0  0  0  0  0  0  0  0
   -1.2690   -0.2440   -2.7950 O   0  0  0  0  0  0  0  0  0  0  0  0
    1.2200   -1.2420    0.2000 H   0  0  0  0  0  0  0  0  0  0  0  0
   -1.5720   -0.0950   -0.1280 H   0  0  0  0  0  0  0  0  0  0  0  0
   -0.4240    1.6040   -1.7230 H   0  0  0  0  0  0  0  0  0  0  0  0
    1.1160    0.8670   -1.2470 H   0  0  0  0  0  0  0  0  0  0  0  0
    2.3250    1.8190    0.8920 H   0  0  0  0  0  0  0  0  0  0  0  0
    1.6590    3.3640    2.8040 H   0  0  0  0  0  0  0  0  0  0  0  0
   -0.6350    4.6160    3.7470 H   0  0  0  0  0  0  0  0  0  0  0  0
   -3.0210    4.8490    3.2440 H   0  0  0  0  0  0  0  0  0  0  0  0
   -4.0110    3.6650    1.2600 H   0  0  0  0  0  0  0  0  0  0  0  0
   -2.6380    2.2870   -0.1770 H   0  0  0  0  0  0  0  0  0  0  0  0
   -0.2210   -2.2020   -2.2780 N   0  0  0  0  0  0  0  0  0  0  0  0
   -0.3760   -2.7210   -3.6470 C   0  0  0  0  0  0  0  0  0  0  0  0
   -0.9510   -4.0890   -3.3510 C   0  0  0  0  0  0  0  0  0  0  0  0
   -0.1400   -4.5230   -2.1340 C   0  0  0  0  0  0  0  0  0  0  0  0
    0.4210   -3.2260   -1.5310 C   0  0  1  0  0  0  0  0  0  0  0  0
    1.8970   -3.2370   -1.7830 C   0  0  0  0  0  0  0  0  0  0  0  0
    2.5670   -4.1010   -1.1760 O   0  0  0  0  0  0  0  0  0  0  0  0
    2.5350   -2.3670   -2.6290 O   0  0  0  0  0  0  0  0  0  0  0  0
    0.5720   -2.7730   -4.1810 H   0  0  0  0  0  0  0  0  0  0  0  0
   -1.1620   -2.1570   -4.1890 H   0  0  0  0  0  0  0  0  0  0  0  0
   -2.0020   -4.0150   -3.0360 H   0  0  0  0  0  0  0  0  0  0  0  0
   -0.7960   -4.7660   -4.2110 H   0  0  0  0  0  0  0  0  0  0  0  0
    0.6900   -5.1970   -2.4350 H   0  0  0  0  0  0  0  0  0  0  0  0
   -0.7760   -4.9970   -1.3750 H   0  0  0  0  0  0  0  0  0  0  0  0
    0.2130   -3.2260   -0.4380 H   0  0  0  0  0  0  0  0  0  0  0  0
  1 10  1  0  0  0  0
  2 11  1  6  0  0  0
  2  1  1  0  0  0  0
  2  3  1  0  0  0  0
  4 13  1  1  0  0  0
  4  2  1  0  0  0  0
  5  4  1  0  0  0  0
  5 14  1  0  0  0  0
  6  7  2  0  0  0  0
  6  4  1  0  0  0  0
  8  1  1  0  0  0  0
  9  1  1  0  0  0  0
 12  3  1  0  0  0  0
 15  5  1  0  0  0  0
 16  6  1  0  0  0  0
 17 31  1  1  0  0  0
 17 16  1  0  0  0  0
 18 17  1  0  0  0  0
 18 19  1  0  0  0  0
 19 27  1  0  0  0  0
 19 20  2  0  0  0  0
 20 21  1  0  0  0  0
 21 35  1  0  0  0  0
 22 21  1  0  0  0  0
 22 23  1  0  0  0  0
 23 36  1  0  0  0  0
 24 23  2  0  0  0  0
 24 37  1  0  0  0  0
 25 24  1  0  0  0  0
 26 27  1  0  0  0  0
 26 25  2  0  0  0  0
 27 22  2  0  0  0  0
 28 17  1  0  0  0  0
 29 28  2  0  0  0  0
 30 16  1  0  0  0  0
 32 18  1  0  0  0  0
 33 18  1  0  0  0  0
 34 20  1  0  0  0  0
 38 25  1  0  0  0  0
 39 26  1  0  0  0  0
 40 28  1  0  0  0  0
 40 44  1  0  0  0  0
 41 42  1  0  0  0  0
 41 40  1  0  0  0  0
 42 50  1  0  0  0  0
 42 43  1  0  0  0  0
 43 44  1  0  0  0  0
 43 53  1  0  0  0  0
 44 54  1  1  0  0  0
 45 44  1  0  0  0  0
 45 46  1  0  0  0  0
 47 45  2  0  0  0  0
 48 41  1  0  0  0  0
 49 41  1  0  0  0  0
 51 42  1  0  0  0  0
 52 43  1  0  0  0  0
M  END
$$$$
