TWQ.pdb
 OpenBabel07022419143D

 57 58  0  0  1  0  0  0  0  0999 V2000
    4.4780    0.4070    2.1620 C   0  0  0  0  0  0  0  0  0  0  0  0
    3.6480   -0.4280    3.1350 C   0  0  1  0  0  0  0  0  0  0  0  0
    2.4520    0.1770    3.4260 O   0  0  0  0  0  0  0  0  0  0  0  0
    3.4810   -1.7870    2.5060 C   0  0  2  0  0  0  0  0  0  0  0  0
    4.7960   -2.3500    2.2440 N   0  0  0  0  0  0  0  0  0  0  0  0
    2.6760   -1.7150    1.2500 C   0  0  0  0  0  0  0  0  0  0  0  0
    3.1370   -2.0690    0.1320 O   0  0  0  0  0  0  0  0  0  0  0  0
    4.5620   -0.0990    1.1790 H   0  0  0  0  0  0  0  0  0  0  0  0
    4.0070    1.4110    2.0760 H   0  0  0  0  0  0  0  0  0  0  0  0
    5.4920    0.5270    2.5440 H   0  0  0  0  0  0  0  0  0  0  0  0
    4.2610   -0.5800    4.0630 H   0  0  0  0  0  0  0  0  0  0  0  0
    2.4780    0.6010    4.3050 H   0  0  0  0  0  0  0  0  0  0  0  0
    2.9490   -2.4350    3.2260 H   0  0  0  0  0  0  0  0  0  0  0  0
    5.1800   -2.0630    1.3210 H   0  0  0  0  0  0  0  0  0  0  0  0
    5.4290   -2.0130    3.0200 H   0  0  0  0  0  0  0  0  0  0  0  0
    1.3630   -1.2470    1.2580 N   0  0  0  0  0  0  0  0  0  0  0  0
    0.4810   -1.1280    0.1210 C   0  0  1  0  0  0  0  0  0  0  0  0
   -0.7320   -1.9590    0.3960 C   0  0  0  0  0  0  0  0  0  0  0  0
   -1.4900   -1.5730    1.5960 C   0  0  0  0  0  0  0  0  0  0  0  0
   -1.5390   -0.4040    2.3050 C   0  0  0  0  0  0  0  0  0  0  0  0
   -2.3830   -0.4980    3.3580 N   0  0  0  0  0  0  0  0  0  0  0  0
   -2.8850   -1.7390    3.3280 C   0  0  0  0  0  0  0  0  0  0  0  0
   -3.8030   -2.3420    4.1940 C   0  0  0  0  0  0  0  0  0  0  0  0
   -4.1820   -3.6390    3.9690 C   0  0  0  0  0  0  0  0  0  0  0  0
   -3.6530   -4.3120    2.9070 C   0  0  0  0  0  0  0  0  0  0  0  0
   -2.7510   -3.7350    2.0480 C   0  0  0  0  0  0  0  0  0  0  0  0
   -2.3590   -2.4330    2.2570 C   0  0  0  0  0  0  0  0  0  0  0  0
    0.2560    0.2170   -0.3550 C   0  0  0  0  0  0  0  0  0  0  0  0
    0.8140    1.1970    0.1740 O   0  0  0  0  0  0  0  0  0  0  0  0
    0.9240   -0.9460    2.1570 H   0  0  0  0  0  0  0  0  0  0  0  0
    1.0460   -1.6560   -0.7130 H   0  0  0  0  0  0  0  0  0  0  0  0
   -1.3980   -2.0780   -0.4980 H   0  0  0  0  0  0  0  0  0  0  0  0
   -0.3550   -3.0100    0.5800 H   0  0  0  0  0  0  0  0  0  0  0  0
   -0.9960    0.4860    2.0850 H   0  0  0  0  0  0  0  0  0  0  0  0
   -2.6170    0.2310    4.0660 H   0  0  0  0  0  0  0  0  0  0  0  0
   -4.2010   -1.7910    5.0190 H   0  0  0  0  0  0  0  0  0  0  0  0
   -4.8960   -4.1180    4.6360 H   0  0  0  0  0  0  0  0  0  0  0  0
   -3.9550   -5.3400    2.7300 H   0  0  0  0  0  0  0  0  0  0  0  0
   -2.3350   -4.2880    1.1980 H   0  0  0  0  0  0  0  0  0  0  0  0
   -0.7350   -1.1130   -5.3390 N   0  0  0  0  0  0  0  0  0  0  0  0
   -0.1080   -0.1590   -4.4630 C   0  0  0  0  0  0  0  0  0  0  0  0
    0.8090   -0.6380   -3.7220 O   0  0  0  0  0  0  0  0  0  0  0  0
   -0.5280    1.2340   -4.4710 C   0  0  0  0  0  0  0  0  0  0  0  0
   -0.2740    2.0630   -3.2890 C   0  0  0  0  0  0  0  0  0  0  0  0
   -0.9120    1.7300   -2.0000 C   0  0  2  0  0  0  0  0  0  0  0  0
   -0.6180    0.4310   -1.4480 N   0  0  0  0  0  0  0  0  0  0  0  0
   -2.3520    2.0490   -1.9290 C   0  0  0  0  0  0  0  0  0  0  0  0
   -2.8850    3.0850   -2.3290 O   0  0  0  0  0  0  0  0  0  0  0  0
   -3.2040    1.0900   -1.3530 O   0  0  0  0  0  0  0  0  0  0  0  0
   -1.7800   -1.1400   -5.4570 H   0  0  0  0  0  0  0  0  0  0  0  0
   -0.1850   -1.8060   -5.8800 H   0  0  0  0  0  0  0  0  0  0  0  0
    0.0110    1.7210   -5.3450 H   0  0  0  0  0  0  0  0  0  0  0  0
   -1.5890    1.2470   -4.8230 H   0  0  0  0  0  0  0  0  0  0  0  0
    0.8410    2.0980   -3.1110 H   0  0  0  0  0  0  0  0  0  0  0  0
   -0.5260    3.1190   -3.5430 H   0  0  0  0  0  0  0  0  0  0  0  0
   -0.4330    2.4550   -1.2600 H   0  0  0  0  0  0  0  0  0  0  0  0
   -1.1320   -0.3780   -1.9200 H   0  0  0  0  0  0  0  0  0  0  0  0
  1 10  1  0  0  0  0
  1  2  1  0  0  0  0
  2  3  1  0  0  0  0
  2 11  1  1  0  0  0
  3 12  1  0  0  0  0
  4  2  1  0  0  0  0
  4 13  1  1  0  0  0
  5  4  1  0  0  0  0
  5 15  1  0  0  0  0
  6 16  1  0  0  0  0
  6  4  1  0  0  0  0
  7  6  2  0  0  0  0
  8  1  1  0  0  0  0
  9  1  1  0  0  0  0
 14  5  1  0  0  0  0
 16 30  1  0  0  0  0
 17 31  1  6  0  0  0
 17 18  1  0  0  0  0
 17 16  1  0  0  0  0
 18 33  1  0  0  0  0
 18 19  1  0  0  0  0
 19 27  1  0  0  0  0
 19 20  2  0  0  0  0
 20 21  1  0  0  0  0
 21 35  1  0  0  0  0
 22 21  1  0  0  0  0
 22 23  1  0  0  0  0
 23 36  1  0  0  0  0
 24 23  2  0  0  0  0
 24 37  1  0  0  0  0
 25 24  1  0  0  0  0
 26 27  1  0  0  0  0
 26 25  2  0  0  0  0
 27 22  2  0  0  0  0
 28 17  1  0  0  0  0
 28 29  2  0  0  0  0
 32 18  1  0  0  0  0
 34 20  1  0  0  0  0
 38 25  1  0  0  0  0
 39 26  1  0  0  0  0
 40 41  1  0  0  0  0
 41 42  2  0  0  0  0
 43 41  1  0  0  0  0
 43 44  1  0  0  0  0
 44 54  1  0  0  0  0
 44 45  1  0  0  0  0
 45 47  1  0  0  0  0
 45 46  1  0  0  0  0
 45 56  1  1  0  0  0
 46 28  1  0  0  0  0
 47 49  1  0  0  0  0
 48 47  2  0  0  0  0
 50 40  1  0  0  0  0
 51 40  1  0  0  0  0
 52 43  1  0  0  0  0
 53 43  1  0  0  0  0
 55 44  1  0  0  0  0
 57 46  1  0  0  0  0
M  END
$$$$
