TWR.pdb
 OpenBabel07022419143D

 63 64  0  0  1  0  0  0  0  0999 V2000
    2.6840    0.4850    5.1550 C   0  0  0  0  0  0  0  0  0  0  0  0
    3.7880    0.9130    4.2480 C   0  0  1  0  0  0  0  0  0  0  0  0
    4.3050   -0.2100    3.6080 O   0  0  0  0  0  0  0  0  0  0  0  0
    3.3230    1.8590    3.1610 C   0  0  2  0  0  0  0  0  0  0  0  0
    2.7610    3.0670    3.6720 N   0  0  0  0  0  0  0  0  0  0  0  0
    2.4300    1.1620    2.1910 C   0  0  0  0  0  0  0  0  0  0  0  0
    2.8270    0.0900    1.6730 O   0  0  0  0  0  0  0  0  0  0  0  0
    1.6910    0.4900    4.6860 H   0  0  0  0  0  0  0  0  0  0  0  0
    2.6870    1.0510    6.1310 H   0  0  0  0  0  0  0  0  0  0  0  0
    2.8760   -0.5740    5.4550 H   0  0  0  0  0  0  0  0  0  0  0  0
    4.5710    1.3860    4.8780 H   0  0  0  0  0  0  0  0  0  0  0  0
    4.0320   -1.0070    4.0910 H   0  0  0  0  0  0  0  0  0  0  0  0
    4.2500    2.1350    2.5820 H   0  0  0  0  0  0  0  0  0  0  0  0
    2.6970    3.1140    4.7110 H   0  0  0  0  0  0  0  0  0  0  0  0
    3.2570    3.9360    3.3420 H   0  0  0  0  0  0  0  0  0  0  0  0
    1.1590    1.6620    1.8340 N   0  0  0  0  0  0  0  0  0  0  0  0
    0.2760    0.9470    0.8650 C   0  0  1  0  0  0  0  0  0  0  0  0
    0.7680    1.3010   -0.4520 C   0  0  0  0  0  0  0  0  0  0  0  0
    0.1580    0.8020   -1.6720 C   0  0  0  0  0  0  0  0  0  0  0  0
   -0.8590    1.4140   -2.4110 C   0  0  0  0  0  0  0  0  0  0  0  0
   -1.1740    0.6370   -3.4540 N   0  0  0  0  0  0  0  0  0  0  0  0
   -0.4040   -0.4610   -3.4280 C   0  0  0  0  0  0  0  0  0  0  0  0
   -0.3110   -1.5630   -4.2690 C   0  0  0  0  0  0  0  0  0  0  0  0
    0.5980   -2.5760   -4.0290 C   0  0  0  0  0  0  0  0  0  0  0  0
    1.4240   -2.4890   -2.9400 C   0  0  0  0  0  0  0  0  0  0  0  0
    1.3090   -1.3820   -2.1210 C   0  0  0  0  0  0  0  0  0  0  0  0
    0.4190   -0.3640   -2.3320 C   0  0  0  0  0  0  0  0  0  0  0  0
    0.0110   -0.3700    1.3470 C   0  0  0  0  0  0  0  0  0  0  0  0
    0.5130   -0.6790    2.4970 O   0  0  0  0  0  0  0  0  0  0  0  0
    0.8690    2.5540    2.2790 H   0  0  0  0  0  0  0  0  0  0  0  0
   -0.7210    1.5200    1.0120 H   0  0  0  0  0  0  0  0  0  0  0  0
    1.8920    1.1540   -0.5370 H   0  0  0  0  0  0  0  0  0  0  0  0
    0.7000    2.4460   -0.5310 H   0  0  0  0  0  0  0  0  0  0  0  0
   -1.2960    2.3680   -2.1480 H   0  0  0  0  0  0  0  0  0  0  0  0
   -1.8940    0.7970   -4.2060 H   0  0  0  0  0  0  0  0  0  0  0  0
   -0.9550   -1.6470   -5.1320 H   0  0  0  0  0  0  0  0  0  0  0  0
    0.7000   -3.4480   -4.6600 H   0  0  0  0  0  0  0  0  0  0  0  0
    2.1560   -3.2540   -2.7050 H   0  0  0  0  0  0  0  0  0  0  0  0
    1.9890   -1.3480   -1.2560 H   0  0  0  0  0  0  0  0  0  0  0  0
   -4.7310    0.9430   -0.5920 N   0  0  0  0  0  0  0  0  0  0  0  0
   -4.4660   -0.3490   -1.1340 C   0  0  0  0  0  0  0  0  0  0  0  0
   -4.5550   -0.5530   -2.4250 N   0  0  0  0  0  0  0  0  0  0  0  0
   -4.1130   -1.3780   -0.2350 N   0  0  0  0  0  0  0  0  0  0  0  0
   -3.4070   -2.5290   -0.7070 C   0  0  0  0  0  0  0  0  0  0  0  0
   -3.0960   -3.5370    0.3210 C   0  0  0  0  0  0  0  0  0  0  0  0
   -2.3310   -3.2140    1.5180 C   0  0  0  0  0  0  0  0  0  0  0  0
   -0.9370   -2.6980    1.4330 C   0  0  2  0  0  0  0  0  0  0  0  0
   -0.7400   -1.4410    0.7720 N   0  0  0  0  0  0  0  0  0  0  0  0
    0.0100   -3.7770    0.9750 C   0  0  0  0  0  0  0  0  0  0  0  0
   -0.1040   -4.9530    1.4650 O   0  0  0  0  0  0  0  0  0  0  0  0
    1.0110   -3.6160    0.0580 O   0  0  0  0  0  0  0  0  0  0  0  0
   -4.5340    1.7710   -1.1830 H   0  0  0  0  0  0  0  0  0  0  0  0
   -5.1060    1.0350    0.3610 H   0  0  0  0  0  0  0  0  0  0  0  0
   -4.3500   -1.5140   -2.7570 H   0  0  0  0  0  0  0  0  0  0  0  0
   -4.3650   -1.2980    0.7640 H   0  0  0  0  0  0  0  0  0  0  0  0
   -2.6200   -2.2290   -1.4070 H   0  0  0  0  0  0  0  0  0  0  0  0
   -4.1290   -3.0970   -1.4440 H   0  0  0  0  0  0  0  0  0  0  0  0
   -2.6270   -4.4470   -0.2030 H   0  0  0  0  0  0  0  0  0  0  0  0
   -4.1000   -4.0000    0.6360 H   0  0  0  0  0  0  0  0  0  0  0  0
   -2.9200   -2.5380    2.2260 H   0  0  0  0  0  0  0  0  0  0  0  0
   -2.2730   -4.1650    2.1610 H   0  0  0  0  0  0  0  0  0  0  0  0
   -0.5580   -2.5150    2.5100 H   0  0  0  0  0  0  0  0  0  0  0  0
   -1.1350   -1.2440   -0.1530 H   0  0  0  0  0  0  0  0  0  0  0  0
  1 10  1  0  0  0  0
  1  9  1  0  0  0  0
  2 11  1  1  0  0  0
  2  1  1  0  0  0  0
  3 12  1  0  0  0  0
  3  2  1  0  0  0  0
  4 13  1  6  0  0  0
  4  5  1  0  0  0  0
  4  2  1  0  0  0  0
  5 14  1  0  0  0  0
  6  4  1  0  0  0  0
  7  6  2  0  0  0  0
  8  1  1  0  0  0  0
 15  5  1  0  0  0  0
 16  6  1  0  0  0  0
 16 30  1  0  0  0  0
 17 31  1  1  0  0  0
 17 28  1  0  0  0  0
 17 16  1  0  0  0  0
 18 17  1  0  0  0  0
 19 18  1  0  0  0  0
 20 34  1  0  0  0  0
 20 19  2  0  0  0  0
 21 22  1  0  0  0  0
 21 20  1  0  0  0  0
 22 27  1  0  0  0  0
 23 24  1  0  0  0  0
 23 22  2  0  0  0  0
 24 25  2  0  0  0  0
 25 38  1  0  0  0  0
 25 26  1  0  0  0  0
 26 39  1  0  0  0  0
 27 26  2  0  0  0  0
 27 19  1  0  0  0  0
 28 29  2  0  0  0  0
 32 18  1  0  0  0  0
 33 18  1  0  0  0  0
 35 21  1  0  0  0  0
 36 23  1  0  0  0  0
 37 24  1  0  0  0  0
 40 53  1  0  0  0  0
 41 40  1  0  0  0  0
 41 43  1  0  0  0  0
 42 41  2  0  0  0  0
 43 55  1  0  0  0  0
 44 43  1  0  0  0  0
 44 45  1  0  0  0  0
 45 59  1  0  0  0  0
 45 46  1  0  0  0  0
 46 61  1  0  0  0  0
 46 60  1  0  0  0  0
 47 46  1  0  0  0  0
 47 62  1  1  0  0  0
 48 28  1  0  0  0  0
 48 47  1  0  0  0  0
 49 47  1  0  0  0  0
 49 50  1  0  0  0  0
 51 49  2  0  0  0  0
 52 40  1  0  0  0  0
 54 42  1  0  0  0  0
 56 44  1  0  0  0  0
 57 44  1  0  0  0  0
 58 45  1  0  0  0  0
 63 48  1  0  0  0  0
M  END
$$$$
