TWS.pdb
 OpenBabel07022419143D

 51 52  0  0  1  0  0  0  0  0999 V2000
    2.4640   -4.4990    0.6080 C   0  0  0  0  0  0  0  0  0  0  0  0
    3.0600   -3.6370   -0.5080 C   0  0  1  0  0  0  0  0  0  0  0  0
    2.0280   -3.2020   -1.3130 O   0  0  0  0  0  0  0  0  0  0  0  0
    3.7830   -2.4690    0.1130 C   0  0  2  0  0  0  0  0  0  0  0  0
    4.8840   -2.9680    0.9450 N   0  0  0  0  0  0  0  0  0  0  0  0
    2.8330   -1.7340    0.9840 C   0  0  0  0  0  0  0  0  0  0  0  0
    2.9880   -1.7330    2.2390 O   0  0  0  0  0  0  0  0  0  0  0  0
    1.6270   -3.9610    1.0680 H   0  0  0  0  0  0  0  0  0  0  0  0
    3.2410   -4.7770    1.3340 H   0  0  0  0  0  0  0  0  0  0  0  0
    2.0700   -5.4280    0.1220 H   0  0  0  0  0  0  0  0  0  0  0  0
    3.7720   -4.2880   -1.0840 H   0  0  0  0  0  0  0  0  0  0  0  0
    2.3160   -3.1670   -2.2390 H   0  0  0  0  0  0  0  0  0  0  0  0
    4.2250   -1.8650   -0.6790 H   0  0  0  0  0  0  0  0  0  0  0  0
    5.6250   -3.2630    0.2720 H   0  0  0  0  0  0  0  0  0  0  0  0
    5.2550   -2.1470    1.4500 H   0  0  0  0  0  0  0  0  0  0  0  0
    1.7540   -1.0310    0.4110 N   0  0  0  0  0  0  0  0  0  0  0  0
    0.7710   -0.2720    1.1920 C   0  0  1  0  0  0  0  0  0  0  0  0
    1.0850    1.1730    0.9980 C   0  0  0  0  0  0  0  0  0  0  0  0
    0.1710    2.0840    1.6920 C   0  0  0  0  0  0  0  0  0  0  0  0
    0.3790    2.6450    2.9590 C   0  0  0  0  0  0  0  0  0  0  0  0
   -0.6660    3.3960    3.2820 N   0  0  0  0  0  0  0  0  0  0  0  0
   -1.5580    3.3560    2.2780 C   0  0  0  0  0  0  0  0  0  0  0  0
   -2.7970    3.9820    2.1320 C   0  0  0  0  0  0  0  0  0  0  0  0
   -3.5280    3.7930    0.9830 C   0  0  0  0  0  0  0  0  0  0  0  0
   -3.0240    2.9860   -0.0100 C   0  0  0  0  0  0  0  0  0  0  0  0
   -1.8090    2.3700    0.1300 C   0  0  0  0  0  0  0  0  0  0  0  0
   -1.0570    2.5490    1.2840 C   0  0  0  0  0  0  0  0  0  0  0  0
   -0.5940   -0.7110    1.0710 C   0  0  0  0  0  0  0  0  0  0  0  0
   -1.5390   -0.2560    1.8070 O   0  0  0  0  0  0  0  0  0  0  0  0
    1.6370   -1.0370   -0.6120 H   0  0  0  0  0  0  0  0  0  0  0  0
    1.0880   -0.4870    2.2690 H   0  0  0  0  0  0  0  0  0  0  0  0
    2.1150    1.3330    1.4440 H   0  0  0  0  0  0  0  0  0  0  0  0
    1.2420    1.4480   -0.0710 H   0  0  0  0  0  0  0  0  0  0  0  0
    1.2750    2.4520    3.5300 H   0  0  0  0  0  0  0  0  0  0  0  0
   -0.7730    3.9310    4.1770 H   0  0  0  0  0  0  0  0  0  0  0  0
   -3.1530    4.6120    2.9460 H   0  0  0  0  0  0  0  0  0  0  0  0
   -4.4950    4.2880    0.8800 H   0  0  0  0  0  0  0  0  0  0  0  0
   -3.5730    2.8180   -0.9230 H   0  0  0  0  0  0  0  0  0  0  0  0
   -1.3580    1.7210   -0.6180 H   0  0  0  0  0  0  0  0  0  0  0  0
   -2.7440   -0.4400   -1.6270 O   0  0  0  0  0  0  0  0  0  0  0  0
   -2.8330   -1.8260   -1.4190 C   0  0  0  0  0  0  0  0  0  0  0  0
   -2.3690   -2.1290   -0.0030 C   0  0  2  0  0  0  0  0  0  0  0  0
   -1.0080   -1.6840    0.1250 N   0  0  0  0  0  0  0  0  0  0  0  0
   -2.4210   -3.5940    0.1630 C   0  0  0  0  0  0  0  0  0  0  0  0
   -1.3340   -4.2110    0.3790 O   0  0  0  0  0  0  0  0  0  0  0  0
   -3.5980   -4.3350    0.0950 O   0  0  0  0  0  0  0  0  0  0  0  0
   -3.2300   -0.0360   -0.8500 H   0  0  0  0  0  0  0  0  0  0  0  0
   -2.1670   -2.3570   -2.1260 H   0  0  0  0  0  0  0  0  0  0  0  0
   -3.8480   -2.2080   -1.5230 H   0  0  0  0  0  0  0  0  0  0  0  0
   -3.0400   -1.6390    0.7370 H   0  0  0  0  0  0  0  0  0  0  0  0
   -0.3020   -2.0970   -0.5070 H   0  0  0  0  0  0  0  0  0  0  0  0
  1  8  1  0  0  0  0
  1  9  1  0  0  0  0
  2 11  1  6  0  0  0
  2  4  1  0  0  0  0
  2  1  1  0  0  0  0
  3  2  1  0  0  0  0
  4 13  1  6  0  0  0
  4  5  1  0  0  0  0
  4  6  1  0  0  0  0
  5 15  1  0  0  0  0
  6  7  2  0  0  0  0
 10  1  1  0  0  0  0
 12  3  1  0  0  0  0
 14  5  1  0  0  0  0
 16  6  1  0  0  0  0
 16 17  1  0  0  0  0
 17 31  1  1  0  0  0
 18 17  1  0  0  0  0
 18 32  1  0  0  0  0
 18 19  1  0  0  0  0
 19 20  2  0  0  0  0
 20 21  1  0  0  0  0
 20 34  1  0  0  0  0
 21 35  1  0  0  0  0
 22 21  1  0  0  0  0
 23 22  1  0  0  0  0
 23 36  1  0  0  0  0
 24 23  2  0  0  0  0
 25 26  2  0  0  0  0
 25 24  1  0  0  0  0
 26 27  1  0  0  0  0
 27 19  1  0  0  0  0
 27 22  2  0  0  0  0
 28 17  1  0  0  0  0
 28 29  2  0  0  0  0
 30 16  1  0  0  0  0
 33 18  1  0  0  0  0
 37 24  1  0  0  0  0
 38 25  1  0  0  0  0
 39 26  1  0  0  0  0
 40 41  1  0  0  0  0
 40 47  1  0  0  0  0
 41 42  1  0  0  0  0
 42 43  1  0  0  0  0
 42 44  1  0  0  0  0
 42 50  1  1  0  0  0
 43 28  1  0  0  0  0
 44 45  1  0  0  0  0
 46 44  2  0  0  0  0
 48 41  1  0  0  0  0
 49 41  1  0  0  0  0
 51 43  1  0  0  0  0
M  END
$$$$
