TWT.pdb
 OpenBabel07022419143D

 54 55  0  0  1  0  0  0  0  0999 V2000
    2.2080   -4.5340    1.2870 C   0  0  0  0  0  0  0  0  0  0  0  0
    3.0980   -3.3800    0.8880 C   0  0  1  0  0  0  0  0  0  0  0  0
    2.8560   -2.9320   -0.3880 O   0  0  0  0  0  0  0  0  0  0  0  0
    3.0840   -2.2670    1.8760 C   0  0  2  0  0  0  0  0  0  0  0  0
    3.3550   -2.7690    3.2250 N   0  0  0  0  0  0  0  0  0  0  0  0
    1.8840   -1.4240    1.8730 C   0  0  0  0  0  0  0  0  0  0  0  0
    1.2860   -1.2560    2.9810 O   0  0  0  0  0  0  0  0  0  0  0  0
    1.5720   -4.8850    0.4440 H   0  0  0  0  0  0  0  0  0  0  0  0
    1.5850   -4.2170    2.1670 H   0  0  0  0  0  0  0  0  0  0  0  0
    2.7900   -5.4130    1.6330 H   0  0  0  0  0  0  0  0  0  0  0  0
    4.1530   -3.7840    0.8810 H   0  0  0  0  0  0  0  0  0  0  0  0
    3.6460   -2.3910   -0.6770 H   0  0  0  0  0  0  0  0  0  0  0  0
    3.9540   -1.5920    1.6410 H   0  0  0  0  0  0  0  0  0  0  0  0
    4.3000   -3.2210    3.1870 H   0  0  0  0  0  0  0  0  0  0  0  0
    3.4870   -1.8910    3.8090 H   0  0  0  0  0  0  0  0  0  0  0  0
    1.3280   -0.7810    0.7610 N   0  0  0  0  0  0  0  0  0  0  0  0
    0.1410    0.0330    0.8740 C   0  0  1  0  0  0  0  0  0  0  0  0
    0.4430    1.4570    0.4900 C   0  0  0  0  0  0  0  0  0  0  0  0
   -0.6910    2.3590    0.5720 C   0  0  0  0  0  0  0  0  0  0  0  0
   -1.4220    2.8380   -0.4840 C   0  0  0  0  0  0  0  0  0  0  0  0
   -2.3870    3.6410   -0.0070 N   0  0  0  0  0  0  0  0  0  0  0  0
   -2.3070    3.7000    1.3370 C   0  0  0  0  0  0  0  0  0  0  0  0
   -3.0800    4.3950    2.2770 C   0  0  0  0  0  0  0  0  0  0  0  0
   -2.8010    4.2980    3.6210 C   0  0  0  0  0  0  0  0  0  0  0  0
   -1.7410    3.4960    3.9710 C   0  0  0  0  0  0  0  0  0  0  0  0
   -0.9750    2.8100    3.0610 C   0  0  0  0  0  0  0  0  0  0  0  0
   -1.2500    2.9020    1.7110 C   0  0  0  0  0  0  0  0  0  0  0  0
   -0.9410   -0.5720    0.1090 C   0  0  0  0  0  0  0  0  0  0  0  0
   -2.1030   -0.0980    0.0060 O   0  0  0  0  0  0  0  0  0  0  0  0
    1.7810   -0.8900   -0.1670 H   0  0  0  0  0  0  0  0  0  0  0  0
   -0.1650    0.0250    1.9570 H   0  0  0  0  0  0  0  0  0  0  0  0
    0.9140    1.4430   -0.5190 H   0  0  0  0  0  0  0  0  0  0  0  0
    1.2410    1.8340    1.1870 H   0  0  0  0  0  0  0  0  0  0  0  0
   -1.2570    2.6130   -1.5330 H   0  0  0  0  0  0  0  0  0  0  0  0
   -3.0860    4.1380   -0.5950 H   0  0  0  0  0  0  0  0  0  0  0  0
   -3.9070    5.0150    1.9370 H   0  0  0  0  0  0  0  0  0  0  0  0
   -3.4050    4.8400    4.3360 H   0  0  0  0  0  0  0  0  0  0  0  0
   -1.5270    3.4240    5.0310 H   0  0  0  0  0  0  0  0  0  0  0  0
   -0.1580    2.1940    3.3690 H   0  0  0  0  0  0  0  0  0  0  0  0
   -1.0650   -1.4350   -3.5670 C   0  0  0  0  0  0  0  0  0  0  0  0
   -1.2880   -2.6960   -2.7920 C   0  0  1  0  0  0  0  0  0  0  0  0
   -0.1400   -3.5200   -2.7970 O   0  0  0  0  0  0  0  0  0  0  0  0
   -1.7400   -2.4470   -1.3700 C   0  0  2  0  0  0  0  0  0  0  0  0
   -0.7100   -1.7880   -0.5880 N   0  0  0  0  0  0  0  0  0  0  0  0
   -1.9580   -3.8050   -0.7570 C   0  0  0  0  0  0  0  0  0  0  0  0
   -2.8010   -4.6190   -1.2240 O   0  0  0  0  0  0  0  0  0  0  0  0
   -1.2350   -4.2270    0.3570 O   0  0  0  0  0  0  0  0  0  0  0  0
   -1.5800   -1.5200   -4.5670 H   0  0  0  0  0  0  0  0  0  0  0  0
    0.0210   -1.3740   -3.8050 H   0  0  0  0  0  0  0  0  0  0  0  0
   -1.4260   -0.5760   -2.9860 H   0  0  0  0  0  0  0  0  0  0  0  0
   -2.0890   -3.2980   -3.2760 H   0  0  0  0  0  0  0  0  0  0  0  0
    0.1190   -3.6970   -3.7240 H   0  0  0  0  0  0  0  0  0  0  0  0
   -2.6940   -1.9220   -1.3750 H   0  0  0  0  0  0  0  0  0  0  0  0
    0.2140   -2.2710   -0.5730 H   0  0  0  0  0  0  0  0  0  0  0  0
  1 10  1  0  0  0  0
  1  9  1  0  0  0  0
  2 11  1  6  0  0  0
  2  1  1  0  0  0  0
  2  4  1  0  0  0  0
  3  2  1  0  0  0  0
  4 13  1  6  0  0  0
  4  5  1  0  0  0  0
  5 15  1  0  0  0  0
  6  4  1  0  0  0  0
  6  7  2  0  0  0  0
  8  1  1  0  0  0  0
 12  3  1  0  0  0  0
 14  5  1  0  0  0  0
 16 17  1  0  0  0  0
 16  6  1  0  0  0  0
 17 31  1  1  0  0  0
 18 19  1  0  0  0  0
 18 17  1  0  0  0  0
 18 33  1  0  0  0  0
 19 27  1  0  0  0  0
 20 21  1  0  0  0  0
 20 19  2  0  0  0  0
 21 22  1  0  0  0  0
 22 27  2  0  0  0  0
 22 23  1  0  0  0  0
 23 24  2  0  0  0  0
 24 25  1  0  0  0  0
 24 37  1  0  0  0  0
 25 38  1  0  0  0  0
 26 39  1  0  0  0  0
 26 25  2  0  0  0  0
 27 26  1  0  0  0  0
 28 17  1  0  0  0  0
 29 28  2  0  0  0  0
 30 16  1  0  0  0  0
 32 18  1  0  0  0  0
 34 20  1  0  0  0  0
 35 21  1  0  0  0  0
 36 23  1  0  0  0  0
 40 50  1  0  0  0  0
 40 41  1  0  0  0  0
 41 51  1  6  0  0  0
 41 43  1  0  0  0  0
 42 41  1  0  0  0  0
 43 53  1  1  0  0  0
 43 45  1  0  0  0  0
 43 44  1  0  0  0  0
 44 54  1  0  0  0  0
 44 28  1  0  0  0  0
 45 47  1  0  0  0  0
 46 45  2  0  0  0  0
 48 40  1  0  0  0  0
 49 40  1  0  0  0  0
 52 42  1  0  0  0  0
M  END
$$$$
