TWW.pdb
 OpenBabel07022419143D

 64 67  0  0  1  0  0  0  0  0999 V2000
   -1.6490    0.0590    6.0530 C   0  0  0  0  0  0  0  0  0  0  0  0
   -0.1580   -0.1050    6.1790 C   0  0  1  0  0  0  0  0  0  0  0  0
    0.1960   -1.4470    6.3210 O   0  0  0  0  0  0  0  0  0  0  0  0
    0.6000    0.4590    5.0240 C   0  0  2  0  0  0  0  0  0  0  0  0
    0.2790    1.8460    4.8210 N   0  0  0  0  0  0  0  0  0  0  0  0
    0.3910   -0.3750    3.8270 C   0  0  0  0  0  0  0  0  0  0  0  0
    0.5640   -1.6040    3.9040 O   0  0  0  0  0  0  0  0  0  0  0  0
   -2.0010   -0.6510    5.2640 H   0  0  0  0  0  0  0  0  0  0  0  0
   -1.8940    1.0830    5.6870 H   0  0  0  0  0  0  0  0  0  0  0  0
   -2.1540   -0.1630    7.0130 H   0  0  0  0  0  0  0  0  0  0  0  0
    0.1650    0.4880    7.0860 H   0  0  0  0  0  0  0  0  0  0  0  0
    1.1800   -1.5100    6.3010 H   0  0  0  0  0  0  0  0  0  0  0  0
    1.6920    0.4430    5.3120 H   0  0  0  0  0  0  0  0  0  0  0  0
    0.3160    2.3190    5.7440 H   0  0  0  0  0  0  0  0  0  0  0  0
    0.9810    2.2660    4.1880 H   0  0  0  0  0  0  0  0  0  0  0  0
   -0.0010    0.1670    2.5750 N   0  0  0  0  0  0  0  0  0  0  0  0
   -0.1860   -0.7000    1.4410 C   0  0  1  0  0  0  0  0  0  0  0  0
   -1.5990   -0.7440    0.9930 C   0  0  0  0  0  0  0  0  0  0  0  0
   -2.2250    0.5030    0.5780 C   0  0  0  0  0  0  0  0  0  0  0  0
   -2.3680    0.9680   -0.7160 C   0  0  0  0  0  0  0  0  0  0  0  0
   -2.9760    2.1570   -0.6280 N   0  0  0  0  0  0  0  0  0  0  0  0
   -3.2350    2.4870    0.6400 C   0  0  0  0  0  0  0  0  0  0  0  0
   -3.8460    3.5880    1.2430 C   0  0  0  0  0  0  0  0  0  0  0  0
   -3.9880    3.6500    2.6070 C   0  0  0  0  0  0  0  0  0  0  0  0
   -3.5310    2.6280    3.4120 C   0  0  0  0  0  0  0  0  0  0  0  0
   -2.9340    1.5600    2.7870 C   0  0  0  0  0  0  0  0  0  0  0  0
   -2.7690    1.4570    1.4050 C   0  0  0  0  0  0  0  0  0  0  0  0
    0.7600   -0.2750    0.3780 C   0  0  0  0  0  0  0  0  0  0  0  0
    1.5120    0.7000    0.6200 O   0  0  0  0  0  0  0  0  0  0  0  0
   -0.1490    1.1850    2.4520 H   0  0  0  0  0  0  0  0  0  0  0  0
    0.0570   -1.7740    1.7520 H   0  0  0  0  0  0  0  0  0  0  0  0
   -2.2500   -1.1810    1.8100 H   0  0  0  0  0  0  0  0  0  0  0  0
   -1.7540   -1.4850    0.1500 H   0  0  0  0  0  0  0  0  0  0  0  0
   -2.0500    0.4690   -1.6400 H   0  0  0  0  0  0  0  0  0  0  0  0
   -3.2360    2.7870   -1.4450 H   0  0  0  0  0  0  0  0  0  0  0  0
   -4.1970    4.3750    0.6000 H   0  0  0  0  0  0  0  0  0  0  0  0
   -4.4650    4.5040    3.0990 H   0  0  0  0  0  0  0  0  0  0  0  0
   -3.6520    2.6950    4.4800 H   0  0  0  0  0  0  0  0  0  0  0  0
   -2.5810    0.7620    3.4140 H   0  0  0  0  0  0  0  0  0  0  0  0
    0.8110   -0.9520   -0.8700 N   0  0  0  0  0  0  0  0  0  0  0  0
    1.7430   -0.5260   -1.8840 C   0  0  1  0  0  0  0  0  0  0  0  0
    2.7810   -1.5930   -2.1510 C   0  0  0  0  0  0  0  0  0  0  0  0
    2.2830   -2.8840   -2.5710 C   0  0  0  0  0  0  0  0  0  0  0  0
    2.0760   -3.9180   -1.6390 C   0  0  0  0  0  0  0  0  0  0  0  0
    1.5780   -4.9700   -2.2870 N   0  0  0  0  0  0  0  0  0  0  0  0
    1.4560   -4.6530   -3.6060 C   0  0  0  0  0  0  0  0  0  0  0  0
    1.0030   -5.3960   -4.6760 C   0  0  0  0  0  0  0  0  0  0  0  0
    0.9970   -4.8230   -5.9280 C   0  0  0  0  0  0  0  0  0  0  0  0
    1.4290   -3.5400   -6.1270 C   0  0  0  0  0  0  0  0  0  0  0  0
    1.8770   -2.8000   -5.0770 C   0  0  0  0  0  0  0  0  0  0  0  0
    1.8940   -3.3560   -3.7900 C   0  0  0  0  0  0  0  0  0  0  0  0
    1.1430   -0.0600   -3.1320 C   0  0  0  0  0  0  0  0  0  0  0  0
   -0.0770   -0.1690   -3.4170 O   0  0  0  0  0  0  0  0  0  0  0  0
    1.9260    0.5660   -4.1200 O   0  0  0  0  0  0  0  0  0  0  0  0
    0.1970   -1.7630   -1.1030 H   0  0  0  0  0  0  0  0  0  0  0  0
    2.3130    0.3560   -1.4350 H   0  0  0  0  0  0  0  0  0  0  0  0
    3.4390   -1.6620   -1.2350 H   0  0  0  0  0  0  0  0  0  0  0  0
    3.4940   -1.2300   -2.9500 H   0  0  0  0  0  0  0  0  0  0  0  0
    2.2700   -3.9070   -0.5760 H   0  0  0  0  0  0  0  0  0  0  0  0
    1.3060   -5.9090   -1.9050 H   0  0  0  0  0  0  0  0  0  0  0  0
    0.6590   -6.4200   -4.5180 H   0  0  0  0  0  0  0  0  0  0  0  0
    0.6410   -5.3970   -6.7880 H   0  0  0  0  0  0  0  0  0  0  0  0
    1.4340   -3.0640   -7.1110 H   0  0  0  0  0  0  0  0  0  0  0  0
    2.2430   -1.7970   -5.1630 H   0  0  0  0  0  0  0  0  0  0  0  0
  1  2  1  0  0  0  0
  1 10  1  0  0  0  0
  2  3  1  0  0  0  0
  2 11  1  1  0  0  0
  4 13  1  1  0  0  0
  4  2  1  0  0  0  0
  5  4  1  0  0  0  0
  5 14  1  0  0  0  0
  6  7  2  0  0  0  0
  6  4  1  0  0  0  0
  8  1  1  0  0  0  0
  9  1  1  0  0  0  0
 12  3  1  0  0  0  0
 15  5  1  0  0  0  0
 16  6  1  0  0  0  0
 17 31  1  1  0  0  0
 17 16  1  0  0  0  0
 18 17  1  0  0  0  0
 18 32  1  0  0  0  0
 19 18  1  0  0  0  0
 19 27  1  0  0  0  0
 20 21  1  0  0  0  0
 20 19  2  0  0  0  0
 21 22  1  0  0  0  0
 22 23  2  0  0  0  0
 22 27  1  0  0  0  0
 23 24  1  0  0  0  0
 24 37  1  0  0  0  0
 24 25  2  0  0  0  0
 25 38  1  0  0  0  0
 26 25  1  0  0  0  0
 26 39  1  0  0  0  0
 27 26  2  0  0  0  0
 28 29  2  0  0  0  0
 28 17  1  0  0  0  0
 30 16  1  0  0  0  0
 33 18  1  0  0  0  0
 34 20  1  0  0  0  0
 35 21  1  0  0  0  0
 36 23  1  0  0  0  0
 40 28  1  0  0  0  0
 41 56  1  1  0  0  0
 41 40  1  0  0  0  0
 42 41  1  0  0  0  0
 42 57  1  0  0  0  0
 43 42  1  0  0  0  0
 43 44  2  0  0  0  0
 44 59  1  0  0  0  0
 45 60  1  0  0  0  0
 45 44  1  0  0  0  0
 46 45  1  0  0  0  0
 47 61  1  0  0  0  0
 47 46  2  0  0  0  0
 48 47  1  0  0  0  0
 49 48  2  0  0  0  0
 49 50  1  0  0  0  0
 50 51  2  0  0  0  0
 51 46  1  0  0  0  0
 51 43  1  0  0  0  0
 52 41  1  0  0  0  0
 53 52  1  0  0  0  0
 54 52  2  0  0  0  0
 55 40  1  0  0  0  0
 58 42  1  0  0  0  0
 62 48  1  0  0  0  0
 63 49  1  0  0  0  0
 64 50  1  0  0  0  0
M  END
$$$$
