TWY.pdb
 OpenBabel07022419143D

 61 63  0  0  1  0  0  0  0  0999 V2000
    4.5300   -0.8640    4.8570 C   0  0  0  0  0  0  0  0  0  0  0  0
    4.4890    0.4450    4.0570 C   0  0  1  0  0  0  0  0  0  0  0  0
    5.7590    1.0310    4.1130 O   0  0  0  0  0  0  0  0  0  0  0  0
    4.0970    0.0900    2.6510 C   0  0  2  0  0  0  0  0  0  0  0  0
    4.0710    1.2590    1.7910 N   0  0  0  0  0  0  0  0  0  0  0  0
    2.7120   -0.4930    2.7120 C   0  0  0  0  0  0  0  0  0  0  0  0
    2.4900   -1.5010    3.4320 O   0  0  0  0  0  0  0  0  0  0  0  0
    3.5930   -1.0050    5.4260 H   0  0  0  0  0  0  0  0  0  0  0  0
    4.6760   -1.7360    4.2000 H   0  0  0  0  0  0  0  0  0  0  0  0
    5.3970   -0.8570    5.5570 H   0  0  0  0  0  0  0  0  0  0  0  0
    3.7490    1.1230    4.5090 H   0  0  0  0  0  0  0  0  0  0  0  0
    6.0360    1.1460    5.0350 H   0  0  0  0  0  0  0  0  0  0  0  0
    4.7970   -0.6880    2.2850 H   0  0  0  0  0  0  0  0  0  0  0  0
    3.4360    1.9540    2.2180 H   0  0  0  0  0  0  0  0  0  0  0  0
    3.7590    0.9360    0.8490 H   0  0  0  0  0  0  0  0  0  0  0  0
    1.6360    0.0450    1.9900 N   0  0  0  0  0  0  0  0  0  0  0  0
    0.2680   -0.4870    2.0180 C   0  0  1  0  0  0  0  0  0  0  0  0
   -0.6630    0.5150    2.6520 C   0  0  0  0  0  0  0  0  0  0  0  0
   -0.7030    1.8280    2.0170 C   0  0  0  0  0  0  0  0  0  0  0  0
   -0.0010    2.9310    2.5190 C   0  0  0  0  0  0  0  0  0  0  0  0
   -0.2040    3.9860    1.7360 N   0  0  0  0  0  0  0  0  0  0  0  0
   -1.0270    3.6310    0.7140 C   0  0  0  0  0  0  0  0  0  0  0  0
   -1.5160    4.3830   -0.3320 C   0  0  0  0  0  0  0  0  0  0  0  0
   -2.3470    3.7410   -1.2230 C   0  0  0  0  0  0  0  0  0  0  0  0
   -2.6830    2.4120   -1.0890 C   0  0  0  0  0  0  0  0  0  0  0  0
   -2.1760    1.7010   -0.0370 C   0  0  0  0  0  0  0  0  0  0  0  0
   -1.3400    2.2790    0.8910 C   0  0  0  0  0  0  0  0  0  0  0  0
   -0.1890   -1.0290    0.7440 C   0  0  0  0  0  0  0  0  0  0  0  0
    0.4900   -0.8360   -0.3090 O   0  0  0  0  0  0  0  0  0  0  0  0
    1.7910    0.8800    1.3850 H   0  0  0  0  0  0  0  0  0  0  0  0
    0.3390   -1.3320    2.7730 H   0  0  0  0  0  0  0  0  0  0  0  0
   -0.3490    0.5770    3.7340 H   0  0  0  0  0  0  0  0  0  0  0  0
   -1.6740    0.0360    2.6830 H   0  0  0  0  0  0  0  0  0  0  0  0
    0.6250    2.9500    3.4140 H   0  0  0  0  0  0  0  0  0  0  0  0
    0.1880    4.9450    1.8570 H   0  0  0  0  0  0  0  0  0  0  0  0
   -1.2540    5.4370   -0.4460 H   0  0  0  0  0  0  0  0  0  0  0  0
   -2.7540    4.3030   -2.0650 H   0  0  0  0  0  0  0  0  0  0  0  0
   -3.3550    1.9390   -1.8300 H   0  0  0  0  0  0  0  0  0  0  0  0
   -2.4160    0.6770    0.1070 H   0  0  0  0  0  0  0  0  0  0  0  0
   -2.6880   -5.9480   -5.8950 O   0  0  0  0  0  0  0  0  0  0  0  0
   -2.4470   -5.4420   -4.6280 C   0  0  0  0  0  0  0  0  0  0  0  0
   -3.3990   -5.4530   -3.6310 C   0  0  0  0  0  0  0  0  0  0  0  0
   -3.1280   -4.9390   -2.3730 C   0  0  0  0  0  0  0  0  0  0  0  0
   -1.9000   -4.3960   -2.0610 C   0  0  0  0  0  0  0  0  0  0  0  0
   -1.5280   -3.8200   -0.7560 C   0  0  0  0  0  0  0  0  0  0  0  0
   -1.7540   -2.3060   -0.7280 C   0  0  2  0  0  0  0  0  0  0  0  0
   -1.3750   -1.7920    0.5810 N   0  0  0  0  0  0  0  0  0  0  0  0
   -3.1810   -2.0570   -0.9370 C   0  0  0  0  0  0  0  0  0  0  0  0
   -3.7780   -2.2940   -2.0170 O   0  0  0  0  0  0  0  0  0  0  0  0
   -0.9480   -4.3960   -3.0860 C   0  0  0  0  0  0  0  0  0  0  0  0
   -1.2100   -4.9050   -4.3400 C   0  0  0  0  0  0  0  0  0  0  0  0
   -3.9550   -1.5350    0.0830 O   0  0  0  0  0  0  0  0  0  0  0  0
   -3.5300   -6.3870   -6.1830 H   0  0  0  0  0  0  0  0  0  0  0  0
   -4.3730   -5.8550   -3.7980 H   0  0  0  0  0  0  0  0  0  0  0  0
   -3.8750   -4.9540   -1.5800 H   0  0  0  0  0  0  0  0  0  0  0  0
   -0.4270   -3.9600   -0.6280 H   0  0  0  0  0  0  0  0  0  0  0  0
   -2.0840   -4.3270    0.0340 H   0  0  0  0  0  0  0  0  0  0  0  0
   -1.1300   -1.8490   -1.5330 H   0  0  0  0  0  0  0  0  0  0  0  0
   -1.9820   -1.9890    1.3960 H   0  0  0  0  0  0  0  0  0  0  0  0
    0.0250   -3.9780   -2.8710 H   0  0  0  0  0  0  0  0  0  0  0  0
   -0.4630   -4.9020   -5.1380 H   0  0  0  0  0  0  0  0  0  0  0  0
  1  8  1  0  0  0  0
  1 10  1  0  0  0  0
  2  3  1  0  0  0  0
  2 11  1  1  0  0  0
  2  1  1  0  0  0  0
  3 12  1  0  0  0  0
  4 13  1  6  0  0  0
  4  6  1  0  0  0  0
  4  2  1  0  0  0  0
  5 14  1  0  0  0  0
  5  4  1  0  0  0  0
  6  7  2  0  0  0  0
  9  1  1  0  0  0  0
 15  5  1  0  0  0  0
 16 17  1  0  0  0  0
 16  6  1  0  0  0  0
 17 18  1  0  0  0  0
 17 31  1  1  0  0  0
 18 33  1  0  0  0  0
 18 32  1  0  0  0  0
 19 20  2  0  0  0  0
 19 18  1  0  0  0  0
 20 34  1  0  0  0  0
 21 35  1  0  0  0  0
 21 20  1  0  0  0  0
 22 27  1  0  0  0  0
 22 21  1  0  0  0  0
 23 22  2  0  0  0  0
 24 25  2  0  0  0  0
 24 23  1  0  0  0  0
 25 26  1  0  0  0  0
 26 39  1  0  0  0  0
 26 27  2  0  0  0  0
 27 19  1  0  0  0  0
 28 17  1  0  0  0  0
 29 28  2  0  0  0  0
 30 16  1  0  0  0  0
 36 23  1  0  0  0  0
 37 24  1  0  0  0  0
 38 25  1  0  0  0  0
 40 41  1  0  0  0  0
 41 51  2  0  0  0  0
 41 42  1  0  0  0  0
 42 43  2  0  0  0  0
 43 44  1  0  0  0  0
 43 55  1  0  0  0  0
 44 45  1  0  0  0  0
 45 46  1  0  0  0  0
 45 56  1  0  0  0  0
 45 57  1  0  0  0  0
 46 58  1  6  0  0  0
 46 47  1  0  0  0  0
 47 28  1  0  0  0  0
 47 59  1  0  0  0  0
 48 46  1  0  0  0  0
 48 52  1  0  0  0  0
 49 48  2  0  0  0  0
 50 60  1  0  0  0  0
 50 44  2  0  0  0  0
 51 50  1  0  0  0  0
 53 40  1  0  0  0  0
 54 42  1  0  0  0  0
 61 51  1  0  0  0  0
M  END
$$$$
