TYA.pdb
 OpenBabel07022419143D

 47 47  0  0  1  0  0  0  0  0999 V2000
    1.9870   -3.9940    0.0040 C   0  0  0  0  0  0  0  0  0  0  0  0
    1.2130   -3.2050   -1.0180 C   0  0  1  0  0  0  0  0  0  0  0  0
    0.9100   -4.0320   -2.0950 O   0  0  0  0  0  0  0  0  0  0  0  0
   -0.1020   -2.7030   -0.4620 C   0  0  2  0  0  0  0  0  0  0  0  0
   -0.7890   -1.9730   -1.5040 N   0  0  0  0  0  0  0  0  0  0  0  0
    0.1350   -1.7930    0.7130 C   0  0  0  0  0  0  0  0  0  0  0  0
    0.7190   -2.2050    1.7470 O   0  0  0  0  0  0  0  0  0  0  0  0
    1.2810   -4.3980    0.7600 H   0  0  0  0  0  0  0  0  0  0  0  0
    2.4980   -4.8240   -0.5320 H   0  0  0  0  0  0  0  0  0  0  0  0
    2.7660   -3.4010    0.5030 H   0  0  0  0  0  0  0  0  0  0  0  0
    1.7990   -2.3180   -1.3510 H   0  0  0  0  0  0  0  0  0  0  0  0
    0.7640   -4.9620   -1.8410 H   0  0  0  0  0  0  0  0  0  0  0  0
   -0.7050   -3.5590   -0.1070 H   0  0  0  0  0  0  0  0  0  0  0  0
   -0.7790   -2.5560   -2.3640 H   0  0  0  0  0  0  0  0  0  0  0  0
   -1.7690   -1.7490   -1.2710 H   0  0  0  0  0  0  0  0  0  0  0  0
    5.8670    0.1740   -0.4930 O   0  0  0  0  0  0  0  0  0  0  0  0
    4.6150    0.5280   -0.0050 C   0  0  0  0  0  0  0  0  0  0  0  0
    3.5520    0.7020   -0.8770 C   0  0  0  0  0  0  0  0  0  0  0  0
    2.3180    1.0540   -0.3700 C   0  0  0  0  0  0  0  0  0  0  0  0
    2.1260    1.2340    0.9830 C   0  0  0  0  0  0  0  0  0  0  0  0
    0.7900    1.6090    1.4670 C   0  0  0  0  0  0  0  0  0  0  0  0
   -0.0750    0.4170    1.7940 C   0  0  2  0  0  0  0  0  0  0  0  0
   -0.3010   -0.4400    0.6790 N   0  0  0  0  0  0  0  0  0  0  0  0
   -1.3840    0.8230    2.3650 C   0  0  0  0  0  0  0  0  0  0  0  0
   -1.4440    1.5890    3.3710 O   0  0  0  0  0  0  0  0  0  0  0  0
    3.1810    1.0620    1.8550 C   0  0  0  0  0  0  0  0  0  0  0  0
    4.4110    0.7110    1.3440 C   0  0  0  0  0  0  0  0  0  0  0  0
    6.2540    0.7660   -1.2290 H   0  0  0  0  0  0  0  0  0  0  0  0
    3.7600    0.5490   -1.9190 H   0  0  0  0  0  0  0  0  0  0  0  0
    1.5080    1.1810   -1.0950 H   0  0  0  0  0  0  0  0  0  0  0  0
    0.8860    2.3090    2.3090 H   0  0  0  0  0  0  0  0  0  0  0  0
    0.2670    2.1670    0.6560 H   0  0  0  0  0  0  0  0  0  0  0  0
    0.4600   -0.1390    2.6120 H   0  0  0  0  0  0  0  0  0  0  0  0
   -0.7970   -0.0400   -0.1610 H   0  0  0  0  0  0  0  0  0  0  0  0
    3.0280    1.2050    2.9220 H   0  0  0  0  0  0  0  0  0  0  0  0
    5.2340    0.5810    2.0650 H   0  0  0  0  0  0  0  0  0  0  0  0
   -4.6820    1.4070    1.2000 C   0  0  0  0  0  0  0  0  0  0  0  0
   -3.9060    0.7480    2.3460 C   0  0  2  0  0  0  0  0  0  0  0  0
   -2.6270    0.3850    1.8320 N   0  0  0  0  0  0  0  0  0  0  0  0
   -4.6550   -0.4770    2.7020 C   0  0  0  0  0  0  0  0  0  0  0  0
   -4.1180   -1.5960    2.5220 O   0  0  0  0  0  0  0  0  0  0  0  0
   -5.9400   -0.4610    3.2310 O   0  0  0  0  0  0  0  0  0  0  0  0
   -4.4220    0.8150    0.2950 H   0  0  0  0  0  0  0  0  0  0  0  0
   -4.3460    2.4570    1.1300 H   0  0  0  0  0  0  0  0  0  0  0  0
   -5.7800    1.3190    1.3830 H   0  0  0  0  0  0  0  0  0  0  0  0
   -3.8650    1.4190    3.2220 H   0  0  0  0  0  0  0  0  0  0  0  0
   -2.5830   -0.2470    1.0030 H   0  0  0  0  0  0  0  0  0  0  0  0
  1 10  1  0  0  0  0
  1  8  1  0  0  0  0
  2 11  1  6  0  0  0
  2  4  1  0  0  0  0
  2  1  1  0  0  0  0
  3 12  1  0  0  0  0
  3  2  1  0  0  0  0
  4 13  1  1  0  0  0
  4  6  1  0  0  0  0
  5 15  1  0  0  0  0
  5  4  1  0  0  0  0
  6  7  2  0  0  0  0
  9  1  1  0  0  0  0
 14  5  1  0  0  0  0
 16 17  1  0  0  0  0
 17 27  1  0  0  0  0
 18 19  1  0  0  0  0
 18 17  2  0  0  0  0
 19 20  2  0  0  0  0
 20 21  1  0  0  0  0
 20 26  1  0  0  0  0
 21 22  1  0  0  0  0
 21 31  1  0  0  0  0
 22 24  1  0  0  0  0
 22 33  1  1  0  0  0
 23  6  1  0  0  0  0
 23 22  1  0  0  0  0
 24 25  2  0  0  0  0
 26 35  1  0  0  0  0
 27 26  2  0  0  0  0
 27 36  1  0  0  0  0
 28 16  1  0  0  0  0
 29 18  1  0  0  0  0
 30 19  1  0  0  0  0
 32 21  1  0  0  0  0
 34 23  1  0  0  0  0
 37 45  1  0  0  0  0
 37 38  1  0  0  0  0
 38 40  1  0  0  0  0
 38 46  1  1  0  0  0
 39 38  1  0  0  0  0
 39 24  1  0  0  0  0
 40 42  1  0  0  0  0
 41 40  2  0  0  0  0
 43 37  1  0  0  0  0
 44 37  1  0  0  0  0
 47 39  1  0  0  0  0
M  END
$$$$
