TYC.pdb
 OpenBabel07022419143D

 48 48  0  0  1  0  0  0  0  0999 V2000
    3.4050   -2.7210    4.9190 C   0  0  0  0  0  0  0  0  0  0  0  0
    2.8290   -1.4010    4.3920 C   0  0  1  0  0  0  0  0  0  0  0  0
    3.6600   -1.0190    3.3400 O   0  0  0  0  0  0  0  0  0  0  0  0
    1.4330   -1.7130    3.9020 C   0  0  2  0  0  0  0  0  0  0  0  0
    1.5500   -2.7980    2.9500 N   0  0  0  0  0  0  0  0  0  0  0  0
    0.8070   -0.5470    3.2320 C   0  0  0  0  0  0  0  0  0  0  0  0
    0.6000    0.5240    3.8590 O   0  0  0  0  0  0  0  0  0  0  0  0
    3.6540   -3.4080    4.0920 H   0  0  0  0  0  0  0  0  0  0  0  0
    4.3060   -2.4670    5.5300 H   0  0  0  0  0  0  0  0  0  0  0  0
    2.6830   -3.2410    5.5800 H   0  0  0  0  0  0  0  0  0  0  0  0
    2.8600   -0.6700    5.2030 H   0  0  0  0  0  0  0  0  0  0  0  0
    4.0380   -1.7810    2.8460 H   0  0  0  0  0  0  0  0  0  0  0  0
    0.8290   -2.0730    4.7510 H   0  0  0  0  0  0  0  0  0  0  0  0
    1.5800   -3.7330    3.4020 H   0  0  0  0  0  0  0  0  0  0  0  0
    2.2740   -2.6290    2.2420 H   0  0  0  0  0  0  0  0  0  0  0  0
    2.2140   -2.9240   -3.7860 O   0  0  0  0  0  0  0  0  0  0  0  0
    1.7970   -1.9500   -2.8640 C   0  0  0  0  0  0  0  0  0  0  0  0
    2.5710   -1.7410   -1.7380 C   0  0  0  0  0  0  0  0  0  0  0  0
    2.1770   -0.7910   -0.8260 C   0  0  0  0  0  0  0  0  0  0  0  0
    1.0380   -0.0350   -0.9840 C   0  0  0  0  0  0  0  0  0  0  0  0
    0.6820    0.9540    0.0210 C   0  0  0  0  0  0  0  0  0  0  0  0
   -0.1800    0.4550    1.1350 C   0  0  2  0  0  0  0  0  0  0  0  0
    0.4350   -0.6270    1.8730 N   0  0  0  0  0  0  0  0  0  0  0  0
   -1.5520    0.1220    0.7430 C   0  0  0  0  0  0  0  0  0  0  0  0
   -2.0650   -1.0250    0.9930 O   0  0  0  0  0  0  0  0  0  0  0  0
    0.2830   -0.2590   -2.1090 C   0  0  0  0  0  0  0  0  0  0  0  0
    0.6560   -1.2130   -3.0510 C   0  0  0  0  0  0  0  0  0  0  0  0
    3.2140   -2.9730   -3.9860 H   0  0  0  0  0  0  0  0  0  0  0  0
    3.4680   -2.3230   -1.5940 H   0  0  0  0  0  0  0  0  0  0  0  0
    2.7940   -0.6470    0.0390 H   0  0  0  0  0  0  0  0  0  0  0  0
    0.0970    1.7720   -0.4900 H   0  0  0  0  0  0  0  0  0  0  0  0
    1.5830    1.4790    0.4200 H   0  0  0  0  0  0  0  0  0  0  0  0
   -0.2700    1.3020    1.8800 H   0  0  0  0  0  0  0  0  0  0  0  0
    0.6100   -1.5270    1.3450 H   0  0  0  0  0  0  0  0  0  0  0  0
   -0.6040    0.2870   -2.2960 H   0  0  0  0  0  0  0  0  0  0  0  0
    0.0640   -1.3850   -3.9280 H   0  0  0  0  0  0  0  0  0  0  0  0
   -2.4370    1.0210    0.0630 N   0  0  0  0  0  0  0  0  0  0  0  0
   -3.7770    0.6360   -0.2890 C   0  0  1  0  0  0  0  0  0  0  0  0
   -4.8200    1.3900    0.5180 C   0  0  0  0  0  0  0  0  0  0  0  0
   -6.4470    0.7940   -0.0410 S   0  0  0  0  0  0  0  0  0  0  0  0
   -4.0270    0.8660   -1.7240 C   0  0  0  0  0  0  0  0  0  0  0  0
   -5.1780    0.5410   -2.1750 O   0  0  0  0  0  0  0  0  0  0  0  0
   -3.0630    1.4120   -2.5550 O   0  0  0  0  0  0  0  0  0  0  0  0
   -2.0810    1.9720   -0.1730 H   0  0  0  0  0  0  0  0  0  0  0  0
   -3.9590   -0.4340   -0.0720 H   0  0  0  0  0  0  0  0  0  0  0  0
   -4.7490    1.0800    1.5980 H   0  0  0  0  0  0  0  0  0  0  0  0
   -4.7190    2.4800    0.4380 H   0  0  0  0  0  0  0  0  0  0  0  0
   -6.4490   -0.6110    0.1850 H   0  0  0  0  0  0  0  0  0  0  0  0
  1  9  1  0  0  0  0
  1 10  1  0  0  0  0
  2  1  1  0  0  0  0
  2 11  1  1  0  0  0
  3  2  1  0  0  0  0
  4  2  1  0  0  0  0
  4 13  1  1  0  0  0
  5 14  1  0  0  0  0
  5  4  1  0  0  0  0
  6  7  2  0  0  0  0
  6  4  1  0  0  0  0
  8  1  1  0  0  0  0
 12  3  1  0  0  0  0
 15  5  1  0  0  0  0
 16 17  1  0  0  0  0
 17 18  1  0  0  0  0
 18 29  1  0  0  0  0
 18 19  2  0  0  0  0
 19 30  1  0  0  0  0
 20 19  1  0  0  0  0
 20 21  1  0  0  0  0
 21 32  1  0  0  0  0
 21 22  1  0  0  0  0
 22 23  1  0  0  0  0
 22 33  1  1  0  0  0
 23  6  1  0  0  0  0
 24 25  2  0  0  0  0
 24 22  1  0  0  0  0
 26 20  2  0  0  0  0
 27 17  2  0  0  0  0
 27 26  1  0  0  0  0
 28 16  1  0  0  0  0
 31 21  1  0  0  0  0
 34 23  1  0  0  0  0
 35 26  1  0  0  0  0
 36 27  1  0  0  0  0
 37 24  1  0  0  0  0
 38 45  1  1  0  0  0
 38 37  1  0  0  0  0
 38 39  1  0  0  0  0
 39 46  1  0  0  0  0
 40 48  1  0  0  0  0
 40 39  1  0  0  0  0
 41 38  1  0  0  0  0
 42 41  1  0  0  0  0
 43 41  2  0  0  0  0
 44 37  1  0  0  0  0
 47 39  1  0  0  0  0
M  END
$$$$
