TYD.pdb
 OpenBabel07022419143D

 50 50  0  0  1  0  0  0  0  0999 V2000
    2.1260   -4.0910    1.4960 C   0  0  0  0  0  0  0  0  0  0  0  0
    2.8570   -3.4390    2.6290 C   0  0  1  0  0  0  0  0  0  0  0  0
    4.0010   -4.2630    2.8460 O   0  0  0  0  0  0  0  0  0  0  0  0
    3.4310   -2.0810    2.3220 C   0  0  2  0  0  0  0  0  0  0  0  0
    4.2350   -1.7380    3.5060 N   0  0  0  0  0  0  0  0  0  0  0  0
    2.4590   -1.0180    2.0670 C   0  0  0  0  0  0  0  0  0  0  0  0
    2.3730   -0.1110    2.9640 O   0  0  0  0  0  0  0  0  0  0  0  0
    2.2950   -5.2170    1.5080 H   0  0  0  0  0  0  0  0  0  0  0  0
    1.0400   -3.9620    1.6490 H   0  0  0  0  0  0  0  0  0  0  0  0
    2.4450   -3.7450    0.5080 H   0  0  0  0  0  0  0  0  0  0  0  0
    2.3190   -3.4030    3.5720 H   0  0  0  0  0  0  0  0  0  0  0  0
    3.7330   -5.1270    3.2380 H   0  0  0  0  0  0  0  0  0  0  0  0
    4.1110   -2.1530    1.4510 H   0  0  0  0  0  0  0  0  0  0  0  0
    4.5060   -0.7290    3.4660 H   0  0  0  0  0  0  0  0  0  0  0  0
    5.0670   -2.3700    3.5420 H   0  0  0  0  0  0  0  0  0  0  0  0
   -2.5690    5.5330   -0.7130 O   0  0  0  0  0  0  0  0  0  0  0  0
   -1.6890    4.4620   -0.6110 C   0  0  0  0  0  0  0  0  0  0  0  0
   -0.6330    4.4850    0.2780 C   0  0  0  0  0  0  0  0  0  0  0  0
    0.2540    3.4410    0.4020 C   0  0  0  0  0  0  0  0  0  0  0  0
    0.1080    2.2970   -0.3920 C   0  0  0  0  0  0  0  0  0  0  0  0
    1.0810    1.1900   -0.2730 C   0  0  0  0  0  0  0  0  0  0  0  0
    0.6800    0.2530    0.8110 C   0  0  2  0  0  0  0  0  0  0  0  0
    1.6100   -0.8530    0.9700 N   0  0  0  0  0  0  0  0  0  0  0  0
   -0.7180   -0.2030    0.6980 C   0  0  0  0  0  0  0  0  0  0  0  0
   -1.6710    0.5860    0.6580 O   0  0  0  0  0  0  0  0  0  0  0  0
   -0.9540    2.3060   -1.2680 C   0  0  0  0  0  0  0  0  0  0  0  0
   -1.8400    3.3390   -1.3970 C   0  0  0  0  0  0  0  0  0  0  0  0
   -3.4570    5.3590   -1.1610 H   0  0  0  0  0  0  0  0  0  0  0  0
   -0.5480    5.3940    0.8830 H   0  0  0  0  0  0  0  0  0  0  0  0
    1.0790    3.5120    1.1290 H   0  0  0  0  0  0  0  0  0  0  0  0
    1.1430    0.7200   -1.2760 H   0  0  0  0  0  0  0  0  0  0  0  0
    2.0480    1.6580    0.0290 H   0  0  0  0  0  0  0  0  0  0  0  0
    0.7500    0.8440    1.7600 H   0  0  0  0  0  0  0  0  0  0  0  0
    1.6350   -1.5550    0.2130 H   0  0  0  0  0  0  0  0  0  0  0  0
   -1.0860    1.4290   -1.8930 H   0  0  0  0  0  0  0  0  0  0  0  0
   -2.6610    3.2780   -2.1130 H   0  0  0  0  0  0  0  0  0  0  0  0
   -1.0660   -1.6000    0.6280 N   0  0  0  0  0  0  0  0  0  0  0  0
   -2.4390   -2.0140    0.5210 C   0  0  1  0  0  0  0  0  0  0  0  0
   -2.7150   -2.7530   -0.7700 C   0  0  0  0  0  0  0  0  0  0  0  0
   -2.4150   -1.8790   -1.9180 C   0  0  0  0  0  0  0  0  0  0  0  0
   -1.2410   -1.5770   -2.1880 O   0  0  0  0  0  0  0  0  0  0  0  0
   -2.8810   -2.8360    1.6710 C   0  0  0  0  0  0  0  0  0  0  0  0
   -4.0660   -3.2470    1.6720 O   0  0  0  0  0  0  0  0  0  0  0  0
   -3.4460   -1.3900   -2.7060 O   0  0  0  0  0  0  0  0  0  0  0  0
   -2.0370   -3.1540    2.7190 O   0  0  0  0  0  0  0  0  0  0  0  0
   -0.3210   -2.3230    0.6510 H   0  0  0  0  0  0  0  0  0  0  0  0
   -3.0930   -1.0910    0.5210 H   0  0  0  0  0  0  0  0  0  0  0  0
   -3.7660   -3.1070   -0.7530 H   0  0  0  0  0  0  0  0  0  0  0  0
   -2.0550   -3.6600   -0.7460 H   0  0  0  0  0  0  0  0  0  0  0  0
   -3.3180   -1.1450   -3.6830 H   0  0  0  0  0  0  0  0  0  0  0  0
  1  8  1  0  0  0  0
  1  9  1  0  0  0  0
  1  2  1  0  0  0  0
  2  3  1  0  0  0  0
  2 11  1  1  0  0  0
  3 12  1  0  0  0  0
  4 13  1  6  0  0  0
  4  2  1  0  0  0  0
  4  5  1  0  0  0  0
  5 15  1  0  0  0  0
  6  4  1  0  0  0  0
  6  7  2  0  0  0  0
 10  1  1  0  0  0  0
 14  5  1  0  0  0  0
 16 17  1  0  0  0  0
 17 18  1  0  0  0  0
 18 19  2  0  0  0  0
 18 29  1  0  0  0  0
 19 30  1  0  0  0  0
 20 21  1  0  0  0  0
 20 19  1  0  0  0  0
 21 32  1  0  0  0  0
 21 22  1  0  0  0  0
 22 23  1  0  0  0  0
 22 33  1  1  0  0  0
 23  6  1  0  0  0  0
 24 22  1  0  0  0  0
 25 24  2  0  0  0  0
 26 20  2  0  0  0  0
 27 26  1  0  0  0  0
 27 17  2  0  0  0  0
 28 16  1  0  0  0  0
 31 21  1  0  0  0  0
 34 23  1  0  0  0  0
 35 26  1  0  0  0  0
 36 27  1  0  0  0  0
 37 46  1  0  0  0  0
 37 24  1  0  0  0  0
 38 47  1  6  0  0  0
 38 37  1  0  0  0  0
 38 42  1  0  0  0  0
 39 48  1  0  0  0  0
 39 49  1  0  0  0  0
 39 38  1  0  0  0  0
 40 39  1  0  0  0  0
 41 40  2  0  0  0  0
 42 43  2  0  0  0  0
 42 45  1  0  0  0  0
 44 40  1  0  0  0  0
 50 44  1  0  0  0  0
M  END
$$$$
