TYE.pdb
 OpenBabel07022419143D

 53 53  0  0  1  0  0  0  0  0999 V2000
    4.6880   -1.3760    1.2230 C   0  0  0  0  0  0  0  0  0  0  0  0
    4.2530    0.0630    1.0680 C   0  0  1  0  0  0  0  0  0  0  0  0
    3.8490    0.3090   -0.2180 O   0  0  0  0  0  0  0  0  0  0  0  0
    3.2250    0.4650    2.0930 C   0  0  2  0  0  0  0  0  0  0  0  0
    3.7200    0.1790    3.4460 N   0  0  0  0  0  0  0  0  0  0  0  0
    1.8920   -0.1460    1.8900 C   0  0  0  0  0  0  0  0  0  0  0  0
    1.3230   -0.8920    2.7250 O   0  0  0  0  0  0  0  0  0  0  0  0
    3.8470   -1.9720    1.6330 H   0  0  0  0  0  0  0  0  0  0  0  0
    5.0820   -1.7490    0.2780 H   0  0  0  0  0  0  0  0  0  0  0  0
    5.4920   -1.4160    1.9860 H   0  0  0  0  0  0  0  0  0  0  0  0
    5.1500    0.6910    1.2640 H   0  0  0  0  0  0  0  0  0  0  0  0
    4.0970    1.2120   -0.5180 H   0  0  0  0  0  0  0  0  0  0  0  0
    3.1050    1.5640    2.0350 H   0  0  0  0  0  0  0  0  0  0  0  0
    4.2280    1.0210    3.8120 H   0  0  0  0  0  0  0  0  0  0  0  0
    4.2940   -0.6790    3.4640 H   0  0  0  0  0  0  0  0  0  0  0  0
   -1.1130    3.8100    4.9570 O   0  0  0  0  0  0  0  0  0  0  0  0
   -1.0930    3.0610    3.7740 C   0  0  0  0  0  0  0  0  0  0  0  0
   -0.1570    3.3450    2.8030 C   0  0  0  0  0  0  0  0  0  0  0  0
   -0.1300    2.6090    1.6300 C   0  0  0  0  0  0  0  0  0  0  0  0
   -1.0580    1.5830    1.4470 C   0  0  0  0  0  0  0  0  0  0  0  0
   -1.0230    0.7990    0.1880 C   0  0  0  0  0  0  0  0  0  0  0  0
   -0.0950   -0.4100    0.3630 C   0  0  2  0  0  0  0  0  0  0  0  0
    1.2110    0.1290    0.6770 N   0  0  0  0  0  0  0  0  0  0  0  0
   -0.1440   -1.1870   -0.8590 C   0  0  0  0  0  0  0  0  0  0  0  0
    0.8700   -1.3610   -1.5610 O   0  0  0  0  0  0  0  0  0  0  0  0
   -2.0030    1.2850    2.4090 C   0  0  0  0  0  0  0  0  0  0  0  0
   -2.0030    2.0400    3.5720 C   0  0  0  0  0  0  0  0  0  0  0  0
   -1.9240    3.7180    5.5640 H   0  0  0  0  0  0  0  0  0  0  0  0
    0.5470    4.1460    2.9780 H   0  0  0  0  0  0  0  0  0  0  0  0
    0.5960    2.8160    0.8570 H   0  0  0  0  0  0  0  0  0  0  0  0
   -0.5440    1.4320   -0.6030 H   0  0  0  0  0  0  0  0  0  0  0  0
   -2.0210    0.4920   -0.1500 H   0  0  0  0  0  0  0  0  0  0  0  0
   -0.4280   -1.0400    1.2130 H   0  0  0  0  0  0  0  0  0  0  0  0
    1.5970    0.7450   -0.0820 H   0  0  0  0  0  0  0  0  0  0  0  0
   -2.7180    0.4850    2.2520 H   0  0  0  0  0  0  0  0  0  0  0  0
   -2.7590    1.7930    4.3290 H   0  0  0  0  0  0  0  0  0  0  0  0
   -1.3680   -1.7620   -1.2670 N   0  0  0  0  0  0  0  0  0  0  0  0
   -1.4370   -2.5410   -2.4830 C   0  0  1  0  0  0  0  0  0  0  0  0
   -1.8150   -3.9550   -2.1010 C   0  0  0  0  0  0  0  0  0  0  0  0
   -3.1330   -4.0460   -1.4030 C   0  0  0  0  0  0  0  0  0  0  0  0
   -3.4430   -5.4450   -1.0600 C   0  0  0  0  0  0  0  0  0  0  0  0
   -2.6250   -6.3430   -1.3690 O   0  0  0  0  0  0  0  0  0  0  0  0
   -2.5120   -2.0030   -3.3570 C   0  0  0  0  0  0  0  0  0  0  0  0
   -3.2060   -1.0130   -3.0070 O   0  0  0  0  0  0  0  0  0  0  0  0
   -4.6040   -5.8310   -0.4060 O   0  0  0  0  0  0  0  0  0  0  0  0
   -2.7840   -2.5760   -4.5880 O   0  0  0  0  0  0  0  0  0  0  0  0
   -2.2620   -1.6530   -0.7210 H   0  0  0  0  0  0  0  0  0  0  0  0
   -0.4520   -2.5850   -2.9930 H   0  0  0  0  0  0  0  0  0  0  0  0
   -1.0070   -4.3660   -1.4580 H   0  0  0  0  0  0  0  0  0  0  0  0
   -1.8530   -4.5770   -3.0300 H   0  0  0  0  0  0  0  0  0  0  0  0
   -3.2060   -3.4350   -0.4990 H   0  0  0  0  0  0  0  0  0  0  0  0
   -3.9560   -3.6960   -2.0800 H   0  0  0  0  0  0  0  0  0  0  0  0
   -4.5610   -6.6250    0.2330 H   0  0  0  0  0  0  0  0  0  0  0  0
  1  8  1  0  0  0  0
  1 10  1  0  0  0  0
  2  1  1  0  0  0  0
  2 11  1  1  0  0  0
  2  4  1  0  0  0  0
  3  2  1  0  0  0  0
  4 13  1  6  0  0  0
  4  5  1  0  0  0  0
  5 15  1  0  0  0  0
  5 14  1  0  0  0  0
  6  4  1  0  0  0  0
  6  7  2  0  0  0  0
  9  1  1  0  0  0  0
 12  3  1  0  0  0  0
 16 28  1  0  0  0  0
 17 16  1  0  0  0  0
 18 29  1  0  0  0  0
 18 17  2  0  0  0  0
 19 18  1  0  0  0  0
 20 19  2  0  0  0  0
 20 26  1  0  0  0  0
 21 22  1  0  0  0  0
 21 20  1  0  0  0  0
 22 23  1  0  0  0  0
 22 33  1  1  0  0  0
 23  6  1  0  0  0  0
 24 22  1  0  0  0  0
 25 24  2  0  0  0  0
 26 27  2  0  0  0  0
 27 17  1  0  0  0  0
 27 36  1  0  0  0  0
 30 19  1  0  0  0  0
 31 21  1  0  0  0  0
 32 21  1  0  0  0  0
 34 23  1  0  0  0  0
 35 26  1  0  0  0  0
 37 24  1  0  0  0  0
 37 47  1  0  0  0  0
 38 48  1  6  0  0  0
 38 39  1  0  0  0  0
 38 37  1  0  0  0  0
 39 49  1  0  0  0  0
 39 40  1  0  0  0  0
 40 41  1  0  0  0  0
 40 51  1  0  0  0  0
 41 45  1  0  0  0  0
 42 41  2  0  0  0  0
 43 44  1  0  0  0  0
 43 38  1  0  0  0  0
 45 53  1  0  0  0  0
 46 43  2  0  0  0  0
 50 39  1  0  0  0  0
 52 40  1  0  0  0  0
M  END
$$$$
