TYF.pdb
 OpenBabel07022419153D

 57 58  0  0  1  0  0  0  0  0999 V2000
    1.7270   -1.7240    4.0550 C   0  0  0  0  0  0  0  0  0  0  0  0
    2.7120   -1.6510    2.9230 C   0  0  1  0  0  0  0  0  0  0  0  0
    2.2250   -2.2760    1.7820 O   0  0  0  0  0  0  0  0  0  0  0  0
    3.1280   -0.2160    2.6490 C   0  0  2  0  0  0  0  0  0  0  0  0
    3.6260    0.3420    3.9020 N   0  0  0  0  0  0  0  0  0  0  0  0
    2.0570    0.6120    2.0820 C   0  0  0  0  0  0  0  0  0  0  0  0
    1.6750    1.6290    2.7100 O   0  0  0  0  0  0  0  0  0  0  0  0
    0.8780   -2.3870    3.7330 H   0  0  0  0  0  0  0  0  0  0  0  0
    2.2230   -2.1390    4.9420 H   0  0  0  0  0  0  0  0  0  0  0  0
    1.3420   -0.7140    4.3320 H   0  0  0  0  0  0  0  0  0  0  0  0
    3.6580   -2.1870    3.2050 H   0  0  0  0  0  0  0  0  0  0  0  0
    1.4470   -2.8480    2.0190 H   0  0  0  0  0  0  0  0  0  0  0  0
    3.9650   -0.2610    1.9280 H   0  0  0  0  0  0  0  0  0  0  0  0
    2.8250    0.7150    4.4460 H   0  0  0  0  0  0  0  0  0  0  0  0
    4.0710   -0.4490    4.4180 H   0  0  0  0  0  0  0  0  0  0  0  0
   -2.8080    4.8270   -3.9110 O   0  0  0  0  0  0  0  0  0  0  0  0
   -1.8760    4.1060   -3.1590 C   0  0  0  0  0  0  0  0  0  0  0  0
   -1.7820    2.7470   -3.3800 C   0  0  0  0  0  0  0  0  0  0  0  0
   -0.8730    2.0400   -2.6470 C   0  0  0  0  0  0  0  0  0  0  0  0
   -0.0420    2.5980   -1.6990 C   0  0  0  0  0  0  0  0  0  0  0  0
    0.8850    1.7320   -0.9830 C   0  0  0  0  0  0  0  0  0  0  0  0
    0.3680    1.1360    0.2880 C   0  0  2  0  0  0  0  0  0  0  0  0
    1.4400    0.3030    0.8520 N   0  0  0  0  0  0  0  0  0  0  0  0
   -0.8840    0.3900    0.1460 C   0  0  0  0  0  0  0  0  0  0  0  0
   -1.8960    0.9770   -0.3190 O   0  0  0  0  0  0  0  0  0  0  0  0
   -0.1460    3.9560   -1.4870 C   0  0  0  0  0  0  0  0  0  0  0  0
   -1.0610    4.6990   -2.2180 C   0  0  0  0  0  0  0  0  0  0  0  0
   -2.7270    4.8400   -4.9210 H   0  0  0  0  0  0  0  0  0  0  0  0
   -2.4130    2.2340   -4.1210 H   0  0  0  0  0  0  0  0  0  0  0  0
   -0.8220    0.9580   -2.8480 H   0  0  0  0  0  0  0  0  0  0  0  0
    1.1880    0.8870   -1.6510 H   0  0  0  0  0  0  0  0  0  0  0  0
    1.8160    2.3010   -0.7870 H   0  0  0  0  0  0  0  0  0  0  0  0
    0.2080    1.9550    1.0070 H   0  0  0  0  0  0  0  0  0  0  0  0
    1.7490   -0.5460    0.3110 H   0  0  0  0  0  0  0  0  0  0  0  0
    0.4870    4.4460   -0.7490 H   0  0  0  0  0  0  0  0  0  0  0  0
   -1.1580    5.7630   -2.0670 H   0  0  0  0  0  0  0  0  0  0  0  0
   -1.0700   -0.9780    0.4950 N   0  0  0  0  0  0  0  0  0  0  0  0
   -2.3050   -1.6870    0.3470 C   0  0  1  0  0  0  0  0  0  0  0  0
   -2.2590   -2.7980   -0.6470 C   0  0  0  0  0  0  0  0  0  0  0  0
   -1.3110   -3.8620   -0.3960 C   0  0  0  0  0  0  0  0  0  0  0  0
   -1.7730   -4.9430    0.3690 C   0  0  0  0  0  0  0  0  0  0  0  0
   -0.9590   -6.0140    0.6720 C   0  0  0  0  0  0  0  0  0  0  0  0
    0.3500   -6.0560    0.2280 C   0  0  0  0  0  0  0  0  0  0  0  0
    0.8050   -4.9740   -0.5350 C   0  0  0  0  0  0  0  0  0  0  0  0
   -0.0150   -3.9120   -0.8300 C   0  0  0  0  0  0  0  0  0  0  0  0
   -2.9000   -2.0820    1.6450 C   0  0  0  0  0  0  0  0  0  0  0  0
   -3.9780   -2.7080    1.7360 O   0  0  0  0  0  0  0  0  0  0  0  0
   -2.2350   -1.7430    2.8080 O   0  0  0  0  0  0  0  0  0  0  0  0
   -0.2400   -1.4760    0.8820 H   0  0  0  0  0  0  0  0  0  0  0  0
   -3.0490   -0.9490   -0.0870 H   0  0  0  0  0  0  0  0  0  0  0  0
   -3.2810   -3.2200   -0.7400 H   0  0  0  0  0  0  0  0  0  0  0  0
   -2.0320   -2.3490   -1.6410 H   0  0  0  0  0  0  0  0  0  0  0  0
   -2.7850   -4.9810    0.7510 H   0  0  0  0  0  0  0  0  0  0  0  0
   -1.2870   -6.8650    1.2610 H   0  0  0  0  0  0  0  0  0  0  0  0
    1.0240   -6.8680    0.4370 H   0  0  0  0  0  0  0  0  0  0  0  0
    1.8090   -4.9900   -0.8840 H   0  0  0  0  0  0  0  0  0  0  0  0
    0.3450   -3.0830   -1.4190 H   0  0  0  0  0  0  0  0  0  0  0  0
  1 10  1  0  0  0  0
  1  9  1  0  0  0  0
  2 11  1  1  0  0  0
  2  1  1  0  0  0  0
  3 12  1  0  0  0  0
  3  2  1  0  0  0  0
  4 13  1  6  0  0  0
  4  2  1  0  0  0  0
  4  5  1  0  0  0  0
  5 15  1  0  0  0  0
  5 14  1  0  0  0  0
  6  4  1  0  0  0  0
  6  7  2  0  0  0  0
  8  1  1  0  0  0  0
 16 17  1  0  0  0  0
 17 27  1  0  0  0  0
 18 17  2  0  0  0  0
 18 19  1  0  0  0  0
 19 20  2  0  0  0  0
 20 26  1  0  0  0  0
 20 21  1  0  0  0  0
 21 32  1  0  0  0  0
 21 22  1  0  0  0  0
 22 23  1  0  0  0  0
 22 33  1  1  0  0  0
 23  6  1  0  0  0  0
 24 22  1  0  0  0  0
 24 37  1  0  0  0  0
 25 24  2  0  0  0  0
 26 35  1  0  0  0  0
 27 36  1  0  0  0  0
 27 26  2  0  0  0  0
 28 16  1  0  0  0  0
 29 18  1  0  0  0  0
 30 19  1  0  0  0  0
 31 21  1  0  0  0  0
 34 23  1  0  0  0  0
 37 49  1  0  0  0  0
 38 50  1  6  0  0  0
 38 37  1  0  0  0  0
 38 46  1  0  0  0  0
 39 40  1  0  0  0  0
 39 38  1  0  0  0  0
 40 41  1  0  0  0  0
 41 42  2  0  0  0  0
 41 53  1  0  0  0  0
 42 54  1  0  0  0  0
 43 55  1  0  0  0  0
 43 42  1  0  0  0  0
 44 43  2  0  0  0  0
 45 44  1  0  0  0  0
 45 40  2  0  0  0  0
 46 47  2  0  0  0  0
 46 48  1  0  0  0  0
 51 39  1  0  0  0  0
 52 39  1  0  0  0  0
 56 44  1  0  0  0  0
 57 45  1  0  0  0  0
M  END
$$$$
