TYG.pdb
 OpenBabel07022419143D

 44 44  0  0  1  0  0  0  0  0999 V2000
   -0.8750   -4.5500    1.9170 C   0  0  0  0  0  0  0  0  0  0  0  0
   -0.2280   -3.1850    1.9990 C   0  0  1  0  0  0  0  0  0  0  0  0
   -0.1270   -2.7450    3.3180 O   0  0  0  0  0  0  0  0  0  0  0  0
    1.2080   -3.3440    1.4940 C   0  0  2  0  0  0  0  0  0  0  0  0
    1.9240   -4.3070    2.2980 N   0  0  0  0  0  0  0  0  0  0  0  0
    1.9320   -2.0540    1.5250 C   0  0  0  0  0  0  0  0  0  0  0  0
    2.9950   -1.8800    2.1640 O   0  0  0  0  0  0  0  0  0  0  0  0
   -1.3120   -4.8610    2.9090 H   0  0  0  0  0  0  0  0  0  0  0  0
   -1.6480   -4.5750    1.1150 H   0  0  0  0  0  0  0  0  0  0  0  0
   -0.1460   -5.3460    1.6570 H   0  0  0  0  0  0  0  0  0  0  0  0
   -0.7190   -2.4380    1.3490 H   0  0  0  0  0  0  0  0  0  0  0  0
    0.6370   -3.2160    3.7160 H   0  0  0  0  0  0  0  0  0  0  0  0
    1.1300   -3.7420    0.4750 H   0  0  0  0  0  0  0  0  0  0  0  0
    2.7680   -3.8910    2.7020 H   0  0  0  0  0  0  0  0  0  0  0  0
    2.0270   -5.2290    1.8660 H   0  0  0  0  0  0  0  0  0  0  0  0
   -2.2330    1.8480   -3.5920 O   0  0  0  0  0  0  0  0  0  0  0  0
   -1.0900    1.6190   -2.8410 C   0  0  0  0  0  0  0  0  0  0  0  0
   -0.5920    2.6080   -2.0410 C   0  0  0  0  0  0  0  0  0  0  0  0
    0.5580    2.3810   -1.2830 C   0  0  0  0  0  0  0  0  0  0  0  0
    1.2390    1.1840   -1.2950 C   0  0  0  0  0  0  0  0  0  0  0  0
    2.4580    0.9570   -0.4750 C   0  0  0  0  0  0  0  0  0  0  0  0
    2.1400    0.3600    0.8270 C   0  0  2  0  0  0  0  0  0  0  0  0
    1.4750   -0.9040    0.8260 N   0  0  0  0  0  0  0  0  0  0  0  0
    1.2870    1.3100    1.5770 C   0  0  0  0  0  0  0  0  0  0  0  0
    1.5990    2.5050    1.8090 O   0  0  0  0  0  0  0  0  0  0  0  0
    0.7190    0.1950   -2.1120 C   0  0  0  0  0  0  0  0  0  0  0  0
   -0.4160    0.4200   -2.8590 C   0  0  0  0  0  0  0  0  0  0  0  0
   -2.9370    2.5140   -3.3280 H   0  0  0  0  0  0  0  0  0  0  0  0
   -1.0920    3.5570   -2.0020 H   0  0  0  0  0  0  0  0  0  0  0  0
    0.8800    3.2200   -0.6900 H   0  0  0  0  0  0  0  0  0  0  0  0
    3.2660    0.4750   -1.0540 H   0  0  0  0  0  0  0  0  0  0  0  0
    2.8620    1.9960   -0.2670 H   0  0  0  0  0  0  0  0  0  0  0  0
    3.0560    0.2210    1.4780 H   0  0  0  0  0  0  0  0  0  0  0  0
    0.5860   -0.9820    0.2680 H   0  0  0  0  0  0  0  0  0  0  0  0
    1.2260   -0.7580   -2.1480 H   0  0  0  0  0  0  0  0  0  0  0  0
   -0.8350   -0.3570   -3.5080 H   0  0  0  0  0  0  0  0  0  0  0  0
    0.0070    0.9140    2.1040 N   0  0  0  0  0  0  0  0  0  0  0  0
   -0.8300    1.8420    2.8380 C   0  0  0  0  0  0  0  0  0  0  0  0
   -2.0650    1.1440    3.2430 C   0  0  0  0  0  0  0  0  0  0  0  0
   -2.9450    1.7490    3.8930 O   0  0  0  0  0  0  0  0  0  0  0  0
   -2.2690   -0.1780    2.9140 O   0  0  0  0  0  0  0  0  0  0  0  0
   -0.2750   -0.0810    1.9220 H   0  0  0  0  0  0  0  0  0  0  0  0
   -0.2780    2.0920    3.7740 H   0  0  0  0  0  0  0  0  0  0  0  0
   -1.0440    2.7480    2.2370 H   0  0  0  0  0  0  0  0  0  0  0  0
  1  2  1  0  0  0  0
  1  8  1  0  0  0  0
  2 11  1  6  0  0  0
  2  3  1  0  0  0  0
  3 12  1  0  0  0  0
  4 13  1  6  0  0  0
  4  6  1  0  0  0  0
  4  2  1  0  0  0  0
  4  5  1  0  0  0  0
  5 14  1  0  0  0  0
  6  7  2  0  0  0  0
  9  1  1  0  0  0  0
 10  1  1  0  0  0  0
 15  5  1  0  0  0  0
 16 28  1  0  0  0  0
 16 17  1  0  0  0  0
 17 18  1  0  0  0  0
 18 29  1  0  0  0  0
 18 19  2  0  0  0  0
 19 30  1  0  0  0  0
 20 19  1  0  0  0  0
 20 21  1  0  0  0  0
 21 32  1  0  0  0  0
 21 22  1  0  0  0  0
 22 33  1  1  0  0  0
 22 24  1  0  0  0  0
 23 22  1  0  0  0  0
 23  6  1  0  0  0  0
 24 25  2  0  0  0  0
 24 37  1  0  0  0  0
 26 20  2  0  0  0  0
 27 17  2  0  0  0  0
 27 26  1  0  0  0  0
 31 21  1  0  0  0  0
 34 23  1  0  0  0  0
 35 26  1  0  0  0  0
 36 27  1  0  0  0  0
 37 38  1  0  0  0  0
 38 39  1  0  0  0  0
 38 43  1  0  0  0  0
 39 40  1  0  0  0  0
 41 39  2  0  0  0  0
 42 37  1  0  0  0  0
 44 38  1  0  0  0  0
M  END
$$$$
