TYH.pdb
 OpenBabel07022419143D

 54 55  0  0  1  0  0  0  0  0999 V2000
    2.0370   -0.5840    5.2160 C   0  0  0  0  0  0  0  0  0  0  0  0
    3.0660   -0.4350    4.1440 C   0  0  1  0  0  0  0  0  0  0  0  0
    4.3420   -0.7110    4.6410 O   0  0  0  0  0  0  0  0  0  0  0  0
    2.8440   -1.3510    2.9620 C   0  0  2  0  0  0  0  0  0  0  0  0
    3.8810   -1.0390    1.9970 N   0  0  0  0  0  0  0  0  0  0  0  0
    1.5280   -1.1450    2.3590 C   0  0  0  0  0  0  0  0  0  0  0  0
    0.4910   -1.3850    3.0480 O   0  0  0  0  0  0  0  0  0  0  0  0
    1.6980   -1.6170    5.3940 H   0  0  0  0  0  0  0  0  0  0  0  0
    2.4770   -0.2310    6.1940 H   0  0  0  0  0  0  0  0  0  0  0  0
    1.1560    0.1010    5.0550 H   0  0  0  0  0  0  0  0  0  0  0  0
    3.0700    0.6330    3.8370 H   0  0  0  0  0  0  0  0  0  0  0  0
    4.3090   -1.1110    5.5450 H   0  0  0  0  0  0  0  0  0  0  0  0
    3.0130   -2.4070    3.2880 H   0  0  0  0  0  0  0  0  0  0  0  0
    4.7220   -1.6390    2.1770 H   0  0  0  0  0  0  0  0  0  0  0  0
    4.1280   -0.0190    2.0550 H   0  0  0  0  0  0  0  0  0  0  0  0
    0.0250    3.7700    5.1570 O   0  0  0  0  0  0  0  0  0  0  0  0
    0.0160    3.0960    3.9250 C   0  0  0  0  0  0  0  0  0  0  0  0
    1.1750    2.9020    3.2090 C   0  0  0  0  0  0  0  0  0  0  0  0
    1.1770    2.2360    1.9880 C   0  0  0  0  0  0  0  0  0  0  0  0
    0.0080    1.7460    1.4520 C   0  0  0  0  0  0  0  0  0  0  0  0
   -0.0280    1.0310    0.1530 C   0  0  0  0  0  0  0  0  0  0  0  0
    0.1710   -0.4690    0.3940 C   0  0  2  0  0  0  0  0  0  0  0  0
    1.4320   -0.6830    1.0230 N   0  0  0  0  0  0  0  0  0  0  0  0
   -0.0310   -1.2390   -0.8400 C   0  0  0  0  0  0  0  0  0  0  0  0
    0.8170   -2.0260   -1.3350 O   0  0  0  0  0  0  0  0  0  0  0  0
   -1.1480    1.9430    2.1710 C   0  0  0  0  0  0  0  0  0  0  0  0
   -1.1550    2.6060    3.3890 C   0  0  0  0  0  0  0  0  0  0  0  0
   -0.2820    3.2410    5.9840 H   0  0  0  0  0  0  0  0  0  0  0  0
    2.1140    3.2750    3.6000 H   0  0  0  0  0  0  0  0  0  0  0  0
    2.0990    2.0790    1.4140 H   0  0  0  0  0  0  0  0  0  0  0  0
   -0.9880    1.1980   -0.3400 H   0  0  0  0  0  0  0  0  0  0  0  0
    0.8390    1.3520   -0.4630 H   0  0  0  0  0  0  0  0  0  0  0  0
   -0.6320   -0.7470    1.1070 H   0  0  0  0  0  0  0  0  0  0  0  0
    2.2970   -0.4770    0.4360 H   0  0  0  0  0  0  0  0  0  0  0  0
   -2.0880    1.5670    1.7730 H   0  0  0  0  0  0  0  0  0  0  0  0
   -2.0680    2.7600    3.9540 H   0  0  0  0  0  0  0  0  0  0  0  0
   -1.2630   -1.0960   -1.5340 N   0  0  0  0  0  0  0  0  0  0  0  0
   -1.5130   -1.8570   -2.7920 C   0  0  1  0  0  0  0  0  0  0  0  0
   -2.7050   -2.7530   -2.5460 C   0  0  0  0  0  0  0  0  0  0  0  0
   -3.0080   -3.5820   -3.7320 C   0  0  0  0  0  0  0  0  0  0  0  0
   -4.0700   -4.5010   -3.8110 C   0  0  0  0  0  0  0  0  0  0  0  0
   -4.0860   -5.0980   -5.0090 N   0  0  0  0  0  0  0  0  0  0  0  0
   -3.0530   -4.5770   -5.6950 C   0  0  0  0  0  0  0  0  0  0  0  0
   -2.4170   -3.6740   -4.9270 N   0  0  0  0  0  0  0  0  0  0  0  0
   -1.7740   -0.8330   -3.8210 C   0  0  0  0  0  0  0  0  0  0  0  0
   -1.9980   -1.1450   -4.9980 O   0  0  0  0  0  0  0  0  0  0  0  0
   -1.7740    0.5050   -3.4820 O   0  0  0  0  0  0  0  0  0  0  0  0
   -2.0390   -0.4760   -1.2190 H   0  0  0  0  0  0  0  0  0  0  0  0
   -0.6350   -2.4700   -3.0480 H   0  0  0  0  0  0  0  0  0  0  0  0
   -3.6000   -2.1200   -2.3620 H   0  0  0  0  0  0  0  0  0  0  0  0
   -2.4760   -3.4070   -1.6710 H   0  0  0  0  0  0  0  0  0  0  0  0
   -4.7620   -4.6790   -3.0010 H   0  0  0  0  0  0  0  0  0  0  0  0
   -4.7350   -5.8200   -5.3880 H   0  0  0  0  0  0  0  0  0  0  0  0
   -2.7230   -4.7970   -6.7110 H   0  0  0  0  0  0  0  0  0  0  0  0
  1  8  1  0  0  0  0
  1  9  1  0  0  0  0
  2 11  1  6  0  0  0
  2  3  1  0  0  0  0
  2  1  1  0  0  0  0
  3 12  1  0  0  0  0
  4 13  1  1  0  0  0
  4  2  1  0  0  0  0
  5 15  1  0  0  0  0
  5 14  1  0  0  0  0
  5  4  1  0  0  0  0
  6  4  1  0  0  0  0
  6  7  2  0  0  0  0
 10  1  1  0  0  0  0
 16 28  1  0  0  0  0
 17 16  1  0  0  0  0
 18 29  1  0  0  0  0
 18 17  2  0  0  0  0
 19 18  1  0  0  0  0
 20 19  2  0  0  0  0
 20 26  1  0  0  0  0
 21 22  1  0  0  0  0
 21 20  1  0  0  0  0
 22 23  1  0  0  0  0
 22 33  1  1  0  0  0
 23  6  1  0  0  0  0
 24 22  1  0  0  0  0
 25 24  2  0  0  0  0
 26 27  2  0  0  0  0
 27 17  1  0  0  0  0
 27 36  1  0  0  0  0
 30 19  1  0  0  0  0
 31 21  1  0  0  0  0
 32 21  1  0  0  0  0
 34 23  1  0  0  0  0
 35 26  1  0  0  0  0
 37 48  1  0  0  0  0
 37 24  1  0  0  0  0
 38 49  1  6  0  0  0
 38 39  1  0  0  0  0
 38 37  1  0  0  0  0
 39 50  1  0  0  0  0
 39 51  1  0  0  0  0
 40 39  1  0  0  0  0
 41 40  2  0  0  0  0
 41 52  1  0  0  0  0
 42 41  1  0  0  0  0
 43 42  1  0  0  0  0
 43 44  2  0  0  0  0
 44 40  1  0  0  0  0
 45 47  1  0  0  0  0
 45 38  1  0  0  0  0
 46 45  2  0  0  0  0
 53 42  1  0  0  0  0
 54 43  1  0  0  0  0
M  END
$$$$
