TYK.pdb
 OpenBabel07022419143D

 58 58  0  0  1  0  0  0  0  0999 V2000
    6.4270    0.4130    2.1420 C   0  0  0  0  0  0  0  0  0  0  0  0
    5.0650    0.9640    1.7780 C   0  0  1  0  0  0  0  0  0  0  0  0
    5.1020    1.4090    0.4620 O   0  0  0  0  0  0  0  0  0  0  0  0
    3.9740   -0.0740    2.0000 C   0  0  2  0  0  0  0  0  0  0  0  0
    4.1660   -1.2330    1.1710 N   0  0  0  0  0  0  0  0  0  0  0  0
    2.6740    0.5940    1.7530 C   0  0  0  0  0  0  0  0  0  0  0  0
    2.3750    1.6240    2.4100 O   0  0  0  0  0  0  0  0  0  0  0  0
    6.3530   -0.3260    2.9790 H   0  0  0  0  0  0  0  0  0  0  0  0
    7.1380    1.2090    2.4040 H   0  0  0  0  0  0  0  0  0  0  0  0
    6.8200   -0.1190    1.2690 H   0  0  0  0  0  0  0  0  0  0  0  0
    4.9060    1.8580    2.4090 H   0  0  0  0  0  0  0  0  0  0  0  0
    4.7150    0.6890   -0.0990 H   0  0  0  0  0  0  0  0  0  0  0  0
    4.0830   -0.4010    3.0610 H   0  0  0  0  0  0  0  0  0  0  0  0
    5.1790   -1.2790    0.9090 H   0  0  0  0  0  0  0  0  0  0  0  0
    3.9880   -2.1310    1.7030 H   0  0  0  0  0  0  0  0  0  0  0  0
   -4.4990    4.0540   -2.0420 O   0  0  0  0  0  0  0  0  0  0  0  0
   -3.3210    3.3800   -1.7400 C   0  0  0  0  0  0  0  0  0  0  0  0
   -2.2490    4.0250   -1.1600 C   0  0  0  0  0  0  0  0  0  0  0  0
   -1.0750    3.4060   -0.8460 C   0  0  0  0  0  0  0  0  0  0  0  0
   -0.9070    2.0560   -1.1080 C   0  0  0  0  0  0  0  0  0  0  0  0
    0.3410    1.3650   -0.8010 C   0  0  0  0  0  0  0  0  0  0  0  0
    0.4500    0.8130    0.5780 C   0  0  2  0  0  0  0  0  0  0  0  0
    1.7180    0.1410    0.8030 N   0  0  0  0  0  0  0  0  0  0  0  0
   -0.6980   -0.0170    0.9390 C   0  0  0  0  0  0  0  0  0  0  0  0
   -1.8530    0.4360    0.8420 O   0  0  0  0  0  0  0  0  0  0  0  0
   -1.9750    1.3830   -1.6940 C   0  0  0  0  0  0  0  0  0  0  0  0
   -3.1490    2.0350   -1.9990 C   0  0  0  0  0  0  0  0  0  0  0  0
   -5.3640    3.5960   -1.7280 H   0  0  0  0  0  0  0  0  0  0  0  0
   -2.3790    5.0960   -0.9510 H   0  0  0  0  0  0  0  0  0  0  0  0
   -0.2630    3.9680   -0.3890 H   0  0  0  0  0  0  0  0  0  0  0  0
    0.5820    0.5850   -1.5700 H   0  0  0  0  0  0  0  0  0  0  0  0
    1.1690    2.1260   -0.9200 H   0  0  0  0  0  0  0  0  0  0  0  0
    0.4410    1.6960    1.2840 H   0  0  0  0  0  0  0  0  0  0  0  0
    1.9770   -0.7180    0.2620 H   0  0  0  0  0  0  0  0  0  0  0  0
   -1.8510    0.3160   -1.9040 H   0  0  0  0  0  0  0  0  0  0  0  0
   -3.9870    1.5030   -2.4600 H   0  0  0  0  0  0  0  0  0  0  0  0
   -0.5840   -1.3620    1.4140 N   0  0  0  0  0  0  0  0  0  0  0  0
   -1.7780   -2.1430    1.7610 C   0  0  1  0  0  0  0  0  0  0  0  0
   -1.7230   -3.3570    0.8200 C   0  0  0  0  0  0  0  0  0  0  0  0
   -2.8650   -4.2940    0.9930 C   0  0  0  0  0  0  0  0  0  0  0  0
   -2.7670   -5.4770    0.0850 C   0  0  0  0  0  0  0  0  0  0  0  0
   -2.7530   -5.2070   -1.3760 C   0  0  0  0  0  0  0  0  0  0  0  0
   -1.6470   -4.4170   -1.8530 N   0  0  0  0  0  0  0  0  0  0  0  0
   -1.6420   -2.5670    3.1710 C   0  0  0  0  0  0  0  0  0  0  0  0
   -2.5450   -3.2110    3.7600 O   0  0  0  0  0  0  0  0  0  0  0  0
   -0.4770   -2.2520    3.8990 O   0  0  0  0  0  0  0  0  0  0  0  0
    0.3790   -1.7450    1.4970 H   0  0  0  0  0  0  0  0  0  0  0  0
   -2.6910   -1.5610    1.6070 H   0  0  0  0  0  0  0  0  0  0  0  0
   -1.8480   -2.8890   -0.2060 H   0  0  0  0  0  0  0  0  0  0  0  0
   -0.7410   -3.8300    0.8900 H   0  0  0  0  0  0  0  0  0  0  0  0
   -3.0190   -4.6230    2.0640 H   0  0  0  0  0  0  0  0  0  0  0  0
   -3.8350   -3.7810    0.7480 H   0  0  0  0  0  0  0  0  0  0  0  0
   -3.6290   -6.1640    0.3450 H   0  0  0  0  0  0  0  0  0  0  0  0
   -1.8570   -6.1000    0.3060 H   0  0  0  0  0  0  0  0  0  0  0  0
   -3.7120   -4.6990   -1.7070 H   0  0  0  0  0  0  0  0  0  0  0  0
   -2.6840   -6.1870   -1.9310 H   0  0  0  0  0  0  0  0  0  0  0  0
   -0.8130   -4.9800   -2.0930 H   0  0  0  0  0  0  0  0  0  0  0  0
   -1.9290   -3.7660   -2.6300 H   0  0  0  0  0  0  0  0  0  0  0  0
  1  9  1  0  0  0  0
  1  8  1  0  0  0  0
  2  4  1  0  0  0  0
  2  1  1  0  0  0  0
  2 11  1  1  0  0  0
  3  2  1  0  0  0  0
  4 13  1  1  0  0  0
  5 15  1  0  0  0  0
  5  4  1  0  0  0  0
  6  4  1  0  0  0  0
  6  7  2  0  0  0  0
 10  1  1  0  0  0  0
 12  3  1  0  0  0  0
 14  5  1  0  0  0  0
 16 17  1  0  0  0  0
 16 28  1  0  0  0  0
 17 18  1  0  0  0  0
 18 29  1  0  0  0  0
 18 19  2  0  0  0  0
 19 30  1  0  0  0  0
 20 19  1  0  0  0  0
 20 21  1  0  0  0  0
 21 22  1  0  0  0  0
 22 23  1  0  0  0  0
 22 24  1  0  0  0  0
 22 33  1  1  0  0  0
 23  6  1  0  0  0  0
 24 37  1  0  0  0  0
 25 24  2  0  0  0  0
 26 20  2  0  0  0  0
 27 17  2  0  0  0  0
 27 26  1  0  0  0  0
 31 21  1  0  0  0  0
 32 21  1  0  0  0  0
 34 23  1  0  0  0  0
 35 26  1  0  0  0  0
 36 27  1  0  0  0  0
 37 47  1  0  0  0  0
 37 38  1  0  0  0  0
 38 48  1  6  0  0  0
 38 44  1  0  0  0  0
 39 50  1  0  0  0  0
 39 40  1  0  0  0  0
 39 38  1  0  0  0  0
 40 51  1  0  0  0  0
 41 54  1  0  0  0  0
 41 53  1  0  0  0  0
 41 40  1  0  0  0  0
 42 41  1  0  0  0  0
 43 42  1  0  0  0  0
 44 45  2  0  0  0  0
 44 46  1  0  0  0  0
 49 39  1  0  0  0  0
 52 40  1  0  0  0  0
 55 42  1  0  0  0  0
 56 42  1  0  0  0  0
 57 43  1  0  0  0  0
 58 43  1  0  0  0  0
M  END
$$$$
