TYN.pdb
 OpenBabel07022419143D

 51 51  0  0  1  0  0  0  0  0999 V2000
    5.0220   -4.6010    0.8780 C   0  0  0  0  0  0  0  0  0  0  0  0
    3.8130   -3.6760    0.7530 C   0  0  1  0  0  0  0  0  0  0  0  0
    3.2440   -3.9720   -0.4880 O   0  0  0  0  0  0  0  0  0  0  0  0
    2.8290   -3.9460    1.8430 C   0  0  2  0  0  0  0  0  0  0  0  0
    2.4140   -5.3340    1.8570 N   0  0  0  0  0  0  0  0  0  0  0  0
    1.6170   -3.0920    1.7480 C   0  0  0  0  0  0  0  0  0  0  0  0
    0.4610   -3.6070    1.7370 O   0  0  0  0  0  0  0  0  0  0  0  0
    5.4370   -4.6100    1.8960 H   0  0  0  0  0  0  0  0  0  0  0  0
    5.8400   -4.2610    0.1850 H   0  0  0  0  0  0  0  0  0  0  0  0
    4.7890   -5.6300    0.5550 H   0  0  0  0  0  0  0  0  0  0  0  0
    4.1400   -2.6240    0.7950 H   0  0  0  0  0  0  0  0  0  0  0  0
    3.6710   -3.3620   -1.1600 H   0  0  0  0  0  0  0  0  0  0  0  0
    3.3570   -3.7780    2.8280 H   0  0  0  0  0  0  0  0  0  0  0  0
    1.3680   -5.4260    1.8210 H   0  0  0  0  0  0  0  0  0  0  0  0
    2.8020   -5.7860    0.9980 H   0  0  0  0  0  0  0  0  0  0  0  0
   -4.1020    3.5420    2.7420 O   0  0  0  0  0  0  0  0  0  0  0  0
   -2.9790    2.7310    2.7020 C   0  0  0  0  0  0  0  0  0  0  0  0
   -3.1040    1.4180    3.1560 C   0  0  0  0  0  0  0  0  0  0  0  0
   -2.0530    0.5340    3.1580 C   0  0  0  0  0  0  0  0  0  0  0  0
   -0.8160    0.9230    2.7030 C   0  0  0  0  0  0  0  0  0  0  0  0
    0.3700    0.0630    2.7310 C   0  0  0  0  0  0  0  0  0  0  0  0
    0.4590   -0.8480    1.5740 C   0  0  2  0  0  0  0  0  0  0  0  0
    1.6750   -1.6800    1.6650 N   0  0  0  0  0  0  0  0  0  0  0  0
    0.3710   -0.2910    0.2270 C   0  0  0  0  0  0  0  0  0  0  0  0
    1.3820   -0.4040   -0.5480 O   0  0  0  0  0  0  0  0  0  0  0  0
   -0.6840    2.2400    2.2450 C   0  0  0  0  0  0  0  0  0  0  0  0
   -1.7400    3.1210    2.2450 C   0  0  0  0  0  0  0  0  0  0  0  0
   -5.0280    3.2060    2.4390 H   0  0  0  0  0  0  0  0  0  0  0  0
   -4.0790    1.0950    3.5210 H   0  0  0  0  0  0  0  0  0  0  0  0
   -2.1440   -0.4870    3.5090 H   0  0  0  0  0  0  0  0  0  0  0  0
    0.2540   -0.5870    3.6450 H   0  0  0  0  0  0  0  0  0  0  0  0
    1.2510    0.7380    2.8530 H   0  0  0  0  0  0  0  0  0  0  0  0
   -0.3980   -1.5770    1.6520 H   0  0  0  0  0  0  0  0  0  0  0  0
    2.6040   -1.2280    1.6690 H   0  0  0  0  0  0  0  0  0  0  0  0
    0.2990    2.5550    1.8820 H   0  0  0  0  0  0  0  0  0  0  0  0
   -1.6250    4.1550    1.8810 H   0  0  0  0  0  0  0  0  0  0  0  0
   -3.9390   -0.8830   -2.7770 N   0  0  0  0  0  0  0  0  0  0  0  0
   -3.0180   -0.0360   -2.0590 C   0  0  0  0  0  0  0  0  0  0  0  0
   -3.4580    0.6220   -1.0910 O   0  0  0  0  0  0  0  0  0  0  0  0
   -1.6190   -0.0190   -2.5330 C   0  0  0  0  0  0  0  0  0  0  0  0
   -0.7220    0.8800   -1.7000 C   0  0  2  0  0  0  0  0  0  0  0  0
   -0.7410    0.3700   -0.3330 N   0  0  0  0  0  0  0  0  0  0  0  0
   -1.0600    2.2860   -1.8440 C   0  0  0  0  0  0  0  0  0  0  0  0
   -1.3580    3.0840   -0.9270 O   0  0  0  0  0  0  0  0  0  0  0  0
   -1.0570    2.8190   -3.1360 O   0  0  0  0  0  0  0  0  0  0  0  0
   -4.4300   -1.6760   -2.3220 H   0  0  0  0  0  0  0  0  0  0  0  0
   -4.1260   -0.7030   -3.7860 H   0  0  0  0  0  0  0  0  0  0  0  0
   -1.2490   -1.0830   -2.4490 H   0  0  0  0  0  0  0  0  0  0  0  0
   -1.5330    0.2160   -3.6210 H   0  0  0  0  0  0  0  0  0  0  0  0
    0.3040    0.7210   -2.1530 H   0  0  0  0  0  0  0  0  0  0  0  0
   -1.5880    0.4740    0.2570 H   0  0  0  0  0  0  0  0  0  0  0  0
  1  8  1  0  0  0  0
  2 11  1  1  0  0  0
  2  1  1  0  0  0  0
  2  4  1  0  0  0  0
  3  2  1  0  0  0  0
  4  5  1  0  0  0  0
  4 13  1  1  0  0  0
  6  4  1  0  0  0  0
  7  6  2  0  0  0  0
  9  1  1  0  0  0  0
 10  1  1  0  0  0  0
 12  3  1  0  0  0  0
 14  5  1  0  0  0  0
 15  5  1  0  0  0  0
 17 16  1  0  0  0  0
 17 18  1  0  0  0  0
 18 19  2  0  0  0  0
 18 29  1  0  0  0  0
 19 30  1  0  0  0  0
 20 21  1  0  0  0  0
 20 19  1  0  0  0  0
 21 32  1  0  0  0  0
 21 31  1  0  0  0  0
 22 33  1  1  0  0  0
 22 23  1  0  0  0  0
 22 21  1  0  0  0  0
 23 34  1  0  0  0  0
 23  6  1  0  0  0  0
 24 22  1  0  0  0  0
 25 24  2  0  0  0  0
 26 20  2  0  0  0  0
 27 26  1  0  0  0  0
 27 17  2  0  0  0  0
 28 16  1  0  0  0  0
 35 26  1  0  0  0  0
 36 27  1  0  0  0  0
 37 46  1  0  0  0  0
 37 38  1  0  0  0  0
 38 39  2  0  0  0  0
 40 48  1  0  0  0  0
 40 38  1  0  0  0  0
 40 41  1  0  0  0  0
 41 50  1  6  0  0  0
 41 42  1  0  0  0  0
 42 24  1  0  0  0  0
 42 51  1  0  0  0  0
 43 41  1  0  0  0  0
 43 44  1  0  0  0  0
 45 43  2  0  0  0  0
 47 37  1  0  0  0  0
 49 40  1  0  0  0  0
M  END
$$$$
