TYP.pdb
 OpenBabel07022419153D

 51 52  0  0  1  0  0  0  0  0999 V2000
   -1.9340    0.8320    4.2000 C   0  0  0  0  0  0  0  0  0  0  0  0
   -0.6640    1.1000    4.9270 C   0  0  1  0  0  0  0  0  0  0  0  0
   -0.8260    0.8100    6.2770 O   0  0  0  0  0  0  0  0  0  0  0  0
    0.5320    0.3080    4.4350 C   0  0  2  0  0  0  0  0  0  0  0  0
    1.6740    0.7730    5.2290 N   0  0  0  0  0  0  0  0  0  0  0  0
    0.7690    0.5110    3.0000 C   0  0  0  0  0  0  0  0  0  0  0  0
    1.4920    1.4200    2.5770 O   0  0  0  0  0  0  0  0  0  0  0  0
   -2.4040   -0.1320    4.4610 H   0  0  0  0  0  0  0  0  0  0  0  0
   -1.7900    0.9590    3.0880 H   0  0  0  0  0  0  0  0  0  0  0  0
   -2.7170    1.6140    4.4340 H   0  0  0  0  0  0  0  0  0  0  0  0
   -0.4110    2.1920    4.8960 H   0  0  0  0  0  0  0  0  0  0  0  0
   -1.7380    0.4690    6.4670 H   0  0  0  0  0  0  0  0  0  0  0  0
    0.3800   -0.7470    4.6650 H   0  0  0  0  0  0  0  0  0  0  0  0
    1.3920    0.5840    6.2310 H   0  0  0  0  0  0  0  0  0  0  0  0
    2.5320    0.2250    5.0030 H   0  0  0  0  0  0  0  0  0  0  0  0
    3.0990    0.4170   -5.1620 O   0  0  0  0  0  0  0  0  0  0  0  0
    2.8070    0.1680   -3.8220 C   0  0  0  0  0  0  0  0  0  0  0  0
    2.3290   -1.0470   -3.3870 C   0  0  0  0  0  0  0  0  0  0  0  0
    2.0340   -1.3150   -2.0660 C   0  0  0  0  0  0  0  0  0  0  0  0
    2.2220   -0.3190   -1.1130 C   0  0  0  0  0  0  0  0  0  0  0  0
    1.8990   -0.5710    0.3200 C   0  0  0  0  0  0  0  0  0  0  0  0
    0.4270   -0.1140    0.6200 C   0  0  2  0  0  0  0  0  0  0  0  0
    0.1580   -0.3700    1.9950 N   0  0  0  0  0  0  0  0  0  0  0  0
   -0.4210   -0.6770   -0.4090 C   0  0  0  0  0  0  0  0  0  0  0  0
   -0.6140    0.0370   -1.4920 O   0  0  0  0  0  0  0  0  0  0  0  0
    2.6930    0.8920   -1.5180 C   0  0  0  0  0  0  0  0  0  0  0  0
    2.9820    1.1370   -2.8440 C   0  0  0  0  0  0  0  0  0  0  0  0
    4.0280    0.7740   -5.3590 H   0  0  0  0  0  0  0  0  0  0  0  0
    2.1820   -1.8330   -4.1300 H   0  0  0  0  0  0  0  0  0  0  0  0
    1.6580   -2.2810   -1.7460 H   0  0  0  0  0  0  0  0  0  0  0  0
    2.6090   -0.0070    0.9360 H   0  0  0  0  0  0  0  0  0  0  0  0
    1.9700   -1.6300    0.5400 H   0  0  0  0  0  0  0  0  0  0  0  0
    0.5290    0.9860    0.4880 H   0  0  0  0  0  0  0  0  0  0  0  0
   -0.4390   -1.0820    2.4330 H   0  0  0  0  0  0  0  0  0  0  0  0
    2.8530    1.6980   -0.7850 H   0  0  0  0  0  0  0  0  0  0  0  0
    3.3590    2.1010   -3.1550 H   0  0  0  0  0  0  0  0  0  0  0  0
   -1.1000   -1.9110   -0.4540 N   0  0  0  0  0  0  0  0  0  0  0  0
   -0.8810   -2.9970    0.5710 C   0  0  0  0  0  0  0  0  0  0  0  0
   -2.2870   -3.1480    1.0330 C   0  0  0  0  0  0  0  0  0  0  0  0
   -3.1550   -2.9040   -0.2020 C   0  0  0  0  0  0  0  0  0  0  0  0
   -2.0860   -2.5280   -1.2620 C   0  0  1  0  0  0  0  0  0  0  0  0
   -2.6770   -1.8820   -2.3990 C   0  0  0  0  0  0  0  0  0  0  0  0
   -3.5740   -2.5780   -3.0470 O   0  0  0  0  0  0  0  0  0  0  0  0
   -2.4480   -0.6520   -2.9120 O   0  0  0  0  0  0  0  0  0  0  0  0
   -0.1290   -2.7990    1.2710 H   0  0  0  0  0  0  0  0  0  0  0  0
   -0.5780   -3.8980   -0.0660 H   0  0  0  0  0  0  0  0  0  0  0  0
   -2.5170   -2.3800    1.8060 H   0  0  0  0  0  0  0  0  0  0  0  0
   -2.4520   -4.1790    1.4030 H   0  0  0  0  0  0  0  0  0  0  0  0
   -3.6750   -3.8330   -0.4710 H   0  0  0  0  0  0  0  0  0  0  0  0
   -3.7870   -2.0370   -0.0130 H   0  0  0  0  0  0  0  0  0  0  0  0
   -1.6600   -3.5340   -1.5850 H   0  0  0  0  0  0  0  0  0  0  0  0
  1 10  1  0  0  0  0
  1  8  1  0  0  0  0
  1  2  1  0  0  0  0
  2 11  1  6  0  0  0
  2  3  1  0  0  0  0
  3 12  1  0  0  0  0
  4 13  1  1  0  0  0
  4  2  1  0  0  0  0
  4  5  1  0  0  0  0
  5 14  1  0  0  0  0
  6  4  1  0  0  0  0
  7  6  2  0  0  0  0
  9  1  1  0  0  0  0
 15  5  1  0  0  0  0
 16 17  1  0  0  0  0
 17 18  2  0  0  0  0
 17 27  1  0  0  0  0
 18 19  1  0  0  0  0
 19 30  1  0  0  0  0
 19 20  2  0  0  0  0
 20 21  1  0  0  0  0
 21 32  1  0  0  0  0
 21 22  1  0  0  0  0
 21 31  1  0  0  0  0
 22 33  1  6  0  0  0
 22 23  1  0  0  0  0
 23 34  1  0  0  0  0
 23  6  1  0  0  0  0
 24 22  1  0  0  0  0
 25 24  2  0  0  0  0
 26 20  1  0  0  0  0
 26 35  1  0  0  0  0
 27 26  2  0  0  0  0
 28 16  1  0  0  0  0
 29 18  1  0  0  0  0
 36 27  1  0  0  0  0
 37 24  1  0  0  0  0
 37 38  1  0  0  0  0
 38 39  1  0  0  0  0
 38 45  1  0  0  0  0
 39 48  1  0  0  0  0
 39 47  1  0  0  0  0
 40 50  1  0  0  0  0
 40 39  1  0  0  0  0
 41 51  1  6  0  0  0
 41 37  1  0  0  0  0
 41 40  1  0  0  0  0
 42 41  1  0  0  0  0
 43 42  2  0  0  0  0
 44 42  1  0  0  0  0
 46 38  1  0  0  0  0
 49 40  1  0  0  0  0
M  END
$$$$
