TYQ.pdb
 OpenBabel07022419143D

 54 54  0  0  1  0  0  0  0  0999 V2000
    5.2040   -0.8570   -0.6720 C   0  0  0  0  0  0  0  0  0  0  0  0
    5.1460   -1.4650    0.7100 C   0  0  1  0  0  0  0  0  0  0  0  0
    5.6040   -0.6010    1.6970 O   0  0  0  0  0  0  0  0  0  0  0  0
    3.8160   -2.0650    1.0250 C   0  0  2  0  0  0  0  0  0  0  0  0
    3.4350   -2.9410   -0.0580 N   0  0  0  0  0  0  0  0  0  0  0  0
    2.7720   -1.0830    1.3600 C   0  0  0  0  0  0  0  0  0  0  0  0
    3.0200   -0.2760    2.2960 O   0  0  0  0  0  0  0  0  0  0  0  0
    6.1980   -1.0500   -1.1660 H   0  0  0  0  0  0  0  0  0  0  0  0
    4.4540   -1.3960   -1.2950 H   0  0  0  0  0  0  0  0  0  0  0  0
    5.0690    0.2310   -0.6820 H   0  0  0  0  0  0  0  0  0  0  0  0
    5.8870   -2.3180    0.6960 H   0  0  0  0  0  0  0  0  0  0  0  0
    5.1900    0.2670    1.5480 H   0  0  0  0  0  0  0  0  0  0  0  0
    3.9550   -2.7230    1.9260 H   0  0  0  0  0  0  0  0  0  0  0  0
    4.2830   -3.5350   -0.2660 H   0  0  0  0  0  0  0  0  0  0  0  0
    2.7090   -3.6070    0.2760 H   0  0  0  0  0  0  0  0  0  0  0  0
   -3.4360    4.9900    0.5600 O   0  0  0  0  0  0  0  0  0  0  0  0
   -2.5070    3.9630    0.3750 C   0  0  0  0  0  0  0  0  0  0  0  0
   -2.8960    2.7750   -0.2060 C   0  0  0  0  0  0  0  0  0  0  0  0
   -1.9660    1.7730   -0.3800 C   0  0  0  0  0  0  0  0  0  0  0  0
   -0.6440    1.9710    0.0330 C   0  0  0  0  0  0  0  0  0  0  0  0
    0.3690    0.9030   -0.1410 C   0  0  0  0  0  0  0  0  0  0  0  0
    0.5040    0.0030    1.0640 C   0  0  2  0  0  0  0  0  0  0  0  0
    1.5230   -0.9730    0.7210 N   0  0  0  0  0  0  0  0  0  0  0  0
   -0.7950   -0.6440    1.3620 C   0  0  0  0  0  0  0  0  0  0  0  0
   -1.8120    0.0040    1.7120 O   0  0  0  0  0  0  0  0  0  0  0  0
   -0.2380    3.1570    0.6170 C   0  0  0  0  0  0  0  0  0  0  0  0
   -1.1900    4.1390    0.7770 C   0  0  0  0  0  0  0  0  0  0  0  0
   -4.0220    4.9160    1.3830 H   0  0  0  0  0  0  0  0  0  0  0  0
   -3.9260    2.6610   -0.5100 H   0  0  0  0  0  0  0  0  0  0  0  0
   -2.2890    0.8420   -0.8430 H   0  0  0  0  0  0  0  0  0  0  0  0
    1.3360    1.4130   -0.3700 H   0  0  0  0  0  0  0  0  0  0  0  0
    0.0400    0.3100   -1.0410 H   0  0  0  0  0  0  0  0  0  0  0  0
    0.8410    0.6600    1.9050 H   0  0  0  0  0  0  0  0  0  0  0  0
    1.3200   -1.6400   -0.0520 H   0  0  0  0  0  0  0  0  0  0  0  0
    0.8050    3.3030    0.9380 H   0  0  0  0  0  0  0  0  0  0  0  0
   -0.8630    5.0800    1.2420 H   0  0  0  0  0  0  0  0  0  0  0  0
   -4.2370   -0.8900   -1.8620 N   0  0  0  0  0  0  0  0  0  0  0  0
   -3.9780   -1.7110   -0.7240 C   0  0  0  0  0  0  0  0  0  0  0  0
   -4.6480   -1.4610    0.3060 O   0  0  0  0  0  0  0  0  0  0  0  0
   -2.9680   -2.7570   -0.8620 C   0  0  0  0  0  0  0  0  0  0  0  0
   -2.7090   -3.5510    0.3840 C   0  0  0  0  0  0  0  0  0  0  0  0
   -2.2110   -2.7350    1.5470 C   0  0  2  0  0  0  0  0  0  0  0  0
   -0.9740   -2.0630    1.2690 N   0  0  0  0  0  0  0  0  0  0  0  0
   -2.0170   -3.6270    2.7170 C   0  0  0  0  0  0  0  0  0  0  0  0
   -2.9170   -4.3510    3.2040 O   0  0  0  0  0  0  0  0  0  0  0  0
   -0.7720   -3.6720    3.3150 O   0  0  0  0  0  0  0  0  0  0  0  0
   -5.2200   -0.5740   -2.0620 H   0  0  0  0  0  0  0  0  0  0  0  0
   -3.5070   -0.5750   -2.5230 H   0  0  0  0  0  0  0  0  0  0  0  0
   -2.0200   -2.2710   -1.1830 H   0  0  0  0  0  0  0  0  0  0  0  0
   -3.3280   -3.4760   -1.6310 H   0  0  0  0  0  0  0  0  0  0  0  0
   -2.0780   -4.4140    0.1540 H   0  0  0  0  0  0  0  0  0  0  0  0
   -3.7090   -3.9660    0.7060 H   0  0  0  0  0  0  0  0  0  0  0  0
   -3.0240   -2.0370    1.8410 H   0  0  0  0  0  0  0  0  0  0  0  0
   -0.1420   -2.6200    0.9800 H   0  0  0  0  0  0  0  0  0  0  0  0
  1  2  1  0  0  0  0
  2 11  1  6  0  0  0
  2  4  1  0  0  0  0
  2  3  1  0  0  0  0
  4  6  1  0  0  0  0
  4 13  1  1  0  0  0
  5 15  1  0  0  0  0
  5  4  1  0  0  0  0
  6  7  2  0  0  0  0
  8  1  1  0  0  0  0
  9  1  1  0  0  0  0
 10  1  1  0  0  0  0
 12  3  1  0  0  0  0
 14  5  1  0  0  0  0
 16 28  1  0  0  0  0
 17 16  1  0  0  0  0
 17 27  1  0  0  0  0
 18 17  2  0  0  0  0
 19 18  1  0  0  0  0
 19 20  2  0  0  0  0
 20 26  1  0  0  0  0
 21 20  1  0  0  0  0
 21 22  1  0  0  0  0
 22 24  1  0  0  0  0
 22 33  1  1  0  0  0
 23 22  1  0  0  0  0
 23  6  1  0  0  0  0
 24 25  2  0  0  0  0
 26 27  2  0  0  0  0
 26 35  1  0  0  0  0
 27 36  1  0  0  0  0
 29 18  1  0  0  0  0
 30 19  1  0  0  0  0
 31 21  1  0  0  0  0
 32 21  1  0  0  0  0
 34 23  1  0  0  0  0
 37 38  1  0  0  0  0
 38 39  2  0  0  0  0
 40 38  1  0  0  0  0
 40 41  1  0  0  0  0
 41 52  1  0  0  0  0
 41 42  1  0  0  0  0
 42 53  1  1  0  0  0
 42 44  1  0  0  0  0
 43 24  1  0  0  0  0
 43 42  1  0  0  0  0
 44 45  2  0  0  0  0
 44 46  1  0  0  0  0
 47 37  1  0  0  0  0
 48 37  1  0  0  0  0
 49 40  1  0  0  0  0
 50 40  1  0  0  0  0
 51 41  1  0  0  0  0
 54 43  1  0  0  0  0
M  END
$$$$
