TYR.pdb
 OpenBabel07022419143D

 60 60  0  0  1  0  0  0  0  0999 V2000
    3.6630    1.1690    0.4640 C   0  0  0  0  0  0  0  0  0  0  0  0
    2.7690    0.9940   -0.7390 C   0  0  1  0  0  0  0  0  0  0  0  0
    2.4880   -0.3350   -0.9000 O   0  0  0  0  0  0  0  0  0  0  0  0
    1.5610    1.9000   -0.6790 C   0  0  2  0  0  0  0  0  0  0  0  0
    2.0450    3.2690   -0.5270 N   0  0  0  0  0  0  0  0  0  0  0  0
    0.7490    1.5830    0.5090 C   0  0  0  0  0  0  0  0  0  0  0  0
    0.6630    2.3960    1.4410 O   0  0  0  0  0  0  0  0  0  0  0  0
    3.1140    1.5810    1.3460 H   0  0  0  0  0  0  0  0  0  0  0  0
    4.4830    1.9200    0.2720 H   0  0  0  0  0  0  0  0  0  0  0  0
    4.1740    0.2350    0.7660 H   0  0  0  0  0  0  0  0  0  0  0  0
    3.3650    1.3440   -1.6270 H   0  0  0  0  0  0  0  0  0  0  0  0
    3.0050   -0.7750   -1.6150 H   0  0  0  0  0  0  0  0  0  0  0  0
    0.9880    1.8010   -1.6270 H   0  0  0  0  0  0  0  0  0  0  0  0
    2.2190    3.3950    0.5050 H   0  0  0  0  0  0  0  0  0  0  0  0
    2.9640    3.3170   -1.0040 H   0  0  0  0  0  0  0  0  0  0  0  0
   -4.6080    4.2600   -1.1500 O   0  0  0  0  0  0  0  0  0  0  0  0
   -4.0350    3.2210   -0.4310 C   0  0  0  0  0  0  0  0  0  0  0  0
   -3.9970    3.1950    0.9560 C   0  0  0  0  0  0  0  0  0  0  0  0
   -3.4270    2.1630    1.6640 C   0  0  0  0  0  0  0  0  0  0  0  0
   -2.8800    1.1260    0.9860 C   0  0  0  0  0  0  0  0  0  0  0  0
   -2.2370   -0.0500    1.6040 C   0  0  0  0  0  0  0  0  0  0  0  0
   -0.7660    0.1100    1.8590 C   0  0  2  0  0  0  0  0  0  0  0  0
    0.0150    0.3600    0.6860 N   0  0  0  0  0  0  0  0  0  0  0  0
   -0.3270   -1.1550    2.4750 C   0  0  0  0  0  0  0  0  0  0  0  0
   -0.8440   -1.5890    3.5610 O   0  0  0  0  0  0  0  0  0  0  0  0
   -2.9140    1.1460   -0.3940 C   0  0  0  0  0  0  0  0  0  0  0  0
   -3.4800    2.1720   -1.1250 C   0  0  0  0  0  0  0  0  0  0  0  0
   -4.0350    4.9160   -1.6700 H   0  0  0  0  0  0  0  0  0  0  0  0
   -4.4490    4.0500    1.4440 H   0  0  0  0  0  0  0  0  0  0  0  0
   -3.4060    2.1590    2.7390 H   0  0  0  0  0  0  0  0  0  0  0  0
   -2.7340   -0.1780    2.5880 H   0  0  0  0  0  0  0  0  0  0  0  0
   -2.4020   -0.9420    1.0010 H   0  0  0  0  0  0  0  0  0  0  0  0
   -0.6130    0.9840    2.5510 H   0  0  0  0  0  0  0  0  0  0  0  0
    0.0950   -0.3190   -0.1020 H   0  0  0  0  0  0  0  0  0  0  0  0
   -2.4750    0.3150   -0.9740 H   0  0  0  0  0  0  0  0  0  0  0  0
   -3.4740    2.1270   -2.2170 H   0  0  0  0  0  0  0  0  0  0  0  0
    0.1220   -3.7400   -2.7540 N   0  0  0  0  0  0  0  0  0  0  0  0
   -0.7480   -4.3470   -1.8220 C   0  0  0  0  0  0  0  0  0  0  0  0
   -1.9720   -3.9400   -1.7760 N   0  0  0  0  0  0  0  0  0  0  0  0
   -0.3250   -5.3780   -0.9440 N   0  0  0  0  0  0  0  0  0  0  0  0
   -0.9640   -5.5740    0.3340 C   0  0  0  0  0  0  0  0  0  0  0  0
   -0.6840   -4.4310    1.2860 C   0  0  0  0  0  0  0  0  0  0  0  0
    0.8040   -4.3230    1.5110 C   0  0  0  0  0  0  0  0  0  0  0  0
    1.1540   -3.1990    2.4610 C   0  0  2  0  0  0  0  0  0  0  0  0
    0.6800   -1.9450    1.8990 N   0  0  0  0  0  0  0  0  0  0  0  0
    2.6170   -3.2020    2.6410 C   0  0  0  0  0  0  0  0  0  0  0  0
    3.1880   -4.2050    3.1140 O   0  0  0  0  0  0  0  0  0  0  0  0
    3.3660   -2.1020    2.2910 O   0  0  0  0  0  0  0  0  0  0  0  0
    0.7960   -4.3280   -3.2660 H   0  0  0  0  0  0  0  0  0  0  0  0
    0.0820   -2.7270   -2.9190 H   0  0  0  0  0  0  0  0  0  0  0  0
   -2.3470   -3.1950   -2.3860 H   0  0  0  0  0  0  0  0  0  0  0  0
    0.4770   -5.9820   -1.2840 H   0  0  0  0  0  0  0  0  0  0  0  0
   -2.0750   -5.5620    0.1410 H   0  0  0  0  0  0  0  0  0  0  0  0
   -0.7190   -6.5600    0.7660 H   0  0  0  0  0  0  0  0  0  0  0  0
   -1.1210   -3.5240    0.8490 H   0  0  0  0  0  0  0  0  0  0  0  0
   -1.1510   -4.5960    2.2670 H   0  0  0  0  0  0  0  0  0  0  0  0
    1.1340   -5.2770    1.9840 H   0  0  0  0  0  0  0  0  0  0  0  0
    1.3080   -4.2460    0.5390 H   0  0  0  0  0  0  0  0  0  0  0  0
    0.6080   -3.3860    3.4100 H   0  0  0  0  0  0  0  0  0  0  0  0
    1.1290   -1.6460    1.0260 H   0  0  0  0  0  0  0  0  0  0  0  0
  1 10  1  0  0  0  0
  1  8  1  0  0  0  0
  2 11  1  6  0  0  0
  2  4  1  0  0  0  0
  2  1  1  0  0  0  0
  3  2  1  0  0  0  0
  4 13  1  6  0  0  0
  4  5  1  0  0  0  0
  4  6  1  0  0  0  0
  5 14  1  0  0  0  0
  6 23  1  0  0  0  0
  6  7  2  0  0  0  0
  9  1  1  0  0  0  0
 12  3  1  0  0  0  0
 15  5  1  0  0  0  0
 16 17  1  0  0  0  0
 17 18  1  0  0  0  0
 18 29  1  0  0  0  0
 18 19  2  0  0  0  0
 19 30  1  0  0  0  0
 20 21  1  0  0  0  0
 20 19  1  0  0  0  0
 21 22  1  0  0  0  0
 21 31  1  0  0  0  0
 22 24  1  0  0  0  0
 22 33  1  1  0  0  0
 23 22  1  0  0  0  0
 24 25  2  0  0  0  0
 26 20  2  0  0  0  0
 27 17  2  0  0  0  0
 27 26  1  0  0  0  0
 28 16  1  0  0  0  0
 32 21  1  0  0  0  0
 34 23  1  0  0  0  0
 35 26  1  0  0  0  0
 36 27  1  0  0  0  0
 37 38  1  0  0  0  0
 38 39  2  0  0  0  0
 38 40  1  0  0  0  0
 40 41  1  0  0  0  0
 41 54  1  0  0  0  0
 41 42  1  0  0  0  0
 42 43  1  0  0  0  0
 42 56  1  0  0  0  0
 43 57  1  0  0  0  0
 43 44  1  0  0  0  0
 44 46  1  0  0  0  0
 44 59  1  1  0  0  0
 45 44  1  0  0  0  0
 45 24  1  0  0  0  0
 46 47  1  0  0  0  0
 48 46  2  0  0  0  0
 49 37  1  0  0  0  0
 50 37  1  0  0  0  0
 51 39  1  0  0  0  0
 52 40  1  0  0  0  0
 53 41  1  0  0  0  0
 55 42  1  0  0  0  0
 58 43  1  0  0  0  0
 60 45  1  0  0  0  0
M  END
$$$$
