TYV.pdb
 OpenBabel07022419153D

 53 53  0  0  1  0  0  0  0  0999 V2000
    4.5960   -2.8750    3.9050 C   0  0  0  0  0  0  0  0  0  0  0  0
    3.1730   -2.3600    3.9010 C   0  0  1  0  0  0  0  0  0  0  0  0
    3.2490   -0.9510    3.9690 O   0  0  0  0  0  0  0  0  0  0  0  0
    2.6100   -2.6550    2.5040 C   0  0  2  0  0  0  0  0  0  0  0  0
    3.5080   -2.1150    1.5620 N   0  0  0  0  0  0  0  0  0  0  0  0
    1.2150   -2.1900    2.3870 C   0  0  0  0  0  0  0  0  0  0  0  0
    0.3760   -2.6460    3.2070 O   0  0  0  0  0  0  0  0  0  0  0  0
    5.2020   -2.1230    3.3250 H   0  0  0  0  0  0  0  0  0  0  0  0
    4.9990   -3.0260    4.9110 H   0  0  0  0  0  0  0  0  0  0  0  0
    4.6130   -3.7980    3.2800 H   0  0  0  0  0  0  0  0  0  0  0  0
    2.5460   -2.7770    4.6860 H   0  0  0  0  0  0  0  0  0  0  0  0
    4.1520   -0.6410    4.1640 H   0  0  0  0  0  0  0  0  0  0  0  0
    2.5950   -3.7630    2.4180 H   0  0  0  0  0  0  0  0  0  0  0  0
    3.2550   -2.2030    0.5740 H   0  0  0  0  0  0  0  0  0  0  0  0
    4.0690   -1.3180    1.8310 H   0  0  0  0  0  0  0  0  0  0  0  0
    2.9150    3.6470   -1.8360 O   0  0  0  0  0  0  0  0  0  0  0  0
    2.0720    2.9170   -0.9890 C   0  0  0  0  0  0  0  0  0  0  0  0
    2.5350    2.3590    0.1850 C   0  0  0  0  0  0  0  0  0  0  0  0
    1.7110    1.6400    1.0230 C   0  0  0  0  0  0  0  0  0  0  0  0
    0.3740    1.4510    0.7120 C   0  0  0  0  0  0  0  0  0  0  0  0
   -0.5350    0.6820    1.5980 C   0  0  0  0  0  0  0  0  0  0  0  0
   -0.5610   -0.7940    1.2650 C   0  0  2  0  0  0  0  0  0  0  0  0
    0.7850   -1.2750    1.4160 N   0  0  0  0  0  0  0  0  0  0  0  0
   -1.1480   -1.0920   -0.0410 C   0  0  0  0  0  0  0  0  0  0  0  0
   -0.4310   -1.6880   -0.9160 O   0  0  0  0  0  0  0  0  0  0  0  0
   -0.1160    1.9980   -0.4550 C   0  0  0  0  0  0  0  0  0  0  0  0
    0.7390    2.7150   -1.2740 C   0  0  0  0  0  0  0  0  0  0  0  0
    3.7790    3.2010   -2.0900 H   0  0  0  0  0  0  0  0  0  0  0  0
    3.5790    2.5040    0.4320 H   0  0  0  0  0  0  0  0  0  0  0  0
    2.0970    1.2060    1.9460 H   0  0  0  0  0  0  0  0  0  0  0  0
   -0.1540    0.7800    2.6220 H   0  0  0  0  0  0  0  0  0  0  0  0
   -1.5790    1.0460    1.5000 H   0  0  0  0  0  0  0  0  0  0  0  0
   -1.2120   -1.2670    2.0440 H   0  0  0  0  0  0  0  0  0  0  0  0
    1.5180   -0.9140    0.7460 H   0  0  0  0  0  0  0  0  0  0  0  0
   -1.1610    1.8820   -0.7490 H   0  0  0  0  0  0  0  0  0  0  0  0
    0.3400    3.1400   -2.1890 H   0  0  0  0  0  0  0  0  0  0  0  0
   -3.5050   -3.4590   -1.0650 C   0  0  0  0  0  0  0  0  0  0  0  0
   -4.0660   -2.1860   -1.6420 C   0  0  0  0  0  0  0  0  0  0  0  0
   -5.2840   -1.6940   -0.9000 C   0  0  0  0  0  0  0  0  0  0  0  0
   -3.0010   -1.0950   -1.7340 C   0  0  2  0  0  0  0  0  0  0  0  0
   -2.4630   -0.7800   -0.4400 N   0  0  0  0  0  0  0  0  0  0  0  0
   -3.5700    0.0430   -2.4620 C   0  0  0  0  0  0  0  0  0  0  0  0
   -4.0610   -0.0780   -3.6110 O   0  0  0  0  0  0  0  0  0  0  0  0
   -3.5730    1.2970   -1.8770 O   0  0  0  0  0  0  0  0  0  0  0  0
   -2.4310   -3.5420   -1.2650 H   0  0  0  0  0  0  0  0  0  0  0  0
   -3.9820   -4.3340   -1.5920 H   0  0  0  0  0  0  0  0  0  0  0  0
   -3.7810   -3.5710    0.0020 H   0  0  0  0  0  0  0  0  0  0  0  0
   -4.3930   -2.3790   -2.6920 H   0  0  0  0  0  0  0  0  0  0  0  0
   -5.1670   -1.7440    0.1900 H   0  0  0  0  0  0  0  0  0  0  0  0
   -5.5010   -0.6730   -1.2840 H   0  0  0  0  0  0  0  0  0  0  0  0
   -6.1420   -2.3260   -1.2540 H   0  0  0  0  0  0  0  0  0  0  0  0
   -2.1900   -1.5420   -2.3660 H   0  0  0  0  0  0  0  0  0  0  0  0
   -3.0730   -0.2870    0.2620 H   0  0  0  0  0  0  0  0  0  0  0  0
  1  9  1  0  0  0  0
  2  1  1  0  0  0  0
  2  3  1  0  0  0  0
  2 11  1  1  0  0  0
  3 12  1  0  0  0  0
  4 13  1  6  0  0  0
  4  2  1  0  0  0  0
  5 15  1  0  0  0  0
  5  4  1  0  0  0  0
  6  4  1  0  0  0  0
  6  7  2  0  0  0  0
  8  1  1  0  0  0  0
 10  1  1  0  0  0  0
 14  5  1  0  0  0  0
 16 17  1  0  0  0  0
 17 18  1  0  0  0  0
 18 29  1  0  0  0  0
 18 19  2  0  0  0  0
 19 30  1  0  0  0  0
 20 19  1  0  0  0  0
 20 21  1  0  0  0  0
 21 31  1  0  0  0  0
 22 23  1  0  0  0  0
 22 21  1  0  0  0  0
 22 33  1  1  0  0  0
 23  6  1  0  0  0  0
 24 22  1  0  0  0  0
 25 24  2  0  0  0  0
 26 20  2  0  0  0  0
 27 17  2  0  0  0  0
 27 26  1  0  0  0  0
 28 16  1  0  0  0  0
 32 21  1  0  0  0  0
 34 23  1  0  0  0  0
 35 26  1  0  0  0  0
 36 27  1  0  0  0  0
 37 47  1  0  0  0  0
 38 37  1  0  0  0  0
 38 39  1  0  0  0  0
 39 49  1  0  0  0  0
 40 52  1  6  0  0  0
 40 38  1  0  0  0  0
 40 41  1  0  0  0  0
 41 24  1  0  0  0  0
 41 53  1  0  0  0  0
 42 44  1  0  0  0  0
 42 40  1  0  0  0  0
 43 42  2  0  0  0  0
 45 37  1  0  0  0  0
 46 37  1  0  0  0  0
 48 38  1  0  0  0  0
 50 39  1  0  0  0  0
 51 39  1  0  0  0  0
M  END
$$$$
