TYY.pdb
 OpenBabel07022419153D

 58 59  0  0  1  0  0  0  0  0999 V2000
    2.0440    2.0100    4.6130 C   0  0  0  0  0  0  0  0  0  0  0  0
    1.2620    1.4000    3.4670 C   0  0  1  0  0  0  0  0  0  0  0  0
   -0.0450    1.1820    3.9010 O   0  0  0  0  0  0  0  0  0  0  0  0
    1.2400    2.3530    2.3070 C   0  0  2  0  0  0  0  0  0  0  0  0
    0.6570    3.6160    2.6880 N   0  0  0  0  0  0  0  0  0  0  0  0
    0.5310    1.7420    1.1510 C   0  0  0  0  0  0  0  0  0  0  0  0
   -0.4530    2.2960    0.5980 O   0  0  0  0  0  0  0  0  0  0  0  0
    2.9410    2.5460    4.2690 H   0  0  0  0  0  0  0  0  0  0  0  0
    1.4120    2.7480    5.1550 H   0  0  0  0  0  0  0  0  0  0  0  0
    2.3790    1.2130    5.3100 H   0  0  0  0  0  0  0  0  0  0  0  0
    1.7660    0.4710    3.1850 H   0  0  0  0  0  0  0  0  0  0  0  0
   -0.0820    0.3390    4.4380 H   0  0  0  0  0  0  0  0  0  0  0  0
    2.2970    2.5650    2.0180 H   0  0  0  0  0  0  0  0  0  0  0  0
    1.3820    4.2850    2.9820 H   0  0  0  0  0  0  0  0  0  0  0  0
   -0.1200    3.5090    3.3780 H   0  0  0  0  0  0  0  0  0  0  0  0
    5.9510   -3.1480   -0.7520 O   0  0  0  0  0  0  0  0  0  0  0  0
    4.7820   -2.4110   -0.9800 C   0  0  0  0  0  0  0  0  0  0  0  0
    4.7400   -1.0620   -0.7680 C   0  0  0  0  0  0  0  0  0  0  0  0
    3.5590   -0.3630   -1.0060 C   0  0  0  0  0  0  0  0  0  0  0  0
    2.4370   -1.0130   -1.4500 C   0  0  0  0  0  0  0  0  0  0  0  0
    1.2130   -0.2550   -1.6910 C   0  0  0  0  0  0  0  0  0  0  0  0
    0.3100   -0.1530   -0.4890 C   0  0  2  0  0  0  0  0  0  0  0  0
    0.9550    0.4920    0.6300 N   0  0  0  0  0  0  0  0  0  0  0  0
   -0.3470   -1.4250   -0.1290 C   0  0  0  0  0  0  0  0  0  0  0  0
   -0.3190   -1.8850    1.0290 O   0  0  0  0  0  0  0  0  0  0  0  0
    2.4850   -2.3650   -1.6600 C   0  0  0  0  0  0  0  0  0  0  0  0
    3.6510   -3.0500   -1.4240 C   0  0  0  0  0  0  0  0  0  0  0  0
    6.0680   -4.0030   -1.2680 H   0  0  0  0  0  0  0  0  0  0  0  0
    5.6180   -0.5470   -0.4200 H   0  0  0  0  0  0  0  0  0  0  0  0
    3.6030    0.7020   -0.8160 H   0  0  0  0  0  0  0  0  0  0  0  0
    1.4100    0.7970   -2.0290 H   0  0  0  0  0  0  0  0  0  0  0  0
    0.6520   -0.7340   -2.5040 H   0  0  0  0  0  0  0  0  0  0  0  0
   -0.5290    0.5370   -0.8060 H   0  0  0  0  0  0  0  0  0  0  0  0
    1.7800    0.0480    1.1090 H   0  0  0  0  0  0  0  0  0  0  0  0
    1.6330   -2.9400   -2.0110 H   0  0  0  0  0  0  0  0  0  0  0  0
    3.7060   -4.1160   -1.5850 H   0  0  0  0  0  0  0  0  0  0  0  0
   -4.7720    0.8900    2.6910 O   0  0  0  0  0  0  0  0  0  0  0  0
   -4.3870   -0.0800    1.7640 C   0  0  0  0  0  0  0  0  0  0  0  0
   -4.4510   -1.4190    2.0580 C   0  0  0  0  0  0  0  0  0  0  0  0
   -4.0710   -2.3750    1.1420 C   0  0  0  0  0  0  0  0  0  0  0  0
   -3.6100   -2.0220   -0.1060 C   0  0  0  0  0  0  0  0  0  0  0  0
   -3.1990   -3.0710   -1.0920 C   0  0  0  0  0  0  0  0  0  0  0  0
   -1.7030   -3.3770   -0.9110 C   0  0  2  0  0  0  0  0  0  0  0  0
   -1.0270   -2.1280   -1.1520 N   0  0  0  0  0  0  0  0  0  0  0  0
   -1.3810   -4.4420   -1.8530 C   0  0  0  0  0  0  0  0  0  0  0  0
   -1.9560   -5.5600   -1.6640 O   0  0  0  0  0  0  0  0  0  0  0  0
   -3.5400   -0.6750   -0.4150 C   0  0  0  0  0  0  0  0  0  0  0  0
   -3.9230    0.2760    0.5070 C   0  0  0  0  0  0  0  0  0  0  0  0
   -0.5250   -4.3690   -2.9220 O   0  0  0  0  0  0  0  0  0  0  0  0
   -5.5750    1.4660    2.5830 H   0  0  0  0  0  0  0  0  0  0  0  0
   -4.8150   -1.6920    3.0430 H   0  0  0  0  0  0  0  0  0  0  0  0
   -4.1210   -3.4440    1.3730 H   0  0  0  0  0  0  0  0  0  0  0  0
   -3.8140   -3.9670   -1.0310 H   0  0  0  0  0  0  0  0  0  0  0  0
   -3.2900   -2.6100   -2.0920 H   0  0  0  0  0  0  0  0  0  0  0  0
   -1.6040   -3.7300    0.1300 H   0  0  0  0  0  0  0  0  0  0  0  0
   -1.0710   -1.7680   -2.1470 H   0  0  0  0  0  0  0  0  0  0  0  0
   -3.1770   -0.4180   -1.3990 H   0  0  0  0  0  0  0  0  0  0  0  0
   -3.8660    1.3290    0.2600 H   0  0  0  0  0  0  0  0  0  0  0  0
  1  9  1  0  0  0  0
  1 10  1  0  0  0  0
  2 11  1  6  0  0  0
  2  3  1  0  0  0  0
  2  1  1  0  0  0  0
  3 12  1  0  0  0  0
  4 13  1  6  0  0  0
  4  5  1  0  0  0  0
  4  2  1  0  0  0  0
  5 14  1  0  0  0  0
  5 15  1  0  0  0  0
  6  4  1  0  0  0  0
  7  6  2  0  0  0  0
  8  1  1  0  0  0  0
 17 18  1  0  0  0  0
 17 16  1  0  0  0  0
 18 29  1  0  0  0  0
 19 30  1  0  0  0  0
 19 18  2  0  0  0  0
 20 19  1  0  0  0  0
 21 20  1  0  0  0  0
 21 22  1  0  0  0  0
 22 33  1  6  0  0  0
 22 24  1  0  0  0  0
 22 23  1  0  0  0  0
 23 34  1  0  0  0  0
 23  6  1  0  0  0  0
 24 25  2  0  0  0  0
 26 20  2  0  0  0  0
 26 27  1  0  0  0  0
 27 17  2  0  0  0  0
 28 16  1  0  0  0  0
 31 21  1  0  0  0  0
 32 21  1  0  0  0  0
 35 26  1  0  0  0  0
 36 27  1  0  0  0  0
 38 39  1  0  0  0  0
 38 37  1  0  0  0  0
 39 51  1  0  0  0  0
 40 52  1  0  0  0  0
 40 39  2  0  0  0  0
 41 40  1  0  0  0  0
 42 53  1  0  0  0  0
 42 43  1  0  0  0  0
 42 41  1  0  0  0  0
 43 55  1  1  0  0  0
 44 43  1  0  0  0  0
 44 24  1  0  0  0  0
 45 46  1  0  0  0  0
 45 43  1  0  0  0  0
 47 41  2  0  0  0  0
 47 48  1  0  0  0  0
 48 38  2  0  0  0  0
 49 45  2  0  0  0  0
 50 37  1  0  0  0  0
 54 42  1  0  0  0  0
 56 44  1  0  0  0  0
 57 47  1  0  0  0  0
 58 48  1  0  0  0  0
M  END
$$$$
