VAA.pdb
 OpenBabel07022419243D

 38 37  0  0  1  0  0  0  0  0999 V2000
   -0.1280   -1.4350   -1.0630 C   0  0  0  0  0  0  0  0  0  0  0  0
    0.1480   -2.8480   -0.6480 C   0  0  0  0  0  0  0  0  0  0  0  0
    0.5280   -3.6350   -1.8960 C   0  0  0  0  0  0  0  0  0  0  0  0
    1.2150   -2.9960    0.4100 C   0  0  2  0  0  0  0  0  0  0  0  0
    1.2920   -4.4530    0.6380 N   0  0  0  0  0  0  0  0  0  0  0  0
    0.7660   -2.3240    1.6470 C   0  0  0  0  0  0  0  0  0  0  0  0
    0.2170   -3.0070    2.5400 O   0  0  0  0  0  0  0  0  0  0  0  0
    0.7620   -0.8080   -1.2120 H   0  0  0  0  0  0  0  0  0  0  0  0
   -0.7260   -1.5180   -2.0240 H   0  0  0  0  0  0  0  0  0  0  0  0
   -0.8580   -0.9440   -0.3640 H   0  0  0  0  0  0  0  0  0  0  0  0
   -0.8070   -3.2500   -0.2140 H   0  0  0  0  0  0  0  0  0  0  0  0
    0.8340   -2.9410   -2.6830 H   0  0  0  0  0  0  0  0  0  0  0  0
    1.3650   -4.3360   -1.6900 H   0  0  0  0  0  0  0  0  0  0  0  0
   -0.3410   -4.2330   -2.1840 H   0  0  0  0  0  0  0  0  0  0  0  0
    2.1920   -2.6400    0.0660 H   0  0  0  0  0  0  0  0  0  0  0  0
    2.1290   -4.8560    0.1750 H   0  0  0  0  0  0  0  0  0  0  0  0
    1.3630   -4.6310    1.6670 H   0  0  0  0  0  0  0  0  0  0  0  0
    1.7850   -0.0440    3.8880 C   0  0  0  0  0  0  0  0  0  0  0  0
    0.5560   -0.2710    2.9840 C   0  0  2  0  0  0  0  0  0  0  0  0
    0.9720   -0.9270    1.7950 N   0  0  0  0  0  0  0  0  0  0  0  0
   -0.1400    0.9840    2.7310 C   0  0  0  0  0  0  0  0  0  0  0  0
   -0.6360    1.6850    3.6760 O   0  0  0  0  0  0  0  0  0  0  0  0
    1.4690   -0.0360    4.9310 H   0  0  0  0  0  0  0  0  0  0  0  0
    2.1590    0.9590    3.5810 H   0  0  0  0  0  0  0  0  0  0  0  0
    2.5430   -0.7950    3.6720 H   0  0  0  0  0  0  0  0  0  0  0  0
   -0.1150   -0.9280    3.6060 H   0  0  0  0  0  0  0  0  0  0  0  0
    1.4330   -0.4140    1.0320 H   0  0  0  0  0  0  0  0  0  0  0  0
    0.0830    3.6040    0.4420 C   0  0  0  0  0  0  0  0  0  0  0  0
   -0.9740    2.7400    1.1430 C   0  0  2  0  0  0  0  0  0  0  0  0
   -0.2940    1.4860    1.4230 N   0  0  0  0  0  0  0  0  0  0  0  0
   -2.0490    2.5010    0.1650 C   0  0  0  0  0  0  0  0  0  0  0  0
   -2.7410    3.5030   -0.1960 O   0  0  0  0  0  0  0  0  0  0  0  0
   -2.3810    1.2930   -0.4010 O   0  0  0  0  0  0  0  0  0  0  0  0
   -0.3700    4.5630    0.1470 H   0  0  0  0  0  0  0  0  0  0  0  0
    0.9400    3.8080    1.1190 H   0  0  0  0  0  0  0  0  0  0  0  0
    0.4170    3.0880   -0.4720 H   0  0  0  0  0  0  0  0  0  0  0  0
   -1.3310    3.2320    2.0650 H   0  0  0  0  0  0  0  0  0  0  0  0
    0.0770    0.9810    0.6040 H   0  0  0  0  0  0  0  0  0  0  0  0
  1  2  1  0  0  0  0
  1 10  1  0  0  0  0
  2 11  1  0  0  0  0
  2  4  1  0  0  0  0
  3 13  1  0  0  0  0
  3  2  1  0  0  0  0
  4 15  1  6  0  0  0
  4  5  1  0  0  0  0
  4  6  1  0  0  0  0
  5 17  1  0  0  0  0
  6 20  1  0  0  0  0
  6  7  2  0  0  0  0
  8  1  1  0  0  0  0
  9  1  1  0  0  0  0
 12  3  1  0  0  0  0
 14  3  1  0  0  0  0
 16  5  1  0  0  0  0
 18 23  1  0  0  0  0
 19 26  1  1  0  0  0
 19 18  1  0  0  0  0
 20 19  1  0  0  0  0
 21 19  1  0  0  0  0
 21 22  2  0  0  0  0
 24 18  1  0  0  0  0
 25 18  1  0  0  0  0
 27 20  1  0  0  0  0
 28 35  1  0  0  0  0
 28 29  1  0  0  0  0
 29 30  1  0  0  0  0
 29 37  1  1  0  0  0
 30 21  1  0  0  0  0
 31 29  1  0  0  0  0
 32 31  1  0  0  0  0
 33 31  2  0  0  0  0
 34 28  1  0  0  0  0
 36 28  1  0  0  0  0
 38 30  1  0  0  0  0
M  END
$$$$
