VAC.pdb
 OpenBabel07022419243D

 39 38  0  0  1  0  0  0  0  0999 V2000
   -1.5140   -2.5120    0.4190 C   0  0  0  0  0  0  0  0  0  0  0  0
   -0.0790   -2.9860    0.6040 C   0  0  0  0  0  0  0  0  0  0  0  0
    0.0140   -4.4100    0.0960 C   0  0  0  0  0  0  0  0  0  0  0  0
    0.2220   -2.9850    2.0940 C   0  0  2  0  0  0  0  0  0  0  0  0
   -0.7150   -3.8860    2.7140 N   0  0  0  0  0  0  0  0  0  0  0  0
    0.0940   -1.6090    2.6230 C   0  0  0  0  0  0  0  0  0  0  0  0
   -0.7610   -1.3450    3.5080 O   0  0  0  0  0  0  0  0  0  0  0  0
   -1.8520   -2.6410   -0.6090 H   0  0  0  0  0  0  0  0  0  0  0  0
   -1.5790   -1.4360    0.7530 H   0  0  0  0  0  0  0  0  0  0  0  0
   -2.1890   -3.0780    1.0900 H   0  0  0  0  0  0  0  0  0  0  0  0
    0.6250   -2.3770    0.0240 H   0  0  0  0  0  0  0  0  0  0  0  0
    0.9900   -4.8600    0.2940 H   0  0  0  0  0  0  0  0  0  0  0  0
   -0.7900   -5.0200    0.5810 H   0  0  0  0  0  0  0  0  0  0  0  0
   -0.1950   -4.4490   -0.9920 H   0  0  0  0  0  0  0  0  0  0  0  0
    1.2460   -3.3710    2.2740 H   0  0  0  0  0  0  0  0  0  0  0  0
   -0.2910   -4.8090    2.9610 H   0  0  0  0  0  0  0  0  0  0  0  0
   -1.1600   -3.4920    3.5520 H   0  0  0  0  0  0  0  0  0  0  0  0
    2.1770    1.0900    3.3130 C   0  0  0  0  0  0  0  0  0  0  0  0
    0.8760    0.8000    2.6000 C   0  0  2  0  0  0  0  0  0  0  0  0
    0.9250   -0.5690    2.1470 N   0  0  0  0  0  0  0  0  0  0  0  0
    0.6800    1.7600    1.4980 C   0  0  0  0  0  0  0  0  0  0  0  0
    0.6220    2.9840    1.7770 O   0  0  0  0  0  0  0  0  0  0  0  0
    2.9920    0.8650    2.5820 H   0  0  0  0  0  0  0  0  0  0  0  0
    2.2480    0.3630    4.1600 H   0  0  0  0  0  0  0  0  0  0  0  0
    2.1970    2.1330    3.6520 H   0  0  0  0  0  0  0  0  0  0  0  0
    0.0740    0.8520    3.3700 H   0  0  0  0  0  0  0  0  0  0  0  0
    1.6270   -0.8040    1.4150 H   0  0  0  0  0  0  0  0  0  0  0  0
    0.5510    1.3940    0.1300 N   0  0  0  0  0  0  0  0  0  0  0  0
    0.3600    2.3580   -0.9310 C   0  0  1  0  0  0  0  0  0  0  0  0
    1.4270    2.2480   -1.9970 C   0  0  0  0  0  0  0  0  0  0  0  0
    1.1470    3.4730   -3.3040 S   0  0  0  0  0  0  0  0  0  0  0  0
   -0.9510    2.0980   -1.5630 C   0  0  0  0  0  0  0  0  0  0  0  0
   -1.3810    2.7810   -2.5120 O   0  0  0  0  0  0  0  0  0  0  0  0
   -1.7420    1.0640   -1.0960 O   0  0  0  0  0  0  0  0  0  0  0  0
    0.6060    0.3540   -0.0640 H   0  0  0  0  0  0  0  0  0  0  0  0
    0.3380    3.3630   -0.4750 H   0  0  0  0  0  0  0  0  0  0  0  0
    2.4510    2.3340   -1.5780 H   0  0  0  0  0  0  0  0  0  0  0  0
    1.3620    1.2490   -2.4760 H   0  0  0  0  0  0  0  0  0  0  0  0
    2.2460    4.3240   -3.4670 H   0  0  0  0  0  0  0  0  0  0  0  0
  1  2  1  0  0  0  0
  1  9  1  0  0  0  0
  1 10  1  0  0  0  0
  2  4  1  0  0  0  0
  3 12  1  0  0  0  0
  3 13  1  0  0  0  0
  3  2  1  0  0  0  0
  4 15  1  1  0  0  0
  4  6  1  0  0  0  0
  4  5  1  0  0  0  0
  5 16  1  0  0  0  0
  5 17  1  0  0  0  0
  6  7  2  0  0  0  0
  8  1  1  0  0  0  0
 11  2  1  0  0  0  0
 14  3  1  0  0  0  0
 18 25  1  0  0  0  0
 18 24  1  0  0  0  0
 19 18  1  0  0  0  0
 19 26  1  1  0  0  0
 20 19  1  0  0  0  0
 20  6  1  0  0  0  0
 21 22  2  0  0  0  0
 21 19  1  0  0  0  0
 23 18  1  0  0  0  0
 27 20  1  0  0  0  0
 28 21  1  0  0  0  0
 29 36  1  1  0  0  0
 29 28  1  0  0  0  0
 30 37  1  0  0  0  0
 30 29  1  0  0  0  0
 31 30  1  0  0  0  0
 32 34  1  0  0  0  0
 32 29  1  0  0  0  0
 33 32  2  0  0  0  0
 35 28  1  0  0  0  0
 38 30  1  0  0  0  0
 39 31  1  0  0  0  0
M  END
$$$$
