VAE.pdb
 OpenBabel07022419243D

 44 43  0  0  1  0  0  0  0  0999 V2000
    0.9760   -4.2930    0.7640 C   0  0  0  0  0  0  0  0  0  0  0  0
    1.9040   -4.1530   -0.3990 C   0  0  0  0  0  0  0  0  0  0  0  0
    3.1050   -3.3520    0.0710 C   0  0  0  0  0  0  0  0  0  0  0  0
    1.2640   -3.5240   -1.6140 C   0  0  2  0  0  0  0  0  0  0  0  0
    2.3080   -3.4670   -2.6700 N   0  0  0  0  0  0  0  0  0  0  0  0
    0.7410   -2.1640   -1.3740 C   0  0  0  0  0  0  0  0  0  0  0  0
    1.3380   -1.1890   -1.9090 O   0  0  0  0  0  0  0  0  0  0  0  0
   -0.0100   -4.7130    0.4490 H   0  0  0  0  0  0  0  0  0  0  0  0
    0.8230   -3.3350    1.3000 H   0  0  0  0  0  0  0  0  0  0  0  0
    1.3790   -5.0410    1.5160 H   0  0  0  0  0  0  0  0  0  0  0  0
    2.2810   -5.1590   -0.7100 H   0  0  0  0  0  0  0  0  0  0  0  0
    3.6300   -2.8500   -0.7500 H   0  0  0  0  0  0  0  0  0  0  0  0
    3.8080   -4.0690    0.5400 H   0  0  0  0  0  0  0  0  0  0  0  0
    2.8080   -2.6370    0.8920 H   0  0  0  0  0  0  0  0  0  0  0  0
    0.5050   -4.2310   -1.9970 H   0  0  0  0  0  0  0  0  0  0  0  0
    2.5510   -4.4370   -2.9670 H   0  0  0  0  0  0  0  0  0  0  0  0
    1.9070   -3.0020   -3.5170 H   0  0  0  0  0  0  0  0  0  0  0  0
   -2.1960   -0.2410   -1.0290 C   0  0  0  0  0  0  0  0  0  0  0  0
   -0.8130   -0.4690   -0.4140 C   0  0  2  0  0  0  0  0  0  0  0  0
   -0.3880   -1.8360   -0.5870 N   0  0  0  0  0  0  0  0  0  0  0  0
   -0.8330   -0.0430    0.9940 C   0  0  0  0  0  0  0  0  0  0  0  0
   -0.4950   -0.8690    1.8730 O   0  0  0  0  0  0  0  0  0  0  0  0
   -3.0050   -0.4680   -0.3320 H   0  0  0  0  0  0  0  0  0  0  0  0
   -2.2640    0.8270   -1.3200 H   0  0  0  0  0  0  0  0  0  0  0  0
   -2.2650   -0.8200   -1.9800 H   0  0  0  0  0  0  0  0  0  0  0  0
   -0.1240    0.1910   -0.9800 H   0  0  0  0  0  0  0  0  0  0  0  0
   -0.9140   -2.6110   -0.1380 H   0  0  0  0  0  0  0  0  0  0  0  0
   -1.2140    1.2510    1.4220 N   0  0  0  0  0  0  0  0  0  0  0  0
   -1.2360    1.6760    2.8060 C   0  0  1  0  0  0  0  0  0  0  0  0
   -0.2970    2.8380    3.0490 C   0  0  0  0  0  0  0  0  0  0  0  0
    1.1010    2.4120    2.6980 C   0  0  0  0  0  0  0  0  0  0  0  0
    2.0790    3.5090    2.9140 C   0  0  0  0  0  0  0  0  0  0  0  0
    3.2970    3.3420    2.6760 O   0  0  0  0  0  0  0  0  0  0  0  0
   -2.6240    1.9900    3.2020 C   0  0  0  0  0  0  0  0  0  0  0  0
   -2.9250    2.3840    4.3520 O   0  0  0  0  0  0  0  0  0  0  0  0
    1.6860    4.7610    3.3880 O   0  0  0  0  0  0  0  0  0  0  0  0
   -3.6390    1.8480    2.2720 O   0  0  0  0  0  0  0  0  0  0  0  0
   -1.5070    1.9800    0.7110 H   0  0  0  0  0  0  0  0  0  0  0  0
   -0.9080    0.8270    3.4720 H   0  0  0  0  0  0  0  0  0  0  0  0
   -0.3550    3.0950    4.1230 H   0  0  0  0  0  0  0  0  0  0  0  0
   -0.6390    3.7090    2.4410 H   0  0  0  0  0  0  0  0  0  0  0  0
    1.3400    1.5070    3.2630 H   0  0  0  0  0  0  0  0  0  0  0  0
    1.1500    2.1470    1.6160 H   0  0  0  0  0  0  0  0  0  0  0  0
    2.0870    5.6100    2.9900 H   0  0  0  0  0  0  0  0  0  0  0  0
  1  9  1  0  0  0  0
  1 10  1  0  0  0  0
  2  3  1  0  0  0  0
  2  1  1  0  0  0  0
  3 13  1  0  0  0  0
  3 14  1  0  0  0  0
  4 15  1  6  0  0  0
  4  6  1  0  0  0  0
  4  2  1  0  0  0  0
  5  4  1  0  0  0  0
  6 20  1  0  0  0  0
  7  6  2  0  0  0  0
  8  1  1  0  0  0  0
 11  2  1  0  0  0  0
 12  3  1  0  0  0  0
 16  5  1  0  0  0  0
 17  5  1  0  0  0  0
 18 19  1  0  0  0  0
 18 23  1  0  0  0  0
 19 26  1  6  0  0  0
 19 21  1  0  0  0  0
 20 19  1  0  0  0  0
 20 27  1  0  0  0  0
 21 28  1  0  0  0  0
 21 22  2  0  0  0  0
 24 18  1  0  0  0  0
 25 18  1  0  0  0  0
 28 29  1  0  0  0  0
 29 30  1  0  0  0  0
 29 34  1  0  0  0  0
 29 39  1  1  0  0  0
 30 40  1  0  0  0  0
 31 32  1  0  0  0  0
 31 30  1  0  0  0  0
 31 42  1  0  0  0  0
 32 36  1  0  0  0  0
 33 32  2  0  0  0  0
 34 35  1  0  0  0  0
 37 34  2  0  0  0  0
 38 28  1  0  0  0  0
 41 30  1  0  0  0  0
 43 31  1  0  0  0  0
 44 36  1  0  0  0  0
M  END
$$$$
