VAG.pdb
 OpenBabel07022419243D

 35 34  0  0  1  0  0  0  0  0999 V2000
   -0.0590   -2.8200    1.9470 C   0  0  0  0  0  0  0  0  0  0  0  0
    0.4460   -3.5470    0.7450 C   0  0  0  0  0  0  0  0  0  0  0  0
    0.2290   -5.0160    0.9230 C   0  0  0  0  0  0  0  0  0  0  0  0
   -0.1670   -3.0570   -0.5670 C   0  0  2  0  0  0  0  0  0  0  0  0
    0.4320   -3.8780   -1.6170 N   0  0  0  0  0  0  0  0  0  0  0  0
    0.1910   -1.6540   -0.8720 C   0  0  0  0  0  0  0  0  0  0  0  0
    0.9910   -1.3610   -1.8290 O   0  0  0  0  0  0  0  0  0  0  0  0
   -1.1760   -2.6830    1.8880 H   0  0  0  0  0  0  0  0  0  0  0  0
    0.1390   -3.4520    2.8680 H   0  0  0  0  0  0  0  0  0  0  0  0
    0.4190   -1.8630    2.1620 H   0  0  0  0  0  0  0  0  0  0  0  0
    1.5440   -3.3820    0.6280 H   0  0  0  0  0  0  0  0  0  0  0  0
    1.0410   -5.6440    0.4910 H   0  0  0  0  0  0  0  0  0  0  0  0
   -0.7350   -5.2900    0.4150 H   0  0  0  0  0  0  0  0  0  0  0  0
    0.0830   -5.2460    1.9900 H   0  0  0  0  0  0  0  0  0  0  0  0
   -1.2350   -3.2670   -0.5410 H   0  0  0  0  0  0  0  0  0  0  0  0
   -0.1280   -4.7060   -1.8540 H   0  0  0  0  0  0  0  0  0  0  0  0
    0.7660   -3.3270   -2.4160 H   0  0  0  0  0  0  0  0  0  0  0  0
   -1.1200    1.6230   -0.9220 C   0  0  0  0  0  0  0  0  0  0  0  0
    0.0880    0.8320   -0.5040 C   0  0  2  0  0  0  0  0  0  0  0  0
   -0.2990   -0.5230   -0.1620 N   0  0  0  0  0  0  0  0  0  0  0  0
    0.7350    1.5320    0.6240 C   0  0  0  0  0  0  0  0  0  0  0  0
    0.9270    1.0080    1.7450 O   0  0  0  0  0  0  0  0  0  0  0  0
   -1.4250    2.3070   -0.1020 H   0  0  0  0  0  0  0  0  0  0  0  0
   -1.9970    0.9830   -1.1430 H   0  0  0  0  0  0  0  0  0  0  0  0
   -0.9110    2.1810   -1.8670 H   0  0  0  0  0  0  0  0  0  0  0  0
    0.7780    0.7800   -1.3570 H   0  0  0  0  0  0  0  0  0  0  0  0
   -0.9650   -0.6800    0.6320 H   0  0  0  0  0  0  0  0  0  0  0  0
    1.1640    2.8710    0.4300 N   0  0  0  0  0  0  0  0  0  0  0  0
    1.8070    3.6400    1.4690 C   0  0  0  0  0  0  0  0  0  0  0  0
    0.8740    3.7410    2.6110 C   0  0  0  0  0  0  0  0  0  0  0  0
    1.2370    4.3730    3.6280 O   0  0  0  0  0  0  0  0  0  0  0  0
   -0.3700    3.1520    2.5540 O   0  0  0  0  0  0  0  0  0  0  0  0
    1.0190    3.3320   -0.4890 H   0  0  0  0  0  0  0  0  0  0  0  0
    2.0260    4.6650    1.1000 H   0  0  0  0  0  0  0  0  0  0  0  0
    2.7870    3.2030    1.7670 H   0  0  0  0  0  0  0  0  0  0  0  0
  1 10  1  0  0  0  0
  1  9  1  0  0  0  0
  2  3  1  0  0  0  0
  2  1  1  0  0  0  0
  3 14  1  0  0  0  0
  4 15  1  1  0  0  0
  4  2  1  0  0  0  0
  5  4  1  0  0  0  0
  6  4  1  0  0  0  0
  6 20  1  0  0  0  0
  7  6  2  0  0  0  0
  8  1  1  0  0  0  0
 11  2  1  0  0  0  0
 12  3  1  0  0  0  0
 13  3  1  0  0  0  0
 16  5  1  0  0  0  0
 17  5  1  0  0  0  0
 18 19  1  0  0  0  0
 18 23  1  0  0  0  0
 19 26  1  6  0  0  0
 19 20  1  0  0  0  0
 19 21  1  0  0  0  0
 20 27  1  0  0  0  0
 21 22  2  0  0  0  0
 24 18  1  0  0  0  0
 25 18  1  0  0  0  0
 28 21  1  0  0  0  0
 28 29  1  0  0  0  0
 29 35  1  0  0  0  0
 29 30  1  0  0  0  0
 30 31  1  0  0  0  0
 32 30  2  0  0  0  0
 33 28  1  0  0  0  0
 34 29  1  0  0  0  0
M  END
$$$$
