VAI.pdb
 OpenBabel07022419243D

 47 46  0  0  1  0  0  0  0  0999 V2000
    1.4510   -5.5890    2.0050 C   0  0  0  0  0  0  0  0  0  0  0  0
    1.0970   -4.6740    0.8560 C   0  0  0  0  0  0  0  0  0  0  0  0
    2.0580   -4.8630   -0.2700 C   0  0  0  0  0  0  0  0  0  0  0  0
    0.9990   -3.2300    1.2920 C   0  0  2  0  0  0  0  0  0  0  0  0
   -0.0350   -3.1510    2.3020 N   0  0  0  0  0  0  0  0  0  0  0  0
    0.5530   -2.4450    0.0950 C   0  0  0  0  0  0  0  0  0  0  0  0
    1.2840   -2.3590   -0.9330 O   0  0  0  0  0  0  0  0  0  0  0  0
    0.8420   -5.3580    2.9070 H   0  0  0  0  0  0  0  0  0  0  0  0
    1.2050   -6.6300    1.6950 H   0  0  0  0  0  0  0  0  0  0  0  0
    2.5290   -5.5770    2.2380 H   0  0  0  0  0  0  0  0  0  0  0  0
    0.0850   -4.9780    0.5090 H   0  0  0  0  0  0  0  0  0  0  0  0
    1.5870   -4.6900   -1.2670 H   0  0  0  0  0  0  0  0  0  0  0  0
    2.9230   -4.1720   -0.2110 H   0  0  0  0  0  0  0  0  0  0  0  0
    2.3770   -5.9340   -0.2640 H   0  0  0  0  0  0  0  0  0  0  0  0
    1.9620   -2.8550    1.6930 H   0  0  0  0  0  0  0  0  0  0  0  0
   -0.8250   -3.7660    2.0390 H   0  0  0  0  0  0  0  0  0  0  0  0
    0.3280   -3.3040    3.2640 H   0  0  0  0  0  0  0  0  0  0  0  0
   -2.3920   -1.5160   -1.7050 C   0  0  0  0  0  0  0  0  0  0  0  0
   -1.1280   -1.0030   -1.1160 C   0  0  2  0  0  0  0  0  0  0  0  0
   -0.6900   -1.7680    0.0470 N   0  0  0  0  0  0  0  0  0  0  0  0
   -1.1830    0.4150   -0.6900 C   0  0  0  0  0  0  0  0  0  0  0  0
   -1.5440    1.2280   -1.5720 O   0  0  0  0  0  0  0  0  0  0  0  0
   -2.1710   -2.3050   -2.4520 H   0  0  0  0  0  0  0  0  0  0  0  0
   -3.0990   -1.9490   -0.9760 H   0  0  0  0  0  0  0  0  0  0  0  0
   -2.9480   -0.7170   -2.2400 H   0  0  0  0  0  0  0  0  0  0  0  0
   -0.3310   -1.0700   -1.8900 H   0  0  0  0  0  0  0  0  0  0  0  0
   -1.3030   -1.8320    0.8890 H   0  0  0  0  0  0  0  0  0  0  0  0
    1.4560    2.3780    2.7480 C   0  0  0  0  0  0  0  0  0  0  0  0
    1.5010    2.4750    1.2380 C   0  0  0  0  0  0  0  0  0  0  0  0
    0.2180    3.1120    0.6980 C   0  0  2  0  0  0  0  0  0  0  0  0
    0.0460    4.5090    1.2630 C   0  0  0  0  0  0  0  0  0  0  0  0
   -0.9040    2.2230    1.0810 C   0  0  2  0  0  0  0  0  0  0  0  0
   -0.8660    0.8930    0.5970 N   0  0  0  0  0  0  0  0  0  0  0  0
   -2.2140    2.8560    0.6830 C   0  0  0  0  0  0  0  0  0  0  0  0
   -2.4450    4.0830    0.9210 O   0  0  0  0  0  0  0  0  0  0  0  0
   -3.2160    2.1590    0.0530 O   0  0  0  0  0  0  0  0  0  0  0  0
    2.5150    2.2830    3.0870 H   0  0  0  0  0  0  0  0  0  0  0  0
    1.0320    3.2600    3.2350 H   0  0  0  0  0  0  0  0  0  0  0  0
    0.9650    1.4190    3.0720 H   0  0  0  0  0  0  0  0  0  0  0  0
    2.3960    3.0380    0.9520 H   0  0  0  0  0  0  0  0  0  0  0  0
    1.6110    1.4410    0.8550 H   0  0  0  0  0  0  0  0  0  0  0  0
    0.3690    3.2270   -0.3790 H   0  0  0  0  0  0  0  0  0  0  0  0
   -0.5390    4.5290    2.1950 H   0  0  0  0  0  0  0  0  0  0  0  0
    1.0520    4.9730    1.4820 H   0  0  0  0  0  0  0  0  0  0  0  0
   -0.4320    5.2050    0.5490 H   0  0  0  0  0  0  0  0  0  0  0  0
   -1.0200    2.1740    2.2210 H   0  0  0  0  0  0  0  0  0  0  0  0
   -0.5510    0.1490    1.3030 H   0  0  0  0  0  0  0  0  0  0  0  0
  1 10  1  0  0  0  0
  1  8  1  0  0  0  0
  2  4  1  0  0  0  0
  2  1  1  0  0  0  0
  3 14  1  0  0  0  0
  3 13  1  0  0  0  0
  3  2  1  0  0  0  0
  4 15  1  1  0  0  0
  4  5  1  0  0  0  0
  5 17  1  0  0  0  0
  6  4  1  0  0  0  0
  7  6  2  0  0  0  0
  9  1  1  0  0  0  0
 11  2  1  0  0  0  0
 12  3  1  0  0  0  0
 16  5  1  0  0  0  0
 18 19  1  0  0  0  0
 18 24  1  0  0  0  0
 19 26  1  6  0  0  0
 19 21  1  0  0  0  0
 19 20  1  0  0  0  0
 20  6  1  0  0  0  0
 20 27  1  0  0  0  0
 21 33  1  0  0  0  0
 22 21  2  0  0  0  0
 23 18  1  0  0  0  0
 25 18  1  0  0  0  0
 28 39  1  0  0  0  0
 28 37  1  0  0  0  0
 28 38  1  0  0  0  0
 29 28  1  0  0  0  0
 30 42  1  6  0  0  0
 30 32  1  0  0  0  0
 30 29  1  0  0  0  0
 30 31  1  0  0  0  0
 31 44  1  0  0  0  0
 31 43  1  0  0  0  0
 32 46  1  1  0  0  0
 33 32  1  0  0  0  0
 33 47  1  0  0  0  0
 34 35  1  0  0  0  0
 34 32  1  0  0  0  0
 36 34  2  0  0  0  0
 40 29  1  0  0  0  0
 41 29  1  0  0  0  0
 45 31  1  0  0  0  0
M  END
$$$$
