VAK.pdb
 OpenBabel07022419243D

 49 48  0  0  1  0  0  0  0  0999 V2000
   -0.3560   -5.7630    0.8770 C   0  0  0  0  0  0  0  0  0  0  0  0
    1.1140   -5.5510    0.6830 C   0  0  0  0  0  0  0  0  0  0  0  0
    1.9250   -5.8080    1.9180 C   0  0  0  0  0  0  0  0  0  0  0  0
    1.3420   -4.2140    0.0640 C   0  0  2  0  0  0  0  0  0  0  0  0
    2.7620   -3.9440   -0.1520 N   0  0  0  0  0  0  0  0  0  0  0  0
    0.6900   -3.1010    0.7970 C   0  0  0  0  0  0  0  0  0  0  0  0
   -0.5380   -3.1970    1.0540 O   0  0  0  0  0  0  0  0  0  0  0  0
   -0.9130   -5.2740    0.0510 H   0  0  0  0  0  0  0  0  0  0  0  0
   -0.6790   -5.3850    1.8620 H   0  0  0  0  0  0  0  0  0  0  0  0
   -0.5930   -6.8550    0.7850 H   0  0  0  0  0  0  0  0  0  0  0  0
    1.4460   -6.3170   -0.0780 H   0  0  0  0  0  0  0  0  0  0  0  0
    2.7860   -6.4970    1.7280 H   0  0  0  0  0  0  0  0  0  0  0  0
    2.3640   -4.8970    2.3650 H   0  0  0  0  0  0  0  0  0  0  0  0
    1.2810   -6.3630    2.6600 H   0  0  0  0  0  0  0  0  0  0  0  0
    0.8850   -4.2360   -0.9480 H   0  0  0  0  0  0  0  0  0  0  0  0
    3.2890   -4.1500    0.7000 H   0  0  0  0  0  0  0  0  0  0  0  0
    2.9300   -3.0420   -0.6020 H   0  0  0  0  0  0  0  0  0  0  0  0
    1.3730   -0.7370    3.2960 C   0  0  0  0  0  0  0  0  0  0  0  0
    0.7680   -0.8490    1.9290 C   0  0  2  0  0  0  0  0  0  0  0  0
    1.3920   -1.9410    1.2140 N   0  0  0  0  0  0  0  0  0  0  0  0
    0.9160    0.3980    1.1390 C   0  0  0  0  0  0  0  0  0  0  0  0
    1.5130    0.3860    0.0310 O   0  0  0  0  0  0  0  0  0  0  0  0
    1.1760   -1.6920    3.8250 H   0  0  0  0  0  0  0  0  0  0  0  0
    0.8350    0.0480    3.8900 H   0  0  0  0  0  0  0  0  0  0  0  0
    2.4510   -0.5640    3.2940 H   0  0  0  0  0  0  0  0  0  0  0  0
   -0.3090   -1.1230    2.0580 H   0  0  0  0  0  0  0  0  0  0  0  0
    2.4020   -1.8830    0.9920 H   0  0  0  0  0  0  0  0  0  0  0  0
    0.4010    1.6440    1.5870 N   0  0  0  0  0  0  0  0  0  0  0  0
    0.5430    2.8440    0.8290 C   0  0  1  0  0  0  0  0  0  0  0  0
   -0.7910    3.4080    0.3790 C   0  0  0  0  0  0  0  0  0  0  0  0
   -1.5250    2.4110   -0.4900 C   0  0  0  0  0  0  0  0  0  0  0  0
   -2.8600    2.9540   -0.9510 C   0  0  0  0  0  0  0  0  0  0  0  0
   -3.4910    1.8550   -1.8130 C   0  0  0  0  0  0  0  0  0  0  0  0
   -2.5680    1.6280   -2.9150 N   0  0  0  0  0  0  0  0  0  0  0  0
    1.2770    3.9090    1.5530 C   0  0  0  0  0  0  0  0  0  0  0  0
    1.7350    3.7890    2.7110 O   0  0  0  0  0  0  0  0  0  0  0  0
    1.4660    5.1180    0.8980 O   0  0  0  0  0  0  0  0  0  0  0  0
   -0.0960    1.6360    2.5170 H   0  0  0  0  0  0  0  0  0  0  0  0
    1.1030    2.5980   -0.1140 H   0  0  0  0  0  0  0  0  0  0  0  0
   -0.6500    4.3190   -0.2370 H   0  0  0  0  0  0  0  0  0  0  0  0
   -1.4460    3.6740    1.2290 H   0  0  0  0  0  0  0  0  0  0  0  0
   -1.7430    1.5250    0.1400 H   0  0  0  0  0  0  0  0  0  0  0  0
   -0.9390    2.0760   -1.3500 H   0  0  0  0  0  0  0  0  0  0  0  0
   -2.7260    3.8840   -1.5210 H   0  0  0  0  0  0  0  0  0  0  0  0
   -3.5290    3.0780   -0.0730 H   0  0  0  0  0  0  0  0  0  0  0  0
   -3.4550    0.9320   -1.1780 H   0  0  0  0  0  0  0  0  0  0  0  0
   -4.5000    2.1100   -2.1350 H   0  0  0  0  0  0  0  0  0  0  0  0
   -2.9830    1.8300   -3.8370 H   0  0  0  0  0  0  0  0  0  0  0  0
   -2.1210    0.6840   -2.8740 H   0  0  0  0  0  0  0  0  0  0  0  0
  1  9  1  0  0  0  0
  2  1  1  0  0  0  0
  2  3  1  0  0  0  0
  3 13  1  0  0  0  0
  3 14  1  0  0  0  0
  4 15  1  6  0  0  0
  4  2  1  0  0  0  0
  4  6  1  0  0  0  0
  5  4  1  0  0  0  0
  5 16  1  0  0  0  0
  6  7  2  0  0  0  0
  6 20  1  0  0  0  0
  8  1  1  0  0  0  0
 10  1  1  0  0  0  0
 11  2  1  0  0  0  0
 12  3  1  0  0  0  0
 17  5  1  0  0  0  0
 18 23  1  0  0  0  0
 18 24  1  0  0  0  0
 19 26  1  1  0  0  0
 19 18  1  0  0  0  0
 20 19  1  0  0  0  0
 21 28  1  0  0  0  0
 21 19  1  0  0  0  0
 22 21  2  0  0  0  0
 25 18  1  0  0  0  0
 27 20  1  0  0  0  0
 28 38  1  0  0  0  0
 29 39  1  6  0  0  0
 29 35  1  0  0  0  0
 29 28  1  0  0  0  0
 30 29  1  0  0  0  0
 30 41  1  0  0  0  0
 31 42  1  0  0  0  0
 31 30  1  0  0  0  0
 32 31  1  0  0  0  0
 32 45  1  0  0  0  0
 33 46  1  0  0  0  0
 33 32  1  0  0  0  0
 34 49  1  0  0  0  0
 34 33  1  0  0  0  0
 35 36  1  0  0  0  0
 37 35  2  0  0  0  0
 40 30  1  0  0  0  0
 43 31  1  0  0  0  0
 44 32  1  0  0  0  0
 47 33  1  0  0  0  0
 48 34  1  0  0  0  0
M  END
$$$$
