VAN.pdb
 OpenBabel07022419243D

 42 41  0  0  1  0  0  0  0  0999 V2000
   -2.1350   -4.6160    0.7760 C   0  0  0  0  0  0  0  0  0  0  0  0
   -2.3640   -3.3470    0.0010 C   0  0  0  0  0  0  0  0  0  0  0  0
   -1.9850   -3.5950   -1.4260 C   0  0  0  0  0  0  0  0  0  0  0  0
   -1.6710   -2.1760    0.6260 C   0  0  2  0  0  0  0  0  0  0  0  0
   -1.9140   -0.9740   -0.1480 N   0  0  0  0  0  0  0  0  0  0  0  0
   -0.2310   -2.3620    0.8250 C   0  0  0  0  0  0  0  0  0  0  0  0
    0.2760   -3.3260    1.4630 O   0  0  0  0  0  0  0  0  0  0  0  0
   -1.3080   -5.2330    0.3700 H   0  0  0  0  0  0  0  0  0  0  0  0
   -3.0810   -5.2230    0.8630 H   0  0  0  0  0  0  0  0  0  0  0  0
   -1.8410   -4.3340    1.8110 H   0  0  0  0  0  0  0  0  0  0  0  0
   -3.4580   -3.1320    0.0200 H   0  0  0  0  0  0  0  0  0  0  0  0
   -2.5170   -2.9790   -2.1580 H   0  0  0  0  0  0  0  0  0  0  0  0
   -0.8710   -3.5850   -1.5790 H   0  0  0  0  0  0  0  0  0  0  0  0
   -2.2770   -4.6620   -1.6530 H   0  0  0  0  0  0  0  0  0  0  0  0
   -2.1810   -2.0030    1.6170 H   0  0  0  0  0  0  0  0  0  0  0  0
   -2.0680   -0.1370    0.4800 H   0  0  0  0  0  0  0  0  0  0  0  0
   -2.7760   -1.0400   -0.7370 H   0  0  0  0  0  0  0  0  0  0  0  0
    2.8110   -1.7710   -0.8430 C   0  0  0  0  0  0  0  0  0  0  0  0
    2.1360   -1.6020    0.4810 C   0  0  2  0  0  0  0  0  0  0  0  0
    0.6890   -1.4200    0.2840 N   0  0  0  0  0  0  0  0  0  0  0  0
    2.6550   -0.4040    1.1820 C   0  0  0  0  0  0  0  0  0  0  0  0
    3.8800   -0.3580    1.4460 O   0  0  0  0  0  0  0  0  0  0  0  0
    3.8080   -2.2180   -0.6790 H   0  0  0  0  0  0  0  0  0  0  0  0
    2.2230   -2.5290   -1.4330 H   0  0  0  0  0  0  0  0  0  0  0  0
    2.9020   -0.8420   -1.4220 H   0  0  0  0  0  0  0  0  0  0  0  0
    2.3250   -2.5300    1.0700 H   0  0  0  0  0  0  0  0  0  0  0  0
    0.3790   -0.5860   -0.2610 H   0  0  0  0  0  0  0  0  0  0  0  0
    0.3610    4.6010    0.6590 N   0  0  0  0  0  0  0  0  0  0  0  0
    0.7510    3.4150    1.3550 C   0  0  0  0  0  0  0  0  0  0  0  0
   -0.1400    2.6520    1.7830 O   0  0  0  0  0  0  0  0  0  0  0  0
    2.1930    3.1430    1.5360 C   0  0  0  0  0  0  0  0  0  0  0  0
    2.3980    1.8540    2.2620 C   0  0  2  0  0  0  0  0  0  0  0  0
    1.8490    0.6970    1.5750 N   0  0  0  0  0  0  0  0  0  0  0  0
    1.8280    1.8980    3.6210 C   0  0  0  0  0  0  0  0  0  0  0  0
    1.0030    1.0390    4.0510 O   0  0  0  0  0  0  0  0  0  0  0  0
    2.2230    2.9440    4.4730 O   0  0  0  0  0  0  0  0  0  0  0  0
   -0.4620    5.1700    0.9510 H   0  0  0  0  0  0  0  0  0  0  0  0
    0.9150    4.9130   -0.1680 H   0  0  0  0  0  0  0  0  0  0  0  0
    2.6470    3.9820    2.0990 H   0  0  0  0  0  0  0  0  0  0  0  0
    2.6960    3.1420    0.5330 H   0  0  0  0  0  0  0  0  0  0  0  0
    3.4990    1.6620    2.3900 H   0  0  0  0  0  0  0  0  0  0  0  0
    0.8320    0.6030    1.3300 H   0  0  0  0  0  0  0  0  0  0  0  0
  1  9  1  0  0  0  0
  1 10  1  0  0  0  0
  2 11  1  0  0  0  0
  2  4  1  0  0  0  0
  2  1  1  0  0  0  0
  3  2  1  0  0  0  0
  4  6  1  0  0  0  0
  4 15  1  1  0  0  0
  5 16  1  0  0  0  0
  5  4  1  0  0  0  0
  6  7  2  0  0  0  0
  8  1  1  0  0  0  0
 12  3  1  0  0  0  0
 13  3  1  0  0  0  0
 14  3  1  0  0  0  0
 17  5  1  0  0  0  0
 18 23  1  0  0  0  0
 18 19  1  0  0  0  0
 19 26  1  1  0  0  0
 19 21  1  0  0  0  0
 20 19  1  0  0  0  0
 20  6  1  0  0  0  0
 21 22  2  0  0  0  0
 21 33  1  0  0  0  0
 24 18  1  0  0  0  0
 25 18  1  0  0  0  0
 27 20  1  0  0  0  0
 28 37  1  0  0  0  0
 28 29  1  0  0  0  0
 29 31  1  0  0  0  0
 29 30  2  0  0  0  0
 31 39  1  0  0  0  0
 31 32  1  0  0  0  0
 32 41  1  1  0  0  0
 32 34  1  0  0  0  0
 33 32  1  0  0  0  0
 34 35  2  0  0  0  0
 34 36  1  0  0  0  0
 38 28  1  0  0  0  0
 40 31  1  0  0  0  0
 42 33  1  0  0  0  0
M  END
$$$$
