VAR.pdb
 OpenBabel07022419243D

 51 50  0  0  1  0  0  0  0  0999 V2000
    0.6320   -6.5940    1.6210 C   0  0  0  0  0  0  0  0  0  0  0  0
    0.3410   -5.1060    1.3840 C   0  0  0  0  0  0  0  0  0  0  0  0
   -0.6450   -5.0270    0.2710 C   0  0  0  0  0  0  0  0  0  0  0  0
    1.6870   -4.4830    1.0770 C   0  0  2  0  0  0  0  0  0  0  0  0
    2.5750   -4.6960    2.2290 N   0  0  0  0  0  0  0  0  0  0  0  0
    1.6160   -3.0180    0.8560 C   0  0  0  0  0  0  0  0  0  0  0  0
    2.1530   -2.2100    1.6970 O   0  0  0  0  0  0  0  0  0  0  0  0
    1.4550   -6.7200    2.3530 H   0  0  0  0  0  0  0  0  0  0  0  0
    0.9730   -6.9820    0.6320 H   0  0  0  0  0  0  0  0  0  0  0  0
   -0.2790   -7.1450    1.9140 H   0  0  0  0  0  0  0  0  0  0  0  0
   -0.0580   -4.7040    2.3220 H   0  0  0  0  0  0  0  0  0  0  0  0
   -1.1780   -4.0600    0.3230 H   0  0  0  0  0  0  0  0  0  0  0  0
   -0.2400   -5.2320   -0.7190 H   0  0  0  0  0  0  0  0  0  0  0  0
   -1.4280   -5.8160    0.4590 H   0  0  0  0  0  0  0  0  0  0  0  0
    2.1450   -5.0000    0.2150 H   0  0  0  0  0  0  0  0  0  0  0  0
    3.2120   -5.4910    2.0670 H   0  0  0  0  0  0  0  0  0  0  0  0
    3.1780   -3.8410    2.3740 H   0  0  0  0  0  0  0  0  0  0  0  0
    1.7180   -0.5090   -1.6290 C   0  0  0  0  0  0  0  0  0  0  0  0
    0.9550   -0.9330   -0.3940 C   0  0  2  0  0  0  0  0  0  0  0  0
    0.9830   -2.3960   -0.2490 N   0  0  0  0  0  0  0  0  0  0  0  0
   -0.4430   -0.4680   -0.4040 C   0  0  0  0  0  0  0  0  0  0  0  0
   -1.3730   -1.2940   -0.3180 O   0  0  0  0  0  0  0  0  0  0  0  0
    1.8320   -1.3570   -2.3570 H   0  0  0  0  0  0  0  0  0  0  0  0
    2.7100   -0.0640   -1.3740 H   0  0  0  0  0  0  0  0  0  0  0  0
    1.1710    0.2800   -2.1940 H   0  0  0  0  0  0  0  0  0  0  0  0
    1.4630   -0.5020    0.4790 H   0  0  0  0  0  0  0  0  0  0  0  0
    0.5380   -3.0090   -0.9640 H   0  0  0  0  0  0  0  0  0  0  0  0
    2.1970    3.5400    0.7680 N   0  0  0  0  0  0  0  0  0  0  0  0
    1.2740    3.2080    1.7790 C   0  0  0  0  0  0  0  0  0  0  0  0
    1.6340    2.9670    2.9940 N   0  0  0  0  0  0  0  0  0  0  0  0
   -0.1150    3.1260    1.4840 N   0  0  0  0  0  0  0  0  0  0  0  0
   -1.1060    2.6720    2.3950 C   0  0  0  0  0  0  0  0  0  0  0  0
   -2.4350    2.5370    1.7870 C   0  0  0  0  0  0  0  0  0  0  0  0
   -2.7910    1.5570    0.7940 C   0  0  0  0  0  0  0  0  0  0  0  0
   -2.1930    1.3290   -0.5190 C   0  0  2  0  0  0  0  0  0  0  0  0
   -0.8220    0.9240   -0.5110 N   0  0  0  0  0  0  0  0  0  0  0  0
   -2.4800    2.3760   -1.5220 C   0  0  0  0  0  0  0  0  0  0  0  0
   -1.5640    2.8040   -2.2360 O   0  0  0  0  0  0  0  0  0  0  0  0
   -3.7510    2.8650   -1.6540 O   0  0  0  0  0  0  0  0  0  0  0  0
    3.0060    4.1620    0.9990 H   0  0  0  0  0  0  0  0  0  0  0  0
    2.1180    3.1980   -0.2040 H   0  0  0  0  0  0  0  0  0  0  0  0
    2.6450    3.0220    3.2240 H   0  0  0  0  0  0  0  0  0  0  0  0
   -0.4050    3.4560    0.5390 H   0  0  0  0  0  0  0  0  0  0  0  0
   -1.1710    3.4780    3.1980 H   0  0  0  0  0  0  0  0  0  0  0  0
   -0.7790    1.7750    2.9800 H   0  0  0  0  0  0  0  0  0  0  0  0
   -2.7420    3.5990    1.4810 H   0  0  0  0  0  0  0  0  0  0  0  0
   -3.1760    2.3910    2.6720 H   0  0  0  0  0  0  0  0  0  0  0  0
   -3.9400    1.6820    0.6240 H   0  0  0  0  0  0  0  0  0  0  0  0
   -2.8050    0.5120    1.3080 H   0  0  0  0  0  0  0  0  0  0  0  0
   -2.8270    0.4280   -0.9350 H   0  0  0  0  0  0  0  0  0  0  0  0
   -0.0110    1.5550   -0.6190 H   0  0  0  0  0  0  0  0  0  0  0  0
  1 10  1  0  0  0  0
  1  8  1  0  0  0  0
  2  1  1  0  0  0  0
  2 11  1  0  0  0  0
  3 12  1  0  0  0  0
  3 14  1  0  0  0  0
  3  2  1  0  0  0  0
  4 15  1  6  0  0  0
  4  2  1  0  0  0  0
  4  5  1  0  0  0  0
  5 17  1  0  0  0  0
  6  4  1  0  0  0  0
  6  7  2  0  0  0  0
  9  1  1  0  0  0  0
 13  3  1  0  0  0  0
 16  5  1  0  0  0  0
 18 24  1  0  0  0  0
 18 19  1  0  0  0  0
 19 20  1  0  0  0  0
 19 26  1  1  0  0  0
 20  6  1  0  0  0  0
 21 19  1  0  0  0  0
 21 22  2  0  0  0  0
 23 18  1  0  0  0  0
 25 18  1  0  0  0  0
 27 20  1  0  0  0  0
 28 40  1  0  0  0  0
 28 29  1  0  0  0  0
 29 30  2  0  0  0  0
 30 42  1  0  0  0  0
 31 29  1  0  0  0  0
 31 32  1  0  0  0  0
 32 45  1  0  0  0  0
 32 44  1  0  0  0  0
 33 32  1  0  0  0  0
 33 47  1  0  0  0  0
 34 49  1  0  0  0  0
 34 33  1  0  0  0  0
 35 50  1  6  0  0  0
 35 36  1  0  0  0  0
 35 34  1  0  0  0  0
 36 21  1  0  0  0  0
 37 35  1  0  0  0  0
 38 37  2  0  0  0  0
 39 37  1  0  0  0  0
 41 28  1  0  0  0  0
 43 31  1  0  0  0  0
 46 33  1  0  0  0  0
 48 34  1  0  0  0  0
 51 36  1  0  0  0  0
M  END
$$$$
