VAT.pdb
 OpenBabel07022419243D

 42 41  0  0  1  0  0  0  0  0999 V2000
   -2.2400   -3.5290    0.8240 C   0  0  0  0  0  0  0  0  0  0  0  0
   -1.5310   -3.8030    2.1140 C   0  0  0  0  0  0  0  0  0  0  0  0
   -0.0590   -4.0270    1.9820 C   0  0  0  0  0  0  0  0  0  0  0  0
   -1.8310   -2.7080    3.1370 C   0  0  2  0  0  0  0  0  0  0  0  0
   -3.2950   -2.7020    3.3700 N   0  0  0  0  0  0  0  0  0  0  0  0
   -1.4720   -1.3640    2.6680 C   0  0  0  0  0  0  0  0  0  0  0  0
   -2.4140   -0.5440    2.3900 O   0  0  0  0  0  0  0  0  0  0  0  0
   -3.1730   -2.9700    1.0580 H   0  0  0  0  0  0  0  0  0  0  0  0
   -2.4720   -4.5020    0.3170 H   0  0  0  0  0  0  0  0  0  0  0  0
   -1.6560   -2.8910    0.1420 H   0  0  0  0  0  0  0  0  0  0  0  0
   -1.9750   -4.7540    2.5350 H   0  0  0  0  0  0  0  0  0  0  0  0
    0.4010   -3.3270    1.2360 H   0  0  0  0  0  0  0  0  0  0  0  0
    0.4320   -3.8380    2.9450 H   0  0  0  0  0  0  0  0  0  0  0  0
    0.1370   -5.0840    1.6700 H   0  0  0  0  0  0  0  0  0  0  0  0
   -1.3550   -2.9350    4.1100 H   0  0  0  0  0  0  0  0  0  0  0  0
   -3.6430   -1.7210    3.4640 H   0  0  0  0  0  0  0  0  0  0  0  0
   -3.5110   -3.2020    4.2620 H   0  0  0  0  0  0  0  0  0  0  0  0
    0.8380    1.2960    3.0200 C   0  0  0  0  0  0  0  0  0  0  0  0
    0.0900    0.4530    2.0270 C   0  0  2  0  0  0  0  0  0  0  0  0
   -0.1300   -0.8920    2.4970 N   0  0  0  0  0  0  0  0  0  0  0  0
    0.8280    0.3530    0.7210 C   0  0  0  0  0  0  0  0  0  0  0  0
    1.1010   -0.7890    0.3080 O   0  0  0  0  0  0  0  0  0  0  0  0
    0.1000    1.7460    3.7140 H   0  0  0  0  0  0  0  0  0  0  0  0
    1.6260    0.7330    3.5580 H   0  0  0  0  0  0  0  0  0  0  0  0
    1.3460    2.1300    2.4970 H   0  0  0  0  0  0  0  0  0  0  0  0
   -0.8990    0.9700    1.8520 H   0  0  0  0  0  0  0  0  0  0  0  0
    0.6740   -1.4950    2.7110 H   0  0  0  0  0  0  0  0  0  0  0  0
    3.9810    2.2530   -2.4840 C   0  0  0  0  0  0  0  0  0  0  0  0
    3.2670    2.1260   -1.1560 C   0  0  1  0  0  0  0  0  0  0  0  0
    3.3240    3.4000   -0.5690 O   0  0  0  0  0  0  0  0  0  0  0  0
    1.8770    1.6140   -1.2570 C   0  0  2  0  0  0  0  0  0  0  0  0
    1.2000    1.5010   -0.0110 N   0  0  0  0  0  0  0  0  0  0  0  0
    1.6740    0.5280   -2.2380 C   0  0  0  0  0  0  0  0  0  0  0  0
    2.3740    0.4890   -3.2940 O   0  0  0  0  0  0  0  0  0  0  0  0
    0.7280   -0.4440   -2.0260 O   0  0  0  0  0  0  0  0  0  0  0  0
    3.2900    2.5930   -3.2690 H   0  0  0  0  0  0  0  0  0  0  0  0
    4.4640    1.2990   -2.8070 H   0  0  0  0  0  0  0  0  0  0  0  0
    4.7830    3.0280   -2.3970 H   0  0  0  0  0  0  0  0  0  0  0  0
    3.8620    1.4030   -0.5510 H   0  0  0  0  0  0  0  0  0  0  0  0
    2.3960    3.6550   -0.3360 H   0  0  0  0  0  0  0  0  0  0  0  0
    1.2720    2.4670   -1.7940 H   0  0  0  0  0  0  0  0  0  0  0  0
    0.8970    2.4090    0.5040 H   0  0  0  0  0  0  0  0  0  0  0  0
  1  8  1  0  0  0  0
  1  2  1  0  0  0  0
  2 11  1  0  0  0  0
  2  4  1  0  0  0  0
  3  2  1  0  0  0  0
  3 13  1  0  0  0  0
  4  5  1  0  0  0  0
  4 15  1  1  0  0  0
  5 16  1  0  0  0  0
  5 17  1  0  0  0  0
  6  4  1  0  0  0  0
  7  6  2  0  0  0  0
  9  1  1  0  0  0  0
 10  1  1  0  0  0  0
 12  3  1  0  0  0  0
 14  3  1  0  0  0  0
 18 24  1  0  0  0  0
 18 23  1  0  0  0  0
 19 26  1  6  0  0  0
 19 20  1  0  0  0  0
 19 18  1  0  0  0  0
 20  6  1  0  0  0  0
 20 27  1  0  0  0  0
 21 19  1  0  0  0  0
 22 21  2  0  0  0  0
 25 18  1  0  0  0  0
 28 38  1  0  0  0  0
 28 29  1  0  0  0  0
 29 30  1  0  0  0  0
 29 39  1  1  0  0  0
 30 40  1  0  0  0  0
 31 41  1  6  0  0  0
 31 29  1  0  0  0  0
 31 32  1  0  0  0  0
 32 42  1  0  0  0  0
 32 21  1  0  0  0  0
 33 35  1  0  0  0  0
 33 31  1  0  0  0  0
 34 33  2  0  0  0  0
 36 28  1  0  0  0  0
 37 28  1  0  0  0  0
M  END
$$$$
