VAV.pdb
 OpenBabel07022419243D

 44 43  0  0  1  0  0  0  0  0999 V2000
   -2.3050   -4.5510    0.7740 C   0  0  0  0  0  0  0  0  0  0  0  0
   -0.8380   -4.6970    0.4490 C   0  0  0  0  0  0  0  0  0  0  0  0
   -0.6780   -5.1120   -0.9880 C   0  0  0  0  0  0  0  0  0  0  0  0
   -0.0790   -3.4530    0.8000 C   0  0  2  0  0  0  0  0  0  0  0  0
   -0.2360   -3.2210    2.2160 N   0  0  0  0  0  0  0  0  0  0  0  0
   -0.4660   -2.2710    0.0350 C   0  0  0  0  0  0  0  0  0  0  0  0
   -0.4290   -2.1940   -1.2230 O   0  0  0  0  0  0  0  0  0  0  0  0
   -2.4350   -4.6210    1.8690 H   0  0  0  0  0  0  0  0  0  0  0  0
   -2.8140   -5.4470    0.3370 H   0  0  0  0  0  0  0  0  0  0  0  0
   -2.7170   -3.6100    0.3580 H   0  0  0  0  0  0  0  0  0  0  0  0
   -0.4420   -5.5200    1.0780 H   0  0  0  0  0  0  0  0  0  0  0  0
   -0.8150   -6.2120   -1.0350 H   0  0  0  0  0  0  0  0  0  0  0  0
   -1.4680   -4.6780   -1.6440 H   0  0  0  0  0  0  0  0  0  0  0  0
    0.3390   -4.9020   -1.3380 H   0  0  0  0  0  0  0  0  0  0  0  0
    1.0160   -3.6160    0.6320 H   0  0  0  0  0  0  0  0  0  0  0  0
   -1.1920   -2.9800    2.5150 H   0  0  0  0  0  0  0  0  0  0  0  0
    0.3930   -2.4300    2.4760 H   0  0  0  0  0  0  0  0  0  0  0  0
   -2.7610    0.4630    0.2580 C   0  0  0  0  0  0  0  0  0  0  0  0
   -1.3200    0.1020    0.0250 C   0  0  2  0  0  0  0  0  0  0  0  0
   -0.9200   -1.1050    0.7120 N   0  0  0  0  0  0  0  0  0  0  0  0
   -0.4070    1.2400    0.3660 C   0  0  0  0  0  0  0  0  0  0  0  0
   -0.5930    2.3710   -0.1340 O   0  0  0  0  0  0  0  0  0  0  0  0
   -2.9540    0.8770    1.2590 H   0  0  0  0  0  0  0  0  0  0  0  0
   -3.3770   -0.3980   -0.0070 H   0  0  0  0  0  0  0  0  0  0  0  0
   -3.0090    1.2710   -0.4790 H   0  0  0  0  0  0  0  0  0  0  0  0
   -1.2000   -0.0750   -1.0650 H   0  0  0  0  0  0  0  0  0  0  0  0
   -0.9740   -1.1050    1.7540 H   0  0  0  0  0  0  0  0  0  0  0  0
    3.5840    3.4460    1.1830 C   0  0  0  0  0  0  0  0  0  0  0  0
    2.6880    2.3350    0.6770 C   0  0  0  0  0  0  0  0  0  0  0  0
    3.5820    1.1270    0.4840 C   0  0  0  0  0  0  0  0  0  0  0  0
    1.5800    2.0670    1.6410 C   0  0  2  0  0  0  0  0  0  0  0  0
    0.6770    1.0370    1.2610 N   0  0  0  0  0  0  0  0  0  0  0  0
    0.8990    3.3220    2.1160 C   0  0  0  0  0  0  0  0  0  0  0  0
   -0.3440    3.3120    2.2030 O   0  0  0  0  0  0  0  0  0  0  0  0
    1.6000    4.4640    2.4510 O   0  0  0  0  0  0  0  0  0  0  0  0
    4.6340    3.3200    0.7820 H   0  0  0  0  0  0  0  0  0  0  0  0
    3.2750    4.4460    0.8300 H   0  0  0  0  0  0  0  0  0  0  0  0
    3.6870    3.4430    2.2670 H   0  0  0  0  0  0  0  0  0  0  0  0
    2.2320    2.5890   -0.3060 H   0  0  0  0  0  0  0  0  0  0  0  0
    3.7530    0.7090    1.5160 H   0  0  0  0  0  0  0  0  0  0  0  0
    3.0830    0.3160   -0.0800 H   0  0  0  0  0  0  0  0  0  0  0  0
    4.5270    1.4350    0.0200 H   0  0  0  0  0  0  0  0  0  0  0  0
    2.0690    1.6900    2.6080 H   0  0  0  0  0  0  0  0  0  0  0  0
    0.8040    0.0460    1.6590 H   0  0  0  0  0  0  0  0  0  0  0  0
  1  8  1  0  0  0  0
  2  1  1  0  0  0  0
  2  4  1  0  0  0  0
  2 11  1  0  0  0  0
  3  2  1  0  0  0  0
  4 15  1  6  0  0  0
  4  5  1  0  0  0  0
  5 17  1  0  0  0  0
  5 16  1  0  0  0  0
  6 20  1  0  0  0  0
  6  4  1  0  0  0  0
  7  6  2  0  0  0  0
  9  1  1  0  0  0  0
 10  1  1  0  0  0  0
 12  3  1  0  0  0  0
 13  3  1  0  0  0  0
 14  3  1  0  0  0  0
 18 23  1  0  0  0  0
 19 26  1  6  0  0  0
 19 18  1  0  0  0  0
 19 21  1  0  0  0  0
 19 20  1  0  0  0  0
 20 27  1  0  0  0  0
 21 32  1  0  0  0  0
 22 21  2  0  0  0  0
 24 18  1  0  0  0  0
 25 18  1  0  0  0  0
 28 38  1  0  0  0  0
 29 28  1  0  0  0  0
 29 31  1  0  0  0  0
 30 29  1  0  0  0  0
 30 40  1  0  0  0  0
 31 33  1  0  0  0  0
 31 43  1  1  0  0  0
 32 31  1  0  0  0  0
 32 44  1  0  0  0  0
 33 34  2  0  0  0  0
 33 35  1  0  0  0  0
 36 28  1  0  0  0  0
 37 28  1  0  0  0  0
 39 29  1  0  0  0  0
 41 30  1  0  0  0  0
 42 30  1  0  0  0  0
M  END
$$$$
