VAW.pdb
 OpenBabel07022419243D

 52 53  0  0  1  0  0  0  0  0999 V2000
    1.3920   -1.3980    4.6740 C   0  0  0  0  0  0  0  0  0  0  0  0
    2.4520   -1.9750    3.7650 C   0  0  0  0  0  0  0  0  0  0  0  0
    1.9460   -2.9580    2.7670 C   0  0  0  0  0  0  0  0  0  0  0  0
    3.3780   -0.9230    3.2220 C   0  0  2  0  0  0  0  0  0  0  0  0
    4.0300   -0.3090    4.3960 N   0  0  0  0  0  0  0  0  0  0  0  0
    2.7520    0.1240    2.4210 C   0  0  0  0  0  0  0  0  0  0  0  0
    2.8780    1.3360    2.8110 O   0  0  0  0  0  0  0  0  0  0  0  0
    1.2680   -1.9570    5.6170 H   0  0  0  0  0  0  0  0  0  0  0  0
    1.6300   -0.3530    4.9470 H   0  0  0  0  0  0  0  0  0  0  0  0
    0.4160   -1.4640    4.1190 H   0  0  0  0  0  0  0  0  0  0  0  0
    3.1110   -2.5860    4.4740 H   0  0  0  0  0  0  0  0  0  0  0  0
    1.9420   -4.0110    3.1920 H   0  0  0  0  0  0  0  0  0  0  0  0
    2.5860   -3.0160    1.8560 H   0  0  0  0  0  0  0  0  0  0  0  0
    0.8870   -2.7560    2.5390 H   0  0  0  0  0  0  0  0  0  0  0  0
    4.1730   -1.4150    2.6390 H   0  0  0  0  0  0  0  0  0  0  0  0
    4.6920   -1.0460    4.7410 H   0  0  0  0  0  0  0  0  0  0  0  0
    4.5770    0.5030    4.0160 H   0  0  0  0  0  0  0  0  0  0  0  0
    1.9780    1.2160   -0.8790 C   0  0  0  0  0  0  0  0  0  0  0  0
    1.4350    1.1020    0.5210 C   0  0  2  0  0  0  0  0  0  0  0  0
    2.0040   -0.0380    1.2320 N   0  0  0  0  0  0  0  0  0  0  0  0
   -0.0340    0.9170    0.4690 C   0  0  0  0  0  0  0  0  0  0  0  0
   -0.7330    1.8170   -0.1170 O   0  0  0  0  0  0  0  0  0  0  0  0
    1.2490    1.8290   -1.4760 H   0  0  0  0  0  0  0  0  0  0  0  0
    2.9460    1.7340   -0.9280 H   0  0  0  0  0  0  0  0  0  0  0  0
    1.9820    0.2190   -1.3860 H   0  0  0  0  0  0  0  0  0  0  0  0
    1.7060    2.0370    1.0680 H   0  0  0  0  0  0  0  0  0  0  0  0
    1.8540   -0.9950    0.8540 H   0  0  0  0  0  0  0  0  0  0  0  0
   -0.7430   -0.1680    1.0080 N   0  0  0  0  0  0  0  0  0  0  0  0
   -2.1840   -0.2590    0.9060 C   0  0  1  0  0  0  0  0  0  0  0  0
   -2.6130   -1.5260    0.1970 C   0  0  0  0  0  0  0  0  0  0  0  0
   -2.0860   -1.6210   -1.1770 C   0  0  0  0  0  0  0  0  0  0  0  0
   -1.0440   -2.4050   -1.6230 C   0  0  0  0  0  0  0  0  0  0  0  0
   -0.8850   -2.1970   -2.9410 N   0  0  0  0  0  0  0  0  0  0  0  0
   -1.8100   -1.2860   -3.3670 C   0  0  0  0  0  0  0  0  0  0  0  0
   -2.0800   -0.7290   -4.6030 C   0  0  0  0  0  0  0  0  0  0  0  0
   -3.1030    0.1970   -4.7610 C   0  0  0  0  0  0  0  0  0  0  0  0
   -3.8410    0.5440   -3.6480 C   0  0  0  0  0  0  0  0  0  0  0  0
   -3.6020    0.0140   -2.4200 C   0  0  0  0  0  0  0  0  0  0  0  0
   -2.5690   -0.9160   -2.2770 C   0  0  0  0  0  0  0  0  0  0  0  0
   -2.7810   -0.3250    2.2790 C   0  0  0  0  0  0  0  0  0  0  0  0
   -2.0220   -0.2920    3.2780 O   0  0  0  0  0  0  0  0  0  0  0  0
   -4.1440   -0.4210    2.4990 O   0  0  0  0  0  0  0  0  0  0  0  0
   -0.1760   -0.9130    1.4920 H   0  0  0  0  0  0  0  0  0  0  0  0
   -2.5380    0.6350    0.3610 H   0  0  0  0  0  0  0  0  0  0  0  0
   -2.1920   -2.3720    0.7940 H   0  0  0  0  0  0  0  0  0  0  0  0
   -3.7130   -1.6520    0.2150 H   0  0  0  0  0  0  0  0  0  0  0  0
   -0.4390   -3.0840   -1.0310 H   0  0  0  0  0  0  0  0  0  0  0  0
   -0.1960   -2.6200   -3.6020 H   0  0  0  0  0  0  0  0  0  0  0  0
   -1.4790   -1.0260   -5.4510 H   0  0  0  0  0  0  0  0  0  0  0  0
   -3.2830    0.6130   -5.7510 H   0  0  0  0  0  0  0  0  0  0  0  0
   -4.6550    1.2720   -3.7420 H   0  0  0  0  0  0  0  0  0  0  0  0
   -4.1410    0.2420   -1.5130 H   0  0  0  0  0  0  0  0  0  0  0  0
  1  9  1  0  0  0  0
  1  8  1  0  0  0  0
  2 11  1  0  0  0  0
  2  1  1  0  0  0  0
  3 12  1  0  0  0  0
  3  2  1  0  0  0  0
  4 15  1  6  0  0  0
  4  2  1  0  0  0  0
  4  5  1  0  0  0  0
  5 16  1  0  0  0  0
  6  7  2  0  0  0  0
  6  4  1  0  0  0  0
 10  1  1  0  0  0  0
 13  3  1  0  0  0  0
 14  3  1  0  0  0  0
 17  5  1  0  0  0  0
 18 19  1  0  0  0  0
 19 26  1  1  0  0  0
 19 20  1  0  0  0  0
 20  6  1  0  0  0  0
 21 19  1  0  0  0  0
 21 28  1  0  0  0  0
 22 21  2  0  0  0  0
 23 18  1  0  0  0  0
 24 18  1  0  0  0  0
 25 18  1  0  0  0  0
 27 20  1  0  0  0  0
 28 43  1  0  0  0  0
 29 44  1  6  0  0  0
 29 28  1  0  0  0  0
 29 40  1  0  0  0  0
 30 46  1  0  0  0  0
 30 45  1  0  0  0  0
 30 29  1  0  0  0  0
 31 30  1  0  0  0  0
 32 31  2  0  0  0  0
 32 47  1  0  0  0  0
 33 32  1  0  0  0  0
 34 33  1  0  0  0  0
 34 39  1  0  0  0  0
 35 34  2  0  0  0  0
 36 35  1  0  0  0  0
 36 37  2  0  0  0  0
 37 38  1  0  0  0  0
 38 39  2  0  0  0  0
 38 52  1  0  0  0  0
 39 31  1  0  0  0  0
 40 42  2  0  0  0  0
 40 41  1  0  0  0  0
 48 33  1  0  0  0  0
 49 35  1  0  0  0  0
 50 36  1  0  0  0  0
 51 37  1  0  0  0  0
M  END
$$$$
