VAY.pdb
 OpenBabel07022419243D

 49 49  0  0  1  0  0  0  0  0999 V2000
    2.8950   -2.4980    4.5980 C   0  0  0  0  0  0  0  0  0  0  0  0
    1.9170   -1.4990    3.9580 C   0  0  0  0  0  0  0  0  0  0  0  0
    1.0720   -2.2870    3.0170 C   0  0  0  0  0  0  0  0  0  0  0  0
    2.7650   -0.4330    3.2960 C   0  0  2  0  0  0  0  0  0  0  0  0
    3.5800    0.1700    4.3830 N   0  0  0  0  0  0  0  0  0  0  0  0
    2.0210    0.6320    2.6360 C   0  0  0  0  0  0  0  0  0  0  0  0
    1.9980    1.8130    3.1180 O   0  0  0  0  0  0  0  0  0  0  0  0
    3.7210   -2.6200    3.8690 H   0  0  0  0  0  0  0  0  0  0  0  0
    3.2660   -2.0580    5.5280 H   0  0  0  0  0  0  0  0  0  0  0  0
    2.3530   -3.4540    4.7730 H   0  0  0  0  0  0  0  0  0  0  0  0
    1.2760   -1.0460    4.7400 H   0  0  0  0  0  0  0  0  0  0  0  0
    0.9040   -3.3020    3.4940 H   0  0  0  0  0  0  0  0  0  0  0  0
    1.5780   -2.5300    2.0630 H   0  0  0  0  0  0  0  0  0  0  0  0
    0.0550   -1.8690    2.9060 H   0  0  0  0  0  0  0  0  0  0  0  0
    3.4910   -0.9140    2.6190 H   0  0  0  0  0  0  0  0  0  0  0  0
    4.1130    0.9540    3.9060 H   0  0  0  0  0  0  0  0  0  0  0  0
    4.2930   -0.5490    4.6090 H   0  0  0  0  0  0  0  0  0  0  0  0
    1.3930    1.9070   -0.4320 C   0  0  0  0  0  0  0  0  0  0  0  0
    0.5650    1.5590    0.8210 C   0  0  2  0  0  0  0  0  0  0  0  0
    1.2900    0.4420    1.4390 N   0  0  0  0  0  0  0  0  0  0  0  0
   -0.8030    1.1940    0.4030 C   0  0  0  0  0  0  0  0  0  0  0  0
   -1.5480    2.0950   -0.1150 O   0  0  0  0  0  0  0  0  0  0  0  0
    1.2300    2.9730   -0.6580 H   0  0  0  0  0  0  0  0  0  0  0  0
    2.4570    1.7270   -0.2230 H   0  0  0  0  0  0  0  0  0  0  0  0
    1.0880    1.2510   -1.2630 H   0  0  0  0  0  0  0  0  0  0  0  0
    0.6050    2.4700    1.4490 H   0  0  0  0  0  0  0  0  0  0  0  0
    1.2290   -0.4720    0.9430 H   0  0  0  0  0  0  0  0  0  0  0  0
    0.0210   -0.4190   -5.5790 O   0  0  0  0  0  0  0  0  0  0  0  0
   -0.6560   -0.7100   -4.4180 C   0  0  0  0  0  0  0  0  0  0  0  0
    0.0170   -1.2940   -3.3650 C   0  0  0  0  0  0  0  0  0  0  0  0
   -0.6420   -1.5930   -2.1930 C   0  0  0  0  0  0  0  0  0  0  0  0
   -1.9840   -1.2940   -2.1040 C   0  0  0  0  0  0  0  0  0  0  0  0
   -2.7160   -1.6020   -0.8620 C   0  0  0  0  0  0  0  0  0  0  0  0
   -2.6880   -0.4610    0.1290 C   0  0  2  0  0  0  0  0  0  0  0  0
   -1.3630   -0.1030    0.5320 N   0  0  0  0  0  0  0  0  0  0  0  0
   -3.5150   -0.8890    1.3070 C   0  0  0  0  0  0  0  0  0  0  0  0
   -4.7070   -1.2450    1.1780 O   0  0  0  0  0  0  0  0  0  0  0  0
   -2.6560   -0.7100   -3.1560 C   0  0  0  0  0  0  0  0  0  0  0  0
   -1.9980   -0.4110   -4.3260 C   0  0  0  0  0  0  0  0  0  0  0  0
   -2.9690   -0.9000    2.5830 O   0  0  0  0  0  0  0  0  0  0  0  0
    0.7800   -1.0220   -5.9100 H   0  0  0  0  0  0  0  0  0  0  0  0
    1.0810   -1.5360   -3.4250 H   0  0  0  0  0  0  0  0  0  0  0  0
   -0.1010   -2.0580   -1.3580 H   0  0  0  0  0  0  0  0  0  0  0  0
   -3.7800   -1.7750   -1.1310 H   0  0  0  0  0  0  0  0  0  0  0  0
   -2.3660   -2.5440   -0.3940 H   0  0  0  0  0  0  0  0  0  0  0  0
   -3.1910    0.4340   -0.2910 H   0  0  0  0  0  0  0  0  0  0  0  0
   -0.7670   -0.8470    0.9450 H   0  0  0  0  0  0  0  0  0  0  0  0
   -3.7130   -0.4620   -3.1180 H   0  0  0  0  0  0  0  0  0  0  0  0
   -2.4720    0.0460   -5.1820 H   0  0  0  0  0  0  0  0  0  0  0  0
  1 10  1  0  0  0  0
  1  9  1  0  0  0  0
  2  1  1  0  0  0  0
  2 11  1  0  0  0  0
  3 12  1  0  0  0  0
  3  2  1  0  0  0  0
  4 15  1  6  0  0  0
  4  2  1  0  0  0  0
  4  5  1  0  0  0  0
  5 17  1  0  0  0  0
  6  7  2  0  0  0  0
  6  4  1  0  0  0  0
  8  1  1  0  0  0  0
 13  3  1  0  0  0  0
 14  3  1  0  0  0  0
 16  5  1  0  0  0  0
 18 24  1  0  0  0  0
 18 19  1  0  0  0  0
 19 20  1  0  0  0  0
 19 26  1  1  0  0  0
 20  6  1  0  0  0  0
 21 35  1  0  0  0  0
 21 19  1  0  0  0  0
 22 21  2  0  0  0  0
 23 18  1  0  0  0  0
 25 18  1  0  0  0  0
 27 20  1  0  0  0  0
 28 29  1  0  0  0  0
 29 39  2  0  0  0  0
 29 30  1  0  0  0  0
 30 31  2  0  0  0  0
 31 32  1  0  0  0  0
 31 43  1  0  0  0  0
 32 33  1  0  0  0  0
 33 45  1  0  0  0  0
 33 34  1  0  0  0  0
 34 46  1  6  0  0  0
 34 35  1  0  0  0  0
 34 36  1  0  0  0  0
 35 47  1  0  0  0  0
 36 40  1  0  0  0  0
 37 36  2  0  0  0  0
 38 48  1  0  0  0  0
 38 32  2  0  0  0  0
 39 38  1  0  0  0  0
 41 28  1  0  0  0  0
 42 30  1  0  0  0  0
 44 33  1  0  0  0  0
 49 39  1  0  0  0  0
M  END
$$$$
