VCD.pdb
 OpenBabel07022419253D

 42 41  0  0  1  0  0  0  0  0999 V2000
   -0.8770   -5.0370    1.6350 C   0  0  0  0  0  0  0  0  0  0  0  0
    0.0930   -4.2920    0.7410 C   0  0  0  0  0  0  0  0  0  0  0  0
    1.4400   -4.9460    0.8930 C   0  0  0  0  0  0  0  0  0  0  0  0
    0.0810   -2.8480    1.1500 C   0  0  2  0  0  0  0  0  0  0  0  0
   -1.2700   -2.3500    0.9830 N   0  0  0  0  0  0  0  0  0  0  0  0
    1.0290   -1.9940    0.4390 C   0  0  0  0  0  0  0  0  0  0  0  0
    2.2680   -2.2040    0.3760 O   0  0  0  0  0  0  0  0  0  0  0  0
   -1.9140   -4.9800    1.2460 H   0  0  0  0  0  0  0  0  0  0  0  0
   -0.8080   -4.6470    2.6780 H   0  0  0  0  0  0  0  0  0  0  0  0
   -0.5390   -6.0940    1.6740 H   0  0  0  0  0  0  0  0  0  0  0  0
   -0.2400   -4.4430   -0.3040 H   0  0  0  0  0  0  0  0  0  0  0  0
    2.0590   -4.9000   -0.0340 H   0  0  0  0  0  0  0  0  0  0  0  0
    1.2540   -6.0270    1.0780 H   0  0  0  0  0  0  0  0  0  0  0  0
    1.9910   -4.5830    1.7880 H   0  0  0  0  0  0  0  0  0  0  0  0
    0.3110   -2.7580    2.2450 H   0  0  0  0  0  0  0  0  0  0  0  0
   -1.4050   -1.4100    1.3640 H   0  0  0  0  0  0  0  0  0  0  0  0
   -1.6280   -2.4870    0.0120 H   0  0  0  0  0  0  0  0  0  0  0  0
    0.5420   -0.8400   -0.2360 N   0  0  0  0  0  0  0  0  0  0  0  0
    1.4350    0.0410   -0.9570 C   0  0  1  0  0  0  0  0  0  0  0  0
    1.0640    0.2160   -2.3890 C   0  0  0  0  0  0  0  0  0  0  0  0
    1.1100   -1.4250   -3.1840 S   0  0  0  0  0  0  0  0  0  0  0  0
    1.5330    1.3680   -0.2520 C   0  0  0  0  0  0  0  0  0  0  0  0
    2.2670    2.2560   -0.7260 O   0  0  0  0  0  0  0  0  0  0  0  0
   -0.4720   -0.5770   -0.2430 H   0  0  0  0  0  0  0  0  0  0  0  0
    2.4600   -0.3810   -0.8950 H   0  0  0  0  0  0  0  0  0  0  0  0
    1.8190    0.8750   -2.8650 H   0  0  0  0  0  0  0  0  0  0  0  0
    0.0880    0.6900   -2.5530 H   0  0  0  0  0  0  0  0  0  0  0  0
    2.4370   -1.6340   -3.6470 H   0  0  0  0  0  0  0  0  0  0  0  0
    0.8150    1.6450    0.9420 N   0  0  0  0  0  0  0  0  0  0  0  0
    0.9220    2.9340    1.6120 C   0  0  1  0  0  0  0  0  0  0  0  0
   -0.4430    3.6170    1.4580 C   0  0  0  0  0  0  0  0  0  0  0  0
   -1.4880    2.7790    2.0850 C   0  0  0  0  0  0  0  0  0  0  0  0
   -1.9350    1.7770    1.4780 O   0  0  0  0  0  0  0  0  0  0  0  0
    1.1640    2.7600    3.0560 C   0  0  0  0  0  0  0  0  0  0  0  0
    1.2420    1.6050    3.5170 O   0  0  0  0  0  0  0  0  0  0  0  0
   -1.9900    3.0730    3.3380 O   0  0  0  0  0  0  0  0  0  0  0  0
    1.3060    3.8350    3.9010 O   0  0  0  0  0  0  0  0  0  0  0  0
    0.2060    0.8910    1.3230 H   0  0  0  0  0  0  0  0  0  0  0  0
    1.6290    3.6040    1.1020 H   0  0  0  0  0  0  0  0  0  0  0  0
   -0.4380    4.5970    1.9980 H   0  0  0  0  0  0  0  0  0  0  0  0
   -0.6220    3.8400    0.4050 H   0  0  0  0  0  0  0  0  0  0  0  0
   -2.3530    2.2890    3.8680 H   0  0  0  0  0  0  0  0  0  0  0  0
  1 10  1  0  0  0  0
  1  9  1  0  0  0  0
  2  3  1  0  0  0  0
  2  4  1  0  0  0  0
  2  1  1  0  0  0  0
  3 13  1  0  0  0  0
  3 14  1  0  0  0  0
  4 15  1  1  0  0  0
  5  4  1  0  0  0  0
  5 16  1  0  0  0  0
  6  4  1  0  0  0  0
  7  6  2  0  0  0  0
  8  1  1  0  0  0  0
 11  2  1  0  0  0  0
 12  3  1  0  0  0  0
 17  5  1  0  0  0  0
 18  6  1  0  0  0  0
 19 25  1  1  0  0  0
 19 22  1  0  0  0  0
 19 18  1  0  0  0  0
 20 19  1  0  0  0  0
 21 20  1  0  0  0  0
 22 29  1  0  0  0  0
 23 22  2  0  0  0  0
 24 18  1  0  0  0  0
 26 20  1  0  0  0  0
 27 20  1  0  0  0  0
 28 21  1  0  0  0  0
 29 38  1  0  0  0  0
 29 30  1  0  0  0  0
 30 39  1  6  0  0  0
 30 34  1  0  0  0  0
 31 30  1  0  0  0  0
 31 40  1  0  0  0  0
 31 32  1  0  0  0  0
 32 36  1  0  0  0  0
 33 32  2  0  0  0  0
 34 35  2  0  0  0  0
 34 37  1  0  0  0  0
 36 42  1  0  0  0  0
 41 31  1  0  0  0  0
M  END
$$$$
