VCE.pdb
 OpenBabel07022419253D

 45 44  0  0  1  0  0  0  0  0999 V2000
    2.0020   -4.8040    2.7660 C   0  0  0  0  0  0  0  0  0  0  0  0
    1.8940   -3.4410    2.0510 C   0  0  0  0  0  0  0  0  0  0  0  0
    0.5600   -2.8610    2.4800 C   0  0  0  0  0  0  0  0  0  0  0  0
    1.8180   -3.7880    0.5810 C   0  0  2  0  0  0  0  0  0  0  0  0
    3.0810   -4.5330    0.3260 N   0  0  0  0  0  0  0  0  0  0  0  0
    1.8130   -2.6690   -0.3400 C   0  0  0  0  0  0  0  0  0  0  0  0
    2.8670   -2.4400   -1.0380 O   0  0  0  0  0  0  0  0  0  0  0  0
    2.6720   -4.6850    3.6660 H   0  0  0  0  0  0  0  0  0  0  0  0
    2.3770   -5.5760    2.0970 H   0  0  0  0  0  0  0  0  0  0  0  0
    1.0220   -5.1350    3.1600 H   0  0  0  0  0  0  0  0  0  0  0  0
    2.7550   -2.8480    2.3460 H   0  0  0  0  0  0  0  0  0  0  0  0
    0.2880   -3.2400    3.5140 H   0  0  0  0  0  0  0  0  0  0  0  0
    0.5880   -1.7610    2.4910 H   0  0  0  0  0  0  0  0  0  0  0  0
   -0.2760   -3.1820    1.8440 H   0  0  0  0  0  0  0  0  0  0  0  0
    1.0200   -4.5300    0.4640 H   0  0  0  0  0  0  0  0  0  0  0  0
    2.9250   -5.2180   -0.4560 H   0  0  0  0  0  0  0  0  0  0  0  0
    3.8180   -3.8630   -0.0110 H   0  0  0  0  0  0  0  0  0  0  0  0
    0.7760   -1.7420   -0.6080 N   0  0  0  0  0  0  0  0  0  0  0  0
    0.8960   -0.6640   -1.5660 C   0  0  1  0  0  0  0  0  0  0  0  0
    0.0040   -0.8980   -2.7750 C   0  0  0  0  0  0  0  0  0  0  0  0
    0.2430    0.5110   -3.8940 S   0  0  0  0  0  0  0  0  0  0  0  0
    0.5410    0.6260   -0.9430 C   0  0  0  0  0  0  0  0  0  0  0  0
    0.6110    1.6840   -1.6560 O   0  0  0  0  0  0  0  0  0  0  0  0
   -0.1130   -1.8450   -0.0900 H   0  0  0  0  0  0  0  0  0  0  0  0
    1.9380   -0.6130   -1.9740 H   0  0  0  0  0  0  0  0  0  0  0  0
   -1.0690   -0.8880   -2.4800 H   0  0  0  0  0  0  0  0  0  0  0  0
    0.3220   -1.7870   -3.3150 H   0  0  0  0  0  0  0  0  0  0  0  0
    1.6050    0.7370   -4.1550 H   0  0  0  0  0  0  0  0  0  0  0  0
    0.1200    0.8170    0.3910 N   0  0  0  0  0  0  0  0  0  0  0  0
   -0.2190    2.1520    0.9340 C   0  0  1  0  0  0  0  0  0  0  0  0
   -1.7020    2.0700    1.2180 C   0  0  0  0  0  0  0  0  0  0  0  0
   -2.3110    3.3060    1.7760 C   0  0  0  0  0  0  0  0  0  0  0  0
   -3.7630    3.0720    1.9950 C   0  0  0  0  0  0  0  0  0  0  0  0
   -4.2670    1.9590    1.7160 O   0  0  0  0  0  0  0  0  0  0  0  0
    0.5230    2.4110    2.1680 C   0  0  0  0  0  0  0  0  0  0  0  0
    1.2940    1.5430    2.6290 O   0  0  0  0  0  0  0  0  0  0  0  0
   -4.6330    4.0300    2.5050 O   0  0  0  0  0  0  0  0  0  0  0  0
    0.3870    3.6070    2.8380 O   0  0  0  0  0  0  0  0  0  0  0  0
    0.0510   -0.0220    0.9940 H   0  0  0  0  0  0  0  0  0  0  0  0
   -0.0830    2.9220    0.1510 H   0  0  0  0  0  0  0  0  0  0  0  0
   -1.8730    1.2170    1.9160 H   0  0  0  0  0  0  0  0  0  0  0  0
   -2.2790    1.8020    0.3000 H   0  0  0  0  0  0  0  0  0  0  0  0
   -2.2280    4.1810    1.0710 H   0  0  0  0  0  0  0  0  0  0  0  0
   -1.9160    3.6120    2.7760 H   0  0  0  0  0  0  0  0  0  0  0  0
   -5.5970    4.0740    2.1670 H   0  0  0  0  0  0  0  0  0  0  0  0
  1 10  1  0  0  0  0
  1  8  1  0  0  0  0
  2 11  1  0  0  0  0
  2  3  1  0  0  0  0
  2  1  1  0  0  0  0
  3 13  1  0  0  0  0
  3 12  1  0  0  0  0
  4 15  1  6  0  0  0
  4  2  1  0  0  0  0
  5  4  1  0  0  0  0
  6  4  1  0  0  0  0
  7  6  2  0  0  0  0
  9  1  1  0  0  0  0
 14  3  1  0  0  0  0
 16  5  1  0  0  0  0
 17  5  1  0  0  0  0
 18  6  1  0  0  0  0
 18 24  1  0  0  0  0
 19 25  1  6  0  0  0
 19 22  1  0  0  0  0
 19 18  1  0  0  0  0
 20 26  1  0  0  0  0
 20 19  1  0  0  0  0
 21 20  1  0  0  0  0
 22 29  1  0  0  0  0
 23 22  2  0  0  0  0
 27 20  1  0  0  0  0
 28 21  1  0  0  0  0
 29 30  1  0  0  0  0
 29 39  1  0  0  0  0
 30 40  1  6  0  0  0
 30 31  1  0  0  0  0
 30 35  1  0  0  0  0
 31 32  1  0  0  0  0
 31 41  1  0  0  0  0
 32 33  1  0  0  0  0
 32 44  1  0  0  0  0
 33 37  1  0  0  0  0
 34 33  2  0  0  0  0
 35 36  2  0  0  0  0
 35 38  1  0  0  0  0
 42 31  1  0  0  0  0
 43 32  1  0  0  0  0
 45 37  1  0  0  0  0
M  END
$$$$
