VCF.pdb
 OpenBabel07022419253D

 49 49  0  0  1  0  0  0  0  0999 V2000
    0.0620   -4.1490   -1.1840 C   0  0  0  0  0  0  0  0  0  0  0  0
    1.0950   -3.6340   -2.1320 C   0  0  0  0  0  0  0  0  0  0  0  0
    0.5370   -2.5560   -3.0120 C   0  0  0  0  0  0  0  0  0  0  0  0
    2.4000   -3.2650   -1.4670 C   0  0  2  0  0  0  0  0  0  0  0  0
    2.9100   -4.4910   -0.8300 N   0  0  0  0  0  0  0  0  0  0  0  0
    2.2440   -2.2610   -0.3870 C   0  0  0  0  0  0  0  0  0  0  0  0
    2.4910   -2.5670    0.8070 O   0  0  0  0  0  0  0  0  0  0  0  0
   -0.7600   -4.5870   -1.8050 H   0  0  0  0  0  0  0  0  0  0  0  0
    0.4430   -4.9900   -0.5700 H   0  0  0  0  0  0  0  0  0  0  0  0
   -0.4190   -3.3540   -0.5800 H   0  0  0  0  0  0  0  0  0  0  0  0
    1.3530   -4.4960   -2.8180 H   0  0  0  0  0  0  0  0  0  0  0  0
   -0.0910   -3.0790   -3.7940 H   0  0  0  0  0  0  0  0  0  0  0  0
    1.3170   -1.9790   -3.5390 H   0  0  0  0  0  0  0  0  0  0  0  0
   -0.2060   -1.9010   -2.4860 H   0  0  0  0  0  0  0  0  0  0  0  0
    3.0820   -2.9090   -2.2550 H   0  0  0  0  0  0  0  0  0  0  0  0
    2.3490   -4.6040    0.0430 H   0  0  0  0  0  0  0  0  0  0  0  0
    2.6400   -5.2710   -1.4690 H   0  0  0  0  0  0  0  0  0  0  0  0
    1.8170   -0.9180   -0.5990 N   0  0  0  0  0  0  0  0  0  0  0  0
    1.6650    0.0510    0.4430 C   0  0  1  0  0  0  0  0  0  0  0  0
    2.6670    1.1760    0.1490 C   0  0  0  0  0  0  0  0  0  0  0  0
    2.3000    1.9000   -1.4610 S   0  0  0  0  0  0  0  0  0  0  0  0
    0.3310    0.6800    0.4650 C   0  0  0  0  0  0  0  0  0  0  0  0
   -0.5240    0.3350   -0.3870 O   0  0  0  0  0  0  0  0  0  0  0  0
    1.6080   -0.6380   -1.5800 H   0  0  0  0  0  0  0  0  0  0  0  0
    1.9030   -0.3130    1.4420 H   0  0  0  0  0  0  0  0  0  0  0  0
    2.6260    1.9530    0.9440 H   0  0  0  0  0  0  0  0  0  0  0  0
    3.6750    0.7250    0.2040 H   0  0  0  0  0  0  0  0  0  0  0  0
    2.9410    3.1300   -1.6140 H   0  0  0  0  0  0  0  0  0  0  0  0
   -0.0280    1.6630    1.4130 N   0  0  0  0  0  0  0  0  0  0  0  0
   -1.3400    2.2890    1.4450 C   0  0  1  0  0  0  0  0  0  0  0  0
   -1.9520    2.0990    2.8150 C   0  0  0  0  0  0  0  0  0  0  0  0
   -2.1160    0.6800    3.1650 C   0  0  0  0  0  0  0  0  0  0  0  0
   -1.1170   -0.0140    3.8150 C   0  0  0  0  0  0  0  0  0  0  0  0
   -1.3000   -1.3490    4.1320 C   0  0  0  0  0  0  0  0  0  0  0  0
   -2.4700   -1.9870    3.8020 C   0  0  0  0  0  0  0  0  0  0  0  0
   -3.4850   -1.3010    3.1460 C   0  0  0  0  0  0  0  0  0  0  0  0
   -3.2870    0.0320    2.8370 C   0  0  0  0  0  0  0  0  0  0  0  0
   -1.1630    3.7470    1.2380 C   0  0  0  0  0  0  0  0  0  0  0  0
   -2.1870    4.5060    1.2270 O   0  0  0  0  0  0  0  0  0  0  0  0
    0.0720    4.3430    1.0520 O   0  0  0  0  0  0  0  0  0  0  0  0
    0.6760    1.9520    2.1210 H   0  0  0  0  0  0  0  0  0  0  0  0
   -1.9970    1.9120    0.6600 H   0  0  0  0  0  0  0  0  0  0  0  0
   -2.8910    2.6710    2.9000 H   0  0  0  0  0  0  0  0  0  0  0  0
   -1.2440    2.5380    3.5750 H   0  0  0  0  0  0  0  0  0  0  0  0
   -0.1850    0.4400    4.0940 H   0  0  0  0  0  0  0  0  0  0  0  0
   -0.5360   -1.9170    4.6400 H   0  0  0  0  0  0  0  0  0  0  0  0
   -2.6670   -3.0350    4.0270 H   0  0  0  0  0  0  0  0  0  0  0  0
   -4.4240   -1.7700    2.8690 H   0  0  0  0  0  0  0  0  0  0  0  0
   -4.0830    0.5490    2.3300 H   0  0  0  0  0  0  0  0  0  0  0  0
  1 10  1  0  0  0  0
  1  9  1  0  0  0  0
  2  4  1  0  0  0  0
  2  1  1  0  0  0  0
  3 14  1  0  0  0  0
  3  2  1  0  0  0  0
  4 15  1  6  0  0  0
  4  5  1  0  0  0  0
  4  6  1  0  0  0  0
  5 16  1  0  0  0  0
  6  7  2  0  0  0  0
  8  1  1  0  0  0  0
 11  2  1  0  0  0  0
 12  3  1  0  0  0  0
 13  3  1  0  0  0  0
 17  5  1  0  0  0  0
 18  6  1  0  0  0  0
 18 19  1  0  0  0  0
 19 22  1  0  0  0  0
 19 25  1  1  0  0  0
 20 27  1  0  0  0  0
 20 19  1  0  0  0  0
 20 26  1  0  0  0  0
 21 20  1  0  0  0  0
 22 29  1  0  0  0  0
 23 22  2  0  0  0  0
 24 18  1  0  0  0  0
 28 21  1  0  0  0  0
 29 30  1  0  0  0  0
 29 41  1  0  0  0  0
 30 42  1  6  0  0  0
 30 31  1  0  0  0  0
 31 43  1  0  0  0  0
 31 32  1  0  0  0  0
 31 44  1  0  0  0  0
 32 33  1  0  0  0  0
 33 45  1  0  0  0  0
 33 34  2  0  0  0  0
 34 46  1  0  0  0  0
 35 47  1  0  0  0  0
 35 34  1  0  0  0  0
 36 35  2  0  0  0  0
 37 36  1  0  0  0  0
 37 32  2  0  0  0  0
 38 30  1  0  0  0  0
 39 38  1  0  0  0  0
 40 38  2  0  0  0  0
 48 36  1  0  0  0  0
 49 37  1  0  0  0  0
M  END
$$$$
