VCH.pdb
 OpenBabel07022419253D

 46 46  0  0  1  0  0  0  0  0999 V2000
    1.4170   -3.1560    2.2720 C   0  0  0  0  0  0  0  0  0  0  0  0
    0.0790   -3.4340    1.5750 C   0  0  0  0  0  0  0  0  0  0  0  0
   -0.4110   -4.7540    2.1380 C   0  0  0  0  0  0  0  0  0  0  0  0
    0.2980   -3.5680    0.0810 C   0  0  2  0  0  0  0  0  0  0  0  0
    1.2230   -4.6890   -0.1010 N   0  0  0  0  0  0  0  0  0  0  0  0
    0.8990   -2.3770   -0.5160 C   0  0  0  0  0  0  0  0  0  0  0  0
    2.0410   -2.3660   -1.0890 O   0  0  0  0  0  0  0  0  0  0  0  0
    1.4010   -3.4930    3.3250 H   0  0  0  0  0  0  0  0  0  0  0  0
    2.1700   -3.8100    1.7490 H   0  0  0  0  0  0  0  0  0  0  0  0
    1.7470   -2.1280    2.1240 H   0  0  0  0  0  0  0  0  0  0  0  0
   -0.6250   -2.6200    1.8310 H   0  0  0  0  0  0  0  0  0  0  0  0
    0.2340   -5.5570    1.7060 H   0  0  0  0  0  0  0  0  0  0  0  0
   -0.4380   -4.7660    3.2260 H   0  0  0  0  0  0  0  0  0  0  0  0
   -1.4260   -4.9140    1.6930 H   0  0  0  0  0  0  0  0  0  0  0  0
   -0.6590   -3.8810   -0.3630 H   0  0  0  0  0  0  0  0  0  0  0  0
    2.1530   -4.3420   -0.3990 H   0  0  0  0  0  0  0  0  0  0  0  0
    0.8430   -5.4060   -0.7460 H   0  0  0  0  0  0  0  0  0  0  0  0
    0.2420   -1.1060   -0.5050 N   0  0  0  0  0  0  0  0  0  0  0  0
    0.7880    0.0790   -1.0740 C   0  0  1  0  0  0  0  0  0  0  0  0
   -0.0570    0.6860   -2.1610 C   0  0  0  0  0  0  0  0  0  0  0  0
   -0.2380   -0.5440   -3.5040 S   0  0  0  0  0  0  0  0  0  0  0  0
    0.9210    1.0930    0.0020 C   0  0  0  0  0  0  0  0  0  0  0  0
    1.3890    2.2110   -0.3140 O   0  0  0  0  0  0  0  0  0  0  0  0
   -0.6960   -1.0570   -0.0500 H   0  0  0  0  0  0  0  0  0  0  0  0
    1.8000   -0.1310   -1.5270 H   0  0  0  0  0  0  0  0  0  0  0  0
   -1.0170    1.0670   -1.8150 H   0  0  0  0  0  0  0  0  0  0  0  0
    0.4960    1.5390   -2.6080 H   0  0  0  0  0  0  0  0  0  0  0  0
    0.8750   -1.4130   -3.5290 H   0  0  0  0  0  0  0  0  0  0  0  0
    0.5550    0.8790    1.3500 N   0  0  0  0  0  0  0  0  0  0  0  0
    0.6710    1.8330    2.4030 C   0  0  1  0  0  0  0  0  0  0  0  0
   -0.7520    2.2000    2.8410 C   0  0  0  0  0  0  0  0  0  0  0  0
   -1.4870    2.7800    1.6800 C   0  0  0  0  0  0  0  0  0  0  0  0
   -2.2490    2.1440    0.7320 C   0  0  0  0  0  0  0  0  0  0  0  0
   -2.7140    3.0640   -0.1160 N   0  0  0  0  0  0  0  0  0  0  0  0
   -2.2490    4.2470    0.2990 C   0  0  0  0  0  0  0  0  0  0  0  0
   -1.4930    4.0990    1.4010 N   0  0  0  0  0  0  0  0  0  0  0  0
    1.4560    1.3780    3.5530 C   0  0  0  0  0  0  0  0  0  0  0  0
    1.6010    2.1690    4.5200 O   0  0  0  0  0  0  0  0  0  0  0  0
    2.0580    0.1330    3.6600 O   0  0  0  0  0  0  0  0  0  0  0  0
    0.1610   -0.0740    1.5970 H   0  0  0  0  0  0  0  0  0  0  0  0
    1.1000    2.7900    2.0060 H   0  0  0  0  0  0  0  0  0  0  0  0
   -1.3200    1.2790    3.1280 H   0  0  0  0  0  0  0  0  0  0  0  0
   -0.7400    2.8610    3.7130 H   0  0  0  0  0  0  0  0  0  0  0  0
   -2.4210    1.0640    0.7110 H   0  0  0  0  0  0  0  0  0  0  0  0
   -3.3270    2.8740   -0.9460 H   0  0  0  0  0  0  0  0  0  0  0  0
   -2.4660    5.1880   -0.2020 H   0  0  0  0  0  0  0  0  0  0  0  0
  1  8  1  0  0  0  0
  2 11  1  0  0  0  0
  2  3  1  0  0  0  0
  2  1  1  0  0  0  0
  3 13  1  0  0  0  0
  4 15  1  6  0  0  0
  4  2  1  0  0  0  0
  5  4  1  0  0  0  0
  6 18  1  0  0  0  0
  6  4  1  0  0  0  0
  7  6  2  0  0  0  0
  9  1  1  0  0  0  0
 10  1  1  0  0  0  0
 12  3  1  0  0  0  0
 14  3  1  0  0  0  0
 16  5  1  0  0  0  0
 17  5  1  0  0  0  0
 18 24  1  0  0  0  0
 19 25  1  6  0  0  0
 19 18  1  0  0  0  0
 19 22  1  0  0  0  0
 20 26  1  0  0  0  0
 20 19  1  0  0  0  0
 21 20  1  0  0  0  0
 22 29  1  0  0  0  0
 23 22  2  0  0  0  0
 27 20  1  0  0  0  0
 28 21  1  0  0  0  0
 29 40  1  0  0  0  0
 29 30  1  0  0  0  0
 30 41  1  6  0  0  0
 30 31  1  0  0  0  0
 30 37  1  0  0  0  0
 31 42  1  0  0  0  0
 31 43  1  0  0  0  0
 32 31  1  0  0  0  0
 33 32  2  0  0  0  0
 34 35  1  0  0  0  0
 34 33  1  0  0  0  0
 35 36  2  0  0  0  0
 36 32  1  0  0  0  0
 37 39  2  0  0  0  0
 37 38  1  0  0  0  0
 44 33  1  0  0  0  0
 45 34  1  0  0  0  0
 46 35  1  0  0  0  0
M  END
$$$$
