VCI.pdb
 OpenBabel07022419253D

 48 47  0  0  1  0  0  0  0  0999 V2000
    1.2540   -5.1070   -0.7860 C   0  0  0  0  0  0  0  0  0  0  0  0
    1.9840   -4.5960    0.4390 C   0  0  0  0  0  0  0  0  0  0  0  0
    2.0260   -5.6990    1.4520 C   0  0  0  0  0  0  0  0  0  0  0  0
    1.2830   -3.3740    1.0180 C   0  0  2  0  0  0  0  0  0  0  0  0
   -0.0600   -3.8010    1.3720 N   0  0  0  0  0  0  0  0  0  0  0  0
    1.2750   -2.2510    0.0700 C   0  0  0  0  0  0  0  0  0  0  0  0
    2.3570   -1.7610   -0.3390 O   0  0  0  0  0  0  0  0  0  0  0  0
    1.5920   -4.5830   -1.7100 H   0  0  0  0  0  0  0  0  0  0  0  0
    0.1750   -4.9770   -0.6120 H   0  0  0  0  0  0  0  0  0  0  0  0
    1.4380   -6.2070   -0.8560 H   0  0  0  0  0  0  0  0  0  0  0  0
    3.0080   -4.3220    0.0980 H   0  0  0  0  0  0  0  0  0  0  0  0
    1.2890   -6.4910    1.2160 H   0  0  0  0  0  0  0  0  0  0  0  0
    3.0430   -6.1840    1.4480 H   0  0  0  0  0  0  0  0  0  0  0  0
    1.8050   -5.2880    2.4640 H   0  0  0  0  0  0  0  0  0  0  0  0
    1.8060   -3.1420    1.9790 H   0  0  0  0  0  0  0  0  0  0  0  0
   -0.0640   -4.5530    2.0750 H   0  0  0  0  0  0  0  0  0  0  0  0
   -0.6200   -2.9580    1.6950 H   0  0  0  0  0  0  0  0  0  0  0  0
    0.0850   -1.6520   -0.4410 N   0  0  0  0  0  0  0  0  0  0  0  0
    0.0830   -0.5640   -1.3600 C   0  0  1  0  0  0  0  0  0  0  0  0
   -0.6000   -0.8450   -2.6610 C   0  0  0  0  0  0  0  0  0  0  0  0
    0.1730   -2.2200   -3.5500 S   0  0  0  0  0  0  0  0  0  0  0  0
   -0.5420    0.6660   -0.7850 C   0  0  0  0  0  0  0  0  0  0  0  0
   -0.6180    1.7140   -1.4750 O   0  0  0  0  0  0  0  0  0  0  0  0
   -0.8260   -2.0430   -0.1160 H   0  0  0  0  0  0  0  0  0  0  0  0
    1.1370   -0.2970   -1.5830 H   0  0  0  0  0  0  0  0  0  0  0  0
   -0.4830    0.0540   -3.3040 H   0  0  0  0  0  0  0  0  0  0  0  0
   -1.6980   -0.9960   -2.5530 H   0  0  0  0  0  0  0  0  0  0  0  0
    1.1590   -1.7470   -4.4510 H   0  0  0  0  0  0  0  0  0  0  0  0
    1.0340    2.7940    3.6390 C   0  0  0  0  0  0  0  0  0  0  0  0
    0.0700    1.8560    2.9860 C   0  0  0  0  0  0  0  0  0  0  0  0
   -0.7110    2.6280    1.9140 C   0  0  2  0  0  0  0  0  0  0  0  0
   -1.4210    3.7400    2.6480 C   0  0  0  0  0  0  0  0  0  0  0  0
   -1.6750    1.7410    1.2010 C   0  0  2  0  0  0  0  0  0  0  0  0
   -1.0400    0.6330    0.5290 N   0  0  0  0  0  0  0  0  0  0  0  0
   -2.6720    2.4590    0.3820 C   0  0  0  0  0  0  0  0  0  0  0  0
   -2.9940    2.0850   -0.7560 O   0  0  0  0  0  0  0  0  0  0  0  0
   -3.2790    3.5940    0.8900 O   0  0  0  0  0  0  0  0  0  0  0  0
    0.6950    3.0590    4.6610 H   0  0  0  0  0  0  0  0  0  0  0  0
    2.0420    2.2920    3.6890 H   0  0  0  0  0  0  0  0  0  0  0  0
    1.1990    3.6900    3.0000 H   0  0  0  0  0  0  0  0  0  0  0  0
   -0.6630    1.4660    3.7240 H   0  0  0  0  0  0  0  0  0  0  0  0
    0.6110    1.0320    2.4860 H   0  0  0  0  0  0  0  0  0  0  0  0
    0.0430    3.0910    1.2700 H   0  0  0  0  0  0  0  0  0  0  0  0
   -2.3860    3.4020    3.0360 H   0  0  0  0  0  0  0  0  0  0  0  0
   -0.8090    4.0370    3.5470 H   0  0  0  0  0  0  0  0  0  0  0  0
   -1.5320    4.6540    2.0150 H   0  0  0  0  0  0  0  0  0  0  0  0
   -2.2910    1.2210    2.0290 H   0  0  0  0  0  0  0  0  0  0  0  0
   -0.9200   -0.3030    1.0420 H   0  0  0  0  0  0  0  0  0  0  0  0
  1  9  1  0  0  0  0
  1  2  1  0  0  0  0
  2  4  1  0  0  0  0
  2  3  1  0  0  0  0
  3 14  1  0  0  0  0
  4  5  1  0  0  0  0
  4 15  1  1  0  0  0
  5 17  1  0  0  0  0
  5 16  1  0  0  0  0
  6  4  1  0  0  0  0
  7  6  2  0  0  0  0
  8  1  1  0  0  0  0
 10  1  1  0  0  0  0
 11  2  1  0  0  0  0
 12  3  1  0  0  0  0
 13  3  1  0  0  0  0
 18 24  1  0  0  0  0
 18  6  1  0  0  0  0
 19 25  1  6  0  0  0
 19 22  1  0  0  0  0
 19 18  1  0  0  0  0
 20 27  1  0  0  0  0
 20 19  1  0  0  0  0
 21 20  1  0  0  0  0
 22 34  1  0  0  0  0
 23 22  2  0  0  0  0
 26 20  1  0  0  0  0
 28 21  1  0  0  0  0
 29 39  1  0  0  0  0
 29 38  1  0  0  0  0
 30 29  1  0  0  0  0
 30 41  1  0  0  0  0
 31 43  1  6  0  0  0
 31 32  1  0  0  0  0
 31 30  1  0  0  0  0
 32 44  1  0  0  0  0
 32 45  1  0  0  0  0
 33 31  1  0  0  0  0
 33 47  1  1  0  0  0
 34 48  1  0  0  0  0
 34 33  1  0  0  0  0
 35 37  1  0  0  0  0
 35 33  1  0  0  0  0
 36 35  2  0  0  0  0
 40 29  1  0  0  0  0
 42 30  1  0  0  0  0
 46 32  1  0  0  0  0
M  END
$$$$
