VCK.pdb
 OpenBabel07022419253D

 50 49  0  0  1  0  0  0  0  0999 V2000
    2.5000   -5.4490    1.1950 C   0  0  0  0  0  0  0  0  0  0  0  0
    2.3710   -3.9110    1.2230 C   0  0  0  0  0  0  0  0  0  0  0  0
    0.8970   -3.6410    1.0530 C   0  0  0  0  0  0  0  0  0  0  0  0
    3.1260   -3.4770   -0.0350 C   0  0  2  0  0  0  0  0  0  0  0  0
    4.4890   -4.0240    0.2110 N   0  0  0  0  0  0  0  0  0  0  0  0
    3.2240   -2.0300   -0.2080 C   0  0  0  0  0  0  0  0  0  0  0  0
    4.3580   -1.4630    0.0080 O   0  0  0  0  0  0  0  0  0  0  0  0
    2.2570   -5.8800    2.1680 H   0  0  0  0  0  0  0  0  0  0  0  0
    1.8050   -5.7920    0.4000 H   0  0  0  0  0  0  0  0  0  0  0  0
    3.5460   -5.6950    0.8600 H   0  0  0  0  0  0  0  0  0  0  0  0
    2.7950   -3.4860    2.1420 H   0  0  0  0  0  0  0  0  0  0  0  0
    0.6070   -2.7140    1.5550 H   0  0  0  0  0  0  0  0  0  0  0  0
    0.5740   -3.6090   -0.0020 H   0  0  0  0  0  0  0  0  0  0  0  0
    0.3050   -4.4780    1.5180 H   0  0  0  0  0  0  0  0  0  0  0  0
    2.7150   -4.0480   -0.8640 H   0  0  0  0  0  0  0  0  0  0  0  0
    4.9790   -3.2570    0.7270 H   0  0  0  0  0  0  0  0  0  0  0  0
    4.9410   -4.3070   -0.6640 H   0  0  0  0  0  0  0  0  0  0  0  0
    2.2250   -1.1230   -0.5950 N   0  0  0  0  0  0  0  0  0  0  0  0
    2.4340    0.3000   -0.7430 C   0  0  1  0  0  0  0  0  0  0  0  0
    2.3160    0.7400   -2.1910 C   0  0  0  0  0  0  0  0  0  0  0  0
    2.5930    2.5200   -2.2630 S   0  0  0  0  0  0  0  0  0  0  0  0
    1.4410    1.0880    0.0240 C   0  0  0  0  0  0  0  0  0  0  0  0
    1.4870    2.3700    0.0290 O   0  0  0  0  0  0  0  0  0  0  0  0
    1.2750   -1.4960   -0.7910 H   0  0  0  0  0  0  0  0  0  0  0  0
    3.4590    0.6030   -0.4350 H   0  0  0  0  0  0  0  0  0  0  0  0
    1.2890    0.5480   -2.5890 H   0  0  0  0  0  0  0  0  0  0  0  0
    3.0840    0.2390   -2.7810 H   0  0  0  0  0  0  0  0  0  0  0  0
    3.5990    2.8590   -3.2150 H   0  0  0  0  0  0  0  0  0  0  0  0
    0.3880    0.5410    0.7970 N   0  0  0  0  0  0  0  0  0  0  0  0
   -0.5620    1.3930    1.5360 C   0  0  1  0  0  0  0  0  0  0  0  0
   -1.9200    0.9780    1.0110 C   0  0  0  0  0  0  0  0  0  0  0  0
   -3.0690    1.7080    1.6110 C   0  0  0  0  0  0  0  0  0  0  0  0
   -4.3350    1.1470    0.9550 C   0  0  0  0  0  0  0  0  0  0  0  0
   -5.5640    1.8400    1.5130 C   0  0  0  0  0  0  0  0  0  0  0  0
   -6.7590    1.3060    0.8900 N   0  0  0  0  0  0  0  0  0  0  0  0
   -0.4530    0.9900    2.9640 C   0  0  0  0  0  0  0  0  0  0  0  0
    0.3260    0.0810    3.3570 O   0  0  0  0  0  0  0  0  0  0  0  0
   -1.2140    1.6060    3.9480 O   0  0  0  0  0  0  0  0  0  0  0  0
    0.2890   -0.4930    0.8340 H   0  0  0  0  0  0  0  0  0  0  0  0
   -0.3460    2.4490    1.3860 H   0  0  0  0  0  0  0  0  0  0  0  0
   -2.0600   -0.1080    1.2130 H   0  0  0  0  0  0  0  0  0  0  0  0
   -1.9490    1.1810   -0.0960 H   0  0  0  0  0  0  0  0  0  0  0  0
   -3.1730    1.6400    2.6960 H   0  0  0  0  0  0  0  0  0  0  0  0
   -2.9970    2.7870    1.3440 H   0  0  0  0  0  0  0  0  0  0  0  0
   -4.3750    0.0590    1.1420 H   0  0  0  0  0  0  0  0  0  0  0  0
   -4.3100    1.2990   -0.1430 H   0  0  0  0  0  0  0  0  0  0  0  0
   -5.5010    2.9260    1.4290 H   0  0  0  0  0  0  0  0  0  0  0  0
   -5.6250    1.5580    2.6030 H   0  0  0  0  0  0  0  0  0  0  0  0
   -7.0770    0.4080    1.3450 H   0  0  0  0  0  0  0  0  0  0  0  0
   -6.6230    1.0750   -0.1150 H   0  0  0  0  0  0  0  0  0  0  0  0
  1  2  1  0  0  0  0
  1  8  1  0  0  0  0
  2 11  1  0  0  0  0
  3  2  1  0  0  0  0
  3 14  1  0  0  0  0
  3 12  1  0  0  0  0
  4 15  1  6  0  0  0
  4  5  1  0  0  0  0
  4  2  1  0  0  0  0
  5 16  1  0  0  0  0
  6  4  1  0  0  0  0
  6  7  2  0  0  0  0
  9  1  1  0  0  0  0
 10  1  1  0  0  0  0
 13  3  1  0  0  0  0
 17  5  1  0  0  0  0
 18  6  1  0  0  0  0
 19 18  1  0  0  0  0
 19 25  1  1  0  0  0
 19 22  1  0  0  0  0
 20 19  1  0  0  0  0
 21 20  1  0  0  0  0
 22 23  2  0  0  0  0
 22 29  1  0  0  0  0
 24 18  1  0  0  0  0
 26 20  1  0  0  0  0
 27 20  1  0  0  0  0
 28 21  1  0  0  0  0
 29 39  1  0  0  0  0
 29 30  1  0  0  0  0
 30 40  1  6  0  0  0
 30 36  1  0  0  0  0
 31 41  1  0  0  0  0
 31 30  1  0  0  0  0
 31 32  1  0  0  0  0
 32 43  1  0  0  0  0
 33 45  1  0  0  0  0
 33 34  1  0  0  0  0
 33 32  1  0  0  0  0
 34 48  1  0  0  0  0
 35 49  1  0  0  0  0
 35 34  1  0  0  0  0
 36 37  2  0  0  0  0
 36 38  1  0  0  0  0
 42 31  1  0  0  0  0
 44 32  1  0  0  0  0
 46 33  1  0  0  0  0
 47 34  1  0  0  0  0
 50 35  1  0  0  0  0
M  END
$$$$
