VCM.pdb
 OpenBabel07022419253D

 46 45  0  0  1  0  0  0  0  0999 V2000
   -1.2970   -5.5010    0.3650 C   0  0  0  0  0  0  0  0  0  0  0  0
   -0.6940   -4.0960    0.5630 C   0  0  0  0  0  0  0  0  0  0  0  0
   -1.7700   -3.2790    1.1930 C   0  0  0  0  0  0  0  0  0  0  0  0
   -0.3000   -3.6440   -0.8210 C   0  0  2  0  0  0  0  0  0  0  0  0
    0.6760   -4.6570   -1.2930 N   0  0  0  0  0  0  0  0  0  0  0  0
    0.3870   -2.3620   -0.9010 C   0  0  0  0  0  0  0  0  0  0  0  0
    1.6370   -2.2910   -1.1920 O   0  0  0  0  0  0  0  0  0  0  0  0
   -1.7590   -5.5920   -0.6180 H   0  0  0  0  0  0  0  0  0  0  0  0
   -2.0470   -5.7070    1.1370 H   0  0  0  0  0  0  0  0  0  0  0  0
   -0.4690   -6.2420    0.4790 H   0  0  0  0  0  0  0  0  0  0  0  0
    0.2210   -4.2040    1.1540 H   0  0  0  0  0  0  0  0  0  0  0  0
   -2.4190   -3.9740    1.8040 H   0  0  0  0  0  0  0  0  0  0  0  0
   -1.3070   -2.5800    1.9190 H   0  0  0  0  0  0  0  0  0  0  0  0
   -2.4350   -2.8370    0.4570 H   0  0  0  0  0  0  0  0  0  0  0  0
   -1.1710   -3.7440   -1.4810 H   0  0  0  0  0  0  0  0  0  0  0  0
    0.1950   -5.3780   -1.8750 H   0  0  0  0  0  0  0  0  0  0  0  0
    1.4070   -4.2230   -1.8830 H   0  0  0  0  0  0  0  0  0  0  0  0
   -0.1880   -1.0690   -0.6860 N   0  0  0  0  0  0  0  0  0  0  0  0
    0.5550    0.1470   -0.7920 C   0  0  1  0  0  0  0  0  0  0  0  0
    0.1110    1.0010   -1.9630 C   0  0  0  0  0  0  0  0  0  0  0  0
    0.3190    0.1170   -3.5280 S   0  0  0  0  0  0  0  0  0  0  0  0
    0.4610    0.9820    0.4290 C   0  0  0  0  0  0  0  0  0  0  0  0
    1.0950    2.0910    0.4980 O   0  0  0  0  0  0  0  0  0  0  0  0
   -1.1960   -1.0220   -0.4430 H   0  0  0  0  0  0  0  0  0  0  0  0
    1.6250   -0.0970   -0.9950 H   0  0  0  0  0  0  0  0  0  0  0  0
    0.7850    1.8820   -1.9890 H   0  0  0  0  0  0  0  0  0  0  0  0
   -0.9190    1.3990   -1.8350 H   0  0  0  0  0  0  0  0  0  0  0  0
    1.6470    0.2680   -4.0210 H   0  0  0  0  0  0  0  0  0  0  0  0
    3.2100    4.1960    2.0780 C   0  0  0  0  0  0  0  0  0  0  0  0
    3.1030    3.1290    3.5370 S   0  0  0  0  0  0  0  0  0  0  0  0
    1.8720    1.8350    3.2230 C   0  0  0  0  0  0  0  0  0  0  0  0
    0.4920    2.3740    3.0960 C   0  0  0  0  0  0  0  0  0  0  0  0
   -0.4900    1.2570    2.7790 C   0  0  2  0  0  0  0  0  0  0  0  0
   -0.3080    0.6030    1.5360 N   0  0  0  0  0  0  0  0  0  0  0  0
   -1.8580    1.5610    3.1830 C   0  0  0  0  0  0  0  0  0  0  0  0
   -2.8670    1.2660    2.4670 O   0  0  0  0  0  0  0  0  0  0  0  0
   -2.1560    2.1980    4.3830 O   0  0  0  0  0  0  0  0  0  0  0  0
    2.2630    4.7460    1.9420 H   0  0  0  0  0  0  0  0  0  0  0  0
    4.0590    4.9040    2.1770 H   0  0  0  0  0  0  0  0  0  0  0  0
    3.4710    3.5580    1.1900 H   0  0  0  0  0  0  0  0  0  0  0  0
    1.8590    1.2470    4.2260 H   0  0  0  0  0  0  0  0  0  0  0  0
    2.2190    1.0840    2.5230 H   0  0  0  0  0  0  0  0  0  0  0  0
    0.1780    2.7460    4.1130 H   0  0  0  0  0  0  0  0  0  0  0  0
    0.3950    3.2360    2.4210 H   0  0  0  0  0  0  0  0  0  0  0  0
   -0.0960    0.4610    3.5440 H   0  0  0  0  0  0  0  0  0  0  0  0
   -0.8470   -0.3210    1.4340 H   0  0  0  0  0  0  0  0  0  0  0  0
  1 10  1  0  0  0  0
  1  2  1  0  0  0  0
  1  9  1  0  0  0  0
  2 11  1  0  0  0  0
  2  3  1  0  0  0  0
  3 12  1  0  0  0  0
  3 13  1  0  0  0  0
  4 15  1  6  0  0  0
  4  2  1  0  0  0  0
  5  4  1  0  0  0  0
  6  4  1  0  0  0  0
  6 18  1  0  0  0  0
  7  6  2  0  0  0  0
  8  1  1  0  0  0  0
 14  3  1  0  0  0  0
 16  5  1  0  0  0  0
 17  5  1  0  0  0  0
 18 24  1  0  0  0  0
 19 25  1  6  0  0  0
 19 18  1  0  0  0  0
 19 22  1  0  0  0  0
 20 27  1  0  0  0  0
 20 19  1  0  0  0  0
 21 20  1  0  0  0  0
 22 23  2  0  0  0  0
 22 34  1  0  0  0  0
 26 20  1  0  0  0  0
 28 21  1  0  0  0  0
 29 39  1  0  0  0  0
 29 30  1  0  0  0  0
 31 30  1  0  0  0  0
 31 41  1  0  0  0  0
 32 31  1  0  0  0  0
 32 43  1  0  0  0  0
 33 32  1  0  0  0  0
 33 35  1  0  0  0  0
 33 45  1  1  0  0  0
 34 33  1  0  0  0  0
 35 37  1  0  0  0  0
 36 35  2  0  0  0  0
 38 29  1  0  0  0  0
 40 29  1  0  0  0  0
 42 31  1  0  0  0  0
 44 32  1  0  0  0  0
 46 34  1  0  0  0  0
M  END
$$$$
