VCN.pdb
 OpenBabel07022419253D

 43 42  0  0  1  0  0  0  0  0999 V2000
    1.0210   -5.1980   -1.0580 C   0  0  0  0  0  0  0  0  0  0  0  0
    0.6460   -4.2650   -2.1980 C   0  0  0  0  0  0  0  0  0  0  0  0
    1.8930   -3.6840   -2.7650 C   0  0  0  0  0  0  0  0  0  0  0  0
   -0.3550   -3.2270   -1.7440 C   0  0  2  0  0  0  0  0  0  0  0  0
   -0.6840   -2.3670   -2.8470 N   0  0  0  0  0  0  0  0  0  0  0  0
    0.1300   -2.4690   -0.5640 C   0  0  0  0  0  0  0  0  0  0  0  0
    0.4470   -3.1180    0.4670 O   0  0  0  0  0  0  0  0  0  0  0  0
    0.1580   -5.3140   -0.3880 H   0  0  0  0  0  0  0  0  0  0  0  0
    1.3320   -6.1670   -1.4980 H   0  0  0  0  0  0  0  0  0  0  0  0
    1.8460   -4.7300   -0.4800 H   0  0  0  0  0  0  0  0  0  0  0  0
    0.1800   -4.9080   -2.9740 H   0  0  0  0  0  0  0  0  0  0  0  0
    1.7680   -2.7100   -3.2510 H   0  0  0  0  0  0  0  0  0  0  0  0
    2.2940   -4.3710   -3.5660 H   0  0  0  0  0  0  0  0  0  0  0  0
    2.6970   -3.6280   -2.0090 H   0  0  0  0  0  0  0  0  0  0  0  0
   -1.2950   -3.8020   -1.4990 H   0  0  0  0  0  0  0  0  0  0  0  0
    0.0240   -1.6670   -3.0830 H   0  0  0  0  0  0  0  0  0  0  0  0
   -1.6590   -2.0210   -2.8470 H   0  0  0  0  0  0  0  0  0  0  0  0
    0.2580   -1.0680   -0.5250 N   0  0  0  0  0  0  0  0  0  0  0  0
    0.7210   -0.3000    0.5900 C   0  0  1  0  0  0  0  0  0  0  0  0
    1.9890    0.4580    0.2440 C   0  0  0  0  0  0  0  0  0  0  0  0
    3.3080   -0.6910   -0.2320 S   0  0  0  0  0  0  0  0  0  0  0  0
   -0.2830    0.7100    1.0390 C   0  0  0  0  0  0  0  0  0  0  0  0
   -1.4010    0.8640    0.4960 O   0  0  0  0  0  0  0  0  0  0  0  0
   -0.0100   -0.5210   -1.3960 H   0  0  0  0  0  0  0  0  0  0  0  0
    0.9740   -0.9470    1.4570 H   0  0  0  0  0  0  0  0  0  0  0  0
    2.2900    1.0270    1.1490 H   0  0  0  0  0  0  0  0  0  0  0  0
    1.7710    1.1800   -0.5620 H   0  0  0  0  0  0  0  0  0  0  0  0
    4.5710   -0.0980   -0.1230 H   0  0  0  0  0  0  0  0  0  0  0  0
   -0.3370    2.0380    6.2430 N   0  0  0  0  0  0  0  0  0  0  0  0
   -0.1420    2.3580    4.8570 C   0  0  0  0  0  0  0  0  0  0  0  0
    0.9990    2.7070    4.5150 O   0  0  0  0  0  0  0  0  0  0  0  0
   -1.3310    2.2350    3.9940 C   0  0  0  0  0  0  0  0  0  0  0  0
   -0.9590    2.5270    2.5640 C   0  0  2  0  0  0  0  0  0  0  0  0
    0.0280    1.5560    2.1460 N   0  0  0  0  0  0  0  0  0  0  0  0
   -0.4050    3.9110    2.5370 C   0  0  0  0  0  0  0  0  0  0  0  0
    0.7660    4.1860    2.1950 O   0  0  0  0  0  0  0  0  0  0  0  0
   -1.2410    4.9470    2.9120 O   0  0  0  0  0  0  0  0  0  0  0  0
   -0.5600    2.8110    6.8840 H   0  0  0  0  0  0  0  0  0  0  0  0
   -0.2460    1.0540    6.5380 H   0  0  0  0  0  0  0  0  0  0  0  0
   -2.0820    2.9590    4.3850 H   0  0  0  0  0  0  0  0  0  0  0  0
   -1.7570    1.2080    4.0020 H   0  0  0  0  0  0  0  0  0  0  0  0
   -1.8520    2.4800    1.9050 H   0  0  0  0  0  0  0  0  0  0  0  0
    0.9560    1.4640    2.6320 H   0  0  0  0  0  0  0  0  0  0  0  0
  1 10  1  0  0  0  0
  1  8  1  0  0  0  0
  2  4  1  0  0  0  0
  2  1  1  0  0  0  0
  3  2  1  0  0  0  0
  3 14  1  0  0  0  0
  4 15  1  1  0  0  0
  4  6  1  0  0  0  0
  5  4  1  0  0  0  0
  6 18  1  0  0  0  0
  6  7  2  0  0  0  0
  9  1  1  0  0  0  0
 11  2  1  0  0  0  0
 12  3  1  0  0  0  0
 13  3  1  0  0  0  0
 16  5  1  0  0  0  0
 17  5  1  0  0  0  0
 18 19  1  0  0  0  0
 19 22  1  0  0  0  0
 19 25  1  1  0  0  0
 20 19  1  0  0  0  0
 20 26  1  0  0  0  0
 21 28  1  0  0  0  0
 21 20  1  0  0  0  0
 22 34  1  0  0  0  0
 23 22  2  0  0  0  0
 24 18  1  0  0  0  0
 27 20  1  0  0  0  0
 29 39  1  0  0  0  0
 29 38  1  0  0  0  0
 30 29  1  0  0  0  0
 31 30  2  0  0  0  0
 32 41  1  0  0  0  0
 32 40  1  0  0  0  0
 32 30  1  0  0  0  0
 33 42  1  6  0  0  0
 33 32  1  0  0  0  0
 34 33  1  0  0  0  0
 34 43  1  0  0  0  0
 35 33  1  0  0  0  0
 35 37  1  0  0  0  0
 36 35  2  0  0  0  0
M  END
$$$$
