VCP.pdb
 OpenBabel07022419253D

 43 43  0  0  1  0  0  0  0  0999 V2000
   -0.3160   -2.4520    2.9400 C   0  0  0  0  0  0  0  0  0  0  0  0
    0.0130   -3.5710    2.0060 C   0  0  0  0  0  0  0  0  0  0  0  0
    1.5240   -3.7980    1.9710 C   0  0  0  0  0  0  0  0  0  0  0  0
   -0.5640   -3.4970    0.6350 C   0  0  2  0  0  0  0  0  0  0  0  0
   -0.0790   -4.7670   -0.0100 N   0  0  0  0  0  0  0  0  0  0  0  0
   -0.0960   -2.4470   -0.2540 C   0  0  0  0  0  0  0  0  0  0  0  0
    0.8140   -2.6970   -1.1300 O   0  0  0  0  0  0  0  0  0  0  0  0
   -1.0610   -1.7690    2.5290 H   0  0  0  0  0  0  0  0  0  0  0  0
    0.5910   -1.8870    3.2650 H   0  0  0  0  0  0  0  0  0  0  0  0
   -0.7260   -2.8880    3.8910 H   0  0  0  0  0  0  0  0  0  0  0  0
   -0.3780   -4.5290    2.4740 H   0  0  0  0  0  0  0  0  0  0  0  0
    1.6940   -4.6320    1.2560 H   0  0  0  0  0  0  0  0  0  0  0  0
    2.0140   -2.8720    1.6660 H   0  0  0  0  0  0  0  0  0  0  0  0
    1.8310   -4.1440    2.9630 H   0  0  0  0  0  0  0  0  0  0  0  0
   -1.6560   -3.6170    0.6800 H   0  0  0  0  0  0  0  0  0  0  0  0
   -0.4050   -4.7700   -1.0090 H   0  0  0  0  0  0  0  0  0  0  0  0
   -0.4720   -5.5820    0.5110 H   0  0  0  0  0  0  0  0  0  0  0  0
   -0.5430   -1.0780   -0.3050 N   0  0  0  0  0  0  0  0  0  0  0  0
   -0.0380   -0.1430   -1.2340 C   0  0  1  0  0  0  0  0  0  0  0  0
   -1.0780    0.1260   -2.3550 C   0  0  0  0  0  0  0  0  0  0  0  0
   -2.6040    0.7870   -1.6270 S   0  0  0  0  0  0  0  0  0  0  0  0
    0.5400    1.1070   -0.8050 C   0  0  0  0  0  0  0  0  0  0  0  0
    1.0200    1.8600   -1.7450 O   0  0  0  0  0  0  0  0  0  0  0  0
   -1.2810   -0.8440    0.3860 H   0  0  0  0  0  0  0  0  0  0  0  0
    0.7830   -0.6790   -1.8320 H   0  0  0  0  0  0  0  0  0  0  0  0
   -0.6610    0.9210   -3.0070 H   0  0  0  0  0  0  0  0  0  0  0  0
   -1.2370   -0.7650   -2.9610 H   0  0  0  0  0  0  0  0  0  0  0  0
   -3.6540    0.5400   -2.5560 H   0  0  0  0  0  0  0  0  0  0  0  0
    0.6640    1.6420    0.5070 N   0  0  0  0  0  0  0  0  0  0  0  0
    0.1320    0.9960    1.6910 C   0  0  0  0  0  0  0  0  0  0  0  0
    0.4860    1.8580    2.8770 C   0  0  0  0  0  0  0  0  0  0  0  0
    1.5230    2.8050    2.3660 C   0  0  0  0  0  0  0  0  0  0  0  0
    1.3100    2.8580    0.9020 C   0  0  1  0  0  0  0  0  0  0  0  0
    2.5910    3.1260    0.1810 C   0  0  0  0  0  0  0  0  0  0  0  0
    3.1900    2.3430   -0.5730 O   0  0  0  0  0  0  0  0  0  0  0  0
    3.1750    4.3790    0.3730 O   0  0  0  0  0  0  0  0  0  0  0  0
    0.4800   -0.0300    1.7910 H   0  0  0  0  0  0  0  0  0  0  0  0
   -1.0020    1.0670    1.6030 H   0  0  0  0  0  0  0  0  0  0  0  0
    0.8750    1.2460    3.7180 H   0  0  0  0  0  0  0  0  0  0  0  0
   -0.3880    2.4740    3.2400 H   0  0  0  0  0  0  0  0  0  0  0  0
    1.4620    3.8040    2.8630 H   0  0  0  0  0  0  0  0  0  0  0  0
    2.5150    2.3880    2.6550 H   0  0  0  0  0  0  0  0  0  0  0  0
    0.6130    3.7040    0.6880 H   0  0  0  0  0  0  0  0  0  0  0  0
  1  9  1  0  0  0  0
  1 10  1  0  0  0  0
  2 11  1  0  0  0  0
  2  1  1  0  0  0  0
  3  2  1  0  0  0  0
  3 14  1  0  0  0  0
  4 15  1  1  0  0  0
  4  2  1  0  0  0  0
  5 17  1  0  0  0  0
  5  4  1  0  0  0  0
  6  4  1  0  0  0  0
  7  6  2  0  0  0  0
  8  1  1  0  0  0  0
 12  3  1  0  0  0  0
 13  3  1  0  0  0  0
 16  5  1  0  0  0  0
 18  6  1  0  0  0  0
 18 24  1  0  0  0  0
 19 25  1  6  0  0  0
 19 22  1  0  0  0  0
 19 18  1  0  0  0  0
 20 21  1  0  0  0  0
 20 19  1  0  0  0  0
 22 29  1  0  0  0  0
 23 22  2  0  0  0  0
 26 20  1  0  0  0  0
 27 20  1  0  0  0  0
 28 21  1  0  0  0  0
 29 33  1  0  0  0  0
 29 30  1  0  0  0  0
 30 37  1  0  0  0  0
 30 31  1  0  0  0  0
 31 40  1  0  0  0  0
 31 39  1  0  0  0  0
 32 42  1  0  0  0  0
 32 41  1  0  0  0  0
 32 31  1  0  0  0  0
 33 43  1  6  0  0  0
 33 32  1  0  0  0  0
 34 36  1  0  0  0  0
 34 33  1  0  0  0  0
 35 34  2  0  0  0  0
 38 30  1  0  0  0  0
M  END
$$$$
