VCQ.pdb
 OpenBabel07022419253D

 46 45  0  0  1  0  0  0  0  0999 V2000
   -0.4350   -5.5230   -0.5870 C   0  0  0  0  0  0  0  0  0  0  0  0
    0.4640   -4.3200   -0.7620 C   0  0  0  0  0  0  0  0  0  0  0  0
    1.8930   -4.7760   -0.8160 C   0  0  0  0  0  0  0  0  0  0  0  0
    0.2660   -3.3210    0.3780 C   0  0  2  0  0  0  0  0  0  0  0  0
   -1.1060   -2.8570    0.4210 N   0  0  0  0  0  0  0  0  0  0  0  0
    1.2160   -2.2100    0.1490 C   0  0  0  0  0  0  0  0  0  0  0  0
    2.4570   -2.3970    0.0910 O   0  0  0  0  0  0  0  0  0  0  0  0
    0.1140   -6.4030   -0.9800 H   0  0  0  0  0  0  0  0  0  0  0  0
   -0.7260   -5.7170    0.4440 H   0  0  0  0  0  0  0  0  0  0  0  0
   -1.3320   -5.4190   -1.2640 H   0  0  0  0  0  0  0  0  0  0  0  0
    0.2140   -3.8440   -1.7290 H   0  0  0  0  0  0  0  0  0  0  0  0
    2.3390   -4.7230    0.1990 H   0  0  0  0  0  0  0  0  0  0  0  0
    1.9880   -5.8090   -1.2450 H   0  0  0  0  0  0  0  0  0  0  0  0
    2.4580   -4.1050   -1.4950 H   0  0  0  0  0  0  0  0  0  0  0  0
    0.4510   -3.8880    1.3110 H   0  0  0  0  0  0  0  0  0  0  0  0
   -1.7880   -3.5900    0.1320 H   0  0  0  0  0  0  0  0  0  0  0  0
   -1.3640   -2.5830    1.3960 H   0  0  0  0  0  0  0  0  0  0  0  0
    0.7860   -0.8530   -0.0210 N   0  0  0  0  0  0  0  0  0  0  0  0
    1.6760    0.2500   -0.2450 C   0  0  1  0  0  0  0  0  0  0  0  0
    1.4300    0.9430   -1.5640 C   0  0  0  0  0  0  0  0  0  0  0  0
   -0.2230    1.6180   -1.7140 S   0  0  0  0  0  0  0  0  0  0  0  0
    1.5780    1.1810    0.8980 C   0  0  0  0  0  0  0  0  0  0  0  0
    2.2580    2.2490    0.9570 O   0  0  0  0  0  0  0  0  0  0  0  0
   -0.2390   -0.6710    0.0220 H   0  0  0  0  0  0  0  0  0  0  0  0
    2.7510   -0.0770   -0.2750 H   0  0  0  0  0  0  0  0  0  0  0  0
    2.1620    1.7790   -1.6260 H   0  0  0  0  0  0  0  0  0  0  0  0
    1.7000    0.2330   -2.3630 H   0  0  0  0  0  0  0  0  0  0  0  0
   -0.5320    1.7120   -3.0880 H   0  0  0  0  0  0  0  0  0  0  0  0
   -3.2520    4.1990    0.9690 N   0  0  0  0  0  0  0  0  0  0  0  0
   -2.6650    3.4170    1.9930 C   0  0  0  0  0  0  0  0  0  0  0  0
   -3.3920    3.0980    2.9890 O   0  0  0  0  0  0  0  0  0  0  0  0
   -1.2590    2.9600    1.9560 C   0  0  0  0  0  0  0  0  0  0  0  0
   -0.9520    2.1480    3.1940 C   0  0  0  0  0  0  0  0  0  0  0  0
    0.5110    1.6910    3.1220 C   0  0  2  0  0  0  0  0  0  0  0  0
    0.7130    0.8920    1.9570 N   0  0  0  0  0  0  0  0  0  0  0  0
    0.8830    0.9160    4.3220 C   0  0  0  0  0  0  0  0  0  0  0  0
    0.7670    1.4690    5.4370 O   0  0  0  0  0  0  0  0  0  0  0  0
    1.3420   -0.3800    4.1680 O   0  0  0  0  0  0  0  0  0  0  0  0
   -2.6400    4.7600    0.3530 H   0  0  0  0  0  0  0  0  0  0  0  0
   -4.2700    4.2190    0.8290 H   0  0  0  0  0  0  0  0  0  0  0  0
   -0.5830    3.8360    1.8480 H   0  0  0  0  0  0  0  0  0  0  0  0
   -1.1350    2.2520    1.0860 H   0  0  0  0  0  0  0  0  0  0  0  0
   -1.6140    1.2410    3.1370 H   0  0  0  0  0  0  0  0  0  0  0  0
   -1.1400    2.7480    4.0900 H   0  0  0  0  0  0  0  0  0  0  0  0
    1.1190    2.6180    3.1360 H   0  0  0  0  0  0  0  0  0  0  0  0
    0.1460    0.0010    1.9070 H   0  0  0  0  0  0  0  0  0  0  0  0
  1  9  1  0  0  0  0
  2  1  1  0  0  0  0
  2  4  1  0  0  0  0
  3  2  1  0  0  0  0
  3 12  1  0  0  0  0
  4  5  1  0  0  0  0
  4 15  1  1  0  0  0
  5 17  1  0  0  0  0
  6  4  1  0  0  0  0
  7  6  2  0  0  0  0
  8  1  1  0  0  0  0
 10  1  1  0  0  0  0
 11  2  1  0  0  0  0
 13  3  1  0  0  0  0
 14  3  1  0  0  0  0
 16  5  1  0  0  0  0
 18 24  1  0  0  0  0
 18  6  1  0  0  0  0
 19 25  1  6  0  0  0
 19 18  1  0  0  0  0
 19 22  1  0  0  0  0
 20 19  1  0  0  0  0
 21 20  1  0  0  0  0
 22 23  2  0  0  0  0
 22 35  1  0  0  0  0
 26 20  1  0  0  0  0
 27 20  1  0  0  0  0
 28 21  1  0  0  0  0
 29 30  1  0  0  0  0
 30 31  2  0  0  0  0
 32 30  1  0  0  0  0
 32 33  1  0  0  0  0
 33 44  1  0  0  0  0
 34 45  1  6  0  0  0
 34 33  1  0  0  0  0
 34 36  1  0  0  0  0
 35 34  1  0  0  0  0
 36 37  1  0  0  0  0
 38 36  2  0  0  0  0
 39 29  1  0  0  0  0
 40 29  1  0  0  0  0
 41 32  1  0  0  0  0
 42 32  1  0  0  0  0
 43 33  1  0  0  0  0
 46 35  1  0  0  0  0
M  END
$$$$
