VCR.pdb
 OpenBabel07022419253D

 52 51  0  0  1  0  0  0  0  0999 V2000
    3.1930   -3.6320    2.1270 C   0  0  0  0  0  0  0  0  0  0  0  0
    2.1640   -2.9090    2.9520 C   0  0  0  0  0  0  0  0  0  0  0  0
    2.0290   -3.5710    4.3070 C   0  0  0  0  0  0  0  0  0  0  0  0
    0.8090   -2.9400    2.2930 C   0  0  2  0  0  0  0  0  0  0  0  0
    0.4240   -4.3310    2.1500 N   0  0  0  0  0  0  0  0  0  0  0  0
    0.8350   -2.2770    0.9560 C   0  0  0  0  0  0  0  0  0  0  0  0
    0.5470   -2.9420   -0.0580 O   0  0  0  0  0  0  0  0  0  0  0  0
    2.6530   -4.2870    1.4100 H   0  0  0  0  0  0  0  0  0  0  0  0
    3.8600   -2.9060    1.5820 H   0  0  0  0  0  0  0  0  0  0  0  0
    3.7780   -4.2880    2.7910 H   0  0  0  0  0  0  0  0  0  0  0  0
    2.4310   -1.8390    3.0910 H   0  0  0  0  0  0  0  0  0  0  0  0
    2.9610   -4.1150    4.5820 H   0  0  0  0  0  0  0  0  0  0  0  0
    1.7960   -2.7650    5.0470 H   0  0  0  0  0  0  0  0  0  0  0  0
    1.1960   -4.3010    4.2550 H   0  0  0  0  0  0  0  0  0  0  0  0
    0.0870   -2.4590    2.9500 H   0  0  0  0  0  0  0  0  0  0  0  0
    0.2010   -4.5720    1.1560 H   0  0  0  0  0  0  0  0  0  0  0  0
   -0.4320   -4.5570    2.7090 H   0  0  0  0  0  0  0  0  0  0  0  0
    1.1760   -0.9140    0.7890 N   0  0  0  0  0  0  0  0  0  0  0  0
    1.2140   -0.2270   -0.4670 C   0  0  1  0  0  0  0  0  0  0  0  0
    2.3780   -0.5230   -1.3420 C   0  0  0  0  0  0  0  0  0  0  0  0
    2.5740   -2.2220   -1.8480 S   0  0  0  0  0  0  0  0  0  0  0  0
   -0.0950   -0.1610   -1.1750 C   0  0  0  0  0  0  0  0  0  0  0  0
   -0.0980    0.2930   -2.3300 O   0  0  0  0  0  0  0  0  0  0  0  0
    1.4190   -0.3920    1.6860 H   0  0  0  0  0  0  0  0  0  0  0  0
    1.3640    0.8790   -0.1650 H   0  0  0  0  0  0  0  0  0  0  0  0
    2.3530    0.1420   -2.2470 H   0  0  0  0  0  0  0  0  0  0  0  0
    3.3040   -0.1760   -0.7950 H   0  0  0  0  0  0  0  0  0  0  0  0
    3.2120   -2.2830   -3.1110 H   0  0  0  0  0  0  0  0  0  0  0  0
    0.5070    3.8430    0.8310 N   0  0  0  0  0  0  0  0  0  0  0  0
   -0.5070    3.0350    1.4060 C   0  0  0  0  0  0  0  0  0  0  0  0
   -0.3960    2.7100    2.6570 N   0  0  0  0  0  0  0  0  0  0  0  0
   -1.6140    2.5930    0.6350 N   0  0  0  0  0  0  0  0  0  0  0  0
   -2.5260    1.6030    1.2140 C   0  0  0  0  0  0  0  0  0  0  0  0
   -3.6280    1.2400    0.2960 C   0  0  0  0  0  0  0  0  0  0  0  0
   -3.3140    0.6640   -1.0160 C   0  0  0  0  0  0  0  0  0  0  0  0
   -2.5800   -0.6030   -1.1120 C   0  0  2  0  0  0  0  0  0  0  0  0
   -1.2690   -0.6040   -0.5270 N   0  0  0  0  0  0  0  0  0  0  0  0
   -2.5780   -1.1460   -2.5320 C   0  0  0  0  0  0  0  0  0  0  0  0
   -1.5820   -1.6050   -3.1030 O   0  0  0  0  0  0  0  0  0  0  0  0
   -3.7700   -1.1320   -3.2520 O   0  0  0  0  0  0  0  0  0  0  0  0
    1.4710    3.9330    1.1870 H   0  0  0  0  0  0  0  0  0  0  0  0
    0.2770    4.4070   -0.0340 H   0  0  0  0  0  0  0  0  0  0  0  0
    0.4060    3.0230    3.2400 H   0  0  0  0  0  0  0  0  0  0  0  0
   -1.7680    2.9590   -0.3040 H   0  0  0  0  0  0  0  0  0  0  0  0
   -3.0250    2.2020    2.0500 H   0  0  0  0  0  0  0  0  0  0  0  0
   -2.0180    0.8020    1.7450 H   0  0  0  0  0  0  0  0  0  0  0  0
   -4.2090    2.1950    0.1080 H   0  0  0  0  0  0  0  0  0  0  0  0
   -4.3620    0.6310    0.8970 H   0  0  0  0  0  0  0  0  0  0  0  0
   -4.3090    0.5010   -1.5450 H   0  0  0  0  0  0  0  0  0  0  0  0
   -2.8390    1.4580   -1.6750 H   0  0  0  0  0  0  0  0  0  0  0  0
   -3.1660   -1.4210   -0.5900 H   0  0  0  0  0  0  0  0  0  0  0  0
   -1.1720   -0.9630    0.4740 H   0  0  0  0  0  0  0  0  0  0  0  0
  1 10  1  0  0  0  0
  1  2  1  0  0  0  0
  2 11  1  0  0  0  0
  2  3  1  0  0  0  0
  3 12  1  0  0  0  0
  3 13  1  0  0  0  0
  4 15  1  1  0  0  0
  4  2  1  0  0  0  0
  5  4  1  0  0  0  0
  5 17  1  0  0  0  0
  6  4  1  0  0  0  0
  7  6  2  0  0  0  0
  8  1  1  0  0  0  0
  9  1  1  0  0  0  0
 14  3  1  0  0  0  0
 16  5  1  0  0  0  0
 18  6  1  0  0  0  0
 18 24  1  0  0  0  0
 19 25  1  1  0  0  0
 19 18  1  0  0  0  0
 20 27  1  0  0  0  0
 20 19  1  0  0  0  0
 21 20  1  0  0  0  0
 22 37  1  0  0  0  0
 22 19  1  0  0  0  0
 23 22  2  0  0  0  0
 26 20  1  0  0  0  0
 28 21  1  0  0  0  0
 29 41  1  0  0  0  0
 29 30  1  0  0  0  0
 30 31  2  0  0  0  0
 31 43  1  0  0  0  0
 32 33  1  0  0  0  0
 32 30  1  0  0  0  0
 33 46  1  0  0  0  0
 33 45  1  0  0  0  0
 34 48  1  0  0  0  0
 34 33  1  0  0  0  0
 35 34  1  0  0  0  0
 36 35  1  0  0  0  0
 36 51  1  1  0  0  0
 36 37  1  0  0  0  0
 37 52  1  0  0  0  0
 38 36  1  0  0  0  0
 39 38  1  0  0  0  0
 40 38  2  0  0  0  0
 42 29  1  0  0  0  0
 44 32  1  0  0  0  0
 47 34  1  0  0  0  0
 49 35  1  0  0  0  0
 50 35  1  0  0  0  0
M  END
$$$$
