VCT.pdb
 OpenBabel07022419253D

 43 42  0  0  1  0  0  0  0  0999 V2000
    2.6400   -3.9020    2.6970 C   0  0  0  0  0  0  0  0  0  0  0  0
    1.9160   -3.3780    1.4430 C   0  0  0  0  0  0  0  0  0  0  0  0
    2.9310   -3.3600    0.3540 C   0  0  0  0  0  0  0  0  0  0  0  0
    1.3710   -2.0210    1.8260 C   0  0  2  0  0  0  0  0  0  0  0  0
    0.4480   -2.1910    2.9740 N   0  0  0  0  0  0  0  0  0  0  0  0
    0.5470   -1.3910    0.7610 C   0  0  0  0  0  0  0  0  0  0  0  0
   -0.7160   -1.2570    0.9080 O   0  0  0  0  0  0  0  0  0  0  0  0
    3.6650   -3.4840    2.7100 H   0  0  0  0  0  0  0  0  0  0  0  0
    2.6120   -5.0060    2.7330 H   0  0  0  0  0  0  0  0  0  0  0  0
    2.0880   -3.5390    3.5890 H   0  0  0  0  0  0  0  0  0  0  0  0
    1.0980   -4.0940    1.2490 H   0  0  0  0  0  0  0  0  0  0  0  0
    2.4160   -3.3990   -0.6220 H   0  0  0  0  0  0  0  0  0  0  0  0
    3.6780   -2.5650    0.4430 H   0  0  0  0  0  0  0  0  0  0  0  0
    3.5420   -4.3170    0.3720 H   0  0  0  0  0  0  0  0  0  0  0  0
    2.1940   -1.4060    2.1890 H   0  0  0  0  0  0  0  0  0  0  0  0
    0.1230   -3.1920    3.0050 H   0  0  0  0  0  0  0  0  0  0  0  0
    0.9050   -1.9000    3.8620 H   0  0  0  0  0  0  0  0  0  0  0  0
    1.0940   -0.9020   -0.4730 N   0  0  0  0  0  0  0  0  0  0  0  0
    0.3610   -0.2880   -1.5270 C   0  0  1  0  0  0  0  0  0  0  0  0
   -0.4530   -1.1830   -2.3900 C   0  0  0  0  0  0  0  0  0  0  0  0
   -1.7290   -2.1220   -1.5650 S   0  0  0  0  0  0  0  0  0  0  0  0
   -0.3430    0.9770   -1.1310 C   0  0  0  0  0  0  0  0  0  0  0  0
   -1.1310    1.5600   -1.9170 O   0  0  0  0  0  0  0  0  0  0  0  0
    2.1500   -1.0420   -0.5260 H   0  0  0  0  0  0  0  0  0  0  0  0
    1.1710    0.1300   -2.2320 H   0  0  0  0  0  0  0  0  0  0  0  0
    0.1870   -1.9060   -2.9590 H   0  0  0  0  0  0  0  0  0  0  0  0
   -0.9020   -0.5290   -3.1970 H   0  0  0  0  0  0  0  0  0  0  0  0
   -1.8830   -3.4210   -2.1360 H   0  0  0  0  0  0  0  0  0  0  0  0
   -2.7300    1.4410    1.4460 C   0  0  0  0  0  0  0  0  0  0  0  0
   -1.6730    2.4600    1.7650 C   0  0  1  0  0  0  0  0  0  0  0  0
   -0.8650    1.9670    2.8100 O   0  0  0  0  0  0  0  0  0  0  0  0
   -0.8090    2.7840    0.5590 C   0  0  2  0  0  0  0  0  0  0  0  0
   -0.1410    1.5600    0.1380 N   0  0  0  0  0  0  0  0  0  0  0  0
    0.1710    3.8170    0.9360 C   0  0  0  0  0  0  0  0  0  0  0  0
   -0.2430    4.9330    1.3220 O   0  0  0  0  0  0  0  0  0  0  0  0
    1.5490    3.5470    0.8600 O   0  0  0  0  0  0  0  0  0  0  0  0
   -2.5490    0.4770    2.0020 H   0  0  0  0  0  0  0  0  0  0  0  0
   -3.7190    1.8310    1.7780 H   0  0  0  0  0  0  0  0  0  0  0  0
   -2.7260    1.2400    0.3640 H   0  0  0  0  0  0  0  0  0  0  0  0
   -2.1170    3.4060    2.1670 H   0  0  0  0  0  0  0  0  0  0  0  0
    0.0050    2.4030    2.8500 H   0  0  0  0  0  0  0  0  0  0  0  0
   -1.4730    3.1830   -0.2210 H   0  0  0  0  0  0  0  0  0  0  0  0
    0.5230    1.1060    0.8010 H   0  0  0  0  0  0  0  0  0  0  0  0
  1  8  1  0  0  0  0
  1  9  1  0  0  0  0
  1 10  1  0  0  0  0
  2  4  1  0  0  0  0
  2  1  1  0  0  0  0
  3 14  1  0  0  0  0
  3 13  1  0  0  0  0
  3  2  1  0  0  0  0
  4 15  1  1  0  0  0
  4  5  1  0  0  0  0
  5 16  1  0  0  0  0
  5 17  1  0  0  0  0
  6  7  2  0  0  0  0
  6  4  1  0  0  0  0
 11  2  1  0  0  0  0
 12  3  1  0  0  0  0
 18  6  1  0  0  0  0
 19 25  1  6  0  0  0
 19 22  1  0  0  0  0
 19 18  1  0  0  0  0
 20 21  1  0  0  0  0
 20 19  1  0  0  0  0
 22 33  1  0  0  0  0
 23 22  2  0  0  0  0
 24 18  1  0  0  0  0
 26 20  1  0  0  0  0
 27 20  1  0  0  0  0
 28 21  1  0  0  0  0
 29 30  1  0  0  0  0
 29 38  1  0  0  0  0
 29 37  1  0  0  0  0
 30 40  1  1  0  0  0
 30 31  1  0  0  0  0
 31 41  1  0  0  0  0
 32 42  1  6  0  0  0
 32 34  1  0  0  0  0
 32 30  1  0  0  0  0
 33 32  1  0  0  0  0
 33 43  1  0  0  0  0
 34 35  1  0  0  0  0
 36 34  2  0  0  0  0
 39 29  1  0  0  0  0
M  END
$$$$
