VCV.pdb
 OpenBabel07022419253D

 45 44  0  0  1  0  0  0  0  0999 V2000
   -1.8510   -3.7310    0.8950 C   0  0  0  0  0  0  0  0  0  0  0  0
   -0.9670   -4.4340   -0.0870 C   0  0  0  0  0  0  0  0  0  0  0  0
    0.3810   -4.7840    0.5000 C   0  0  0  0  0  0  0  0  0  0  0  0
   -0.8590   -3.7190   -1.4000 C   0  0  2  0  0  0  0  0  0  0  0  0
    0.0360   -4.5390   -2.2540 N   0  0  0  0  0  0  0  0  0  0  0  0
   -0.3070   -2.3610   -1.3320 C   0  0  0  0  0  0  0  0  0  0  0  0
    0.8390   -2.1230   -1.8530 O   0  0  0  0  0  0  0  0  0  0  0  0
   -2.7680   -3.4070    0.3700 H   0  0  0  0  0  0  0  0  0  0  0  0
   -2.2270   -4.4420    1.6880 H   0  0  0  0  0  0  0  0  0  0  0  0
   -1.3760   -2.8960    1.4260 H   0  0  0  0  0  0  0  0  0  0  0  0
   -1.4620   -5.4200   -0.3150 H   0  0  0  0  0  0  0  0  0  0  0  0
    0.7580   -5.6960    0.0100 H   0  0  0  0  0  0  0  0  0  0  0  0
    1.0980   -3.9440    0.4510 H   0  0  0  0  0  0  0  0  0  0  0  0
    0.2110   -5.0230    1.5700 H   0  0  0  0  0  0  0  0  0  0  0  0
   -1.8500   -3.7920   -1.8930 H   0  0  0  0  0  0  0  0  0  0  0  0
    1.0310   -4.4080   -1.9710 H   0  0  0  0  0  0  0  0  0  0  0  0
   -0.2650   -5.5470   -2.1200 H   0  0  0  0  0  0  0  0  0  0  0  0
   -0.8960   -1.2270   -0.7420 N   0  0  0  0  0  0  0  0  0  0  0  0
   -0.3020    0.0790   -0.7070 C   0  0  1  0  0  0  0  0  0  0  0  0
   -1.0880    1.1270   -1.4330 C   0  0  0  0  0  0  0  0  0  0  0  0
   -2.7430    1.3510   -0.7780 S   0  0  0  0  0  0  0  0  0  0  0  0
   -0.0480    0.4330    0.7120 C   0  0  0  0  0  0  0  0  0  0  0  0
   -0.3460   -0.3580    1.6430 O   0  0  0  0  0  0  0  0  0  0  0  0
   -1.8340   -1.3320   -0.3020 H   0  0  0  0  0  0  0  0  0  0  0  0
    0.6870   -0.0030   -1.2280 H   0  0  0  0  0  0  0  0  0  0  0  0
   -0.5440    2.0880   -1.3180 H   0  0  0  0  0  0  0  0  0  0  0  0
   -1.0710    0.8900   -2.5130 H   0  0  0  0  0  0  0  0  0  0  0  0
   -3.7130    1.1390   -1.7830 H   0  0  0  0  0  0  0  0  0  0  0  0
    2.6840    2.7000    3.9970 C   0  0  0  0  0  0  0  0  0  0  0  0
    2.3060    2.2860    2.6080 C   0  0  0  0  0  0  0  0  0  0  0  0
    3.0440    1.0050    2.2840 C   0  0  0  0  0  0  0  0  0  0  0  0
    0.8040    2.0620    2.4520 C   0  0  2  0  0  0  0  0  0  0  0  0
    0.5390    1.6710    1.1030 N   0  0  0  0  0  0  0  0  0  0  0  0
    0.1470    3.3460    2.8210 C   0  0  0  0  0  0  0  0  0  0  0  0
    0.3350    3.7550    3.9960 O   0  0  0  0  0  0  0  0  0  0  0  0
   -0.6340    4.0810    1.9520 O   0  0  0  0  0  0  0  0  0  0  0  0
    3.7170    2.3240    4.2160 H   0  0  0  0  0  0  0  0  0  0  0  0
    1.9550    2.2370    4.7240 H   0  0  0  0  0  0  0  0  0  0  0  0
    2.6650    3.7790    4.1670 H   0  0  0  0  0  0  0  0  0  0  0  0
    2.5960    3.0290    1.8390 H   0  0  0  0  0  0  0  0  0  0  0  0
    2.5600    0.1160    2.7030 H   0  0  0  0  0  0  0  0  0  0  0  0
    3.2480    0.9130    1.1850 H   0  0  0  0  0  0  0  0  0  0  0  0
    4.0410    1.0870    2.7990 H   0  0  0  0  0  0  0  0  0  0  0  0
    0.5200    1.3260    3.2080 H   0  0  0  0  0  0  0  0  0  0  0  0
    0.7890    2.3340    0.3380 H   0  0  0  0  0  0  0  0  0  0  0  0
  1 10  1  0  0  0  0
  1  9  1  0  0  0  0
  2  3  1  0  0  0  0
  2  1  1  0  0  0  0
  3 14  1  0  0  0  0
  4 15  1  6  0  0  0
  4  6  1  0  0  0  0
  4  2  1  0  0  0  0
  5 17  1  0  0  0  0
  5 16  1  0  0  0  0
  5  4  1  0  0  0  0
  6 18  1  0  0  0  0
  7  6  2  0  0  0  0
  8  1  1  0  0  0  0
 11  2  1  0  0  0  0
 12  3  1  0  0  0  0
 13  3  1  0  0  0  0
 18 19  1  0  0  0  0
 18 24  1  0  0  0  0
 19 25  1  6  0  0  0
 19 22  1  0  0  0  0
 20 26  1  0  0  0  0
 20 21  1  0  0  0  0
 20 19  1  0  0  0  0
 22 33  1  0  0  0  0
 22 23  2  0  0  0  0
 27 20  1  0  0  0  0
 28 21  1  0  0  0  0
 29 39  1  0  0  0  0
 29 37  1  0  0  0  0
 29 38  1  0  0  0  0
 30 29  1  0  0  0  0
 31 30  1  0  0  0  0
 31 41  1  0  0  0  0
 31 43  1  0  0  0  0
 32 30  1  0  0  0  0
 32 34  1  0  0  0  0
 32 44  1  1  0  0  0
 33 32  1  0  0  0  0
 34 35  1  0  0  0  0
 36 34  2  0  0  0  0
 40 30  1  0  0  0  0
 42 31  1  0  0  0  0
 45 33  1  0  0  0  0
M  END
$$$$
