VCY.pdb
 OpenBabel07022419253D

 50 50  0  0  1  0  0  0  0  0999 V2000
    1.4130   -5.6920    2.8400 C   0  0  0  0  0  0  0  0  0  0  0  0
    2.0520   -4.3250    2.7020 C   0  0  0  0  0  0  0  0  0  0  0  0
    2.9350   -4.3730    1.4750 C   0  0  0  0  0  0  0  0  0  0  0  0
    0.9460   -3.3200    2.5670 C   0  0  2  0  0  0  0  0  0  0  0  0
    0.1800   -3.6600    1.3890 N   0  0  0  0  0  0  0  0  0  0  0  0
    1.4480   -1.9350    2.5280 C   0  0  0  0  0  0  0  0  0  0  0  0
    2.1350   -1.4210    3.4410 O   0  0  0  0  0  0  0  0  0  0  0  0
    2.0450   -6.4920    2.4050 H   0  0  0  0  0  0  0  0  0  0  0  0
    1.1330   -5.9000    3.8860 H   0  0  0  0  0  0  0  0  0  0  0  0
    0.4780   -5.6720    2.2430 H   0  0  0  0  0  0  0  0  0  0  0  0
    2.6710   -4.1290    3.6200 H   0  0  0  0  0  0  0  0  0  0  0  0
    3.8730   -4.9090    1.7460 H   0  0  0  0  0  0  0  0  0  0  0  0
    3.2030   -3.3850    1.0860 H   0  0  0  0  0  0  0  0  0  0  0  0
    2.4140   -5.0240    0.7350 H   0  0  0  0  0  0  0  0  0  0  0  0
    0.2560   -3.4870    3.4410 H   0  0  0  0  0  0  0  0  0  0  0  0
    0.7860   -3.5340    0.5660 H   0  0  0  0  0  0  0  0  0  0  0  0
   -0.6210   -2.9950    1.3340 H   0  0  0  0  0  0  0  0  0  0  0  0
    1.1610   -1.0960    1.4140 N   0  0  0  0  0  0  0  0  0  0  0  0
    1.6240    0.2650    1.3220 C   0  0  1  0  0  0  0  0  0  0  0  0
    2.6020    0.4710    0.1940 C   0  0  0  0  0  0  0  0  0  0  0  0
    1.8790    0.0660   -1.4150 S   0  0  0  0  0  0  0  0  0  0  0  0
    0.4940    1.1870    1.3190 C   0  0  0  0  0  0  0  0  0  0  0  0
    0.6590    2.4100    1.2440 O   0  0  0  0  0  0  0  0  0  0  0  0
    0.5890   -1.5110    0.6460 H   0  0  0  0  0  0  0  0  0  0  0  0
    2.2110    0.4690    2.2650 H   0  0  0  0  0  0  0  0  0  0  0  0
    3.5280   -0.0880    0.3780 H   0  0  0  0  0  0  0  0  0  0  0  0
    2.8800    1.5450    0.1570 H   0  0  0  0  0  0  0  0  0  0  0  0
    2.6170   -1.0040   -1.9570 H   0  0  0  0  0  0  0  0  0  0  0  0
   -0.6250    2.3230   -4.7160 O   0  0  0  0  0  0  0  0  0  0  0  0
   -1.1990    2.0610   -3.4720 C   0  0  0  0  0  0  0  0  0  0  0  0
   -1.8000    3.0670   -2.7390 C   0  0  0  0  0  0  0  0  0  0  0  0
   -2.3610    2.7910   -1.5130 C   0  0  0  0  0  0  0  0  0  0  0  0
   -2.3460    1.5340   -0.9850 C   0  0  0  0  0  0  0  0  0  0  0  0
   -2.9770    1.3210    0.3470 C   0  0  0  0  0  0  0  0  0  0  0  0
   -1.9770    1.5370    1.4090 C   0  0  2  0  0  0  0  0  0  0  0  0
   -0.8300    0.7080    1.4040 N   0  0  0  0  0  0  0  0  0  0  0  0
   -2.6940    1.5110    2.7350 C   0  0  0  0  0  0  0  0  0  0  0  0
   -3.7330    2.2050    2.8800 O   0  0  0  0  0  0  0  0  0  0  0  0
   -1.7560    0.5110   -1.6890 C   0  0  0  0  0  0  0  0  0  0  0  0
   -1.1970    0.7910   -2.9110 C   0  0  0  0  0  0  0  0  0  0  0  0
   -2.2600    0.7610    3.7980 O   0  0  0  0  0  0  0  0  0  0  0  0
    0.2450    2.8450   -4.7150 H   0  0  0  0  0  0  0  0  0  0  0  0
   -1.8170    4.0850   -3.1560 H   0  0  0  0  0  0  0  0  0  0  0  0
   -2.8230    3.6470   -0.9840 H   0  0  0  0  0  0  0  0  0  0  0  0
   -3.5140    0.3530    0.4000 H   0  0  0  0  0  0  0  0  0  0  0  0
   -3.7630    2.0970    0.4440 H   0  0  0  0  0  0  0  0  0  0  0  0
   -1.6160    2.6040    1.3230 H   0  0  0  0  0  0  0  0  0  0  0  0
   -0.9980   -0.3400    1.4690 H   0  0  0  0  0  0  0  0  0  0  0  0
   -1.7410   -0.5010   -1.2680 H   0  0  0  0  0  0  0  0  0  0  0  0
   -0.7190   -0.0060   -3.4960 H   0  0  0  0  0  0  0  0  0  0  0  0
  1  9  1  0  0  0  0
  2  1  1  0  0  0  0
  2 11  1  0  0  0  0
  3 12  1  0  0  0  0
  3  2  1  0  0  0  0
  4  2  1  0  0  0  0
  4 15  1  1  0  0  0
  5  4  1  0  0  0  0
  6  4  1  0  0  0  0
  6  7  2  0  0  0  0
  8  1  1  0  0  0  0
 10  1  1  0  0  0  0
 13  3  1  0  0  0  0
 14  3  1  0  0  0  0
 16  5  1  0  0  0  0
 17  5  1  0  0  0  0
 18  6  1  0  0  0  0
 19 18  1  0  0  0  0
 19 25  1  1  0  0  0
 20 26  1  0  0  0  0
 20 19  1  0  0  0  0
 21 20  1  0  0  0  0
 22 19  1  0  0  0  0
 22 36  1  0  0  0  0
 23 22  2  0  0  0  0
 24 18  1  0  0  0  0
 27 20  1  0  0  0  0
 28 21  1  0  0  0  0
 29 42  1  0  0  0  0
 29 30  1  0  0  0  0
 30 40  2  0  0  0  0
 30 31  1  0  0  0  0
 31 32  2  0  0  0  0
 32 33  1  0  0  0  0
 32 44  1  0  0  0  0
 33 34  1  0  0  0  0
 34 45  1  0  0  0  0
 34 46  1  0  0  0  0
 34 35  1  0  0  0  0
 35 47  1  6  0  0  0
 35 37  1  0  0  0  0
 36 35  1  0  0  0  0
 36 48  1  0  0  0  0
 37 38  2  0  0  0  0
 37 41  1  0  0  0  0
 39 49  1  0  0  0  0
 39 33  2  0  0  0  0
 40 39  1  0  0  0  0
 43 31  1  0  0  0  0
 50 40  1  0  0  0  0
M  END
$$$$
