VDA.pdb
 OpenBabel07022419243D

 41 40  0  0  1  0  0  0  0  0999 V2000
    1.2700   -1.1740   -3.5290 C   0  0  0  0  0  0  0  0  0  0  0  0
    0.2630   -0.1810   -3.0110 C   0  0  0  0  0  0  0  0  0  0  0  0
   -0.8630   -0.1040   -4.0150 C   0  0  0  0  0  0  0  0  0  0  0  0
   -0.2360   -0.5440   -1.6330 C   0  0  2  0  0  0  0  0  0  0  0  0
   -1.2020    0.4210   -1.1530 N   0  0  0  0  0  0  0  0  0  0  0  0
    0.8470   -0.7550   -0.6720 C   0  0  0  0  0  0  0  0  0  0  0  0
    1.8080   -1.5450   -0.8970 O   0  0  0  0  0  0  0  0  0  0  0  0
    1.2880   -1.0740   -4.6340 H   0  0  0  0  0  0  0  0  0  0  0  0
    2.3040   -0.9530   -3.1930 H   0  0  0  0  0  0  0  0  0  0  0  0
    0.9660   -2.2160   -3.3070 H   0  0  0  0  0  0  0  0  0  0  0  0
    0.7630    0.8170   -2.9760 H   0  0  0  0  0  0  0  0  0  0  0  0
   -1.0760    0.9620   -4.2680 H   0  0  0  0  0  0  0  0  0  0  0  0
   -0.6100   -0.6440   -4.9560 H   0  0  0  0  0  0  0  0  0  0  0  0
   -1.8130   -0.5310   -3.6180 H   0  0  0  0  0  0  0  0  0  0  0  0
   -0.8160   -1.5030   -1.7640 H   0  0  0  0  0  0  0  0  0  0  0  0
   -1.5880    0.0130   -0.2500 H   0  0  0  0  0  0  0  0  0  0  0  0
   -2.0120    0.4020   -1.8140 H   0  0  0  0  0  0  0  0  0  0  0  0
    0.8670   -0.0710    0.5750 N   0  0  0  0  0  0  0  0  0  0  0  0
    1.9680   -0.3080    1.5110 C   0  0  1  0  0  0  0  0  0  0  0  0
    2.6160    1.0290    1.7960 C   0  0  0  0  0  0  0  0  0  0  0  0
    3.7410    0.9260    2.7270 C   0  0  0  0  0  0  0  0  0  0  0  0
    4.8560    0.5370    2.3030 O   0  0  0  0  0  0  0  0  0  0  0  0
    1.3860   -0.8290    2.7850 C   0  0  0  0  0  0  0  0  0  0  0  0
    2.1430   -1.1040    3.7520 O   0  0  0  0  0  0  0  0  0  0  0  0
    3.5830    1.2550    4.0670 O   0  0  0  0  0  0  0  0  0  0  0  0
    0.1040    0.5950    0.8240 H   0  0  0  0  0  0  0  0  0  0  0  0
    2.6900   -1.0220    1.0750 H   0  0  0  0  0  0  0  0  0  0  0  0
    1.8340    1.6860    2.2610 H   0  0  0  0  0  0  0  0  0  0  0  0
    2.8830    1.5480    0.8400 H   0  0  0  0  0  0  0  0  0  0  0  0
    4.4090    1.1730    4.6470 H   0  0  0  0  0  0  0  0  0  0  0  0
   -1.6570   -0.5810    4.6950 C   0  0  0  0  0  0  0  0  0  0  0  0
   -0.6480   -1.5150    4.1200 C   0  0  2  0  0  0  0  0  0  0  0  0
    0.0080   -1.0200    2.9350 N   0  0  0  0  0  0  0  0  0  0  0  0
   -1.2030   -2.8410    3.8040 C   0  0  0  0  0  0  0  0  0  0  0  0
   -1.8200   -3.4610    4.6990 O   0  0  0  0  0  0  0  0  0  0  0  0
   -1.0770   -3.4350    2.5650 O   0  0  0  0  0  0  0  0  0  0  0  0
   -2.4890   -1.2120    5.1210 H   0  0  0  0  0  0  0  0  0  0  0  0
   -1.2800    0.0230    5.5260 H   0  0  0  0  0  0  0  0  0  0  0  0
   -2.1590    0.0330    3.8930 H   0  0  0  0  0  0  0  0  0  0  0  0
    0.1660   -1.6930    4.8830 H   0  0  0  0  0  0  0  0  0  0  0  0
   -0.6200   -0.7920    2.1320 H   0  0  0  0  0  0  0  0  0  0  0  0
  1 10  1  0  0  0  0
  1  9  1  0  0  0  0
  1  2  1  0  0  0  0
  2 11  1  0  0  0  0
  2  4  1  0  0  0  0
  3 14  1  0  0  0  0
  3  2  1  0  0  0  0
  4 15  1  6  0  0  0
  4  5  1  0  0  0  0
  4  6  1  0  0  0  0
  5 16  1  0  0  0  0
  6 18  1  0  0  0  0
  7  6  2  0  0  0  0
  8  1  1  0  0  0  0
 12  3  1  0  0  0  0
 13  3  1  0  0  0  0
 17  5  1  0  0  0  0
 18 26  1  0  0  0  0
 18 19  1  0  0  0  0
 19 27  1  6  0  0  0
 19 20  1  0  0  0  0
 19 23  1  0  0  0  0
 20 28  1  0  0  0  0
 20 21  1  0  0  0  0
 21 25  1  0  0  0  0
 22 21  2  0  0  0  0
 23 33  1  0  0  0  0
 23 24  2  0  0  0  0
 25 30  1  0  0  0  0
 29 20  1  0  0  0  0
 31 37  1  0  0  0  0
 31 38  1  0  0  0  0
 32 31  1  0  0  0  0
 32 40  1  1  0  0  0
 33 32  1  0  0  0  0
 34 32  1  0  0  0  0
 34 35  1  0  0  0  0
 36 34  2  0  0  0  0
 39 31  1  0  0  0  0
 41 33  1  0  0  0  0
M  END
$$$$
