VDC.pdb
 OpenBabel07022419243D

 42 41  0  0  1  0  0  0  0  0999 V2000
   -1.2750   -4.6040    0.8460 C   0  0  0  0  0  0  0  0  0  0  0  0
   -0.5110   -3.2950    1.1200 C   0  0  0  0  0  0  0  0  0  0  0  0
   -1.5170   -2.2190    1.3180 C   0  0  0  0  0  0  0  0  0  0  0  0
    0.4560   -3.0680   -0.0250 C   0  0  2  0  0  0  0  0  0  0  0  0
    1.3370   -4.2670   -0.0120 N   0  0  0  0  0  0  0  0  0  0  0  0
    1.3220   -1.9040    0.1100 C   0  0  0  0  0  0  0  0  0  0  0  0
    2.5620   -2.0710    0.4060 O   0  0  0  0  0  0  0  0  0  0  0  0
   -1.3040   -4.7520   -0.2590 H   0  0  0  0  0  0  0  0  0  0  0  0
   -2.3020   -4.4550    1.2170 H   0  0  0  0  0  0  0  0  0  0  0  0
   -0.7880   -5.4370    1.3630 H   0  0  0  0  0  0  0  0  0  0  0  0
    0.0310   -3.4620    2.0710 H   0  0  0  0  0  0  0  0  0  0  0  0
   -2.4600   -2.7170    1.7060 H   0  0  0  0  0  0  0  0  0  0  0  0
   -1.1570   -1.5330    2.1060 H   0  0  0  0  0  0  0  0  0  0  0  0
   -1.8130   -1.7190    0.3760 H   0  0  0  0  0  0  0  0  0  0  0  0
   -0.1140   -3.1410   -0.9630 H   0  0  0  0  0  0  0  0  0  0  0  0
    1.3810   -4.7200   -0.9270 H   0  0  0  0  0  0  0  0  0  0  0  0
    2.2460   -4.0260    0.3970 H   0  0  0  0  0  0  0  0  0  0  0  0
    0.9660   -0.5360   -0.0530 N   0  0  0  0  0  0  0  0  0  0  0  0
    1.8900    0.5400    0.0950 C   0  0  1  0  0  0  0  0  0  0  0  0
    2.2470    1.2150   -1.2120 C   0  0  0  0  0  0  0  0  0  0  0  0
    2.8630    0.2220   -2.1290 C   0  0  0  0  0  0  0  0  0  0  0  0
    2.0830   -0.6720   -2.5860 O   0  0  0  0  0  0  0  0  0  0  0  0
    1.4880    1.5580    1.0800 C   0  0  0  0  0  0  0  0  0  0  0  0
    2.2080    2.5560    1.3660 O   0  0  0  0  0  0  0  0  0  0  0  0
    4.1750    0.1980   -2.5090 O   0  0  0  0  0  0  0  0  0  0  0  0
   -0.0210   -0.3400   -0.2950 H   0  0  0  0  0  0  0  0  0  0  0  0
    2.8750    0.1140    0.4510 H   0  0  0  0  0  0  0  0  0  0  0  0
    3.0410    1.9520   -0.9660 H   0  0  0  0  0  0  0  0  0  0  0  0
    1.4190    1.7750   -1.6590 H   0  0  0  0  0  0  0  0  0  0  0  0
    4.6710   -0.7090   -2.5020 H   0  0  0  0  0  0  0  0  0  0  0  0
    0.2440    1.4200    1.7400 N   0  0  0  0  0  0  0  0  0  0  0  0
   -0.2310    2.3730    2.7290 C   0  0  1  0  0  0  0  0  0  0  0  0
   -1.5670    2.9710    2.3160 C   0  0  0  0  0  0  0  0  0  0  0  0
   -1.4050    3.8400    0.7170 S   0  0  0  0  0  0  0  0  0  0  0  0
   -0.4660    1.6230    3.9910 C   0  0  0  0  0  0  0  0  0  0  0  0
   -0.8860    2.2390    4.9990 O   0  0  0  0  0  0  0  0  0  0  0  0
   -0.2340    0.2600    4.0850 O   0  0  0  0  0  0  0  0  0  0  0  0
   -0.3510    0.6010    1.4970 H   0  0  0  0  0  0  0  0  0  0  0  0
    0.5010    3.1790    2.8690 H   0  0  0  0  0  0  0  0  0  0  0  0
   -1.8480    3.7450    3.0610 H   0  0  0  0  0  0  0  0  0  0  0  0
   -2.3630    2.2170    2.2950 H   0  0  0  0  0  0  0  0  0  0  0  0
   -0.8930    2.9490   -0.2520 H   0  0  0  0  0  0  0  0  0  0  0  0
  1  2  1  0  0  0  0
  1  9  1  0  0  0  0
  1 10  1  0  0  0  0
  2  3  1  0  0  0  0
  2 11  1  0  0  0  0
  3 12  1  0  0  0  0
  3 13  1  0  0  0  0
  4 15  1  6  0  0  0
  4  5  1  0  0  0  0
  4  6  1  0  0  0  0
  4  2  1  0  0  0  0
  5 17  1  0  0  0  0
  6  7  2  0  0  0  0
  8  1  1  0  0  0  0
 14  3  1  0  0  0  0
 16  5  1  0  0  0  0
 18 19  1  0  0  0  0
 18  6  1  0  0  0  0
 19 27  1  1  0  0  0
 19 23  1  0  0  0  0
 20 28  1  0  0  0  0
 20 19  1  0  0  0  0
 21 20  1  0  0  0  0
 22 21  2  0  0  0  0
 23 24  2  0  0  0  0
 23 31  1  0  0  0  0
 25 30  1  0  0  0  0
 25 21  1  0  0  0  0
 26 18  1  0  0  0  0
 29 20  1  0  0  0  0
 31 32  1  0  0  0  0
 32 39  1  1  0  0  0
 32 35  1  0  0  0  0
 33 32  1  0  0  0  0
 33 40  1  0  0  0  0
 34 33  1  0  0  0  0
 35 37  2  0  0  0  0
 35 36  1  0  0  0  0
 38 31  1  0  0  0  0
 41 33  1  0  0  0  0
 42 34  1  0  0  0  0
M  END
$$$$
