VDF.pdb
 OpenBabel07022419243D

 51 51  0  0  1  0  0  0  0  0999 V2000
    0.5640   -2.0380    5.2510 C   0  0  0  0  0  0  0  0  0  0  0  0
    0.7700   -1.2270    4.0000 C   0  0  0  0  0  0  0  0  0  0  0  0
   -0.0380    0.0720    4.0730 C   0  0  0  0  0  0  0  0  0  0  0  0
    2.2280   -0.7930    3.9290 C   0  0  2  0  0  0  0  0  0  0  0  0
    2.4600    0.0030    5.1270 N   0  0  0  0  0  0  0  0  0  0  0  0
    2.4680    0.0400    2.7300 C   0  0  0  0  0  0  0  0  0  0  0  0
    2.7950    1.2690    2.8170 O   0  0  0  0  0  0  0  0  0  0  0  0
    1.2980   -1.8160    6.0450 H   0  0  0  0  0  0  0  0  0  0  0  0
   -0.4590   -1.8230    5.6700 H   0  0  0  0  0  0  0  0  0  0  0  0
    0.5960   -3.1280    5.0670 H   0  0  0  0  0  0  0  0  0  0  0  0
    0.5020   -1.8290    3.1190 H   0  0  0  0  0  0  0  0  0  0  0  0
    0.0390    0.4830    5.1040 H   0  0  0  0  0  0  0  0  0  0  0  0
   -1.0880   -0.1530    3.8090 H   0  0  0  0  0  0  0  0  0  0  0  0
    0.3350    0.8140    3.3390 H   0  0  0  0  0  0  0  0  0  0  0  0
    2.8710   -1.6930    3.9570 H   0  0  0  0  0  0  0  0  0  0  0  0
    3.4550   -0.1830    5.4030 H   0  0  0  0  0  0  0  0  0  0  0  0
    2.2800    0.9950    4.8750 H   0  0  0  0  0  0  0  0  0  0  0  0
    2.3430   -0.4950    1.4290 N   0  0  0  0  0  0  0  0  0  0  0  0
    2.5770    0.3120    0.2210 C   0  0  1  0  0  0  0  0  0  0  0  0
    3.5720   -0.3380   -0.6670 C   0  0  0  0  0  0  0  0  0  0  0  0
    3.8530    0.4910   -1.8540 C   0  0  0  0  0  0  0  0  0  0  0  0
    3.4210    1.6540   -2.0220 O   0  0  0  0  0  0  0  0  0  0  0  0
    1.2400    0.2990   -0.4660 C   0  0  0  0  0  0  0  0  0  0  0  0
    1.0980    0.9220   -1.5290 O   0  0  0  0  0  0  0  0  0  0  0  0
    4.6520    0.0090   -2.9040 O   0  0  0  0  0  0  0  0  0  0  0  0
    2.0840   -1.4800    1.2870 H   0  0  0  0  0  0  0  0  0  0  0  0
    2.8340    1.3340    0.4480 H   0  0  0  0  0  0  0  0  0  0  0  0
    4.5560   -0.4400   -0.1300 H   0  0  0  0  0  0  0  0  0  0  0  0
    3.2350   -1.3260   -1.0530 H   0  0  0  0  0  0  0  0  0  0  0  0
    5.2380    0.6190   -3.4500 H   0  0  0  0  0  0  0  0  0  0  0  0
    0.1190   -0.4000    0.0480 N   0  0  0  0  0  0  0  0  0  0  0  0
   -1.1400   -0.3500   -0.7010 C   0  0  1  0  0  0  0  0  0  0  0  0
   -1.4770   -1.7420   -1.1680 C   0  0  0  0  0  0  0  0  0  0  0  0
   -2.7340   -1.7610   -1.9250 C   0  0  0  0  0  0  0  0  0  0  0  0
   -3.9250   -2.0120   -1.2790 C   0  0  0  0  0  0  0  0  0  0  0  0
   -5.1240   -2.0260   -1.9960 C   0  0  0  0  0  0  0  0  0  0  0  0
   -5.1250   -1.7880   -3.3570 C   0  0  0  0  0  0  0  0  0  0  0  0
   -3.9170   -1.5410   -3.9740 C   0  0  0  0  0  0  0  0  0  0  0  0
   -2.7160   -1.5230   -3.2780 C   0  0  0  0  0  0  0  0  0  0  0  0
   -2.1870    0.2800    0.1260 C   0  0  0  0  0  0  0  0  0  0  0  0
   -1.9280    0.6500    1.3200 O   0  0  0  0  0  0  0  0  0  0  0  0
   -3.4730    0.5060   -0.3160 O   0  0  0  0  0  0  0  0  0  0  0  0
    0.1660   -0.9310    0.9170 H   0  0  0  0  0  0  0  0  0  0  0  0
   -1.0210    0.2750   -1.6110 H   0  0  0  0  0  0  0  0  0  0  0  0
   -1.5610   -2.3700   -0.2440 H   0  0  0  0  0  0  0  0  0  0  0  0
   -0.6100   -2.1010   -1.7620 H   0  0  0  0  0  0  0  0  0  0  0  0
   -3.9020   -2.1970   -0.2190 H   0  0  0  0  0  0  0  0  0  0  0  0
   -6.0380   -2.2270   -1.4520 H   0  0  0  0  0  0  0  0  0  0  0  0
   -6.0730   -1.8070   -3.8790 H   0  0  0  0  0  0  0  0  0  0  0  0
   -3.9010   -1.3520   -5.0380 H   0  0  0  0  0  0  0  0  0  0  0  0
   -1.8030   -1.3200   -3.8310 H   0  0  0  0  0  0  0  0  0  0  0  0
  1  9  1  0  0  0  0
  1  8  1  0  0  0  0
  2  3  1  0  0  0  0
  2  1  1  0  0  0  0
  3 12  1  0  0  0  0
  4 15  1  6  0  0  0
  4  2  1  0  0  0  0
  4  5  1  0  0  0  0
  5 16  1  0  0  0  0
  6  7  2  0  0  0  0
  6  4  1  0  0  0  0
 10  1  1  0  0  0  0
 11  2  1  0  0  0  0
 13  3  1  0  0  0  0
 14  3  1  0  0  0  0
 17  5  1  0  0  0  0
 18  6  1  0  0  0  0
 19 27  1  1  0  0  0
 19 18  1  0  0  0  0
 20 28  1  0  0  0  0
 20 19  1  0  0  0  0
 21 20  1  0  0  0  0
 22 21  2  0  0  0  0
 23 31  1  0  0  0  0
 23 19  1  0  0  0  0
 24 23  2  0  0  0  0
 25 21  1  0  0  0  0
 26 18  1  0  0  0  0
 29 20  1  0  0  0  0
 30 25  1  0  0  0  0
 31 43  1  0  0  0  0
 32 44  1  6  0  0  0
 32 31  1  0  0  0  0
 32 40  1  0  0  0  0
 33 32  1  0  0  0  0
 33 45  1  0  0  0  0
 34 35  1  0  0  0  0
 34 33  1  0  0  0  0
 35 47  1  0  0  0  0
 36 48  1  0  0  0  0
 36 35  2  0  0  0  0
 37 36  1  0  0  0  0
 38 37  2  0  0  0  0
 38 39  1  0  0  0  0
 39 34  2  0  0  0  0
 40 41  1  0  0  0  0
 42 40  2  0  0  0  0
 46 33  1  0  0  0  0
 49 37  1  0  0  0  0
 50 38  1  0  0  0  0
 51 39  1  0  0  0  0
M  END
$$$$
