VDG.pdb
 OpenBabel07022419243D

 38 37  0  0  1  0  0  0  0  0999 V2000
    0.2460   -2.5120    3.0990 C   0  0  0  0  0  0  0  0  0  0  0  0
    0.6240   -3.1590    1.7840 C   0  0  0  0  0  0  0  0  0  0  0  0
   -0.5350   -3.3200    0.8470 C   0  0  0  0  0  0  0  0  0  0  0  0
    1.8800   -2.6450    1.1880 C   0  0  2  0  0  0  0  0  0  0  0  0
    2.9610   -2.8960    2.1250 N   0  0  0  0  0  0  0  0  0  0  0  0
    1.9300   -1.2790    0.7290 C   0  0  0  0  0  0  0  0  0  0  0  0
    2.8920   -0.5410    1.1210 O   0  0  0  0  0  0  0  0  0  0  0  0
    1.0270   -2.6800    3.8430 H   0  0  0  0  0  0  0  0  0  0  0  0
   -0.7330   -2.9960    3.3910 H   0  0  0  0  0  0  0  0  0  0  0  0
    0.0650   -1.4300    3.0120 H   0  0  0  0  0  0  0  0  0  0  0  0
    0.8730   -4.2280    2.0940 H   0  0  0  0  0  0  0  0  0  0  0  0
   -1.1380   -4.2510    1.0780 H   0  0  0  0  0  0  0  0  0  0  0  0
   -1.2770   -2.4980    0.8960 H   0  0  0  0  0  0  0  0  0  0  0  0
   -0.1610   -3.5160   -0.1880 H   0  0  0  0  0  0  0  0  0  0  0  0
    2.1080   -3.3130    0.3030 H   0  0  0  0  0  0  0  0  0  0  0  0
    2.7970   -2.2290    2.9280 H   0  0  0  0  0  0  0  0  0  0  0  0
    3.8330   -2.5470    1.6620 H   0  0  0  0  0  0  0  0  0  0  0  0
    1.0120   -0.6240   -0.1370 N   0  0  0  0  0  0  0  0  0  0  0  0
    1.1710    0.7690   -0.5380 C   0  0  1  0  0  0  0  0  0  0  0  0
    1.1100    0.9130   -2.0330 C   0  0  0  0  0  0  0  0  0  0  0  0
    1.2890    2.2970   -2.5150 C   0  0  0  0  0  0  0  0  0  0  0  0
    1.0710    2.5830   -3.7450 O   0  0  0  0  0  0  0  0  0  0  0  0
    0.0490    1.5420    0.1050 C   0  0  0  0  0  0  0  0  0  0  0  0
   -0.1310    2.7690   -0.0300 O   0  0  0  0  0  0  0  0  0  0  0  0
    1.6880    3.3640   -1.7380 O   0  0  0  0  0  0  0  0  0  0  0  0
    0.2240   -1.1760   -0.4750 H   0  0  0  0  0  0  0  0  0  0  0  0
    2.0870    1.2130   -0.1680 H   0  0  0  0  0  0  0  0  0  0  0  0
    1.9060    0.3060   -2.5400 H   0  0  0  0  0  0  0  0  0  0  0  0
    0.1220    0.5480   -2.3850 H   0  0  0  0  0  0  0  0  0  0  0  0
    1.5120    4.3200   -1.9860 H   0  0  0  0  0  0  0  0  0  0  0  0
   -0.9110    0.8690    0.9440 N   0  0  0  0  0  0  0  0  0  0  0  0
   -1.9910    1.6030    1.5670 C   0  0  0  0  0  0  0  0  0  0  0  0
   -2.8240    0.6820    2.3740 C   0  0  0  0  0  0  0  0  0  0  0  0
   -2.5270   -0.5300    2.4220 O   0  0  0  0  0  0  0  0  0  0  0  0
   -3.9290    1.1190    3.0840 O   0  0  0  0  0  0  0  0  0  0  0  0
   -0.8120   -0.1650    1.0970 H   0  0  0  0  0  0  0  0  0  0  0  0
   -1.6180    2.4320    2.2290 H   0  0  0  0  0  0  0  0  0  0  0  0
   -2.6760    2.0500    0.8080 H   0  0  0  0  0  0  0  0  0  0  0  0
  1  9  1  0  0  0  0
  1  8  1  0  0  0  0
  2 11  1  0  0  0  0
  2  1  1  0  0  0  0
  3 13  1  0  0  0  0
  3 12  1  0  0  0  0
  3  2  1  0  0  0  0
  4 15  1  6  0  0  0
  4  2  1  0  0  0  0
  4  5  1  0  0  0  0
  5 16  1  0  0  0  0
  6  7  2  0  0  0  0
  6  4  1  0  0  0  0
 10  1  1  0  0  0  0
 14  3  1  0  0  0  0
 17  5  1  0  0  0  0
 18  6  1  0  0  0  0
 19 27  1  1  0  0  0
 19 18  1  0  0  0  0
 19 23  1  0  0  0  0
 20 19  1  0  0  0  0
 21 20  1  0  0  0  0
 21 25  1  0  0  0  0
 22 21  2  0  0  0  0
 23 31  1  0  0  0  0
 24 23  2  0  0  0  0
 26 18  1  0  0  0  0
 28 20  1  0  0  0  0
 29 20  1  0  0  0  0
 30 25  1  0  0  0  0
 31 36  1  0  0  0  0
 31 32  1  0  0  0  0
 32 37  1  0  0  0  0
 32 33  1  0  0  0  0
 33 34  2  0  0  0  0
 33 35  1  0  0  0  0
 38 32  1  0  0  0  0
M  END
$$$$
