VDK.pdb
 OpenBabel07022419243D

 52 51  0  0  1  0  0  0  0  0999 V2000
    4.8120   -3.2440    1.7500 C   0  0  0  0  0  0  0  0  0  0  0  0
    3.5500   -2.3900    2.0060 C   0  0  0  0  0  0  0  0  0  0  0  0
    2.5820   -2.7880    0.9470 C   0  0  0  0  0  0  0  0  0  0  0  0
    3.9500   -0.9300    1.9900 C   0  0  2  0  0  0  0  0  0  0  0  0
    4.9560   -0.6900    3.0340 N   0  0  0  0  0  0  0  0  0  0  0  0
    2.8490    0.0110    2.2430 C   0  0  0  0  0  0  0  0  0  0  0  0
    2.8100    0.6980    3.3280 O   0  0  0  0  0  0  0  0  0  0  0  0
    4.5160   -4.2810    1.4920 H   0  0  0  0  0  0  0  0  0  0  0  0
    5.3010   -2.8120    0.8580 H   0  0  0  0  0  0  0  0  0  0  0  0
    5.4800   -3.2070    2.6380 H   0  0  0  0  0  0  0  0  0  0  0  0
    3.1730   -2.6980    2.9860 H   0  0  0  0  0  0  0  0  0  0  0  0
    2.7430   -3.8980    0.7550 H   0  0  0  0  0  0  0  0  0  0  0  0
    2.7310   -2.3240   -0.0340 H   0  0  0  0  0  0  0  0  0  0  0  0
    1.5210   -2.7610    1.2940 H   0  0  0  0  0  0  0  0  0  0  0  0
    4.4460   -0.7280    1.0270 H   0  0  0  0  0  0  0  0  0  0  0  0
    4.9760    0.3110    3.3230 H   0  0  0  0  0  0  0  0  0  0  0  0
    4.8020   -1.3290    3.8470 H   0  0  0  0  0  0  0  0  0  0  0  0
    1.7670    0.2500    1.3530 N   0  0  0  0  0  0  0  0  0  0  0  0
    0.7350    1.2430    1.7520 C   0  0  1  0  0  0  0  0  0  0  0  0
    1.0220    2.4170    0.8140 C   0  0  0  0  0  0  0  0  0  0  0  0
    0.1810    3.5750    0.9780 C   0  0  0  0  0  0  0  0  0  0  0  0
   -0.6820    3.6560    1.8720 O   0  0  0  0  0  0  0  0  0  0  0  0
   -0.6120    0.6810    1.5720 C   0  0  0  0  0  0  0  0  0  0  0  0
   -1.6380    1.3020    1.9330 O   0  0  0  0  0  0  0  0  0  0  0  0
    0.3160    4.6570    0.1210 O   0  0  0  0  0  0  0  0  0  0  0  0
    1.7010   -0.2520    0.4480 H   0  0  0  0  0  0  0  0  0  0  0  0
    0.8820    1.6120    2.7590 H   0  0  0  0  0  0  0  0  0  0  0  0
    2.0970    2.6870    1.0440 H   0  0  0  0  0  0  0  0  0  0  0  0
    1.0800    2.0370   -0.2410 H   0  0  0  0  0  0  0  0  0  0  0  0
   -0.4430    5.2850   -0.1100 H   0  0  0  0  0  0  0  0  0  0  0  0
   -0.8470   -0.6000    0.9780 N   0  0  0  0  0  0  0  0  0  0  0  0
   -2.2290   -1.0920    0.8360 C   0  0  1  0  0  0  0  0  0  0  0  0
   -2.5410   -1.2590   -0.6290 C   0  0  0  0  0  0  0  0  0  0  0  0
   -3.9230   -1.7510   -0.8690 C   0  0  0  0  0  0  0  0  0  0  0  0
   -4.2440   -1.8960   -2.3460 C   0  0  0  0  0  0  0  0  0  0  0  0
   -4.1210   -0.5800   -3.0770 C   0  0  0  0  0  0  0  0  0  0  0  0
   -5.0210    0.4200   -2.5460 N   0  0  0  0  0  0  0  0  0  0  0  0
   -2.3760   -2.3300    1.6330 C   0  0  0  0  0  0  0  0  0  0  0  0
   -1.3900   -2.8280    2.2570 O   0  0  0  0  0  0  0  0  0  0  0  0
   -3.5740   -3.0120    1.7480 O   0  0  0  0  0  0  0  0  0  0  0  0
   -0.0880   -1.1840    0.6430 H   0  0  0  0  0  0  0  0  0  0  0  0
   -2.9520   -0.3400    1.2530 H   0  0  0  0  0  0  0  0  0  0  0  0
   -2.3180   -0.2940   -1.1310 H   0  0  0  0  0  0  0  0  0  0  0  0
   -1.7610   -1.9830   -1.0140 H   0  0  0  0  0  0  0  0  0  0  0  0
   -4.6580   -1.1780   -0.3080 H   0  0  0  0  0  0  0  0  0  0  0  0
   -3.9700   -2.8140   -0.4830 H   0  0  0  0  0  0  0  0  0  0  0  0
   -5.2940   -2.2240   -2.4160 H   0  0  0  0  0  0  0  0  0  0  0  0
   -3.5620   -2.6240   -2.7820 H   0  0  0  0  0  0  0  0  0  0  0  0
   -3.0760   -0.2720   -3.1040 H   0  0  0  0  0  0  0  0  0  0  0  0
   -4.4590   -0.7760   -4.1250 H   0  0  0  0  0  0  0  0  0  0  0  0
   -4.5360    1.3250   -2.5190 H   0  0  0  0  0  0  0  0  0  0  0  0
   -5.4130    0.1880   -1.6190 H   0  0  0  0  0  0  0  0  0  0  0  0
  1  2  1  0  0  0  0
  1 10  1  0  0  0  0
  2 11  1  0  0  0  0
  3 14  1  0  0  0  0
  3  2  1  0  0  0  0
  4 15  1  6  0  0  0
  4  2  1  0  0  0  0
  4  6  1  0  0  0  0
  4  5  1  0  0  0  0
  5 16  1  0  0  0  0
  5 17  1  0  0  0  0
  6  7  2  0  0  0  0
  8  1  1  0  0  0  0
  9  1  1  0  0  0  0
 12  3  1  0  0  0  0
 13  3  1  0  0  0  0
 18 19  1  0  0  0  0
 18  6  1  0  0  0  0
 19 27  1  1  0  0  0
 20 21  1  0  0  0  0
 20 28  1  0  0  0  0
 20 19  1  0  0  0  0
 21 22  2  0  0  0  0
 23 19  1  0  0  0  0
 23 24  2  0  0  0  0
 25 21  1  0  0  0  0
 26 18  1  0  0  0  0
 29 20  1  0  0  0  0
 30 25  1  0  0  0  0
 31 23  1  0  0  0  0
 32 31  1  0  0  0  0
 32 42  1  1  0  0  0
 32 38  1  0  0  0  0
 33 32  1  0  0  0  0
 34 33  1  0  0  0  0
 34 46  1  0  0  0  0
 34 45  1  0  0  0  0
 35 34  1  0  0  0  0
 36 37  1  0  0  0  0
 36 35  1  0  0  0  0
 37 51  1  0  0  0  0
 37 52  1  0  0  0  0
 38 40  2  0  0  0  0
 38 39  1  0  0  0  0
 41 31  1  0  0  0  0
 43 33  1  0  0  0  0
 44 33  1  0  0  0  0
 47 35  1  0  0  0  0
 48 35  1  0  0  0  0
 49 36  1  0  0  0  0
 50 36  1  0  0  0  0
M  END
$$$$
