VDM.pdb
 OpenBabel07022419243D

 48 47  0  0  1  0  0  0  0  0999 V2000
    4.9080    0.8990    4.2820 C   0  0  0  0  0  0  0  0  0  0  0  0
    3.5840    0.2240    4.0160 C   0  0  0  0  0  0  0  0  0  0  0  0
    3.7540   -1.2510    4.2630 C   0  0  0  0  0  0  0  0  0  0  0  0
    3.0940    0.5200    2.5990 C   0  0  2  0  0  0  0  0  0  0  0  0
    2.9180    1.9430    2.4060 N   0  0  0  0  0  0  0  0  0  0  0  0
    1.8770   -0.2640    2.2860 C   0  0  0  0  0  0  0  0  0  0  0  0
    1.8940   -1.5420    2.3380 O   0  0  0  0  0  0  0  0  0  0  0  0
    5.3160    0.4450    5.2170 H   0  0  0  0  0  0  0  0  0  0  0  0
    4.8270    1.9990    4.4010 H   0  0  0  0  0  0  0  0  0  0  0  0
    5.6310    0.6880    3.4440 H   0  0  0  0  0  0  0  0  0  0  0  0
    2.8690    0.6610    4.7640 H   0  0  0  0  0  0  0  0  0  0  0  0
    2.8810   -1.7060    4.7850 H   0  0  0  0  0  0  0  0  0  0  0  0
    4.0120   -1.8100    3.3280 H   0  0  0  0  0  0  0  0  0  0  0  0
    4.6170   -1.4330    4.9640 H   0  0  0  0  0  0  0  0  0  0  0  0
    3.9520    0.2210    1.9310 H   0  0  0  0  0  0  0  0  0  0  0  0
    2.7320    2.0990    1.3750 H   0  0  0  0  0  0  0  0  0  0  0  0
    3.8780    2.3730    2.5620 H   0  0  0  0  0  0  0  0  0  0  0  0
    0.6260    0.2920    1.9140 N   0  0  0  0  0  0  0  0  0  0  0  0
   -0.5530   -0.5310    1.6160 C   0  0  1  0  0  0  0  0  0  0  0  0
   -1.7060   -0.1370    2.5120 C   0  0  0  0  0  0  0  0  0  0  0  0
   -1.4180   -0.2990    3.9350 C   0  0  0  0  0  0  0  0  0  0  0  0
   -0.3270   -0.7720    4.3160 O   0  0  0  0  0  0  0  0  0  0  0  0
   -0.8930   -0.2490    0.1830 C   0  0  0  0  0  0  0  0  0  0  0  0
   -0.2290    0.5880   -0.4800 O   0  0  0  0  0  0  0  0  0  0  0  0
   -2.3350    0.0620    4.9320 O   0  0  0  0  0  0  0  0  0  0  0  0
    0.5570    1.3350    1.8560 H   0  0  0  0  0  0  0  0  0  0  0  0
   -0.3510   -1.5970    1.7730 H   0  0  0  0  0  0  0  0  0  0  0  0
   -2.1170    0.8700    2.2910 H   0  0  0  0  0  0  0  0  0  0  0  0
   -2.5700   -0.8310    2.2850 H   0  0  0  0  0  0  0  0  0  0  0  0
   -2.1160   -0.0710    5.9090 H   0  0  0  0  0  0  0  0  0  0  0  0
   -2.2660   -4.2100   -5.1180 C   0  0  0  0  0  0  0  0  0  0  0  0
   -1.3960   -2.6580   -5.3410 S   0  0  0  0  0  0  0  0  0  0  0  0
   -2.0620   -1.3360   -4.2420 C   0  0  0  0  0  0  0  0  0  0  0  0
   -1.7670   -1.6620   -2.8080 C   0  0  0  0  0  0  0  0  0  0  0  0
   -2.2630   -0.5760   -1.9090 C   0  0  2  0  0  0  0  0  0  0  0  0
   -1.9620   -0.8910   -0.5010 N   0  0  0  0  0  0  0  0  0  0  0  0
   -3.6670   -0.1930   -2.0660 C   0  0  0  0  0  0  0  0  0  0  0  0
   -4.1410    0.1800   -3.1460 O   0  0  0  0  0  0  0  0  0  0  0  0
   -4.5190   -0.2460   -0.9630 O   0  0  0  0  0  0  0  0  0  0  0  0
   -2.5470   -4.6910   -6.0950 H   0  0  0  0  0  0  0  0  0  0  0  0
   -3.1710   -4.1550   -4.5090 H   0  0  0  0  0  0  0  0  0  0  0  0
   -1.5780   -4.9300   -4.6040 H   0  0  0  0  0  0  0  0  0  0  0  0
   -3.1500   -1.3310   -4.4660 H   0  0  0  0  0  0  0  0  0  0  0  0
   -1.6340   -0.3770   -4.5430 H   0  0  0  0  0  0  0  0  0  0  0  0
   -0.6730   -1.7540   -2.6410 H   0  0  0  0  0  0  0  0  0  0  0  0
   -2.2390   -2.6490   -2.6120 H   0  0  0  0  0  0  0  0  0  0  0  0
   -1.6350    0.3230   -2.1570 H   0  0  0  0  0  0  0  0  0  0  0  0
   -2.5150   -1.5850    0.0400 H   0  0  0  0  0  0  0  0  0  0  0  0
  1  9  1  0  0  0  0
  1  8  1  0  0  0  0
  2  3  1  0  0  0  0
  2  1  1  0  0  0  0
  2 11  1  0  0  0  0
  3 12  1  0  0  0  0
  3 14  1  0  0  0  0
  4 15  1  6  0  0  0
  4  2  1  0  0  0  0
  5 17  1  0  0  0  0
  5  4  1  0  0  0  0
  6  7  2  0  0  0  0
  6  4  1  0  0  0  0
 10  1  1  0  0  0  0
 13  3  1  0  0  0  0
 16  5  1  0  0  0  0
 18  6  1  0  0  0  0
 19 27  1  1  0  0  0
 19 18  1  0  0  0  0
 19 20  1  0  0  0  0
 20 21  1  0  0  0  0
 21 22  2  0  0  0  0
 21 25  1  0  0  0  0
 23 19  1  0  0  0  0
 24 23  2  0  0  0  0
 25 30  1  0  0  0  0
 26 18  1  0  0  0  0
 28 20  1  0  0  0  0
 29 20  1  0  0  0  0
 31 42  1  0  0  0  0
 31 41  1  0  0  0  0
 32 31  1  0  0  0  0
 32 33  1  0  0  0  0
 33 34  1  0  0  0  0
 34 45  1  0  0  0  0
 34 46  1  0  0  0  0
 34 35  1  0  0  0  0
 35 47  1  6  0  0  0
 35 36  1  0  0  0  0
 36 48  1  0  0  0  0
 36 23  1  0  0  0  0
 37 35  1  0  0  0  0
 37 39  1  0  0  0  0
 38 37  2  0  0  0  0
 40 31  1  0  0  0  0
 43 33  1  0  0  0  0
 44 33  1  0  0  0  0
M  END
$$$$
