VDP.pdb
 OpenBabel07022419243D

 45 45  0  0  1  0  0  0  0  0999 V2000
   -0.6370   -2.0220    5.8500 C   0  0  0  0  0  0  0  0  0  0  0  0
   -0.2910   -1.7420    4.3920 C   0  0  0  0  0  0  0  0  0  0  0  0
    0.7880   -0.6740    4.4480 C   0  0  0  0  0  0  0  0  0  0  0  0
   -1.4960   -1.1530    3.6740 C   0  0  2  0  0  0  0  0  0  0  0  0
   -2.5350   -2.2040    3.8300 N   0  0  0  0  0  0  0  0  0  0  0  0
   -1.2440   -0.9660    2.2280 C   0  0  0  0  0  0  0  0  0  0  0  0
   -1.8090   -1.7680    1.4020 O   0  0  0  0  0  0  0  0  0  0  0  0
    0.3270   -2.0350    6.4020 H   0  0  0  0  0  0  0  0  0  0  0  0
   -1.1580   -2.9780    5.9770 H   0  0  0  0  0  0  0  0  0  0  0  0
   -1.2470   -1.2100    6.2940 H   0  0  0  0  0  0  0  0  0  0  0  0
    0.0110   -2.6720    3.9270 H   0  0  0  0  0  0  0  0  0  0  0  0
    1.4320   -0.8650    5.3590 H   0  0  0  0  0  0  0  0  0  0  0  0
    1.4120   -0.7460    3.5570 H   0  0  0  0  0  0  0  0  0  0  0  0
    0.2600    0.2930    4.5760 H   0  0  0  0  0  0  0  0  0  0  0  0
   -1.8930   -0.2490    4.1580 H   0  0  0  0  0  0  0  0  0  0  0  0
   -2.0990   -3.1490    3.8310 H   0  0  0  0  0  0  0  0  0  0  0  0
   -3.1790   -2.1320    3.0100 H   0  0  0  0  0  0  0  0  0  0  0  0
   -0.4330    0.0240    1.6510 N   0  0  0  0  0  0  0  0  0  0  0  0
   -0.2390    0.1550    0.1910 C   0  0  1  0  0  0  0  0  0  0  0  0
   -0.5170    1.6150   -0.0900 C   0  0  0  0  0  0  0  0  0  0  0  0
   -1.8990    1.9490    0.3030 C   0  0  0  0  0  0  0  0  0  0  0  0
   -2.6520    1.0830    0.7830 O   0  0  0  0  0  0  0  0  0  0  0  0
    1.1550   -0.2040   -0.1370 C   0  0  0  0  0  0  0  0  0  0  0  0
    1.9080   -0.4500    0.8950 O   0  0  0  0  0  0  0  0  0  0  0  0
   -2.4270    3.2310    0.1610 O   0  0  0  0  0  0  0  0  0  0  0  0
    0.0550    0.7050    2.2570 H   0  0  0  0  0  0  0  0  0  0  0  0
   -1.0020   -0.4670   -0.2770 H   0  0  0  0  0  0  0  0  0  0  0  0
    0.1320    2.2180    0.6100 H   0  0  0  0  0  0  0  0  0  0  0  0
   -0.3770    1.9210   -1.1250 H   0  0  0  0  0  0  0  0  0  0  0  0
   -3.2320    3.5400    0.6990 H   0  0  0  0  0  0  0  0  0  0  0  0
    1.7760   -0.3140   -1.3780 N   0  0  0  0  0  0  0  0  0  0  0  0
    3.2720   -0.6370   -1.4080 C   0  0  0  0  0  0  0  0  0  0  0  0
    3.3320   -1.7180   -2.4450 C   0  0  0  0  0  0  0  0  0  0  0  0
    2.0380   -1.6490   -3.2120 C   0  0  0  0  0  0  0  0  0  0  0  0
    1.5300   -0.2320   -2.7580 C   0  0  1  0  0  0  0  0  0  0  0  0
    0.2460   -0.0060   -3.3480 C   0  0  0  0  0  0  0  0  0  0  0  0
   -0.8600   -0.0760   -2.8040 O   0  0  0  0  0  0  0  0  0  0  0  0
    0.2370    0.3420   -4.7200 O   0  0  0  0  0  0  0  0  0  0  0  0
    3.7070    0.2840   -1.8210 H   0  0  0  0  0  0  0  0  0  0  0  0
    3.6140   -0.9320   -0.4260 H   0  0  0  0  0  0  0  0  0  0  0  0
    3.5130   -2.7210   -2.0080 H   0  0  0  0  0  0  0  0  0  0  0  0
    4.1640   -1.5590   -3.1820 H   0  0  0  0  0  0  0  0  0  0  0  0
    1.3440   -2.4120   -2.8120 H   0  0  0  0  0  0  0  0  0  0  0  0
    2.1580   -1.6630   -4.2970 H   0  0  0  0  0  0  0  0  0  0  0  0
    2.3250    0.4440   -3.2110 H   0  0  0  0  0  0  0  0  0  0  0  0
  1  9  1  0  0  0  0
  1 10  1  0  0  0  0
  1  8  1  0  0  0  0
  2  3  1  0  0  0  0
  2  1  1  0  0  0  0
  3 14  1  0  0  0  0
  3 12  1  0  0  0  0
  4  5  1  0  0  0  0
  4 15  1  1  0  0  0
  4  2  1  0  0  0  0
  5 16  1  0  0  0  0
  6  4  1  0  0  0  0
  7  6  2  0  0  0  0
 11  2  1  0  0  0  0
 13  3  1  0  0  0  0
 17  5  1  0  0  0  0
 18  6  1  0  0  0  0
 18 26  1  0  0  0  0
 19 27  1  6  0  0  0
 19 18  1  0  0  0  0
 20 19  1  0  0  0  0
 20 21  1  0  0  0  0
 20 28  1  0  0  0  0
 21 22  2  0  0  0  0
 23 19  1  0  0  0  0
 23 24  2  0  0  0  0
 25 21  1  0  0  0  0
 25 30  1  0  0  0  0
 29 20  1  0  0  0  0
 31 23  1  0  0  0  0
 32 31  1  0  0  0  0
 32 40  1  0  0  0  0
 33 41  1  0  0  0  0
 33 32  1  0  0  0  0
 34 43  1  0  0  0  0
 34 35  1  0  0  0  0
 34 33  1  0  0  0  0
 35 45  1  6  0  0  0
 35 31  1  0  0  0  0
 36 37  1  0  0  0  0
 36 35  1  0  0  0  0
 38 36  2  0  0  0  0
 39 32  1  0  0  0  0
 42 33  1  0  0  0  0
 44 34  1  0  0  0  0
M  END
$$$$
