VDQ.pdb
 OpenBabel07022419243D

 48 47  0  0  1  0  0  0  0  0999 V2000
    1.4960    4.2060    0.4910 C   0  0  0  0  0  0  0  0  0  0  0  0
    0.1910    3.4860    0.5480 C   0  0  0  0  0  0  0  0  0  0  0  0
   -0.1070    3.2480    2.0330 C   0  0  0  0  0  0  0  0  0  0  0  0
    0.1650    2.1680   -0.2060 C   0  0  2  0  0  0  0  0  0  0  0  0
   -1.1620    1.5630   -0.0970 N   0  0  0  0  0  0  0  0  0  0  0  0
    1.1290    1.1870    0.3750 C   0  0  0  0  0  0  0  0  0  0  0  0
    2.3800    1.3170    0.2440 O   0  0  0  0  0  0  0  0  0  0  0  0
    2.3360    3.5610    0.7590 H   0  0  0  0  0  0  0  0  0  0  0  0
    1.6520    4.7790   -0.4510 H   0  0  0  0  0  0  0  0  0  0  0  0
    1.4600    4.9880    1.3050 H   0  0  0  0  0  0  0  0  0  0  0  0
   -0.6200    4.1380    0.1730 H   0  0  0  0  0  0  0  0  0  0  0  0
    0.4840    2.3880    2.4250 H   0  0  0  0  0  0  0  0  0  0  0  0
   -1.1660    2.9680    2.2080 H   0  0  0  0  0  0  0  0  0  0  0  0
    0.2150    4.1300    2.6300 H   0  0  0  0  0  0  0  0  0  0  0  0
    0.3560    2.3740   -1.2640 H   0  0  0  0  0  0  0  0  0  0  0  0
   -1.8430    2.1830   -0.6200 H   0  0  0  0  0  0  0  0  0  0  0  0
   -1.4830    1.4560    0.8860 H   0  0  0  0  0  0  0  0  0  0  0  0
    0.6880    0.0570    1.1080 N   0  0  0  0  0  0  0  0  0  0  0  0
    1.6620   -0.8840    1.6670 C   0  0  1  0  0  0  0  0  0  0  0  0
    1.6610   -0.7140    3.1750 C   0  0  0  0  0  0  0  0  0  0  0  0
    2.6080   -1.6150    3.8320 C   0  0  0  0  0  0  0  0  0  0  0  0
    2.2570   -2.7670    4.1660 O   0  0  0  0  0  0  0  0  0  0  0  0
    1.3270   -2.2690    1.2450 C   0  0  0  0  0  0  0  0  0  0  0  0
    1.9470   -3.2740    1.6220 O   0  0  0  0  0  0  0  0  0  0  0  0
    3.9410   -1.2850    4.1350 O   0  0  0  0  0  0  0  0  0  0  0  0
   -0.3480   -0.1300    1.2750 H   0  0  0  0  0  0  0  0  0  0  0  0
    2.6720   -0.5840    1.3300 H   0  0  0  0  0  0  0  0  0  0  0  0
    2.0030    0.3310    3.3680 H   0  0  0  0  0  0  0  0  0  0  0  0
    0.6050   -0.8710    3.5560 H   0  0  0  0  0  0  0  0  0  0  0  0
    4.6960   -1.9180    3.8470 H   0  0  0  0  0  0  0  0  0  0  0  0
   -3.8730   -1.8680   -1.4990 N   0  0  0  0  0  0  0  0  0  0  0  0
   -2.9890   -2.9800   -1.2300 C   0  0  0  0  0  0  0  0  0  0  0  0
   -2.6280   -3.6510   -2.2010 O   0  0  0  0  0  0  0  0  0  0  0  0
   -2.6230   -3.1830    0.1780 C   0  0  0  0  0  0  0  0  0  0  0  0
   -1.5150   -4.1210    0.4710 C   0  0  0  0  0  0  0  0  0  0  0  0
   -0.1740   -3.7710   -0.1000 C   0  0  2  0  0  0  0  0  0  0  0  0
    0.2420   -2.4650    0.3650 N   0  0  0  0  0  0  0  0  0  0  0  0
    0.0330   -4.0350   -1.5150 C   0  0  0  0  0  0  0  0  0  0  0  0
    0.4070   -3.1370   -2.2910 O   0  0  0  0  0  0  0  0  0  0  0  0
   -0.1830   -5.3020   -2.0210 O   0  0  0  0  0  0  0  0  0  0  0  0
   -3.4930   -0.9950   -1.9310 H   0  0  0  0  0  0  0  0  0  0  0  0
   -4.8820   -1.8900   -1.2820 H   0  0  0  0  0  0  0  0  0  0  0  0
   -2.5110   -2.1990    0.7120 H   0  0  0  0  0  0  0  0  0  0  0  0
   -3.5570   -3.6130    0.6730 H   0  0  0  0  0  0  0  0  0  0  0  0
   -1.3820   -4.2110    1.5680 H   0  0  0  0  0  0  0  0  0  0  0  0
   -1.8110   -5.1210    0.0800 H   0  0  0  0  0  0  0  0  0  0  0  0
    0.5420   -4.4880    0.4320 H   0  0  0  0  0  0  0  0  0  0  0  0
   -0.3350   -1.6610   -0.0180 H   0  0  0  0  0  0  0  0  0  0  0  0
  1  2  1  0  0  0  0
  1  8  1  0  0  0  0
  1 10  1  0  0  0  0
  2  3  1  0  0  0  0
  3 13  1  0  0  0  0
  3 12  1  0  0  0  0
  3 14  1  0  0  0  0
  4 15  1  6  0  0  0
  4  5  1  0  0  0  0
  4  6  1  0  0  0  0
  4  2  1  0  0  0  0
  5 17  1  0  0  0  0
  6 18  1  0  0  0  0
  7  6  2  0  0  0  0
  9  1  1  0  0  0  0
 11  2  1  0  0  0  0
 16  5  1  0  0  0  0
 18 26  1  0  0  0  0
 18 19  1  0  0  0  0
 19 27  1  6  0  0  0
 19 20  1  0  0  0  0
 20 28  1  0  0  0  0
 20 29  1  0  0  0  0
 20 21  1  0  0  0  0
 21 25  1  0  0  0  0
 21 22  2  0  0  0  0
 23 24  2  0  0  0  0
 23 19  1  0  0  0  0
 30 25  1  0  0  0  0
 31 42  1  0  0  0  0
 31 32  1  0  0  0  0
 32 34  1  0  0  0  0
 33 32  2  0  0  0  0
 34 35  1  0  0  0  0
 34 44  1  0  0  0  0
 34 43  1  0  0  0  0
 35 45  1  0  0  0  0
 36 37  1  0  0  0  0
 36 47  1  1  0  0  0
 36 35  1  0  0  0  0
 37 23  1  0  0  0  0
 38 36  1  0  0  0  0
 39 38  2  0  0  0  0
 40 38  1  0  0  0  0
 41 31  1  0  0  0  0
 46 35  1  0  0  0  0
 48 37  1  0  0  0  0
M  END
$$$$
