VDR.pdb
 OpenBabel07022419243D

 54 53  0  0  1  0  0  0  0  0999 V2000
    0.0330    0.8010    3.5670 C   0  0  0  0  0  0  0  0  0  0  0  0
    0.2820   -0.6920    3.5210 C   0  0  0  0  0  0  0  0  0  0  0  0
   -0.6740   -1.3830    2.6270 C   0  0  0  0  0  0  0  0  0  0  0  0
    1.7440   -0.9710    3.2600 C   0  0  2  0  0  0  0  0  0  0  0  0
    2.5000   -0.3680    4.3870 N   0  0  0  0  0  0  0  0  0  0  0  0
    2.2950   -0.3640    2.0550 C   0  0  0  0  0  0  0  0  0  0  0  0
    3.1930    0.5560    2.0930 O   0  0  0  0  0  0  0  0  0  0  0  0
    0.7080    1.3260    4.2410 H   0  0  0  0  0  0  0  0  0  0  0  0
    0.1430    1.2060    2.5290 H   0  0  0  0  0  0  0  0  0  0  0  0
   -0.9970    1.0270    3.8810 H   0  0  0  0  0  0  0  0  0  0  0  0
    0.0310   -1.0380    4.5800 H   0  0  0  0  0  0  0  0  0  0  0  0
   -1.1350   -0.6820    1.9050 H   0  0  0  0  0  0  0  0  0  0  0  0
   -1.5600   -1.7560    3.2300 H   0  0  0  0  0  0  0  0  0  0  0  0
   -0.2810   -2.3180    2.1650 H   0  0  0  0  0  0  0  0  0  0  0  0
    1.9030   -2.0580    3.3650 H   0  0  0  0  0  0  0  0  0  0  0  0
    3.3760   -0.9150    4.4760 H   0  0  0  0  0  0  0  0  0  0  0  0
    2.6640    0.6420    4.1830 H   0  0  0  0  0  0  0  0  0  0  0  0
    1.9340   -0.6900    0.7050 N   0  0  0  0  0  0  0  0  0  0  0  0
    2.5150   -0.0670   -0.4360 C   0  0  1  0  0  0  0  0  0  0  0  0
    3.2970   -1.0100   -1.3140 C   0  0  0  0  0  0  0  0  0  0  0  0
    4.3930   -1.6020   -0.5310 C   0  0  0  0  0  0  0  0  0  0  0  0
    4.1700   -2.5730    0.2200 O   0  0  0  0  0  0  0  0  0  0  0  0
    1.4890    0.6000   -1.2670 C   0  0  0  0  0  0  0  0  0  0  0  0
    1.8200    1.2360   -2.3300 O   0  0  0  0  0  0  0  0  0  0  0  0
    5.6620   -1.0790   -0.6310 O   0  0  0  0  0  0  0  0  0  0  0  0
    1.2110   -1.4200    0.5560 H   0  0  0  0  0  0  0  0  0  0  0  0
    3.2490    0.7320   -0.1340 H   0  0  0  0  0  0  0  0  0  0  0  0
    3.7390   -0.4090   -2.1330 H   0  0  0  0  0  0  0  0  0  0  0  0
    2.6550   -1.7660   -1.8070 H   0  0  0  0  0  0  0  0  0  0  0  0
    6.4460   -1.3670   -0.0620 H   0  0  0  0  0  0  0  0  0  0  0  0
   -3.8610   -3.4680    1.4150 N   0  0  0  0  0  0  0  0  0  0  0  0
   -3.3950   -3.2170    0.0960 C   0  0  0  0  0  0  0  0  0  0  0  0
   -2.3040   -3.7720   -0.3630 N   0  0  0  0  0  0  0  0  0  0  0  0
   -4.0900   -2.3560   -0.7800 N   0  0  0  0  0  0  0  0  0  0  0  0
   -3.3920   -1.6080   -1.8380 C   0  0  0  0  0  0  0  0  0  0  0  0
   -2.4940   -0.5500   -1.2100 C   0  0  0  0  0  0  0  0  0  0  0  0
   -1.8130    0.1710   -2.3310 C   0  0  0  0  0  0  0  0  0  0  0  0
   -0.8830    1.2650   -1.8150 C   0  0  2  0  0  0  0  0  0  0  0  0
    0.1060    0.5950   -0.9750 N   0  0  0  0  0  0  0  0  0  0  0  0
   -1.6940    2.2210   -1.0350 C   0  0  0  0  0  0  0  0  0  0  0  0
   -2.5920    2.8780   -1.6190 O   0  0  0  0  0  0  0  0  0  0  0  0
   -1.5230    2.4410    0.3230 O   0  0  0  0  0  0  0  0  0  0  0  0
   -3.2170   -3.9270    2.1030 H   0  0  0  0  0  0  0  0  0  0  0  0
   -4.8240   -3.1900    1.6590 H   0  0  0  0  0  0  0  0  0  0  0  0
   -1.7870   -4.4100    0.2820 H   0  0  0  0  0  0  0  0  0  0  0  0
   -5.1230   -2.2460   -0.6780 H   0  0  0  0  0  0  0  0  0  0  0  0
   -4.1370   -1.0810   -2.4660 H   0  0  0  0  0  0  0  0  0  0  0  0
   -2.8360   -2.3140   -2.4560 H   0  0  0  0  0  0  0  0  0  0  0  0
   -1.7480   -1.1190   -0.6070 H   0  0  0  0  0  0  0  0  0  0  0  0
   -3.1250    0.0960   -0.5920 H   0  0  0  0  0  0  0  0  0  0  0  0
   -2.5310    0.5550   -3.0670 H   0  0  0  0  0  0  0  0  0  0  0  0
   -1.1920   -0.5900   -2.8810 H   0  0  0  0  0  0  0  0  0  0  0  0
   -0.3430    1.7420   -2.6350 H   0  0  0  0  0  0  0  0  0  0  0  0
   -0.1810    0.0810   -0.1150 H   0  0  0  0  0  0  0  0  0  0  0  0
  1 10  1  0  0  0  0
  1  8  1  0  0  0  0
  2  1  1  0  0  0  0
  2 11  1  0  0  0  0
  3 13  1  0  0  0  0
  3  2  1  0  0  0  0
  4 15  1  6  0  0  0
  4  2  1  0  0  0  0
  4  5  1  0  0  0  0
  5 16  1  0  0  0  0
  6  7  2  0  0  0  0
  6  4  1  0  0  0  0
  9  1  1  0  0  0  0
 12  3  1  0  0  0  0
 14  3  1  0  0  0  0
 17  5  1  0  0  0  0
 18  6  1  0  0  0  0
 19 27  1  1  0  0  0
 19 18  1  0  0  0  0
 20 21  1  0  0  0  0
 20 19  1  0  0  0  0
 21 22  2  0  0  0  0
 23 39  1  0  0  0  0
 23 19  1  0  0  0  0
 24 23  2  0  0  0  0
 25 21  1  0  0  0  0
 25 30  1  0  0  0  0
 26 18  1  0  0  0  0
 28 20  1  0  0  0  0
 29 20  1  0  0  0  0
 31 44  1  0  0  0  0
 31 43  1  0  0  0  0
 32 31  1  0  0  0  0
 33 32  2  0  0  0  0
 33 45  1  0  0  0  0
 34 46  1  0  0  0  0
 34 32  1  0  0  0  0
 35 36  1  0  0  0  0
 35 34  1  0  0  0  0
 36 49  1  0  0  0  0
 36 50  1  0  0  0  0
 37 38  1  0  0  0  0
 37 36  1  0  0  0  0
 38 53  1  6  0  0  0
 38 40  1  0  0  0  0
 38 39  1  0  0  0  0
 39 54  1  0  0  0  0
 40 42  1  0  0  0  0
 41 40  2  0  0  0  0
 47 35  1  0  0  0  0
 48 35  1  0  0  0  0
 51 37  1  0  0  0  0
 52 37  1  0  0  0  0
M  END
$$$$
