VDS.pdb
 OpenBabel07022419243D

 42 41  0  0  1  0  0  0  0  0999 V2000
   -1.0160   -4.7840   -0.3300 C   0  0  0  0  0  0  0  0  0  0  0  0
   -0.2460   -3.8120   -1.1910 C   0  0  0  0  0  0  0  0  0  0  0  0
    1.2230   -4.0900   -0.9790 C   0  0  0  0  0  0  0  0  0  0  0  0
   -0.6000   -2.3750   -0.8800 C   0  0  2  0  0  0  0  0  0  0  0  0
    0.1860   -1.5230   -1.7530 N   0  0  0  0  0  0  0  0  0  0  0  0
   -0.3760   -2.0460    0.5460 C   0  0  0  0  0  0  0  0  0  0  0  0
   -0.9820   -2.6910    1.4400 O   0  0  0  0  0  0  0  0  0  0  0  0
   -2.1100   -4.6050   -0.3480 H   0  0  0  0  0  0  0  0  0  0  0  0
   -0.6020   -4.8730    0.6930 H   0  0  0  0  0  0  0  0  0  0  0  0
   -0.8510   -5.7990   -0.7970 H   0  0  0  0  0  0  0  0  0  0  0  0
   -0.5070   -4.0430   -2.2440 H   0  0  0  0  0  0  0  0  0  0  0  0
    1.7900   -3.9170   -1.9010 H   0  0  0  0  0  0  0  0  0  0  0  0
    1.4130   -5.1460   -0.6610 H   0  0  0  0  0  0  0  0  0  0  0  0
    1.5990   -3.4530   -0.1380 H   0  0  0  0  0  0  0  0  0  0  0  0
   -1.6570   -2.2260   -1.1360 H   0  0  0  0  0  0  0  0  0  0  0  0
   -0.2280   -1.4310   -2.6920 H   0  0  0  0  0  0  0  0  0  0  0  0
    1.1950   -1.7160   -1.7230 H   0  0  0  0  0  0  0  0  0  0  0  0
    0.5050   -1.0180    0.9840 N   0  0  0  0  0  0  0  0  0  0  0  0
    0.7300   -0.6900    2.3740 C   0  0  1  0  0  0  0  0  0  0  0  0
    2.1310   -0.9920    2.8000 C   0  0  0  0  0  0  0  0  0  0  0  0
    3.1730   -0.2730    2.0680 C   0  0  0  0  0  0  0  0  0  0  0  0
    2.9010    0.5400    1.1610 O   0  0  0  0  0  0  0  0  0  0  0  0
    0.3630    0.7330    2.6570 C   0  0  0  0  0  0  0  0  0  0  0  0
    0.4800    1.2310    3.8060 O   0  0  0  0  0  0  0  0  0  0  0  0
    4.5110   -0.5070    2.3970 O   0  0  0  0  0  0  0  0  0  0  0  0
    1.0140   -0.4740    0.2630 H   0  0  0  0  0  0  0  0  0  0  0  0
    0.0710   -1.3980    2.9590 H   0  0  0  0  0  0  0  0  0  0  0  0
    2.2800   -0.8670    3.8950 H   0  0  0  0  0  0  0  0  0  0  0  0
    2.3200   -2.0920    2.6250 H   0  0  0  0  0  0  0  0  0  0  0  0
    5.2230   -0.0960    1.8080 H   0  0  0  0  0  0  0  0  0  0  0  0
    1.6660    3.8360    1.2930 O   0  0  0  0  0  0  0  0  0  0  0  0
    0.2960    3.9600    1.1060 C   0  0  0  0  0  0  0  0  0  0  0  0
   -0.4910    3.0000    1.9600 C   0  0  2  0  0  0  0  0  0  0  0  0
   -0.1380    1.6070    1.6530 N   0  0  0  0  0  0  0  0  0  0  0  0
   -1.9320    3.2050    1.6780 C   0  0  0  0  0  0  0  0  0  0  0  0
   -2.4630    4.3220    1.8660 O   0  0  0  0  0  0  0  0  0  0  0  0
   -2.7120    2.1650    1.2020 O   0  0  0  0  0  0  0  0  0  0  0  0
    2.0270    4.5580    1.8910 H   0  0  0  0  0  0  0  0  0  0  0  0
    0.0200    4.9820    1.4380 H   0  0  0  0  0  0  0  0  0  0  0  0
    0.0670    3.7900    0.0400 H   0  0  0  0  0  0  0  0  0  0  0  0
   -0.3150    3.2310    3.0170 H   0  0  0  0  0  0  0  0  0  0  0  0
   -0.2580    1.2520    0.6800 H   0  0  0  0  0  0  0  0  0  0  0  0
  1  9  1  0  0  0  0
  2  3  1  0  0  0  0
  2  4  1  0  0  0  0
  2  1  1  0  0  0  0
  3 13  1  0  0  0  0
  3 14  1  0  0  0  0
  4 15  1  6  0  0  0
  4  6  1  0  0  0  0
  5 17  1  0  0  0  0
  5  4  1  0  0  0  0
  6 18  1  0  0  0  0
  6  7  2  0  0  0  0
  8  1  1  0  0  0  0
 10  1  1  0  0  0  0
 11  2  1  0  0  0  0
 12  3  1  0  0  0  0
 16  5  1  0  0  0  0
 18 19  1  0  0  0  0
 19 23  1  0  0  0  0
 19 20  1  0  0  0  0
 19 27  1  1  0  0  0
 20 28  1  0  0  0  0
 21 25  1  0  0  0  0
 21 20  1  0  0  0  0
 22 21  2  0  0  0  0
 23 24  2  0  0  0  0
 26 18  1  0  0  0  0
 29 20  1  0  0  0  0
 30 25  1  0  0  0  0
 31 38  1  0  0  0  0
 32 31  1  0  0  0  0
 32 39  1  0  0  0  0
 32 33  1  0  0  0  0
 33 41  1  1  0  0  0
 34 33  1  0  0  0  0
 34 23  1  0  0  0  0
 35 36  1  0  0  0  0
 35 33  1  0  0  0  0
 37 35  2  0  0  0  0
 40 32  1  0  0  0  0
 42 34  1  0  0  0  0
M  END
$$$$
