VDV.pdb
 OpenBabel07022419253D

 47 46  0  0  1  0  0  0  0  0999 V2000
    0.7330   -5.2940   -2.2880 C   0  0  0  0  0  0  0  0  0  0  0  0
    0.6350   -4.0800   -1.3830 C   0  0  0  0  0  0  0  0  0  0  0  0
   -0.7250   -4.0950   -0.7640 C   0  0  0  0  0  0  0  0  0  0  0  0
    0.8290   -2.8500   -2.2200 C   0  0  2  0  0  0  0  0  0  0  0  0
    2.1770   -2.9910   -2.8250 N   0  0  0  0  0  0  0  0  0  0  0  0
    0.8460   -1.5870   -1.4910 C   0  0  0  0  0  0  0  0  0  0  0  0
    1.9310   -0.8920   -1.3930 O   0  0  0  0  0  0  0  0  0  0  0  0
    1.4390   -6.0360   -1.8580 H   0  0  0  0  0  0  0  0  0  0  0  0
   -0.2410   -5.8390   -2.3530 H   0  0  0  0  0  0  0  0  0  0  0  0
    1.0090   -4.9900   -3.3070 H   0  0  0  0  0  0  0  0  0  0  0  0
    1.4340   -4.1200   -0.6150 H   0  0  0  0  0  0  0  0  0  0  0  0
   -0.7890   -3.5310    0.1940 H   0  0  0  0  0  0  0  0  0  0  0  0
   -1.5150   -3.7140   -1.4350 H   0  0  0  0  0  0  0  0  0  0  0  0
   -1.0410   -5.1490   -0.4920 H   0  0  0  0  0  0  0  0  0  0  0  0
    0.1320   -2.8870   -3.0660 H   0  0  0  0  0  0  0  0  0  0  0  0
    2.1750   -2.4750   -3.7180 H   0  0  0  0  0  0  0  0  0  0  0  0
    2.8480   -2.5360   -2.1720 H   0  0  0  0  0  0  0  0  0  0  0  0
   -0.2360   -0.9570   -0.8200 N   0  0  0  0  0  0  0  0  0  0  0  0
   -0.1500    0.2800   -0.1180 C   0  0  1  0  0  0  0  0  0  0  0  0
   -0.9160    1.4180   -0.7570 C   0  0  0  0  0  0  0  0  0  0  0  0
   -0.3960    1.6330   -2.0960 C   0  0  0  0  0  0  0  0  0  0  0  0
   -0.3570    0.6970   -2.9190 O   0  0  0  0  0  0  0  0  0  0  0  0
   -0.5520    0.1070    1.3000 C   0  0  0  0  0  0  0  0  0  0  0  0
   -0.9040   -1.0170    1.6900 O   0  0  0  0  0  0  0  0  0  0  0  0
    0.0680    2.8770   -2.4840 O   0  0  0  0  0  0  0  0  0  0  0  0
   -1.1640   -1.4310   -0.8490 H   0  0  0  0  0  0  0  0  0  0  0  0
    0.9160    0.6030   -0.1510 H   0  0  0  0  0  0  0  0  0  0  0  0
   -0.7130    2.3110   -0.1350 H   0  0  0  0  0  0  0  0  0  0  0  0
   -2.0130    1.2610   -0.7120 H   0  0  0  0  0  0  0  0  0  0  0  0
    0.8550    2.9300   -3.1550 H   0  0  0  0  0  0  0  0  0  0  0  0
    0.6990    2.7110    4.5120 C   0  0  0  0  0  0  0  0  0  0  0  0
    0.1450    1.3140    4.6160 C   0  0  0  0  0  0  0  0  0  0  0  0
    1.2080    0.2510    4.6540 C   0  0  0  0  0  0  0  0  0  0  0  0
   -0.9540    1.0240    3.6270 C   0  0  2  0  0  0  0  0  0  0  0  0
   -0.5590    1.1670    2.2450 N   0  0  0  0  0  0  0  0  0  0  0  0
   -2.1390    1.8610    3.8810 C   0  0  0  0  0  0  0  0  0  0  0  0
   -2.6390    2.5600    2.9790 O   0  0  0  0  0  0  0  0  0  0  0  0
   -2.7040    1.8700    5.1380 O   0  0  0  0  0  0  0  0  0  0  0  0
   -0.0500    3.4810    4.7830 H   0  0  0  0  0  0  0  0  0  0  0  0
    1.0400    2.9400    3.4990 H   0  0  0  0  0  0  0  0  0  0  0  0
    1.5100    2.7850    5.2700 H   0  0  0  0  0  0  0  0  0  0  0  0
   -0.3690    1.2880    5.6260 H   0  0  0  0  0  0  0  0  0  0  0  0
    2.2450    0.6650    4.5410 H   0  0  0  0  0  0  0  0  0  0  0  0
    0.9950   -0.5520    3.9090 H   0  0  0  0  0  0  0  0  0  0  0  0
    1.2310   -0.2850    5.6500 H   0  0  0  0  0  0  0  0  0  0  0  0
   -1.2690   -0.0390    3.8490 H   0  0  0  0  0  0  0  0  0  0  0  0
   -0.2500    2.0980    1.8780 H   0  0  0  0  0  0  0  0  0  0  0  0
  1  8  1  0  0  0  0
  1  2  1  0  0  0  0
  2  3  1  0  0  0  0
  2 11  1  0  0  0  0
  3 14  1  0  0  0  0
  3 12  1  0  0  0  0
  4 15  1  6  0  0  0
  4  6  1  0  0  0  0
  4  2  1  0  0  0  0
  5  4  1  0  0  0  0
  5 17  1  0  0  0  0
  6  7  2  0  0  0  0
  6 18  1  0  0  0  0
  9  1  1  0  0  0  0
 10  1  1  0  0  0  0
 13  3  1  0  0  0  0
 16  5  1  0  0  0  0
 18 19  1  0  0  0  0
 19 27  1  1  0  0  0
 19 23  1  0  0  0  0
 20 29  1  0  0  0  0
 20 28  1  0  0  0  0
 20 19  1  0  0  0  0
 21 20  1  0  0  0  0
 22 21  2  0  0  0  0
 23 24  2  0  0  0  0
 23 35  1  0  0  0  0
 25 21  1  0  0  0  0
 26 18  1  0  0  0  0
 30 25  1  0  0  0  0
 31 32  1  0  0  0  0
 31 39  1  0  0  0  0
 31 41  1  0  0  0  0
 32 33  1  0  0  0  0
 32 42  1  0  0  0  0
 33 45  1  0  0  0  0
 34 46  1  1  0  0  0
 34 36  1  0  0  0  0
 34 32  1  0  0  0  0
 35 34  1  0  0  0  0
 36 38  1  0  0  0  0
 37 36  2  0  0  0  0
 40 31  1  0  0  0  0
 43 33  1  0  0  0  0
 44 33  1  0  0  0  0
 47 35  1  0  0  0  0
M  END
$$$$
