VEA.pdb
 OpenBabel07022419253D

 44 43  0  0  1  0  0  0  0  0999 V2000
   -1.9950   -3.8550   -2.2530 C   0  0  0  0  0  0  0  0  0  0  0  0
   -0.7560   -3.4250   -1.4830 C   0  0  0  0  0  0  0  0  0  0  0  0
   -0.1210   -4.6490   -0.9160 C   0  0  0  0  0  0  0  0  0  0  0  0
   -1.2060   -2.4440   -0.4270 C   0  0  2  0  0  0  0  0  0  0  0  0
   -1.8300   -1.3060   -1.0480 N   0  0  0  0  0  0  0  0  0  0  0  0
   -0.0270   -1.9460    0.3430 C   0  0  0  0  0  0  0  0  0  0  0  0
    0.6860   -2.7560    0.9780 O   0  0  0  0  0  0  0  0  0  0  0  0
   -2.2640   -3.1230   -3.0420 H   0  0  0  0  0  0  0  0  0  0  0  0
   -2.8270   -3.9430   -1.5100 H   0  0  0  0  0  0  0  0  0  0  0  0
   -1.8540   -4.8790   -2.6650 H   0  0  0  0  0  0  0  0  0  0  0  0
   -0.0850   -2.9460   -2.2150 H   0  0  0  0  0  0  0  0  0  0  0  0
   -0.3540   -5.5040   -1.5850 H   0  0  0  0  0  0  0  0  0  0  0  0
    0.9830   -4.5970   -0.8490 H   0  0  0  0  0  0  0  0  0  0  0  0
   -0.5560   -4.8750    0.0820 H   0  0  0  0  0  0  0  0  0  0  0  0
   -1.9490   -2.9370    0.2070 H   0  0  0  0  0  0  0  0  0  0  0  0
   -2.8430   -1.3810   -1.1760 H   0  0  0  0  0  0  0  0  0  0  0  0
   -1.3110   -0.9620   -1.8860 H   0  0  0  0  0  0  0  0  0  0  0  0
    0.3300   -0.5810    0.3920 N   0  0  0  0  0  0  0  0  0  0  0  0
    1.5010   -0.2090    1.1760 C   0  0  1  0  0  0  0  0  0  0  0  0
    2.5090    0.3840    0.2490 C   0  0  0  0  0  0  0  0  0  0  0  0
    3.7730    0.8160    0.9060 C   0  0  0  0  0  0  0  0  0  0  0  0
    4.6940    1.3790   -0.1360 C   0  0  0  0  0  0  0  0  0  0  0  0
    4.3740    1.4390   -1.3400 O   0  0  0  0  0  0  0  0  0  0  0  0
    1.0860    0.6860    2.2870 C   0  0  0  0  0  0  0  0  0  0  0  0
    1.9070    1.1320    3.1220 O   0  0  0  0  0  0  0  0  0  0  0  0
    5.9370    1.8440    0.2620 O   0  0  0  0  0  0  0  0  0  0  0  0
   -0.2170    0.1400   -0.1100 H   0  0  0  0  0  0  0  0  0  0  0  0
    1.9690   -1.0980    1.6450 H   0  0  0  0  0  0  0  0  0  0  0  0
    2.7770   -0.4290   -0.4790 H   0  0  0  0  0  0  0  0  0  0  0  0
    2.0690    1.1910   -0.4010 H   0  0  0  0  0  0  0  0  0  0  0  0
    4.2450   -0.0420    1.3920 H   0  0  0  0  0  0  0  0  0  0  0  0
    3.5500    1.6640    1.5970 H   0  0  0  0  0  0  0  0  0  0  0  0
    6.5130    2.4610   -0.3060 H   0  0  0  0  0  0  0  0  0  0  0  0
   -1.5120    3.1200    2.9630 C   0  0  0  0  0  0  0  0  0  0  0  0
   -0.7970    1.9110    3.4480 C   0  0  2  0  0  0  0  0  0  0  0  0
   -0.2710    1.0630    2.4320 N   0  0  0  0  0  0  0  0  0  0  0  0
   -1.7630    1.0940    4.2620 C   0  0  0  0  0  0  0  0  0  0  0  0
   -1.9920   -0.1180    4.0040 O   0  0  0  0  0  0  0  0  0  0  0  0
   -2.3920    1.7420    5.3160 O   0  0  0  0  0  0  0  0  0  0  0  0
   -0.8310    4.0170    2.9470 H   0  0  0  0  0  0  0  0  0  0  0  0
   -2.0570    2.9890    2.0190 H   0  0  0  0  0  0  0  0  0  0  0  0
   -2.2900    3.3840    3.7390 H   0  0  0  0  0  0  0  0  0  0  0  0
    0.0260    2.2530    4.1410 H   0  0  0  0  0  0  0  0  0  0  0  0
   -0.9420    0.6770    1.7190 H   0  0  0  0  0  0  0  0  0  0  0  0
  1  9  1  0  0  0  0
  1  2  1  0  0  0  0
  2  3  1  0  0  0  0
  2  4  1  0  0  0  0
  3 13  1  0  0  0  0
  3 14  1  0  0  0  0
  4 15  1  1  0  0  0
  4  6  1  0  0  0  0
  5  4  1  0  0  0  0
  6 18  1  0  0  0  0
  6  7  2  0  0  0  0
  8  1  1  0  0  0  0
 10  1  1  0  0  0  0
 11  2  1  0  0  0  0
 12  3  1  0  0  0  0
 16  5  1  0  0  0  0
 17  5  1  0  0  0  0
 18 19  1  0  0  0  0
 19 28  1  1  0  0  0
 19 24  1  0  0  0  0
 20 21  1  0  0  0  0
 20 19  1  0  0  0  0
 21 31  1  0  0  0  0
 21 32  1  0  0  0  0
 22 26  1  0  0  0  0
 22 21  1  0  0  0  0
 23 22  2  0  0  0  0
 24 36  1  0  0  0  0
 24 25  2  0  0  0  0
 27 18  1  0  0  0  0
 29 20  1  0  0  0  0
 30 20  1  0  0  0  0
 33 26  1  0  0  0  0
 34 35  1  0  0  0  0
 34 42  1  0  0  0  0
 35 43  1  1  0  0  0
 35 37  1  0  0  0  0
 36 35  1  0  0  0  0
 37 39  1  0  0  0  0
 38 37  2  0  0  0  0
 40 34  1  0  0  0  0
 41 34  1  0  0  0  0
 44 36  1  0  0  0  0
M  END
$$$$
