VEC.pdb
 OpenBabel07022419253D

 45 44  0  0  1  0  0  0  0  0999 V2000
    0.7270   -5.1890    1.6060 C   0  0  0  0  0  0  0  0  0  0  0  0
    0.7580   -3.6430    1.5990 C   0  0  0  0  0  0  0  0  0  0  0  0
   -0.6890   -3.2570    1.3520 C   0  0  0  0  0  0  0  0  0  0  0  0
    1.6750   -3.2880    0.4600 C   0  0  2  0  0  0  0  0  0  0  0  0
    2.9620   -3.9340    0.8100 N   0  0  0  0  0  0  0  0  0  0  0  0
    1.9400   -1.8750    0.2600 C   0  0  0  0  0  0  0  0  0  0  0  0
    3.1380   -1.4320    0.4030 O   0  0  0  0  0  0  0  0  0  0  0  0
    0.0650   -5.4900    2.4470 H   0  0  0  0  0  0  0  0  0  0  0  0
    1.7550   -5.5770    1.7610 H   0  0  0  0  0  0  0  0  0  0  0  0
    0.2500   -5.5520    0.6760 H   0  0  0  0  0  0  0  0  0  0  0  0
    1.1180   -3.3290    2.5870 H   0  0  0  0  0  0  0  0  0  0  0  0
   -0.8830   -2.3340    1.9240 H   0  0  0  0  0  0  0  0  0  0  0  0
   -0.9560   -3.2160    0.2950 H   0  0  0  0  0  0  0  0  0  0  0  0
   -1.3810   -4.0430    1.7890 H   0  0  0  0  0  0  0  0  0  0  0  0
    1.3090   -3.8300   -0.4330 H   0  0  0  0  0  0  0  0  0  0  0  0
    3.3770   -4.4000   -0.0300 H   0  0  0  0  0  0  0  0  0  0  0  0
    3.6270   -3.2000    1.1900 H   0  0  0  0  0  0  0  0  0  0  0  0
    1.0310   -0.8470   -0.0920 N   0  0  0  0  0  0  0  0  0  0  0  0
    1.3880    0.5140   -0.2760 C   0  0  1  0  0  0  0  0  0  0  0  0
    1.1490    1.0560   -1.6540 C   0  0  0  0  0  0  0  0  0  0  0  0
   -0.3440    0.9450   -1.9920 C   0  0  0  0  0  0  0  0  0  0  0  0
   -0.5770    1.4910   -3.3800 C   0  0  0  0  0  0  0  0  0  0  0  0
   -1.7200    1.4990   -3.8550 O   0  0  0  0  0  0  0  0  0  0  0  0
    0.7420    1.3970    0.7230 C   0  0  0  0  0  0  0  0  0  0  0  0
    0.9600    2.6620    0.6870 O   0  0  0  0  0  0  0  0  0  0  0  0
    0.4780    1.9850   -4.1300 O   0  0  0  0  0  0  0  0  0  0  0  0
    0.0320   -1.1210   -0.2220 H   0  0  0  0  0  0  0  0  0  0  0  0
    2.4970    0.6130   -0.0720 H   0  0  0  0  0  0  0  0  0  0  0  0
    1.3520    2.1490   -1.6220 H   0  0  0  0  0  0  0  0  0  0  0  0
    1.7730    0.6340   -2.4380 H   0  0  0  0  0  0  0  0  0  0  0  0
   -0.9410    1.6010   -1.3270 H   0  0  0  0  0  0  0  0  0  0  0  0
   -0.7030   -0.0770   -1.8770 H   0  0  0  0  0  0  0  0  0  0  0  0
    0.3470    1.9400   -5.1520 H   0  0  0  0  0  0  0  0  0  0  0  0
   -0.1240    0.9660    1.7480 N   0  0  0  0  0  0  0  0  0  0  0  0
   -0.7330    1.8980    2.7020 C   0  0  1  0  0  0  0  0  0  0  0  0
   -2.2390    1.8910    2.5340 C   0  0  0  0  0  0  0  0  0  0  0  0
   -2.9270    3.0590    3.7390 S   0  0  0  0  0  0  0  0  0  0  0  0
   -0.3310    1.5740    4.0770 C   0  0  0  0  0  0  0  0  0  0  0  0
    0.4290    0.6220    4.2950 O   0  0  0  0  0  0  0  0  0  0  0  0
   -0.7940    2.3220    5.1320 O   0  0  0  0  0  0  0  0  0  0  0  0
   -0.3260   -0.0480    1.8150 H   0  0  0  0  0  0  0  0  0  0  0  0
   -0.3770    2.9080    2.4160 H   0  0  0  0  0  0  0  0  0  0  0  0
   -2.6650    0.8830    2.6610 H   0  0  0  0  0  0  0  0  0  0  0  0
   -2.4410    2.2220    1.4920 H   0  0  0  0  0  0  0  0  0  0  0  0
   -3.9620    3.8400    3.1780 H   0  0  0  0  0  0  0  0  0  0  0  0
  1  9  1  0  0  0  0
  1  8  1  0  0  0  0
  2  1  1  0  0  0  0
  2 11  1  0  0  0  0
  3  2  1  0  0  0  0
  3 14  1  0  0  0  0
  3 12  1  0  0  0  0
  4 15  1  6  0  0  0
  4  5  1  0  0  0  0
  4  2  1  0  0  0  0
  5 17  1  0  0  0  0
  6  7  2  0  0  0  0
  6  4  1  0  0  0  0
 10  1  1  0  0  0  0
 13  3  1  0  0  0  0
 16  5  1  0  0  0  0
 18  6  1  0  0  0  0
 19 18  1  0  0  0  0
 19 28  1  1  0  0  0
 19 24  1  0  0  0  0
 20 29  1  0  0  0  0
 20 19  1  0  0  0  0
 21 32  1  0  0  0  0
 21 20  1  0  0  0  0
 21 31  1  0  0  0  0
 22 21  1  0  0  0  0
 23 22  2  0  0  0  0
 24 34  1  0  0  0  0
 25 24  2  0  0  0  0
 26 22  1  0  0  0  0
 27 18  1  0  0  0  0
 30 20  1  0  0  0  0
 33 26  1  0  0  0  0
 34 41  1  0  0  0  0
 34 35  1  0  0  0  0
 35 42  1  6  0  0  0
 35 38  1  0  0  0  0
 36 43  1  0  0  0  0
 36 35  1  0  0  0  0
 36 37  1  0  0  0  0
 38 39  2  0  0  0  0
 38 40  1  0  0  0  0
 44 36  1  0  0  0  0
 45 37  1  0  0  0  0
M  END
$$$$
