VEE.pdb
 OpenBabel07022419253D

 50 49  0  0  1  0  0  0  0  0999 V2000
    1.7860   -3.6570    1.9740 C   0  0  0  0  0  0  0  0  0  0  0  0
    2.1760   -3.0600    0.6620 C   0  0  0  0  0  0  0  0  0  0  0  0
    1.1050   -3.1060   -0.3960 C   0  0  0  0  0  0  0  0  0  0  0  0
    2.9080   -1.7500    0.7530 C   0  0  2  0  0  0  0  0  0  0  0  0
    4.1580   -1.9650    1.5150 N   0  0  0  0  0  0  0  0  0  0  0  0
    2.2150   -0.6340    1.3530 C   0  0  0  0  0  0  0  0  0  0  0  0
    2.6650   -0.1100    2.4220 O   0  0  0  0  0  0  0  0  0  0  0  0
    2.2440   -4.6780    2.1620 H   0  0  0  0  0  0  0  0  0  0  0  0
    2.0950   -3.0520    2.8550 H   0  0  0  0  0  0  0  0  0  0  0  0
    0.6900   -3.8530    1.9420 H   0  0  0  0  0  0  0  0  0  0  0  0
    2.9760   -3.7680    0.2530 H   0  0  0  0  0  0  0  0  0  0  0  0
    1.0600   -4.1330   -0.8770 H   0  0  0  0  0  0  0  0  0  0  0  0
    1.3870   -2.3640   -1.1830 H   0  0  0  0  0  0  0  0  0  0  0  0
    0.0930   -2.9510   -0.0210 H   0  0  0  0  0  0  0  0  0  0  0  0
    3.2290   -1.4910   -0.2730 H   0  0  0  0  0  0  0  0  0  0  0  0
    4.7720   -2.5430    0.8720 H   0  0  0  0  0  0  0  0  0  0  0  0
    4.6260   -1.0140    1.5120 H   0  0  0  0  0  0  0  0  0  0  0  0
    1.0210   -0.0130    0.8620 N   0  0  0  0  0  0  0  0  0  0  0  0
    0.4050    1.1110    1.5390 C   0  0  1  0  0  0  0  0  0  0  0  0
    0.4170    2.3360    0.6120 C   0  0  0  0  0  0  0  0  0  0  0  0
    1.8420    2.7120    0.2620 C   0  0  0  0  0  0  0  0  0  0  0  0
    1.8660    3.8850   -0.6430 C   0  0  0  0  0  0  0  0  0  0  0  0
    1.2300    3.8800   -1.7520 O   0  0  0  0  0  0  0  0  0  0  0  0
   -0.9960    0.8270    1.8320 C   0  0  0  0  0  0  0  0  0  0  0  0
   -1.6870    1.7030    2.4270 O   0  0  0  0  0  0  0  0  0  0  0  0
    2.5780    5.0470   -0.3250 O   0  0  0  0  0  0  0  0  0  0  0  0
    0.6490   -0.4300   -0.0130 H   0  0  0  0  0  0  0  0  0  0  0  0
    0.9840    1.3840    2.4590 H   0  0  0  0  0  0  0  0  0  0  0  0
   -0.1390    2.0400   -0.2940 H   0  0  0  0  0  0  0  0  0  0  0  0
   -0.0440    3.2020    1.1220 H   0  0  0  0  0  0  0  0  0  0  0  0
    2.2750    1.8650   -0.3070 H   0  0  0  0  0  0  0  0  0  0  0  0
    2.4720    2.8700    1.1310 H   0  0  0  0  0  0  0  0  0  0  0  0
    2.1700    5.9660   -0.5270 H   0  0  0  0  0  0  0  0  0  0  0  0
   -1.5980   -0.3950    1.4710 N   0  0  0  0  0  0  0  0  0  0  0  0
   -2.9410   -0.7550    1.7210 C   0  0  1  0  0  0  0  0  0  0  0  0
   -3.8300   -0.7320    0.5280 C   0  0  0  0  0  0  0  0  0  0  0  0
   -3.4610   -1.5920   -0.6130 C   0  0  0  0  0  0  0  0  0  0  0  0
   -2.2440   -1.1540   -1.2990 C   0  0  0  0  0  0  0  0  0  0  0  0
   -1.7670    0.0110   -1.1780 O   0  0  0  0  0  0  0  0  0  0  0  0
   -3.0350   -2.1120    2.3650 C   0  0  0  0  0  0  0  0  0  0  0  0
   -2.0250   -2.8060    2.6250 O   0  0  0  0  0  0  0  0  0  0  0  0
   -1.5200   -2.0170   -2.1510 O   0  0  0  0  0  0  0  0  0  0  0  0
   -4.2940   -2.6230    2.6870 O   0  0  0  0  0  0  0  0  0  0  0  0
   -0.9560   -1.0980    1.0090 H   0  0  0  0  0  0  0  0  0  0  0  0
   -3.3880   -0.0470    2.4890 H   0  0  0  0  0  0  0  0  0  0  0  0
   -4.8720   -1.0150    0.9010 H   0  0  0  0  0  0  0  0  0  0  0  0
   -3.8820    0.3630    0.2110 H   0  0  0  0  0  0  0  0  0  0  0  0
   -4.2980   -1.5220   -1.3640 H   0  0  0  0  0  0  0  0  0  0  0  0
   -3.4200   -2.6770   -0.3540 H   0  0  0  0  0  0  0  0  0  0  0  0
   -0.9820   -1.5760   -2.9070 H   0  0  0  0  0  0  0  0  0  0  0  0
  1  8  1  0  0  0  0
  1  9  1  0  0  0  0
  2  4  1  0  0  0  0
  2  1  1  0  0  0  0
  3 14  1  0  0  0  0
  3  2  1  0  0  0  0
  4 15  1  6  0  0  0
  4  6  1  0  0  0  0
  4  5  1  0  0  0  0
  6  7  2  0  0  0  0
 10  1  1  0  0  0  0
 11  2  1  0  0  0  0
 12  3  1  0  0  0  0
 13  3  1  0  0  0  0
 16  5  1  0  0  0  0
 17  5  1  0  0  0  0
 18  6  1  0  0  0  0
 18 19  1  0  0  0  0
 19 24  1  0  0  0  0
 19 28  1  1  0  0  0
 20 30  1  0  0  0  0
 20 19  1  0  0  0  0
 21 20  1  0  0  0  0
 21 32  1  0  0  0  0
 22 26  1  0  0  0  0
 22 21  1  0  0  0  0
 23 22  2  0  0  0  0
 24 25  2  0  0  0  0
 27 18  1  0  0  0  0
 29 20  1  0  0  0  0
 31 21  1  0  0  0  0
 33 26  1  0  0  0  0
 34 35  1  0  0  0  0
 34 24  1  0  0  0  0
 35 40  1  0  0  0  0
 35 45  1  1  0  0  0
 36 46  1  0  0  0  0
 36 35  1  0  0  0  0
 37 49  1  0  0  0  0
 37 36  1  0  0  0  0
 38 39  2  0  0  0  0
 38 37  1  0  0  0  0
 40 41  2  0  0  0  0
 40 43  1  0  0  0  0
 42 38  1  0  0  0  0
 44 34  1  0  0  0  0
 47 36  1  0  0  0  0
 48 37  1  0  0  0  0
 50 42  1  0  0  0  0
M  END
$$$$
