VEG.pdb
 OpenBabel07022419253D

 41 40  0  0  1  0  0  0  0  0999 V2000
    0.2270   -5.4670    2.1940 C   0  0  0  0  0  0  0  0  0  0  0  0
    1.0060   -4.2080    1.8850 C   0  0  0  0  0  0  0  0  0  0  0  0
    2.1620   -4.1220    2.8240 C   0  0  0  0  0  0  0  0  0  0  0  0
    0.1160   -2.9870    1.8870 C   0  0  2  0  0  0  0  0  0  0  0  0
   -0.8970   -3.1740    0.8800 N   0  0  0  0  0  0  0  0  0  0  0  0
    0.8550   -1.7340    1.7640 C   0  0  0  0  0  0  0  0  0  0  0  0
    1.7660   -1.4770    2.5970 O   0  0  0  0  0  0  0  0  0  0  0  0
   -0.8710   -5.2550    2.2690 H   0  0  0  0  0  0  0  0  0  0  0  0
    0.3580   -6.2460    1.4160 H   0  0  0  0  0  0  0  0  0  0  0  0
    0.5300   -5.8640    3.2030 H   0  0  0  0  0  0  0  0  0  0  0  0
    1.4240   -4.3450    0.8460 H   0  0  0  0  0  0  0  0  0  0  0  0
    2.6060   -5.1540    2.8820 H   0  0  0  0  0  0  0  0  0  0  0  0
    2.9850   -3.4690    2.4720 H   0  0  0  0  0  0  0  0  0  0  0  0
    1.8410   -3.8820    3.8580 H   0  0  0  0  0  0  0  0  0  0  0  0
   -0.4100   -2.9770    2.8680 H   0  0  0  0  0  0  0  0  0  0  0  0
   -1.8220   -2.8210    1.1590 H   0  0  0  0  0  0  0  0  0  0  0  0
   -0.5980   -2.9700   -0.0760 H   0  0  0  0  0  0  0  0  0  0  0  0
    0.6380   -0.7420    0.7610 N   0  0  0  0  0  0  0  0  0  0  0  0
    1.3960    0.4780    0.6850 C   0  0  1  0  0  0  0  0  0  0  0  0
    2.2630    0.6020   -0.4970 C   0  0  0  0  0  0  0  0  0  0  0  0
    1.6580    0.5030   -1.8430 C   0  0  0  0  0  0  0  0  0  0  0  0
    0.6180    1.4630   -2.1840 C   0  0  0  0  0  0  0  0  0  0  0  0
   -0.5780    1.1660   -1.9730 O   0  0  0  0  0  0  0  0  0  0  0  0
    0.5650    1.6460    0.9860 C   0  0  0  0  0  0  0  0  0  0  0  0
    1.0580    2.8290    1.0260 O   0  0  0  0  0  0  0  0  0  0  0  0
    0.9280    2.6850   -2.7350 O   0  0  0  0  0  0  0  0  0  0  0  0
   -0.1090   -0.9370    0.0680 H   0  0  0  0  0  0  0  0  0  0  0  0
    2.1620    0.4630    1.5730 H   0  0  0  0  0  0  0  0  0  0  0  0
    3.1050   -0.1470   -0.4250 H   0  0  0  0  0  0  0  0  0  0  0  0
    2.7750    1.6160   -0.4250 H   0  0  0  0  0  0  0  0  0  0  0  0
    2.4850    0.6620   -2.6070 H   0  0  0  0  0  0  0  0  0  0  0  0
    1.3180   -0.5550   -2.0740 H   0  0  0  0  0  0  0  0  0  0  0  0
    0.1660    3.2610   -3.1040 H   0  0  0  0  0  0  0  0  0  0  0  0
   -0.8380    1.5920    1.2660 N   0  0  0  0  0  0  0  0  0  0  0  0
   -1.6330    2.7340    1.6040 C   0  0  0  0  0  0  0  0  0  0  0  0
   -1.6490    3.8190    0.6120 C   0  0  0  0  0  0  0  0  0  0  0  0
   -2.3770    4.8640    0.8010 O   0  0  0  0  0  0  0  0  0  0  0  0
   -0.9110    3.7970   -0.5480 O   0  0  0  0  0  0  0  0  0  0  0  0
   -1.2850    0.6170    1.2090 H   0  0  0  0  0  0  0  0  0  0  0  0
   -2.7110    2.3990    1.6970 H   0  0  0  0  0  0  0  0  0  0  0  0
   -1.3310    3.1810    2.5880 H   0  0  0  0  0  0  0  0  0  0  0  0
  1  8  1  0  0  0  0
  1 10  1  0  0  0  0
  2  4  1  0  0  0  0
  2  1  1  0  0  0  0
  2  3  1  0  0  0  0
  3 12  1  0  0  0  0
  3 14  1  0  0  0  0
  4 15  1  1  0  0  0
  5 16  1  0  0  0  0
  5  4  1  0  0  0  0
  6  4  1  0  0  0  0
  6  7  2  0  0  0  0
  9  1  1  0  0  0  0
 11  2  1  0  0  0  0
 13  3  1  0  0  0  0
 17  5  1  0  0  0  0
 18  6  1  0  0  0  0
 19 18  1  0  0  0  0
 19 24  1  0  0  0  0
 19 28  1  1  0  0  0
 20 30  1  0  0  0  0
 20 29  1  0  0  0  0
 20 19  1  0  0  0  0
 21 20  1  0  0  0  0
 22 23  2  0  0  0  0
 22 21  1  0  0  0  0
 24 25  2  0  0  0  0
 24 34  1  0  0  0  0
 26 22  1  0  0  0  0
 27 18  1  0  0  0  0
 31 21  1  0  0  0  0
 32 21  1  0  0  0  0
 33 26  1  0  0  0  0
 34 35  1  0  0  0  0
 35 40  1  0  0  0  0
 35 41  1  0  0  0  0
 36 37  1  0  0  0  0
 36 35  1  0  0  0  0
 38 36  2  0  0  0  0
 39 34  1  0  0  0  0
M  END
$$$$
