VEI.pdb
 OpenBabel07022419253D

 53 52  0  0  1  0  0  0  0  0999 V2000
   -0.3580   -3.0450    3.9940 C   0  0  0  0  0  0  0  0  0  0  0  0
    1.0860   -2.8720    4.3790 C   0  0  0  0  0  0  0  0  0  0  0  0
    1.2380   -1.5590    5.0960 C   0  0  0  0  0  0  0  0  0  0  0  0
    2.0650   -3.0760    3.2740 C   0  0  2  0  0  0  0  0  0  0  0  0
    3.4260   -2.8740    3.8310 N   0  0  0  0  0  0  0  0  0  0  0  0
    1.8830   -2.2370    2.0850 C   0  0  0  0  0  0  0  0  0  0  0  0
    2.7740   -1.3890    1.7850 O   0  0  0  0  0  0  0  0  0  0  0  0
   -0.5450   -4.0060    3.4610 H   0  0  0  0  0  0  0  0  0  0  0  0
   -0.7320   -2.1510    3.4970 H   0  0  0  0  0  0  0  0  0  0  0  0
   -0.9570   -3.1570    4.9480 H   0  0  0  0  0  0  0  0  0  0  0  0
    1.3000   -3.6710    5.1430 H   0  0  0  0  0  0  0  0  0  0  0  0
    2.2710   -1.2180    5.1950 H   0  0  0  0  0  0  0  0  0  0  0  0
    0.5670   -0.8150    4.6070 H   0  0  0  0  0  0  0  0  0  0  0  0
    0.8360   -1.6940    6.1280 H   0  0  0  0  0  0  0  0  0  0  0  0
    2.0380   -4.1420    2.9750 H   0  0  0  0  0  0  0  0  0  0  0  0
    3.4600   -3.4820    4.6830 H   0  0  0  0  0  0  0  0  0  0  0  0
    4.0620   -3.3310    3.1250 H   0  0  0  0  0  0  0  0  0  0  0  0
    0.7600   -2.3060    1.2250 N   0  0  0  0  0  0  0  0  0  0  0  0
    0.6730   -1.4270    0.0670 C   0  0  1  0  0  0  0  0  0  0  0  0
    0.5230   -2.2760   -1.1730 C   0  0  0  0  0  0  0  0  0  0  0  0
    1.7190   -3.1940   -1.3210 C   0  0  0  0  0  0  0  0  0  0  0  0
    1.6000   -4.0430   -2.5330 C   0  0  0  0  0  0  0  0  0  0  0  0
    0.5860   -3.9220   -3.2660 O   0  0  0  0  0  0  0  0  0  0  0  0
   -0.5140   -0.5750    0.2340 C   0  0  0  0  0  0  0  0  0  0  0  0
   -1.2650   -0.6710    1.2490 O   0  0  0  0  0  0  0  0  0  0  0  0
    2.5570   -4.9690   -2.9000 O   0  0  0  0  0  0  0  0  0  0  0  0
   -0.0170   -2.9800    1.3920 H   0  0  0  0  0  0  0  0  0  0  0  0
    1.5590   -0.7620   -0.0020 H   0  0  0  0  0  0  0  0  0  0  0  0
   -0.3630   -2.9200   -1.0290 H   0  0  0  0  0  0  0  0  0  0  0  0
    0.4460   -1.5870   -2.0280 H   0  0  0  0  0  0  0  0  0  0  0  0
    2.6180   -2.5340   -1.5000 H   0  0  0  0  0  0  0  0  0  0  0  0
    1.9350   -3.7560   -0.4050 H   0  0  0  0  0  0  0  0  0  0  0  0
    2.6960   -5.2420   -3.8860 H   0  0  0  0  0  0  0  0  0  0  0  0
   -3.3260    4.0490   -1.6090 C   0  0  0  0  0  0  0  0  0  0  0  0
   -2.5220    3.7430   -0.3940 C   0  0  0  0  0  0  0  0  0  0  0  0
   -1.5430    2.6390   -0.5520 C   0  0  2  0  0  0  0  0  0  0  0  0
   -0.5510    2.8730   -1.6620 C   0  0  0  0  0  0  0  0  0  0  0  0
   -2.0700    1.2620   -0.5760 C   0  0  2  0  0  0  0  0  0  0  0  0
   -0.8630    0.3950   -0.7450 N   0  0  0  0  0  0  0  0  0  0  0  0
   -2.9790    0.8560   -1.6300 C   0  0  0  0  0  0  0  0  0  0  0  0
   -4.1670    1.2670   -1.7250 O   0  0  0  0  0  0  0  0  0  0  0  0
   -2.6070   -0.0400   -2.6480 O   0  0  0  0  0  0  0  0  0  0  0  0
   -4.4030    3.9020   -1.4760 H   0  0  0  0  0  0  0  0  0  0  0  0
   -3.2030    5.1760   -1.7910 H   0  0  0  0  0  0  0  0  0  0  0  0
   -2.9910    3.5190   -2.5140 H   0  0  0  0  0  0  0  0  0  0  0  0
   -3.2030    3.5630    0.4990 H   0  0  0  0  0  0  0  0  0  0  0  0
   -1.9250    4.6520   -0.0640 H   0  0  0  0  0  0  0  0  0  0  0  0
   -0.8560    2.6350    0.4090 H   0  0  0  0  0  0  0  0  0  0  0  0
   -0.8990    2.4340   -2.6240 H   0  0  0  0  0  0  0  0  0  0  0  0
    0.4200    2.4000   -1.4330 H   0  0  0  0  0  0  0  0  0  0  0  0
   -0.3520    3.9580   -1.8410 H   0  0  0  0  0  0  0  0  0  0  0  0
   -2.5170    0.9450    0.3970 H   0  0  0  0  0  0  0  0  0  0  0  0
   -0.2550    0.4800   -1.5770 H   0  0  0  0  0  0  0  0  0  0  0  0
  1  2  1  0  0  0  0
  1 10  1  0  0  0  0
  2  3  1  0  0  0  0
  2 11  1  0  0  0  0
  3 12  1  0  0  0  0
  3 14  1  0  0  0  0
  4 15  1  6  0  0  0
  4  5  1  0  0  0  0
  4  2  1  0  0  0  0
  5 16  1  0  0  0  0
  6  4  1  0  0  0  0
  7  6  2  0  0  0  0
  8  1  1  0  0  0  0
  9  1  1  0  0  0  0
 13  3  1  0  0  0  0
 17  5  1  0  0  0  0
 18 27  1  0  0  0  0
 18  6  1  0  0  0  0
 19 28  1  6  0  0  0
 19 24  1  0  0  0  0
 19 18  1  0  0  0  0
 20 29  1  0  0  0  0
 20 19  1  0  0  0  0
 21 20  1  0  0  0  0
 21 32  1  0  0  0  0
 22 21  1  0  0  0  0
 23 22  2  0  0  0  0
 24 25  2  0  0  0  0
 26 22  1  0  0  0  0
 30 20  1  0  0  0  0
 31 21  1  0  0  0  0
 33 26  1  0  0  0  0
 34 43  1  0  0  0  0
 34 35  1  0  0  0  0
 35 47  1  0  0  0  0
 35 46  1  0  0  0  0
 36 35  1  0  0  0  0
 36 48  1  1  0  0  0
 37 50  1  0  0  0  0
 37 36  1  0  0  0  0
 38 36  1  0  0  0  0
 38 52  1  1  0  0  0
 39 38  1  0  0  0  0
 39 24  1  0  0  0  0
 40 38  1  0  0  0  0
 41 40  1  0  0  0  0
 42 40  2  0  0  0  0
 44 34  1  0  0  0  0
 45 34  1  0  0  0  0
 49 37  1  0  0  0  0
 51 37  1  0  0  0  0
 53 39  1  0  0  0  0
M  END
$$$$
