VEL.pdb
 OpenBabel07022419253D

 53 52  0  0  1  0  0  0  0  0999 V2000
    0.4170   -4.9590    4.4160 C   0  0  0  0  0  0  0  0  0  0  0  0
    0.8620   -3.5230    4.2360 C   0  0  0  0  0  0  0  0  0  0  0  0
    0.7170   -2.8290    5.5520 C   0  0  0  0  0  0  0  0  0  0  0  0
    0.0210   -2.8940    3.1480 C   0  0  2  0  0  0  0  0  0  0  0  0
    0.2190   -3.6430    1.9230 N   0  0  0  0  0  0  0  0  0  0  0  0
    0.3280   -1.4730    2.9420 C   0  0  0  0  0  0  0  0  0  0  0  0
    0.2420   -0.5980    3.8410 O   0  0  0  0  0  0  0  0  0  0  0  0
   -0.3590   -5.2430    3.6510 H   0  0  0  0  0  0  0  0  0  0  0  0
   -0.1060   -5.1100    5.4020 H   0  0  0  0  0  0  0  0  0  0  0  0
    1.2350   -5.6830    4.3120 H   0  0  0  0  0  0  0  0  0  0  0  0
    1.9260   -3.4990    3.9010 H   0  0  0  0  0  0  0  0  0  0  0  0
    1.6650   -2.2980    5.7920 H   0  0  0  0  0  0  0  0  0  0  0  0
   -0.1660   -2.1420    5.5820 H   0  0  0  0  0  0  0  0  0  0  0  0
    0.5550   -3.5510    6.3790 H   0  0  0  0  0  0  0  0  0  0  0  0
   -1.0610   -3.0580    3.4280 H   0  0  0  0  0  0  0  0  0  0  0  0
    0.7380   -4.5160    2.0920 H   0  0  0  0  0  0  0  0  0  0  0  0
   -0.6240   -3.7340    1.3470 H   0  0  0  0  0  0  0  0  0  0  0  0
    0.7520   -1.0360    1.6550 N   0  0  0  0  0  0  0  0  0  0  0  0
    1.0750    0.3780    1.3900 C   0  0  1  0  0  0  0  0  0  0  0  0
    2.5040    0.4170    0.9940 C   0  0  0  0  0  0  0  0  0  0  0  0
    3.0310    1.8000    0.6780 C   0  0  0  0  0  0  0  0  0  0  0  0
    4.4830    1.7060    0.2970 C   0  0  0  0  0  0  0  0  0  0  0  0
    5.1290    2.7400   -0.0070 O   0  0  0  0  0  0  0  0  0  0  0  0
    0.1110    0.8370    0.3840 C   0  0  0  0  0  0  0  0  0  0  0  0
    0.1760    2.0320   -0.0060 O   0  0  0  0  0  0  0  0  0  0  0  0
    5.1320    0.4870    0.2740 O   0  0  0  0  0  0  0  0  0  0  0  0
    0.8310   -1.7460    0.8950 H   0  0  0  0  0  0  0  0  0  0  0  0
    0.9350    0.9680    2.2990 H   0  0  0  0  0  0  0  0  0  0  0  0
    2.7680   -0.2970    0.1840 H   0  0  0  0  0  0  0  0  0  0  0  0
    3.0950    0.0660    1.8850 H   0  0  0  0  0  0  0  0  0  0  0  0
    2.4760    2.3260   -0.1050 H   0  0  0  0  0  0  0  0  0  0  0  0
    3.0070    2.4390    1.5820 H   0  0  0  0  0  0  0  0  0  0  0  0
    5.8630    0.2840   -0.3890 H   0  0  0  0  0  0  0  0  0  0  0  0
   -2.4670    1.6990   -3.8220 C   0  0  0  0  0  0  0  0  0  0  0  0
   -2.7140    0.2390   -3.4790 C   0  0  0  0  0  0  0  0  0  0  0  0
   -2.5590   -0.5110   -4.8040 C   0  0  0  0  0  0  0  0  0  0  0  0
   -1.7500   -0.2650   -2.4560 C   0  0  0  0  0  0  0  0  0  0  0  0
   -1.8500    0.5180   -1.1940 C   0  0  2  0  0  0  0  0  0  0  0  0
   -0.8990    0.0380   -0.1910 N   0  0  0  0  0  0  0  0  0  0  0  0
   -3.1790    0.4380   -0.5610 C   0  0  0  0  0  0  0  0  0  0  0  0
   -3.3120   -0.0350    0.6050 O   0  0  0  0  0  0  0  0  0  0  0  0
   -4.3480    0.8600   -1.1660 O   0  0  0  0  0  0  0  0  0  0  0  0
   -1.3740    1.9250   -3.8380 H   0  0  0  0  0  0  0  0  0  0  0  0
   -2.9540    1.8780   -4.8020 H   0  0  0  0  0  0  0  0  0  0  0  0
   -2.9810    2.3100   -3.0530 H   0  0  0  0  0  0  0  0  0  0  0  0
   -3.7820    0.1390   -3.2250 H   0  0  0  0  0  0  0  0  0  0  0  0
   -3.4270   -0.2160   -5.4310 H   0  0  0  0  0  0  0  0  0  0  0  0
   -1.6520   -0.1390   -5.3130 H   0  0  0  0  0  0  0  0  0  0  0  0
   -2.5880   -1.5970   -4.6690 H   0  0  0  0  0  0  0  0  0  0  0  0
   -1.8140   -1.3620   -2.3060 H   0  0  0  0  0  0  0  0  0  0  0  0
   -0.7200   -0.0750   -2.8810 H   0  0  0  0  0  0  0  0  0  0  0  0
   -1.6690    1.5840   -1.4360 H   0  0  0  0  0  0  0  0  0  0  0  0
   -0.9630   -0.9530    0.1230 H   0  0  0  0  0  0  0  0  0  0  0  0
  1  9  1  0  0  0  0
  2  1  1  0  0  0  0
  2  3  1  0  0  0  0
  3 13  1  0  0  0  0
  3 12  1  0  0  0  0
  3 14  1  0  0  0  0
  4 15  1  1  0  0  0
  4  2  1  0  0  0  0
  5 16  1  0  0  0  0
  5  4  1  0  0  0  0
  6  4  1  0  0  0  0
  6  7  2  0  0  0  0
  8  1  1  0  0  0  0
 10  1  1  0  0  0  0
 11  2  1  0  0  0  0
 17  5  1  0  0  0  0
 18  6  1  0  0  0  0
 19 18  1  0  0  0  0
 19 28  1  1  0  0  0
 20 19  1  0  0  0  0
 20 30  1  0  0  0  0
 21 20  1  0  0  0  0
 21 32  1  0  0  0  0
 22 21  1  0  0  0  0
 23 22  2  0  0  0  0
 24 19  1  0  0  0  0
 25 24  2  0  0  0  0
 26 22  1  0  0  0  0
 27 18  1  0  0  0  0
 29 20  1  0  0  0  0
 31 21  1  0  0  0  0
 33 26  1  0  0  0  0
 34 35  1  0  0  0  0
 34 45  1  0  0  0  0
 35 46  1  0  0  0  0
 35 37  1  0  0  0  0
 36 49  1  0  0  0  0
 36 35  1  0  0  0  0
 37 50  1  0  0  0  0
 37 38  1  0  0  0  0
 38 52  1  6  0  0  0
 38 40  1  0  0  0  0
 38 39  1  0  0  0  0
 39 53  1  0  0  0  0
 39 24  1  0  0  0  0
 40 41  1  0  0  0  0
 42 40  2  0  0  0  0
 43 34  1  0  0  0  0
 44 34  1  0  0  0  0
 47 36  1  0  0  0  0
 48 36  1  0  0  0  0
 51 37  1  0  0  0  0
M  END
$$$$
