VEM.pdb
 OpenBabel07022419253D

 51 50  0  0  1  0  0  0  0  0999 V2000
   -2.6410   -4.3030    3.0190 C   0  0  0  0  0  0  0  0  0  0  0  0
   -2.2230   -3.3340    4.0950 C   0  0  0  0  0  0  0  0  0  0  0  0
   -3.2640   -3.1820    5.1750 C   0  0  0  0  0  0  0  0  0  0  0  0
   -2.0180   -1.9820    3.4550 C   0  0  2  0  0  0  0  0  0  0  0  0
   -3.1750   -1.4500    2.8190 N   0  0  0  0  0  0  0  0  0  0  0  0
   -0.8530   -2.0180    2.5390 C   0  0  0  0  0  0  0  0  0  0  0  0
    0.2350   -2.4930    2.9800 O   0  0  0  0  0  0  0  0  0  0  0  0
   -3.0840   -5.1920    3.5270 H   0  0  0  0  0  0  0  0  0  0  0  0
   -1.6980   -4.6800    2.5350 H   0  0  0  0  0  0  0  0  0  0  0  0
   -3.3300   -3.8850    2.2860 H   0  0  0  0  0  0  0  0  0  0  0  0
   -1.2570   -3.6370    4.5460 H   0  0  0  0  0  0  0  0  0  0  0  0
   -2.7940   -3.0420    6.1900 H   0  0  0  0  0  0  0  0  0  0  0  0
   -3.9320   -4.0490    5.2750 H   0  0  0  0  0  0  0  0  0  0  0  0
   -3.8700   -2.2750    4.9850 H   0  0  0  0  0  0  0  0  0  0  0  0
   -1.7230   -1.2720    4.2770 H   0  0  0  0  0  0  0  0  0  0  0  0
   -3.3670   -0.4730    3.0640 H   0  0  0  0  0  0  0  0  0  0  0  0
   -3.3690   -1.7560    1.8650 H   0  0  0  0  0  0  0  0  0  0  0  0
   -0.8600   -1.5630    1.2090 N   0  0  0  0  0  0  0  0  0  0  0  0
    0.3210   -1.6140    0.3180 C   0  0  1  0  0  0  0  0  0  0  0  0
    0.0730   -2.6000   -0.7620 C   0  0  0  0  0  0  0  0  0  0  0  0
    1.0610   -2.8010   -1.8320 C   0  0  0  0  0  0  0  0  0  0  0  0
    1.2470   -1.7070   -2.7930 C   0  0  0  0  0  0  0  0  0  0  0  0
    0.4390   -0.7720   -2.8570 O   0  0  0  0  0  0  0  0  0  0  0  0
    0.7460   -0.2510   -0.0330 C   0  0  0  0  0  0  0  0  0  0  0  0
   -0.0770    0.7250    0.0980 O   0  0  0  0  0  0  0  0  0  0  0  0
    2.3330   -1.6870   -3.6580 O   0  0  0  0  0  0  0  0  0  0  0  0
   -1.7380   -1.1660    0.8150 H   0  0  0  0  0  0  0  0  0  0  0  0
    1.1060   -2.1010    0.9950 H   0  0  0  0  0  0  0  0  0  0  0  0
   -0.9870   -2.4960   -1.1720 H   0  0  0  0  0  0  0  0  0  0  0  0
   -0.0110   -3.6080   -0.2260 H   0  0  0  0  0  0  0  0  0  0  0  0
    0.7630   -3.6980   -2.4600 H   0  0  0  0  0  0  0  0  0  0  0  0
    2.0300   -3.0960   -1.3420 H   0  0  0  0  0  0  0  0  0  0  0  0
    2.5270   -0.8470   -4.1750 H   0  0  0  0  0  0  0  0  0  0  0  0
   -0.8220    4.3500   -0.3500 C   0  0  0  0  0  0  0  0  0  0  0  0
    0.0280    4.1950   -1.9240 S   0  0  0  0  0  0  0  0  0  0  0  0
    0.7990    2.5240   -2.0800 C   0  0  0  0  0  0  0  0  0  0  0  0
    1.8550    2.4710   -1.0530 C   0  0  0  0  0  0  0  0  0  0  0  0
    2.6550    1.2240   -0.9130 C   0  0  2  0  0  0  0  0  0  0  0  0
    2.0440    0.0280   -0.5050 N   0  0  0  0  0  0  0  0  0  0  0  0
    3.9410    1.5450   -0.2660 C   0  0  0  0  0  0  0  0  0  0  0  0
    4.5740    2.5880   -0.5550 O   0  0  0  0  0  0  0  0  0  0  0  0
    4.5040    0.7020    0.6910 O   0  0  0  0  0  0  0  0  0  0  0  0
   -0.9390    3.3810    0.1850 H   0  0  0  0  0  0  0  0  0  0  0  0
   -0.2860    5.0260    0.3670 H   0  0  0  0  0  0  0  0  0  0  0  0
   -1.8340    4.7950   -0.4830 H   0  0  0  0  0  0  0  0  0  0  0  0
    1.2810    2.5690   -3.1190 H   0  0  0  0  0  0  0  0  0  0  0  0
   -0.0020    1.8280   -2.1160 H   0  0  0  0  0  0  0  0  0  0  0  0
    1.4760    2.7430   -0.0310 H   0  0  0  0  0  0  0  0  0  0  0  0
    2.5940    3.2960   -1.2750 H   0  0  0  0  0  0  0  0  0  0  0  0
    2.8980    1.0180   -2.0550 H   0  0  0  0  0  0  0  0  0  0  0  0
    2.6820   -0.8430   -0.5380 H   0  0  0  0  0  0  0  0  0  0  0  0
  1  8  1  0  0  0  0
  1  2  1  0  0  0  0
  2 11  1  0  0  0  0
  2  3  1  0  0  0  0
  3 13  1  0  0  0  0
  3 12  1  0  0  0  0
  4  2  1  0  0  0  0
  4 15  1  1  0  0  0
  5 16  1  0  0  0  0
  5  4  1  0  0  0  0
  6  7  2  0  0  0  0
  6  4  1  0  0  0  0
  9  1  1  0  0  0  0
 10  1  1  0  0  0  0
 14  3  1  0  0  0  0
 17  5  1  0  0  0  0
 18  6  1  0  0  0  0
 19 28  1  1  0  0  0
 19 18  1  0  0  0  0
 20 30  1  0  0  0  0
 20 19  1  0  0  0  0
 21 32  1  0  0  0  0
 21 20  1  0  0  0  0
 22 21  1  0  0  0  0
 23 22  2  0  0  0  0
 24 25  2  0  0  0  0
 24 19  1  0  0  0  0
 26 22  1  0  0  0  0
 27 18  1  0  0  0  0
 29 20  1  0  0  0  0
 31 21  1  0  0  0  0
 33 26  1  0  0  0  0
 34 43  1  0  0  0  0
 34 44  1  0  0  0  0
 35 34  1  0  0  0  0
 36 35  1  0  0  0  0
 36 37  1  0  0  0  0
 37 38  1  0  0  0  0
 37 48  1  0  0  0  0
 38 50  1  6  0  0  0
 38 39  1  0  0  0  0
 38 40  1  0  0  0  0
 39 24  1  0  0  0  0
 40 42  1  0  0  0  0
 41 40  2  0  0  0  0
 45 34  1  0  0  0  0
 46 36  1  0  0  0  0
 47 36  1  0  0  0  0
 49 37  1  0  0  0  0
 51 39  1  0  0  0  0
M  END
$$$$
