VEN.pdb
 OpenBabel07022419253D

 48 47  0  0  1  0  0  0  0  0999 V2000
   -1.9260   -3.8580    2.9820 C   0  0  0  0  0  0  0  0  0  0  0  0
   -1.1270   -2.6670    2.4400 C   0  0  0  0  0  0  0  0  0  0  0  0
   -1.1970   -1.6000    3.5030 C   0  0  0  0  0  0  0  0  0  0  0  0
    0.2640   -3.1690    2.2000 C   0  0  2  0  0  0  0  0  0  0  0  0
    0.8220   -3.6460    3.4500 N   0  0  0  0  0  0  0  0  0  0  0  0
    1.1570   -2.2120    1.5280 C   0  0  0  0  0  0  0  0  0  0  0  0
    2.2580   -1.9210    2.1090 O   0  0  0  0  0  0  0  0  0  0  0  0
   -3.0160   -3.6350    2.9700 H   0  0  0  0  0  0  0  0  0  0  0  0
   -1.5810   -4.0250    4.0220 H   0  0  0  0  0  0  0  0  0  0  0  0
   -1.6980   -4.7750    2.3920 H   0  0  0  0  0  0  0  0  0  0  0  0
   -1.5800   -2.3790    1.4880 H   0  0  0  0  0  0  0  0  0  0  0  0
   -0.2160   -1.4140    3.9900 H   0  0  0  0  0  0  0  0  0  0  0  0
   -1.9030   -1.8500    4.3260 H   0  0  0  0  0  0  0  0  0  0  0  0
   -1.6100   -0.6840    3.0280 H   0  0  0  0  0  0  0  0  0  0  0  0
    0.1600   -4.0500    1.5000 H   0  0  0  0  0  0  0  0  0  0  0  0
    1.8340   -3.8790    3.2380 H   0  0  0  0  0  0  0  0  0  0  0  0
    0.3520   -4.5780    3.6390 H   0  0  0  0  0  0  0  0  0  0  0  0
    0.9040   -1.5910    0.3030 N   0  0  0  0  0  0  0  0  0  0  0  0
    1.8030   -0.6470   -0.3440 C   0  0  1  0  0  0  0  0  0  0  0  0
    2.2520   -1.1450   -1.6740 C   0  0  0  0  0  0  0  0  0  0  0  0
    3.1760   -0.2600   -2.4290 C   0  0  0  0  0  0  0  0  0  0  0  0
    4.4560    0.0360   -1.7600 C   0  0  0  0  0  0  0  0  0  0  0  0
    5.2580    0.8180   -2.3220 O   0  0  0  0  0  0  0  0  0  0  0  0
    1.0960    0.6590   -0.3960 C   0  0  0  0  0  0  0  0  0  0  0  0
    1.6970    1.6320   -0.9110 O   0  0  0  0  0  0  0  0  0  0  0  0
    4.7770   -0.5190   -0.5600 O   0  0  0  0  0  0  0  0  0  0  0  0
   -0.0010   -1.8180   -0.1930 H   0  0  0  0  0  0  0  0  0  0  0  0
    2.6580   -0.5480    0.3510 H   0  0  0  0  0  0  0  0  0  0  0  0
    1.3500   -1.3760   -2.2890 H   0  0  0  0  0  0  0  0  0  0  0  0
    2.8220   -2.1000   -1.4730 H   0  0  0  0  0  0  0  0  0  0  0  0
    2.6770    0.6890   -2.7850 H   0  0  0  0  0  0  0  0  0  0  0  0
    3.4670   -0.7540   -3.4090 H   0  0  0  0  0  0  0  0  0  0  0  0
    5.6250   -0.3450   -0.0360 H   0  0  0  0  0  0  0  0  0  0  0  0
   -4.4720    0.9700   -0.7010 N   0  0  0  0  0  0  0  0  0  0  0  0
   -3.1830    1.1370   -0.0980 C   0  0  0  0  0  0  0  0  0  0  0  0
   -2.9350    0.4690    0.9130 O   0  0  0  0  0  0  0  0  0  0  0  0
   -2.2050    2.0810   -0.6860 C   0  0  0  0  0  0  0  0  0  0  0  0
   -0.9030    2.1320    0.0500 C   0  0  2  0  0  0  0  0  0  0  0  0
   -0.2130    0.8770    0.0970 N   0  0  0  0  0  0  0  0  0  0  0  0
   -1.1850    2.6370    1.4300 C   0  0  0  0  0  0  0  0  0  0  0  0
   -1.7790    3.7060    1.6470 O   0  0  0  0  0  0  0  0  0  0  0  0
   -0.7650    1.8790    2.5100 O   0  0  0  0  0  0  0  0  0  0  0  0
   -4.7560    0.0280   -1.0150 H   0  0  0  0  0  0  0  0  0  0  0  0
   -5.1330    1.7630   -0.8340 H   0  0  0  0  0  0  0  0  0  0  0  0
   -2.0100    1.8010   -1.7510 H   0  0  0  0  0  0  0  0  0  0  0  0
   -2.7040    3.0710   -0.7160 H   0  0  0  0  0  0  0  0  0  0  0  0
   -0.2930    2.9370   -0.4360 H   0  0  0  0  0  0  0  0  0  0  0  0
   -0.6860    0.0510    0.5200 H   0  0  0  0  0  0  0  0  0  0  0  0
  1  9  1  0  0  0  0
  2  1  1  0  0  0  0
  2  3  1  0  0  0  0
  3 12  1  0  0  0  0
  3 13  1  0  0  0  0
  4 15  1  6  0  0  0
  4  2  1  0  0  0  0
  4  5  1  0  0  0  0
  5 17  1  0  0  0  0
  6  7  2  0  0  0  0
  6  4  1  0  0  0  0
  8  1  1  0  0  0  0
 10  1  1  0  0  0  0
 11  2  1  0  0  0  0
 14  3  1  0  0  0  0
 16  5  1  0  0  0  0
 18  6  1  0  0  0  0
 19 18  1  0  0  0  0
 19 28  1  1  0  0  0
 20 30  1  0  0  0  0
 20 19  1  0  0  0  0
 21 22  1  0  0  0  0
 21 20  1  0  0  0  0
 22 26  1  0  0  0  0
 23 22  2  0  0  0  0
 24 19  1  0  0  0  0
 24 39  1  0  0  0  0
 25 24  2  0  0  0  0
 26 33  1  0  0  0  0
 27 18  1  0  0  0  0
 29 20  1  0  0  0  0
 31 21  1  0  0  0  0
 32 21  1  0  0  0  0
 34 35  1  0  0  0  0
 35 36  2  0  0  0  0
 37 35  1  0  0  0  0
 37 38  1  0  0  0  0
 38 47  1  6  0  0  0
 38 39  1  0  0  0  0
 38 40  1  0  0  0  0
 39 48  1  0  0  0  0
 40 41  2  0  0  0  0
 40 42  1  0  0  0  0
 43 34  1  0  0  0  0
 44 34  1  0  0  0  0
 45 37  1  0  0  0  0
 46 37  1  0  0  0  0
M  END
$$$$
