VEQ.pdb
 OpenBabel07022419253D

 51 50  0  0  1  0  0  0  0  0999 V2000
    1.2430   -4.4060    2.6890 C   0  0  0  0  0  0  0  0  0  0  0  0
    2.3440   -3.9770    1.7640 C   0  0  0  0  0  0  0  0  0  0  0  0
    1.9530   -3.8420    0.3340 C   0  0  0  0  0  0  0  0  0  0  0  0
    3.0120   -2.7580    2.3620 C   0  0  2  0  0  0  0  0  0  0  0  0
    3.5300   -3.2320    3.6650 N   0  0  0  0  0  0  0  0  0  0  0  0
    2.0620   -1.6420    2.5960 C   0  0  0  0  0  0  0  0  0  0  0  0
    1.7350   -1.2910    3.7850 O   0  0  0  0  0  0  0  0  0  0  0  0
    1.4440   -5.3960    3.1750 H   0  0  0  0  0  0  0  0  0  0  0  0
    1.1130   -3.6880    3.5480 H   0  0  0  0  0  0  0  0  0  0  0  0
    0.2590   -4.4710    2.1880 H   0  0  0  0  0  0  0  0  0  0  0  0
    3.1200   -4.8100    1.7860 H   0  0  0  0  0  0  0  0  0  0  0  0
    2.7010   -3.2970   -0.2800 H   0  0  0  0  0  0  0  0  0  0  0  0
    1.9050   -4.8570   -0.1750 H   0  0  0  0  0  0  0  0  0  0  0  0
    0.9190   -3.4590    0.2380 H   0  0  0  0  0  0  0  0  0  0  0  0
    3.8820   -2.4830    1.7430 H   0  0  0  0  0  0  0  0  0  0  0  0
    4.1460   -2.5050    4.0960 H   0  0  0  0  0  0  0  0  0  0  0  0
    4.0290   -4.1230    3.4550 H   0  0  0  0  0  0  0  0  0  0  0  0
    1.5170   -0.9620    1.4840 N   0  0  0  0  0  0  0  0  0  0  0  0
    0.6000    0.1220    1.6060 C   0  0  1  0  0  0  0  0  0  0  0  0
    1.1030    1.4240    1.0720 C   0  0  0  0  0  0  0  0  0  0  0  0
    1.4440    1.3800   -0.3940 C   0  0  0  0  0  0  0  0  0  0  0  0
    1.9340    2.7090   -0.8400 C   0  0  0  0  0  0  0  0  0  0  0  0
    2.0020    3.6470   -0.0070 O   0  0  0  0  0  0  0  0  0  0  0  0
   -0.7160   -0.2690    1.0730 C   0  0  0  0  0  0  0  0  0  0  0  0
   -0.8610   -1.4110    0.6110 O   0  0  0  0  0  0  0  0  0  0  0  0
    2.3170    2.9450   -2.1450 O   0  0  0  0  0  0  0  0  0  0  0  0
    1.8000   -1.2620    0.5310 H   0  0  0  0  0  0  0  0  0  0  0  0
    0.4330    0.2900    2.7130 H   0  0  0  0  0  0  0  0  0  0  0  0
    2.0260    1.6890    1.6260 H   0  0  0  0  0  0  0  0  0  0  0  0
    0.3570    2.2090    1.2810 H   0  0  0  0  0  0  0  0  0  0  0  0
    2.2570    0.6570   -0.6130 H   0  0  0  0  0  0  0  0  0  0  0  0
    0.5660    1.0380   -0.9890 H   0  0  0  0  0  0  0  0  0  0  0  0
    2.7980    3.7710   -2.4600 H   0  0  0  0  0  0  0  0  0  0  0  0
   -2.2330    1.4630   -3.5240 N   0  0  0  0  0  0  0  0  0  0  0  0
   -3.0140    0.9860   -2.4370 C   0  0  0  0  0  0  0  0  0  0  0  0
   -4.0400    1.6150   -2.1230 O   0  0  0  0  0  0  0  0  0  0  0  0
   -2.5400   -0.2580   -1.7400 C   0  0  0  0  0  0  0  0  0  0  0  0
   -3.2670   -0.5650   -0.4870 C   0  0  0  0  0  0  0  0  0  0  0  0
   -3.1140    0.4780    0.6140 C   0  0  2  0  0  0  0  0  0  0  0  0
   -1.7760    0.6430    1.0920 N   0  0  0  0  0  0  0  0  0  0  0  0
   -4.0680    0.3510    1.6930 C   0  0  0  0  0  0  0  0  0  0  0  0
   -3.6870    0.3900    2.8880 O   0  0  0  0  0  0  0  0  0  0  0  0
   -5.4210    0.1830    1.4570 O   0  0  0  0  0  0  0  0  0  0  0  0
   -2.1570    0.9520   -4.4340 H   0  0  0  0  0  0  0  0  0  0  0  0
   -1.7210    2.3780   -3.3650 H   0  0  0  0  0  0  0  0  0  0  0  0
   -2.6370   -1.0750   -2.5010 H   0  0  0  0  0  0  0  0  0  0  0  0
   -1.4540   -0.1750   -1.5590 H   0  0  0  0  0  0  0  0  0  0  0  0
   -4.3720   -0.5720   -0.7500 H   0  0  0  0  0  0  0  0  0  0  0  0
   -3.0540   -1.5740   -0.0960 H   0  0  0  0  0  0  0  0  0  0  0  0
   -3.3920    1.4370    0.0200 H   0  0  0  0  0  0  0  0  0  0  0  0
   -1.5720    1.5980    1.5200 H   0  0  0  0  0  0  0  0  0  0  0  0
  1  8  1  0  0  0  0
  1  9  1  0  0  0  0
  2 11  1  0  0  0  0
  2  4  1  0  0  0  0
  2  1  1  0  0  0  0
  3  2  1  0  0  0  0
  4 15  1  6  0  0  0
  4  6  1  0  0  0  0
  4  5  1  0  0  0  0
  5 16  1  0  0  0  0
  6  7  2  0  0  0  0
 10  1  1  0  0  0  0
 12  3  1  0  0  0  0
 13  3  1  0  0  0  0
 14  3  1  0  0  0  0
 17  5  1  0  0  0  0
 18 19  1  0  0  0  0
 18  6  1  0  0  0  0
 19 28  1  1  0  0  0
 20 30  1  0  0  0  0
 20 19  1  0  0  0  0
 20 29  1  0  0  0  0
 21 20  1  0  0  0  0
 22 21  1  0  0  0  0
 22 23  2  0  0  0  0
 24 40  1  0  0  0  0
 24 19  1  0  0  0  0
 25 24  2  0  0  0  0
 26 22  1  0  0  0  0
 27 18  1  0  0  0  0
 31 21  1  0  0  0  0
 32 21  1  0  0  0  0
 33 26  1  0  0  0  0
 34 45  1  0  0  0  0
 34 35  1  0  0  0  0
 35 36  2  0  0  0  0
 35 37  1  0  0  0  0
 37 47  1  0  0  0  0
 37 38  1  0  0  0  0
 38 49  1  0  0  0  0
 38 39  1  0  0  0  0
 39 50  1  6  0  0  0
 39 40  1  0  0  0  0
 39 41  1  0  0  0  0
 40 51  1  0  0  0  0
 41 42  1  0  0  0  0
 43 41  2  0  0  0  0
 44 34  1  0  0  0  0
 46 37  1  0  0  0  0
 48 38  1  0  0  0  0
M  END
$$$$
