VES.pdb
 OpenBabel07022419253D

 45 44  0  0  1  0  0  0  0  0999 V2000
   -0.6350   -5.0360   -1.0120 C   0  0  0  0  0  0  0  0  0  0  0  0
   -0.2460   -3.8580   -0.1400 C   0  0  0  0  0  0  0  0  0  0  0  0
   -1.4560   -3.0090    0.0750 C   0  0  0  0  0  0  0  0  0  0  0  0
    0.8960   -3.1470   -0.8410 C   0  0  2  0  0  0  0  0  0  0  0  0
    1.9470   -4.1840   -0.9360 N   0  0  0  0  0  0  0  0  0  0  0  0
    1.4660   -2.0430   -0.0630 C   0  0  0  0  0  0  0  0  0  0  0  0
    2.5950   -2.1730    0.5290 O   0  0  0  0  0  0  0  0  0  0  0  0
   -0.1450   -5.9760   -0.6650 H   0  0  0  0  0  0  0  0  0  0  0  0
   -1.7350   -5.1270   -0.9940 H   0  0  0  0  0  0  0  0  0  0  0  0
   -0.3630   -4.8180   -2.0690 H   0  0  0  0  0  0  0  0  0  0  0  0
    0.0950   -4.2760    0.8310 H   0  0  0  0  0  0  0  0  0  0  0  0
   -1.4180   -2.5080    1.0920 H   0  0  0  0  0  0  0  0  0  0  0  0
   -1.6960   -2.3210   -0.7420 H   0  0  0  0  0  0  0  0  0  0  0  0
   -2.3450   -3.7030    0.1680 H   0  0  0  0  0  0  0  0  0  0  0  0
    0.5820   -2.9140   -1.8550 H   0  0  0  0  0  0  0  0  0  0  0  0
    1.8490   -4.6260   -1.8760 H   0  0  0  0  0  0  0  0  0  0  0  0
    2.8630   -3.6830   -0.9300 H   0  0  0  0  0  0  0  0  0  0  0  0
    0.8670   -0.7560    0.1170 N   0  0  0  0  0  0  0  0  0  0  0  0
    1.5500    0.2720    0.9190 C   0  0  1  0  0  0  0  0  0  0  0  0
    1.9770    1.3960    0.0040 C   0  0  0  0  0  0  0  0  0  0  0  0
    2.7170    2.4490    0.7700 C   0  0  0  0  0  0  0  0  0  0  0  0
    3.1280    3.5180   -0.2060 C   0  0  0  0  0  0  0  0  0  0  0  0
    2.2780    3.9600   -0.9940 O   0  0  0  0  0  0  0  0  0  0  0  0
    0.5930    0.7680    1.9150 C   0  0  0  0  0  0  0  0  0  0  0  0
    0.9430    1.5660    2.8630 O   0  0  0  0  0  0  0  0  0  0  0  0
    4.4180    4.0020   -0.2360 O   0  0  0  0  0  0  0  0  0  0  0  0
   -0.0200   -0.5370   -0.3090 H   0  0  0  0  0  0  0  0  0  0  0  0
    2.4470   -0.1260    1.3930 H   0  0  0  0  0  0  0  0  0  0  0  0
    1.1090    1.8840   -0.4920 H   0  0  0  0  0  0  0  0  0  0  0  0
    2.7070    1.0230   -0.7690 H   0  0  0  0  0  0  0  0  0  0  0  0
    2.0640    2.9250    1.5340 H   0  0  0  0  0  0  0  0  0  0  0  0
    3.6080    2.0500    1.3270 H   0  0  0  0  0  0  0  0  0  0  0  0
    4.8180    4.5350   -0.9990 H   0  0  0  0  0  0  0  0  0  0  0  0
   -2.0920    2.9640    1.7280 O   0  0  0  0  0  0  0  0  0  0  0  0
   -2.7400    1.8920    2.3540 C   0  0  0  0  0  0  0  0  0  0  0  0
   -1.6970    0.9810    2.9820 C   0  0  2  0  0  0  0  0  0  0  0  0
   -0.8060    0.4450    1.9640 N   0  0  0  0  0  0  0  0  0  0  0  0
   -2.3220   -0.1110    3.7500 C   0  0  0  0  0  0  0  0  0  0  0  0
   -3.1370    0.2070    4.6400 O   0  0  0  0  0  0  0  0  0  0  0  0
   -2.0730   -1.4560    3.5580 O   0  0  0  0  0  0  0  0  0  0  0  0
   -1.8770    3.6250    2.4410 H   0  0  0  0  0  0  0  0  0  0  0  0
   -3.2600    1.3240    1.5280 H   0  0  0  0  0  0  0  0  0  0  0  0
   -3.4320    2.2600    3.1300 H   0  0  0  0  0  0  0  0  0  0  0  0
   -1.0950    1.6130    3.6880 H   0  0  0  0  0  0  0  0  0  0  0  0
   -1.1680   -0.1980    1.2280 H   0  0  0  0  0  0  0  0  0  0  0  0
  1  9  1  0  0  0  0
  1  8  1  0  0  0  0
  1  2  1  0  0  0  0
  2  3  1  0  0  0  0
  2 11  1  0  0  0  0
  3 14  1  0  0  0  0
  3 12  1  0  0  0  0
  4 15  1  6  0  0  0
  4  2  1  0  0  0  0
  4  6  1  0  0  0  0
  5 17  1  0  0  0  0
  5  4  1  0  0  0  0
  6 18  1  0  0  0  0
  6  7  2  0  0  0  0
 10  1  1  0  0  0  0
 13  3  1  0  0  0  0
 16  5  1  0  0  0  0
 18 19  1  0  0  0  0
 19 28  1  1  0  0  0
 19 24  1  0  0  0  0
 20 21  1  0  0  0  0
 20 19  1  0  0  0  0
 21 32  1  0  0  0  0
 21 31  1  0  0  0  0
 22 21  1  0  0  0  0
 23 22  2  0  0  0  0
 24 37  1  0  0  0  0
 24 25  2  0  0  0  0
 26 22  1  0  0  0  0
 27 18  1  0  0  0  0
 29 20  1  0  0  0  0
 30 20  1  0  0  0  0
 33 26  1  0  0  0  0
 34 35  1  0  0  0  0
 34 41  1  0  0  0  0
 35 36  1  0  0  0  0
 35 43  1  0  0  0  0
 36 44  1  1  0  0  0
 36 38  1  0  0  0  0
 37 36  1  0  0  0  0
 38 39  1  0  0  0  0
 40 38  2  0  0  0  0
 42 35  1  0  0  0  0
 45 37  1  0  0  0  0
M  END
$$$$
