VET.pdb
 OpenBabel07022419253D

 48 47  0  0  1  0  0  0  0  0999 V2000
   -0.1810   -3.2040    3.5630 C   0  0  0  0  0  0  0  0  0  0  0  0
    1.1050   -2.6840    4.1080 C   0  0  0  0  0  0  0  0  0  0  0  0
    1.2690   -3.1040    5.5300 C   0  0  0  0  0  0  0  0  0  0  0  0
    1.3130   -1.2170    3.8880 C   0  0  2  0  0  0  0  0  0  0  0  0
    0.2410   -0.4790    4.5280 N   0  0  0  0  0  0  0  0  0  0  0  0
    1.3210   -0.9050    2.4180 C   0  0  0  0  0  0  0  0  0  0  0  0
    2.2070   -1.4440    1.7570 O   0  0  0  0  0  0  0  0  0  0  0  0
   -0.2810   -4.2820    3.8810 H   0  0  0  0  0  0  0  0  0  0  0  0
   -1.0930   -2.7240    3.9650 H   0  0  0  0  0  0  0  0  0  0  0  0
   -0.1860   -3.2670    2.4310 H   0  0  0  0  0  0  0  0  0  0  0  0
    1.9250   -3.2160    3.5380 H   0  0  0  0  0  0  0  0  0  0  0  0
    2.1080   -2.5910    6.0480 H   0  0  0  0  0  0  0  0  0  0  0  0
    1.4780   -4.2010    5.5360 H   0  0  0  0  0  0  0  0  0  0  0  0
    0.2930   -2.9770    6.0670 H   0  0  0  0  0  0  0  0  0  0  0  0
    2.2660   -0.8480    4.3080 H   0  0  0  0  0  0  0  0  0  0  0  0
    0.3250   -0.5860    5.5700 H   0  0  0  0  0  0  0  0  0  0  0  0
   -0.7050   -0.7390    4.2340 H   0  0  0  0  0  0  0  0  0  0  0  0
    0.3750   -0.0500    1.8340 N   0  0  0  0  0  0  0  0  0  0  0  0
    0.3340    0.3100    0.4610 C   0  0  1  0  0  0  0  0  0  0  0  0
    1.6170    0.2560   -0.3130 C   0  0  0  0  0  0  0  0  0  0  0  0
    2.6810    1.1950    0.2140 C   0  0  0  0  0  0  0  0  0  0  0  0
    3.8950    1.0420   -0.6290 C   0  0  0  0  0  0  0  0  0  0  0  0
    3.9020    1.1570   -1.8840 O   0  0  0  0  0  0  0  0  0  0  0  0
   -0.8170   -0.2520   -0.2120 C   0  0  0  0  0  0  0  0  0  0  0  0
   -1.6160   -0.9840    0.4280 O   0  0  0  0  0  0  0  0  0  0  0  0
    5.1080    0.7510    0.0250 O   0  0  0  0  0  0  0  0  0  0  0  0
   -0.3570    0.3360    2.5280 H   0  0  0  0  0  0  0  0  0  0  0  0
    0.1690    1.4660    0.5000 H   0  0  0  0  0  0  0  0  0  0  0  0
    2.0920   -0.7380   -0.3840 H   0  0  0  0  0  0  0  0  0  0  0  0
    1.4660    0.5590   -1.3840 H   0  0  0  0  0  0  0  0  0  0  0  0
    2.9390    0.9790    1.2500 H   0  0  0  0  0  0  0  0  0  0  0  0
    2.3330    2.2670    0.1120 H   0  0  0  0  0  0  0  0  0  0  0  0
    5.8700    0.2610   -0.4310 H   0  0  0  0  0  0  0  0  0  0  0  0
   -3.9860    0.9870   -1.3190 C   0  0  0  0  0  0  0  0  0  0  0  0
   -3.3590    0.3680   -2.5510 C   0  0  1  0  0  0  0  0  0  0  0  0
   -2.9160    1.3060   -3.4480 O   0  0  0  0  0  0  0  0  0  0  0  0
   -2.3040   -0.6500   -2.1830 C   0  0  2  0  0  0  0  0  0  0  0  0
   -1.1340   -0.0420   -1.5890 N   0  0  0  0  0  0  0  0  0  0  0  0
   -1.8870   -1.3720   -3.4100 C   0  0  0  0  0  0  0  0  0  0  0  0
   -2.7900   -1.9760   -4.0800 O   0  0  0  0  0  0  0  0  0  0  0  0
   -0.6000   -1.4450   -3.8910 O   0  0  0  0  0  0  0  0  0  0  0  0
   -4.2610    0.1950   -0.5780 H   0  0  0  0  0  0  0  0  0  0  0  0
   -3.2840    1.7380   -0.8990 H   0  0  0  0  0  0  0  0  0  0  0  0
   -4.9270    1.5200   -1.5600 H   0  0  0  0  0  0  0  0  0  0  0  0
   -4.1980   -0.1920   -3.0550 H   0  0  0  0  0  0  0  0  0  0  0  0
   -3.5110    2.1120   -3.3900 H   0  0  0  0  0  0  0  0  0  0  0  0
   -2.8130   -1.3270   -1.4360 H   0  0  0  0  0  0  0  0  0  0  0  0
   -0.4750    0.5660   -2.1160 H   0  0  0  0  0  0  0  0  0  0  0  0
  1  8  1  0  0  0  0
  1  9  1  0  0  0  0
  1  2  1  0  0  0  0
  2  3  1  0  0  0  0
  3 13  1  0  0  0  0
  3 12  1  0  0  0  0
  3 14  1  0  0  0  0
  4  2  1  0  0  0  0
  4 15  1  1  0  0  0
  4  5  1  0  0  0  0
  5 16  1  0  0  0  0
  6  4  1  0  0  0  0
  7  6  2  0  0  0  0
 10  1  1  0  0  0  0
 11  2  1  0  0  0  0
 17  5  1  0  0  0  0
 18  6  1  0  0  0  0
 18 27  1  0  0  0  0
 19 28  1  1  0  0  0
 19 18  1  0  0  0  0
 20 21  1  0  0  0  0
 20 19  1  0  0  0  0
 21 31  1  0  0  0  0
 22 26  1  0  0  0  0
 22 21  1  0  0  0  0
 23 22  2  0  0  0  0
 24 25  2  0  0  0  0
 24 19  1  0  0  0  0
 29 20  1  0  0  0  0
 30 20  1  0  0  0  0
 32 21  1  0  0  0  0
 33 26  1  0  0  0  0
 34 43  1  0  0  0  0
 34 42  1  0  0  0  0
 35 45  1  6  0  0  0
 35 37  1  0  0  0  0
 35 34  1  0  0  0  0
 36 46  1  0  0  0  0
 36 35  1  0  0  0  0
 37 38  1  0  0  0  0
 37 47  1  1  0  0  0
 38 24  1  0  0  0  0
 39 37  1  0  0  0  0
 40 39  2  0  0  0  0
 41 39  1  0  0  0  0
 44 34  1  0  0  0  0
 48 38  1  0  0  0  0
M  END
$$$$
