VEV.pdb
 OpenBabel07022419253D

 50 49  0  0  1  0  0  0  0  0999 V2000
    1.0730   -5.2420    1.6500 C   0  0  0  0  0  0  0  0  0  0  0  0
    1.0950   -3.8430    1.0710 C   0  0  0  0  0  0  0  0  0  0  0  0
   -0.2740   -3.5380    0.5570 C   0  0  0  0  0  0  0  0  0  0  0  0
    1.5970   -2.8280    2.0610 C   0  0  2  0  0  0  0  0  0  0  0  0
    0.7500   -2.8160    3.2110 N   0  0  0  0  0  0  0  0  0  0  0  0
    1.7190   -1.5170    1.3860 C   0  0  0  0  0  0  0  0  0  0  0  0
    2.4410   -1.4520    0.3730 O   0  0  0  0  0  0  0  0  0  0  0  0
    0.7870   -5.1760    2.7210 H   0  0  0  0  0  0  0  0  0  0  0  0
    0.2680   -5.8620    1.1590 H   0  0  0  0  0  0  0  0  0  0  0  0
    2.0470   -5.7300    1.5010 H   0  0  0  0  0  0  0  0  0  0  0  0
    1.7940   -3.8070    0.1960 H   0  0  0  0  0  0  0  0  0  0  0  0
   -0.7750   -2.6940    1.0290 H   0  0  0  0  0  0  0  0  0  0  0  0
   -0.2780   -3.3240   -0.5520 H   0  0  0  0  0  0  0  0  0  0  0  0
   -0.9750   -4.4150    0.6590 H   0  0  0  0  0  0  0  0  0  0  0  0
    2.6110   -3.1690    2.4030 H   0  0  0  0  0  0  0  0  0  0  0  0
    1.1100   -2.2250    3.9920 H   0  0  0  0  0  0  0  0  0  0  0  0
   -0.1810   -2.4630    2.9670 H   0  0  0  0  0  0  0  0  0  0  0  0
    1.0700   -0.3450    1.8190 N   0  0  0  0  0  0  0  0  0  0  0  0
    1.1280    0.9540    1.2740 C   0  0  1  0  0  0  0  0  0  0  0  0
    2.2030    1.2620    0.2740 C   0  0  0  0  0  0  0  0  0  0  0  0
    3.6090    1.1780    0.8170 C   0  0  0  0  0  0  0  0  0  0  0  0
    4.5640    1.4620   -0.2910 C   0  0  0  0  0  0  0  0  0  0  0  0
    4.0990    1.7100   -1.4270 O   0  0  0  0  0  0  0  0  0  0  0  0
   -0.1840    1.3840    0.8160 C   0  0  0  0  0  0  0  0  0  0  0  0
   -0.2950    2.5330    0.2990 O   0  0  0  0  0  0  0  0  0  0  0  0
    5.9360    1.4640   -0.1220 O   0  0  0  0  0  0  0  0  0  0  0  0
    0.4340   -0.4260    2.6880 H   0  0  0  0  0  0  0  0  0  0  0  0
    1.4670    1.6430    2.1620 H   0  0  0  0  0  0  0  0  0  0  0  0
    2.0840    0.7300   -0.6820 H   0  0  0  0  0  0  0  0  0  0  0  0
    2.0600    2.3550    0.0160 H   0  0  0  0  0  0  0  0  0  0  0  0
    3.8580    0.3480    1.4510 H   0  0  0  0  0  0  0  0  0  0  0  0
    3.7740    2.0900    1.5180 H   0  0  0  0  0  0  0  0  0  0  0  0
    6.5950    1.4840   -0.8950 H   0  0  0  0  0  0  0  0  0  0  0  0
   -1.9360    0.3890   -1.8010 C   0  0  0  0  0  0  0  0  0  0  0  0
   -2.9870    0.1050   -0.7410 C   0  0  0  0  0  0  0  0  0  0  0  0
   -4.3230    0.5190   -1.3080 C   0  0  0  0  0  0  0  0  0  0  0  0
   -2.6530    0.9790    0.4750 C   0  0  2  0  0  0  0  0  0  0  0  0
   -1.3460    0.6010    0.9100 N   0  0  0  0  0  0  0  0  0  0  0  0
   -3.6900    0.8710    1.4880 C   0  0  0  0  0  0  0  0  0  0  0  0
   -4.8720    1.1740    1.2260 O   0  0  0  0  0  0  0  0  0  0  0  0
   -3.3860    0.4320    2.7600 O   0  0  0  0  0  0  0  0  0  0  0  0
   -0.9960   -0.1770   -1.6140 H   0  0  0  0  0  0  0  0  0  0  0  0
   -2.3060    0.0390   -2.8030 H   0  0  0  0  0  0  0  0  0  0  0  0
   -1.7580    1.4760   -1.9170 H   0  0  0  0  0  0  0  0  0  0  0  0
   -2.9420   -0.9640   -0.4980 H   0  0  0  0  0  0  0  0  0  0  0  0
   -5.1150   -0.0900   -0.8640 H   0  0  0  0  0  0  0  0  0  0  0  0
   -4.4350    1.6080   -1.0830 H   0  0  0  0  0  0  0  0  0  0  0  0
   -4.2950    0.3430   -2.4110 H   0  0  0  0  0  0  0  0  0  0  0  0
   -2.5620    2.0200    0.0470 H   0  0  0  0  0  0  0  0  0  0  0  0
   -1.2480   -0.3630    1.3450 H   0  0  0  0  0  0  0  0  0  0  0  0
  1  8  1  0  0  0  0
  2  1  1  0  0  0  0
  2  4  1  0  0  0  0
  3 14  1  0  0  0  0
  3 12  1  0  0  0  0
  3  2  1  0  0  0  0
  4 15  1  1  0  0  0
  4  5  1  0  0  0  0
  5 16  1  0  0  0  0
  6 18  1  0  0  0  0
  6  4  1  0  0  0  0
  7  6  2  0  0  0  0
  9  1  1  0  0  0  0
 10  1  1  0  0  0  0
 11  2  1  0  0  0  0
 13  3  1  0  0  0  0
 17  5  1  0  0  0  0
 18 27  1  0  0  0  0
 19 18  1  0  0  0  0
 19 28  1  1  0  0  0
 20 21  1  0  0  0  0
 20 19  1  0  0  0  0
 21 31  1  0  0  0  0
 21 32  1  0  0  0  0
 22 26  1  0  0  0  0
 22 21  1  0  0  0  0
 23 22  2  0  0  0  0
 24 38  1  0  0  0  0
 24 19  1  0  0  0  0
 25 24  2  0  0  0  0
 29 20  1  0  0  0  0
 30 20  1  0  0  0  0
 33 26  1  0  0  0  0
 34 42  1  0  0  0  0
 34 35  1  0  0  0  0
 35 45  1  0  0  0  0
 35 37  1  0  0  0  0
 36 47  1  0  0  0  0
 36 46  1  0  0  0  0
 36 35  1  0  0  0  0
 37 49  1  6  0  0  0
 37 38  1  0  0  0  0
 37 39  1  0  0  0  0
 38 50  1  0  0  0  0
 39 41  1  0  0  0  0
 40 39  2  0  0  0  0
 43 34  1  0  0  0  0
 44 34  1  0  0  0  0
 48 36  1  0  0  0  0
M  END
$$$$
