VEW.pdb
 OpenBabel07022419253D

 58 59  0  0  1  0  0  0  0  0999 V2000
    3.2970    3.0620    4.2720 C   0  0  0  0  0  0  0  0  0  0  0  0
    3.3210    1.6510    4.7470 C   0  0  0  0  0  0  0  0  0  0  0  0
    2.3730    1.4230    5.8810 C   0  0  0  0  0  0  0  0  0  0  0  0
    3.1220    0.6290    3.6570 C   0  0  2  0  0  0  0  0  0  0  0  0
    4.1550    0.7250    2.6430 N   0  0  0  0  0  0  0  0  0  0  0  0
    1.7780    0.6750    3.0550 C   0  0  0  0  0  0  0  0  0  0  0  0
    0.7790    0.6160    3.8170 O   0  0  0  0  0  0  0  0  0  0  0  0
    4.3060    3.3710    3.9630 H   0  0  0  0  0  0  0  0  0  0  0  0
    2.5070    3.2880    3.5310 H   0  0  0  0  0  0  0  0  0  0  0  0
    3.0510    3.7050    5.1670 H   0  0  0  0  0  0  0  0  0  0  0  0
    4.3560    1.4590    5.1550 H   0  0  0  0  0  0  0  0  0  0  0  0
    2.1970    0.3330    6.0360 H   0  0  0  0  0  0  0  0  0  0  0  0
    1.4230    1.9970    5.7740 H   0  0  0  0  0  0  0  0  0  0  0  0
    2.8530    1.7960    6.8120 H   0  0  0  0  0  0  0  0  0  0  0  0
    3.2690   -0.3770    4.1490 H   0  0  0  0  0  0  0  0  0  0  0  0
    4.0230   -0.1160    2.0100 H   0  0  0  0  0  0  0  0  0  0  0  0
    5.0830    0.5400    3.1210 H   0  0  0  0  0  0  0  0  0  0  0  0
    1.6280    0.7820    1.6520 N   0  0  0  0  0  0  0  0  0  0  0  0
    0.2640    0.8240    1.1020 C   0  0  1  0  0  0  0  0  0  0  0  0
    0.1060    2.1790    0.5020 C   0  0  0  0  0  0  0  0  0  0  0  0
   -1.1890    2.5010   -0.1400 C   0  0  0  0  0  0  0  0  0  0  0  0
   -1.1880    3.9250   -0.6590 C   0  0  0  0  0  0  0  0  0  0  0  0
   -0.1860    4.6700   -0.5210 O   0  0  0  0  0  0  0  0  0  0  0  0
    0.0080   -0.3250    0.2460 C   0  0  0  0  0  0  0  0  0  0  0  0
    0.9630   -1.1260   -0.0780 O   0  0  0  0  0  0  0  0  0  0  0  0
   -2.2910    4.4470   -1.3000 O   0  0  0  0  0  0  0  0  0  0  0  0
    2.4310    0.8330    0.9760 H   0  0  0  0  0  0  0  0  0  0  0  0
   -0.4300    0.7680    1.9630 H   0  0  0  0  0  0  0  0  0  0  0  0
    0.2200    2.9060    1.3640 H   0  0  0  0  0  0  0  0  0  0  0  0
    0.9510    2.4050   -0.1910 H   0  0  0  0  0  0  0  0  0  0  0  0
   -1.3580    1.8860   -1.0720 H   0  0  0  0  0  0  0  0  0  0  0  0
   -2.0870    2.3730    0.4830 H   0  0  0  0  0  0  0  0  0  0  0  0
   -2.2660    5.1860   -1.9790 H   0  0  0  0  0  0  0  0  0  0  0  0
   -1.2790   -0.6210   -0.2610 N   0  0  0  0  0  0  0  0  0  0  0  0
   -1.5160   -1.7750   -1.1050 C   0  0  1  0  0  0  0  0  0  0  0  0
   -2.3830   -2.8120   -0.4430 C   0  0  0  0  0  0  0  0  0  0  0  0
   -2.5540   -3.9370   -1.3980 C   0  0  0  0  0  0  0  0  0  0  0  0
   -3.7090   -4.2100   -2.1420 C   0  0  0  0  0  0  0  0  0  0  0  0
   -3.5110   -5.3100   -2.9030 N   0  0  0  0  0  0  0  0  0  0  0  0
   -2.2730   -5.7730   -2.6890 C   0  0  0  0  0  0  0  0  0  0  0  0
   -1.6180   -6.8550   -3.2240 C   0  0  0  0  0  0  0  0  0  0  0  0
   -0.3060   -7.0990   -2.8070 C   0  0  0  0  0  0  0  0  0  0  0  0
    0.2880   -6.2680   -1.8900 C   0  0  0  0  0  0  0  0  0  0  0  0
   -0.3770   -5.1740   -1.3500 C   0  0  0  0  0  0  0  0  0  0  0  0
   -1.6750   -4.9350   -1.7650 C   0  0  0  0  0  0  0  0  0  0  0  0
   -1.9710   -1.3930   -2.4450 C   0  0  0  0  0  0  0  0  0  0  0  0
   -2.1950   -2.2630   -3.3200 O   0  0  0  0  0  0  0  0  0  0  0  0
   -2.1590   -0.0600   -2.7520 O   0  0  0  0  0  0  0  0  0  0  0  0
   -2.1160   -0.0420   -0.0450 H   0  0  0  0  0  0  0  0  0  0  0  0
   -0.5190   -2.2770   -1.2430 H   0  0  0  0  0  0  0  0  0  0  0  0
   -1.8100   -3.2250    0.4280 H   0  0  0  0  0  0  0  0  0  0  0  0
   -3.3720   -2.4610   -0.1570 H   0  0  0  0  0  0  0  0  0  0  0  0
   -4.6170   -3.6020   -2.0920 H   0  0  0  0  0  0  0  0  0  0  0  0
   -4.2310   -5.7200   -3.5520 H   0  0  0  0  0  0  0  0  0  0  0  0
   -2.0190   -7.5470   -3.9450 H   0  0  0  0  0  0  0  0  0  0  0  0
    0.2580   -7.9400   -3.1980 H   0  0  0  0  0  0  0  0  0  0  0  0
    1.3100   -6.4400   -1.5500 H   0  0  0  0  0  0  0  0  0  0  0  0
    0.0630   -4.5180   -0.6370 H   0  0  0  0  0  0  0  0  0  0  0  0
  1  2  1  0  0  0  0
  1 10  1  0  0  0  0
  2 11  1  0  0  0  0
  2  3  1  0  0  0  0
  3 12  1  0  0  0  0
  3 14  1  0  0  0  0
  4 15  1  1  0  0  0
  4  2  1  0  0  0  0
  5 17  1  0  0  0  0
  5  4  1  0  0  0  0
  6  4  1  0  0  0  0
  6  7  2  0  0  0  0
  8  1  1  0  0  0  0
  9  1  1  0  0  0  0
 13  3  1  0  0  0  0
 16  5  1  0  0  0  0
 18  6  1  0  0  0  0
 19 18  1  0  0  0  0
 19 28  1  1  0  0  0
 20 19  1  0  0  0  0
 20 29  1  0  0  0  0
 21 32  1  0  0  0  0
 21 20  1  0  0  0  0
 22 23  2  0  0  0  0
 22 21  1  0  0  0  0
 24 19  1  0  0  0  0
 25 24  2  0  0  0  0
 26 22  1  0  0  0  0
 27 18  1  0  0  0  0
 30 20  1  0  0  0  0
 31 21  1  0  0  0  0
 33 26  1  0  0  0  0
 34 49  1  0  0  0  0
 34 24  1  0  0  0  0
 35 50  1  6  0  0  0
 35 36  1  0  0  0  0
 35 34  1  0  0  0  0
 36 52  1  0  0  0  0
 36 51  1  0  0  0  0
 37 36  1  0  0  0  0
 38 53  1  0  0  0  0
 38 37  2  0  0  0  0
 39 40  1  0  0  0  0
 39 38  1  0  0  0  0
 40 45  1  0  0  0  0
 41 42  1  0  0  0  0
 41 40  2  0  0  0  0
 42 43  2  0  0  0  0
 43 57  1  0  0  0  0
 43 44  1  0  0  0  0
 44 58  1  0  0  0  0
 45 37  1  0  0  0  0
 45 44  2  0  0  0  0
 46 35  1  0  0  0  0
 47 46  2  0  0  0  0
 48 46  1  0  0  0  0
 54 39  1  0  0  0  0
 55 41  1  0  0  0  0
 56 42  1  0  0  0  0
M  END
$$$$
