VEY.pdb
 OpenBabel07022419253D

 55 55  0  0  1  0  0  0  0  0999 V2000
    0.8480    1.0310    3.2930 C   0  0  0  0  0  0  0  0  0  0  0  0
    0.7900   -0.4550    3.4550 C   0  0  0  0  0  0  0  0  0  0  0  0
   -0.5100   -1.0670    2.9820 C   0  0  0  0  0  0  0  0  0  0  0  0
    2.0140   -1.1740    2.9710 C   0  0  2  0  0  0  0  0  0  0  0  0
    3.1240   -0.6460    3.7820 N   0  0  0  0  0  0  0  0  0  0  0  0
    2.3520   -0.9850    1.5660 C   0  0  0  0  0  0  0  0  0  0  0  0
    3.4550   -0.4450    1.2660 O   0  0  0  0  0  0  0  0  0  0  0  0
   -0.1980    1.4260    3.1700 H   0  0  0  0  0  0  0  0  0  0  0  0
    1.5060    1.3620    2.4750 H   0  0  0  0  0  0  0  0  0  0  0  0
    1.2300    1.5570    4.2170 H   0  0  0  0  0  0  0  0  0  0  0  0
    0.7820   -0.6270    4.5790 H   0  0  0  0  0  0  0  0  0  0  0  0
   -1.2990   -0.9690    3.7890 H   0  0  0  0  0  0  0  0  0  0  0  0
   -0.4260   -2.1540    2.8220 H   0  0  0  0  0  0  0  0  0  0  0  0
   -0.9490   -0.5180    2.1240 H   0  0  0  0  0  0  0  0  0  0  0  0
    1.8670   -2.2510    3.1610 H   0  0  0  0  0  0  0  0  0  0  0  0
    2.9250    0.3620    3.9860 H   0  0  0  0  0  0  0  0  0  0  0  0
    4.0120   -0.6350    3.1990 H   0  0  0  0  0  0  0  0  0  0  0  0
    1.4990   -1.3790    0.4890 N   0  0  0  0  0  0  0  0  0  0  0  0
    1.9160   -1.1570   -0.8590 C   0  0  1  0  0  0  0  0  0  0  0  0
    2.1270   -2.4780   -1.6060 C   0  0  0  0  0  0  0  0  0  0  0  0
    3.1730   -3.3210   -0.9500 C   0  0  0  0  0  0  0  0  0  0  0  0
    3.3220   -4.5660   -1.7160 C   0  0  0  0  0  0  0  0  0  0  0  0
    2.6680   -4.8550   -2.7500 O   0  0  0  0  0  0  0  0  0  0  0  0
    0.9340   -0.3540   -1.6620 C   0  0  0  0  0  0  0  0  0  0  0  0
    1.2070   -0.0990   -2.8730 O   0  0  0  0  0  0  0  0  0  0  0  0
    4.2690   -5.4920   -1.2470 O   0  0  0  0  0  0  0  0  0  0  0  0
    0.5760   -1.8270    0.6780 H   0  0  0  0  0  0  0  0  0  0  0  0
    2.9140   -0.6740   -0.8610 H   0  0  0  0  0  0  0  0  0  0  0  0
    1.1370   -2.9950   -1.5670 H   0  0  0  0  0  0  0  0  0  0  0  0
    2.3620   -2.2600   -2.6620 H   0  0  0  0  0  0  0  0  0  0  0  0
    4.1310   -2.7210   -0.9540 H   0  0  0  0  0  0  0  0  0  0  0  0
    2.8810   -3.5100    0.1000 H   0  0  0  0  0  0  0  0  0  0  0  0
    4.2700   -6.4460   -1.5440 H   0  0  0  0  0  0  0  0  0  0  0  0
   -5.0690   -0.5560    2.8380 O   0  0  0  0  0  0  0  0  0  0  0  0
   -4.4500   -0.3420    1.5990 C   0  0  0  0  0  0  0  0  0  0  0  0
   -3.5880   -1.2880    1.0780 C   0  0  0  0  0  0  0  0  0  0  0  0
   -2.9660   -1.1000   -0.1390 C   0  0  0  0  0  0  0  0  0  0  0  0
   -3.1900    0.0490   -0.8760 C   0  0  0  0  0  0  0  0  0  0  0  0
   -2.5100    0.2270   -2.1820 C   0  0  0  0  0  0  0  0  0  0  0  0
   -1.1750    0.9190   -2.0320 C   0  0  2  0  0  0  0  0  0  0  0  0
   -0.2780    0.1420   -1.1690 N   0  0  0  0  0  0  0  0  0  0  0  0
   -1.3350    2.2810   -1.4900 C   0  0  0  0  0  0  0  0  0  0  0  0
   -0.7400    2.6090   -0.4390 O   0  0  0  0  0  0  0  0  0  0  0  0
   -4.0570    0.9950   -0.3470 C   0  0  0  0  0  0  0  0  0  0  0  0
   -4.6790    0.8070    0.8700 C   0  0  0  0  0  0  0  0  0  0  0  0
   -2.1450    3.1800   -2.1580 O   0  0  0  0  0  0  0  0  0  0  0  0
   -5.9190   -1.0610    2.9570 H   0  0  0  0  0  0  0  0  0  0  0  0
   -3.4270   -2.1920    1.6830 H   0  0  0  0  0  0  0  0  0  0  0  0
   -2.2970   -1.8620   -0.5160 H   0  0  0  0  0  0  0  0  0  0  0  0
   -3.1040    0.8380   -2.8920 H   0  0  0  0  0  0  0  0  0  0  0  0
   -2.3250   -0.7500   -2.6730 H   0  0  0  0  0  0  0  0  0  0  0  0
   -0.7410    1.0190   -3.0470 H   0  0  0  0  0  0  0  0  0  0  0  0
   -0.5350   -0.0480   -0.1780 H   0  0  0  0  0  0  0  0  0  0  0  0
   -4.2380    1.8960   -0.9170 H   0  0  0  0  0  0  0  0  0  0  0  0
   -5.3440    1.5770    1.2340 H   0  0  0  0  0  0  0  0  0  0  0  0
  1  2  1  0  0  0  0
  1 10  1  0  0  0  0
  2 11  1  0  0  0  0
  3  2  1  0  0  0  0
  3 12  1  0  0  0  0
  4 15  1  1  0  0  0
  4  2  1  0  0  0  0
  4  5  1  0  0  0  0
  5 16  1  0  0  0  0
  6  4  1  0  0  0  0
  7  6  2  0  0  0  0
  8  1  1  0  0  0  0
  9  1  1  0  0  0  0
 13  3  1  0  0  0  0
 14  3  1  0  0  0  0
 17  5  1  0  0  0  0
 18 27  1  0  0  0  0
 18  6  1  0  0  0  0
 19 28  1  1  0  0  0
 19 18  1  0  0  0  0
 20 29  1  0  0  0  0
 20 21  1  0  0  0  0
 20 19  1  0  0  0  0
 21 32  1  0  0  0  0
 22 26  1  0  0  0  0
 22 21  1  0  0  0  0
 23 22  2  0  0  0  0
 24 41  1  0  0  0  0
 24 19  1  0  0  0  0
 25 24  2  0  0  0  0
 30 20  1  0  0  0  0
 31 21  1  0  0  0  0
 33 26  1  0  0  0  0
 34 47  1  0  0  0  0
 35 34  1  0  0  0  0
 36 35  1  0  0  0  0
 36 48  1  0  0  0  0
 37 36  2  0  0  0  0
 38 44  2  0  0  0  0
 38 37  1  0  0  0  0
 39 40  1  0  0  0  0
 39 38  1  0  0  0  0
 40 52  1  6  0  0  0
 40 42  1  0  0  0  0
 40 41  1  0  0  0  0
 41 53  1  0  0  0  0
 42 43  1  0  0  0  0
 44 45  1  0  0  0  0
 45 55  1  0  0  0  0
 45 35  2  0  0  0  0
 46 42  2  0  0  0  0
 49 37  1  0  0  0  0
 50 39  1  0  0  0  0
 51 39  1  0  0  0  0
 54 44  1  0  0  0  0
M  END
$$$$
