VFC.pdb
 OpenBabel07022419273D

 49 49  0  0  1  0  0  0  0  0999 V2000
    3.0000   -2.3970    2.8790 C   0  0  0  0  0  0  0  0  0  0  0  0
    3.3710   -1.6420    1.6060 C   0  0  0  0  0  0  0  0  0  0  0  0
    3.4810   -0.1800    1.9560 C   0  0  0  0  0  0  0  0  0  0  0  0
    2.3500   -1.9010    0.5280 C   0  0  2  0  0  0  0  0  0  0  0  0
    2.6610   -1.2060   -0.6880 N   0  0  0  0  0  0  0  0  0  0  0  0
    1.0120   -1.5200    1.0340 C   0  0  0  0  0  0  0  0  0  0  0  0
    0.5930   -1.9590    2.1240 O   0  0  0  0  0  0  0  0  0  0  0  0
    2.4310   -1.7600    3.5710 H   0  0  0  0  0  0  0  0  0  0  0  0
    2.4490   -3.3050    2.5800 H   0  0  0  0  0  0  0  0  0  0  0  0
    3.9620   -2.6470    3.4010 H   0  0  0  0  0  0  0  0  0  0  0  0
    4.3890   -1.9660    1.2800 H   0  0  0  0  0  0  0  0  0  0  0  0
    4.5010   -0.0040    2.3870 H   0  0  0  0  0  0  0  0  0  0  0  0
    2.7690    0.0630    2.7910 H   0  0  0  0  0  0  0  0  0  0  0  0
    3.3740    0.4980    1.1100 H   0  0  0  0  0  0  0  0  0  0  0  0
    2.3940   -2.9960    0.2980 H   0  0  0  0  0  0  0  0  0  0  0  0
    2.1000   -1.6220   -1.4590 H   0  0  0  0  0  0  0  0  0  0  0  0
    2.5130   -0.1770   -0.6110 H   0  0  0  0  0  0  0  0  0  0  0  0
    0.1180   -0.6390    0.3220 N   0  0  0  0  0  0  0  0  0  0  0  0
   -1.1760   -0.3050    0.8540 C   0  0  1  0  0  0  0  0  0  0  0  0
   -1.3220    1.1880    0.9220 C   0  0  0  0  0  0  0  0  0  0  0  0
   -0.2900    1.7860    1.7940 C   0  0  0  0  0  0  0  0  0  0  0  0
    0.9240    2.2180    1.3040 C   0  0  0  0  0  0  0  0  0  0  0  0
    1.8890    2.7870    2.1150 C   0  0  0  0  0  0  0  0  0  0  0  0
    1.6240    2.9260    3.4630 C   0  0  0  0  0  0  0  0  0  0  0  0
    0.3990    2.4910    3.9680 C   0  0  0  0  0  0  0  0  0  0  0  0
   -0.5530    1.9260    3.1490 C   0  0  0  0  0  0  0  0  0  0  0  0
   -2.2780   -0.9190    0.0470 C   0  0  0  0  0  0  0  0  0  0  0  0
   -3.4550   -0.6980    0.4110 O   0  0  0  0  0  0  0  0  0  0  0  0
    0.4760   -0.2740   -0.5860 H   0  0  0  0  0  0  0  0  0  0  0  0
   -1.3130   -0.6940    1.8940 H   0  0  0  0  0  0  0  0  0  0  0  0
   -2.3460    1.4770    1.2650 H   0  0  0  0  0  0  0  0  0  0  0  0
   -1.2070    1.5700   -0.1340 H   0  0  0  0  0  0  0  0  0  0  0  0
    1.1800    2.1290    0.2450 H   0  0  0  0  0  0  0  0  0  0  0  0
    2.8460    3.1290    1.7370 H   0  0  0  0  0  0  0  0  0  0  0  0
    2.3850    3.3730    4.0970 H   0  0  0  0  0  0  0  0  0  0  0  0
    0.2290    2.6190    5.0410 H   0  0  0  0  0  0  0  0  0  0  0  0
   -1.5080    1.5870    3.5410 H   0  0  0  0  0  0  0  0  0  0  0  0
   -2.0310   -1.7220   -1.0900 N   0  0  0  0  0  0  0  0  0  0  0  0
   -3.0810   -2.3260   -1.8860 C   0  0  1  0  0  0  0  0  0  0  0  0
   -2.9680   -1.7500   -3.2860 C   0  0  0  0  0  0  0  0  0  0  0  0
   -3.1850    0.0590   -3.1310 S   0  0  0  0  0  0  0  0  0  0  0  0
   -3.0120   -3.8020   -1.8730 C   0  0  0  0  0  0  0  0  0  0  0  0
   -2.1050   -4.3600   -1.2130 O   0  0  0  0  0  0  0  0  0  0  0  0
   -3.9140   -4.5770   -2.5660 O   0  0  0  0  0  0  0  0  0  0  0  0
   -1.0510   -1.9090   -1.3970 H   0  0  0  0  0  0  0  0  0  0  0  0
   -4.0470   -2.0300   -1.4290 H   0  0  0  0  0  0  0  0  0  0  0  0
   -3.6890   -2.1740   -3.9900 H   0  0  0  0  0  0  0  0  0  0  0  0
   -1.9520   -1.8980   -3.7020 H   0  0  0  0  0  0  0  0  0  0  0  0
   -4.4300    0.3420   -2.5100 H   0  0  0  0  0  0  0  0  0  0  0  0
  1 10  1  0  0  0  0
  1  8  1  0  0  0  0
  2  3  1  0  0  0  0
  2  1  1  0  0  0  0
  3 12  1  0  0  0  0
  3 13  1  0  0  0  0
  4 15  1  6  0  0  0
  4  6  1  0  0  0  0
  4  2  1  0  0  0  0
  5 17  1  0  0  0  0
  5  4  1  0  0  0  0
  6  7  2  0  0  0  0
  9  1  1  0  0  0  0
 11  2  1  0  0  0  0
 14  3  1  0  0  0  0
 16  5  1  0  0  0  0
 18 19  1  0  0  0  0
 18  6  1  0  0  0  0
 19 20  1  0  0  0  0
 19 30  1  1  0  0  0
 20 31  1  0  0  0  0
 20 21  1  0  0  0  0
 21 26  1  0  0  0  0
 22 21  2  0  0  0  0
 22 23  1  0  0  0  0
 23 24  2  0  0  0  0
 24 25  1  0  0  0  0
 24 35  1  0  0  0  0
 25 36  1  0  0  0  0
 26 37  1  0  0  0  0
 26 25  2  0  0  0  0
 27 28  2  0  0  0  0
 27 19  1  0  0  0  0
 29 18  1  0  0  0  0
 32 20  1  0  0  0  0
 33 22  1  0  0  0  0
 34 23  1  0  0  0  0
 38 27  1  0  0  0  0
 39 42  1  0  0  0  0
 39 46  1  1  0  0  0
 39 38  1  0  0  0  0
 40 41  1  0  0  0  0
 40 39  1  0  0  0  0
 41 49  1  0  0  0  0
 42 43  1  0  0  0  0
 44 42  2  0  0  0  0
 45 38  1  0  0  0  0
 47 40  1  0  0  0  0
 48 40  1  0  0  0  0
M  END
$$$$
