VFD.pdb
 OpenBabel07022419263D

 51 51  0  0  1  0  0  0  0  0999 V2000
    2.6830   -4.0340    5.1630 C   0  0  0  0  0  0  0  0  0  0  0  0
    1.6500   -3.0620    4.6410 C   0  0  0  0  0  0  0  0  0  0  0  0
    1.8080   -1.7960    5.4190 C   0  0  0  0  0  0  0  0  0  0  0  0
    1.8260   -2.9270    3.1650 C   0  0  2  0  0  0  0  0  0  0  0  0
    3.1310   -2.4340    2.7870 N   0  0  0  0  0  0  0  0  0  0  0  0
    0.7610   -2.1720    2.4820 C   0  0  0  0  0  0  0  0  0  0  0  0
   -0.4330   -2.3910    2.7720 O   0  0  0  0  0  0  0  0  0  0  0  0
    3.6850   -3.8750    4.7670 H   0  0  0  0  0  0  0  0  0  0  0  0
    2.6830   -3.8830    6.2860 H   0  0  0  0  0  0  0  0  0  0  0  0
    2.3000   -5.0580    4.9750 H   0  0  0  0  0  0  0  0  0  0  0  0
    0.6440   -3.4890    4.8650 H   0  0  0  0  0  0  0  0  0  0  0  0
    1.2230   -1.9210    6.3810 H   0  0  0  0  0  0  0  0  0  0  0  0
    2.8630   -1.6440    5.7780 H   0  0  0  0  0  0  0  0  0  0  0  0
    1.3840   -0.8990    4.9460 H   0  0  0  0  0  0  0  0  0  0  0  0
    1.8050   -3.9950    2.7690 H   0  0  0  0  0  0  0  0  0  0  0  0
    3.6440   -3.0650    2.1430 H   0  0  0  0  0  0  0  0  0  0  0  0
    3.7560   -2.2380    3.5950 H   0  0  0  0  0  0  0  0  0  0  0  0
    1.0630   -1.2000    1.5000 N   0  0  0  0  0  0  0  0  0  0  0  0
   -0.0770   -0.4830    0.8670 C   0  0  1  0  0  0  0  0  0  0  0  0
    0.2280    0.9540    1.0180 C   0  0  0  0  0  0  0  0  0  0  0  0
   -0.7450    1.9130    0.4700 C   0  0  0  0  0  0  0  0  0  0  0  0
   -1.8780    2.3460    1.1410 C   0  0  0  0  0  0  0  0  0  0  0  0
   -2.7510    3.2720    0.6000 C   0  0  0  0  0  0  0  0  0  0  0  0
   -2.5130    3.8000   -0.6460 C   0  0  0  0  0  0  0  0  0  0  0  0
   -1.3920    3.3910   -1.3440 C   0  0  0  0  0  0  0  0  0  0  0  0
   -0.5380    2.4720   -0.7900 C   0  0  0  0  0  0  0  0  0  0  0  0
   -0.3290   -1.0250   -0.4640 C   0  0  0  0  0  0  0  0  0  0  0  0
    0.4240   -1.9170   -0.9980 O   0  0  0  0  0  0  0  0  0  0  0  0
    2.0170   -0.9520    1.1930 H   0  0  0  0  0  0  0  0  0  0  0  0
   -1.0010   -0.7220    1.4750 H   0  0  0  0  0  0  0  0  0  0  0  0
    1.2560    1.1260    0.6150 H   0  0  0  0  0  0  0  0  0  0  0  0
    0.3410    1.1950    2.1240 H   0  0  0  0  0  0  0  0  0  0  0  0
   -2.0480    1.9210    2.1240 H   0  0  0  0  0  0  0  0  0  0  0  0
   -3.6330    3.5950    1.1490 H   0  0  0  0  0  0  0  0  0  0  0  0
   -3.2060    4.5350   -1.0750 H   0  0  0  0  0  0  0  0  0  0  0  0
   -1.2080    3.8060   -2.3300 H   0  0  0  0  0  0  0  0  0  0  0  0
    0.3610    2.1400   -1.3100 H   0  0  0  0  0  0  0  0  0  0  0  0
   -1.4240   -0.6340   -1.2960 N   0  0  0  0  0  0  0  0  0  0  0  0
   -1.6750   -1.2060   -2.5870 C   0  0  1  0  0  0  0  0  0  0  0  0
   -0.7250   -0.9040   -3.6820 C   0  0  0  0  0  0  0  0  0  0  0  0
   -0.5600    0.5050   -4.0520 C   0  0  0  0  0  0  0  0  0  0  0  0
    0.4890    1.0860   -3.7530 O   0  0  0  0  0  0  0  0  0  0  0  0
   -1.8120   -2.7160   -2.4760 C   0  0  0  0  0  0  0  0  0  0  0  0
   -1.7660   -3.2670   -1.3590 O   0  0  0  0  0  0  0  0  0  0  0  0
   -1.5380    1.2250   -4.7310 O   0  0  0  0  0  0  0  0  0  0  0  0
   -1.9860   -3.4740   -3.6070 O   0  0  0  0  0  0  0  0  0  0  0  0
   -2.0750    0.1150   -0.8960 H   0  0  0  0  0  0  0  0  0  0  0  0
   -2.7240   -0.8710   -2.9020 H   0  0  0  0  0  0  0  0  0  0  0  0
    0.2650   -1.3940   -3.4580 H   0  0  0  0  0  0  0  0  0  0  0  0
   -1.0420   -1.4240   -4.6430 H   0  0  0  0  0  0  0  0  0  0  0  0
   -1.2970    2.0800   -5.2300 H   0  0  0  0  0  0  0  0  0  0  0  0
  1  9  1  0  0  0  0
  2 11  1  0  0  0  0
  2  1  1  0  0  0  0
  2  3  1  0  0  0  0
  3 13  1  0  0  0  0
  3 12  1  0  0  0  0
  4 15  1  6  0  0  0
  4  2  1  0  0  0  0
  5  4  1  0  0  0  0
  5 17  1  0  0  0  0
  6  7  2  0  0  0  0
  6  4  1  0  0  0  0
  8  1  1  0  0  0  0
 10  1  1  0  0  0  0
 14  3  1  0  0  0  0
 16  5  1  0  0  0  0
 18  6  1  0  0  0  0
 19 20  1  0  0  0  0
 19 30  1  1  0  0  0
 19 18  1  0  0  0  0
 20 32  1  0  0  0  0
 21 20  1  0  0  0  0
 21 22  1  0  0  0  0
 22 33  1  0  0  0  0
 23 22  2  0  0  0  0
 23 34  1  0  0  0  0
 24 23  1  0  0  0  0
 25 26  1  0  0  0  0
 25 24  2  0  0  0  0
 26 21  2  0  0  0  0
 27 19  1  0  0  0  0
 28 27  2  0  0  0  0
 29 18  1  0  0  0  0
 31 20  1  0  0  0  0
 35 24  1  0  0  0  0
 36 25  1  0  0  0  0
 37 26  1  0  0  0  0
 38 47  1  0  0  0  0
 38 27  1  0  0  0  0
 39 48  1  6  0  0  0
 39 43  1  0  0  0  0
 39 38  1  0  0  0  0
 40 49  1  0  0  0  0
 40 39  1  0  0  0  0
 41 42  2  0  0  0  0
 41 40  1  0  0  0  0
 43 44  1  0  0  0  0
 45 41  1  0  0  0  0
 46 43  2  0  0  0  0
 50 40  1  0  0  0  0
 51 45  1  0  0  0  0
M  END
$$$$
