VFF.pdb
 OpenBabel07022419273D

 58 59  0  0  1  0  0  0  0  0999 V2000
    0.9780    3.2160    3.3840 C   0  0  0  0  0  0  0  0  0  0  0  0
    1.4430    2.0820    4.2410 C   0  0  0  0  0  0  0  0  0  0  0  0
    0.3180    1.5480    5.1020 C   0  0  0  0  0  0  0  0  0  0  0  0
    2.1310    0.9810    3.4720 C   0  0  2  0  0  0  0  0  0  0  0  0
    3.2830    1.5330    2.8110 N   0  0  0  0  0  0  0  0  0  0  0  0
    1.2230    0.2820    2.5160 C   0  0  0  0  0  0  0  0  0  0  0  0
    0.1260   -0.1970    2.9050 O   0  0  0  0  0  0  0  0  0  0  0  0
    1.6220    3.3280    2.4940 H   0  0  0  0  0  0  0  0  0  0  0  0
    1.0100    4.2010    3.9210 H   0  0  0  0  0  0  0  0  0  0  0  0
   -0.0970    3.0990    3.0750 H   0  0  0  0  0  0  0  0  0  0  0  0
    2.2130    2.4890    4.9380 H   0  0  0  0  0  0  0  0  0  0  0  0
   -0.6250    1.6440    4.4930 H   0  0  0  0  0  0  0  0  0  0  0  0
    0.4210    0.4830    5.3300 H   0  0  0  0  0  0  0  0  0  0  0  0
    0.1440    2.1690    6.0070 H   0  0  0  0  0  0  0  0  0  0  0  0
    2.4500    0.2280    4.2490 H   0  0  0  0  0  0  0  0  0  0  0  0
    3.7610    2.1900    3.4590 H   0  0  0  0  0  0  0  0  0  0  0  0
    3.9050    0.7700    2.5190 H   0  0  0  0  0  0  0  0  0  0  0  0
    1.5250    0.1100    1.1350 N   0  0  0  0  0  0  0  0  0  0  0  0
    0.6200   -0.5780    0.2400 C   0  0  1  0  0  0  0  0  0  0  0  0
    0.3030    0.2850   -0.9170 C   0  0  0  0  0  0  0  0  0  0  0  0
   -0.3370    1.5340   -0.4440 C   0  0  0  0  0  0  0  0  0  0  0  0
   -1.7060    1.6170   -0.2900 C   0  0  0  0  0  0  0  0  0  0  0  0
   -2.3260    2.7810    0.1390 C   0  0  0  0  0  0  0  0  0  0  0  0
   -1.5890    3.9100    0.4310 C   0  0  0  0  0  0  0  0  0  0  0  0
   -0.2210    3.8270    0.2780 C   0  0  0  0  0  0  0  0  0  0  0  0
    0.3990    2.6700   -0.1490 C   0  0  0  0  0  0  0  0  0  0  0  0
    1.1640   -1.9080   -0.1300 C   0  0  0  0  0  0  0  0  0  0  0  0
    2.2760   -2.2250    0.3510 O   0  0  0  0  0  0  0  0  0  0  0  0
    2.4410    0.5000    0.7600 H   0  0  0  0  0  0  0  0  0  0  0  0
   -0.3060   -0.7980    0.8270 H   0  0  0  0  0  0  0  0  0  0  0  0
   -0.3780   -0.1620   -1.6630 H   0  0  0  0  0  0  0  0  0  0  0  0
    1.2130    0.5930   -1.5030 H   0  0  0  0  0  0  0  0  0  0  0  0
   -2.3270    0.7370   -0.5140 H   0  0  0  0  0  0  0  0  0  0  0  0
   -3.4090    2.8270    0.2540 H   0  0  0  0  0  0  0  0  0  0  0  0
   -2.0610    4.8310    0.7690 H   0  0  0  0  0  0  0  0  0  0  0  0
    0.3620    4.7120    0.5060 H   0  0  0  0  0  0  0  0  0  0  0  0
    1.4800    2.5890   -0.2750 H   0  0  0  0  0  0  0  0  0  0  0  0
    0.5120   -2.8190   -0.9760 N   0  0  0  0  0  0  0  0  0  0  0  0
    1.0880   -4.1090   -1.3100 C   0  0  1  0  0  0  0  0  0  0  0  0
    0.1780   -5.1520   -0.6470 C   0  0  0  0  0  0  0  0  0  0  0  0
   -1.2010   -5.0500   -1.1560 C   0  0  0  0  0  0  0  0  0  0  0  0
   -2.1220   -4.2310   -0.5430 C   0  0  0  0  0  0  0  0  0  0  0  0
   -3.4120   -4.1480   -1.0320 C   0  0  0  0  0  0  0  0  0  0  0  0
   -3.7590   -4.8890   -2.1320 C   0  0  0  0  0  0  0  0  0  0  0  0
   -2.8520   -5.7250   -2.7740 C   0  0  0  0  0  0  0  0  0  0  0  0
   -1.5700   -5.7870   -2.2610 C   0  0  0  0  0  0  0  0  0  0  0  0
    1.2100   -4.3120   -2.7520 C   0  0  0  0  0  0  0  0  0  0  0  0
    1.6910   -5.3750   -3.1970 O   0  0  0  0  0  0  0  0  0  0  0  0
    0.7970   -3.3370   -3.6360 O   0  0  0  0  0  0  0  0  0  0  0  0
   -0.3960   -2.5890   -1.3830 H   0  0  0  0  0  0  0  0  0  0  0  0
    2.0820   -4.1990   -0.8150 H   0  0  0  0  0  0  0  0  0  0  0  0
    0.1940   -4.8980    0.4450 H   0  0  0  0  0  0  0  0  0  0  0  0
    0.5990   -6.1640   -0.7300 H   0  0  0  0  0  0  0  0  0  0  0  0
   -1.8810   -3.6440    0.3120 H   0  0  0  0  0  0  0  0  0  0  0  0
   -4.1400   -3.4950   -0.5400 H   0  0  0  0  0  0  0  0  0  0  0  0
   -4.7660   -4.8540   -2.5520 H   0  0  0  0  0  0  0  0  0  0  0  0
   -3.1360   -6.2980   -3.6310 H   0  0  0  0  0  0  0  0  0  0  0  0
   -0.8740   -6.4400   -2.7680 H   0  0  0  0  0  0  0  0  0  0  0  0
  1  9  1  0  0  0  0
  1  2  1  0  0  0  0
  2 11  1  0  0  0  0
  2  3  1  0  0  0  0
  3 13  1  0  0  0  0
  3 14  1  0  0  0  0
  4  2  1  0  0  0  0
  4 15  1  1  0  0  0
  5 16  1  0  0  0  0
  5  4  1  0  0  0  0
  6  7  2  0  0  0  0
  6  4  1  0  0  0  0
  8  1  1  0  0  0  0
 10  1  1  0  0  0  0
 12  3  1  0  0  0  0
 17  5  1  0  0  0  0
 18  6  1  0  0  0  0
 19 30  1  1  0  0  0
 19 18  1  0  0  0  0
 20 21  1  0  0  0  0
 20 19  1  0  0  0  0
 21 22  2  0  0  0  0
 21 26  1  0  0  0  0
 22 23  1  0  0  0  0
 23 34  1  0  0  0  0
 23 24  2  0  0  0  0
 24 35  1  0  0  0  0
 25 24  1  0  0  0  0
 25 36  1  0  0  0  0
 26 25  2  0  0  0  0
 27 19  1  0  0  0  0
 27 28  2  0  0  0  0
 29 18  1  0  0  0  0
 31 20  1  0  0  0  0
 32 20  1  0  0  0  0
 33 22  1  0  0  0  0
 37 26  1  0  0  0  0
 38 27  1  0  0  0  0
 39 38  1  0  0  0  0
 39 51  1  1  0  0  0
 39 40  1  0  0  0  0
 40 52  1  0  0  0  0
 41 40  1  0  0  0  0
 41 42  1  0  0  0  0
 42 54  1  0  0  0  0
 43 42  2  0  0  0  0
 43 55  1  0  0  0  0
 44 43  1  0  0  0  0
 45 46  1  0  0  0  0
 45 44  2  0  0  0  0
 46 41  2  0  0  0  0
 47 39  1  0  0  0  0
 48 47  1  0  0  0  0
 49 47  2  0  0  0  0
 50 38  1  0  0  0  0
 53 40  1  0  0  0  0
 56 44  1  0  0  0  0
 57 45  1  0  0  0  0
 58 46  1  0  0  0  0
M  END
$$$$
