VFG.pdb
 OpenBabel07022419273D

 45 45  0  0  1  0  0  0  0  0999 V2000
   -1.0940   -5.6300    0.9500 C   0  0  0  0  0  0  0  0  0  0  0  0
   -0.5870   -4.2010    1.1890 C   0  0  0  0  0  0  0  0  0  0  0  0
   -1.7410   -3.3150    1.5550 C   0  0  0  0  0  0  0  0  0  0  0  0
    0.0170   -3.6980   -0.1190 C   0  0  2  0  0  0  0  0  0  0  0  0
    1.1020   -4.6810   -0.3910 N   0  0  0  0  0  0  0  0  0  0  0  0
    0.6970   -2.4240    0.1270 C   0  0  0  0  0  0  0  0  0  0  0  0
    1.9520   -2.4220    0.3830 O   0  0  0  0  0  0  0  0  0  0  0  0
   -0.2410   -6.3100    1.0760 H   0  0  0  0  0  0  0  0  0  0  0  0
   -1.8810   -5.7990    1.6950 H   0  0  0  0  0  0  0  0  0  0  0  0
   -1.4960   -5.6280   -0.0820 H   0  0  0  0  0  0  0  0  0  0  0  0
    0.2150   -4.2390    1.9270 H   0  0  0  0  0  0  0  0  0  0  0  0
   -1.3840   -2.5440    2.2700 H   0  0  0  0  0  0  0  0  0  0  0  0
   -2.2230   -2.8170    0.7030 H   0  0  0  0  0  0  0  0  0  0  0  0
   -2.5280   -3.8800    2.1270 H   0  0  0  0  0  0  0  0  0  0  0  0
   -0.6980   -3.7200   -0.9380 H   0  0  0  0  0  0  0  0  0  0  0  0
    1.8500   -4.4450    0.2930 H   0  0  0  0  0  0  0  0  0  0  0  0
    1.4580   -4.4380   -1.3370 H   0  0  0  0  0  0  0  0  0  0  0  0
    0.1180   -1.1320    0.1140 N   0  0  0  0  0  0  0  0  0  0  0  0
    0.8760    0.0770    0.3680 C   0  0  1  0  0  0  0  0  0  0  0  0
    1.1230    0.8330   -0.9270 C   0  0  0  0  0  0  0  0  0  0  0  0
    1.8990    2.0760   -0.6880 C   0  0  0  0  0  0  0  0  0  0  0  0
    1.2850    3.2810   -0.4600 C   0  0  0  0  0  0  0  0  0  0  0  0
    2.0350    4.4090   -0.2430 C   0  0  0  0  0  0  0  0  0  0  0  0
    3.4200    4.4000   -0.2410 C   0  0  0  0  0  0  0  0  0  0  0  0
    4.0370    3.1970   -0.4690 C   0  0  0  0  0  0  0  0  0  0  0  0
    3.2950    2.0630   -0.6870 C   0  0  0  0  0  0  0  0  0  0  0  0
    0.2570    0.9030    1.4090 C   0  0  0  0  0  0  0  0  0  0  0  0
    0.7970    1.9470    1.8530 O   0  0  0  0  0  0  0  0  0  0  0  0
   -0.8890   -1.0440   -0.0910 H   0  0  0  0  0  0  0  0  0  0  0  0
    1.8940   -0.2470    0.6970 H   0  0  0  0  0  0  0  0  0  0  0  0
    0.1210    1.1480   -1.2950 H   0  0  0  0  0  0  0  0  0  0  0  0
    1.6770    0.2350   -1.6490 H   0  0  0  0  0  0  0  0  0  0  0  0
    0.1980    3.3090   -0.4570 H   0  0  0  0  0  0  0  0  0  0  0  0
    1.5310    5.3670   -0.0610 H   0  0  0  0  0  0  0  0  0  0  0  0
    3.9770    5.3220   -0.0640 H   0  0  0  0  0  0  0  0  0  0  0  0
    5.1350    3.1690   -0.4720 H   0  0  0  0  0  0  0  0  0  0  0  0
    3.7650    1.1070   -0.8680 H   0  0  0  0  0  0  0  0  0  0  0  0
   -0.9980    0.5630    1.9740 N   0  0  0  0  0  0  0  0  0  0  0  0
   -1.6080    1.3960    3.0170 C   0  0  0  0  0  0  0  0  0  0  0  0
   -2.9030    0.8150    3.4220 C   0  0  0  0  0  0  0  0  0  0  0  0
   -3.5960    1.3700    4.3060 O   0  0  0  0  0  0  0  0  0  0  0  0
   -3.4050   -0.3490    2.8560 O   0  0  0  0  0  0  0  0  0  0  0  0
   -1.5300   -0.2750    1.6690 H   0  0  0  0  0  0  0  0  0  0  0  0
   -1.7810    2.4130    2.6250 H   0  0  0  0  0  0  0  0  0  0  0  0
   -0.9080    1.4490    3.8940 H   0  0  0  0  0  0  0  0  0  0  0  0
  1  8  1  0  0  0  0
  1  2  1  0  0  0  0
  1  9  1  0  0  0  0
  2  3  1  0  0  0  0
  2 11  1  0  0  0  0
  3 14  1  0  0  0  0
  3 12  1  0  0  0  0
  4 15  1  6  0  0  0
  4  6  1  0  0  0  0
  4  2  1  0  0  0  0
  5  4  1  0  0  0  0
  5 16  1  0  0  0  0
  6  7  2  0  0  0  0
 10  1  1  0  0  0  0
 13  3  1  0  0  0  0
 17  5  1  0  0  0  0
 18  6  1  0  0  0  0
 18 19  1  0  0  0  0
 19 30  1  1  0  0  0
 19 27  1  0  0  0  0
 20 21  1  0  0  0  0
 20 19  1  0  0  0  0
 21 26  2  0  0  0  0
 21 22  1  0  0  0  0
 22 33  1  0  0  0  0
 22 23  2  0  0  0  0
 23 24  1  0  0  0  0
 23 34  1  0  0  0  0
 24 35  1  0  0  0  0
 25 24  2  0  0  0  0
 26 25  1  0  0  0  0
 27 28  2  0  0  0  0
 27 38  1  0  0  0  0
 29 18  1  0  0  0  0
 31 20  1  0  0  0  0
 32 20  1  0  0  0  0
 36 25  1  0  0  0  0
 37 26  1  0  0  0  0
 38 39  1  0  0  0  0
 39 40  1  0  0  0  0
 39 45  1  0  0  0  0
 40 41  1  0  0  0  0
 42 40  2  0  0  0  0
 43 38  1  0  0  0  0
 44 39  1  0  0  0  0
M  END
$$$$
