VFH.pdb
 OpenBabel07022419273D

 55 56  0  0  1  0  0  0  0  0999 V2000
    1.5590    1.2570    4.1920 C   0  0  0  0  0  0  0  0  0  0  0  0
    2.1410   -0.0940    4.5210 C   0  0  0  0  0  0  0  0  0  0  0  0
    3.1570    0.0180    5.6060 C   0  0  0  0  0  0  0  0  0  0  0  0
    2.6420   -0.7590    3.2610 C   0  0  2  0  0  0  0  0  0  0  0  0
    3.6530   -0.0150    2.5910 N   0  0  0  0  0  0  0  0  0  0  0  0
    1.4480   -1.0230    2.4050 C   0  0  0  0  0  0  0  0  0  0  0  0
    0.4900   -1.6390    2.9310 O   0  0  0  0  0  0  0  0  0  0  0  0
    1.7310    1.9640    5.0420 H   0  0  0  0  0  0  0  0  0  0  0  0
    1.9410    1.6380    3.2420 H   0  0  0  0  0  0  0  0  0  0  0  0
    0.4640    1.1500    4.1050 H   0  0  0  0  0  0  0  0  0  0  0  0
    1.3170   -0.7660    4.9010 H   0  0  0  0  0  0  0  0  0  0  0  0
    3.1150   -0.9190    6.2180 H   0  0  0  0  0  0  0  0  0  0  0  0
    2.8850    0.8340    6.3230 H   0  0  0  0  0  0  0  0  0  0  0  0
    4.1980    0.1030    5.2750 H   0  0  0  0  0  0  0  0  0  0  0  0
    3.1230   -1.7500    3.5380 H   0  0  0  0  0  0  0  0  0  0  0  0
    3.3660    0.8070    2.0570 H   0  0  0  0  0  0  0  0  0  0  0  0
    4.3830    0.2720    3.2740 H   0  0  0  0  0  0  0  0  0  0  0  0
    1.3580   -0.6150    1.0550 N   0  0  0  0  0  0  0  0  0  0  0  0
    0.2210   -0.8580    0.2110 C   0  0  1  0  0  0  0  0  0  0  0  0
   -0.3950    0.4080   -0.3380 C   0  0  0  0  0  0  0  0  0  0  0  0
   -0.8730    1.3210    0.7270 C   0  0  0  0  0  0  0  0  0  0  0  0
   -0.0870    2.2990    1.2820 C   0  0  0  0  0  0  0  0  0  0  0  0
   -0.5860    3.1300    2.2760 C   0  0  0  0  0  0  0  0  0  0  0  0
   -1.8850    2.9670    2.7060 C   0  0  0  0  0  0  0  0  0  0  0  0
   -2.7040    1.9970    2.1730 C   0  0  0  0  0  0  0  0  0  0  0  0
   -2.1810    1.1930    1.1930 C   0  0  0  0  0  0  0  0  0  0  0  0
    0.5830   -1.7630   -0.9350 C   0  0  0  0  0  0  0  0  0  0  0  0
    1.7670   -2.1690   -1.0040 O   0  0  0  0  0  0  0  0  0  0  0  0
    2.1860   -0.1050    0.6700 H   0  0  0  0  0  0  0  0  0  0  0  0
   -0.5480   -1.3680    0.8550 H   0  0  0  0  0  0  0  0  0  0  0  0
    0.3110    0.9300   -1.0180 H   0  0  0  0  0  0  0  0  0  0  0  0
   -1.2920    0.1060   -0.9350 H   0  0  0  0  0  0  0  0  0  0  0  0
    0.9430    2.3990    0.9140 H   0  0  0  0  0  0  0  0  0  0  0  0
    0.0610    3.9010    2.7010 H   0  0  0  0  0  0  0  0  0  0  0  0
   -2.2780    3.6110    3.4790 H   0  0  0  0  0  0  0  0  0  0  0  0
   -3.7120    1.9250    2.5580 H   0  0  0  0  0  0  0  0  0  0  0  0
   -2.8180    0.4340    0.7750 H   0  0  0  0  0  0  0  0  0  0  0  0
   -0.3600   -2.1590   -1.9160 N   0  0  0  0  0  0  0  0  0  0  0  0
   -0.0240   -3.0310   -3.0260 C   0  0  1  0  0  0  0  0  0  0  0  0
   -0.9580   -4.2350   -2.9380 C   0  0  0  0  0  0  0  0  0  0  0  0
   -2.3580   -3.7500   -3.0380 C   0  0  0  0  0  0  0  0  0  0  0  0
   -3.0750   -3.6020   -4.2210 C   0  0  0  0  0  0  0  0  0  0  0  0
   -4.3000   -3.1460   -3.9460 N   0  0  0  0  0  0  0  0  0  0  0  0
   -4.3800   -3.0010   -2.6130 C   0  0  0  0  0  0  0  0  0  0  0  0
   -3.2050   -3.3670   -2.0650 N   0  0  0  0  0  0  0  0  0  0  0  0
   -0.2990   -2.3760   -4.3300 C   0  0  0  0  0  0  0  0  0  0  0  0
   -0.7620   -1.2130   -4.3140 O   0  0  0  0  0  0  0  0  0  0  0  0
   -0.0570   -3.0150   -5.5140 O   0  0  0  0  0  0  0  0  0  0  0  0
   -1.3290   -1.7900   -1.8060 H   0  0  0  0  0  0  0  0  0  0  0  0
    1.0230   -3.3420   -3.0170 H   0  0  0  0  0  0  0  0  0  0  0  0
   -0.8390   -4.6260   -1.8970 H   0  0  0  0  0  0  0  0  0  0  0  0
   -0.7190   -4.9930   -3.7030 H   0  0  0  0  0  0  0  0  0  0  0  0
   -2.7190   -3.8140   -5.2180 H   0  0  0  0  0  0  0  0  0  0  0  0
   -5.0640   -2.9370   -4.6370 H   0  0  0  0  0  0  0  0  0  0  0  0
   -5.2740   -2.6430   -2.1190 H   0  0  0  0  0  0  0  0  0  0  0  0
  1  2  1  0  0  0  0
  1  8  1  0  0  0  0
  2 11  1  0  0  0  0
  2  3  1  0  0  0  0
  3 12  1  0  0  0  0
  3 13  1  0  0  0  0
  4 15  1  1  0  0  0
  4  2  1  0  0  0  0
  5  4  1  0  0  0  0
  5 17  1  0  0  0  0
  6  7  2  0  0  0  0
  6  4  1  0  0  0  0
  9  1  1  0  0  0  0
 10  1  1  0  0  0  0
 14  3  1  0  0  0  0
 16  5  1  0  0  0  0
 18  6  1  0  0  0  0
 19 30  1  1  0  0  0
 19 18  1  0  0  0  0
 20 19  1  0  0  0  0
 20 21  1  0  0  0  0
 21 26  2  0  0  0  0
 21 22  1  0  0  0  0
 22 23  2  0  0  0  0
 23 34  1  0  0  0  0
 23 24  1  0  0  0  0
 24 35  1  0  0  0  0
 25 36  1  0  0  0  0
 25 24  2  0  0  0  0
 26 25  1  0  0  0  0
 27 19  1  0  0  0  0
 28 27  2  0  0  0  0
 29 18  1  0  0  0  0
 31 20  1  0  0  0  0
 32 20  1  0  0  0  0
 33 22  1  0  0  0  0
 37 26  1  0  0  0  0
 38 49  1  0  0  0  0
 38 27  1  0  0  0  0
 39 50  1  1  0  0  0
 39 40  1  0  0  0  0
 39 38  1  0  0  0  0
 40 51  1  0  0  0  0
 41 40  1  0  0  0  0
 41 45  1  0  0  0  0
 42 43  1  0  0  0  0
 42 41  2  0  0  0  0
 43 44  1  0  0  0  0
 44 55  1  0  0  0  0
 44 45  2  0  0  0  0
 46 47  1  0  0  0  0
 46 39  1  0  0  0  0
 48 46  2  0  0  0  0
 52 40  1  0  0  0  0
 53 42  1  0  0  0  0
 54 43  1  0  0  0  0
M  END
$$$$
