VFI.pdb
 OpenBabel07022419273D

 57 57  0  0  1  0  0  0  0  0999 V2000
    1.9730   -0.5560    6.2510 C   0  0  0  0  0  0  0  0  0  0  0  0
    1.0200   -0.3330    5.1010 C   0  0  0  0  0  0  0  0  0  0  0  0
    0.5590    1.1080    5.1570 C   0  0  0  0  0  0  0  0  0  0  0  0
    1.6980   -0.6780    3.8170 C   0  0  2  0  0  0  0  0  0  0  0  0
    2.8560    0.1370    3.6220 N   0  0  0  0  0  0  0  0  0  0  0  0
    0.8090   -0.7390    2.6510 C   0  0  0  0  0  0  0  0  0  0  0  0
   -0.3080   -1.3530    2.7710 O   0  0  0  0  0  0  0  0  0  0  0  0
    2.9530   -0.9560    5.8720 H   0  0  0  0  0  0  0  0  0  0  0  0
    2.1330    0.3650    6.8470 H   0  0  0  0  0  0  0  0  0  0  0  0
    1.5910   -1.3550    6.9190 H   0  0  0  0  0  0  0  0  0  0  0  0
    0.1260   -0.9640    5.2850 H   0  0  0  0  0  0  0  0  0  0  0  0
    0.2690    1.3870    6.2090 H   0  0  0  0  0  0  0  0  0  0  0  0
   -0.3880    1.2450    4.5700 H   0  0  0  0  0  0  0  0  0  0  0  0
    1.3530    1.8200    4.8600 H   0  0  0  0  0  0  0  0  0  0  0  0
    2.1010   -1.7310    3.9640 H   0  0  0  0  0  0  0  0  0  0  0  0
    3.5720   -0.2320    2.9880 H   0  0  0  0  0  0  0  0  0  0  0  0
    3.2270    0.5300    4.5060 H   0  0  0  0  0  0  0  0  0  0  0  0
    1.0650   -0.1740    1.3740 N   0  0  0  0  0  0  0  0  0  0  0  0
    0.1520   -0.2640    0.2730 C   0  0  1  0  0  0  0  0  0  0  0  0
   -0.2520    1.0330   -0.3280 C   0  0  0  0  0  0  0  0  0  0  0  0
   -0.9380    1.9380    0.6600 C   0  0  0  0  0  0  0  0  0  0  0  0
   -2.3030    1.8810    0.8490 C   0  0  0  0  0  0  0  0  0  0  0  0
   -2.9700    2.6900    1.7330 C   0  0  0  0  0  0  0  0  0  0  0  0
   -2.2630    3.5960    2.4640 C   0  0  0  0  0  0  0  0  0  0  0  0
   -0.8810    3.6830    2.3000 C   0  0  0  0  0  0  0  0  0  0  0  0
   -0.2180    2.8570    1.4000 C   0  0  0  0  0  0  0  0  0  0  0  0
    0.5960   -1.1770   -0.7960 C   0  0  0  0  0  0  0  0  0  0  0  0
    1.7190   -1.7480   -0.6200 O   0  0  0  0  0  0  0  0  0  0  0  0
    1.9970    0.3300    1.2860 H   0  0  0  0  0  0  0  0  0  0  0  0
   -0.7870   -0.7480    0.6670 H   0  0  0  0  0  0  0  0  0  0  0  0
   -1.0220    0.8210   -1.1010 H   0  0  0  0  0  0  0  0  0  0  0  0
    0.5640    1.5640   -0.8570 H   0  0  0  0  0  0  0  0  0  0  0  0
   -2.9010    1.1590    0.2740 H   0  0  0  0  0  0  0  0  0  0  0  0
   -4.0500    2.6590    1.8940 H   0  0  0  0  0  0  0  0  0  0  0  0
   -2.7060    4.2640    3.1760 H   0  0  0  0  0  0  0  0  0  0  0  0
   -0.3310    4.4090    2.8870 H   0  0  0  0  0  0  0  0  0  0  0  0
    0.8540    2.9160    1.2660 H   0  0  0  0  0  0  0  0  0  0  0  0
   -1.0920   -5.7650   -4.0270 C   0  0  0  0  0  0  0  0  0  0  0  0
   -0.1870   -4.5350   -4.1950 C   0  0  0  0  0  0  0  0  0  0  0  0
   -0.6080   -3.5560   -3.1270 C   0  0  2  0  0  0  0  0  0  0  0  0
   -2.0540   -3.1930   -3.3290 C   0  0  0  0  0  0  0  0  0  0  0  0
    0.3140   -2.3570   -3.0190 C   0  0  2  0  0  0  0  0  0  0  0  0
   -0.1330   -1.4480   -1.9720 N   0  0  0  0  0  0  0  0  0  0  0  0
    0.5080   -1.6550   -4.3040 C   0  0  0  0  0  0  0  0  0  0  0  0
    0.9010   -2.2000   -5.3660 O   0  0  0  0  0  0  0  0  0  0  0  0
    0.2600   -0.2710   -4.4380 O   0  0  0  0  0  0  0  0  0  0  0  0
   -2.1540   -5.4960   -4.1710 H   0  0  0  0  0  0  0  0  0  0  0  0
   -0.7650   -6.5760   -4.7210 H   0  0  0  0  0  0  0  0  0  0  0  0
   -1.0060   -6.1740   -3.0010 H   0  0  0  0  0  0  0  0  0  0  0  0
   -0.3020   -4.1650   -5.2240 H   0  0  0  0  0  0  0  0  0  0  0  0
    0.8380   -4.9030   -3.9590 H   0  0  0  0  0  0  0  0  0  0  0  0
   -0.5850   -4.1500   -2.1640 H   0  0  0  0  0  0  0  0  0  0  0  0
   -2.7470   -3.7930   -2.6680 H   0  0  0  0  0  0  0  0  0  0  0  0
   -2.3730   -3.4800   -4.3750 H   0  0  0  0  0  0  0  0  0  0  0  0
   -2.3010   -2.1460   -3.1060 H   0  0  0  0  0  0  0  0  0  0  0  0
    1.2980   -2.7530   -2.7010 H   0  0  0  0  0  0  0  0  0  0  0  0
   -1.0490   -0.9490   -2.0650 H   0  0  0  0  0  0  0  0  0  0  0  0
  1  9  1  0  0  0  0
  1 10  1  0  0  0  0
  2  3  1  0  0  0  0
  2 11  1  0  0  0  0
  2  1  1  0  0  0  0
  3 12  1  0  0  0  0
  4 15  1  1  0  0  0
  4  2  1  0  0  0  0
  5  4  1  0  0  0  0
  5 17  1  0  0  0  0
  6  7  2  0  0  0  0
  6  4  1  0  0  0  0
  8  1  1  0  0  0  0
 13  3  1  0  0  0  0
 14  3  1  0  0  0  0
 16  5  1  0  0  0  0
 18  6  1  0  0  0  0
 19 30  1  1  0  0  0
 19 18  1  0  0  0  0
 20 19  1  0  0  0  0
 20 21  1  0  0  0  0
 21 22  2  0  0  0  0
 21 26  1  0  0  0  0
 22 23  1  0  0  0  0
 23 34  1  0  0  0  0
 23 24  2  0  0  0  0
 24 35  1  0  0  0  0
 25 24  1  0  0  0  0
 25 36  1  0  0  0  0
 26 25  2  0  0  0  0
 27 28  2  0  0  0  0
 27 19  1  0  0  0  0
 29 18  1  0  0  0  0
 31 20  1  0  0  0  0
 32 20  1  0  0  0  0
 33 22  1  0  0  0  0
 37 26  1  0  0  0  0
 38 49  1  0  0  0  0
 39 38  1  0  0  0  0
 39 51  1  0  0  0  0
 39 40  1  0  0  0  0
 40 42  1  0  0  0  0
 40 52  1  1  0  0  0
 41 40  1  0  0  0  0
 41 55  1  0  0  0  0
 41 53  1  0  0  0  0
 42 56  1  1  0  0  0
 42 43  1  0  0  0  0
 43 27  1  0  0  0  0
 44 42  1  0  0  0  0
 45 44  2  0  0  0  0
 46 44  1  0  0  0  0
 47 38  1  0  0  0  0
 48 38  1  0  0  0  0
 50 39  1  0  0  0  0
 54 41  1  0  0  0  0
 57 43  1  0  0  0  0
M  END
$$$$
