VFK.pdb
 OpenBabel07022419273D

 59 59  0  0  1  0  0  0  0  0999 V2000
    1.5930    0.3000    5.2090 C   0  0  0  0  0  0  0  0  0  0  0  0
    2.2780    1.4360    4.4890 C   0  0  0  0  0  0  0  0  0  0  0  0
    1.4720    2.6940    4.4490 C   0  0  0  0  0  0  0  0  0  0  0  0
    2.8060    1.0160    3.1350 C   0  0  2  0  0  0  0  0  0  0  0  0
    3.4430    2.1250    2.4990 N   0  0  0  0  0  0  0  0  0  0  0  0
    1.8310    0.3260    2.3000 C   0  0  0  0  0  0  0  0  0  0  0  0
    1.2220   -0.6680    2.7960 O   0  0  0  0  0  0  0  0  0  0  0  0
    1.5920    0.5460    6.2980 H   0  0  0  0  0  0  0  0  0  0  0  0
    0.5640    0.1280    4.8920 H   0  0  0  0  0  0  0  0  0  0  0  0
    2.2240   -0.6010    5.0840 H   0  0  0  0  0  0  0  0  0  0  0  0
    3.2000    1.6680    5.1040 H   0  0  0  0  0  0  0  0  0  0  0  0
    1.8170    3.4450    5.2200 H   0  0  0  0  0  0  0  0  0  0  0  0
    1.4950    3.2280    3.4910 H   0  0  0  0  0  0  0  0  0  0  0  0
    0.4340    2.4290    4.7840 H   0  0  0  0  0  0  0  0  0  0  0  0
    3.6250    0.2680    3.3610 H   0  0  0  0  0  0  0  0  0  0  0  0
    4.0820    1.8710    1.7160 H   0  0  0  0  0  0  0  0  0  0  0  0
    3.8790    2.7390    3.2130 H   0  0  0  0  0  0  0  0  0  0  0  0
    1.4880    0.6630    0.9610 N   0  0  0  0  0  0  0  0  0  0  0  0
    0.4950   -0.0960    0.2120 C   0  0  1  0  0  0  0  0  0  0  0  0
   -0.7030    0.7460   -0.1550 C   0  0  0  0  0  0  0  0  0  0  0  0
   -1.3520    1.2590    1.0790 C   0  0  0  0  0  0  0  0  0  0  0  0
   -2.3560    0.5170    1.7010 C   0  0  0  0  0  0  0  0  0  0  0  0
   -2.9690    0.9830    2.8490 C   0  0  0  0  0  0  0  0  0  0  0  0
   -2.6250    2.1870    3.4290 C   0  0  0  0  0  0  0  0  0  0  0  0
   -1.6340    2.9200    2.8150 C   0  0  0  0  0  0  0  0  0  0  0  0
   -1.0190    2.4600    1.6700 C   0  0  0  0  0  0  0  0  0  0  0  0
    1.0900   -0.7700   -0.9540 C   0  0  0  0  0  0  0  0  0  0  0  0
    2.3250   -0.6780   -1.2470 O   0  0  0  0  0  0  0  0  0  0  0  0
    1.9880    1.4820    0.5500 H   0  0  0  0  0  0  0  0  0  0  0  0
    0.1200   -0.9000    0.8890 H   0  0  0  0  0  0  0  0  0  0  0  0
   -0.4050    1.6010   -0.8240 H   0  0  0  0  0  0  0  0  0  0  0  0
   -1.3900    0.1280   -0.7380 H   0  0  0  0  0  0  0  0  0  0  0  0
   -2.6450   -0.4310    1.2680 H   0  0  0  0  0  0  0  0  0  0  0  0
   -3.7580    0.4080    3.3450 H   0  0  0  0  0  0  0  0  0  0  0  0
   -3.1260    2.5280    4.3340 H   0  0  0  0  0  0  0  0  0  0  0  0
   -1.3540    3.8620    3.2560 H   0  0  0  0  0  0  0  0  0  0  0  0
   -0.2300    3.0420    1.1800 H   0  0  0  0  0  0  0  0  0  0  0  0
    0.2620   -1.5560   -1.7900 N   0  0  0  0  0  0  0  0  0  0  0  0
    0.7110   -2.2610   -2.9510 C   0  0  1  0  0  0  0  0  0  0  0  0
    0.4690   -3.7430   -2.8910 C   0  0  0  0  0  0  0  0  0  0  0  0
   -0.9900   -4.1010   -2.7510 C   0  0  0  0  0  0  0  0  0  0  0  0
   -1.0760   -5.6110   -2.7040 C   0  0  0  0  0  0  0  0  0  0  0  0
   -2.5000   -6.0980   -2.5630 C   0  0  0  0  0  0  0  0  0  0  0  0
   -3.3440   -5.6850   -3.6410 N   0  0  0  0  0  0  0  0  0  0  0  0
   -0.0210   -1.7330   -4.1300 C   0  0  0  0  0  0  0  0  0  0  0  0
    0.1820   -2.1860   -5.2980 O   0  0  0  0  0  0  0  0  0  0  0  0
   -0.9590   -0.7210   -4.0030 O   0  0  0  0  0  0  0  0  0  0  0  0
   -0.7500   -1.6280   -1.5450 H   0  0  0  0  0  0  0  0  0  0  0  0
    1.7950   -2.1160   -3.1220 H   0  0  0  0  0  0  0  0  0  0  0  0
    1.0130   -4.2490   -2.0850 H   0  0  0  0  0  0  0  0  0  0  0  0
    0.8220   -4.1790   -3.8490 H   0  0  0  0  0  0  0  0  0  0  0  0
   -1.4820   -3.6360   -1.8970 H   0  0  0  0  0  0  0  0  0  0  0  0
   -1.5500   -3.7630   -3.6690 H   0  0  0  0  0  0  0  0  0  0  0  0
   -0.5370   -5.9310   -1.7690 H   0  0  0  0  0  0  0  0  0  0  0  0
   -0.5760   -6.0420   -3.5880 H   0  0  0  0  0  0  0  0  0  0  0  0
   -2.4440   -7.2180   -2.5960 H   0  0  0  0  0  0  0  0  0  0  0  0
   -2.9430   -5.8240   -1.6070 H   0  0  0  0  0  0  0  0  0  0  0  0
   -3.8000   -4.7700   -3.5050 H   0  0  0  0  0  0  0  0  0  0  0  0
   -4.0850   -6.4120   -3.7720 H   0  0  0  0  0  0  0  0  0  0  0  0
  1  8  1  0  0  0  0
  2 11  1  0  0  0  0
  2  1  1  0  0  0  0
  3  2  1  0  0  0  0
  3 14  1  0  0  0  0
  3 12  1  0  0  0  0
  4 15  1  1  0  0  0
  4  2  1  0  0  0  0
  5  4  1  0  0  0  0
  5 17  1  0  0  0  0
  6  7  2  0  0  0  0
  6  4  1  0  0  0  0
  9  1  1  0  0  0  0
 10  1  1  0  0  0  0
 13  3  1  0  0  0  0
 16  5  1  0  0  0  0
 18  6  1  0  0  0  0
 19 30  1  1  0  0  0
 19 18  1  0  0  0  0
 20 19  1  0  0  0  0
 20 21  1  0  0  0  0
 21 26  2  0  0  0  0
 21 22  1  0  0  0  0
 22 23  2  0  0  0  0
 23 34  1  0  0  0  0
 23 24  1  0  0  0  0
 24 35  1  0  0  0  0
 25 36  1  0  0  0  0
 25 24  2  0  0  0  0
 26 25  1  0  0  0  0
 27 19  1  0  0  0  0
 28 27  2  0  0  0  0
 29 18  1  0  0  0  0
 31 20  1  0  0  0  0
 32 20  1  0  0  0  0
 33 22  1  0  0  0  0
 37 26  1  0  0  0  0
 38 48  1  0  0  0  0
 38 27  1  0  0  0  0
 39 49  1  6  0  0  0
 39 40  1  0  0  0  0
 39 38  1  0  0  0  0
 40 41  1  0  0  0  0
 40 50  1  0  0  0  0
 41 42  1  0  0  0  0
 41 52  1  0  0  0  0
 42 43  1  0  0  0  0
 42 54  1  0  0  0  0
 43 57  1  0  0  0  0
 44 58  1  0  0  0  0
 44 43  1  0  0  0  0
 45 47  1  0  0  0  0
 45 39  1  0  0  0  0
 46 45  2  0  0  0  0
 51 40  1  0  0  0  0
 53 41  1  0  0  0  0
 55 42  1  0  0  0  0
 56 43  1  0  0  0  0
 59 44  1  0  0  0  0
M  END
$$$$
