VFM.pdb
 OpenBabel07022419273D

 55 55  0  0  1  0  0  0  0  0999 V2000
    3.0040   -3.5990    1.4320 C   0  0  0  0  0  0  0  0  0  0  0  0
    3.6220   -2.5410    0.5550 C   0  0  0  0  0  0  0  0  0  0  0  0
    3.1260   -2.5230   -0.8510 C   0  0  0  0  0  0  0  0  0  0  0  0
    3.6900   -1.1970    1.2280 C   0  0  2  0  0  0  0  0  0  0  0  0
    4.5250   -1.4080    2.4270 N   0  0  0  0  0  0  0  0  0  0  0  0
    2.4100   -0.5860    1.5710 C   0  0  0  0  0  0  0  0  0  0  0  0
    2.1710   -0.3900    2.8160 O   0  0  0  0  0  0  0  0  0  0  0  0
    3.5380   -3.5560    2.4130 H   0  0  0  0  0  0  0  0  0  0  0  0
    1.9430   -3.4370    1.6520 H   0  0  0  0  0  0  0  0  0  0  0  0
    3.1480   -4.5780    0.9170 H   0  0  0  0  0  0  0  0  0  0  0  0
    4.7100   -2.8670    0.4730 H   0  0  0  0  0  0  0  0  0  0  0  0
    3.7110   -3.2330   -1.5160 H   0  0  0  0  0  0  0  0  0  0  0  0
    3.3720   -1.5240   -1.2840 H   0  0  0  0  0  0  0  0  0  0  0  0
    2.0830   -2.8280   -0.9850 H   0  0  0  0  0  0  0  0  0  0  0  0
    4.2570   -0.4890    0.5940 H   0  0  0  0  0  0  0  0  0  0  0  0
    5.2140   -2.1770    2.2390 H   0  0  0  0  0  0  0  0  0  0  0  0
    5.0960   -0.5510    2.6200 H   0  0  0  0  0  0  0  0  0  0  0  0
    1.3940   -0.1810    0.7040 N   0  0  0  0  0  0  0  0  0  0  0  0
    0.1320    0.4310    1.1480 C   0  0  1  0  0  0  0  0  0  0  0  0
    0.0610    1.8710    0.7760 C   0  0  0  0  0  0  0  0  0  0  0  0
   -1.1850    2.5600    1.1980 C   0  0  0  0  0  0  0  0  0  0  0  0
   -2.2900    2.6690    0.3820 C   0  0  0  0  0  0  0  0  0  0  0  0
   -3.4600    3.2920    0.7400 C   0  0  0  0  0  0  0  0  0  0  0  0
   -3.5590    3.8550    1.9930 C   0  0  0  0  0  0  0  0  0  0  0  0
   -2.4620    3.7580    2.8260 C   0  0  0  0  0  0  0  0  0  0  0  0
   -1.2890    3.1330    2.4690 C   0  0  0  0  0  0  0  0  0  0  0  0
   -1.0210   -0.3960    0.7800 C   0  0  0  0  0  0  0  0  0  0  0  0
   -2.1750    0.0120    1.0630 O   0  0  0  0  0  0  0  0  0  0  0  0
    1.5450   -0.3220   -0.3180 H   0  0  0  0  0  0  0  0  0  0  0  0
    0.1800    0.4230    2.2830 H   0  0  0  0  0  0  0  0  0  0  0  0
    0.1310    2.0340   -0.3380 H   0  0  0  0  0  0  0  0  0  0  0  0
    0.8930    2.4650    1.2090 H   0  0  0  0  0  0  0  0  0  0  0  0
   -2.2340    2.2360   -0.6120 H   0  0  0  0  0  0  0  0  0  0  0  0
   -4.3050    3.3600    0.0790 H   0  0  0  0  0  0  0  0  0  0  0  0
   -4.4720    4.3610    2.3180 H   0  0  0  0  0  0  0  0  0  0  0  0
   -2.5530    4.2060    3.8120 H   0  0  0  0  0  0  0  0  0  0  0  0
   -0.4400    3.0680    3.1390 H   0  0  0  0  0  0  0  0  0  0  0  0
   -3.2310   -0.1130   -2.2490 C   0  0  0  0  0  0  0  0  0  0  0  0
   -2.8830   -1.5260   -3.3190 S   0  0  0  0  0  0  0  0  0  0  0  0
   -1.5150   -2.5310   -2.7650 C   0  0  0  0  0  0  0  0  0  0  0  0
   -1.7510   -3.2700   -1.5100 C   0  0  0  0  0  0  0  0  0  0  0  0
   -2.0060   -2.5010   -0.2660 C   0  0  2  0  0  0  0  0  0  0  0  0
   -0.9330   -1.6410    0.1210 N   0  0  0  0  0  0  0  0  0  0  0  0
   -2.0860   -3.5630    0.8350 C   0  0  0  0  0  0  0  0  0  0  0  0
   -2.9530   -4.4710    0.7680 O   0  0  0  0  0  0  0  0  0  0  0  0
   -1.2320   -3.5620    1.9120 O   0  0  0  0  0  0  0  0  0  0  0  0
   -2.3020    0.1300   -1.6980 H   0  0  0  0  0  0  0  0  0  0  0  0
   -3.5480    0.7580   -2.8760 H   0  0  0  0  0  0  0  0  0  0  0  0
   -4.0360   -0.3520   -1.5470 H   0  0  0  0  0  0  0  0  0  0  0  0
   -1.3130   -3.2960   -3.5690 H   0  0  0  0  0  0  0  0  0  0  0  0
   -0.6110   -1.8820   -2.7520 H   0  0  0  0  0  0  0  0  0  0  0  0
   -2.6310   -3.9620   -1.7130 H   0  0  0  0  0  0  0  0  0  0  0  0
   -0.9030   -3.9730   -1.3090 H   0  0  0  0  0  0  0  0  0  0  0  0
   -3.0080   -2.0220   -0.1880 H   0  0  0  0  0  0  0  0  0  0  0  0
    0.0440   -1.9590   -0.1050 H   0  0  0  0  0  0  0  0  0  0  0  0
  1  9  1  0  0  0  0
  1  8  1  0  0  0  0
  2  4  1  0  0  0  0
  2  1  1  0  0  0  0
  3  2  1  0  0  0  0
  4 15  1  6  0  0  0
  4  6  1  0  0  0  0
  4  5  1  0  0  0  0
  5 17  1  0  0  0  0
  6  7  2  0  0  0  0
 10  1  1  0  0  0  0
 11  2  1  0  0  0  0
 12  3  1  0  0  0  0
 13  3  1  0  0  0  0
 14  3  1  0  0  0  0
 16  5  1  0  0  0  0
 18 19  1  0  0  0  0
 18  6  1  0  0  0  0
 19 30  1  1  0  0  0
 20 19  1  0  0  0  0
 20 21  1  0  0  0  0
 20 32  1  0  0  0  0
 21 26  1  0  0  0  0
 22 23  1  0  0  0  0
 22 21  2  0  0  0  0
 23 24  2  0  0  0  0
 24 35  1  0  0  0  0
 24 25  1  0  0  0  0
 25 36  1  0  0  0  0
 26 25  2  0  0  0  0
 26 37  1  0  0  0  0
 27 28  2  0  0  0  0
 27 19  1  0  0  0  0
 29 18  1  0  0  0  0
 31 20  1  0  0  0  0
 33 22  1  0  0  0  0
 34 23  1  0  0  0  0
 38 47  1  0  0  0  0
 38 49  1  0  0  0  0
 39 40  1  0  0  0  0
 39 38  1  0  0  0  0
 40 51  1  0  0  0  0
 40 41  1  0  0  0  0
 41 53  1  0  0  0  0
 41 42  1  0  0  0  0
 42 54  1  6  0  0  0
 42 43  1  0  0  0  0
 42 44  1  0  0  0  0
 43 27  1  0  0  0  0
 44 46  1  0  0  0  0
 45 44  2  0  0  0  0
 48 38  1  0  0  0  0
 50 40  1  0  0  0  0
 52 41  1  0  0  0  0
 55 43  1  0  0  0  0
M  END
$$$$
