VFN.pdb
 OpenBabel07022419263D

 52 52  0  0  1  0  0  0  0  0999 V2000
    4.4290   -4.4370    1.0100 C   0  0  0  0  0  0  0  0  0  0  0  0
    3.7330   -3.2090    0.4560 C   0  0  0  0  0  0  0  0  0  0  0  0
    2.8900   -3.6560   -0.7010 C   0  0  0  0  0  0  0  0  0  0  0  0
    2.9440   -2.6070    1.5940 C   0  0  2  0  0  0  0  0  0  0  0  0
    1.9680   -3.5620    2.0910 N   0  0  0  0  0  0  0  0  0  0  0  0
    2.2840   -1.3550    1.2790 C   0  0  0  0  0  0  0  0  0  0  0  0
    2.9690   -0.2780    1.4630 O   0  0  0  0  0  0  0  0  0  0  0  0
    5.3950   -4.5830    0.4580 H   0  0  0  0  0  0  0  0  0  0  0  0
    3.8210   -5.3570    0.9170 H   0  0  0  0  0  0  0  0  0  0  0  0
    4.6540   -4.3380    2.0980 H   0  0  0  0  0  0  0  0  0  0  0  0
    4.5100   -2.5230    0.0820 H   0  0  0  0  0  0  0  0  0  0  0  0
    3.4310   -4.4940   -1.1950 H   0  0  0  0  0  0  0  0  0  0  0  0
    2.7050   -2.8970   -1.4640 H   0  0  0  0  0  0  0  0  0  0  0  0
    1.9310   -4.1300   -0.3300 H   0  0  0  0  0  0  0  0  0  0  0  0
    3.6880   -2.4670    2.4130 H   0  0  0  0  0  0  0  0  0  0  0  0
    2.3610   -4.4100    2.5020 H   0  0  0  0  0  0  0  0  0  0  0  0
    1.0750   -3.5900    1.6190 H   0  0  0  0  0  0  0  0  0  0  0  0
    0.9790   -1.1790    0.7910 N   0  0  0  0  0  0  0  0  0  0  0  0
    0.4420    0.1380    0.5270 C   0  0  1  0  0  0  0  0  0  0  0  0
    0.5920    0.5030   -0.9510 C   0  0  0  0  0  0  0  0  0  0  0  0
    0.0500    1.8490   -1.2370 C   0  0  0  0  0  0  0  0  0  0  0  0
    0.8460    2.9650   -1.0650 C   0  0  0  0  0  0  0  0  0  0  0  0
    0.3880    4.2600   -1.3230 C   0  0  0  0  0  0  0  0  0  0  0  0
   -0.8910    4.4480   -1.7640 C   0  0  0  0  0  0  0  0  0  0  0  0
   -1.7060    3.3280   -1.9410 C   0  0  0  0  0  0  0  0  0  0  0  0
   -1.2320    2.0570   -1.6790 C   0  0  0  0  0  0  0  0  0  0  0  0
   -0.8810    0.3800    1.0870 C   0  0  0  0  0  0  0  0  0  0  0  0
   -1.4160    1.5260    0.9680 O   0  0  0  0  0  0  0  0  0  0  0  0
    0.3490   -2.0210    0.5960 H   0  0  0  0  0  0  0  0  0  0  0  0
    1.1490    0.8800    1.0250 H   0  0  0  0  0  0  0  0  0  0  0  0
    0.1610   -0.2740   -1.6070 H   0  0  0  0  0  0  0  0  0  0  0  0
    1.7100    0.5900   -1.1290 H   0  0  0  0  0  0  0  0  0  0  0  0
    1.8640    2.8240   -0.7150 H   0  0  0  0  0  0  0  0  0  0  0  0
    1.0270    5.1180   -1.1880 H   0  0  0  0  0  0  0  0  0  0  0  0
   -1.2980    5.4280   -1.9760 H   0  0  0  0  0  0  0  0  0  0  0  0
   -2.7100    3.5100   -2.2860 H   0  0  0  0  0  0  0  0  0  0  0  0
   -1.8550    1.1960   -1.8180 H   0  0  0  0  0  0  0  0  0  0  0  0
   -5.2680   -1.7870   -0.3160 N   0  0  0  0  0  0  0  0  0  0  0  0
   -4.2090   -1.1230    0.4050 C   0  0  0  0  0  0  0  0  0  0  0  0
   -3.3920   -0.4630   -0.3210 O   0  0  0  0  0  0  0  0  0  0  0  0
   -4.0720   -1.1870    1.8680 C   0  0  0  0  0  0  0  0  0  0  0  0
   -2.9630   -0.2770    2.3220 C   0  0  2  0  0  0  0  0  0  0  0  0
   -1.6690   -0.5790    1.7880 N   0  0  0  0  0  0  0  0  0  0  0  0
   -2.9780   -0.2520    3.8010 C   0  0  0  0  0  0  0  0  0  0  0  0
   -3.9980   -0.0310    4.4970 O   0  0  0  0  0  0  0  0  0  0  0  0
   -1.8040   -0.4890    4.4870 O   0  0  0  0  0  0  0  0  0  0  0  0
   -5.4730   -2.7610   -0.0600 H   0  0  0  0  0  0  0  0  0  0  0  0
   -5.7490   -1.2180   -1.0440 H   0  0  0  0  0  0  0  0  0  0  0  0
   -3.8770   -2.2000    2.2640 H   0  0  0  0  0  0  0  0  0  0  0  0
   -5.0500   -0.8820    2.3450 H   0  0  0  0  0  0  0  0  0  0  0  0
   -3.1810    0.7950    2.0200 H   0  0  0  0  0  0  0  0  0  0  0  0
   -1.2890   -1.5380    1.9120 H   0  0  0  0  0  0  0  0  0  0  0  0
  1 10  1  0  0  0  0
  2  1  1  0  0  0  0
  2  4  1  0  0  0  0
  3 14  1  0  0  0  0
  3  2  1  0  0  0  0
  4  5  1  0  0  0  0
  4 15  1  1  0  0  0
  5 16  1  0  0  0  0
  6  7  2  0  0  0  0
  6  4  1  0  0  0  0
  8  1  1  0  0  0  0
  9  1  1  0  0  0  0
 11  2  1  0  0  0  0
 12  3  1  0  0  0  0
 13  3  1  0  0  0  0
 17  5  1  0  0  0  0
 18  6  1  0  0  0  0
 19 18  1  0  0  0  0
 19 30  1  1  0  0  0
 19 27  1  0  0  0  0
 20 19  1  0  0  0  0
 21 22  1  0  0  0  0
 21 20  1  0  0  0  0
 22 33  1  0  0  0  0
 23 34  1  0  0  0  0
 23 22  2  0  0  0  0
 24 23  1  0  0  0  0
 25 24  2  0  0  0  0
 25 26  1  0  0  0  0
 26 21  2  0  0  0  0
 27 43  1  0  0  0  0
 28 27  2  0  0  0  0
 29 18  1  0  0  0  0
 31 20  1  0  0  0  0
 32 20  1  0  0  0  0
 35 24  1  0  0  0  0
 36 25  1  0  0  0  0
 37 26  1  0  0  0  0
 38 47  1  0  0  0  0
 38 39  1  0  0  0  0
 39 41  1  0  0  0  0
 40 39  2  0  0  0  0
 41 49  1  0  0  0  0
 41 42  1  0  0  0  0
 41 50  1  0  0  0  0
 42 51  1  6  0  0  0
 42 44  1  0  0  0  0
 43 52  1  0  0  0  0
 43 42  1  0  0  0  0
 44 46  2  0  0  0  0
 44 45  1  0  0  0  0
 48 38  1  0  0  0  0
M  END
$$$$
