VFP.pdb
 OpenBabel07022419273D

 52 53  0  0  1  0  0  0  0  0999 V2000
    1.9470   -4.0390    3.3920 C   0  0  0  0  0  0  0  0  0  0  0  0
    3.0430   -3.6250    2.4680 C   0  0  0  0  0  0  0  0  0  0  0  0
    2.8900   -4.1370    1.0620 C   0  0  0  0  0  0  0  0  0  0  0  0
    3.3860   -2.1570    2.5520 C   0  0  2  0  0  0  0  0  0  0  0  0
    3.8090   -1.9510    3.9500 N   0  0  0  0  0  0  0  0  0  0  0  0
    2.2850   -1.2450    2.2820 C   0  0  0  0  0  0  0  0  0  0  0  0
    1.8460   -0.4990    3.2120 O   0  0  0  0  0  0  0  0  0  0  0  0
    2.1890   -4.9920    3.9460 H   0  0  0  0  0  0  0  0  0  0  0  0
    1.7000   -3.2970    4.1730 H   0  0  0  0  0  0  0  0  0  0  0  0
    1.0620   -4.3010    2.7640 H   0  0  0  0  0  0  0  0  0  0  0  0
    3.9730   -4.1460    2.8550 H   0  0  0  0  0  0  0  0  0  0  0  0
    3.1730   -5.2320    1.0140 H   0  0  0  0  0  0  0  0  0  0  0  0
    3.5470   -3.6520    0.3420 H   0  0  0  0  0  0  0  0  0  0  0  0
    1.8010   -4.0980    0.8030 H   0  0  0  0  0  0  0  0  0  0  0  0
    4.2900   -2.0010    1.9380 H   0  0  0  0  0  0  0  0  0  0  0  0
    4.5810   -2.6260    4.1900 H   0  0  0  0  0  0  0  0  0  0  0  0
    4.1250   -0.9680    4.0740 H   0  0  0  0  0  0  0  0  0  0  0  0
    1.6860   -1.1670    1.0000 N   0  0  0  0  0  0  0  0  0  0  0  0
    0.5540   -0.2260    0.7300 C   0  0  1  0  0  0  0  0  0  0  0  0
    1.0570    0.7570   -0.2970 C   0  0  0  0  0  0  0  0  0  0  0  0
    0.1800    1.7920   -0.7740 C   0  0  0  0  0  0  0  0  0  0  0  0
    0.0600    3.0210   -0.1510 C   0  0  0  0  0  0  0  0  0  0  0  0
   -0.7630    4.0230   -0.6420 C   0  0  0  0  0  0  0  0  0  0  0  0
   -1.4970    3.8080   -1.7910 C   0  0  0  0  0  0  0  0  0  0  0  0
   -1.3780    2.5990   -2.4020 C   0  0  0  0  0  0  0  0  0  0  0  0
   -0.5750    1.6170   -1.9250 C   0  0  0  0  0  0  0  0  0  0  0  0
   -0.5780   -1.0600    0.2910 C   0  0  0  0  0  0  0  0  0  0  0  0
   -0.2760   -2.1820   -0.1960 O   0  0  0  0  0  0  0  0  0  0  0  0
    2.0670   -1.7850    0.2620 H   0  0  0  0  0  0  0  0  0  0  0  0
    0.3690    0.2900    1.6660 H   0  0  0  0  0  0  0  0  0  0  0  0
    1.9320    1.2680    0.2150 H   0  0  0  0  0  0  0  0  0  0  0  0
    1.5490    0.2150   -1.1410 H   0  0  0  0  0  0  0  0  0  0  0  0
    0.6080    3.2630    0.7590 H   0  0  0  0  0  0  0  0  0  0  0  0
   -0.8620    4.9840   -0.1620 H   0  0  0  0  0  0  0  0  0  0  0  0
   -2.1340    4.5710   -2.1800 H   0  0  0  0  0  0  0  0  0  0  0  0
   -1.9690    2.4440   -3.3160 H   0  0  0  0  0  0  0  0  0  0  0  0
   -0.5430    0.6730   -2.4860 H   0  0  0  0  0  0  0  0  0  0  0  0
   -1.9460   -0.7170    0.3730 N   0  0  0  0  0  0  0  0  0  0  0  0
   -2.4730    0.5330    0.9990 C   0  0  0  0  0  0  0  0  0  0  0  0
   -3.5280    0.9740    0.0230 C   0  0  0  0  0  0  0  0  0  0  0  0
   -3.6550   -0.1810   -0.9850 C   0  0  0  0  0  0  0  0  0  0  0  0
   -3.1810   -1.3110   -0.0300 C   0  0  1  0  0  0  0  0  0  0  0  0
   -3.2430   -2.5990   -0.6200 C   0  0  0  0  0  0  0  0  0  0  0  0
   -2.3110   -3.3640   -0.8410 O   0  0  0  0  0  0  0  0  0  0  0  0
   -4.5160   -3.0730   -1.0050 O   0  0  0  0  0  0  0  0  0  0  0  0
   -2.9660    0.1230    1.9380 H   0  0  0  0  0  0  0  0  0  0  0  0
   -1.7090    1.2400    1.2530 H   0  0  0  0  0  0  0  0  0  0  0  0
   -4.4920    1.0440    0.5990 H   0  0  0  0  0  0  0  0  0  0  0  0
   -3.3320    1.9320   -0.4490 H   0  0  0  0  0  0  0  0  0  0  0  0
   -4.6920   -0.3100   -1.2790 H   0  0  0  0  0  0  0  0  0  0  0  0
   -2.9290   -0.0640   -1.8120 H   0  0  0  0  0  0  0  0  0  0  0  0
   -3.9470   -1.1870    0.8300 H   0  0  0  0  0  0  0  0  0  0  0  0
  1  8  1  0  0  0  0
  1  9  1  0  0  0  0
  2  4  1  0  0  0  0
  2 11  1  0  0  0  0
  2  1  1  0  0  0  0
  3  2  1  0  0  0  0
  4 15  1  6  0  0  0
  4  5  1  0  0  0  0
  5 17  1  0  0  0  0
  5 16  1  0  0  0  0
  6  4  1  0  0  0  0
  6  7  2  0  0  0  0
 10  1  1  0  0  0  0
 12  3  1  0  0  0  0
 13  3  1  0  0  0  0
 14  3  1  0  0  0  0
 18  6  1  0  0  0  0
 19 18  1  0  0  0  0
 19 30  1  1  0  0  0
 20 31  1  0  0  0  0
 20 19  1  0  0  0  0
 21 20  1  0  0  0  0
 21 22  1  0  0  0  0
 22 33  1  0  0  0  0
 23 34  1  0  0  0  0
 23 22  2  0  0  0  0
 24 23  1  0  0  0  0
 25 26  1  0  0  0  0
 25 24  2  0  0  0  0
 26 21  2  0  0  0  0
 27 38  1  0  0  0  0
 27 19  1  0  0  0  0
 28 27  2  0  0  0  0
 29 18  1  0  0  0  0
 32 20  1  0  0  0  0
 35 24  1  0  0  0  0
 36 25  1  0  0  0  0
 37 26  1  0  0  0  0
 38 39  1  0  0  0  0
 39 47  1  0  0  0  0
 39 46  1  0  0  0  0
 40 48  1  0  0  0  0
 40 39  1  0  0  0  0
 41 42  1  0  0  0  0
 41 40  1  0  0  0  0
 42 38  1  0  0  0  0
 42 52  1  1  0  0  0
 43 42  1  0  0  0  0
 44 43  1  0  0  0  0
 45 43  2  0  0  0  0
 49 40  1  0  0  0  0
 50 41  1  0  0  0  0
 51 41  1  0  0  0  0
M  END
$$$$
