VFQ.pdb
 OpenBabel07022419273D

 55 55  0  0  1  0  0  0  0  0999 V2000
   -0.9600   -0.5340    4.8670 C   0  0  0  0  0  0  0  0  0  0  0  0
    0.5510   -0.4660    4.7990 C   0  0  0  0  0  0  0  0  0  0  0  0
    0.9470    0.9760    4.6550 C   0  0  0  0  0  0  0  0  0  0  0  0
    1.0310   -1.3410    3.6860 C   0  0  2  0  0  0  0  0  0  0  0  0
    2.4700   -1.3400    3.5480 N   0  0  0  0  0  0  0  0  0  0  0  0
    0.3630   -1.0340    2.4210 C   0  0  0  0  0  0  0  0  0  0  0  0
   -0.8940   -0.9800    2.3580 O   0  0  0  0  0  0  0  0  0  0  0  0
   -1.3310   -0.3560    5.9010 H   0  0  0  0  0  0  0  0  0  0  0  0
   -1.3630   -1.5220    4.5750 H   0  0  0  0  0  0  0  0  0  0  0  0
   -1.3540    0.2900    4.2580 H   0  0  0  0  0  0  0  0  0  0  0  0
    0.9080   -0.8340    5.7990 H   0  0  0  0  0  0  0  0  0  0  0  0
    1.1420    1.4400    5.6580 H   0  0  0  0  0  0  0  0  0  0  0  0
    1.8090    1.1590    4.0170 H   0  0  0  0  0  0  0  0  0  0  0  0
    0.0700    1.5630    4.2540 H   0  0  0  0  0  0  0  0  0  0  0  0
    0.7530   -2.3950    3.9680 H   0  0  0  0  0  0  0  0  0  0  0  0
    2.8670   -0.4360    3.2830 H   0  0  0  0  0  0  0  0  0  0  0  0
    2.9240   -1.8010    4.3580 H   0  0  0  0  0  0  0  0  0  0  0  0
    1.0490   -0.7790    1.1990 N   0  0  0  0  0  0  0  0  0  0  0  0
    0.3400   -0.4810   -0.0270 C   0  0  1  0  0  0  0  0  0  0  0  0
    0.6900    0.8840   -0.5740 C   0  0  0  0  0  0  0  0  0  0  0  0
    0.3570    1.9610    0.3900 C   0  0  0  0  0  0  0  0  0  0  0  0
   -0.9010    2.5510    0.3680 C   0  0  0  0  0  0  0  0  0  0  0  0
   -1.1720    3.5490    1.2760 C   0  0  0  0  0  0  0  0  0  0  0  0
   -0.1980    3.9380    2.1780 C   0  0  0  0  0  0  0  0  0  0  0  0
    1.0390    3.3530    2.1950 C   0  0  0  0  0  0  0  0  0  0  0  0
    1.3370    2.3400    1.2860 C   0  0  0  0  0  0  0  0  0  0  0  0
    0.5580   -1.5440   -1.0500 C   0  0  0  0  0  0  0  0  0  0  0  0
    1.2810   -2.5480   -0.8100 O   0  0  0  0  0  0  0  0  0  0  0  0
    2.0820   -0.8140    1.2150 H   0  0  0  0  0  0  0  0  0  0  0  0
   -0.7430   -0.4750    0.2060 H   0  0  0  0  0  0  0  0  0  0  0  0
    1.7580    0.9770   -0.8260 H   0  0  0  0  0  0  0  0  0  0  0  0
    0.0330    1.0410   -1.4620 H   0  0  0  0  0  0  0  0  0  0  0  0
   -1.6450    2.2290   -0.3470 H   0  0  0  0  0  0  0  0  0  0  0  0
   -2.1320    4.0520    1.3140 H   0  0  0  0  0  0  0  0  0  0  0  0
   -0.4030    4.7260    2.8990 H   0  0  0  0  0  0  0  0  0  0  0  0
    1.8160    3.6510    2.9020 H   0  0  0  0  0  0  0  0  0  0  0  0
    2.3060    1.8610    1.2770 H   0  0  0  0  0  0  0  0  0  0  0  0
   -3.8930   -5.0840   -2.0660 N   0  0  0  0  0  0  0  0  0  0  0  0
   -3.0860   -4.4220   -3.0200 C   0  0  0  0  0  0  0  0  0  0  0  0
   -3.4260   -4.3500   -4.2500 O   0  0  0  0  0  0  0  0  0  0  0  0
   -1.8190   -3.8090   -2.5440 C   0  0  0  0  0  0  0  0  0  0  0  0
   -1.1240   -3.1750   -3.7240 C   0  0  0  0  0  0  0  0  0  0  0  0
    0.1830   -2.5220   -3.3320 C   0  0  2  0  0  0  0  0  0  0  0  0
   -0.0410   -1.4690   -2.3370 N   0  0  0  0  0  0  0  0  0  0  0  0
    0.8100   -1.9800   -4.5520 C   0  0  0  0  0  0  0  0  0  0  0  0
    1.0740   -0.7650   -4.6250 O   0  0  0  0  0  0  0  0  0  0  0  0
    1.1040   -2.8100   -5.6090 O   0  0  0  0  0  0  0  0  0  0  0  0
   -4.2790   -4.5520   -1.2720 H   0  0  0  0  0  0  0  0  0  0  0  0
   -4.0980   -6.0870   -2.1560 H   0  0  0  0  0  0  0  0  0  0  0  0
   -1.2110   -4.6290   -2.1110 H   0  0  0  0  0  0  0  0  0  0  0  0
   -2.0390   -3.1080   -1.7340 H   0  0  0  0  0  0  0  0  0  0  0  0
   -1.8000   -2.4350   -4.1820 H   0  0  0  0  0  0  0  0  0  0  0  0
   -0.9440   -3.9710   -4.4720 H   0  0  0  0  0  0  0  0  0  0  0  0
    0.8380   -3.3090   -2.9340 H   0  0  0  0  0  0  0  0  0  0  0  0
   -0.6420   -0.6430   -2.5470 H   0  0  0  0  0  0  0  0  0  0  0  0
  1  8  1  0  0  0  0
  2  1  1  0  0  0  0
  2 11  1  0  0  0  0
  3  2  1  0  0  0  0
  3 12  1  0  0  0  0
  4 15  1  1  0  0  0
  4  2  1  0  0  0  0
  5  4  1  0  0  0  0
  5 17  1  0  0  0  0
  6  4  1  0  0  0  0
  7  6  2  0  0  0  0
  9  1  1  0  0  0  0
 10  1  1  0  0  0  0
 13  3  1  0  0  0  0
 14  3  1  0  0  0  0
 16  5  1  0  0  0  0
 18 29  1  0  0  0  0
 18  6  1  0  0  0  0
 19 30  1  1  0  0  0
 19 18  1  0  0  0  0
 20 19  1  0  0  0  0
 20 21  1  0  0  0  0
 21 26  1  0  0  0  0
 22 21  2  0  0  0  0
 22 23  1  0  0  0  0
 23 34  1  0  0  0  0
 23 24  2  0  0  0  0
 24 25  1  0  0  0  0
 24 35  1  0  0  0  0
 25 36  1  0  0  0  0
 26 25  2  0  0  0  0
 27 28  2  0  0  0  0
 27 19  1  0  0  0  0
 31 20  1  0  0  0  0
 32 20  1  0  0  0  0
 33 22  1  0  0  0  0
 37 26  1  0  0  0  0
 38 48  1  0  0  0  0
 39 41  1  0  0  0  0
 39 38  1  0  0  0  0
 40 39  2  0  0  0  0
 41 50  1  0  0  0  0
 41 51  1  0  0  0  0
 42 43  1  0  0  0  0
 42 41  1  0  0  0  0
 43 54  1  1  0  0  0
 43 44  1  0  0  0  0
 44 27  1  0  0  0  0
 45 43  1  0  0  0  0
 46 45  1  0  0  0  0
 47 45  2  0  0  0  0
 49 38  1  0  0  0  0
 52 42  1  0  0  0  0
 53 42  1  0  0  0  0
 55 44  1  0  0  0  0
M  END
$$$$
