VFS.pdb
 OpenBabel07022419273D

 49 49  0  0  1  0  0  0  0  0999 V2000
    1.0630   -3.5620    1.7460 C   0  0  0  0  0  0  0  0  0  0  0  0
    1.4540   -2.6930    2.9070 C   0  0  0  0  0  0  0  0  0  0  0  0
    0.3550   -2.6980    3.9470 C   0  0  0  0  0  0  0  0  0  0  0  0
    1.9420   -1.3310    2.5700 C   0  0  2  0  0  0  0  0  0  0  0  0
    2.2660   -0.7040    3.8810 N   0  0  0  0  0  0  0  0  0  0  0  0
    1.0040   -0.4200    1.9310 C   0  0  0  0  0  0  0  0  0  0  0  0
    0.5090    0.5690    2.5830 O   0  0  0  0  0  0  0  0  0  0  0  0
   -0.0590   -3.6380    1.6550 H   0  0  0  0  0  0  0  0  0  0  0  0
    1.5740   -3.3450    0.8040 H   0  0  0  0  0  0  0  0  0  0  0  0
    1.3450   -4.6410    1.9750 H   0  0  0  0  0  0  0  0  0  0  0  0
    2.3180   -3.2220    3.4130 H   0  0  0  0  0  0  0  0  0  0  0  0
    0.2310   -3.7470    4.2870 H   0  0  0  0  0  0  0  0  0  0  0  0
   -0.6060   -2.3550    3.5610 H   0  0  0  0  0  0  0  0  0  0  0  0
    0.7350   -2.1280    4.8170 H   0  0  0  0  0  0  0  0  0  0  0  0
    2.9200   -1.4200    2.0540 H   0  0  0  0  0  0  0  0  0  0  0  0
    2.5430    0.2720    3.6870 H   0  0  0  0  0  0  0  0  0  0  0  0
    3.0840   -1.2300    4.2720 H   0  0  0  0  0  0  0  0  0  0  0  0
    0.5340   -0.4830    0.5900 N   0  0  0  0  0  0  0  0  0  0  0  0
   -0.3810    0.4650    0.0600 C   0  0  1  0  0  0  0  0  0  0  0  0
    0.1260    1.2470   -1.1080 C   0  0  0  0  0  0  0  0  0  0  0  0
    1.3270    2.0450   -0.8460 C   0  0  0  0  0  0  0  0  0  0  0  0
    1.3510    3.3370   -0.4050 C   0  0  0  0  0  0  0  0  0  0  0  0
    2.5180    4.0320   -0.1780 C   0  0  0  0  0  0  0  0  0  0  0  0
    3.7330    3.4080   -0.4030 C   0  0  0  0  0  0  0  0  0  0  0  0
    3.7350    2.1010   -0.8500 C   0  0  0  0  0  0  0  0  0  0  0  0
    2.5520    1.4250   -1.0700 C   0  0  0  0  0  0  0  0  0  0  0  0
   -1.5980   -0.2460   -0.4160 C   0  0  0  0  0  0  0  0  0  0  0  0
   -2.5840    0.4090   -0.9080 O   0  0  0  0  0  0  0  0  0  0  0  0
    0.8760   -1.2480   -0.0230 H   0  0  0  0  0  0  0  0  0  0  0  0
   -0.7070    1.1680    0.8440 H   0  0  0  0  0  0  0  0  0  0  0  0
   -0.6830    1.9530   -1.4090 H   0  0  0  0  0  0  0  0  0  0  0  0
    0.2640    0.5630   -1.9710 H   0  0  0  0  0  0  0  0  0  0  0  0
    0.4150    3.8280   -0.2280 H   0  0  0  0  0  0  0  0  0  0  0  0
    2.4530    5.0670    0.1770 H   0  0  0  0  0  0  0  0  0  0  0  0
    4.6690    3.9470   -0.2270 H   0  0  0  0  0  0  0  0  0  0  0  0
    4.6990    1.6450   -1.0150 H   0  0  0  0  0  0  0  0  0  0  0  0
    2.6370    0.4050   -1.4200 H   0  0  0  0  0  0  0  0  0  0  0  0
   -3.7740   -2.2930    1.4220 O   0  0  0  0  0  0  0  0  0  0  0  0
   -4.0720   -1.9590    0.1090 C   0  0  0  0  0  0  0  0  0  0  0  0
   -2.9240   -2.3610   -0.8160 C   0  0  2  0  0  0  0  0  0  0  0  0
   -1.7570   -1.6430   -0.3650 N   0  0  0  0  0  0  0  0  0  0  0  0
   -3.2700   -2.0880   -2.2270 C   0  0  0  0  0  0  0  0  0  0  0  0
   -2.5660   -1.3080   -2.8930 O   0  0  0  0  0  0  0  0  0  0  0  0
   -4.3790   -2.7170   -2.7710 O   0  0  0  0  0  0  0  0  0  0  0  0
   -3.3830   -1.5130    1.8920 H   0  0  0  0  0  0  0  0  0  0  0  0
   -4.2570   -0.8690    0.0600 H   0  0  0  0  0  0  0  0  0  0  0  0
   -5.0050   -2.4970   -0.1590 H   0  0  0  0  0  0  0  0  0  0  0  0
   -2.7880   -3.4530   -0.6370 H   0  0  0  0  0  0  0  0  0  0  0  0
   -0.9650   -2.1890    0.0270 H   0  0  0  0  0  0  0  0  0  0  0  0
  1 10  1  0  0  0  0
  1  2  1  0  0  0  0
  2 11  1  0  0  0  0
  2  3  1  0  0  0  0
  3 12  1  0  0  0  0
  3 14  1  0  0  0  0
  4 15  1  6  0  0  0
  4  2  1  0  0  0  0
  4  5  1  0  0  0  0
  5 17  1  0  0  0  0
  6  4  1  0  0  0  0
  6  7  2  0  0  0  0
  8  1  1  0  0  0  0
  9  1  1  0  0  0  0
 13  3  1  0  0  0  0
 16  5  1  0  0  0  0
 18  6  1  0  0  0  0
 19 18  1  0  0  0  0
 19 30  1  1  0  0  0
 20 21  1  0  0  0  0
 20 19  1  0  0  0  0
 21 22  1  0  0  0  0
 22 33  1  0  0  0  0
 22 23  2  0  0  0  0
 23 34  1  0  0  0  0
 24 35  1  0  0  0  0
 24 23  1  0  0  0  0
 25 24  2  0  0  0  0
 26 25  1  0  0  0  0
 26 21  2  0  0  0  0
 27 41  1  0  0  0  0
 27 19  1  0  0  0  0
 28 27  2  0  0  0  0
 29 18  1  0  0  0  0
 31 20  1  0  0  0  0
 32 20  1  0  0  0  0
 36 25  1  0  0  0  0
 37 26  1  0  0  0  0
 38 45  1  0  0  0  0
 39 38  1  0  0  0  0
 40 48  1  1  0  0  0
 40 41  1  0  0  0  0
 40 39  1  0  0  0  0
 41 49  1  0  0  0  0
 42 40  1  0  0  0  0
 43 42  2  0  0  0  0
 44 42  1  0  0  0  0
 46 39  1  0  0  0  0
 47 39  1  0  0  0  0
M  END
$$$$
