VFT.pdb
 OpenBabel07022419273D

 52 52  0  0  1  0  0  0  0  0999 V2000
    1.7930   -4.8300    1.7370 C   0  0  0  0  0  0  0  0  0  0  0  0
    2.3290   -4.1320    0.5210 C   0  0  0  0  0  0  0  0  0  0  0  0
    1.2170   -3.9730   -0.4780 C   0  0  0  0  0  0  0  0  0  0  0  0
    3.0920   -2.8850    0.8100 C   0  0  2  0  0  0  0  0  0  0  0  0
    4.2210   -3.3310    1.6590 N   0  0  0  0  0  0  0  0  0  0  0  0
    2.3730   -1.7920    1.4400 C   0  0  0  0  0  0  0  0  0  0  0  0
    2.5370   -1.4210    2.6390 O   0  0  0  0  0  0  0  0  0  0  0  0
    1.5240   -5.8690    1.4290 H   0  0  0  0  0  0  0  0  0  0  0  0
    2.5160   -4.9280    2.5580 H   0  0  0  0  0  0  0  0  0  0  0  0
    0.8180   -4.3820    2.0840 H   0  0  0  0  0  0  0  0  0  0  0  0
    3.0260   -4.8970    0.0490 H   0  0  0  0  0  0  0  0  0  0  0  0
    1.0390   -4.9670   -0.9700 H   0  0  0  0  0  0  0  0  0  0  0  0
    1.4840   -3.3000   -1.3160 H   0  0  0  0  0  0  0  0  0  0  0  0
    0.2620   -3.6720   -0.0010 H   0  0  0  0  0  0  0  0  0  0  0  0
    3.5590   -2.5340   -0.1270 H   0  0  0  0  0  0  0  0  0  0  0  0
    4.8960   -3.8410    1.0840 H   0  0  0  0  0  0  0  0  0  0  0  0
    4.5790   -2.5750    2.2440 H   0  0  0  0  0  0  0  0  0  0  0  0
    1.4050   -1.0380    0.7200 N   0  0  0  0  0  0  0  0  0  0  0  0
    0.6890    0.0720    1.3700 C   0  0  1  0  0  0  0  0  0  0  0  0
    1.2760    1.3210    0.6840 C   0  0  0  0  0  0  0  0  0  0  0  0
    0.6970    2.5690    1.1810 C   0  0  0  0  0  0  0  0  0  0  0  0
    1.2740    3.1700    2.2790 C   0  0  0  0  0  0  0  0  0  0  0  0
    0.7280    4.3470    2.7330 C   0  0  0  0  0  0  0  0  0  0  0  0
   -0.3640    4.9540    2.1490 C   0  0  0  0  0  0  0  0  0  0  0  0
   -0.9000    4.3070    1.0530 C   0  0  0  0  0  0  0  0  0  0  0  0
   -0.4030    3.1350    0.5540 C   0  0  0  0  0  0  0  0  0  0  0  0
   -0.7540    0.0580    1.1210 C   0  0  0  0  0  0  0  0  0  0  0  0
   -1.5450    0.8940    1.6640 O   0  0  0  0  0  0  0  0  0  0  0  0
    1.1490   -1.2040   -0.2680 H   0  0  0  0  0  0  0  0  0  0  0  0
    0.9480    0.1150    2.4650 H   0  0  0  0  0  0  0  0  0  0  0  0
    2.3830    1.3600    0.8670 H   0  0  0  0  0  0  0  0  0  0  0  0
    1.1570    1.2370   -0.4040 H   0  0  0  0  0  0  0  0  0  0  0  0
    2.1390    2.7030    2.7540 H   0  0  0  0  0  0  0  0  0  0  0  0
    1.1850    4.8230    3.6020 H   0  0  0  0  0  0  0  0  0  0  0  0
   -0.7920    5.8840    2.5120 H   0  0  0  0  0  0  0  0  0  0  0  0
   -1.7670    4.7310    0.5400 H   0  0  0  0  0  0  0  0  0  0  0  0
   -0.8410    2.6350   -0.3220 H   0  0  0  0  0  0  0  0  0  0  0  0
   -4.5360   -0.5860   -1.7430 C   0  0  0  0  0  0  0  0  0  0  0  0
   -3.0680   -0.5900   -1.4620 C   0  0  1  0  0  0  0  0  0  0  0  0
   -2.5440    0.6460   -1.7900 O   0  0  0  0  0  0  0  0  0  0  0  0
   -2.8230   -0.8850    0.0180 C   0  0  2  0  0  0  0  0  0  0  0  0
   -1.3740   -0.8810    0.2590 N   0  0  0  0  0  0  0  0  0  0  0  0
   -3.4000   -2.2020    0.3240 C   0  0  0  0  0  0  0  0  0  0  0  0
   -2.6550   -3.1260    0.7310 O   0  0  0  0  0  0  0  0  0  0  0  0
   -4.7490   -2.4680    0.1790 O   0  0  0  0  0  0  0  0  0  0  0  0
   -4.7780    0.1170   -2.5540 H   0  0  0  0  0  0  0  0  0  0  0  0
   -4.8840   -1.6090   -2.0380 H   0  0  0  0  0  0  0  0  0  0  0  0
   -5.1320   -0.2720   -0.8530 H   0  0  0  0  0  0  0  0  0  0  0  0
   -2.6050   -1.3930   -2.0770 H   0  0  0  0  0  0  0  0  0  0  0  0
   -1.6210    0.5880   -2.1380 H   0  0  0  0  0  0  0  0  0  0  0  0
   -3.2390   -0.0580    0.6190 H   0  0  0  0  0  0  0  0  0  0  0  0
   -0.8350   -1.6100   -0.2480 H   0  0  0  0  0  0  0  0  0  0  0  0
  1 10  1  0  0  0  0
  1  9  1  0  0  0  0
  2  4  1  0  0  0  0
  2  1  1  0  0  0  0
  3 14  1  0  0  0  0
  3  2  1  0  0  0  0
  4 15  1  6  0  0  0
  4  6  1  0  0  0  0
  4  5  1  0  0  0  0
  5 17  1  0  0  0  0
  6  7  2  0  0  0  0
  8  1  1  0  0  0  0
 11  2  1  0  0  0  0
 12  3  1  0  0  0  0
 13  3  1  0  0  0  0
 16  5  1  0  0  0  0
 18 19  1  0  0  0  0
 18  6  1  0  0  0  0
 19 30  1  1  0  0  0
 20 31  1  0  0  0  0
 20 21  1  0  0  0  0
 20 19  1  0  0  0  0
 21 22  1  0  0  0  0
 22 23  2  0  0  0  0
 22 33  1  0  0  0  0
 23 34  1  0  0  0  0
 24 35  1  0  0  0  0
 24 23  1  0  0  0  0
 25 24  2  0  0  0  0
 26 25  1  0  0  0  0
 26 21  2  0  0  0  0
 27 19  1  0  0  0  0
 27 28  2  0  0  0  0
 29 18  1  0  0  0  0
 32 20  1  0  0  0  0
 36 25  1  0  0  0  0
 37 26  1  0  0  0  0
 38 39  1  0  0  0  0
 38 48  1  0  0  0  0
 39 49  1  6  0  0  0
 39 41  1  0  0  0  0
 40 39  1  0  0  0  0
 41 42  1  0  0  0  0
 41 43  1  0  0  0  0
 41 51  1  1  0  0  0
 42 27  1  0  0  0  0
 43 44  1  0  0  0  0
 45 43  2  0  0  0  0
 46 38  1  0  0  0  0
 47 38  1  0  0  0  0
 50 40  1  0  0  0  0
 52 42  1  0  0  0  0
M  END
$$$$
