VFV.pdb
 OpenBabel07022419273D

 54 54  0  0  1  0  0  0  0  0999 V2000
    1.2460   -4.2130    2.1020 C   0  0  0  0  0  0  0  0  0  0  0  0
    2.0410   -4.0710    0.8320 C   0  0  0  0  0  0  0  0  0  0  0  0
    1.2220   -4.1740   -0.4110 C   0  0  0  0  0  0  0  0  0  0  0  0
    3.0120   -2.9460    0.8540 C   0  0  2  0  0  0  0  0  0  0  0  0
    3.9650   -3.1970    1.9560 N   0  0  0  0  0  0  0  0  0  0  0  0
    2.4870   -1.6020    1.0680 C   0  0  0  0  0  0  0  0  0  0  0  0
    2.8880   -0.8760    2.0540 O   0  0  0  0  0  0  0  0  0  0  0  0
    0.3180   -4.7730    1.8430 H   0  0  0  0  0  0  0  0  0  0  0  0
    1.7830   -4.7900    2.8530 H   0  0  0  0  0  0  0  0  0  0  0  0
    0.9180   -3.2400    2.5160 H   0  0  0  0  0  0  0  0  0  0  0  0
    2.6880   -5.0140    0.8240 H   0  0  0  0  0  0  0  0  0  0  0  0
    1.1750   -5.2290   -0.7690 H   0  0  0  0  0  0  0  0  0  0  0  0
    1.7800   -3.6380   -1.2260 H   0  0  0  0  0  0  0  0  0  0  0  0
    0.2030   -3.8030   -0.3530 H   0  0  0  0  0  0  0  0  0  0  0  0
    3.6420   -3.0330   -0.0710 H   0  0  0  0  0  0  0  0  0  0  0  0
    4.6290   -3.9460    1.7170 H   0  0  0  0  0  0  0  0  0  0  0  0
    4.4640   -2.3280    2.2270 H   0  0  0  0  0  0  0  0  0  0  0  0
    1.5200   -0.9270    0.2780 N   0  0  0  0  0  0  0  0  0  0  0  0
    1.0540    0.4220    0.5510 C   0  0  1  0  0  0  0  0  0  0  0  0
    1.3000    1.3640   -0.5610 C   0  0  0  0  0  0  0  0  0  0  0  0
    0.8060    2.7160   -0.2320 C   0  0  0  0  0  0  0  0  0  0  0  0
    1.5980    3.5900    0.5240 C   0  0  0  0  0  0  0  0  0  0  0  0
    1.2100    4.8710    0.8340 C   0  0  0  0  0  0  0  0  0  0  0  0
   -0.0020    5.3590    0.4040 C   0  0  0  0  0  0  0  0  0  0  0  0
   -0.7940    4.5140   -0.3400 C   0  0  0  0  0  0  0  0  0  0  0  0
   -0.4110    3.2280   -0.6560 C   0  0  0  0  0  0  0  0  0  0  0  0
   -0.3880    0.3470    0.8250 C   0  0  0  0  0  0  0  0  0  0  0  0
   -1.0270    1.3730    1.1740 O   0  0  0  0  0  0  0  0  0  0  0  0
    1.1390   -1.4420   -0.5420 H   0  0  0  0  0  0  0  0  0  0  0  0
    1.6180    0.8130    1.4410 H   0  0  0  0  0  0  0  0  0  0  0  0
    2.3680    1.4900   -0.8350 H   0  0  0  0  0  0  0  0  0  0  0  0
    0.7020    1.0120   -1.4450 H   0  0  0  0  0  0  0  0  0  0  0  0
    2.5540    3.1900    0.8570 H   0  0  0  0  0  0  0  0  0  0  0  0
    1.8700    5.5190    1.4320 H   0  0  0  0  0  0  0  0  0  0  0  0
   -0.2870    6.3690    0.6600 H   0  0  0  0  0  0  0  0  0  0  0  0
   -1.7430    4.8970   -0.6770 H   0  0  0  0  0  0  0  0  0  0  0  0
   -1.0430    2.5740   -1.2510 H   0  0  0  0  0  0  0  0  0  0  0  0
   -4.7100   -1.5020   -0.1480 C   0  0  0  0  0  0  0  0  0  0  0  0
   -3.2160   -1.4070   -0.2940 C   0  0  0  0  0  0  0  0  0  0  0  0
   -2.7980   -0.5640   -1.4830 C   0  0  0  0  0  0  0  0  0  0  0  0
   -2.5670   -0.9140    0.9870 C   0  0  2  0  0  0  0  0  0  0  0  0
   -1.1200   -0.8680    0.7100 N   0  0  0  0  0  0  0  0  0  0  0  0
   -2.8080   -1.9580    2.0290 C   0  0  0  0  0  0  0  0  0  0  0  0
   -3.9590   -2.2160    2.4620 O   0  0  0  0  0  0  0  0  0  0  0  0
   -1.7720   -2.7090    2.5840 O   0  0  0  0  0  0  0  0  0  0  0  0
   -5.0470   -2.5540   -0.1020 H   0  0  0  0  0  0  0  0  0  0  0  0
   -5.1630   -1.0400   -1.0510 H   0  0  0  0  0  0  0  0  0  0  0  0
   -4.9910   -0.9330    0.7670 H   0  0  0  0  0  0  0  0  0  0  0  0
   -2.7970   -2.4400   -0.4620 H   0  0  0  0  0  0  0  0  0  0  0  0
   -2.6100    0.4610   -1.0830 H   0  0  0  0  0  0  0  0  0  0  0  0
   -1.8810   -0.9630   -1.9750 H   0  0  0  0  0  0  0  0  0  0  0  0
   -3.6360   -0.5940   -2.2080 H   0  0  0  0  0  0  0  0  0  0  0  0
   -2.9480    0.0650    1.2710 H   0  0  0  0  0  0  0  0  0  0  0  0
   -0.6060   -1.7250    0.4260 H   0  0  0  0  0  0  0  0  0  0  0  0
  1 10  1  0  0  0  0
  1  9  1  0  0  0  0
  2  4  1  0  0  0  0
  2  1  1  0  0  0  0
  3 14  1  0  0  0  0
  3  2  1  0  0  0  0
  4 15  1  6  0  0  0
  4  6  1  0  0  0  0
  4  5  1  0  0  0  0
  5 17  1  0  0  0  0
  6  7  2  0  0  0  0
  8  1  1  0  0  0  0
 11  2  1  0  0  0  0
 12  3  1  0  0  0  0
 13  3  1  0  0  0  0
 16  5  1  0  0  0  0
 18 19  1  0  0  0  0
 18  6  1  0  0  0  0
 19 27  1  0  0  0  0
 19 30  1  1  0  0  0
 20 21  1  0  0  0  0
 20 19  1  0  0  0  0
 21 22  1  0  0  0  0
 22 23  2  0  0  0  0
 22 33  1  0  0  0  0
 23 34  1  0  0  0  0
 24 35  1  0  0  0  0
 24 23  1  0  0  0  0
 25 24  2  0  0  0  0
 26 25  1  0  0  0  0
 26 21  2  0  0  0  0
 27 28  2  0  0  0  0
 29 18  1  0  0  0  0
 31 20  1  0  0  0  0
 32 20  1  0  0  0  0
 36 25  1  0  0  0  0
 37 26  1  0  0  0  0
 38 46  1  0  0  0  0
 38 48  1  0  0  0  0
 39 38  1  0  0  0  0
 39 41  1  0  0  0  0
 40 50  1  0  0  0  0
 40 39  1  0  0  0  0
 41 53  1  1  0  0  0
 41 43  1  0  0  0  0
 42 27  1  0  0  0  0
 42 41  1  0  0  0  0
 43 44  2  0  0  0  0
 43 45  1  0  0  0  0
 47 38  1  0  0  0  0
 49 39  1  0  0  0  0
 51 40  1  0  0  0  0
 52 40  1  0  0  0  0
 54 42  1  0  0  0  0
M  END
$$$$
