VFW.pdb
 OpenBabel07022419273D

 62 64  0  0  1  0  0  0  0  0999 V2000
    2.0290   -1.4800    5.0650 C   0  0  0  0  0  0  0  0  0  0  0  0
    2.9660   -0.8360    4.0660 C   0  0  0  0  0  0  0  0  0  0  0  0
    2.9590    0.6520    4.3010 C   0  0  0  0  0  0  0  0  0  0  0  0
    2.6600   -1.2230    2.6540 C   0  0  2  0  0  0  0  0  0  0  0  0
    3.6050   -0.5650    1.7770 N   0  0  0  0  0  0  0  0  0  0  0  0
    1.2660   -1.0130    2.2460 C   0  0  0  0  0  0  0  0  0  0  0  0
    0.3110   -1.4770    2.9090 O   0  0  0  0  0  0  0  0  0  0  0  0
    1.1640   -0.8300    5.3060 H   0  0  0  0  0  0  0  0  0  0  0  0
    1.6810   -2.4770    4.7120 H   0  0  0  0  0  0  0  0  0  0  0  0
    2.5400   -1.6750    6.0490 H   0  0  0  0  0  0  0  0  0  0  0  0
    3.9890   -1.2010    4.2970 H   0  0  0  0  0  0  0  0  0  0  0  0
    2.4140    0.8930    5.2370 H   0  0  0  0  0  0  0  0  0  0  0  0
    3.9970    1.0530    4.3950 H   0  0  0  0  0  0  0  0  0  0  0  0
    2.4780    1.2190    3.4880 H   0  0  0  0  0  0  0  0  0  0  0  0
    2.9130   -2.3240    2.5760 H   0  0  0  0  0  0  0  0  0  0  0  0
    3.5910   -0.9320    0.8040 H   0  0  0  0  0  0  0  0  0  0  0  0
    3.5730    0.4750    1.8360 H   0  0  0  0  0  0  0  0  0  0  0  0
    0.9680   -0.2690    1.0750 N   0  0  0  0  0  0  0  0  0  0  0  0
   -0.3720   -0.0210    0.6110 C   0  0  1  0  0  0  0  0  0  0  0  0
   -0.6260    1.4610    0.7150 C   0  0  0  0  0  0  0  0  0  0  0  0
    0.3120    2.2790   -0.0930 C   0  0  0  0  0  0  0  0  0  0  0  0
    0.0910    2.6540   -1.4000 C   0  0  0  0  0  0  0  0  0  0  0  0
    0.9780    3.4110   -2.1190 C   0  0  0  0  0  0  0  0  0  0  0  0
    2.1530    3.8390   -1.5570 C   0  0  0  0  0  0  0  0  0  0  0  0
    2.4040    3.4810   -0.2530 C   0  0  0  0  0  0  0  0  0  0  0  0
    1.5070    2.7170    0.4690 C   0  0  0  0  0  0  0  0  0  0  0  0
   -0.6520   -0.5300   -0.7220 C   0  0  0  0  0  0  0  0  0  0  0  0
    0.2520   -1.1270   -1.3550 O   0  0  0  0  0  0  0  0  0  0  0  0
    1.7390    0.1490    0.4700 H   0  0  0  0  0  0  0  0  0  0  0  0
   -1.0580   -0.5030    1.3600 H   0  0  0  0  0  0  0  0  0  0  0  0
   -1.6560    1.6540    0.3500 H   0  0  0  0  0  0  0  0  0  0  0  0
   -0.6350    1.7960    1.7900 H   0  0  0  0  0  0  0  0  0  0  0  0
   -0.8310    2.3210   -1.8470 H   0  0  0  0  0  0  0  0  0  0  0  0
    0.7660    3.6830   -3.1380 H   0  0  0  0  0  0  0  0  0  0  0  0
    2.8530    4.4420   -2.1390 H   0  0  0  0  0  0  0  0  0  0  0  0
    3.3050    3.7910    0.2260 H   0  0  0  0  0  0  0  0  0  0  0  0
    1.7240    2.4480    1.4910 H   0  0  0  0  0  0  0  0  0  0  0  0
   -1.9080   -0.3930   -1.3680 N   0  0  0  0  0  0  0  0  0  0  0  0
   -2.1610   -0.9100   -2.6890 C   0  0  1  0  0  0  0  0  0  0  0  0
   -3.1410   -2.0560   -2.6690 C   0  0  0  0  0  0  0  0  0  0  0  0
   -2.6840   -3.2070   -1.8640 C   0  0  0  0  0  0  0  0  0  0  0  0
   -2.0480   -4.3450   -2.3610 C   0  0  0  0  0  0  0  0  0  0  0  0
   -1.7750   -5.1180   -1.3230 N   0  0  0  0  0  0  0  0  0  0  0  0
   -2.2070   -4.5280   -0.1810 C   0  0  0  0  0  0  0  0  0  0  0  0
   -2.1480   -4.9590    1.1180 C   0  0  0  0  0  0  0  0  0  0  0  0
   -2.6700   -4.1940    2.1620 C   0  0  0  0  0  0  0  0  0  0  0  0
   -3.2360   -3.0030    1.8140 C   0  0  0  0  0  0  0  0  0  0  0  0
   -3.3160   -2.5340    0.5220 C   0  0  0  0  0  0  0  0  0  0  0  0
   -2.7870   -3.3180   -0.4950 C   0  0  0  0  0  0  0  0  0  0  0  0
   -2.7830    0.1350   -3.5700 C   0  0  0  0  0  0  0  0  0  0  0  0
   -3.0280    1.2960   -3.1160 O   0  0  0  0  0  0  0  0  0  0  0  0
   -3.1070   -0.1200   -4.8880 O   0  0  0  0  0  0  0  0  0  0  0  0
   -2.7100    0.1130   -0.8940 H   0  0  0  0  0  0  0  0  0  0  0  0
   -1.2330   -1.3330   -3.1500 H   0  0  0  0  0  0  0  0  0  0  0  0
   -3.4010   -2.3670   -3.7060 H   0  0  0  0  0  0  0  0  0  0  0  0
   -4.0930   -1.6160   -2.2510 H   0  0  0  0  0  0  0  0  0  0  0  0
   -1.8440   -4.5100   -3.4030 H   0  0  0  0  0  0  0  0  0  0  0  0
   -1.3000   -6.0460   -1.3460 H   0  0  0  0  0  0  0  0  0  0  0  0
   -1.6940   -5.9100    1.3790 H   0  0  0  0  0  0  0  0  0  0  0  0
   -2.6340   -4.5120    3.1890 H   0  0  0  0  0  0  0  0  0  0  0  0
   -3.6500   -2.3870    2.5940 H   0  0  0  0  0  0  0  0  0  0  0  0
   -3.7840   -1.5910    0.2860 H   0  0  0  0  0  0  0  0  0  0  0  0
  1  8  1  0  0  0  0
  1 10  1  0  0  0  0
  2 11  1  0  0  0  0
  2  3  1  0  0  0  0
  2  1  1  0  0  0  0
  3 13  1  0  0  0  0
  3 12  1  0  0  0  0
  4 15  1  6  0  0  0
  4  2  1  0  0  0  0
  5 17  1  0  0  0  0
  5  4  1  0  0  0  0
  6  4  1  0  0  0  0
  6  7  2  0  0  0  0
  9  1  1  0  0  0  0
 14  3  1  0  0  0  0
 16  5  1  0  0  0  0
 18  6  1  0  0  0  0
 19 20  1  0  0  0  0
 19 18  1  0  0  0  0
 19 30  1  1  0  0  0
 20 32  1  0  0  0  0
 21 26  1  0  0  0  0
 21 20  1  0  0  0  0
 22 21  2  0  0  0  0
 23 24  2  0  0  0  0
 23 22  1  0  0  0  0
 24 25  1  0  0  0  0
 25 36  1  0  0  0  0
 25 26  2  0  0  0  0
 26 37  1  0  0  0  0
 27 19  1  0  0  0  0
 28 27  2  0  0  0  0
 29 18  1  0  0  0  0
 31 20  1  0  0  0  0
 33 22  1  0  0  0  0
 34 23  1  0  0  0  0
 35 24  1  0  0  0  0
 38 53  1  0  0  0  0
 38 27  1  0  0  0  0
 39 54  1  6  0  0  0
 39 40  1  0  0  0  0
 39 38  1  0  0  0  0
 40 56  1  0  0  0  0
 40 41  1  0  0  0  0
 41 49  1  0  0  0  0
 42 41  2  0  0  0  0
 42 43  1  0  0  0  0
 43 44  1  0  0  0  0
 44 45  1  0  0  0  0
 45 59  1  0  0  0  0
 45 46  2  0  0  0  0
 46 60  1  0  0  0  0
 47 46  1  0  0  0  0
 47 61  1  0  0  0  0
 48 47  2  0  0  0  0
 49 44  2  0  0  0  0
 49 48  1  0  0  0  0
 50 51  1  0  0  0  0
 50 39  1  0  0  0  0
 52 50  2  0  0  0  0
 55 40  1  0  0  0  0
 57 42  1  0  0  0  0
 58 43  1  0  0  0  0
 62 48  1  0  0  0  0
M  END
$$$$
