VFY.pdb
 OpenBabel07022419273D

 59 60  0  0  1  0  0  0  0  0999 V2000
    3.4770    2.6400    2.2050 C   0  0  0  0  0  0  0  0  0  0  0  0
    4.1890    1.3460    2.3930 C   0  0  0  0  0  0  0  0  0  0  0  0
    3.9060    0.7900    3.7660 C   0  0  0  0  0  0  0  0  0  0  0  0
    3.9740    0.3230    1.3300 C   0  0  2  0  0  0  0  0  0  0  0  0
    4.4020    0.7780    0.0360 N   0  0  0  0  0  0  0  0  0  0  0  0
    2.5740   -0.1620    1.2310 C   0  0  0  0  0  0  0  0  0  0  0  0
    1.9960   -0.5270    2.2850 O   0  0  0  0  0  0  0  0  0  0  0  0
    2.4300    2.5450    2.6110 H   0  0  0  0  0  0  0  0  0  0  0  0
    3.9550    3.3890    2.9020 H   0  0  0  0  0  0  0  0  0  0  0  0
    3.5300    3.0630    1.2050 H   0  0  0  0  0  0  0  0  0  0  0  0
    5.2930    1.5800    2.3770 H   0  0  0  0  0  0  0  0  0  0  0  0
    3.8090   -0.3160    3.7530 H   0  0  0  0  0  0  0  0  0  0  0  0
    4.7140    1.0430    4.4850 H   0  0  0  0  0  0  0  0  0  0  0  0
    2.9540    1.2390    4.1200 H   0  0  0  0  0  0  0  0  0  0  0  0
    4.6610   -0.5310    1.5810 H   0  0  0  0  0  0  0  0  0  0  0  0
    4.6440    0.0000   -0.6170 H   0  0  0  0  0  0  0  0  0  0  0  0
    5.1910    1.4490    0.1530 H   0  0  0  0  0  0  0  0  0  0  0  0
    1.8920   -0.2210   -0.0000 N   0  0  0  0  0  0  0  0  0  0  0  0
    0.5360   -0.6840   -0.1530 C   0  0  1  0  0  0  0  0  0  0  0  0
   -0.3440    0.3650   -0.7490 C   0  0  0  0  0  0  0  0  0  0  0  0
   -0.3540    1.5510    0.1310 C   0  0  0  0  0  0  0  0  0  0  0  0
   -1.2840    1.6490    1.1410 C   0  0  0  0  0  0  0  0  0  0  0  0
   -1.3720    2.7120    1.9960 C   0  0  0  0  0  0  0  0  0  0  0  0
   -0.5040    3.7600    1.8710 C   0  0  0  0  0  0  0  0  0  0  0  0
    0.4470    3.6990    0.8660 C   0  0  0  0  0  0  0  0  0  0  0  0
    0.5210    2.6050    0.0040 C   0  0  0  0  0  0  0  0  0  0  0  0
    0.4630   -1.9810   -0.8720 C   0  0  0  0  0  0  0  0  0  0  0  0
    1.5020   -2.5580   -1.2660 O   0  0  0  0  0  0  0  0  0  0  0  0
    2.4510    0.1070   -0.8460 H   0  0  0  0  0  0  0  0  0  0  0  0
    0.1470   -0.8650    0.8920 H   0  0  0  0  0  0  0  0  0  0  0  0
   -1.3880    0.0150   -0.8870 H   0  0  0  0  0  0  0  0  0  0  0  0
   -0.0140    0.7030   -1.7520 H   0  0  0  0  0  0  0  0  0  0  0  0
   -1.9830    0.8180    1.2520 H   0  0  0  0  0  0  0  0  0  0  0  0
   -2.1170    2.7350    2.7650 H   0  0  0  0  0  0  0  0  0  0  0  0
   -0.5470    4.6350    2.5420 H   0  0  0  0  0  0  0  0  0  0  0  0
    1.1350    4.5230    0.7610 H   0  0  0  0  0  0  0  0  0  0  0  0
    1.2750    2.5660   -0.7860 H   0  0  0  0  0  0  0  0  0  0  0  0
   -6.6000   -3.3840    1.1220 O   0  0  0  0  0  0  0  0  0  0  0  0
   -5.3710   -3.7850    0.5720 C   0  0  0  0  0  0  0  0  0  0  0  0
   -5.3180   -4.4830   -0.6230 C   0  0  0  0  0  0  0  0  0  0  0  0
   -4.0790   -4.8540   -1.1190 C   0  0  0  0  0  0  0  0  0  0  0  0
   -2.8910   -4.5660   -0.4870 C   0  0  0  0  0  0  0  0  0  0  0  0
   -1.5520   -4.9260   -0.9530 C   0  0  0  0  0  0  0  0  0  0  0  0
   -0.9200   -3.8750   -1.8290 C   0  0  2  0  0  0  0  0  0  0  0  0
   -0.7810   -2.6090   -1.1350 N   0  0  0  0  0  0  0  0  0  0  0  0
   -1.6250   -3.6720   -3.1080 C   0  0  0  0  0  0  0  0  0  0  0  0
   -1.8260   -4.6780   -3.8350 O   0  0  0  0  0  0  0  0  0  0  0  0
   -2.9850   -3.8650    0.7100 C   0  0  0  0  0  0  0  0  0  0  0  0
   -4.2060   -3.4800    1.2320 C   0  0  0  0  0  0  0  0  0  0  0  0
   -2.0780   -2.4530   -3.5590 O   0  0  0  0  0  0  0  0  0  0  0  0
   -6.6440   -3.1560    2.1040 H   0  0  0  0  0  0  0  0  0  0  0  0
   -6.2320   -4.7190   -1.1350 H   0  0  0  0  0  0  0  0  0  0  0  0
   -4.0350   -5.3900   -2.0390 H   0  0  0  0  0  0  0  0  0  0  0  0
   -0.8860   -5.0840   -0.0840 H   0  0  0  0  0  0  0  0  0  0  0  0
   -1.5970   -5.8600   -1.5350 H   0  0  0  0  0  0  0  0  0  0  0  0
    0.1050   -4.2210   -2.0780 H   0  0  0  0  0  0  0  0  0  0  0  0
   -1.6320   -2.0780   -0.7800 H   0  0  0  0  0  0  0  0  0  0  0  0
   -2.0850   -3.6090    1.2530 H   0  0  0  0  0  0  0  0  0  0  0  0
   -4.2210   -2.9360    2.1650 H   0  0  0  0  0  0  0  0  0  0  0  0
  1  2  1  0  0  0  0
  1  8  1  0  0  0  0
  1  9  1  0  0  0  0
  2  3  1  0  0  0  0
  3 14  1  0  0  0  0
  3 13  1  0  0  0  0
  4 15  1  1  0  0  0
  4  2  1  0  0  0  0
  5 17  1  0  0  0  0
  5  4  1  0  0  0  0
  6  4  1  0  0  0  0
  6  7  2  0  0  0  0
 10  1  1  0  0  0  0
 11  2  1  0  0  0  0
 12  3  1  0  0  0  0
 16  5  1  0  0  0  0
 18  6  1  0  0  0  0
 19 18  1  0  0  0  0
 19 30  1  1  0  0  0
 20 19  1  0  0  0  0
 20 21  1  0  0  0  0
 21 22  1  0  0  0  0
 22 33  1  0  0  0  0
 22 23  2  0  0  0  0
 23 34  1  0  0  0  0
 24 23  1  0  0  0  0
 24 35  1  0  0  0  0
 25 24  2  0  0  0  0
 26 21  2  0  0  0  0
 26 25  1  0  0  0  0
 27 19  1  0  0  0  0
 28 27  2  0  0  0  0
 29 18  1  0  0  0  0
 31 20  1  0  0  0  0
 32 20  1  0  0  0  0
 36 25  1  0  0  0  0
 37 26  1  0  0  0  0
 38 51  1  0  0  0  0
 39 38  1  0  0  0  0
 39 49  1  0  0  0  0
 40 39  2  0  0  0  0
 41 40  1  0  0  0  0
 41 42  2  0  0  0  0
 42 48  1  0  0  0  0
 43 42  1  0  0  0  0
 43 54  1  0  0  0  0
 44 56  1  6  0  0  0
 44 45  1  0  0  0  0
 44 43  1  0  0  0  0
 45 27  1  0  0  0  0
 45 57  1  0  0  0  0
 46 44  1  0  0  0  0
 47 46  2  0  0  0  0
 48 49  2  0  0  0  0
 48 58  1  0  0  0  0
 49 59  1  0  0  0  0
 50 46  1  0  0  0  0
 52 40  1  0  0  0  0
 53 41  1  0  0  0  0
 55 43  1  0  0  0  0
M  END
$$$$
