VGA.pdb
 OpenBabel07022419253D

 35 34  0  0  1  0  0  0  0  0999 V2000
   -1.3720   -3.0810    0.2200 C   0  0  0  0  0  0  0  0  0  0  0  0
   -0.3710   -3.2280    1.3190 C   0  0  0  0  0  0  0  0  0  0  0  0
   -0.5600   -4.6080    1.9360 C   0  0  0  0  0  0  0  0  0  0  0  0
    1.0620   -3.1550    0.8030 C   0  0  2  0  0  0  0  0  0  0  0  0
    2.0110   -3.2980    1.8720 N   0  0  0  0  0  0  0  0  0  0  0  0
    1.2590   -1.8080    0.1570 C   0  0  0  0  0  0  0  0  0  0  0  0
    0.5350   -1.4590   -0.8090 O   0  0  0  0  0  0  0  0  0  0  0  0
   -0.9300   -3.4480   -0.7300 H   0  0  0  0  0  0  0  0  0  0  0  0
   -2.3010   -3.6440    0.4870 H   0  0  0  0  0  0  0  0  0  0  0  0
   -1.7030   -2.0200    0.0940 H   0  0  0  0  0  0  0  0  0  0  0  0
   -0.5460   -2.4710    2.0920 H   0  0  0  0  0  0  0  0  0  0  0  0
   -1.6670   -4.7210    2.0890 H   0  0  0  0  0  0  0  0  0  0  0  0
   -0.2010   -5.3930    1.2350 H   0  0  0  0  0  0  0  0  0  0  0  0
   -0.1130   -4.6830    2.9420 H   0  0  0  0  0  0  0  0  0  0  0  0
    1.1870   -3.9160    0.0040 H   0  0  0  0  0  0  0  0  0  0  0  0
    1.7940   -4.0980    2.4870 H   0  0  0  0  0  0  0  0  0  0  0  0
    2.9670   -3.2560    1.5080 H   0  0  0  0  0  0  0  0  0  0  0  0
    2.2610   -0.9160    0.6280 N   0  0  0  0  0  0  0  0  0  0  0  0
    2.4120    0.3650   -0.0200 C   0  0  0  0  0  0  0  0  0  0  0  0
    1.1540    1.1530    0.0960 C   0  0  0  0  0  0  0  0  0  0  0  0
    0.1850    0.6430    0.7070 O   0  0  0  0  0  0  0  0  0  0  0  0
    2.8660   -1.2160    1.4390 H   0  0  0  0  0  0  0  0  0  0  0  0
    2.6510    0.1470   -1.0930 H   0  0  0  0  0  0  0  0  0  0  0  0
    3.2860    0.8840    0.3890 H   0  0  0  0  0  0  0  0  0  0  0  0
   -1.2180    3.0390   -1.3650 C   0  0  0  0  0  0  0  0  0  0  0  0
   -0.1350    3.2940   -0.3920 C   0  0  2  0  0  0  0  0  0  0  0  0
    0.9960    2.4410   -0.4430 N   0  0  0  0  0  0  0  0  0  0  0  0
   -0.6470    3.3900    1.0190 C   0  0  0  0  0  0  0  0  0  0  0  0
    0.0010    2.8310    1.9210 O   0  0  0  0  0  0  0  0  0  0  0  0
   -1.7950    4.0680    1.3520 O   0  0  0  0  0  0  0  0  0  0  0  0
   -0.9450    2.3880   -2.2160 H   0  0  0  0  0  0  0  0  0  0  0  0
   -2.1110    2.6300   -0.8100 H   0  0  0  0  0  0  0  0  0  0  0  0
   -1.5670    3.9970   -1.8040 H   0  0  0  0  0  0  0  0  0  0  0  0
    0.2650    4.3640   -0.5430 H   0  0  0  0  0  0  0  0  0  0  0  0
    1.8630    2.7950   -0.9570 H   0  0  0  0  0  0  0  0  0  0  0  0
  1  9  1  0  0  0  0
  1  2  1  0  0  0  0
  2  3  1  0  0  0  0
  2 11  1  0  0  0  0
  3 12  1  0  0  0  0
  3 14  1  0  0  0  0
  4 15  1  6  0  0  0
  4  2  1  0  0  0  0
  4  5  1  0  0  0  0
  5 16  1  0  0  0  0
  6 18  1  0  0  0  0
  6  4  1  0  0  0  0
  7  6  2  0  0  0  0
  8  1  1  0  0  0  0
 10  1  1  0  0  0  0
 13  3  1  0  0  0  0
 17  5  1  0  0  0  0
 18 22  1  0  0  0  0
 19 20  1  0  0  0  0
 19 24  1  0  0  0  0
 19 18  1  0  0  0  0
 20 21  2  0  0  0  0
 23 19  1  0  0  0  0
 25 32  1  0  0  0  0
 25 26  1  0  0  0  0
 26 34  1  6  0  0  0
 26 28  1  0  0  0  0
 27 26  1  0  0  0  0
 27 20  1  0  0  0  0
 28 30  2  0  0  0  0
 28 29  1  0  0  0  0
 31 25  1  0  0  0  0
 33 25  1  0  0  0  0
 35 27  1  0  0  0  0
M  END
$$$$
