VGD.pdb
 OpenBabel07022419253D

 38 37  0  0  1  0  0  0  0  0999 V2000
    1.2200   -4.0710    1.1980 C   0  0  0  0  0  0  0  0  0  0  0  0
    0.2270   -4.3420    0.1110 C   0  0  0  0  0  0  0  0  0  0  0  0
   -1.1960   -4.4610    0.5850 C   0  0  0  0  0  0  0  0  0  0  0  0
    0.4140   -3.4730   -1.1060 C   0  0  2  0  0  0  0  0  0  0  0  0
    1.7670   -3.7620   -1.6150 N   0  0  0  0  0  0  0  0  0  0  0  0
    0.2220   -2.0430   -0.9030 C   0  0  0  0  0  0  0  0  0  0  0  0
    1.1820   -1.2140   -1.0510 O   0  0  0  0  0  0  0  0  0  0  0  0
    1.6730   -4.9880    1.6250 H   0  0  0  0  0  0  0  0  0  0  0  0
    0.6520   -3.6110    2.0540 H   0  0  0  0  0  0  0  0  0  0  0  0
    2.0600   -3.4230    0.8860 H   0  0  0  0  0  0  0  0  0  0  0  0
    0.4860   -5.3980   -0.2350 H   0  0  0  0  0  0  0  0  0  0  0  0
   -1.3710   -3.6570    1.3470 H   0  0  0  0  0  0  0  0  0  0  0  0
   -1.9280   -4.5000   -0.2130 H   0  0  0  0  0  0  0  0  0  0  0  0
   -1.2210   -5.4050    1.2110 H   0  0  0  0  0  0  0  0  0  0  0  0
   -0.2810   -3.8230   -1.8880 H   0  0  0  0  0  0  0  0  0  0  0  0
    2.3370   -4.2820   -0.9420 H   0  0  0  0  0  0  0  0  0  0  0  0
    2.2540   -2.9020   -1.8960 H   0  0  0  0  0  0  0  0  0  0  0  0
   -1.0250   -1.4990   -0.5360 N   0  0  0  0  0  0  0  0  0  0  0  0
   -1.2070   -0.0510   -0.3310 C   0  0  0  0  0  0  0  0  0  0  0  0
   -0.2820    0.3930    0.7750 C   0  0  0  0  0  0  0  0  0  0  0  0
    0.4720   -0.4220    1.3590 O   0  0  0  0  0  0  0  0  0  0  0  0
   -1.8330   -2.1360   -0.4130 H   0  0  0  0  0  0  0  0  0  0  0  0
   -2.2260    0.1340    0.0150 H   0  0  0  0  0  0  0  0  0  0  0  0
   -0.9210    0.4830   -1.2470 H   0  0  0  0  0  0  0  0  0  0  0  0
   -0.2380    1.7520    1.1860 N   0  0  0  0  0  0  0  0  0  0  0  0
    0.6370    2.2080    2.2420 C   0  0  1  0  0  0  0  0  0  0  0  0
    1.7000    3.1510    1.7150 C   0  0  0  0  0  0  0  0  0  0  0  0
    1.1360    4.3520    1.0890 C   0  0  0  0  0  0  0  0  0  0  0  0
    0.5510    4.2670   -0.0100 O   0  0  0  0  0  0  0  0  0  0  0  0
   -0.1640    2.9010    3.2680 C   0  0  0  0  0  0  0  0  0  0  0  0
    0.3980    3.3780    4.2780 O   0  0  0  0  0  0  0  0  0  0  0  0
    1.2430    5.5820    1.7010 O   0  0  0  0  0  0  0  0  0  0  0  0
   -1.5290    3.0220    3.1150 O   0  0  0  0  0  0  0  0  0  0  0  0
   -0.8780    2.4350    0.6860 H   0  0  0  0  0  0  0  0  0  0  0  0
    1.1750    1.3120    2.6300 H   0  0  0  0  0  0  0  0  0  0  0  0
    2.3250    3.4550    2.5790 H   0  0  0  0  0  0  0  0  0  0  0  0
    2.3720    2.5990    0.9940 H   0  0  0  0  0  0  0  0  0  0  0  0
    0.4950    6.2650    1.5480 H   0  0  0  0  0  0  0  0  0  0  0  0
  1  8  1  0  0  0  0
  1  9  1  0  0  0  0
  2  3  1  0  0  0  0
  2  1  1  0  0  0  0
  3 14  1  0  0  0  0
  3 12  1  0  0  0  0
  4 15  1  6  0  0  0
  4  6  1  0  0  0  0
  4  2  1  0  0  0  0
  5  4  1  0  0  0  0
  5 16  1  0  0  0  0
  6 18  1  0  0  0  0
  7  6  2  0  0  0  0
 10  1  1  0  0  0  0
 11  2  1  0  0  0  0
 13  3  1  0  0  0  0
 17  5  1  0  0  0  0
 18 22  1  0  0  0  0
 18 19  1  0  0  0  0
 19 23  1  0  0  0  0
 19 20  1  0  0  0  0
 20 25  1  0  0  0  0
 20 21  2  0  0  0  0
 24 19  1  0  0  0  0
 25 26  1  0  0  0  0
 26 35  1  1  0  0  0
 26 30  1  0  0  0  0
 27 26  1  0  0  0  0
 27 36  1  0  0  0  0
 28 32  1  0  0  0  0
 28 27  1  0  0  0  0
 29 28  2  0  0  0  0
 30 31  1  0  0  0  0
 33 30  2  0  0  0  0
 34 25  1  0  0  0  0
 37 27  1  0  0  0  0
 38 32  1  0  0  0  0
M  END
$$$$
