VGG.pdb
 OpenBabel07022419253D

 32 31  0  0  1  0  0  0  0  0999 V2000
   -2.4610   -3.4650    2.3810 C   0  0  0  0  0  0  0  0  0  0  0  0
   -1.0560   -2.8960    2.1430 C   0  0  0  0  0  0  0  0  0  0  0  0
   -0.6300   -2.2180    3.3980 C   0  0  0  0  0  0  0  0  0  0  0  0
   -1.1240   -2.0020    0.9280 C   0  0  2  0  0  0  0  0  0  0  0  0
   -1.5700   -2.8850   -0.1610 N   0  0  0  0  0  0  0  0  0  0  0  0
    0.1620   -1.4120    0.5420 C   0  0  0  0  0  0  0  0  0  0  0  0
    0.7230   -1.7440   -0.5610 O   0  0  0  0  0  0  0  0  0  0  0  0
   -2.8350   -3.2140    3.3900 H   0  0  0  0  0  0  0  0  0  0  0  0
   -2.4900   -4.5570    2.2190 H   0  0  0  0  0  0  0  0  0  0  0  0
   -3.1890   -3.0260    1.6650 H   0  0  0  0  0  0  0  0  0  0  0  0
   -0.3940   -3.7650    1.9750 H   0  0  0  0  0  0  0  0  0  0  0  0
    0.4590   -2.1400    3.5430 H   0  0  0  0  0  0  0  0  0  0  0  0
   -0.9890   -2.8590    4.2590 H   0  0  0  0  0  0  0  0  0  0  0  0
   -1.1670   -1.2540    3.5460 H   0  0  0  0  0  0  0  0  0  0  0  0
   -1.9410   -1.2760    1.0870 H   0  0  0  0  0  0  0  0  0  0  0  0
   -2.4620   -2.5800   -0.5700 H   0  0  0  0  0  0  0  0  0  0  0  0
   -0.8120   -3.0800   -0.8280 H   0  0  0  0  0  0  0  0  0  0  0  0
    0.8830   -0.4590    1.3120 N   0  0  0  0  0  0  0  0  0  0  0  0
    2.1420    0.1070    0.8910 C   0  0  0  0  0  0  0  0  0  0  0  0
    1.9950    0.8980   -0.3520 C   0  0  0  0  0  0  0  0  0  0  0  0
    3.0340    1.4290   -0.8890 O   0  0  0  0  0  0  0  0  0  0  0  0
    0.4870   -0.1500    2.2230 H   0  0  0  0  0  0  0  0  0  0  0  0
    2.9030   -0.7000    0.7460 H   0  0  0  0  0  0  0  0  0  0  0  0
    2.5570    0.7750    1.6860 H   0  0  0  0  0  0  0  0  0  0  0  0
    0.7790    1.1400   -1.0330 N   0  0  0  0  0  0  0  0  0  0  0  0
    0.7090    1.9240   -2.2550 C   0  0  0  0  0  0  0  0  0  0  0  0
    1.2010    3.2890   -1.9740 C   0  0  0  0  0  0  0  0  0  0  0  0
    1.5800    3.6080   -0.8260 O   0  0  0  0  0  0  0  0  0  0  0  0
    1.2380    4.2130   -2.9950 O   0  0  0  0  0  0  0  0  0  0  0  0
   -0.1060    0.7650   -0.6530 H   0  0  0  0  0  0  0  0  0  0  0  0
   -0.3200    1.9580   -2.6430 H   0  0  0  0  0  0  0  0  0  0  0  0
    1.3180    1.4070   -3.0270 H   0  0  0  0  0  0  0  0  0  0  0  0
  1  8  1  0  0  0  0
  2  1  1  0  0  0  0
  2  3  1  0  0  0  0
  3 12  1  0  0  0  0
  3 14  1  0  0  0  0
  3 13  1  0  0  0  0
  4 15  1  1  0  0  0
  4  2  1  0  0  0  0
  5  4  1  0  0  0  0
  6  4  1  0  0  0  0
  6 18  1  0  0  0  0
  7  6  2  0  0  0  0
  9  1  1  0  0  0  0
 10  1  1  0  0  0  0
 11  2  1  0  0  0  0
 16  5  1  0  0  0  0
 17  5  1  0  0  0  0
 18 22  1  0  0  0  0
 19 18  1  0  0  0  0
 19 24  1  0  0  0  0
 20 19  1  0  0  0  0
 21 20  2  0  0  0  0
 23 19  1  0  0  0  0
 25 30  1  0  0  0  0
 25 20  1  0  0  0  0
 26 27  1  0  0  0  0
 26 25  1  0  0  0  0
 27 28  1  0  0  0  0
 29 27  2  0  0  0  0
 31 26  1  0  0  0  0
 32 26  1  0  0  0  0
M  END
$$$$
