VGH.pdb
 OpenBabel07022419253D

 42 42  0  0  1  0  0  0  0  0999 V2000
   -0.4520   -5.4410   -1.5590 C   0  0  0  0  0  0  0  0  0  0  0  0
    0.1170   -4.0930   -1.0890 C   0  0  0  0  0  0  0  0  0  0  0  0
   -0.3530   -3.9140    0.3180 C   0  0  0  0  0  0  0  0  0  0  0  0
   -0.3990   -3.0310   -2.0360 C   0  0  2  0  0  0  0  0  0  0  0  0
    0.1050   -3.4310   -3.3630 N   0  0  0  0  0  0  0  0  0  0  0  0
    0.1370   -1.6940   -1.7800 C   0  0  0  0  0  0  0  0  0  0  0  0
    0.9250   -1.0970   -2.5930 O   0  0  0  0  0  0  0  0  0  0  0  0
   -0.5440   -5.4630   -2.6650 H   0  0  0  0  0  0  0  0  0  0  0  0
    0.1320   -6.2750   -1.1560 H   0  0  0  0  0  0  0  0  0  0  0  0
   -1.5020   -5.4750   -1.1650 H   0  0  0  0  0  0  0  0  0  0  0  0
    1.2210   -4.1800   -1.0990 H   0  0  0  0  0  0  0  0  0  0  0  0
    0.3220   -3.2770    0.9370 H   0  0  0  0  0  0  0  0  0  0  0  0
   -0.3070   -4.9250    0.8250 H   0  0  0  0  0  0  0  0  0  0  0  0
   -1.4180   -3.6240    0.3820 H   0  0  0  0  0  0  0  0  0  0  0  0
   -1.4840   -3.1070   -2.0780 H   0  0  0  0  0  0  0  0  0  0  0  0
   -0.5200   -3.1190   -4.1190 H   0  0  0  0  0  0  0  0  0  0  0  0
    1.1000   -3.1560   -3.4700 H   0  0  0  0  0  0  0  0  0  0  0  0
   -0.1570   -0.9130   -0.6030 N   0  0  0  0  0  0  0  0  0  0  0  0
    0.4030    0.4070   -0.4010 C   0  0  0  0  0  0  0  0  0  0  0  0
   -0.1060    0.9110    0.8980 C   0  0  0  0  0  0  0  0  0  0  0  0
   -0.8920    0.2300    1.6320 O   0  0  0  0  0  0  0  0  0  0  0  0
   -0.7890   -1.3370    0.0900 H   0  0  0  0  0  0  0  0  0  0  0  0
    0.0720    1.1270   -1.1750 H   0  0  0  0  0  0  0  0  0  0  0  0
    1.5090    0.3980   -0.4340 H   0  0  0  0  0  0  0  0  0  0  0  0
    0.2520    2.1940    1.4100 N   0  0  0  0  0  0  0  0  0  0  0  0
   -0.2310    2.7000    2.6650 C   0  0  1  0  0  0  0  0  0  0  0  0
    0.9660    2.9610    3.5770 C   0  0  0  0  0  0  0  0  0  0  0  0
    1.7110    1.6780    3.7940 C   0  0  0  0  0  0  0  0  0  0  0  0
    2.7380    1.2290    3.0070 C   0  0  0  0  0  0  0  0  0  0  0  0
    3.1410    0.0580    3.5180 N   0  0  0  0  0  0  0  0  0  0  0  0
    2.3920   -0.2200    4.5910 C   0  0  0  0  0  0  0  0  0  0  0  0
    1.5150    0.7760    4.7580 N   0  0  0  0  0  0  0  0  0  0  0  0
   -0.9390    4.0140    2.4890 C   0  0  0  0  0  0  0  0  0  0  0  0
   -1.0710    4.5610    1.3810 O   0  0  0  0  0  0  0  0  0  0  0  0
   -1.4740    4.6540    3.5980 O   0  0  0  0  0  0  0  0  0  0  0  0
    0.8950    2.7660    0.8220 H   0  0  0  0  0  0  0  0  0  0  0  0
   -0.8980    2.0110    3.1910 H   0  0  0  0  0  0  0  0  0  0  0  0
    0.6420    3.3330    4.5660 H   0  0  0  0  0  0  0  0  0  0  0  0
    1.6290    3.7190    3.1370 H   0  0  0  0  0  0  0  0  0  0  0  0
    3.1410    1.7460    2.1280 H   0  0  0  0  0  0  0  0  0  0  0  0
    3.9030   -0.5310    3.1450 H   0  0  0  0  0  0  0  0  0  0  0  0
    2.4630   -1.1060    5.2410 H   0  0  0  0  0  0  0  0  0  0  0  0
  1 10  1  0  0  0  0
  1  9  1  0  0  0  0
  1  2  1  0  0  0  0
  2  3  1  0  0  0  0
  3 14  1  0  0  0  0
  3 13  1  0  0  0  0
  3 12  1  0  0  0  0
  4 15  1  1  0  0  0
  4  6  1  0  0  0  0
  4  2  1  0  0  0  0
  5  4  1  0  0  0  0
  6 18  1  0  0  0  0
  7  6  2  0  0  0  0
  8  1  1  0  0  0  0
 11  2  1  0  0  0  0
 16  5  1  0  0  0  0
 17  5  1  0  0  0  0
 18 19  1  0  0  0  0
 18 22  1  0  0  0  0
 19 20  1  0  0  0  0
 20 25  1  0  0  0  0
 20 21  2  0  0  0  0
 23 19  1  0  0  0  0
 24 19  1  0  0  0  0
 25 26  1  0  0  0  0
 26 37  1  1  0  0  0
 26 27  1  0  0  0  0
 27 28  1  0  0  0  0
 27 38  1  0  0  0  0
 28 32  1  0  0  0  0
 29 30  1  0  0  0  0
 29 28  2  0  0  0  0
 30 31  1  0  0  0  0
 31 32  2  0  0  0  0
 31 42  1  0  0  0  0
 33 26  1  0  0  0  0
 33 35  1  0  0  0  0
 34 33  2  0  0  0  0
 36 25  1  0  0  0  0
 39 27  1  0  0  0  0
 40 29  1  0  0  0  0
 41 30  1  0  0  0  0
M  END
$$$$
