VGI.pdb
 OpenBabel07022419253D

 44 43  0  0  1  0  0  0  0  0999 V2000
    1.3510   -3.0900    1.0280 C   0  0  0  0  0  0  0  0  0  0  0  0
    0.1430   -3.8200    0.5180 C   0  0  0  0  0  0  0  0  0  0  0  0
   -1.0690   -3.6700    1.3880 C   0  0  0  0  0  0  0  0  0  0  0  0
   -0.1540   -3.5450   -0.9380 C   0  0  2  0  0  0  0  0  0  0  0  0
    1.0330   -3.9920   -1.6600 N   0  0  0  0  0  0  0  0  0  0  0  0
   -0.4700   -2.1400   -1.2420 C   0  0  0  0  0  0  0  0  0  0  0  0
    0.3640   -1.4500   -1.9350 O   0  0  0  0  0  0  0  0  0  0  0  0
    2.2010   -3.7550    1.2840 H   0  0  0  0  0  0  0  0  0  0  0  0
    1.0730   -2.5670    1.9670 H   0  0  0  0  0  0  0  0  0  0  0  0
    1.7550   -2.3310    0.3440 H   0  0  0  0  0  0  0  0  0  0  0  0
    0.4190   -4.9200    0.5880 H   0  0  0  0  0  0  0  0  0  0  0  0
   -1.1540   -2.6010    1.6840 H   0  0  0  0  0  0  0  0  0  0  0  0
   -1.9480   -4.0590    0.8500 H   0  0  0  0  0  0  0  0  0  0  0  0
   -0.8830   -4.2980    2.3020 H   0  0  0  0  0  0  0  0  0  0  0  0
   -0.9840   -4.1990   -1.2580 H   0  0  0  0  0  0  0  0  0  0  0  0
    1.8110   -3.3820   -1.3980 H   0  0  0  0  0  0  0  0  0  0  0  0
    0.8650   -4.0720   -2.6860 H   0  0  0  0  0  0  0  0  0  0  0  0
   -1.6430   -1.4540   -0.8330 N   0  0  0  0  0  0  0  0  0  0  0  0
   -1.9370   -0.0980   -1.1230 C   0  0  0  0  0  0  0  0  0  0  0  0
   -0.9820    0.8560   -0.5400 C   0  0  0  0  0  0  0  0  0  0  0  0
   -1.1140    2.1110   -0.7630 O   0  0  0  0  0  0  0  0  0  0  0  0
   -2.3400   -2.0030   -0.2800 H   0  0  0  0  0  0  0  0  0  0  0  0
   -1.9380   -0.0050   -2.2510 H   0  0  0  0  0  0  0  0  0  0  0  0
   -2.9820    0.1860   -0.8420 H   0  0  0  0  0  0  0  0  0  0  0  0
   -0.8770    3.0460    2.7200 C   0  0  0  0  0  0  0  0  0  0  0  0
   -0.4040    1.6250    2.8600 C   0  0  0  0  0  0  0  0  0  0  0  0
    0.9940    1.4200    2.3190 C   0  0  2  0  0  0  0  0  0  0  0  0
    2.0110    2.2650    3.0140 C   0  0  0  0  0  0  0  0  0  0  0  0
    1.0160    1.5560    0.8120 C   0  0  2  0  0  0  0  0  0  0  0  0
    0.1210    0.5370    0.2840 N   0  0  0  0  0  0  0  0  0  0  0  0
    2.4110    1.3400    0.3610 C   0  0  0  0  0  0  0  0  0  0  0  0
    3.3030    2.1420    0.7350 O   0  0  0  0  0  0  0  0  0  0  0  0
    2.7490    0.2750   -0.4630 O   0  0  0  0  0  0  0  0  0  0  0  0
   -1.6650    3.2070    3.4950 H   0  0  0  0  0  0  0  0  0  0  0  0
   -1.3580    3.2500    1.7420 H   0  0  0  0  0  0  0  0  0  0  0  0
   -0.0670    3.7430    2.9590 H   0  0  0  0  0  0  0  0  0  0  0  0
   -1.1100    0.9410    2.3490 H   0  0  0  0  0  0  0  0  0  0  0  0
   -0.4490    1.3630    3.9370 H   0  0  0  0  0  0  0  0  0  0  0  0
    1.2510    0.3500    2.5340 H   0  0  0  0  0  0  0  0  0  0  0  0
    2.9800    1.7680    3.1860 H   0  0  0  0  0  0  0  0  0  0  0  0
    1.6510    2.5620    4.0430 H   0  0  0  0  0  0  0  0  0  0  0  0
    2.2210    3.2230    2.5020 H   0  0  0  0  0  0  0  0  0  0  0  0
    0.6670    2.5260    0.4560 H   0  0  0  0  0  0  0  0  0  0  0  0
    0.2990   -0.4420    0.5340 H   0  0  0  0  0  0  0  0  0  0  0  0
  1  8  1  0  0  0  0
  1  9  1  0  0  0  0
  2 11  1  0  0  0  0
  2  1  1  0  0  0  0
  2  3  1  0  0  0  0
  3 12  1  0  0  0  0
  3 14  1  0  0  0  0
  4 15  1  6  0  0  0
  4  2  1  0  0  0  0
  5 16  1  0  0  0  0
  5  4  1  0  0  0  0
  6  4  1  0  0  0  0
  6 18  1  0  0  0  0
  7  6  2  0  0  0  0
 10  1  1  0  0  0  0
 13  3  1  0  0  0  0
 17  5  1  0  0  0  0
 18 22  1  0  0  0  0
 19 24  1  0  0  0  0
 19 18  1  0  0  0  0
 19 20  1  0  0  0  0
 20 30  1  0  0  0  0
 21 20  2  0  0  0  0
 23 19  1  0  0  0  0
 25 26  1  0  0  0  0
 25 36  1  0  0  0  0
 25 34  1  0  0  0  0
 26 38  1  0  0  0  0
 27 39  1  1  0  0  0
 27 26  1  0  0  0  0
 27 28  1  0  0  0  0
 28 40  1  0  0  0  0
 28 41  1  0  0  0  0
 29 43  1  6  0  0  0
 29 27  1  0  0  0  0
 30 44  1  0  0  0  0
 30 29  1  0  0  0  0
 31 32  1  0  0  0  0
 31 29  1  0  0  0  0
 33 31  2  0  0  0  0
 35 25  1  0  0  0  0
 37 26  1  0  0  0  0
 42 28  1  0  0  0  0
M  END
$$$$
