VGL.pdb
 OpenBabel07022419253D

 44 43  0  0  1  0  0  0  0  0999 V2000
    0.7550   -4.1210    1.9010 C   0  0  0  0  0  0  0  0  0  0  0  0
    0.6450   -4.5400    0.4760 C   0  0  0  0  0  0  0  0  0  0  0  0
   -0.7440   -4.8920    0.0470 C   0  0  0  0  0  0  0  0  0  0  0  0
    1.3480   -3.6370   -0.4960 C   0  0  2  0  0  0  0  0  0  0  0  0
    2.7770   -3.6340   -0.1290 N   0  0  0  0  0  0  0  0  0  0  0  0
    0.8200   -2.2870   -0.6230 C   0  0  0  0  0  0  0  0  0  0  0  0
    1.6280   -1.3280   -0.3600 O   0  0  0  0  0  0  0  0  0  0  0  0
    1.5740   -3.4110    2.1050 H   0  0  0  0  0  0  0  0  0  0  0  0
    0.9310   -4.9870    2.5980 H   0  0  0  0  0  0  0  0  0  0  0  0
   -0.2460   -3.7150    2.2110 H   0  0  0  0  0  0  0  0  0  0  0  0
    1.2210   -5.5180    0.4120 H   0  0  0  0  0  0  0  0  0  0  0  0
   -1.4790   -4.2130    0.5450 H   0  0  0  0  0  0  0  0  0  0  0  0
   -0.8720   -5.0070   -1.0270 H   0  0  0  0  0  0  0  0  0  0  0  0
   -1.0060   -5.9070    0.4780 H   0  0  0  0  0  0  0  0  0  0  0  0
    1.3050   -4.1280   -1.4890 H   0  0  0  0  0  0  0  0  0  0  0  0
    3.0380   -4.6570   -0.0290 H   0  0  0  0  0  0  0  0  0  0  0  0
    3.2800   -3.3210   -0.9950 H   0  0  0  0  0  0  0  0  0  0  0  0
   -0.4710   -1.9020   -1.0020 N   0  0  0  0  0  0  0  0  0  0  0  0
   -0.9030   -0.5230   -1.0980 C   0  0  0  0  0  0  0  0  0  0  0  0
   -0.7690    0.1010    0.2180 C   0  0  0  0  0  0  0  0  0  0  0  0
   -0.3380   -0.5680    1.1920 O   0  0  0  0  0  0  0  0  0  0  0  0
   -1.1490   -2.6470   -1.2260 H   0  0  0  0  0  0  0  0  0  0  0  0
   -1.9380   -0.4760   -1.5060 H   0  0  0  0  0  0  0  0  0  0  0  0
   -0.2820    0.0210   -1.8570 H   0  0  0  0  0  0  0  0  0  0  0  0
    2.1010    2.0800    2.2270 C   0  0  0  0  0  0  0  0  0  0  0  0
    1.3110    3.0810    1.4390 C   0  0  0  0  0  0  0  0  0  0  0  0
    1.4050    2.8410   -0.0540 C   0  0  0  0  0  0  0  0  0  0  0  0
   -0.0980    3.2480    1.8730 C   0  0  0  0  0  0  0  0  0  0  0  0
   -0.9520    2.0370    1.8140 C   0  0  2  0  0  0  0  0  0  0  0  0
   -1.0960    1.4550    0.5100 N   0  0  0  0  0  0  0  0  0  0  0  0
   -2.3170    2.3650    2.3110 C   0  0  0  0  0  0  0  0  0  0  0  0
   -3.3540    2.1350    1.6360 O   0  0  0  0  0  0  0  0  0  0  0  0
   -2.5070    2.9460    3.5590 O   0  0  0  0  0  0  0  0  0  0  0  0
    3.1600    2.4050    2.3060 H   0  0  0  0  0  0  0  0  0  0  0  0
    2.1440    1.0970    1.6740 H   0  0  0  0  0  0  0  0  0  0  0  0
    1.7230    1.9630    3.2540 H   0  0  0  0  0  0  0  0  0  0  0  0
    1.8180    4.0780    1.6060 H   0  0  0  0  0  0  0  0  0  0  0  0
    0.5360    3.3460   -0.5580 H   0  0  0  0  0  0  0  0  0  0  0  0
    2.3050    3.3730   -0.4820 H   0  0  0  0  0  0  0  0  0  0  0  0
    1.5200    1.7940   -0.3280 H   0  0  0  0  0  0  0  0  0  0  0  0
   -0.1380    3.6450    2.9110 H   0  0  0  0  0  0  0  0  0  0  0  0
   -0.5600    4.0320    1.2350 H   0  0  0  0  0  0  0  0  0  0  0  0
   -0.5510    1.2710    2.5410 H   0  0  0  0  0  0  0  0  0  0  0  0
   -1.4540    2.0390   -0.2690 H   0  0  0  0  0  0  0  0  0  0  0  0
  1  8  1  0  0  0  0
  1 10  1  0  0  0  0
  1  9  1  0  0  0  0
  2  1  1  0  0  0  0
  3  2  1  0  0  0  0
  3 14  1  0  0  0  0
  3 12  1  0  0  0  0
  4 15  1  6  0  0  0
  4  5  1  0  0  0  0
  4  2  1  0  0  0  0
  5 16  1  0  0  0  0
  6  4  1  0  0  0  0
  6  7  2  0  0  0  0
 11  2  1  0  0  0  0
 13  3  1  0  0  0  0
 17  5  1  0  0  0  0
 18  6  1  0  0  0  0
 19 18  1  0  0  0  0
 19 20  1  0  0  0  0
 20 30  1  0  0  0  0
 20 21  2  0  0  0  0
 22 18  1  0  0  0  0
 23 19  1  0  0  0  0
 24 19  1  0  0  0  0
 25 34  1  0  0  0  0
 25 36  1  0  0  0  0
 26 37  1  0  0  0  0
 26 28  1  0  0  0  0
 26 25  1  0  0  0  0
 27 26  1  0  0  0  0
 28 41  1  0  0  0  0
 29 28  1  0  0  0  0
 29 31  1  0  0  0  0
 29 43  1  1  0  0  0
 30 29  1  0  0  0  0
 31 33  1  0  0  0  0
 32 31  2  0  0  0  0
 35 25  1  0  0  0  0
 38 27  1  0  0  0  0
 39 27  1  0  0  0  0
 40 27  1  0  0  0  0
 42 28  1  0  0  0  0
 44 30  1  0  0  0  0
M  END
$$$$
