VGN.pdb
 OpenBabel07022419253D

 39 38  0  0  1  0  0  0  0  0999 V2000
   -2.2080   -3.4010    2.7680 C   0  0  0  0  0  0  0  0  0  0  0  0
   -0.7810   -3.5650    2.2810 C   0  0  0  0  0  0  0  0  0  0  0  0
   -0.7260   -4.2320    0.9260 C   0  0  0  0  0  0  0  0  0  0  0  0
   -0.0500   -2.2460    2.2540 C   0  0  2  0  0  0  0  0  0  0  0  0
   -0.0210   -1.6970    3.5750 N   0  0  0  0  0  0  0  0  0  0  0  0
   -0.6380   -1.3110    1.2570 C   0  0  0  0  0  0  0  0  0  0  0  0
   -0.7300   -1.6670    0.0470 O   0  0  0  0  0  0  0  0  0  0  0  0
   -2.5660   -4.2840    3.3350 H   0  0  0  0  0  0  0  0  0  0  0  0
   -2.9260   -3.2700    1.9270 H   0  0  0  0  0  0  0  0  0  0  0  0
   -2.2490   -2.5360    3.4660 H   0  0  0  0  0  0  0  0  0  0  0  0
   -0.2630   -4.2300    2.9910 H   0  0  0  0  0  0  0  0  0  0  0  0
   -1.7040   -4.0940    0.4110 H   0  0  0  0  0  0  0  0  0  0  0  0
    0.1040   -3.8320    0.3280 H   0  0  0  0  0  0  0  0  0  0  0  0
   -0.5420   -5.3330    1.0170 H   0  0  0  0  0  0  0  0  0  0  0  0
    0.9960   -2.4680    1.9480 H   0  0  0  0  0  0  0  0  0  0  0  0
   -0.0820   -2.4650    4.3050 H   0  0  0  0  0  0  0  0  0  0  0  0
    0.8890   -1.2050    3.8080 H   0  0  0  0  0  0  0  0  0  0  0  0
   -1.0940   -0.0260    1.6470 N   0  0  0  0  0  0  0  0  0  0  0  0
   -1.6510    0.8840    0.6970 C   0  0  0  0  0  0  0  0  0  0  0  0
   -0.7270    1.3180   -0.3720 C   0  0  0  0  0  0  0  0  0  0  0  0
   -1.1180    2.1000   -1.3040 O   0  0  0  0  0  0  0  0  0  0  0  0
   -1.0200    0.2600    2.6620 H   0  0  0  0  0  0  0  0  0  0  0  0
   -2.4820    0.3270    0.1720 H   0  0  0  0  0  0  0  0  0  0  0  0
   -2.1580    1.7440    1.1870 H   0  0  0  0  0  0  0  0  0  0  0  0
    2.0670    3.2330    1.3060 N   0  0  0  0  0  0  0  0  0  0  0  0
    2.1520    3.2970   -0.1000 C   0  0  0  0  0  0  0  0  0  0  0  0
    1.8070    4.3510   -0.6710 O   0  0  0  0  0  0  0  0  0  0  0  0
    2.6310    2.1650   -0.8890 C   0  0  0  0  0  0  0  0  0  0  0  0
    1.4870    1.4000   -1.5650 C   0  0  2  0  0  0  0  0  0  0  0  0
    0.6370    0.9290   -0.4690 N   0  0  0  0  0  0  0  0  0  0  0  0
    2.1300    0.2480   -2.2590 C   0  0  0  0  0  0  0  0  0  0  0  0
    1.9010   -0.9490   -1.8690 O   0  0  0  0  0  0  0  0  0  0  0  0
    2.9810    0.3860   -3.3260 O   0  0  0  0  0  0  0  0  0  0  0  0
    2.1010    2.3280    1.8560 H   0  0  0  0  0  0  0  0  0  0  0  0
    1.9650    4.1020    1.8960 H   0  0  0  0  0  0  0  0  0  0  0  0
    3.1910    1.4190   -0.2840 H   0  0  0  0  0  0  0  0  0  0  0  0
    3.3550    2.4990   -1.6880 H   0  0  0  0  0  0  0  0  0  0  0  0
    0.9070    2.0450   -2.2280 H   0  0  0  0  0  0  0  0  0  0  0  0
    1.0450    0.3060    0.2620 H   0  0  0  0  0  0  0  0  0  0  0  0
  1  8  1  0  0  0  0
  1 10  1  0  0  0  0
  2  1  1  0  0  0  0
  2 11  1  0  0  0  0
  3 14  1  0  0  0  0
  3  2  1  0  0  0  0
  4 15  1  6  0  0  0
  4  2  1  0  0  0  0
  4  5  1  0  0  0  0
  5 17  1  0  0  0  0
  5 16  1  0  0  0  0
  6 18  1  0  0  0  0
  6  4  1  0  0  0  0
  7  6  2  0  0  0  0
  9  1  1  0  0  0  0
 12  3  1  0  0  0  0
 13  3  1  0  0  0  0
 18 22  1  0  0  0  0
 19 24  1  0  0  0  0
 19 18  1  0  0  0  0
 20 19  1  0  0  0  0
 21 20  2  0  0  0  0
 23 19  1  0  0  0  0
 25 34  1  0  0  0  0
 25 35  1  0  0  0  0
 26 25  1  0  0  0  0
 27 26  2  0  0  0  0
 28 36  1  0  0  0  0
 28 26  1  0  0  0  0
 29 38  1  6  0  0  0
 29 28  1  0  0  0  0
 29 30  1  0  0  0  0
 30 20  1  0  0  0  0
 30 39  1  0  0  0  0
 31 32  1  0  0  0  0
 31 29  1  0  0  0  0
 33 31  2  0  0  0  0
 37 28  1  0  0  0  0
M  END
$$$$
