VGT.pdb
 OpenBabel07022419253D

 39 38  0  0  1  0  0  0  0  0999 V2000
   -2.5990   -3.4780    1.2770 C   0  0  0  0  0  0  0  0  0  0  0  0
   -1.3950   -2.5950    1.0230 C   0  0  0  0  0  0  0  0  0  0  0  0
   -1.1130   -2.7020   -0.4560 C   0  0  0  0  0  0  0  0  0  0  0  0
   -0.1840   -3.0650    1.7890 C   0  0  2  0  0  0  0  0  0  0  0  0
   -0.4840   -3.0530    3.2350 N   0  0  0  0  0  0  0  0  0  0  0  0
    1.0240   -2.2550    1.5800 C   0  0  0  0  0  0  0  0  0  0  0  0
    1.3890   -1.4820    2.5410 O   0  0  0  0  0  0  0  0  0  0  0  0
   -2.6810   -3.8080    2.3150 H   0  0  0  0  0  0  0  0  0  0  0  0
   -3.5360   -2.9080    1.0430 H   0  0  0  0  0  0  0  0  0  0  0  0
   -2.6200   -4.3680    0.6140 H   0  0  0  0  0  0  0  0  0  0  0  0
   -1.6690   -1.5700    1.2760 H   0  0  0  0  0  0  0  0  0  0  0  0
   -0.6920   -3.6880   -0.7190 H   0  0  0  0  0  0  0  0  0  0  0  0
   -0.5280   -1.8500   -0.8460 H   0  0  0  0  0  0  0  0  0  0  0  0
   -2.1240   -2.6960   -0.9640 H   0  0  0  0  0  0  0  0  0  0  0  0
    0.0450   -4.1120    1.5410 H   0  0  0  0  0  0  0  0  0  0  0  0
    0.4740   -3.1230    3.6910 H   0  0  0  0  0  0  0  0  0  0  0  0
   -0.8650   -2.1380    3.5350 H   0  0  0  0  0  0  0  0  0  0  0  0
    1.8090   -2.2800    0.3770 N   0  0  0  0  0  0  0  0  0  0  0  0
    2.9450   -1.4230    0.3200 C   0  0  0  0  0  0  0  0  0  0  0  0
    2.6730    0.0170    0.3870 C   0  0  0  0  0  0  0  0  0  0  0  0
    3.6550    0.8470    0.3890 O   0  0  0  0  0  0  0  0  0  0  0  0
    1.5050   -2.9290   -0.3690 H   0  0  0  0  0  0  0  0  0  0  0  0
    3.4390   -1.6060   -0.6800 H   0  0  0  0  0  0  0  0  0  0  0  0
    3.7380   -1.7050    1.0610 H   0  0  0  0  0  0  0  0  0  0  0  0
    0.0950    3.9430   -0.6350 C   0  0  0  0  0  0  0  0  0  0  0  0
    0.3980    2.4840   -0.7050 C   0  0  1  0  0  0  0  0  0  0  0  0
    1.1180    2.2230   -1.8670 O   0  0  0  0  0  0  0  0  0  0  0  0
    1.1350    1.9920    0.5210 C   0  0  2  0  0  0  0  0  0  0  0  0
    1.3590    0.5480    0.4480 N   0  0  0  0  0  0  0  0  0  0  0  0
    0.4450    2.3650    1.7710 C   0  0  0  0  0  0  0  0  0  0  0  0
    0.1430    3.5490    2.0610 O   0  0  0  0  0  0  0  0  0  0  0  0
    0.0930    1.3890    2.7020 O   0  0  0  0  0  0  0  0  0  0  0  0
   -0.8960    4.1330   -0.1990 H   0  0  0  0  0  0  0  0  0  0  0  0
    0.8830    4.4260   -0.0210 H   0  0  0  0  0  0  0  0  0  0  0  0
    0.1400    4.3810   -1.6670 H   0  0  0  0  0  0  0  0  0  0  0  0
   -0.5510    1.8810   -0.7910 H   0  0  0  0  0  0  0  0  0  0  0  0
    1.6810    3.0240   -2.0790 H   0  0  0  0  0  0  0  0  0  0  0  0
    2.1340    2.4680    0.5150 H   0  0  0  0  0  0  0  0  0  0  0  0
    0.5530   -0.1200    0.4250 H   0  0  0  0  0  0  0  0  0  0  0  0
  1  8  1  0  0  0  0
  2 11  1  0  0  0  0
  2  1  1  0  0  0  0
  2  4  1  0  0  0  0
  3  2  1  0  0  0  0
  4 15  1  6  0  0  0
  4  5  1  0  0  0  0
  5 17  1  0  0  0  0
  5 16  1  0  0  0  0
  6  4  1  0  0  0  0
  6  7  2  0  0  0  0
  9  1  1  0  0  0  0
 10  1  1  0  0  0  0
 12  3  1  0  0  0  0
 13  3  1  0  0  0  0
 14  3  1  0  0  0  0
 18  6  1  0  0  0  0
 19 18  1  0  0  0  0
 19 20  1  0  0  0  0
 19 24  1  0  0  0  0
 20 21  2  0  0  0  0
 20 29  1  0  0  0  0
 22 18  1  0  0  0  0
 23 19  1  0  0  0  0
 25 33  1  0  0  0  0
 25 34  1  0  0  0  0
 26 36  1  6  0  0  0
 26 25  1  0  0  0  0
 26 28  1  0  0  0  0
 27 26  1  0  0  0  0
 28 38  1  1  0  0  0
 28 30  1  0  0  0  0
 29 28  1  0  0  0  0
 30 31  2  0  0  0  0
 30 32  1  0  0  0  0
 35 25  1  0  0  0  0
 37 27  1  0  0  0  0
 39 29  1  0  0  0  0
M  END
$$$$
