VGW.pdb
 OpenBabel07022419253D

 49 50  0  0  1  0  0  0  0  0999 V2000
    2.5660   -3.1890    4.0340 C   0  0  0  0  0  0  0  0  0  0  0  0
    1.9590   -3.7500    2.7700 C   0  0  0  0  0  0  0  0  0  0  0  0
    0.4660   -3.8260    2.9260 C   0  0  0  0  0  0  0  0  0  0  0  0
    2.3720   -2.9640    1.5490 C   0  0  2  0  0  0  0  0  0  0  0  0
    3.8080   -3.0140    1.4300 N   0  0  0  0  0  0  0  0  0  0  0  0
    1.9120   -1.5520    1.7230 C   0  0  0  0  0  0  0  0  0  0  0  0
    0.6930   -1.2660    1.8450 O   0  0  0  0  0  0  0  0  0  0  0  0
    2.5400   -3.9770    4.8340 H   0  0  0  0  0  0  0  0  0  0  0  0
    3.6220   -2.9320    3.8710 H   0  0  0  0  0  0  0  0  0  0  0  0
    1.9710   -2.3460    4.4430 H   0  0  0  0  0  0  0  0  0  0  0  0
    2.3370   -4.7840    2.6340 H   0  0  0  0  0  0  0  0  0  0  0  0
    0.2230   -4.8050    3.4130 H   0  0  0  0  0  0  0  0  0  0  0  0
   -0.0140   -3.8320    1.9380 H   0  0  0  0  0  0  0  0  0  0  0  0
    0.0630   -3.0370    3.5940 H   0  0  0  0  0  0  0  0  0  0  0  0
    1.9090   -3.4460    0.6650 H   0  0  0  0  0  0  0  0  0  0  0  0
    4.0540   -2.6630    0.4870 H   0  0  0  0  0  0  0  0  0  0  0  0
    4.0610   -4.0470    1.4230 H   0  0  0  0  0  0  0  0  0  0  0  0
    2.8400   -0.4780    1.7570 N   0  0  0  0  0  0  0  0  0  0  0  0
    2.3990    0.8840    1.9140 C   0  0  0  0  0  0  0  0  0  0  0  0
    1.5470    1.3890    0.8180 C   0  0  0  0  0  0  0  0  0  0  0  0
    1.1010    2.5570    0.9390 O   0  0  0  0  0  0  0  0  0  0  0  0
    3.8610   -0.6610    1.6670 H   0  0  0  0  0  0  0  0  0  0  0  0
    1.7550    0.8860    2.8430 H   0  0  0  0  0  0  0  0  0  0  0  0
    3.2360    1.5670    2.1520 H   0  0  0  0  0  0  0  0  0  0  0  0
    1.1800    0.7110   -0.3480 N   0  0  0  0  0  0  0  0  0  0  0  0
    0.3720    1.0620   -1.4310 C   0  0  1  0  0  0  0  0  0  0  0  0
   -0.6450    2.1330   -1.3690 C   0  0  0  0  0  0  0  0  0  0  0  0
   -1.7280    1.7990   -0.3850 C   0  0  0  0  0  0  0  0  0  0  0  0
   -2.0250    2.2460    0.8470 C   0  0  0  0  0  0  0  0  0  0  0  0
   -3.1100    1.6330    1.3110 N   0  0  0  0  0  0  0  0  0  0  0  0
   -3.5410    0.7720    0.3810 C   0  0  0  0  0  0  0  0  0  0  0  0
   -4.6340   -0.1060    0.3600 C   0  0  0  0  0  0  0  0  0  0  0  0
   -4.9030   -0.9120   -0.7240 C   0  0  0  0  0  0  0  0  0  0  0  0
   -4.0620   -0.8400   -1.8140 C   0  0  0  0  0  0  0  0  0  0  0  0
   -2.9710    0.0380   -1.7910 C   0  0  0  0  0  0  0  0  0  0  0  0
   -2.7060    0.8380   -0.7080 C   0  0  0  0  0  0  0  0  0  0  0  0
    1.1620    1.1110   -2.6700 C   0  0  0  0  0  0  0  0  0  0  0  0
    2.4080    0.8610   -2.7180 O   0  0  0  0  0  0  0  0  0  0  0  0
    0.6000    1.4420   -3.9160 O   0  0  0  0  0  0  0  0  0  0  0  0
    1.6280   -0.2640   -0.4320 H   0  0  0  0  0  0  0  0  0  0  0  0
   -0.3140    0.1090   -1.5620 H   0  0  0  0  0  0  0  0  0  0  0  0
   -0.2430    3.1490   -1.1910 H   0  0  0  0  0  0  0  0  0  0  0  0
   -1.1530    2.1860   -2.3520 H   0  0  0  0  0  0  0  0  0  0  0  0
   -1.4690    3.0090    1.3940 H   0  0  0  0  0  0  0  0  0  0  0  0
   -3.6040    1.7470    2.2320 H   0  0  0  0  0  0  0  0  0  0  0  0
   -5.2880   -0.1630    1.2050 H   0  0  0  0  0  0  0  0  0  0  0  0
   -5.7520   -1.5870   -0.7280 H   0  0  0  0  0  0  0  0  0  0  0  0
   -4.2620   -1.4650   -2.6680 H   0  0  0  0  0  0  0  0  0  0  0  0
   -2.3540    0.0680   -2.6590 H   0  0  0  0  0  0  0  0  0  0  0  0
  1 10  1  0  0  0  0
  1  8  1  0  0  0  0
  2  3  1  0  0  0  0
  2  1  1  0  0  0  0
  3 12  1  0  0  0  0
  3 14  1  0  0  0  0
  4 15  1  6  0  0  0
  4  6  1  0  0  0  0
  4  2  1  0  0  0  0
  5  4  1  0  0  0  0
  6 18  1  0  0  0  0
  6  7  2  0  0  0  0
  9  1  1  0  0  0  0
 11  2  1  0  0  0  0
 13  3  1  0  0  0  0
 16  5  1  0  0  0  0
 17  5  1  0  0  0  0
 18 19  1  0  0  0  0
 19 24  1  0  0  0  0
 19 23  1  0  0  0  0
 20 21  2  0  0  0  0
 20 19  1  0  0  0  0
 22 18  1  0  0  0  0
 25 20  1  0  0  0  0
 26 41  1  6  0  0  0
 26 27  1  0  0  0  0
 26 25  1  0  0  0  0
 27 42  1  0  0  0  0
 27 28  1  0  0  0  0
 28 29  2  0  0  0  0
 29 30  1  0  0  0  0
 29 44  1  0  0  0  0
 30 45  1  0  0  0  0
 31 30  1  0  0  0  0
 32 31  1  0  0  0  0
 32 46  1  0  0  0  0
 33 32  2  0  0  0  0
 34 35  2  0  0  0  0
 34 33  1  0  0  0  0
 35 36  1  0  0  0  0
 36 28  1  0  0  0  0
 36 31  2  0  0  0  0
 37 26  1  0  0  0  0
 38 37  1  0  0  0  0
 39 37  2  0  0  0  0
 40 25  1  0  0  0  0
 43 27  1  0  0  0  0
 47 33  1  0  0  0  0
 48 34  1  0  0  0  0
 49 35  1  0  0  0  0
M  END
$$$$
