VGY.pdb
 OpenBabel07022419253D

 46 46  0  0  1  0  0  0  0  0999 V2000
    1.5040   -5.5580   -0.6930 C   0  0  0  0  0  0  0  0  0  0  0  0
    2.1610   -4.8000    0.4170 C   0  0  0  0  0  0  0  0  0  0  0  0
    2.3900   -5.7670    1.5720 C   0  0  0  0  0  0  0  0  0  0  0  0
    1.3080   -3.6770    0.9550 C   0  0  2  0  0  0  0  0  0  0  0  0
    0.0480   -4.1460    1.4870 N   0  0  0  0  0  0  0  0  0  0  0  0
    1.0190   -2.6450   -0.0720 C   0  0  0  0  0  0  0  0  0  0  0  0
   -0.1650   -2.3220   -0.3420 O   0  0  0  0  0  0  0  0  0  0  0  0
    1.8890   -6.6160   -0.6370 H   0  0  0  0  0  0  0  0  0  0  0  0
    0.4240   -5.6020   -0.5490 H   0  0  0  0  0  0  0  0  0  0  0  0
    1.8090   -5.1840   -1.6930 H   0  0  0  0  0  0  0  0  0  0  0  0
    3.1070   -4.3710    0.0640 H   0  0  0  0  0  0  0  0  0  0  0  0
    3.3560   -6.2710    1.5220 H   0  0  0  0  0  0  0  0  0  0  0  0
    2.2660   -5.2440    2.5600 H   0  0  0  0  0  0  0  0  0  0  0  0
    1.5860   -6.5280    1.5370 H   0  0  0  0  0  0  0  0  0  0  0  0
    1.8720   -3.2480    1.8270 H   0  0  0  0  0  0  0  0  0  0  0  0
   -0.6320   -4.4260    0.7470 H   0  0  0  0  0  0  0  0  0  0  0  0
   -0.3540   -3.3690    2.0720 H   0  0  0  0  0  0  0  0  0  0  0  0
    2.0610   -1.9810   -0.7890 N   0  0  0  0  0  0  0  0  0  0  0  0
    1.8440   -0.9670   -1.7860 C   0  0  0  0  0  0  0  0  0  0  0  0
    1.1910    0.2510   -1.2480 C   0  0  0  0  0  0  0  0  0  0  0  0
    0.8950    1.2240   -2.0330 O   0  0  0  0  0  0  0  0  0  0  0  0
    3.0360   -2.2640   -0.5610 H   0  0  0  0  0  0  0  0  0  0  0  0
    1.1240   -1.4020   -2.5250 H   0  0  0  0  0  0  0  0  0  0  0  0
    2.8020   -0.7340   -2.2950 H   0  0  0  0  0  0  0  0  0  0  0  0
   -4.2780    5.6760    2.9590 O   0  0  0  0  0  0  0  0  0  0  0  0
   -3.5040    4.5910    2.5000 C   0  0  0  0  0  0  0  0  0  0  0  0
   -2.6850    3.8890    3.3570 C   0  0  0  0  0  0  0  0  0  0  0  0
   -1.9440    2.8330    2.8670 C   0  0  0  0  0  0  0  0  0  0  0  0
   -1.9800    2.4390    1.5470 C   0  0  0  0  0  0  0  0  0  0  0  0
   -1.1750    1.3100    1.0550 C   0  0  0  0  0  0  0  0  0  0  0  0
    0.1930    1.7090    0.5460 C   0  0  2  0  0  0  0  0  0  0  0  0
    0.8440    0.4690    0.1050 N   0  0  0  0  0  0  0  0  0  0  0  0
    1.0000    2.4050    1.5580 C   0  0  0  0  0  0  0  0  0  0  0  0
    0.6510    3.4940    2.0770 O   0  0  0  0  0  0  0  0  0  0  0  0
   -2.8010    3.1440    0.6910 C   0  0  0  0  0  0  0  0  0  0  0  0
   -3.5410    4.1980    1.1800 C   0  0  0  0  0  0  0  0  0  0  0  0
    2.2300    1.8940    2.0190 O   0  0  0  0  0  0  0  0  0  0  0  0
   -5.2750    5.5800    3.0580 H   0  0  0  0  0  0  0  0  0  0  0  0
   -2.6220    4.1610    4.4090 H   0  0  0  0  0  0  0  0  0  0  0  0
   -1.2980    2.2860    3.5760 H   0  0  0  0  0  0  0  0  0  0  0  0
   -1.0480    0.6090    1.9320 H   0  0  0  0  0  0  0  0  0  0  0  0
   -1.7340    0.7210    0.3030 H   0  0  0  0  0  0  0  0  0  0  0  0
    0.0350    2.3940   -0.3110 H   0  0  0  0  0  0  0  0  0  0  0  0
    1.0710   -0.2670    0.8020 H   0  0  0  0  0  0  0  0  0  0  0  0
   -2.8660    2.8680   -0.3760 H   0  0  0  0  0  0  0  0  0  0  0  0
   -4.1790    4.7360    0.4870 H   0  0  0  0  0  0  0  0  0  0  0  0
  1  8  1  0  0  0  0
  1  9  1  0  0  0  0
  1  2  1  0  0  0  0
  2  4  1  0  0  0  0
  2  3  1  0  0  0  0
  3 13  1  0  0  0  0
  4  5  1  0  0  0  0
  4 15  1  1  0  0  0
  5 17  1  0  0  0  0
  6  4  1  0  0  0  0
  7  6  2  0  0  0  0
 10  1  1  0  0  0  0
 11  2  1  0  0  0  0
 12  3  1  0  0  0  0
 14  3  1  0  0  0  0
 16  5  1  0  0  0  0
 18 22  1  0  0  0  0
 18  6  1  0  0  0  0
 19 20  1  0  0  0  0
 19 18  1  0  0  0  0
 20 32  1  0  0  0  0
 21 20  2  0  0  0  0
 23 19  1  0  0  0  0
 24 19  1  0  0  0  0
 25 38  1  0  0  0  0
 26 25  1  0  0  0  0
 26 27  1  0  0  0  0
 27 39  1  0  0  0  0
 28 27  2  0  0  0  0
 28 40  1  0  0  0  0
 29 28  1  0  0  0  0
 30 29  1  0  0  0  0
 30 41  1  0  0  0  0
 31 43  1  6  0  0  0
 31 30  1  0  0  0  0
 31 33  1  0  0  0  0
 32 31  1  0  0  0  0
 32 44  1  0  0  0  0
 33 37  2  0  0  0  0
 33 34  1  0  0  0  0
 35 36  1  0  0  0  0
 35 29  2  0  0  0  0
 36 26  2  0  0  0  0
 42 30  1  0  0  0  0
 45 35  1  0  0  0  0
 46 36  1  0  0  0  0
M  END
$$$$
