VHC.pdb
 OpenBabel07022419253D

 46 46  0  0  1  0  0  0  0  0999 V2000
    0.5010   -5.7320   -0.0150 C   0  0  0  0  0  0  0  0  0  0  0  0
    0.6280   -4.4900    0.8420 C   0  0  0  0  0  0  0  0  0  0  0  0
    0.1490   -4.8180    2.2340 C   0  0  0  0  0  0  0  0  0  0  0  0
   -0.1940   -3.3470    0.2830 C   0  0  2  0  0  0  0  0  0  0  0  0
    0.2290   -2.9960   -1.0610 N   0  0  0  0  0  0  0  0  0  0  0  0
   -0.0030   -2.1860    1.2130 C   0  0  0  0  0  0  0  0  0  0  0  0
   -0.3210   -2.2780    2.4250 O   0  0  0  0  0  0  0  0  0  0  0  0
    1.3790   -5.8260   -0.7030 H   0  0  0  0  0  0  0  0  0  0  0  0
   -0.4580   -5.7660   -0.5350 H   0  0  0  0  0  0  0  0  0  0  0  0
    0.5610   -6.6080    0.6600 H   0  0  0  0  0  0  0  0  0  0  0  0
    1.6770   -4.2040    0.8900 H   0  0  0  0  0  0  0  0  0  0  0  0
   -0.9110   -4.5310    2.3460 H   0  0  0  0  0  0  0  0  0  0  0  0
    0.7660   -4.2700    2.9550 H   0  0  0  0  0  0  0  0  0  0  0  0
    0.2370   -5.9290    2.4110 H   0  0  0  0  0  0  0  0  0  0  0  0
   -1.2420   -3.6850    0.2320 H   0  0  0  0  0  0  0  0  0  0  0  0
    0.4850   -3.8710   -1.5890 H   0  0  0  0  0  0  0  0  0  0  0  0
   -0.6120   -2.6070   -1.5830 H   0  0  0  0  0  0  0  0  0  0  0  0
    0.5320   -0.9540    0.7840 N   0  0  0  0  0  0  0  0  0  0  0  0
    0.7210    0.1930    1.7030 C   0  0  1  0  0  0  0  0  0  0  0  0
    2.1180    0.6780    1.6530 C   0  0  0  0  0  0  0  0  0  0  0  0
    2.4880    1.7630    2.5570 C   0  0  0  0  0  0  0  0  0  0  0  0
    1.8330    2.4060    3.5600 C   0  0  0  0  0  0  0  0  0  0  0  0
    2.6420    3.3090    4.1240 N   0  0  0  0  0  0  0  0  0  0  0  0
    3.8140    3.2400    3.4800 C   0  0  0  0  0  0  0  0  0  0  0  0
    3.7440    2.3110    2.5280 N   0  0  0  0  0  0  0  0  0  0  0  0
   -0.1980    1.2530    1.1110 C   0  0  0  0  0  0  0  0  0  0  0  0
   -0.2990    2.4060    1.5770 O   0  0  0  0  0  0  0  0  0  0  0  0
    0.8050   -0.8500   -0.2140 H   0  0  0  0  0  0  0  0  0  0  0  0
    0.4160   -0.0300    2.7260 H   0  0  0  0  0  0  0  0  0  0  0  0
    2.8060   -0.1850    1.9060 H   0  0  0  0  0  0  0  0  0  0  0  0
    2.4230    0.9590    0.6180 H   0  0  0  0  0  0  0  0  0  0  0  0
    0.8340    2.2390    3.9010 H   0  0  0  0  0  0  0  0  0  0  0  0
    2.4100    3.9670    4.9360 H   0  0  0  0  0  0  0  0  0  0  0  0
    4.6730    3.8560    3.7160 H   0  0  0  0  0  0  0  0  0  0  0  0
   -1.0010    0.9720   -0.0260 N   0  0  0  0  0  0  0  0  0  0  0  0
   -1.8560    2.0100   -0.5510 C   0  0  1  0  0  0  0  0  0  0  0  0
   -1.5110    2.3370   -1.9960 C   0  0  0  0  0  0  0  0  0  0  0  0
   -2.6330    3.6390   -2.5500 S   0  0  0  0  0  0  0  0  0  0  0  0
   -3.2380    1.5010   -0.5600 C   0  0  0  0  0  0  0  0  0  0  0  0
   -4.1550    2.2320   -0.9760 O   0  0  0  0  0  0  0  0  0  0  0  0
   -3.5220    0.2360   -0.1160 O   0  0  0  0  0  0  0  0  0  0  0  0
   -0.9970    0.0460   -0.4950 H   0  0  0  0  0  0  0  0  0  0  0  0
   -1.7620    2.9540    0.0460 H   0  0  0  0  0  0  0  0  0  0  0  0
   -1.6790    1.4480   -2.6340 H   0  0  0  0  0  0  0  0  0  0  0  0
   -0.4700    2.7220   -2.0750 H   0  0  0  0  0  0  0  0  0  0  0  0
   -2.7650    4.6740   -1.6330 H   0  0  0  0  0  0  0  0  0  0  0  0
  1 10  1  0  0  0  0
  1  2  1  0  0  0  0
  2 11  1  0  0  0  0
  2  3  1  0  0  0  0
  3 12  1  0  0  0  0
  3 14  1  0  0  0  0
  3 13  1  0  0  0  0
  4 15  1  6  0  0  0
  4  2  1  0  0  0  0
  4  6  1  0  0  0  0
  5  4  1  0  0  0  0
  6  7  2  0  0  0  0
  8  1  1  0  0  0  0
  9  1  1  0  0  0  0
 16  5  1  0  0  0  0
 17  5  1  0  0  0  0
 18  6  1  0  0  0  0
 18 19  1  0  0  0  0
 19 29  1  1  0  0  0
 20 19  1  0  0  0  0
 20 30  1  0  0  0  0
 20 21  1  0  0  0  0
 21 22  2  0  0  0  0
 22 32  1  0  0  0  0
 22 23  1  0  0  0  0
 23 33  1  0  0  0  0
 24 34  1  0  0  0  0
 24 23  1  0  0  0  0
 25 21  1  0  0  0  0
 25 24  2  0  0  0  0
 26 27  2  0  0  0  0
 26 19  1  0  0  0  0
 28 18  1  0  0  0  0
 31 20  1  0  0  0  0
 35 26  1  0  0  0  0
 36 35  1  0  0  0  0
 36 43  1  1  0  0  0
 37 36  1  0  0  0  0
 38 37  1  0  0  0  0
 38 46  1  0  0  0  0
 39 36  1  0  0  0  0
 39 41  1  0  0  0  0
 40 39  2  0  0  0  0
 42 35  1  0  0  0  0
 44 37  1  0  0  0  0
 45 37  1  0  0  0  0
M  END
$$$$
