VHE.pdb
 OpenBabel07022419253D

 51 51  0  0  1  0  0  0  0  0999 V2000
    3.1580   -4.4080    1.8180 C   0  0  0  0  0  0  0  0  0  0  0  0
    2.1910   -3.2450    1.8300 C   0  0  0  0  0  0  0  0  0  0  0  0
    1.0580   -3.5830    2.7630 C   0  0  0  0  0  0  0  0  0  0  0  0
    2.9550   -2.0230    2.2650 C   0  0  2  0  0  0  0  0  0  0  0  0
    3.5240   -2.1780    3.5780 N   0  0  0  0  0  0  0  0  0  0  0  0
    2.1320   -0.7820    2.1620 C   0  0  0  0  0  0  0  0  0  0  0  0
    1.9950   -0.0110    3.1460 O   0  0  0  0  0  0  0  0  0  0  0  0
    4.0430   -4.1930    1.1910 H   0  0  0  0  0  0  0  0  0  0  0  0
    3.4330   -4.5950    2.8910 H   0  0  0  0  0  0  0  0  0  0  0  0
    2.5940   -5.2980    1.4670 H   0  0  0  0  0  0  0  0  0  0  0  0
    1.8220   -3.0830    0.8100 H   0  0  0  0  0  0  0  0  0  0  0  0
    1.4550   -4.2800    3.5330 H   0  0  0  0  0  0  0  0  0  0  0  0
    0.2380   -4.1260    2.2500 H   0  0  0  0  0  0  0  0  0  0  0  0
    0.7050   -2.6860    3.3110 H   0  0  0  0  0  0  0  0  0  0  0  0
    3.8010   -1.8970    1.5560 H   0  0  0  0  0  0  0  0  0  0  0  0
    4.3160   -2.8560    3.5000 H   0  0  0  0  0  0  0  0  0  0  0  0
    3.9690   -1.2510    3.8200 H   0  0  0  0  0  0  0  0  0  0  0  0
    1.4810   -0.4420    0.9470 N   0  0  0  0  0  0  0  0  0  0  0  0
    0.6840    0.7720    0.8720 C   0  0  1  0  0  0  0  0  0  0  0  0
    1.2800    1.7480   -0.1160 C   0  0  0  0  0  0  0  0  0  0  0  0
    0.5130    3.0050   -0.2370 C   0  0  0  0  0  0  0  0  0  0  0  0
   -0.5050    3.2160   -1.1420 C   0  0  0  0  0  0  0  0  0  0  0  0
   -0.9650    4.4690   -0.9740 N   0  0  0  0  0  0  0  0  0  0  0  0
   -0.2620    5.0540    0.0160 C   0  0  0  0  0  0  0  0  0  0  0  0
    0.6230    4.1570    0.4460 N   0  0  0  0  0  0  0  0  0  0  0  0
   -0.7420    0.4670    0.6250 C   0  0  0  0  0  0  0  0  0  0  0  0
   -1.6100    1.3690    0.5440 O   0  0  0  0  0  0  0  0  0  0  0  0
    1.5860   -1.0790    0.1110 H   0  0  0  0  0  0  0  0  0  0  0  0
    0.7310    1.2700    1.8610 H   0  0  0  0  0  0  0  0  0  0  0  0
    2.2820    2.0260    0.3000 H   0  0  0  0  0  0  0  0  0  0  0  0
    1.4290    1.2560   -1.1010 H   0  0  0  0  0  0  0  0  0  0  0  0
   -0.8890    2.5140   -1.8730 H   0  0  0  0  0  0  0  0  0  0  0  0
   -1.7330    4.9460   -1.4970 H   0  0  0  0  0  0  0  0  0  0  0  0
   -0.3660    6.0530    0.4100 H   0  0  0  0  0  0  0  0  0  0  0  0
   -1.2160   -0.8770    0.4630 N   0  0  0  0  0  0  0  0  0  0  0  0
   -2.6020   -1.2020    0.2210 C   0  0  1  0  0  0  0  0  0  0  0  0
   -2.7390   -2.0760   -0.9980 C   0  0  0  0  0  0  0  0  0  0  0  0
   -2.2110   -1.4080   -2.2280 C   0  0  0  0  0  0  0  0  0  0  0  0
   -2.8810   -0.1530   -2.5810 C   0  0  0  0  0  0  0  0  0  0  0  0
   -2.4570    0.4690   -3.6110 O   0  0  0  0  0  0  0  0  0  0  0  0
   -3.1460   -2.0110    1.3700 C   0  0  0  0  0  0  0  0  0  0  0  0
   -4.3440   -2.3900    1.3410 O   0  0  0  0  0  0  0  0  0  0  0  0
   -3.9370    0.4240   -1.8950 O   0  0  0  0  0  0  0  0  0  0  0  0
   -2.3750   -2.3540    2.4620 O   0  0  0  0  0  0  0  0  0  0  0  0
   -0.5290   -1.6540    0.5230 H   0  0  0  0  0  0  0  0  0  0  0  0
   -3.1810   -0.2760    0.1890 H   0  0  0  0  0  0  0  0  0  0  0  0
   -3.7880   -2.4140   -1.1280 H   0  0  0  0  0  0  0  0  0  0  0  0
   -2.1080   -2.9850   -0.8300 H   0  0  0  0  0  0  0  0  0  0  0  0
   -2.2180   -2.1540   -3.0460 H   0  0  0  0  0  0  0  0  0  0  0  0
   -1.1280   -1.1820   -2.0370 H   0  0  0  0  0  0  0  0  0  0  0  0
   -4.2660    1.3500   -2.1460 H   0  0  0  0  0  0  0  0  0  0  0  0
  1  2  1  0  0  0  0
  1  9  1  0  0  0  0
  2  4  1  0  0  0  0
  2  3  1  0  0  0  0
  3 14  1  0  0  0  0
  3 12  1  0  0  0  0
  4 15  1  6  0  0  0
  4  5  1  0  0  0  0
  5 17  1  0  0  0  0
  6  4  1  0  0  0  0
  6  7  2  0  0  0  0
  8  1  1  0  0  0  0
 10  1  1  0  0  0  0
 11  2  1  0  0  0  0
 13  3  1  0  0  0  0
 16  5  1  0  0  0  0
 18  6  1  0  0  0  0
 19 18  1  0  0  0  0
 19 29  1  1  0  0  0
 20 30  1  0  0  0  0
 20 19  1  0  0  0  0
 21 20  1  0  0  0  0
 21 25  1  0  0  0  0
 22 23  1  0  0  0  0
 22 21  2  0  0  0  0
 23 24  1  0  0  0  0
 24 34  1  0  0  0  0
 24 25  2  0  0  0  0
 26 19  1  0  0  0  0
 27 26  2  0  0  0  0
 28 18  1  0  0  0  0
 31 20  1  0  0  0  0
 32 22  1  0  0  0  0
 33 23  1  0  0  0  0
 35 45  1  0  0  0  0
 35 26  1  0  0  0  0
 36 46  1  6  0  0  0
 36 35  1  0  0  0  0
 36 41  1  0  0  0  0
 37 48  1  0  0  0  0
 37 36  1  0  0  0  0
 38 50  1  0  0  0  0
 38 37  1  0  0  0  0
 39 38  1  0  0  0  0
 39 43  1  0  0  0  0
 40 39  2  0  0  0  0
 41 44  1  0  0  0  0
 42 41  2  0  0  0  0
 47 37  1  0  0  0  0
 49 38  1  0  0  0  0
 51 43  1  0  0  0  0
M  END
$$$$
