VHF.pdb
 OpenBabel07022419263D

 55 56  0  0  1  0  0  0  0  0999 V2000
    0.9600    1.3750    5.3070 C   0  0  0  0  0  0  0  0  0  0  0  0
    0.2510    0.0740    5.5620 C   0  0  0  0  0  0  0  0  0  0  0  0
    0.6590   -0.4110    6.9580 C   0  0  0  0  0  0  0  0  0  0  0  0
    0.5410   -0.9770    4.5250 C   0  0  2  0  0  0  0  0  0  0  0  0
    1.9280   -1.3170    4.4310 N   0  0  0  0  0  0  0  0  0  0  0  0
    0.0350   -0.4890    3.2150 C   0  0  0  0  0  0  0  0  0  0  0  0
   -1.1550   -0.0920    3.1300 O   0  0  0  0  0  0  0  0  0  0  0  0
    0.4580    2.1300    5.9810 H   0  0  0  0  0  0  0  0  0  0  0  0
    0.8040    1.7570    4.2880 H   0  0  0  0  0  0  0  0  0  0  0  0
    2.0180    1.3630    5.6340 H   0  0  0  0  0  0  0  0  0  0  0  0
   -0.8320    0.3010    5.6380 H   0  0  0  0  0  0  0  0  0  0  0  0
    0.3790    0.3840    7.6780 H   0  0  0  0  0  0  0  0  0  0  0  0
    0.0990   -1.3230    7.2500 H   0  0  0  0  0  0  0  0  0  0  0  0
    1.7390   -0.6500    6.9840 H   0  0  0  0  0  0  0  0  0  0  0  0
   -0.0140   -1.9020    4.8420 H   0  0  0  0  0  0  0  0  0  0  0  0
    2.5750   -0.5190    4.3960 H   0  0  0  0  0  0  0  0  0  0  0  0
    2.2200   -2.1070    5.0160 H   0  0  0  0  0  0  0  0  0  0  0  0
    0.8190   -0.4400    2.0320 N   0  0  0  0  0  0  0  0  0  0  0  0
    0.3240    0.0320    0.7570 C   0  0  1  0  0  0  0  0  0  0  0  0
    1.1120    1.1750    0.1810 C   0  0  0  0  0  0  0  0  0  0  0  0
    1.1460    2.3760    1.0240 C   0  0  0  0  0  0  0  0  0  0  0  0
    0.2750    3.4370    1.0230 C   0  0  0  0  0  0  0  0  0  0  0  0
    0.6840    4.3400    1.9700 N   0  0  0  0  0  0  0  0  0  0  0  0
    1.7870    3.8380    2.5390 C   0  0  0  0  0  0  0  0  0  0  0  0
    2.0600    2.6520    1.9620 N   0  0  0  0  0  0  0  0  0  0  0  0
    0.1890   -1.0870   -0.2170 C   0  0  0  0  0  0  0  0  0  0  0  0
    0.5060   -2.2780    0.1020 O   0  0  0  0  0  0  0  0  0  0  0  0
    1.8010   -0.7610    2.0810 H   0  0  0  0  0  0  0  0  0  0  0  0
   -0.7170    0.4010    0.9330 H   0  0  0  0  0  0  0  0  0  0  0  0
    0.5830    1.4370   -0.7860 H   0  0  0  0  0  0  0  0  0  0  0  0
    2.1260    0.8640   -0.1530 H   0  0  0  0  0  0  0  0  0  0  0  0
   -0.5920    3.5760    0.4040 H   0  0  0  0  0  0  0  0  0  0  0  0
    0.2040    5.2520    2.1910 H   0  0  0  0  0  0  0  0  0  0  0  0
    2.3560    4.3010    3.3200 H   0  0  0  0  0  0  0  0  0  0  0  0
   -0.2960   -0.8640   -1.5270 N   0  0  0  0  0  0  0  0  0  0  0  0
   -0.4570   -1.8980   -2.5330 C   0  0  1  0  0  0  0  0  0  0  0  0
   -1.9070   -2.0670   -2.8580 C   0  0  0  0  0  0  0  0  0  0  0  0
   -2.1780   -3.0910   -3.8660 C   0  0  0  0  0  0  0  0  0  0  0  0
   -2.3750   -4.4140   -3.4670 C   0  0  0  0  0  0  0  0  0  0  0  0
   -2.6420   -5.4170   -4.3700 C   0  0  0  0  0  0  0  0  0  0  0  0
   -2.7230   -5.1380   -5.7140 C   0  0  0  0  0  0  0  0  0  0  0  0
   -2.5310   -3.8420   -6.1070 C   0  0  0  0  0  0  0  0  0  0  0  0
   -2.2640   -2.8330   -5.2160 C   0  0  0  0  0  0  0  0  0  0  0  0
    0.4070   -1.6790   -3.6980 C   0  0  0  0  0  0  0  0  0  0  0  0
    1.1440   -0.6750   -3.7490 O   0  0  0  0  0  0  0  0  0  0  0  0
    0.4100   -2.5760   -4.7360 O   0  0  0  0  0  0  0  0  0  0  0  0
   -0.5580    0.1010   -1.7970 H   0  0  0  0  0  0  0  0  0  0  0  0
   -0.1150   -2.8620   -2.0540 H   0  0  0  0  0  0  0  0  0  0  0  0
   -2.3400   -1.1020   -3.2220 H   0  0  0  0  0  0  0  0  0  0  0  0
   -2.4480   -2.3580   -1.9280 H   0  0  0  0  0  0  0  0  0  0  0  0
   -2.3160   -4.6580   -2.4120 H   0  0  0  0  0  0  0  0  0  0  0  0
   -2.7900   -6.4360   -4.0290 H   0  0  0  0  0  0  0  0  0  0  0  0
   -2.9300   -5.8820   -6.4750 H   0  0  0  0  0  0  0  0  0  0  0  0
   -2.5820   -3.5500   -7.1670 H   0  0  0  0  0  0  0  0  0  0  0  0
   -2.1150   -1.8130   -5.5500 H   0  0  0  0  0  0  0  0  0  0  0  0
  1  2  1  0  0  0  0
  1 10  1  0  0  0  0
  1  8  1  0  0  0  0
  2 11  1  0  0  0  0
  2  3  1  0  0  0  0
  3 14  1  0  0  0  0
  3 13  1  0  0  0  0
  3 12  1  0  0  0  0
  4 15  1  1  0  0  0
  4  2  1  0  0  0  0
  5  4  1  0  0  0  0
  5 17  1  0  0  0  0
  6  4  1  0  0  0  0
  7  6  2  0  0  0  0
  9  1  1  0  0  0  0
 16  5  1  0  0  0  0
 18 28  1  0  0  0  0
 18  6  1  0  0  0  0
 19 29  1  1  0  0  0
 19 18  1  0  0  0  0
 20 19  1  0  0  0  0
 20 21  1  0  0  0  0
 21 25  1  0  0  0  0
 22 21  2  0  0  0  0
 22 23  1  0  0  0  0
 23 33  1  0  0  0  0
 23 24  1  0  0  0  0
 24 34  1  0  0  0  0
 25 24  2  0  0  0  0
 26 27  2  0  0  0  0
 26 19  1  0  0  0  0
 30 20  1  0  0  0  0
 31 20  1  0  0  0  0
 32 22  1  0  0  0  0
 35 26  1  0  0  0  0
 36 48  1  1  0  0  0
 36 35  1  0  0  0  0
 37 36  1  0  0  0  0
 37 50  1  0  0  0  0
 38 39  1  0  0  0  0
 38 37  1  0  0  0  0
 39 51  1  0  0  0  0
 40 52  1  0  0  0  0
 40 39  2  0  0  0  0
 41 40  1  0  0  0  0
 42 41  2  0  0  0  0
 42 43  1  0  0  0  0
 43 38  2  0  0  0  0
 44 36  1  0  0  0  0
 45 44  1  0  0  0  0
 46 44  2  0  0  0  0
 47 35  1  0  0  0  0
 49 37  1  0  0  0  0
 53 41  1  0  0  0  0
 54 42  1  0  0  0  0
 55 43  1  0  0  0  0
M  END
$$$$
