VHG.pdb
 OpenBabel07022419253D

 42 42  0  0  1  0  0  0  0  0999 V2000
   -0.7410   -4.2300    2.8970 C   0  0  0  0  0  0  0  0  0  0  0  0
    0.1150   -3.0680    2.3620 C   0  0  0  0  0  0  0  0  0  0  0  0
   -0.1010   -1.9300    3.3140 C   0  0  0  0  0  0  0  0  0  0  0  0
   -0.3860   -2.8050    0.9760 C   0  0  2  0  0  0  0  0  0  0  0  0
   -0.1970   -4.0470    0.2250 N   0  0  0  0  0  0  0  0  0  0  0  0
    0.2960   -1.6790    0.2860 C   0  0  0  0  0  0  0  0  0  0  0  0
    1.1060   -1.9160   -0.6750 O   0  0  0  0  0  0  0  0  0  0  0  0
   -0.7990   -5.0610    2.1950 H   0  0  0  0  0  0  0  0  0  0  0  0
   -1.7610   -3.8150    3.0340 H   0  0  0  0  0  0  0  0  0  0  0  0
   -0.3630   -4.5480    3.8990 H   0  0  0  0  0  0  0  0  0  0  0  0
    1.1710   -3.4110    2.3520 H   0  0  0  0  0  0  0  0  0  0  0  0
    0.0550   -2.3310    4.3680 H   0  0  0  0  0  0  0  0  0  0  0  0
    0.6410   -1.1120    3.2270 H   0  0  0  0  0  0  0  0  0  0  0  0
   -1.1480   -1.6120    3.2940 H   0  0  0  0  0  0  0  0  0  0  0  0
   -1.4620   -2.5950    0.9940 H   0  0  0  0  0  0  0  0  0  0  0  0
   -1.0860   -4.5940    0.2320 H   0  0  0  0  0  0  0  0  0  0  0  0
    0.5270   -4.6420    0.6850 H   0  0  0  0  0  0  0  0  0  0  0  0
    0.0800   -0.3310    0.6560 N   0  0  0  0  0  0  0  0  0  0  0  0
    0.6820    0.8270    0.0950 C   0  0  1  0  0  0  0  0  0  0  0  0
    2.1340    0.6800   -0.3420 C   0  0  0  0  0  0  0  0  0  0  0  0
    3.0480    0.3590    0.7720 C   0  0  0  0  0  0  0  0  0  0  0  0
    3.4610   -0.8460    1.2560 C   0  0  0  0  0  0  0  0  0  0  0  0
    4.3250   -0.6390    2.3010 N   0  0  0  0  0  0  0  0  0  0  0  0
    4.4440    0.6880    2.4600 C   0  0  0  0  0  0  0  0  0  0  0  0
    3.6800    1.2840    1.5460 N   0  0  0  0  0  0  0  0  0  0  0  0
   -0.1180    1.6310   -0.8180 C   0  0  0  0  0  0  0  0  0  0  0  0
    0.3890    2.6610   -1.3300 O   0  0  0  0  0  0  0  0  0  0  0  0
   -0.6390   -0.2310    1.4500 H   0  0  0  0  0  0  0  0  0  0  0  0
    0.8480    1.5120    1.0240 H   0  0  0  0  0  0  0  0  0  0  0  0
    2.4110    1.7260   -0.6960 H   0  0  0  0  0  0  0  0  0  0  0  0
    2.3020   -0.0280   -1.1460 H   0  0  0  0  0  0  0  0  0  0  0  0
    3.2070   -1.8430    0.9310 H   0  0  0  0  0  0  0  0  0  0  0  0
    4.8080   -1.3640    2.8750 H   0  0  0  0  0  0  0  0  0  0  0  0
    5.0740    1.1580    3.2260 H   0  0  0  0  0  0  0  0  0  0  0  0
   -1.4510    1.2940   -1.1510 N   0  0  0  0  0  0  0  0  0  0  0  0
   -2.2650    2.0660   -2.0480 C   0  0  0  0  0  0  0  0  0  0  0  0
   -2.4370    3.4550   -1.5400 C   0  0  0  0  0  0  0  0  0  0  0  0
   -3.1130    4.3090   -2.1640 O   0  0  0  0  0  0  0  0  0  0  0  0
   -1.8320    3.8110   -0.3450 O   0  0  0  0  0  0  0  0  0  0  0  0
   -1.8260    0.4210   -0.6940 H   0  0  0  0  0  0  0  0  0  0  0  0
   -3.2730    1.6190   -2.1010 H   0  0  0  0  0  0  0  0  0  0  0  0
   -1.8500    2.0630   -3.0840 H   0  0  0  0  0  0  0  0  0  0  0  0
  1  9  1  0  0  0  0
  1 10  1  0  0  0  0
  2  1  1  0  0  0  0
  2  3  1  0  0  0  0
  3 12  1  0  0  0  0
  4 15  1  1  0  0  0
  4  2  1  0  0  0  0
  5 16  1  0  0  0  0
  5 17  1  0  0  0  0
  5  4  1  0  0  0  0
  6 18  1  0  0  0  0
  6  4  1  0  0  0  0
  7  6  2  0  0  0  0
  8  1  1  0  0  0  0
 11  2  1  0  0  0  0
 13  3  1  0  0  0  0
 14  3  1  0  0  0  0
 18 28  1  0  0  0  0
 19 18  1  0  0  0  0
 19 29  1  1  0  0  0
 20 19  1  0  0  0  0
 20 21  1  0  0  0  0
 21 22  2  0  0  0  0
 21 25  1  0  0  0  0
 22 23  1  0  0  0  0
 23 24  1  0  0  0  0
 23 33  1  0  0  0  0
 24 34  1  0  0  0  0
 25 24  2  0  0  0  0
 26 19  1  0  0  0  0
 27 26  2  0  0  0  0
 30 20  1  0  0  0  0
 31 20  1  0  0  0  0
 32 22  1  0  0  0  0
 35 26  1  0  0  0  0
 35 40  1  0  0  0  0
 36 37  1  0  0  0  0
 36 35  1  0  0  0  0
 37 39  1  0  0  0  0
 38 37  2  0  0  0  0
 41 36  1  0  0  0  0
 42 36  1  0  0  0  0
M  END
$$$$
