VHK.pdb
 OpenBabel07022419253D

 56 56  0  0  1  0  0  0  0  0999 V2000
    2.1460   -4.5860    1.5940 C   0  0  0  0  0  0  0  0  0  0  0  0
    1.4330   -3.2270    1.5820 C   0  0  0  0  0  0  0  0  0  0  0  0
    0.1230   -3.4140    2.2680 C   0  0  0  0  0  0  0  0  0  0  0  0
    2.3550   -2.2640    2.2580 C   0  0  2  0  0  0  0  0  0  0  0  0
    2.6450   -2.6590    3.6260 N   0  0  0  0  0  0  0  0  0  0  0  0
    1.8880   -0.8540    2.1940 C   0  0  0  0  0  0  0  0  0  0  0  0
    1.7880   -0.1650    3.2460 O   0  0  0  0  0  0  0  0  0  0  0  0
    3.0790   -4.5480    1.0290 H   0  0  0  0  0  0  0  0  0  0  0  0
    2.4270   -4.8050    2.6650 H   0  0  0  0  0  0  0  0  0  0  0  0
    1.4870   -5.3990    1.2390 H   0  0  0  0  0  0  0  0  0  0  0  0
    1.3480   -2.9540    0.5090 H   0  0  0  0  0  0  0  0  0  0  0  0
    0.2680   -4.1890    3.0720 H   0  0  0  0  0  0  0  0  0  0  0  0
   -0.2330   -2.4970    2.8130 H   0  0  0  0  0  0  0  0  0  0  0  0
   -0.6890   -3.7500    1.6240 H   0  0  0  0  0  0  0  0  0  0  0  0
    3.3420   -2.3370    1.7150 H   0  0  0  0  0  0  0  0  0  0  0  0
    3.2150   -1.9200    4.0620 H   0  0  0  0  0  0  0  0  0  0  0  0
    1.8290   -2.9680    4.1570 H   0  0  0  0  0  0  0  0  0  0  0  0
    1.5360   -0.2140    0.9750 N   0  0  0  0  0  0  0  0  0  0  0  0
    1.0840    1.1660    0.9530 C   0  0  1  0  0  0  0  0  0  0  0  0
    2.0720    2.0490    0.2190 C   0  0  0  0  0  0  0  0  0  0  0  0
    1.6520    3.4580    0.1760 C   0  0  0  0  0  0  0  0  0  0  0  0
    0.8990    4.0460   -0.8030 C   0  0  0  0  0  0  0  0  0  0  0  0
    0.7010    5.3480   -0.5450 N   0  0  0  0  0  0  0  0  0  0  0  0
    1.3490    5.5760    0.6280 C   0  0  0  0  0  0  0  0  0  0  0  0
    1.9270    4.4250    1.0640 N   0  0  0  0  0  0  0  0  0  0  0  0
   -0.3020    1.2910    0.4740 C   0  0  0  0  0  0  0  0  0  0  0  0
   -0.9120    2.3870    0.3920 O   0  0  0  0  0  0  0  0  0  0  0  0
    1.6010   -0.7440    0.0700 H   0  0  0  0  0  0  0  0  0  0  0  0
    1.0860    1.5430    2.0180 H   0  0  0  0  0  0  0  0  0  0  0  0
    2.3140    1.6410   -0.7860 H   0  0  0  0  0  0  0  0  0  0  0  0
    3.0370    1.9640    0.7910 H   0  0  0  0  0  0  0  0  0  0  0  0
    0.5180    3.5290   -1.6660 H   0  0  0  0  0  0  0  0  0  0  0  0
    0.1680    6.0030   -1.1320 H   0  0  0  0  0  0  0  0  0  0  0  0
    1.3620    6.5550    1.0880 H   0  0  0  0  0  0  0  0  0  0  0  0
   -1.0540    0.1450    0.0650 N   0  0  0  0  0  0  0  0  0  0  0  0
   -2.4310    0.2370   -0.4140 C   0  0  1  0  0  0  0  0  0  0  0  0
   -2.5650   -0.2080   -1.8230 C   0  0  0  0  0  0  0  0  0  0  0  0
   -2.1740   -1.5960   -2.1500 C   0  0  0  0  0  0  0  0  0  0  0  0
   -2.9390   -2.6760   -1.4570 C   0  0  0  0  0  0  0  0  0  0  0  0
   -2.3630   -4.0080   -1.9670 C   0  0  0  0  0  0  0  0  0  0  0  0
   -0.9500   -4.0970   -1.6510 N   0  0  0  0  0  0  0  0  0  0  0  0
   -3.3240   -0.4510    0.5440 C   0  0  0  0  0  0  0  0  0  0  0  0
   -4.5580   -0.5620    0.3290 O   0  0  0  0  0  0  0  0  0  0  0  0
   -2.8560   -1.0080    1.7290 O   0  0  0  0  0  0  0  0  0  0  0  0
   -0.6350   -0.8060    0.0970 H   0  0  0  0  0  0  0  0  0  0  0  0
   -2.7580    1.3250   -0.3770 H   0  0  0  0  0  0  0  0  0  0  0  0
   -1.9590    0.4700   -2.4850 H   0  0  0  0  0  0  0  0  0  0  0  0
   -3.6520   -0.0990   -2.1150 H   0  0  0  0  0  0  0  0  0  0  0  0
   -1.0650   -1.7700   -2.0950 H   0  0  0  0  0  0  0  0  0  0  0  0
   -2.3880   -1.7380   -3.2540 H   0  0  0  0  0  0  0  0  0  0  0  0
   -2.8850   -2.6880   -0.3720 H   0  0  0  0  0  0  0  0  0  0  0  0
   -3.9850   -2.6580   -1.8380 H   0  0  0  0  0  0  0  0  0  0  0  0
   -2.4830   -4.0790   -3.0640 H   0  0  0  0  0  0  0  0  0  0  0  0
   -2.9100   -4.8610   -1.5250 H   0  0  0  0  0  0  0  0  0  0  0  0
   -0.3760   -3.7450   -2.4490 H   0  0  0  0  0  0  0  0  0  0  0  0
   -0.7550   -3.4690   -0.8360 H   0  0  0  0  0  0  0  0  0  0  0  0
  1  9  1  0  0  0  0
  2  1  1  0  0  0  0
  2  4  1  0  0  0  0
  2  3  1  0  0  0  0
  3 13  1  0  0  0  0
  3 12  1  0  0  0  0
  4 15  1  6  0  0  0
  4  5  1  0  0  0  0
  5 16  1  0  0  0  0
  5 17  1  0  0  0  0
  6  4  1  0  0  0  0
  6  7  2  0  0  0  0
  8  1  1  0  0  0  0
 10  1  1  0  0  0  0
 11  2  1  0  0  0  0
 14  3  1  0  0  0  0
 18  6  1  0  0  0  0
 19 18  1  0  0  0  0
 19 29  1  1  0  0  0
 20 31  1  0  0  0  0
 20 19  1  0  0  0  0
 21 20  1  0  0  0  0
 21 25  1  0  0  0  0
 22 23  1  0  0  0  0
 22 21  2  0  0  0  0
 23 24  1  0  0  0  0
 24 25  2  0  0  0  0
 24 34  1  0  0  0  0
 26 19  1  0  0  0  0
 27 26  2  0  0  0  0
 28 18  1  0  0  0  0
 30 20  1  0  0  0  0
 32 22  1  0  0  0  0
 33 23  1  0  0  0  0
 35 45  1  0  0  0  0
 35 26  1  0  0  0  0
 36 46  1  1  0  0  0
 36 35  1  0  0  0  0
 36 42  1  0  0  0  0
 37 36  1  0  0  0  0
 38 49  1  0  0  0  0
 38 37  1  0  0  0  0
 38 39  1  0  0  0  0
 39 51  1  0  0  0  0
 40 41  1  0  0  0  0
 40 54  1  0  0  0  0
 40 39  1  0  0  0  0
 41 56  1  0  0  0  0
 42 44  1  0  0  0  0
 43 42  2  0  0  0  0
 47 37  1  0  0  0  0
 48 37  1  0  0  0  0
 50 38  1  0  0  0  0
 52 39  1  0  0  0  0
 53 40  1  0  0  0  0
 55 41  1  0  0  0  0
M  END
$$$$
