VHL.pdb
 OpenBabel07022419253D

 54 54  0  0  1  0  0  0  0  0999 V2000
    0.2800   -3.4940    3.5220 C   0  0  0  0  0  0  0  0  0  0  0  0
    1.5590   -3.7070    2.7820 C   0  0  0  0  0  0  0  0  0  0  0  0
    1.3790   -4.1280    1.3410 C   0  0  0  0  0  0  0  0  0  0  0  0
    2.5980   -2.6540    2.9970 C   0  0  2  0  0  0  0  0  0  0  0  0
    2.9160   -2.6480    4.4390 N   0  0  0  0  0  0  0  0  0  0  0  0
    2.2660   -1.2980    2.5820 C   0  0  0  0  0  0  0  0  0  0  0  0
    2.2980   -0.3590    3.4650 O   0  0  0  0  0  0  0  0  0  0  0  0
   -0.0680   -4.3820    4.0910 H   0  0  0  0  0  0  0  0  0  0  0  0
    0.3650   -2.6670    4.2830 H   0  0  0  0  0  0  0  0  0  0  0  0
   -0.5640   -3.2660    2.8060 H   0  0  0  0  0  0  0  0  0  0  0  0
    2.0150   -4.6380    3.2680 H   0  0  0  0  0  0  0  0  0  0  0  0
    1.1260   -5.2340    1.2830 H   0  0  0  0  0  0  0  0  0  0  0  0
    0.5010   -3.6440    0.8680 H   0  0  0  0  0  0  0  0  0  0  0  0
    2.3130   -4.0470    0.7600 H   0  0  0  0  0  0  0  0  0  0  0  0
    3.5220   -2.9800    2.4870 H   0  0  0  0  0  0  0  0  0  0  0  0
    3.5150   -1.7980    4.6100 H   0  0  0  0  0  0  0  0  0  0  0  0
    3.5380   -3.4720    4.6020 H   0  0  0  0  0  0  0  0  0  0  0  0
    1.9090   -0.9560    1.2560 N   0  0  0  0  0  0  0  0  0  0  0  0
    1.6000    0.4250    0.9350 C   0  0  1  0  0  0  0  0  0  0  0  0
    2.5090    0.9480   -0.1320 C   0  0  0  0  0  0  0  0  0  0  0  0
    2.2650    2.3580   -0.5210 C   0  0  0  0  0  0  0  0  0  0  0  0
    2.8470    3.4890    0.0530 C   0  0  0  0  0  0  0  0  0  0  0  0
    2.3630    4.5670   -0.5840 N   0  0  0  0  0  0  0  0  0  0  0  0
    1.4980    4.1880   -1.5400 C   0  0  0  0  0  0  0  0  0  0  0  0
    1.4590    2.8500   -1.4790 N   0  0  0  0  0  0  0  0  0  0  0  0
    0.2030    0.5750    0.4680 C   0  0  0  0  0  0  0  0  0  0  0  0
   -0.2480    1.7100    0.1710 O   0  0  0  0  0  0  0  0  0  0  0  0
    1.8850   -1.7170    0.5600 H   0  0  0  0  0  0  0  0  0  0  0  0
    1.7050    1.0790    1.8380 H   0  0  0  0  0  0  0  0  0  0  0  0
    3.5850    0.8840    0.1400 H   0  0  0  0  0  0  0  0  0  0  0  0
    2.4140    0.2700   -1.0320 H   0  0  0  0  0  0  0  0  0  0  0  0
    3.5520    3.4320    0.8610 H   0  0  0  0  0  0  0  0  0  0  0  0
    2.6030    5.5860   -0.3900 H   0  0  0  0  0  0  0  0  0  0  0  0
    0.9710    4.8690   -2.1950 H   0  0  0  0  0  0  0  0  0  0  0  0
   -4.5670   -1.6860   -1.6980 C   0  0  0  0  0  0  0  0  0  0  0  0
   -3.3800   -1.0060   -2.2680 C   0  0  0  0  0  0  0  0  0  0  0  0
   -3.7540    0.4150   -2.7170 C   0  0  0  0  0  0  0  0  0  0  0  0
   -2.1250   -0.9910   -1.4720 C   0  0  0  0  0  0  0  0  0  0  0  0
   -2.1010   -0.3060   -0.1520 C   0  0  2  0  0  0  0  0  0  0  0  0
   -0.7040   -0.5060    0.3220 N   0  0  0  0  0  0  0  0  0  0  0  0
   -3.0340   -0.6980    0.8820 C   0  0  0  0  0  0  0  0  0  0  0  0
   -2.6310   -1.3400    1.9340 O   0  0  0  0  0  0  0  0  0  0  0  0
   -4.3910   -0.4490    0.8860 O   0  0  0  0  0  0  0  0  0  0  0  0
   -4.9970   -2.3300   -2.5510 H   0  0  0  0  0  0  0  0  0  0  0  0
   -4.3620   -2.3890   -0.8920 H   0  0  0  0  0  0  0  0  0  0  0  0
   -5.4290   -1.0320   -1.4500 H   0  0  0  0  0  0  0  0  0  0  0  0
   -3.1110   -1.5160   -3.2430 H   0  0  0  0  0  0  0  0  0  0  0  0
   -4.7910    0.3530   -3.0720 H   0  0  0  0  0  0  0  0  0  0  0  0
   -3.0580    0.7230   -3.5100 H   0  0  0  0  0  0  0  0  0  0  0  0
   -3.7070    1.1210   -1.8760 H   0  0  0  0  0  0  0  0  0  0  0  0
   -1.3680   -0.4410   -2.1390 H   0  0  0  0  0  0  0  0  0  0  0  0
   -1.6840   -2.0310   -1.4090 H   0  0  0  0  0  0  0  0  0  0  0  0
   -2.2420    0.7940   -0.3460 H   0  0  0  0  0  0  0  0  0  0  0  0
   -0.3580   -1.4480    0.5610 H   0  0  0  0  0  0  0  0  0  0  0  0
  1  8  1  0  0  0  0
  1  9  1  0  0  0  0
  2  4  1  0  0  0  0
  2 11  1  0  0  0  0
  2  1  1  0  0  0  0
  3  2  1  0  0  0  0
  4 15  1  6  0  0  0
  4  5  1  0  0  0  0
  5 17  1  0  0  0  0
  5 16  1  0  0  0  0
  6  4  1  0  0  0  0
  6  7  2  0  0  0  0
 10  1  1  0  0  0  0
 12  3  1  0  0  0  0
 13  3  1  0  0  0  0
 14  3  1  0  0  0  0
 18  6  1  0  0  0  0
 19 18  1  0  0  0  0
 19 29  1  1  0  0  0
 20 30  1  0  0  0  0
 20 19  1  0  0  0  0
 21 20  1  0  0  0  0
 21 22  2  0  0  0  0
 22 32  1  0  0  0  0
 23 33  1  0  0  0  0
 23 22  1  0  0  0  0
 24 25  2  0  0  0  0
 24 23  1  0  0  0  0
 25 21  1  0  0  0  0
 26 19  1  0  0  0  0
 27 26  2  0  0  0  0
 28 18  1  0  0  0  0
 31 20  1  0  0  0  0
 34 24  1  0  0  0  0
 35 46  1  0  0  0  0
 35 45  1  0  0  0  0
 36 35  1  0  0  0  0
 36 38  1  0  0  0  0
 37 36  1  0  0  0  0
 37 50  1  0  0  0  0
 38 52  1  0  0  0  0
 38 39  1  0  0  0  0
 39 53  1  6  0  0  0
 39 40  1  0  0  0  0
 39 41  1  0  0  0  0
 40 26  1  0  0  0  0
 40 54  1  0  0  0  0
 41 43  2  0  0  0  0
 41 42  1  0  0  0  0
 44 35  1  0  0  0  0
 47 36  1  0  0  0  0
 48 37  1  0  0  0  0
 49 37  1  0  0  0  0
 51 38  1  0  0  0  0
M  END
$$$$
