VHM.pdb
 OpenBabel07022419263D

 52 52  0  0  1  0  0  0  0  0999 V2000
    0.7260   -3.9550    1.3300 C   0  0  0  0  0  0  0  0  0  0  0  0
    1.8370   -3.6190    0.3880 C   0  0  0  0  0  0  0  0  0  0  0  0
    1.3840   -3.1540   -0.9720 C   0  0  0  0  0  0  0  0  0  0  0  0
    2.9070   -2.7650    0.9810 C   0  0  2  0  0  0  0  0  0  0  0  0
    3.5440   -3.4600    2.1220 N   0  0  0  0  0  0  0  0  0  0  0  0
    2.4860   -1.4570    1.4980 C   0  0  0  0  0  0  0  0  0  0  0  0
    2.7640   -1.0880    2.7020 O   0  0  0  0  0  0  0  0  0  0  0  0
   -0.2160   -4.0340    0.7550 H   0  0  0  0  0  0  0  0  0  0  0  0
    0.9330   -4.9310    1.8470 H   0  0  0  0  0  0  0  0  0  0  0  0
    0.6610   -3.1860    2.1480 H   0  0  0  0  0  0  0  0  0  0  0  0
    2.3640   -4.6170    0.1610 H   0  0  0  0  0  0  0  0  0  0  0  0
    2.1770   -2.5400   -1.4740 H   0  0  0  0  0  0  0  0  0  0  0  0
    0.3980   -2.6620   -0.9680 H   0  0  0  0  0  0  0  0  0  0  0  0
    1.2390   -4.0360   -1.6740 H   0  0  0  0  0  0  0  0  0  0  0  0
    3.7280   -2.6880    0.2230 H   0  0  0  0  0  0  0  0  0  0  0  0
    4.3470   -2.8950    2.4610 H   0  0  0  0  0  0  0  0  0  0  0  0
    3.8200   -4.4240    1.8380 H   0  0  0  0  0  0  0  0  0  0  0  0
    1.7570   -0.4660    0.7860 N   0  0  0  0  0  0  0  0  0  0  0  0
    1.3880    0.8190    1.3670 C   0  0  1  0  0  0  0  0  0  0  0  0
    1.7740    1.9510    0.4770 C   0  0  0  0  0  0  0  0  0  0  0  0
    1.4850    3.2730    0.9700 C   0  0  0  0  0  0  0  0  0  0  0  0
    1.7610    4.4390    0.2680 C   0  0  0  0  0  0  0  0  0  0  0  0
    1.3740    5.5020    0.9970 N   0  0  0  0  0  0  0  0  0  0  0  0
    0.8610    5.0310    2.1400 C   0  0  0  0  0  0  0  0  0  0  0  0
    0.9340    3.6740    2.1130 N   0  0  0  0  0  0  0  0  0  0  0  0
   -0.1000    0.7740    1.4560 C   0  0  0  0  0  0  0  0  0  0  0  0
   -0.7680    1.7520    1.9000 O   0  0  0  0  0  0  0  0  0  0  0  0
    1.4770   -0.6730   -0.1920 H   0  0  0  0  0  0  0  0  0  0  0  0
    1.7610    0.9570    2.3810 H   0  0  0  0  0  0  0  0  0  0  0  0
    2.8460    1.9240    0.1730 H   0  0  0  0  0  0  0  0  0  0  0  0
    1.1730    1.8070   -0.4740 H   0  0  0  0  0  0  0  0  0  0  0  0
    2.2230    4.5140   -0.7290 H   0  0  0  0  0  0  0  0  0  0  0  0
    1.4840    6.4950    0.6670 H   0  0  0  0  0  0  0  0  0  0  0  0
    0.4640    5.6690    2.9310 H   0  0  0  0  0  0  0  0  0  0  0  0
   -4.1200   -2.7450   -2.6060 C   0  0  0  0  0  0  0  0  0  0  0  0
   -4.7150   -1.1070   -2.1270 S   0  0  0  0  0  0  0  0  0  0  0  0
   -4.3040   -0.7700   -0.3700 C   0  0  0  0  0  0  0  0  0  0  0  0
   -2.8190   -0.6830   -0.2640 C   0  0  0  0  0  0  0  0  0  0  0  0
   -2.3210   -0.4050    1.1350 C   0  0  2  0  0  0  0  0  0  0  0  0
   -0.8820   -0.3520    1.0570 N   0  0  0  0  0  0  0  0  0  0  0  0
   -2.7020   -1.4600    2.0990 C   0  0  0  0  0  0  0  0  0  0  0  0
   -1.8070   -2.1170    2.6740 O   0  0  0  0  0  0  0  0  0  0  0  0
   -4.0220   -1.7600    2.4000 O   0  0  0  0  0  0  0  0  0  0  0  0
   -4.7870   -3.5410   -2.1830 H   0  0  0  0  0  0  0  0  0  0  0  0
   -4.1000   -2.7800   -3.7120 H   0  0  0  0  0  0  0  0  0  0  0  0
   -3.1120   -2.9640   -2.1990 H   0  0  0  0  0  0  0  0  0  0  0  0
   -4.7690   -1.5800    0.1990 H   0  0  0  0  0  0  0  0  0  0  0  0
   -4.7560    0.1820   -0.0710 H   0  0  0  0  0  0  0  0  0  0  0  0
   -2.3690   -1.6510   -0.5740 H   0  0  0  0  0  0  0  0  0  0  0  0
   -2.4730    0.1400   -0.9050 H   0  0  0  0  0  0  0  0  0  0  0  0
   -2.7550    0.5440    1.5180 H   0  0  0  0  0  0  0  0  0  0  0  0
   -0.3780   -1.1790    0.6930 H   0  0  0  0  0  0  0  0  0  0  0  0
  1  9  1  0  0  0  0
  1 10  1  0  0  0  0
  2  4  1  0  0  0  0
  2  1  1  0  0  0  0
  3 13  1  0  0  0  0
  3  2  1  0  0  0  0
  4 15  1  6  0  0  0
  4  6  1  0  0  0  0
  4  5  1  0  0  0  0
  5 16  1  0  0  0  0
  6  7  2  0  0  0  0
  8  1  1  0  0  0  0
 11  2  1  0  0  0  0
 12  3  1  0  0  0  0
 14  3  1  0  0  0  0
 17  5  1  0  0  0  0
 18 19  1  0  0  0  0
 18  6  1  0  0  0  0
 19 26  1  0  0  0  0
 19 29  1  1  0  0  0
 20 21  1  0  0  0  0
 20 19  1  0  0  0  0
 21 25  1  0  0  0  0
 22 21  2  0  0  0  0
 22 23  1  0  0  0  0
 23 24  1  0  0  0  0
 24 34  1  0  0  0  0
 25 24  2  0  0  0  0
 26 27  2  0  0  0  0
 28 18  1  0  0  0  0
 30 20  1  0  0  0  0
 31 20  1  0  0  0  0
 32 22  1  0  0  0  0
 33 23  1  0  0  0  0
 35 46  1  0  0  0  0
 35 44  1  0  0  0  0
 35 36  1  0  0  0  0
 36 37  1  0  0  0  0
 37 38  1  0  0  0  0
 37 48  1  0  0  0  0
 37 47  1  0  0  0  0
 38 39  1  0  0  0  0
 39 51  1  1  0  0  0
 39 41  1  0  0  0  0
 40 39  1  0  0  0  0
 40 26  1  0  0  0  0
 41 43  2  0  0  0  0
 41 42  1  0  0  0  0
 45 35  1  0  0  0  0
 49 38  1  0  0  0  0
 50 38  1  0  0  0  0
 52 40  1  0  0  0  0
M  END
$$$$
