VHP.pdb
 OpenBabel07022419263D

 49 50  0  0  1  0  0  0  0  0999 V2000
    2.2720   -4.2200    4.6790 C   0  0  0  0  0  0  0  0  0  0  0  0
    1.2690   -3.1890    4.1740 C   0  0  0  0  0  0  0  0  0  0  0  0
   -0.1010   -3.6370    4.6460 C   0  0  0  0  0  0  0  0  0  0  0  0
    1.2470   -3.2530    2.6520 C   0  0  2  0  0  0  0  0  0  0  0  0
    2.5550   -2.9610    2.0990 N   0  0  0  0  0  0  0  0  0  0  0  0
    0.2220   -2.2930    2.2020 C   0  0  0  0  0  0  0  0  0  0  0  0
   -0.9480   -2.4480    2.6190 O   0  0  0  0  0  0  0  0  0  0  0  0
    1.7890   -5.0190    5.2580 H   0  0  0  0  0  0  0  0  0  0  0  0
    2.7840   -4.7280    3.8150 H   0  0  0  0  0  0  0  0  0  0  0  0
    3.0570   -3.7660    5.3080 H   0  0  0  0  0  0  0  0  0  0  0  0
    1.5130   -2.1790    4.5470 H   0  0  0  0  0  0  0  0  0  0  0  0
    0.0370   -4.2090    5.6090 H   0  0  0  0  0  0  0  0  0  0  0  0
   -0.5850   -4.3400    3.9430 H   0  0  0  0  0  0  0  0  0  0  0  0
   -0.7500   -2.7770    4.9240 H   0  0  0  0  0  0  0  0  0  0  0  0
    1.0080   -4.3010    2.3920 H   0  0  0  0  0  0  0  0  0  0  0  0
    2.8710   -3.7130    1.4230 H   0  0  0  0  0  0  0  0  0  0  0  0
    3.2350   -2.9650    2.8850 H   0  0  0  0  0  0  0  0  0  0  0  0
    0.4590   -1.2070    1.3340 N   0  0  0  0  0  0  0  0  0  0  0  0
   -0.5300   -0.2520    0.8790 C   0  0  1  0  0  0  0  0  0  0  0  0
   -0.2380    1.1450    1.2580 C   0  0  0  0  0  0  0  0  0  0  0  0
    1.0480    1.6770    0.7380 C   0  0  0  0  0  0  0  0  0  0  0  0
    1.3170    2.3570   -0.4300 C   0  0  0  0  0  0  0  0  0  0  0  0
    2.6180    2.6710   -0.5070 N   0  0  0  0  0  0  0  0  0  0  0  0
    3.1960    2.2060    0.5920 C   0  0  0  0  0  0  0  0  0  0  0  0
    2.2550    1.5960    1.3650 N   0  0  0  0  0  0  0  0  0  0  0  0
   -0.6600   -0.3710   -0.5740 C   0  0  0  0  0  0  0  0  0  0  0  0
    0.1610   -1.1500   -1.1720 O   0  0  0  0  0  0  0  0  0  0  0  0
    1.4320   -1.0800    0.9900 H   0  0  0  0  0  0  0  0  0  0  0  0
   -1.5410   -0.5020    1.3250 H   0  0  0  0  0  0  0  0  0  0  0  0
   -1.0200    1.7950    0.8270 H   0  0  0  0  0  0  0  0  0  0  0  0
   -0.3310    1.3410    2.3590 H   0  0  0  0  0  0  0  0  0  0  0  0
    0.5800    2.6150   -1.2020 H   0  0  0  0  0  0  0  0  0  0  0  0
    3.0640    3.1870   -1.2970 H   0  0  0  0  0  0  0  0  0  0  0  0
    4.2550    2.3170    0.8020 H   0  0  0  0  0  0  0  0  0  0  0  0
   -1.6120    0.2890   -1.3870 N   0  0  0  0  0  0  0  0  0  0  0  0
   -2.6410    1.2410   -0.9650 C   0  0  0  0  0  0  0  0  0  0  0  0
   -3.6730    1.0970   -2.0810 C   0  0  0  0  0  0  0  0  0  0  0  0
   -2.7140    1.0900   -3.2820 C   0  0  0  0  0  0  0  0  0  0  0  0
   -1.7240    0.0680   -2.8190 C   0  0  1  0  0  0  0  0  0  0  0  0
   -0.4670    0.2560   -3.5600 C   0  0  0  0  0  0  0  0  0  0  0  0
   -0.5290    0.0970   -4.8130 O   0  0  0  0  0  0  0  0  0  0  0  0
    0.7590    0.5840   -3.0380 O   0  0  0  0  0  0  0  0  0  0  0  0
   -3.0720    1.0050    0.0120 H   0  0  0  0  0  0  0  0  0  0  0  0
   -2.2760    2.2830   -1.0660 H   0  0  0  0  0  0  0  0  0  0  0  0
   -4.3780    1.9350   -2.1210 H   0  0  0  0  0  0  0  0  0  0  0  0
   -4.1350    0.0950   -2.0450 H   0  0  0  0  0  0  0  0  0  0  0  0
   -3.3070    0.7580   -4.1520 H   0  0  0  0  0  0  0  0  0  0  0  0
   -2.2400    2.0770   -3.4180 H   0  0  0  0  0  0  0  0  0  0  0  0
   -2.1130   -0.9660   -2.9980 H   0  0  0  0  0  0  0  0  0  0  0  0
  1  8  1  0  0  0  0
  1 10  1  0  0  0  0
  2 11  1  0  0  0  0
  2  3  1  0  0  0  0
  2  1  1  0  0  0  0
  3 14  1  0  0  0  0
  3 12  1  0  0  0  0
  4 15  1  6  0  0  0
  4  2  1  0  0  0  0
  5  4  1  0  0  0  0
  5 17  1  0  0  0  0
  6  7  2  0  0  0  0
  6  4  1  0  0  0  0
  9  1  1  0  0  0  0
 13  3  1  0  0  0  0
 16  5  1  0  0  0  0
 18  6  1  0  0  0  0
 19 20  1  0  0  0  0
 19 29  1  1  0  0  0
 19 18  1  0  0  0  0
 20 31  1  0  0  0  0
 21 20  1  0  0  0  0
 21 25  1  0  0  0  0
 22 21  2  0  0  0  0
 23 22  1  0  0  0  0
 23 24  1  0  0  0  0
 24 34  1  0  0  0  0
 24 25  2  0  0  0  0
 26 19  1  0  0  0  0
 27 26  2  0  0  0  0
 28 18  1  0  0  0  0
 30 20  1  0  0  0  0
 32 22  1  0  0  0  0
 33 23  1  0  0  0  0
 35 36  1  0  0  0  0
 35 26  1  0  0  0  0
 36 43  1  0  0  0  0
 37 46  1  0  0  0  0
 37 36  1  0  0  0  0
 38 39  1  0  0  0  0
 38 37  1  0  0  0  0
 39 49  1  6  0  0  0
 39 35  1  0  0  0  0
 40 42  1  0  0  0  0
 40 39  1  0  0  0  0
 41 40  2  0  0  0  0
 44 36  1  0  0  0  0
 45 37  1  0  0  0  0
 47 38  1  0  0  0  0
 48 38  1  0  0  0  0
M  END
$$$$
