VHQ.pdb
 OpenBabel07022419253D

 52 52  0  0  1  0  0  0  0  0999 V2000
    0.7480   -0.9050    5.3490 C   0  0  0  0  0  0  0  0  0  0  0  0
    0.9800   -1.3610    3.9460 C   0  0  0  0  0  0  0  0  0  0  0  0
   -0.1900   -2.1710    3.4720 C   0  0  0  0  0  0  0  0  0  0  0  0
    1.3100   -0.2020    3.0590 C   0  0  2  0  0  0  0  0  0  0  0  0
    0.2530    0.7820    3.0280 N   0  0  0  0  0  0  0  0  0  0  0  0
    1.6240   -0.6740    1.6660 C   0  0  0  0  0  0  0  0  0  0  0  0
    2.5080   -1.5260    1.4520 O   0  0  0  0  0  0  0  0  0  0  0  0
    1.7060   -0.6300    5.8600 H   0  0  0  0  0  0  0  0  0  0  0  0
   -0.0550   -0.1750    5.4800 H   0  0  0  0  0  0  0  0  0  0  0  0
    0.3830   -1.8200    5.9160 H   0  0  0  0  0  0  0  0  0  0  0  0
    1.8900   -2.0230    3.9830 H   0  0  0  0  0  0  0  0  0  0  0  0
    0.0600   -2.9450    2.7230 H   0  0  0  0  0  0  0  0  0  0  0  0
   -0.5270   -2.7740    4.3760 H   0  0  0  0  0  0  0  0  0  0  0  0
   -1.0240   -1.5340    3.1980 H   0  0  0  0  0  0  0  0  0  0  0  0
    2.2120    0.2850    3.4460 H   0  0  0  0  0  0  0  0  0  0  0  0
    0.6590    1.6080    2.4830 H   0  0  0  0  0  0  0  0  0  0  0  0
    0.1230    1.1490    3.9940 H   0  0  0  0  0  0  0  0  0  0  0  0
    0.8780   -0.1330    0.5680 N   0  0  0  0  0  0  0  0  0  0  0  0
    1.0230   -0.4530   -0.7970 C   0  0  1  0  0  0  0  0  0  0  0  0
    2.3300   -1.0000   -1.2520 C   0  0  0  0  0  0  0  0  0  0  0  0
    3.4390   -0.0350   -1.0660 C   0  0  0  0  0  0  0  0  0  0  0  0
    3.7520    0.9190   -2.0410 C   0  0  0  0  0  0  0  0  0  0  0  0
    4.7630    1.6900   -1.6530 N   0  0  0  0  0  0  0  0  0  0  0  0
    5.1120    1.2480   -0.4350 C   0  0  0  0  0  0  0  0  0  0  0  0
    4.3030    0.2060   -0.0910 N   0  0  0  0  0  0  0  0  0  0  0  0
   -0.1570   -0.9330   -1.5040 C   0  0  0  0  0  0  0  0  0  0  0  0
   -0.1200   -1.6770   -2.5240 O   0  0  0  0  0  0  0  0  0  0  0  0
    0.1310    0.5940    0.8160 H   0  0  0  0  0  0  0  0  0  0  0  0
    1.1510    0.6680   -1.2660 H   0  0  0  0  0  0  0  0  0  0  0  0
    2.2680   -1.2440   -2.3770 H   0  0  0  0  0  0  0  0  0  0  0  0
    2.6060   -1.9610   -0.7920 H   0  0  0  0  0  0  0  0  0  0  0  0
    3.2420    1.0260   -2.9960 H   0  0  0  0  0  0  0  0  0  0  0  0
    5.2250    2.4800   -2.1450 H   0  0  0  0  0  0  0  0  0  0  0  0
    5.9070    1.6540    0.1780 H   0  0  0  0  0  0  0  0  0  0  0  0
   -4.0170   -3.2090    1.9210 N   0  0  0  0  0  0  0  0  0  0  0  0
   -3.9850   -2.6180    0.6340 C   0  0  0  0  0  0  0  0  0  0  0  0
   -3.9110   -3.3350   -0.3890 O   0  0  0  0  0  0  0  0  0  0  0  0
   -4.0360   -1.1530    0.4480 C   0  0  0  0  0  0  0  0  0  0  0  0
   -3.9100   -0.6760   -0.9530 C   0  0  0  0  0  0  0  0  0  0  0  0
   -2.6660   -1.0100   -1.6870 C   0  0  2  0  0  0  0  0  0  0  0  0
   -1.4540   -0.5490   -1.0510 N   0  0  0  0  0  0  0  0  0  0  0  0
   -2.7310   -0.3720   -3.0840 C   0  0  0  0  0  0  0  0  0  0  0  0
   -3.7040   -0.6190   -3.8280 O   0  0  0  0  0  0  0  0  0  0  0  0
   -1.7410    0.4730   -3.5510 O   0  0  0  0  0  0  0  0  0  0  0  0
   -3.5990   -4.1380    2.0780 H   0  0  0  0  0  0  0  0  0  0  0  0
   -4.4670   -2.6870    2.6960 H   0  0  0  0  0  0  0  0  0  0  0  0
   -5.0070   -0.7250    0.8460 H   0  0  0  0  0  0  0  0  0  0  0  0
   -3.2390   -0.7050    1.1180 H   0  0  0  0  0  0  0  0  0  0  0  0
   -4.8270   -0.9300   -1.5570 H   0  0  0  0  0  0  0  0  0  0  0  0
   -3.9610    0.4580   -0.9100 H   0  0  0  0  0  0  0  0  0  0  0  0
   -2.5990   -2.0800   -1.9400 H   0  0  0  0  0  0  0  0  0  0  0  0
   -1.5350    0.0850   -0.2450 H   0  0  0  0  0  0  0  0  0  0  0  0
  1  9  1  0  0  0  0
  1  8  1  0  0  0  0
  1 10  1  0  0  0  0
  2 11  1  0  0  0  0
  2  1  1  0  0  0  0
  3  2  1  0  0  0  0
  3 13  1  0  0  0  0
  4 15  1  1  0  0  0
  4  2  1  0  0  0  0
  5  4  1  0  0  0  0
  5 17  1  0  0  0  0
  6  4  1  0  0  0  0
  7  6  2  0  0  0  0
 12  3  1  0  0  0  0
 14  3  1  0  0  0  0
 16  5  1  0  0  0  0
 18 28  1  0  0  0  0
 18  6  1  0  0  0  0
 19 29  1  6  0  0  0
 19 18  1  0  0  0  0
 20 21  1  0  0  0  0
 20 19  1  0  0  0  0
 20 31  1  0  0  0  0
 21 25  1  0  0  0  0
 22 23  1  0  0  0  0
 22 21  2  0  0  0  0
 23 24  1  0  0  0  0
 24 25  2  0  0  0  0
 24 34  1  0  0  0  0
 26 41  1  0  0  0  0
 26 19  1  0  0  0  0
 27 26  2  0  0  0  0
 30 20  1  0  0  0  0
 32 22  1  0  0  0  0
 33 23  1  0  0  0  0
 35 45  1  0  0  0  0
 35 46  1  0  0  0  0
 36 35  1  0  0  0  0
 37 36  2  0  0  0  0
 38 36  1  0  0  0  0
 38 47  1  0  0  0  0
 38 48  1  0  0  0  0
 39 50  1  0  0  0  0
 39 38  1  0  0  0  0
 40 51  1  6  0  0  0
 40 41  1  0  0  0  0
 40 39  1  0  0  0  0
 41 52  1  0  0  0  0
 42 40  1  0  0  0  0
 43 42  2  0  0  0  0
 44 42  1  0  0  0  0
 49 39  1  0  0  0  0
M  END
$$$$
