VHR.pdb
 OpenBabel07022419253D

 58 58  0  0  1  0  0  0  0  0999 V2000
    2.0780   -2.4060    2.3050 C   0  0  0  0  0  0  0  0  0  0  0  0
    3.1820   -1.5000    2.7820 C   0  0  0  0  0  0  0  0  0  0  0  0
    4.0390   -2.1130    3.8530 C   0  0  0  0  0  0  0  0  0  0  0  0
    2.6650   -0.1250    3.1520 C   0  0  2  0  0  0  0  0  0  0  0  0
    1.6880   -0.1670    4.1890 N   0  0  0  0  0  0  0  0  0  0  0  0
    2.1730    0.5690    1.9060 C   0  0  0  0  0  0  0  0  0  0  0  0
    2.9510    0.7920    0.9540 O   0  0  0  0  0  0  0  0  0  0  0  0
    2.1190   -3.3290    2.9530 H   0  0  0  0  0  0  0  0  0  0  0  0
    2.2310   -2.7680    1.2680 H   0  0  0  0  0  0  0  0  0  0  0  0
    1.0670   -1.9780    2.4490 H   0  0  0  0  0  0  0  0  0  0  0  0
    3.8480   -1.3390    1.8860 H   0  0  0  0  0  0  0  0  0  0  0  0
    3.9880   -3.2270    3.8360 H   0  0  0  0  0  0  0  0  0  0  0  0
    3.7330   -1.8350    4.8880 H   0  0  0  0  0  0  0  0  0  0  0  0
    5.1080   -1.8650    3.6750 H   0  0  0  0  0  0  0  0  0  0  0  0
    3.5430    0.4530    3.5030 H   0  0  0  0  0  0  0  0  0  0  0  0
    0.7960   -0.6160    3.9680 H   0  0  0  0  0  0  0  0  0  0  0  0
    2.1590   -0.5470    5.0430 H   0  0  0  0  0  0  0  0  0  0  0  0
    0.8230    0.9860    1.7780 N   0  0  0  0  0  0  0  0  0  0  0  0
    0.2210    1.6630    0.6820 C   0  0  1  0  0  0  0  0  0  0  0  0
    1.1470    2.5980   -0.0930 C   0  0  0  0  0  0  0  0  0  0  0  0
    1.6640    3.6900    0.7420 C   0  0  0  0  0  0  0  0  0  0  0  0
    1.0540    4.9320    0.9070 C   0  0  0  0  0  0  0  0  0  0  0  0
    1.8210    5.6910    1.7450 N   0  0  0  0  0  0  0  0  0  0  0  0
    2.8750    4.9410    2.0890 C   0  0  0  0  0  0  0  0  0  0  0  0
    2.7630    3.7600    1.4850 N   0  0  0  0  0  0  0  0  0  0  0  0
   -0.5980    0.8390   -0.2130 C   0  0  0  0  0  0  0  0  0  0  0  0
   -1.1780    1.4280   -1.1690 O   0  0  0  0  0  0  0  0  0  0  0  0
    0.2050    0.7570    2.6010 H   0  0  0  0  0  0  0  0  0  0  0  0
   -0.4800    2.4340    1.1790 H   0  0  0  0  0  0  0  0  0  0  0  0
    1.9460    2.0840   -0.6340 H   0  0  0  0  0  0  0  0  0  0  0  0
    0.4800    3.0100   -0.9170 H   0  0  0  0  0  0  0  0  0  0  0  0
    0.1370    5.2380    0.4520 H   0  0  0  0  0  0  0  0  0  0  0  0
    1.6220    6.6730    2.0560 H   0  0  0  0  0  0  0  0  0  0  0  0
    3.6660    5.2460    2.7380 H   0  0  0  0  0  0  0  0  0  0  0  0
   -5.9430   -3.6320   -3.1150 N   0  0  0  0  0  0  0  0  0  0  0  0
   -4.7360   -4.3250   -2.8290 C   0  0  0  0  0  0  0  0  0  0  0  0
   -4.7370   -5.5900   -2.6290 N   0  0  0  0  0  0  0  0  0  0  0  0
   -3.5200   -3.6010   -2.7700 N   0  0  0  0  0  0  0  0  0  0  0  0
   -2.2450   -4.2400   -2.5990 C   0  0  0  0  0  0  0  0  0  0  0  0
   -1.0890   -3.3620   -2.5260 C   0  0  0  0  0  0  0  0  0  0  0  0
   -0.6980   -2.4510   -1.4950 C   0  0  0  0  0  0  0  0  0  0  0  0
   -1.5810   -1.3970   -0.9580 C   0  0  2  0  0  0  0  0  0  0  0  0
   -0.7470   -0.5390   -0.0430 N   0  0  0  0  0  0  0  0  0  0  0  0
   -2.5260   -1.9960    0.0590 C   0  0  0  0  0  0  0  0  0  0  0  0
   -3.4940   -2.7250   -0.1600 O   0  0  0  0  0  0  0  0  0  0  0  0
   -2.3180   -1.7190    1.4320 O   0  0  0  0  0  0  0  0  0  0  0  0
   -5.9510   -2.6290   -3.3200 H   0  0  0  0  0  0  0  0  0  0  0  0
   -6.8300   -4.1760   -3.1100 H   0  0  0  0  0  0  0  0  0  0  0  0
   -3.8740   -6.0960   -2.4230 H   0  0  0  0  0  0  0  0  0  0  0  0
   -3.5750   -2.5580   -2.8630 H   0  0  0  0  0  0  0  0  0  0  0  0
   -2.3670   -4.9300   -1.7210 H   0  0  0  0  0  0  0  0  0  0  0  0
   -2.1770   -4.9760   -3.4670 H   0  0  0  0  0  0  0  0  0  0  0  0
   -1.0930   -2.7680   -3.5480 H   0  0  0  0  0  0  0  0  0  0  0  0
   -0.1650   -4.0700   -2.7300 H   0  0  0  0  0  0  0  0  0  0  0  0
    0.3300   -2.0030   -1.7710 H   0  0  0  0  0  0  0  0  0  0  0  0
   -0.3340   -3.1070   -0.5990 H   0  0  0  0  0  0  0  0  0  0  0  0
   -2.0600   -0.7250   -1.6500 H   0  0  0  0  0  0  0  0  0  0  0  0
   -0.2950   -1.0490    0.7200 H   0  0  0  0  0  0  0  0  0  0  0  0
  1 10  1  0  0  0  0
  1  2  1  0  0  0  0
  1  8  1  0  0  0  0
  2  4  1  0  0  0  0
  2  3  1  0  0  0  0
  3 13  1  0  0  0  0
  4 15  1  1  0  0  0
  4  5  1  0  0  0  0
  5 17  1  0  0  0  0
  6  4  1  0  0  0  0
  7  6  2  0  0  0  0
  9  1  1  0  0  0  0
 11  2  1  0  0  0  0
 12  3  1  0  0  0  0
 14  3  1  0  0  0  0
 16  5  1  0  0  0  0
 18  6  1  0  0  0  0
 18 28  1  0  0  0  0
 19 29  1  1  0  0  0
 19 18  1  0  0  0  0
 20 19  1  0  0  0  0
 20 21  1  0  0  0  0
 21 22  2  0  0  0  0
 21 25  1  0  0  0  0
 22 23  1  0  0  0  0
 23 33  1  0  0  0  0
 23 24  1  0  0  0  0
 24 34  1  0  0  0  0
 25 24  2  0  0  0  0
 26 43  1  0  0  0  0
 26 19  1  0  0  0  0
 27 26  2  0  0  0  0
 30 20  1  0  0  0  0
 31 20  1  0  0  0  0
 32 22  1  0  0  0  0
 35 48  1  0  0  0  0
 35 36  1  0  0  0  0
 36 38  1  0  0  0  0
 36 37  2  0  0  0  0
 37 49  1  0  0  0  0
 38 39  1  0  0  0  0
 39 40  1  0  0  0  0
 39 51  1  0  0  0  0
 40 41  1  0  0  0  0
 41 42  1  0  0  0  0
 41 56  1  0  0  0  0
 42 57  1  6  0  0  0
 42 43  1  0  0  0  0
 42 44  1  0  0  0  0
 43 58  1  0  0  0  0
 44 46  1  0  0  0  0
 45 44  2  0  0  0  0
 47 35  1  0  0  0  0
 50 38  1  0  0  0  0
 52 39  1  0  0  0  0
 53 40  1  0  0  0  0
 54 40  1  0  0  0  0
 55 41  1  0  0  0  0
M  END
$$$$
