VHT.pdb
 OpenBabel07022419263D

 49 49  0  0  1  0  0  0  0  0999 V2000
    2.9780   -4.7450    2.8560 C   0  0  0  0  0  0  0  0  0  0  0  0
    2.0220   -3.5930    3.1050 C   0  0  0  0  0  0  0  0  0  0  0  0
    0.9010   -4.1410    3.9630 C   0  0  0  0  0  0  0  0  0  0  0  0
    1.3860   -3.2370    1.7530 C   0  0  2  0  0  0  0  0  0  0  0  0
    2.4070   -2.8460    0.8020 N   0  0  0  0  0  0  0  0  0  0  0  0
    0.4240   -2.1520    2.0190 C   0  0  0  0  0  0  0  0  0  0  0  0
   -0.5290   -2.3380    2.8160 O   0  0  0  0  0  0  0  0  0  0  0  0
    2.4910   -5.3980    2.0990 H   0  0  0  0  0  0  0  0  0  0  0  0
    3.9780   -4.4070    2.5570 H   0  0  0  0  0  0  0  0  0  0  0  0
    3.0210   -5.3270    3.8190 H   0  0  0  0  0  0  0  0  0  0  0  0
    2.4990   -2.7270    3.5690 H   0  0  0  0  0  0  0  0  0  0  0  0
    1.2740   -5.0280    4.5470 H   0  0  0  0  0  0  0  0  0  0  0  0
    0.0540   -4.5340    3.3640 H   0  0  0  0  0  0  0  0  0  0  0  0
    0.4760   -3.3720    4.6510 H   0  0  0  0  0  0  0  0  0  0  0  0
    0.9240   -4.1650    1.3810 H   0  0  0  0  0  0  0  0  0  0  0  0
    3.2900   -3.3730    0.9360 H   0  0  0  0  0  0  0  0  0  0  0  0
    2.0050   -2.9490   -0.1540 H   0  0  0  0  0  0  0  0  0  0  0  0
    0.5800   -0.9160    1.3780 N   0  0  0  0  0  0  0  0  0  0  0  0
   -0.3160    0.2140    1.5750 C   0  0  1  0  0  0  0  0  0  0  0  0
    0.5310    1.3480    2.1030 C   0  0  0  0  0  0  0  0  0  0  0  0
   -0.2390    2.5720    2.3550 C   0  0  0  0  0  0  0  0  0  0  0  0
   -0.8800    2.9580    3.5130 C   0  0  0  0  0  0  0  0  0  0  0  0
   -1.4700    4.1500    3.3220 N   0  0  0  0  0  0  0  0  0  0  0  0
   -1.1970    4.5030    2.0570 C   0  0  0  0  0  0  0  0  0  0  0  0
   -0.4590    3.5610    1.4720 N   0  0  0  0  0  0  0  0  0  0  0  0
   -0.9340    0.5320    0.2710 C   0  0  0  0  0  0  0  0  0  0  0  0
   -1.7690    1.4870    0.1470 O   0  0  0  0  0  0  0  0  0  0  0  0
    1.3810   -0.7960    0.7220 H   0  0  0  0  0  0  0  0  0  0  0  0
   -1.1290   -0.0240    2.2790 H   0  0  0  0  0  0  0  0  0  0  0  0
    0.9280    0.9920    3.0960 H   0  0  0  0  0  0  0  0  0  0  0  0
    1.4330    1.5130    1.4810 H   0  0  0  0  0  0  0  0  0  0  0  0
   -0.8920    2.3660    4.4300 H   0  0  0  0  0  0  0  0  0  0  0  0
   -2.0330    4.7100    4.0100 H   0  0  0  0  0  0  0  0  0  0  0  0
   -1.5260    5.4290    1.5620 H   0  0  0  0  0  0  0  0  0  0  0  0
   -0.8420    0.7170   -4.5330 C   0  0  0  0  0  0  0  0  0  0  0  0
   -0.1540    0.4730   -3.2050 C   0  0  1  0  0  0  0  0  0  0  0  0
    0.5070    1.6080   -2.8030 O   0  0  0  0  0  0  0  0  0  0  0  0
   -1.2100    0.0700   -2.1930 C   0  0  2  0  0  0  0  0  0  0  0  0
   -0.6370   -0.1960   -0.8960 N   0  0  0  0  0  0  0  0  0  0  0  0
   -2.0050   -1.0830   -2.6900 C   0  0  0  0  0  0  0  0  0  0  0  0
   -2.1190   -2.1460   -2.0020 O   0  0  0  0  0  0  0  0  0  0  0  0
   -2.6600   -1.0740   -3.9100 O   0  0  0  0  0  0  0  0  0  0  0  0
   -0.2380    1.4530   -5.1020 H   0  0  0  0  0  0  0  0  0  0  0  0
   -0.9000   -0.1870   -5.1620 H   0  0  0  0  0  0  0  0  0  0  0  0
   -1.8970    1.0820   -4.3930 H   0  0  0  0  0  0  0  0  0  0  0  0
    0.5360   -0.3970   -3.3760 H   0  0  0  0  0  0  0  0  0  0  0  0
    0.3640    2.3230   -3.4690 H   0  0  0  0  0  0  0  0  0  0  0  0
   -1.9070    0.9280   -2.1050 H   0  0  0  0  0  0  0  0  0  0  0  0
    0.0470   -0.9930   -0.8360 H   0  0  0  0  0  0  0  0  0  0  0  0
  1  2  1  0  0  0  0
  1 10  1  0  0  0  0
  2 11  1  0  0  0  0
  2  3  1  0  0  0  0
  3 12  1  0  0  0  0
  3 14  1  0  0  0  0
  4 15  1  6  0  0  0
  4  6  1  0  0  0  0
  4  2  1  0  0  0  0
  5 16  1  0  0  0  0
  5  4  1  0  0  0  0
  6  7  2  0  0  0  0
  8  1  1  0  0  0  0
  9  1  1  0  0  0  0
 13  3  1  0  0  0  0
 17  5  1  0  0  0  0
 18 19  1  0  0  0  0
 18  6  1  0  0  0  0
 19 20  1  0  0  0  0
 19 29  1  1  0  0  0
 20 21  1  0  0  0  0
 20 30  1  0  0  0  0
 21 22  2  0  0  0  0
 22 32  1  0  0  0  0
 23 22  1  0  0  0  0
 23 33  1  0  0  0  0
 24 23  1  0  0  0  0
 25 24  2  0  0  0  0
 25 21  1  0  0  0  0
 26 19  1  0  0  0  0
 27 26  2  0  0  0  0
 28 18  1  0  0  0  0
 31 20  1  0  0  0  0
 34 24  1  0  0  0  0
 35 45  1  0  0  0  0
 35 36  1  0  0  0  0
 36 46  1  6  0  0  0
 36 37  1  0  0  0  0
 36 38  1  0  0  0  0
 38 48  1  1  0  0  0
 38 39  1  0  0  0  0
 39 49  1  0  0  0  0
 39 26  1  0  0  0  0
 40 38  1  0  0  0  0
 40 41  1  0  0  0  0
 42 40  2  0  0  0  0
 43 35  1  0  0  0  0
 44 35  1  0  0  0  0
 47 37  1  0  0  0  0
M  END
$$$$
