VHY.pdb
 OpenBabel07022419263D

 56 57  0  0  1  0  0  0  0  0999 V2000
    1.0970   -0.7790    5.2330 C   0  0  0  0  0  0  0  0  0  0  0  0
    2.2770    0.0690    4.8180 C   0  0  0  0  0  0  0  0  0  0  0  0
    3.4180   -0.8120    4.4240 C   0  0  0  0  0  0  0  0  0  0  0  0
    1.9140    1.0620    3.7400 C   0  0  2  0  0  0  0  0  0  0  0  0
    0.8870    1.9490    4.1980 N   0  0  0  0  0  0  0  0  0  0  0  0
    1.5130    0.4220    2.4780 C   0  0  0  0  0  0  0  0  0  0  0  0
    2.2640   -0.3970    1.8930 O   0  0  0  0  0  0  0  0  0  0  0  0
    0.6860   -1.3610    4.4090 H   0  0  0  0  0  0  0  0  0  0  0  0
    0.3780   -0.1060    5.7370 H   0  0  0  0  0  0  0  0  0  0  0  0
    1.4770   -1.4910    6.0010 H   0  0  0  0  0  0  0  0  0  0  0  0
    2.5760    0.6580    5.7080 H   0  0  0  0  0  0  0  0  0  0  0  0
    3.9850   -1.2000    5.2940 H   0  0  0  0  0  0  0  0  0  0  0  0
    3.0680   -1.7140    3.8490 H   0  0  0  0  0  0  0  0  0  0  0  0
    4.1620   -0.2310    3.8220 H   0  0  0  0  0  0  0  0  0  0  0  0
    2.8250    1.6750    3.5540 H   0  0  0  0  0  0  0  0  0  0  0  0
    0.0230    1.4250    4.4040 H   0  0  0  0  0  0  0  0  0  0  0  0
    0.7850    2.7560    3.5730 H   0  0  0  0  0  0  0  0  0  0  0  0
    0.2480    0.7280    1.8930 N   0  0  0  0  0  0  0  0  0  0  0  0
   -0.1220    0.0900    0.6560 C   0  0  1  0  0  0  0  0  0  0  0  0
    0.8280    0.6300   -0.4240 C   0  0  0  0  0  0  0  0  0  0  0  0
    0.6130    2.0950   -0.4550 C   0  0  0  0  0  0  0  0  0  0  0  0
   -0.2900    2.8040   -1.2240 C   0  0  0  0  0  0  0  0  0  0  0  0
   -0.1880    4.1120   -0.9740 N   0  0  0  0  0  0  0  0  0  0  0  0
    0.7670    4.2620   -0.0550 C   0  0  0  0  0  0  0  0  0  0  0  0
    1.2590    3.0270    0.2640 N   0  0  0  0  0  0  0  0  0  0  0  0
   -0.1310   -1.3660    0.7190 C   0  0  0  0  0  0  0  0  0  0  0  0
    0.1630   -1.9820    1.7720 O   0  0  0  0  0  0  0  0  0  0  0  0
   -0.4100    1.4200    2.3710 H   0  0  0  0  0  0  0  0  0  0  0  0
   -1.1200    0.5280    0.3470 H   0  0  0  0  0  0  0  0  0  0  0  0
    1.8610    0.3320   -0.2670 H   0  0  0  0  0  0  0  0  0  0  0  0
    0.4550    0.2340   -1.4090 H   0  0  0  0  0  0  0  0  0  0  0  0
   -0.9680    2.3200   -1.9200 H   0  0  0  0  0  0  0  0  0  0  0  0
   -0.7410    4.8580   -1.4070 H   0  0  0  0  0  0  0  0  0  0  0  0
    1.1080    5.2100    0.3790 H   0  0  0  0  0  0  0  0  0  0  0  0
   -3.7840   -1.8960   -5.6160 O   0  0  0  0  0  0  0  0  0  0  0  0
   -3.3350   -2.4040   -4.3840 C   0  0  0  0  0  0  0  0  0  0  0  0
   -3.4570   -1.6800   -3.2200 C   0  0  0  0  0  0  0  0  0  0  0  0
   -3.0040   -2.2130   -2.0320 C   0  0  0  0  0  0  0  0  0  0  0  0
   -2.4210   -3.4730   -1.9670 C   0  0  0  0  0  0  0  0  0  0  0  0
   -1.9540   -3.9890   -0.6590 C   0  0  0  0  0  0  0  0  0  0  0  0
   -0.4970   -3.5960   -0.4050 C   0  0  2  0  0  0  0  0  0  0  0  0
   -0.4750   -2.1350   -0.4230 N   0  0  0  0  0  0  0  0  0  0  0  0
    0.3880   -4.1430   -1.4520 C   0  0  0  0  0  0  0  0  0  0  0  0
    0.4850   -5.3810   -1.5740 O   0  0  0  0  0  0  0  0  0  0  0  0
   -2.3130   -4.1730   -3.1480 C   0  0  0  0  0  0  0  0  0  0  0  0
   -2.7650   -3.6500   -4.3580 C   0  0  0  0  0  0  0  0  0  0  0  0
    1.1280   -3.3350   -2.3210 O   0  0  0  0  0  0  0  0  0  0  0  0
   -4.7130   -2.1360   -5.9140 H   0  0  0  0  0  0  0  0  0  0  0  0
   -3.9040   -0.7040   -3.2490 H   0  0  0  0  0  0  0  0  0  0  0  0
   -3.1100   -1.6190   -1.1120 H   0  0  0  0  0  0  0  0  0  0  0  0
   -2.5590   -3.5090    0.1330 H   0  0  0  0  0  0  0  0  0  0  0  0
   -2.1040   -5.0720   -0.6080 H   0  0  0  0  0  0  0  0  0  0  0  0
   -0.2180   -3.9730    0.5820 H   0  0  0  0  0  0  0  0  0  0  0  0
   -0.7160   -1.6210   -1.2890 H   0  0  0  0  0  0  0  0  0  0  0  0
   -1.8600   -5.1640   -3.1320 H   0  0  0  0  0  0  0  0  0  0  0  0
   -2.6740   -4.2140   -5.2860 H   0  0  0  0  0  0  0  0  0  0  0  0
  1  9  1  0  0  0  0
  1 10  1  0  0  0  0
  2  1  1  0  0  0  0
  2 11  1  0  0  0  0
  3  2  1  0  0  0  0
  3 12  1  0  0  0  0
  4 15  1  6  0  0  0
  4  5  1  0  0  0  0
  4  2  1  0  0  0  0
  5 16  1  0  0  0  0
  6  4  1  0  0  0  0
  7  6  2  0  0  0  0
  8  1  1  0  0  0  0
 13  3  1  0  0  0  0
 14  3  1  0  0  0  0
 17  5  1  0  0  0  0
 18 28  1  0  0  0  0
 18  6  1  0  0  0  0
 19 29  1  6  0  0  0
 19 26  1  0  0  0  0
 19 18  1  0  0  0  0
 20 30  1  0  0  0  0
 20 19  1  0  0  0  0
 21 20  1  0  0  0  0
 21 25  1  0  0  0  0
 22 23  1  0  0  0  0
 22 21  2  0  0  0  0
 23 24  1  0  0  0  0
 24 25  2  0  0  0  0
 24 34  1  0  0  0  0
 26 27  2  0  0  0  0
 31 20  1  0  0  0  0
 32 22  1  0  0  0  0
 33 23  1  0  0  0  0
 35 36  1  0  0  0  0
 36 46  2  0  0  0  0
 36 37  1  0  0  0  0
 37 38  2  0  0  0  0
 38 39  1  0  0  0  0
 38 50  1  0  0  0  0
 39 40  1  0  0  0  0
 40 52  1  0  0  0  0
 40 41  1  0  0  0  0
 40 51  1  0  0  0  0
 41 53  1  1  0  0  0
 42 41  1  0  0  0  0
 42 26  1  0  0  0  0
 43 41  1  0  0  0  0
 44 43  1  0  0  0  0
 45 55  1  0  0  0  0
 45 39  2  0  0  0  0
 46 45  1  0  0  0  0
 47 43  2  0  0  0  0
 48 35  1  0  0  0  0
 49 37  1  0  0  0  0
 54 42  1  0  0  0  0
 56 46  1  0  0  0  0
M  END
$$$$
