VIA.pdb
 OpenBabel07022419263D

 47 46  0  0  1  0  0  0  0  0999 V2000
    0.7530   -4.9120    2.2710 C   0  0  0  0  0  0  0  0  0  0  0  0
   -0.6280   -4.3730    1.9830 C   0  0  0  0  0  0  0  0  0  0  0  0
   -1.0190   -4.6830    0.5650 C   0  0  0  0  0  0  0  0  0  0  0  0
   -0.7080   -2.8920    2.2880 C   0  0  2  0  0  0  0  0  0  0  0  0
   -2.0380   -2.3840    2.0070 N   0  0  0  0  0  0  0  0  0  0  0  0
    0.2670   -2.1010    1.5020 C   0  0  0  0  0  0  0  0  0  0  0  0
    1.5010   -2.3370    1.5670 O   0  0  0  0  0  0  0  0  0  0  0  0
    0.7380   -5.9590    2.6470 H   0  0  0  0  0  0  0  0  0  0  0  0
    1.2880   -4.3080    3.0290 H   0  0  0  0  0  0  0  0  0  0  0  0
    1.3790   -4.9090    1.3600 H   0  0  0  0  0  0  0  0  0  0  0  0
   -1.3430   -4.8730    2.6720 H   0  0  0  0  0  0  0  0  0  0  0  0
   -2.1040   -4.6080    0.4760 H   0  0  0  0  0  0  0  0  0  0  0  0
   -0.4710   -3.9670   -0.1030 H   0  0  0  0  0  0  0  0  0  0  0  0
   -0.6490   -5.7290    0.3610 H   0  0  0  0  0  0  0  0  0  0  0  0
   -0.5330   -2.7800    3.3700 H   0  0  0  0  0  0  0  0  0  0  0  0
   -2.0440   -1.3720    2.2650 H   0  0  0  0  0  0  0  0  0  0  0  0
   -2.1970   -2.4390    0.9620 H   0  0  0  0  0  0  0  0  0  0  0  0
    1.3680    2.0070   -2.4900 C   0  0  0  0  0  0  0  0  0  0  0  0
    1.6350    0.5500   -2.3930 C   0  0  0  0  0  0  0  0  0  0  0  0
    0.7100   -0.2670   -1.5600 C   0  0  2  0  0  0  0  0  0  0  0  0
   -0.7110   -0.0900   -2.0790 C   0  0  0  0  0  0  0  0  0  0  0  0
    0.8550   -0.2560   -0.1430 C   0  0  2  0  0  0  0  0  0  0  0  0
   -0.0670   -1.0500    0.6390 N   0  0  0  0  0  0  0  0  0  0  0  0
    0.8900    1.0630    0.4950 C   0  0  0  0  0  0  0  0  0  0  0  0
    1.6810    2.0020    0.2280 O   0  0  0  0  0  0  0  0  0  0  0  0
    2.2310    2.6660   -2.2790 H   0  0  0  0  0  0  0  0  0  0  0  0
    0.4010    2.3500   -2.0600 H   0  0  0  0  0  0  0  0  0  0  0  0
    1.1950    2.2110   -3.6100 H   0  0  0  0  0  0  0  0  0  0  0  0
    2.6790    0.4700   -1.9300 H   0  0  0  0  0  0  0  0  0  0  0  0
    1.8010    0.1250   -3.4120 H   0  0  0  0  0  0  0  0  0  0  0  0
    0.8940   -1.3400   -2.0040 H   0  0  0  0  0  0  0  0  0  0  0  0
   -1.3110   -0.8900   -1.5960 H   0  0  0  0  0  0  0  0  0  0  0  0
   -0.7650   -0.2670   -3.1740 H   0  0  0  0  0  0  0  0  0  0  0  0
   -1.0980    0.9230   -1.8880 H   0  0  0  0  0  0  0  0  0  0  0  0
    1.8690   -0.7050    0.1250 H   0  0  0  0  0  0  0  0  0  0  0  0
   -1.0700   -0.7820    0.5210 H   0  0  0  0  0  0  0  0  0  0  0  0
   -1.3240    3.4460    2.0490 C   0  0  0  0  0  0  0  0  0  0  0  0
   -0.0330    2.6920    2.1910 C   0  0  2  0  0  0  0  0  0  0  0  0
   -0.0440    1.4170    1.5530 N   0  0  0  0  0  0  0  0  0  0  0  0
    0.3300    2.4700    3.6150 C   0  0  0  0  0  0  0  0  0  0  0  0
    0.3950    3.4790    4.3590 O   0  0  0  0  0  0  0  0  0  0  0  0
    0.5990    1.2280    4.1660 O   0  0  0  0  0  0  0  0  0  0  0  0
   -1.1910    4.2800    1.3570 H   0  0  0  0  0  0  0  0  0  0  0  0
   -2.1790    2.7870    1.7880 H   0  0  0  0  0  0  0  0  0  0  0  0
   -1.5640    3.8710    3.0480 H   0  0  0  0  0  0  0  0  0  0  0  0
    0.7760    3.3130    1.7480 H   0  0  0  0  0  0  0  0  0  0  0  0
   -0.7510    0.7170    1.8620 H   0  0  0  0  0  0  0  0  0  0  0  0
  1  8  1  0  0  0  0
  1  9  1  0  0  0  0
  2  1  1  0  0  0  0
  2  4  1  0  0  0  0
  2 11  1  0  0  0  0
  3  2  1  0  0  0  0
  4 15  1  1  0  0  0
  5 16  1  0  0  0  0
  5  4  1  0  0  0  0
  6  7  2  0  0  0  0
  6  4  1  0  0  0  0
 10  1  1  0  0  0  0
 12  3  1  0  0  0  0
 13  3  1  0  0  0  0
 14  3  1  0  0  0  0
 17  5  1  0  0  0  0
 18 19  1  0  0  0  0
 18 26  1  0  0  0  0
 18 27  1  0  0  0  0
 19 29  1  0  0  0  0
 19 20  1  0  0  0  0
 20 31  1  6  0  0  0
 20 22  1  0  0  0  0
 21 34  1  0  0  0  0
 21 32  1  0  0  0  0
 21 20  1  0  0  0  0
 22 35  1  1  0  0  0
 22 24  1  0  0  0  0
 22 23  1  0  0  0  0
 23  6  1  0  0  0  0
 24 39  1  0  0  0  0
 25 24  2  0  0  0  0
 28 18  1  0  0  0  0
 30 19  1  0  0  0  0
 33 21  1  0  0  0  0
 36 23  1  0  0  0  0
 37 38  1  0  0  0  0
 37 45  1  0  0  0  0
 38 46  1  6  0  0  0
 38 40  1  0  0  0  0
 39 47  1  0  0  0  0
 39 38  1  0  0  0  0
 40 42  2  0  0  0  0
 40 41  1  0  0  0  0
 43 37  1  0  0  0  0
 44 37  1  0  0  0  0
M  END
$$$$
