VIC.pdb
 OpenBabel07022419263D

 48 47  0  0  1  0  0  0  0  0999 V2000
   -1.3770   -3.1520    0.0020 C   0  0  0  0  0  0  0  0  0  0  0  0
   -0.1500   -3.9120   -0.3910 C   0  0  0  0  0  0  0  0  0  0  0  0
    0.2590   -4.8290    0.7440 C   0  0  0  0  0  0  0  0  0  0  0  0
    0.9960   -3.0930   -0.9010 C   0  0  2  0  0  0  0  0  0  0  0  0
    2.0770   -4.0490   -1.2310 N   0  0  0  0  0  0  0  0  0  0  0  0
    1.5160   -2.0900    0.0570 C   0  0  0  0  0  0  0  0  0  0  0  0
    2.5670   -2.3310    0.7170 O   0  0  0  0  0  0  0  0  0  0  0  0
   -1.5730   -2.2710   -0.6330 H   0  0  0  0  0  0  0  0  0  0  0  0
   -1.3690   -2.9020    1.1030 H   0  0  0  0  0  0  0  0  0  0  0  0
   -2.3000   -3.8080   -0.1250 H   0  0  0  0  0  0  0  0  0  0  0  0
   -0.4380   -4.6110   -1.2330 H   0  0  0  0  0  0  0  0  0  0  0  0
    1.2780   -5.1920    0.5620 H   0  0  0  0  0  0  0  0  0  0  0  0
   -0.4180   -5.7190    0.7310 H   0  0  0  0  0  0  0  0  0  0  0  0
    0.1180   -4.3590    1.7340 H   0  0  0  0  0  0  0  0  0  0  0  0
    0.6730   -2.5600   -1.8100 H   0  0  0  0  0  0  0  0  0  0  0  0
    1.6290   -4.7320   -1.8830 H   0  0  0  0  0  0  0  0  0  0  0  0
    2.8440   -3.5290   -1.6870 H   0  0  0  0  0  0  0  0  0  0  0  0
    1.3430    3.4100   -0.7980 C   0  0  0  0  0  0  0  0  0  0  0  0
    0.8660    2.0660   -0.2910 C   0  0  0  0  0  0  0  0  0  0  0  0
    1.9500    1.3770    0.5310 C   0  0  2  0  0  0  0  0  0  0  0  0
    3.1930    1.1380   -0.2700 C   0  0  0  0  0  0  0  0  0  0  0  0
    1.4120    0.1380    1.2110 C   0  0  2  0  0  0  0  0  0  0  0  0
    0.9070   -0.8450    0.2870 N   0  0  0  0  0  0  0  0  0  0  0  0
    0.3220    0.5780    2.0990 C   0  0  0  0  0  0  0  0  0  0  0  0
    0.5600    1.4250    3.0390 O   0  0  0  0  0  0  0  0  0  0  0  0
    0.8180    3.7470   -1.6890 H   0  0  0  0  0  0  0  0  0  0  0  0
    1.1420    4.1450    0.0250 H   0  0  0  0  0  0  0  0  0  0  0  0
    2.4560    3.4080   -0.9160 H   0  0  0  0  0  0  0  0  0  0  0  0
    0.7230    1.4180   -1.1930 H   0  0  0  0  0  0  0  0  0  0  0  0
   -0.0470    2.2280    0.2780 H   0  0  0  0  0  0  0  0  0  0  0  0
    2.2190    2.0910    1.3370 H   0  0  0  0  0  0  0  0  0  0  0  0
    3.9790    1.9280   -0.0870 H   0  0  0  0  0  0  0  0  0  0  0  0
    3.0160    1.1870   -1.3690 H   0  0  0  0  0  0  0  0  0  0  0  0
    3.7080    0.1790    0.0190 H   0  0  0  0  0  0  0  0  0  0  0  0
    2.2480   -0.2800    1.8060 H   0  0  0  0  0  0  0  0  0  0  0  0
    0.0470   -0.6160   -0.2480 H   0  0  0  0  0  0  0  0  0  0  0  0
   -1.0180    0.1250    1.9950 N   0  0  0  0  0  0  0  0  0  0  0  0
   -2.0540    0.6020    2.9100 C   0  0  1  0  0  0  0  0  0  0  0  0
   -3.1160    1.3130    2.1000 C   0  0  0  0  0  0  0  0  0  0  0  0
   -3.8760    0.2300    0.8820 S   0  0  0  0  0  0  0  0  0  0  0  0
   -2.6210   -0.5410    3.6290 C   0  0  0  0  0  0  0  0  0  0  0  0
   -2.2090   -1.7080    3.4220 O   0  0  0  0  0  0  0  0  0  0  0  0
   -3.6320   -0.3020    4.5510 O   0  0  0  0  0  0  0  0  0  0  0  0
   -1.2870   -0.5550    1.2560 H   0  0  0  0  0  0  0  0  0  0  0  0
   -1.5730    1.3240    3.5870 H   0  0  0  0  0  0  0  0  0  0  0  0
   -3.9130    1.6410    2.8030 H   0  0  0  0  0  0  0  0  0  0  0  0
   -2.6850    2.1790    1.5680 H   0  0  0  0  0  0  0  0  0  0  0  0
   -4.5620    1.0490   -0.0580 H   0  0  0  0  0  0  0  0  0  0  0  0
  1  9  1  0  0  0  0
  2  1  1  0  0  0  0
  2  3  1  0  0  0  0
  3 14  1  0  0  0  0
  4 15  1  6  0  0  0
  4  2  1  0  0  0  0
  4  6  1  0  0  0  0
  5  4  1  0  0  0  0
  6 23  1  0  0  0  0
  6  7  2  0  0  0  0
  8  1  1  0  0  0  0
 10  1  1  0  0  0  0
 11  2  1  0  0  0  0
 12  3  1  0  0  0  0
 13  3  1  0  0  0  0
 16  5  1  0  0  0  0
 17  5  1  0  0  0  0
 18 19  1  0  0  0  0
 18 27  1  0  0  0  0
 19 30  1  0  0  0  0
 19 20  1  0  0  0  0
 20 22  1  0  0  0  0
 20 31  1  1  0  0  0
 21 32  1  0  0  0  0
 21 34  1  0  0  0  0
 21 20  1  0  0  0  0
 22 35  1  1  0  0  0
 22 24  1  0  0  0  0
 23 22  1  0  0  0  0
 24 25  2  0  0  0  0
 26 18  1  0  0  0  0
 28 18  1  0  0  0  0
 29 19  1  0  0  0  0
 33 21  1  0  0  0  0
 36 23  1  0  0  0  0
 37 24  1  0  0  0  0
 37 38  1  0  0  0  0
 38 45  1  1  0  0  0
 38 41  1  0  0  0  0
 39 46  1  0  0  0  0
 39 38  1  0  0  0  0
 40 39  1  0  0  0  0
 41 43  1  0  0  0  0
 42 41  2  0  0  0  0
 44 37  1  0  0  0  0
 47 39  1  0  0  0  0
 48 40  1  0  0  0  0
M  END
$$$$
