VID.pdb
 OpenBabel07022419263D

 50 49  0  0  1  0  0  0  0  0999 V2000
    1.8420   -3.3110   -1.6640 C   0  0  0  0  0  0  0  0  0  0  0  0
    0.8290   -4.1480   -0.9500 C   0  0  0  0  0  0  0  0  0  0  0  0
    0.2190   -5.1740   -1.8780 C   0  0  0  0  0  0  0  0  0  0  0  0
   -0.2510   -3.2640   -0.3290 C   0  0  2  0  0  0  0  0  0  0  0  0
   -0.9490   -2.4840   -1.3210 N   0  0  0  0  0  0  0  0  0  0  0  0
    0.4100   -2.4140    0.6930 C   0  0  0  0  0  0  0  0  0  0  0  0
    1.1060   -2.9640    1.5880 O   0  0  0  0  0  0  0  0  0  0  0  0
    2.7510   -3.9450   -1.7970 H   0  0  0  0  0  0  0  0  0  0  0  0
    1.4590   -3.0100   -2.6550 H   0  0  0  0  0  0  0  0  0  0  0  0
    2.0480   -2.4230   -1.0410 H   0  0  0  0  0  0  0  0  0  0  0  0
    1.3620   -4.7240   -0.1440 H   0  0  0  0  0  0  0  0  0  0  0  0
    0.7850   -6.1230   -1.7800 H   0  0  0  0  0  0  0  0  0  0  0  0
   -0.8360   -5.3990   -1.5970 H   0  0  0  0  0  0  0  0  0  0  0  0
    0.2950   -4.8610   -2.9450 H   0  0  0  0  0  0  0  0  0  0  0  0
   -0.9910   -3.9640    0.1180 H   0  0  0  0  0  0  0  0  0  0  0  0
   -0.3400   -2.2080   -2.1270 H   0  0  0  0  0  0  0  0  0  0  0  0
   -1.7800   -2.9990   -1.7180 H   0  0  0  0  0  0  0  0  0  0  0  0
    3.5130    1.7520   -0.3830 C   0  0  0  0  0  0  0  0  0  0  0  0
    2.8270    0.5010    0.1720 C   0  0  0  0  0  0  0  0  0  0  0  0
    1.7100    0.9670    1.0610 C   0  0  2  0  0  0  0  0  0  0  0  0
    2.3390    1.8020    2.1680 C   0  0  0  0  0  0  0  0  0  0  0  0
    0.9240   -0.1330    1.6970 C   0  0  2  0  0  0  0  0  0  0  0  0
    0.2960   -1.0040    0.7160 N   0  0  0  0  0  0  0  0  0  0  0  0
   -0.2160    0.5040    2.4640 C   0  0  0  0  0  0  0  0  0  0  0  0
   -0.0120    1.3380    3.3910 O   0  0  0  0  0  0  0  0  0  0  0  0
    4.5640    1.8120   -0.0070 H   0  0  0  0  0  0  0  0  0  0  0  0
    2.9920    2.6820   -0.0770 H   0  0  0  0  0  0  0  0  0  0  0  0
    3.5020    1.6980   -1.4950 H   0  0  0  0  0  0  0  0  0  0  0  0
    3.5240   -0.0840    0.7980 H   0  0  0  0  0  0  0  0  0  0  0  0
    2.4310   -0.1200   -0.6650 H   0  0  0  0  0  0  0  0  0  0  0  0
    0.9790    1.6260    0.5190 H   0  0  0  0  0  0  0  0  0  0  0  0
    3.3220    2.2240    1.8790 H   0  0  0  0  0  0  0  0  0  0  0  0
    2.5250    1.1760    3.0580 H   0  0  0  0  0  0  0  0  0  0  0  0
    1.6930    2.6470    2.4790 H   0  0  0  0  0  0  0  0  0  0  0  0
    1.5440   -0.7410    2.3680 H   0  0  0  0  0  0  0  0  0  0  0  0
   -0.3060   -0.5920   -0.0620 H   0  0  0  0  0  0  0  0  0  0  0  0
   -1.5630    0.1850    2.1660 N   0  0  0  0  0  0  0  0  0  0  0  0
   -2.6960    0.7650    2.8680 C   0  0  1  0  0  0  0  0  0  0  0  0
   -3.4920    1.5320    1.7970 C   0  0  0  0  0  0  0  0  0  0  0  0
   -2.6340    2.5900    1.2140 C   0  0  0  0  0  0  0  0  0  0  0  0
   -2.0320    3.4150    1.9810 O   0  0  0  0  0  0  0  0  0  0  0  0
   -3.5100   -0.3250    3.4210 C   0  0  0  0  0  0  0  0  0  0  0  0
   -4.5640   -0.0460    4.0780 O   0  0  0  0  0  0  0  0  0  0  0  0
   -2.4600    2.7140   -0.1460 O   0  0  0  0  0  0  0  0  0  0  0  0
   -3.1390   -1.6360    3.2340 O   0  0  0  0  0  0  0  0  0  0  0  0
   -1.7380   -0.5190    1.3820 H   0  0  0  0  0  0  0  0  0  0  0  0
   -2.3830    1.4960    3.6140 H   0  0  0  0  0  0  0  0  0  0  0  0
   -3.8050    0.8550    0.9820 H   0  0  0  0  0  0  0  0  0  0  0  0
   -4.3720    2.0170    2.2910 H   0  0  0  0  0  0  0  0  0  0  0  0
   -2.0630    3.5370   -0.6060 H   0  0  0  0  0  0  0  0  0  0  0  0
  1 10  1  0  0  0  0
  1  2  1  0  0  0  0
  2  4  1  0  0  0  0
  2 11  1  0  0  0  0
  3 12  1  0  0  0  0
  3 13  1  0  0  0  0
  3  2  1  0  0  0  0
  4 15  1  1  0  0  0
  4  6  1  0  0  0  0
  5  4  1  0  0  0  0
  6 23  1  0  0  0  0
  6  7  2  0  0  0  0
  8  1  1  0  0  0  0
  9  1  1  0  0  0  0
 14  3  1  0  0  0  0
 16  5  1  0  0  0  0
 17  5  1  0  0  0  0
 18 27  1  0  0  0  0
 18 26  1  0  0  0  0
 18 19  1  0  0  0  0
 19 29  1  0  0  0  0
 19 20  1  0  0  0  0
 20 31  1  6  0  0  0
 20 22  1  0  0  0  0
 20 21  1  0  0  0  0
 21 34  1  0  0  0  0
 21 33  1  0  0  0  0
 22 35  1  1  0  0  0
 22 24  1  0  0  0  0
 23 22  1  0  0  0  0
 24 25  2  0  0  0  0
 28 18  1  0  0  0  0
 30 19  1  0  0  0  0
 32 21  1  0  0  0  0
 36 23  1  0  0  0  0
 37 24  1  0  0  0  0
 37 38  1  0  0  0  0
 38 42  1  0  0  0  0
 38 47  1  1  0  0  0
 39 49  1  0  0  0  0
 39 38  1  0  0  0  0
 40 39  1  0  0  0  0
 40 41  2  0  0  0  0
 42 43  1  0  0  0  0
 44 40  1  0  0  0  0
 45 42  2  0  0  0  0
 46 37  1  0  0  0  0
 48 39  1  0  0  0  0
 50 44  1  0  0  0  0
M  END
$$$$
