VIE.pdb
 OpenBabel07022419263D

 53 52  0  0  1  0  0  0  0  0999 V2000
   -0.3880   -3.7160    4.0350 C   0  0  0  0  0  0  0  0  0  0  0  0
   -0.0860   -2.2870    3.5080 C   0  0  0  0  0  0  0  0  0  0  0  0
   -1.3850   -1.5370    3.7710 C   0  0  0  0  0  0  0  0  0  0  0  0
    0.2140   -2.4640    2.0470 C   0  0  2  0  0  0  0  0  0  0  0  0
    1.3650   -3.4120    2.0150 N   0  0  0  0  0  0  0  0  0  0  0  0
    0.6230   -1.2530    1.3240 C   0  0  0  0  0  0  0  0  0  0  0  0
    1.7590   -1.2510    0.7600 O   0  0  0  0  0  0  0  0  0  0  0  0
   -1.3610   -3.9940    3.5740 H   0  0  0  0  0  0  0  0  0  0  0  0
    0.3850   -4.4200    3.7130 H   0  0  0  0  0  0  0  0  0  0  0  0
   -0.5270   -3.6320    5.1230 H   0  0  0  0  0  0  0  0  0  0  0  0
    0.7060   -1.8380    4.1030 H   0  0  0  0  0  0  0  0  0  0  0  0
   -1.8260   -1.9830    4.7090 H   0  0  0  0  0  0  0  0  0  0  0  0
   -2.1630   -1.7650    2.9930 H   0  0  0  0  0  0  0  0  0  0  0  0
   -1.2640   -0.4830    3.9850 H   0  0  0  0  0  0  0  0  0  0  0  0
   -0.6240   -3.0140    1.5860 H   0  0  0  0  0  0  0  0  0  0  0  0
    1.9900   -3.1660    2.8380 H   0  0  0  0  0  0  0  0  0  0  0  0
    1.9210   -3.2350    1.1610 H   0  0  0  0  0  0  0  0  0  0  0  0
    1.6160    1.0880    3.2170 C   0  0  0  0  0  0  0  0  0  0  0  0
    1.7860    2.1350    2.1870 C   0  0  0  0  0  0  0  0  0  0  0  0
    1.6510    1.6450    0.7900 C   0  0  2  0  0  0  0  0  0  0  0  0
    1.8980    2.8520   -0.1280 C   0  0  0  0  0  0  0  0  0  0  0  0
    0.3030    1.0980    0.4770 C   0  0  2  0  0  0  0  0  0  0  0  0
   -0.1420   -0.0640    1.1960 N   0  0  0  0  0  0  0  0  0  0  0  0
    0.0080    0.9890   -0.9670 C   0  0  0  0  0  0  0  0  0  0  0  0
    0.3880    1.8690   -1.7850 O   0  0  0  0  0  0  0  0  0  0  0  0
    2.2760    0.2260    2.9880 H   0  0  0  0  0  0  0  0  0  0  0  0
    0.5670    0.7810    3.2600 H   0  0  0  0  0  0  0  0  0  0  0  0
    1.8860    1.4780    4.2540 H   0  0  0  0  0  0  0  0  0  0  0  0
    2.7520    2.7140    2.3310 H   0  0  0  0  0  0  0  0  0  0  0  0
    0.9870    2.9340    2.3380 H   0  0  0  0  0  0  0  0  0  0  0  0
    2.4810    0.9460    0.5780 H   0  0  0  0  0  0  0  0  0  0  0  0
    2.4270    2.5730   -1.0480 H   0  0  0  0  0  0  0  0  0  0  0  0
    2.6300    3.5120    0.4280 H   0  0  0  0  0  0  0  0  0  0  0  0
    1.0030    3.4750   -0.2500 H   0  0  0  0  0  0  0  0  0  0  0  0
   -0.3950    1.9500    0.8800 H   0  0  0  0  0  0  0  0  0  0  0  0
   -1.0820   -0.1020    1.6730 H   0  0  0  0  0  0  0  0  0  0  0  0
   -0.7320   -0.1490   -1.4570 N   0  0  0  0  0  0  0  0  0  0  0  0
   -1.0000   -0.2510   -2.8750 C   0  0  1  0  0  0  0  0  0  0  0  0
   -0.6320   -1.5200   -3.5290 C   0  0  0  0  0  0  0  0  0  0  0  0
   -1.2700   -2.7710   -3.0970 C   0  0  0  0  0  0  0  0  0  0  0  0
   -1.1050   -3.2080   -1.7210 C   0  0  0  0  0  0  0  0  0  0  0  0
   -0.0040   -3.2560   -1.1220 O   0  0  0  0  0  0  0  0  0  0  0  0
   -2.4100    0.1630   -3.1370 C   0  0  0  0  0  0  0  0  0  0  0  0
   -3.0980    0.5090   -2.1490 O   0  0  0  0  0  0  0  0  0  0  0  0
   -2.2210   -3.6140   -0.9560 O   0  0  0  0  0  0  0  0  0  0  0  0
   -2.9860    0.1860   -4.3730 O   0  0  0  0  0  0  0  0  0  0  0  0
   -1.0350   -0.8250   -0.7300 H   0  0  0  0  0  0  0  0  0  0  0  0
   -0.4010    0.5670   -3.3680 H   0  0  0  0  0  0  0  0  0  0  0  0
    0.4810   -1.6420   -3.3910 H   0  0  0  0  0  0  0  0  0  0  0  0
   -0.7760   -1.4150   -4.6240 H   0  0  0  0  0  0  0  0  0  0  0  0
   -0.7880   -3.5910   -3.7360 H   0  0  0  0  0  0  0  0  0  0  0  0
   -2.3490   -2.8650   -3.4200 H   0  0  0  0  0  0  0  0  0  0  0  0
   -2.3610   -3.2410   -0.0030 H   0  0  0  0  0  0  0  0  0  0  0  0
  1 10  1  0  0  0  0
  2  3  1  0  0  0  0
  2  1  1  0  0  0  0
  2 11  1  0  0  0  0
  3 14  1  0  0  0  0
  3 12  1  0  0  0  0
  4 15  1  6  0  0  0
  4  2  1  0  0  0  0
  5  4  1  0  0  0  0
  5 16  1  0  0  0  0
  6  4  1  0  0  0  0
  7  6  2  0  0  0  0
  8  1  1  0  0  0  0
  9  1  1  0  0  0  0
 13  3  1  0  0  0  0
 17  5  1  0  0  0  0
 18 27  1  0  0  0  0
 18 28  1  0  0  0  0
 19 29  1  0  0  0  0
 19 30  1  0  0  0  0
 19 18  1  0  0  0  0
 20 31  1  6  0  0  0
 20 19  1  0  0  0  0
 21 33  1  0  0  0  0
 21 20  1  0  0  0  0
 22 20  1  0  0  0  0
 22 35  1  1  0  0  0
 22 23  1  0  0  0  0
 23  6  1  0  0  0  0
 23 36  1  0  0  0  0
 24 22  1  0  0  0  0
 25 24  2  0  0  0  0
 26 18  1  0  0  0  0
 32 21  1  0  0  0  0
 34 21  1  0  0  0  0
 37 24  1  0  0  0  0
 37 47  1  0  0  0  0
 38 48  1  6  0  0  0
 38 37  1  0  0  0  0
 39 49  1  0  0  0  0
 39 40  1  0  0  0  0
 39 38  1  0  0  0  0
 40 41  1  0  0  0  0
 41 42  2  0  0  0  0
 41 45  1  0  0  0  0
 43 38  1  0  0  0  0
 43 44  1  0  0  0  0
 45 53  1  0  0  0  0
 46 43  2  0  0  0  0
 50 39  1  0  0  0  0
 51 40  1  0  0  0  0
 52 40  1  0  0  0  0
M  END
$$$$
