VIF.pdb
 OpenBabel07022419263D

 57 57  0  0  1  0  0  0  0  0999 V2000
   -3.4890   -2.3240   -0.1210 C   0  0  0  0  0  0  0  0  0  0  0  0
   -3.3260   -1.7490   -1.5130 C   0  0  0  0  0  0  0  0  0  0  0  0
   -4.5140   -2.0390   -2.3800 C   0  0  0  0  0  0  0  0  0  0  0  0
   -2.0250   -2.2680   -2.1020 C   0  0  2  0  0  0  0  0  0  0  0  0
   -1.9820   -3.6930   -2.2030 N   0  0  0  0  0  0  0  0  0  0  0  0
   -0.9230   -1.6990   -1.2800 C   0  0  0  0  0  0  0  0  0  0  0  0
   -0.9240   -0.4490   -1.1640 O   0  0  0  0  0  0  0  0  0  0  0  0
   -2.6230   -2.9610    0.1700 H   0  0  0  0  0  0  0  0  0  0  0  0
   -3.6410   -1.5220    0.6410 H   0  0  0  0  0  0  0  0  0  0  0  0
   -4.3960   -2.9950   -0.0930 H   0  0  0  0  0  0  0  0  0  0  0  0
   -3.1780   -0.6390   -1.3940 H   0  0  0  0  0  0  0  0  0  0  0  0
   -5.2590   -2.7070   -1.9240 H   0  0  0  0  0  0  0  0  0  0  0  0
   -4.2080   -2.4070   -3.3960 H   0  0  0  0  0  0  0  0  0  0  0  0
   -5.0500   -1.0760   -2.5860 H   0  0  0  0  0  0  0  0  0  0  0  0
   -1.9380   -1.8150   -3.1100 H   0  0  0  0  0  0  0  0  0  0  0  0
   -2.6720   -4.1240   -1.5320 H   0  0  0  0  0  0  0  0  0  0  0  0
   -2.3530   -3.9550   -3.1630 H   0  0  0  0  0  0  0  0  0  0  0  0
    1.6830   -2.1700   -2.9030 C   0  0  0  0  0  0  0  0  0  0  0  0
    2.5580   -1.6030   -1.8590 C   0  0  0  0  0  0  0  0  0  0  0  0
    1.9270   -0.9430   -0.6700 C   0  0  2  0  0  0  0  0  0  0  0  0
    3.1400   -0.4370    0.1600 C   0  0  0  0  0  0  0  0  0  0  0  0
    1.1340   -1.9010    0.1350 C   0  0  2  0  0  0  0  0  0  0  0  0
    0.0660   -2.4690   -0.6610 N   0  0  0  0  0  0  0  0  0  0  0  0
    0.5320   -1.3590    1.3760 C   0  0  0  0  0  0  0  0  0  0  0  0
   -0.7520   -1.3720    1.4250 O   0  0  0  0  0  0  0  0  0  0  0  0
    1.1780   -3.1170   -2.6710 H   0  0  0  0  0  0  0  0  0  0  0  0
    2.3050   -2.4460   -3.8330 H   0  0  0  0  0  0  0  0  0  0  0  0
    0.9650   -1.4210   -3.3420 H   0  0  0  0  0  0  0  0  0  0  0  0
    3.2720   -0.8880   -2.3840 H   0  0  0  0  0  0  0  0  0  0  0  0
    3.2740   -2.4240   -1.5300 H   0  0  0  0  0  0  0  0  0  0  0  0
    1.3390   -0.0810   -1.0130 H   0  0  0  0  0  0  0  0  0  0  0  0
    2.8750    0.4750    0.7050 H   0  0  0  0  0  0  0  0  0  0  0  0
    3.6110   -1.2480    0.7100 H   0  0  0  0  0  0  0  0  0  0  0  0
    3.9340   -0.0940   -0.5790 H   0  0  0  0  0  0  0  0  0  0  0  0
    1.8390   -2.7260    0.4420 H   0  0  0  0  0  0  0  0  0  0  0  0
   -0.0150   -3.5250   -0.7820 H   0  0  0  0  0  0  0  0  0  0  0  0
    1.1850   -0.8400    2.4930 N   0  0  0  0  0  0  0  0  0  0  0  0
    0.4220   -0.3470    3.6370 C   0  0  1  0  0  0  0  0  0  0  0  0
   -0.3470    0.8990    3.3450 C   0  0  0  0  0  0  0  0  0  0  0  0
    0.5000    2.0390    2.9280 C   0  0  0  0  0  0  0  0  0  0  0  0
    1.0230    2.9120    3.8580 C   0  0  0  0  0  0  0  0  0  0  0  0
    1.8170    3.9860    3.4450 C   0  0  0  0  0  0  0  0  0  0  0  0
    2.0840    4.1830    2.1110 C   0  0  0  0  0  0  0  0  0  0  0  0
    1.5550    3.2990    1.1730 C   0  0  0  0  0  0  0  0  0  0  0  0
    0.7620    2.2280    1.5960 C   0  0  0  0  0  0  0  0  0  0  0  0
   -0.4450   -1.4150    4.1880 C   0  0  0  0  0  0  0  0  0  0  0  0
   -1.1880   -1.1470    5.1570 O   0  0  0  0  0  0  0  0  0  0  0  0
   -0.4450   -2.6770    3.6580 O   0  0  0  0  0  0  0  0  0  0  0  0
    2.2210   -0.8150    2.5180 H   0  0  0  0  0  0  0  0  0  0  0  0
    1.1560   -0.1300    4.4680 H   0  0  0  0  0  0  0  0  0  0  0  0
   -0.9410    1.2410    4.2230 H   0  0  0  0  0  0  0  0  0  0  0  0
   -1.0930    0.7520    2.5300 H   0  0  0  0  0  0  0  0  0  0  0  0
    0.8160    2.7600    4.8980 H   0  0  0  0  0  0  0  0  0  0  0  0
    2.2110    4.6510    4.1950 H   0  0  0  0  0  0  0  0  0  0  0  0
    2.7050    5.0180    1.7630 H   0  0  0  0  0  0  0  0  0  0  0  0
    1.7810    3.4770    0.1320 H   0  0  0  0  0  0  0  0  0  0  0  0
    0.3730    1.5690    0.8320 H   0  0  0  0  0  0  0  0  0  0  0  0
  1 10  1  0  0  0  0
  1  8  1  0  0  0  0
  1  9  1  0  0  0  0
  2 11  1  0  0  0  0
  2  1  1  0  0  0  0
  3 12  1  0  0  0  0
  3  2  1  0  0  0  0
  4 15  1  6  0  0  0
  4  2  1  0  0  0  0
  4  6  1  0  0  0  0
  5  4  1  0  0  0  0
  5 16  1  0  0  0  0
  6  7  2  0  0  0  0
  6 23  1  0  0  0  0
 13  3  1  0  0  0  0
 14  3  1  0  0  0  0
 17  5  1  0  0  0  0
 18 26  1  0  0  0  0
 18 19  1  0  0  0  0
 19 30  1  0  0  0  0
 19 20  1  0  0  0  0
 20 31  1  6  0  0  0
 20 22  1  0  0  0  0
 20 21  1  0  0  0  0
 21 32  1  0  0  0  0
 21 33  1  0  0  0  0
 22 35  1  1  0  0  0
 22 24  1  0  0  0  0
 23 22  1  0  0  0  0
 24 25  2  0  0  0  0
 24 37  1  0  0  0  0
 27 18  1  0  0  0  0
 28 18  1  0  0  0  0
 29 19  1  0  0  0  0
 34 21  1  0  0  0  0
 36 23  1  0  0  0  0
 37 49  1  0  0  0  0
 37 38  1  0  0  0  0
 38 46  1  0  0  0  0
 38 50  1  1  0  0  0
 39 38  1  0  0  0  0
 39 51  1  0  0  0  0
 40 39  1  0  0  0  0
 40 41  1  0  0  0  0
 41 53  1  0  0  0  0
 42 41  2  0  0  0  0
 42 54  1  0  0  0  0
 43 42  1  0  0  0  0
 44 45  1  0  0  0  0
 44 43  2  0  0  0  0
 45 40  2  0  0  0  0
 46 47  1  0  0  0  0
 48 46  2  0  0  0  0
 52 39  1  0  0  0  0
 55 43  1  0  0  0  0
 56 44  1  0  0  0  0
 57 45  1  0  0  0  0
M  END
$$$$
