VIG.pdb
 OpenBabel07022419263D

 44 43  0  0  1  0  0  0  0  0999 V2000
    2.4250   -4.6240    1.9590 C   0  0  0  0  0  0  0  0  0  0  0  0
    2.4760   -3.1340    1.6390 C   0  0  0  0  0  0  0  0  0  0  0  0
    2.8170   -3.0270    0.1660 C   0  0  0  0  0  0  0  0  0  0  0  0
    1.0640   -2.6080    1.9040 C   0  0  2  0  0  0  0  0  0  0  0  0
    0.1710   -3.3060    1.0510 N   0  0  0  0  0  0  0  0  0  0  0  0
    1.0030   -1.1440    1.8160 C   0  0  0  0  0  0  0  0  0  0  0  0
    1.7760   -0.4790    2.5530 O   0  0  0  0  0  0  0  0  0  0  0  0
    2.5010   -4.7750    3.0530 H   0  0  0  0  0  0  0  0  0  0  0  0
    3.1920   -5.1930    1.3970 H   0  0  0  0  0  0  0  0  0  0  0  0
    1.4200   -4.9900    1.6510 H   0  0  0  0  0  0  0  0  0  0  0  0
    3.2250   -2.6580    2.2750 H   0  0  0  0  0  0  0  0  0  0  0  0
    1.9320   -3.2370   -0.4440 H   0  0  0  0  0  0  0  0  0  0  0  0
    3.3290   -2.0930   -0.0950 H   0  0  0  0  0  0  0  0  0  0  0  0
    3.5460   -3.8610   -0.0470 H   0  0  0  0  0  0  0  0  0  0  0  0
    0.8370   -2.8920    2.9590 H   0  0  0  0  0  0  0  0  0  0  0  0
   -0.7350   -3.4870    1.5450 H   0  0  0  0  0  0  0  0  0  0  0  0
   -0.0010   -2.9020    0.1280 H   0  0  0  0  0  0  0  0  0  0  0  0
    2.2430    1.6700   -2.1790 C   0  0  0  0  0  0  0  0  0  0  0  0
    1.8540    1.0840   -0.8400 C   0  0  0  0  0  0  0  0  0  0  0  0
    0.4720    1.5500   -0.4650 C   0  0  2  0  0  0  0  0  0  0  0  0
    0.4880    3.0620   -0.3840 C   0  0  0  0  0  0  0  0  0  0  0  0
    0.1220    1.0400    0.9180 C   0  0  2  0  0  0  0  0  0  0  0  0
    0.1470   -0.4080    0.9710 N   0  0  0  0  0  0  0  0  0  0  0  0
   -1.2380    1.4870    1.2650 C   0  0  0  0  0  0  0  0  0  0  0  0
   -1.5360    2.7040    1.2790 O   0  0  0  0  0  0  0  0  0  0  0  0
    1.3840    2.1040   -2.6960 H   0  0  0  0  0  0  0  0  0  0  0  0
    2.8150    0.9340   -2.7970 H   0  0  0  0  0  0  0  0  0  0  0  0
    2.9650    2.5170   -1.9980 H   0  0  0  0  0  0  0  0  0  0  0  0
    2.5910    1.3860   -0.0510 H   0  0  0  0  0  0  0  0  0  0  0  0
    1.8750   -0.0310   -0.8430 H   0  0  0  0  0  0  0  0  0  0  0  0
   -0.2440    1.2450   -1.2320 H   0  0  0  0  0  0  0  0  0  0  0  0
   -0.4550    3.5110   -0.7550 H   0  0  0  0  0  0  0  0  0  0  0  0
    1.3170    3.4960   -0.9810 H   0  0  0  0  0  0  0  0  0  0  0  0
    0.6580    3.4180    0.6640 H   0  0  0  0  0  0  0  0  0  0  0  0
    0.8890    1.4690    1.6050 H   0  0  0  0  0  0  0  0  0  0  0  0
   -0.4980   -0.9360    0.3500 H   0  0  0  0  0  0  0  0  0  0  0  0
   -2.2460    0.5520    1.5910 N   0  0  0  0  0  0  0  0  0  0  0  0
   -3.6100    0.9840    1.9390 C   0  0  0  0  0  0  0  0  0  0  0  0
   -4.4290   -0.2210    2.2290 C   0  0  0  0  0  0  0  0  0  0  0  0
   -3.9490   -1.4010    2.1630 O   0  0  0  0  0  0  0  0  0  0  0  0
   -5.7580   -0.0640    2.5820 O   0  0  0  0  0  0  0  0  0  0  0  0
   -2.0240   -0.4660    1.5890 H   0  0  0  0  0  0  0  0  0  0  0  0
   -3.5320    1.5680    2.8720 H   0  0  0  0  0  0  0  0  0  0  0  0
   -3.9990    1.5610    1.0800 H   0  0  0  0  0  0  0  0  0  0  0  0
  1  8  1  0  0  0  0
  2  4  1  0  0  0  0
  2  1  1  0  0  0  0
  2 11  1  0  0  0  0
  3  2  1  0  0  0  0
  4 15  1  1  0  0  0
  5 16  1  0  0  0  0
  5  4  1  0  0  0  0
  6  4  1  0  0  0  0
  6  7  2  0  0  0  0
  9  1  1  0  0  0  0
 10  1  1  0  0  0  0
 12  3  1  0  0  0  0
 13  3  1  0  0  0  0
 14  3  1  0  0  0  0
 17  5  1  0  0  0  0
 18 28  1  0  0  0  0
 18 19  1  0  0  0  0
 19 20  1  0  0  0  0
 19 29  1  0  0  0  0
 20 31  1  6  0  0  0
 20 21  1  0  0  0  0
 20 22  1  0  0  0  0
 21 34  1  0  0  0  0
 22 23  1  0  0  0  0
 22 24  1  0  0  0  0
 22 35  1  1  0  0  0
 23  6  1  0  0  0  0
 24 25  2  0  0  0  0
 24 37  1  0  0  0  0
 26 18  1  0  0  0  0
 27 18  1  0  0  0  0
 30 19  1  0  0  0  0
 32 21  1  0  0  0  0
 33 21  1  0  0  0  0
 36 23  1  0  0  0  0
 37 38  1  0  0  0  0
 38 39  1  0  0  0  0
 38 43  1  0  0  0  0
 39 41  1  0  0  0  0
 40 39  2  0  0  0  0
 42 37  1  0  0  0  0
 44 38  1  0  0  0  0
M  END
$$$$
