VIH.pdb
 OpenBabel07022419263D

 54 54  0  0  1  0  0  0  0  0999 V2000
    3.0230   -3.6410    0.9920 C   0  0  0  0  0  0  0  0  0  0  0  0
    3.1680   -2.8580   -0.2920 C   0  0  0  0  0  0  0  0  0  0  0  0
    2.0030   -2.9230   -1.2060 C   0  0  0  0  0  0  0  0  0  0  0  0
    3.6460   -1.4700    0.0690 C   0  0  2  0  0  0  0  0  0  0  0  0
    4.9540   -1.6960    0.7330 N   0  0  0  0  0  0  0  0  0  0  0  0
    2.7590   -0.7540    1.0110 C   0  0  0  0  0  0  0  0  0  0  0  0
    3.1050   -0.5780    2.2320 O   0  0  0  0  0  0  0  0  0  0  0  0
    2.9310   -4.7280    0.8130 H   0  0  0  0  0  0  0  0  0  0  0  0
    3.9310   -3.4350    1.5950 H   0  0  0  0  0  0  0  0  0  0  0  0
    2.0930   -3.3130    1.5140 H   0  0  0  0  0  0  0  0  0  0  0  0
    4.0160   -3.3920   -0.8390 H   0  0  0  0  0  0  0  0  0  0  0  0
    1.7760   -1.9980   -1.7710 H   0  0  0  0  0  0  0  0  0  0  0  0
    1.0930   -3.3250   -0.6720 H   0  0  0  0  0  0  0  0  0  0  0  0
    2.1470   -3.6970   -2.0290 H   0  0  0  0  0  0  0  0  0  0  0  0
    3.8150   -0.8960   -0.8380 H   0  0  0  0  0  0  0  0  0  0  0  0
    5.6550   -2.0020    0.0020 H   0  0  0  0  0  0  0  0  0  0  0  0
    5.3010   -0.7810    1.1030 H   0  0  0  0  0  0  0  0  0  0  0  0
   -1.7150    2.8050    1.9090 C   0  0  0  0  0  0  0  0  0  0  0  0
   -0.2440    2.8630    1.9620 C   0  0  0  0  0  0  0  0  0  0  0  0
    0.5450    1.9070    1.1610 C   0  0  2  0  0  0  0  0  0  0  0  0
    0.2920    1.9460   -0.3270 C   0  0  0  0  0  0  0  0  0  0  0  0
    0.6670    0.4970    1.6630 C   0  0  2  0  0  0  0  0  0  0  0  0
    1.4980   -0.2160    0.6640 N   0  0  0  0  0  0  0  0  0  0  0  0
   -0.6000   -0.2320    1.7660 C   0  0  0  0  0  0  0  0  0  0  0  0
   -1.4990    0.0550    2.6200 O   0  0  0  0  0  0  0  0  0  0  0  0
   -2.1530    2.1700    1.1010 H   0  0  0  0  0  0  0  0  0  0  0  0
   -2.2470    2.6180    2.8630 H   0  0  0  0  0  0  0  0  0  0  0  0
   -2.0930    3.8440    1.6190 H   0  0  0  0  0  0  0  0  0  0  0  0
    0.1190    2.7820    3.0180 H   0  0  0  0  0  0  0  0  0  0  0  0
    0.0920    3.8960    1.6520 H   0  0  0  0  0  0  0  0  0  0  0  0
    1.6250    2.3600    1.2180 H   0  0  0  0  0  0  0  0  0  0  0  0
   -0.1440    2.9110   -0.6530 H   0  0  0  0  0  0  0  0  0  0  0  0
   -0.4400    1.1360   -0.5290 H   0  0  0  0  0  0  0  0  0  0  0  0
    1.2110    1.6660   -0.8480 H   0  0  0  0  0  0  0  0  0  0  0  0
    1.2330    0.4790    2.6490 H   0  0  0  0  0  0  0  0  0  0  0  0
    1.1110   -0.2880   -0.2940 H   0  0  0  0  0  0  0  0  0  0  0  0
   -0.9770   -1.3440    0.9280 N   0  0  0  0  0  0  0  0  0  0  0  0
   -2.2130   -2.0430    1.0470 C   0  0  1  0  0  0  0  0  0  0  0  0
   -3.0160   -2.1400   -0.2240 C   0  0  0  0  0  0  0  0  0  0  0  0
   -3.3870   -0.8120   -0.7700 C   0  0  0  0  0  0  0  0  0  0  0  0
   -4.5160   -0.1070   -0.4760 C   0  0  0  0  0  0  0  0  0  0  0  0
   -4.4840    1.0360   -1.1670 N   0  0  0  0  0  0  0  0  0  0  0  0
   -3.3500    1.0400   -1.8800 C   0  0  0  0  0  0  0  0  0  0  0  0
   -2.6740   -0.0870   -1.6430 N   0  0  0  0  0  0  0  0  0  0  0  0
   -2.0140   -3.4540    1.5250 C   0  0  0  0  0  0  0  0  0  0  0  0
   -0.8890   -3.9310    1.7800 O   0  0  0  0  0  0  0  0  0  0  0  0
   -3.1590   -4.2220    1.6760 O   0  0  0  0  0  0  0  0  0  0  0  0
   -0.2910   -1.6270    0.2060 H   0  0  0  0  0  0  0  0  0  0  0  0
   -2.8510   -1.5790    1.8540 H   0  0  0  0  0  0  0  0  0  0  0  0
   -2.3340   -2.6230   -0.9790 H   0  0  0  0  0  0  0  0  0  0  0  0
   -3.8780   -2.8160   -0.1320 H   0  0  0  0  0  0  0  0  0  0  0  0
   -5.2860   -0.4680    0.2180 H   0  0  0  0  0  0  0  0  0  0  0  0
   -5.2310    1.7900   -1.1410 H   0  0  0  0  0  0  0  0  0  0  0  0
   -3.0140    1.8320   -2.5560 H   0  0  0  0  0  0  0  0  0  0  0  0
  1 10  1  0  0  0  0
  1  9  1  0  0  0  0
  2  4  1  0  0  0  0
  2  1  1  0  0  0  0
  3 13  1  0  0  0  0
  3  2  1  0  0  0  0
  4 15  1  6  0  0  0
  4  5  1  0  0  0  0
  4  6  1  0  0  0  0
  5 17  1  0  0  0  0
  6  7  2  0  0  0  0
  8  1  1  0  0  0  0
 11  2  1  0  0  0  0
 12  3  1  0  0  0  0
 14  3  1  0  0  0  0
 16  5  1  0  0  0  0
 18 19  1  0  0  0  0
 18 27  1  0  0  0  0
 19 29  1  0  0  0  0
 20 31  1  1  0  0  0
 20 22  1  0  0  0  0
 20 19  1  0  0  0  0
 21 20  1  0  0  0  0
 22 24  1  0  0  0  0
 22 35  1  1  0  0  0
 23  6  1  0  0  0  0
 23 22  1  0  0  0  0
 24 25  2  0  0  0  0
 26 18  1  0  0  0  0
 28 18  1  0  0  0  0
 30 19  1  0  0  0  0
 32 21  1  0  0  0  0
 33 21  1  0  0  0  0
 34 21  1  0  0  0  0
 36 23  1  0  0  0  0
 37 38  1  0  0  0  0
 37 24  1  0  0  0  0
 38 45  1  0  0  0  0
 38 49  1  1  0  0  0
 39 51  1  0  0  0  0
 39 38  1  0  0  0  0
 40 41  2  0  0  0  0
 40 39  1  0  0  0  0
 41 52  1  0  0  0  0
 42 53  1  0  0  0  0
 42 41  1  0  0  0  0
 43 44  2  0  0  0  0
 43 42  1  0  0  0  0
 44 40  1  0  0  0  0
 45 47  2  0  0  0  0
 45 46  1  0  0  0  0
 48 37  1  0  0  0  0
 50 39  1  0  0  0  0
 54 43  1  0  0  0  0
M  END
$$$$
