VII.pdb
 OpenBabel07022419263D

 56 55  0  0  1  0  0  0  0  0999 V2000
    2.5530   -2.3020   -0.3380 C   0  0  0  0  0  0  0  0  0  0  0  0
    2.4860   -3.3680    0.7130 C   0  0  0  0  0  0  0  0  0  0  0  0
    3.8480   -4.0840    0.6880 C   0  0  0  0  0  0  0  0  0  0  0  0
    2.2750   -2.8920    2.0810 C   0  0  2  0  0  0  0  0  0  0  0  0
    2.2600   -4.0730    2.9810 N   0  0  0  0  0  0  0  0  0  0  0  0
    1.1280   -2.0870    2.4210 C   0  0  0  0  0  0  0  0  0  0  0  0
    0.3710   -2.4840    3.3800 O   0  0  0  0  0  0  0  0  0  0  0  0
    3.1490   -1.4450    0.0450 H   0  0  0  0  0  0  0  0  0  0  0  0
    3.1310   -2.7040   -1.2170 H   0  0  0  0  0  0  0  0  0  0  0  0
    1.5720   -2.0280   -0.7310 H   0  0  0  0  0  0  0  0  0  0  0  0
    1.7740   -4.1330    0.3500 H   0  0  0  0  0  0  0  0  0  0  0  0
    3.7450   -5.1190    1.0730 H   0  0  0  0  0  0  0  0  0  0  0  0
    4.5270   -3.5640    1.4040 H   0  0  0  0  0  0  0  0  0  0  0  0
    4.2820   -4.0550   -0.3340 H   0  0  0  0  0  0  0  0  0  0  0  0
    3.1980   -2.3230    2.4060 H   0  0  0  0  0  0  0  0  0  0  0  0
    1.4470   -4.6450    2.6370 H   0  0  0  0  0  0  0  0  0  0  0  0
    1.9900   -3.7730    3.9490 H   0  0  0  0  0  0  0  0  0  0  0  0
    0.6610    3.4890    2.3000 C   0  0  0  0  0  0  0  0  0  0  0  0
    0.4930    2.0930    1.7070 C   0  0  0  0  0  0  0  0  0  0  0  0
   -0.1500    1.2500    2.7670 C   0  0  2  0  0  0  0  0  0  0  0  0
    0.6800    1.1650    4.0210 C   0  0  0  0  0  0  0  0  0  0  0  0
   -0.4770   -0.1520    2.2770 C   0  0  2  0  0  0  0  0  0  0  0  0
    0.6800   -0.8740    1.8460 N   0  0  0  0  0  0  0  0  0  0  0  0
   -1.5310   -0.1010    1.2350 C   0  0  0  0  0  0  0  0  0  0  0  0
   -2.6240    0.5280    1.4650 O   0  0  0  0  0  0  0  0  0  0  0  0
    0.6800    4.2610    1.5050 H   0  0  0  0  0  0  0  0  0  0  0  0
    1.5560    3.5210    2.9480 H   0  0  0  0  0  0  0  0  0  0  0  0
   -0.2240    3.6940    2.9360 H   0  0  0  0  0  0  0  0  0  0  0  0
   -0.2440    2.2100    0.8820 H   0  0  0  0  0  0  0  0  0  0  0  0
    1.4530    1.6800    1.3700 H   0  0  0  0  0  0  0  0  0  0  0  0
   -1.1180    1.7180    3.0420 H   0  0  0  0  0  0  0  0  0  0  0  0
    0.2710    0.3300    4.6360 H   0  0  0  0  0  0  0  0  0  0  0  0
    1.7630    0.9780    3.7990 H   0  0  0  0  0  0  0  0  0  0  0  0
    0.5870    2.0790    4.6580 H   0  0  0  0  0  0  0  0  0  0  0  0
   -0.9730   -0.6480    3.1690 H   0  0  0  0  0  0  0  0  0  0  0  0
    1.2370   -0.4890    1.0600 H   0  0  0  0  0  0  0  0  0  0  0  0
   -3.3130   -0.8720   -4.2010 C   0  0  0  0  0  0  0  0  0  0  0  0
   -3.1580    0.2850   -3.2770 C   0  0  0  0  0  0  0  0  0  0  0  0
   -2.1190    0.1510   -2.2130 C   0  0  2  0  0  0  0  0  0  0  0  0
   -0.7260   -0.1120   -2.7310 C   0  0  0  0  0  0  0  0  0  0  0  0
   -2.5560   -0.6020   -1.0350 C   0  0  2  0  0  0  0  0  0  0  0  0
   -1.4540   -0.6950   -0.0330 N   0  0  0  0  0  0  0  0  0  0  0  0
   -3.1340   -1.9340   -1.2010 C   0  0  0  0  0  0  0  0  0  0  0  0
   -2.5600   -2.9140   -0.6410 O   0  0  0  0  0  0  0  0  0  0  0  0
   -4.2650   -2.2710   -1.9100 O   0  0  0  0  0  0  0  0  0  0  0  0
   -2.6210   -1.6710   -3.9150 H   0  0  0  0  0  0  0  0  0  0  0  0
   -4.3670   -1.1800   -4.3370 H   0  0  0  0  0  0  0  0  0  0  0  0
   -3.0330   -0.4950   -5.2460 H   0  0  0  0  0  0  0  0  0  0  0  0
   -3.0400    1.2540   -3.8340 H   0  0  0  0  0  0  0  0  0  0  0  0
   -4.1380    0.4330   -2.7300 H   0  0  0  0  0  0  0  0  0  0  0  0
   -2.0170    1.2420   -1.8280 H   0  0  0  0  0  0  0  0  0  0  0  0
   -0.6400    0.3940   -3.7150 H   0  0  0  0  0  0  0  0  0  0  0  0
    0.0350    0.3460   -2.0700 H   0  0  0  0  0  0  0  0  0  0  0  0
   -0.5330   -1.1870   -2.9070 H   0  0  0  0  0  0  0  0  0  0  0  0
   -3.3710    0.0200   -0.5400 H   0  0  0  0  0  0  0  0  0  0  0  0
   -0.6000   -1.2240   -0.2930 H   0  0  0  0  0  0  0  0  0  0  0  0
  1  8  1  0  0  0  0
  1  2  1  0  0  0  0
  2  4  1  0  0  0  0
  3  2  1  0  0  0  0
  3 12  1  0  0  0  0
  3 13  1  0  0  0  0
  4 15  1  1  0  0  0
  4  6  1  0  0  0  0
  4  5  1  0  0  0  0
  5 17  1  0  0  0  0
  6  7  2  0  0  0  0
  9  1  1  0  0  0  0
 10  1  1  0  0  0  0
 11  2  1  0  0  0  0
 14  3  1  0  0  0  0
 16  5  1  0  0  0  0
 18 28  1  0  0  0  0
 18 27  1  0  0  0  0
 19 18  1  0  0  0  0
 19 20  1  0  0  0  0
 20 31  1  1  0  0  0
 20 21  1  0  0  0  0
 21 32  1  0  0  0  0
 21 34  1  0  0  0  0
 22 20  1  0  0  0  0
 22 35  1  1  0  0  0
 23 22  1  0  0  0  0
 23  6  1  0  0  0  0
 24 25  2  0  0  0  0
 24 22  1  0  0  0  0
 26 18  1  0  0  0  0
 29 19  1  0  0  0  0
 30 19  1  0  0  0  0
 33 21  1  0  0  0  0
 36 23  1  0  0  0  0
 37 46  1  0  0  0  0
 37 38  1  0  0  0  0
 38 50  1  0  0  0  0
 38 39  1  0  0  0  0
 39 51  1  1  0  0  0
 39 41  1  0  0  0  0
 40 39  1  0  0  0  0
 40 53  1  0  0  0  0
 41 55  1  1  0  0  0
 41 42  1  0  0  0  0
 42 24  1  0  0  0  0
 43 41  1  0  0  0  0
 43 44  1  0  0  0  0
 45 43  2  0  0  0  0
 47 37  1  0  0  0  0
 48 37  1  0  0  0  0
 49 38  1  0  0  0  0
 52 40  1  0  0  0  0
 54 40  1  0  0  0  0
 56 42  1  0  0  0  0
M  END
$$$$
