VIL.pdb
 OpenBabel07022419263D

 56 55  0  0  1  0  0  0  0  0999 V2000
   -0.4720   -4.6460    2.1050 C   0  0  0  0  0  0  0  0  0  0  0  0
    0.9080   -4.3680    2.6620 C   0  0  0  0  0  0  0  0  0  0  0  0
    1.3970   -5.6480    3.3070 C   0  0  0  0  0  0  0  0  0  0  0  0
    0.8810   -3.2980    3.7230 C   0  0  2  0  0  0  0  0  0  0  0  0
    0.0330   -3.7150    4.8110 N   0  0  0  0  0  0  0  0  0  0  0  0
    0.4930   -1.9690    3.1840 C   0  0  0  0  0  0  0  0  0  0  0  0
   -0.4880   -1.3480    3.6890 O   0  0  0  0  0  0  0  0  0  0  0  0
   -1.2190   -4.6370    2.9150 H   0  0  0  0  0  0  0  0  0  0  0  0
   -0.7340   -3.9750    1.2620 H   0  0  0  0  0  0  0  0  0  0  0  0
   -0.4480   -5.7000    1.7250 H   0  0  0  0  0  0  0  0  0  0  0  0
    1.5880   -4.1190    1.8260 H   0  0  0  0  0  0  0  0  0  0  0  0
    2.0400   -5.3770    4.1500 H   0  0  0  0  0  0  0  0  0  0  0  0
    1.8900   -6.3190    2.5740 H   0  0  0  0  0  0  0  0  0  0  0  0
    0.5100   -6.2100    3.6860 H   0  0  0  0  0  0  0  0  0  0  0  0
    1.9110   -3.1940    4.1230 H   0  0  0  0  0  0  0  0  0  0  0  0
   -0.3170   -4.6750    4.7440 H   0  0  0  0  0  0  0  0  0  0  0  0
   -0.7790   -3.0430    4.8330 H   0  0  0  0  0  0  0  0  0  0  0  0
    0.4590    2.9600    1.9040 C   0  0  0  0  0  0  0  0  0  0  0  0
    1.6140    2.2900    1.2220 C   0  0  0  0  0  0  0  0  0  0  0  0
    1.9330    0.9150    1.7200 C   0  0  2  0  0  0  0  0  0  0  0  0
    3.1310    0.4410    0.8790 C   0  0  0  0  0  0  0  0  0  0  0  0
    0.7770   -0.0170    1.5850 C   0  0  2  0  0  0  0  0  0  0  0  0
    1.1790   -1.3470    2.1110 N   0  0  0  0  0  0  0  0  0  0  0  0
    0.3610   -0.2690    0.1900 C   0  0  0  0  0  0  0  0  0  0  0  0
    0.6420   -1.4060   -0.3300 O   0  0  0  0  0  0  0  0  0  0  0  0
    0.8040    3.8740    2.4650 H   0  0  0  0  0  0  0  0  0  0  0  0
   -0.1190    2.3290    2.5740 H   0  0  0  0  0  0  0  0  0  0  0  0
   -0.2500    3.3810    1.1420 H   0  0  0  0  0  0  0  0  0  0  0  0
    2.5340    2.9690    1.3590 H   0  0  0  0  0  0  0  0  0  0  0  0
    1.4670    2.3150    0.1330 H   0  0  0  0  0  0  0  0  0  0  0  0
    2.3000    0.9230    2.7760 H   0  0  0  0  0  0  0  0  0  0  0  0
    3.9000    1.2330    1.0070 H   0  0  0  0  0  0  0  0  0  0  0  0
    2.8510    0.3960   -0.1950 H   0  0  0  0  0  0  0  0  0  0  0  0
    3.5470   -0.4900    1.2750 H   0  0  0  0  0  0  0  0  0  0  0  0
   -0.0890    0.3640    2.1430 H   0  0  0  0  0  0  0  0  0  0  0  0
    1.9850   -1.8570    1.6960 H   0  0  0  0  0  0  0  0  0  0  0  0
   -4.3740   -0.2030   -3.0370 C   0  0  0  0  0  0  0  0  0  0  0  0
   -2.8380   -0.1310   -3.3890 C   0  0  0  0  0  0  0  0  0  0  0  0
   -2.7130    0.9580   -4.4380 C   0  0  0  0  0  0  0  0  0  0  0  0
   -2.1770    0.1990   -2.1020 C   0  0  0  0  0  0  0  0  0  0  0  0
   -0.7010    0.2570   -2.0690 C   0  0  2  0  0  0  0  0  0  0  0  0
   -0.3300    0.6180   -0.6500 N   0  0  0  0  0  0  0  0  0  0  0  0
   -0.0030    1.2010   -2.9260 C   0  0  0  0  0  0  0  0  0  0  0  0
    0.4910    2.2730   -2.4330 O   0  0  0  0  0  0  0  0  0  0  0  0
    0.1860    1.0230   -4.2740 O   0  0  0  0  0  0  0  0  0  0  0  0
   -4.8710   -0.7030   -3.8740 H   0  0  0  0  0  0  0  0  0  0  0  0
   -4.3910   -0.8320   -2.1230 H   0  0  0  0  0  0  0  0  0  0  0  0
   -4.6600    0.8350   -2.8690 H   0  0  0  0  0  0  0  0  0  0  0  0
   -2.5690   -1.1310   -3.7430 H   0  0  0  0  0  0  0  0  0  0  0  0
   -2.2600    1.8590   -4.0050 H   0  0  0  0  0  0  0  0  0  0  0  0
   -2.1470    0.5680   -5.2930 H   0  0  0  0  0  0  0  0  0  0  0  0
   -3.7610    1.2020   -4.7880 H   0  0  0  0  0  0  0  0  0  0  0  0
   -2.4880   -0.5680   -1.3130 H   0  0  0  0  0  0  0  0  0  0  0  0
   -2.6180    1.1550   -1.6600 H   0  0  0  0  0  0  0  0  0  0  0  0
   -0.2900   -0.7930   -2.1770 H   0  0  0  0  0  0  0  0  0  0  0  0
   -0.6320    1.5440   -0.3320 H   0  0  0  0  0  0  0  0  0  0  0  0
  1  2  1  0  0  0  0
  1  8  1  0  0  0  0
  2  3  1  0  0  0  0
  2  4  1  0  0  0  0
  3 14  1  0  0  0  0
  3 12  1  0  0  0  0
  4 15  1  1  0  0  0
  4  5  1  0  0  0  0
  5 17  1  0  0  0  0
  6  7  2  0  0  0  0
  6  4  1  0  0  0  0
  9  1  1  0  0  0  0
 10  1  1  0  0  0  0
 11  2  1  0  0  0  0
 13  3  1  0  0  0  0
 16  5  1  0  0  0  0
 18 26  1  0  0  0  0
 18 27  1  0  0  0  0
 19 29  1  0  0  0  0
 19 20  1  0  0  0  0
 19 18  1  0  0  0  0
 20 31  1  1  0  0  0
 21 32  1  0  0  0  0
 21 34  1  0  0  0  0
 21 20  1  0  0  0  0
 22 20  1  0  0  0  0
 22 23  1  0  0  0  0
 22 35  1  1  0  0  0
 23  6  1  0  0  0  0
 24 22  1  0  0  0  0
 25 24  2  0  0  0  0
 28 18  1  0  0  0  0
 30 19  1  0  0  0  0
 33 21  1  0  0  0  0
 36 23  1  0  0  0  0
 37 48  1  0  0  0  0
 37 47  1  0  0  0  0
 38 37  1  0  0  0  0
 38 40  1  0  0  0  0
 39 50  1  0  0  0  0
 39 38  1  0  0  0  0
 40 41  1  0  0  0  0
 40 54  1  0  0  0  0
 40 53  1  0  0  0  0
 41 55  1  6  0  0  0
 41 42  1  0  0  0  0
 42 56  1  0  0  0  0
 42 24  1  0  0  0  0
 43 44  1  0  0  0  0
 43 41  1  0  0  0  0
 45 43  2  0  0  0  0
 46 37  1  0  0  0  0
 49 38  1  0  0  0  0
 51 39  1  0  0  0  0
 52 39  1  0  0  0  0
M  END
$$$$
