VIN.pdb
 OpenBabel07022419263D

 51 50  0  0  1  0  0  0  0  0999 V2000
    2.9750   -5.6630   -0.3330 C   0  0  0  0  0  0  0  0  0  0  0  0
    2.6010   -4.3050    0.2830 C   0  0  0  0  0  0  0  0  0  0  0  0
    2.0470   -4.5980    1.6320 C   0  0  0  0  0  0  0  0  0  0  0  0
    1.6330   -3.6900   -0.6980 C   0  0  2  0  0  0  0  0  0  0  0  0
    2.3910   -3.5900   -1.9460 N   0  0  0  0  0  0  0  0  0  0  0  0
    1.1470   -2.3410   -0.2760 C   0  0  0  0  0  0  0  0  0  0  0  0
    1.5560   -1.3680   -0.9520 O   0  0  0  0  0  0  0  0  0  0  0  0
    3.2700   -6.3890    0.4430 H   0  0  0  0  0  0  0  0  0  0  0  0
    2.1290   -6.0920   -0.8980 H   0  0  0  0  0  0  0  0  0  0  0  0
    3.8280   -5.5590   -1.0290 H   0  0  0  0  0  0  0  0  0  0  0  0
    3.5050   -3.7010    0.3520 H   0  0  0  0  0  0  0  0  0  0  0  0
    2.7760   -5.3300    2.1050 H   0  0  0  0  0  0  0  0  0  0  0  0
    2.0370   -3.7530    2.3370 H   0  0  0  0  0  0  0  0  0  0  0  0
    1.0970   -5.1720    1.5800 H   0  0  0  0  0  0  0  0  0  0  0  0
    0.8150   -4.4070   -0.8800 H   0  0  0  0  0  0  0  0  0  0  0  0
    2.0900   -2.7670   -2.5100 H   0  0  0  0  0  0  0  0  0  0  0  0
    2.4060   -4.4750   -2.4620 H   0  0  0  0  0  0  0  0  0  0  0  0
    1.2320    1.6360    3.7520 C   0  0  0  0  0  0  0  0  0  0  0  0
    0.2670    1.1280    2.6590 C   0  0  0  0  0  0  0  0  0  0  0  0
    0.7400   -0.1940    2.1340 C   0  0  2  0  0  0  0  0  0  0  0  0
    2.1150    0.0270    1.5590 C   0  0  0  0  0  0  0  0  0  0  0  0
   -0.2470   -0.8750    1.2900 C   0  0  2  0  0  0  0  0  0  0  0  0
    0.2780   -2.1780    0.8190 N   0  0  0  0  0  0  0  0  0  0  0  0
   -0.9020   -0.1620    0.1950 C   0  0  0  0  0  0  0  0  0  0  0  0
   -0.8090   -0.5740   -1.0290 O   0  0  0  0  0  0  0  0  0  0  0  0
    1.9820    2.2920    3.2650 H   0  0  0  0  0  0  0  0  0  0  0  0
    0.6970    2.2750    4.4840 H   0  0  0  0  0  0  0  0  0  0  0  0
    1.7010    0.8110    4.2900 H   0  0  0  0  0  0  0  0  0  0  0  0
    0.2580    1.9010    1.8710 H   0  0  0  0  0  0  0  0  0  0  0  0
   -0.7090    1.1050    3.1690 H   0  0  0  0  0  0  0  0  0  0  0  0
    0.9360   -0.9090    3.0090 H   0  0  0  0  0  0  0  0  0  0  0  0
    2.6870   -0.9180    1.4820 H   0  0  0  0  0  0  0  0  0  0  0  0
    2.6670    0.5870    2.3810 H   0  0  0  0  0  0  0  0  0  0  0  0
    2.1720    0.6980    0.7080 H   0  0  0  0  0  0  0  0  0  0  0  0
   -1.0980   -1.1700    1.9790 H   0  0  0  0  0  0  0  0  0  0  0  0
    0.0030   -3.0780    1.3090 H   0  0  0  0  0  0  0  0  0  0  0  0
   -5.6880    2.3870    0.6540 N   0  0  0  0  0  0  0  0  0  0  0  0
   -4.3010    2.3750    0.4140 C   0  0  0  0  0  0  0  0  0  0  0  0
   -3.5370    2.9860    1.1820 O   0  0  0  0  0  0  0  0  0  0  0  0
   -3.7730    1.6390   -0.7420 C   0  0  0  0  0  0  0  0  0  0  0  0
   -2.2930    1.6400   -0.8940 C   0  0  2  0  0  0  0  0  0  0  0  0
   -1.6940    1.0120    0.2990 N   0  0  0  0  0  0  0  0  0  0  0  0
   -1.7840    3.0240   -1.0570 C   0  0  0  0  0  0  0  0  0  0  0  0
   -0.9620    3.4670   -0.2210 O   0  0  0  0  0  0  0  0  0  0  0  0
   -2.2440    3.7610   -2.1300 O   0  0  0  0  0  0  0  0  0  0  0  0
   -6.2580    1.5510    0.4210 H   0  0  0  0  0  0  0  0  0  0  0  0
   -6.1500    3.2120    1.0570 H   0  0  0  0  0  0  0  0  0  0  0  0
   -4.1970    2.0220   -1.7030 H   0  0  0  0  0  0  0  0  0  0  0  0
   -4.1850    0.5940   -0.6590 H   0  0  0  0  0  0  0  0  0  0  0  0
   -2.0040    1.0750   -1.7740 H   0  0  0  0  0  0  0  0  0  0  0  0
   -1.8710    1.4170    1.2390 H   0  0  0  0  0  0  0  0  0  0  0  0
  1  2  1  0  0  0  0
  1  8  1  0  0  0  0
  2 11  1  0  0  0  0
  2  3  1  0  0  0  0
  3 12  1  0  0  0  0
  3 13  1  0  0  0  0
  4 15  1  6  0  0  0
  4  6  1  0  0  0  0
  4  2  1  0  0  0  0
  5  4  1  0  0  0  0
  6 23  1  0  0  0  0
  7  6  2  0  0  0  0
  9  1  1  0  0  0  0
 10  1  1  0  0  0  0
 14  3  1  0  0  0  0
 16  5  1  0  0  0  0
 17  5  1  0  0  0  0
 18 28  1  0  0  0  0
 18 27  1  0  0  0  0
 19 30  1  0  0  0  0
 19 18  1  0  0  0  0
 20 19  1  0  0  0  0
 20 31  1  1  0  0  0
 21 20  1  0  0  0  0
 21 33  1  0  0  0  0
 22 35  1  1  0  0  0
 22 20  1  0  0  0  0
 23 22  1  0  0  0  0
 23 36  1  0  0  0  0
 24 42  1  0  0  0  0
 24 22  1  0  0  0  0
 25 24  2  0  0  0  0
 26 18  1  0  0  0  0
 29 19  1  0  0  0  0
 32 21  1  0  0  0  0
 34 21  1  0  0  0  0
 37 47  1  0  0  0  0
 38 37  1  0  0  0  0
 38 39  2  0  0  0  0
 40 49  1  0  0  0  0
 40 38  1  0  0  0  0
 41 50  1  6  0  0  0
 41 40  1  0  0  0  0
 41 42  1  0  0  0  0
 42 51  1  0  0  0  0
 43 41  1  0  0  0  0
 43 44  1  0  0  0  0
 45 43  2  0  0  0  0
 46 37  1  0  0  0  0
 48 40  1  0  0  0  0
M  END
$$$$
