VIP.pdb
 OpenBabel07022419263D

 51 51  0  0  1  0  0  0  0  0999 V2000
    1.5230   -5.4500   -0.1110 C   0  0  0  0  0  0  0  0  0  0  0  0
    1.3360   -4.1170    0.6330 C   0  0  0  0  0  0  0  0  0  0  0  0
   -0.0840   -3.9370    1.0280 C   0  0  0  0  0  0  0  0  0  0  0  0
    1.8370   -3.0360   -0.3070 C   0  0  2  0  0  0  0  0  0  0  0  0
    3.2730   -3.4120   -0.5460 N   0  0  0  0  0  0  0  0  0  0  0  0
    1.9190   -1.7000    0.2820 C   0  0  0  0  0  0  0  0  0  0  0  0
    2.9700   -1.2810    0.8840 O   0  0  0  0  0  0  0  0  0  0  0  0
    2.5220   -5.8690    0.1210 H   0  0  0  0  0  0  0  0  0  0  0  0
    0.6940   -6.1260    0.1670 H   0  0  0  0  0  0  0  0  0  0  0  0
    1.4860   -5.3000   -1.2030 H   0  0  0  0  0  0  0  0  0  0  0  0
    1.9680   -4.1760    1.5290 H   0  0  0  0  0  0  0  0  0  0  0  0
   -0.1710   -3.3360    1.9450 H   0  0  0  0  0  0  0  0  0  0  0  0
   -0.5760   -4.9160    1.2770 H   0  0  0  0  0  0  0  0  0  0  0  0
   -0.6590   -3.5290    0.1790 H   0  0  0  0  0  0  0  0  0  0  0  0
    1.3650   -3.1050   -1.2860 H   0  0  0  0  0  0  0  0  0  0  0  0
    3.6520   -2.6060   -1.0910 H   0  0  0  0  0  0  0  0  0  0  0  0
    3.2540   -4.2470   -1.1500 H   0  0  0  0  0  0  0  0  0  0  0  0
    2.4530    3.1270    1.2580 C   0  0  0  0  0  0  0  0  0  0  0  0
    1.4490    2.9020    0.1810 C   0  0  0  0  0  0  0  0  0  0  0  0
    1.3010    1.5190   -0.3250 C   0  0  2  0  0  0  0  0  0  0  0  0
    0.2430    1.5350   -1.4070 C   0  0  0  0  0  0  0  0  0  0  0  0
    0.9360    0.5000    0.7630 C   0  0  2  0  0  0  0  0  0  0  0  0
    0.8140   -0.7920    0.1970 N   0  0  0  0  0  0  0  0  0  0  0  0
   -0.2090    0.9630    1.5150 C   0  0  0  0  0  0  0  0  0  0  0  0
    0.0570    2.1010    2.1370 O   0  0  0  0  0  0  0  0  0  0  0  0
    2.1110    3.9030    2.0070 H   0  0  0  0  0  0  0  0  0  0  0  0
    3.4200    3.5800    0.8770 H   0  0  0  0  0  0  0  0  0  0  0  0
    2.7720    2.2040    1.7630 H   0  0  0  0  0  0  0  0  0  0  0  0
    1.8600    3.4870   -0.7190 H   0  0  0  0  0  0  0  0  0  0  0  0
    0.4770    3.4380    0.3460 H   0  0  0  0  0  0  0  0  0  0  0  0
    2.2460    1.2170   -0.7950 H   0  0  0  0  0  0  0  0  0  0  0  0
   -0.0810    0.5260   -1.6560 H   0  0  0  0  0  0  0  0  0  0  0  0
   -0.5770    2.1990   -1.0480 H   0  0  0  0  0  0  0  0  0  0  0  0
    0.7070    2.0630   -2.2840 H   0  0  0  0  0  0  0  0  0  0  0  0
    1.8370    0.4950    1.4260 H   0  0  0  0  0  0  0  0  0  0  0  0
   -0.0470   -1.0860   -0.2890 H   0  0  0  0  0  0  0  0  0  0  0  0
   -1.5070    0.4400    1.6960 N   0  0  0  0  0  0  0  0  0  0  0  0
   -2.4610    1.1970    2.5650 C   0  0  0  0  0  0  0  0  0  0  0  0
   -3.7920    0.5630    2.3640 C   0  0  0  0  0  0  0  0  0  0  0  0
   -3.3620   -0.8970    2.2150 C   0  0  0  0  0  0  0  0  0  0  0  0
   -2.2090   -0.7030    1.2240 C   0  0  1  0  0  0  0  0  0  0  0  0
   -2.8400   -0.5080   -0.1130 C   0  0  0  0  0  0  0  0  0  0  0  0
   -2.7670    0.5670   -0.7220 O   0  0  0  0  0  0  0  0  0  0  0  0
   -3.5290   -1.5590   -0.6940 O   0  0  0  0  0  0  0  0  0  0  0  0
   -2.5030    2.2310    2.1340 H   0  0  0  0  0  0  0  0  0  0  0  0
   -2.1000    1.2260    3.5930 H   0  0  0  0  0  0  0  0  0  0  0  0
   -4.4230    0.7180    3.2370 H   0  0  0  0  0  0  0  0  0  0  0  0
   -4.2870    0.9280    1.4530 H   0  0  0  0  0  0  0  0  0  0  0  0
   -2.9330   -1.2030    3.1770 H   0  0  0  0  0  0  0  0  0  0  0  0
   -4.1600   -1.5240    1.8210 H   0  0  0  0  0  0  0  0  0  0  0  0
   -1.6930   -1.6530    1.2190 H   0  0  0  0  0  0  0  0  0  0  0  0
  1  8  1  0  0  0  0
  1  9  1  0  0  0  0
  1  2  1  0  0  0  0
  2  3  1  0  0  0  0
  2 11  1  0  0  0  0
  3 13  1  0  0  0  0
  3 12  1  0  0  0  0
  4 15  1  6  0  0  0
  4  6  1  0  0  0  0
  4  2  1  0  0  0  0
  5  4  1  0  0  0  0
  6  7  2  0  0  0  0
 10  1  1  0  0  0  0
 14  3  1  0  0  0  0
 16  5  1  0  0  0  0
 17  5  1  0  0  0  0
 18 28  1  0  0  0  0
 18 26  1  0  0  0  0
 19 30  1  0  0  0  0
 19 18  1  0  0  0  0
 20 31  1  6  0  0  0
 20 19  1  0  0  0  0
 20 22  1  0  0  0  0
 21 33  1  0  0  0  0
 21 20  1  0  0  0  0
 22 35  1  1  0  0  0
 22 24  1  0  0  0  0
 23  6  1  0  0  0  0
 23 22  1  0  0  0  0
 24 37  1  0  0  0  0
 24 25  2  0  0  0  0
 27 18  1  0  0  0  0
 29 19  1  0  0  0  0
 32 21  1  0  0  0  0
 34 21  1  0  0  0  0
 36 23  1  0  0  0  0
 37 38  1  0  0  0  0
 38 46  1  0  0  0  0
 39 38  1  0  0  0  0
 39 47  1  0  0  0  0
 40 39  1  0  0  0  0
 40 49  1  0  0  0  0
 41 51  1  6  0  0  0
 41 37  1  0  0  0  0
 41 40  1  0  0  0  0
 42 41  1  0  0  0  0
 43 42  2  0  0  0  0
 44 42  1  0  0  0  0
 45 38  1  0  0  0  0
 48 39  1  0  0  0  0
 50 40  1  0  0  0  0
M  END
$$$$
