VIQ.pdb
 OpenBabel07022419263D

 54 53  0  0  1  0  0  0  0  0999 V2000
    3.4150   -4.5120    0.1340 C   0  0  0  0  0  0  0  0  0  0  0  0
    2.7290   -3.6060    1.1110 C   0  0  0  0  0  0  0  0  0  0  0  0
    2.4040   -4.4220    2.3580 C   0  0  0  0  0  0  0  0  0  0  0  0
    1.4500   -3.0740    0.5000 C   0  0  2  0  0  0  0  0  0  0  0  0
    1.7870   -2.3390   -0.7020 N   0  0  0  0  0  0  0  0  0  0  0  0
    0.7550   -2.1470    1.4270 C   0  0  0  0  0  0  0  0  0  0  0  0
    0.4050   -2.6100    2.5360 O   0  0  0  0  0  0  0  0  0  0  0  0
    2.6410   -4.9170   -0.5640 H   0  0  0  0  0  0  0  0  0  0  0  0
    4.2100   -3.9640   -0.4250 H   0  0  0  0  0  0  0  0  0  0  0  0
    3.8910   -5.3350    0.6840 H   0  0  0  0  0  0  0  0  0  0  0  0
    3.3650   -2.7580    1.3680 H   0  0  0  0  0  0  0  0  0  0  0  0
    3.0590   -5.3060    2.3900 H   0  0  0  0  0  0  0  0  0  0  0  0
    1.3590   -4.8180    2.1940 H   0  0  0  0  0  0  0  0  0  0  0  0
    2.4450   -3.7870    3.2490 H   0  0  0  0  0  0  0  0  0  0  0  0
    0.8060   -3.9470    0.2740 H   0  0  0  0  0  0  0  0  0  0  0  0
    2.3680   -1.5130   -0.4940 H   0  0  0  0  0  0  0  0  0  0  0  0
    0.8850   -2.0630   -1.1490 H   0  0  0  0  0  0  0  0  0  0  0  0
   -0.3320    1.4450    4.5040 C   0  0  0  0  0  0  0  0  0  0  0  0
    0.1120    2.2070    3.2880 C   0  0  0  0  0  0  0  0  0  0  0  0
    0.7490    1.2380    2.3170 C   0  0  2  0  0  0  0  0  0  0  0  0
    1.2250    1.9670    1.0810 C   0  0  0  0  0  0  0  0  0  0  0  0
   -0.1830    0.1090    1.9890 C   0  0  2  0  0  0  0  0  0  0  0  0
    0.5070   -0.8080    1.0630 N   0  0  0  0  0  0  0  0  0  0  0  0
   -1.4400    0.4790    1.3460 C   0  0  0  0  0  0  0  0  0  0  0  0
   -2.2220    1.2840    1.8920 O   0  0  0  0  0  0  0  0  0  0  0  0
    0.5440    0.7930    4.7960 H   0  0  0  0  0  0  0  0  0  0  0  0
   -1.1580    0.7510    4.3160 H   0  0  0  0  0  0  0  0  0  0  0  0
   -0.6030    2.1100    5.3510 H   0  0  0  0  0  0  0  0  0  0  0  0
   -0.7390    2.7700    2.8320 H   0  0  0  0  0  0  0  0  0  0  0  0
    0.9020    2.9270    3.6290 H   0  0  0  0  0  0  0  0  0  0  0  0
    1.6430    0.8150    2.8130 H   0  0  0  0  0  0  0  0  0  0  0  0
    1.7520    2.9090    1.3350 H   0  0  0  0  0  0  0  0  0  0  0  0
    1.8810    1.3860    0.4420 H   0  0  0  0  0  0  0  0  0  0  0  0
    0.3140    2.2740    0.5330 H   0  0  0  0  0  0  0  0  0  0  0  0
   -0.3990   -0.4830    2.8960 H   0  0  0  0  0  0  0  0  0  0  0  0
    0.7870   -0.3980    0.1420 H   0  0  0  0  0  0  0  0  0  0  0  0
   -0.1930   -0.0550   -3.8360 N   0  0  0  0  0  0  0  0  0  0  0  0
   -0.8950    0.6720   -2.8410 C   0  0  0  0  0  0  0  0  0  0  0  0
   -0.2300    1.1550   -1.9030 O   0  0  0  0  0  0  0  0  0  0  0  0
   -2.3490    0.8400   -2.9350 C   0  0  0  0  0  0  0  0  0  0  0  0
   -3.0770    1.2280   -1.7200 C   0  0  0  0  0  0  0  0  0  0  0  0
   -3.1190    0.3350   -0.5520 C   0  0  2  0  0  0  0  0  0  0  0  0
   -1.8790   -0.0360    0.0690 N   0  0  0  0  0  0  0  0  0  0  0  0
   -4.0290   -0.8330   -0.7200 C   0  0  0  0  0  0  0  0  0  0  0  0
   -5.1560   -0.7830   -1.2290 O   0  0  0  0  0  0  0  0  0  0  0  0
   -3.5720   -2.0610   -0.2690 O   0  0  0  0  0  0  0  0  0  0  0  0
    0.2320    0.3820   -4.6810 H   0  0  0  0  0  0  0  0  0  0  0  0
   -0.1070   -1.0850   -3.7000 H   0  0  0  0  0  0  0  0  0  0  0  0
   -2.5010    1.6840   -3.6830 H   0  0  0  0  0  0  0  0  0  0  0  0
   -2.7770   -0.0390   -3.4740 H   0  0  0  0  0  0  0  0  0  0  0  0
   -2.6440    2.2080   -1.3680 H   0  0  0  0  0  0  0  0  0  0  0  0
   -4.1520    1.5140   -1.9470 H   0  0  0  0  0  0  0  0  0  0  0  0
   -3.6570    0.9500    0.2550 H   0  0  0  0  0  0  0  0  0  0  0  0
   -1.2070   -0.7400   -0.3650 H   0  0  0  0  0  0  0  0  0  0  0  0
  1 10  1  0  0  0  0
  1  2  1  0  0  0  0
  2 11  1  0  0  0  0
  2  3  1  0  0  0  0
  3 12  1  0  0  0  0
  3 14  1  0  0  0  0
  4 15  1  6  0  0  0
  4  2  1  0  0  0  0
  4  6  1  0  0  0  0
  5 16  1  0  0  0  0
  5  4  1  0  0  0  0
  6  7  2  0  0  0  0
  8  1  1  0  0  0  0
  9  1  1  0  0  0  0
 13  3  1  0  0  0  0
 17  5  1  0  0  0  0
 18 26  1  0  0  0  0
 18 28  1  0  0  0  0
 19 30  1  0  0  0  0
 19 18  1  0  0  0  0
 20 31  1  1  0  0  0
 20 19  1  0  0  0  0
 21 32  1  0  0  0  0
 21 20  1  0  0  0  0
 22 20  1  0  0  0  0
 22 35  1  1  0  0  0
 23  6  1  0  0  0  0
 23 22  1  0  0  0  0
 24 25  2  0  0  0  0
 24 22  1  0  0  0  0
 27 18  1  0  0  0  0
 29 19  1  0  0  0  0
 33 21  1  0  0  0  0
 34 21  1  0  0  0  0
 36 23  1  0  0  0  0
 37 48  1  0  0  0  0
 37 38  1  0  0  0  0
 38 39  2  0  0  0  0
 40 38  1  0  0  0  0
 40 41  1  0  0  0  0
 41 51  1  0  0  0  0
 41 42  1  0  0  0  0
 42 43  1  0  0  0  0
 42 53  1  1  0  0  0
 43 24  1  0  0  0  0
 44 42  1  0  0  0  0
 44 46  1  0  0  0  0
 45 44  2  0  0  0  0
 47 37  1  0  0  0  0
 49 40  1  0  0  0  0
 50 40  1  0  0  0  0
 52 41  1  0  0  0  0
 54 43  1  0  0  0  0
M  END
$$$$
