VIR.pdb
 OpenBabel07022419263D

 60 59  0  0  1  0  0  0  0  0999 V2000
   -2.4600   -0.6570    5.4530 C   0  0  0  0  0  0  0  0  0  0  0  0
   -1.7960   -0.9720    4.1330 C   0  0  0  0  0  0  0  0  0  0  0  0
   -2.1340    0.0720    3.1030 C   0  0  0  0  0  0  0  0  0  0  0  0
   -0.2760   -1.0850    4.3150 C   0  0  2  0  0  0  0  0  0  0  0  0
    0.2300    0.1630    4.8110 N   0  0  0  0  0  0  0  0  0  0  0  0
    0.2600   -1.4150    2.9440 C   0  0  0  0  0  0  0  0  0  0  0  0
   -0.0910   -2.4890    2.4280 O   0  0  0  0  0  0  0  0  0  0  0  0
   -1.8310   -1.0730    6.2690 H   0  0  0  0  0  0  0  0  0  0  0  0
   -2.6170    0.4460    5.5820 H   0  0  0  0  0  0  0  0  0  0  0  0
   -3.4380   -1.1420    5.4800 H   0  0  0  0  0  0  0  0  0  0  0  0
   -2.1930   -1.9410    3.7790 H   0  0  0  0  0  0  0  0  0  0  0  0
   -2.7620   -0.3280    2.2740 H   0  0  0  0  0  0  0  0  0  0  0  0
   -2.7440    0.8580    3.5940 H   0  0  0  0  0  0  0  0  0  0  0  0
   -1.1760    0.5060    2.7010 H   0  0  0  0  0  0  0  0  0  0  0  0
   -0.1350   -1.9380    5.0100 H   0  0  0  0  0  0  0  0  0  0  0  0
    1.0260   -0.0700    5.4660 H   0  0  0  0  0  0  0  0  0  0  0  0
   -0.5480    0.6420    5.3440 H   0  0  0  0  0  0  0  0  0  0  0  0
    3.7040   -0.8820    3.1740 C   0  0  0  0  0  0  0  0  0  0  0  0
    3.9050   -1.5110    1.8550 C   0  0  0  0  0  0  0  0  0  0  0  0
    2.7030   -1.8730    1.0460 C   0  0  2  0  0  0  0  0  0  0  0  0
    3.2250   -2.4900   -0.2310 C   0  0  0  0  0  0  0  0  0  0  0  0
    1.6530   -0.8570    0.9120 C   0  0  2  0  0  0  0  0  0  0  0  0
    1.1300   -0.5470    2.2540 N   0  0  0  0  0  0  0  0  0  0  0  0
    0.5380   -1.0800    0.0020 C   0  0  0  0  0  0  0  0  0  0  0  0
   -0.6470   -1.0220    0.4350 O   0  0  0  0  0  0  0  0  0  0  0  0
    2.9350   -1.3140    3.8140 H   0  0  0  0  0  0  0  0  0  0  0  0
    4.6770   -1.0600    3.7500 H   0  0  0  0  0  0  0  0  0  0  0  0
    3.6880    0.2360    3.1020 H   0  0  0  0  0  0  0  0  0  0  0  0
    4.4690   -2.4780    2.0270 H   0  0  0  0  0  0  0  0  0  0  0  0
    4.6300   -0.8820    1.2720 H   0  0  0  0  0  0  0  0  0  0  0  0
    2.2370   -2.7580    1.5980 H   0  0  0  0  0  0  0  0  0  0  0  0
    3.6930   -1.7360   -0.8910 H   0  0  0  0  0  0  0  0  0  0  0  0
    2.5720   -3.2180   -0.6980 H   0  0  0  0  0  0  0  0  0  0  0  0
    4.1220   -3.1130    0.1080 H   0  0  0  0  0  0  0  0  0  0  0  0
    2.1050    0.1380    0.5560 H   0  0  0  0  0  0  0  0  0  0  0  0
    1.3760    0.3400    2.7540 H   0  0  0  0  0  0  0  0  0  0  0  0
   -1.5770    2.7960   -2.7540 N   0  0  0  0  0  0  0  0  0  0  0  0
   -2.2840    1.5920   -2.4430 C   0  0  0  0  0  0  0  0  0  0  0  0
   -2.2200    1.1130   -1.2420 N   0  0  0  0  0  0  0  0  0  0  0  0
   -3.0520    0.9400   -3.4380 N   0  0  0  0  0  0  0  0  0  0  0  0
   -2.9690   -0.4640   -3.6670 C   0  0  0  0  0  0  0  0  0  0  0  0
   -1.6750   -0.9110   -4.2620 C   0  0  0  0  0  0  0  0  0  0  0  0
   -0.4550   -0.7340   -3.4370 C   0  0  0  0  0  0  0  0  0  0  0  0
   -0.5100   -1.5560   -2.1880 C   0  0  2  0  0  0  0  0  0  0  0  0
    0.6800   -1.3600   -1.3700 N   0  0  0  0  0  0  0  0  0  0  0  0
   -0.5140   -3.0060   -2.5870 C   0  0  0  0  0  0  0  0  0  0  0  0
    0.4370   -3.7450   -2.2620 O   0  0  0  0  0  0  0  0  0  0  0  0
   -1.5330   -3.5950   -3.3110 O   0  0  0  0  0  0  0  0  0  0  0  0
   -0.5810    2.9090   -2.4620 H   0  0  0  0  0  0  0  0  0  0  0  0
   -2.0830    3.5570   -3.2790 H   0  0  0  0  0  0  0  0  0  0  0  0
   -1.6690    1.5910   -0.5240 H   0  0  0  0  0  0  0  0  0  0  0  0
   -3.7020    1.5390   -4.0240 H   0  0  0  0  0  0  0  0  0  0  0  0
   -3.7670   -0.7460   -4.4040 H   0  0  0  0  0  0  0  0  0  0  0  0
   -3.2350   -1.0410   -2.7480 H   0  0  0  0  0  0  0  0  0  0  0  0
   -1.5270   -0.2080   -5.1670 H   0  0  0  0  0  0  0  0  0  0  0  0
   -1.7750   -1.8990   -4.7680 H   0  0  0  0  0  0  0  0  0  0  0  0
    0.4010   -1.1420   -4.0430 H   0  0  0  0  0  0  0  0  0  0  0  0
   -0.3210    0.3480   -3.2410 H   0  0  0  0  0  0  0  0  0  0  0  0
   -1.4110   -1.4140   -1.5780 H   0  0  0  0  0  0  0  0  0  0  0  0
    1.5850   -1.4320   -1.8660 H   0  0  0  0  0  0  0  0  0  0  0  0
  1 10  1  0  0  0  0
  1  9  1  0  0  0  0
  1  8  1  0  0  0  0
  2  4  1  0  0  0  0
  2  1  1  0  0  0  0
  3 13  1  0  0  0  0
  3  2  1  0  0  0  0
  4  5  1  0  0  0  0
  4 15  1  1  0  0  0
  5 17  1  0  0  0  0
  5 16  1  0  0  0  0
  6  4  1  0  0  0  0
  7  6  2  0  0  0  0
 11  2  1  0  0  0  0
 12  3  1  0  0  0  0
 14  3  1  0  0  0  0
 18 27  1  0  0  0  0
 18 26  1  0  0  0  0
 19 29  1  0  0  0  0
 19 18  1  0  0  0  0
 20 31  1  1  0  0  0
 20 19  1  0  0  0  0
 21 34  1  0  0  0  0
 21 20  1  0  0  0  0
 22 35  1  6  0  0  0
 22 20  1  0  0  0  0
 22 23  1  0  0  0  0
 23 36  1  0  0  0  0
 23  6  1  0  0  0  0
 24 25  2  0  0  0  0
 24 22  1  0  0  0  0
 28 18  1  0  0  0  0
 30 19  1  0  0  0  0
 32 21  1  0  0  0  0
 33 21  1  0  0  0  0
 37 49  1  0  0  0  0
 37 38  1  0  0  0  0
 38 39  2  0  0  0  0
 39 51  1  0  0  0  0
 40 38  1  0  0  0  0
 41 40  1  0  0  0  0
 41 54  1  0  0  0  0
 42 41  1  0  0  0  0
 42 43  1  0  0  0  0
 43 58  1  0  0  0  0
 43 44  1  0  0  0  0
 44 59  1  1  0  0  0
 44 45  1  0  0  0  0
 45 24  1  0  0  0  0
 46 47  1  0  0  0  0
 46 44  1  0  0  0  0
 48 46  2  0  0  0  0
 50 37  1  0  0  0  0
 52 40  1  0  0  0  0
 53 41  1  0  0  0  0
 55 42  1  0  0  0  0
 56 42  1  0  0  0  0
 57 43  1  0  0  0  0
 60 45  1  0  0  0  0
M  END
$$$$
