VIT.pdb
 OpenBabel07022419263D

 51 50  0  0  1  0  0  0  0  0999 V2000
    1.4300   -5.1980    1.8180 C   0  0  0  0  0  0  0  0  0  0  0  0
    1.6050   -3.6710    1.7330 C   0  0  0  0  0  0  0  0  0  0  0  0
    1.6880   -3.1970    3.1530 C   0  0  0  0  0  0  0  0  0  0  0  0
    0.4600   -3.1650    0.9390 C   0  0  2  0  0  0  0  0  0  0  0  0
    0.5430   -3.8160   -0.3720 N   0  0  0  0  0  0  0  0  0  0  0  0
    0.3900   -1.6940    0.7790 C   0  0  0  0  0  0  0  0  0  0  0  0
    0.5370   -1.2550   -0.3890 O   0  0  0  0  0  0  0  0  0  0  0  0
    1.9510   -5.6070    2.7000 H   0  0  0  0  0  0  0  0  0  0  0  0
    0.3360   -5.3710    1.9270 H   0  0  0  0  0  0  0  0  0  0  0  0
    1.7330   -5.6780    0.8650 H   0  0  0  0  0  0  0  0  0  0  0  0
    2.5360   -3.4970    1.1670 H   0  0  0  0  0  0  0  0  0  0  0  0
    2.1760   -2.2030    3.1590 H   0  0  0  0  0  0  0  0  0  0  0  0
    0.7490   -3.2680    3.6970 H   0  0  0  0  0  0  0  0  0  0  0  0
    2.4080   -3.8430    3.7440 H   0  0  0  0  0  0  0  0  0  0  0  0
   -0.4900   -3.4980    1.3960 H   0  0  0  0  0  0  0  0  0  0  0  0
    1.0010   -3.2000   -1.0680 H   0  0  0  0  0  0  0  0  0  0  0  0
   -0.3840   -4.1790   -0.6830 H   0  0  0  0  0  0  0  0  0  0  0  0
    2.5640    3.5270    1.6400 C   0  0  0  0  0  0  0  0  0  0  0  0
    1.2510    2.7950    1.3080 C   0  0  0  0  0  0  0  0  0  0  0  0
    1.4110    1.3290    1.5680 C   0  0  2  0  0  0  0  0  0  0  0  0
    2.4870    0.7170    0.7240 C   0  0  0  0  0  0  0  0  0  0  0  0
    0.1150    0.6310    1.5890 C   0  0  2  0  0  0  0  0  0  0  0  0
    0.1750   -0.7910    1.8310 N   0  0  0  0  0  0  0  0  0  0  0  0
   -0.9070    1.0300    0.6130 C   0  0  0  0  0  0  0  0  0  0  0  0
   -0.9960    2.1990    0.1390 O   0  0  0  0  0  0  0  0  0  0  0  0
    3.1500    2.9140    2.3550 H   0  0  0  0  0  0  0  0  0  0  0  0
    3.1850    3.6660    0.7500 H   0  0  0  0  0  0  0  0  0  0  0  0
    2.3370    4.4810    2.1220 H   0  0  0  0  0  0  0  0  0  0  0  0
    1.0970    3.0020    0.2130 H   0  0  0  0  0  0  0  0  0  0  0  0
    0.4770    3.2200    1.9400 H   0  0  0  0  0  0  0  0  0  0  0  0
    1.8170    1.2600    2.6350 H   0  0  0  0  0  0  0  0  0  0  0  0
    3.4410    1.2740    0.9810 H   0  0  0  0  0  0  0  0  0  0  0  0
    2.6410   -0.3360    1.0320 H   0  0  0  0  0  0  0  0  0  0  0  0
    2.2350    0.8430   -0.3330 H   0  0  0  0  0  0  0  0  0  0  0  0
   -0.3810    1.0170    2.5930 H   0  0  0  0  0  0  0  0  0  0  0  0
    0.0570   -1.1870    2.7940 H   0  0  0  0  0  0  0  0  0  0  0  0
   -1.4140   -0.1350   -2.6850 C   0  0  0  0  0  0  0  0  0  0  0  0
   -2.7400   -0.4080   -2.0220 C   0  0  1  0  0  0  0  0  0  0  0  0
   -2.8390   -1.7710   -1.7280 O   0  0  0  0  0  0  0  0  0  0  0  0
   -2.9000    0.4420   -0.8040 C   0  0  2  0  0  0  0  0  0  0  0  0
   -1.8680    0.0890    0.1580 N   0  0  0  0  0  0  0  0  0  0  0  0
   -4.2170    0.1590   -0.1920 C   0  0  0  0  0  0  0  0  0  0  0  0
   -4.2640   -0.3040    0.9700 O   0  0  0  0  0  0  0  0  0  0  0  0
   -5.4130    0.3870   -0.8530 O   0  0  0  0  0  0  0  0  0  0  0  0
   -1.5540    0.2130   -3.7440 H   0  0  0  0  0  0  0  0  0  0  0  0
   -0.8510   -1.0670   -2.7540 H   0  0  0  0  0  0  0  0  0  0  0  0
   -0.8770    0.6440   -2.1130 H   0  0  0  0  0  0  0  0  0  0  0  0
   -3.5780   -0.2030   -2.7430 H   0  0  0  0  0  0  0  0  0  0  0  0
   -1.9250   -2.1560   -1.5890 H   0  0  0  0  0  0  0  0  0  0  0  0
   -2.8150    1.5030   -1.1220 H   0  0  0  0  0  0  0  0  0  0  0  0
   -1.9050   -0.8890    0.5000 H   0  0  0  0  0  0  0  0  0  0  0  0
  1  9  1  0  0  0  0
  1  8  1  0  0  0  0
  2  1  1  0  0  0  0
  2  3  1  0  0  0  0
  3 12  1  0  0  0  0
  3 13  1  0  0  0  0
  3 14  1  0  0  0  0
  4 15  1  1  0  0  0
  4  2  1  0  0  0  0
  5  4  1  0  0  0  0
  6  4  1  0  0  0  0
  6 23  1  0  0  0  0
  7  6  2  0  0  0  0
 10  1  1  0  0  0  0
 11  2  1  0  0  0  0
 16  5  1  0  0  0  0
 17  5  1  0  0  0  0
 18 28  1  0  0  0  0
 18 26  1  0  0  0  0
 19 20  1  0  0  0  0
 19 18  1  0  0  0  0
 19 30  1  0  0  0  0
 20 22  1  0  0  0  0
 20 31  1  1  0  0  0
 21 32  1  0  0  0  0
 21 33  1  0  0  0  0
 21 20  1  0  0  0  0
 22 23  1  0  0  0  0
 22 35  1  1  0  0  0
 23 36  1  0  0  0  0
 24 22  1  0  0  0  0
 25 24  2  0  0  0  0
 27 18  1  0  0  0  0
 29 19  1  0  0  0  0
 34 21  1  0  0  0  0
 37 47  1  0  0  0  0
 37 38  1  0  0  0  0
 38 48  1  6  0  0  0
 38 39  1  0  0  0  0
 38 40  1  0  0  0  0
 39 49  1  0  0  0  0
 40 50  1  6  0  0  0
 40 42  1  0  0  0  0
 40 41  1  0  0  0  0
 41 51  1  0  0  0  0
 41 24  1  0  0  0  0
 42 43  1  0  0  0  0
 44 42  2  0  0  0  0
 45 37  1  0  0  0  0
 46 37  1  0  0  0  0
M  END
$$$$
