VIV.pdb
 OpenBabel07022419263D

 53 52  0  0  1  0  0  0  0  0999 V2000
    0.5620   -3.6140    1.7830 C   0  0  0  0  0  0  0  0  0  0  0  0
    1.8900   -3.6810    1.1160 C   0  0  0  0  0  0  0  0  0  0  0  0
    2.9510   -2.8830    1.8890 C   0  0  0  0  0  0  0  0  0  0  0  0
    1.9460   -3.3830   -0.3270 C   0  0  2  0  0  0  0  0  0  0  0  0
    3.3390   -3.5240   -0.7990 N   0  0  0  0  0  0  0  0  0  0  0  0
    1.4430   -2.1190   -0.8130 C   0  0  0  0  0  0  0  0  0  0  0  0
    2.2110   -1.4070   -1.5490 O   0  0  0  0  0  0  0  0  0  0  0  0
    0.5460   -4.2770    2.7090 H   0  0  0  0  0  0  0  0  0  0  0  0
    0.2720   -2.6250    2.1840 H   0  0  0  0  0  0  0  0  0  0  0  0
   -0.2290   -4.0850    1.1430 H   0  0  0  0  0  0  0  0  0  0  0  0
    2.2410   -4.7520    1.2310 H   0  0  0  0  0  0  0  0  0  0  0  0
    3.9290   -3.4080    1.8850 H   0  0  0  0  0  0  0  0  0  0  0  0
    2.6220   -2.7960    2.9280 H   0  0  0  0  0  0  0  0  0  0  0  0
    3.1320   -1.8990    1.3900 H   0  0  0  0  0  0  0  0  0  0  0  0
    1.4040   -4.1980   -0.8940 H   0  0  0  0  0  0  0  0  0  0  0  0
    3.9480   -3.9360   -0.0860 H   0  0  0  0  0  0  0  0  0  0  0  0
    3.6690   -2.6690   -1.2540 H   0  0  0  0  0  0  0  0  0  0  0  0
   -2.2120   -1.3920   -4.2170 C   0  0  0  0  0  0  0  0  0  0  0  0
   -1.0550   -1.3230   -3.2430 C   0  0  0  0  0  0  0  0  0  0  0  0
   -1.3890   -0.3920   -2.0880 C   0  0  2  0  0  0  0  0  0  0  0  0
   -1.6500    0.9620   -2.7120 C   0  0  0  0  0  0  0  0  0  0  0  0
   -0.2160   -0.2530   -1.1440 C   0  0  2  0  0  0  0  0  0  0  0  0
    0.1710   -1.5320   -0.5850 N   0  0  0  0  0  0  0  0  0  0  0  0
   -0.4740    0.7970   -0.1610 C   0  0  0  0  0  0  0  0  0  0  0  0
   -0.8170    1.9490   -0.5460 O   0  0  0  0  0  0  0  0  0  0  0  0
   -3.1640   -1.0720   -3.7650 H   0  0  0  0  0  0  0  0  0  0  0  0
   -1.9930   -0.7980   -5.1450 H   0  0  0  0  0  0  0  0  0  0  0  0
   -2.3140   -2.4400   -4.5590 H   0  0  0  0  0  0  0  0  0  0  0  0
   -0.9000   -2.3200   -2.8070 H   0  0  0  0  0  0  0  0  0  0  0  0
   -0.1810   -0.9610   -3.8130 H   0  0  0  0  0  0  0  0  0  0  0  0
   -2.2990   -0.7200   -1.5770 H   0  0  0  0  0  0  0  0  0  0  0  0
   -0.7260    1.5640   -2.8330 H   0  0  0  0  0  0  0  0  0  0  0  0
   -2.4190    1.5490   -2.1760 H   0  0  0  0  0  0  0  0  0  0  0  0
   -2.0600    0.8440   -3.7520 H   0  0  0  0  0  0  0  0  0  0  0  0
    0.6450    0.1230   -1.7770 H   0  0  0  0  0  0  0  0  0  0  0  0
   -0.5220   -2.0290    0.0050 H   0  0  0  0  0  0  0  0  0  0  0  0
   -2.0270    2.3920    4.1050 C   0  0  0  0  0  0  0  0  0  0  0  0
   -1.7770    1.2760    3.1150 C   0  0  0  0  0  0  0  0  0  0  0  0
   -1.5380    0.0060    3.8880 C   0  0  0  0  0  0  0  0  0  0  0  0
   -0.6140    1.6250    2.2140 C   0  0  2  0  0  0  0  0  0  0  0  0
   -0.3520    0.5690    1.2540 N   0  0  0  0  0  0  0  0  0  0  0  0
    0.6190    1.8850    2.9850 C   0  0  0  0  0  0  0  0  0  0  0  0
    1.6650    1.2460    2.7700 O   0  0  0  0  0  0  0  0  0  0  0  0
    0.6080    2.8580    3.9640 O   0  0  0  0  0  0  0  0  0  0  0  0
   -3.0910    2.2600    4.4520 H   0  0  0  0  0  0  0  0  0  0  0  0
   -1.9380    3.3900    3.6300 H   0  0  0  0  0  0  0  0  0  0  0  0
   -1.4040    2.2920    5.0190 H   0  0  0  0  0  0  0  0  0  0  0  0
   -2.6780    1.1630    2.5070 H   0  0  0  0  0  0  0  0  0  0  0  0
   -2.1040   -0.8600    3.4660 H   0  0  0  0  0  0  0  0  0  0  0  0
   -0.4720   -0.2960    3.9150 H   0  0  0  0  0  0  0  0  0  0  0  0
   -1.8570    0.1070    4.9520 H   0  0  0  0  0  0  0  0  0  0  0  0
   -0.8940    2.5280    1.6410 H   0  0  0  0  0  0  0  0  0  0  0  0
   -0.0680   -0.3890    1.5170 H   0  0  0  0  0  0  0  0  0  0  0  0
  1  9  1  0  0  0  0
  1  8  1  0  0  0  0
  2 11  1  0  0  0  0
  2  1  1  0  0  0  0
  2  3  1  0  0  0  0
  3 13  1  0  0  0  0
  4 15  1  6  0  0  0
  4  2  1  0  0  0  0
  5  4  1  0  0  0  0
  5 16  1  0  0  0  0
  6 23  1  0  0  0  0
  6  4  1  0  0  0  0
  7  6  2  0  0  0  0
 10  1  1  0  0  0  0
 12  3  1  0  0  0  0
 14  3  1  0  0  0  0
 17  5  1  0  0  0  0
 18 26  1  0  0  0  0
 18 19  1  0  0  0  0
 19 29  1  0  0  0  0
 19 20  1  0  0  0  0
 20 31  1  1  0  0  0
 20 22  1  0  0  0  0
 21 33  1  0  0  0  0
 21 20  1  0  0  0  0
 22 35  1  6  0  0  0
 22 23  1  0  0  0  0
 22 24  1  0  0  0  0
 23 36  1  0  0  0  0
 24 41  1  0  0  0  0
 25 24  2  0  0  0  0
 27 18  1  0  0  0  0
 28 18  1  0  0  0  0
 30 19  1  0  0  0  0
 32 21  1  0  0  0  0
 34 21  1  0  0  0  0
 37 45  1  0  0  0  0
 37 47  1  0  0  0  0
 38 39  1  0  0  0  0
 38 37  1  0  0  0  0
 39 50  1  0  0  0  0
 39 51  1  0  0  0  0
 40 52  1  6  0  0  0
 40 42  1  0  0  0  0
 40 38  1  0  0  0  0
 41 53  1  0  0  0  0
 41 40  1  0  0  0  0
 42 44  1  0  0  0  0
 43 42  2  0  0  0  0
 46 37  1  0  0  0  0
 48 38  1  0  0  0  0
 49 39  1  0  0  0  0
M  END
$$$$
