VIW.pdb
 OpenBabel07022419263D

 61 62  0  0  1  0  0  0  0  0999 V2000
    1.5030   -1.0030    3.6360 C   0  0  0  0  0  0  0  0  0  0  0  0
    2.6660   -1.0090    2.7000 C   0  0  0  0  0  0  0  0  0  0  0  0
    2.4670   -1.8990    1.5110 C   0  0  0  0  0  0  0  0  0  0  0  0
    3.1090    0.3700    2.2700 C   0  0  2  0  0  0  0  0  0  0  0  0
    3.5020    1.0440    3.5270 N   0  0  0  0  0  0  0  0  0  0  0  0
    2.0100    1.2010    1.7110 C   0  0  0  0  0  0  0  0  0  0  0  0
    1.6340    2.2640    2.3300 O   0  0  0  0  0  0  0  0  0  0  0  0
    1.4880   -1.9830    4.1760 H   0  0  0  0  0  0  0  0  0  0  0  0
    0.5270   -0.9490    3.0970 H   0  0  0  0  0  0  0  0  0  0  0  0
    1.6340   -0.2020    4.3760 H   0  0  0  0  0  0  0  0  0  0  0  0
    3.5110   -1.5010    3.2950 H   0  0  0  0  0  0  0  0  0  0  0  0
    2.8480   -2.9260    1.7630 H   0  0  0  0  0  0  0  0  0  0  0  0
    1.4120   -1.9830    1.1880 H   0  0  0  0  0  0  0  0  0  0  0  0
    3.1470   -1.5550    0.7010 H   0  0  0  0  0  0  0  0  0  0  0  0
    3.9950    0.3150    1.6370 H   0  0  0  0  0  0  0  0  0  0  0  0
    2.6570    1.5080    3.9290 H   0  0  0  0  0  0  0  0  0  0  0  0
    4.2680    1.7250    3.3640 H   0  0  0  0  0  0  0  0  0  0  0  0
   -0.7480    4.5460   -0.8660 C   0  0  0  0  0  0  0  0  0  0  0  0
   -0.4010    3.4270   -1.7830 C   0  0  0  0  0  0  0  0  0  0  0  0
    0.6130    2.4510   -1.2470 C   0  0  2  0  0  0  0  0  0  0  0  0
    0.8020    1.3990   -2.3500 C   0  0  0  0  0  0  0  0  0  0  0  0
    0.2690    1.8310    0.0740 C   0  0  2  0  0  0  0  0  0  0  0  0
    1.3150    0.9160    0.5050 N   0  0  0  0  0  0  0  0  0  0  0  0
   -1.0470    1.1850   -0.0120 C   0  0  0  0  0  0  0  0  0  0  0  0
   -2.0300    1.9450   -0.3170 O   0  0  0  0  0  0  0  0  0  0  0  0
   -1.8300    4.6450   -0.6260 H   0  0  0  0  0  0  0  0  0  0  0  0
   -0.1340    4.5260    0.0640 H   0  0  0  0  0  0  0  0  0  0  0  0
   -0.4840    5.5230   -1.3430 H   0  0  0  0  0  0  0  0  0  0  0  0
    0.0970    3.9030   -2.6980 H   0  0  0  0  0  0  0  0  0  0  0  0
   -1.2960    2.9270   -2.2110 H   0  0  0  0  0  0  0  0  0  0  0  0
    1.6190    2.9270   -1.1610 H   0  0  0  0  0  0  0  0  0  0  0  0
   -0.1890    0.9990   -2.6440 H   0  0  0  0  0  0  0  0  0  0  0  0
    1.1940    1.9580   -3.2310 H   0  0  0  0  0  0  0  0  0  0  0  0
    1.5290    0.6350   -2.0580 H   0  0  0  0  0  0  0  0  0  0  0  0
    0.1640    2.6620    0.7950 H   0  0  0  0  0  0  0  0  0  0  0  0
    1.5660    0.0640   -0.0410 H   0  0  0  0  0  0  0  0  0  0  0  0
   -1.2790   -0.1940    0.2160 N   0  0  0  0  0  0  0  0  0  0  0  0
   -2.6360   -0.6830    0.0930 C   0  0  1  0  0  0  0  0  0  0  0  0
   -2.7790   -1.6780   -1.0060 C   0  0  0  0  0  0  0  0  0  0  0  0
   -1.9370   -2.8780   -0.9160 C   0  0  0  0  0  0  0  0  0  0  0  0
   -0.6840   -2.9840   -1.5610 C   0  0  0  0  0  0  0  0  0  0  0  0
   -0.1430   -4.1670   -1.2560 N   0  0  0  0  0  0  0  0  0  0  0  0
   -0.9630   -4.8560   -0.4460 C   0  0  0  0  0  0  0  0  0  0  0  0
   -0.8250   -6.1030    0.1040 C   0  0  0  0  0  0  0  0  0  0  0  0
   -1.8540   -6.5630    0.8980 C   0  0  0  0  0  0  0  0  0  0  0  0
   -2.9710   -5.7990    1.1260 C   0  0  0  0  0  0  0  0  0  0  0  0
   -3.1010   -4.5360    0.5640 C   0  0  0  0  0  0  0  0  0  0  0  0
   -2.0770   -4.0610   -0.2320 C   0  0  0  0  0  0  0  0  0  0  0  0
   -3.1610   -1.1870    1.3680 C   0  0  0  0  0  0  0  0  0  0  0  0
   -4.3660   -1.5180    1.5060 O   0  0  0  0  0  0  0  0  0  0  0  0
   -2.3580   -1.3330    2.5110 O   0  0  0  0  0  0  0  0  0  0  0  0
   -0.4680   -0.7800    0.4580 H   0  0  0  0  0  0  0  0  0  0  0  0
   -3.2970    0.1810   -0.1830 H   0  0  0  0  0  0  0  0  0  0  0  0
   -2.7030   -1.1960   -2.0160 H   0  0  0  0  0  0  0  0  0  0  0  0
   -3.8490   -2.0430   -0.9690 H   0  0  0  0  0  0  0  0  0  0  0  0
   -0.2460   -2.2430   -2.1860 H   0  0  0  0  0  0  0  0  0  0  0  0
    0.7950   -4.5090   -1.6040 H   0  0  0  0  0  0  0  0  0  0  0  0
    0.0540   -6.7120   -0.0710 H   0  0  0  0  0  0  0  0  0  0  0  0
   -1.7450   -7.5470    1.3320 H   0  0  0  0  0  0  0  0  0  0  0  0
   -3.7960   -6.1410    1.7490 H   0  0  0  0  0  0  0  0  0  0  0  0
   -3.9840   -3.9700    0.7430 H   0  0  0  0  0  0  0  0  0  0  0  0
  1  8  1  0  0  0  0
  1 10  1  0  0  0  0
  2 11  1  0  0  0  0
  2  1  1  0  0  0  0
  3 12  1  0  0  0  0
  3  2  1  0  0  0  0
  4 15  1  6  0  0  0
  4  2  1  0  0  0  0
  4  5  1  0  0  0  0
  5 16  1  0  0  0  0
  6  4  1  0  0  0  0
  6  7  2  0  0  0  0
  9  1  1  0  0  0  0
 13  3  1  0  0  0  0
 14  3  1  0  0  0  0
 17  5  1  0  0  0  0
 18 26  1  0  0  0  0
 18 27  1  0  0  0  0
 19 20  1  0  0  0  0
 19 18  1  0  0  0  0
 20 31  1  1  0  0  0
 20 22  1  0  0  0  0
 21 34  1  0  0  0  0
 21 20  1  0  0  0  0
 22 23  1  0  0  0  0
 22 35  1  1  0  0  0
 23  6  1  0  0  0  0
 24 22  1  0  0  0  0
 24 37  1  0  0  0  0
 25 24  2  0  0  0  0
 28 18  1  0  0  0  0
 29 19  1  0  0  0  0
 30 19  1  0  0  0  0
 32 21  1  0  0  0  0
 33 21  1  0  0  0  0
 36 23  1  0  0  0  0
 37 52  1  0  0  0  0
 38 53  1  6  0  0  0
 38 37  1  0  0  0  0
 38 49  1  0  0  0  0
 39 55  1  0  0  0  0
 39 40  1  0  0  0  0
 39 38  1  0  0  0  0
 40 48  1  0  0  0  0
 41 42  1  0  0  0  0
 41 40  2  0  0  0  0
 42 43  1  0  0  0  0
 43 48  2  0  0  0  0
 43 44  1  0  0  0  0
 44 45  2  0  0  0  0
 45 46  1  0  0  0  0
 45 59  1  0  0  0  0
 46 60  1  0  0  0  0
 47 61  1  0  0  0  0
 47 46  2  0  0  0  0
 48 47  1  0  0  0  0
 49 50  2  0  0  0  0
 49 51  1  0  0  0  0
 54 39  1  0  0  0  0
 56 41  1  0  0  0  0
 57 42  1  0  0  0  0
 58 44  1  0  0  0  0
M  END
$$$$
