VIY.pdb
 OpenBabel07022419263D

 58 58  0  0  1  0  0  0  0  0999 V2000
    2.2960   -2.4940    0.6800 C   0  0  0  0  0  0  0  0  0  0  0  0
    3.3420   -1.4260    0.4500 C   0  0  0  0  0  0  0  0  0  0  0  0
    3.6770   -1.3130   -1.0210 C   0  0  0  0  0  0  0  0  0  0  0  0
    2.9980   -0.1300    1.0800 C   0  0  2  0  0  0  0  0  0  0  0  0
    2.8560   -0.3240    2.5070 N   0  0  0  0  0  0  0  0  0  0  0  0
    1.7730    0.5270    0.4890 C   0  0  0  0  0  0  0  0  0  0  0  0
    1.7260    0.8050   -0.7280 O   0  0  0  0  0  0  0  0  0  0  0  0
    2.3750   -2.9500    1.7010 H   0  0  0  0  0  0  0  0  0  0  0  0
    1.2730   -2.1080    0.5810 H   0  0  0  0  0  0  0  0  0  0  0  0
    2.5020   -3.3420   -0.0210 H   0  0  0  0  0  0  0  0  0  0  0  0
    4.2700   -1.7960    0.9460 H   0  0  0  0  0  0  0  0  0  0  0  0
    2.7960   -1.3020   -1.6690 H   0  0  0  0  0  0  0  0  0  0  0  0
    4.3470   -0.4420   -1.1490 H   0  0  0  0  0  0  0  0  0  0  0  0
    4.2640   -2.2170   -1.2860 H   0  0  0  0  0  0  0  0  0  0  0  0
    3.8400    0.5780    0.9180 H   0  0  0  0  0  0  0  0  0  0  0  0
    3.7620   -0.3420    2.9950 H   0  0  0  0  0  0  0  0  0  0  0  0
    2.2530   -1.1590    2.6670 H   0  0  0  0  0  0  0  0  0  0  0  0
    0.0790    4.3750    1.0560 C   0  0  0  0  0  0  0  0  0  0  0  0
    0.4850    3.4890   -0.1350 C   0  0  0  0  0  0  0  0  0  0  0  0
   -0.4880    2.3370   -0.2700 C   0  0  2  0  0  0  0  0  0  0  0  0
   -1.8440    2.9770   -0.4840 C   0  0  0  0  0  0  0  0  0  0  0  0
   -0.5500    1.4780    0.9710 C   0  0  2  0  0  0  0  0  0  0  0  0
    0.6820    0.8300    1.3190 N   0  0  0  0  0  0  0  0  0  0  0  0
   -1.7330    0.6520    1.0250 C   0  0  0  0  0  0  0  0  0  0  0  0
   -2.9130    1.1290    0.8980 O   0  0  0  0  0  0  0  0  0  0  0  0
   -0.9920    4.6290    1.0210 H   0  0  0  0  0  0  0  0  0  0  0  0
    0.6520    5.3340    0.8740 H   0  0  0  0  0  0  0  0  0  0  0  0
    0.4420    3.9930    2.0100 H   0  0  0  0  0  0  0  0  0  0  0  0
    1.5230    3.2450    0.0150 H   0  0  0  0  0  0  0  0  0  0  0  0
    0.4060    4.1430   -1.0200 H   0  0  0  0  0  0  0  0  0  0  0  0
   -0.2970    1.7660   -1.2020 H   0  0  0  0  0  0  0  0  0  0  0  0
   -2.4720    2.2480   -1.0340 H   0  0  0  0  0  0  0  0  0  0  0  0
   -2.3660    3.2700    0.4260 H   0  0  0  0  0  0  0  0  0  0  0  0
   -1.7360    3.8630   -1.1770 H   0  0  0  0  0  0  0  0  0  0  0  0
   -0.6550    2.3040    1.7790 H   0  0  0  0  0  0  0  0  0  0  0  0
    0.8190    0.5240    2.3440 H   0  0  0  0  0  0  0  0  0  0  0  0
    0.9580   -5.9930   -1.2940 O   0  0  0  0  0  0  0  0  0  0  0  0
   -0.0440   -5.0880   -0.9670 C   0  0  0  0  0  0  0  0  0  0  0  0
   -1.1320   -5.4600   -0.1810 C   0  0  0  0  0  0  0  0  0  0  0  0
   -2.1340   -4.5740    0.1510 C   0  0  0  0  0  0  0  0  0  0  0  0
   -2.0750   -3.2720   -0.3000 C   0  0  0  0  0  0  0  0  0  0  0  0
   -3.1290   -2.3140    0.0170 C   0  0  0  0  0  0  0  0  0  0  0  0
   -2.9600   -1.5400    1.2810 C   0  0  2  0  0  0  0  0  0  0  0  0
   -1.7370   -0.7780    1.2230 N   0  0  0  0  0  0  0  0  0  0  0  0
   -2.9970   -2.4730    2.4330 C   0  0  0  0  0  0  0  0  0  0  0  0
   -4.0250   -3.1740    2.5870 O   0  0  0  0  0  0  0  0  0  0  0  0
   -0.9980   -2.9020   -1.0770 C   0  0  0  0  0  0  0  0  0  0  0  0
   -0.0060   -3.7910   -1.4030 C   0  0  0  0  0  0  0  0  0  0  0  0
   -1.9670   -2.6110    3.3390 O   0  0  0  0  0  0  0  0  0  0  0  0
    1.8890   -5.8120   -0.9850 H   0  0  0  0  0  0  0  0  0  0  0  0
   -1.1490   -6.5050    0.1620 H   0  0  0  0  0  0  0  0  0  0  0  0
   -2.9680   -4.9240    0.7720 H   0  0  0  0  0  0  0  0  0  0  0  0
   -4.1020   -2.8820    0.1200 H   0  0  0  0  0  0  0  0  0  0  0  0
   -3.3180   -1.6010   -0.8250 H   0  0  0  0  0  0  0  0  0  0  0  0
   -3.8170   -0.8070    1.3440 H   0  0  0  0  0  0  0  0  0  0  0  0
   -0.8410   -1.2600    1.3250 H   0  0  0  0  0  0  0  0  0  0  0  0
   -0.8930   -1.8850   -1.4660 H   0  0  0  0  0  0  0  0  0  0  0  0
    0.8390   -3.4640   -2.0260 H   0  0  0  0  0  0  0  0  0  0  0  0
  1  8  1  0  0  0  0
  2  1  1  0  0  0  0
  2 11  1  0  0  0  0
  2  4  1  0  0  0  0
  3  2  1  0  0  0  0
  4 15  1  6  0  0  0
  4  5  1  0  0  0  0
  5 17  1  0  0  0  0
  5 16  1  0  0  0  0
  6  4  1  0  0  0  0
  6 23  1  0  0  0  0
  7  6  2  0  0  0  0
  9  1  1  0  0  0  0
 10  1  1  0  0  0  0
 12  3  1  0  0  0  0
 13  3  1  0  0  0  0
 14  3  1  0  0  0  0
 18 28  1  0  0  0  0
 19 29  1  0  0  0  0
 19 18  1  0  0  0  0
 20 31  1  6  0  0  0
 20 19  1  0  0  0  0
 20 22  1  0  0  0  0
 21 20  1  0  0  0  0
 21 33  1  0  0  0  0
 22 24  1  0  0  0  0
 22 23  1  0  0  0  0
 22 35  1  1  0  0  0
 23 36  1  0  0  0  0
 24 44  1  0  0  0  0
 25 24  2  0  0  0  0
 26 18  1  0  0  0  0
 27 18  1  0  0  0  0
 30 19  1  0  0  0  0
 32 21  1  0  0  0  0
 34 21  1  0  0  0  0
 37 50  1  0  0  0  0
 37 38  1  0  0  0  0
 38 39  1  0  0  0  0
 39 40  2  0  0  0  0
 39 51  1  0  0  0  0
 40 52  1  0  0  0  0
 41 42  1  0  0  0  0
 41 40  1  0  0  0  0
 42 53  1  0  0  0  0
 42 43  1  0  0  0  0
 43 55  1  1  0  0  0
 43 45  1  0  0  0  0
 44 43  1  0  0  0  0
 44 56  1  0  0  0  0
 45 46  2  0  0  0  0
 45 49  1  0  0  0  0
 47 41  2  0  0  0  0
 48 47  1  0  0  0  0
 48 38  2  0  0  0  0
 54 42  1  0  0  0  0
 57 47  1  0  0  0  0
 58 48  1  0  0  0  0
M  END
$$$$
