VKA.pdb
 OpenBabel07022419263D

 49 48  0  0  1  0  0  0  0  0999 V2000
   -0.0550   -5.7300    1.3130 C   0  0  0  0  0  0  0  0  0  0  0  0
    0.5910   -5.3580    0.0140 C   0  0  0  0  0  0  0  0  0  0  0  0
    2.0110   -4.8360    0.2230 C   0  0  0  0  0  0  0  0  0  0  0  0
   -0.1960   -4.2700   -0.6940 C   0  0  2  0  0  0  0  0  0  0  0  0
    0.4830   -3.9730   -1.9210 N   0  0  0  0  0  0  0  0  0  0  0  0
   -0.2640   -3.1050    0.2230 C   0  0  0  0  0  0  0  0  0  0  0  0
   -0.8440   -3.2760    1.3290 O   0  0  0  0  0  0  0  0  0  0  0  0
   -1.1460   -5.6170    1.2220 H   0  0  0  0  0  0  0  0  0  0  0  0
    0.3520   -5.1410    2.1640 H   0  0  0  0  0  0  0  0  0  0  0  0
    0.1540   -6.7950    1.5160 H   0  0  0  0  0  0  0  0  0  0  0  0
    0.6480   -6.2700   -0.6380 H   0  0  0  0  0  0  0  0  0  0  0  0
    2.5260   -4.7110   -0.7310 H   0  0  0  0  0  0  0  0  0  0  0  0
    2.5860   -5.6060    0.7990 H   0  0  0  0  0  0  0  0  0  0  0  0
    1.9730   -3.9170    0.8290 H   0  0  0  0  0  0  0  0  0  0  0  0
   -1.2060   -4.6660   -0.9410 H   0  0  0  0  0  0  0  0  0  0  0  0
   -0.1320   -3.7080   -2.7070 H   0  0  0  0  0  0  0  0  0  0  0  0
    1.3490   -3.4310   -1.8230 H   0  0  0  0  0  0  0  0  0  0  0  0
    0.2740   -1.8440   -0.0700 N   0  0  0  0  0  0  0  0  0  0  0  0
    0.1440   -0.7240    0.9460 C   0  0  1  0  0  0  0  0  0  0  0  0
    1.5210   -0.3900    1.3570 C   0  0  0  0  0  0  0  0  0  0  0  0
    1.8740    0.6220    2.3320 C   0  0  0  0  0  0  0  0  0  0  0  0
    1.5720    2.0510    2.1150 C   0  0  0  0  0  0  0  0  0  0  0  0
    2.2210    2.5410    0.8350 C   0  0  0  0  0  0  0  0  0  0  0  0
    1.9460    3.9290    0.5950 N   0  0  0  0  0  0  0  0  0  0  0  0
   -0.6530    0.2590    0.2230 C   0  0  0  0  0  0  0  0  0  0  0  0
   -0.7450    0.2840   -1.0490 O   0  0  0  0  0  0  0  0  0  0  0  0
    0.7560   -1.6680   -0.9670 H   0  0  0  0  0  0  0  0  0  0  0  0
   -0.3990   -1.1730    1.7890 H   0  0  0  0  0  0  0  0  0  0  0  0
    2.1120   -0.2100    0.3850 H   0  0  0  0  0  0  0  0  0  0  0  0
    1.9710   -1.3800    1.7350 H   0  0  0  0  0  0  0  0  0  0  0  0
    1.5550    0.3010    3.3820 H   0  0  0  0  0  0  0  0  0  0  0  0
    3.0180    0.5760    2.4540 H   0  0  0  0  0  0  0  0  0  0  0  0
    2.1920    2.6010    2.9320 H   0  0  0  0  0  0  0  0  0  0  0  0
    0.5860    2.4270    2.2710 H   0  0  0  0  0  0  0  0  0  0  0  0
    1.7940    1.9520   -0.0120 H   0  0  0  0  0  0  0  0  0  0  0  0
    3.3130    2.3410    0.8550 H   0  0  0  0  0  0  0  0  0  0  0  0
    1.2020    4.3290    1.1800 H   0  0  0  0  0  0  0  0  0  0  0  0
    1.7750    4.1470   -0.4060 H   0  0  0  0  0  0  0  0  0  0  0  0
   -3.6520    1.6820    0.3160 C   0  0  0  0  0  0  0  0  0  0  0  0
   -2.2040    2.2220    0.1660 C   0  0  2  0  0  0  0  0  0  0  0  0
   -1.4000    1.2560    0.8910 N   0  0  0  0  0  0  0  0  0  0  0  0
   -2.1480    3.5910    0.6390 C   0  0  0  0  0  0  0  0  0  0  0  0
   -1.4890    3.9730    1.6230 O   0  0  0  0  0  0  0  0  0  0  0  0
   -2.8740    4.5660   -0.0390 O   0  0  0  0  0  0  0  0  0  0  0  0
   -3.6180    0.6560   -0.0940 H   0  0  0  0  0  0  0  0  0  0  0  0
   -3.8040    1.5910    1.4110 H   0  0  0  0  0  0  0  0  0  0  0  0
   -4.3610    2.3390   -0.1850 H   0  0  0  0  0  0  0  0  0  0  0  0
   -1.9690    2.0930   -0.9170 H   0  0  0  0  0  0  0  0  0  0  0  0
   -1.4270    1.3410    1.9310 H   0  0  0  0  0  0  0  0  0  0  0  0
  1 10  1  0  0  0  0
  1  9  1  0  0  0  0
  2  3  1  0  0  0  0
  2  1  1  0  0  0  0
  3 13  1  0  0  0  0
  3 14  1  0  0  0  0
  4 15  1  6  0  0  0
  4  2  1  0  0  0  0
  4  6  1  0  0  0  0
  5 17  1  0  0  0  0
  5  4  1  0  0  0  0
  6  7  2  0  0  0  0
  8  1  1  0  0  0  0
 11  2  1  0  0  0  0
 12  3  1  0  0  0  0
 16  5  1  0  0  0  0
 18  6  1  0  0  0  0
 18 19  1  0  0  0  0
 19 20  1  0  0  0  0
 19 28  1  1  0  0  0
 20 30  1  0  0  0  0
 20 21  1  0  0  0  0
 21 32  1  0  0  0  0
 21 31  1  0  0  0  0
 22 34  1  0  0  0  0
 22 21  1  0  0  0  0
 22 33  1  0  0  0  0
 23 36  1  0  0  0  0
 23 22  1  0  0  0  0
 24 23  1  0  0  0  0
 24 37  1  0  0  0  0
 25 41  1  0  0  0  0
 25 19  1  0  0  0  0
 26 25  2  0  0  0  0
 27 18  1  0  0  0  0
 29 20  1  0  0  0  0
 35 23  1  0  0  0  0
 38 24  1  0  0  0  0
 39 46  1  0  0  0  0
 40 48  1  6  0  0  0
 40 39  1  0  0  0  0
 40 42  1  0  0  0  0
 40 41  1  0  0  0  0
 41 49  1  0  0  0  0
 42 43  1  0  0  0  0
 44 42  2  0  0  0  0
 45 39  1  0  0  0  0
 47 39  1  0  0  0  0
M  END
$$$$
