VKC.pdb
 OpenBabel07022419263D

 50 49  0  0  1  0  0  0  0  0999 V2000
    0.4570   -5.8370    1.0230 C   0  0  0  0  0  0  0  0  0  0  0  0
    0.3940   -4.3390    1.3810 C   0  0  0  0  0  0  0  0  0  0  0  0
   -0.9870   -3.8760    1.1270 C   0  0  0  0  0  0  0  0  0  0  0  0
    1.4900   -3.6610    0.6100 C   0  0  2  0  0  0  0  0  0  0  0  0
    2.7280   -4.3400    1.0850 N   0  0  0  0  0  0  0  0  0  0  0  0
    1.6740   -2.2370    0.8540 C   0  0  0  0  0  0  0  0  0  0  0  0
    2.6820   -1.8290    1.5430 O   0  0  0  0  0  0  0  0  0  0  0  0
    0.1700   -6.4640    1.8720 H   0  0  0  0  0  0  0  0  0  0  0  0
   -0.2860   -5.9950    0.2150 H   0  0  0  0  0  0  0  0  0  0  0  0
    1.4540   -6.0820    0.5930 H   0  0  0  0  0  0  0  0  0  0  0  0
    0.6030   -4.3000    2.4730 H   0  0  0  0  0  0  0  0  0  0  0  0
   -1.6670   -4.7860    1.1060 H   0  0  0  0  0  0  0  0  0  0  0  0
   -1.4180   -3.2560    1.9410 H   0  0  0  0  0  0  0  0  0  0  0  0
   -1.0960   -3.4510    0.1160 H   0  0  0  0  0  0  0  0  0  0  0  0
    1.4050   -3.9590   -0.4540 H   0  0  0  0  0  0  0  0  0  0  0  0
    3.4890   -4.0970    0.4010 H   0  0  0  0  0  0  0  0  0  0  0  0
    2.9170   -3.9380    2.0250 H   0  0  0  0  0  0  0  0  0  0  0  0
    0.8550   -1.1690    0.4110 N   0  0  0  0  0  0  0  0  0  0  0  0
    1.1280    0.2390    0.7030 C   0  0  1  0  0  0  0  0  0  0  0  0
    1.4350    0.9990   -0.5400 C   0  0  0  0  0  0  0  0  0  0  0  0
    1.7200    2.4410   -0.2320 C   0  0  0  0  0  0  0  0  0  0  0  0
    2.0730    3.2150   -1.5020 C   0  0  0  0  0  0  0  0  0  0  0  0
    0.9390    3.1660   -2.4870 C   0  0  0  0  0  0  0  0  0  0  0  0
   -0.2800    3.7500   -1.9370 N   0  0  0  0  0  0  0  0  0  0  0  0
    0.0200    0.7530    1.5090 C   0  0  0  0  0  0  0  0  0  0  0  0
    0.0840    1.9150    1.9600 O   0  0  0  0  0  0  0  0  0  0  0  0
    0.0200   -1.3850   -0.1590 H   0  0  0  0  0  0  0  0  0  0  0  0
    2.0590    0.2610    1.3250 H   0  0  0  0  0  0  0  0  0  0  0  0
    0.6120    0.9870   -1.2830 H   0  0  0  0  0  0  0  0  0  0  0  0
    2.3020    0.5310   -1.0420 H   0  0  0  0  0  0  0  0  0  0  0  0
    0.8170    2.9830    0.1550 H   0  0  0  0  0  0  0  0  0  0  0  0
    2.5440    2.5900    0.4890 H   0  0  0  0  0  0  0  0  0  0  0  0
    2.9730    2.8350   -1.9880 H   0  0  0  0  0  0  0  0  0  0  0  0
    2.1890    4.2720   -1.1860 H   0  0  0  0  0  0  0  0  0  0  0  0
    1.2160    3.8420   -3.3460 H   0  0  0  0  0  0  0  0  0  0  0  0
    0.7550    2.1850   -2.9240 H   0  0  0  0  0  0  0  0  0  0  0  0
   -1.0360    3.6460   -2.6420 H   0  0  0  0  0  0  0  0  0  0  0  0
   -0.1650    4.7760   -1.7870 H   0  0  0  0  0  0  0  0  0  0  0  0
   -1.1060   -0.0080    1.7930 N   0  0  0  0  0  0  0  0  0  0  0  0
   -2.2440    0.4040    2.5730 C   0  0  1  0  0  0  0  0  0  0  0  0
   -3.5510    0.3030    1.8590 C   0  0  0  0  0  0  0  0  0  0  0  0
   -3.6120    1.3220    0.3620 S   0  0  0  0  0  0  0  0  0  0  0  0
   -2.3080   -0.4470    3.7740 C   0  0  0  0  0  0  0  0  0  0  0  0
   -3.2270   -0.2600    4.5960 O   0  0  0  0  0  0  0  0  0  0  0  0
   -1.3800   -1.4330    3.9990 O   0  0  0  0  0  0  0  0  0  0  0  0
   -1.1580   -0.9770    1.4120 H   0  0  0  0  0  0  0  0  0  0  0  0
   -2.0940    1.4460    2.9200 H   0  0  0  0  0  0  0  0  0  0  0  0
   -4.3340    0.7020    2.5390 H   0  0  0  0  0  0  0  0  0  0  0  0
   -3.8400   -0.7540    1.6600 H   0  0  0  0  0  0  0  0  0  0  0  0
   -3.5550    0.4390   -0.7410 H   0  0  0  0  0  0  0  0  0  0  0  0
  1  2  1  0  0  0  0
  1  8  1  0  0  0  0
  2 11  1  0  0  0  0
  3  2  1  0  0  0  0
  3 13  1  0  0  0  0
  4 15  1  6  0  0  0
  4  6  1  0  0  0  0
  4  5  1  0  0  0  0
  4  2  1  0  0  0  0
  5 17  1  0  0  0  0
  6  7  2  0  0  0  0
  9  1  1  0  0  0  0
 10  1  1  0  0  0  0
 12  3  1  0  0  0  0
 14  3  1  0  0  0  0
 16  5  1  0  0  0  0
 18 19  1  0  0  0  0
 18  6  1  0  0  0  0
 19 28  1  1  0  0  0
 19 25  1  0  0  0  0
 20 21  1  0  0  0  0
 20 19  1  0  0  0  0
 21 31  1  0  0  0  0
 21 32  1  0  0  0  0
 22 34  1  0  0  0  0
 22 21  1  0  0  0  0
 23 24  1  0  0  0  0
 23 22  1  0  0  0  0
 24 38  1  0  0  0  0
 25 39  1  0  0  0  0
 25 26  2  0  0  0  0
 27 18  1  0  0  0  0
 29 20  1  0  0  0  0
 30 20  1  0  0  0  0
 33 22  1  0  0  0  0
 35 23  1  0  0  0  0
 36 23  1  0  0  0  0
 37 24  1  0  0  0  0
 39 40  1  0  0  0  0
 40 47  1  1  0  0  0
 40 43  1  0  0  0  0
 41 48  1  0  0  0  0
 41 40  1  0  0  0  0
 42 41  1  0  0  0  0
 43 45  2  0  0  0  0
 43 44  1  0  0  0  0
 46 39  1  0  0  0  0
 49 41  1  0  0  0  0
 50 42  1  0  0  0  0
M  END
$$$$
