VKD.pdb
 OpenBabel07022419263D

 52 51  0  0  1  0  0  0  0  0999 V2000
    0.8740   -4.4980    4.3630 C   0  0  0  0  0  0  0  0  0  0  0  0
    0.4790   -3.2360    3.5920 C   0  0  0  0  0  0  0  0  0  0  0  0
   -0.1150   -3.6450    2.2790 C   0  0  0  0  0  0  0  0  0  0  0  0
    1.7120   -2.3710    3.3610 C   0  0  2  0  0  0  0  0  0  0  0  0
    2.2730   -2.0090    4.6770 N   0  0  0  0  0  0  0  0  0  0  0  0
    1.2760   -1.1510    2.6540 C   0  0  0  0  0  0  0  0  0  0  0  0
    1.1050   -0.0890    3.3440 O   0  0  0  0  0  0  0  0  0  0  0  0
   -0.0740   -5.0160    4.6660 H   0  0  0  0  0  0  0  0  0  0  0  0
    1.4720   -5.1490    3.7120 H   0  0  0  0  0  0  0  0  0  0  0  0
    1.3960   -4.1640    5.2620 H   0  0  0  0  0  0  0  0  0  0  0  0
   -0.2600   -2.6420    4.1450 H   0  0  0  0  0  0  0  0  0  0  0  0
   -0.7980   -4.5270    2.4980 H   0  0  0  0  0  0  0  0  0  0  0  0
    0.5830   -3.9950    1.5220 H   0  0  0  0  0  0  0  0  0  0  0  0
   -0.8150   -2.8800    1.8750 H   0  0  0  0  0  0  0  0  0  0  0  0
    2.4770   -2.9560    2.8480 H   0  0  0  0  0  0  0  0  0  0  0  0
    2.8740   -2.7960    4.9590 H   0  0  0  0  0  0  0  0  0  0  0  0
    1.4550   -2.0250    5.3430 H   0  0  0  0  0  0  0  0  0  0  0  0
    1.0250   -1.0170    1.2660 N   0  0  0  0  0  0  0  0  0  0  0  0
    0.6060    0.2600    0.6910 C   0  0  1  0  0  0  0  0  0  0  0  0
    1.7980    0.9060    0.0010 C   0  0  0  0  0  0  0  0  0  0  0  0
    1.4110    2.2120   -0.5990 C   0  0  0  0  0  0  0  0  0  0  0  0
    0.8660    3.2260    0.3740 C   0  0  0  0  0  0  0  0  0  0  0  0
    0.5370    4.4820   -0.4430 C   0  0  0  0  0  0  0  0  0  0  0  0
    0.0020    5.5300    0.3880 N   0  0  0  0  0  0  0  0  0  0  0  0
   -0.4900    0.0380   -0.2410 C   0  0  0  0  0  0  0  0  0  0  0  0
   -1.0920    1.0610   -0.7580 O   0  0  0  0  0  0  0  0  0  0  0  0
    1.1610   -1.8590    0.6770 H   0  0  0  0  0  0  0  0  0  0  0  0
    0.3090    0.9740    1.4690 H   0  0  0  0  0  0  0  0  0  0  0  0
    2.6050    0.9840    0.7560 H   0  0  0  0  0  0  0  0  0  0  0  0
    2.0990    0.2260   -0.8050 H   0  0  0  0  0  0  0  0  0  0  0  0
    0.7720    2.0650   -1.4740 H   0  0  0  0  0  0  0  0  0  0  0  0
    2.3460    2.7130   -1.0460 H   0  0  0  0  0  0  0  0  0  0  0  0
    1.6590    3.5360    1.0850 H   0  0  0  0  0  0  0  0  0  0  0  0
    0.0100    2.8970    0.9610 H   0  0  0  0  0  0  0  0  0  0  0  0
    1.4490    4.8720   -0.9360 H   0  0  0  0  0  0  0  0  0  0  0  0
   -0.1990    4.2150   -1.2100 H   0  0  0  0  0  0  0  0  0  0  0  0
   -0.8920    5.9260    0.0360 H   0  0  0  0  0  0  0  0  0  0  0  0
    0.0260    5.3340    1.3920 H   0  0  0  0  0  0  0  0  0  0  0  0
   -0.9930   -1.2190   -0.6680 N   0  0  0  0  0  0  0  0  0  0  0  0
   -2.1120   -1.3000   -1.6280 C   0  0  1  0  0  0  0  0  0  0  0  0
   -1.6870   -2.0850   -2.8330 C   0  0  0  0  0  0  0  0  0  0  0  0
   -2.7210   -2.1820   -3.8650 C   0  0  0  0  0  0  0  0  0  0  0  0
   -3.8260   -1.5870   -3.8170 O   0  0  0  0  0  0  0  0  0  0  0  0
   -3.2110   -1.9370   -0.8870 C   0  0  0  0  0  0  0  0  0  0  0  0
   -4.3100   -2.1490   -1.4190 O   0  0  0  0  0  0  0  0  0  0  0  0
   -2.5400   -2.9730   -5.0180 O   0  0  0  0  0  0  0  0  0  0  0  0
   -3.0470   -2.3170    0.4240 O   0  0  0  0  0  0  0  0  0  0  0  0
   -0.5580   -2.0790   -0.3010 H   0  0  0  0  0  0  0  0  0  0  0  0
   -2.3920   -0.2660   -1.9310 H   0  0  0  0  0  0  0  0  0  0  0  0
   -0.7030   -1.7510   -3.2280 H   0  0  0  0  0  0  0  0  0  0  0  0
   -1.4950   -3.1460   -2.4890 H   0  0  0  0  0  0  0  0  0  0  0  0
   -2.9630   -2.6680   -5.8990 H   0  0  0  0  0  0  0  0  0  0  0  0
  1  8  1  0  0  0  0
  1 10  1  0  0  0  0
  2 11  1  0  0  0  0
  2  1  1  0  0  0  0
  3 12  1  0  0  0  0
  3  2  1  0  0  0  0
  4 15  1  6  0  0  0
  4  2  1  0  0  0  0
  4  5  1  0  0  0  0
  5 16  1  0  0  0  0
  5 17  1  0  0  0  0
  6  7  2  0  0  0  0
  6  4  1  0  0  0  0
  9  1  1  0  0  0  0
 13  3  1  0  0  0  0
 14  3  1  0  0  0  0
 18  6  1  0  0  0  0
 19 18  1  0  0  0  0
 19 28  1  1  0  0  0
 20 19  1  0  0  0  0
 20 29  1  0  0  0  0
 21 20  1  0  0  0  0
 21 22  1  0  0  0  0
 22 34  1  0  0  0  0
 22 33  1  0  0  0  0
 23 22  1  0  0  0  0
 23 24  1  0  0  0  0
 24 38  1  0  0  0  0
 25 19  1  0  0  0  0
 26 25  2  0  0  0  0
 27 18  1  0  0  0  0
 30 20  1  0  0  0  0
 31 21  1  0  0  0  0
 32 21  1  0  0  0  0
 35 23  1  0  0  0  0
 36 23  1  0  0  0  0
 37 24  1  0  0  0  0
 39 48  1  0  0  0  0
 39 25  1  0  0  0  0
 40 49  1  6  0  0  0
 40 44  1  0  0  0  0
 40 39  1  0  0  0  0
 41 51  1  0  0  0  0
 41 40  1  0  0  0  0
 42 43  2  0  0  0  0
 42 41  1  0  0  0  0
 44 47  1  0  0  0  0
 45 44  2  0  0  0  0
 46 42  1  0  0  0  0
 50 41  1  0  0  0  0
 52 46  1  0  0  0  0
M  END
$$$$
