VKE.pdb
 OpenBabel07022419263D

 55 54  0  0  1  0  0  0  0  0999 V2000
    0.9350   -3.7290    2.7190 C   0  0  0  0  0  0  0  0  0  0  0  0
    2.2510   -3.3420    2.1210 C   0  0  0  0  0  0  0  0  0  0  0  0
    2.4450   -3.8800    0.7110 C   0  0  0  0  0  0  0  0  0  0  0  0
    2.6510   -1.9260    2.2950 C   0  0  2  0  0  0  0  0  0  0  0  0
    2.7380   -1.6680    3.7430 N   0  0  0  0  0  0  0  0  0  0  0  0
    1.8090   -0.8940    1.7050 C   0  0  0  0  0  0  0  0  0  0  0  0
    1.3430    0.0580    2.4300 O   0  0  0  0  0  0  0  0  0  0  0  0
    0.7310   -4.7820    2.3600 H   0  0  0  0  0  0  0  0  0  0  0  0
    1.0470   -3.7840    3.8110 H   0  0  0  0  0  0  0  0  0  0  0  0
    0.0880   -3.1420    2.3740 H   0  0  0  0  0  0  0  0  0  0  0  0
    3.0140   -3.9380    2.7230 H   0  0  0  0  0  0  0  0  0  0  0  0
    3.2590   -3.2910    0.2180 H   0  0  0  0  0  0  0  0  0  0  0  0
    1.5260   -3.9540    0.1330 H   0  0  0  0  0  0  0  0  0  0  0  0
    2.8580   -4.9330    0.7230 H   0  0  0  0  0  0  0  0  0  0  0  0
    3.7270   -1.8550    1.9630 H   0  0  0  0  0  0  0  0  0  0  0  0
    3.1390   -0.7200    3.9310 H   0  0  0  0  0  0  0  0  0  0  0  0
    3.3110   -2.4210    4.1990 H   0  0  0  0  0  0  0  0  0  0  0  0
    1.4230   -0.8080    0.3560 N   0  0  0  0  0  0  0  0  0  0  0  0
    0.5740    0.2640   -0.2070 C   0  0  1  0  0  0  0  0  0  0  0  0
    1.2540    0.9560   -1.3060 C   0  0  0  0  0  0  0  0  0  0  0  0
    0.5270    2.0430   -1.9700 C   0  0  0  0  0  0  0  0  0  0  0  0
    0.1200    3.2790   -1.3100 C   0  0  0  0  0  0  0  0  0  0  0  0
   -0.8300    3.2850   -0.1690 C   0  0  0  0  0  0  0  0  0  0  0  0
   -1.0230    4.7240    0.1680 N   0  0  0  0  0  0  0  0  0  0  0  0
   -0.7110   -0.3930   -0.5600 C   0  0  0  0  0  0  0  0  0  0  0  0
   -1.6040    0.2960   -1.1080 O   0  0  0  0  0  0  0  0  0  0  0  0
    1.7330   -1.5230   -0.3160 H   0  0  0  0  0  0  0  0  0  0  0  0
    0.3950    0.9170    0.6420 H   0  0  0  0  0  0  0  0  0  0  0  0
    2.2310    1.3450   -0.8860 H   0  0  0  0  0  0  0  0  0  0  0  0
    1.5340    0.2230   -2.1520 H   0  0  0  0  0  0  0  0  0  0  0  0
   -0.4060    1.6330   -2.5190 H   0  0  0  0  0  0  0  0  0  0  0  0
    1.1330    2.3530   -2.9230 H   0  0  0  0  0  0  0  0  0  0  0  0
    1.0310    3.9410   -1.0640 H   0  0  0  0  0  0  0  0  0  0  0  0
   -0.3800    3.9570   -2.1000 H   0  0  0  0  0  0  0  0  0  0  0  0
   -1.8300    2.9370   -0.4970 H   0  0  0  0  0  0  0  0  0  0  0  0
   -0.5090    2.8390    0.7700 H   0  0  0  0  0  0  0  0  0  0  0  0
   -0.2150    5.0500    0.7640 H   0  0  0  0  0  0  0  0  0  0  0  0
   -1.8720    4.7370    0.7850 H   0  0  0  0  0  0  0  0  0  0  0  0
   -0.9700   -1.7510   -0.3050 N   0  0  0  0  0  0  0  0  0  0  0  0
   -2.1690   -2.4820   -0.5890 C   0  0  1  0  0  0  0  0  0  0  0  0
   -3.4580   -1.7410   -0.3020 C   0  0  0  0  0  0  0  0  0  0  0  0
   -3.6480   -1.3880    1.1230 C   0  0  0  0  0  0  0  0  0  0  0  0
   -2.6400   -0.5490    1.7650 C   0  0  0  0  0  0  0  0  0  0  0  0
   -1.6510   -1.0340    2.4090 O   0  0  0  0  0  0  0  0  0  0  0  0
   -2.1470   -3.1860   -1.8670 C   0  0  0  0  0  0  0  0  0  0  0  0
   -3.0670   -3.8810   -2.3300 O   0  0  0  0  0  0  0  0  0  0  0  0
   -2.6770    0.8500    1.7270 O   0  0  0  0  0  0  0  0  0  0  0  0
   -0.9850   -3.0730   -2.6480 O   0  0  0  0  0  0  0  0  0  0  0  0
   -0.1690   -2.2830    0.1510 H   0  0  0  0  0  0  0  0  0  0  0  0
   -2.1890   -3.3030    0.2320 H   0  0  0  0  0  0  0  0  0  0  0  0
   -3.5310   -0.8970   -0.9980 H   0  0  0  0  0  0  0  0  0  0  0  0
   -4.2680   -2.4850   -0.5590 H   0  0  0  0  0  0  0  0  0  0  0  0
   -3.7310   -2.3400    1.7230 H   0  0  0  0  0  0  0  0  0  0  0  0
   -4.6410   -0.8490    1.2120 H   0  0  0  0  0  0  0  0  0  0  0  0
   -2.0150    1.4030    2.2580 H   0  0  0  0  0  0  0  0  0  0  0  0
  1  9  1  0  0  0  0
  2  4  1  0  0  0  0
  2  1  1  0  0  0  0
  2 11  1  0  0  0  0
  3 14  1  0  0  0  0
  3  2  1  0  0  0  0
  4 15  1  6  0  0  0
  4  5  1  0  0  0  0
  5 16  1  0  0  0  0
  5 17  1  0  0  0  0
  6  4  1  0  0  0  0
  6  7  2  0  0  0  0
  8  1  1  0  0  0  0
 10  1  1  0  0  0  0
 12  3  1  0  0  0  0
 13  3  1  0  0  0  0
 18  6  1  0  0  0  0
 19 18  1  0  0  0  0
 19 28  1  1  0  0  0
 20 29  1  0  0  0  0
 20 19  1  0  0  0  0
 21 22  1  0  0  0  0
 21 20  1  0  0  0  0
 22 33  1  0  0  0  0
 22 23  1  0  0  0  0
 23 24  1  0  0  0  0
 23 36  1  0  0  0  0
 24 37  1  0  0  0  0
 24 38  1  0  0  0  0
 25 39  1  0  0  0  0
 25 19  1  0  0  0  0
 26 25  2  0  0  0  0
 27 18  1  0  0  0  0
 30 20  1  0  0  0  0
 31 21  1  0  0  0  0
 32 21  1  0  0  0  0
 34 22  1  0  0  0  0
 35 23  1  0  0  0  0
 39 49  1  0  0  0  0
 40 39  1  0  0  0  0
 40 41  1  0  0  0  0
 40 50  1  1  0  0  0
 41 42  1  0  0  0  0
 42 54  1  0  0  0  0
 42 53  1  0  0  0  0
 42 43  1  0  0  0  0
 43 44  2  0  0  0  0
 45 40  1  0  0  0  0
 46 45  1  0  0  0  0
 47 43  1  0  0  0  0
 47 55  1  0  0  0  0
 48 45  2  0  0  0  0
 51 41  1  0  0  0  0
 52 41  1  0  0  0  0
M  END
$$$$
