VKF.pdb
 OpenBabel07022419263D

 59 59  0  0  1  0  0  0  0  0999 V2000
    2.7020   -2.9950    1.7970 C   0  0  0  0  0  0  0  0  0  0  0  0
    2.6720   -2.0300    2.9330 C   0  0  0  0  0  0  0  0  0  0  0  0
    1.5060   -2.3610    3.8370 C   0  0  0  0  0  0  0  0  0  0  0  0
    2.7570   -0.5910    2.5620 C   0  0  2  0  0  0  0  0  0  0  0  0
    2.7160    0.2120    3.7950 N   0  0  0  0  0  0  0  0  0  0  0  0
    1.7040   -0.1340    1.6170 C   0  0  0  0  0  0  0  0  0  0  0  0
    1.5930   -0.6750    0.4940 O   0  0  0  0  0  0  0  0  0  0  0  0
    1.7180   -3.5460    1.7410 H   0  0  0  0  0  0  0  0  0  0  0  0
    2.8990   -2.5770    0.8110 H   0  0  0  0  0  0  0  0  0  0  0  0
    3.4450   -3.8290    1.9730 H   0  0  0  0  0  0  0  0  0  0  0  0
    3.5890   -2.2410    3.5600 H   0  0  0  0  0  0  0  0  0  0  0  0
    0.5430   -2.3410    3.3010 H   0  0  0  0  0  0  0  0  0  0  0  0
    1.6520   -3.4430    4.1290 H   0  0  0  0  0  0  0  0  0  0  0  0
    1.5130   -1.8050    4.7850 H   0  0  0  0  0  0  0  0  0  0  0  0
    3.7600   -0.4070    2.1240 H   0  0  0  0  0  0  0  0  0  0  0  0
    3.0140    1.1800    3.5440 H   0  0  0  0  0  0  0  0  0  0  0  0
    1.8140    0.1460    4.2780 H   0  0  0  0  0  0  0  0  0  0  0  0
    0.8390    0.9180    2.0130 N   0  0  0  0  0  0  0  0  0  0  0  0
   -0.2210    1.3710    1.0470 C   0  0  1  0  0  0  0  0  0  0  0  0
    0.4400    2.0620   -0.0470 C   0  0  0  0  0  0  0  0  0  0  0  0
   -0.2010    2.6380   -1.2150 C   0  0  0  0  0  0  0  0  0  0  0  0
   -0.8120    1.8160   -2.2700 C   0  0  0  0  0  0  0  0  0  0  0  0
    0.2270    0.9230   -2.9600 C   0  0  0  0  0  0  0  0  0  0  0  0
    1.2650    1.7140   -3.5760 N   0  0  0  0  0  0  0  0  0  0  0  0
   -1.1290    0.2510    0.9280 C   0  0  0  0  0  0  0  0  0  0  0  0
   -0.8270   -0.9210    1.3890 O   0  0  0  0  0  0  0  0  0  0  0  0
    0.9070    1.3880    2.9390 H   0  0  0  0  0  0  0  0  0  0  0  0
   -0.8060    2.1450    1.7050 H   0  0  0  0  0  0  0  0  0  0  0  0
    1.3480    1.4570   -0.4060 H   0  0  0  0  0  0  0  0  0  0  0  0
    1.0160    2.9490    0.4400 H   0  0  0  0  0  0  0  0  0  0  0  0
   -0.9080    3.4650   -0.8650 H   0  0  0  0  0  0  0  0  0  0  0  0
    0.5990    3.2720   -1.7440 H   0  0  0  0  0  0  0  0  0  0  0  0
   -1.6890    1.2370   -2.1040 H   0  0  0  0  0  0  0  0  0  0  0  0
   -1.0960    2.5460   -3.1050 H   0  0  0  0  0  0  0  0  0  0  0  0
    0.7020    0.2230   -2.2760 H   0  0  0  0  0  0  0  0  0  0  0  0
   -0.2780    0.3460   -3.7590 H   0  0  0  0  0  0  0  0  0  0  0  0
    0.9740    2.6960   -3.7700 H   0  0  0  0  0  0  0  0  0  0  0  0
    1.7250    1.2430   -4.3600 H   0  0  0  0  0  0  0  0  0  0  0  0
   -2.4390    0.2950    0.3240 N   0  0  0  0  0  0  0  0  0  0  0  0
   -3.3330   -0.7940    0.2610 C   0  0  1  0  0  0  0  0  0  0  0  0
   -3.1690   -1.8660   -0.7280 C   0  0  0  0  0  0  0  0  0  0  0  0
   -1.9570   -2.6620   -0.7220 C   0  0  0  0  0  0  0  0  0  0  0  0
   -0.9110   -2.3190   -1.5380 C   0  0  0  0  0  0  0  0  0  0  0  0
    0.2610   -3.0340   -1.5680 C   0  0  0  0  0  0  0  0  0  0  0  0
    0.3880   -4.1250   -0.7560 C   0  0  0  0  0  0  0  0  0  0  0  0
   -0.6320   -4.5040    0.0750 C   0  0  0  0  0  0  0  0  0  0  0  0
   -1.8020   -3.7640    0.0830 C   0  0  0  0  0  0  0  0  0  0  0  0
   -3.6270   -1.3500    1.6410 C   0  0  0  0  0  0  0  0  0  0  0  0
   -3.1050   -0.8280    2.6210 O   0  0  0  0  0  0  0  0  0  0  0  0
   -4.4680   -2.4170    1.7360 O   0  0  0  0  0  0  0  0  0  0  0  0
   -2.6840    1.2630   -0.0600 H   0  0  0  0  0  0  0  0  0  0  0  0
   -4.3610   -0.3270    0.0210 H   0  0  0  0  0  0  0  0  0  0  0  0
   -3.4180   -1.4470   -1.7380 H   0  0  0  0  0  0  0  0  0  0  0  0
   -4.0230   -2.5960   -0.5530 H   0  0  0  0  0  0  0  0  0  0  0  0
   -0.9780   -1.4720   -2.2030 H   0  0  0  0  0  0  0  0  0  0  0  0
    1.0940   -2.7660   -2.2130 H   0  0  0  0  0  0  0  0  0  0  0  0
    1.3210   -4.6900   -0.7830 H   0  0  0  0  0  0  0  0  0  0  0  0
   -0.4860   -5.3730    0.6980 H   0  0  0  0  0  0  0  0  0  0  0  0
   -2.5650   -4.1180    0.7610 H   0  0  0  0  0  0  0  0  0  0  0  0
  1 10  1  0  0  0  0
  1  2  1  0  0  0  0
  2 11  1  0  0  0  0
  2  3  1  0  0  0  0
  3 13  1  0  0  0  0
  3 14  1  0  0  0  0
  4 15  1  6  0  0  0
  4  2  1  0  0  0  0
  4  5  1  0  0  0  0
  5 17  1  0  0  0  0
  6 18  1  0  0  0  0
  6  4  1  0  0  0  0
  7  6  2  0  0  0  0
  8  1  1  0  0  0  0
  9  1  1  0  0  0  0
 12  3  1  0  0  0  0
 16  5  1  0  0  0  0
 18 27  1  0  0  0  0
 19 28  1  1  0  0  0
 19 18  1  0  0  0  0
 20 30  1  0  0  0  0
 20 19  1  0  0  0  0
 21 31  1  0  0  0  0
 21 20  1  0  0  0  0
 22 33  1  0  0  0  0
 22 21  1  0  0  0  0
 23 35  1  0  0  0  0
 23 22  1  0  0  0  0
 24 23  1  0  0  0  0
 25 19  1  0  0  0  0
 25 26  2  0  0  0  0
 29 20  1  0  0  0  0
 32 21  1  0  0  0  0
 34 22  1  0  0  0  0
 36 23  1  0  0  0  0
 37 24  1  0  0  0  0
 38 24  1  0  0  0  0
 39 25  1  0  0  0  0
 40 52  1  6  0  0  0
 40 39  1  0  0  0  0
 40 48  1  0  0  0  0
 41 42  1  0  0  0  0
 41 54  1  0  0  0  0
 41 40  1  0  0  0  0
 42 47  1  0  0  0  0
 43 42  2  0  0  0  0
 44 43  1  0  0  0  0
 44 45  2  0  0  0  0
 45 46  1  0  0  0  0
 46 47  2  0  0  0  0
 46 58  1  0  0  0  0
 47 59  1  0  0  0  0
 48 50  2  0  0  0  0
 48 49  1  0  0  0  0
 51 39  1  0  0  0  0
 53 41  1  0  0  0  0
 55 43  1  0  0  0  0
 56 44  1  0  0  0  0
 57 45  1  0  0  0  0
M  END
$$$$
