VKG.pdb
 OpenBabel07022419263D

 46 45  0  0  1  0  0  0  0  0999 V2000
   -1.4380   -4.0940    3.5460 C   0  0  0  0  0  0  0  0  0  0  0  0
   -0.9250   -3.4720    2.2640 C   0  0  0  0  0  0  0  0  0  0  0  0
   -0.0920   -4.5150    1.5640 C   0  0  0  0  0  0  0  0  0  0  0  0
   -0.1320   -2.2400    2.6320 C   0  0  2  0  0  0  0  0  0  0  0  0
   -1.0210   -1.3440    3.3270 N   0  0  0  0  0  0  0  0  0  0  0  0
    0.4160   -1.5470    1.4500 C   0  0  0  0  0  0  0  0  0  0  0  0
    1.2380   -2.1370    0.6670 O   0  0  0  0  0  0  0  0  0  0  0  0
   -1.6510   -5.1890    3.3740 H   0  0  0  0  0  0  0  0  0  0  0  0
   -0.6270   -4.0260    4.3130 H   0  0  0  0  0  0  0  0  0  0  0  0
   -2.3490   -3.6060    3.9060 H   0  0  0  0  0  0  0  0  0  0  0  0
   -1.7860   -3.1420    1.6690 H   0  0  0  0  0  0  0  0  0  0  0  0
   -0.5890   -5.4970    1.7260 H   0  0  0  0  0  0  0  0  0  0  0  0
   -0.0040   -4.3340    0.4750 H   0  0  0  0  0  0  0  0  0  0  0  0
    0.9170   -4.5790    1.9710 H   0  0  0  0  0  0  0  0  0  0  0  0
    0.7050   -2.5110    3.3050 H   0  0  0  0  0  0  0  0  0  0  0  0
   -1.8610   -1.1640    2.7490 H   0  0  0  0  0  0  0  0  0  0  0  0
   -0.5830   -0.5190    3.7460 H   0  0  0  0  0  0  0  0  0  0  0  0
    0.0500   -0.2250    1.1570 N   0  0  0  0  0  0  0  0  0  0  0  0
    0.4850    0.6000    0.0890 C   0  0  1  0  0  0  0  0  0  0  0  0
    1.8040    0.2500   -0.5590 C   0  0  0  0  0  0  0  0  0  0  0  0
    2.9930    0.3320    0.3160 C   0  0  0  0  0  0  0  0  0  0  0  0
    3.2340    1.7180    0.8750 C   0  0  0  0  0  0  0  0  0  0  0  0
    3.4470    2.7580   -0.1940 C   0  0  0  0  0  0  0  0  0  0  0  0
    3.6630    4.0250    0.4930 N   0  0  0  0  0  0  0  0  0  0  0  0
   -0.5870    0.8930   -0.8570 C   0  0  0  0  0  0  0  0  0  0  0  0
   -0.4590    1.6020   -1.8890 O   0  0  0  0  0  0  0  0  0  0  0  0
   -0.6560    0.2030    1.8470 H   0  0  0  0  0  0  0  0  0  0  0  0
    0.7670    1.6090    0.5870 H   0  0  0  0  0  0  0  0  0  0  0  0
    1.9450    1.0080   -1.3880 H   0  0  0  0  0  0  0  0  0  0  0  0
    1.7520   -0.7220   -1.0580 H   0  0  0  0  0  0  0  0  0  0  0  0
    3.0400   -0.3780    1.1280 H   0  0  0  0  0  0  0  0  0  0  0  0
    3.8900    0.1310   -0.3470 H   0  0  0  0  0  0  0  0  0  0  0  0
    2.4810    2.0770    1.5680 H   0  0  0  0  0  0  0  0  0  0  0  0
    4.2060    1.6520    1.4420 H   0  0  0  0  0  0  0  0  0  0  0  0
    2.4850    2.8720   -0.7620 H   0  0  0  0  0  0  0  0  0  0  0  0
    4.2980    2.5140   -0.8710 H   0  0  0  0  0  0  0  0  0  0  0  0
    4.3910    3.8420    1.2240 H   0  0  0  0  0  0  0  0  0  0  0  0
    2.7790    4.2300    1.0070 H   0  0  0  0  0  0  0  0  0  0  0  0
   -1.9130    0.3580   -0.6480 N   0  0  0  0  0  0  0  0  0  0  0  0
   -2.9820    0.6370   -1.5710 C   0  0  0  0  0  0  0  0  0  0  0  0
   -4.2060   -0.0490   -1.0820 C   0  0  0  0  0  0  0  0  0  0  0  0
   -5.2850    0.0440   -1.7230 O   0  0  0  0  0  0  0  0  0  0  0  0
   -4.2040   -0.8030    0.0790 O   0  0  0  0  0  0  0  0  0  0  0  0
   -2.0650   -0.2360    0.1960 H   0  0  0  0  0  0  0  0  0  0  0  0
   -2.7830    0.2270   -2.5890 H   0  0  0  0  0  0  0  0  0  0  0  0
   -3.1620    1.7230   -1.7020 H   0  0  0  0  0  0  0  0  0  0  0  0
  1 10  1  0  0  0  0
  1  9  1  0  0  0  0
  2  4  1  0  0  0  0
  2  1  1  0  0  0  0
  3 12  1  0  0  0  0
  3 14  1  0  0  0  0
  3  2  1  0  0  0  0
  4 15  1  1  0  0  0
  4  5  1  0  0  0  0
  5 17  1  0  0  0  0
  6  4  1  0  0  0  0
  7  6  2  0  0  0  0
  8  1  1  0  0  0  0
 11  2  1  0  0  0  0
 13  3  1  0  0  0  0
 16  5  1  0  0  0  0
 18  6  1  0  0  0  0
 18 27  1  0  0  0  0
 19 28  1  1  0  0  0
 19 18  1  0  0  0  0
 20 19  1  0  0  0  0
 20 21  1  0  0  0  0
 21 22  1  0  0  0  0
 21 31  1  0  0  0  0
 22 34  1  0  0  0  0
 22 33  1  0  0  0  0
 23 24  1  0  0  0  0
 23 22  1  0  0  0  0
 24 38  1  0  0  0  0
 24 37  1  0  0  0  0
 25 39  1  0  0  0  0
 25 19  1  0  0  0  0
 26 25  2  0  0  0  0
 29 20  1  0  0  0  0
 30 20  1  0  0  0  0
 32 21  1  0  0  0  0
 35 23  1  0  0  0  0
 36 23  1  0  0  0  0
 39 44  1  0  0  0  0
 40 41  1  0  0  0  0
 40 39  1  0  0  0  0
 41 43  1  0  0  0  0
 42 41  2  0  0  0  0
 45 40  1  0  0  0  0
 46 40  1  0  0  0  0
M  END
$$$$
