VKH.pdb
 OpenBabel07022419263D

 56 56  0  0  1  0  0  0  0  0999 V2000
    5.1410   -2.4620    1.7400 C   0  0  0  0  0  0  0  0  0  0  0  0
    4.2610   -1.4620    1.0310 C   0  0  0  0  0  0  0  0  0  0  0  0
    3.7010   -2.1750   -0.1850 C   0  0  0  0  0  0  0  0  0  0  0  0
    3.1430   -1.0880    1.9950 C   0  0  2  0  0  0  0  0  0  0  0  0
    2.4640   -2.3530    2.2770 N   0  0  0  0  0  0  0  0  0  0  0  0
    2.2620   -0.0610    1.4450 C   0  0  0  0  0  0  0  0  0  0  0  0
    2.4940    1.1780    1.5130 O   0  0  0  0  0  0  0  0  0  0  0  0
    4.5290   -3.3130    2.1500 H   0  0  0  0  0  0  0  0  0  0  0  0
    5.8930   -2.9290    1.0470 H   0  0  0  0  0  0  0  0  0  0  0  0
    5.6980   -2.0140    2.5760 H   0  0  0  0  0  0  0  0  0  0  0  0
    4.8530   -0.6040    0.6890 H   0  0  0  0  0  0  0  0  0  0  0  0
    2.8140   -2.7770    0.1000 H   0  0  0  0  0  0  0  0  0  0  0  0
    3.3990   -1.5120   -1.0040 H   0  0  0  0  0  0  0  0  0  0  0  0
    4.5010   -2.8390   -0.5680 H   0  0  0  0  0  0  0  0  0  0  0  0
    3.6090   -0.7500    2.9230 H   0  0  0  0  0  0  0  0  0  0  0  0
    2.8220   -2.7510    3.1890 H   0  0  0  0  0  0  0  0  0  0  0  0
    1.4310   -2.2760    2.2800 H   0  0  0  0  0  0  0  0  0  0  0  0
    1.0500   -0.4250    0.7730 N   0  0  0  0  0  0  0  0  0  0  0  0
    0.1590    0.5930    0.2300 C   0  0  1  0  0  0  0  0  0  0  0  0
    0.4240    0.6600   -1.2670 C   0  0  0  0  0  0  0  0  0  0  0  0
   -0.4010    1.6640   -1.9930 C   0  0  0  0  0  0  0  0  0  0  0  0
   -0.2000    3.0780   -1.4990 C   0  0  0  0  0  0  0  0  0  0  0  0
   -1.0750    3.9800   -2.3420 C   0  0  0  0  0  0  0  0  0  0  0  0
   -2.4430    3.5740   -2.1840 N   0  0  0  0  0  0  0  0  0  0  0  0
   -1.2640    0.2910    0.4990 C   0  0  0  0  0  0  0  0  0  0  0  0
   -2.1020    1.1450    0.1400 O   0  0  0  0  0  0  0  0  0  0  0  0
    0.7570   -1.4090    0.6270 H   0  0  0  0  0  0  0  0  0  0  0  0
    0.5030    1.5630    0.6220 H   0  0  0  0  0  0  0  0  0  0  0  0
    0.3890   -0.3160   -1.7590 H   0  0  0  0  0  0  0  0  0  0  0  0
    1.4990    1.0110   -1.3420 H   0  0  0  0  0  0  0  0  0  0  0  0
   -1.4760    1.4350   -2.0750 H   0  0  0  0  0  0  0  0  0  0  0  0
   -0.0270    1.6750   -3.0560 H   0  0  0  0  0  0  0  0  0  0  0  0
    0.8560    3.3480   -1.7350 H   0  0  0  0  0  0  0  0  0  0  0  0
   -0.4590    3.2450   -0.4570 H   0  0  0  0  0  0  0  0  0  0  0  0
   -0.9240    5.0410   -2.0190 H   0  0  0  0  0  0  0  0  0  0  0  0
   -0.7450    3.9150   -3.3970 H   0  0  0  0  0  0  0  0  0  0  0  0
   -3.0220    3.9550   -2.9850 H   0  0  0  0  0  0  0  0  0  0  0  0
   -2.8760    4.0130   -1.3190 H   0  0  0  0  0  0  0  0  0  0  0  0
   -1.7490   -0.8760    1.1170 N   0  0  0  0  0  0  0  0  0  0  0  0
   -3.1290   -1.1750    1.3740 C   0  0  1  0  0  0  0  0  0  0  0  0
   -3.8170   -2.1090    0.4800 C   0  0  0  0  0  0  0  0  0  0  0  0
   -3.3190   -3.4730    0.3490 C   0  0  0  0  0  0  0  0  0  0  0  0
   -2.3010   -4.1870    0.8760 C   0  0  0  0  0  0  0  0  0  0  0  0
   -2.3370   -5.4290    0.3620 N   0  0  0  0  0  0  0  0  0  0  0  0
   -3.3630   -5.5050   -0.4790 C   0  0  0  0  0  0  0  0  0  0  0  0
   -3.9730   -4.3340   -0.5040 N   0  0  0  0  0  0  0  0  0  0  0  0
   -3.4300   -1.3820    2.8040 C   0  0  0  0  0  0  0  0  0  0  0  0
   -4.5940   -1.6790    3.1850 O   0  0  0  0  0  0  0  0  0  0  0  0
   -2.4420   -1.2520    3.7550 O   0  0  0  0  0  0  0  0  0  0  0  0
   -1.0580   -1.5900    1.4230 H   0  0  0  0  0  0  0  0  0  0  0  0
   -3.6410   -0.1620    1.1600 H   0  0  0  0  0  0  0  0  0  0  0  0
   -4.8730   -2.1980    0.8720 H   0  0  0  0  0  0  0  0  0  0  0  0
   -3.9680   -1.6040   -0.5120 H   0  0  0  0  0  0  0  0  0  0  0  0
   -1.5900   -3.8420    1.5780 H   0  0  0  0  0  0  0  0  0  0  0  0
   -1.6850   -6.2370    0.5600 H   0  0  0  0  0  0  0  0  0  0  0  0
   -3.6610   -6.3900   -1.0630 H   0  0  0  0  0  0  0  0  0  0  0  0
  1  8  1  0  0  0  0
  1 10  1  0  0  0  0
  2  1  1  0  0  0  0
  2  4  1  0  0  0  0
  3 12  1  0  0  0  0
  3  2  1  0  0  0  0
  4  5  1  0  0  0  0
  4 15  1  1  0  0  0
  5 17  1  0  0  0  0
  5 16  1  0  0  0  0
  6  7  2  0  0  0  0
  6  4  1  0  0  0  0
  9  1  1  0  0  0  0
 11  2  1  0  0  0  0
 13  3  1  0  0  0  0
 14  3  1  0  0  0  0
 18  6  1  0  0  0  0
 19 25  1  0  0  0  0
 19 28  1  1  0  0  0
 19 18  1  0  0  0  0
 20 19  1  0  0  0  0
 21 22  1  0  0  0  0
 21 20  1  0  0  0  0
 22 34  1  0  0  0  0
 23 24  1  0  0  0  0
 23 35  1  0  0  0  0
 23 22  1  0  0  0  0
 24 38  1  0  0  0  0
 25 39  1  0  0  0  0
 26 25  2  0  0  0  0
 27 18  1  0  0  0  0
 29 20  1  0  0  0  0
 30 20  1  0  0  0  0
 31 21  1  0  0  0  0
 32 21  1  0  0  0  0
 33 22  1  0  0  0  0
 36 23  1  0  0  0  0
 37 24  1  0  0  0  0
 39 40  1  0  0  0  0
 39 50  1  0  0  0  0
 40 51  1  6  0  0  0
 40 47  1  0  0  0  0
 41 52  1  0  0  0  0
 41 40  1  0  0  0  0
 42 41  1  0  0  0  0
 42 43  2  0  0  0  0
 43 54  1  0  0  0  0
 44 55  1  0  0  0  0
 44 43  1  0  0  0  0
 45 44  1  0  0  0  0
 46 45  2  0  0  0  0
 46 42  1  0  0  0  0
 47 48  2  0  0  0  0
 47 49  1  0  0  0  0
 53 41  1  0  0  0  0
 56 45  1  0  0  0  0
M  END
$$$$
