VKI.pdb
 OpenBabel07022419263D

 58 57  0  0  1  0  0  0  0  0999 V2000
    4.4270   -3.2520    1.8680 C   0  0  0  0  0  0  0  0  0  0  0  0
    3.8460   -4.3660    1.0140 C   0  0  0  0  0  0  0  0  0  0  0  0
    3.2680   -5.3940    1.9470 C   0  0  0  0  0  0  0  0  0  0  0  0
    2.8280   -3.8390    0.0320 C   0  0  2  0  0  0  0  0  0  0  0  0
    3.4940   -2.8760   -0.8260 N   0  0  0  0  0  0  0  0  0  0  0  0
    1.6480   -3.2570    0.6910 C   0  0  0  0  0  0  0  0  0  0  0  0
    0.9700   -3.9680    1.4620 O   0  0  0  0  0  0  0  0  0  0  0  0
    4.8430   -3.7610    2.7870 H   0  0  0  0  0  0  0  0  0  0  0  0
    5.2850   -2.7550    1.3950 H   0  0  0  0  0  0  0  0  0  0  0  0
    3.6490   -2.5580    2.2280 H   0  0  0  0  0  0  0  0  0  0  0  0
    4.7040   -4.8360    0.4920 H   0  0  0  0  0  0  0  0  0  0  0  0
    2.7220   -4.9500    2.8060 H   0  0  0  0  0  0  0  0  0  0  0  0
    2.5500   -6.0090    1.3320 H   0  0  0  0  0  0  0  0  0  0  0  0
    4.0900   -6.0460    2.2900 H   0  0  0  0  0  0  0  0  0  0  0  0
    2.5370   -4.7020   -0.6120 H   0  0  0  0  0  0  0  0  0  0  0  0
    4.4470   -3.2260   -1.0720 H   0  0  0  0  0  0  0  0  0  0  0  0
    2.9420   -2.6330   -1.6660 H   0  0  0  0  0  0  0  0  0  0  0  0
    1.2640   -1.9260    0.4780 N   0  0  0  0  0  0  0  0  0  0  0  0
    0.1260   -1.2910    1.0870 C   0  0  1  0  0  0  0  0  0  0  0  0
    0.4780   -0.3660    2.1580 C   0  0  0  0  0  0  0  0  0  0  0  0
    1.3770    0.7760    1.9350 C   0  0  0  0  0  0  0  0  0  0  0  0
    0.9970    1.8600    1.0060 C   0  0  0  0  0  0  0  0  0  0  0  0
   -0.2390    2.5980    1.4260 C   0  0  0  0  0  0  0  0  0  0  0  0
   -0.0040    3.1880    2.7310 N   0  0  0  0  0  0  0  0  0  0  0  0
   -1.0230   -1.1250    0.2120 C   0  0  0  0  0  0  0  0  0  0  0  0
   -0.9930   -1.5890   -0.9890 O   0  0  0  0  0  0  0  0  0  0  0  0
    1.8680   -1.3390   -0.1910 H   0  0  0  0  0  0  0  0  0  0  0  0
   -0.2790   -2.2240    1.7400 H   0  0  0  0  0  0  0  0  0  0  0  0
   -0.4460   -0.0470    2.7210 H   0  0  0  0  0  0  0  0  0  0  0  0
    1.0020   -0.9870    2.9710 H   0  0  0  0  0  0  0  0  0  0  0  0
    2.4250    0.4010    1.7610 H   0  0  0  0  0  0  0  0  0  0  0  0
    1.4940    1.2820    2.9550 H   0  0  0  0  0  0  0  0  0  0  0  0
    1.8210    2.6410    1.0280 H   0  0  0  0  0  0  0  0  0  0  0  0
    1.0020    1.4870   -0.0130 H   0  0  0  0  0  0  0  0  0  0  0  0
   -0.3400    3.4730    0.7190 H   0  0  0  0  0  0  0  0  0  0  0  0
   -1.1650    2.0290    1.4210 H   0  0  0  0  0  0  0  0  0  0  0  0
   -0.4540    4.1240    2.7870 H   0  0  0  0  0  0  0  0  0  0  0  0
   -0.5040    2.5820    3.4230 H   0  0  0  0  0  0  0  0  0  0  0  0
   -1.3720    1.4180   -2.0270 C   0  0  0  0  0  0  0  0  0  0  0  0
   -2.7770    1.0010   -2.2690 C   0  0  0  0  0  0  0  0  0  0  0  0
   -3.6430    0.7870   -1.0900 C   0  0  2  0  0  0  0  0  0  0  0  0
   -3.7290    2.0910   -0.2770 C   0  0  0  0  0  0  0  0  0  0  0  0
   -3.4230   -0.3360   -0.1900 C   0  0  2  0  0  0  0  0  0  0  0  0
   -2.2220   -0.4950    0.5600 N   0  0  0  0  0  0  0  0  0  0  0  0
   -3.8540   -1.6580   -0.8090 C   0  0  0  0  0  0  0  0  0  0  0  0
   -3.2580   -2.7380   -0.6360 O   0  0  0  0  0  0  0  0  0  0  0  0
   -4.9740   -1.7300   -1.6260 O   0  0  0  0  0  0  0  0  0  0  0  0
   -1.0990    1.5020   -0.9820 H   0  0  0  0  0  0  0  0  0  0  0  0
   -1.1070    2.4120   -2.4960 H   0  0  0  0  0  0  0  0  0  0  0  0
   -0.6210    0.7130   -2.4890 H   0  0  0  0  0  0  0  0  0  0  0  0
   -2.8510    0.1230   -2.9780 H   0  0  0  0  0  0  0  0  0  0  0  0
   -3.2410    1.8250   -2.8970 H   0  0  0  0  0  0  0  0  0  0  0  0
   -4.7100    0.7450   -1.5320 H   0  0  0  0  0  0  0  0  0  0  0  0
   -2.7460    2.6050   -0.2730 H   0  0  0  0  0  0  0  0  0  0  0  0
   -3.9460    1.8060    0.7720 H   0  0  0  0  0  0  0  0  0  0  0  0
   -4.5500    2.7390   -0.6070 H   0  0  0  0  0  0  0  0  0  0  0  0
   -4.2400   -0.2770    0.6230 H   0  0  0  0  0  0  0  0  0  0  0  0
   -2.1860   -0.0840    1.5650 H   0  0  0  0  0  0  0  0  0  0  0  0
  1 10  1  0  0  0  0
  1  8  1  0  0  0  0
  2  1  1  0  0  0  0
  2  3  1  0  0  0  0
  3 14  1  0  0  0  0
  3 12  1  0  0  0  0
  4 15  1  6  0  0  0
  4  6  1  0  0  0  0
  4  2  1  0  0  0  0
  5  4  1  0  0  0  0
  6  7  2  0  0  0  0
  9  1  1  0  0  0  0
 11  2  1  0  0  0  0
 13  3  1  0  0  0  0
 16  5  1  0  0  0  0
 17  5  1  0  0  0  0
 18  6  1  0  0  0  0
 18 19  1  0  0  0  0
 19 28  1  1  0  0  0
 19 20  1  0  0  0  0
 20 29  1  0  0  0  0
 20 30  1  0  0  0  0
 21 20  1  0  0  0  0
 21 32  1  0  0  0  0
 22 33  1  0  0  0  0
 22 23  1  0  0  0  0
 22 21  1  0  0  0  0
 23 24  1  0  0  0  0
 24 37  1  0  0  0  0
 24 38  1  0  0  0  0
 25 44  1  0  0  0  0
 25 19  1  0  0  0  0
 26 25  2  0  0  0  0
 27 18  1  0  0  0  0
 31 21  1  0  0  0  0
 34 22  1  0  0  0  0
 35 23  1  0  0  0  0
 36 23  1  0  0  0  0
 39 48  1  0  0  0  0
 40 39  1  0  0  0  0
 40 41  1  0  0  0  0
 41 53  1  6  0  0  0
 41 42  1  0  0  0  0
 41 43  1  0  0  0  0
 42 54  1  0  0  0  0
 42 55  1  0  0  0  0
 43 44  1  0  0  0  0
 43 57  1  1  0  0  0
 44 58  1  0  0  0  0
 45 46  1  0  0  0  0
 45 43  1  0  0  0  0
 47 45  2  0  0  0  0
 49 39  1  0  0  0  0
 50 39  1  0  0  0  0
 51 40  1  0  0  0  0
 52 40  1  0  0  0  0
 56 42  1  0  0  0  0
M  END
$$$$
