VKM.pdb
 OpenBabel07022419263D

 56 55  0  0  1  0  0  0  0  0999 V2000
    4.1110   -1.8920    1.3550 C   0  0  0  0  0  0  0  0  0  0  0  0
    3.4790   -3.2270    1.0590 C   0  0  0  0  0  0  0  0  0  0  0  0
    3.0710   -3.9510    2.3040 C   0  0  0  0  0  0  0  0  0  0  0  0
    2.4570   -3.0890   -0.0060 C   0  0  2  0  0  0  0  0  0  0  0  0
    3.1080   -2.5840   -1.2100 N   0  0  0  0  0  0  0  0  0  0  0  0
    1.2760   -2.2810    0.2540 C   0  0  0  0  0  0  0  0  0  0  0  0
    1.0630   -1.3110   -0.5100 O   0  0  0  0  0  0  0  0  0  0  0  0
    4.2200   -1.8340    2.4750 H   0  0  0  0  0  0  0  0  0  0  0  0
    5.1400   -1.8890    0.9580 H   0  0  0  0  0  0  0  0  0  0  0  0
    3.5040   -1.0430    0.9750 H   0  0  0  0  0  0  0  0  0  0  0  0
    4.3020   -3.8630    0.6130 H   0  0  0  0  0  0  0  0  0  0  0  0
    2.6900   -3.2040    3.0320 H   0  0  0  0  0  0  0  0  0  0  0  0
    2.4360   -4.8170    2.1360 H   0  0  0  0  0  0  0  0  0  0  0  0
    3.9850   -4.3730    2.8270 H   0  0  0  0  0  0  0  0  0  0  0  0
    2.0870   -4.1190   -0.2970 H   0  0  0  0  0  0  0  0  0  0  0  0
    4.0610   -2.9940   -1.3150 H   0  0  0  0  0  0  0  0  0  0  0  0
    3.1200   -1.5480   -1.1620 H   0  0  0  0  0  0  0  0  0  0  0  0
    0.3530   -2.5140    1.3050 N   0  0  0  0  0  0  0  0  0  0  0  0
   -0.7900   -1.6890    1.4900 C   0  0  1  0  0  0  0  0  0  0  0  0
   -0.5610   -0.5430    2.4330 C   0  0  0  0  0  0  0  0  0  0  0  0
    0.4980    0.3930    2.0290 C   0  0  0  0  0  0  0  0  0  0  0  0
    0.7550    1.5250    2.9680 C   0  0  0  0  0  0  0  0  0  0  0  0
   -0.4010    2.4500    3.1950 C   0  0  0  0  0  0  0  0  0  0  0  0
   -1.5610    1.8800    3.7830 N   0  0  0  0  0  0  0  0  0  0  0  0
   -1.5880   -1.3820    0.2940 C   0  0  0  0  0  0  0  0  0  0  0  0
   -1.3150   -1.9350   -0.7910 O   0  0  0  0  0  0  0  0  0  0  0  0
    0.5660   -3.3490    1.9540 H   0  0  0  0  0  0  0  0  0  0  0  0
   -1.5230   -2.3730    2.0850 H   0  0  0  0  0  0  0  0  0  0  0  0
   -1.5130   -0.0390    2.6840 H   0  0  0  0  0  0  0  0  0  0  0  0
   -0.2360   -1.0160    3.4080 H   0  0  0  0  0  0  0  0  0  0  0  0
    0.3510    0.8500    1.0220 H   0  0  0  0  0  0  0  0  0  0  0  0
    1.4990   -0.1390    1.9100 H   0  0  0  0  0  0  0  0  0  0  0  0
    1.6280    2.1580    2.6010 H   0  0  0  0  0  0  0  0  0  0  0  0
    1.1400    1.1280    3.9570 H   0  0  0  0  0  0  0  0  0  0  0  0
   -0.0830    3.4000    3.6890 H   0  0  0  0  0  0  0  0  0  0  0  0
   -0.7210    2.8030    2.1610 H   0  0  0  0  0  0  0  0  0  0  0  0
   -1.4490    1.8630    4.8070 H   0  0  0  0  0  0  0  0  0  0  0  0
   -2.4050    2.3550    3.4510 H   0  0  0  0  0  0  0  0  0  0  0  0
   -0.8520    0.7430   -4.8650 C   0  0  0  0  0  0  0  0  0  0  0  0
   -2.1840    1.8250   -4.2820 S   0  0  0  0  0  0  0  0  0  0  0  0
   -3.3020    0.9320   -3.1510 C   0  0  0  0  0  0  0  0  0  0  0  0
   -2.6140    0.5540   -1.8880 C   0  0  0  0  0  0  0  0  0  0  0  0
   -3.4730   -0.1710   -0.9080 C   0  0  2  0  0  0  0  0  0  0  0  0
   -2.6780   -0.4740    0.2890 N   0  0  0  0  0  0  0  0  0  0  0  0
   -4.0780   -1.4000   -1.4560 C   0  0  0  0  0  0  0  0  0  0  0  0
   -4.8120   -1.4830   -2.4640 O   0  0  0  0  0  0  0  0  0  0  0  0
   -3.8260   -2.6190   -0.8070 O   0  0  0  0  0  0  0  0  0  0  0  0
   -0.6640    0.9790   -5.9230 H   0  0  0  0  0  0  0  0  0  0  0  0
    0.0830    0.8630   -4.3160 H   0  0  0  0  0  0  0  0  0  0  0  0
   -1.1680   -0.3280   -4.8350 H   0  0  0  0  0  0  0  0  0  0  0  0
   -3.7840    0.1240   -3.7060 H   0  0  0  0  0  0  0  0  0  0  0  0
   -4.1110    1.6660   -2.8920 H   0  0  0  0  0  0  0  0  0  0  0  0
   -2.2650    1.4930   -1.3600 H   0  0  0  0  0  0  0  0  0  0  0  0
   -1.6970   -0.0580   -2.0810 H   0  0  0  0  0  0  0  0  0  0  0  0
   -4.2670    0.5420   -0.5800 H   0  0  0  0  0  0  0  0  0  0  0  0
   -2.9080   -0.0050    1.2150 H   0  0  0  0  0  0  0  0  0  0  0  0
  1  8  1  0  0  0  0
  2  1  1  0  0  0  0
  2  3  1  0  0  0  0
  3 14  1  0  0  0  0
  3 12  1  0  0  0  0
  4 15  1  6  0  0  0
  4  6  1  0  0  0  0
  4  2  1  0  0  0  0
  5 17  1  0  0  0  0
  5  4  1  0  0  0  0
  6 18  1  0  0  0  0
  7  6  2  0  0  0  0
  9  1  1  0  0  0  0
 10  1  1  0  0  0  0
 11  2  1  0  0  0  0
 13  3  1  0  0  0  0
 16  5  1  0  0  0  0
 18 19  1  0  0  0  0
 18 27  1  0  0  0  0
 19 28  1  1  0  0  0
 19 20  1  0  0  0  0
 20 29  1  0  0  0  0
 20 30  1  0  0  0  0
 21 20  1  0  0  0  0
 21 22  1  0  0  0  0
 22 23  1  0  0  0  0
 22 34  1  0  0  0  0
 23 35  1  0  0  0  0
 23 24  1  0  0  0  0
 24 37  1  0  0  0  0
 25 19  1  0  0  0  0
 26 25  2  0  0  0  0
 31 21  1  0  0  0  0
 32 21  1  0  0  0  0
 33 22  1  0  0  0  0
 36 23  1  0  0  0  0
 38 24  1  0  0  0  0
 39 50  1  0  0  0  0
 39 49  1  0  0  0  0
 39 40  1  0  0  0  0
 40 41  1  0  0  0  0
 41 52  1  0  0  0  0
 41 42  1  0  0  0  0
 42 53  1  0  0  0  0
 42 43  1  0  0  0  0
 43 55  1  1  0  0  0
 43 44  1  0  0  0  0
 44 25  1  0  0  0  0
 44 56  1  0  0  0  0
 45 43  1  0  0  0  0
 45 47  1  0  0  0  0
 46 45  2  0  0  0  0
 48 39  1  0  0  0  0
 51 41  1  0  0  0  0
 54 42  1  0  0  0  0
M  END
$$$$
