VKN.pdb
 OpenBabel07022419263D

 53 52  0  0  1  0  0  0  0  0999 V2000
    2.0220   -4.5610    2.4760 C   0  0  0  0  0  0  0  0  0  0  0  0
    3.1590   -3.6100    2.2630 C   0  0  0  0  0  0  0  0  0  0  0  0
    3.4370   -3.4280    0.8140 C   0  0  0  0  0  0  0  0  0  0  0  0
    3.0020   -2.3250    3.0450 C   0  0  2  0  0  0  0  0  0  0  0  0
    2.9510   -2.7480    4.4580 N   0  0  0  0  0  0  0  0  0  0  0  0
    1.7710   -1.5830    2.7420 C   0  0  0  0  0  0  0  0  0  0  0  0
    0.8680   -1.4460    3.6380 O   0  0  0  0  0  0  0  0  0  0  0  0
    1.0480   -4.0710    2.2350 H   0  0  0  0  0  0  0  0  0  0  0  0
    2.1800   -5.4170    1.7730 H   0  0  0  0  0  0  0  0  0  0  0  0
    1.9980   -4.9610    3.5150 H   0  0  0  0  0  0  0  0  0  0  0  0
    4.0680   -4.1050    2.7030 H   0  0  0  0  0  0  0  0  0  0  0  0
    2.5480   -3.3710    0.1600 H   0  0  0  0  0  0  0  0  0  0  0  0
    4.1010   -2.5550    0.6790 H   0  0  0  0  0  0  0  0  0  0  0  0
    3.9790   -4.3590    0.4700 H   0  0  0  0  0  0  0  0  0  0  0  0
    3.8920   -1.7100    2.9240 H   0  0  0  0  0  0  0  0  0  0  0  0
    1.9810   -3.1520    4.5890 H   0  0  0  0  0  0  0  0  0  0  0  0
    3.5980   -3.5670    4.5690 H   0  0  0  0  0  0  0  0  0  0  0  0
    1.4930   -0.9830    1.4840 N   0  0  0  0  0  0  0  0  0  0  0  0
    0.2570   -0.2660    1.2520 C   0  0  1  0  0  0  0  0  0  0  0  0
    0.4850    1.1940    0.9610 C   0  0  0  0  0  0  0  0  0  0  0  0
    1.3180    1.4590   -0.2360 C   0  0  0  0  0  0  0  0  0  0  0  0
    1.5750    2.9050   -0.5490 C   0  0  0  0  0  0  0  0  0  0  0  0
    0.3970    3.7540   -0.8160 C   0  0  0  0  0  0  0  0  0  0  0  0
   -0.5620    3.8800    0.2340 N   0  0  0  0  0  0  0  0  0  0  0  0
   -0.5930   -0.9350    0.2400 C   0  0  0  0  0  0  0  0  0  0  0  0
   -0.2680   -1.9970   -0.3490 O   0  0  0  0  0  0  0  0  0  0  0  0
    2.2250   -1.0740    0.7140 H   0  0  0  0  0  0  0  0  0  0  0  0
   -0.3150   -0.2890    2.2010 H   0  0  0  0  0  0  0  0  0  0  0  0
   -0.5360    1.6350    0.8830 H   0  0  0  0  0  0  0  0  0  0  0  0
    0.9360    1.6320    1.8750 H   0  0  0  0  0  0  0  0  0  0  0  0
    0.9920    0.9150   -1.1470 H   0  0  0  0  0  0  0  0  0  0  0  0
    2.3400    1.0200   -0.0210 H   0  0  0  0  0  0  0  0  0  0  0  0
    2.2380    2.8970   -1.4650 H   0  0  0  0  0  0  0  0  0  0  0  0
    2.1940    3.4070    0.2250 H   0  0  0  0  0  0  0  0  0  0  0  0
   -0.1600    3.4980   -1.7420 H   0  0  0  0  0  0  0  0  0  0  0  0
    0.7880    4.7970   -1.0110 H   0  0  0  0  0  0  0  0  0  0  0  0
   -0.2630    4.5160    1.0050 H   0  0  0  0  0  0  0  0  0  0  0  0
   -1.5080    4.1150   -0.1420 H   0  0  0  0  0  0  0  0  0  0  0  0
   -6.3790   -2.1550   -1.0070 N   0  0  0  0  0  0  0  0  0  0  0  0
   -5.0160   -1.9760   -1.3830 C   0  0  0  0  0  0  0  0  0  0  0  0
   -4.6990   -2.4370   -2.5140 O   0  0  0  0  0  0  0  0  0  0  0  0
   -4.0590   -1.2950   -0.4950 C   0  0  0  0  0  0  0  0  0  0  0  0
   -2.7340   -0.9930   -1.1010 C   0  0  2  0  0  0  0  0  0  0  0  0
   -1.8450   -0.3740   -0.1030 N   0  0  0  0  0  0  0  0  0  0  0  0
   -2.9050   -0.0400   -2.2270 C   0  0  0  0  0  0  0  0  0  0  0  0
   -2.3690    1.1000   -2.2350 O   0  0  0  0  0  0  0  0  0  0  0  0
   -3.6570   -0.3580   -3.3210 O   0  0  0  0  0  0  0  0  0  0  0  0
   -6.6190   -2.4510   -0.0510 H   0  0  0  0  0  0  0  0  0  0  0  0
   -7.1130   -1.9840   -1.7040 H   0  0  0  0  0  0  0  0  0  0  0  0
   -4.5680   -0.3290   -0.1820 H   0  0  0  0  0  0  0  0  0  0  0  0
   -3.9440   -1.8770    0.4700 H   0  0  0  0  0  0  0  0  0  0  0  0
   -2.2520   -1.8930   -1.4830 H   0  0  0  0  0  0  0  0  0  0  0  0
   -2.1430    0.4990    0.3640 H   0  0  0  0  0  0  0  0  0  0  0  0
  1 10  1  0  0  0  0
  2  1  1  0  0  0  0
  2 11  1  0  0  0  0
  2  4  1  0  0  0  0
  3  2  1  0  0  0  0
  4 15  1  6  0  0  0
  4  5  1  0  0  0  0
  5 17  1  0  0  0  0
  5 16  1  0  0  0  0
  6  4  1  0  0  0  0
  6  7  2  0  0  0  0
  8  1  1  0  0  0  0
  9  1  1  0  0  0  0
 12  3  1  0  0  0  0
 13  3  1  0  0  0  0
 14  3  1  0  0  0  0
 18  6  1  0  0  0  0
 19 18  1  0  0  0  0
 19 28  1  1  0  0  0
 20 19  1  0  0  0  0
 20 30  1  0  0  0  0
 21 32  1  0  0  0  0
 21 20  1  0  0  0  0
 22 21  1  0  0  0  0
 22 34  1  0  0  0  0
 23 22  1  0  0  0  0
 23 24  1  0  0  0  0
 24 37  1  0  0  0  0
 25 19  1  0  0  0  0
 26 25  2  0  0  0  0
 27 18  1  0  0  0  0
 29 20  1  0  0  0  0
 31 21  1  0  0  0  0
 33 22  1  0  0  0  0
 35 23  1  0  0  0  0
 36 23  1  0  0  0  0
 38 24  1  0  0  0  0
 39 48  1  0  0  0  0
 40 39  1  0  0  0  0
 40 42  1  0  0  0  0
 41 40  2  0  0  0  0
 42 50  1  0  0  0  0
 42 51  1  0  0  0  0
 43 52  1  6  0  0  0
 43 42  1  0  0  0  0
 43 44  1  0  0  0  0
 44 25  1  0  0  0  0
 44 53  1  0  0  0  0
 45 43  1  0  0  0  0
 46 45  1  0  0  0  0
 47 45  2  0  0  0  0
 49 39  1  0  0  0  0
M  END
$$$$
