VKP.pdb
 OpenBabel07022419263D

 53 53  0  0  1  0  0  0  0  0999 V2000
    0.8030   -4.6970    3.6860 C   0  0  0  0  0  0  0  0  0  0  0  0
    1.7810   -3.5620    3.8080 C   0  0  0  0  0  0  0  0  0  0  0  0
    1.0740   -2.3900    4.4340 C   0  0  0  0  0  0  0  0  0  0  0  0
    2.3410   -3.1650    2.4360 C   0  0  2  0  0  0  0  0  0  0  0  0
    3.2670   -2.0680    2.6840 N   0  0  0  0  0  0  0  0  0  0  0  0
    1.2420   -2.7210    1.5440 C   0  0  0  0  0  0  0  0  0  0  0  0
    0.3490   -3.5300    1.2190 O   0  0  0  0  0  0  0  0  0  0  0  0
    0.9230   -5.3490    4.5760 H   0  0  0  0  0  0  0  0  0  0  0  0
    0.9980   -5.3290    2.7960 H   0  0  0  0  0  0  0  0  0  0  0  0
   -0.2670   -4.3430    3.7080 H   0  0  0  0  0  0  0  0  0  0  0  0
    2.6170   -3.8600    4.4520 H   0  0  0  0  0  0  0  0  0  0  0  0
    1.7410   -1.8590    5.1460 H   0  0  0  0  0  0  0  0  0  0  0  0
    0.2290   -2.7850    5.0540 H   0  0  0  0  0  0  0  0  0  0  0  0
    0.6690   -1.6820    3.6930 H   0  0  0  0  0  0  0  0  0  0  0  0
    2.9270   -3.9890    2.0190 H   0  0  0  0  0  0  0  0  0  0  0  0
    3.9590   -2.3610    3.4020 H   0  0  0  0  0  0  0  0  0  0  0  0
    2.6900   -1.3060    3.1210 H   0  0  0  0  0  0  0  0  0  0  0  0
    1.1510   -1.3990    1.0290 N   0  0  0  0  0  0  0  0  0  0  0  0
    0.0450   -0.9960    0.1470 C   0  0  1  0  0  0  0  0  0  0  0  0
   -0.7590    0.0620    0.9220 C   0  0  0  0  0  0  0  0  0  0  0  0
    0.0720    1.2500    1.2610 C   0  0  0  0  0  0  0  0  0  0  0  0
   -0.7530    2.2490    2.0240 C   0  0  0  0  0  0  0  0  0  0  0  0
   -1.9310    2.7190    1.2100 C   0  0  0  0  0  0  0  0  0  0  0  0
   -2.7190    3.7050    1.9550 N   0  0  0  0  0  0  0  0  0  0  0  0
    0.5850   -0.4630   -1.1280 C   0  0  0  0  0  0  0  0  0  0  0  0
    1.8560   -0.2450   -1.1960 O   0  0  0  0  0  0  0  0  0  0  0  0
    1.8980   -0.7290    1.3000 H   0  0  0  0  0  0  0  0  0  0  0  0
   -0.6500   -1.8040   -0.0810 H   0  0  0  0  0  0  0  0  0  0  0  0
   -1.0850   -0.4890    1.8560 H   0  0  0  0  0  0  0  0  0  0  0  0
   -1.6390    0.3220    0.3400 H   0  0  0  0  0  0  0  0  0  0  0  0
    1.0010    1.0040    1.8060 H   0  0  0  0  0  0  0  0  0  0  0  0
    0.3960    1.7810    0.3180 H   0  0  0  0  0  0  0  0  0  0  0  0
   -1.1960    1.6840    2.8950 H   0  0  0  0  0  0  0  0  0  0  0  0
   -0.1440    3.1050    2.3810 H   0  0  0  0  0  0  0  0  0  0  0  0
   -2.6590    1.8750    1.0420 H   0  0  0  0  0  0  0  0  0  0  0  0
   -1.6550    3.0970    0.2080 H   0  0  0  0  0  0  0  0  0  0  0  0
   -3.7290    3.6660    1.7050 H   0  0  0  0  0  0  0  0  0  0  0  0
   -2.5330    3.6450    2.9780 H   0  0  0  0  0  0  0  0  0  0  0  0
   -0.2110   -0.1850   -2.2680 N   0  0  0  0  0  0  0  0  0  0  0  0
    0.4240    0.3760   -3.4840 C   0  0  0  0  0  0  0  0  0  0  0  0
   -0.6010    0.3010   -4.5650 C   0  0  0  0  0  0  0  0  0  0  0  0
   -1.8790    0.4750   -3.7880 C   0  0  0  0  0  0  0  0  0  0  0  0
   -1.6040   -0.3660   -2.5560 C   0  0  1  0  0  0  0  0  0  0  0  0
   -1.9210   -1.8080   -2.8320 C   0  0  0  0  0  0  0  0  0  0  0  0
   -3.0850   -2.1690   -3.1040 O   0  0  0  0  0  0  0  0  0  0  0  0
   -0.9050   -2.7400   -2.7810 O   0  0  0  0  0  0  0  0  0  0  0  0
    1.3210   -0.2330   -3.7570 H   0  0  0  0  0  0  0  0  0  0  0  0
    0.7050    1.4210   -3.2990 H   0  0  0  0  0  0  0  0  0  0  0  0
   -0.6310   -0.6950   -5.0580 H   0  0  0  0  0  0  0  0  0  0  0  0
   -0.4840    1.1180   -5.3090 H   0  0  0  0  0  0  0  0  0  0  0  0
   -2.7790    0.1780   -4.3260 H   0  0  0  0  0  0  0  0  0  0  0  0
   -1.9660    1.5370   -3.4550 H   0  0  0  0  0  0  0  0  0  0  0  0
   -2.3130   -0.0430   -1.8000 H   0  0  0  0  0  0  0  0  0  0  0  0
  1 10  1  0  0  0  0
  1  2  1  0  0  0  0
  1  8  1  0  0  0  0
  2  3  1  0  0  0  0
  2 11  1  0  0  0  0
  3 13  1  0  0  0  0
  3 12  1  0  0  0  0
  4 15  1  6  0  0  0
  4  5  1  0  0  0  0
  4  2  1  0  0  0  0
  5 17  1  0  0  0  0
  5 16  1  0  0  0  0
  6  4  1  0  0  0  0
  7  6  2  0  0  0  0
  9  1  1  0  0  0  0
 14  3  1  0  0  0  0
 18 27  1  0  0  0  0
 18  6  1  0  0  0  0
 19 28  1  6  0  0  0
 19 20  1  0  0  0  0
 19 18  1  0  0  0  0
 20 21  1  0  0  0  0
 20 29  1  0  0  0  0
 21 31  1  0  0  0  0
 21 22  1  0  0  0  0
 22 34  1  0  0  0  0
 22 33  1  0  0  0  0
 23 24  1  0  0  0  0
 23 22  1  0  0  0  0
 24 38  1  0  0  0  0
 25 19  1  0  0  0  0
 26 25  2  0  0  0  0
 30 20  1  0  0  0  0
 32 21  1  0  0  0  0
 35 23  1  0  0  0  0
 36 23  1  0  0  0  0
 37 24  1  0  0  0  0
 39 25  1  0  0  0  0
 40 48  1  0  0  0  0
 40 39  1  0  0  0  0
 41 42  1  0  0  0  0
 41 40  1  0  0  0  0
 42 52  1  0  0  0  0
 42 43  1  0  0  0  0
 43 39  1  0  0  0  0
 43 53  1  1  0  0  0
 44 46  1  0  0  0  0
 44 43  1  0  0  0  0
 45 44  2  0  0  0  0
 47 40  1  0  0  0  0
 49 41  1  0  0  0  0
 50 41  1  0  0  0  0
 51 42  1  0  0  0  0
M  END
$$$$
