VKQ.pdb
 OpenBabel07022419263D

 56 55  0  0  1  0  0  0  0  0999 V2000
    1.8390   -4.0590    1.4770 C   0  0  0  0  0  0  0  0  0  0  0  0
    2.8620   -3.4550    0.5780 C   0  0  0  0  0  0  0  0  0  0  0  0
    2.4660   -3.3560   -0.8690 C   0  0  0  0  0  0  0  0  0  0  0  0
    3.4990   -2.1940    1.1050 C   0  0  2  0  0  0  0  0  0  0  0  0
    4.1910   -2.4950    2.3760 N   0  0  0  0  0  0  0  0  0  0  0  0
    2.5570   -1.0930    1.3830 C   0  0  0  0  0  0  0  0  0  0  0  0
    2.5000   -0.5840    2.5620 O   0  0  0  0  0  0  0  0  0  0  0  0
    1.0690   -4.5550    0.8380 H   0  0  0  0  0  0  0  0  0  0  0  0
    2.2380   -4.8570    2.1410 H   0  0  0  0  0  0  0  0  0  0  0  0
    1.3670   -3.3130    2.1680 H   0  0  0  0  0  0  0  0  0  0  0  0
    3.7270   -4.2070    0.5770 H   0  0  0  0  0  0  0  0  0  0  0  0
    1.4010   -3.1670   -1.0510 H   0  0  0  0  0  0  0  0  0  0  0  0
    2.7730   -4.2800   -1.4110 H   0  0  0  0  0  0  0  0  0  0  0  0
    3.1200   -2.5490   -1.3150 H   0  0  0  0  0  0  0  0  0  0  0  0
    4.3010   -1.9140    0.3930 H   0  0  0  0  0  0  0  0  0  0  0  0
    4.7710   -1.6210    2.5560 H   0  0  0  0  0  0  0  0  0  0  0  0
    4.9070   -3.2550    2.1800 H   0  0  0  0  0  0  0  0  0  0  0  0
    1.6700   -0.5020    0.4690 N   0  0  0  0  0  0  0  0  0  0  0  0
    0.7620    0.6010    0.8170 C   0  0  1  0  0  0  0  0  0  0  0  0
    1.0880    1.8300    0.0070 C   0  0  0  0  0  0  0  0  0  0  0  0
    0.2340    3.0090    0.2860 C   0  0  0  0  0  0  0  0  0  0  0  0
    0.3070    3.4870    1.7140 C   0  0  0  0  0  0  0  0  0  0  0  0
   -0.5850    4.6900    1.9440 C   0  0  0  0  0  0  0  0  0  0  0  0
   -0.4830    5.1130    3.3250 N   0  0  0  0  0  0  0  0  0  0  0  0
   -0.6450    0.1760    0.6670 C   0  0  0  0  0  0  0  0  0  0  0  0
   -1.6020    0.9470    0.8900 O   0  0  0  0  0  0  0  0  0  0  0  0
    1.6480   -0.8570   -0.5090 H   0  0  0  0  0  0  0  0  0  0  0  0
    0.9880    0.8440    1.8800 H   0  0  0  0  0  0  0  0  0  0  0  0
    0.9120    1.5430   -1.0680 H   0  0  0  0  0  0  0  0  0  0  0  0
    2.1590    2.0490    0.0820 H   0  0  0  0  0  0  0  0  0  0  0  0
    0.6650    3.8570   -0.3270 H   0  0  0  0  0  0  0  0  0  0  0  0
   -0.7950    2.9060   -0.0710 H   0  0  0  0  0  0  0  0  0  0  0  0
    1.3310    3.8010    1.9960 H   0  0  0  0  0  0  0  0  0  0  0  0
   -0.0820    2.6770    2.3610 H   0  0  0  0  0  0  0  0  0  0  0  0
   -0.2790    5.4920    1.2680 H   0  0  0  0  0  0  0  0  0  0  0  0
   -1.6600    4.3970    1.7940 H   0  0  0  0  0  0  0  0  0  0  0  0
   -0.3940    6.1470    3.4250 H   0  0  0  0  0  0  0  0  0  0  0  0
   -1.2970    4.7990    3.9040 H   0  0  0  0  0  0  0  0  0  0  0  0
   -4.9820   -3.3720   -3.7530 N   0  0  0  0  0  0  0  0  0  0  0  0
   -3.8020   -2.8700   -3.1640 C   0  0  0  0  0  0  0  0  0  0  0  0
   -2.7680   -2.7280   -3.8470 O   0  0  0  0  0  0  0  0  0  0  0  0
   -3.7920   -2.5080   -1.7280 C   0  0  0  0  0  0  0  0  0  0  0  0
   -2.4380   -2.0060   -1.3550 C   0  0  0  0  0  0  0  0  0  0  0  0
   -2.3360   -1.6040    0.0970 C   0  0  2  0  0  0  0  0  0  0  0  0
   -0.9460   -1.1430    0.2580 N   0  0  0  0  0  0  0  0  0  0  0  0
   -2.6110   -2.7020    1.0240 C   0  0  0  0  0  0  0  0  0  0  0  0
   -1.6950   -3.1170    1.7850 O   0  0  0  0  0  0  0  0  0  0  0  0
   -3.8340   -3.3390    1.1350 O   0  0  0  0  0  0  0  0  0  0  0  0
   -5.4740   -4.2200   -3.3920 H   0  0  0  0  0  0  0  0  0  0  0  0
   -5.4390   -2.9240   -4.5930 H   0  0  0  0  0  0  0  0  0  0  0  0
   -4.5830   -1.7980   -1.4600 H   0  0  0  0  0  0  0  0  0  0  0  0
   -3.9440   -3.4750   -1.1700 H   0  0  0  0  0  0  0  0  0  0  0  0
   -2.1130   -1.1320   -1.9670 H   0  0  0  0  0  0  0  0  0  0  0  0
   -1.6410   -2.7760   -1.5170 H   0  0  0  0  0  0  0  0  0  0  0  0
   -2.9970   -0.7490    0.3480 H   0  0  0  0  0  0  0  0  0  0  0  0
   -0.1510   -1.7800    0.0770 H   0  0  0  0  0  0  0  0  0  0  0  0
  1  9  1  0  0  0  0
  1 10  1  0  0  0  0
  2  4  1  0  0  0  0
  2  1  1  0  0  0  0
  3  2  1  0  0  0  0
  4 15  1  6  0  0  0
  4  6  1  0  0  0  0
  4  5  1  0  0  0  0
  5 16  1  0  0  0  0
  6  7  2  0  0  0  0
  8  1  1  0  0  0  0
 11  2  1  0  0  0  0
 12  3  1  0  0  0  0
 13  3  1  0  0  0  0
 14  3  1  0  0  0  0
 17  5  1  0  0  0  0
 18 19  1  0  0  0  0
 18  6  1  0  0  0  0
 19 28  1  1  0  0  0
 20 30  1  0  0  0  0
 20 21  1  0  0  0  0
 20 19  1  0  0  0  0
 21 22  1  0  0  0  0
 22 23  1  0  0  0  0
 22 33  1  0  0  0  0
 22 34  1  0  0  0  0
 23 24  1  0  0  0  0
 24 37  1  0  0  0  0
 24 38  1  0  0  0  0
 25 19  1  0  0  0  0
 25 26  2  0  0  0  0
 27 18  1  0  0  0  0
 29 20  1  0  0  0  0
 31 21  1  0  0  0  0
 32 21  1  0  0  0  0
 35 23  1  0  0  0  0
 36 23  1  0  0  0  0
 39 49  1  0  0  0  0
 39 40  1  0  0  0  0
 40 42  1  0  0  0  0
 41 40  2  0  0  0  0
 42 51  1  0  0  0  0
 42 43  1  0  0  0  0
 42 52  1  0  0  0  0
 43 44  1  0  0  0  0
 44 45  1  0  0  0  0
 44 55  1  1  0  0  0
 44 46  1  0  0  0  0
 45 25  1  0  0  0  0
 46 48  2  0  0  0  0
 46 47  1  0  0  0  0
 50 39  1  0  0  0  0
 53 43  1  0  0  0  0
 54 43  1  0  0  0  0
 56 45  1  0  0  0  0
M  END
$$$$
