VKS.pdb
 OpenBabel07022419263D

 50 49  0  0  1  0  0  0  0  0999 V2000
   -0.6800   -5.7550    2.1530 C   0  0  0  0  0  0  0  0  0  0  0  0
   -0.2550   -4.3060    2.2110 C   0  0  0  0  0  0  0  0  0  0  0  0
   -1.4160   -3.4380    1.8750 C   0  0  0  0  0  0  0  0  0  0  0  0
    0.9510   -4.1160    1.3140 C   0  0  2  0  0  0  0  0  0  0  0  0
    1.9740   -5.0030    1.8700 N   0  0  0  0  0  0  0  0  0  0  0  0
    1.4180   -2.7180    1.2740 C   0  0  0  0  0  0  0  0  0  0  0  0
    2.4700   -2.4540    1.9230 O   0  0  0  0  0  0  0  0  0  0  0  0
    0.1570   -6.4230    2.5170 H   0  0  0  0  0  0  0  0  0  0  0  0
   -1.5540   -5.9620    2.7950 H   0  0  0  0  0  0  0  0  0  0  0  0
   -0.9410   -6.0820    1.1300 H   0  0  0  0  0  0  0  0  0  0  0  0
    0.0230   -4.1270    3.2880 H   0  0  0  0  0  0  0  0  0  0  0  0
   -2.2440   -3.7350    2.5810 H   0  0  0  0  0  0  0  0  0  0  0  0
   -1.2140   -2.3600    2.0550 H   0  0  0  0  0  0  0  0  0  0  0  0
   -1.7930   -3.6330    0.8540 H   0  0  0  0  0  0  0  0  0  0  0  0
    0.6880   -4.5100    0.3160 H   0  0  0  0  0  0  0  0  0  0  0  0
    2.2210   -5.7790    1.2370 H   0  0  0  0  0  0  0  0  0  0  0  0
    2.8260   -4.4970    2.1290 H   0  0  0  0  0  0  0  0  0  0  0  0
    0.7970   -1.6580    0.5760 N   0  0  0  0  0  0  0  0  0  0  0  0
    1.3500   -0.2670    0.5950 C   0  0  1  0  0  0  0  0  0  0  0  0
    2.0730   -0.0740   -0.6650 C   0  0  0  0  0  0  0  0  0  0  0  0
    2.7570    1.0620   -1.1940 C   0  0  0  0  0  0  0  0  0  0  0  0
    2.1920    2.2950   -1.7120 C   0  0  0  0  0  0  0  0  0  0  0  0
    1.3650    3.2330   -0.9540 C   0  0  0  0  0  0  0  0  0  0  0  0
    0.9830    4.4080   -1.7680 N   0  0  0  0  0  0  0  0  0  0  0  0
    0.3770    0.6510    1.1040 C   0  0  0  0  0  0  0  0  0  0  0  0
    0.6840    1.7700    1.6610 O   0  0  0  0  0  0  0  0  0  0  0  0
   -0.0600   -1.8600    0.0290 H   0  0  0  0  0  0  0  0  0  0  0  0
    2.1570   -0.3570    1.4010 H   0  0  0  0  0  0  0  0  0  0  0  0
    1.3420   -0.4470   -1.5060 H   0  0  0  0  0  0  0  0  0  0  0  0
    2.8200   -0.9950   -0.6830 H   0  0  0  0  0  0  0  0  0  0  0  0
    3.6080    1.4020   -0.4480 H   0  0  0  0  0  0  0  0  0  0  0  0
    3.4100    0.6490   -2.0850 H   0  0  0  0  0  0  0  0  0  0  0  0
    1.6540    2.0050   -2.7070 H   0  0  0  0  0  0  0  0  0  0  0  0
    3.0380    2.9500   -2.1800 H   0  0  0  0  0  0  0  0  0  0  0  0
    0.3630    2.7470   -0.7780 H   0  0  0  0  0  0  0  0  0  0  0  0
    1.7640    3.5620    0.0120 H   0  0  0  0  0  0  0  0  0  0  0  0
    1.8850    4.9020   -1.9590 H   0  0  0  0  0  0  0  0  0  0  0  0
    0.4430    5.0180   -1.1130 H   0  0  0  0  0  0  0  0  0  0  0  0
   -3.3160    0.7890   -0.2880 O   0  0  0  0  0  0  0  0  0  0  0  0
   -2.7160    1.8980    0.3070 C   0  0  0  0  0  0  0  0  0  0  0  0
   -1.9890    1.3560    1.5540 C   0  0  2  0  0  0  0  0  0  0  0  0
   -1.0400    0.3940    1.0290 N   0  0  0  0  0  0  0  0  0  0  0  0
   -3.0510    0.7550    2.3900 C   0  0  0  0  0  0  0  0  0  0  0  0
   -3.9450    1.4900    2.9350 O   0  0  0  0  0  0  0  0  0  0  0  0
   -3.1830   -0.5970    2.6560 O   0  0  0  0  0  0  0  0  0  0  0  0
   -3.9510    1.0410   -0.9980 H   0  0  0  0  0  0  0  0  0  0  0  0
   -1.9570    2.2790   -0.4020 H   0  0  0  0  0  0  0  0  0  0  0  0
   -3.4350    2.6530    0.6340 H   0  0  0  0  0  0  0  0  0  0  0  0
   -1.4430    2.1880    2.0480 H   0  0  0  0  0  0  0  0  0  0  0  0
   -1.3620   -0.4830    0.5940 H   0  0  0  0  0  0  0  0  0  0  0  0
  1  2  1  0  0  0  0
  1  8  1  0  0  0  0
  1  9  1  0  0  0  0
  2 11  1  0  0  0  0
  3 13  1  0  0  0  0
  3  2  1  0  0  0  0
  3 12  1  0  0  0  0
  4 15  1  6  0  0  0
  4  5  1  0  0  0  0
  4  2  1  0  0  0  0
  5 17  1  0  0  0  0
  6  4  1  0  0  0  0
  6  7  2  0  0  0  0
 10  1  1  0  0  0  0
 14  3  1  0  0  0  0
 16  5  1  0  0  0  0
 18 19  1  0  0  0  0
 18  6  1  0  0  0  0
 19 25  1  0  0  0  0
 19 28  1  1  0  0  0
 20 19  1  0  0  0  0
 21 20  1  0  0  0  0
 21 31  1  0  0  0  0
 22 21  1  0  0  0  0
 22 23  1  0  0  0  0
 23 35  1  0  0  0  0
 23 36  1  0  0  0  0
 24 38  1  0  0  0  0
 24 23  1  0  0  0  0
 25 26  2  0  0  0  0
 27 18  1  0  0  0  0
 29 20  1  0  0  0  0
 30 20  1  0  0  0  0
 32 21  1  0  0  0  0
 33 22  1  0  0  0  0
 34 22  1  0  0  0  0
 37 24  1  0  0  0  0
 39 40  1  0  0  0  0
 40 48  1  0  0  0  0
 40 41  1  0  0  0  0
 41 49  1  1  0  0  0
 41 43  1  0  0  0  0
 42 25  1  0  0  0  0
 42 41  1  0  0  0  0
 43 45  2  0  0  0  0
 43 44  1  0  0  0  0
 46 39  1  0  0  0  0
 47 40  1  0  0  0  0
 50 42  1  0  0  0  0
M  END
$$$$
