VKT.pdb
 OpenBabel07022419263D

 53 52  0  0  1  0  0  0  0  0999 V2000
    0.1770   -4.8410    2.1490 C   0  0  0  0  0  0  0  0  0  0  0  0
    0.9660   -3.9300    3.0410 C   0  0  0  0  0  0  0  0  0  0  0  0
    1.7220   -4.7670    4.0490 C   0  0  0  0  0  0  0  0  0  0  0  0
    0.1110   -2.9020    3.7430 C   0  0  2  0  0  0  0  0  0  0  0  0
   -0.8790   -3.5580    4.5690 N   0  0  0  0  0  0  0  0  0  0  0  0
   -0.5670   -1.9950    2.7960 C   0  0  0  0  0  0  0  0  0  0  0  0
   -1.8160   -1.9150    2.8250 O   0  0  0  0  0  0  0  0  0  0  0  0
    0.7430   -5.8120    2.0920 H   0  0  0  0  0  0  0  0  0  0  0  0
   -0.8190   -5.1010    2.5360 H   0  0  0  0  0  0  0  0  0  0  0  0
    0.1560   -4.4630    1.0980 H   0  0  0  0  0  0  0  0  0  0  0  0
    1.7290   -3.4300    2.4120 H   0  0  0  0  0  0  0  0  0  0  0  0
    2.5770   -5.2520    3.5120 H   0  0  0  0  0  0  0  0  0  0  0  0
    2.1300   -4.1430    4.8720 H   0  0  0  0  0  0  0  0  0  0  0  0
    1.0940   -5.5640    4.4640 H   0  0  0  0  0  0  0  0  0  0  0  0
    0.7950   -2.3290    4.4140 H   0  0  0  0  0  0  0  0  0  0  0  0
   -1.7900   -3.6660    4.0400 H   0  0  0  0  0  0  0  0  0  0  0  0
   -1.0860   -2.9650    5.3900 H   0  0  0  0  0  0  0  0  0  0  0  0
    0.1250   -1.2000    1.8430 N   0  0  0  0  0  0  0  0  0  0  0  0
   -0.5490   -0.3160    0.9210 C   0  0  1  0  0  0  0  0  0  0  0  0
   -0.2020    1.1280    1.1580 C   0  0  0  0  0  0  0  0  0  0  0  0
    1.2760    1.3940    1.0060 C   0  0  0  0  0  0  0  0  0  0  0  0
    1.5800    2.8360    1.2480 C   0  0  0  0  0  0  0  0  0  0  0  0
    0.8820    3.7670    0.3120 C   0  0  0  0  0  0  0  0  0  0  0  0
    1.2480    5.1330    0.6370 N   0  0  0  0  0  0  0  0  0  0  0  0
   -0.3300   -0.7530   -0.4570 C   0  0  0  0  0  0  0  0  0  0  0  0
    0.3700   -1.7760   -0.6710 O   0  0  0  0  0  0  0  0  0  0  0  0
    1.1810   -1.2410    1.7890 H   0  0  0  0  0  0  0  0  0  0  0  0
   -1.6550   -0.4060    1.1260 H   0  0  0  0  0  0  0  0  0  0  0  0
   -0.4760    1.3710    2.2010 H   0  0  0  0  0  0  0  0  0  0  0  0
   -0.8110    1.7480    0.4990 H   0  0  0  0  0  0  0  0  0  0  0  0
    1.7930    0.7770    1.7650 H   0  0  0  0  0  0  0  0  0  0  0  0
    1.6710    1.1090    0.0280 H   0  0  0  0  0  0  0  0  0  0  0  0
    2.6810    2.9990    1.1250 H   0  0  0  0  0  0  0  0  0  0  0  0
    1.3460    3.1480    2.2800 H   0  0  0  0  0  0  0  0  0  0  0  0
    1.1820    3.6110   -0.7560 H   0  0  0  0  0  0  0  0  0  0  0  0
   -0.2110    3.6980    0.3420 H   0  0  0  0  0  0  0  0  0  0  0  0
    0.4320    5.7650    0.4970 H   0  0  0  0  0  0  0  0  0  0  0  0
    1.5520    5.2200    1.6170 H   0  0  0  0  0  0  0  0  0  0  0  0
   -2.5490   -2.0870   -2.6550 C   0  0  0  0  0  0  0  0  0  0  0  0
   -2.0050   -0.9460   -3.5090 C   0  0  1  0  0  0  0  0  0  0  0  0
   -2.8530    0.1470   -3.4720 O   0  0  0  0  0  0  0  0  0  0  0  0
   -0.6380   -0.5320   -2.9480 C   0  0  2  0  0  0  0  0  0  0  0  0
   -0.8580   -0.0970   -1.6020 N   0  0  0  0  0  0  0  0  0  0  0  0
   -0.1200    0.5440   -3.8240 C   0  0  0  0  0  0  0  0  0  0  0  0
    0.0680    1.6780   -3.3250 O   0  0  0  0  0  0  0  0  0  0  0  0
    0.1690    0.3660   -5.1630 O   0  0  0  0  0  0  0  0  0  0  0  0
   -2.5430   -1.8320   -1.5740 H   0  0  0  0  0  0  0  0  0  0  0  0
   -3.5970   -2.2490   -2.9970 H   0  0  0  0  0  0  0  0  0  0  0  0
   -1.9760   -2.9880   -2.8910 H   0  0  0  0  0  0  0  0  0  0  0  0
   -1.8460   -1.3540   -4.5230 H   0  0  0  0  0  0  0  0  0  0  0  0
   -3.1690    0.2560   -2.5360 H   0  0  0  0  0  0  0  0  0  0  0  0
   -0.0090   -1.4410   -3.0190 H   0  0  0  0  0  0  0  0  0  0  0  0
   -1.4390    0.7520   -1.4320 H   0  0  0  0  0  0  0  0  0  0  0  0
  1  9  1  0  0  0  0
  1  2  1  0  0  0  0
  2  4  1  0  0  0  0
  2  3  1  0  0  0  0
  3 14  1  0  0  0  0
  3 13  1  0  0  0  0
  4 15  1  1  0  0  0
  4  5  1  0  0  0  0
  5 17  1  0  0  0  0
  6  7  2  0  0  0  0
  6  4  1  0  0  0  0
  8  1  1  0  0  0  0
 10  1  1  0  0  0  0
 11  2  1  0  0  0  0
 12  3  1  0  0  0  0
 16  5  1  0  0  0  0
 18  6  1  0  0  0  0
 19 28  1  1  0  0  0
 19 20  1  0  0  0  0
 19 18  1  0  0  0  0
 20 29  1  0  0  0  0
 21 20  1  0  0  0  0
 21 22  1  0  0  0  0
 21 31  1  0  0  0  0
 22 34  1  0  0  0  0
 23 36  1  0  0  0  0
 23 24  1  0  0  0  0
 23 22  1  0  0  0  0
 24 38  1  0  0  0  0
 25 19  1  0  0  0  0
 26 25  2  0  0  0  0
 27 18  1  0  0  0  0
 30 20  1  0  0  0  0
 32 21  1  0  0  0  0
 33 22  1  0  0  0  0
 35 23  1  0  0  0  0
 37 24  1  0  0  0  0
 39 47  1  0  0  0  0
 40 50  1  6  0  0  0
 40 41  1  0  0  0  0
 40 42  1  0  0  0  0
 40 39  1  0  0  0  0
 41 51  1  0  0  0  0
 42 52  1  6  0  0  0
 42 43  1  0  0  0  0
 43 53  1  0  0  0  0
 43 25  1  0  0  0  0
 44 45  1  0  0  0  0
 44 42  1  0  0  0  0
 46 44  2  0  0  0  0
 48 39  1  0  0  0  0
 49 39  1  0  0  0  0
M  END
$$$$
