VKV.pdb
 OpenBabel07022419263D

 55 54  0  0  1  0  0  0  0  0999 V2000
    0.2360   -5.0420    1.9450 C   0  0  0  0  0  0  0  0  0  0  0  0
    0.9030   -4.1650    2.9570 C   0  0  0  0  0  0  0  0  0  0  0  0
    1.6720   -5.0420    3.9200 C   0  0  0  0  0  0  0  0  0  0  0  0
   -0.0680   -3.2630    3.6940 C   0  0  2  0  0  0  0  0  0  0  0  0
   -1.0260   -4.1130    4.3760 N   0  0  0  0  0  0  0  0  0  0  0  0
   -0.7450   -2.3230    2.7870 C   0  0  0  0  0  0  0  0  0  0  0  0
   -2.0020   -2.3560    2.7060 O   0  0  0  0  0  0  0  0  0  0  0  0
    0.5020   -6.1260    2.0810 H   0  0  0  0  0  0  0  0  0  0  0  0
   -0.8750   -5.0020    1.9830 H   0  0  0  0  0  0  0  0  0  0  0  0
    0.5540   -4.8090    0.8940 H   0  0  0  0  0  0  0  0  0  0  0  0
    1.6640   -3.5520    2.4040 H   0  0  0  0  0  0  0  0  0  0  0  0
    2.6610   -5.2590    3.4970 H   0  0  0  0  0  0  0  0  0  0  0  0
    1.7220   -4.5590    4.9330 H   0  0  0  0  0  0  0  0  0  0  0  0
    1.1320   -6.0160    3.9720 H   0  0  0  0  0  0  0  0  0  0  0  0
    0.5190   -2.7470    4.4900 H   0  0  0  0  0  0  0  0  0  0  0  0
   -1.4950   -3.5790    5.1570 H   0  0  0  0  0  0  0  0  0  0  0  0
   -1.7870   -4.3430    3.6900 H   0  0  0  0  0  0  0  0  0  0  0  0
   -0.0710   -1.3700    1.9890 N   0  0  0  0  0  0  0  0  0  0  0  0
   -0.7220   -0.4550    1.1070 C   0  0  1  0  0  0  0  0  0  0  0  0
   -0.5560    0.9780    1.5910 C   0  0  0  0  0  0  0  0  0  0  0  0
    0.9060    1.3210    1.6470 C   0  0  0  0  0  0  0  0  0  0  0  0
    1.1500    2.7050    2.1390 C   0  0  0  0  0  0  0  0  0  0  0  0
    0.5610    3.8140    1.3450 C   0  0  0  0  0  0  0  0  0  0  0  0
   -0.8570    3.8340    1.2260 N   0  0  0  0  0  0  0  0  0  0  0  0
   -0.1920   -0.5210   -0.2770 C   0  0  0  0  0  0  0  0  0  0  0  0
    0.7430   -1.3290   -0.5720 O   0  0  0  0  0  0  0  0  0  0  0  0
    0.9690   -1.3530    2.0640 H   0  0  0  0  0  0  0  0  0  0  0  0
   -1.8150   -0.6550    1.1640 H   0  0  0  0  0  0  0  0  0  0  0  0
   -1.0740    1.1270    2.5390 H   0  0  0  0  0  0  0  0  0  0  0  0
   -1.0010    1.5940    0.7500 H   0  0  0  0  0  0  0  0  0  0  0  0
    1.3580    0.6100    2.3790 H   0  0  0  0  0  0  0  0  0  0  0  0
    1.3550    1.1510    0.6450 H   0  0  0  0  0  0  0  0  0  0  0  0
    2.2470    2.8470    2.3300 H   0  0  0  0  0  0  0  0  0  0  0  0
    0.7100    2.7780    3.1820 H   0  0  0  0  0  0  0  0  0  0  0  0
    0.9750    3.7700    0.2910 H   0  0  0  0  0  0  0  0  0  0  0  0
    0.9190    4.8250    1.7020 H   0  0  0  0  0  0  0  0  0  0  0  0
   -1.3540    4.1580    2.0870 H   0  0  0  0  0  0  0  0  0  0  0  0
   -1.2120    4.2370    0.3540 H   0  0  0  0  0  0  0  0  0  0  0  0
   -0.7560   -0.4440   -5.0050 C   0  0  0  0  0  0  0  0  0  0  0  0
   -1.2590   -0.2960   -3.5680 C   0  0  0  0  0  0  0  0  0  0  0  0
   -1.7880   -1.6260   -3.1470 C   0  0  0  0  0  0  0  0  0  0  0  0
   -0.1230    0.1800   -2.6640 C   0  0  2  0  0  0  0  0  0  0  0  0
   -0.6850    0.2930   -1.3270 N   0  0  0  0  0  0  0  0  0  0  0  0
    0.3840    1.4760   -3.1570 C   0  0  0  0  0  0  0  0  0  0  0  0
    0.3050    2.5110   -2.4520 O   0  0  0  0  0  0  0  0  0  0  0  0
    0.9600    1.5850   -4.4100 O   0  0  0  0  0  0  0  0  0  0  0  0
   -1.2990   -1.2810   -5.4950 H   0  0  0  0  0  0  0  0  0  0  0  0
    0.3310   -0.5710   -5.0570 H   0  0  0  0  0  0  0  0  0  0  0  0
   -1.0410    0.4890   -5.5320 H   0  0  0  0  0  0  0  0  0  0  0  0
   -2.0750    0.4400   -3.5090 H   0  0  0  0  0  0  0  0  0  0  0  0
   -0.9930   -2.3690   -2.9300 H   0  0  0  0  0  0  0  0  0  0  0  0
   -2.3660   -2.0450   -4.0030 H   0  0  0  0  0  0  0  0  0  0  0  0
   -2.4580   -1.6090   -2.2800 H   0  0  0  0  0  0  0  0  0  0  0  0
    0.6710   -0.5630   -2.7280 H   0  0  0  0  0  0  0  0  0  0  0  0
   -1.4530    0.9740   -1.1400 H   0  0  0  0  0  0  0  0  0  0  0  0
  1  9  1  0  0  0  0
  1  8  1  0  0  0  0
  1  2  1  0  0  0  0
  2  4  1  0  0  0  0
  2  3  1  0  0  0  0
  3 14  1  0  0  0  0
  3 13  1  0  0  0  0
  4  5  1  0  0  0  0
  4 15  1  1  0  0  0
  5 16  1  0  0  0  0
  6  4  1  0  0  0  0
  7  6  2  0  0  0  0
 10  1  1  0  0  0  0
 11  2  1  0  0  0  0
 12  3  1  0  0  0  0
 17  5  1  0  0  0  0
 18 27  1  0  0  0  0
 18  6  1  0  0  0  0
 19 28  1  6  0  0  0
 19 20  1  0  0  0  0
 19 18  1  0  0  0  0
 20 21  1  0  0  0  0
 20 29  1  0  0  0  0
 21 22  1  0  0  0  0
 21 31  1  0  0  0  0
 22 33  1  0  0  0  0
 22 34  1  0  0  0  0
 23 36  1  0  0  0  0
 23 22  1  0  0  0  0
 24 23  1  0  0  0  0
 24 37  1  0  0  0  0
 25 19  1  0  0  0  0
 26 25  2  0  0  0  0
 30 20  1  0  0  0  0
 32 21  1  0  0  0  0
 35 23  1  0  0  0  0
 38 24  1  0  0  0  0
 39 40  1  0  0  0  0
 40 50  1  0  0  0  0
 40 41  1  0  0  0  0
 40 42  1  0  0  0  0
 41 51  1  0  0  0  0
 41 53  1  0  0  0  0
 42 54  1  6  0  0  0
 42 43  1  0  0  0  0
 43 55  1  0  0  0  0
 43 25  1  0  0  0  0
 44 42  1  0  0  0  0
 44 45  1  0  0  0  0
 46 44  2  0  0  0  0
 47 39  1  0  0  0  0
 48 39  1  0  0  0  0
 49 39  1  0  0  0  0
 52 41  1  0  0  0  0
M  END
$$$$
