VKW.pdb
 OpenBabel07022419263D

 63 64  0  0  1  0  0  0  0  0999 V2000
    3.2470    3.7870    1.9510 C   0  0  0  0  0  0  0  0  0  0  0  0
    3.4280    2.9300    3.1860 C   0  0  0  0  0  0  0  0  0  0  0  0
    4.7360    3.1870    3.8820 C   0  0  0  0  0  0  0  0  0  0  0  0
    3.2350    1.4790    2.8150 C   0  0  2  0  0  0  0  0  0  0  0  0
    4.1920    1.0720    1.8130 N   0  0  0  0  0  0  0  0  0  0  0  0
    1.8520    1.2030    2.4070 C   0  0  0  0  0  0  0  0  0  0  0  0
    0.9350    1.5140    3.2130 O   0  0  0  0  0  0  0  0  0  0  0  0
    2.9530    3.1360    1.1060 H   0  0  0  0  0  0  0  0  0  0  0  0
    2.5420    4.6290    2.1230 H   0  0  0  0  0  0  0  0  0  0  0  0
    4.2470    4.2240    1.6660 H   0  0  0  0  0  0  0  0  0  0  0  0
    2.5880    3.2100    3.8740 H   0  0  0  0  0  0  0  0  0  0  0  0
    5.3760    2.2980    3.8410 H   0  0  0  0  0  0  0  0  0  0  0  0
    5.2420    4.1040    3.5100 H   0  0  0  0  0  0  0  0  0  0  0  0
    4.5230    3.3800    4.9540 H   0  0  0  0  0  0  0  0  0  0  0  0
    3.4340    0.8860    3.7500 H   0  0  0  0  0  0  0  0  0  0  0  0
    3.9870    0.0580    1.5740 H   0  0  0  0  0  0  0  0  0  0  0  0
    5.1290    1.0960    2.2250 H   0  0  0  0  0  0  0  0  0  0  0  0
    1.4730    0.6170    1.1880 N   0  0  0  0  0  0  0  0  0  0  0  0
    0.1000    0.3700    0.8470 C   0  0  1  0  0  0  0  0  0  0  0  0
   -0.3470    1.1680   -0.3570 C   0  0  0  0  0  0  0  0  0  0  0  0
   -0.2190    2.6450   -0.1230 C   0  0  0  0  0  0  0  0  0  0  0  0
   -0.7020    3.3290   -1.4050 C   0  0  0  0  0  0  0  0  0  0  0  0
   -0.6050    4.8410   -1.2570 C   0  0  0  0  0  0  0  0  0  0  0  0
   -1.4240    5.3060   -0.1510 N   0  0  0  0  0  0  0  0  0  0  0  0
   -0.1790   -1.0800    0.6750 C   0  0  0  0  0  0  0  0  0  0  0  0
    0.7370   -1.9160    0.8360 O   0  0  0  0  0  0  0  0  0  0  0  0
    2.2010    0.3480    0.4980 H   0  0  0  0  0  0  0  0  0  0  0  0
   -0.5300    0.7330    1.7060 H   0  0  0  0  0  0  0  0  0  0  0  0
   -1.3760    0.8700   -0.6220 H   0  0  0  0  0  0  0  0  0  0  0  0
    0.2770    0.9230   -1.2500 H   0  0  0  0  0  0  0  0  0  0  0  0
   -0.8710    3.0080    0.7000 H   0  0  0  0  0  0  0  0  0  0  0  0
    0.8370    2.9590   -0.0050 H   0  0  0  0  0  0  0  0  0  0  0  0
   -1.7450    3.0680   -1.6020 H   0  0  0  0  0  0  0  0  0  0  0  0
   -0.0290    3.0320   -2.2290 H   0  0  0  0  0  0  0  0  0  0  0  0
    0.4340    5.1760   -1.1560 H   0  0  0  0  0  0  0  0  0  0  0  0
   -1.0160    5.2860   -2.1730 H   0  0  0  0  0  0  0  0  0  0  0  0
   -2.3140    4.7370   -0.1340 H   0  0  0  0  0  0  0  0  0  0  0  0
   -0.9410    5.1680    0.7570 H   0  0  0  0  0  0  0  0  0  0  0  0
   -1.4680   -1.5430    0.3290 N   0  0  0  0  0  0  0  0  0  0  0  0
   -1.7450   -2.9340    0.1700 C   0  0  1  0  0  0  0  0  0  0  0  0
   -1.1950   -3.5350   -1.0710 C   0  0  0  0  0  0  0  0  0  0  0  0
   -1.5430   -4.9720   -1.1320 C   0  0  0  0  0  0  0  0  0  0  0  0
   -0.7100   -6.0790   -0.9180 C   0  0  0  0  0  0  0  0  0  0  0  0
   -1.4180   -7.2100   -1.0830 N   0  0  0  0  0  0  0  0  0  0  0  0
   -2.6910   -6.9250   -1.3980 C   0  0  0  0  0  0  0  0  0  0  0  0
   -3.7810   -7.7290   -1.6600 C   0  0  0  0  0  0  0  0  0  0  0  0
   -5.0130   -7.1830   -1.9680 C   0  0  0  0  0  0  0  0  0  0  0  0
   -5.0780   -5.8050   -1.9960 C   0  0  0  0  0  0  0  0  0  0  0  0
   -4.0080   -4.9860   -1.7390 C   0  0  0  0  0  0  0  0  0  0  0  0
   -2.7830   -5.5500   -1.4320 C   0  0  0  0  0  0  0  0  0  0  0  0
   -1.3710   -3.7200    1.4000 C   0  0  0  0  0  0  0  0  0  0  0  0
   -0.8890   -3.1370    2.4060 O   0  0  0  0  0  0  0  0  0  0  0  0
   -1.5430   -5.0850    1.4610 O   0  0  0  0  0  0  0  0  0  0  0  0
   -2.2600   -0.8470    0.1820 H   0  0  0  0  0  0  0  0  0  0  0  0
   -2.8740   -3.0720    0.1440 H   0  0  0  0  0  0  0  0  0  0  0  0
   -1.6700   -3.0190   -1.9390 H   0  0  0  0  0  0  0  0  0  0  0  0
   -0.0870   -3.4830   -1.1220 H   0  0  0  0  0  0  0  0  0  0  0  0
    0.3350   -5.9710   -0.6630 H   0  0  0  0  0  0  0  0  0  0  0  0
   -1.0020   -8.1660   -0.9730 H   0  0  0  0  0  0  0  0  0  0  0  0
   -3.7290   -8.8110   -1.6380 H   0  0  0  0  0  0  0  0  0  0  0  0
   -5.8830   -7.8100   -2.1770 H   0  0  0  0  0  0  0  0  0  0  0  0
   -6.0290   -5.3070   -2.2350 H   0  0  0  0  0  0  0  0  0  0  0  0
   -4.0570   -3.9090   -1.7610 H   0  0  0  0  0  0  0  0  0  0  0  0
  1  9  1  0  0  0  0
  1  2  1  0  0  0  0
  2 11  1  0  0  0  0
  2  3  1  0  0  0  0
  3 14  1  0  0  0  0
  4  2  1  0  0  0  0
  4 15  1  1  0  0  0
  5 17  1  0  0  0  0
  5  4  1  0  0  0  0
  6  4  1  0  0  0  0
  6  7  2  0  0  0  0
  8  1  1  0  0  0  0
 10  1  1  0  0  0  0
 12  3  1  0  0  0  0
 13  3  1  0  0  0  0
 16  5  1  0  0  0  0
 18  6  1  0  0  0  0
 19 18  1  0  0  0  0
 19 28  1  1  0  0  0
 20 21  1  0  0  0  0
 20 19  1  0  0  0  0
 21 32  1  0  0  0  0
 21 31  1  0  0  0  0
 22 23  1  0  0  0  0
 22 21  1  0  0  0  0
 23 35  1  0  0  0  0
 23 24  1  0  0  0  0
 24 37  1  0  0  0  0
 24 38  1  0  0  0  0
 25 26  2  0  0  0  0
 25 19  1  0  0  0  0
 27 18  1  0  0  0  0
 29 20  1  0  0  0  0
 30 20  1  0  0  0  0
 33 22  1  0  0  0  0
 34 22  1  0  0  0  0
 36 23  1  0  0  0  0
 39 25  1  0  0  0  0
 40 55  1  6  0  0  0
 40 39  1  0  0  0  0
 40 51  1  0  0  0  0
 41 40  1  0  0  0  0
 42 41  1  0  0  0  0
 42 43  2  0  0  0  0
 43 58  1  0  0  0  0
 44 59  1  0  0  0  0
 44 43  1  0  0  0  0
 45 44  1  0  0  0  0
 46 60  1  0  0  0  0
 46 45  2  0  0  0  0
 47 46  1  0  0  0  0
 48 47  2  0  0  0  0
 48 49  1  0  0  0  0
 49 50  2  0  0  0  0
 50 45  1  0  0  0  0
 50 42  1  0  0  0  0
 51 53  2  0  0  0  0
 51 52  1  0  0  0  0
 54 39  1  0  0  0  0
 56 41  1  0  0  0  0
 57 41  1  0  0  0  0
 61 47  1  0  0  0  0
 62 48  1  0  0  0  0
 63 49  1  0  0  0  0
M  END
$$$$
