VKY.pdb
 OpenBabel07022419263D

 60 60  0  0  1  0  0  0  0  0999 V2000
    2.1900    0.9450    5.5460 C   0  0  0  0  0  0  0  0  0  0  0  0
    2.5410   -0.5050    5.6500 C   0  0  0  0  0  0  0  0  0  0  0  0
    1.4350   -1.2460    6.3770 C   0  0  0  0  0  0  0  0  0  0  0  0
    2.8660   -1.1450    4.3260 C   0  0  2  0  0  0  0  0  0  0  0  0
    4.0010   -0.4450    3.7580 N   0  0  0  0  0  0  0  0  0  0  0  0
    1.7150   -1.1610    3.4050 C   0  0  0  0  0  0  0  0  0  0  0  0
    0.6250   -1.7100    3.6970 O   0  0  0  0  0  0  0  0  0  0  0  0
    2.8800    1.6060    6.1480 H   0  0  0  0  0  0  0  0  0  0  0  0
    1.1790    1.1340    6.0100 H   0  0  0  0  0  0  0  0  0  0  0  0
    2.1300    1.3280    4.5160 H   0  0  0  0  0  0  0  0  0  0  0  0
    3.4750   -0.5740    6.2730 H   0  0  0  0  0  0  0  0  0  0  0  0
    0.4620   -0.7550    6.1800 H   0  0  0  0  0  0  0  0  0  0  0  0
    1.6220   -1.2460    7.4590 H   0  0  0  0  0  0  0  0  0  0  0  0
    1.3690   -2.2580    5.9520 H   0  0  0  0  0  0  0  0  0  0  0  0
    3.1950   -2.1810    4.5330 H   0  0  0  0  0  0  0  0  0  0  0  0
    3.7510    0.5440    3.5580 H   0  0  0  0  0  0  0  0  0  0  0  0
    4.8320   -0.5610    4.3450 H   0  0  0  0  0  0  0  0  0  0  0  0
    1.8600   -0.5280    2.1460 N   0  0  0  0  0  0  0  0  0  0  0  0
    0.7570   -0.4910    1.1500 C   0  0  1  0  0  0  0  0  0  0  0  0
    0.5410    0.9550    0.8970 C   0  0  0  0  0  0  0  0  0  0  0  0
   -0.5120    1.3680   -0.0460 C   0  0  0  0  0  0  0  0  0  0  0  0
   -1.9050    0.9400    0.3290 C   0  0  0  0  0  0  0  0  0  0  0  0
   -2.8850    1.4230   -0.7180 C   0  0  0  0  0  0  0  0  0  0  0  0
   -2.8940    2.8560   -0.8630 N   0  0  0  0  0  0  0  0  0  0  0  0
    1.1650   -1.2560   -0.0510 C   0  0  0  0  0  0  0  0  0  0  0  0
    2.3350   -1.7130   -0.0700 O   0  0  0  0  0  0  0  0  0  0  0  0
    2.7280   -0.0480    1.8180 H   0  0  0  0  0  0  0  0  0  0  0  0
   -0.0700   -1.0280    1.6290 H   0  0  0  0  0  0  0  0  0  0  0  0
    1.5170    1.3480    0.4790 H   0  0  0  0  0  0  0  0  0  0  0  0
    0.4560    1.4860    1.8750 H   0  0  0  0  0  0  0  0  0  0  0  0
   -0.5510    2.5040    0.0130 H   0  0  0  0  0  0  0  0  0  0  0  0
   -0.2840    1.1920   -1.1160 H   0  0  0  0  0  0  0  0  0  0  0  0
   -2.0550   -0.1220    0.4760 H   0  0  0  0  0  0  0  0  0  0  0  0
   -2.1880    1.4450    1.2920 H   0  0  0  0  0  0  0  0  0  0  0  0
   -3.9290    1.1380   -0.3950 H   0  0  0  0  0  0  0  0  0  0  0  0
   -2.7310    0.9170   -1.6920 H   0  0  0  0  0  0  0  0  0  0  0  0
   -2.1430    3.1340   -1.5570 H   0  0  0  0  0  0  0  0  0  0  0  0
   -2.7080    3.2960    0.0660 H   0  0  0  0  0  0  0  0  0  0  0  0
   -5.4240   -2.3980   -3.5730 O   0  0  0  0  0  0  0  0  0  0  0  0
   -4.0680   -2.6740   -3.3480 C   0  0  0  0  0  0  0  0  0  0  0  0
   -3.1500   -2.7630   -4.3690 C   0  0  0  0  0  0  0  0  0  0  0  0
   -1.8190   -3.0340   -4.1440 C   0  0  0  0  0  0  0  0  0  0  0  0
   -1.3530   -3.2290   -2.8620 C   0  0  0  0  0  0  0  0  0  0  0  0
    0.0660   -3.5220   -2.5360 C   0  0  0  0  0  0  0  0  0  0  0  0
    0.8730   -2.2670   -2.2740 C   0  0  2  0  0  0  0  0  0  0  0  0
    0.3400   -1.5060   -1.1680 N   0  0  0  0  0  0  0  0  0  0  0  0
    0.8270   -1.4210   -3.5010 C   0  0  0  0  0  0  0  0  0  0  0  0
    0.3510   -0.2600   -3.4420 O   0  0  0  0  0  0  0  0  0  0  0  0
   -2.2600   -3.1440   -1.8100 C   0  0  0  0  0  0  0  0  0  0  0  0
   -3.5760   -2.8730   -2.0710 C   0  0  0  0  0  0  0  0  0  0  0  0
    1.2900   -1.8590   -4.7160 O   0  0  0  0  0  0  0  0  0  0  0  0
   -5.9670   -2.1070   -2.7690 H   0  0  0  0  0  0  0  0  0  0  0  0
   -3.4830   -2.6160   -5.3810 H   0  0  0  0  0  0  0  0  0  0  0  0
   -1.1280   -3.0990   -4.9780 H   0  0  0  0  0  0  0  0  0  0  0  0
    0.1110   -4.2530   -1.7300 H   0  0  0  0  0  0  0  0  0  0  0  0
    0.5110   -3.9960   -3.4360 H   0  0  0  0  0  0  0  0  0  0  0  0
    1.9010   -2.5610   -2.0390 H   0  0  0  0  0  0  0  0  0  0  0  0
   -0.6600   -1.1420   -1.1790 H   0  0  0  0  0  0  0  0  0  0  0  0
   -1.9070   -3.2950   -0.7920 H   0  0  0  0  0  0  0  0  0  0  0  0
   -4.2990   -2.8040   -1.2540 H   0  0  0  0  0  0  0  0  0  0  0  0
  1  2  1  0  0  0  0
  1  9  1  0  0  0  0
  1  8  1  0  0  0  0
  2 11  1  0  0  0  0
  2  3  1  0  0  0  0
  3 13  1  0  0  0  0
  4 15  1  1  0  0  0
  4  2  1  0  0  0  0
  5  4  1  0  0  0  0
  5 17  1  0  0  0  0
  6  7  2  0  0  0  0
  6  4  1  0  0  0  0
 10  1  1  0  0  0  0
 12  3  1  0  0  0  0
 14  3  1  0  0  0  0
 16  5  1  0  0  0  0
 18  6  1  0  0  0  0
 19 28  1  1  0  0  0
 19 18  1  0  0  0  0
 20 19  1  0  0  0  0
 20 30  1  0  0  0  0
 21 31  1  0  0  0  0
 21 22  1  0  0  0  0
 21 20  1  0  0  0  0
 22 33  1  0  0  0  0
 22 34  1  0  0  0  0
 23 35  1  0  0  0  0
 23 22  1  0  0  0  0
 24 23  1  0  0  0  0
 24 38  1  0  0  0  0
 25 19  1  0  0  0  0
 26 25  2  0  0  0  0
 27 18  1  0  0  0  0
 29 20  1  0  0  0  0
 32 21  1  0  0  0  0
 36 23  1  0  0  0  0
 37 24  1  0  0  0  0
 39 40  1  0  0  0  0
 39 52  1  0  0  0  0
 40 50  1  0  0  0  0
 41 42  1  0  0  0  0
 41 40  2  0  0  0  0
 42 43  2  0  0  0  0
 43 44  1  0  0  0  0
 43 49  1  0  0  0  0
 44 45  1  0  0  0  0
 44 55  1  0  0  0  0
 45 57  1  1  0  0  0
 45 46  1  0  0  0  0
 46 25  1  0  0  0  0
 47 48  1  0  0  0  0
 47 45  1  0  0  0  0
 49 59  1  0  0  0  0
 50 49  2  0  0  0  0
 50 60  1  0  0  0  0
 51 47  2  0  0  0  0
 53 41  1  0  0  0  0
 54 42  1  0  0  0  0
 56 44  1  0  0  0  0
 58 46  1  0  0  0  0
M  END
$$$$
