VLA.pdb
 OpenBabel07022419263D

 47 46  0  0  1  0  0  0  0  0999 V2000
    0.4080   -4.6920    1.0750 C   0  0  0  0  0  0  0  0  0  0  0  0
    0.2920   -4.0040   -0.2580 C   0  0  0  0  0  0  0  0  0  0  0  0
    1.6370   -3.7220   -0.8570 C   0  0  0  0  0  0  0  0  0  0  0  0
   -0.5710   -2.7830   -0.2250 C   0  0  2  0  0  0  0  0  0  0  0  0
   -0.5980   -2.2180   -1.5620 N   0  0  0  0  0  0  0  0  0  0  0  0
   -0.2010   -1.7940    0.7950 C   0  0  0  0  0  0  0  0  0  0  0  0
   -0.1320   -2.1880    1.9970 O   0  0  0  0  0  0  0  0  0  0  0  0
    0.5580   -5.7950    0.9420 H   0  0  0  0  0  0  0  0  0  0  0  0
    1.3120   -4.3150    1.6130 H   0  0  0  0  0  0  0  0  0  0  0  0
   -0.4450   -4.5550    1.7350 H   0  0  0  0  0  0  0  0  0  0  0  0
   -0.2160   -4.7570   -0.9320 H   0  0  0  0  0  0  0  0  0  0  0  0
    1.8790   -4.4430   -1.6560 H   0  0  0  0  0  0  0  0  0  0  0  0
    1.7050   -2.6980   -1.2840 H   0  0  0  0  0  0  0  0  0  0  0  0
    2.3820   -3.8010   -0.0240 H   0  0  0  0  0  0  0  0  0  0  0  0
   -1.6270   -3.1670   -0.0710 H   0  0  0  0  0  0  0  0  0  0  0  0
   -1.2130   -1.3580   -1.5680 H   0  0  0  0  0  0  0  0  0  0  0  0
   -1.1090   -2.9160   -2.1650 H   0  0  0  0  0  0  0  0  0  0  0  0
    3.0260   -0.5180    0.1760 C   0  0  0  0  0  0  0  0  0  0  0  0
    2.9620    0.4440    1.3400 C   0  0  0  0  0  0  0  0  0  0  0  0
    3.3630   -0.2220    2.6360 C   0  0  0  0  0  0  0  0  0  0  0  0
    1.7050    1.2230    1.4360 C   0  0  0  0  0  0  0  0  0  0  0  0
    0.4370    0.4850    1.5930 C   0  0  2  0  0  0  0  0  0  0  0  0
    0.0850   -0.4330    0.5480 N   0  0  0  0  0  0  0  0  0  0  0  0
   -0.6440    1.5230    1.7830 C   0  0  0  0  0  0  0  0  0  0  0  0
   -0.4860    2.4050    2.6650 O   0  0  0  0  0  0  0  0  0  0  0  0
    2.8240   -1.5260    0.5970 H   0  0  0  0  0  0  0  0  0  0  0  0
    2.4100   -0.2370   -0.6740 H   0  0  0  0  0  0  0  0  0  0  0  0
    4.0820   -0.5940   -0.2230 H   0  0  0  0  0  0  0  0  0  0  0  0
    3.7820    1.1990    1.1360 H   0  0  0  0  0  0  0  0  0  0  0  0
    2.5340   -0.7830    3.0990 H   0  0  0  0  0  0  0  0  0  0  0  0
    3.7280    0.4970    3.3820 H   0  0  0  0  0  0  0  0  0  0  0  0
    4.1720   -0.9460    2.4020 H   0  0  0  0  0  0  0  0  0  0  0  0
    1.8300    1.9430    2.2810 H   0  0  0  0  0  0  0  0  0  0  0  0
    1.6690    1.8950    0.5260 H   0  0  0  0  0  0  0  0  0  0  0  0
    0.4560   -0.0440    2.5920 H   0  0  0  0  0  0  0  0  0  0  0  0
    0.0350   -0.0880   -0.4250 H   0  0  0  0  0  0  0  0  0  0  0  0
   -3.0350    3.1780   -0.2150 C   0  0  0  0  0  0  0  0  0  0  0  0
   -2.8800    2.4970    1.1460 C   0  0  2  0  0  0  0  0  0  0  0  0
   -1.8200    1.5250    0.9990 N   0  0  0  0  0  0  0  0  0  0  0  0
   -4.1490    1.7650    1.4380 C   0  0  0  0  0  0  0  0  0  0  0  0
   -4.1690    0.5020    1.5200 O   0  0  0  0  0  0  0  0  0  0  0  0
   -5.3540    2.4230    1.6320 O   0  0  0  0  0  0  0  0  0  0  0  0
   -2.2160    3.9410   -0.2930 H   0  0  0  0  0  0  0  0  0  0  0  0
   -4.0330    3.6550   -0.3000 H   0  0  0  0  0  0  0  0  0  0  0  0
   -2.8710    2.4210   -0.9880 H   0  0  0  0  0  0  0  0  0  0  0  0
   -2.6740    3.2300    1.9290 H   0  0  0  0  0  0  0  0  0  0  0  0
   -1.9170    0.7820    0.2800 H   0  0  0  0  0  0  0  0  0  0  0  0
  1  9  1  0  0  0  0
  1 10  1  0  0  0  0
  2  4  1  0  0  0  0
  2  1  1  0  0  0  0
  3  2  1  0  0  0  0
  3 14  1  0  0  0  0
  4 15  1  1  0  0  0
  4  6  1  0  0  0  0
  5  4  1  0  0  0  0
  6  7  2  0  0  0  0
  8  1  1  0  0  0  0
 11  2  1  0  0  0  0
 12  3  1  0  0  0  0
 13  3  1  0  0  0  0
 16  5  1  0  0  0  0
 17  5  1  0  0  0  0
 18 26  1  0  0  0  0
 18 19  1  0  0  0  0
 19 21  1  0  0  0  0
 19 20  1  0  0  0  0
 20 30  1  0  0  0  0
 20 31  1  0  0  0  0
 21 22  1  0  0  0  0
 21 33  1  0  0  0  0
 22 24  1  0  0  0  0
 22 35  1  1  0  0  0
 23  6  1  0  0  0  0
 23 22  1  0  0  0  0
 24 25  2  0  0  0  0
 27 18  1  0  0  0  0
 28 18  1  0  0  0  0
 29 19  1  0  0  0  0
 32 20  1  0  0  0  0
 34 21  1  0  0  0  0
 36 23  1  0  0  0  0
 37 38  1  0  0  0  0
 38 40  1  0  0  0  0
 38 46  1  1  0  0  0
 39 38  1  0  0  0  0
 39 24  1  0  0  0  0
 40 41  2  0  0  0  0
 40 42  1  0  0  0  0
 43 37  1  0  0  0  0
 44 37  1  0  0  0  0
 45 37  1  0  0  0  0
 47 39  1  0  0  0  0
M  END
$$$$
