VLC.pdb
 OpenBabel07022419263D

 48 47  0  0  1  0  0  0  0  0999 V2000
    0.5040   -4.0140   -0.5080 C   0  0  0  0  0  0  0  0  0  0  0  0
    1.6820   -4.3560    0.3460 C   0  0  0  0  0  0  0  0  0  0  0  0
    1.2440   -4.9720    1.6760 C   0  0  0  0  0  0  0  0  0  0  0  0
    2.6940   -3.2760    0.5420 C   0  0  2  0  0  0  0  0  0  0  0  0
    3.7950   -3.8040    1.4000 N   0  0  0  0  0  0  0  0  0  0  0  0
    2.1840   -2.0470    1.1840 C   0  0  0  0  0  0  0  0  0  0  0  0
    2.5300   -1.7270    2.3700 O   0  0  0  0  0  0  0  0  0  0  0  0
    0.8950   -3.5790   -1.4600 H   0  0  0  0  0  0  0  0  0  0  0  0
   -0.2580   -3.3870   -0.0540 H   0  0  0  0  0  0  0  0  0  0  0  0
    0.0160   -5.0160   -0.7510 H   0  0  0  0  0  0  0  0  0  0  0  0
    2.2230   -5.1860   -0.1980 H   0  0  0  0  0  0  0  0  0  0  0  0
    1.7850   -5.9090    1.8930 H   0  0  0  0  0  0  0  0  0  0  0  0
    1.4740   -4.2630    2.5100 H   0  0  0  0  0  0  0  0  0  0  0  0
    0.1630   -5.1840    1.6890 H   0  0  0  0  0  0  0  0  0  0  0  0
    3.1770   -3.0470   -0.4250 H   0  0  0  0  0  0  0  0  0  0  0  0
    4.0200   -4.7850    1.1160 H   0  0  0  0  0  0  0  0  0  0  0  0
    4.6420   -3.1780    1.2600 H   0  0  0  0  0  0  0  0  0  0  0  0
    1.6010    2.7140   -1.5060 C   0  0  0  0  0  0  0  0  0  0  0  0
    0.9600    1.3930   -1.0410 C   0  0  0  0  0  0  0  0  0  0  0  0
   -0.4670    1.4870   -1.4050 C   0  0  0  0  0  0  0  0  0  0  0  0
    1.2920    1.2620    0.4000 C   0  0  0  0  0  0  0  0  0  0  0  0
    0.7820    0.0400    1.0960 C   0  0  2  0  0  0  0  0  0  0  0  0
    1.2980   -1.1880    0.4910 N   0  0  0  0  0  0  0  0  0  0  0  0
   -0.6550   -0.0250    1.3190 C   0  0  0  0  0  0  0  0  0  0  0  0
   -1.2680   -1.1000    0.9970 O   0  0  0  0  0  0  0  0  0  0  0  0
    0.8610    3.5060   -1.2490 H   0  0  0  0  0  0  0  0  0  0  0  0
    2.5800    2.8620   -1.0450 H   0  0  0  0  0  0  0  0  0  0  0  0
    1.6550    2.6630   -2.6020 H   0  0  0  0  0  0  0  0  0  0  0  0
    1.4900    0.6070   -1.6430 H   0  0  0  0  0  0  0  0  0  0  0  0
   -0.8890    2.5280   -1.2890 H   0  0  0  0  0  0  0  0  0  0  0  0
   -0.5410    1.3020   -2.5170 H   0  0  0  0  0  0  0  0  0  0  0  0
   -1.1730    0.8160   -0.9400 H   0  0  0  0  0  0  0  0  0  0  0  0
    0.9990    2.1940    0.9380 H   0  0  0  0  0  0  0  0  0  0  0  0
    2.4220    1.2680    0.4660 H   0  0  0  0  0  0  0  0  0  0  0  0
    1.2480    0.0610    2.1310 H   0  0  0  0  0  0  0  0  0  0  0  0
    1.0200   -1.4430   -0.4790 H   0  0  0  0  0  0  0  0  0  0  0  0
   -1.4620    0.9860    1.8600 N   0  0  0  0  0  0  0  0  0  0  0  0
   -2.8850    0.8460    2.0500 C   0  0  1  0  0  0  0  0  0  0  0  0
   -3.2930    1.0840    3.4880 C   0  0  0  0  0  0  0  0  0  0  0  0
   -5.1010    0.8750    3.5750 S   0  0  0  0  0  0  0  0  0  0  0  0
   -3.6160    1.8460    1.2230 C   0  0  0  0  0  0  0  0  0  0  0  0
   -2.9640    2.6340    0.5110 O   0  0  0  0  0  0  0  0  0  0  0  0
   -4.9980    1.9350    1.2130 O   0  0  0  0  0  0  0  0  0  0  0  0
   -1.0320    1.8870    2.1430 H   0  0  0  0  0  0  0  0  0  0  0  0
   -3.2490   -0.1600    1.7110 H   0  0  0  0  0  0  0  0  0  0  0  0
   -2.8200    0.2920    4.1260 H   0  0  0  0  0  0  0  0  0  0  0  0
   -2.9710    2.0920    3.7720 H   0  0  0  0  0  0  0  0  0  0  0  0
   -5.5700    0.0690    2.5100 H   0  0  0  0  0  0  0  0  0  0  0  0
  1  9  1  0  0  0  0
  1  2  1  0  0  0  0
  2  4  1  0  0  0  0
  2  3  1  0  0  0  0
  3 14  1  0  0  0  0
  3 12  1  0  0  0  0
  3 13  1  0  0  0  0
  4 15  1  6  0  0  0
  4  6  1  0  0  0  0
  4  5  1  0  0  0  0
  6  7  2  0  0  0  0
  8  1  1  0  0  0  0
 10  1  1  0  0  0  0
 11  2  1  0  0  0  0
 16  5  1  0  0  0  0
 17  5  1  0  0  0  0
 18 26  1  0  0  0  0
 18 27  1  0  0  0  0
 18 19  1  0  0  0  0
 19 21  1  0  0  0  0
 20 30  1  0  0  0  0
 20 19  1  0  0  0  0
 20 32  1  0  0  0  0
 21 34  1  0  0  0  0
 21 33  1  0  0  0  0
 21 22  1  0  0  0  0
 22 24  1  0  0  0  0
 22 35  1  1  0  0  0
 23 22  1  0  0  0  0
 23  6  1  0  0  0  0
 24 37  1  0  0  0  0
 25 24  2  0  0  0  0
 28 18  1  0  0  0  0
 29 19  1  0  0  0  0
 31 20  1  0  0  0  0
 36 23  1  0  0  0  0
 37 38  1  0  0  0  0
 37 44  1  0  0  0  0
 38 45  1  6  0  0  0
 38 39  1  0  0  0  0
 39 40  1  0  0  0  0
 39 47  1  0  0  0  0
 39 46  1  0  0  0  0
 41 38  1  0  0  0  0
 42 41  2  0  0  0  0
 43 41  1  0  0  0  0
 48 40  1  0  0  0  0
M  END
$$$$
