VLD.pdb
 OpenBabel07022419263D

 50 49  0  0  1  0  0  0  0  0999 V2000
    2.1270   -3.7550   -1.1770 C   0  0  0  0  0  0  0  0  0  0  0  0
    1.3290   -4.5260   -0.1690 C   0  0  0  0  0  0  0  0  0  0  0  0
    0.9030   -5.8870   -0.6970 C   0  0  0  0  0  0  0  0  0  0  0  0
    0.1000   -3.7360    0.2990 C   0  0  2  0  0  0  0  0  0  0  0  0
   -0.7730   -3.4290   -0.7860 N   0  0  0  0  0  0  0  0  0  0  0  0
    0.6450   -2.5010    0.9550 C   0  0  0  0  0  0  0  0  0  0  0  0
    1.4300   -2.6030    1.9420 O   0  0  0  0  0  0  0  0  0  0  0  0
    3.1470   -3.4700   -0.7800 H   0  0  0  0  0  0  0  0  0  0  0  0
    1.6640   -2.7870   -1.4560 H   0  0  0  0  0  0  0  0  0  0  0  0
    2.3450   -4.3940   -2.0800 H   0  0  0  0  0  0  0  0  0  0  0  0
    2.0030   -4.7320    0.6910 H   0  0  0  0  0  0  0  0  0  0  0  0
   -0.0740   -6.1250   -0.2260 H   0  0  0  0  0  0  0  0  0  0  0  0
    1.6120   -6.6830   -0.3670 H   0  0  0  0  0  0  0  0  0  0  0  0
    0.8220   -5.9010   -1.7960 H   0  0  0  0  0  0  0  0  0  0  0  0
   -0.4480   -4.3760    1.0210 H   0  0  0  0  0  0  0  0  0  0  0  0
   -0.3410   -3.0850   -1.6480 H   0  0  0  0  0  0  0  0  0  0  0  0
   -1.5330   -4.1250   -0.9290 H   0  0  0  0  0  0  0  0  0  0  0  0
    1.6610    3.1780    1.0450 C   0  0  0  0  0  0  0  0  0  0  0  0
    2.4040    1.9900    0.5800 C   0  0  0  0  0  0  0  0  0  0  0  0
    3.5750    1.6580    1.5240 C   0  0  0  0  0  0  0  0  0  0  0  0
    1.6930    0.7620    0.2250 C   0  0  0  0  0  0  0  0  0  0  0  0
    0.8870    0.0050    1.1990 C   0  0  2  0  0  0  0  0  0  0  0  0
    0.3170   -1.2020    0.5120 N   0  0  0  0  0  0  0  0  0  0  0  0
   -0.2900    0.6600    1.7940 C   0  0  0  0  0  0  0  0  0  0  0  0
   -0.2190    1.6590    2.5860 O   0  0  0  0  0  0  0  0  0  0  0  0
    2.2010    4.0890    0.6030 H   0  0  0  0  0  0  0  0  0  0  0  0
    1.6990    3.3950    2.1310 H   0  0  0  0  0  0  0  0  0  0  0  0
    0.6480    3.2400    0.6510 H   0  0  0  0  0  0  0  0  0  0  0  0
    2.9630    2.3050   -0.3710 H   0  0  0  0  0  0  0  0  0  0  0  0
    3.2310    1.1590    2.4300 H   0  0  0  0  0  0  0  0  0  0  0  0
    4.2390    0.9830    0.9350 H   0  0  0  0  0  0  0  0  0  0  0  0
    4.1440    2.5590    1.7510 H   0  0  0  0  0  0  0  0  0  0  0  0
    2.4560    0.0920   -0.2990 H   0  0  0  0  0  0  0  0  0  0  0  0
    0.9880    1.0170   -0.6430 H   0  0  0  0  0  0  0  0  0  0  0  0
    1.5700   -0.4050    1.9850 H   0  0  0  0  0  0  0  0  0  0  0  0
   -0.3210   -1.0840   -0.3010 H   0  0  0  0  0  0  0  0  0  0  0  0
   -1.6420    0.2450    1.5500 N   0  0  0  0  0  0  0  0  0  0  0  0
   -2.7950    0.8850    2.1300 C   0  0  1  0  0  0  0  0  0  0  0  0
   -3.6490    1.4950    1.0430 C   0  0  0  0  0  0  0  0  0  0  0  0
   -2.9100    2.5170    0.2580 C   0  0  0  0  0  0  0  0  0  0  0  0
   -2.5980    3.5920    0.8480 O   0  0  0  0  0  0  0  0  0  0  0  0
   -3.6080   -0.0700    2.8920 C   0  0  0  0  0  0  0  0  0  0  0  0
   -4.6530    0.3330    3.4590 O   0  0  0  0  0  0  0  0  0  0  0  0
   -2.5470    2.3690   -1.0580 O   0  0  0  0  0  0  0  0  0  0  0  0
   -3.2270   -1.3850    2.9790 O   0  0  0  0  0  0  0  0  0  0  0  0
   -1.8110   -0.5570    0.9270 H   0  0  0  0  0  0  0  0  0  0  0  0
   -2.4230    1.7100    2.7700 H   0  0  0  0  0  0  0  0  0  0  0  0
   -4.0160    0.7340    0.3390 H   0  0  0  0  0  0  0  0  0  0  0  0
   -4.5560    1.9520    1.5150 H   0  0  0  0  0  0  0  0  0  0  0  0
   -2.4920    3.1570   -1.6930 H   0  0  0  0  0  0  0  0  0  0  0  0
  1  8  1  0  0  0  0
  1  2  1  0  0  0  0
  2  4  1  0  0  0  0
  2 11  1  0  0  0  0
  3 13  1  0  0  0  0
  3 12  1  0  0  0  0
  3  2  1  0  0  0  0
  4  6  1  0  0  0  0
  4 15  1  1  0  0  0
  5  4  1  0  0  0  0
  6  7  2  0  0  0  0
  9  1  1  0  0  0  0
 10  1  1  0  0  0  0
 14  3  1  0  0  0  0
 16  5  1  0  0  0  0
 17  5  1  0  0  0  0
 18 27  1  0  0  0  0
 19 18  1  0  0  0  0
 19 20  1  0  0  0  0
 20 32  1  0  0  0  0
 20 30  1  0  0  0  0
 21 19  1  0  0  0  0
 21 22  1  0  0  0  0
 22 24  1  0  0  0  0
 22 35  1  1  0  0  0
 23  6  1  0  0  0  0
 23 22  1  0  0  0  0
 24 25  2  0  0  0  0
 26 18  1  0  0  0  0
 28 18  1  0  0  0  0
 29 19  1  0  0  0  0
 31 20  1  0  0  0  0
 33 21  1  0  0  0  0
 34 21  1  0  0  0  0
 36 23  1  0  0  0  0
 37 24  1  0  0  0  0
 37 38  1  0  0  0  0
 38 47  1  1  0  0  0
 38 42  1  0  0  0  0
 39 49  1  0  0  0  0
 39 38  1  0  0  0  0
 40 41  2  0  0  0  0
 40 39  1  0  0  0  0
 42 45  2  0  0  0  0
 42 43  1  0  0  0  0
 44 40  1  0  0  0  0
 46 37  1  0  0  0  0
 48 39  1  0  0  0  0
 50 44  1  0  0  0  0
M  END
$$$$
