VLE.pdb
 OpenBabel07022419263D

 53 52  0  0  1  0  0  0  0  0999 V2000
    3.4640    0.0370   -1.4360 C   0  0  0  0  0  0  0  0  0  0  0  0
    3.4400    1.2120   -0.5280 C   0  0  0  0  0  0  0  0  0  0  0  0
    4.4450    0.9630    0.5970 C   0  0  0  0  0  0  0  0  0  0  0  0
    2.1080    1.6220   -0.0020 C   0  0  2  0  0  0  0  0  0  0  0  0
    2.3340    2.8000    0.8620 N   0  0  0  0  0  0  0  0  0  0  0  0
    1.4140    0.5680    0.7980 C   0  0  0  0  0  0  0  0  0  0  0  0
    1.2750    0.7740    2.0270 O   0  0  0  0  0  0  0  0  0  0  0  0
    4.4620   -0.0110   -1.9740 H   0  0  0  0  0  0  0  0  0  0  0  0
    3.4140   -0.9340   -0.9030 H   0  0  0  0  0  0  0  0  0  0  0  0
    2.7340    0.1160   -2.2680 H   0  0  0  0  0  0  0  0  0  0  0  0
    3.8720    2.0780   -1.1000 H   0  0  0  0  0  0  0  0  0  0  0  0
    4.3680   -0.0730    0.9820 H   0  0  0  0  0  0  0  0  0  0  0  0
    5.4440    1.0730    0.1640 H   0  0  0  0  0  0  0  0  0  0  0  0
    4.3380    1.7180    1.4040 H   0  0  0  0  0  0  0  0  0  0  0  0
    1.4300    1.9570   -0.7990 H   0  0  0  0  0  0  0  0  0  0  0  0
    1.5030    2.9380    1.4780 H   0  0  0  0  0  0  0  0  0  0  0  0
    2.3880    3.6150    0.2240 H   0  0  0  0  0  0  0  0  0  0  0  0
    1.9340   -1.9000    4.3990 C   0  0  0  0  0  0  0  0  0  0  0  0
    1.8910   -1.9100    2.8650 C   0  0  0  0  0  0  0  0  0  0  0  0
    2.3320   -3.3590    2.4950 C   0  0  0  0  0  0  0  0  0  0  0  0
    0.4910   -1.6930    2.4290 C   0  0  0  0  0  0  0  0  0  0  0  0
    0.2830   -1.6580    0.9270 C   0  0  2  0  0  0  0  0  0  0  0  0
    0.9300   -0.6060    0.2260 N   0  0  0  0  0  0  0  0  0  0  0  0
   -1.1050   -1.9150    0.5910 C   0  0  0  0  0  0  0  0  0  0  0  0
   -1.8290   -2.7970    1.1040 O   0  0  0  0  0  0  0  0  0  0  0  0
    2.7360   -2.5870    4.7740 H   0  0  0  0  0  0  0  0  0  0  0  0
    0.9390   -2.1460    4.8250 H   0  0  0  0  0  0  0  0  0  0  0  0
    2.2040   -0.8870    4.7780 H   0  0  0  0  0  0  0  0  0  0  0  0
    2.6820   -1.2910    2.5010 H   0  0  0  0  0  0  0  0  0  0  0  0
    3.2200   -3.6420    3.0970 H   0  0  0  0  0  0  0  0  0  0  0  0
    1.5070   -4.0550    2.6760 H   0  0  0  0  0  0  0  0  0  0  0  0
    2.6560   -3.2980    1.4370 H   0  0  0  0  0  0  0  0  0  0  0  0
   -0.0090   -0.8760    2.9700 H   0  0  0  0  0  0  0  0  0  0  0  0
   -0.0800   -2.6220    2.7560 H   0  0  0  0  0  0  0  0  0  0  0  0
    0.9090   -2.6100    0.6290 H   0  0  0  0  0  0  0  0  0  0  0  0
    1.0480   -0.7220   -0.8240 H   0  0  0  0  0  0  0  0  0  0  0  0
   -1.7490   -1.1080   -0.4170 N   0  0  0  0  0  0  0  0  0  0  0  0
   -3.1500   -1.3340   -0.7870 C   0  0  1  0  0  0  0  0  0  0  0  0
   -3.9540   -0.0790   -0.5690 C   0  0  0  0  0  0  0  0  0  0  0  0
   -5.3980   -0.1770   -0.9070 C   0  0  0  0  0  0  0  0  0  0  0  0
   -6.1640   -1.1770   -0.1610 C   0  0  0  0  0  0  0  0  0  0  0  0
   -5.6850   -1.9220    0.7280 O   0  0  0  0  0  0  0  0  0  0  0  0
   -3.1890   -1.6690   -2.2310 C   0  0  0  0  0  0  0  0  0  0  0  0
   -2.1160   -1.6930   -2.9130 O   0  0  0  0  0  0  0  0  0  0  0  0
   -7.5140   -1.3240   -0.4460 O   0  0  0  0  0  0  0  0  0  0  0  0
   -4.3470   -1.9730   -2.9300 O   0  0  0  0  0  0  0  0  0  0  0  0
   -1.2550   -0.3520   -0.9080 H   0  0  0  0  0  0  0  0  0  0  0  0
   -3.5790   -2.1600   -0.2040 H   0  0  0  0  0  0  0  0  0  0  0  0
   -3.5180    0.7470   -1.2000 H   0  0  0  0  0  0  0  0  0  0  0  0
   -3.8670    0.2970    0.4760 H   0  0  0  0  0  0  0  0  0  0  0  0
   -5.8430    0.8350   -0.6420 H   0  0  0  0  0  0  0  0  0  0  0  0
   -5.5390   -0.2260   -2.0120 H   0  0  0  0  0  0  0  0  0  0  0  0
   -8.1110   -1.7800    0.2440 H   0  0  0  0  0  0  0  0  0  0  0  0
  1  9  1  0  0  0  0
  1  2  1  0  0  0  0
  2  4  1  0  0  0  0
  2  3  1  0  0  0  0
  3 12  1  0  0  0  0
  3 14  1  0  0  0  0
  4 15  1  6  0  0  0
  4  6  1  0  0  0  0
  4  5  1  0  0  0  0
  5 16  1  0  0  0  0
  6  7  2  0  0  0  0
  8  1  1  0  0  0  0
 10  1  1  0  0  0  0
 11  2  1  0  0  0  0
 13  3  1  0  0  0  0
 17  5  1  0  0  0  0
 18 26  1  0  0  0  0
 18 28  1  0  0  0  0
 18 27  1  0  0  0  0
 19 18  1  0  0  0  0
 20 31  1  0  0  0  0
 20 19  1  0  0  0  0
 20 30  1  0  0  0  0
 21 34  1  0  0  0  0
 21 19  1  0  0  0  0
 21 33  1  0  0  0  0
 22 35  1  6  0  0  0
 22 21  1  0  0  0  0
 23  6  1  0  0  0  0
 23 22  1  0  0  0  0
 24 22  1  0  0  0  0
 24 25  2  0  0  0  0
 29 19  1  0  0  0  0
 32 20  1  0  0  0  0
 36 23  1  0  0  0  0
 37 24  1  0  0  0  0
 38 39  1  0  0  0  0
 38 37  1  0  0  0  0
 38 48  1  1  0  0  0
 39 50  1  0  0  0  0
 40 51  1  0  0  0  0
 40 39  1  0  0  0  0
 40 41  1  0  0  0  0
 41 42  2  0  0  0  0
 43 38  1  0  0  0  0
 44 43  1  0  0  0  0
 45 41  1  0  0  0  0
 45 53  1  0  0  0  0
 46 43  2  0  0  0  0
 47 37  1  0  0  0  0
 49 39  1  0  0  0  0
 52 40  1  0  0  0  0
M  END
$$$$
