VLK.pdb
 OpenBabel07022419263D

 58 57  0  0  1  0  0  0  0  0999 V2000
    5.0250    1.1720    1.3630 C   0  0  0  0  0  0  0  0  0  0  0  0
    4.0410    1.6430    0.3180 C   0  0  0  0  0  0  0  0  0  0  0  0
    4.8240    2.2640   -0.8120 C   0  0  0  0  0  0  0  0  0  0  0  0
    3.2400    0.4470   -0.1480 C   0  0  2  0  0  0  0  0  0  0  0  0
    2.3010    0.9120   -1.1490 N   0  0  0  0  0  0  0  0  0  0  0  0
    2.4820   -0.1600    0.9760 C   0  0  0  0  0  0  0  0  0  0  0  0
    3.0610   -0.6490    1.9920 O   0  0  0  0  0  0  0  0  0  0  0  0
    5.1960    0.0740    1.2890 H   0  0  0  0  0  0  0  0  0  0  0  0
    6.0210    1.6430    1.2510 H   0  0  0  0  0  0  0  0  0  0  0  0
    4.6730    1.3990    2.3820 H   0  0  0  0  0  0  0  0  0  0  0  0
    3.3430    2.4160    0.6950 H   0  0  0  0  0  0  0  0  0  0  0  0
    5.5010    1.5360   -1.3090 H   0  0  0  0  0  0  0  0  0  0  0  0
    4.1410    2.7180   -1.5790 H   0  0  0  0  0  0  0  0  0  0  0  0
    5.3980    3.1120   -0.3790 H   0  0  0  0  0  0  0  0  0  0  0  0
    3.8790   -0.3080   -0.6330 H   0  0  0  0  0  0  0  0  0  0  0  0
    1.9110    1.8510   -0.9190 H   0  0  0  0  0  0  0  0  0  0  0  0
    2.6440    0.8250   -2.1110 H   0  0  0  0  0  0  0  0  0  0  0  0
   -0.8050   -0.3950    4.9600 C   0  0  0  0  0  0  0  0  0  0  0  0
   -1.5400   -0.0920    3.6650 C   0  0  0  0  0  0  0  0  0  0  0  0
   -2.6920   -0.9970    3.5000 C   0  0  0  0  0  0  0  0  0  0  0  0
   -0.6520    0.1830    2.5300 C   0  0  0  0  0  0  0  0  0  0  0  0
    0.3430   -0.8260    2.0920 C   0  0  2  0  0  0  0  0  0  0  0  0
    1.0620   -0.2100    0.9440 N   0  0  0  0  0  0  0  0  0  0  0  0
   -0.3230   -2.0210    1.5600 C   0  0  0  0  0  0  0  0  0  0  0  0
   -0.9570   -2.8670    2.2440 O   0  0  0  0  0  0  0  0  0  0  0  0
    0.1970    0.0660    4.8670 H   0  0  0  0  0  0  0  0  0  0  0  0
   -0.7360   -1.5070    5.1180 H   0  0  0  0  0  0  0  0  0  0  0  0
   -1.3190    0.0120    5.8440 H   0  0  0  0  0  0  0  0  0  0  0  0
   -2.0160    0.9440    3.9100 H   0  0  0  0  0  0  0  0  0  0  0  0
   -3.6040   -0.4990    3.9790 H   0  0  0  0  0  0  0  0  0  0  0  0
   -2.5710   -1.9140    4.1290 H   0  0  0  0  0  0  0  0  0  0  0  0
   -3.0280   -1.1950    2.4690 H   0  0  0  0  0  0  0  0  0  0  0  0
   -0.1840    1.1940    2.7040 H   0  0  0  0  0  0  0  0  0  0  0  0
   -1.3180    0.3960    1.6290 H   0  0  0  0  0  0  0  0  0  0  0  0
    1.0890   -1.0900    2.8760 H   0  0  0  0  0  0  0  0  0  0  0  0
    0.5360    0.1850    0.1360 H   0  0  0  0  0  0  0  0  0  0  0  0
   -0.2710   -2.2810    0.1640 N   0  0  0  0  0  0  0  0  0  0  0  0
   -0.9330   -3.4680   -0.3780 C   0  0  1  0  0  0  0  0  0  0  0  0
   -1.9860   -3.0150   -1.3700 C   0  0  0  0  0  0  0  0  0  0  0  0
   -3.0200   -2.1290   -0.7080 C   0  0  0  0  0  0  0  0  0  0  0  0
   -4.0500   -1.6940   -1.7090 C   0  0  0  0  0  0  0  0  0  0  0  0
   -3.4290   -0.9120   -2.8530 C   0  0  0  0  0  0  0  0  0  0  0  0
   -2.7640    0.2800   -2.3770 N   0  0  0  0  0  0  0  0  0  0  0  0
    0.0740   -4.2860   -1.1000 C   0  0  0  0  0  0  0  0  0  0  0  0
    1.2750   -3.9100   -1.1650 O   0  0  0  0  0  0  0  0  0  0  0  0
   -0.3050   -5.4790   -1.7130 O   0  0  0  0  0  0  0  0  0  0  0  0
    0.2240   -1.6670   -0.5310 H   0  0  0  0  0  0  0  0  0  0  0  0
   -1.4130   -4.0360    0.4260 H   0  0  0  0  0  0  0  0  0  0  0  0
   -2.4940   -3.8780   -1.8350 H   0  0  0  0  0  0  0  0  0  0  0  0
   -1.4780   -2.4570   -2.1830 H   0  0  0  0  0  0  0  0  0  0  0  0
   -2.5140   -1.2880   -0.2120 H   0  0  0  0  0  0  0  0  0  0  0  0
   -3.5460   -2.7060    0.0790 H   0  0  0  0  0  0  0  0  0  0  0  0
   -4.8410   -1.1050   -1.2440 H   0  0  0  0  0  0  0  0  0  0  0  0
   -4.4820   -2.6220   -2.1590 H   0  0  0  0  0  0  0  0  0  0  0  0
   -4.2650   -0.5870   -3.5070 H   0  0  0  0  0  0  0  0  0  0  0  0
   -2.7680   -1.5440   -3.4730 H   0  0  0  0  0  0  0  0  0  0  0  0
   -3.1540    0.6210   -1.4750 H   0  0  0  0  0  0  0  0  0  0  0  0
   -2.7850    1.0420   -3.1090 H   0  0  0  0  0  0  0  0  0  0  0  0
  1 10  1  0  0  0  0
  2 11  1  0  0  0  0
  2  1  1  0  0  0  0
  3 14  1  0  0  0  0
  3  2  1  0  0  0  0
  4 15  1  6  0  0  0
  4  2  1  0  0  0  0
  4  6  1  0  0  0  0
  5 16  1  0  0  0  0
  5  4  1  0  0  0  0
  6  7  2  0  0  0  0
  8  1  1  0  0  0  0
  9  1  1  0  0  0  0
 12  3  1  0  0  0  0
 13  3  1  0  0  0  0
 17  5  1  0  0  0  0
 18 27  1  0  0  0  0
 18 28  1  0  0  0  0
 19 29  1  0  0  0  0
 19 18  1  0  0  0  0
 20 19  1  0  0  0  0
 20 30  1  0  0  0  0
 20 31  1  0  0  0  0
 21 33  1  0  0  0  0
 21 19  1  0  0  0  0
 22 21  1  0  0  0  0
 22 35  1  1  0  0  0
 23  6  1  0  0  0  0
 23 22  1  0  0  0  0
 24 22  1  0  0  0  0
 24 25  2  0  0  0  0
 26 18  1  0  0  0  0
 32 20  1  0  0  0  0
 34 21  1  0  0  0  0
 36 23  1  0  0  0  0
 37 24  1  0  0  0  0
 38 37  1  0  0  0  0
 38 48  1  1  0  0  0
 39 40  1  0  0  0  0
 39 38  1  0  0  0  0
 40 51  1  0  0  0  0
 40 52  1  0  0  0  0
 41 53  1  0  0  0  0
 41 40  1  0  0  0  0
 42 43  1  0  0  0  0
 42 41  1  0  0  0  0
 43 57  1  0  0  0  0
 44 38  1  0  0  0  0
 45 44  1  0  0  0  0
 46 44  2  0  0  0  0
 47 37  1  0  0  0  0
 49 39  1  0  0  0  0
 50 39  1  0  0  0  0
 54 41  1  0  0  0  0
 55 42  1  0  0  0  0
 56 42  1  0  0  0  0
 58 43  1  0  0  0  0
M  END
$$$$
