VLM.pdb
 OpenBabel07022419263D

 54 53  0  0  1  0  0  0  0  0999 V2000
    3.2940   -4.1710    1.6150 C   0  0  0  0  0  0  0  0  0  0  0  0
    2.1060   -4.4460    2.4990 C   0  0  0  0  0  0  0  0  0  0  0  0
    1.8670   -5.9180    2.7000 C   0  0  0  0  0  0  0  0  0  0  0  0
    0.8390   -3.8070    1.9860 C   0  0  2  0  0  0  0  0  0  0  0  0
    0.4700   -4.2640    0.6800 N   0  0  0  0  0  0  0  0  0  0  0  0
    0.9220   -2.3130    2.0490 C   0  0  0  0  0  0  0  0  0  0  0  0
    1.2430   -1.7830    3.1430 O   0  0  0  0  0  0  0  0  0  0  0  0
    3.8630   -5.1200    1.5210 H   0  0  0  0  0  0  0  0  0  0  0  0
    3.0070   -3.8690    0.5910 H   0  0  0  0  0  0  0  0  0  0  0  0
    3.9530   -3.3920    2.0460 H   0  0  0  0  0  0  0  0  0  0  0  0
    2.3270   -4.0000    3.4900 H   0  0  0  0  0  0  0  0  0  0  0  0
    1.4440   -6.0580    3.7160 H   0  0  0  0  0  0  0  0  0  0  0  0
    2.8310   -6.5040    2.6910 H   0  0  0  0  0  0  0  0  0  0  0  0
    1.1400   -6.3340    1.9720 H   0  0  0  0  0  0  0  0  0  0  0  0
    0.0280   -4.0900    2.6890 H   0  0  0  0  0  0  0  0  0  0  0  0
   -0.5440   -4.0040    0.5380 H   0  0  0  0  0  0  0  0  0  0  0  0
    1.0430   -3.9000   -0.0900 H   0  0  0  0  0  0  0  0  0  0  0  0
    2.3740    2.5490    1.3500 C   0  0  0  0  0  0  0  0  0  0  0  0
    2.0050    1.9240    0.0440 C   0  0  0  0  0  0  0  0  0  0  0  0
    3.1480    2.2660   -0.9240 C   0  0  0  0  0  0  0  0  0  0  0  0
    1.8000    0.4560    0.0860 C   0  0  0  0  0  0  0  0  0  0  0  0
    0.7350   -0.0290    0.9960 C   0  0  2  0  0  0  0  0  0  0  0  0
    0.6530   -1.4820    0.9290 N   0  0  0  0  0  0  0  0  0  0  0  0
   -0.6010    0.5780    0.7800 C   0  0  0  0  0  0  0  0  0  0  0  0
   -0.7870    1.8210    0.7970 O   0  0  0  0  0  0  0  0  0  0  0  0
    2.8180    3.5550    1.1140 H   0  0  0  0  0  0  0  0  0  0  0  0
    3.1760    2.0020    1.8880 H   0  0  0  0  0  0  0  0  0  0  0  0
    1.5040    2.7680    2.0060 H   0  0  0  0  0  0  0  0  0  0  0  0
    1.1240    2.4480   -0.3630 H   0  0  0  0  0  0  0  0  0  0  0  0
    3.9480    1.5220   -0.7010 H   0  0  0  0  0  0  0  0  0  0  0  0
    2.8250    2.2430   -1.9670 H   0  0  0  0  0  0  0  0  0  0  0  0
    3.5460    3.2470   -0.6500 H   0  0  0  0  0  0  0  0  0  0  0  0
    2.7740   -0.0050    0.4220 H   0  0  0  0  0  0  0  0  0  0  0  0
    1.6430    0.0580   -0.9370 H   0  0  0  0  0  0  0  0  0  0  0  0
    1.0310    0.2530    2.0460 H   0  0  0  0  0  0  0  0  0  0  0  0
    0.3910   -1.9680    0.0440 H   0  0  0  0  0  0  0  0  0  0  0  0
   -4.0620    3.0390   -2.6530 C   0  0  0  0  0  0  0  0  0  0  0  0
   -2.5040    2.1920   -2.2770 S   0  0  0  0  0  0  0  0  0  0  0  0
   -2.7750    0.4250   -2.1680 C   0  0  0  0  0  0  0  0  0  0  0  0
   -3.6410    0.0170   -1.0080 C   0  0  0  0  0  0  0  0  0  0  0  0
   -3.0770    0.4090    0.3270 C   0  0  2  0  0  0  0  0  0  0  0  0
   -1.7750   -0.2090    0.5360 N   0  0  0  0  0  0  0  0  0  0  0  0
   -4.0560   -0.0950    1.3560 C   0  0  0  0  0  0  0  0  0  0  0  0
   -3.6460   -0.9380    2.2110 O   0  0  0  0  0  0  0  0  0  0  0  0
   -5.3570    0.3170    1.4040 O   0  0  0  0  0  0  0  0  0  0  0  0
   -4.6980    3.0170   -1.7360 H   0  0  0  0  0  0  0  0  0  0  0  0
   -3.8730    4.0790   -2.9880 H   0  0  0  0  0  0  0  0  0  0  0  0
   -4.5900    2.4450   -3.4230 H   0  0  0  0  0  0  0  0  0  0  0  0
   -3.3450    0.1180   -3.0940 H   0  0  0  0  0  0  0  0  0  0  0  0
   -1.8320   -0.1620   -2.2180 H   0  0  0  0  0  0  0  0  0  0  0  0
   -3.7390   -1.0820   -1.0310 H   0  0  0  0  0  0  0  0  0  0  0  0
   -4.6320    0.4490   -1.1560 H   0  0  0  0  0  0  0  0  0  0  0  0
   -3.0020    1.5160    0.3780 H   0  0  0  0  0  0  0  0  0  0  0  0
   -1.6370   -1.2410    0.5180 H   0  0  0  0  0  0  0  0  0  0  0  0
  1 10  1  0  0  0  0
  1  2  1  0  0  0  0
  2  3  1  0  0  0  0
  2 11  1  0  0  0  0
  3 12  1  0  0  0  0
  4  6  1  0  0  0  0
  4  2  1  0  0  0  0
  4 15  1  1  0  0  0
  5  4  1  0  0  0  0
  6  7  2  0  0  0  0
  8  1  1  0  0  0  0
  9  1  1  0  0  0  0
 13  3  1  0  0  0  0
 14  3  1  0  0  0  0
 16  5  1  0  0  0  0
 17  5  1  0  0  0  0
 18 27  1  0  0  0  0
 18 28  1  0  0  0  0
 19 21  1  0  0  0  0
 19 18  1  0  0  0  0
 20 30  1  0  0  0  0
 20 32  1  0  0  0  0
 20 19  1  0  0  0  0
 21 33  1  0  0  0  0
 21 22  1  0  0  0  0
 22 35  1  1  0  0  0
 23 22  1  0  0  0  0
 23  6  1  0  0  0  0
 24 25  2  0  0  0  0
 24 22  1  0  0  0  0
 26 18  1  0  0  0  0
 29 19  1  0  0  0  0
 31 20  1  0  0  0  0
 34 21  1  0  0  0  0
 36 23  1  0  0  0  0
 37 38  1  0  0  0  0
 37 46  1  0  0  0  0
 38 39  1  0  0  0  0
 39 40  1  0  0  0  0
 40 41  1  0  0  0  0
 41 53  1  1  0  0  0
 41 42  1  0  0  0  0
 41 43  1  0  0  0  0
 42 24  1  0  0  0  0
 43 45  2  0  0  0  0
 43 44  1  0  0  0  0
 47 37  1  0  0  0  0
 48 37  1  0  0  0  0
 49 39  1  0  0  0  0
 50 39  1  0  0  0  0
 51 40  1  0  0  0  0
 52 40  1  0  0  0  0
 54 42  1  0  0  0  0
M  END
$$$$
