VLN.pdb
 OpenBabel07022419263D

 51 50  0  0  1  0  0  0  0  0999 V2000
    2.7930   -2.7970    2.7730 C   0  0  0  0  0  0  0  0  0  0  0  0
    1.4040   -2.7020    3.3160 C   0  0  0  0  0  0  0  0  0  0  0  0
    0.9860   -4.0220    3.9620 C   0  0  0  0  0  0  0  0  0  0  0  0
    0.3780   -2.2440    2.3090 C   0  0  2  0  0  0  0  0  0  0  0  0
    0.3410   -3.1570    1.2180 N   0  0  0  0  0  0  0  0  0  0  0  0
    0.4580   -0.8280    1.9530 C   0  0  0  0  0  0  0  0  0  0  0  0
    0.5360    0.0080    2.8910 O   0  0  0  0  0  0  0  0  0  0  0  0
    3.2650   -3.7520    3.1440 H   0  0  0  0  0  0  0  0  0  0  0  0
    2.8110   -2.8950    1.6600 H   0  0  0  0  0  0  0  0  0  0  0  0
    3.4440   -1.9480    3.0450 H   0  0  0  0  0  0  0  0  0  0  0  0
    1.4150   -1.9640    4.1690 H   0  0  0  0  0  0  0  0  0  0  0  0
    1.4970   -4.1910    4.9110 H   0  0  0  0  0  0  0  0  0  0  0  0
    1.0340   -4.8500    3.2430 H   0  0  0  0  0  0  0  0  0  0  0  0
   -0.1060   -3.8920    4.2160 H   0  0  0  0  0  0  0  0  0  0  0  0
   -0.6230   -2.3600    2.8370 H   0  0  0  0  0  0  0  0  0  0  0  0
   -0.5820   -3.3440    0.8190 H   0  0  0  0  0  0  0  0  0  0  0  0
    1.1100   -3.0550    0.5330 H   0  0  0  0  0  0  0  0  0  0  0  0
    3.4520    1.8230    0.9360 C   0  0  0  0  0  0  0  0  0  0  0  0
    2.9830    1.1200   -0.3130 C   0  0  0  0  0  0  0  0  0  0  0  0
    3.2810   -0.3470   -0.1680 C   0  0  0  0  0  0  0  0  0  0  0  0
    1.5850    1.4320   -0.6920 C   0  0  0  0  0  0  0  0  0  0  0  0
    0.5260    1.0950    0.2950 C   0  0  2  0  0  0  0  0  0  0  0  0
    0.4530   -0.3020    0.6270 N   0  0  0  0  0  0  0  0  0  0  0  0
   -0.8130    1.4870   -0.2690 C   0  0  0  0  0  0  0  0  0  0  0  0
   -1.0230    2.6870   -0.6460 O   0  0  0  0  0  0  0  0  0  0  0  0
    4.5580    1.8920    0.8790 H   0  0  0  0  0  0  0  0  0  0  0  0
    3.2520    1.2040    1.8590 H   0  0  0  0  0  0  0  0  0  0  0  0
    3.0600    2.8390    1.0290 H   0  0  0  0  0  0  0  0  0  0  0  0
    3.6520    1.5070   -1.1400 H   0  0  0  0  0  0  0  0  0  0  0  0
    3.2570   -0.6570    0.9060 H   0  0  0  0  0  0  0  0  0  0  0  0
    2.6860   -0.9930   -0.8140 H   0  0  0  0  0  0  0  0  0  0  0  0
    4.3520   -0.5010   -0.4750 H   0  0  0  0  0  0  0  0  0  0  0  0
    1.3670    0.8330   -1.6280 H   0  0  0  0  0  0  0  0  0  0  0  0
    1.4710    2.4880   -1.0260 H   0  0  0  0  0  0  0  0  0  0  0  0
    0.6400    1.7410    1.1910 H   0  0  0  0  0  0  0  0  0  0  0  0
    0.3900   -1.0100   -0.1390 H   0  0  0  0  0  0  0  0  0  0  0  0
   -4.5140   -2.1480   -1.7260 N   0  0  0  0  0  0  0  0  0  0  0  0
   -3.3220   -1.4060   -1.8780 C   0  0  0  0  0  0  0  0  0  0  0  0
   -2.2220   -1.9800   -1.7620 O   0  0  0  0  0  0  0  0  0  0  0  0
   -3.3740    0.0360   -2.1720 C   0  0  0  0  0  0  0  0  0  0  0  0
   -3.1440    0.8470   -0.9140 C   0  0  2  0  0  0  0  0  0  0  0  0
   -1.8430    0.5180   -0.3800 N   0  0  0  0  0  0  0  0  0  0  0  0
   -4.2060    0.6120    0.0940 C   0  0  0  0  0  0  0  0  0  0  0  0
   -3.9180    0.1780    1.2380 O   0  0  0  0  0  0  0  0  0  0  0  0
   -5.5180    0.8780   -0.2490 O   0  0  0  0  0  0  0  0  0  0  0  0
   -4.7050   -2.9140   -2.4080 H   0  0  0  0  0  0  0  0  0  0  0  0
   -5.1860   -1.9590   -0.9770 H   0  0  0  0  0  0  0  0  0  0  0  0
   -4.3540    0.2610   -2.6330 H   0  0  0  0  0  0  0  0  0  0  0  0
   -2.5950    0.3590   -2.8930 H   0  0  0  0  0  0  0  0  0  0  0  0
   -3.1380    1.9210   -1.1780 H   0  0  0  0  0  0  0  0  0  0  0  0
   -1.6450   -0.4750   -0.0580 H   0  0  0  0  0  0  0  0  0  0  0  0
  1 10  1  0  0  0  0
  1  8  1  0  0  0  0
  1  2  1  0  0  0  0
  2  3  1  0  0  0  0
  2 11  1  0  0  0  0
  3 14  1  0  0  0  0
  3 12  1  0  0  0  0
  4 15  1  1  0  0  0
  4  2  1  0  0  0  0
  5  4  1  0  0  0  0
  6  4  1  0  0  0  0
  6  7  2  0  0  0  0
  9  1  1  0  0  0  0
 13  3  1  0  0  0  0
 16  5  1  0  0  0  0
 17  5  1  0  0  0  0
 18 28  1  0  0  0  0
 18 27  1  0  0  0  0
 19 20  1  0  0  0  0
 19 18  1  0  0  0  0
 20 30  1  0  0  0  0
 21 19  1  0  0  0  0
 21 22  1  0  0  0  0
 22 23  1  0  0  0  0
 22 35  1  1  0  0  0
 23  6  1  0  0  0  0
 24 22  1  0  0  0  0
 25 24  2  0  0  0  0
 26 18  1  0  0  0  0
 29 19  1  0  0  0  0
 31 20  1  0  0  0  0
 32 20  1  0  0  0  0
 33 21  1  0  0  0  0
 34 21  1  0  0  0  0
 36 23  1  0  0  0  0
 37 47  1  0  0  0  0
 38 39  2  0  0  0  0
 38 37  1  0  0  0  0
 40 38  1  0  0  0  0
 40 41  1  0  0  0  0
 41 50  1  6  0  0  0
 41 42  1  0  0  0  0
 41 43  1  0  0  0  0
 42 24  1  0  0  0  0
 42 51  1  0  0  0  0
 43 44  1  0  0  0  0
 45 43  2  0  0  0  0
 46 37  1  0  0  0  0
 48 40  1  0  0  0  0
 49 40  1  0  0  0  0
M  END
$$$$
