VLQ.pdb
 OpenBabel07022419263D

 54 53  0  0  1  0  0  0  0  0999 V2000
   -0.0540   -2.8880    4.2480 C   0  0  0  0  0  0  0  0  0  0  0  0
   -1.3900   -2.1990    4.2840 C   0  0  0  0  0  0  0  0  0  0  0  0
   -1.4700   -1.1300    5.3470 C   0  0  0  0  0  0  0  0  0  0  0  0
   -1.7630   -1.5950    2.9480 C   0  0  2  0  0  0  0  0  0  0  0  0
   -1.8200   -2.6470    1.9640 N   0  0  0  0  0  0  0  0  0  0  0  0
   -0.7720   -0.5890    2.4990 C   0  0  0  0  0  0  0  0  0  0  0  0
   -0.5070    0.4490    3.1610 O   0  0  0  0  0  0  0  0  0  0  0  0
    0.2070   -3.1150    5.3230 H   0  0  0  0  0  0  0  0  0  0  0  0
   -0.1610   -3.8260    3.6740 H   0  0  0  0  0  0  0  0  0  0  0  0
    0.7540   -2.2350    3.8590 H   0  0  0  0  0  0  0  0  0  0  0  0
   -2.1530   -2.9640    4.5240 H   0  0  0  0  0  0  0  0  0  0  0  0
   -0.4470   -0.8730    5.6890 H   0  0  0  0  0  0  0  0  0  0  0  0
   -2.1070   -1.4380    6.2100 H   0  0  0  0  0  0  0  0  0  0  0  0
   -1.9820   -0.2180    4.9270 H   0  0  0  0  0  0  0  0  0  0  0  0
   -2.7730   -1.1550    3.0740 H   0  0  0  0  0  0  0  0  0  0  0  0
   -2.1820   -2.3520    1.0460 H   0  0  0  0  0  0  0  0  0  0  0  0
   -0.9660   -3.2090    1.9040 H   0  0  0  0  0  0  0  0  0  0  0  0
    3.5040    1.6410    1.2360 C   0  0  0  0  0  0  0  0  0  0  0  0
    3.2810    0.5730    0.1600 C   0  0  0  0  0  0  0  0  0  0  0  0
    4.6420   -0.1380    0.0550 C   0  0  0  0  0  0  0  0  0  0  0  0
    2.2190   -0.4020    0.5890 C   0  0  0  0  0  0  0  0  0  0  0  0
    0.8940    0.2260    0.8550 C   0  0  2  0  0  0  0  0  0  0  0  0
   -0.0880   -0.7920    1.2780 N   0  0  0  0  0  0  0  0  0  0  0  0
    0.3610    0.8180   -0.3850 C   0  0  0  0  0  0  0  0  0  0  0  0
    0.9620    1.7470   -0.9700 O   0  0  0  0  0  0  0  0  0  0  0  0
    4.5740    1.9790    1.2360 H   0  0  0  0  0  0  0  0  0  0  0  0
    3.3260    1.1690    2.2140 H   0  0  0  0  0  0  0  0  0  0  0  0
    2.8260    2.5010    1.0810 H   0  0  0  0  0  0  0  0  0  0  0  0
    3.0970    1.0230   -0.8130 H   0  0  0  0  0  0  0  0  0  0  0  0
    4.5060   -1.1860   -0.2840 H   0  0  0  0  0  0  0  0  0  0  0  0
    5.1480   -0.1300    1.0420 H   0  0  0  0  0  0  0  0  0  0  0  0
    5.3010    0.4430   -0.6350 H   0  0  0  0  0  0  0  0  0  0  0  0
    2.6240   -0.9700    1.4520 H   0  0  0  0  0  0  0  0  0  0  0  0
    2.1540   -1.1690   -0.2370 H   0  0  0  0  0  0  0  0  0  0  0  0
    0.9710    1.0210    1.6420 H   0  0  0  0  0  0  0  0  0  0  0  0
   -0.2460   -1.6300    0.6700 H   0  0  0  0  0  0  0  0  0  0  0  0
   -1.7160   -3.4560   -2.2170 N   0  0  0  0  0  0  0  0  0  0  0  0
   -1.1030   -2.2230   -2.5640 C   0  0  0  0  0  0  0  0  0  0  0  0
    0.0130   -1.9770   -2.0440 O   0  0  0  0  0  0  0  0  0  0  0  0
   -1.7010   -1.2570   -3.4800 C   0  0  0  0  0  0  0  0  0  0  0  0
   -1.2010    0.1310   -3.4180 C   0  0  0  0  0  0  0  0  0  0  0  0
   -1.4140    0.9040   -2.1700 C   0  0  2  0  0  0  0  0  0  0  0  0
   -0.8510    0.3630   -0.9640 N   0  0  0  0  0  0  0  0  0  0  0  0
   -2.8240    1.3500   -1.9750 C   0  0  0  0  0  0  0  0  0  0  0  0
   -3.4260    1.2510   -0.8730 O   0  0  0  0  0  0  0  0  0  0  0  0
   -3.5430    1.9030   -3.0260 O   0  0  0  0  0  0  0  0  0  0  0  0
   -1.5270   -3.9310   -1.3290 H   0  0  0  0  0  0  0  0  0  0  0  0
   -2.3850   -3.9070   -2.8810 H   0  0  0  0  0  0  0  0  0  0  0  0
   -2.8170   -1.2760   -3.4690 H   0  0  0  0  0  0  0  0  0  0  0  0
   -1.4530   -1.6330   -4.5200 H   0  0  0  0  0  0  0  0  0  0  0  0
   -1.7010    0.6970   -4.2530 H   0  0  0  0  0  0  0  0  0  0  0  0
   -0.1080    0.1740   -3.6460 H   0  0  0  0  0  0  0  0  0  0  0  0
   -0.8220    1.8730   -2.3400 H   0  0  0  0  0  0  0  0  0  0  0  0
   -1.3880   -0.4100   -0.4620 H   0  0  0  0  0  0  0  0  0  0  0  0
  1  2  1  0  0  0  0
  1  8  1  0  0  0  0
  2 11  1  0  0  0  0
  2  3  1  0  0  0  0
  3 12  1  0  0  0  0
  3 13  1  0  0  0  0
  4 15  1  1  0  0  0
  4  2  1  0  0  0  0
  5  4  1  0  0  0  0
  6  4  1  0  0  0  0
  6  7  2  0  0  0  0
  9  1  1  0  0  0  0
 10  1  1  0  0  0  0
 14  3  1  0  0  0  0
 16  5  1  0  0  0  0
 17  5  1  0  0  0  0
 18 27  1  0  0  0  0
 19 21  1  0  0  0  0
 19 18  1  0  0  0  0
 20 19  1  0  0  0  0
 20 31  1  0  0  0  0
 21 22  1  0  0  0  0
 21 33  1  0  0  0  0
 22 23  1  0  0  0  0
 22 35  1  1  0  0  0
 23  6  1  0  0  0  0
 24 22  1  0  0  0  0
 25 24  2  0  0  0  0
 26 18  1  0  0  0  0
 28 18  1  0  0  0  0
 29 19  1  0  0  0  0
 30 20  1  0  0  0  0
 32 20  1  0  0  0  0
 34 21  1  0  0  0  0
 36 23  1  0  0  0  0
 37 47  1  0  0  0  0
 38 37  1  0  0  0  0
 38 39  2  0  0  0  0
 40 49  1  0  0  0  0
 40 41  1  0  0  0  0
 40 38  1  0  0  0  0
 41 42  1  0  0  0  0
 42 53  1  6  0  0  0
 42 44  1  0  0  0  0
 42 43  1  0  0  0  0
 43 54  1  0  0  0  0
 43 24  1  0  0  0  0
 44 45  1  0  0  0  0
 46 44  2  0  0  0  0
 48 37  1  0  0  0  0
 50 40  1  0  0  0  0
 51 41  1  0  0  0  0
 52 41  1  0  0  0  0
M  END
$$$$
