VLR.pdb
 OpenBabel07022419263D

 60 59  0  0  1  0  0  0  0  0999 V2000
    2.9840   -3.6530    0.7290 C   0  0  0  0  0  0  0  0  0  0  0  0
    2.0060   -2.5840    1.1580 C   0  0  0  0  0  0  0  0  0  0  0  0
    1.2810   -3.0980    2.3840 C   0  0  0  0  0  0  0  0  0  0  0  0
    2.7670   -1.3080    1.4780 C   0  0  2  0  0  0  0  0  0  0  0  0
    3.7020   -1.6030    2.5620 N   0  0  0  0  0  0  0  0  0  0  0  0
    1.8350   -0.2360    1.9110 C   0  0  0  0  0  0  0  0  0  0  0  0
    1.8950    0.2190    3.0810 O   0  0  0  0  0  0  0  0  0  0  0  0
    3.2440   -3.4390   -0.3390 H   0  0  0  0  0  0  0  0  0  0  0  0
    3.8710   -3.5830    1.3770 H   0  0  0  0  0  0  0  0  0  0  0  0
    2.5410   -4.6720    0.8040 H   0  0  0  0  0  0  0  0  0  0  0  0
    1.3030   -2.4100    0.3280 H   0  0  0  0  0  0  0  0  0  0  0  0
    1.9500   -3.6290    3.0790 H   0  0  0  0  0  0  0  0  0  0  0  0
    0.5050   -3.8250    2.0570 H   0  0  0  0  0  0  0  0  0  0  0  0
    0.8330   -2.2480    2.9490 H   0  0  0  0  0  0  0  0  0  0  0  0
    3.3390   -1.0320    0.5710 H   0  0  0  0  0  0  0  0  0  0  0  0
    4.6110   -1.8350    2.1180 H   0  0  0  0  0  0  0  0  0  0  0  0
    3.8100   -0.7030    3.1030 H   0  0  0  0  0  0  0  0  0  0  0  0
    1.8440    3.4430    2.2620 C   0  0  0  0  0  0  0  0  0  0  0  0
    1.5800    3.1290    0.8140 C   0  0  0  0  0  0  0  0  0  0  0  0
    1.7230    4.4040    0.0160 C   0  0  0  0  0  0  0  0  0  0  0  0
    0.1760    2.5900    0.6010 C   0  0  0  0  0  0  0  0  0  0  0  0
   -0.0380    1.3120    1.3910 C   0  0  2  0  0  0  0  0  0  0  0  0
    0.8780    0.2790    1.0100 N   0  0  0  0  0  0  0  0  0  0  0  0
   -1.4480    0.8990    1.2250 C   0  0  0  0  0  0  0  0  0  0  0  0
   -2.3930    1.6890    1.5790 O   0  0  0  0  0  0  0  0  0  0  0  0
    0.9190    3.3880    2.8860 H   0  0  0  0  0  0  0  0  0  0  0  0
    2.6590    2.8240    2.6920 H   0  0  0  0  0  0  0  0  0  0  0  0
    2.1780    4.4950    2.3370 H   0  0  0  0  0  0  0  0  0  0  0  0
    2.3490    2.3860    0.5060 H   0  0  0  0  0  0  0  0  0  0  0  0
    1.1780    4.3240   -0.9570 H   0  0  0  0  0  0  0  0  0  0  0  0
    2.8030    4.6260   -0.1700 H   0  0  0  0  0  0  0  0  0  0  0  0
    1.2920    5.2770    0.5440 H   0  0  0  0  0  0  0  0  0  0  0  0
    0.0030    2.4660   -0.4660 H   0  0  0  0  0  0  0  0  0  0  0  0
   -0.5150    3.3710    0.9790 H   0  0  0  0  0  0  0  0  0  0  0  0
    0.0970    1.5720    2.4780 H   0  0  0  0  0  0  0  0  0  0  0  0
    0.8430   -0.1060    0.0490 H   0  0  0  0  0  0  0  0  0  0  0  0
   -0.6020   -4.1010   -3.7450 N   0  0  0  0  0  0  0  0  0  0  0  0
   -1.2240   -3.9300   -2.4640 C   0  0  0  0  0  0  0  0  0  0  0  0
   -0.4700   -3.7340   -1.4500 N   0  0  0  0  0  0  0  0  0  0  0  0
   -2.6170   -3.9810   -2.3160 N   0  0  0  0  0  0  0  0  0  0  0  0
   -3.2680   -3.1450   -1.3060 C   0  0  0  0  0  0  0  0  0  0  0  0
   -3.1430   -1.7070   -1.7110 C   0  0  0  0  0  0  0  0  0  0  0  0
   -3.7970   -0.7280   -0.8330 C   0  0  0  0  0  0  0  0  0  0  0  0
   -3.2930   -0.6810    0.5590 C   0  0  2  0  0  0  0  0  0  0  0  0
   -1.8720   -0.3540    0.6820 N   0  0  0  0  0  0  0  0  0  0  0  0
   -3.5840   -1.8590    1.3860 C   0  0  0  0  0  0  0  0  0  0  0  0
   -4.7390   -2.4020    1.4230 O   0  0  0  0  0  0  0  0  0  0  0  0
   -2.5590   -2.4060    2.1650 O   0  0  0  0  0  0  0  0  0  0  0  0
   -0.5570   -5.0560   -4.1450 H   0  0  0  0  0  0  0  0  0  0  0  0
   -0.2130   -3.2750   -4.2440 H   0  0  0  0  0  0  0  0  0  0  0  0
    0.5770   -3.6950   -1.5270 H   0  0  0  0  0  0  0  0  0  0  0  0
   -3.2030   -4.5930   -2.9050 H   0  0  0  0  0  0  0  0  0  0  0  0
   -2.8550   -3.3750   -0.3260 H   0  0  0  0  0  0  0  0  0  0  0  0
   -4.3470   -3.4110   -1.2650 H   0  0  0  0  0  0  0  0  0  0  0  0
   -3.5170   -1.5420   -2.7500 H   0  0  0  0  0  0  0  0  0  0  0  0
   -2.0290   -1.5180   -1.8100 H   0  0  0  0  0  0  0  0  0  0  0  0
   -4.8960   -0.9890   -0.7520 H   0  0  0  0  0  0  0  0  0  0  0  0
   -3.7630    0.3150   -1.2830 H   0  0  0  0  0  0  0  0  0  0  0  0
   -3.8690    0.1710    1.0660 H   0  0  0  0  0  0  0  0  0  0  0  0
   -1.1320   -1.0230    0.3790 H   0  0  0  0  0  0  0  0  0  0  0  0
  1 10  1  0  0  0  0
  1  2  1  0  0  0  0
  1  9  1  0  0  0  0
  2  4  1  0  0  0  0
  2  3  1  0  0  0  0
  3 14  1  0  0  0  0
  3 12  1  0  0  0  0
  4 15  1  6  0  0  0
  4  6  1  0  0  0  0
  4  5  1  0  0  0  0
  5 17  1  0  0  0  0
  6  7  2  0  0  0  0
  8  1  1  0  0  0  0
 11  2  1  0  0  0  0
 13  3  1  0  0  0  0
 16  5  1  0  0  0  0
 18 28  1  0  0  0  0
 18 27  1  0  0  0  0
 18 26  1  0  0  0  0
 19 18  1  0  0  0  0
 20 32  1  0  0  0  0
 20 19  1  0  0  0  0
 21 19  1  0  0  0  0
 21 34  1  0  0  0  0
 21 22  1  0  0  0  0
 22 35  1  1  0  0  0
 23 22  1  0  0  0  0
 23  6  1  0  0  0  0
 24 22  1  0  0  0  0
 24 25  2  0  0  0  0
 29 19  1  0  0  0  0
 30 20  1  0  0  0  0
 31 20  1  0  0  0  0
 33 21  1  0  0  0  0
 36 23  1  0  0  0  0
 37 38  1  0  0  0  0
 38 40  1  0  0  0  0
 38 39  2  0  0  0  0
 40 41  1  0  0  0  0
 41 54  1  0  0  0  0
 41 53  1  0  0  0  0
 42 41  1  0  0  0  0
 42 43  1  0  0  0  0
 43 57  1  0  0  0  0
 43 44  1  0  0  0  0
 44 45  1  0  0  0  0
 44 59  1  1  0  0  0
 44 46  1  0  0  0  0
 45 24  1  0  0  0  0
 46 47  2  0  0  0  0
 46 48  1  0  0  0  0
 49 37  1  0  0  0  0
 50 37  1  0  0  0  0
 51 39  1  0  0  0  0
 52 40  1  0  0  0  0
 55 42  1  0  0  0  0
 56 42  1  0  0  0  0
 58 43  1  0  0  0  0
 60 45  1  0  0  0  0
M  END
$$$$
