VLT.pdb
 OpenBabel07022419263D

 51 50  0  0  1  0  0  0  0  0999 V2000
    3.5080   -3.7970   -3.1070 C   0  0  0  0  0  0  0  0  0  0  0  0
    2.7520   -3.5440   -1.8250 C   0  0  0  0  0  0  0  0  0  0  0  0
    2.1790   -4.8670   -1.3690 C   0  0  0  0  0  0  0  0  0  0  0  0
    1.6200   -2.5320   -2.0490 C   0  0  2  0  0  0  0  0  0  0  0  0
    2.1230   -1.2770   -2.5120 N   0  0  0  0  0  0  0  0  0  0  0  0
    0.9330   -2.3920   -0.7150 C   0  0  0  0  0  0  0  0  0  0  0  0
    0.4240   -3.3720   -0.1370 O   0  0  0  0  0  0  0  0  0  0  0  0
    3.7940   -4.8710   -3.1720 H   0  0  0  0  0  0  0  0  0  0  0  0
    2.8510   -3.5800   -3.9930 H   0  0  0  0  0  0  0  0  0  0  0  0
    4.4480   -3.2190   -3.1670 H   0  0  0  0  0  0  0  0  0  0  0  0
    3.4200   -3.1500   -1.0340 H   0  0  0  0  0  0  0  0  0  0  0  0
    2.3110   -5.0060   -0.2620 H   0  0  0  0  0  0  0  0  0  0  0  0
    1.1360   -4.9750   -1.6840 H   0  0  0  0  0  0  0  0  0  0  0  0
    2.7310   -5.7350   -1.8270 H   0  0  0  0  0  0  0  0  0  0  0  0
    0.9630   -2.9650   -2.8080 H   0  0  0  0  0  0  0  0  0  0  0  0
    2.8060   -1.4820   -3.2880 H   0  0  0  0  0  0  0  0  0  0  0  0
    1.3120   -0.7250   -2.8800 H   0  0  0  0  0  0  0  0  0  0  0  0
    2.8260    0.8180    1.1820 C   0  0  0  0  0  0  0  0  0  0  0  0
    1.8520    0.6470    2.2900 C   0  0  0  0  0  0  0  0  0  0  0  0
    1.0190    1.9080    2.4130 C   0  0  0  0  0  0  0  0  0  0  0  0
    1.0740   -0.5960    2.3350 C   0  0  0  0  0  0  0  0  0  0  0  0
    0.1850   -0.9670    1.2200 C   0  0  2  0  0  0  0  0  0  0  0  0
    0.8400   -1.1290   -0.0620 N   0  0  0  0  0  0  0  0  0  0  0  0
   -1.0090   -0.1380    1.0490 C   0  0  0  0  0  0  0  0  0  0  0  0
   -1.3060    0.3080   -0.0880 O   0  0  0  0  0  0  0  0  0  0  0  0
    3.7330    1.3490    1.6000 H   0  0  0  0  0  0  0  0  0  0  0  0
    2.4860    1.4980    0.3760 H   0  0  0  0  0  0  0  0  0  0  0  0
    3.2380   -0.1380    0.7880 H   0  0  0  0  0  0  0  0  0  0  0  0
    2.4670    0.6360    3.2450 H   0  0  0  0  0  0  0  0  0  0  0  0
    0.5760    2.0040    3.4340 H   0  0  0  0  0  0  0  0  0  0  0  0
    1.6330    2.8210    2.2720 H   0  0  0  0  0  0  0  0  0  0  0  0
    0.2540    1.9340    1.6090 H   0  0  0  0  0  0  0  0  0  0  0  0
    1.7750   -1.4460    2.5210 H   0  0  0  0  0  0  0  0  0  0  0  0
    0.4420   -0.5610    3.2670 H   0  0  0  0  0  0  0  0  0  0  0  0
   -0.2170   -1.9920    1.5150 H   0  0  0  0  0  0  0  0  0  0  0  0
    1.2670   -0.3200   -0.5570 H   0  0  0  0  0  0  0  0  0  0  0  0
   -5.5690    1.0580    1.9250 C   0  0  0  0  0  0  0  0  0  0  0  0
   -4.3220    0.2370    2.1710 C   0  0  1  0  0  0  0  0  0  0  0  0
   -4.3870   -0.8760    1.3350 O   0  0  0  0  0  0  0  0  0  0  0  0
   -3.0710    1.0440    1.8830 C   0  0  2  0  0  0  0  0  0  0  0  0
   -1.8980    0.2190    2.1060 N   0  0  0  0  0  0  0  0  0  0  0  0
   -3.0200    2.2740    2.7080 C   0  0  0  0  0  0  0  0  0  0  0  0
   -2.1100    2.5790    3.4910 O   0  0  0  0  0  0  0  0  0  0  0  0
   -4.0990    3.1570    2.5820 O   0  0  0  0  0  0  0  0  0  0  0  0
   -6.3900    0.3360    1.6810 H   0  0  0  0  0  0  0  0  0  0  0  0
   -5.8730    1.6290    2.8250 H   0  0  0  0  0  0  0  0  0  0  0  0
   -5.4460    1.7280    1.0560 H   0  0  0  0  0  0  0  0  0  0  0  0
   -4.3560   -0.1360    3.2080 H   0  0  0  0  0  0  0  0  0  0  0  0
   -3.6550   -1.5180    1.5080 H   0  0  0  0  0  0  0  0  0  0  0  0
   -3.1180    1.3190    0.7990 H   0  0  0  0  0  0  0  0  0  0  0  0
   -1.6640   -0.1440    3.0550 H   0  0  0  0  0  0  0  0  0  0  0  0
  1  2  1  0  0  0  0
  2  3  1  0  0  0  0
  2 11  1  0  0  0  0
  3 12  1  0  0  0  0
  4 15  1  6  0  0  0
  4  2  1  0  0  0  0
  4  6  1  0  0  0  0
  5  4  1  0  0  0  0
  6  7  2  0  0  0  0
  6 23  1  0  0  0  0
  8  1  1  0  0  0  0
  9  1  1  0  0  0  0
 10  1  1  0  0  0  0
 13  3  1  0  0  0  0
 14  3  1  0  0  0  0
 16  5  1  0  0  0  0
 17  5  1  0  0  0  0
 18 26  1  0  0  0  0
 18 19  1  0  0  0  0
 19 21  1  0  0  0  0
 19 20  1  0  0  0  0
 19 29  1  0  0  0  0
 20 30  1  0  0  0  0
 21 33  1  0  0  0  0
 21 34  1  0  0  0  0
 22 35  1  1  0  0  0
 22 21  1  0  0  0  0
 23 22  1  0  0  0  0
 24 22  1  0  0  0  0
 24 41  1  0  0  0  0
 25 24  2  0  0  0  0
 27 18  1  0  0  0  0
 28 18  1  0  0  0  0
 31 20  1  0  0  0  0
 32 20  1  0  0  0  0
 36 23  1  0  0  0  0
 37 38  1  0  0  0  0
 37 46  1  0  0  0  0
 38 48  1  1  0  0  0
 39 49  1  0  0  0  0
 39 38  1  0  0  0  0
 40 50  1  6  0  0  0
 40 41  1  0  0  0  0
 40 38  1  0  0  0  0
 40 42  1  0  0  0  0
 41 51  1  0  0  0  0
 42 43  1  0  0  0  0
 44 42  2  0  0  0  0
 45 37  1  0  0  0  0
 47 37  1  0  0  0  0
M  END
$$$$
