VLW.pdb
 OpenBabel07022419263D

 61 62  0  0  1  0  0  0  0  0999 V2000
    0.5100   -1.2430    4.9490 C   0  0  0  0  0  0  0  0  0  0  0  0
    1.6900   -1.7070    4.1430 C   0  0  0  0  0  0  0  0  0  0  0  0
    1.3740   -2.8250    3.1790 C   0  0  0  0  0  0  0  0  0  0  0  0
    2.4930   -0.6160    3.5230 C   0  0  2  0  0  0  0  0  0  0  0  0
    3.0170    0.2490    4.5750 N   0  0  0  0  0  0  0  0  0  0  0  0
    1.8350    0.2190    2.5280 C   0  0  0  0  0  0  0  0  0  0  0  0
    1.8140    1.4790    2.7480 O   0  0  0  0  0  0  0  0  0  0  0  0
   -0.3990   -1.6370    4.4050 H   0  0  0  0  0  0  0  0  0  0  0  0
    0.4690   -0.1700    5.1280 H   0  0  0  0  0  0  0  0  0  0  0  0
    0.4420   -1.7410    5.9550 H   0  0  0  0  0  0  0  0  0  0  0  0
    2.3870   -2.1770    4.9110 H   0  0  0  0  0  0  0  0  0  0  0  0
    1.3570   -3.7840    3.7720 H   0  0  0  0  0  0  0  0  0  0  0  0
    0.3590   -2.7340    2.7430 H   0  0  0  0  0  0  0  0  0  0  0  0
    2.1920   -2.9240    2.4660 H   0  0  0  0  0  0  0  0  0  0  0  0
    3.3830   -1.0970    3.0450 H   0  0  0  0  0  0  0  0  0  0  0  0
    2.2260    0.8420    4.9090 H   0  0  0  0  0  0  0  0  0  0  0  0
    3.6810    0.9170    4.0800 H   0  0  0  0  0  0  0  0  0  0  0  0
    1.0650    3.0750   -1.6200 C   0  0  0  0  0  0  0  0  0  0  0  0
    1.0350    1.5950   -1.9280 C   0  0  0  0  0  0  0  0  0  0  0  0
   -0.1280    1.1930   -2.7530 C   0  0  0  0  0  0  0  0  0  0  0  0
    1.3910    0.7130   -0.7930 C   0  0  0  0  0  0  0  0  0  0  0  0
    0.6080    0.7800    0.4560 C   0  0  2  0  0  0  0  0  0  0  0  0
    1.2240   -0.2260    1.3510 N   0  0  0  0  0  0  0  0  0  0  0  0
   -0.8330    0.5970    0.4010 C   0  0  0  0  0  0  0  0  0  0  0  0
   -1.5610    1.4090   -0.2340 O   0  0  0  0  0  0  0  0  0  0  0  0
    0.5780    3.2690   -0.6460 H   0  0  0  0  0  0  0  0  0  0  0  0
    0.4280    3.5740   -2.3860 H   0  0  0  0  0  0  0  0  0  0  0  0
    2.0640    3.4990   -1.6800 H   0  0  0  0  0  0  0  0  0  0  0  0
    1.9460    1.4840   -2.6470 H   0  0  0  0  0  0  0  0  0  0  0  0
   -0.8750    2.0280   -2.7500 H   0  0  0  0  0  0  0  0  0  0  0  0
   -0.5420    0.2380   -2.4100 H   0  0  0  0  0  0  0  0  0  0  0  0
    0.1870    1.0160   -3.8330 H   0  0  0  0  0  0  0  0  0  0  0  0
    2.4570    0.9940   -0.5090 H   0  0  0  0  0  0  0  0  0  0  0  0
    1.5150   -0.3220   -1.1910 H   0  0  0  0  0  0  0  0  0  0  0  0
    0.7720    1.8180    0.8760 H   0  0  0  0  0  0  0  0  0  0  0  0
    1.2070   -1.2260    1.1150 H   0  0  0  0  0  0  0  0  0  0  0  0
   -1.5380   -0.4730    1.0300 N   0  0  0  0  0  0  0  0  0  0  0  0
   -2.9660   -0.5730    0.9180 C   0  0  1  0  0  0  0  0  0  0  0  0
   -3.3600   -1.8520    0.2680 C   0  0  0  0  0  0  0  0  0  0  0  0
   -2.8400   -2.0260   -1.0980 C   0  0  0  0  0  0  0  0  0  0  0  0
   -3.5420   -1.7420   -2.2760 C   0  0  0  0  0  0  0  0  0  0  0  0
   -2.7720   -1.9780   -3.3430 N   0  0  0  0  0  0  0  0  0  0  0  0
   -1.5540   -2.4200   -2.9220 C   0  0  0  0  0  0  0  0  0  0  0  0
   -0.4360   -2.8000   -3.6420 C   0  0  0  0  0  0  0  0  0  0  0  0
    0.6880   -3.2280   -2.9800 C   0  0  0  0  0  0  0  0  0  0  0  0
    0.6540   -3.2630   -1.6030 C   0  0  0  0  0  0  0  0  0  0  0  0
   -0.4610   -2.8830   -0.8970 C   0  0  0  0  0  0  0  0  0  0  0  0
   -1.6140   -2.4440   -1.5420 C   0  0  0  0  0  0  0  0  0  0  0  0
   -3.5200   -0.5790    2.3150 C   0  0  0  0  0  0  0  0  0  0  0  0
   -4.7620   -0.6500    2.5180 O   0  0  0  0  0  0  0  0  0  0  0  0
   -2.7060   -0.5090    3.4350 O   0  0  0  0  0  0  0  0  0  0  0  0
   -1.0140   -1.1580    1.5750 H   0  0  0  0  0  0  0  0  0  0  0  0
   -3.3820    0.3080    0.3650 H   0  0  0  0  0  0  0  0  0  0  0  0
   -3.0720   -2.7310    0.9170 H   0  0  0  0  0  0  0  0  0  0  0  0
   -4.4840   -1.8540    0.2070 H   0  0  0  0  0  0  0  0  0  0  0  0
   -4.5620   -1.3810   -2.3570 H   0  0  0  0  0  0  0  0  0  0  0  0
   -3.0090   -1.8630   -4.3340 H   0  0  0  0  0  0  0  0  0  0  0  0
   -0.4450   -2.7610   -4.7170 H   0  0  0  0  0  0  0  0  0  0  0  0
    1.5950   -3.5370   -3.5300 H   0  0  0  0  0  0  0  0  0  0  0  0
    1.5270   -3.5960   -1.0710 H   0  0  0  0  0  0  0  0  0  0  0  0
   -0.4950   -2.9230    0.1860 H   0  0  0  0  0  0  0  0  0  0  0  0
  1  9  1  0  0  0  0
  1 10  1  0  0  0  0
  2 11  1  0  0  0  0
  2  1  1  0  0  0  0
  3 12  1  0  0  0  0
  3  2  1  0  0  0  0
  4 15  1  6  0  0  0
  4  2  1  0  0  0  0
  4  5  1  0  0  0  0
  5 16  1  0  0  0  0
  6  7  2  0  0  0  0
  6  4  1  0  0  0  0
  8  1  1  0  0  0  0
 13  3  1  0  0  0  0
 14  3  1  0  0  0  0
 17  5  1  0  0  0  0
 18 26  1  0  0  0  0
 19 18  1  0  0  0  0
 19 21  1  0  0  0  0
 20 30  1  0  0  0  0
 20 31  1  0  0  0  0
 20 19  1  0  0  0  0
 21 33  1  0  0  0  0
 21 22  1  0  0  0  0
 22 35  1  1  0  0  0
 22 23  1  0  0  0  0
 23  6  1  0  0  0  0
 24 22  1  0  0  0  0
 24 37  1  0  0  0  0
 25 24  2  0  0  0  0
 27 18  1  0  0  0  0
 28 18  1  0  0  0  0
 29 19  1  0  0  0  0
 32 20  1  0  0  0  0
 34 21  1  0  0  0  0
 36 23  1  0  0  0  0
 37 52  1  0  0  0  0
 38 53  1  6  0  0  0
 38 37  1  0  0  0  0
 38 49  1  0  0  0  0
 39 54  1  0  0  0  0
 39 38  1  0  0  0  0
 40 39  1  0  0  0  0
 41 40  2  0  0  0  0
 42 43  1  0  0  0  0
 42 41  1  0  0  0  0
 43 48  1  0  0  0  0
 44 45  1  0  0  0  0
 44 43  2  0  0  0  0
 45 46  2  0  0  0  0
 46 60  1  0  0  0  0
 46 47  1  0  0  0  0
 47 61  1  0  0  0  0
 48 40  1  0  0  0  0
 48 47  2  0  0  0  0
 49 50  2  0  0  0  0
 49 51  1  0  0  0  0
 55 39  1  0  0  0  0
 56 41  1  0  0  0  0
 57 42  1  0  0  0  0
 58 44  1  0  0  0  0
 59 45  1  0  0  0  0
M  END
$$$$
