VLY.pdb
 OpenBabel07022419263D

 58 58  0  0  1  0  0  0  0  0999 V2000
    2.1810   -2.5630    1.1620 C   0  0  0  0  0  0  0  0  0  0  0  0
    3.1840   -1.7550    1.8970 C   0  0  0  0  0  0  0  0  0  0  0  0
    2.7270   -1.6300    3.3550 C   0  0  0  0  0  0  0  0  0  0  0  0
    3.4310   -0.3670    1.3230 C   0  0  2  0  0  0  0  0  0  0  0  0
    4.4630    0.1970    2.2320 N   0  0  0  0  0  0  0  0  0  0  0  0
    2.2270    0.4890    1.4660 C   0  0  0  0  0  0  0  0  0  0  0  0
    2.1470    1.3270    2.4310 O   0  0  0  0  0  0  0  0  0  0  0  0
    1.1620   -2.4460    1.6320 H   0  0  0  0  0  0  0  0  0  0  0  0
    2.4820   -3.6380    1.2380 H   0  0  0  0  0  0  0  0  0  0  0  0
    2.1240   -2.2890    0.1110 H   0  0  0  0  0  0  0  0  0  0  0  0
    4.1420   -2.3270    1.9500 H   0  0  0  0  0  0  0  0  0  0  0  0
    3.5180   -1.1790    3.9640 H   0  0  0  0  0  0  0  0  0  0  0  0
    2.5060   -2.6870    3.6830 H   0  0  0  0  0  0  0  0  0  0  0  0
    1.7720   -1.0870    3.4240 H   0  0  0  0  0  0  0  0  0  0  0  0
    3.8170   -0.4060    0.3100 H   0  0  0  0  0  0  0  0  0  0  0  0
    5.1040   -0.5670    2.5380 H   0  0  0  0  0  0  0  0  0  0  0  0
    4.0140    0.5940    3.0870 H   0  0  0  0  0  0  0  0  0  0  0  0
   -1.0480    4.3240    0.9810 C   0  0  0  0  0  0  0  0  0  0  0  0
   -0.9580    3.4930   -0.2810 C   0  0  0  0  0  0  0  0  0  0  0  0
   -2.2940    3.1330   -0.8610 C   0  0  0  0  0  0  0  0  0  0  0  0
    0.0540    2.4210   -0.2270 C   0  0  0  0  0  0  0  0  0  0  0  0
   -0.0450    1.3820    0.8310 C   0  0  2  0  0  0  0  0  0  0  0  0
    1.1050    0.4750    0.5960 N   0  0  0  0  0  0  0  0  0  0  0  0
   -1.2650    0.6010    0.8980 C   0  0  0  0  0  0  0  0  0  0  0  0
   -2.3770    1.1270    1.2210 O   0  0  0  0  0  0  0  0  0  0  0  0
   -1.9640    3.9980    1.5530 H   0  0  0  0  0  0  0  0  0  0  0  0
   -1.2020    5.4040    0.7770 H   0  0  0  0  0  0  0  0  0  0  0  0
   -0.1850    4.2230    1.6310 H   0  0  0  0  0  0  0  0  0  0  0  0
   -0.5120    4.2520   -1.0320 H   0  0  0  0  0  0  0  0  0  0  0  0
   -3.1520    3.2950   -0.1760 H   0  0  0  0  0  0  0  0  0  0  0  0
   -2.2290    2.1180   -1.2900 H   0  0  0  0  0  0  0  0  0  0  0  0
   -2.4740    3.7960   -1.7530 H   0  0  0  0  0  0  0  0  0  0  0  0
    0.0430    1.9080   -1.2250 H   0  0  0  0  0  0  0  0  0  0  0  0
    1.0560    2.9000   -0.1250 H   0  0  0  0  0  0  0  0  0  0  0  0
    0.1350    1.8850    1.8060 H   0  0  0  0  0  0  0  0  0  0  0  0
    1.1090   -0.1790   -0.2110 H   0  0  0  0  0  0  0  0  0  0  0  0
    0.8610   -5.7290   -2.5950 O   0  0  0  0  0  0  0  0  0  0  0  0
   -0.0810   -4.8280   -2.1130 C   0  0  0  0  0  0  0  0  0  0  0  0
   -1.1180   -5.2940   -1.3410 C   0  0  0  0  0  0  0  0  0  0  0  0
   -2.0380   -4.3680   -0.8780 C   0  0  0  0  0  0  0  0  0  0  0  0
   -1.9540   -3.0210   -1.1580 C   0  0  0  0  0  0  0  0  0  0  0  0
   -2.9530   -2.0700   -0.6470 C   0  0  0  0  0  0  0  0  0  0  0  0
   -2.5790   -1.4970    0.7050 C   0  0  2  0  0  0  0  0  0  0  0  0
   -1.3070   -0.7900    0.6110 N   0  0  0  0  0  0  0  0  0  0  0  0
   -2.5280   -2.5690    1.7210 C   0  0  0  0  0  0  0  0  0  0  0  0
   -3.5700   -3.2490    1.8920 O   0  0  0  0  0  0  0  0  0  0  0  0
   -0.8850   -2.6130   -1.9430 C   0  0  0  0  0  0  0  0  0  0  0  0
    0.0460   -3.4860   -2.4220 C   0  0  0  0  0  0  0  0  0  0  0  0
   -1.4130   -2.8580    2.4820 O   0  0  0  0  0  0  0  0  0  0  0  0
    1.6560   -5.4080   -3.1200 H   0  0  0  0  0  0  0  0  0  0  0  0
   -1.1960   -6.3490   -1.1130 H   0  0  0  0  0  0  0  0  0  0  0  0
   -2.8470   -4.7850   -0.2670 H   0  0  0  0  0  0  0  0  0  0  0  0
   -3.9310   -2.5830   -0.5830 H   0  0  0  0  0  0  0  0  0  0  0  0
   -3.0770   -1.2580   -1.3920 H   0  0  0  0  0  0  0  0  0  0  0  0
   -3.3950   -0.8080    0.9900 H   0  0  0  0  0  0  0  0  0  0  0  0
   -0.4570   -1.3330    0.3290 H   0  0  0  0  0  0  0  0  0  0  0  0
   -0.8100   -1.5480   -2.1700 H   0  0  0  0  0  0  0  0  0  0  0  0
    0.8850   -3.1680   -3.0370 H   0  0  0  0  0  0  0  0  0  0  0  0
  1  9  1  0  0  0  0
  1  8  1  0  0  0  0
  1  2  1  0  0  0  0
  2 11  1  0  0  0  0
  2  3  1  0  0  0  0
  3 14  1  0  0  0  0
  3 13  1  0  0  0  0
  3 12  1  0  0  0  0
  4 15  1  6  0  0  0
  4  6  1  0  0  0  0
  4  2  1  0  0  0  0
  4  5  1  0  0  0  0
  5 16  1  0  0  0  0
  5 17  1  0  0  0  0
  6  7  2  0  0  0  0
 10  1  1  0  0  0  0
 18 26  1  0  0  0  0
 18 28  1  0  0  0  0
 19 21  1  0  0  0  0
 19 18  1  0  0  0  0
 20 19  1  0  0  0  0
 20 30  1  0  0  0  0
 21 34  1  0  0  0  0
 21 22  1  0  0  0  0
 22 24  1  0  0  0  0
 22 35  1  1  0  0  0
 23 22  1  0  0  0  0
 23  6  1  0  0  0  0
 24 25  2  0  0  0  0
 27 18  1  0  0  0  0
 29 19  1  0  0  0  0
 31 20  1  0  0  0  0
 32 20  1  0  0  0  0
 33 21  1  0  0  0  0
 36 23  1  0  0  0  0
 37 38  1  0  0  0  0
 38 39  1  0  0  0  0
 39 51  1  0  0  0  0
 39 40  2  0  0  0  0
 40 52  1  0  0  0  0
 41 40  1  0  0  0  0
 41 42  1  0  0  0  0
 42 53  1  0  0  0  0
 42 43  1  0  0  0  0
 43 55  1  1  0  0  0
 43 45  1  0  0  0  0
 44 43  1  0  0  0  0
 44 24  1  0  0  0  0
 45 46  2  0  0  0  0
 45 49  1  0  0  0  0
 47 41  2  0  0  0  0
 48 38  2  0  0  0  0
 48 47  1  0  0  0  0
 50 37  1  0  0  0  0
 54 42  1  0  0  0  0
 56 44  1  0  0  0  0
 57 47  1  0  0  0  0
 58 48  1  0  0  0  0
M  END
$$$$
