VMC.pdb
 OpenBabel07022419263D

 46 45  0  0  1  0  0  0  0  0999 V2000
   -0.3120   -5.8020    1.0450 C   0  0  0  0  0  0  0  0  0  0  0  0
    0.5870   -4.5940    1.1940 C   0  0  0  0  0  0  0  0  0  0  0  0
    1.5560   -4.8350    2.3240 C   0  0  0  0  0  0  0  0  0  0  0  0
   -0.2400   -3.3480    1.4170 C   0  0  2  0  0  0  0  0  0  0  0  0
   -1.1090   -3.1830    0.2600 N   0  0  0  0  0  0  0  0  0  0  0  0
    0.6010   -2.1440    1.5810 C   0  0  0  0  0  0  0  0  0  0  0  0
    1.4350   -2.0770    2.5300 O   0  0  0  0  0  0  0  0  0  0  0  0
   -0.5520   -5.9250   -0.0360 H   0  0  0  0  0  0  0  0  0  0  0  0
    0.2040   -6.7170    1.4030 H   0  0  0  0  0  0  0  0  0  0  0  0
   -1.2820   -5.6570    1.5650 H   0  0  0  0  0  0  0  0  0  0  0  0
    1.1790   -4.5120    0.2590 H   0  0  0  0  0  0  0  0  0  0  0  0
    1.5610   -5.9190    2.5740 H   0  0  0  0  0  0  0  0  0  0  0  0
    2.6060   -4.5780    2.0250 H   0  0  0  0  0  0  0  0  0  0  0  0
    1.2230   -4.2980    3.2250 H   0  0  0  0  0  0  0  0  0  0  0  0
   -0.8990   -3.5430    2.2850 H   0  0  0  0  0  0  0  0  0  0  0  0
   -0.5940   -2.9900   -0.6090 H   0  0  0  0  0  0  0  0  0  0  0  0
   -1.7840   -2.4270    0.5110 H   0  0  0  0  0  0  0  0  0  0  0  0
    1.5130    3.6880   -1.6610 C   0  0  0  0  0  0  0  0  0  0  0  0
    2.5130    3.1840   -0.2680 S   0  0  0  0  0  0  0  0  0  0  0  0
    3.1420    1.5300   -0.3670 C   0  0  0  0  0  0  0  0  0  0  0  0
    2.1960    0.4080   -0.3100 C   0  0  0  0  0  0  0  0  0  0  0  0
    1.3790    0.1730    0.8960 C   0  0  2  0  0  0  0  0  0  0  0  0
    0.5260   -1.0230    0.7110 N   0  0  0  0  0  0  0  0  0  0  0  0
    0.4450    1.2490    1.2680 C   0  0  0  0  0  0  0  0  0  0  0  0
    0.7800    2.4060    1.6030 O   0  0  0  0  0  0  0  0  0  0  0  0
    2.1360    4.1940   -2.4480 H   0  0  0  0  0  0  0  0  0  0  0  0
    0.7940    4.4620   -1.3210 H   0  0  0  0  0  0  0  0  0  0  0  0
    1.0050    2.8490   -2.1750 H   0  0  0  0  0  0  0  0  0  0  0  0
    3.8200    1.4090   -1.2610 H   0  0  0  0  0  0  0  0  0  0  0  0
    3.8640    1.3970    0.5060 H   0  0  0  0  0  0  0  0  0  0  0  0
    1.4730    0.5470   -1.1890 H   0  0  0  0  0  0  0  0  0  0  0  0
    2.7220   -0.5550   -0.6330 H   0  0  0  0  0  0  0  0  0  0  0  0
    2.0530    0.0090    1.7720 H   0  0  0  0  0  0  0  0  0  0  0  0
   -0.1570   -1.0700   -0.0730 H   0  0  0  0  0  0  0  0  0  0  0  0
   -0.9840    1.0240    1.2710 N   0  0  0  0  0  0  0  0  0  0  0  0
   -1.8860    2.0820    1.6360 C   0  0  1  0  0  0  0  0  0  0  0  0
   -2.8210    2.3640    0.4740 C   0  0  0  0  0  0  0  0  0  0  0  0
   -1.8000    2.8560   -0.9370 S   0  0  0  0  0  0  0  0  0  0  0  0
   -2.6260    1.7770    2.8730 C   0  0  0  0  0  0  0  0  0  0  0  0
   -3.4570    2.5800    3.3470 O   0  0  0  0  0  0  0  0  0  0  0  0
   -2.3920    0.5790    3.5150 O   0  0  0  0  0  0  0  0  0  0  0  0
   -1.4000    0.1070    1.0140 H   0  0  0  0  0  0  0  0  0  0  0  0
   -1.3050    3.0180    1.8460 H   0  0  0  0  0  0  0  0  0  0  0  0
   -3.3280    1.4110    0.1990 H   0  0  0  0  0  0  0  0  0  0  0  0
   -3.5200    3.1650    0.7320 H   0  0  0  0  0  0  0  0  0  0  0  0
   -1.7720    4.2650   -0.9830 H   0  0  0  0  0  0  0  0  0  0  0  0
  1  2  1  0  0  0  0
  1  9  1  0  0  0  0
  1 10  1  0  0  0  0
  2  4  1  0  0  0  0
  2  3  1  0  0  0  0
  3 12  1  0  0  0  0
  3 14  1  0  0  0  0
  4  6  1  0  0  0  0
  4 15  1  1  0  0  0
  5 17  1  0  0  0  0
  5  4  1  0  0  0  0
  6  7  2  0  0  0  0
  8  1  1  0  0  0  0
 11  2  1  0  0  0  0
 13  3  1  0  0  0  0
 16  5  1  0  0  0  0
 18 27  1  0  0  0  0
 18 19  1  0  0  0  0
 20 21  1  0  0  0  0
 20 19  1  0  0  0  0
 20 30  1  0  0  0  0
 21 22  1  0  0  0  0
 22 24  1  0  0  0  0
 22 33  1  1  0  0  0
 23 22  1  0  0  0  0
 23  6  1  0  0  0  0
 24 35  1  0  0  0  0
 24 25  2  0  0  0  0
 26 18  1  0  0  0  0
 28 18  1  0  0  0  0
 29 20  1  0  0  0  0
 31 21  1  0  0  0  0
 32 21  1  0  0  0  0
 34 23  1  0  0  0  0
 35 36  1  0  0  0  0
 36 43  1  1  0  0  0
 36 39  1  0  0  0  0
 37 45  1  0  0  0  0
 37 36  1  0  0  0  0
 38 37  1  0  0  0  0
 39 40  2  0  0  0  0
 39 41  1  0  0  0  0
 42 35  1  0  0  0  0
 44 37  1  0  0  0  0
 46 38  1  0  0  0  0
M  END
$$$$
