VMD.pdb
 OpenBabel07022419263D

 48 47  0  0  1  0  0  0  0  0999 V2000
    2.1930   -3.7550    0.9490 C   0  0  0  0  0  0  0  0  0  0  0  0
    1.0790   -3.7080   -0.0240 C   0  0  0  0  0  0  0  0  0  0  0  0
    0.3760   -5.0700   -0.1500 C   0  0  0  0  0  0  0  0  0  0  0  0
   -0.0200   -2.7210    0.2690 C   0  0  2  0  0  0  0  0  0  0  0  0
   -0.9720   -2.9540   -0.8550 N   0  0  0  0  0  0  0  0  0  0  0  0
    0.3510   -1.3110    0.2630 C   0  0  0  0  0  0  0  0  0  0  0  0
    0.0690   -0.6220   -0.7770 O   0  0  0  0  0  0  0  0  0  0  0  0
    3.0630   -3.2370    0.5380 H   0  0  0  0  0  0  0  0  0  0  0  0
    1.9060   -3.4410    1.9760 H   0  0  0  0  0  0  0  0  0  0  0  0
    2.5140   -4.8360    1.0920 H   0  0  0  0  0  0  0  0  0  0  0  0
    1.4610   -3.4800   -1.0620 H   0  0  0  0  0  0  0  0  0  0  0  0
   -0.3350   -5.2130    0.6970 H   0  0  0  0  0  0  0  0  0  0  0  0
    1.1170   -5.8890   -0.0970 H   0  0  0  0  0  0  0  0  0  0  0  0
   -0.2170   -5.0980   -1.0970 H   0  0  0  0  0  0  0  0  0  0  0  0
   -0.4990   -3.0450    1.2260 H   0  0  0  0  0  0  0  0  0  0  0  0
   -1.9330   -3.0970   -0.4860 H   0  0  0  0  0  0  0  0  0  0  0  0
   -0.8770   -2.2390   -1.5810 H   0  0  0  0  0  0  0  0  0  0  0  0
    4.0060   -0.9830    2.4970 C   0  0  0  0  0  0  0  0  0  0  0  0
    4.2870   -0.5630    0.7350 S   0  0  0  0  0  0  0  0  0  0  0  0
    3.7130    1.0920    0.4510 C   0  0  0  0  0  0  0  0  0  0  0  0
    2.2700    1.2950    0.2550 C   0  0  0  0  0  0  0  0  0  0  0  0
    1.2470    0.8250    1.1580 C   0  0  2  0  0  0  0  0  0  0  0  0
    1.0050   -0.5890    1.3320 N   0  0  0  0  0  0  0  0  0  0  0  0
   -0.0420    1.5880    0.9230 C   0  0  0  0  0  0  0  0  0  0  0  0
    0.0120    2.7980    0.5850 O   0  0  0  0  0  0  0  0  0  0  0  0
    3.7180   -2.0250    2.5480 H   0  0  0  0  0  0  0  0  0  0  0  0
    3.2660   -0.3090    2.9490 H   0  0  0  0  0  0  0  0  0  0  0  0
    5.0140   -0.8240    2.9930 H   0  0  0  0  0  0  0  0  0  0  0  0
    4.0250    1.7850    1.3110 H   0  0  0  0  0  0  0  0  0  0  0  0
    4.3070    1.5430   -0.4270 H   0  0  0  0  0  0  0  0  0  0  0  0
    1.9970    1.0020   -0.8450 H   0  0  0  0  0  0  0  0  0  0  0  0
    2.1550    2.4510    0.1300 H   0  0  0  0  0  0  0  0  0  0  0  0
    1.5490    1.1660    2.2160 H   0  0  0  0  0  0  0  0  0  0  0  0
    1.2290   -1.1640    2.1550 H   0  0  0  0  0  0  0  0  0  0  0  0
   -1.2930    0.9600    1.0800 N   0  0  0  0  0  0  0  0  0  0  0  0
   -2.5180    1.7410    0.8340 C   0  0  1  0  0  0  0  0  0  0  0  0
   -3.3870    1.0500   -0.1660 C   0  0  0  0  0  0  0  0  0  0  0  0
   -4.6250    1.7220   -0.5250 C   0  0  0  0  0  0  0  0  0  0  0  0
   -4.9600    2.8490   -0.0950 O   0  0  0  0  0  0  0  0  0  0  0  0
   -3.2160    1.7630    2.1610 C   0  0  0  0  0  0  0  0  0  0  0  0
   -4.3020    2.3590    2.3320 O   0  0  0  0  0  0  0  0  0  0  0  0
   -5.5530    1.1330   -1.4030 O   0  0  0  0  0  0  0  0  0  0  0  0
   -2.6990    1.1230    3.2780 O   0  0  0  0  0  0  0  0  0  0  0  0
   -1.3980   -0.0440    1.3810 H   0  0  0  0  0  0  0  0  0  0  0  0
   -2.2110    2.7450    0.5430 H   0  0  0  0  0  0  0  0  0  0  0  0
   -2.8230    0.7940   -1.1000 H   0  0  0  0  0  0  0  0  0  0  0  0
   -3.6340    0.0360    0.2720 H   0  0  0  0  0  0  0  0  0  0  0  0
   -6.5500    1.3470   -1.3010 H   0  0  0  0  0  0  0  0  0  0  0  0
  1 10  1  0  0  0  0
  1  9  1  0  0  0  0
  2  4  1  0  0  0  0
  2  1  1  0  0  0  0
  3 13  1  0  0  0  0
  3  2  1  0  0  0  0
  3 12  1  0  0  0  0
  4 15  1  1  0  0  0
  5 16  1  0  0  0  0
  5  4  1  0  0  0  0
  6  4  1  0  0  0  0
  6 23  1  0  0  0  0
  7  6  2  0  0  0  0
  8  1  1  0  0  0  0
 11  2  1  0  0  0  0
 14  3  1  0  0  0  0
 17  5  1  0  0  0  0
 18 26  1  0  0  0  0
 18 27  1  0  0  0  0
 18 28  1  0  0  0  0
 19 18  1  0  0  0  0
 20 19  1  0  0  0  0
 20 29  1  0  0  0  0
 21 20  1  0  0  0  0
 21 22  1  0  0  0  0
 22 23  1  0  0  0  0
 22 33  1  1  0  0  0
 23 34  1  0  0  0  0
 24 35  1  0  0  0  0
 24 22  1  0  0  0  0
 25 24  2  0  0  0  0
 30 20  1  0  0  0  0
 31 21  1  0  0  0  0
 32 21  1  0  0  0  0
 35 44  1  0  0  0  0
 36 45  1  6  0  0  0
 36 35  1  0  0  0  0
 36 40  1  0  0  0  0
 37 47  1  0  0  0  0
 37 36  1  0  0  0  0
 38 37  1  0  0  0  0
 38 39  2  0  0  0  0
 40 41  2  0  0  0  0
 40 43  1  0  0  0  0
 42 48  1  0  0  0  0
 42 38  1  0  0  0  0
 46 37  1  0  0  0  0
M  END
$$$$
