VMG.pdb
 OpenBabel07022419263D

 42 41  0  0  1  0  0  0  0  0999 V2000
   -0.4890   -2.7890    3.5200 C   0  0  0  0  0  0  0  0  0  0  0  0
    1.0060   -2.9890    3.5880 C   0  0  0  0  0  0  0  0  0  0  0  0
    1.4590   -4.1430    2.7250 C   0  0  0  0  0  0  0  0  0  0  0  0
    1.7640   -1.7260    3.3300 C   0  0  2  0  0  0  0  0  0  0  0  0
    1.3620   -0.7670    4.3420 N   0  0  0  0  0  0  0  0  0  0  0  0
    1.5830   -1.1580    1.9720 C   0  0  0  0  0  0  0  0  0  0  0  0
    1.9000   -1.8230    0.9670 O   0  0  0  0  0  0  0  0  0  0  0  0
   -0.8980   -2.8100    4.5590 H   0  0  0  0  0  0  0  0  0  0  0  0
   -0.9280   -3.6870    3.0160 H   0  0  0  0  0  0  0  0  0  0  0  0
   -0.7900   -1.8460    3.0340 H   0  0  0  0  0  0  0  0  0  0  0  0
    1.2540   -3.2860    4.6300 H   0  0  0  0  0  0  0  0  0  0  0  0
    0.5760   -4.4300    2.0960 H   0  0  0  0  0  0  0  0  0  0  0  0
    2.2710   -3.9000    2.0440 H   0  0  0  0  0  0  0  0  0  0  0  0
    1.7320   -5.0450    3.3130 H   0  0  0  0  0  0  0  0  0  0  0  0
    2.8460   -1.9360    3.5370 H   0  0  0  0  0  0  0  0  0  0  0  0
    0.3280   -0.6580    4.2520 H   0  0  0  0  0  0  0  0  0  0  0  0
    1.8470    0.1340    4.2680 H   0  0  0  0  0  0  0  0  0  0  0  0
    0.0030    3.5910   -1.5270 C   0  0  0  0  0  0  0  0  0  0  0  0
    1.7140    3.1990   -1.6760 S   0  0  0  0  0  0  0  0  0  0  0  0
    2.2550    1.5260   -1.4930 C   0  0  0  0  0  0  0  0  0  0  0  0
    2.1960    0.8980   -0.1510 C   0  0  0  0  0  0  0  0  0  0  0  0
    0.8670    0.7230    0.4540 C   0  0  2  0  0  0  0  0  0  0  0  0
    1.0550    0.1300    1.8300 N   0  0  0  0  0  0  0  0  0  0  0  0
   -0.1010   -0.1380   -0.2360 C   0  0  0  0  0  0  0  0  0  0  0  0
   -0.5010   -1.1980    0.3950 O   0  0  0  0  0  0  0  0  0  0  0  0
   -0.5130    3.3500   -0.5910 H   0  0  0  0  0  0  0  0  0  0  0  0
   -0.5970    3.1820   -2.4040 H   0  0  0  0  0  0  0  0  0  0  0  0
   -0.1600    4.7240   -1.6210 H   0  0  0  0  0  0  0  0  0  0  0  0
    3.4030    1.5120   -1.7700 H   0  0  0  0  0  0  0  0  0  0  0  0
    1.8070    0.8620   -2.2910 H   0  0  0  0  0  0  0  0  0  0  0  0
    2.8130    1.5150    0.5800 H   0  0  0  0  0  0  0  0  0  0  0  0
    2.7930   -0.0770   -0.1600 H   0  0  0  0  0  0  0  0  0  0  0  0
    0.3910    1.7010    0.6290 H   0  0  0  0  0  0  0  0  0  0  0  0
    0.7670    0.7380    2.6460 H   0  0  0  0  0  0  0  0  0  0  0  0
   -0.6580    0.0430   -1.5120 N   0  0  0  0  0  0  0  0  0  0  0  0
   -1.6160   -0.9490   -2.0230 C   0  0  0  0  0  0  0  0  0  0  0  0
   -2.7950   -1.0310   -1.1270 C   0  0  0  0  0  0  0  0  0  0  0  0
   -3.7200   -1.8370   -1.4030 O   0  0  0  0  0  0  0  0  0  0  0  0
   -2.9220   -0.2590   -0.0000 O   0  0  0  0  0  0  0  0  0  0  0  0
   -0.4010    0.8700   -2.0660 H   0  0  0  0  0  0  0  0  0  0  0  0
   -1.9280   -0.6040   -3.0270 H   0  0  0  0  0  0  0  0  0  0  0  0
   -1.1490   -1.9390   -2.1630 H   0  0  0  0  0  0  0  0  0  0  0  0
  1  2  1  0  0  0  0
  1  8  1  0  0  0  0
  2 11  1  0  0  0  0
  3 14  1  0  0  0  0
  3  2  1  0  0  0  0
  4 15  1  1  0  0  0
  4  2  1  0  0  0  0
  4  5  1  0  0  0  0
  6  4  1  0  0  0  0
  7  6  2  0  0  0  0
  9  1  1  0  0  0  0
 10  1  1  0  0  0  0
 12  3  1  0  0  0  0
 13  3  1  0  0  0  0
 16  5  1  0  0  0  0
 17  5  1  0  0  0  0
 18 26  1  0  0  0  0
 19 18  1  0  0  0  0
 19 20  1  0  0  0  0
 20 21  1  0  0  0  0
 21 22  1  0  0  0  0
 21 31  1  0  0  0  0
 22 33  1  1  0  0  0
 22 23  1  0  0  0  0
 23  6  1  0  0  0  0
 23 34  1  0  0  0  0
 24 25  2  0  0  0  0
 24 22  1  0  0  0  0
 27 18  1  0  0  0  0
 28 18  1  0  0  0  0
 29 20  1  0  0  0  0
 30 20  1  0  0  0  0
 32 21  1  0  0  0  0
 35 24  1  0  0  0  0
 36 35  1  0  0  0  0
 36 37  1  0  0  0  0
 37 39  1  0  0  0  0
 38 37  2  0  0  0  0
 40 35  1  0  0  0  0
 41 36  1  0  0  0  0
 42 36  1  0  0  0  0
M  END
$$$$
