VMH.pdb
 OpenBabel07022419263D

 52 52  0  0  1  0  0  0  0  0999 V2000
    3.7700   -1.0590    2.2590 C   0  0  0  0  0  0  0  0  0  0  0  0
    3.3570   -2.4030    1.7180 C   0  0  0  0  0  0  0  0  0  0  0  0
    3.1460   -3.3900    2.8430 C   0  0  0  0  0  0  0  0  0  0  0  0
    2.1970   -2.3070    0.7910 C   0  0  2  0  0  0  0  0  0  0  0  0
    2.5830   -1.4470   -0.3180 N   0  0  0  0  0  0  0  0  0  0  0  0
    0.9640   -1.7670    1.4190 C   0  0  0  0  0  0  0  0  0  0  0  0
    0.4580   -2.3850    2.3890 O   0  0  0  0  0  0  0  0  0  0  0  0
    3.8410   -1.0700    3.3720 H   0  0  0  0  0  0  0  0  0  0  0  0
    4.7920   -0.7470    1.8980 H   0  0  0  0  0  0  0  0  0  0  0  0
    3.0360   -0.2880    1.9610 H   0  0  0  0  0  0  0  0  0  0  0  0
    4.2250   -2.7820    1.1170 H   0  0  0  0  0  0  0  0  0  0  0  0
    2.3700   -4.1250    2.6270 H   0  0  0  0  0  0  0  0  0  0  0  0
    4.0880   -3.9420    3.0400 H   0  0  0  0  0  0  0  0  0  0  0  0
    2.9410   -2.8310    3.8040 H   0  0  0  0  0  0  0  0  0  0  0  0
    1.9730   -3.3200    0.3460 H   0  0  0  0  0  0  0  0  0  0  0  0
    2.7820   -0.4810   -0.0490 H   0  0  0  0  0  0  0  0  0  0  0  0
    3.4480   -1.8950   -0.7460 H   0  0  0  0  0  0  0  0  0  0  0  0
    0.6980    0.0140    4.5590 C   0  0  0  0  0  0  0  0  0  0  0  0
    0.2110    1.6810    4.1510 S   0  0  0  0  0  0  0  0  0  0  0  0
    0.1970    2.0780    2.4110 C   0  0  0  0  0  0  0  0  0  0  0  0
   -0.8780    1.4310    1.6040 C   0  0  0  0  0  0  0  0  0  0  0  0
   -0.8270   -0.0430    1.5340 C   0  0  2  0  0  0  0  0  0  0  0  0
    0.3750   -0.5960    0.9450 N   0  0  0  0  0  0  0  0  0  0  0  0
   -2.0210   -0.4440    0.6810 C   0  0  0  0  0  0  0  0  0  0  0  0
   -3.1280   -0.0460    1.0480 O   0  0  0  0  0  0  0  0  0  0  0  0
   -0.1130   -0.7240    4.6130 H   0  0  0  0  0  0  0  0  0  0  0  0
    1.1800    0.0410    5.5790 H   0  0  0  0  0  0  0  0  0  0  0  0
    1.4780   -0.3320    3.8430 H   0  0  0  0  0  0  0  0  0  0  0  0
    0.0420    3.2020    2.3080 H   0  0  0  0  0  0  0  0  0  0  0  0
    1.1930    1.8310    1.9500 H   0  0  0  0  0  0  0  0  0  0  0  0
   -0.9580    1.8920    0.5770 H   0  0  0  0  0  0  0  0  0  0  0  0
   -1.8510    1.7180    2.1300 H   0  0  0  0  0  0  0  0  0  0  0  0
   -1.0720   -0.4920    2.5130 H   0  0  0  0  0  0  0  0  0  0  0  0
    0.7930   -0.0820    0.1410 H   0  0  0  0  0  0  0  0  0  0  0  0
   -1.8410   -1.2270   -0.4580 N   0  0  0  0  0  0  0  0  0  0  0  0
   -2.9410   -1.6340   -1.3030 C   0  0  1  0  0  0  0  0  0  0  0  0
   -2.7120   -1.1210   -2.6950 C   0  0  0  0  0  0  0  0  0  0  0  0
   -2.6300    0.3820   -2.6430 C   0  0  0  0  0  0  0  0  0  0  0  0
   -1.5070    1.1520   -2.4600 C   0  0  0  0  0  0  0  0  0  0  0  0
   -1.8910    2.4350   -2.4800 N   0  0  0  0  0  0  0  0  0  0  0  0
   -3.2180    2.4920   -2.6710 C   0  0  0  0  0  0  0  0  0  0  0  0
   -3.6610    1.2310   -2.7690 N   0  0  0  0  0  0  0  0  0  0  0  0
   -3.0480   -3.1160   -1.3360 C   0  0  0  0  0  0  0  0  0  0  0  0
   -2.2380   -3.7970   -0.6810 O   0  0  0  0  0  0  0  0  0  0  0  0
   -4.0360   -3.7270   -2.0860 O   0  0  0  0  0  0  0  0  0  0  0  0
   -0.8820   -1.5360   -0.7220 H   0  0  0  0  0  0  0  0  0  0  0  0
   -3.8840   -1.2090   -0.8710 H   0  0  0  0  0  0  0  0  0  0  0  0
   -1.7580   -1.5000   -3.0770 H   0  0  0  0  0  0  0  0  0  0  0  0
   -3.5240   -1.4390   -3.3820 H   0  0  0  0  0  0  0  0  0  0  0  0
   -0.5160    0.7630   -2.3270 H   0  0  0  0  0  0  0  0  0  0  0  0
   -1.2970    3.3030   -2.3710 H   0  0  0  0  0  0  0  0  0  0  0  0
   -3.8530    3.3570   -2.7390 H   0  0  0  0  0  0  0  0  0  0  0  0
  1  8  1  0  0  0  0
  2  1  1  0  0  0  0
  2  3  1  0  0  0  0
  3 13  1  0  0  0  0
  3 14  1  0  0  0  0
  4 15  1  6  0  0  0
  4  6  1  0  0  0  0
  4  2  1  0  0  0  0
  5 16  1  0  0  0  0
  5  4  1  0  0  0  0
  6  7  2  0  0  0  0
  9  1  1  0  0  0  0
 10  1  1  0  0  0  0
 11  2  1  0  0  0  0
 12  3  1  0  0  0  0
 17  5  1  0  0  0  0
 18 26  1  0  0  0  0
 18 27  1  0  0  0  0
 19 18  1  0  0  0  0
 20 19  1  0  0  0  0
 21 32  1  0  0  0  0
 21 20  1  0  0  0  0
 22 21  1  0  0  0  0
 22 33  1  1  0  0  0
 23  6  1  0  0  0  0
 23 22  1  0  0  0  0
 24 25  2  0  0  0  0
 24 22  1  0  0  0  0
 28 18  1  0  0  0  0
 29 20  1  0  0  0  0
 30 20  1  0  0  0  0
 31 21  1  0  0  0  0
 34 23  1  0  0  0  0
 35 24  1  0  0  0  0
 36 47  1  1  0  0  0
 36 35  1  0  0  0  0
 37 38  1  0  0  0  0
 37 36  1  0  0  0  0
 38 39  2  0  0  0  0
 39 50  1  0  0  0  0
 40 39  1  0  0  0  0
 40 51  1  0  0  0  0
 41 40  1  0  0  0  0
 42 41  2  0  0  0  0
 42 38  1  0  0  0  0
 43 36  1  0  0  0  0
 43 44  1  0  0  0  0
 45 43  2  0  0  0  0
 46 35  1  0  0  0  0
 48 37  1  0  0  0  0
 49 37  1  0  0  0  0
 52 41  1  0  0  0  0
M  END
$$$$
