VMK.pdb
 OpenBabel07022419263D

 56 55  0  0  1  0  0  0  0  0999 V2000
    2.9830   -4.5670    2.1430 C   0  0  0  0  0  0  0  0  0  0  0  0
    2.0610   -3.3500    1.8630 C   0  0  0  0  0  0  0  0  0  0  0  0
    1.4730   -3.5030    0.4950 C   0  0  0  0  0  0  0  0  0  0  0  0
    2.8650   -2.0850    2.0740 C   0  0  2  0  0  0  0  0  0  0  0  0
    3.3340   -2.2100    3.4980 N   0  0  0  0  0  0  0  0  0  0  0  0
    1.9830   -0.9080    2.0010 C   0  0  0  0  0  0  0  0  0  0  0  0
    1.4740   -0.5260    3.1190 O   0  0  0  0  0  0  0  0  0  0  0  0
    2.3440   -5.4520    1.9980 H   0  0  0  0  0  0  0  0  0  0  0  0
    3.8150   -4.4860    1.4160 H   0  0  0  0  0  0  0  0  0  0  0  0
    3.3070   -4.5110    3.1960 H   0  0  0  0  0  0  0  0  0  0  0  0
    1.2670   -3.4000    2.6250 H   0  0  0  0  0  0  0  0  0  0  0  0
    1.8650   -4.4550    0.0450 H   0  0  0  0  0  0  0  0  0  0  0  0
    1.7500   -2.7050   -0.2120 H   0  0  0  0  0  0  0  0  0  0  0  0
    0.3480   -3.5910    0.5320 H   0  0  0  0  0  0  0  0  0  0  0  0
    3.7570   -2.0460    1.4370 H   0  0  0  0  0  0  0  0  0  0  0  0
    3.4870   -1.2060    3.7820 H   0  0  0  0  0  0  0  0  0  0  0  0
    4.2800   -2.6510    3.4500 H   0  0  0  0  0  0  0  0  0  0  0  0
    2.8000    2.3790    3.3400 C   0  0  0  0  0  0  0  0  0  0  0  0
    2.8040    3.4460    1.9270 S   0  0  0  0  0  0  0  0  0  0  0  0
    2.6260    2.6730    0.3250 C   0  0  0  0  0  0  0  0  0  0  0  0
    1.2650    2.1420    0.0780 C   0  0  0  0  0  0  0  0  0  0  0  0
    0.7790    1.0490    0.9680 C   0  0  2  0  0  0  0  0  0  0  0  0
    1.6260   -0.1340    0.8930 N   0  0  0  0  0  0  0  0  0  0  0  0
   -0.6180    0.6530    0.5610 C   0  0  0  0  0  0  0  0  0  0  0  0
   -1.5660    1.4920    0.6310 O   0  0  0  0  0  0  0  0  0  0  0  0
    3.4510    2.8600    4.1480 H   0  0  0  0  0  0  0  0  0  0  0  0
    1.8490    2.2050    3.8400 H   0  0  0  0  0  0  0  0  0  0  0  0
    3.3470    1.4090    3.1350 H   0  0  0  0  0  0  0  0  0  0  0  0
    2.9040    3.3880   -0.4950 H   0  0  0  0  0  0  0  0  0  0  0  0
    3.3560    1.8070    0.3080 H   0  0  0  0  0  0  0  0  0  0  0  0
    1.2560    1.8090   -1.0140 H   0  0  0  0  0  0  0  0  0  0  0  0
    0.5660    3.0360    0.1090 H   0  0  0  0  0  0  0  0  0  0  0  0
    0.6560    1.4370    1.9950 H   0  0  0  0  0  0  0  0  0  0  0  0
    1.9890   -0.4040   -0.0370 H   0  0  0  0  0  0  0  0  0  0  0  0
   -0.9320   -0.6300    0.0930 N   0  0  0  0  0  0  0  0  0  0  0  0
   -2.3010   -1.0010   -0.2970 C   0  0  1  0  0  0  0  0  0  0  0  0
   -2.2210   -1.4990   -1.7060 C   0  0  0  0  0  0  0  0  0  0  0  0
   -3.5280   -1.9280   -2.2880 C   0  0  0  0  0  0  0  0  0  0  0  0
   -4.5530   -0.8300   -2.3330 C   0  0  0  0  0  0  0  0  0  0  0  0
   -4.0860    0.3420   -3.1700 C   0  0  0  0  0  0  0  0  0  0  0  0
   -5.1410    1.3370   -3.1480 N   0  0  0  0  0  0  0  0  0  0  0  0
   -2.7430   -2.0750    0.6120 C   0  0  0  0  0  0  0  0  0  0  0  0
   -1.9720   -2.4910    1.5090 O   0  0  0  0  0  0  0  0  0  0  0  0
   -3.9950   -2.6680    0.5330 O   0  0  0  0  0  0  0  0  0  0  0  0
   -0.2230   -1.3620   -0.0060 H   0  0  0  0  0  0  0  0  0  0  0  0
   -2.9760   -0.1220   -0.1760 H   0  0  0  0  0  0  0  0  0  0  0  0
   -1.7540   -0.7490   -2.3840 H   0  0  0  0  0  0  0  0  0  0  0  0
   -1.5580   -2.3970   -1.6920 H   0  0  0  0  0  0  0  0  0  0  0  0
   -3.9780   -2.7920   -1.7970 H   0  0  0  0  0  0  0  0  0  0  0  0
   -3.3300   -2.2210   -3.3490 H   0  0  0  0  0  0  0  0  0  0  0  0
   -4.8400   -0.4460   -1.3430 H   0  0  0  0  0  0  0  0  0  0  0  0
   -5.4540   -1.2390   -2.8360 H   0  0  0  0  0  0  0  0  0  0  0  0
   -3.1860    0.8330   -2.7330 H   0  0  0  0  0  0  0  0  0  0  0  0
   -3.9010    0.0640   -4.2130 H   0  0  0  0  0  0  0  0  0  0  0  0
   -4.7780    2.3080   -3.0170 H   0  0  0  0  0  0  0  0  0  0  0  0
   -5.8610    1.1390   -2.4280 H   0  0  0  0  0  0  0  0  0  0  0  0
  1 10  1  0  0  0  0
  2  4  1  0  0  0  0
  2  1  1  0  0  0  0
  2 11  1  0  0  0  0
  3 14  1  0  0  0  0
  3  2  1  0  0  0  0
  4 15  1  6  0  0  0
  4  5  1  0  0  0  0
  5 16  1  0  0  0  0
  6  4  1  0  0  0  0
  6  7  2  0  0  0  0
  8  1  1  0  0  0  0
  9  1  1  0  0  0  0
 12  3  1  0  0  0  0
 13  3  1  0  0  0  0
 17  5  1  0  0  0  0
 18 27  1  0  0  0  0
 18 26  1  0  0  0  0
 19 18  1  0  0  0  0
 20 19  1  0  0  0  0
 21 32  1  0  0  0  0
 21 20  1  0  0  0  0
 21 22  1  0  0  0  0
 22 33  1  1  0  0  0
 23 22  1  0  0  0  0
 23  6  1  0  0  0  0
 24 25  2  0  0  0  0
 24 22  1  0  0  0  0
 28 18  1  0  0  0  0
 29 20  1  0  0  0  0
 30 20  1  0  0  0  0
 31 21  1  0  0  0  0
 34 23  1  0  0  0  0
 35 24  1  0  0  0  0
 36 46  1  1  0  0  0
 36 35  1  0  0  0  0
 36 42  1  0  0  0  0
 37 48  1  0  0  0  0
 37 36  1  0  0  0  0
 38 49  1  0  0  0  0
 38 37  1  0  0  0  0
 39 38  1  0  0  0  0
 39 51  1  0  0  0  0
 40 41  1  0  0  0  0
 40 53  1  0  0  0  0
 40 39  1  0  0  0  0
 41 55  1  0  0  0  0
 41 56  1  0  0  0  0
 42 43  1  0  0  0  0
 44 42  2  0  0  0  0
 45 35  1  0  0  0  0
 47 37  1  0  0  0  0
 50 38  1  0  0  0  0
 52 39  1  0  0  0  0
 54 40  1  0  0  0  0
M  END
$$$$
