VMM.pdb
 OpenBabel07022419263D

 52 51  0  0  1  0  0  0  0  0999 V2000
    1.1090   -5.2490   -0.6070 C   0  0  0  0  0  0  0  0  0  0  0  0
    0.7990   -3.9400    0.1540 C   0  0  0  0  0  0  0  0  0  0  0  0
   -0.2790   -3.2700   -0.6220 C   0  0  0  0  0  0  0  0  0  0  0  0
    2.1160   -3.2180    0.2170 C   0  0  2  0  0  0  0  0  0  0  0  0
    2.9970   -4.1810    0.9470 N   0  0  0  0  0  0  0  0  0  0  0  0
    2.0900   -1.9450    0.9630 C   0  0  0  0  0  0  0  0  0  0  0  0
    2.5590   -1.9350    2.1380 O   0  0  0  0  0  0  0  0  0  0  0  0
    0.2190   -5.5790   -1.1830 H   0  0  0  0  0  0  0  0  0  0  0  0
    1.9410   -5.0820   -1.3250 H   0  0  0  0  0  0  0  0  0  0  0  0
    1.4030   -6.0420    0.0790 H   0  0  0  0  0  0  0  0  0  0  0  0
    0.5200   -4.2260    1.1720 H   0  0  0  0  0  0  0  0  0  0  0  0
   -1.0330   -2.9020    0.1310 H   0  0  0  0  0  0  0  0  0  0  0  0
    0.0270   -2.5260   -1.3550 H   0  0  0  0  0  0  0  0  0  0  0  0
   -0.8810   -4.0260   -1.2220 H   0  0  0  0  0  0  0  0  0  0  0  0
    2.5880   -3.0400   -0.7680 H   0  0  0  0  0  0  0  0  0  0  0  0
    3.5090   -3.6340    1.6710 H   0  0  0  0  0  0  0  0  0  0  0  0
    3.6360   -4.6380    0.2620 H   0  0  0  0  0  0  0  0  0  0  0  0
    2.7010    1.6330    4.2880 C   0  0  0  0  0  0  0  0  0  0  0  0
    3.5580    2.5810    3.0710 S   0  0  0  0  0  0  0  0  0  0  0  0
    2.6900    2.7920    1.5120 C   0  0  0  0  0  0  0  0  0  0  0  0
    2.4930    1.5360    0.7250 C   0  0  0  0  0  0  0  0  0  0  0  0
    1.6340    0.4970    1.3420 C   0  0  2  0  0  0  0  0  0  0  0  0
    1.5900   -0.7090    0.4880 N   0  0  0  0  0  0  0  0  0  0  0  0
    0.2340    0.9920    1.5410 C   0  0  0  0  0  0  0  0  0  0  0  0
   -0.0610    2.0130    2.2230 O   0  0  0  0  0  0  0  0  0  0  0  0
    2.9700    2.0640    5.3080 H   0  0  0  0  0  0  0  0  0  0  0  0
    3.1500    0.6080    4.3400 H   0  0  0  0  0  0  0  0  0  0  0  0
    1.6130    1.5650    4.2090 H   0  0  0  0  0  0  0  0  0  0  0  0
    3.2450    3.5620    0.8870 H   0  0  0  0  0  0  0  0  0  0  0  0
    1.7110    3.2850    1.7560 H   0  0  0  0  0  0  0  0  0  0  0  0
    2.0000    1.8380   -0.2440 H   0  0  0  0  0  0  0  0  0  0  0  0
    3.5130    1.1690    0.4650 H   0  0  0  0  0  0  0  0  0  0  0  0
    2.0280    0.1850    2.3040 H   0  0  0  0  0  0  0  0  0  0  0  0
    1.2040   -0.6820   -0.4770 H   0  0  0  0  0  0  0  0  0  0  0  0
   -4.5900   -0.0530   -2.9520 C   0  0  0  0  0  0  0  0  0  0  0  0
   -4.6120    1.5480   -2.1010 S   0  0  0  0  0  0  0  0  0  0  0  0
   -4.1410    1.3100   -0.3400 C   0  0  0  0  0  0  0  0  0  0  0  0
   -2.7140    0.8700   -0.3320 C   0  0  0  0  0  0  0  0  0  0  0  0
   -2.2070    0.6710    1.0560 C   0  0  2  0  0  0  0  0  0  0  0  0
   -0.8100    0.2510    0.9110 N   0  0  0  0  0  0  0  0  0  0  0  0
   -2.9850   -0.3940    1.7380 C   0  0  0  0  0  0  0  0  0  0  0  0
   -2.4390   -1.5130    2.0380 O   0  0  0  0  0  0  0  0  0  0  0  0
   -4.3080   -0.2830    2.0990 O   0  0  0  0  0  0  0  0  0  0  0  0
   -4.0490    0.1190   -3.9210 H   0  0  0  0  0  0  0  0  0  0  0  0
   -5.6120   -0.4340   -3.1370 H   0  0  0  0  0  0  0  0  0  0  0  0
   -3.9850   -0.7580   -2.3590 H   0  0  0  0  0  0  0  0  0  0  0  0
   -4.2960    2.2380    0.2280 H   0  0  0  0  0  0  0  0  0  0  0  0
   -4.7710    0.4540    0.0350 H   0  0  0  0  0  0  0  0  0  0  0  0
   -2.0630    1.6370   -0.8510 H   0  0  0  0  0  0  0  0  0  0  0  0
   -2.6710   -0.0990   -0.9110 H   0  0  0  0  0  0  0  0  0  0  0  0
   -2.2870    1.5790    1.6610 H   0  0  0  0  0  0  0  0  0  0  0  0
   -0.6200   -0.5840    0.3450 H   0  0  0  0  0  0  0  0  0  0  0  0
  1 10  1  0  0  0  0
  1  2  1  0  0  0  0
  2  4  1  0  0  0  0
  2 11  1  0  0  0  0
  3 12  1  0  0  0  0
  3  2  1  0  0  0  0
  4 15  1  6  0  0  0
  4  5  1  0  0  0  0
  4  6  1  0  0  0  0
  5 16  1  0  0  0  0
  6  7  2  0  0  0  0
  8  1  1  0  0  0  0
  9  1  1  0  0  0  0
 13  3  1  0  0  0  0
 14  3  1  0  0  0  0
 17  5  1  0  0  0  0
 18 27  1  0  0  0  0
 18 26  1  0  0  0  0
 19 18  1  0  0  0  0
 20 30  1  0  0  0  0
 20 19  1  0  0  0  0
 21 22  1  0  0  0  0
 21 20  1  0  0  0  0
 22 24  1  0  0  0  0
 22 33  1  1  0  0  0
 23  6  1  0  0  0  0
 23 22  1  0  0  0  0
 24 25  2  0  0  0  0
 28 18  1  0  0  0  0
 29 20  1  0  0  0  0
 31 21  1  0  0  0  0
 32 21  1  0  0  0  0
 34 23  1  0  0  0  0
 35 46  1  0  0  0  0
 35 36  1  0  0  0  0
 36 37  1  0  0  0  0
 37 38  1  0  0  0  0
 37 48  1  0  0  0  0
 37 47  1  0  0  0  0
 38 39  1  0  0  0  0
 39 51  1  1  0  0  0
 39 41  1  0  0  0  0
 40 39  1  0  0  0  0
 40 24  1  0  0  0  0
 41 42  2  0  0  0  0
 41 43  1  0  0  0  0
 44 35  1  0  0  0  0
 45 35  1  0  0  0  0
 49 38  1  0  0  0  0
 50 38  1  0  0  0  0
 52 40  1  0  0  0  0
M  END
$$$$
