VMP.pdb
 OpenBabel07022419263D

 49 49  0  0  1  0  0  0  0  0999 V2000
    2.0480   -5.1980    0.1940 C   0  0  0  0  0  0  0  0  0  0  0  0
    1.8460   -3.9680    1.0380 C   0  0  0  0  0  0  0  0  0  0  0  0
    1.6150   -4.3820    2.4520 C   0  0  0  0  0  0  0  0  0  0  0  0
    0.7510   -3.0790    0.4960 C   0  0  2  0  0  0  0  0  0  0  0  0
    1.0890   -2.6480   -0.8450 N   0  0  0  0  0  0  0  0  0  0  0  0
    0.4590   -1.9420    1.3870 C   0  0  0  0  0  0  0  0  0  0  0  0
    0.1450   -2.0960    2.5950 O   0  0  0  0  0  0  0  0  0  0  0  0
    3.0650   -5.2600   -0.2540 H   0  0  0  0  0  0  0  0  0  0  0  0
    1.9640   -6.1350    0.8210 H   0  0  0  0  0  0  0  0  0  0  0  0
    1.2930   -5.3020   -0.6170 H   0  0  0  0  0  0  0  0  0  0  0  0
    2.8060   -3.3870    1.0050 H   0  0  0  0  0  0  0  0  0  0  0  0
    2.0660   -3.6290    3.1350 H   0  0  0  0  0  0  0  0  0  0  0  0
    0.5750   -4.6210    2.6970 H   0  0  0  0  0  0  0  0  0  0  0  0
    2.2090   -5.3230    2.6210 H   0  0  0  0  0  0  0  0  0  0  0  0
   -0.1600   -3.7060    0.4200 H   0  0  0  0  0  0  0  0  0  0  0  0
    1.6410   -3.4130   -1.2910 H   0  0  0  0  0  0  0  0  0  0  0  0
    0.1960   -2.5680   -1.3780 H   0  0  0  0  0  0  0  0  0  0  0  0
    4.6860    2.1030    0.2230 C   0  0  0  0  0  0  0  0  0  0  0  0
    4.1700    1.7670    1.9100 S   0  0  0  0  0  0  0  0  0  0  0  0
    2.6710    0.7860    2.0060 C   0  0  0  0  0  0  0  0  0  0  0  0
    1.4630    1.5270    1.4710 C   0  0  0  0  0  0  0  0  0  0  0  0
    0.2750    0.5660    1.6200 C   0  0  2  0  0  0  0  0  0  0  0  0
    0.5320   -0.6090    0.8700 N   0  0  0  0  0  0  0  0  0  0  0  0
   -0.9370    1.3170    1.3430 C   0  0  0  0  0  0  0  0  0  0  0  0
   -1.0390    2.4300    1.9830 O   0  0  0  0  0  0  0  0  0  0  0  0
    3.9570    2.7470   -0.3270 H   0  0  0  0  0  0  0  0  0  0  0  0
    5.6370    2.6770    0.2710 H   0  0  0  0  0  0  0  0  0  0  0  0
    4.9060    1.1620   -0.3150 H   0  0  0  0  0  0  0  0  0  0  0  0
    2.5070    0.5110    3.0630 H   0  0  0  0  0  0  0  0  0  0  0  0
    2.8350   -0.1400    1.3890 H   0  0  0  0  0  0  0  0  0  0  0  0
    1.3260    2.4490    2.0360 H   0  0  0  0  0  0  0  0  0  0  0  0
    1.6520    1.7210    0.4040 H   0  0  0  0  0  0  0  0  0  0  0  0
    0.2050    0.2360    2.7030 H   0  0  0  0  0  0  0  0  0  0  0  0
    0.8200   -0.4770   -0.1470 H   0  0  0  0  0  0  0  0  0  0  0  0
   -2.0170    1.0270    0.4930 N   0  0  0  0  0  0  0  0  0  0  0  0
   -2.2530   -0.1260   -0.3440 C   0  0  0  0  0  0  0  0  0  0  0  0
   -2.6290    0.5840   -1.6570 C   0  0  0  0  0  0  0  0  0  0  0  0
   -3.3260    1.8330   -1.2400 C   0  0  0  0  0  0  0  0  0  0  0  0
   -3.2000    1.8760    0.2520 C   0  0  1  0  0  0  0  0  0  0  0  0
   -4.4250    1.3130    0.8580 C   0  0  0  0  0  0  0  0  0  0  0  0
   -4.4770    0.2840    1.5750 O   0  0  0  0  0  0  0  0  0  0  0  0
   -5.6570    1.9560    0.6340 O   0  0  0  0  0  0  0  0  0  0  0  0
   -1.4220   -0.8030   -0.4780 H   0  0  0  0  0  0  0  0  0  0  0  0
   -3.2050   -0.6610   -0.0670 H   0  0  0  0  0  0  0  0  0  0  0  0
   -1.6960    0.7300   -2.2010 H   0  0  0  0  0  0  0  0  0  0  0  0
   -3.2880   -0.0800   -2.2640 H   0  0  0  0  0  0  0  0  0  0  0  0
   -4.4100    1.7890   -1.5190 H   0  0  0  0  0  0  0  0  0  0  0  0
   -2.9320    2.7450   -1.7330 H   0  0  0  0  0  0  0  0  0  0  0  0
   -2.9960    2.9100    0.6270 H   0  0  0  0  0  0  0  0  0  0  0  0
  1  9  1  0  0  0  0
  1  2  1  0  0  0  0
  2  3  1  0  0  0  0
  3 14  1  0  0  0  0
  3 13  1  0  0  0  0
  3 12  1  0  0  0  0
  4 15  1  6  0  0  0
  4  2  1  0  0  0  0
  4  6  1  0  0  0  0
  5  4  1  0  0  0  0
  6  7  2  0  0  0  0
  8  1  1  0  0  0  0
 10  1  1  0  0  0  0
 11  2  1  0  0  0  0
 16  5  1  0  0  0  0
 17  5  1  0  0  0  0
 18 27  1  0  0  0  0
 18 19  1  0  0  0  0
 19 20  1  0  0  0  0
 20 29  1  0  0  0  0
 21 22  1  0  0  0  0
 21 20  1  0  0  0  0
 21 31  1  0  0  0  0
 22 33  1  1  0  0  0
 23  6  1  0  0  0  0
 23 22  1  0  0  0  0
 24 22  1  0  0  0  0
 24 25  2  0  0  0  0
 26 18  1  0  0  0  0
 28 18  1  0  0  0  0
 30 20  1  0  0  0  0
 32 21  1  0  0  0  0
 34 23  1  0  0  0  0
 35 24  1  0  0  0  0
 36 44  1  0  0  0  0
 36 35  1  0  0  0  0
 37 38  1  0  0  0  0
 37 36  1  0  0  0  0
 38 39  1  0  0  0  0
 39 35  1  0  0  0  0
 39 49  1  1  0  0  0
 39 40  1  0  0  0  0
 40 41  1  0  0  0  0
 42 40  2  0  0  0  0
 43 36  1  0  0  0  0
 45 37  1  0  0  0  0
 46 37  1  0  0  0  0
 47 38  1  0  0  0  0
 48 38  1  0  0  0  0
M  END
$$$$
