VMQ.pdb
 OpenBabel07022419263D

 52 51  0  0  1  0  0  0  0  0999 V2000
    2.6060   -3.2970    5.2430 C   0  0  0  0  0  0  0  0  0  0  0  0
    2.1990   -3.0320    3.8080 C   0  0  0  0  0  0  0  0  0  0  0  0
    0.7570   -3.3210    3.5670 C   0  0  0  0  0  0  0  0  0  0  0  0
    2.6630   -1.6860    3.3410 C   0  0  2  0  0  0  0  0  0  0  0  0
    2.1340   -0.6030    4.1270 N   0  0  0  0  0  0  0  0  0  0  0  0
    2.2430   -1.4760    1.9270 C   0  0  0  0  0  0  0  0  0  0  0  0
    2.5590   -2.3680    1.1010 O   0  0  0  0  0  0  0  0  0  0  0  0
    2.7700   -4.3810    5.4160 H   0  0  0  0  0  0  0  0  0  0  0  0
    3.5540   -2.7870    5.4810 H   0  0  0  0  0  0  0  0  0  0  0  0
    1.7920   -2.9870    5.9530 H   0  0  0  0  0  0  0  0  0  0  0  0
    2.7730   -3.7970    3.2050 H   0  0  0  0  0  0  0  0  0  0  0  0
    0.0680   -2.5520    3.9280 H   0  0  0  0  0  0  0  0  0  0  0  0
    0.5250   -3.5030    2.4910 H   0  0  0  0  0  0  0  0  0  0  0  0
    0.5010   -4.2670    4.1160 H   0  0  0  0  0  0  0  0  0  0  0  0
    3.7690   -1.6590    3.4670 H   0  0  0  0  0  0  0  0  0  0  0  0
    2.5820    0.3000    3.9510 H   0  0  0  0  0  0  0  0  0  0  0  0
    1.9960   -0.8560    5.1210 H   0  0  0  0  0  0  0  0  0  0  0  0
    2.8720    2.7200    0.3760 C   0  0  0  0  0  0  0  0  0  0  0  0
    3.3530    1.7780   -1.0530 S   0  0  0  0  0  0  0  0  0  0  0  0
    3.2930   -0.0040   -0.8920 C   0  0  0  0  0  0  0  0  0  0  0  0
    1.9010   -0.5280   -0.9030 C   0  0  0  0  0  0  0  0  0  0  0  0
    1.0760   -0.0120    0.2090 C   0  0  2  0  0  0  0  0  0  0  0  0
    1.5280   -0.3350    1.5410 N   0  0  0  0  0  0  0  0  0  0  0  0
   -0.3820   -0.2480    0.0630 C   0  0  0  0  0  0  0  0  0  0  0  0
   -0.9960   -0.6580    1.0810 O   0  0  0  0  0  0  0  0  0  0  0  0
    3.6700    3.5280    0.5100 H   0  0  0  0  0  0  0  0  0  0  0  0
    1.9410    3.3170    0.2760 H   0  0  0  0  0  0  0  0  0  0  0  0
    2.8650    2.1660    1.3390 H   0  0  0  0  0  0  0  0  0  0  0  0
    3.9410   -0.5110   -1.6590 H   0  0  0  0  0  0  0  0  0  0  0  0
    3.7740   -0.3240    0.0920 H   0  0  0  0  0  0  0  0  0  0  0  0
    1.8650   -1.6430   -1.0050 H   0  0  0  0  0  0  0  0  0  0  0  0
    1.4240   -0.1690   -1.8530 H   0  0  0  0  0  0  0  0  0  0  0  0
    1.1720    1.1200    0.1110 H   0  0  0  0  0  0  0  0  0  0  0  0
    1.3050    0.3520    2.3290 H   0  0  0  0  0  0  0  0  0  0  0  0
   -6.5930   -0.4160   -2.6170 N   0  0  0  0  0  0  0  0  0  0  0  0
   -5.3070    0.1630   -2.7470 C   0  0  0  0  0  0  0  0  0  0  0  0
   -4.6890   -0.0310   -3.8510 O   0  0  0  0  0  0  0  0  0  0  0  0
   -4.6960    0.9550   -1.6900 C   0  0  0  0  0  0  0  0  0  0  0  0
   -3.2340    0.9250   -1.5520 C   0  0  0  0  0  0  0  0  0  0  0  0
   -2.5480   -0.3140   -1.1300 C   0  0  2  0  0  0  0  0  0  0  0  0
   -1.0910   -0.0420   -1.1280 N   0  0  0  0  0  0  0  0  0  0  0  0
   -2.8210   -1.4850   -1.9650 C   0  0  0  0  0  0  0  0  0  0  0  0
   -1.9340   -1.9920   -2.7390 O   0  0  0  0  0  0  0  0  0  0  0  0
   -4.0400   -2.1570   -1.9950 O   0  0  0  0  0  0  0  0  0  0  0  0
   -7.3360   -0.1030   -3.2750 H   0  0  0  0  0  0  0  0  0  0  0  0
   -6.8350   -1.1290   -1.9100 H   0  0  0  0  0  0  0  0  0  0  0  0
   -5.1780    0.7440   -0.7060 H   0  0  0  0  0  0  0  0  0  0  0  0
   -4.9760    2.0350   -1.9080 H   0  0  0  0  0  0  0  0  0  0  0  0
   -2.7250    1.2700   -2.4960 H   0  0  0  0  0  0  0  0  0  0  0  0
   -2.9660    1.7320   -0.7890 H   0  0  0  0  0  0  0  0  0  0  0  0
   -2.8560   -0.5830   -0.0790 H   0  0  0  0  0  0  0  0  0  0  0  0
   -0.6100    0.2900   -1.9750 H   0  0  0  0  0  0  0  0  0  0  0  0
  1  8  1  0  0  0  0
  1  9  1  0  0  0  0
  1 10  1  0  0  0  0
  2  1  1  0  0  0  0
  3  2  1  0  0  0  0
  3 12  1  0  0  0  0
  3 14  1  0  0  0  0
  4 15  1  1  0  0  0
  4  2  1  0  0  0  0
  4  5  1  0  0  0  0
  5 17  1  0  0  0  0
  6  4  1  0  0  0  0
  7  6  2  0  0  0  0
 11  2  1  0  0  0  0
 13  3  1  0  0  0  0
 16  5  1  0  0  0  0
 18 26  1  0  0  0  0
 18 28  1  0  0  0  0
 19 20  1  0  0  0  0
 19 18  1  0  0  0  0
 20 30  1  0  0  0  0
 21 20  1  0  0  0  0
 21 22  1  0  0  0  0
 22 33  1  6  0  0  0
 22 23  1  0  0  0  0
 23  6  1  0  0  0  0
 23 34  1  0  0  0  0
 24 22  1  0  0  0  0
 24 25  2  0  0  0  0
 27 18  1  0  0  0  0
 29 20  1  0  0  0  0
 31 21  1  0  0  0  0
 32 21  1  0  0  0  0
 35 46  1  0  0  0  0
 36 35  1  0  0  0  0
 36 38  1  0  0  0  0
 37 36  2  0  0  0  0
 38 39  1  0  0  0  0
 38 47  1  0  0  0  0
 39 40  1  0  0  0  0
 39 50  1  0  0  0  0
 40 41  1  0  0  0  0
 40 51  1  1  0  0  0
 41 24  1  0  0  0  0
 42 40  1  0  0  0  0
 43 42  2  0  0  0  0
 44 42  1  0  0  0  0
 45 35  1  0  0  0  0
 48 38  1  0  0  0  0
 49 39  1  0  0  0  0
 52 41  1  0  0  0  0
M  END
$$$$
