VMS.pdb
 OpenBabel07022419263D

 46 45  0  0  1  0  0  0  0  0999 V2000
   -1.7270   -2.6770    0.5080 C   0  0  0  0  0  0  0  0  0  0  0  0
   -0.6710   -3.5650   -0.0280 C   0  0  0  0  0  0  0  0  0  0  0  0
   -0.2290   -4.6140    0.9800 C   0  0  0  0  0  0  0  0  0  0  0  0
    0.5230   -2.8990   -0.6520 C   0  0  2  0  0  0  0  0  0  0  0  0
    1.4460   -3.9850   -1.1280 N   0  0  0  0  0  0  0  0  0  0  0  0
    1.2810   -2.0060    0.2130 C   0  0  0  0  0  0  0  0  0  0  0  0
    2.3820   -2.3480    0.7750 O   0  0  0  0  0  0  0  0  0  0  0  0
   -1.9250   -1.8090   -0.1130 H   0  0  0  0  0  0  0  0  0  0  0  0
   -1.5800   -2.3920    1.5730 H   0  0  0  0  0  0  0  0  0  0  0  0
   -2.6970   -3.2750    0.5460 H   0  0  0  0  0  0  0  0  0  0  0  0
   -1.1470   -4.1590   -0.8660 H   0  0  0  0  0  0  0  0  0  0  0  0
   -0.6670   -5.6130    0.7820 H   0  0  0  0  0  0  0  0  0  0  0  0
    0.8750   -4.7470    0.9820 H   0  0  0  0  0  0  0  0  0  0  0  0
   -0.5640   -4.3130    2.0040 H   0  0  0  0  0  0  0  0  0  0  0  0
    0.2060   -2.3910   -1.5780 H   0  0  0  0  0  0  0  0  0  0  0  0
    2.0990   -3.5180   -1.7770 H   0  0  0  0  0  0  0  0  0  0  0  0
    0.8400   -4.6900   -1.5940 H   0  0  0  0  0  0  0  0  0  0  0  0
    2.3330    3.1160   -2.4330 C   0  0  0  0  0  0  0  0  0  0  0  0
    3.6870    2.2690   -1.5470 S   0  0  0  0  0  0  0  0  0  0  0  0
    3.0480    0.8600   -0.6000 C   0  0  0  0  0  0  0  0  0  0  0  0
    2.1550    1.3740    0.5020 C   0  0  0  0  0  0  0  0  0  0  0  0
    1.5930    0.2040    1.3310 C   0  0  2  0  0  0  0  0  0  0  0  0
    0.8200   -0.6740    0.4720 N   0  0  0  0  0  0  0  0  0  0  0  0
    0.7110    0.8240    2.3200 C   0  0  0  0  0  0  0  0  0  0  0  0
    1.1280    1.6200    3.2150 O   0  0  0  0  0  0  0  0  0  0  0  0
    2.7240    3.6450   -3.3250 H   0  0  0  0  0  0  0  0  0  0  0  0
    1.5760    2.3850   -2.8100 H   0  0  0  0  0  0  0  0  0  0  0  0
    1.8760    3.8090   -1.7040 H   0  0  0  0  0  0  0  0  0  0  0  0
    2.4580    0.2390   -1.3360 H   0  0  0  0  0  0  0  0  0  0  0  0
    3.8940    0.2820   -0.2200 H   0  0  0  0  0  0  0  0  0  0  0  0
    1.3400    1.9780    0.0840 H   0  0  0  0  0  0  0  0  0  0  0  0
    2.7710    2.0360    1.1420 H   0  0  0  0  0  0  0  0  0  0  0  0
    2.4450   -0.3530    1.7940 H   0  0  0  0  0  0  0  0  0  0  0  0
   -0.0630   -0.3810    0.0120 H   0  0  0  0  0  0  0  0  0  0  0  0
   -2.1300    2.9230    1.7640 O   0  0  0  0  0  0  0  0  0  0  0  0
   -2.6620    1.9100    2.5840 C   0  0  0  0  0  0  0  0  0  0  0  0
   -1.5720    1.1650    3.2920 C   0  0  2  0  0  0  0  0  0  0  0  0
   -0.6790    0.5510    2.3130 N   0  0  0  0  0  0  0  0  0  0  0  0
   -2.1970    0.1310    4.1520 C   0  0  0  0  0  0  0  0  0  0  0  0
   -1.8920   -1.0690    3.9500 O   0  0  0  0  0  0  0  0  0  0  0  0
   -3.0900    0.4230    5.1540 O   0  0  0  0  0  0  0  0  0  0  0  0
   -1.4760    2.5470    1.1320 H   0  0  0  0  0  0  0  0  0  0  0  0
   -3.2860    1.2780    1.9440 H   0  0  0  0  0  0  0  0  0  0  0  0
   -3.3400    2.4180    3.3050 H   0  0  0  0  0  0  0  0  0  0  0  0
   -1.0270    1.8430    3.9660 H   0  0  0  0  0  0  0  0  0  0  0  0
   -1.1550   -0.0790    1.6370 H   0  0  0  0  0  0  0  0  0  0  0  0
  1 10  1  0  0  0  0
  1  9  1  0  0  0  0
  2  1  1  0  0  0  0
  2  3  1  0  0  0  0
  3 13  1  0  0  0  0
  3 14  1  0  0  0  0
  4 15  1  6  0  0  0
  4  2  1  0  0  0  0
  4  6  1  0  0  0  0
  5  4  1  0  0  0  0
  6 23  1  0  0  0  0
  6  7  2  0  0  0  0
  8  1  1  0  0  0  0
 11  2  1  0  0  0  0
 12  3  1  0  0  0  0
 16  5  1  0  0  0  0
 17  5  1  0  0  0  0
 18 28  1  0  0  0  0
 18 19  1  0  0  0  0
 19 20  1  0  0  0  0
 20 30  1  0  0  0  0
 20 21  1  0  0  0  0
 21 32  1  0  0  0  0
 21 22  1  0  0  0  0
 22 33  1  1  0  0  0
 22 24  1  0  0  0  0
 23 22  1  0  0  0  0
 24 25  2  0  0  0  0
 26 18  1  0  0  0  0
 27 18  1  0  0  0  0
 29 20  1  0  0  0  0
 31 21  1  0  0  0  0
 34 23  1  0  0  0  0
 35 36  1  0  0  0  0
 36 37  1  0  0  0  0
 36 44  1  0  0  0  0
 37 45  1  1  0  0  0
 37 39  1  0  0  0  0
 38 24  1  0  0  0  0
 38 37  1  0  0  0  0
 39 41  1  0  0  0  0
 40 39  2  0  0  0  0
 42 35  1  0  0  0  0
 43 36  1  0  0  0  0
 46 38  1  0  0  0  0
M  END
$$$$
