VMV.pdb
 OpenBabel07022419263D

 51 50  0  0  1  0  0  0  0  0999 V2000
    2.7030   -5.8110   -1.4260 C   0  0  0  0  0  0  0  0  0  0  0  0
    2.4930   -4.7170   -0.4040 C   0  0  0  0  0  0  0  0  0  0  0  0
    2.3640   -5.3630    0.9490 C   0  0  0  0  0  0  0  0  0  0  0  0
    1.2860   -3.8750   -0.7500 C   0  0  2  0  0  0  0  0  0  0  0  0
    1.4330   -3.2430   -2.0430 N   0  0  0  0  0  0  0  0  0  0  0  0
    0.9990   -2.8660    0.2920 C   0  0  0  0  0  0  0  0  0  0  0  0
    0.8380   -3.1810    1.5050 O   0  0  0  0  0  0  0  0  0  0  0  0
    2.8470   -6.8040   -0.9330 H   0  0  0  0  0  0  0  0  0  0  0  0
    1.7960   -5.8760   -2.0470 H   0  0  0  0  0  0  0  0  0  0  0  0
    3.6230   -5.6400   -2.0270 H   0  0  0  0  0  0  0  0  0  0  0  0
    3.4160   -4.0810   -0.4190 H   0  0  0  0  0  0  0  0  0  0  0  0
    2.8330   -4.7590    1.7520 H   0  0  0  0  0  0  0  0  0  0  0  0
    1.2880   -5.5560    1.1300 H   0  0  0  0  0  0  0  0  0  0  0  0
    2.9140   -6.3290    0.9410 H   0  0  0  0  0  0  0  0  0  0  0  0
    0.4220   -4.5840   -0.8340 H   0  0  0  0  0  0  0  0  0  0  0  0
    0.5130   -2.8310   -2.3140 H   0  0  0  0  0  0  0  0  0  0  0  0
    1.6800   -3.9670   -2.7500 H   0  0  0  0  0  0  0  0  0  0  0  0
    3.3800    3.3260    0.6440 C   0  0  0  0  0  0  0  0  0  0  0  0
    3.2030    2.4550    2.2200 S   0  0  0  0  0  0  0  0  0  0  0  0
    1.6740    1.4540    2.1130 C   0  0  0  0  0  0  0  0  0  0  0  0
    1.8130    0.3710    1.0970 C   0  0  0  0  0  0  0  0  0  0  0  0
    0.6010   -0.4850    1.0260 C   0  0  2  0  0  0  0  0  0  0  0  0
    0.8900   -1.4940   -0.0270 N   0  0  0  0  0  0  0  0  0  0  0  0
   -0.6510    0.1480    0.6360 C   0  0  0  0  0  0  0  0  0  0  0  0
   -1.1280   -0.0420   -0.5230 O   0  0  0  0  0  0  0  0  0  0  0  0
    2.3970    3.4530    0.1460 H   0  0  0  0  0  0  0  0  0  0  0  0
    4.0550    2.7440   -0.0480 H   0  0  0  0  0  0  0  0  0  0  0  0
    3.8470    4.3230    0.8090 H   0  0  0  0  0  0  0  0  0  0  0  0
    0.8300    2.1420    1.8270 H   0  0  0  0  0  0  0  0  0  0  0  0
    1.4260    1.0150    3.0890 H   0  0  0  0  0  0  0  0  0  0  0  0
    2.6780   -0.2760    1.4400 H   0  0  0  0  0  0  0  0  0  0  0  0
    2.1590    0.7420    0.1070 H   0  0  0  0  0  0  0  0  0  0  0  0
    0.5150   -1.0510    1.9930 H   0  0  0  0  0  0  0  0  0  0  0  0
    1.0110   -1.1790   -1.0030 H   0  0  0  0  0  0  0  0  0  0  0  0
   -5.1050    1.8370    1.1090 C   0  0  0  0  0  0  0  0  0  0  0  0
   -3.9040    1.1580    1.7340 C   0  0  0  0  0  0  0  0  0  0  0  0
   -4.1420   -0.3450    1.6090 C   0  0  0  0  0  0  0  0  0  0  0  0
   -2.6930    1.5850    0.9460 C   0  0  2  0  0  0  0  0  0  0  0  0
   -1.4640    1.0050    1.4390 N   0  0  0  0  0  0  0  0  0  0  0  0
   -2.5620    3.0440    0.9810 C   0  0  0  0  0  0  0  0  0  0  0  0
   -3.5020    3.7600    0.5910 O   0  0  0  0  0  0  0  0  0  0  0  0
   -1.4190    3.6430    1.4390 O   0  0  0  0  0  0  0  0  0  0  0  0
   -5.3720    2.7870    1.5970 H   0  0  0  0  0  0  0  0  0  0  0  0
   -5.9950    1.1500    1.1800 H   0  0  0  0  0  0  0  0  0  0  0  0
   -4.9070    1.9460    0.0180 H   0  0  0  0  0  0  0  0  0  0  0  0
   -3.7940    1.4670    2.7720 H   0  0  0  0  0  0  0  0  0  0  0  0
   -3.3390   -0.9080    2.1470 H   0  0  0  0  0  0  0  0  0  0  0  0
   -5.0940   -0.6410    2.0940 H   0  0  0  0  0  0  0  0  0  0  0  0
   -4.2210   -0.6500    0.5490 H   0  0  0  0  0  0  0  0  0  0  0  0
   -2.8960    1.2840   -0.1110 H   0  0  0  0  0  0  0  0  0  0  0  0
   -1.1410    1.1780    2.4120 H   0  0  0  0  0  0  0  0  0  0  0  0
  1  8  1  0  0  0  0
  1  2  1  0  0  0  0
  2  3  1  0  0  0  0
  3 13  1  0  0  0  0
  3 12  1  0  0  0  0
  4 15  1  6  0  0  0
  4  2  1  0  0  0  0
  4  6  1  0  0  0  0
  5  4  1  0  0  0  0
  6  7  2  0  0  0  0
  9  1  1  0  0  0  0
 10  1  1  0  0  0  0
 11  2  1  0  0  0  0
 14  3  1  0  0  0  0
 16  5  1  0  0  0  0
 17  5  1  0  0  0  0
 18 28  1  0  0  0  0
 18 19  1  0  0  0  0
 20 19  1  0  0  0  0
 20 30  1  0  0  0  0
 21 31  1  0  0  0  0
 21 20  1  0  0  0  0
 22 21  1  0  0  0  0
 22 33  1  1  0  0  0
 23  6  1  0  0  0  0
 23 22  1  0  0  0  0
 24 22  1  0  0  0  0
 24 39  1  0  0  0  0
 25 24  2  0  0  0  0
 26 18  1  0  0  0  0
 27 18  1  0  0  0  0
 29 20  1  0  0  0  0
 32 21  1  0  0  0  0
 34 23  1  0  0  0  0
 35 44  1  0  0  0  0
 35 43  1  0  0  0  0
 35 36  1  0  0  0  0
 36 46  1  0  0  0  0
 37 36  1  0  0  0  0
 37 48  1  0  0  0  0
 37 47  1  0  0  0  0
 38 50  1  6  0  0  0
 38 40  1  0  0  0  0
 38 39  1  0  0  0  0
 38 36  1  0  0  0  0
 39 51  1  0  0  0  0
 40 42  1  0  0  0  0
 41 40  2  0  0  0  0
 45 35  1  0  0  0  0
 49 37  1  0  0  0  0
M  END
$$$$
