VMW.pdb
 OpenBabel07022419263D

 59 60  0  0  1  0  0  0  0  0999 V2000
    1.8700   -2.2920    0.2040 C   0  0  0  0  0  0  0  0  0  0  0  0
    2.8630   -1.6310    1.0800 C   0  0  0  0  0  0  0  0  0  0  0  0
    4.1930   -2.3860    0.9400 C   0  0  0  0  0  0  0  0  0  0  0  0
    3.1690   -0.1920    0.8010 C   0  0  2  0  0  0  0  0  0  0  0  0
    4.2070    0.1430    1.8290 N   0  0  0  0  0  0  0  0  0  0  0  0
    2.0960    0.7780    1.0640 C   0  0  0  0  0  0  0  0  0  0  0  0
    2.1700    1.5100    2.1270 O   0  0  0  0  0  0  0  0  0  0  0  0
    2.2560   -3.3060   -0.1120 H   0  0  0  0  0  0  0  0  0  0  0  0
    0.9600   -2.5350    0.8290 H   0  0  0  0  0  0  0  0  0  0  0  0
    1.5260   -1.7320   -0.6660 H   0  0  0  0  0  0  0  0  0  0  0  0
    2.5950   -1.7610    2.1590 H   0  0  0  0  0  0  0  0  0  0  0  0
    5.0230   -1.7700    1.3340 H   0  0  0  0  0  0  0  0  0  0  0  0
    4.3620   -2.4690   -0.1580 H   0  0  0  0  0  0  0  0  0  0  0  0
    4.1700   -3.3590    1.4530 H   0  0  0  0  0  0  0  0  0  0  0  0
    3.6180   -0.0980   -0.2120 H   0  0  0  0  0  0  0  0  0  0  0  0
    4.3770    1.1770    1.7390 H   0  0  0  0  0  0  0  0  0  0  0  0
    3.6780    0.0350    2.7420 H   0  0  0  0  0  0  0  0  0  0  0  0
   -2.7620    4.4690    2.1040 C   0  0  0  0  0  0  0  0  0  0  0  0
   -2.5470    4.4000    0.3180 S   0  0  0  0  0  0  0  0  0  0  0  0
   -0.9200    4.2600   -0.2900 C   0  0  0  0  0  0  0  0  0  0  0  0
   -0.1800    3.0260   -0.4350 C   0  0  0  0  0  0  0  0  0  0  0  0
   -0.0310    2.0920    0.6900 C   0  0  2  0  0  0  0  0  0  0  0  0
    0.9550    1.0270    0.2680 N   0  0  0  0  0  0  0  0  0  0  0  0
   -1.2380    1.2460    0.9560 C   0  0  0  0  0  0  0  0  0  0  0  0
   -2.2840    1.7660    1.3360 O   0  0  0  0  0  0  0  0  0  0  0  0
   -3.6940    3.8870    2.3410 H   0  0  0  0  0  0  0  0  0  0  0  0
   -2.9580    5.5100    2.4560 H   0  0  0  0  0  0  0  0  0  0  0  0
   -1.9130    4.1140    2.6900 H   0  0  0  0  0  0  0  0  0  0  0  0
   -0.8660    4.8430   -1.3150 H   0  0  0  0  0  0  0  0  0  0  0  0
   -0.2210    4.9990    0.3050 H   0  0  0  0  0  0  0  0  0  0  0  0
    0.9130    3.3000   -0.7230 H   0  0  0  0  0  0  0  0  0  0  0  0
   -0.4670    2.4560   -1.3970 H   0  0  0  0  0  0  0  0  0  0  0  0
    0.2570    2.5790    1.6040 H   0  0  0  0  0  0  0  0  0  0  0  0
    0.8110    0.4970   -0.5900 H   0  0  0  0  0  0  0  0  0  0  0  0
   -1.2610   -0.1630    0.7960 N   0  0  0  0  0  0  0  0  0  0  0  0
   -2.4500   -0.9730    1.0670 C   0  0  1  0  0  0  0  0  0  0  0  0
   -2.9500   -1.5160   -0.2260 C   0  0  0  0  0  0  0  0  0  0  0  0
   -1.9770   -2.3320   -0.9510 C   0  0  0  0  0  0  0  0  0  0  0  0
   -1.1460   -1.8450   -1.9780 C   0  0  0  0  0  0  0  0  0  0  0  0
   -0.3690   -2.8470   -2.3780 N   0  0  0  0  0  0  0  0  0  0  0  0
   -0.6360   -3.9730   -1.6780 C   0  0  0  0  0  0  0  0  0  0  0  0
   -0.1230   -5.2530   -1.7190 C   0  0  0  0  0  0  0  0  0  0  0  0
   -0.6170   -6.2220   -0.8650 C   0  0  0  0  0  0  0  0  0  0  0  0
   -1.6210   -5.9120    0.0260 C   0  0  0  0  0  0  0  0  0  0  0  0
   -2.1280   -4.6260    0.0600 C   0  0  0  0  0  0  0  0  0  0  0  0
   -1.6410   -3.6370   -0.7920 C   0  0  0  0  0  0  0  0  0  0  0  0
   -2.2310   -1.9130    2.1620 C   0  0  0  0  0  0  0  0  0  0  0  0
   -3.1310   -2.6350    2.6640 O   0  0  0  0  0  0  0  0  0  0  0  0
   -0.9610   -2.0840    2.7510 O   0  0  0  0  0  0  0  0  0  0  0  0
   -0.4270   -0.6500    0.4760 H   0  0  0  0  0  0  0  0  0  0  0  0
   -3.2240   -0.2290    1.4330 H   0  0  0  0  0  0  0  0  0  0  0  0
   -3.2210   -0.6200   -0.8590 H   0  0  0  0  0  0  0  0  0  0  0  0
   -3.8910   -2.0740   -0.0020 H   0  0  0  0  0  0  0  0  0  0  0  0
   -1.1740   -0.8350   -2.3360 H   0  0  0  0  0  0  0  0  0  0  0  0
    0.3630   -2.7860   -3.1390 H   0  0  0  0  0  0  0  0  0  0  0  0
    0.6600   -5.5050   -2.4080 H   0  0  0  0  0  0  0  0  0  0  0  0
   -0.2430   -7.2250   -0.8690 H   0  0  0  0  0  0  0  0  0  0  0  0
   -2.0220   -6.6670    0.7080 H   0  0  0  0  0  0  0  0  0  0  0  0
   -2.9170   -4.4150    0.7490 H   0  0  0  0  0  0  0  0  0  0  0  0
  1  9  1  0  0  0  0
  1  2  1  0  0  0  0
  2 11  1  0  0  0  0
  3  2  1  0  0  0  0
  3 12  1  0  0  0  0
  3 14  1  0  0  0  0
  4 15  1  6  0  0  0
  4  6  1  0  0  0  0
  4  2  1  0  0  0  0
  4  5  1  0  0  0  0
  5 17  1  0  0  0  0
  6  7  2  0  0  0  0
  8  1  1  0  0  0  0
 10  1  1  0  0  0  0
 13  3  1  0  0  0  0
 16  5  1  0  0  0  0
 18 26  1  0  0  0  0
 18 27  1  0  0  0  0
 18 28  1  0  0  0  0
 19 18  1  0  0  0  0
 20 30  1  0  0  0  0
 20 19  1  0  0  0  0
 21 20  1  0  0  0  0
 21 22  1  0  0  0  0
 22 24  1  0  0  0  0
 22 33  1  1  0  0  0
 23 22  1  0  0  0  0
 23  6  1  0  0  0  0
 24 25  2  0  0  0  0
 29 20  1  0  0  0  0
 31 21  1  0  0  0  0
 32 21  1  0  0  0  0
 34 23  1  0  0  0  0
 35 24  1  0  0  0  0
 35 36  1  0  0  0  0
 36 51  1  1  0  0  0
 36 47  1  0  0  0  0
 37 53  1  0  0  0  0
 37 36  1  0  0  0  0
 38 46  1  0  0  0  0
 38 37  1  0  0  0  0
 39 38  2  0  0  0  0
 40 39  1  0  0  0  0
 40 41  1  0  0  0  0
 41 46  1  0  0  0  0
 42 41  2  0  0  0  0
 42 43  1  0  0  0  0
 43 44  2  0  0  0  0
 44 45  1  0  0  0  0
 44 58  1  0  0  0  0
 45 59  1  0  0  0  0
 46 45  2  0  0  0  0
 47 48  2  0  0  0  0
 47 49  1  0  0  0  0
 50 35  1  0  0  0  0
 52 37  1  0  0  0  0
 54 39  1  0  0  0  0
 55 40  1  0  0  0  0
 56 42  1  0  0  0  0
 57 43  1  0  0  0  0
M  END
$$$$
