VNA.pdb
 OpenBabel07022419243D

 42 41  0  0  1  0  0  0  0  0999 V2000
   -0.6520   -4.7590    0.6570 C   0  0  0  0  0  0  0  0  0  0  0  0
   -1.4460   -3.6160    0.0630 C   0  0  0  0  0  0  0  0  0  0  0  0
   -1.0810   -3.4080   -1.3810 C   0  0  0  0  0  0  0  0  0  0  0  0
   -1.2230   -2.3950    0.9100 C   0  0  2  0  0  0  0  0  0  0  0  0
   -1.9850   -1.3110    0.3340 N   0  0  0  0  0  0  0  0  0  0  0  0
    0.1720   -2.0040    1.0550 C   0  0  0  0  0  0  0  0  0  0  0  0
    1.0770   -2.7430    1.5310 O   0  0  0  0  0  0  0  0  0  0  0  0
   -1.2470   -5.6730    0.5570 H   0  0  0  0  0  0  0  0  0  0  0  0
    0.2900   -4.9090    0.0790 H   0  0  0  0  0  0  0  0  0  0  0  0
   -0.4380   -4.5830    1.7400 H   0  0  0  0  0  0  0  0  0  0  0  0
   -2.5220   -3.8740    0.1460 H   0  0  0  0  0  0  0  0  0  0  0  0
   -1.8220   -3.9590   -1.9970 H   0  0  0  0  0  0  0  0  0  0  0  0
   -1.1240   -2.3470   -1.6860 H   0  0  0  0  0  0  0  0  0  0  0  0
   -0.0990   -3.8650   -1.5690 H   0  0  0  0  0  0  0  0  0  0  0  0
   -1.7120   -2.6140    1.9040 H   0  0  0  0  0  0  0  0  0  0  0  0
   -2.2520   -0.6680    1.1120 H   0  0  0  0  0  0  0  0  0  0  0  0
   -2.8510   -1.7140   -0.0680 H   0  0  0  0  0  0  0  0  0  0  0  0
    2.8350   -0.6980   -2.9410 N   0  0  0  0  0  0  0  0  0  0  0  0
    2.4070   -0.9180   -1.6020 C   0  0  0  0  0  0  0  0  0  0  0  0
    2.0160   -2.0840   -1.3380 O   0  0  0  0  0  0  0  0  0  0  0  0
    2.4340    0.1820   -0.6100 C   0  0  0  0  0  0  0  0  0  0  0  0
    1.9440   -0.2400    0.7520 C   0  0  2  0  0  0  0  0  0  0  0  0
    0.5750   -0.7050    0.6420 N   0  0  0  0  0  0  0  0  0  0  0  0
    2.0140    0.9940    1.6120 C   0  0  0  0  0  0  0  0  0  0  0  0
    3.1300    1.5320    1.8150 O   0  0  0  0  0  0  0  0  0  0  0  0
    2.7760    0.2540   -3.3750 H   0  0  0  0  0  0  0  0  0  0  0  0
    3.2190   -1.4660   -3.5350 H   0  0  0  0  0  0  0  0  0  0  0  0
    1.8080    1.0020   -1.0410 H   0  0  0  0  0  0  0  0  0  0  0  0
    3.4640    0.6290   -0.5480 H   0  0  0  0  0  0  0  0  0  0  0  0
    2.5980   -1.0340    1.1500 H   0  0  0  0  0  0  0  0  0  0  0  0
   -0.1620   -0.0660    0.2410 H   0  0  0  0  0  0  0  0  0  0  0  0
    0.0320    3.8430    2.4130 C   0  0  0  0  0  0  0  0  0  0  0  0
    0.8390    2.7220    3.0180 C   0  0  2  0  0  0  0  0  0  0  0  0
    0.8650    1.5450    2.1830 N   0  0  0  0  0  0  0  0  0  0  0  0
    0.3340    2.3660    4.3440 C   0  0  0  0  0  0  0  0  0  0  0  0
   -0.0030    1.1870    4.6150 O   0  0  0  0  0  0  0  0  0  0  0  0
    0.2130    3.3320    5.3400 O   0  0  0  0  0  0  0  0  0  0  0  0
   -0.5090    4.3390    3.2540 H   0  0  0  0  0  0  0  0  0  0  0  0
    0.6750    4.5980    1.9620 H   0  0  0  0  0  0  0  0  0  0  0  0
   -0.7560    3.4800    1.7160 H   0  0  0  0  0  0  0  0  0  0  0  0
    1.8830    3.0820    3.1110 H   0  0  0  0  0  0  0  0  0  0  0  0
   -0.0510    1.0800    2.0000 H   0  0  0  0  0  0  0  0  0  0  0  0
  1 10  1  0  0  0  0
  2 11  1  0  0  0  0
  2  1  1  0  0  0  0
  2  4  1  0  0  0  0
  3  2  1  0  0  0  0
  4  6  1  0  0  0  0
  4 15  1  1  0  0  0
  5  4  1  0  0  0  0
  5 16  1  0  0  0  0
  6  7  2  0  0  0  0
  8  1  1  0  0  0  0
  9  1  1  0  0  0  0
 12  3  1  0  0  0  0
 13  3  1  0  0  0  0
 14  3  1  0  0  0  0
 17  5  1  0  0  0  0
 18 19  1  0  0  0  0
 19 20  2  0  0  0  0
 19 21  1  0  0  0  0
 21 29  1  0  0  0  0
 21 22  1  0  0  0  0
 22 30  1  1  0  0  0
 22 24  1  0  0  0  0
 23 22  1  0  0  0  0
 23  6  1  0  0  0  0
 24 25  2  0  0  0  0
 24 34  1  0  0  0  0
 26 18  1  0  0  0  0
 27 18  1  0  0  0  0
 28 21  1  0  0  0  0
 31 23  1  0  0  0  0
 32 33  1  0  0  0  0
 32 38  1  0  0  0  0
 33 41  1  1  0  0  0
 33 35  1  0  0  0  0
 34 33  1  0  0  0  0
 35 36  2  0  0  0  0
 35 37  1  0  0  0  0
 39 32  1  0  0  0  0
 40 32  1  0  0  0  0
 42 34  1  0  0  0  0
M  END
$$$$
