VNF.pdb
 OpenBabel07022419243D

 52 52  0  0  1  0  0  0  0  0999 V2000
    1.8720   -3.0640    1.9700 C   0  0  0  0  0  0  0  0  0  0  0  0
    2.5950   -2.5210    0.7520 C   0  0  0  0  0  0  0  0  0  0  0  0
    1.7420   -2.5180   -0.4730 C   0  0  0  0  0  0  0  0  0  0  0  0
    3.3350   -1.2460    1.0290 C   0  0  2  0  0  0  0  0  0  0  0  0
    4.3280   -1.5690    2.0690 N   0  0  0  0  0  0  0  0  0  0  0  0
    2.5120   -0.1040    1.4360 C   0  0  0  0  0  0  0  0  0  0  0  0
    2.7530    0.4120    2.5870 O   0  0  0  0  0  0  0  0  0  0  0  0
    2.5320   -3.6950    2.6060 H   0  0  0  0  0  0  0  0  0  0  0  0
    1.3780   -2.2640    2.5460 H   0  0  0  0  0  0  0  0  0  0  0  0
    1.0640   -3.7350    1.6020 H   0  0  0  0  0  0  0  0  0  0  0  0
    3.3860   -3.3250    0.5480 H   0  0  0  0  0  0  0  0  0  0  0  0
    0.6930   -2.2810   -0.3030 H   0  0  0  0  0  0  0  0  0  0  0  0
    1.7250   -3.5660   -0.9140 H   0  0  0  0  0  0  0  0  0  0  0  0
    2.2520   -1.9170   -1.2540 H   0  0  0  0  0  0  0  0  0  0  0  0
    3.9320   -0.9900    0.1260 H   0  0  0  0  0  0  0  0  0  0  0  0
    5.2390   -1.0710    1.8560 H   0  0  0  0  0  0  0  0  0  0  0  0
    3.9650   -1.3310    3.0160 H   0  0  0  0  0  0  0  0  0  0  0  0
    0.8170    4.7670    1.8740 N   0  0  0  0  0  0  0  0  0  0  0  0
    0.2690    4.0020    0.8100 C   0  0  0  0  0  0  0  0  0  0  0  0
   -0.8430    4.3440    0.3350 O   0  0  0  0  0  0  0  0  0  0  0  0
    1.0380    2.8420    0.3160 C   0  0  0  0  0  0  0  0  0  0  0  0
    0.7210    1.6060    1.1300 C   0  0  2  0  0  0  0  0  0  0  0  0
    1.4800    0.4590    0.6430 N   0  0  0  0  0  0  0  0  0  0  0  0
   -0.7220    1.3460    1.2660 C   0  0  0  0  0  0  0  0  0  0  0  0
   -1.4840    2.2470    1.6980 O   0  0  0  0  0  0  0  0  0  0  0  0
    0.2180    5.2820    2.5660 H   0  0  0  0  0  0  0  0  0  0  0  0
    1.8570    4.8640    2.0330 H   0  0  0  0  0  0  0  0  0  0  0  0
    0.7780    2.6640   -0.7590 H   0  0  0  0  0  0  0  0  0  0  0  0
    2.1040    3.0820    0.4150 H   0  0  0  0  0  0  0  0  0  0  0  0
    1.1110    1.8330    2.1530 H   0  0  0  0  0  0  0  0  0  0  0  0
    1.2800    0.0370   -0.2890 H   0  0  0  0  0  0  0  0  0  0  0  0
   -1.3450    0.1050    0.9320 N   0  0  0  0  0  0  0  0  0  0  0  0
   -2.7620   -0.0440    1.0980 C   0  0  1  0  0  0  0  0  0  0  0  0
   -3.4700   -0.3520   -0.2010 C   0  0  0  0  0  0  0  0  0  0  0  0
   -2.9960   -1.6110   -0.8270 C   0  0  0  0  0  0  0  0  0  0  0  0
   -1.9360   -1.5930   -1.7100 C   0  0  0  0  0  0  0  0  0  0  0  0
   -1.4950   -2.7540   -2.2930 C   0  0  0  0  0  0  0  0  0  0  0  0
   -2.0820   -3.9690   -2.0270 C   0  0  0  0  0  0  0  0  0  0  0  0
   -3.1350   -3.9810   -1.1490 C   0  0  0  0  0  0  0  0  0  0  0  0
   -3.5860   -2.8200   -0.5580 C   0  0  0  0  0  0  0  0  0  0  0  0
   -3.1020   -1.0870    2.0940 C   0  0  0  0  0  0  0  0  0  0  0  0
   -4.2750   -1.3790    2.3950 O   0  0  0  0  0  0  0  0  0  0  0  0
   -2.0580   -1.7590    2.7100 O   0  0  0  0  0  0  0  0  0  0  0  0
   -0.7940   -0.6790    0.5750 H   0  0  0  0  0  0  0  0  0  0  0  0
   -3.2200    0.9020    1.4820 H   0  0  0  0  0  0  0  0  0  0  0  0
   -4.5560   -0.4330    0.0100 H   0  0  0  0  0  0  0  0  0  0  0  0
   -3.3380    0.4670   -0.9350 H   0  0  0  0  0  0  0  0  0  0  0  0
   -1.4570   -0.6280   -1.9310 H   0  0  0  0  0  0  0  0  0  0  0  0
   -0.6610   -2.7120   -2.9820 H   0  0  0  0  0  0  0  0  0  0  0  0
   -1.7260   -4.8790   -2.4920 H   0  0  0  0  0  0  0  0  0  0  0  0
   -3.6320   -4.9290   -0.9100 H   0  0  0  0  0  0  0  0  0  0  0  0
   -4.4200   -2.9090    0.1220 H   0  0  0  0  0  0  0  0  0  0  0  0
  1  9  1  0  0  0  0
  1  8  1  0  0  0  0
  2  4  1  0  0  0  0
  2  1  1  0  0  0  0
  3 12  1  0  0  0  0
  3  2  1  0  0  0  0
  4 15  1  6  0  0  0
  4  6  1  0  0  0  0
  4  5  1  0  0  0  0
  5 17  1  0  0  0  0
  6  7  2  0  0  0  0
 10  1  1  0  0  0  0
 11  2  1  0  0  0  0
 13  3  1  0  0  0  0
 14  3  1  0  0  0  0
 16  5  1  0  0  0  0
 18 27  1  0  0  0  0
 18 26  1  0  0  0  0
 19 18  1  0  0  0  0
 20 19  2  0  0  0  0
 21 29  1  0  0  0  0
 21 19  1  0  0  0  0
 21 22  1  0  0  0  0
 22 24  1  0  0  0  0
 22 30  1  1  0  0  0
 23 22  1  0  0  0  0
 23  6  1  0  0  0  0
 24 25  2  0  0  0  0
 28 21  1  0  0  0  0
 31 23  1  0  0  0  0
 32 33  1  0  0  0  0
 32 24  1  0  0  0  0
 33 45  1  1  0  0  0
 33 41  1  0  0  0  0
 34 46  1  0  0  0  0
 34 33  1  0  0  0  0
 35 40  1  0  0  0  0
 35 34  1  0  0  0  0
 36 35  2  0  0  0  0
 37 38  2  0  0  0  0
 37 36  1  0  0  0  0
 38 39  1  0  0  0  0
 39 51  1  0  0  0  0
 39 40  2  0  0  0  0
 40 52  1  0  0  0  0
 41 42  2  0  0  0  0
 41 43  1  0  0  0  0
 44 32  1  0  0  0  0
 47 34  1  0  0  0  0
 48 36  1  0  0  0  0
 49 37  1  0  0  0  0
 50 38  1  0  0  0  0
M  END
$$$$
