VNG.pdb
 OpenBabel07022419243D

 39 38  0  0  1  0  0  0  0  0999 V2000
    0.1960   -2.7090    2.7850 C   0  0  0  0  0  0  0  0  0  0  0  0
    0.9530   -3.1410    1.5490 C   0  0  0  0  0  0  0  0  0  0  0  0
    0.1000   -3.1630    0.3330 C   0  0  0  0  0  0  0  0  0  0  0  0
    2.2460   -2.3960    1.4410 C   0  0  2  0  0  0  0  0  0  0  0  0
    3.0960   -2.6930    2.6270 N   0  0  0  0  0  0  0  0  0  0  0  0
    2.1210   -0.9300    1.3070 C   0  0  0  0  0  0  0  0  0  0  0  0
    2.7250   -0.1520    2.1380 O   0  0  0  0  0  0  0  0  0  0  0  0
    0.7310   -2.9980    3.6990 H   0  0  0  0  0  0  0  0  0  0  0  0
   -0.7820   -3.2620    2.8030 H   0  0  0  0  0  0  0  0  0  0  0  0
   -0.0630   -1.6260    2.7600 H   0  0  0  0  0  0  0  0  0  0  0  0
    1.1940   -4.2440    1.7690 H   0  0  0  0  0  0  0  0  0  0  0  0
   -0.4680   -4.1480    0.2530 H   0  0  0  0  0  0  0  0  0  0  0  0
   -0.7090   -2.4100    0.3800 H   0  0  0  0  0  0  0  0  0  0  0  0
    0.6700   -3.1330   -0.6180 H   0  0  0  0  0  0  0  0  0  0  0  0
    2.8180   -2.7870    0.5800 H   0  0  0  0  0  0  0  0  0  0  0  0
    3.9560   -2.1010    2.4800 H   0  0  0  0  0  0  0  0  0  0  0  0
    2.6280   -2.2710    3.4800 H   0  0  0  0  0  0  0  0  0  0  0  0
   -0.0610    2.1200   -2.7910 N   0  0  0  0  0  0  0  0  0  0  0  0
    0.9420    1.3100   -2.2010 C   0  0  0  0  0  0  0  0  0  0  0  0
    1.1330    0.1700   -2.6830 O   0  0  0  0  0  0  0  0  0  0  0  0
    1.7400    1.7660   -1.0680 C   0  0  0  0  0  0  0  0  0  0  0  0
    1.3110    1.2060    0.2520 C   0  0  2  0  0  0  0  0  0  0  0  0
    1.3770   -0.2430    0.3200 N   0  0  0  0  0  0  0  0  0  0  0  0
   -0.0350    1.7340    0.5840 C   0  0  0  0  0  0  0  0  0  0  0  0
   -0.1970    2.9900    0.5360 O   0  0  0  0  0  0  0  0  0  0  0  0
   -1.0630    2.0050   -2.5600 H   0  0  0  0  0  0  0  0  0  0  0  0
    0.1710    2.8790   -3.4950 H   0  0  0  0  0  0  0  0  0  0  0  0
    2.8470    1.6200   -1.2250 H   0  0  0  0  0  0  0  0  0  0  0  0
    1.6200    2.8780   -0.9910 H   0  0  0  0  0  0  0  0  0  0  0  0
    1.9890    1.6650    1.0350 H   0  0  0  0  0  0  0  0  0  0  0  0
    0.8570   -0.7910   -0.3890 H   0  0  0  0  0  0  0  0  0  0  0  0
   -1.1010    0.8860    0.9420 N   0  0  0  0  0  0  0  0  0  0  0  0
   -2.3770    1.5040    1.2480 C   0  0  0  0  0  0  0  0  0  0  0  0
   -3.3290    0.4180    1.5910 C   0  0  0  0  0  0  0  0  0  0  0  0
   -4.5350    0.6480    1.9060 O   0  0  0  0  0  0  0  0  0  0  0  0
   -2.9500   -0.9240    1.5860 O   0  0  0  0  0  0  0  0  0  0  0  0
   -0.9680   -0.1360    0.9830 H   0  0  0  0  0  0  0  0  0  0  0  0
   -2.7260    2.1090    0.3930 H   0  0  0  0  0  0  0  0  0  0  0  0
   -2.2810    2.1700    2.1400 H   0  0  0  0  0  0  0  0  0  0  0  0
  1  9  1  0  0  0  0
  1  8  1  0  0  0  0
  2 11  1  0  0  0  0
  2  1  1  0  0  0  0
  3 13  1  0  0  0  0
  3  2  1  0  0  0  0
  4 15  1  6  0  0  0
  4  2  1  0  0  0  0
  4  5  1  0  0  0  0
  5 17  1  0  0  0  0
  6  4  1  0  0  0  0
  6  7  2  0  0  0  0
 10  1  1  0  0  0  0
 12  3  1  0  0  0  0
 14  3  1  0  0  0  0
 16  5  1  0  0  0  0
 18 26  1  0  0  0  0
 18 19  1  0  0  0  0
 19 21  1  0  0  0  0
 20 19  2  0  0  0  0
 21 29  1  0  0  0  0
 21 22  1  0  0  0  0
 22 23  1  0  0  0  0
 22 24  1  0  0  0  0
 22 30  1  1  0  0  0
 23  6  1  0  0  0  0
 24 32  1  0  0  0  0
 25 24  2  0  0  0  0
 27 18  1  0  0  0  0
 28 21  1  0  0  0  0
 31 23  1  0  0  0  0
 32 37  1  0  0  0  0
 32 33  1  0  0  0  0
 33 34  1  0  0  0  0
 33 39  1  0  0  0  0
 34 35  1  0  0  0  0
 36 34  2  0  0  0  0
 38 33  1  0  0  0  0
M  END
$$$$
