VNH.pdb
 OpenBabel07022419243D

 49 49  0  0  1  0  0  0  0  0999 V2000
    4.8840   -2.9960    0.1850 C   0  0  0  0  0  0  0  0  0  0  0  0
    4.4330   -1.7900   -0.5810 C   0  0  0  0  0  0  0  0  0  0  0  0
    4.9790   -1.8930   -1.9900 C   0  0  0  0  0  0  0  0  0  0  0  0
    2.9500   -1.6560   -0.6780 C   0  0  2  0  0  0  0  0  0  0  0  0
    2.6140   -0.4810   -1.4240 N   0  0  0  0  0  0  0  0  0  0  0  0
    2.3060   -1.5600    0.6720 C   0  0  0  0  0  0  0  0  0  0  0  0
    2.4410   -2.4550    1.5410 O   0  0  0  0  0  0  0  0  0  0  0  0
    5.9280   -3.2380   -0.1660 H   0  0  0  0  0  0  0  0  0  0  0  0
    4.9420   -2.8570    1.2650 H   0  0  0  0  0  0  0  0  0  0  0  0
    4.2720   -3.8720   -0.1140 H   0  0  0  0  0  0  0  0  0  0  0  0
    4.8720   -0.8690   -0.1440 H   0  0  0  0  0  0  0  0  0  0  0  0
    5.9260   -1.3220   -2.1050 H   0  0  0  0  0  0  0  0  0  0  0  0
    5.1830   -2.9240   -2.3070 H   0  0  0  0  0  0  0  0  0  0  0  0
    4.2500   -1.4770   -2.7410 H   0  0  0  0  0  0  0  0  0  0  0  0
    2.5720   -2.5590   -1.2260 H   0  0  0  0  0  0  0  0  0  0  0  0
    3.0070    0.3680   -0.9400 H   0  0  0  0  0  0  0  0  0  0  0  0
    1.5960   -0.3930   -1.6020 H   0  0  0  0  0  0  0  0  0  0  0  0
    1.3400    2.2630    5.0950 N   0  0  0  0  0  0  0  0  0  0  0  0
    0.9550    1.0670    4.3770 C   0  0  0  0  0  0  0  0  0  0  0  0
    0.2130    0.3030    5.0460 O   0  0  0  0  0  0  0  0  0  0  0  0
    1.4120    0.8220    3.0120 C   0  0  0  0  0  0  0  0  0  0  0  0
    0.9150   -0.4090    2.3490 C   0  0  2  0  0  0  0  0  0  0  0  0
    1.5180   -0.4460    1.0120 N   0  0  0  0  0  0  0  0  0  0  0  0
   -0.5880   -0.4400    2.1900 C   0  0  0  0  0  0  0  0  0  0  0  0
   -1.3800   -0.4220    3.1570 O   0  0  0  0  0  0  0  0  0  0  0  0
    0.5740    2.8070    5.5180 H   0  0  0  0  0  0  0  0  0  0  0  0
    2.3290    2.5670    5.1860 H   0  0  0  0  0  0  0  0  0  0  0  0
    1.2250    1.6790    2.3230 H   0  0  0  0  0  0  0  0  0  0  0  0
    2.5340    0.7270    3.0550 H   0  0  0  0  0  0  0  0  0  0  0  0
    1.1780   -1.2900    2.9300 H   0  0  0  0  0  0  0  0  0  0  0  0
    1.3260    0.3590    0.3910 H   0  0  0  0  0  0  0  0  0  0  0  0
   -1.1810   -0.4920    0.8960 N   0  0  0  0  0  0  0  0  0  0  0  0
   -2.6260   -0.5240    0.6840 C   0  0  1  0  0  0  0  0  0  0  0  0
   -3.0970    0.6360   -0.1220 C   0  0  0  0  0  0  0  0  0  0  0  0
   -4.5610    0.5570   -0.3100 C   0  0  0  0  0  0  0  0  0  0  0  0
   -5.2670   -0.0170   -1.3330 C   0  0  0  0  0  0  0  0  0  0  0  0
   -6.5880    0.1790   -1.0800 N   0  0  0  0  0  0  0  0  0  0  0  0
   -6.7260    0.8540    0.0640 C   0  0  0  0  0  0  0  0  0  0  0  0
   -5.4990    1.0850    0.5340 N   0  0  0  0  0  0  0  0  0  0  0  0
   -2.9740   -1.8390    0.1070 C   0  0  0  0  0  0  0  0  0  0  0  0
   -4.1450   -2.2000   -0.1490 O   0  0  0  0  0  0  0  0  0  0  0  0
   -1.9780   -2.7900   -0.1960 O   0  0  0  0  0  0  0  0  0  0  0  0
   -0.5440   -0.5090    0.0730 H   0  0  0  0  0  0  0  0  0  0  0  0
   -3.1660   -0.4800    1.6680 H   0  0  0  0  0  0  0  0  0  0  0  0
   -2.6000    0.7200   -1.1120 H   0  0  0  0  0  0  0  0  0  0  0  0
   -2.9080    1.5840    0.4630 H   0  0  0  0  0  0  0  0  0  0  0  0
   -4.8240   -0.5210   -2.1750 H   0  0  0  0  0  0  0  0  0  0  0  0
   -7.3490   -0.1700   -1.7220 H   0  0  0  0  0  0  0  0  0  0  0  0
   -7.6430    1.1520    0.5160 H   0  0  0  0  0  0  0  0  0  0  0  0
  1  9  1  0  0  0  0
  2 11  1  0  0  0  0
  2  1  1  0  0  0  0
  3  2  1  0  0  0  0
  4 15  1  6  0  0  0
  4  2  1  0  0  0  0
  4  6  1  0  0  0  0
  5 16  1  0  0  0  0
  5  4  1  0  0  0  0
  6 23  1  0  0  0  0
  6  7  2  0  0  0  0
  8  1  1  0  0  0  0
 10  1  1  0  0  0  0
 12  3  1  0  0  0  0
 13  3  1  0  0  0  0
 14  3  1  0  0  0  0
 17  5  1  0  0  0  0
 18 27  1  0  0  0  0
 18 26  1  0  0  0  0
 19 20  2  0  0  0  0
 19 18  1  0  0  0  0
 21 29  1  0  0  0  0
 21 19  1  0  0  0  0
 22 30  1  1  0  0  0
 22 21  1  0  0  0  0
 23 22  1  0  0  0  0
 24 22  1  0  0  0  0
 24 25  2  0  0  0  0
 28 21  1  0  0  0  0
 31 23  1  0  0  0  0
 32 24  1  0  0  0  0
 33 32  1  0  0  0  0
 33 44  1  1  0  0  0
 34 46  1  0  0  0  0
 34 33  1  0  0  0  0
 35 34  1  0  0  0  0
 35 39  1  0  0  0  0
 36 37  1  0  0  0  0
 36 35  2  0  0  0  0
 37 38  1  0  0  0  0
 38 49  1  0  0  0  0
 38 39  2  0  0  0  0
 40 33  1  0  0  0  0
 41 40  1  0  0  0  0
 42 40  2  0  0  0  0
 43 32  1  0  0  0  0
 45 34  1  0  0  0  0
 47 36  1  0  0  0  0
 48 37  1  0  0  0  0
M  END
$$$$
