VNI.pdb
 OpenBabel07022419243D

 51 50  0  0  1  0  0  0  0  0999 V2000
    2.0540   -2.1010   -4.0340 C   0  0  0  0  0  0  0  0  0  0  0  0
    1.7200   -2.0260   -2.5310 C   0  0  0  0  0  0  0  0  0  0  0  0
    0.2690   -1.6580   -2.4480 C   0  0  0  0  0  0  0  0  0  0  0  0
    2.6670   -0.9740   -1.9830 C   0  0  2  0  0  0  0  0  0  0  0  0
    4.0100   -1.5190   -2.2980 N   0  0  0  0  0  0  0  0  0  0  0  0
    2.6380   -0.8520   -0.5140 C   0  0  0  0  0  0  0  0  0  0  0  0
    3.5060   -1.4570    0.1750 O   0  0  0  0  0  0  0  0  0  0  0  0
    1.7590   -3.0940   -4.4140 H   0  0  0  0  0  0  0  0  0  0  0  0
    1.4400   -1.3480   -4.5380 H   0  0  0  0  0  0  0  0  0  0  0  0
    3.1350   -1.9200   -4.1620 H   0  0  0  0  0  0  0  0  0  0  0  0
    1.9620   -3.0030   -2.0690 H   0  0  0  0  0  0  0  0  0  0  0  0
    0.0720   -0.5870   -2.3290 H   0  0  0  0  0  0  0  0  0  0  0  0
   -0.2260   -2.2580   -1.6400 H   0  0  0  0  0  0  0  0  0  0  0  0
   -0.2870   -1.9820   -3.3810 H   0  0  0  0  0  0  0  0  0  0  0  0
    2.5470   -0.0100   -2.4660 H   0  0  0  0  0  0  0  0  0  0  0  0
    4.1830   -2.2700   -1.5900 H   0  0  0  0  0  0  0  0  0  0  0  0
    4.7130   -0.7540   -2.2360 H   0  0  0  0  0  0  0  0  0  0  0  0
    2.2830    0.4380    4.2910 N   0  0  0  0  0  0  0  0  0  0  0  0
    2.1140    1.5510    3.4430 C   0  0  0  0  0  0  0  0  0  0  0  0
    2.0400    2.7010    3.9610 O   0  0  0  0  0  0  0  0  0  0  0  0
    2.0240    1.4300    2.0000 C   0  0  0  0  0  0  0  0  0  0  0  0
    1.6940    0.0120    1.5940 C   0  0  2  0  0  0  0  0  0  0  0  0
    1.6500   -0.0620    0.1140 N   0  0  0  0  0  0  0  0  0  0  0  0
    0.3840   -0.4510    2.0890 C   0  0  0  0  0  0  0  0  0  0  0  0
    0.0950   -0.5290    3.3170 O   0  0  0  0  0  0  0  0  0  0  0  0
    2.8260   -0.3900    3.9840 H   0  0  0  0  0  0  0  0  0  0  0  0
    1.8590    0.4420    5.2390 H   0  0  0  0  0  0  0  0  0  0  0  0
    2.9950    1.6890    1.5110 H   0  0  0  0  0  0  0  0  0  0  0  0
    1.2260    2.0980    1.5840 H   0  0  0  0  0  0  0  0  0  0  0  0
    2.4850   -0.6370    1.9340 H   0  0  0  0  0  0  0  0  0  0  0  0
    0.9230    0.4610   -0.4040 H   0  0  0  0  0  0  0  0  0  0  0  0
   -3.0490    1.2430    3.0280 C   0  0  0  0  0  0  0  0  0  0  0  0
   -3.0670    0.9430    1.5700 C   0  0  0  0  0  0  0  0  0  0  0  0
   -3.1340   -0.5220    1.2390 C   0  0  2  0  0  0  0  0  0  0  0  0
   -4.4120   -1.0570    1.8510 C   0  0  0  0  0  0  0  0  0  0  0  0
   -1.9660   -1.3090    1.7520 C   0  0  2  0  0  0  0  0  0  0  0  0
   -0.7010   -0.8620    1.2270 N   0  0  0  0  0  0  0  0  0  0  0  0
   -2.1600   -2.7190    1.3570 C   0  0  0  0  0  0  0  0  0  0  0  0
   -1.2780   -3.2870    0.6810 O   0  0  0  0  0  0  0  0  0  0  0  0
   -3.2830   -3.4540    1.7000 O   0  0  0  0  0  0  0  0  0  0  0  0
   -3.8440    1.9310    3.3160 H   0  0  0  0  0  0  0  0  0  0  0  0
   -2.0850    1.7970    3.2400 H   0  0  0  0  0  0  0  0  0  0  0  0
   -2.9910    0.3410    3.6690 H   0  0  0  0  0  0  0  0  0  0  0  0
   -2.2300    1.4430    1.0220 H   0  0  0  0  0  0  0  0  0  0  0  0
   -3.9940    1.4080    1.1410 H   0  0  0  0  0  0  0  0  0  0  0  0
   -3.2270   -0.6250    0.1410 H   0  0  0  0  0  0  0  0  0  0  0  0
   -5.1030   -0.2330    2.1480 H   0  0  0  0  0  0  0  0  0  0  0  0
   -4.9620   -1.7290    1.1850 H   0  0  0  0  0  0  0  0  0  0  0  0
   -4.1580   -1.5910    2.8040 H   0  0  0  0  0  0  0  0  0  0  0  0
   -2.0040   -1.2880    2.8580 H   0  0  0  0  0  0  0  0  0  0  0  0
   -0.4970   -0.8080    0.2090 H   0  0  0  0  0  0  0  0  0  0  0  0
  1  2  1  0  0  0  0
  2  3  1  0  0  0  0
  2 11  1  0  0  0  0
  2  4  1  0  0  0  0
  3 12  1  0  0  0  0
  3 13  1  0  0  0  0
  4 15  1  6  0  0  0
  4  6  1  0  0  0  0
  5 17  1  0  0  0  0
  5  4  1  0  0  0  0
  5 16  1  0  0  0  0
  6 23  1  0  0  0  0
  6  7  2  0  0  0  0
  8  1  1  0  0  0  0
  9  1  1  0  0  0  0
 10  1  1  0  0  0  0
 14  3  1  0  0  0  0
 18 27  1  0  0  0  0
 19 20  2  0  0  0  0
 19 18  1  0  0  0  0
 21 19  1  0  0  0  0
 22 30  1  1  0  0  0
 22 21  1  0  0  0  0
 22 24  1  0  0  0  0
 23 22  1  0  0  0  0
 24 25  2  0  0  0  0
 26 18  1  0  0  0  0
 28 21  1  0  0  0  0
 29 21  1  0  0  0  0
 31 23  1  0  0  0  0
 32 42  1  0  0  0  0
 32 41  1  0  0  0  0
 32 43  1  0  0  0  0
 33 32  1  0  0  0  0
 34 46  1  6  0  0  0
 34 33  1  0  0  0  0
 34 36  1  0  0  0  0
 34 35  1  0  0  0  0
 35 47  1  0  0  0  0
 35 49  1  0  0  0  0
 36 50  1  1  0  0  0
 37 36  1  0  0  0  0
 37 24  1  0  0  0  0
 38 40  1  0  0  0  0
 38 36  1  0  0  0  0
 39 38  2  0  0  0  0
 44 33  1  0  0  0  0
 45 33  1  0  0  0  0
 48 35  1  0  0  0  0
 51 37  1  0  0  0  0
M  END
$$$$
