VNK.pdb
 OpenBabel07022419243D

 53 52  0  0  1  0  0  0  0  0999 V2000
    3.7860   -3.2420   -0.9120 C   0  0  0  0  0  0  0  0  0  0  0  0
    2.8670   -2.6120    0.0880 C   0  0  0  0  0  0  0  0  0  0  0  0
    2.4120   -3.7080    1.0370 C   0  0  0  0  0  0  0  0  0  0  0  0
    3.5690   -1.5390    0.8920 C   0  0  2  0  0  0  0  0  0  0  0  0
    4.6680   -2.1800    1.5760 N   0  0  0  0  0  0  0  0  0  0  0  0
    2.5890   -0.9510    1.8350 C   0  0  0  0  0  0  0  0  0  0  0  0
    2.7230   -1.0530    3.0970 O   0  0  0  0  0  0  0  0  0  0  0  0
    3.2110   -3.9790   -1.5140 H   0  0  0  0  0  0  0  0  0  0  0  0
    4.2110   -2.4530   -1.5450 H   0  0  0  0  0  0  0  0  0  0  0  0
    4.5780   -3.8440   -0.3990 H   0  0  0  0  0  0  0  0  0  0  0  0
    1.9700   -2.2410   -0.4480 H   0  0  0  0  0  0  0  0  0  0  0  0
    2.1400   -4.6350    0.4920 H   0  0  0  0  0  0  0  0  0  0  0  0
    1.5490   -3.3970    1.6410 H   0  0  0  0  0  0  0  0  0  0  0  0
    3.2930   -3.9720    1.6910 H   0  0  0  0  0  0  0  0  0  0  0  0
    3.9360   -0.7690    0.2180 H   0  0  0  0  0  0  0  0  0  0  0  0
    4.7390   -1.9610    2.5740 H   0  0  0  0  0  0  0  0  0  0  0  0
    5.5530   -2.2010    1.0590 H   0  0  0  0  0  0  0  0  0  0  0  0
   -0.9910    2.1250    4.1120 N   0  0  0  0  0  0  0  0  0  0  0  0
   -0.4000    2.6090    2.9180 C   0  0  0  0  0  0  0  0  0  0  0  0
   -0.6700    3.8180    2.6330 O   0  0  0  0  0  0  0  0  0  0  0  0
    0.4610    1.8090    2.0560 C   0  0  0  0  0  0  0  0  0  0  0  0
    0.4920    0.3320    2.3750 C   0  0  2  0  0  0  0  0  0  0  0  0
    1.4420   -0.2380    1.3940 N   0  0  0  0  0  0  0  0  0  0  0  0
   -0.8510   -0.2240    2.0850 C   0  0  0  0  0  0  0  0  0  0  0  0
   -1.8750    0.0870    2.7490 O   0  0  0  0  0  0  0  0  0  0  0  0
   -0.4500    1.4230    4.6870 H   0  0  0  0  0  0  0  0  0  0  0  0
   -1.9340    2.4310    4.4460 H   0  0  0  0  0  0  0  0  0  0  0  0
    0.1500    1.9850    0.9910 H   0  0  0  0  0  0  0  0  0  0  0  0
    1.5010    2.2450    2.0970 H   0  0  0  0  0  0  0  0  0  0  0  0
    0.8250    0.1300    3.3960 H   0  0  0  0  0  0  0  0  0  0  0  0
    1.2780   -0.1130    0.3730 H   0  0  0  0  0  0  0  0  0  0  0  0
   -0.9910   -1.1470    1.0140 N   0  0  0  0  0  0  0  0  0  0  0  0
   -2.2910   -1.7290    0.6750 C   0  0  1  0  0  0  0  0  0  0  0  0
   -2.5520   -1.3930   -0.7800 C   0  0  0  0  0  0  0  0  0  0  0  0
   -2.5820    0.0980   -1.0000 C   0  0  0  0  0  0  0  0  0  0  0  0
   -2.8440    0.3670   -2.4660 C   0  0  0  0  0  0  0  0  0  0  0  0
   -2.8730    1.8720   -2.6720 C   0  0  0  0  0  0  0  0  0  0  0  0
   -3.9490    2.3880   -1.8340 N   0  0  0  0  0  0  0  0  0  0  0  0
   -2.2070   -3.1980    0.7820 C   0  0  0  0  0  0  0  0  0  0  0  0
   -1.1270   -3.7250    1.1260 O   0  0  0  0  0  0  0  0  0  0  0  0
   -3.2810   -4.0400    0.5190 O   0  0  0  0  0  0  0  0  0  0  0  0
   -0.2030   -1.4660    0.4150 H   0  0  0  0  0  0  0  0  0  0  0  0
   -3.0800   -1.3560    1.3310 H   0  0  0  0  0  0  0  0  0  0  0  0
   -1.7510   -1.8110   -1.4190 H   0  0  0  0  0  0  0  0  0  0  0  0
   -3.5110   -1.8340   -1.1330 H   0  0  0  0  0  0  0  0  0  0  0  0
   -3.3730    0.6020   -0.4140 H   0  0  0  0  0  0  0  0  0  0  0  0
   -1.5890    0.5380   -0.7680 H   0  0  0  0  0  0  0  0  0  0  0  0
   -2.0240   -0.0780   -3.0660 H   0  0  0  0  0  0  0  0  0  0  0  0
   -3.8030   -0.1060   -2.7980 H   0  0  0  0  0  0  0  0  0  0  0  0
   -1.9250    2.2610   -2.2950 H   0  0  0  0  0  0  0  0  0  0  0  0
   -3.0490    2.1330   -3.7200 H   0  0  0  0  0  0  0  0  0  0  0  0
   -4.8400    1.9430   -2.0880 H   0  0  0  0  0  0  0  0  0  0  0  0
   -3.9750    3.4160   -1.8130 H   0  0  0  0  0  0  0  0  0  0  0  0
  1 10  1  0  0  0  0
  1  2  1  0  0  0  0
  2  4  1  0  0  0  0
  2  3  1  0  0  0  0
  3 13  1  0  0  0  0
  3 14  1  0  0  0  0
  4 15  1  6  0  0  0
  4  5  1  0  0  0  0
  4  6  1  0  0  0  0
  5 16  1  0  0  0  0
  6  7  2  0  0  0  0
  8  1  1  0  0  0  0
  9  1  1  0  0  0  0
 11  2  1  0  0  0  0
 12  3  1  0  0  0  0
 17  5  1  0  0  0  0
 18 27  1  0  0  0  0
 18 26  1  0  0  0  0
 19 18  1  0  0  0  0
 20 19  2  0  0  0  0
 21 29  1  0  0  0  0
 21 22  1  0  0  0  0
 21 19  1  0  0  0  0
 22 30  1  1  0  0  0
 23  6  1  0  0  0  0
 23 22  1  0  0  0  0
 24 22  1  0  0  0  0
 24 25  2  0  0  0  0
 28 21  1  0  0  0  0
 31 23  1  0  0  0  0
 32 24  1  0  0  0  0
 33 39  1  0  0  0  0
 33 32  1  0  0  0  0
 33 43  1  1  0  0  0
 34 33  1  0  0  0  0
 35 34  1  0  0  0  0
 35 47  1  0  0  0  0
 35 46  1  0  0  0  0
 36 35  1  0  0  0  0
 37 36  1  0  0  0  0
 37 50  1  0  0  0  0
 37 38  1  0  0  0  0
 38 53  1  0  0  0  0
 39 40  1  0  0  0  0
 41 39  2  0  0  0  0
 42 32  1  0  0  0  0
 44 34  1  0  0  0  0
 45 34  1  0  0  0  0
 48 36  1  0  0  0  0
 49 36  1  0  0  0  0
 51 37  1  0  0  0  0
 52 38  1  0  0  0  0
M  END
$$$$
