VNL.pdb
 OpenBabel07022419243D

 51 50  0  0  1  0  0  0  0  0999 V2000
    3.2550   -3.3520    3.2430 C   0  0  0  0  0  0  0  0  0  0  0  0
    3.2880   -1.9940    2.5450 C   0  0  0  0  0  0  0  0  0  0  0  0
    3.9410   -1.0380    3.5240 C   0  0  0  0  0  0  0  0  0  0  0  0
    1.8710   -1.6240    2.2450 C   0  0  2  0  0  0  0  0  0  0  0  0
    1.2950   -2.6370    1.3860 N   0  0  0  0  0  0  0  0  0  0  0  0
    1.7560   -0.2690    1.6290 C   0  0  0  0  0  0  0  0  0  0  0  0
    2.2070    0.7600    2.1810 O   0  0  0  0  0  0  0  0  0  0  0  0
    3.8840   -3.3770    4.1460 H   0  0  0  0  0  0  0  0  0  0  0  0
    2.2300   -3.6230    3.5590 H   0  0  0  0  0  0  0  0  0  0  0  0
    3.5740   -4.1020    2.4820 H   0  0  0  0  0  0  0  0  0  0  0  0
    3.8510   -2.0260    1.6030 H   0  0  0  0  0  0  0  0  0  0  0  0
    4.2730   -0.1060    3.0440 H   0  0  0  0  0  0  0  0  0  0  0  0
    4.8560   -1.5330    3.9220 H   0  0  0  0  0  0  0  0  0  0  0  0
    3.2760   -0.8840    4.3860 H   0  0  0  0  0  0  0  0  0  0  0  0
    1.2940   -1.6840    3.2130 H   0  0  0  0  0  0  0  0  0  0  0  0
    1.7990   -3.5270    1.5680 H   0  0  0  0  0  0  0  0  0  0  0  0
    0.2880   -2.7690    1.5920 H   0  0  0  0  0  0  0  0  0  0  0  0
    3.6940    0.4750   -0.5740 N   0  0  0  0  0  0  0  0  0  0  0  0
    2.9090    0.6860   -1.7260 C   0  0  0  0  0  0  0  0  0  0  0  0
    3.4810    0.5690   -2.8530 O   0  0  0  0  0  0  0  0  0  0  0  0
    1.4730    1.0320   -1.7240 C   0  0  0  0  0  0  0  0  0  0  0  0
    0.9520    1.1210   -0.3020 C   0  0  2  0  0  0  0  0  0  0  0  0
    1.1160   -0.1440    0.3820 N   0  0  0  0  0  0  0  0  0  0  0  0
   -0.5120    1.4400   -0.3000 C   0  0  0  0  0  0  0  0  0  0  0  0
   -0.9140    2.4810   -0.8350 O   0  0  0  0  0  0  0  0  0  0  0  0
    3.9000    1.2640    0.0540 H   0  0  0  0  0  0  0  0  0  0  0  0
    4.0590   -0.4640   -0.3600 H   0  0  0  0  0  0  0  0  0  0  0  0
    0.9360    0.2280   -2.2530 H   0  0  0  0  0  0  0  0  0  0  0  0
    1.3280    1.9890   -2.2550 H   0  0  0  0  0  0  0  0  0  0  0  0
    1.4490    1.9160    0.2810 H   0  0  0  0  0  0  0  0  0  0  0  0
    0.7230   -1.0000   -0.1070 H   0  0  0  0  0  0  0  0  0  0  0  0
   -2.3550   -1.9240   -0.7950 C   0  0  0  0  0  0  0  0  0  0  0  0
   -3.7370   -1.3680   -0.5850 C   0  0  0  0  0  0  0  0  0  0  0  0
   -4.6450   -1.9780   -1.6610 C   0  0  0  0  0  0  0  0  0  0  0  0
   -3.7180    0.1120   -0.6640 C   0  0  0  0  0  0  0  0  0  0  0  0
   -2.8920    0.8560    0.3240 C   0  0  2  0  0  0  0  0  0  0  0  0
   -1.4820    0.5640    0.3120 N   0  0  0  0  0  0  0  0  0  0  0  0
   -3.4590    0.8820    1.6780 C   0  0  0  0  0  0  0  0  0  0  0  0
   -2.7600    0.6710    2.6930 O   0  0  0  0  0  0  0  0  0  0  0  0
   -4.8030    1.1470    1.8430 O   0  0  0  0  0  0  0  0  0  0  0  0
   -2.4550   -2.7690   -1.5480 H   0  0  0  0  0  0  0  0  0  0  0  0
   -1.9380   -2.3620    0.1460 H   0  0  0  0  0  0  0  0  0  0  0  0
   -1.7190   -1.1930   -1.2920 H   0  0  0  0  0  0  0  0  0  0  0  0
   -4.1860   -1.7430    0.3750 H   0  0  0  0  0  0  0  0  0  0  0  0
   -4.1360   -2.0070   -2.6510 H   0  0  0  0  0  0  0  0  0  0  0  0
   -5.6320   -1.4720   -1.6920 H   0  0  0  0  0  0  0  0  0  0  0  0
   -4.8530   -3.0310   -1.3370 H   0  0  0  0  0  0  0  0  0  0  0  0
   -4.7990    0.4480   -0.6470 H   0  0  0  0  0  0  0  0  0  0  0  0
   -3.3720    0.4690   -1.6820 H   0  0  0  0  0  0  0  0  0  0  0  0
   -2.9530    1.9460   -0.0340 H   0  0  0  0  0  0  0  0  0  0  0  0
   -1.0410   -0.2880    0.7550 H   0  0  0  0  0  0  0  0  0  0  0  0
  1  9  1  0  0  0  0
  1  8  1  0  0  0  0
  2  1  1  0  0  0  0
  2  3  1  0  0  0  0
  3 13  1  0  0  0  0
  3 14  1  0  0  0  0
  4  2  1  0  0  0  0
  4 15  1  1  0  0  0
  5 16  1  0  0  0  0
  5 17  1  0  0  0  0
  5  4  1  0  0  0  0
  6  7  2  0  0  0  0
  6  4  1  0  0  0  0
 10  1  1  0  0  0  0
 11  2  1  0  0  0  0
 12  3  1  0  0  0  0
 18 27  1  0  0  0  0
 18 26  1  0  0  0  0
 19 21  1  0  0  0  0
 19 18  1  0  0  0  0
 20 19  2  0  0  0  0
 21 22  1  0  0  0  0
 22 24  1  0  0  0  0
 22 30  1  1  0  0  0
 22 23  1  0  0  0  0
 23  6  1  0  0  0  0
 24 37  1  0  0  0  0
 25 24  2  0  0  0  0
 28 21  1  0  0  0  0
 29 21  1  0  0  0  0
 31 23  1  0  0  0  0
 32 33  1  0  0  0  0
 32 42  1  0  0  0  0
 33 44  1  0  0  0  0
 34 47  1  0  0  0  0
 34 33  1  0  0  0  0
 35 48  1  0  0  0  0
 35 33  1  0  0  0  0
 35 36  1  0  0  0  0
 36 50  1  6  0  0  0
 36 38  1  0  0  0  0
 37 36  1  0  0  0  0
 37 51  1  0  0  0  0
 38 40  2  0  0  0  0
 38 39  1  0  0  0  0
 41 32  1  0  0  0  0
 43 32  1  0  0  0  0
 45 34  1  0  0  0  0
 46 34  1  0  0  0  0
 49 35  1  0  0  0  0
M  END
$$$$
