VNM.pdb
 OpenBabel07022419243D

 49 48  0  0  1  0  0  0  0  0999 V2000
    3.1280   -4.3840   -0.9380 C   0  0  0  0  0  0  0  0  0  0  0  0
    2.8930   -3.1870   -0.0550 C   0  0  0  0  0  0  0  0  0  0  0  0
    3.2300   -3.5910    1.3690 C   0  0  0  0  0  0  0  0  0  0  0  0
    1.4600   -2.7310   -0.0720 C   0  0  2  0  0  0  0  0  0  0  0  0
    0.9970   -2.3490   -1.3870 N   0  0  0  0  0  0  0  0  0  0  0  0
    1.3390   -1.5300    0.8010 C   0  0  0  0  0  0  0  0  0  0  0  0
    1.6910   -1.5940    2.0130 O   0  0  0  0  0  0  0  0  0  0  0  0
    3.6510   -5.1730   -0.3840 H   0  0  0  0  0  0  0  0  0  0  0  0
    2.1630   -4.7420   -1.3500 H   0  0  0  0  0  0  0  0  0  0  0  0
    3.7960   -4.1270   -1.8080 H   0  0  0  0  0  0  0  0  0  0  0  0
    3.6040   -2.3650   -0.3070 H   0  0  0  0  0  0  0  0  0  0  0  0
    3.9190   -4.4650    1.3780 H   0  0  0  0  0  0  0  0  0  0  0  0
    3.7160   -2.7580    1.9320 H   0  0  0  0  0  0  0  0  0  0  0  0
    2.2960   -3.8430    1.9110 H   0  0  0  0  0  0  0  0  0  0  0  0
    0.8390   -3.5710    0.2860 H   0  0  0  0  0  0  0  0  0  0  0  0
    1.3920   -2.9270   -2.1470 H   0  0  0  0  0  0  0  0  0  0  0  0
   -0.0440   -2.3210   -1.3740 H   0  0  0  0  0  0  0  0  0  0  0  0
    3.5570    0.6230    0.9690 N   0  0  0  0  0  0  0  0  0  0  0  0
    2.9660    1.8250    0.5390 C   0  0  0  0  0  0  0  0  0  0  0  0
    3.7120    2.7370    0.1080 O   0  0  0  0  0  0  0  0  0  0  0  0
    1.5380    2.0470    0.5750 C   0  0  0  0  0  0  0  0  0  0  0  0
    0.6920    0.9050    1.1110 C   0  0  2  0  0  0  0  0  0  0  0  0
    0.8410   -0.2910    0.3420 N   0  0  0  0  0  0  0  0  0  0  0  0
   -0.7420    1.3460    1.0170 C   0  0  0  0  0  0  0  0  0  0  0  0
   -1.0910    2.4640    1.5020 O   0  0  0  0  0  0  0  0  0  0  0  0
    3.5790    0.4120    1.9910 H   0  0  0  0  0  0  0  0  0  0  0  0
    3.9800   -0.0820    0.3200 H   0  0  0  0  0  0  0  0  0  0  0  0
    1.1070    2.3240   -0.4210 H   0  0  0  0  0  0  0  0  0  0  0  0
    1.3170    2.9220    1.2410 H   0  0  0  0  0  0  0  0  0  0  0  0
    0.9240    0.7730    2.1760 H   0  0  0  0  0  0  0  0  0  0  0  0
    0.5530   -0.2360   -0.6780 H   0  0  0  0  0  0  0  0  0  0  0  0
   -1.9560   -1.2160    2.7510 C   0  0  0  0  0  0  0  0  0  0  0  0
   -2.6030    0.3460    3.3930 S   0  0  0  0  0  0  0  0  0  0  0  0
   -4.0140    0.9510    2.5140 C   0  0  0  0  0  0  0  0  0  0  0  0
   -3.7950    1.5740    1.2030 C   0  0  0  0  0  0  0  0  0  0  0  0
   -3.0710    0.8070    0.1850 C   0  0  2  0  0  0  0  0  0  0  0  0
   -1.6890    0.5160    0.3830 N   0  0  0  0  0  0  0  0  0  0  0  0
   -3.3980    1.2480   -1.1740 C   0  0  0  0  0  0  0  0  0  0  0  0
   -4.5780    1.5280   -1.4630 O   0  0  0  0  0  0  0  0  0  0  0  0
   -2.4230    1.3580   -2.1380 O   0  0  0  0  0  0  0  0  0  0  0  0
   -2.5600   -1.6060    1.9240 H   0  0  0  0  0  0  0  0  0  0  0  0
   -2.0280   -1.9610    3.5910 H   0  0  0  0  0  0  0  0  0  0  0  0
   -0.9080   -1.1390    2.4760 H   0  0  0  0  0  0  0  0  0  0  0  0
   -4.8380    0.1470    2.4500 H   0  0  0  0  0  0  0  0  0  0  0  0
   -4.5260    1.7210    3.2150 H   0  0  0  0  0  0  0  0  0  0  0  0
   -4.8300    1.7860    0.7570 H   0  0  0  0  0  0  0  0  0  0  0  0
   -3.3580    2.6240    1.3040 H   0  0  0  0  0  0  0  0  0  0  0  0
   -3.5820   -0.2520    0.2510 H   0  0  0  0  0  0  0  0  0  0  0  0
   -1.3250   -0.4130    0.0220 H   0  0  0  0  0  0  0  0  0  0  0  0
  1  8  1  0  0  0  0
  1  2  1  0  0  0  0
  2  3  1  0  0  0  0
  3 12  1  0  0  0  0
  3 14  1  0  0  0  0
  3 13  1  0  0  0  0
  4  2  1  0  0  0  0
  4 15  1  1  0  0  0
  4  6  1  0  0  0  0
  5 17  1  0  0  0  0
  5  4  1  0  0  0  0
  6  7  2  0  0  0  0
  9  1  1  0  0  0  0
 10  1  1  0  0  0  0
 11  2  1  0  0  0  0
 16  5  1  0  0  0  0
 18 26  1  0  0  0  0
 19 21  1  0  0  0  0
 19 18  1  0  0  0  0
 20 19  2  0  0  0  0
 21 22  1  0  0  0  0
 21 29  1  0  0  0  0
 22 30  1  1  0  0  0
 23  6  1  0  0  0  0
 23 22  1  0  0  0  0
 24 22  1  0  0  0  0
 24 25  2  0  0  0  0
 27 18  1  0  0  0  0
 28 21  1  0  0  0  0
 31 23  1  0  0  0  0
 32 33  1  0  0  0  0
 32 42  1  0  0  0  0
 34 45  1  0  0  0  0
 34 33  1  0  0  0  0
 35 47  1  0  0  0  0
 35 34  1  0  0  0  0
 36 48  1  1  0  0  0
 36 37  1  0  0  0  0
 36 35  1  0  0  0  0
 37 24  1  0  0  0  0
 38 36  1  0  0  0  0
 39 38  1  0  0  0  0
 40 38  2  0  0  0  0
 41 32  1  0  0  0  0
 43 32  1  0  0  0  0
 44 34  1  0  0  0  0
 46 35  1  0  0  0  0
 49 37  1  0  0  0  0
M  END
$$$$
