VNN.pdb
 OpenBabel07022419243D

 46 45  0  0  1  0  0  0  0  0999 V2000
    2.7060   -2.7990   -1.6230 C   0  0  0  0  0  0  0  0  0  0  0  0
    1.7660   -3.5070   -0.6440 C   0  0  0  0  0  0  0  0  0  0  0  0
    1.2030   -4.7180   -1.3610 C   0  0  0  0  0  0  0  0  0  0  0  0
    0.6920   -2.5810   -0.1780 C   0  0  2  0  0  0  0  0  0  0  0  0
   -0.1430   -2.0640   -1.2370 N   0  0  0  0  0  0  0  0  0  0  0  0
    1.2570   -1.4350    0.6100 C   0  0  0  0  0  0  0  0  0  0  0  0
    2.1150   -1.6590    1.4950 O   0  0  0  0  0  0  0  0  0  0  0  0
    3.6380   -3.4270   -1.6600 H   0  0  0  0  0  0  0  0  0  0  0  0
    2.2600   -2.7830   -2.6350 H   0  0  0  0  0  0  0  0  0  0  0  0
    3.0040   -1.7900   -1.2580 H   0  0  0  0  0  0  0  0  0  0  0  0
    2.3900   -3.8650    0.1860 H   0  0  0  0  0  0  0  0  0  0  0  0
    0.7880   -5.4720   -0.6770 H   0  0  0  0  0  0  0  0  0  0  0  0
    2.0100   -5.2320   -1.9480 H   0  0  0  0  0  0  0  0  0  0  0  0
    0.4290   -4.4560   -2.1040 H   0  0  0  0  0  0  0  0  0  0  0  0
   -0.0010   -3.1440    0.5080 H   0  0  0  0  0  0  0  0  0  0  0  0
   -1.0260   -2.6060   -1.3050 H   0  0  0  0  0  0  0  0  0  0  0  0
    0.3160   -2.1510   -2.1760 H   0  0  0  0  0  0  0  0  0  0  0  0
    2.8470    3.1170   -1.7410 N   0  0  0  0  0  0  0  0  0  0  0  0
    2.5310    2.0650   -0.8660 C   0  0  0  0  0  0  0  0  0  0  0  0
    3.0870    0.9320   -1.0020 O   0  0  0  0  0  0  0  0  0  0  0  0
    1.5530    2.2510    0.2260 C   0  0  0  0  0  0  0  0  0  0  0  0
    1.3260    1.0530    1.0820 C   0  0  2  0  0  0  0  0  0  0  0  0
    0.8250   -0.0960    0.3620 N   0  0  0  0  0  0  0  0  0  0  0  0
    0.2990    1.4720    2.1120 C   0  0  0  0  0  0  0  0  0  0  0  0
    0.5100    2.4970    2.8370 O   0  0  0  0  0  0  0  0  0  0  0  0
    2.7390    2.9970   -2.7780 H   0  0  0  0  0  0  0  0  0  0  0  0
    3.1970    4.0450   -1.3780 H   0  0  0  0  0  0  0  0  0  0  0  0
    0.5820    2.6730   -0.1640 H   0  0  0  0  0  0  0  0  0  0  0  0
    1.9600    3.0750    0.8770 H   0  0  0  0  0  0  0  0  0  0  0  0
    2.2220    0.8060    1.6890 H   0  0  0  0  0  0  0  0  0  0  0  0
    0.0960    0.0340   -0.3970 H   0  0  0  0  0  0  0  0  0  0  0  0
   -4.2520   -1.0180    3.0850 N   0  0  0  0  0  0  0  0  0  0  0  0
   -3.8510    0.0830    2.2950 C   0  0  0  0  0  0  0  0  0  0  0  0
   -3.9910    0.0040    1.0510 O   0  0  0  0  0  0  0  0  0  0  0  0
   -3.2720    1.3270    2.8370 C   0  0  0  0  0  0  0  0  0  0  0  0
   -1.8620    1.1880    3.3010 C   0  0  2  0  0  0  0  0  0  0  0  0
   -0.9100    0.7860    2.3310 N   0  0  0  0  0  0  0  0  0  0  0  0
   -1.8100    0.3480    4.5440 C   0  0  0  0  0  0  0  0  0  0  0  0
   -2.6350    0.6210    5.4330 O   0  0  0  0  0  0  0  0  0  0  0  0
   -0.9210   -0.6670    4.7240 O   0  0  0  0  0  0  0  0  0  0  0  0
   -5.1890   -1.2440    3.4240 H   0  0  0  0  0  0  0  0  0  0  0  0
   -3.4780   -1.6990    3.3630 H   0  0  0  0  0  0  0  0  0  0  0  0
   -3.3170    2.1370    2.0840 H   0  0  0  0  0  0  0  0  0  0  0  0
   -3.9090    1.6350    3.7030 H   0  0  0  0  0  0  0  0  0  0  0  0
   -1.5430    2.2000    3.6850 H   0  0  0  0  0  0  0  0  0  0  0  0
   -1.1100   -0.0640    1.7430 H   0  0  0  0  0  0  0  0  0  0  0  0
  1 10  1  0  0  0  0
  1  2  1  0  0  0  0
  2  4  1  0  0  0  0
  2 11  1  0  0  0  0
  3 12  1  0  0  0  0
  3  2  1  0  0  0  0
  4 15  1  1  0  0  0
  4  6  1  0  0  0  0
  5  4  1  0  0  0  0
  6  7  2  0  0  0  0
  8  1  1  0  0  0  0
  9  1  1  0  0  0  0
 13  3  1  0  0  0  0
 14  3  1  0  0  0  0
 16  5  1  0  0  0  0
 17  5  1  0  0  0  0
 18 27  1  0  0  0  0
 18 19  1  0  0  0  0
 19 21  1  0  0  0  0
 20 19  2  0  0  0  0
 21 29  1  0  0  0  0
 21 22  1  0  0  0  0
 22 30  1  1  0  0  0
 22 24  1  0  0  0  0
 23  6  1  0  0  0  0
 23 22  1  0  0  0  0
 24 37  1  0  0  0  0
 24 25  2  0  0  0  0
 26 18  1  0  0  0  0
 28 21  1  0  0  0  0
 31 23  1  0  0  0  0
 32 42  1  0  0  0  0
 32 41  1  0  0  0  0
 33 35  1  0  0  0  0
 33 32  1  0  0  0  0
 34 33  2  0  0  0  0
 35 36  1  0  0  0  0
 35 44  1  0  0  0  0
 36 45  1  1  0  0  0
 36 38  1  0  0  0  0
 37 36  1  0  0  0  0
 38 40  2  0  0  0  0
 38 39  1  0  0  0  0
 43 35  1  0  0  0  0
 46 37  1  0  0  0  0
M  END
$$$$
