VNP.pdb
 OpenBabel07022419243D

 46 46  0  0  1  0  0  0  0  0999 V2000
    1.9850   -5.1090   -0.3670 C   0  0  0  0  0  0  0  0  0  0  0  0
    2.3090   -3.8270    0.4000 C   0  0  0  0  0  0  0  0  0  0  0  0
    2.6340   -4.1960    1.8030 C   0  0  0  0  0  0  0  0  0  0  0  0
    1.0960   -2.9370    0.2760 C   0  0  2  0  0  0  0  0  0  0  0  0
    0.8200   -2.6380   -1.1140 N   0  0  0  0  0  0  0  0  0  0  0  0
    1.1940   -1.7090    1.0640 C   0  0  0  0  0  0  0  0  0  0  0  0
    1.4620   -1.7570    2.3060 O   0  0  0  0  0  0  0  0  0  0  0  0
    2.5620   -5.9560    0.0970 H   0  0  0  0  0  0  0  0  0  0  0  0
    0.9160   -5.3060   -0.2420 H   0  0  0  0  0  0  0  0  0  0  0  0
    2.2980   -4.9620   -1.4250 H   0  0  0  0  0  0  0  0  0  0  0  0
    3.1990   -3.3490   -0.0560 H   0  0  0  0  0  0  0  0  0  0  0  0
    3.4320   -3.5830    2.2680 H   0  0  0  0  0  0  0  0  0  0  0  0
    1.7670   -4.1640    2.4930 H   0  0  0  0  0  0  0  0  0  0  0  0
    3.0040   -5.2440    1.8240 H   0  0  0  0  0  0  0  0  0  0  0  0
    0.2070   -3.5140    0.6460 H   0  0  0  0  0  0  0  0  0  0  0  0
    1.5690   -1.9930   -1.4480 H   0  0  0  0  0  0  0  0  0  0  0  0
   -0.0890   -2.1310   -1.1610 H   0  0  0  0  0  0  0  0  0  0  0  0
    2.6230    3.2200   -1.2100 N   0  0  0  0  0  0  0  0  0  0  0  0
    1.7840    2.2830   -0.5510 C   0  0  0  0  0  0  0  0  0  0  0  0
    0.7470    1.8840   -1.1320 O   0  0  0  0  0  0  0  0  0  0  0  0
    2.1080    1.7810    0.7820 C   0  0  0  0  0  0  0  0  0  0  0  0
    1.1120    0.7700    1.3230 C   0  0  2  0  0  0  0  0  0  0  0  0
    1.0030   -0.3880    0.5160 N   0  0  0  0  0  0  0  0  0  0  0  0
   -0.0840    1.4710    1.7390 C   0  0  0  0  0  0  0  0  0  0  0  0
    0.1180    2.5820    2.3600 O   0  0  0  0  0  0  0  0  0  0  0  0
    3.6390    3.3400   -0.9970 H   0  0  0  0  0  0  0  0  0  0  0  0
    2.2230    3.8340   -1.9520 H   0  0  0  0  0  0  0  0  0  0  0  0
    3.1050    1.3060    0.8540 H   0  0  0  0  0  0  0  0  0  0  0  0
    2.1130    2.6250    1.5060 H   0  0  0  0  0  0  0  0  0  0  0  0
    1.6030    0.4440    2.3230 H   0  0  0  0  0  0  0  0  0  0  0  0
    0.8050   -0.3490   -0.5210 H   0  0  0  0  0  0  0  0  0  0  0  0
   -1.4040    1.0840    1.5490 N   0  0  0  0  0  0  0  0  0  0  0  0
   -1.9340   -0.0850    0.9220 C   0  0  0  0  0  0  0  0  0  0  0  0
   -3.2410    0.3650    0.2840 C   0  0  0  0  0  0  0  0  0  0  0  0
   -3.5250    1.7300    0.8170 C   0  0  0  0  0  0  0  0  0  0  0  0
   -2.6000    1.8420    1.9910 C   0  0  1  0  0  0  0  0  0  0  0  0
   -3.2390    1.1920    3.1560 C   0  0  0  0  0  0  0  0  0  0  0  0
   -2.8350    0.1480    3.7110 O   0  0  0  0  0  0  0  0  0  0  0  0
   -4.3770    1.8050    3.6600 O   0  0  0  0  0  0  0  0  0  0  0  0
   -2.1980   -0.8500    1.7020 H   0  0  0  0  0  0  0  0  0  0  0  0
   -1.3210   -0.5990    0.1980 H   0  0  0  0  0  0  0  0  0  0  0  0
   -3.0960    0.4390   -0.8110 H   0  0  0  0  0  0  0  0  0  0  0  0
   -4.0250   -0.3710    0.4700 H   0  0  0  0  0  0  0  0  0  0  0  0
   -3.2670    2.5440    0.1090 H   0  0  0  0  0  0  0  0  0  0  0  0
   -4.5850    1.8300    1.1450 H   0  0  0  0  0  0  0  0  0  0  0  0
   -2.3320    2.8830    2.1930 H   0  0  0  0  0  0  0  0  0  0  0  0
  1  9  1  0  0  0  0
  1  8  1  0  0  0  0
  1  2  1  0  0  0  0
  2  3  1  0  0  0  0
  3 14  1  0  0  0  0
  3 12  1  0  0  0  0
  3 13  1  0  0  0  0
  4  2  1  0  0  0  0
  4 15  1  1  0  0  0
  4  6  1  0  0  0  0
  5  4  1  0  0  0  0
  6  7  2  0  0  0  0
 10  1  1  0  0  0  0
 11  2  1  0  0  0  0
 16  5  1  0  0  0  0
 17  5  1  0  0  0  0
 18 26  1  0  0  0  0
 18 19  1  0  0  0  0
 19 21  1  0  0  0  0
 20 19  2  0  0  0  0
 21 28  1  0  0  0  0
 21 22  1  0  0  0  0
 21 29  1  0  0  0  0
 22 24  1  0  0  0  0
 22 30  1  1  0  0  0
 23  6  1  0  0  0  0
 23 22  1  0  0  0  0
 24 25  2  0  0  0  0
 27 18  1  0  0  0  0
 31 23  1  0  0  0  0
 32 24  1  0  0  0  0
 32 36  1  0  0  0  0
 33 32  1  0  0  0  0
 33 40  1  0  0  0  0
 34 43  1  0  0  0  0
 34 35  1  0  0  0  0
 34 33  1  0  0  0  0
 35 45  1  0  0  0  0
 35 36  1  0  0  0  0
 36 46  1  1  0  0  0
 36 37  1  0  0  0  0
 37 39  2  0  0  0  0
 37 38  1  0  0  0  0
 41 33  1  0  0  0  0
 42 34  1  0  0  0  0
 44 35  1  0  0  0  0
M  END
$$$$
