VNQ.pdb
 OpenBabel07022419243D

 49 48  0  0  1  0  0  0  0  0999 V2000
    3.5050   -3.7280   -0.7690 C   0  0  0  0  0  0  0  0  0  0  0  0
    3.0910   -2.3030   -0.5460 C   0  0  0  0  0  0  0  0  0  0  0  0
    1.8370   -2.0600   -1.3700 C   0  0  0  0  0  0  0  0  0  0  0  0
    2.8070   -2.1460    0.9330 C   0  0  2  0  0  0  0  0  0  0  0  0
    1.7550   -3.0140    1.3850 N   0  0  0  0  0  0  0  0  0  0  0  0
    2.3730   -0.7280    1.2350 C   0  0  0  0  0  0  0  0  0  0  0  0
    3.2150    0.1370    0.9100 O   0  0  0  0  0  0  0  0  0  0  0  0
    2.9890   -4.1530   -1.6340 H   0  0  0  0  0  0  0  0  0  0  0  0
    4.6190   -3.8130   -0.9150 H   0  0  0  0  0  0  0  0  0  0  0  0
    3.2510   -4.3810    0.1000 H   0  0  0  0  0  0  0  0  0  0  0  0
    3.8570   -1.5790   -0.8280 H   0  0  0  0  0  0  0  0  0  0  0  0
    1.2080   -2.9860   -1.4160 H   0  0  0  0  0  0  0  0  0  0  0  0
    2.1760   -1.8960   -2.4180 H   0  0  0  0  0  0  0  0  0  0  0  0
    1.2750   -1.1660   -1.0510 H   0  0  0  0  0  0  0  0  0  0  0  0
    3.7350   -2.4020    1.4680 H   0  0  0  0  0  0  0  0  0  0  0  0
    1.0910   -3.2910    0.6280 H   0  0  0  0  0  0  0  0  0  0  0  0
    2.0930   -3.8150    1.9580 H   0  0  0  0  0  0  0  0  0  0  0  0
    3.5540    3.1040    2.0470 N   0  0  0  0  0  0  0  0  0  0  0  0
    2.6200    2.1440    2.5160 C   0  0  0  0  0  0  0  0  0  0  0  0
    2.9430    1.4140    3.5010 O   0  0  0  0  0  0  0  0  0  0  0  0
    1.3240    2.0630    1.8170 C   0  0  0  0  0  0  0  0  0  0  0  0
    0.5810    0.8030    2.1960 C   0  0  2  0  0  0  0  0  0  0  0  0
    1.1360   -0.4370    1.8250 N   0  0  0  0  0  0  0  0  0  0  0  0
   -0.8450    1.0020    2.0740 C   0  0  0  0  0  0  0  0  0  0  0  0
   -1.3040    2.1320    2.4510 O   0  0  0  0  0  0  0  0  0  0  0  0
    4.5950    2.9740    2.0760 H   0  0  0  0  0  0  0  0  0  0  0  0
    3.2580    4.0290    1.6280 H   0  0  0  0  0  0  0  0  0  0  0  0
    1.4090    2.2050    0.7260 H   0  0  0  0  0  0  0  0  0  0  0  0
    0.6900    2.9080    2.1820 H   0  0  0  0  0  0  0  0  0  0  0  0
    0.8030    0.8410    3.3540 H   0  0  0  0  0  0  0  0  0  0  0  0
    0.5430   -1.3330    2.0090 H   0  0  0  0  0  0  0  0  0  0  0  0
   -1.9110   -1.5850   -2.3590 N   0  0  0  0  0  0  0  0  0  0  0  0
   -2.1830   -0.5110   -1.4680 C   0  0  0  0  0  0  0  0  0  0  0  0
   -1.2300    0.2150   -1.1050 O   0  0  0  0  0  0  0  0  0  0  0  0
   -3.5410   -0.2830   -1.0080 C   0  0  0  0  0  0  0  0  0  0  0  0
   -3.7590    0.6320    0.1290 C   0  0  0  0  0  0  0  0  0  0  0  0
   -3.1910    0.2710    1.4550 C   0  0  2  0  0  0  0  0  0  0  0  0
   -1.7970    0.0830    1.5810 N   0  0  0  0  0  0  0  0  0  0  0  0
   -3.9570   -0.8710    2.0080 C   0  0  0  0  0  0  0  0  0  0  0  0
   -3.4240   -1.8820    2.5340 O   0  0  0  0  0  0  0  0  0  0  0  0
   -5.3650   -0.8910    1.9740 O   0  0  0  0  0  0  0  0  0  0  0  0
   -2.4460   -2.4840   -2.3770 H   0  0  0  0  0  0  0  0  0  0  0  0
   -1.1300   -1.5210   -3.0680 H   0  0  0  0  0  0  0  0  0  0  0  0
   -4.2080    0.0930   -1.8460 H   0  0  0  0  0  0  0  0  0  0  0  0
   -3.9930   -1.3030   -0.7990 H   0  0  0  0  0  0  0  0  0  0  0  0
   -3.5600    1.7130   -0.1440 H   0  0  0  0  0  0  0  0  0  0  0  0
   -4.8850    0.6460    0.2900 H   0  0  0  0  0  0  0  0  0  0  0  0
   -3.4420    1.1640    2.1140 H   0  0  0  0  0  0  0  0  0  0  0  0
   -1.4140   -0.8580    1.2950 H   0  0  0  0  0  0  0  0  0  0  0  0
  1  2  1  0  0  0  0
  1 10  1  0  0  0  0
  2  4  1  0  0  0  0
  3 14  1  0  0  0  0
  3  2  1  0  0  0  0
  4  6  1  0  0  0  0
  4  5  1  0  0  0  0
  4 15  1  1  0  0  0
  5 17  1  0  0  0  0
  6 23  1  0  0  0  0
  7  6  2  0  0  0  0
  8  1  1  0  0  0  0
  9  1  1  0  0  0  0
 11  2  1  0  0  0  0
 12  3  1  0  0  0  0
 13  3  1  0  0  0  0
 16  5  1  0  0  0  0
 18 26  1  0  0  0  0
 18 19  1  0  0  0  0
 19 20  2  0  0  0  0
 21 29  1  0  0  0  0
 21 22  1  0  0  0  0
 21 19  1  0  0  0  0
 22 30  1  1  0  0  0
 23 31  1  0  0  0  0
 23 22  1  0  0  0  0
 24 22  1  0  0  0  0
 24 25  2  0  0  0  0
 27 18  1  0  0  0  0
 28 21  1  0  0  0  0
 32 33  1  0  0  0  0
 33 34  2  0  0  0  0
 33 35  1  0  0  0  0
 35 45  1  0  0  0  0
 35 36  1  0  0  0  0
 36 47  1  0  0  0  0
 36 37  1  0  0  0  0
 37 38  1  0  0  0  0
 37 39  1  0  0  0  0
 37 48  1  1  0  0  0
 38 24  1  0  0  0  0
 39 40  1  0  0  0  0
 41 39  2  0  0  0  0
 42 32  1  0  0  0  0
 43 32  1  0  0  0  0
 44 35  1  0  0  0  0
 46 36  1  0  0  0  0
 49 38  1  0  0  0  0
M  END
$$$$
