VNR.pdb
 OpenBabel07022419243D

 55 54  0  0  1  0  0  0  0  0999 V2000
    4.5420   -1.2870    2.9110 C   0  0  0  0  0  0  0  0  0  0  0  0
    4.3050   -2.4340    1.9770 C   0  0  0  0  0  0  0  0  0  0  0  0
    4.2340   -3.7360    2.7610 C   0  0  0  0  0  0  0  0  0  0  0  0
    3.1080   -2.2520    1.0950 C   0  0  2  0  0  0  0  0  0  0  0  0
    3.2760   -1.0750    0.2930 N   0  0  0  0  0  0  0  0  0  0  0  0
    1.8200   -2.2790    1.8380 C   0  0  0  0  0  0  0  0  0  0  0  0
    1.5580   -3.2690    2.5590 O   0  0  0  0  0  0  0  0  0  0  0  0
    5.5730   -1.2850    3.2980 H   0  0  0  0  0  0  0  0  0  0  0  0
    3.8720   -1.4240    3.7980 H   0  0  0  0  0  0  0  0  0  0  0  0
    4.3190   -0.3060    2.4970 H   0  0  0  0  0  0  0  0  0  0  0  0
    5.1890   -2.5150    1.3120 H   0  0  0  0  0  0  0  0  0  0  0  0
    3.7440   -4.5300    2.1870 H   0  0  0  0  0  0  0  0  0  0  0  0
    3.7560   -3.5690    3.7620 H   0  0  0  0  0  0  0  0  0  0  0  0
    5.2810   -4.0430    2.9640 H   0  0  0  0  0  0  0  0  0  0  0  0
    3.1110   -3.1260    0.3780 H   0  0  0  0  0  0  0  0  0  0  0  0
    2.8640   -1.1600   -0.6720 H   0  0  0  0  0  0  0  0  0  0  0  0
    2.9300   -0.2030    0.7010 H   0  0  0  0  0  0  0  0  0  0  0  0
   -2.1320    0.7150    5.1800 N   0  0  0  0  0  0  0  0  0  0  0  0
   -1.7540   -0.3780    4.3110 C   0  0  0  0  0  0  0  0  0  0  0  0
   -2.5150   -1.3620    4.3480 O   0  0  0  0  0  0  0  0  0  0  0  0
   -0.5480   -0.2360    3.4890 C   0  0  0  0  0  0  0  0  0  0  0  0
   -0.3820   -1.3940    2.5670 C   0  0  2  0  0  0  0  0  0  0  0  0
    0.8620   -1.2520    1.7830 N   0  0  0  0  0  0  0  0  0  0  0  0
   -1.5090   -1.3910    1.5630 C   0  0  0  0  0  0  0  0  0  0  0  0
   -2.7140   -1.5220    1.8560 O   0  0  0  0  0  0  0  0  0  0  0  0
   -3.1230    0.9540    5.3920 H   0  0  0  0  0  0  0  0  0  0  0  0
   -1.3940    1.3000    5.6220 H   0  0  0  0  0  0  0  0  0  0  0  0
   -0.6050    0.7400    2.9150 H   0  0  0  0  0  0  0  0  0  0  0  0
    0.3410   -0.1290    4.1540 H   0  0  0  0  0  0  0  0  0  0  0  0
   -0.4300   -2.3340    3.1180 H   0  0  0  0  0  0  0  0  0  0  0  0
    0.9730   -0.3970    1.2290 H   0  0  0  0  0  0  0  0  0  0  0  0
   -0.1610    1.9890   -3.8570 N   0  0  0  0  0  0  0  0  0  0  0  0
   -1.4230    2.3100   -3.3030 C   0  0  0  0  0  0  0  0  0  0  0  0
   -1.4720    3.0070   -2.2120 N   0  0  0  0  0  0  0  0  0  0  0  0
   -2.6020    1.8640   -3.9550 N   0  0  0  0  0  0  0  0  0  0  0  0
   -3.7250    1.3960   -3.2200 C   0  0  0  0  0  0  0  0  0  0  0  0
   -3.5330    0.0690   -2.5110 C   0  0  0  0  0  0  0  0  0  0  0  0
   -2.4200    0.0890   -1.5200 C   0  0  0  0  0  0  0  0  0  0  0  0
   -2.3260   -1.2240   -0.8040 C   0  0  2  0  0  0  0  0  0  0  0  0
   -1.2570   -1.2300    0.1760 N   0  0  0  0  0  0  0  0  0  0  0  0
   -2.0750   -2.3430   -1.7170 C   0  0  0  0  0  0  0  0  0  0  0  0
   -2.8950   -2.6510   -2.6050 O   0  0  0  0  0  0  0  0  0  0  0  0
   -0.9000   -3.0760   -1.5910 O   0  0  0  0  0  0  0  0  0  0  0  0
    0.7180    2.0060   -3.2600 H   0  0  0  0  0  0  0  0  0  0  0  0
   -0.0060    1.7230   -4.8560 H   0  0  0  0  0  0  0  0  0  0  0  0
   -2.3520    3.2840   -1.7410 H   0  0  0  0  0  0  0  0  0  0  0  0
   -2.6050    1.8960   -4.9980 H   0  0  0  0  0  0  0  0  0  0  0  0
   -4.6100    1.3380   -3.8870 H   0  0  0  0  0  0  0  0  0  0  0  0
   -3.9980    2.1770   -2.4550 H   0  0  0  0  0  0  0  0  0  0  0  0
   -3.3580   -0.6560   -3.3690 H   0  0  0  0  0  0  0  0  0  0  0  0
   -4.5070   -0.2330   -2.0820 H   0  0  0  0  0  0  0  0  0  0  0  0
   -1.4250    0.2530   -1.9900 H   0  0  0  0  0  0  0  0  0  0  0  0
   -2.6740    0.8700   -0.7650 H   0  0  0  0  0  0  0  0  0  0  0  0
   -3.2730   -1.4220   -0.2540 H   0  0  0  0  0  0  0  0  0  0  0  0
   -0.2940   -1.1130   -0.1910 H   0  0  0  0  0  0  0  0  0  0  0  0
  1  8  1  0  0  0  0
  1  9  1  0  0  0  0
  2  3  1  0  0  0  0
  2  1  1  0  0  0  0
  3 14  1  0  0  0  0
  3 13  1  0  0  0  0
  4 15  1  6  0  0  0
  4  6  1  0  0  0  0
  4  2  1  0  0  0  0
  5 17  1  0  0  0  0
  5  4  1  0  0  0  0
  6  7  2  0  0  0  0
 10  1  1  0  0  0  0
 11  2  1  0  0  0  0
 12  3  1  0  0  0  0
 16  5  1  0  0  0  0
 18 26  1  0  0  0  0
 18 27  1  0  0  0  0
 19 20  2  0  0  0  0
 19 18  1  0  0  0  0
 21 29  1  0  0  0  0
 21 19  1  0  0  0  0
 22 30  1  1  0  0  0
 22 21  1  0  0  0  0
 23  6  1  0  0  0  0
 23 22  1  0  0  0  0
 24 25  2  0  0  0  0
 24 22  1  0  0  0  0
 28 21  1  0  0  0  0
 31 23  1  0  0  0  0
 32 33  1  0  0  0  0
 32 44  1  0  0  0  0
 33 34  2  0  0  0  0
 34 46  1  0  0  0  0
 35 33  1  0  0  0  0
 35 36  1  0  0  0  0
 36 37  1  0  0  0  0
 36 49  1  0  0  0  0
 37 51  1  0  0  0  0
 37 38  1  0  0  0  0
 38 39  1  0  0  0  0
 38 53  1  0  0  0  0
 39 54  1  1  0  0  0
 39 40  1  0  0  0  0
 40 24  1  0  0  0  0
 41 43  1  0  0  0  0
 41 39  1  0  0  0  0
 42 41  2  0  0  0  0
 45 32  1  0  0  0  0
 47 35  1  0  0  0  0
 48 36  1  0  0  0  0
 50 37  1  0  0  0  0
 52 38  1  0  0  0  0
 55 40  1  0  0  0  0
M  END
$$$$
