VNS.pdb
 OpenBabel07022419243D

 43 42  0  0  1  0  0  0  0  0999 V2000
   -2.6270   -3.0140   -1.7440 C   0  0  0  0  0  0  0  0  0  0  0  0
   -1.1370   -2.8160   -1.4310 C   0  0  0  0  0  0  0  0  0  0  0  0
   -0.5320   -4.1620   -1.2580 C   0  0  0  0  0  0  0  0  0  0  0  0
   -1.0870   -1.9490   -0.2120 C   0  0  2  0  0  0  0  0  0  0  0  0
   -1.7370   -0.6930   -0.4940 N   0  0  0  0  0  0  0  0  0  0  0  0
    0.3150   -1.6430    0.2170 C   0  0  0  0  0  0  0  0  0  0  0  0
    1.1220   -2.5660    0.4910 O   0  0  0  0  0  0  0  0  0  0  0  0
   -2.7810   -3.3730   -2.7630 H   0  0  0  0  0  0  0  0  0  0  0  0
   -3.0730   -3.7070   -0.9700 H   0  0  0  0  0  0  0  0  0  0  0  0
   -3.1320   -2.0360   -1.5750 H   0  0  0  0  0  0  0  0  0  0  0  0
   -0.7090   -2.2680   -2.2870 H   0  0  0  0  0  0  0  0  0  0  0  0
   -1.1090   -4.8900   -1.8750 H   0  0  0  0  0  0  0  0  0  0  0  0
    0.5140   -4.2430   -1.6110 H   0  0  0  0  0  0  0  0  0  0  0  0
   -0.5460   -4.5500   -0.2240 H   0  0  0  0  0  0  0  0  0  0  0  0
   -1.6430   -2.4700    0.5950 H   0  0  0  0  0  0  0  0  0  0  0  0
   -2.6840   -0.6330   -0.0880 H   0  0  0  0  0  0  0  0  0  0  0  0
   -1.8010   -0.4770   -1.5060 H   0  0  0  0  0  0  0  0  0  0  0  0
    1.9510    0.4720   -2.6490 N   0  0  0  0  0  0  0  0  0  0  0  0
    2.8460    0.0920   -1.6010 C   0  0  0  0  0  0  0  0  0  0  0  0
    3.6410   -0.8600   -1.8280 O   0  0  0  0  0  0  0  0  0  0  0  0
    2.8430    0.7820   -0.3100 C   0  0  0  0  0  0  0  0  0  0  0  0
    2.1360   -0.0740    0.7450 C   0  0  2  0  0  0  0  0  0  0  0  0
    0.7710   -0.3140    0.3280 N   0  0  0  0  0  0  0  0  0  0  0  0
    2.1640    0.6320    2.0700 C   0  0  0  0  0  0  0  0  0  0  0  0
    3.2710    0.9380    2.5740 O   0  0  0  0  0  0  0  0  0  0  0  0
    1.6870    1.4750   -2.7180 H   0  0  0  0  0  0  0  0  0  0  0  0
    1.5570   -0.1980   -3.3340 H   0  0  0  0  0  0  0  0  0  0  0  0
    2.3290    1.7520   -0.4360 H   0  0  0  0  0  0  0  0  0  0  0  0
    3.8760    1.0020   -0.0090 H   0  0  0  0  0  0  0  0  0  0  0  0
    2.6760   -1.0260    0.9110 H   0  0  0  0  0  0  0  0  0  0  0  0
    0.1500    0.5140    0.1170 H   0  0  0  0  0  0  0  0  0  0  0  0
    0.7030    3.7610    3.0680 O   0  0  0  0  0  0  0  0  0  0  0  0
    0.1270    2.9080    4.0000 C   0  0  0  0  0  0  0  0  0  0  0  0
    0.9450    1.6410    4.0420 C   0  0  2  0  0  0  0  0  0  0  0  0
    0.9960    0.9670    2.7740 N   0  0  0  0  0  0  0  0  0  0  0  0
    0.4500    0.7120    5.0930 C   0  0  0  0  0  0  0  0  0  0  0  0
    0.3110    1.0750    6.2820 O   0  0  0  0  0  0  0  0  0  0  0  0
    0.1360   -0.5870    4.7500 O   0  0  0  0  0  0  0  0  0  0  0  0
    1.6740    3.6070    2.9560 H   0  0  0  0  0  0  0  0  0  0  0  0
   -0.9380    2.7270    3.8240 H   0  0  0  0  0  0  0  0  0  0  0  0
    0.1940    3.4080    5.0010 H   0  0  0  0  0  0  0  0  0  0  0  0
    1.9920    1.8780    4.3370 H   0  0  0  0  0  0  0  0  0  0  0  0
    0.0750    0.6960    2.3220 H   0  0  0  0  0  0  0  0  0  0  0  0
  1 10  1  0  0  0  0
  1  2  1  0  0  0  0
  1  9  1  0  0  0  0
  2  3  1  0  0  0  0
  2  4  1  0  0  0  0
  3 14  1  0  0  0  0
  4  6  1  0  0  0  0
  4 15  1  1  0  0  0
  5  4  1  0  0  0  0
  5 16  1  0  0  0  0
  6 23  1  0  0  0  0
  6  7  2  0  0  0  0
  8  1  1  0  0  0  0
 11  2  1  0  0  0  0
 12  3  1  0  0  0  0
 13  3  1  0  0  0  0
 17  5  1  0  0  0  0
 18 19  1  0  0  0  0
 19 21  1  0  0  0  0
 20 19  2  0  0  0  0
 21 29  1  0  0  0  0
 21 22  1  0  0  0  0
 22 30  1  1  0  0  0
 22 24  1  0  0  0  0
 23 22  1  0  0  0  0
 24 25  2  0  0  0  0
 24 35  1  0  0  0  0
 26 18  1  0  0  0  0
 27 18  1  0  0  0  0
 28 21  1  0  0  0  0
 31 23  1  0  0  0  0
 32 33  1  0  0  0  0
 33 34  1  0  0  0  0
 33 41  1  0  0  0  0
 34 42  1  1  0  0  0
 34 36  1  0  0  0  0
 35 34  1  0  0  0  0
 36 37  1  0  0  0  0
 38 36  2  0  0  0  0
 39 32  1  0  0  0  0
 40 33  1  0  0  0  0
 43 35  1  0  0  0  0
M  END
$$$$
