VNV.pdb
 OpenBabel07022419243D

 48 47  0  0  1  0  0  0  0  0999 V2000
    3.5070   -4.3110    0.4520 C   0  0  0  0  0  0  0  0  0  0  0  0
    2.8240   -2.9440    0.5500 C   0  0  0  0  0  0  0  0  0  0  0  0
    1.5900   -3.1510    1.3630 C   0  0  0  0  0  0  0  0  0  0  0  0
    2.5500   -2.5120   -0.8770 C   0  0  2  0  0  0  0  0  0  0  0  0
    3.8510   -2.4530   -1.5590 N   0  0  0  0  0  0  0  0  0  0  0  0
    1.9500   -1.1940   -1.0150 C   0  0  0  0  0  0  0  0  0  0  0  0
    2.6570   -0.2250   -1.4650 O   0  0  0  0  0  0  0  0  0  0  0  0
    4.1410   -4.4770    1.3590 H   0  0  0  0  0  0  0  0  0  0  0  0
    2.7110   -5.0780    0.4660 H   0  0  0  0  0  0  0  0  0  0  0  0
    4.1010   -4.3870   -0.4790 H   0  0  0  0  0  0  0  0  0  0  0  0
    3.5230   -2.2150    0.9760 H   0  0  0  0  0  0  0  0  0  0  0  0
    1.2170   -2.2030    1.8270 H   0  0  0  0  0  0  0  0  0  0  0  0
    0.8100   -3.7110    0.8100 H   0  0  0  0  0  0  0  0  0  0  0  0
    1.7930   -3.8080    2.2640 H   0  0  0  0  0  0  0  0  0  0  0  0
    1.9850   -3.3270   -1.3660 H   0  0  0  0  0  0  0  0  0  0  0  0
    4.3720   -1.5950   -1.3580 H   0  0  0  0  0  0  0  0  0  0  0  0
    3.6490   -2.4770   -2.6040 H   0  0  0  0  0  0  0  0  0  0  0  0
   -0.6800    2.9240   -2.3860 N   0  0  0  0  0  0  0  0  0  0  0  0
   -1.5210    1.8170   -2.0450 C   0  0  0  0  0  0  0  0  0  0  0  0
   -2.7210    2.0060   -1.8110 O   0  0  0  0  0  0  0  0  0  0  0  0
   -0.9650    0.4350   -1.9640 C   0  0  0  0  0  0  0  0  0  0  0  0
    0.0210    0.3390   -0.8030 C   0  0  2  0  0  0  0  0  0  0  0  0
    0.5810   -0.9600   -0.6600 N   0  0  0  0  0  0  0  0  0  0  0  0
   -0.6260    0.9270    0.3660 C   0  0  0  0  0  0  0  0  0  0  0  0
   -1.0330    2.1290    0.2160 O   0  0  0  0  0  0  0  0  0  0  0  0
   -1.0620    3.8770   -2.5440 H   0  0  0  0  0  0  0  0  0  0  0  0
    0.3490    2.7880   -2.4810 H   0  0  0  0  0  0  0  0  0  0  0  0
   -1.8120   -0.2540   -1.7890 H   0  0  0  0  0  0  0  0  0  0  0  0
   -0.4840    0.1270   -2.8930 H   0  0  0  0  0  0  0  0  0  0  0  0
    0.8500    1.0520   -1.1060 H   0  0  0  0  0  0  0  0  0  0  0  0
    0.0490   -1.7750   -0.3090 H   0  0  0  0  0  0  0  0  0  0  0  0
   -2.5400   -1.1750    3.3780 C   0  0  0  0  0  0  0  0  0  0  0  0
   -2.7660    0.2780    3.0180 C   0  0  0  0  0  0  0  0  0  0  0  0
   -3.7010    0.3200    1.8460 C   0  0  0  0  0  0  0  0  0  0  0  0
   -1.4940    1.0010    2.7330 C   0  0  2  0  0  0  0  0  0  0  0  0
   -0.8410    0.3240    1.5990 N   0  0  0  0  0  0  0  0  0  0  0  0
   -0.5700    1.0230    3.8930 C   0  0  0  0  0  0  0  0  0  0  0  0
    0.5880    0.5290    3.8650 O   0  0  0  0  0  0  0  0  0  0  0  0
   -0.9730    1.6070    5.0770 O   0  0  0  0  0  0  0  0  0  0  0  0
   -1.6510   -1.2950    4.0250 H   0  0  0  0  0  0  0  0  0  0  0  0
   -3.4170   -1.5440    3.9300 H   0  0  0  0  0  0  0  0  0  0  0  0
   -2.3600   -1.7110    2.4340 H   0  0  0  0  0  0  0  0  0  0  0  0
   -3.2420    0.7730    3.8920 H   0  0  0  0  0  0  0  0  0  0  0  0
   -3.2290    0.6640    0.9130 H   0  0  0  0  0  0  0  0  0  0  0  0
   -4.6100    0.9500    2.0090 H   0  0  0  0  0  0  0  0  0  0  0  0
   -4.1150   -0.7070    1.6330 H   0  0  0  0  0  0  0  0  0  0  0  0
   -1.7670    2.0250    2.3970 H   0  0  0  0  0  0  0  0  0  0  0  0
   -0.5480   -0.6370    1.7680 H   0  0  0  0  0  0  0  0  0  0  0  0
  1  9  1  0  0  0  0
  1  2  1  0  0  0  0
  1  8  1  0  0  0  0
  2 11  1  0  0  0  0
  2  3  1  0  0  0  0
  3 12  1  0  0  0  0
  3 14  1  0  0  0  0
  4 15  1  6  0  0  0
  4  2  1  0  0  0  0
  5 16  1  0  0  0  0
  5  4  1  0  0  0  0
  6  4  1  0  0  0  0
  6 23  1  0  0  0  0
  7  6  2  0  0  0  0
 10  1  1  0  0  0  0
 13  3  1  0  0  0  0
 17  5  1  0  0  0  0
 18 19  1  0  0  0  0
 19 21  1  0  0  0  0
 19 20  2  0  0  0  0
 21 28  1  0  0  0  0
 21 22  1  0  0  0  0
 22 30  1  6  0  0  0
 22 23  1  0  0  0  0
 22 24  1  0  0  0  0
 23 31  1  0  0  0  0
 24 36  1  0  0  0  0
 25 24  2  0  0  0  0
 26 18  1  0  0  0  0
 27 18  1  0  0  0  0
 29 21  1  0  0  0  0
 32 41  1  0  0  0  0
 32 40  1  0  0  0  0
 33 32  1  0  0  0  0
 33 43  1  0  0  0  0
 34 45  1  0  0  0  0
 34 33  1  0  0  0  0
 35 47  1  6  0  0  0
 35 33  1  0  0  0  0
 35 37  1  0  0  0  0
 36 48  1  0  0  0  0
 36 35  1  0  0  0  0
 37 39  1  0  0  0  0
 38 37  2  0  0  0  0
 42 32  1  0  0  0  0
 44 34  1  0  0  0  0
 46 34  1  0  0  0  0
M  END
$$$$
