VNW.pdb
 OpenBabel07022419243D

 56 57  0  0  1  0  0  0  0  0999 V2000
    0.5350   -0.0730    4.4640 C   0  0  0  0  0  0  0  0  0  0  0  0
    2.0170   -0.2560    4.2890 C   0  0  0  0  0  0  0  0  0  0  0  0
    2.4290   -1.5890    3.7400 C   0  0  0  0  0  0  0  0  0  0  0  0
    2.6910    0.9210    3.6900 C   0  0  2  0  0  0  0  0  0  0  0  0
    2.4850    2.0490    4.5970 N   0  0  0  0  0  0  0  0  0  0  0  0
    2.3310    1.3200    2.3480 C   0  0  0  0  0  0  0  0  0  0  0  0
    2.1240    2.5690    2.1340 O   0  0  0  0  0  0  0  0  0  0  0  0
   -0.0350   -1.0140    4.4260 H   0  0  0  0  0  0  0  0  0  0  0  0
    0.1570    0.6640    3.6960 H   0  0  0  0  0  0  0  0  0  0  0  0
    0.2770    0.4230    5.4410 H   0  0  0  0  0  0  0  0  0  0  0  0
    2.4140   -0.2780    5.3750 H   0  0  0  0  0  0  0  0  0  0  0  0
    3.4350   -1.5260    3.2260 H   0  0  0  0  0  0  0  0  0  0  0  0
    1.6570   -2.0260    3.0910 H   0  0  0  0  0  0  0  0  0  0  0  0
    2.6230   -2.3550    4.5470 H   0  0  0  0  0  0  0  0  0  0  0  0
    3.8030    0.7320    3.6990 H   0  0  0  0  0  0  0  0  0  0  0  0
    3.0370    1.9230    5.4530 H   0  0  0  0  0  0  0  0  0  0  0  0
    2.7120    2.9650    4.1170 H   0  0  0  0  0  0  0  0  0  0  0  0
    5.1050    1.0310   -1.9940 N   0  0  0  0  0  0  0  0  0  0  0  0
    4.1500    1.1950   -0.9380 C   0  0  0  0  0  0  0  0  0  0  0  0
    4.4860    1.6940    0.1710 O   0  0  0  0  0  0  0  0  0  0  0  0
    2.7670    0.7630   -1.1970 C   0  0  0  0  0  0  0  0  0  0  0  0
    1.8090    1.0920   -0.0700 C   0  0  2  0  0  0  0  0  0  0  0  0
    2.1700    0.4860    1.1900 N   0  0  0  0  0  0  0  0  0  0  0  0
    0.4080    0.7870   -0.4640 C   0  0  0  0  0  0  0  0  0  0  0  0
   -0.1170    1.3450   -1.4830 O   0  0  0  0  0  0  0  0  0  0  0  0
    6.1020    1.1220   -1.7460 H   0  0  0  0  0  0  0  0  0  0  0  0
    4.8090    0.8220   -2.9920 H   0  0  0  0  0  0  0  0  0  0  0  0
    2.4390    1.2830   -2.1470 H   0  0  0  0  0  0  0  0  0  0  0  0
    2.7030   -0.3210   -1.4420 H   0  0  0  0  0  0  0  0  0  0  0  0
    1.8240    2.2190    0.0150 H   0  0  0  0  0  0  0  0  0  0  0  0
    2.3230   -0.5150    1.3290 H   0  0  0  0  0  0  0  0  0  0  0  0
   -0.3960   -0.1140    0.2440 N   0  0  0  0  0  0  0  0  0  0  0  0
   -1.7820   -0.3700   -0.1890 C   0  0  1  0  0  0  0  0  0  0  0  0
   -1.6530   -1.4180   -1.2890 C   0  0  0  0  0  0  0  0  0  0  0  0
   -2.9700   -1.7690   -1.8570 C   0  0  0  0  0  0  0  0  0  0  0  0
   -4.0660   -0.9260   -2.0210 C   0  0  0  0  0  0  0  0  0  0  0  0
   -5.0690   -1.6170   -2.5530 N   0  0  0  0  0  0  0  0  0  0  0  0
   -4.6560   -2.9030   -2.7450 C   0  0  0  0  0  0  0  0  0  0  0  0
   -5.3070   -3.9990   -3.2850 C   0  0  0  0  0  0  0  0  0  0  0  0
   -4.6400   -5.1990   -3.3900 C   0  0  0  0  0  0  0  0  0  0  0  0
   -3.3350   -5.2930   -2.9580 C   0  0  0  0  0  0  0  0  0  0  0  0
   -2.6820   -4.2200   -2.4230 C   0  0  0  0  0  0  0  0  0  0  0  0
   -3.3430   -3.0030   -2.3110 C   0  0  0  0  0  0  0  0  0  0  0  0
   -2.6410   -0.7380    0.9180 C   0  0  0  0  0  0  0  0  0  0  0  0
   -3.8400   -1.0570    0.6920 O   0  0  0  0  0  0  0  0  0  0  0  0
   -2.2080   -0.7560    2.2200 O   0  0  0  0  0  0  0  0  0  0  0  0
   -0.0650   -0.6230    1.0800 H   0  0  0  0  0  0  0  0  0  0  0  0
   -2.1380    0.5410   -0.7810 H   0  0  0  0  0  0  0  0  0  0  0  0
   -1.1610   -2.3370   -0.8990 H   0  0  0  0  0  0  0  0  0  0  0  0
   -1.0070   -0.9900   -2.0710 H   0  0  0  0  0  0  0  0  0  0  0  0
   -4.0550    0.1220   -1.7490 H   0  0  0  0  0  0  0  0  0  0  0  0
   -6.0240   -1.2980   -2.8000 H   0  0  0  0  0  0  0  0  0  0  0  0
   -6.3280   -3.9300   -3.6240 H   0  0  0  0  0  0  0  0  0  0  0  0
   -5.1570   -6.0630   -3.8160 H   0  0  0  0  0  0  0  0  0  0  0  0
   -2.8390   -6.2430   -3.0600 H   0  0  0  0  0  0  0  0  0  0  0  0
   -1.6550   -4.3330   -2.0960 H   0  0  0  0  0  0  0  0  0  0  0  0
  1 10  1  0  0  0  0
  2  1  1  0  0  0  0
  2 11  1  0  0  0  0
  3  2  1  0  0  0  0
  3 14  1  0  0  0  0
  4 15  1  6  0  0  0
  4  2  1  0  0  0  0
  4  5  1  0  0  0  0
  5 16  1  0  0  0  0
  6  4  1  0  0  0  0
  7  6  2  0  0  0  0
  8  1  1  0  0  0  0
  9  1  1  0  0  0  0
 12  3  1  0  0  0  0
 13  3  1  0  0  0  0
 17  5  1  0  0  0  0
 18 26  1  0  0  0  0
 18 19  1  0  0  0  0
 19 20  2  0  0  0  0
 21 19  1  0  0  0  0
 21 22  1  0  0  0  0
 22 30  1  1  0  0  0
 22 23  1  0  0  0  0
 23 31  1  0  0  0  0
 23  6  1  0  0  0  0
 24 22  1  0  0  0  0
 24 32  1  0  0  0  0
 25 24  2  0  0  0  0
 27 18  1  0  0  0  0
 28 21  1  0  0  0  0
 29 21  1  0  0  0  0
 32 47  1  0  0  0  0
 33 48  1  6  0  0  0
 33 32  1  0  0  0  0
 33 44  1  0  0  0  0
 34 49  1  0  0  0  0
 34 33  1  0  0  0  0
 35 34  1  0  0  0  0
 36 35  2  0  0  0  0
 36 51  1  0  0  0  0
 37 36  1  0  0  0  0
 38 37  1  0  0  0  0
 38 43  1  0  0  0  0
 39 38  2  0  0  0  0
 40 39  1  0  0  0  0
 40 41  2  0  0  0  0
 41 42  1  0  0  0  0
 42 43  2  0  0  0  0
 42 56  1  0  0  0  0
 43 35  1  0  0  0  0
 44 46  1  0  0  0  0
 45 44  2  0  0  0  0
 50 34  1  0  0  0  0
 52 37  1  0  0  0  0
 53 39  1  0  0  0  0
 54 40  1  0  0  0  0
 55 41  1  0  0  0  0
M  END
$$$$
