VNY.pdb
 OpenBabel07022419243D

 53 53  0  0  1  0  0  0  0  0999 V2000
    3.5370   -1.1400    5.4370 C   0  0  0  0  0  0  0  0  0  0  0  0
    2.7320   -1.1070    4.1810 C   0  0  0  0  0  0  0  0  0  0  0  0
    1.3510   -0.6010    4.5060 C   0  0  0  0  0  0  0  0  0  0  0  0
    3.3880   -0.3460    3.0730 C   0  0  2  0  0  0  0  0  0  0  0  0
    3.6440    1.0260    3.3790 N   0  0  0  0  0  0  0  0  0  0  0  0
    2.6270   -0.4950    1.7810 C   0  0  0  0  0  0  0  0  0  0  0  0
    2.3000   -1.6320    1.3590 O   0  0  0  0  0  0  0  0  0  0  0  0
    3.3470   -0.2830    6.1230 H   0  0  0  0  0  0  0  0  0  0  0  0
    4.6370   -1.1650    5.2680 H   0  0  0  0  0  0  0  0  0  0  0  0
    3.2660   -2.0530    6.0450 H   0  0  0  0  0  0  0  0  0  0  0  0
    2.6050   -2.1650    3.8060 H   0  0  0  0  0  0  0  0  0  0  0  0
    0.8050   -0.2410    3.6030 H   0  0  0  0  0  0  0  0  0  0  0  0
    0.7680   -1.4590    4.9010 H   0  0  0  0  0  0  0  0  0  0  0  0
    1.3810    0.1700    5.3150 H   0  0  0  0  0  0  0  0  0  0  0  0
    4.3740   -0.8330    2.8810 H   0  0  0  0  0  0  0  0  0  0  0  0
    3.8690    1.0780    4.4070 H   0  0  0  0  0  0  0  0  0  0  0  0
    4.3440    1.4810    2.7860 H   0  0  0  0  0  0  0  0  0  0  0  0
    3.3280    2.6770   -0.4960 N   0  0  0  0  0  0  0  0  0  0  0  0
    3.3410    1.6560   -1.4800 C   0  0  0  0  0  0  0  0  0  0  0  0
    4.1940    1.7440   -2.4050 O   0  0  0  0  0  0  0  0  0  0  0  0
    2.3890    0.5210   -1.4330 C   0  0  0  0  0  0  0  0  0  0  0  0
    1.5380    0.6590   -0.2100 C   0  0  2  0  0  0  0  0  0  0  0  0
    2.2650    0.6530    1.0190 N   0  0  0  0  0  0  0  0  0  0  0  0
    0.3230   -0.2040   -0.2190 C   0  0  0  0  0  0  0  0  0  0  0  0
   -0.0170   -0.7980    0.8290 O   0  0  0  0  0  0  0  0  0  0  0  0
    4.1710    2.9140    0.0870 H   0  0  0  0  0  0  0  0  0  0  0  0
    2.4770    3.2630   -0.2830 H   0  0  0  0  0  0  0  0  0  0  0  0
    2.9250   -0.4540   -1.4770 H   0  0  0  0  0  0  0  0  0  0  0  0
    1.7280    0.6530   -2.3310 H   0  0  0  0  0  0  0  0  0  0  0  0
    1.0750    1.7090   -0.2630 H   0  0  0  0  0  0  0  0  0  0  0  0
    2.5940    1.5740    1.4560 H   0  0  0  0  0  0  0  0  0  0  0  0
   -7.4850   -3.8430   -1.0690 O   0  0  0  0  0  0  0  0  0  0  0  0
   -6.3570   -3.0250   -1.1930 C   0  0  0  0  0  0  0  0  0  0  0  0
   -5.7650   -2.4350   -0.0960 C   0  0  0  0  0  0  0  0  0  0  0  0
   -4.6550   -1.6340   -0.2460 C   0  0  0  0  0  0  0  0  0  0  0  0
   -4.0810   -1.3840   -1.4920 C   0  0  0  0  0  0  0  0  0  0  0  0
   -2.9120   -0.4920   -1.5560 C   0  0  0  0  0  0  0  0  0  0  0  0
   -1.6600   -1.2570   -1.3010 C   0  0  2  0  0  0  0  0  0  0  0  0
   -0.4810   -0.3960   -1.3590 N   0  0  0  0  0  0  0  0  0  0  0  0
   -1.5440   -2.3890   -2.2240 C   0  0  0  0  0  0  0  0  0  0  0  0
   -2.3650   -3.3080   -2.3290 O   0  0  0  0  0  0  0  0  0  0  0  0
   -4.6920   -1.9850   -2.5650 C   0  0  0  0  0  0  0  0  0  0  0  0
   -5.8120   -2.7950   -2.4320 C   0  0  0  0  0  0  0  0  0  0  0  0
   -0.4110   -2.4480   -3.0670 O   0  0  0  0  0  0  0  0  0  0  0  0
   -8.2130   -3.5020   -0.4550 H   0  0  0  0  0  0  0  0  0  0  0  0
   -6.2150   -2.6320    0.8680 H   0  0  0  0  0  0  0  0  0  0  0  0
   -4.2000   -1.1760    0.6220 H   0  0  0  0  0  0  0  0  0  0  0  0
   -2.9120   -0.0640   -2.6030 H   0  0  0  0  0  0  0  0  0  0  0  0
   -2.9980    0.3720   -0.8590 H   0  0  0  0  0  0  0  0  0  0  0  0
   -1.7280   -1.6560   -0.2650 H   0  0  0  0  0  0  0  0  0  0  0  0
   -0.2150    0.0910   -2.2430 H   0  0  0  0  0  0  0  0  0  0  0  0
   -4.2710   -1.8060   -3.5620 H   0  0  0  0  0  0  0  0  0  0  0  0
   -6.2510   -3.2440   -3.3240 H   0  0  0  0  0  0  0  0  0  0  0  0
  1 10  1  0  0  0  0
  1  8  1  0  0  0  0
  2  3  1  0  0  0  0
  2  1  1  0  0  0  0
  3 13  1  0  0  0  0
  3 14  1  0  0  0  0
  4 15  1  6  0  0  0
  4  5  1  0  0  0  0
  4  2  1  0  0  0  0
  5 16  1  0  0  0  0
  6  4  1  0  0  0  0
  7  6  2  0  0  0  0
  9  1  1  0  0  0  0
 11  2  1  0  0  0  0
 12  3  1  0  0  0  0
 17  5  1  0  0  0  0
 18 27  1  0  0  0  0
 18 26  1  0  0  0  0
 19 21  1  0  0  0  0
 19 18  1  0  0  0  0
 20 19  2  0  0  0  0
 21 22  1  0  0  0  0
 22 30  1  6  0  0  0
 22 23  1  0  0  0  0
 23 31  1  0  0  0  0
 23  6  1  0  0  0  0
 24 22  1  0  0  0  0
 24 25  2  0  0  0  0
 28 21  1  0  0  0  0
 29 21  1  0  0  0  0
 32 45  1  0  0  0  0
 33 32  1  0  0  0  0
 33 34  1  0  0  0  0
 34 46  1  0  0  0  0
 35 34  2  0  0  0  0
 35 47  1  0  0  0  0
 36 35  1  0  0  0  0
 37 36  1  0  0  0  0
 37 38  1  0  0  0  0
 37 49  1  0  0  0  0
 38 50  1  1  0  0  0
 39 38  1  0  0  0  0
 39 24  1  0  0  0  0
 40 38  1  0  0  0  0
 41 40  1  0  0  0  0
 42 43  1  0  0  0  0
 42 36  2  0  0  0  0
 43 33  2  0  0  0  0
 44 40  2  0  0  0  0
 48 37  1  0  0  0  0
 51 39  1  0  0  0  0
 52 42  1  0  0  0  0
 53 43  1  0  0  0  0
M  END
$$$$
