VPA.pdb
 OpenBabel07022419273D

 42 42  0  0  1  0  0  0  0  0999 V2000
    0.5420   -2.9710    3.0610 C   0  0  0  0  0  0  0  0  0  0  0  0
    1.5830   -3.7140    2.2490 C   0  0  0  0  0  0  0  0  0  0  0  0
    0.9540   -4.9900    1.7490 C   0  0  0  0  0  0  0  0  0  0  0  0
    2.1140   -2.8470    1.1180 C   0  0  2  0  0  0  0  0  0  0  0  0
    2.7280   -1.6470    1.6100 N   0  0  0  0  0  0  0  0  0  0  0  0
    1.1150   -2.6540    0.0570 C   0  0  0  0  0  0  0  0  0  0  0  0
    0.5840   -3.7450   -0.3690 O   0  0  0  0  0  0  0  0  0  0  0  0
    0.9370   -2.0650    3.5450 H   0  0  0  0  0  0  0  0  0  0  0  0
    0.1420   -3.6290    3.8580 H   0  0  0  0  0  0  0  0  0  0  0  0
   -0.3260   -2.7440    2.3890 H   0  0  0  0  0  0  0  0  0  0  0  0
    2.3910   -3.9960    2.9540 H   0  0  0  0  0  0  0  0  0  0  0  0
    0.9910   -5.7220    2.6090 H   0  0  0  0  0  0  0  0  0  0  0  0
   -0.1290   -4.8850    1.5350 H   0  0  0  0  0  0  0  0  0  0  0  0
    1.5410   -5.4280    0.9330 H   0  0  0  0  0  0  0  0  0  0  0  0
    2.9430   -3.4630    0.6570 H   0  0  0  0  0  0  0  0  0  0  0  0
    2.7330   -1.5380    2.6270 H   0  0  0  0  0  0  0  0  0  0  0  0
    3.6050   -1.4590    1.1170 H   0  0  0  0  0  0  0  0  0  0  0  0
    0.6960   -1.4480   -0.5190 N   0  0  0  0  0  0  0  0  0  0  0  0
   -0.3220   -1.3630   -1.5790 C   0  0  0  0  0  0  0  0  0  0  0  0
    0.1010   -0.2260   -2.4720 C   0  0  0  0  0  0  0  0  0  0  0  0
    1.0280    0.6340   -1.6410 C   0  0  0  0  0  0  0  0  0  0  0  0
    1.0680   -0.0690   -0.2980 C   0  0  1  0  0  0  0  0  0  0  0  0
   -0.0550    0.5370    0.5050 C   0  0  0  0  0  0  0  0  0  0  0  0
   -1.0660   -0.1080    0.8600 O   0  0  0  0  0  0  0  0  0  0  0  0
   -0.3330   -2.2890   -2.1850 H   0  0  0  0  0  0  0  0  0  0  0  0
   -1.3280   -1.2300   -1.1730 H   0  0  0  0  0  0  0  0  0  0  0  0
   -0.7870    0.3810   -2.7640 H   0  0  0  0  0  0  0  0  0  0  0  0
    0.5850   -0.5700   -3.4060 H   0  0  0  0  0  0  0  0  0  0  0  0
    2.0380    0.6530   -2.0940 H   0  0  0  0  0  0  0  0  0  0  0  0
    0.6490    1.6590   -1.5020 H   0  0  0  0  0  0  0  0  0  0  0  0
    2.0020    0.0900    0.2330 H   0  0  0  0  0  0  0  0  0  0  0  0
   -0.5640    3.0430    3.0080 C   0  0  0  0  0  0  0  0  0  0  0  0
   -1.0510    2.5280    1.6620 C   0  0  2  0  0  0  0  0  0  0  0  0
   -0.0070    1.9130    0.9010 N   0  0  0  0  0  0  0  0  0  0  0  0
   -1.6890    3.6660    0.9540 C   0  0  0  0  0  0  0  0  0  0  0  0
   -1.2590    3.9530   -0.1930 O   0  0  0  0  0  0  0  0  0  0  0  0
   -2.7100    4.4130    1.4730 O   0  0  0  0  0  0  0  0  0  0  0  0
    0.0640    2.2450    3.4500 H   0  0  0  0  0  0  0  0  0  0  0  0
   -1.4680    3.1870    3.6370 H   0  0  0  0  0  0  0  0  0  0  0  0
   -0.0090    3.9870    2.8310 H   0  0  0  0  0  0  0  0  0  0  0  0
   -1.8540    1.7930    1.8760 H   0  0  0  0  0  0  0  0  0  0  0  0
    0.8320    2.4700    0.6120 H   0  0  0  0  0  0  0  0  0  0  0  0
  1  8  1  0  0  0  0
  1  9  1  0  0  0  0
  2 11  1  0  0  0  0
  2  1  1  0  0  0  0
  3  2  1  0  0  0  0
  3 12  1  0  0  0  0
  4 15  1  6  0  0  0
  4  5  1  0  0  0  0
  4  2  1  0  0  0  0
  5 16  1  0  0  0  0
  6  4  1  0  0  0  0
  7  6  2  0  0  0  0
 10  1  1  0  0  0  0
 13  3  1  0  0  0  0
 14  3  1  0  0  0  0
 17  5  1  0  0  0  0
 18 22  1  0  0  0  0
 18  6  1  0  0  0  0
 19 26  1  0  0  0  0
 19 18  1  0  0  0  0
 20 21  1  0  0  0  0
 20 19  1  0  0  0  0
 21 30  1  0  0  0  0
 21 22  1  0  0  0  0
 22 31  1  1  0  0  0
 22 23  1  0  0  0  0
 23 24  2  0  0  0  0
 23 34  1  0  0  0  0
 25 19  1  0  0  0  0
 27 20  1  0  0  0  0
 28 20  1  0  0  0  0
 29 21  1  0  0  0  0
 32 38  1  0  0  0  0
 32 39  1  0  0  0  0
 33 41  1  1  0  0  0
 33 32  1  0  0  0  0
 34 33  1  0  0  0  0
 35 37  1  0  0  0  0
 35 33  1  0  0  0  0
 36 35  2  0  0  0  0
 40 32  1  0  0  0  0
 42 34  1  0  0  0  0
M  END
$$$$
