VPE.pdb
 OpenBabel07022419273D

 48 48  0  0  1  0  0  0  0  0999 V2000
    2.6250   -3.7570    1.1670 C   0  0  0  0  0  0  0  0  0  0  0  0
    1.2820   -3.1200    1.3630 C   0  0  0  0  0  0  0  0  0  0  0  0
    0.3790   -4.2470    1.9290 C   0  0  0  0  0  0  0  0  0  0  0  0
    0.6640   -2.6430    0.0820 C   0  0  2  0  0  0  0  0  0  0  0  0
    0.4770   -3.8060   -0.8130 N   0  0  0  0  0  0  0  0  0  0  0  0
    1.4160   -1.5930   -0.6060 C   0  0  0  0  0  0  0  0  0  0  0  0
    1.7270   -1.8280   -1.8430 O   0  0  0  0  0  0  0  0  0  0  0  0
    3.3750   -2.9440    1.0390 H   0  0  0  0  0  0  0  0  0  0  0  0
    2.6190   -4.3420    0.2240 H   0  0  0  0  0  0  0  0  0  0  0  0
    2.8480   -4.4230    2.0270 H   0  0  0  0  0  0  0  0  0  0  0  0
    1.3090   -2.3660    2.1370 H   0  0  0  0  0  0  0  0  0  0  0  0
   -0.6450   -3.9750    1.6030 H   0  0  0  0  0  0  0  0  0  0  0  0
    0.4230   -4.3000    3.0140 H   0  0  0  0  0  0  0  0  0  0  0  0
    0.6220   -5.2030    1.4180 H   0  0  0  0  0  0  0  0  0  0  0  0
   -0.3610   -2.3010    0.2780 H   0  0  0  0  0  0  0  0  0  0  0  0
   -0.3800   -3.7010   -1.3640 H   0  0  0  0  0  0  0  0  0  0  0  0
    1.3290   -4.0410   -1.3300 H   0  0  0  0  0  0  0  0  0  0  0  0
    1.8260   -0.3530   -0.0260 N   0  0  0  0  0  0  0  0  0  0  0  0
    2.6000    0.5720   -0.8830 C   0  0  0  0  0  0  0  0  0  0  0  0
    2.2800    1.9190   -0.3180 C   0  0  0  0  0  0  0  0  0  0  0  0
    2.3880    1.6050    1.1670 C   0  0  0  0  0  0  0  0  0  0  0  0
    1.6950    0.2310    1.2420 C   0  0  1  0  0  0  0  0  0  0  0  0
    0.4050    0.4260    1.8550 C   0  0  0  0  0  0  0  0  0  0  0  0
    0.4140    0.8120    3.0800 O   0  0  0  0  0  0  0  0  0  0  0  0
    3.6880    0.4010   -0.7280 H   0  0  0  0  0  0  0  0  0  0  0  0
    2.3350    0.4630   -1.9470 H   0  0  0  0  0  0  0  0  0  0  0  0
    1.2630    2.2350   -0.5390 H   0  0  0  0  0  0  0  0  0  0  0  0
    3.0330    2.6910   -0.6030 H   0  0  0  0  0  0  0  0  0  0  0  0
    1.9360    2.3470    1.8190 H   0  0  0  0  0  0  0  0  0  0  0  0
    3.4720    1.5230    1.3880 H   0  0  0  0  0  0  0  0  0  0  0  0
    2.3690   -0.3500    1.9420 H   0  0  0  0  0  0  0  0  0  0  0  0
   -0.8840    0.2530    1.2950 N   0  0  0  0  0  0  0  0  0  0  0  0
   -2.0740    0.4780    2.0210 C   0  0  1  0  0  0  0  0  0  0  0  0
   -2.9220    1.6170    1.6520 C   0  0  0  0  0  0  0  0  0  0  0  0
   -3.5170    1.7350    0.3180 C   0  0  0  0  0  0  0  0  0  0  0  0
   -2.6210    1.9460   -0.8290 C   0  0  0  0  0  0  0  0  0  0  0  0
   -1.3980    2.1980   -0.7740 O   0  0  0  0  0  0  0  0  0  0  0  0
   -2.8910   -0.7650    2.2210 C   0  0  0  0  0  0  0  0  0  0  0  0
   -3.9760   -0.5980    2.8420 O   0  0  0  0  0  0  0  0  0  0  0  0
   -3.1350    1.8710   -2.1520 O   0  0  0  0  0  0  0  0  0  0  0  0
   -2.5610   -2.0160    1.7980 O   0  0  0  0  0  0  0  0  0  0  0  0
   -0.9340   -0.0800    0.2840 H   0  0  0  0  0  0  0  0  0  0  0  0
   -1.7340    0.7030    3.1030 H   0  0  0  0  0  0  0  0  0  0  0  0
   -2.3500    2.5840    1.8360 H   0  0  0  0  0  0  0  0  0  0  0  0
   -3.7800    1.7410    2.4040 H   0  0  0  0  0  0  0  0  0  0  0  0
   -4.2180    0.8690    0.0840 H   0  0  0  0  0  0  0  0  0  0  0  0
   -4.2480    2.6120    0.2680 H   0  0  0  0  0  0  0  0  0  0  0  0
   -2.4990    1.6680   -2.9120 H   0  0  0  0  0  0  0  0  0  0  0  0
  1  2  1  0  0  0  0
  1 10  1  0  0  0  0
  2  3  1  0  0  0  0
  2 11  1  0  0  0  0
  3 13  1  0  0  0  0
  4 15  1  1  0  0  0
  4  2  1  0  0  0  0
  5  4  1  0  0  0  0
  6 18  1  0  0  0  0
  6  4  1  0  0  0  0
  7  6  2  0  0  0  0
  8  1  1  0  0  0  0
  9  1  1  0  0  0  0
 12  3  1  0  0  0  0
 14  3  1  0  0  0  0
 16  5  1  0  0  0  0
 17  5  1  0  0  0  0
 18 22  1  0  0  0  0
 19 25  1  0  0  0  0
 19 20  1  0  0  0  0
 19 18  1  0  0  0  0
 20 21  1  0  0  0  0
 21 22  1  0  0  0  0
 21 30  1  0  0  0  0
 21 29  1  0  0  0  0
 22 23  1  0  0  0  0
 22 31  1  1  0  0  0
 23 24  2  0  0  0  0
 26 19  1  0  0  0  0
 27 20  1  0  0  0  0
 28 20  1  0  0  0  0
 32 23  1  0  0  0  0
 32 33  1  0  0  0  0
 33 38  1  0  0  0  0
 33 43  1  1  0  0  0
 34 44  1  0  0  0  0
 34 33  1  0  0  0  0
 34 45  1  0  0  0  0
 35 34  1  0  0  0  0
 36 37  2  0  0  0  0
 36 35  1  0  0  0  0
 38 39  1  0  0  0  0
 40 36  1  0  0  0  0
 41 38  2  0  0  0  0
 42 32  1  0  0  0  0
 46 35  1  0  0  0  0
 47 35  1  0  0  0  0
 48 40  1  0  0  0  0
M  END
$$$$
