VPG.pdb
 OpenBabel07022419273D

 39 39  0  0  1  0  0  0  0  0999 V2000
   -0.7070   -2.3890    2.5130 C   0  0  0  0  0  0  0  0  0  0  0  0
   -0.2340   -2.9930    1.2210 C   0  0  0  0  0  0  0  0  0  0  0  0
   -0.4980   -4.5040    1.3200 C   0  0  0  0  0  0  0  0  0  0  0  0
    1.2250   -2.7410    0.9350 C   0  0  2  0  0  0  0  0  0  0  0  0
    2.0710   -3.2930    1.9800 N   0  0  0  0  0  0  0  0  0  0  0  0
    1.5540   -1.3280    0.6520 C   0  0  0  0  0  0  0  0  0  0  0  0
    2.4500   -0.7590    1.3710 O   0  0  0  0  0  0  0  0  0  0  0  0
   -1.5300   -3.0290    2.8940 H   0  0  0  0  0  0  0  0  0  0  0  0
   -1.1690   -1.3920    2.3560 H   0  0  0  0  0  0  0  0  0  0  0  0
    0.0620   -2.3700    3.3040 H   0  0  0  0  0  0  0  0  0  0  0  0
   -0.9000   -2.6420    0.4270 H   0  0  0  0  0  0  0  0  0  0  0  0
    0.3730   -4.8940    1.9240 H   0  0  0  0  0  0  0  0  0  0  0  0
   -1.3950   -4.7050    1.9120 H   0  0  0  0  0  0  0  0  0  0  0  0
   -0.4740   -4.9690    0.3350 H   0  0  0  0  0  0  0  0  0  0  0  0
    1.4680   -3.3260    0.0230 H   0  0  0  0  0  0  0  0  0  0  0  0
    2.0170   -2.7620    2.8710 H   0  0  0  0  0  0  0  0  0  0  0  0
    3.0390   -3.3900    1.6130 H   0  0  0  0  0  0  0  0  0  0  0  0
    0.9680   -0.5350   -0.3470 N   0  0  0  0  0  0  0  0  0  0  0  0
   -0.0600   -0.9510   -1.2760 C   0  0  0  0  0  0  0  0  0  0  0  0
    0.1650   -0.0790   -2.5250 C   0  0  0  0  0  0  0  0  0  0  0  0
    0.5680    1.2110   -1.9050 C   0  0  0  0  0  0  0  0  0  0  0  0
    1.2810    0.8210   -0.6380 C   0  0  1  0  0  0  0  0  0  0  0  0
    0.9350    1.8040    0.3940 C   0  0  0  0  0  0  0  0  0  0  0  0
    1.2160    3.0160    0.1230 O   0  0  0  0  0  0  0  0  0  0  0  0
    0.0770   -1.9860   -1.6490 H   0  0  0  0  0  0  0  0  0  0  0  0
   -1.0800   -0.7030   -0.9520 H   0  0  0  0  0  0  0  0  0  0  0  0
    0.9760   -0.5050   -3.1250 H   0  0  0  0  0  0  0  0  0  0  0  0
   -0.7890    0.0250   -3.0870 H   0  0  0  0  0  0  0  0  0  0  0  0
   -0.3700    1.7660   -1.6390 H   0  0  0  0  0  0  0  0  0  0  0  0
    1.1490    1.8750   -2.5480 H   0  0  0  0  0  0  0  0  0  0  0  0
    2.3800    0.9750   -0.8610 H   0  0  0  0  0  0  0  0  0  0  0  0
    0.3320    1.5470    1.6330 N   0  0  0  0  0  0  0  0  0  0  0  0
    0.0270    2.5910    2.5890 C   0  0  0  0  0  0  0  0  0  0  0  0
   -0.8980    3.5430    1.9710 C   0  0  0  0  0  0  0  0  0  0  0  0
   -1.2970    3.3800    0.8050 O   0  0  0  0  0  0  0  0  0  0  0  0
   -1.3820    4.6750    2.6390 O   0  0  0  0  0  0  0  0  0  0  0  0
    0.1000    0.5720    1.8650 H   0  0  0  0  0  0  0  0  0  0  0  0
    0.9580    3.1520    2.8550 H   0  0  0  0  0  0  0  0  0  0  0  0
   -0.3430    2.1640    3.5380 H   0  0  0  0  0  0  0  0  0  0  0  0
  1  8  1  0  0  0  0
  1 10  1  0  0  0  0
  2  3  1  0  0  0  0
  2  1  1  0  0  0  0
  3 13  1  0  0  0  0
  3 12  1  0  0  0  0
  4 15  1  6  0  0  0
  4  2  1  0  0  0  0
  4  5  1  0  0  0  0
  5 16  1  0  0  0  0
  6  4  1  0  0  0  0
  6  7  2  0  0  0  0
  9  1  1  0  0  0  0
 11  2  1  0  0  0  0
 14  3  1  0  0  0  0
 17  5  1  0  0  0  0
 18  6  1  0  0  0  0
 19 26  1  0  0  0  0
 19 18  1  0  0  0  0
 20 21  1  0  0  0  0
 20 19  1  0  0  0  0
 21 29  1  0  0  0  0
 21 22  1  0  0  0  0
 22 31  1  6  0  0  0
 22 18  1  0  0  0  0
 22 23  1  0  0  0  0
 23 32  1  0  0  0  0
 24 23  2  0  0  0  0
 25 19  1  0  0  0  0
 27 20  1  0  0  0  0
 28 20  1  0  0  0  0
 30 21  1  0  0  0  0
 32 37  1  0  0  0  0
 32 33  1  0  0  0  0
 33 38  1  0  0  0  0
 33 39  1  0  0  0  0
 34 33  1  0  0  0  0
 34 36  1  0  0  0  0
 35 34  2  0  0  0  0
M  END
$$$$
