VPH.pdb
 OpenBabel07022419273D

 49 50  0  0  1  0  0  0  0  0999 V2000
    3.4550   -4.6260    3.9770 C   0  0  0  0  0  0  0  0  0  0  0  0
    2.7540   -3.2700    3.8560 C   0  0  0  0  0  0  0  0  0  0  0  0
    1.5030   -3.3660    4.7010 C   0  0  0  0  0  0  0  0  0  0  0  0
    2.4220   -3.0550    2.3930 C   0  0  2  0  0  0  0  0  0  0  0  0
    3.5970   -3.0560    1.5880 N   0  0  0  0  0  0  0  0  0  0  0  0
    1.5560   -1.8710    2.2470 C   0  0  0  0  0  0  0  0  0  0  0  0
    0.5260   -1.8140    2.9870 O   0  0  0  0  0  0  0  0  0  0  0  0
    2.7090   -5.4140    3.8420 H   0  0  0  0  0  0  0  0  0  0  0  0
    4.2590   -4.7400    3.2350 H   0  0  0  0  0  0  0  0  0  0  0  0
    3.9220   -4.7320    4.9910 H   0  0  0  0  0  0  0  0  0  0  0  0
    3.4430   -2.5010    4.2490 H   0  0  0  0  0  0  0  0  0  0  0  0
    0.6950   -3.8550    4.1270 H   0  0  0  0  0  0  0  0  0  0  0  0
    1.2100   -2.4040    5.1450 H   0  0  0  0  0  0  0  0  0  0  0  0
    1.7180   -4.0530    5.5640 H   0  0  0  0  0  0  0  0  0  0  0  0
    1.7990   -3.9440    2.0970 H   0  0  0  0  0  0  0  0  0  0  0  0
    3.5960   -3.7770    0.8320 H   0  0  0  0  0  0  0  0  0  0  0  0
    4.4950   -3.0450    2.1230 H   0  0  0  0  0  0  0  0  0  0  0  0
    1.8050   -0.8010    1.3350 N   0  0  0  0  0  0  0  0  0  0  0  0
    2.9310   -0.7890    0.4500 C   0  0  0  0  0  0  0  0  0  0  0  0
    2.8050    0.4630   -0.3600 C   0  0  0  0  0  0  0  0  0  0  0  0
    2.0210    1.3710    0.5590 C   0  0  0  0  0  0  0  0  0  0  0  0
    1.0030    0.3910    1.1780 C   0  0  1  0  0  0  0  0  0  0  0  0
   -0.0750    0.2450    0.1960 C   0  0  0  0  0  0  0  0  0  0  0  0
   -0.1990   -0.8720   -0.4040 O   0  0  0  0  0  0  0  0  0  0  0  0
    3.8980   -0.6900    1.0170 H   0  0  0  0  0  0  0  0  0  0  0  0
    2.9620   -1.7010   -0.2020 H   0  0  0  0  0  0  0  0  0  0  0  0
    3.7840    0.9000   -0.6420 H   0  0  0  0  0  0  0  0  0  0  0  0
    2.1860    0.2490   -1.2800 H   0  0  0  0  0  0  0  0  0  0  0  0
    2.7080    1.7550    1.3220 H   0  0  0  0  0  0  0  0  0  0  0  0
    1.5210    2.1940    0.0440 H   0  0  0  0  0  0  0  0  0  0  0  0
    0.6960    0.8450    2.1400 H   0  0  0  0  0  0  0  0  0  0  0  0
   -0.9980    1.2570   -0.1430 N   0  0  0  0  0  0  0  0  0  0  0  0
   -2.0680    1.0660   -1.1380 C   0  0  1  0  0  0  0  0  0  0  0  0
   -3.4130    1.2010   -0.5140 C   0  0  0  0  0  0  0  0  0  0  0  0
   -4.4680    1.0070   -1.5280 C   0  0  0  0  0  0  0  0  0  0  0  0
   -5.0980    1.9480   -2.3110 C   0  0  0  0  0  0  0  0  0  0  0  0
   -6.0100    1.3120   -3.0880 N   0  0  0  0  0  0  0  0  0  0  0  0
   -5.9610    0.0070   -2.8060 C   0  0  0  0  0  0  0  0  0  0  0  0
   -5.0310   -0.1840   -1.8650 N   0  0  0  0  0  0  0  0  0  0  0  0
   -1.8380    1.9930   -2.2500 C   0  0  0  0  0  0  0  0  0  0  0  0
   -2.5430    2.0760   -3.2850 O   0  0  0  0  0  0  0  0  0  0  0  0
   -0.7450    2.8830   -2.1970 O   0  0  0  0  0  0  0  0  0  0  0  0
   -0.8860    2.1780    0.3600 H   0  0  0  0  0  0  0  0  0  0  0  0
   -1.9310    0.0010   -1.4940 H   0  0  0  0  0  0  0  0  0  0  0  0
   -3.4760    2.2500   -0.0980 H   0  0  0  0  0  0  0  0  0  0  0  0
   -3.5080    0.5020    0.3390 H   0  0  0  0  0  0  0  0  0  0  0  0
   -4.9150    3.0240   -2.3210 H   0  0  0  0  0  0  0  0  0  0  0  0
   -6.6140    1.8230   -3.7680 H   0  0  0  0  0  0  0  0  0  0  0  0
   -6.5600   -0.7520   -3.2550 H   0  0  0  0  0  0  0  0  0  0  0  0
  1 10  1  0  0  0  0
  2  1  1  0  0  0  0
  2 11  1  0  0  0  0
  2  3  1  0  0  0  0
  3 13  1  0  0  0  0
  3 14  1  0  0  0  0
  4 15  1  6  0  0  0
  4  2  1  0  0  0  0
  5 17  1  0  0  0  0
  5  4  1  0  0  0  0
  6  4  1  0  0  0  0
  6  7  2  0  0  0  0
  8  1  1  0  0  0  0
  9  1  1  0  0  0  0
 12  3  1  0  0  0  0
 16  5  1  0  0  0  0
 18  6  1  0  0  0  0
 19 25  1  0  0  0  0
 19 18  1  0  0  0  0
 20 19  1  0  0  0  0
 20 21  1  0  0  0  0
 21 22  1  0  0  0  0
 21 29  1  0  0  0  0
 22 18  1  0  0  0  0
 22 31  1  1  0  0  0
 23 22  1  0  0  0  0
 24 23  2  0  0  0  0
 26 19  1  0  0  0  0
 27 20  1  0  0  0  0
 28 20  1  0  0  0  0
 30 21  1  0  0  0  0
 32 23  1  0  0  0  0
 32 43  1  0  0  0  0
 33 44  1  6  0  0  0
 33 34  1  0  0  0  0
 33 32  1  0  0  0  0
 34 45  1  0  0  0  0
 34 46  1  0  0  0  0
 35 34  1  0  0  0  0
 36 35  2  0  0  0  0
 37 38  1  0  0  0  0
 37 36  1  0  0  0  0
 38 39  2  0  0  0  0
 39 35  1  0  0  0  0
 40 42  1  0  0  0  0
 40 33  1  0  0  0  0
 41 40  2  0  0  0  0
 47 36  1  0  0  0  0
 48 37  1  0  0  0  0
 49 38  1  0  0  0  0
M  END
$$$$
