VPI.pdb
 OpenBabel07022419273D

 51 51  0  0  1  0  0  0  0  0999 V2000
    0.4040   -4.5560    2.1560 C   0  0  0  0  0  0  0  0  0  0  0  0
    1.4760   -3.4850    2.2110 C   0  0  0  0  0  0  0  0  0  0  0  0
    1.1940   -2.5660    3.3350 C   0  0  0  0  0  0  0  0  0  0  0  0
    1.6020   -2.8340    0.8440 C   0  0  2  0  0  0  0  0  0  0  0  0
    1.9720   -3.9440   -0.0550 N   0  0  0  0  0  0  0  0  0  0  0  0
    2.6630   -1.8480    0.7350 C   0  0  0  0  0  0  0  0  0  0  0  0
    3.8400   -2.2290    0.4070 O   0  0  0  0  0  0  0  0  0  0  0  0
    0.1230   -4.9010    3.1720 H   0  0  0  0  0  0  0  0  0  0  0  0
   -0.5190   -4.0930    1.7200 H   0  0  0  0  0  0  0  0  0  0  0  0
    0.7160   -5.4370    1.5650 H   0  0  0  0  0  0  0  0  0  0  0  0
    2.4270   -4.0430    2.4570 H   0  0  0  0  0  0  0  0  0  0  0  0
    2.0010   -1.8180    3.4860 H   0  0  0  0  0  0  0  0  0  0  0  0
    0.1950   -2.0810    3.2470 H   0  0  0  0  0  0  0  0  0  0  0  0
    1.1610   -3.1690    4.2650 H   0  0  0  0  0  0  0  0  0  0  0  0
    0.6160   -2.4600    0.5600 H   0  0  0  0  0  0  0  0  0  0  0  0
    2.8310   -4.4150    0.2460 H   0  0  0  0  0  0  0  0  0  0  0  0
    1.1640   -4.5620   -0.2270 H   0  0  0  0  0  0  0  0  0  0  0  0
    2.5360   -0.4200    0.9620 N   0  0  0  0  0  0  0  0  0  0  0  0
    3.6660    0.4730    0.8850 C   0  0  0  0  0  0  0  0  0  0  0  0
    3.0860    1.8040    0.5540 C   0  0  0  0  0  0  0  0  0  0  0  0
    1.8390    1.7560    1.4490 C   0  0  0  0  0  0  0  0  0  0  0  0
    1.3590    0.3150    1.2500 C   0  0  1  0  0  0  0  0  0  0  0  0
    0.3850    0.3400    0.1240 C   0  0  0  0  0  0  0  0  0  0  0  0
    0.6970   -0.2200   -0.9480 O   0  0  0  0  0  0  0  0  0  0  0  0
    4.4320    0.1290    0.1610 H   0  0  0  0  0  0  0  0  0  0  0  0
    4.0710    0.5440    1.9180 H   0  0  0  0  0  0  0  0  0  0  0  0
    3.7300    2.6510    0.8280 H   0  0  0  0  0  0  0  0  0  0  0  0
    2.7760    1.8730   -0.5080 H   0  0  0  0  0  0  0  0  0  0  0  0
    2.1050    1.9020    2.5060 H   0  0  0  0  0  0  0  0  0  0  0  0
    1.0520    2.4370    1.0830 H   0  0  0  0  0  0  0  0  0  0  0  0
    0.9080   -0.0320    2.1850 H   0  0  0  0  0  0  0  0  0  0  0  0
   -2.5590   -1.1760    1.2240 C   0  0  0  0  0  0  0  0  0  0  0  0
   -3.2860   -0.8890   -0.0610 C   0  0  0  0  0  0  0  0  0  0  0  0
   -3.1610    0.5100   -0.5540 C   0  0  2  0  0  0  0  0  0  0  0  0
   -3.9920    0.5740   -1.8560 C   0  0  0  0  0  0  0  0  0  0  0  0
   -1.7800    0.9890   -0.8380 C   0  0  2  0  0  0  0  0  0  0  0  0
   -0.8680    0.9830    0.2610 N   0  0  0  0  0  0  0  0  0  0  0  0
   -1.8910    2.3820   -1.4070 C   0  0  0  0  0  0  0  0  0  0  0  0
   -1.2180    3.2800   -0.8470 O   0  0  0  0  0  0  0  0  0  0  0  0
   -2.6710    2.7080   -2.4800 O   0  0  0  0  0  0  0  0  0  0  0  0
   -3.1110   -1.9860    1.7870 H   0  0  0  0  0  0  0  0  0  0  0  0
   -2.5580   -0.2860    1.8860 H   0  0  0  0  0  0  0  0  0  0  0  0
   -1.5300   -1.5510    1.0910 H   0  0  0  0  0  0  0  0  0  0  0  0
   -2.9470   -1.5940   -0.8500 H   0  0  0  0  0  0  0  0  0  0  0  0
   -4.3600   -1.1650    0.1110 H   0  0  0  0  0  0  0  0  0  0  0  0
   -3.6910    1.1760    0.1490 H   0  0  0  0  0  0  0  0  0  0  0  0
   -4.6590   -0.3150   -1.9410 H   0  0  0  0  0  0  0  0  0  0  0  0
   -4.5630    1.5010   -1.9360 H   0  0  0  0  0  0  0  0  0  0  0  0
   -3.2900    0.4890   -2.7060 H   0  0  0  0  0  0  0  0  0  0  0  0
   -1.3690    0.3710   -1.6900 H   0  0  0  0  0  0  0  0  0  0  0  0
   -1.1520    1.4710    1.1620 H   0  0  0  0  0  0  0  0  0  0  0  0
  1  2  1  0  0  0  0
  1  8  1  0  0  0  0
  2 11  1  0  0  0  0
  2  3  1  0  0  0  0
  3 12  1  0  0  0  0
  3 14  1  0  0  0  0
  4 15  1  6  0  0  0
  4  2  1  0  0  0  0
  5 16  1  0  0  0  0
  5  4  1  0  0  0  0
  6  4  1  0  0  0  0
  6 18  1  0  0  0  0
  7  6  2  0  0  0  0
  9  1  1  0  0  0  0
 10  1  1  0  0  0  0
 13  3  1  0  0  0  0
 17  5  1  0  0  0  0
 18 22  1  0  0  0  0
 19 18  1  0  0  0  0
 19 26  1  0  0  0  0
 20 27  1  0  0  0  0
 20 19  1  0  0  0  0
 20 21  1  0  0  0  0
 21 29  1  0  0  0  0
 22 21  1  0  0  0  0
 22 31  1  1  0  0  0
 23 37  1  0  0  0  0
 23 22  1  0  0  0  0
 24 23  2  0  0  0  0
 25 19  1  0  0  0  0
 28 20  1  0  0  0  0
 30 21  1  0  0  0  0
 32 41  1  0  0  0  0
 32 42  1  0  0  0  0
 33 45  1  0  0  0  0
 33 32  1  0  0  0  0
 34 33  1  0  0  0  0
 34 46  1  1  0  0  0
 35 34  1  0  0  0  0
 36 50  1  6  0  0  0
 36 34  1  0  0  0  0
 36 37  1  0  0  0  0
 37 51  1  0  0  0  0
 38 39  1  0  0  0  0
 38 36  1  0  0  0  0
 40 38  2  0  0  0  0
 43 32  1  0  0  0  0
 44 33  1  0  0  0  0
 47 35  1  0  0  0  0
 48 35  1  0  0  0  0
 49 35  1  0  0  0  0
M  END
$$$$
