VPK.pdb
 OpenBabel07022419273D

 53 53  0  0  1  0  0  0  0  0999 V2000
    0.4180   -3.4420    5.2770 C   0  0  0  0  0  0  0  0  0  0  0  0
    1.5160   -2.7180    4.5350 C   0  0  0  0  0  0  0  0  0  0  0  0
    1.4410   -1.2470    4.7730 C   0  0  0  0  0  0  0  0  0  0  0  0
    1.3880   -3.0780    3.0500 C   0  0  2  0  0  0  0  0  0  0  0  0
    1.5470   -4.5500    2.9520 N   0  0  0  0  0  0  0  0  0  0  0  0
    2.4900   -2.5150    2.2470 C   0  0  0  0  0  0  0  0  0  0  0  0
    3.5540   -3.1770    2.1410 O   0  0  0  0  0  0  0  0  0  0  0  0
    0.5170   -3.2530    6.3750 H   0  0  0  0  0  0  0  0  0  0  0  0
   -0.5650   -2.9980    4.9940 H   0  0  0  0  0  0  0  0  0  0  0  0
    0.3800   -4.5130    5.0430 H   0  0  0  0  0  0  0  0  0  0  0  0
    2.5070   -3.0790    4.9090 H   0  0  0  0  0  0  0  0  0  0  0  0
    2.1600   -0.6620    4.1770 H   0  0  0  0  0  0  0  0  0  0  0  0
    0.4120   -0.8790    4.5410 H   0  0  0  0  0  0  0  0  0  0  0  0
    1.6930   -0.9910    5.8420 H   0  0  0  0  0  0  0  0  0  0  0  0
    0.4280   -2.7420    2.6860 H   0  0  0  0  0  0  0  0  0  0  0  0
    2.4840   -4.7570    3.3590 H   0  0  0  0  0  0  0  0  0  0  0  0
    1.5570   -4.7380    1.9100 H   0  0  0  0  0  0  0  0  0  0  0  0
    2.3890   -1.2640    1.5940 N   0  0  0  0  0  0  0  0  0  0  0  0
    3.4930   -0.6500    0.8250 C   0  0  0  0  0  0  0  0  0  0  0  0
    3.3890    0.8080    1.1500 C   0  0  0  0  0  0  0  0  0  0  0  0
    1.9520    1.0570    1.5150 C   0  0  0  0  0  0  0  0  0  0  0  0
    1.3110   -0.3230    1.4540 C   0  0  1  0  0  0  0  0  0  0  0  0
    0.7280   -0.5050    0.0700 C   0  0  0  0  0  0  0  0  0  0  0  0
    1.1960   -1.3740   -0.6830 O   0  0  0  0  0  0  0  0  0  0  0  0
    3.4020   -0.8060   -0.2460 H   0  0  0  0  0  0  0  0  0  0  0  0
    4.4540   -1.0980    1.1530 H   0  0  0  0  0  0  0  0  0  0  0  0
    4.0520    0.9970    2.0390 H   0  0  0  0  0  0  0  0  0  0  0  0
    3.7080    1.4530    0.2840 H   0  0  0  0  0  0  0  0  0  0  0  0
    1.4430    1.7390    0.7820 H   0  0  0  0  0  0  0  0  0  0  0  0
    1.8980    1.4820    2.5380 H   0  0  0  0  0  0  0  0  0  0  0  0
    0.5270   -0.4790    2.1950 H   0  0  0  0  0  0  0  0  0  0  0  0
   -0.3290    0.2820   -0.3850 N   0  0  0  0  0  0  0  0  0  0  0  0
   -0.8830    0.0650   -1.7780 C   0  0  1  0  0  0  0  0  0  0  0  0
   -2.2800   -0.4450   -1.5810 C   0  0  0  0  0  0  0  0  0  0  0  0
   -3.1330   -0.8310   -2.6840 C   0  0  0  0  0  0  0  0  0  0  0  0
   -3.5590    0.0600   -3.7580 C   0  0  0  0  0  0  0  0  0  0  0  0
   -4.2710    1.3170   -3.3770 C   0  0  0  0  0  0  0  0  0  0  0  0
   -5.4990    1.0870   -2.6480 N   0  0  0  0  0  0  0  0  0  0  0  0
   -0.7470    1.3510   -2.4700 C   0  0  0  0  0  0  0  0  0  0  0  0
   -0.3910    2.3740   -1.7820 O   0  0  0  0  0  0  0  0  0  0  0  0
   -0.9600    1.5570   -3.7910 O   0  0  0  0  0  0  0  0  0  0  0  0
   -0.7720    1.0120    0.1580 H   0  0  0  0  0  0  0  0  0  0  0  0
   -0.2690   -0.7520   -2.1880 H   0  0  0  0  0  0  0  0  0  0  0  0
   -2.8130    0.1980   -0.8020 H   0  0  0  0  0  0  0  0  0  0  0  0
   -2.1250   -1.4030   -0.9540 H   0  0  0  0  0  0  0  0  0  0  0  0
   -4.0380   -1.4190   -2.2770 H   0  0  0  0  0  0  0  0  0  0  0  0
   -2.5870   -1.7030   -3.2160 H   0  0  0  0  0  0  0  0  0  0  0  0
   -4.4250   -0.5460   -4.2900 H   0  0  0  0  0  0  0  0  0  0  0  0
   -2.8690    0.1850   -4.5730 H   0  0  0  0  0  0  0  0  0  0  0  0
   -4.5540    1.8410   -4.3150 H   0  0  0  0  0  0  0  0  0  0  0  0
   -3.6410    2.0280   -2.8060 H   0  0  0  0  0  0  0  0  0  0  0  0
   -5.8150    1.9450   -2.1830 H   0  0  0  0  0  0  0  0  0  0  0  0
   -5.4740    0.2470   -2.0410 H   0  0  0  0  0  0  0  0  0  0  0  0
  1  8  1  0  0  0  0
  2  3  1  0  0  0  0
  2 11  1  0  0  0  0
  2  1  1  0  0  0  0
  3 14  1  0  0  0  0
  4 15  1  6  0  0  0
  4  2  1  0  0  0  0
  5  4  1  0  0  0  0
  5 16  1  0  0  0  0
  6  4  1  0  0  0  0
  7  6  2  0  0  0  0
  9  1  1  0  0  0  0
 10  1  1  0  0  0  0
 12  3  1  0  0  0  0
 13  3  1  0  0  0  0
 17  5  1  0  0  0  0
 18  6  1  0  0  0  0
 19 20  1  0  0  0  0
 19 26  1  0  0  0  0
 19 18  1  0  0  0  0
 20 21  1  0  0  0  0
 20 27  1  0  0  0  0
 21 30  1  0  0  0  0
 22 21  1  0  0  0  0
 22 18  1  0  0  0  0
 22 31  1  1  0  0  0
 23 22  1  0  0  0  0
 24 23  2  0  0  0  0
 25 19  1  0  0  0  0
 28 20  1  0  0  0  0
 29 21  1  0  0  0  0
 32 23  1  0  0  0  0
 32 42  1  0  0  0  0
 33 43  1  6  0  0  0
 33 34  1  0  0  0  0
 33 32  1  0  0  0  0
 34 45  1  0  0  0  0
 34 44  1  0  0  0  0
 35 46  1  0  0  0  0
 35 34  1  0  0  0  0
 36 37  1  0  0  0  0
 36 35  1  0  0  0  0
 37 51  1  0  0  0  0
 37 38  1  0  0  0  0
 38 52  1  0  0  0  0
 38 53  1  0  0  0  0
 39 40  1  0  0  0  0
 39 33  1  0  0  0  0
 41 39  2  0  0  0  0
 47 35  1  0  0  0  0
 48 36  1  0  0  0  0
 49 36  1  0  0  0  0
 50 37  1  0  0  0  0
M  END
$$$$
