VPM.pdb
 OpenBabel07022419273D

 49 49  0  0  1  0  0  0  0  0999 V2000
    0.8710   -5.3340    0.8260 C   0  0  0  0  0  0  0  0  0  0  0  0
    1.5030   -3.9100    0.6620 C   0  0  0  0  0  0  0  0  0  0  0  0
    1.7730   -3.5460    2.1410 C   0  0  0  0  0  0  0  0  0  0  0  0
    0.3910   -3.0550    0.1780 C   0  0  2  0  0  0  0  0  0  0  0  0
   -0.1260   -3.6690   -1.0860 N   0  0  0  0  0  0  0  0  0  0  0  0
    0.6170   -1.6680   -0.1660 C   0  0  0  0  0  0  0  0  0  0  0  0
   -0.3930   -1.1440   -0.8640 O   0  0  0  0  0  0  0  0  0  0  0  0
    1.4880   -5.9360    1.5140 H   0  0  0  0  0  0  0  0  0  0  0  0
   -0.0950   -5.1400    1.3340 H   0  0  0  0  0  0  0  0  0  0  0  0
    0.6980   -5.7810   -0.1490 H   0  0  0  0  0  0  0  0  0  0  0  0
    2.3990   -3.9740    0.0640 H   0  0  0  0  0  0  0  0  0  0  0  0
    2.8560   -3.5540    2.3550 H   0  0  0  0  0  0  0  0  0  0  0  0
    1.2920   -2.5670    2.3510 H   0  0  0  0  0  0  0  0  0  0  0  0
    1.2970   -4.2600    2.8330 H   0  0  0  0  0  0  0  0  0  0  0  0
   -0.4400   -3.1880    0.9290 H   0  0  0  0  0  0  0  0  0  0  0  0
   -0.8290   -2.9820   -1.4380 H   0  0  0  0  0  0  0  0  0  0  0  0
    0.7110   -3.6000   -1.7320 H   0  0  0  0  0  0  0  0  0  0  0  0
    1.6350   -0.7520    0.0570 N   0  0  0  0  0  0  0  0  0  0  0  0
    2.9310   -0.9200    0.6390 C   0  0  0  0  0  0  0  0  0  0  0  0
    3.8260   -0.0710   -0.3130 C   0  0  0  0  0  0  0  0  0  0  0  0
    2.8200    0.7430   -1.1530 C   0  0  0  0  0  0  0  0  0  0  0  0
    1.6530    0.7000   -0.2340 C   0  0  1  0  0  0  0  0  0  0  0  0
    0.4210    1.2960   -0.6350 C   0  0  0  0  0  0  0  0  0  0  0  0
    0.3010    1.9190   -1.7330 O   0  0  0  0  0  0  0  0  0  0  0  0
    3.3410   -1.9270    0.6720 H   0  0  0  0  0  0  0  0  0  0  0  0
    2.9490   -0.3900    1.6040 H   0  0  0  0  0  0  0  0  0  0  0  0
    4.4150    0.6370    0.2730 H   0  0  0  0  0  0  0  0  0  0  0  0
    4.4290   -0.7180   -0.9510 H   0  0  0  0  0  0  0  0  0  0  0  0
    3.1690    1.7830   -1.2690 H   0  0  0  0  0  0  0  0  0  0  0  0
    2.6990    0.2250   -2.1070 H   0  0  0  0  0  0  0  0  0  0  0  0
    2.0460    1.1460    0.7530 H   0  0  0  0  0  0  0  0  0  0  0  0
   -1.4390    0.9290    3.5560 C   0  0  0  0  0  0  0  0  0  0  0  0
   -2.7290   -0.0250    2.7480 S   0  0  0  0  0  0  0  0  0  0  0  0
   -3.6620    0.8200    1.5240 C   0  0  0  0  0  0  0  0  0  0  0  0
   -3.1940    1.0800    0.1700 C   0  0  0  0  0  0  0  0  0  0  0  0
   -1.9880    1.8020   -0.1840 C   0  0  2  0  0  0  0  0  0  0  0  0
   -0.7460    1.2110    0.2130 N   0  0  0  0  0  0  0  0  0  0  0  0
   -2.1060    3.1960    0.4240 C   0  0  0  0  0  0  0  0  0  0  0  0
   -1.2050    3.6870    1.1110 O   0  0  0  0  0  0  0  0  0  0  0  0
   -3.2750    3.8680    0.1610 O   0  0  0  0  0  0  0  0  0  0  0  0
   -1.4140    1.9520    3.1810 H   0  0  0  0  0  0  0  0  0  0  0  0
   -0.4280    0.4340    3.4420 H   0  0  0  0  0  0  0  0  0  0  0  0
   -1.6900    0.9100    4.6580 H   0  0  0  0  0  0  0  0  0  0  0  0
   -4.0270    1.8200    1.9970 H   0  0  0  0  0  0  0  0  0  0  0  0
   -4.6460    0.2090    1.4020 H   0  0  0  0  0  0  0  0  0  0  0  0
   -4.0980    1.5040   -0.4200 H   0  0  0  0  0  0  0  0  0  0  0  0
   -3.1300    0.0490   -0.3560 H   0  0  0  0  0  0  0  0  0  0  0  0
   -1.9660    2.0060   -1.2910 H   0  0  0  0  0  0  0  0  0  0  0  0
   -0.5870    0.6940    1.0820 H   0  0  0  0  0  0  0  0  0  0  0  0
  1  9  1  0  0  0  0
  1  8  1  0  0  0  0
  2  1  1  0  0  0  0
  2  3  1  0  0  0  0
  3 13  1  0  0  0  0
  3 12  1  0  0  0  0
  3 14  1  0  0  0  0
  4  2  1  0  0  0  0
  4 15  1  1  0  0  0
  5  4  1  0  0  0  0
  6 18  1  0  0  0  0
  6  4  1  0  0  0  0
  7  6  2  0  0  0  0
 10  1  1  0  0  0  0
 11  2  1  0  0  0  0
 16  5  1  0  0  0  0
 17  5  1  0  0  0  0
 18 19  1  0  0  0  0
 19 25  1  0  0  0  0
 19 26  1  0  0  0  0
 20 27  1  0  0  0  0
 20 19  1  0  0  0  0
 21 20  1  0  0  0  0
 21 22  1  0  0  0  0
 22 18  1  0  0  0  0
 22 31  1  1  0  0  0
 23 22  1  0  0  0  0
 23 37  1  0  0  0  0
 24 23  2  0  0  0  0
 28 20  1  0  0  0  0
 29 21  1  0  0  0  0
 30 21  1  0  0  0  0
 32 43  1  0  0  0  0
 33 32  1  0  0  0  0
 34 44  1  0  0  0  0
 34 33  1  0  0  0  0
 35 34  1  0  0  0  0
 36 48  1  6  0  0  0
 36 35  1  0  0  0  0
 36 37  1  0  0  0  0
 36 38  1  0  0  0  0
 37 49  1  0  0  0  0
 38 39  1  0  0  0  0
 40 38  2  0  0  0  0
 41 32  1  0  0  0  0
 42 32  1  0  0  0  0
 45 34  1  0  0  0  0
 46 35  1  0  0  0  0
 47 35  1  0  0  0  0
M  END
$$$$
