VPN.pdb
 OpenBabel07022419273D

 46 46  0  0  1  0  0  0  0  0999 V2000
   -2.7540   -4.7220   -1.3360 C   0  0  0  0  0  0  0  0  0  0  0  0
   -1.7850   -3.8140   -0.5840 C   0  0  0  0  0  0  0  0  0  0  0  0
   -2.0980   -3.9310    0.8700 C   0  0  0  0  0  0  0  0  0  0  0  0
   -1.8530   -2.3990   -1.1260 C   0  0  2  0  0  0  0  0  0  0  0  0
   -1.5080   -2.4470   -2.4850 N   0  0  0  0  0  0  0  0  0  0  0  0
   -1.1330   -1.4430   -0.2500 C   0  0  0  0  0  0  0  0  0  0  0  0
   -1.5750   -1.5460    0.9580 O   0  0  0  0  0  0  0  0  0  0  0  0
   -2.5780   -5.7470   -0.9720 H   0  0  0  0  0  0  0  0  0  0  0  0
   -3.7780   -4.4060   -1.0820 H   0  0  0  0  0  0  0  0  0  0  0  0
   -2.6110   -4.6510   -2.4280 H   0  0  0  0  0  0  0  0  0  0  0  0
   -0.7710   -4.2350   -0.7480 H   0  0  0  0  0  0  0  0  0  0  0  0
   -2.3730   -5.0160    1.0420 H   0  0  0  0  0  0  0  0  0  0  0  0
   -2.9940   -3.3750    1.1980 H   0  0  0  0  0  0  0  0  0  0  0  0
   -1.2070   -3.7790    1.5040 H   0  0  0  0  0  0  0  0  0  0  0  0
   -2.9430   -2.1060   -1.0420 H   0  0  0  0  0  0  0  0  0  0  0  0
   -2.3130   -2.5150   -3.1470 H   0  0  0  0  0  0  0  0  0  0  0  0
   -0.8470   -3.2150   -2.7610 H   0  0  0  0  0  0  0  0  0  0  0  0
   -0.1260   -0.5460   -0.6150 N   0  0  0  0  0  0  0  0  0  0  0  0
    0.4490   -0.3150   -1.9630 C   0  0  0  0  0  0  0  0  0  0  0  0
    0.2710    1.2100   -2.0450 C   0  0  0  0  0  0  0  0  0  0  0  0
    0.1680    1.6880   -0.5960 C   0  0  0  0  0  0  0  0  0  0  0  0
    0.6470    0.3920    0.1190 C   0  0  1  0  0  0  0  0  0  0  0  0
    0.5500    0.5390    1.5400 C   0  0  0  0  0  0  0  0  0  0  0  0
   -0.1290   -0.1890    2.2800 O   0  0  0  0  0  0  0  0  0  0  0  0
   -0.0120   -0.8270   -2.7670 H   0  0  0  0  0  0  0  0  0  0  0  0
    1.5570   -0.4840   -1.8580 H   0  0  0  0  0  0  0  0  0  0  0  0
    1.1440    1.6370   -2.5540 H   0  0  0  0  0  0  0  0  0  0  0  0
   -0.6910    1.3860   -2.5840 H   0  0  0  0  0  0  0  0  0  0  0  0
    0.8700    2.5160   -0.3850 H   0  0  0  0  0  0  0  0  0  0  0  0
   -0.8780    1.9060   -0.3340 H   0  0  0  0  0  0  0  0  0  0  0  0
    1.7410    0.3530   -0.2270 H   0  0  0  0  0  0  0  0  0  0  0  0
    4.5400    0.2120    4.6190 N   0  0  0  0  0  0  0  0  0  0  0  0
    3.2390    0.4680    4.0930 C   0  0  0  0  0  0  0  0  0  0  0  0
    2.7190   -0.4440    3.4000 O   0  0  0  0  0  0  0  0  0  0  0  0
    2.5320    1.7350    4.3430 C   0  0  0  0  0  0  0  0  0  0  0  0
    1.1780    1.7400    3.6720 C   0  0  2  0  0  0  0  0  0  0  0  0
    1.2610    1.5800    2.2410 N   0  0  0  0  0  0  0  0  0  0  0  0
    0.4450    3.0150    4.0150 C   0  0  0  0  0  0  0  0  0  0  0  0
    0.2590    3.3520    5.2040 O   0  0  0  0  0  0  0  0  0  0  0  0
   -0.0180    3.8050    2.9720 O   0  0  0  0  0  0  0  0  0  0  0  0
    5.2200    0.9910    4.6620 H   0  0  0  0  0  0  0  0  0  0  0  0
    4.8140   -0.7220    4.9530 H   0  0  0  0  0  0  0  0  0  0  0  0
    2.4170    1.9000    5.4380 H   0  0  0  0  0  0  0  0  0  0  0  0
    3.1750    2.5660    3.9790 H   0  0  0  0  0  0  0  0  0  0  0  0
    0.5920    0.8920    4.1200 H   0  0  0  0  0  0  0  0  0  0  0  0
    1.8460    2.2290    1.6980 H   0  0  0  0  0  0  0  0  0  0  0  0
  1  9  1  0  0  0  0
  1  8  1  0  0  0  0
  1  2  1  0  0  0  0
  2  3  1  0  0  0  0
  3 12  1  0  0  0  0
  3 13  1  0  0  0  0
  3 14  1  0  0  0  0
  4 15  1  1  0  0  0
  4  2  1  0  0  0  0
  4  6  1  0  0  0  0
  5  4  1  0  0  0  0
  6  7  2  0  0  0  0
 10  1  1  0  0  0  0
 11  2  1  0  0  0  0
 16  5  1  0  0  0  0
 17  5  1  0  0  0  0
 18  6  1  0  0  0  0
 18 22  1  0  0  0  0
 19 26  1  0  0  0  0
 19 18  1  0  0  0  0
 20 19  1  0  0  0  0
 20 21  1  0  0  0  0
 21 29  1  0  0  0  0
 21 30  1  0  0  0  0
 21 22  1  0  0  0  0
 22 31  1  6  0  0  0
 22 23  1  0  0  0  0
 23 37  1  0  0  0  0
 23 24  2  0  0  0  0
 25 19  1  0  0  0  0
 27 20  1  0  0  0  0
 28 20  1  0  0  0  0
 32 41  1  0  0  0  0
 32 42  1  0  0  0  0
 33 35  1  0  0  0  0
 33 32  1  0  0  0  0
 34 33  2  0  0  0  0
 35 43  1  0  0  0  0
 36 38  1  0  0  0  0
 36 45  1  1  0  0  0
 36 35  1  0  0  0  0
 37 36  1  0  0  0  0
 38 39  1  0  0  0  0
 40 38  2  0  0  0  0
 44 35  1  0  0  0  0
 46 37  1  0  0  0  0
M  END
$$$$
