VPQ.pdb
 OpenBabel07022419273D

 49 49  0  0  1  0  0  0  0  0999 V2000
    0.3920   -4.8960    0.9920 C   0  0  0  0  0  0  0  0  0  0  0  0
    1.1410   -3.6070    1.2410 C   0  0  0  0  0  0  0  0  0  0  0  0
    0.3180   -2.6970    2.0620 C   0  0  0  0  0  0  0  0  0  0  0  0
    1.6850   -3.0040   -0.0590 C   0  0  2  0  0  0  0  0  0  0  0  0
    2.5920   -4.1010   -0.5330 N   0  0  0  0  0  0  0  0  0  0  0  0
    2.5220   -1.8770    0.2910 C   0  0  0  0  0  0  0  0  0  0  0  0
    3.7510   -2.2460    0.5360 O   0  0  0  0  0  0  0  0  0  0  0  0
   -0.2090   -5.1030    1.9010 H   0  0  0  0  0  0  0  0  0  0  0  0
   -0.3450   -4.7340    0.1640 H   0  0  0  0  0  0  0  0  0  0  0  0
    1.0570   -5.7510    0.7990 H   0  0  0  0  0  0  0  0  0  0  0  0
    2.0280   -3.9040    1.8890 H   0  0  0  0  0  0  0  0  0  0  0  0
    0.3450   -3.0640    3.1310 H   0  0  0  0  0  0  0  0  0  0  0  0
    0.7430   -1.6710    2.1300 H   0  0  0  0  0  0  0  0  0  0  0  0
   -0.7220   -2.7120    1.6730 H   0  0  0  0  0  0  0  0  0  0  0  0
    0.9680   -2.9230   -0.8530 H   0  0  0  0  0  0  0  0  0  0  0  0
    2.8120   -3.9460   -1.5360 H   0  0  0  0  0  0  0  0  0  0  0  0
    3.4430   -4.0960    0.0620 H   0  0  0  0  0  0  0  0  0  0  0  0
    2.2600   -0.5100    0.4110 N   0  0  0  0  0  0  0  0  0  0  0  0
    3.3870    0.4020    0.8570 C   0  0  0  0  0  0  0  0  0  0  0  0
    3.2900    1.5480   -0.1250 C   0  0  0  0  0  0  0  0  0  0  0  0
    1.9450    1.3840   -0.7970 C   0  0  0  0  0  0  0  0  0  0  0  0
    1.2600    0.4500    0.2490 C   0  0  1  0  0  0  0  0  0  0  0  0
   -0.0940    0.1980   -0.0880 C   0  0  0  0  0  0  0  0  0  0  0  0
   -0.5820   -0.8960   -0.3780 O   0  0  0  0  0  0  0  0  0  0  0  0
    4.3400   -0.1130    0.8300 H   0  0  0  0  0  0  0  0  0  0  0  0
    3.1430    0.7000    1.8930 H   0  0  0  0  0  0  0  0  0  0  0  0
    4.1280    1.5480   -0.8380 H   0  0  0  0  0  0  0  0  0  0  0  0
    3.2390    2.4810    0.4780 H   0  0  0  0  0  0  0  0  0  0  0  0
    2.0580    0.8450   -1.7540 H   0  0  0  0  0  0  0  0  0  0  0  0
    1.3760    2.3220   -0.8700 H   0  0  0  0  0  0  0  0  0  0  0  0
    1.2720    1.1340    1.1730 H   0  0  0  0  0  0  0  0  0  0  0  0
   -1.9420   -0.4480    3.6440 N   0  0  0  0  0  0  0  0  0  0  0  0
   -2.1660    0.5920    2.6580 C   0  0  0  0  0  0  0  0  0  0  0  0
   -1.3650    1.5410    2.5530 O   0  0  0  0  0  0  0  0  0  0  0  0
   -3.3500    0.4610    1.8280 C   0  0  0  0  0  0  0  0  0  0  0  0
   -3.4200    1.3100    0.6090 C   0  0  0  0  0  0  0  0  0  0  0  0
   -2.3900    1.0960   -0.4370 C   0  0  2  0  0  0  0  0  0  0  0  0
   -1.0320    1.3040   -0.1070 N   0  0  0  0  0  0  0  0  0  0  0  0
   -2.7320    1.9960   -1.5860 C   0  0  0  0  0  0  0  0  0  0  0  0
   -3.8980    1.9910   -2.0630 O   0  0  0  0  0  0  0  0  0  0  0  0
   -1.7960    2.8430   -2.1460 O   0  0  0  0  0  0  0  0  0  0  0  0
   -2.0700   -1.4520    3.3760 H   0  0  0  0  0  0  0  0  0  0  0  0
   -1.6570   -0.2100    4.6110 H   0  0  0  0  0  0  0  0  0  0  0  0
   -4.2300    0.7390    2.4740 H   0  0  0  0  0  0  0  0  0  0  0  0
   -3.5620   -0.6010    1.5400 H   0  0  0  0  0  0  0  0  0  0  0  0
   -4.4340    1.0970    0.1450 H   0  0  0  0  0  0  0  0  0  0  0  0
   -3.5120    2.3970    0.8900 H   0  0  0  0  0  0  0  0  0  0  0  0
   -2.5370    0.0250   -0.8120 H   0  0  0  0  0  0  0  0  0  0  0  0
   -0.6620    2.2460    0.1100 H   0  0  0  0  0  0  0  0  0  0  0  0
  1  2  1  0  0  0  0
  1  8  1  0  0  0  0
  2 11  1  0  0  0  0
  2  3  1  0  0  0  0
  3 13  1  0  0  0  0
  3 12  1  0  0  0  0
  4 15  1  6  0  0  0
  4  6  1  0  0  0  0
  4  2  1  0  0  0  0
  5  4  1  0  0  0  0
  5 17  1  0  0  0  0
  6 18  1  0  0  0  0
  6  7  2  0  0  0  0
  9  1  1  0  0  0  0
 10  1  1  0  0  0  0
 14  3  1  0  0  0  0
 16  5  1  0  0  0  0
 18 19  1  0  0  0  0
 19 26  1  0  0  0  0
 20 28  1  0  0  0  0
 20 19  1  0  0  0  0
 21 20  1  0  0  0  0
 21 22  1  0  0  0  0
 22 18  1  0  0  0  0
 22 31  1  1  0  0  0
 23 22  1  0  0  0  0
 24 23  2  0  0  0  0
 25 19  1  0  0  0  0
 27 20  1  0  0  0  0
 29 21  1  0  0  0  0
 30 21  1  0  0  0  0
 32 43  1  0  0  0  0
 33 32  1  0  0  0  0
 34 33  2  0  0  0  0
 35 44  1  0  0  0  0
 35 33  1  0  0  0  0
 36 47  1  0  0  0  0
 36 35  1  0  0  0  0
 37 48  1  6  0  0  0
 37 38  1  0  0  0  0
 37 36  1  0  0  0  0
 38 23  1  0  0  0  0
 38 49  1  0  0  0  0
 39 37  1  0  0  0  0
 40 39  1  0  0  0  0
 41 39  2  0  0  0  0
 42 32  1  0  0  0  0
 45 35  1  0  0  0  0
 46 36  1  0  0  0  0
M  END
$$$$
