VPY.pdb
 OpenBabel07022419273D

 53 54  0  0  1  0  0  0  0  0999 V2000
    2.8130   -1.4000    5.5430 C   0  0  0  0  0  0  0  0  0  0  0  0
    1.9480   -1.4470    4.3160 C   0  0  0  0  0  0  0  0  0  0  0  0
    0.5440   -1.0910    4.6930 C   0  0  0  0  0  0  0  0  0  0  0  0
    2.5340   -0.5230    3.2650 C   0  0  2  0  0  0  0  0  0  0  0  0
    2.6200    0.8200    3.6710 N   0  0  0  0  0  0  0  0  0  0  0  0
    1.8770   -0.6920    1.9560 C   0  0  0  0  0  0  0  0  0  0  0  0
    1.6560   -1.9420    1.6890 O   0  0  0  0  0  0  0  0  0  0  0  0
    3.8730   -1.1740    5.3260 H   0  0  0  0  0  0  0  0  0  0  0  0
    2.4570   -0.6090    6.2570 H   0  0  0  0  0  0  0  0  0  0  0  0
    2.7950   -2.3600    6.1110 H   0  0  0  0  0  0  0  0  0  0  0  0
    1.9690   -2.4850    3.9290 H   0  0  0  0  0  0  0  0  0  0  0  0
    0.3310   -0.0190    4.7290 H   0  0  0  0  0  0  0  0  0  0  0  0
   -0.1400   -1.6510    4.0260 H   0  0  0  0  0  0  0  0  0  0  0  0
    0.3710   -1.5190    5.7230 H   0  0  0  0  0  0  0  0  0  0  0  0
    3.5930   -0.8960    3.1120 H   0  0  0  0  0  0  0  0  0  0  0  0
    2.0110    1.1070    4.4650 H   0  0  0  0  0  0  0  0  0  0  0  0
    3.5940    1.1880    3.7750 H   0  0  0  0  0  0  0  0  0  0  0  0
    1.4840    0.2390    1.0260 N   0  0  0  0  0  0  0  0  0  0  0  0
    1.7100    1.6800    1.0990 C   0  0  0  0  0  0  0  0  0  0  0  0
    2.2560    1.9350   -0.3270 C   0  0  0  0  0  0  0  0  0  0  0  0
    1.8360    0.7020   -1.1460 C   0  0  0  0  0  0  0  0  0  0  0  0
    0.7840    0.1230   -0.2030 C   0  0  1  0  0  0  0  0  0  0  0  0
    0.1370   -1.0790   -0.6220 C   0  0  0  0  0  0  0  0  0  0  0  0
   -0.1310   -2.0580    0.1130 O   0  0  0  0  0  0  0  0  0  0  0  0
    0.7070    2.1530    1.1890 H   0  0  0  0  0  0  0  0  0  0  0  0
    2.4160    2.0160    1.8380 H   0  0  0  0  0  0  0  0  0  0  0  0
    1.7970    2.8420   -0.7560 H   0  0  0  0  0  0  0  0  0  0  0  0
    3.3520    1.9850   -0.2290 H   0  0  0  0  0  0  0  0  0  0  0  0
    1.4270    1.0140   -2.1040 H   0  0  0  0  0  0  0  0  0  0  0  0
    2.7180    0.0800   -1.2570 H   0  0  0  0  0  0  0  0  0  0  0  0
   -0.0270    0.9710   -0.2440 H   0  0  0  0  0  0  0  0  0  0  0  0
   -5.7960    0.4560    0.4800 O   0  0  0  0  0  0  0  0  0  0  0  0
   -4.9210   -0.2090   -0.3990 C   0  0  0  0  0  0  0  0  0  0  0  0
   -4.8950   -1.5880   -0.4220 C   0  0  0  0  0  0  0  0  0  0  0  0
   -4.0490   -2.2610   -1.2730 C   0  0  0  0  0  0  0  0  0  0  0  0
   -3.2190   -1.5620   -2.1110 C   0  0  0  0  0  0  0  0  0  0  0  0
   -2.2850   -2.2400   -3.0510 C   0  0  0  0  0  0  0  0  0  0  0  0
   -0.9360   -2.4960   -2.4210 C   0  0  2  0  0  0  0  0  0  0  0  0
   -0.2860   -1.2830   -2.0000 N   0  0  0  0  0  0  0  0  0  0  0  0
   -0.0920   -3.1460   -3.4650 C   0  0  0  0  0  0  0  0  0  0  0  0
   -0.4470   -4.2290   -3.9960 O   0  0  0  0  0  0  0  0  0  0  0  0
   -3.2430   -0.1870   -2.0900 C   0  0  0  0  0  0  0  0  0  0  0  0
   -4.0860    0.4900   -1.2420 C   0  0  0  0  0  0  0  0  0  0  0  0
    1.1060   -2.5870   -3.8860 O   0  0  0  0  0  0  0  0  0  0  0  0
   -5.5470    0.5040    1.4780 H   0  0  0  0  0  0  0  0  0  0  0  0
   -5.5560   -2.1720    0.2450 H   0  0  0  0  0  0  0  0  0  0  0  0
   -4.0210   -3.3530   -1.2990 H   0  0  0  0  0  0  0  0  0  0  0  0
   -2.7300   -3.2170   -3.3090 H   0  0  0  0  0  0  0  0  0  0  0  0
   -2.2250   -1.6100   -3.9600 H   0  0  0  0  0  0  0  0  0  0  0  0
   -1.0740   -3.2220   -1.6230 H   0  0  0  0  0  0  0  0  0  0  0  0
   -0.0800   -0.4910   -2.6430 H   0  0  0  0  0  0  0  0  0  0  0  0
   -2.5860    0.4050   -2.7530 H   0  0  0  0  0  0  0  0  0  0  0  0
   -4.1350    1.5820   -1.1950 H   0  0  0  0  0  0  0  0  0  0  0  0
  1 10  1  0  0  0  0
  1  9  1  0  0  0  0
  2  3  1  0  0  0  0
  2  1  1  0  0  0  0
  3 12  1  0  0  0  0
  3 14  1  0  0  0  0
  4 15  1  6  0  0  0
  4  5  1  0  0  0  0
  4  2  1  0  0  0  0
  5 17  1  0  0  0  0
  5 16  1  0  0  0  0
  6  4  1  0  0  0  0
  7  6  2  0  0  0  0
  8  1  1  0  0  0  0
 11  2  1  0  0  0  0
 13  3  1  0  0  0  0
 18 19  1  0  0  0  0
 18  6  1  0  0  0  0
 19 25  1  0  0  0  0
 19 26  1  0  0  0  0
 20 28  1  0  0  0  0
 20 19  1  0  0  0  0
 21 20  1  0  0  0  0
 21 22  1  0  0  0  0
 22 31  1  1  0  0  0
 22 18  1  0  0  0  0
 23 22  1  0  0  0  0
 23 24  2  0  0  0  0
 27 20  1  0  0  0  0
 29 21  1  0  0  0  0
 30 21  1  0  0  0  0
 32 45  1  0  0  0  0
 33 32  1  0  0  0  0
 34 33  1  0  0  0  0
 34 46  1  0  0  0  0
 35 34  2  0  0  0  0
 36 42  2  0  0  0  0
 36 35  1  0  0  0  0
 37 38  1  0  0  0  0
 37 36  1  0  0  0  0
 38 39  1  0  0  0  0
 38 50  1  1  0  0  0
 39 23  1  0  0  0  0
 40 38  1  0  0  0  0
 41 40  2  0  0  0  0
 42 43  1  0  0  0  0
 43 53  1  0  0  0  0
 43 33  2  0  0  0  0
 44 40  1  0  0  0  0
 47 35  1  0  0  0  0
 48 37  1  0  0  0  0
 49 37  1  0  0  0  0
 51 39  1  0  0  0  0
 52 42  1  0  0  0  0
M  END
$$$$
