VQA.pdb
 OpenBabel07022419253D

 45 44  0  0  1  0  0  0  0  0999 V2000
    0.1920   -5.3680    0.0310 C   0  0  0  0  0  0  0  0  0  0  0  0
    1.4090   -4.5990   -0.3870 C   0  0  0  0  0  0  0  0  0  0  0  0
    2.3000   -4.2630    0.7870 C   0  0  0  0  0  0  0  0  0  0  0  0
    1.0580   -3.2980   -1.0920 C   0  0  2  0  0  0  0  0  0  0  0  0
    2.2820   -2.6470   -1.4460 N   0  0  0  0  0  0  0  0  0  0  0  0
    0.2080   -2.4790   -0.1950 C   0  0  0  0  0  0  0  0  0  0  0  0
   -0.8960   -2.9500    0.1850 O   0  0  0  0  0  0  0  0  0  0  0  0
    0.4290   -6.4630   -0.0320 H   0  0  0  0  0  0  0  0  0  0  0  0
   -0.0870   -5.1570    1.0900 H   0  0  0  0  0  0  0  0  0  0  0  0
   -0.6570   -5.1810   -0.6440 H   0  0  0  0  0  0  0  0  0  0  0  0
    2.0040   -5.2060   -1.1230 H   0  0  0  0  0  0  0  0  0  0  0  0
    2.2550   -5.0650    1.5470 H   0  0  0  0  0  0  0  0  0  0  0  0
    2.0170   -3.3120    1.2760 H   0  0  0  0  0  0  0  0  0  0  0  0
    3.3530   -4.1400    0.4420 H   0  0  0  0  0  0  0  0  0  0  0  0
    0.5330   -3.5840   -2.0260 H   0  0  0  0  0  0  0  0  0  0  0  0
    2.9340   -2.4710   -0.6770 H   0  0  0  0  0  0  0  0  0  0  0  0
    2.6880   -2.9740   -2.3310 H   0  0  0  0  0  0  0  0  0  0  0  0
    3.1650    2.3500    2.3500 N   0  0  0  0  0  0  0  0  0  0  0  0
    1.8570    1.7350    2.2280 C   0  0  0  0  0  0  0  0  0  0  0  0
    0.9840    2.4580    1.7180 O   0  0  0  0  0  0  0  0  0  0  0  0
    1.5930    0.3870    2.6680 C   0  0  0  0  0  0  0  0  0  0  0  0
    0.2790   -0.2250    2.4970 C   0  0  0  0  0  0  0  0  0  0  0  0
   -0.3090   -0.3990    1.1590 C   0  0  2  0  0  0  0  0  0  0  0  0
    0.5530   -1.1930    0.2690 N   0  0  0  0  0  0  0  0  0  0  0  0
   -0.7990    0.7550    0.4280 C   0  0  0  0  0  0  0  0  0  0  0  0
   -0.3530    1.0220   -0.7110 O   0  0  0  0  0  0  0  0  0  0  0  0
    3.4910    2.7760    3.2440 H   0  0  0  0  0  0  0  0  0  0  0  0
    3.8330    2.3900    1.5500 H   0  0  0  0  0  0  0  0  0  0  0  0
    1.8060    0.3780    3.7920 H   0  0  0  0  0  0  0  0  0  0  0  0
    2.4120   -0.2790    2.2800 H   0  0  0  0  0  0  0  0  0  0  0  0
    0.3180   -1.2500    2.9750 H   0  0  0  0  0  0  0  0  0  0  0  0
   -0.4550    0.3280    3.1460 H   0  0  0  0  0  0  0  0  0  0  0  0
   -1.2540   -1.0430    1.3610 H   0  0  0  0  0  0  0  0  0  0  0  0
    1.4570   -0.7730   -0.0240 H   0  0  0  0  0  0  0  0  0  0  0  0
   -3.7320    2.5420   -0.1640 C   0  0  0  0  0  0  0  0  0  0  0  0
   -2.2700    2.7950    0.1600 C   0  0  2  0  0  0  0  0  0  0  0  0
   -1.8060    1.6540    0.9310 N   0  0  0  0  0  0  0  0  0  0  0  0
   -2.1560    4.0020    0.9820 C   0  0  0  0  0  0  0  0  0  0  0  0
   -2.5130    5.1160    0.4750 O   0  0  0  0  0  0  0  0  0  0  0  0
   -1.6750    3.9430    2.2710 O   0  0  0  0  0  0  0  0  0  0  0  0
   -4.3800    2.8920    0.6440 H   0  0  0  0  0  0  0  0  0  0  0  0
   -3.9900    3.1120   -1.0780 H   0  0  0  0  0  0  0  0  0  0  0  0
   -3.9220    1.4770   -0.3990 H   0  0  0  0  0  0  0  0  0  0  0  0
   -1.7550    2.8800   -0.8050 H   0  0  0  0  0  0  0  0  0  0  0  0
   -2.1990    1.4600    1.8770 H   0  0  0  0  0  0  0  0  0  0  0  0
  1  9  1  0  0  0  0
  2  1  1  0  0  0  0
  2  3  1  0  0  0  0
  3 13  1  0  0  0  0
  3 12  1  0  0  0  0
  4 15  1  6  0  0  0
  4  2  1  0  0  0  0
  4  6  1  0  0  0  0
  5  4  1  0  0  0  0
  5 16  1  0  0  0  0
  6  7  2  0  0  0  0
  6 24  1  0  0  0  0
  8  1  1  0  0  0  0
 10  1  1  0  0  0  0
 11  2  1  0  0  0  0
 14  3  1  0  0  0  0
 17  5  1  0  0  0  0
 18 27  1  0  0  0  0
 19 18  1  0  0  0  0
 19 21  1  0  0  0  0
 20 19  2  0  0  0  0
 21 29  1  0  0  0  0
 22 21  1  0  0  0  0
 22 31  1  0  0  0  0
 22 32  1  0  0  0  0
 23 33  1  1  0  0  0
 23 22  1  0  0  0  0
 24 23  1  0  0  0  0
 25 37  1  0  0  0  0
 25 23  1  0  0  0  0
 26 25  2  0  0  0  0
 28 18  1  0  0  0  0
 30 21  1  0  0  0  0
 34 24  1  0  0  0  0
 35 36  1  0  0  0  0
 35 41  1  0  0  0  0
 36 44  1  6  0  0  0
 36 37  1  0  0  0  0
 36 38  1  0  0  0  0
 37 45  1  0  0  0  0
 38 40  1  0  0  0  0
 39 38  2  0  0  0  0
 42 35  1  0  0  0  0
 43 35  1  0  0  0  0
M  END
$$$$
