VQD.pdb
 OpenBabel07022419253D

 48 47  0  0  1  0  0  0  0  0999 V2000
    3.9650    0.1560   -0.6840 C   0  0  0  0  0  0  0  0  0  0  0  0
    3.3580   -1.1800   -0.9930 C   0  0  0  0  0  0  0  0  0  0  0  0
    3.7490   -2.2470    0.0010 C   0  0  0  0  0  0  0  0  0  0  0  0
    1.9330   -1.1720   -1.3830 C   0  0  2  0  0  0  0  0  0  0  0  0
    1.7440   -0.3550   -2.5990 N   0  0  0  0  0  0  0  0  0  0  0  0
    0.9130   -0.8000   -0.4170 C   0  0  0  0  0  0  0  0  0  0  0  0
    0.1130    0.1660   -0.7150 O   0  0  0  0  0  0  0  0  0  0  0  0
    4.5540    0.1210    0.2770 H   0  0  0  0  0  0  0  0  0  0  0  0
    3.1450    0.8970   -0.6320 H   0  0  0  0  0  0  0  0  0  0  0  0
    4.6810    0.5280   -1.4440 H   0  0  0  0  0  0  0  0  0  0  0  0
    3.9120   -1.5110   -1.9490 H   0  0  0  0  0  0  0  0  0  0  0  0
    4.8140   -2.5780   -0.2040 H   0  0  0  0  0  0  0  0  0  0  0  0
    3.1290   -3.1650   -0.1920 H   0  0  0  0  0  0  0  0  0  0  0  0
    3.7550   -1.9300    1.0420 H   0  0  0  0  0  0  0  0  0  0  0  0
    1.7160   -2.2220   -1.7700 H   0  0  0  0  0  0  0  0  0  0  0  0
    0.7350   -0.5040   -2.8550 H   0  0  0  0  0  0  0  0  0  0  0  0
    1.9440    0.6520   -2.4080 H   0  0  0  0  0  0  0  0  0  0  0  0
    3.3390   -0.2890    4.2200 N   0  0  0  0  0  0  0  0  0  0  0  0
    2.2700   -0.0240    3.3290 C   0  0  0  0  0  0  0  0  0  0  0  0
    2.5340    0.2320    2.1390 O   0  0  0  0  0  0  0  0  0  0  0  0
    0.8870   -0.0430    3.7700 C   0  0  0  0  0  0  0  0  0  0  0  0
   -0.1900   -0.0150    2.7630 C   0  0  0  0  0  0  0  0  0  0  0  0
   -0.3440   -1.0810    1.7940 C   0  0  2  0  0  0  0  0  0  0  0  0
    0.6720   -1.3930    0.8560 N   0  0  0  0  0  0  0  0  0  0  0  0
   -1.7260   -1.0060    1.1680 C   0  0  0  0  0  0  0  0  0  0  0  0
   -1.7690   -1.2550   -0.0600 O   0  0  0  0  0  0  0  0  0  0  0  0
    4.2720    0.1920    4.1580 H   0  0  0  0  0  0  0  0  0  0  0  0
    3.2760   -0.9900    5.0130 H   0  0  0  0  0  0  0  0  0  0  0  0
    0.6550    0.7910    4.5070 H   0  0  0  0  0  0  0  0  0  0  0  0
    0.7850   -0.9570    4.4350 H   0  0  0  0  0  0  0  0  0  0  0  0
   -0.1550    0.9760    2.1890 H   0  0  0  0  0  0  0  0  0  0  0  0
   -1.1530    0.1160    3.3430 H   0  0  0  0  0  0  0  0  0  0  0  0
   -0.4910   -2.0630    2.4010 H   0  0  0  0  0  0  0  0  0  0  0  0
    1.3820   -2.1660    1.0780 H   0  0  0  0  0  0  0  0  0  0  0  0
   -2.9050   -0.6950    1.8330 N   0  0  0  0  0  0  0  0  0  0  0  0
   -4.1660   -0.6500    1.1730 C   0  0  1  0  0  0  0  0  0  0  0  0
   -4.4830    0.5790    0.4040 C   0  0  0  0  0  0  0  0  0  0  0  0
   -3.5610    0.9140   -0.6920 C   0  0  0  0  0  0  0  0  0  0  0  0
   -2.5870    1.6650   -0.4720 O   0  0  0  0  0  0  0  0  0  0  0  0
   -4.3970   -1.9180    0.4400 C   0  0  0  0  0  0  0  0  0  0  0  0
   -3.5940   -2.8590    0.5470 O   0  0  0  0  0  0  0  0  0  0  0  0
   -3.7540    0.4130   -1.9570 O   0  0  0  0  0  0  0  0  0  0  0  0
   -5.5060   -2.0790   -0.3740 O   0  0  0  0  0  0  0  0  0  0  0  0
   -2.8760   -0.4930    2.8590 H   0  0  0  0  0  0  0  0  0  0  0  0
   -4.9410   -0.6620    2.0400 H   0  0  0  0  0  0  0  0  0  0  0  0
   -5.4870    0.4000   -0.0890 H   0  0  0  0  0  0  0  0  0  0  0  0
   -4.6800    1.4400    1.0790 H   0  0  0  0  0  0  0  0  0  0  0  0
   -3.2340    0.8170   -2.7220 H   0  0  0  0  0  0  0  0  0  0  0  0
  1  9  1  0  0  0  0
  1  8  1  0  0  0  0
  2  1  1  0  0  0  0
  2  3  1  0  0  0  0
  3 14  1  0  0  0  0
  4 15  1  6  0  0  0
  4  2  1  0  0  0  0
  4  6  1  0  0  0  0
  5 17  1  0  0  0  0
  5  4  1  0  0  0  0
  6 24  1  0  0  0  0
  7  6  2  0  0  0  0
 10  1  1  0  0  0  0
 11  2  1  0  0  0  0
 12  3  1  0  0  0  0
 13  3  1  0  0  0  0
 16  5  1  0  0  0  0
 18 28  1  0  0  0  0
 19 21  1  0  0  0  0
 19 18  1  0  0  0  0
 20 19  2  0  0  0  0
 21 30  1  0  0  0  0
 21 29  1  0  0  0  0
 22 32  1  0  0  0  0
 22 21  1  0  0  0  0
 23 33  1  1  0  0  0
 23 22  1  0  0  0  0
 24 34  1  0  0  0  0
 24 23  1  0  0  0  0
 25 23  1  0  0  0  0
 25 35  1  0  0  0  0
 26 25  2  0  0  0  0
 27 18  1  0  0  0  0
 31 22  1  0  0  0  0
 35 44  1  0  0  0  0
 36 35  1  0  0  0  0
 36 45  1  1  0  0  0
 37 47  1  0  0  0  0
 37 36  1  0  0  0  0
 38 39  2  0  0  0  0
 38 37  1  0  0  0  0
 40 41  1  0  0  0  0
 40 36  1  0  0  0  0
 42 38  1  0  0  0  0
 43 40  2  0  0  0  0
 46 37  1  0  0  0  0
 48 42  1  0  0  0  0
M  END
$$$$
