VQF.pdb
 OpenBabel07022419253D

 55 55  0  0  1  0  0  0  0  0999 V2000
    2.5310   -2.5760    0.0190 C   0  0  0  0  0  0  0  0  0  0  0  0
    2.7280   -2.3810    1.5030 C   0  0  0  0  0  0  0  0  0  0  0  0
    1.6070   -3.0390    2.2340 C   0  0  0  0  0  0  0  0  0  0  0  0
    2.9340   -0.9490    1.8760 C   0  0  2  0  0  0  0  0  0  0  0  0
    3.1170   -0.8420    3.3040 N   0  0  0  0  0  0  0  0  0  0  0  0
    1.8720   -0.0310    1.4140 C   0  0  0  0  0  0  0  0  0  0  0  0
    1.5480    0.0130    0.2080 O   0  0  0  0  0  0  0  0  0  0  0  0
    1.4550   -2.7010   -0.2160 H   0  0  0  0  0  0  0  0  0  0  0  0
    3.0080   -3.5510   -0.2940 H   0  0  0  0  0  0  0  0  0  0  0  0
    3.0010   -1.7750   -0.5810 H   0  0  0  0  0  0  0  0  0  0  0  0
    3.6750   -2.9160    1.7690 H   0  0  0  0  0  0  0  0  0  0  0  0
    1.8840   -4.0930    2.4340 H   0  0  0  0  0  0  0  0  0  0  0  0
    0.6820   -3.0970    1.6010 H   0  0  0  0  0  0  0  0  0  0  0  0
    1.3910   -2.5580    3.2080 H   0  0  0  0  0  0  0  0  0  0  0  0
    3.9150   -0.6300    1.4170 H   0  0  0  0  0  0  0  0  0  0  0  0
    3.6780   -0.0210    3.5830 H   0  0  0  0  0  0  0  0  0  0  0  0
    3.4330   -1.7300    3.7350 H   0  0  0  0  0  0  0  0  0  0  0  0
    2.6070    4.7170   -1.2990 N   0  0  0  0  0  0  0  0  0  0  0  0
    1.7730    4.4440   -0.1860 C   0  0  0  0  0  0  0  0  0  0  0  0
    1.2910    5.3850    0.4830 O   0  0  0  0  0  0  0  0  0  0  0  0
    1.4860    3.0110    0.1650 C   0  0  0  0  0  0  0  0  0  0  0  0
    0.5920    3.0130    1.3520 C   0  0  0  0  0  0  0  0  0  0  0  0
    0.1690    1.7010    1.8870 C   0  0  2  0  0  0  0  0  0  0  0  0
    1.2010    0.8180    2.3310 N   0  0  0  0  0  0  0  0  0  0  0  0
   -0.9310    1.0310    1.1300 C   0  0  0  0  0  0  0  0  0  0  0  0
   -1.7840    1.7220    0.4820 O   0  0  0  0  0  0  0  0  0  0  0  0
    3.3690    4.0780   -1.6090 H   0  0  0  0  0  0  0  0  0  0  0  0
    2.4340    5.6070   -1.8240 H   0  0  0  0  0  0  0  0  0  0  0  0
    2.4700    2.5590    0.4710 H   0  0  0  0  0  0  0  0  0  0  0  0
    1.0840    2.5240   -0.7300 H   0  0  0  0  0  0  0  0  0  0  0  0
    1.1670    3.5270    2.1820 H   0  0  0  0  0  0  0  0  0  0  0  0
   -0.3190    3.6320    1.2090 H   0  0  0  0  0  0  0  0  0  0  0  0
   -0.3950    1.9680    2.8740 H   0  0  0  0  0  0  0  0  0  0  0  0
    1.4740    0.7940    3.3470 H   0  0  0  0  0  0  0  0  0  0  0  0
   -1.0590   -0.3580    1.1160 N   0  0  0  0  0  0  0  0  0  0  0  0
   -2.1070   -1.0700    0.3910 C   0  0  1  0  0  0  0  0  0  0  0  0
   -1.5500   -1.9770   -0.6500 C   0  0  0  0  0  0  0  0  0  0  0  0
   -2.6020   -2.6990   -1.3840 C   0  0  0  0  0  0  0  0  0  0  0  0
   -3.1760   -2.1210   -2.4950 C   0  0  0  0  0  0  0  0  0  0  0  0
   -4.1670   -2.7910   -3.2230 C   0  0  0  0  0  0  0  0  0  0  0  0
   -4.5910   -4.0430   -2.8440 C   0  0  0  0  0  0  0  0  0  0  0  0
   -4.0200   -4.6260   -1.7330 C   0  0  0  0  0  0  0  0  0  0  0  0
   -3.0330   -3.9500   -1.0150 C   0  0  0  0  0  0  0  0  0  0  0  0
   -3.0230   -1.7550    1.3290 C   0  0  0  0  0  0  0  0  0  0  0  0
   -2.7940   -1.7010    2.5880 O   0  0  0  0  0  0  0  0  0  0  0  0
   -4.1460   -2.4750    0.9730 O   0  0  0  0  0  0  0  0  0  0  0  0
   -0.4100   -0.9650    1.6500 H   0  0  0  0  0  0  0  0  0  0  0  0
   -2.7170   -0.2680   -0.1140 H   0  0  0  0  0  0  0  0  0  0  0  0
   -0.9370   -2.7800   -0.1410 H   0  0  0  0  0  0  0  0  0  0  0  0
   -0.8950   -1.4370   -1.3720 H   0  0  0  0  0  0  0  0  0  0  0  0
   -2.8620   -1.1370   -2.8160 H   0  0  0  0  0  0  0  0  0  0  0  0
   -4.6310   -2.3610   -4.0940 H   0  0  0  0  0  0  0  0  0  0  0  0
   -5.3680   -4.5960   -3.3950 H   0  0  0  0  0  0  0  0  0  0  0  0
   -4.3690   -5.6100   -1.4540 H   0  0  0  0  0  0  0  0  0  0  0  0
   -2.6140   -4.4520   -0.1490 H   0  0  0  0  0  0  0  0  0  0  0  0
  1  2  1  0  0  0  0
  2 11  1  0  0  0  0
  2  4  1  0  0  0  0
  2  3  1  0  0  0  0
  3 12  1  0  0  0  0
  3 14  1  0  0  0  0
  4 15  1  6  0  0  0
  4  5  1  0  0  0  0
  5 16  1  0  0  0  0
  5 17  1  0  0  0  0
  6  4  1  0  0  0  0
  6 24  1  0  0  0  0
  7  6  2  0  0  0  0
  8  1  1  0  0  0  0
  9  1  1  0  0  0  0
 10  1  1  0  0  0  0
 13  3  1  0  0  0  0
 18 19  1  0  0  0  0
 19 21  1  0  0  0  0
 19 20  2  0  0  0  0
 21 29  1  0  0  0  0
 21 22  1  0  0  0  0
 22 23  1  0  0  0  0
 22 31  1  0  0  0  0
 23 24  1  0  0  0  0
 23 33  1  1  0  0  0
 24 34  1  0  0  0  0
 25 23  1  0  0  0  0
 26 25  2  0  0  0  0
 27 18  1  0  0  0  0
 28 18  1  0  0  0  0
 30 21  1  0  0  0  0
 32 22  1  0  0  0  0
 35 25  1  0  0  0  0
 35 47  1  0  0  0  0
 36 48  1  6  0  0  0
 36 35  1  0  0  0  0
 36 44  1  0  0  0  0
 37 49  1  0  0  0  0
 37 36  1  0  0  0  0
 38 43  1  0  0  0  0
 38 37  1  0  0  0  0
 39 38  2  0  0  0  0
 40 41  2  0  0  0  0
 40 39  1  0  0  0  0
 41 42  1  0  0  0  0
 42 54  1  0  0  0  0
 42 43  2  0  0  0  0
 43 55  1  0  0  0  0
 44 45  1  0  0  0  0
 46 44  2  0  0  0  0
 50 37  1  0  0  0  0
 51 39  1  0  0  0  0
 52 40  1  0  0  0  0
 53 41  1  0  0  0  0
M  END
$$$$
