VQK.pdb
 OpenBabel07022419253D

 56 55  0  0  1  0  0  0  0  0999 V2000
    2.2890   -3.4890   -0.0820 C   0  0  0  0  0  0  0  0  0  0  0  0
    2.6760   -2.2490   -0.8720 C   0  0  0  0  0  0  0  0  0  0  0  0
    1.5620   -1.6850   -1.6830 C   0  0  0  0  0  0  0  0  0  0  0  0
    3.4360   -1.2680   -0.0370 C   0  0  2  0  0  0  0  0  0  0  0  0
    4.6530   -1.9810    0.4010 N   0  0  0  0  0  0  0  0  0  0  0  0
    2.7460   -0.8470    1.2060 C   0  0  0  0  0  0  0  0  0  0  0  0
    3.2290   -1.1280    2.3580 O   0  0  0  0  0  0  0  0  0  0  0  0
    1.9950   -4.2800   -0.7880 H   0  0  0  0  0  0  0  0  0  0  0  0
    3.2510   -3.8440    0.3870 H   0  0  0  0  0  0  0  0  0  0  0  0
    1.5380   -3.2530    0.6860 H   0  0  0  0  0  0  0  0  0  0  0  0
    3.4290   -2.6480   -1.6330 H   0  0  0  0  0  0  0  0  0  0  0  0
    1.5360   -2.1660   -2.7090 H   0  0  0  0  0  0  0  0  0  0  0  0
    1.6450   -0.5890   -1.8450 H   0  0  0  0  0  0  0  0  0  0  0  0
    0.5780   -1.8920   -1.2590 H   0  0  0  0  0  0  0  0  0  0  0  0
    3.7220   -0.4120   -0.6720 H   0  0  0  0  0  0  0  0  0  0  0  0
    4.5210   -2.4320    1.3130 H   0  0  0  0  0  0  0  0  0  0  0  0
    4.9010   -2.7320   -0.2800 H   0  0  0  0  0  0  0  0  0  0  0  0
   -0.5060    4.7950    0.8960 N   0  0  0  0  0  0  0  0  0  0  0  0
    0.1600    3.9400    1.8020 C   0  0  0  0  0  0  0  0  0  0  0  0
    0.7550    4.4400    2.7700 O   0  0  0  0  0  0  0  0  0  0  0  0
    0.1470    2.4690    1.5990 C   0  0  0  0  0  0  0  0  0  0  0  0
    0.9160    1.7710    2.6950 C   0  0  0  0  0  0  0  0  0  0  0  0
    0.9190    0.2680    2.5120 C   0  0  2  0  0  0  0  0  0  0  0  0
    1.5270   -0.1150    1.2540 N   0  0  0  0  0  0  0  0  0  0  0  0
   -0.4270   -0.3130    2.7080 C   0  0  0  0  0  0  0  0  0  0  0  0
   -1.1070   -0.0890    3.7280 O   0  0  0  0  0  0  0  0  0  0  0  0
   -0.6490    5.8150    1.0620 H   0  0  0  0  0  0  0  0  0  0  0  0
   -0.8820    4.4000    0.0050 H   0  0  0  0  0  0  0  0  0  0  0  0
   -0.8780    2.1060    1.4910 H   0  0  0  0  0  0  0  0  0  0  0  0
    0.6630    2.2920    0.6170 H   0  0  0  0  0  0  0  0  0  0  0  0
    1.9440    2.1290    2.7130 H   0  0  0  0  0  0  0  0  0  0  0  0
    0.4020    1.9790    3.6550 H   0  0  0  0  0  0  0  0  0  0  0  0
    1.5410   -0.1140    3.3770 H   0  0  0  0  0  0  0  0  0  0  0  0
    1.0840    0.1380    0.3510 H   0  0  0  0  0  0  0  0  0  0  0  0
   -0.9530   -1.1530    1.6930 N   0  0  0  0  0  0  0  0  0  0  0  0
   -2.2620   -1.7580    1.8090 C   0  0  1  0  0  0  0  0  0  0  0  0
   -3.1970   -1.3390    0.7200 C   0  0  0  0  0  0  0  0  0  0  0  0
   -2.6910   -1.7090   -0.6580 C   0  0  0  0  0  0  0  0  0  0  0  0
   -3.7420   -1.2210   -1.6550 C   0  0  0  0  0  0  0  0  0  0  0  0
   -3.3160   -1.5520   -3.0780 C   0  0  0  0  0  0  0  0  0  0  0  0
   -2.0440   -0.8690   -3.2980 N   0  0  0  0  0  0  0  0  0  0  0  0
   -2.1230   -3.2260    1.8780 C   0  0  0  0  0  0  0  0  0  0  0  0
   -3.1460   -3.9340    1.9770 O   0  0  0  0  0  0  0  0  0  0  0  0
   -0.8870   -3.8290    1.8340 O   0  0  0  0  0  0  0  0  0  0  0  0
   -0.4060   -1.3590    0.8310 H   0  0  0  0  0  0  0  0  0  0  0  0
   -2.7020   -1.4240    2.7710 H   0  0  0  0  0  0  0  0  0  0  0  0
   -4.1430   -1.9200    0.8640 H   0  0  0  0  0  0  0  0  0  0  0  0
   -3.4700   -0.2830    0.7980 H   0  0  0  0  0  0  0  0  0  0  0  0
   -2.6410   -2.8080   -0.7950 H   0  0  0  0  0  0  0  0  0  0  0  0
   -1.7080   -1.2640   -0.8920 H   0  0  0  0  0  0  0  0  0  0  0  0
   -4.7170   -1.6880   -1.4650 H   0  0  0  0  0  0  0  0  0  0  0  0
   -3.7540   -0.1140   -1.5820 H   0  0  0  0  0  0  0  0  0  0  0  0
   -3.2530   -2.6320   -3.2650 H   0  0  0  0  0  0  0  0  0  0  0  0
   -4.0470   -1.0400   -3.7460 H   0  0  0  0  0  0  0  0  0  0  0  0
   -2.0030   -0.0270   -2.6860 H   0  0  0  0  0  0  0  0  0  0  0  0
   -1.2900   -1.5320   -2.9900 H   0  0  0  0  0  0  0  0  0  0  0  0
  1  9  1  0  0  0  0
  1 10  1  0  0  0  0
  2  1  1  0  0  0  0
  2  4  1  0  0  0  0
  3 14  1  0  0  0  0
  3  2  1  0  0  0  0
  4 15  1  6  0  0  0
  4  5  1  0  0  0  0
  4  6  1  0  0  0  0
  5 16  1  0  0  0  0
  6 24  1  0  0  0  0
  6  7  2  0  0  0  0
  8  1  1  0  0  0  0
 11  2  1  0  0  0  0
 12  3  1  0  0  0  0
 13  3  1  0  0  0  0
 17  5  1  0  0  0  0
 18 27  1  0  0  0  0
 18 19  1  0  0  0  0
 19 20  2  0  0  0  0
 21 19  1  0  0  0  0
 21 22  1  0  0  0  0
 22 31  1  0  0  0  0
 22 32  1  0  0  0  0
 23 22  1  0  0  0  0
 23 25  1  0  0  0  0
 23 33  1  1  0  0  0
 24 23  1  0  0  0  0
 25 26  2  0  0  0  0
 28 18  1  0  0  0  0
 29 21  1  0  0  0  0
 30 21  1  0  0  0  0
 34 24  1  0  0  0  0
 35 36  1  0  0  0  0
 35 25  1  0  0  0  0
 36 42  1  0  0  0  0
 36 46  1  1  0  0  0
 37 48  1  0  0  0  0
 37 47  1  0  0  0  0
 37 36  1  0  0  0  0
 38 37  1  0  0  0  0
 39 52  1  0  0  0  0
 39 51  1  0  0  0  0
 39 38  1  0  0  0  0
 40 39  1  0  0  0  0
 41 40  1  0  0  0  0
 41 56  1  0  0  0  0
 41 55  1  0  0  0  0
 42 43  1  0  0  0  0
 44 42  2  0  0  0  0
 45 35  1  0  0  0  0
 49 38  1  0  0  0  0
 50 38  1  0  0  0  0
 53 40  1  0  0  0  0
 54 40  1  0  0  0  0
M  END
$$$$
