VQL.pdb
 OpenBabel07022419253D

 54 53  0  0  1  0  0  0  0  0999 V2000
    1.3800   -4.3910   -0.1560 C   0  0  0  0  0  0  0  0  0  0  0  0
    0.8990   -3.9300    1.1830 C   0  0  0  0  0  0  0  0  0  0  0  0
   -0.5710   -3.6130    1.0800 C   0  0  0  0  0  0  0  0  0  0  0  0
    1.7000   -2.8630    1.8360 C   0  0  2  0  0  0  0  0  0  0  0  0
    1.0690   -2.5550    3.1470 N   0  0  0  0  0  0  0  0  0  0  0  0
    1.8070   -1.5880    1.0970 C   0  0  0  0  0  0  0  0  0  0  0  0
    2.4740   -1.5610    0.0440 O   0  0  0  0  0  0  0  0  0  0  0  0
    0.5450   -4.8190   -0.7730 H   0  0  0  0  0  0  0  0  0  0  0  0
    1.8380   -3.5860   -0.7290 H   0  0  0  0  0  0  0  0  0  0  0  0
    2.1040   -5.2440   -0.0780 H   0  0  0  0  0  0  0  0  0  0  0  0
    0.9510   -4.8350    1.8620 H   0  0  0  0  0  0  0  0  0  0  0  0
   -1.0190   -3.4170    2.0740 H   0  0  0  0  0  0  0  0  0  0  0  0
   -1.0900   -4.5250    0.6940 H   0  0  0  0  0  0  0  0  0  0  0  0
   -0.7960   -2.7920    0.4060 H   0  0  0  0  0  0  0  0  0  0  0  0
    2.6950   -3.2820    2.1080 H   0  0  0  0  0  0  0  0  0  0  0  0
    0.7510   -3.4630    3.5600 H   0  0  0  0  0  0  0  0  0  0  0  0
    1.7970   -2.1780    3.8020 H   0  0  0  0  0  0  0  0  0  0  0  0
    6.1240    1.0920    0.3490 N   0  0  0  0  0  0  0  0  0  0  0  0
    4.7990    1.1980   -0.1380 C   0  0  0  0  0  0  0  0  0  0  0  0
    4.6280    1.4480   -1.3530 O   0  0  0  0  0  0  0  0  0  0  0  0
    3.6480    1.0160    0.7750 C   0  0  0  0  0  0  0  0  0  0  0  0
    2.3280    1.1350    0.0500 C   0  0  0  0  0  0  0  0  0  0  0  0
    1.1750    0.8900    1.0240 C   0  0  2  0  0  0  0  0  0  0  0  0
    1.1790   -0.4200    1.5560 N   0  0  0  0  0  0  0  0  0  0  0  0
   -0.0670    1.4650    0.5730 C   0  0  0  0  0  0  0  0  0  0  0  0
   -0.0170    2.6570    0.1180 O   0  0  0  0  0  0  0  0  0  0  0  0
    6.9590    1.4990   -0.1220 H   0  0  0  0  0  0  0  0  0  0  0  0
    6.2790    0.5740    1.2390 H   0  0  0  0  0  0  0  0  0  0  0  0
    3.6560    1.8980    1.5320 H   0  0  0  0  0  0  0  0  0  0  0  0
    3.7170    0.1560    1.4370 H   0  0  0  0  0  0  0  0  0  0  0  0
    2.2080    2.2290   -0.2260 H   0  0  0  0  0  0  0  0  0  0  0  0
    2.2530    0.5170   -0.8420 H   0  0  0  0  0  0  0  0  0  0  0  0
    1.5540    1.5630    1.9080 H   0  0  0  0  0  0  0  0  0  0  0  0
    0.6000   -0.5340    2.4620 H   0  0  0  0  0  0  0  0  0  0  0  0
   -4.7220   -0.7080   -0.1680 C   0  0  0  0  0  0  0  0  0  0  0  0
   -3.6670   -0.3610   -1.2060 C   0  0  0  0  0  0  0  0  0  0  0  0
   -2.6540   -1.4430   -1.3520 C   0  0  0  0  0  0  0  0  0  0  0  0
   -3.1780    1.0220   -1.1200 C   0  0  0  0  0  0  0  0  0  0  0  0
   -2.5400    1.5200    0.1030 C   0  0  2  0  0  0  0  0  0  0  0  0
   -1.3580    0.8740    0.5670 N   0  0  0  0  0  0  0  0  0  0  0  0
   -3.4600    1.6810    1.2590 C   0  0  0  0  0  0  0  0  0  0  0  0
   -3.1670    1.2780    2.4160 O   0  0  0  0  0  0  0  0  0  0  0  0
   -4.6950    2.2930    1.1010 O   0  0  0  0  0  0  0  0  0  0  0  0
   -5.5460    0.0000   -0.1520 H   0  0  0  0  0  0  0  0  0  0  0  0
   -5.1600   -1.7110   -0.3540 H   0  0  0  0  0  0  0  0  0  0  0  0
   -4.2430   -0.7620    0.8270 H   0  0  0  0  0  0  0  0  0  0  0  0
   -4.2590   -0.3910   -2.1850 H   0  0  0  0  0  0  0  0  0  0  0  0
   -2.6410   -1.9150   -2.3840 H   0  0  0  0  0  0  0  0  0  0  0  0
   -2.9880   -2.3130   -0.7160 H   0  0  0  0  0  0  0  0  0  0  0  0
   -1.6110   -1.1620   -1.1820 H   0  0  0  0  0  0  0  0  0  0  0  0
   -4.0610    1.6990   -1.3260 H   0  0  0  0  0  0  0  0  0  0  0  0
   -2.5170    1.2030   -2.0100 H   0  0  0  0  0  0  0  0  0  0  0  0
   -2.2200    2.5880   -0.1410 H   0  0  0  0  0  0  0  0  0  0  0  0
   -1.4360   -0.0950    0.9330 H   0  0  0  0  0  0  0  0  0  0  0  0
  1 10  1  0  0  0  0
  1  2  1  0  0  0  0
  2  4  1  0  0  0  0
  2 11  1  0  0  0  0
  3  2  1  0  0  0  0
  3 12  1  0  0  0  0
  4 15  1  1  0  0  0
  4  5  1  0  0  0  0
  5 16  1  0  0  0  0
  5 17  1  0  0  0  0
  6 24  1  0  0  0  0
  6  4  1  0  0  0  0
  7  6  2  0  0  0  0
  8  1  1  0  0  0  0
  9  1  1  0  0  0  0
 13  3  1  0  0  0  0
 14  3  1  0  0  0  0
 18 28  1  0  0  0  0
 19 18  1  0  0  0  0
 19 21  1  0  0  0  0
 20 19  2  0  0  0  0
 21 30  1  0  0  0  0
 21 29  1  0  0  0  0
 22 21  1  0  0  0  0
 22 23  1  0  0  0  0
 23 24  1  0  0  0  0
 23 33  1  1  0  0  0
 24 34  1  0  0  0  0
 25 23  1  0  0  0  0
 26 25  2  0  0  0  0
 27 18  1  0  0  0  0
 31 22  1  0  0  0  0
 32 22  1  0  0  0  0
 35 44  1  0  0  0  0
 35 46  1  0  0  0  0
 36 38  1  0  0  0  0
 36 35  1  0  0  0  0
 37 36  1  0  0  0  0
 37 50  1  0  0  0  0
 37 49  1  0  0  0  0
 38 39  1  0  0  0  0
 39 53  1  6  0  0  0
 39 40  1  0  0  0  0
 39 41  1  0  0  0  0
 40 25  1  0  0  0  0
 40 54  1  0  0  0  0
 41 42  1  0  0  0  0
 43 41  2  0  0  0  0
 45 35  1  0  0  0  0
 47 36  1  0  0  0  0
 48 37  1  0  0  0  0
 51 38  1  0  0  0  0
 52 38  1  0  0  0  0
M  END
$$$$
