VQM.pdb
 OpenBabel07022419253D

 52 51  0  0  1  0  0  0  0  0999 V2000
    2.7700   -5.0050    1.7590 C   0  0  0  0  0  0  0  0  0  0  0  0
    2.2520   -3.6080    2.1260 C   0  0  0  0  0  0  0  0  0  0  0  0
    0.8450   -3.7920    2.5780 C   0  0  0  0  0  0  0  0  0  0  0  0
    2.4350   -2.7690    0.8950 C   0  0  2  0  0  0  0  0  0  0  0  0
    3.8650   -2.7920    0.6130 N   0  0  0  0  0  0  0  0  0  0  0  0
    1.9820   -1.3520    1.0740 C   0  0  0  0  0  0  0  0  0  0  0  0
    2.8530   -0.4810    1.0840 O   0  0  0  0  0  0  0  0  0  0  0  0
    1.9210   -5.5750    1.3410 H   0  0  0  0  0  0  0  0  0  0  0  0
    3.5270   -4.9300    0.9570 H   0  0  0  0  0  0  0  0  0  0  0  0
    3.1420   -5.5390    2.6470 H   0  0  0  0  0  0  0  0  0  0  0  0
    2.8480   -3.2370    2.9790 H   0  0  0  0  0  0  0  0  0  0  0  0
    0.8730   -4.6710    3.2950 H   0  0  0  0  0  0  0  0  0  0  0  0
    0.4490   -2.9660    3.2100 H   0  0  0  0  0  0  0  0  0  0  0  0
    0.1560   -4.1260    1.7830 H   0  0  0  0  0  0  0  0  0  0  0  0
    1.9370   -3.2780    0.0500 H   0  0  0  0  0  0  0  0  0  0  0  0
    4.2980   -1.8510    0.7090 H   0  0  0  0  0  0  0  0  0  0  0  0
    4.0840   -3.2600   -0.2880 H   0  0  0  0  0  0  0  0  0  0  0  0
    3.0830    2.4630    4.6490 N   0  0  0  0  0  0  0  0  0  0  0  0
    2.3740    2.4690    3.4200 C   0  0  0  0  0  0  0  0  0  0  0  0
    2.4640    3.4200    2.6330 O   0  0  0  0  0  0  0  0  0  0  0  0
    1.5060    1.2920    3.0860 C   0  0  0  0  0  0  0  0  0  0  0  0
    0.8370    1.4500    1.7670 C   0  0  0  0  0  0  0  0  0  0  0  0
    0.0070    0.2430    1.4260 C   0  0  2  0  0  0  0  0  0  0  0  0
    0.6350   -0.9950    1.2250 N   0  0  0  0  0  0  0  0  0  0  0  0
   -1.0920    0.4770    0.4890 C   0  0  0  0  0  0  0  0  0  0  0  0
   -1.7320    1.5800    0.5890 O   0  0  0  0  0  0  0  0  0  0  0  0
    3.9910    1.9330    4.7650 H   0  0  0  0  0  0  0  0  0  0  0  0
    2.7330    2.9830    5.4870 H   0  0  0  0  0  0  0  0  0  0  0  0
    1.9810    0.3410    3.2880 H   0  0  0  0  0  0  0  0  0  0  0  0
    0.7110    1.3530    3.9310 H   0  0  0  0  0  0  0  0  0  0  0  0
    0.0830    2.2880    1.8900 H   0  0  0  0  0  0  0  0  0  0  0  0
    1.4950    1.7850    0.9580 H   0  0  0  0  0  0  0  0  0  0  0  0
   -0.5060    0.0990    2.4820 H   0  0  0  0  0  0  0  0  0  0  0  0
   -0.0320   -1.8320    1.1730 H   0  0  0  0  0  0  0  0  0  0  0  0
   -4.7380    2.3490   -2.2350 C   0  0  0  0  0  0  0  0  0  0  0  0
   -3.7870    1.9210   -3.6650 S   0  0  0  0  0  0  0  0  0  0  0  0
   -3.2060    0.2530   -3.8390 C   0  0  0  0  0  0  0  0  0  0  0  0
   -2.1610   -0.1010   -2.8360 C   0  0  0  0  0  0  0  0  0  0  0  0
   -2.6510   -0.0890   -1.4420 C   0  0  2  0  0  0  0  0  0  0  0  0
   -1.5120   -0.3980   -0.5150 N   0  0  0  0  0  0  0  0  0  0  0  0
   -3.7020   -1.1070   -1.1760 C   0  0  0  0  0  0  0  0  0  0  0  0
   -4.7750   -1.1490   -1.7850 O   0  0  0  0  0  0  0  0  0  0  0  0
   -3.5090   -2.0960   -0.1880 O   0  0  0  0  0  0  0  0  0  0  0  0
   -5.6230    3.0370   -2.5050 H   0  0  0  0  0  0  0  0  0  0  0  0
   -4.1240    2.9030   -1.4630 H   0  0  0  0  0  0  0  0  0  0  0  0
   -5.1880    1.4560   -1.7730 H   0  0  0  0  0  0  0  0  0  0  0  0
   -4.1090   -0.4300   -3.7880 H   0  0  0  0  0  0  0  0  0  0  0  0
   -2.8140    0.0630   -4.8970 H   0  0  0  0  0  0  0  0  0  0  0  0
   -1.2760    0.5860   -2.9580 H   0  0  0  0  0  0  0  0  0  0  0  0
   -1.7670   -1.1150   -3.1440 H   0  0  0  0  0  0  0  0  0  0  0  0
   -2.9930    0.8930   -1.1280 H   0  0  0  0  0  0  0  0  0  0  0  0
   -1.0390   -1.3060   -0.6510 H   0  0  0  0  0  0  0  0  0  0  0  0
  1  2  1  0  0  0  0
  1 10  1  0  0  0  0
  2  3  1  0  0  0  0
  2 11  1  0  0  0  0
  3 13  1  0  0  0  0
  3 12  1  0  0  0  0
  4 15  1  6  0  0  0
  4  6  1  0  0  0  0
  4  2  1  0  0  0  0
  5 16  1  0  0  0  0
  5  4  1  0  0  0  0
  6  7  2  0  0  0  0
  6 24  1  0  0  0  0
  8  1  1  0  0  0  0
  9  1  1  0  0  0  0
 14  3  1  0  0  0  0
 17  5  1  0  0  0  0
 18 27  1  0  0  0  0
 18 28  1  0  0  0  0
 19 18  1  0  0  0  0
 20 19  2  0  0  0  0
 21 29  1  0  0  0  0
 21 19  1  0  0  0  0
 21 30  1  0  0  0  0
 22 31  1  0  0  0  0
 22 21  1  0  0  0  0
 23 22  1  0  0  0  0
 23 33  1  1  0  0  0
 24 23  1  0  0  0  0
 25 26  2  0  0  0  0
 25 23  1  0  0  0  0
 32 22  1  0  0  0  0
 34 24  1  0  0  0  0
 35 46  1  0  0  0  0
 35 45  1  0  0  0  0
 36 35  1  0  0  0  0
 37 47  1  0  0  0  0
 37 36  1  0  0  0  0
 37 38  1  0  0  0  0
 38 39  1  0  0  0  0
 39 41  1  0  0  0  0
 39 51  1  1  0  0  0
 39 40  1  0  0  0  0
 40 25  1  0  0  0  0
 41 43  1  0  0  0  0
 42 41  2  0  0  0  0
 44 35  1  0  0  0  0
 48 37  1  0  0  0  0
 49 38  1  0  0  0  0
 50 38  1  0  0  0  0
 52 40  1  0  0  0  0
M  END
$$$$
