VQN.pdb
 OpenBabel07022419253D

 49 48  0  0  1  0  0  0  0  0999 V2000
    2.5180   -5.4090    1.8800 C   0  0  0  0  0  0  0  0  0  0  0  0
    1.7320   -4.1220    2.0290 C   0  0  0  0  0  0  0  0  0  0  0  0
    2.1790   -3.4150    3.2570 C   0  0  0  0  0  0  0  0  0  0  0  0
    1.7050   -3.3140    0.7800 C   0  0  2  0  0  0  0  0  0  0  0  0
    2.9920   -2.8950    0.2840 N   0  0  0  0  0  0  0  0  0  0  0  0
    0.7460   -2.1980    0.9460 C   0  0  0  0  0  0  0  0  0  0  0  0
   -0.2990   -2.4230    1.5970 O   0  0  0  0  0  0  0  0  0  0  0  0
    2.1430   -6.1030    2.6580 H   0  0  0  0  0  0  0  0  0  0  0  0
    2.4480   -5.8290    0.8710 H   0  0  0  0  0  0  0  0  0  0  0  0
    3.5840   -5.2080    2.1110 H   0  0  0  0  0  0  0  0  0  0  0  0
    0.6680   -4.4580    2.2060 H   0  0  0  0  0  0  0  0  0  0  0  0
    2.9900   -2.7070    3.0400 H   0  0  0  0  0  0  0  0  0  0  0  0
    2.5910   -4.1550    3.9990 H   0  0  0  0  0  0  0  0  0  0  0  0
    1.3540   -2.8450    3.7490 H   0  0  0  0  0  0  0  0  0  0  0  0
    1.2560   -4.0070   -0.0140 H   0  0  0  0  0  0  0  0  0  0  0  0
    3.6480   -2.6120    1.0320 H   0  0  0  0  0  0  0  0  0  0  0  0
    3.3900   -3.6650   -0.3230 H   0  0  0  0  0  0  0  0  0  0  0  0
    2.2540   -0.2690    4.2460 N   0  0  0  0  0  0  0  0  0  0  0  0
    2.1150    0.2300    2.8990 C   0  0  0  0  0  0  0  0  0  0  0  0
    2.9590   -0.1570    2.0850 O   0  0  0  0  0  0  0  0  0  0  0  0
    1.0060    1.1340    2.6390 C   0  0  0  0  0  0  0  0  0  0  0  0
    0.5940    1.3690    1.2340 C   0  0  0  0  0  0  0  0  0  0  0  0
    0.0520    0.1890    0.5410 C   0  0  2  0  0  0  0  0  0  0  0  0
    0.9390   -0.9010    0.4120 N   0  0  0  0  0  0  0  0  0  0  0  0
   -0.5790    0.5550   -0.7770 C   0  0  0  0  0  0  0  0  0  0  0  0
   -0.2620   -0.1130   -1.7850 O   0  0  0  0  0  0  0  0  0  0  0  0
    3.1810   -0.2260    4.7110 H   0  0  0  0  0  0  0  0  0  0  0  0
    1.4480   -0.6740    4.7690 H   0  0  0  0  0  0  0  0  0  0  0  0
    0.1270    0.8050    3.2760 H   0  0  0  0  0  0  0  0  0  0  0  0
    1.2510    2.1440    3.1110 H   0  0  0  0  0  0  0  0  0  0  0  0
    1.4800    1.7390    0.6340 H   0  0  0  0  0  0  0  0  0  0  0  0
   -0.1790    2.1940    1.1710 H   0  0  0  0  0  0  0  0  0  0  0  0
   -0.8140   -0.1880    1.1760 H   0  0  0  0  0  0  0  0  0  0  0  0
    1.8140   -0.7520   -0.1590 H   0  0  0  0  0  0  0  0  0  0  0  0
   -5.4500    0.2590   -1.5300 N   0  0  0  0  0  0  0  0  0  0  0  0
   -4.0580    0.5040   -1.6810 C   0  0  0  0  0  0  0  0  0  0  0  0
   -3.2890   -0.4540   -1.4450 O   0  0  0  0  0  0  0  0  0  0  0  0
   -3.5740    1.8230   -2.0920 C   0  0  0  0  0  0  0  0  0  0  0  0
   -2.0700    1.9050   -2.2030 C   0  0  2  0  0  0  0  0  0  0  0  0
   -1.5020    1.6080   -0.9250 N   0  0  0  0  0  0  0  0  0  0  0  0
   -1.6440    3.2260   -2.7220 C   0  0  0  0  0  0  0  0  0  0  0  0
   -2.0610    3.6170   -3.8250 O   0  0  0  0  0  0  0  0  0  0  0  0
   -0.7930    4.0180   -1.9930 O   0  0  0  0  0  0  0  0  0  0  0  0
   -6.1490    0.8220   -2.0700 H   0  0  0  0  0  0  0  0  0  0  0  0
   -5.8070   -0.4850   -0.8800 H   0  0  0  0  0  0  0  0  0  0  0  0
   -4.0740    2.1850   -3.0250 H   0  0  0  0  0  0  0  0  0  0  0  0
   -3.8720    2.5630   -1.3030 H   0  0  0  0  0  0  0  0  0  0  0  0
   -1.7580    1.0850   -2.9160 H   0  0  0  0  0  0  0  0  0  0  0  0
   -1.7800    2.1810   -0.1010 H   0  0  0  0  0  0  0  0  0  0  0  0
  1  2  1  0  0  0  0
  1 10  1  0  0  0  0
  1  8  1  0  0  0  0
  2 11  1  0  0  0  0
  2  3  1  0  0  0  0
  3 14  1  0  0  0  0
  3 13  1  0  0  0  0
  4 15  1  6  0  0  0
  4  6  1  0  0  0  0
  4  2  1  0  0  0  0
  5  4  1  0  0  0  0
  5 16  1  0  0  0  0
  6  7  2  0  0  0  0
  9  1  1  0  0  0  0
 12  3  1  0  0  0  0
 17  5  1  0  0  0  0
 18 27  1  0  0  0  0
 18 28  1  0  0  0  0
 19 18  1  0  0  0  0
 20 19  2  0  0  0  0
 21 19  1  0  0  0  0
 21 30  1  0  0  0  0
 21 29  1  0  0  0  0
 22 21  1  0  0  0  0
 23 33  1  1  0  0  0
 23 22  1  0  0  0  0
 24 23  1  0  0  0  0
 24  6  1  0  0  0  0
 25 23  1  0  0  0  0
 26 25  2  0  0  0  0
 31 22  1  0  0  0  0
 32 22  1  0  0  0  0
 34 24  1  0  0  0  0
 35 45  1  0  0  0  0
 36 35  1  0  0  0  0
 36 37  2  0  0  0  0
 38 36  1  0  0  0  0
 38 47  1  0  0  0  0
 39 48  1  6  0  0  0
 39 38  1  0  0  0  0
 39 40  1  0  0  0  0
 40 25  1  0  0  0  0
 40 49  1  0  0  0  0
 41 39  1  0  0  0  0
 41 43  1  0  0  0  0
 42 41  2  0  0  0  0
 44 35  1  0  0  0  0
 46 38  1  0  0  0  0
M  END
$$$$
