VQP.pdb
 OpenBabel07022419253D

 49 49  0  0  1  0  0  0  0  0999 V2000
    2.6360   -4.1720    2.1360 C   0  0  0  0  0  0  0  0  0  0  0  0
    1.7970   -4.7920    1.0730 C   0  0  0  0  0  0  0  0  0  0  0  0
    0.7170   -5.6330    1.7100 C   0  0  0  0  0  0  0  0  0  0  0  0
    1.2630   -3.8540    0.0450 C   0  0  2  0  0  0  0  0  0  0  0  0
    2.3210   -3.1860   -0.6500 N   0  0  0  0  0  0  0  0  0  0  0  0
    0.3240   -2.8450    0.5780 C   0  0  0  0  0  0  0  0  0  0  0  0
   -0.6930   -3.1670    1.2780 O   0  0  0  0  0  0  0  0  0  0  0  0
    2.0280   -3.6470    2.9180 H   0  0  0  0  0  0  0  0  0  0  0  0
    3.1290   -5.0160    2.6960 H   0  0  0  0  0  0  0  0  0  0  0  0
    3.4510   -3.5450    1.7620 H   0  0  0  0  0  0  0  0  0  0  0  0
    2.4590   -5.5200    0.5190 H   0  0  0  0  0  0  0  0  0  0  0  0
    0.1750   -5.1070    2.5060 H   0  0  0  0  0  0  0  0  0  0  0  0
    1.2050   -6.5110    2.1740 H   0  0  0  0  0  0  0  0  0  0  0  0
    0.0170   -5.9300    0.8990 H   0  0  0  0  0  0  0  0  0  0  0  0
    0.7550   -4.5050   -0.7270 H   0  0  0  0  0  0  0  0  0  0  0  0
    1.9770   -2.5760   -1.4210 H   0  0  0  0  0  0  0  0  0  0  0  0
    3.0180   -2.7090   -0.0470 H   0  0  0  0  0  0  0  0  0  0  0  0
    3.5540    0.7540    0.8270 N   0  0  0  0  0  0  0  0  0  0  0  0
    2.4740    0.2420    1.5790 C   0  0  0  0  0  0  0  0  0  0  0  0
    2.5590   -0.9420    2.0010 O   0  0  0  0  0  0  0  0  0  0  0  0
    1.2920    1.0660    1.8670 C   0  0  0  0  0  0  0  0  0  0  0  0
    0.0570    0.2750    2.0810 C   0  0  0  0  0  0  0  0  0  0  0  0
   -0.4670   -0.4840    0.8870 C   0  0  2  0  0  0  0  0  0  0  0  0
    0.4770   -1.4460    0.3520 N   0  0  0  0  0  0  0  0  0  0  0  0
   -0.9030    0.3760   -0.2260 C   0  0  0  0  0  0  0  0  0  0  0  0
   -0.3540    0.2070   -1.3550 O   0  0  0  0  0  0  0  0  0  0  0  0
    4.2230    0.1460    0.3110 H   0  0  0  0  0  0  0  0  0  0  0  0
    3.6950    1.7810    0.7800 H   0  0  0  0  0  0  0  0  0  0  0  0
    1.5480    1.6440    2.8060 H   0  0  0  0  0  0  0  0  0  0  0  0
    1.1540    1.8800    1.1060 H   0  0  0  0  0  0  0  0  0  0  0  0
   -0.7090    0.9370    2.5300 H   0  0  0  0  0  0  0  0  0  0  0  0
    0.3100   -0.5300    2.8550 H   0  0  0  0  0  0  0  0  0  0  0  0
   -1.3980   -1.0290    1.2410 H   0  0  0  0  0  0  0  0  0  0  0  0
    1.2630   -1.0840   -0.2330 H   0  0  0  0  0  0  0  0  0  0  0  0
   -1.8930    1.3910   -0.1700 N   0  0  0  0  0  0  0  0  0  0  0  0
   -2.6400    1.7230    1.0340 C   0  0  0  0  0  0  0  0  0  0  0  0
   -3.9640    2.2560    0.4730 C   0  0  0  0  0  0  0  0  0  0  0  0
   -3.4600    3.0670   -0.6780 C   0  0  0  0  0  0  0  0  0  0  0  0
   -2.3440    2.2570   -1.2470 C   0  0  1  0  0  0  0  0  0  0  0  0
   -1.2670    3.0790   -1.7980 C   0  0  0  0  0  0  0  0  0  0  0  0
   -1.4900    3.8770   -2.7290 O   0  0  0  0  0  0  0  0  0  0  0  0
    0.0100    2.9800   -1.2900 O   0  0  0  0  0  0  0  0  0  0  0  0
   -2.8900    0.8340    1.6080 H   0  0  0  0  0  0  0  0  0  0  0  0
   -2.1300    2.5360    1.5710 H   0  0  0  0  0  0  0  0  0  0  0  0
   -4.4830    2.8470    1.2270 H   0  0  0  0  0  0  0  0  0  0  0  0
   -4.5330    1.4010    0.0780 H   0  0  0  0  0  0  0  0  0  0  0  0
   -3.1550    4.0940   -0.3870 H   0  0  0  0  0  0  0  0  0  0  0  0
   -4.2900    3.1760   -1.4070 H   0  0  0  0  0  0  0  0  0  0  0  0
   -2.7520    1.6420   -2.0880 H   0  0  0  0  0  0  0  0  0  0  0  0
  1  9  1  0  0  0  0
  1  8  1  0  0  0  0
  2  3  1  0  0  0  0
  2  1  1  0  0  0  0
  3 13  1  0  0  0  0
  3 12  1  0  0  0  0
  4 15  1  6  0  0  0
  4  6  1  0  0  0  0
  4  2  1  0  0  0  0
  5 17  1  0  0  0  0
  5  4  1  0  0  0  0
  6  7  2  0  0  0  0
 10  1  1  0  0  0  0
 11  2  1  0  0  0  0
 14  3  1  0  0  0  0
 16  5  1  0  0  0  0
 18 19  1  0  0  0  0
 19 21  1  0  0  0  0
 19 20  2  0  0  0  0
 21 22  1  0  0  0  0
 21 29  1  0  0  0  0
 22 31  1  0  0  0  0
 22 32  1  0  0  0  0
 23 33  1  1  0  0  0
 23 22  1  0  0  0  0
 24  6  1  0  0  0  0
 24 23  1  0  0  0  0
 25 35  1  0  0  0  0
 25 23  1  0  0  0  0
 26 25  2  0  0  0  0
 27 18  1  0  0  0  0
 28 18  1  0  0  0  0
 30 21  1  0  0  0  0
 34 24  1  0  0  0  0
 35 36  1  0  0  0  0
 36 44  1  0  0  0  0
 36 43  1  0  0  0  0
 37 36  1  0  0  0  0
 37 45  1  0  0  0  0
 38 47  1  0  0  0  0
 38 37  1  0  0  0  0
 39 49  1  6  0  0  0
 39 38  1  0  0  0  0
 39 35  1  0  0  0  0
 40 42  1  0  0  0  0
 40 39  1  0  0  0  0
 41 40  2  0  0  0  0
 46 37  1  0  0  0  0
 48 38  1  0  0  0  0
M  END
$$$$
