VQQ.pdb
 OpenBabel07022419253D

 52 51  0  0  1  0  0  0  0  0999 V2000
    1.8240   -3.0410   -0.7210 C   0  0  0  0  0  0  0  0  0  0  0  0
    2.9250   -2.0950   -1.0650 C   0  0  0  0  0  0  0  0  0  0  0  0
    2.6290   -1.5080   -2.4270 C   0  0  0  0  0  0  0  0  0  0  0  0
    3.0880   -0.9910   -0.0360 C   0  0  2  0  0  0  0  0  0  0  0  0
    3.3910   -1.5360    1.2730 N   0  0  0  0  0  0  0  0  0  0  0  0
    1.8420   -0.1450    0.0180 C   0  0  0  0  0  0  0  0  0  0  0  0
    1.4920    0.3720   -1.0530 O   0  0  0  0  0  0  0  0  0  0  0  0
    2.1440   -4.0700   -0.9820 H   0  0  0  0  0  0  0  0  0  0  0  0
    1.5670   -3.0370    0.3630 H   0  0  0  0  0  0  0  0  0  0  0  0
    0.8980   -2.8640   -1.3440 H   0  0  0  0  0  0  0  0  0  0  0  0
    3.8770   -2.6530   -1.1340 H   0  0  0  0  0  0  0  0  0  0  0  0
    1.5150   -1.4320   -2.5420 H   0  0  0  0  0  0  0  0  0  0  0  0
    2.9630   -2.2480   -3.1900 H   0  0  0  0  0  0  0  0  0  0  0  0
    3.1090   -0.5150   -2.5770 H   0  0  0  0  0  0  0  0  0  0  0  0
    3.9690   -0.3920   -0.3460 H   0  0  0  0  0  0  0  0  0  0  0  0
    3.7090   -0.7320    1.8640 H   0  0  0  0  0  0  0  0  0  0  0  0
    4.2200   -2.1580    1.1460 H   0  0  0  0  0  0  0  0  0  0  0  0
    1.9330    4.7040    1.5720 N   0  0  0  0  0  0  0  0  0  0  0  0
    0.8300    3.8130    1.4870 C   0  0  0  0  0  0  0  0  0  0  0  0
   -0.0040    3.7340    2.4100 O   0  0  0  0  0  0  0  0  0  0  0  0
    0.6790    2.9670    0.2670 C   0  0  0  0  0  0  0  0  0  0  0  0
   -0.3330    1.8910    0.3850 C   0  0  0  0  0  0  0  0  0  0  0  0
   -0.0570    0.8290    1.4300 C   0  0  2  0  0  0  0  0  0  0  0  0
    1.1120    0.0570    1.1900 N   0  0  0  0  0  0  0  0  0  0  0  0
   -1.2690    0.0670    1.7740 C   0  0  0  0  0  0  0  0  0  0  0  0
   -2.3570    0.6490    2.0080 O   0  0  0  0  0  0  0  0  0  0  0  0
    2.7700    4.5670    0.9700 H   0  0  0  0  0  0  0  0  0  0  0  0
    1.9250    5.5030    2.2310 H   0  0  0  0  0  0  0  0  0  0  0  0
    1.6830    2.6940   -0.0690 H   0  0  0  0  0  0  0  0  0  0  0  0
    0.2880    3.6880   -0.5170 H   0  0  0  0  0  0  0  0  0  0  0  0
   -0.4820    1.4160   -0.6060 H   0  0  0  0  0  0  0  0  0  0  0  0
   -1.3000    2.3940    0.6750 H   0  0  0  0  0  0  0  0  0  0  0  0
    0.2690    1.5100    2.3230 H   0  0  0  0  0  0  0  0  0  0  0  0
    1.4820   -0.4530    2.0770 H   0  0  0  0  0  0  0  0  0  0  0  0
   -4.4790   -1.1700   -1.4010 N   0  0  0  0  0  0  0  0  0  0  0  0
   -4.1710   -1.8520   -0.1630 C   0  0  0  0  0  0  0  0  0  0  0  0
   -4.9280   -1.5930    0.7940 O   0  0  0  0  0  0  0  0  0  0  0  0
   -3.0240   -2.7790   -0.1110 C   0  0  0  0  0  0  0  0  0  0  0  0
   -2.7950   -3.2300    1.3050 C   0  0  0  0  0  0  0  0  0  0  0  0
   -2.4710   -2.1070    2.1980 C   0  0  2  0  0  0  0  0  0  0  0  0
   -1.2990   -1.3500    1.8640 N   0  0  0  0  0  0  0  0  0  0  0  0
   -2.1910   -2.7110    3.5560 C   0  0  0  0  0  0  0  0  0  0  0  0
   -1.1090   -2.5090    4.1580 O   0  0  0  0  0  0  0  0  0  0  0  0
   -3.1780   -3.5090    4.1310 O   0  0  0  0  0  0  0  0  0  0  0  0
   -4.5020   -1.6660   -2.3050 H   0  0  0  0  0  0  0  0  0  0  0  0
   -4.6760   -0.1670   -1.3440 H   0  0  0  0  0  0  0  0  0  0  0  0
   -2.1010   -2.3320   -0.5410 H   0  0  0  0  0  0  0  0  0  0  0  0
   -3.3280   -3.6920   -0.6920 H   0  0  0  0  0  0  0  0  0  0  0  0
   -3.7580   -3.7380    1.6140 H   0  0  0  0  0  0  0  0  0  0  0  0
   -2.0580   -4.0520    1.2810 H   0  0  0  0  0  0  0  0  0  0  0  0
   -3.3140   -1.4300    2.3760 H   0  0  0  0  0  0  0  0  0  0  0  0
   -0.4210   -1.9090    1.6790 H   0  0  0  0  0  0  0  0  0  0  0  0
  1  9  1  0  0  0  0
  2  1  1  0  0  0  0
  2  4  1  0  0  0  0
  3  2  1  0  0  0  0
  4 15  1  6  0  0  0
  4  6  1  0  0  0  0
  4  5  1  0  0  0  0
  5 16  1  0  0  0  0
  6 24  1  0  0  0  0
  7  6  2  0  0  0  0
  8  1  1  0  0  0  0
 10  1  1  0  0  0  0
 11  2  1  0  0  0  0
 12  3  1  0  0  0  0
 13  3  1  0  0  0  0
 14  3  1  0  0  0  0
 17  5  1  0  0  0  0
 18 28  1  0  0  0  0
 19 18  1  0  0  0  0
 19 20  2  0  0  0  0
 21 22  1  0  0  0  0
 21 19  1  0  0  0  0
 22 32  1  0  0  0  0
 22 23  1  0  0  0  0
 23 25  1  0  0  0  0
 23 33  1  1  0  0  0
 24 23  1  0  0  0  0
 24 34  1  0  0  0  0
 25 41  1  0  0  0  0
 25 26  2  0  0  0  0
 27 18  1  0  0  0  0
 29 21  1  0  0  0  0
 30 21  1  0  0  0  0
 31 22  1  0  0  0  0
 35 46  1  0  0  0  0
 35 36  1  0  0  0  0
 36 38  1  0  0  0  0
 36 37  2  0  0  0  0
 38 39  1  0  0  0  0
 39 49  1  0  0  0  0
 39 40  1  0  0  0  0
 40 51  1  1  0  0  0
 40 42  1  0  0  0  0
 41 40  1  0  0  0  0
 42 44  2  0  0  0  0
 42 43  1  0  0  0  0
 45 35  1  0  0  0  0
 47 38  1  0  0  0  0
 48 38  1  0  0  0  0
 50 39  1  0  0  0  0
 52 41  1  0  0  0  0
M  END
$$$$
