VQS.pdb
 OpenBabel07022419253D

 46 45  0  0  1  0  0  0  0  0999 V2000
   -0.3430   -5.5810   -0.5970 C   0  0  0  0  0  0  0  0  0  0  0  0
    0.3240   -4.5510    0.2840 C   0  0  0  0  0  0  0  0  0  0  0  0
    0.5050   -5.1380    1.6460 C   0  0  0  0  0  0  0  0  0  0  0  0
   -0.4820   -3.2700    0.3060 C   0  0  2  0  0  0  0  0  0  0  0  0
   -0.5770   -2.7540   -1.0470 N   0  0  0  0  0  0  0  0  0  0  0  0
    0.1380   -2.2580    1.2070 C   0  0  0  0  0  0  0  0  0  0  0  0
    0.3290   -2.4620    2.4220 O   0  0  0  0  0  0  0  0  0  0  0  0
    0.0550   -5.5480   -1.6370 H   0  0  0  0  0  0  0  0  0  0  0  0
   -1.4350   -5.3300   -0.6850 H   0  0  0  0  0  0  0  0  0  0  0  0
   -0.2950   -6.6000   -0.1640 H   0  0  0  0  0  0  0  0  0  0  0  0
    1.3320   -4.3290   -0.1260 H   0  0  0  0  0  0  0  0  0  0  0  0
    1.4570   -4.7950    2.1160 H   0  0  0  0  0  0  0  0  0  0  0  0
   -0.3620   -4.9730    2.3160 H   0  0  0  0  0  0  0  0  0  0  0  0
    0.6050   -6.2510    1.5590 H   0  0  0  0  0  0  0  0  0  0  0  0
   -1.5100   -3.5380    0.6240 H   0  0  0  0  0  0  0  0  0  0  0  0
   -1.0260   -3.5340   -1.6150 H   0  0  0  0  0  0  0  0  0  0  0  0
   -1.2930   -1.9730   -1.0770 H   0  0  0  0  0  0  0  0  0  0  0  0
    3.1840    3.5800    2.5750 N   0  0  0  0  0  0  0  0  0  0  0  0
    2.9590    2.6080    1.5890 C   0  0  0  0  0  0  0  0  0  0  0  0
    2.3610    2.9030    0.5040 O   0  0  0  0  0  0  0  0  0  0  0  0
    3.3990    1.2170    1.7470 C   0  0  0  0  0  0  0  0  0  0  0  0
    2.5380    0.2210    1.0760 C   0  0  0  0  0  0  0  0  0  0  0  0
    1.1590    0.0190    1.5820 C   0  0  2  0  0  0  0  0  0  0  0  0
    0.5390   -0.9970    0.6880 N   0  0  0  0  0  0  0  0  0  0  0  0
    0.2480    1.1400    1.6660 C   0  0  0  0  0  0  0  0  0  0  0  0
    0.4220    2.0630    2.4980 O   0  0  0  0  0  0  0  0  0  0  0  0
    4.0250    3.5160    3.1910 H   0  0  0  0  0  0  0  0  0  0  0  0
    2.4830    4.3690    2.6720 H   0  0  0  0  0  0  0  0  0  0  0  0
    3.5390    0.9460    2.8200 H   0  0  0  0  0  0  0  0  0  0  0  0
    4.4370    1.1610    1.3040 H   0  0  0  0  0  0  0  0  0  0  0  0
    3.0600   -0.7830    1.2020 H   0  0  0  0  0  0  0  0  0  0  0  0
    2.5620    0.3550   -0.0400 H   0  0  0  0  0  0  0  0  0  0  0  0
    1.2310   -0.4550    2.6170 H   0  0  0  0  0  0  0  0  0  0  0  0
    0.4220   -0.7390   -0.3100 H   0  0  0  0  0  0  0  0  0  0  0  0
   -2.7190    4.1880   -0.2460 O   0  0  0  0  0  0  0  0  0  0  0  0
   -1.7990    3.1500   -0.4240 C   0  0  0  0  0  0  0  0  0  0  0  0
   -1.8060    2.3540    0.8750 C   0  0  2  0  0  0  0  0  0  0  0  0
   -0.8760    1.2350    0.8090 N   0  0  0  0  0  0  0  0  0  0  0  0
   -3.1870    1.8670    1.0780 C   0  0  0  0  0  0  0  0  0  0  0  0
   -4.1420    2.6650    1.1630 O   0  0  0  0  0  0  0  0  0  0  0  0
   -3.4160    0.5100    1.1730 O   0  0  0  0  0  0  0  0  0  0  0  0
   -3.5780    4.0080   -0.6760 H   0  0  0  0  0  0  0  0  0  0  0  0
   -2.1940    2.5410   -1.2730 H   0  0  0  0  0  0  0  0  0  0  0  0
   -0.8210    3.5920   -0.6400 H   0  0  0  0  0  0  0  0  0  0  0  0
   -1.4870    3.0640    1.6680 H   0  0  0  0  0  0  0  0  0  0  0  0
   -1.1180    0.5180    0.0750 H   0  0  0  0  0  0  0  0  0  0  0  0
  1 10  1  0  0  0  0
  1  2  1  0  0  0  0
  2  4  1  0  0  0  0
  2  3  1  0  0  0  0
  3 12  1  0  0  0  0
  3 13  1  0  0  0  0
  4 15  1  1  0  0  0
  4  6  1  0  0  0  0
  5  4  1  0  0  0  0
  6  7  2  0  0  0  0
  8  1  1  0  0  0  0
  9  1  1  0  0  0  0
 11  2  1  0  0  0  0
 14  3  1  0  0  0  0
 16  5  1  0  0  0  0
 17  5  1  0  0  0  0
 18 28  1  0  0  0  0
 18 27  1  0  0  0  0
 19 21  1  0  0  0  0
 19 18  1  0  0  0  0
 20 19  2  0  0  0  0
 21 29  1  0  0  0  0
 22 31  1  0  0  0  0
 22 23  1  0  0  0  0
 22 21  1  0  0  0  0
 23 25  1  0  0  0  0
 23 33  1  1  0  0  0
 24  6  1  0  0  0  0
 24 23  1  0  0  0  0
 25 26  2  0  0  0  0
 30 21  1  0  0  0  0
 32 22  1  0  0  0  0
 34 24  1  0  0  0  0
 36 35  1  0  0  0  0
 36 37  1  0  0  0  0
 37 39  1  0  0  0  0
 37 45  1  1  0  0  0
 38 37  1  0  0  0  0
 38 25  1  0  0  0  0
 39 40  2  0  0  0  0
 39 41  1  0  0  0  0
 42 35  1  0  0  0  0
 43 36  1  0  0  0  0
 44 36  1  0  0  0  0
 46 38  1  0  0  0  0
M  END
$$$$
