VQW.pdb
 OpenBabel07022419253D

 59 60  0  0  1  0  0  0  0  0999 V2000
    3.1770    0.3720    3.8850 C   0  0  0  0  0  0  0  0  0  0  0  0
    3.8300   -0.6400    2.9890 C   0  0  0  0  0  0  0  0  0  0  0  0
    5.3390   -0.5430    3.1140 C   0  0  0  0  0  0  0  0  0  0  0  0
    3.3810   -0.5210    1.5540 C   0  0  2  0  0  0  0  0  0  0  0  0
    3.7210    0.7970    1.0680 N   0  0  0  0  0  0  0  0  0  0  0  0
    1.9250   -0.7930    1.5020 C   0  0  0  0  0  0  0  0  0  0  0  0
    1.5070   -1.8740    1.9590 O   0  0  0  0  0  0  0  0  0  0  0  0
    2.0810    0.1810    3.9770 H   0  0  0  0  0  0  0  0  0  0  0  0
    3.3070    1.4090    3.5710 H   0  0  0  0  0  0  0  0  0  0  0  0
    3.5710    0.2290    4.9290 H   0  0  0  0  0  0  0  0  0  0  0  0
    3.5630   -1.6560    3.4010 H   0  0  0  0  0  0  0  0  0  0  0  0
    5.6900    0.4930    3.1560 H   0  0  0  0  0  0  0  0  0  0  0  0
    5.7790   -1.1180    2.2700 H   0  0  0  0  0  0  0  0  0  0  0  0
    5.6490   -1.0890    4.0430 H   0  0  0  0  0  0  0  0  0  0  0  0
    3.8800   -1.2870    0.9100 H   0  0  0  0  0  0  0  0  0  0  0  0
    3.1550    1.5020    1.5450 H   0  0  0  0  0  0  0  0  0  0  0  0
    4.7180    0.9680    1.3190 H   0  0  0  0  0  0  0  0  0  0  0  0
    0.0500    4.1180    1.6330 N   0  0  0  0  0  0  0  0  0  0  0  0
   -0.1200    2.7630    2.1060 C   0  0  0  0  0  0  0  0  0  0  0  0
    0.8390    2.3090    2.7690 O   0  0  0  0  0  0  0  0  0  0  0  0
   -1.3640    2.0350    1.7920 C   0  0  0  0  0  0  0  0  0  0  0  0
   -1.3110    0.5640    1.8560 C   0  0  0  0  0  0  0  0  0  0  0  0
   -0.4410   -0.1700    0.9100 C   0  0  2  0  0  0  0  0  0  0  0  0
    0.9600    0.1220    0.9500 N   0  0  0  0  0  0  0  0  0  0  0  0
   -0.9700   -0.1530   -0.4910 C   0  0  0  0  0  0  0  0  0  0  0  0
   -0.2290    0.1060   -1.4730 O   0  0  0  0  0  0  0  0  0  0  0  0
   -0.0840    4.9430    2.2560 H   0  0  0  0  0  0  0  0  0  0  0  0
    0.3130    4.3240    0.6400 H   0  0  0  0  0  0  0  0  0  0  0  0
   -2.0920    2.3570    2.6020 H   0  0  0  0  0  0  0  0  0  0  0  0
   -1.8490    2.4300    0.8640 H   0  0  0  0  0  0  0  0  0  0  0  0
   -2.3540    0.1690    1.8170 H   0  0  0  0  0  0  0  0  0  0  0  0
   -0.9610    0.2930    2.8940 H   0  0  0  0  0  0  0  0  0  0  0  0
   -0.5300   -1.2630    1.2310 H   0  0  0  0  0  0  0  0  0  0  0  0
    1.3720    0.9970    0.5620 H   0  0  0  0  0  0  0  0  0  0  0  0
   -2.3320   -0.4280   -0.7830 N   0  0  0  0  0  0  0  0  0  0  0  0
   -2.8450   -0.4100   -2.1280 C   0  0  1  0  0  0  0  0  0  0  0  0
   -3.3710   -1.7230   -2.6280 C   0  0  0  0  0  0  0  0  0  0  0  0
   -2.4150   -2.8200   -2.6740 C   0  0  0  0  0  0  0  0  0  0  0  0
   -1.7640   -3.2650   -3.8050 C   0  0  0  0  0  0  0  0  0  0  0  0
   -0.9550   -4.2700   -3.4760 N   0  0  0  0  0  0  0  0  0  0  0  0
   -1.0390   -4.5190   -2.1570 C   0  0  0  0  0  0  0  0  0  0  0  0
   -0.3940   -5.4590   -1.3810 C   0  0  0  0  0  0  0  0  0  0  0  0
   -0.6990   -5.4760   -0.0160 C   0  0  0  0  0  0  0  0  0  0  0  0
   -1.5990   -4.5940    0.5210 C   0  0  0  0  0  0  0  0  0  0  0  0
   -2.2170   -3.6760   -0.2830 C   0  0  0  0  0  0  0  0  0  0  0  0
   -1.9570   -3.6080   -1.6490 C   0  0  0  0  0  0  0  0  0  0  0  0
   -3.9190    0.6150   -2.1890 C   0  0  0  0  0  0  0  0  0  0  0  0
   -4.5440    0.8390   -3.2700 O   0  0  0  0  0  0  0  0  0  0  0  0
   -4.3030    1.3790   -1.0920 O   0  0  0  0  0  0  0  0  0  0  0  0
   -2.9770   -0.6420    0.0050 H   0  0  0  0  0  0  0  0  0  0  0  0
   -2.0350   -0.0430   -2.8370 H   0  0  0  0  0  0  0  0  0  0  0  0
   -3.8440   -1.5160   -3.6200 H   0  0  0  0  0  0  0  0  0  0  0  0
   -4.2440   -2.0040   -1.9660 H   0  0  0  0  0  0  0  0  0  0  0  0
   -1.8580   -2.8910   -4.8300 H   0  0  0  0  0  0  0  0  0  0  0  0
   -0.3410   -4.7990   -4.1250 H   0  0  0  0  0  0  0  0  0  0  0  0
    0.3170   -6.1520   -1.8140 H   0  0  0  0  0  0  0  0  0  0  0  0
   -0.1710   -6.2290    0.5570 H   0  0  0  0  0  0  0  0  0  0  0  0
   -1.8160   -4.6260    1.5650 H   0  0  0  0  0  0  0  0  0  0  0  0
   -2.9260   -2.9940    0.1560 H   0  0  0  0  0  0  0  0  0  0  0  0
  1  8  1  0  0  0  0
  1 10  1  0  0  0  0
  2  3  1  0  0  0  0
  2 11  1  0  0  0  0
  2  1  1  0  0  0  0
  3 12  1  0  0  0  0
  3 14  1  0  0  0  0
  4 15  1  6  0  0  0
  4  2  1  0  0  0  0
  5 17  1  0  0  0  0
  5 16  1  0  0  0  0
  5  4  1  0  0  0  0
  6  4  1  0  0  0  0
  6  7  2  0  0  0  0
  9  1  1  0  0  0  0
 13  3  1  0  0  0  0
 18 19  1  0  0  0  0
 18 27  1  0  0  0  0
 19 20  2  0  0  0  0
 21 22  1  0  0  0  0
 21 19  1  0  0  0  0
 21 29  1  0  0  0  0
 22 32  1  0  0  0  0
 23 24  1  0  0  0  0
 23 33  1  1  0  0  0
 23 22  1  0  0  0  0
 24  6  1  0  0  0  0
 25 23  1  0  0  0  0
 26 25  2  0  0  0  0
 28 18  1  0  0  0  0
 30 21  1  0  0  0  0
 31 22  1  0  0  0  0
 34 24  1  0  0  0  0
 35 25  1  0  0  0  0
 35 50  1  0  0  0  0
 36 51  1  6  0  0  0
 36 35  1  0  0  0  0
 37 36  1  0  0  0  0
 37 53  1  0  0  0  0
 38 37  1  0  0  0  0
 38 46  1  0  0  0  0
 39 40  1  0  0  0  0
 39 38  2  0  0  0  0
 40 41  1  0  0  0  0
 41 46  2  0  0  0  0
 41 42  1  0  0  0  0
 42 43  2  0  0  0  0
 43 44  1  0  0  0  0
 43 57  1  0  0  0  0
 44 58  1  0  0  0  0
 45 59  1  0  0  0  0
 45 44  2  0  0  0  0
 46 45  1  0  0  0  0
 47 36  1  0  0  0  0
 47 49  1  0  0  0  0
 48 47  2  0  0  0  0
 52 37  1  0  0  0  0
 54 39  1  0  0  0  0
 55 40  1  0  0  0  0
 56 42  1  0  0  0  0
M  END
$$$$
