VRA.pdb
 OpenBabel07022419243D

 51 50  0  0  1  0  0  0  0  0999 V2000
    3.0160   -4.8060   -0.3630 C   0  0  0  0  0  0  0  0  0  0  0  0
    2.3930   -3.7600    0.5420 C   0  0  0  0  0  0  0  0  0  0  0  0
    1.9440   -4.4910    1.7890 C   0  0  0  0  0  0  0  0  0  0  0  0
    1.2610   -3.1170   -0.1940 C   0  0  2  0  0  0  0  0  0  0  0  0
    1.7380   -2.4980   -1.3930 N   0  0  0  0  0  0  0  0  0  0  0  0
    0.4120   -2.2390    0.6180 C   0  0  0  0  0  0  0  0  0  0  0  0
   -0.0280   -2.7190    1.7070 O   0  0  0  0  0  0  0  0  0  0  0  0
    2.7540   -5.8450   -0.0440 H   0  0  0  0  0  0  0  0  0  0  0  0
    2.6200   -4.6980   -1.3920 H   0  0  0  0  0  0  0  0  0  0  0  0
    4.1190   -4.6760   -0.4510 H   0  0  0  0  0  0  0  0  0  0  0  0
    3.1760   -3.0080    0.7450 H   0  0  0  0  0  0  0  0  0  0  0  0
    2.0970   -3.8030    2.6450 H   0  0  0  0  0  0  0  0  0  0  0  0
    0.9080   -4.8520    1.6860 H   0  0  0  0  0  0  0  0  0  0  0  0
    2.5840   -5.3860    2.0090 H   0  0  0  0  0  0  0  0  0  0  0  0
    0.5830   -3.9620   -0.5290 H   0  0  0  0  0  0  0  0  0  0  0  0
    2.7720   -2.6150   -1.4450 H   0  0  0  0  0  0  0  0  0  0  0  0
    1.2760   -2.8720   -2.2520 H   0  0  0  0  0  0  0  0  0  0  0  0
    3.0290    1.9940    3.5750 N   0  0  0  0  0  0  0  0  0  0  0  0
    2.0620    2.7730    2.8960 C   0  0  0  0  0  0  0  0  0  0  0  0
    2.2740    3.1330    1.6740 N   0  0  0  0  0  0  0  0  0  0  0  0
    0.8700    3.1530    3.5770 N   0  0  0  0  0  0  0  0  0  0  0  0
   -0.3830    3.2220    2.9210 C   0  0  0  0  0  0  0  0  0  0  0  0
   -1.0070    1.9080    2.5130 C   0  0  0  0  0  0  0  0  0  0  0  0
   -0.1370    1.1400    1.5720 C   0  0  0  0  0  0  0  0  0  0  0  0
   -0.8050   -0.1620    1.1980 C   0  0  2  0  0  0  0  0  0  0  0  0
    0.0510   -0.9240    0.2910 N   0  0  0  0  0  0  0  0  0  0  0  0
   -2.0860    0.0050    0.4720 C   0  0  0  0  0  0  0  0  0  0  0  0
   -3.0580    0.5580    1.0270 O   0  0  0  0  0  0  0  0  0  0  0  0
    3.8200    2.3780    4.1330 H   0  0  0  0  0  0  0  0  0  0  0  0
    2.9430    0.9570    3.5100 H   0  0  0  0  0  0  0  0  0  0  0  0
    3.1590    2.8340    1.2250 H   0  0  0  0  0  0  0  0  0  0  0  0
    0.9500    3.3820    4.5910 H   0  0  0  0  0  0  0  0  0  0  0  0
   -0.3020    3.8950    2.0230 H   0  0  0  0  0  0  0  0  0  0  0  0
   -1.1350    3.7440    3.5670 H   0  0  0  0  0  0  0  0  0  0  0  0
   -1.2060    1.3470    3.4550 H   0  0  0  0  0  0  0  0  0  0  0  0
   -1.9910    2.2210    2.0400 H   0  0  0  0  0  0  0  0  0  0  0  0
    0.0590    1.7800    0.6940 H   0  0  0  0  0  0  0  0  0  0  0  0
    0.7780    0.8590    2.1350 H   0  0  0  0  0  0  0  0  0  0  0  0
   -1.0350   -0.7060    2.1310 H   0  0  0  0  0  0  0  0  0  0  0  0
    0.3760   -0.4820   -0.5710 H   0  0  0  0  0  0  0  0  0  0  0  0
   -3.4310    0.6570   -2.7240 C   0  0  0  0  0  0  0  0  0  0  0  0
   -3.5530   -0.2430   -1.5060 C   0  0  2  0  0  0  0  0  0  0  0  0
   -2.2810   -0.4420   -0.8650 N   0  0  0  0  0  0  0  0  0  0  0  0
   -4.1160   -1.5660   -1.8670 C   0  0  0  0  0  0  0  0  0  0  0  0
   -5.2290   -1.7120   -2.4440 O   0  0  0  0  0  0  0  0  0  0  0  0
   -3.4070   -2.7130   -1.5670 O   0  0  0  0  0  0  0  0  0  0  0  0
   -2.5550    1.3450   -2.6040 H   0  0  0  0  0  0  0  0  0  0  0  0
   -3.3410    0.0270   -3.6370 H   0  0  0  0  0  0  0  0  0  0  0  0
   -4.3190    1.3030   -2.8590 H   0  0  0  0  0  0  0  0  0  0  0  0
   -4.2870    0.2670   -0.8380 H   0  0  0  0  0  0  0  0  0  0  0  0
   -1.4690   -0.9030   -1.3180 H   0  0  0  0  0  0  0  0  0  0  0  0
  1  8  1  0  0  0  0
  1  2  1  0  0  0  0
  2 11  1  0  0  0  0
  2  3  1  0  0  0  0
  3 14  1  0  0  0  0
  3 12  1  0  0  0  0
  4 15  1  6  0  0  0
  4  2  1  0  0  0  0
  4  6  1  0  0  0  0
  5  4  1  0  0  0  0
  6  7  2  0  0  0  0
  9  1  1  0  0  0  0
 10  1  1  0  0  0  0
 13  3  1  0  0  0  0
 16  5  1  0  0  0  0
 17  5  1  0  0  0  0
 18 29  1  0  0  0  0
 19 18  1  0  0  0  0
 19 21  1  0  0  0  0
 20 19  2  0  0  0  0
 21 32  1  0  0  0  0
 22 34  1  0  0  0  0
 22 21  1  0  0  0  0
 23 22  1  0  0  0  0
 23 35  1  0  0  0  0
 24 38  1  0  0  0  0
 24 23  1  0  0  0  0
 25 24  1  0  0  0  0
 25 39  1  1  0  0  0
 26  6  1  0  0  0  0
 26 25  1  0  0  0  0
 27 28  2  0  0  0  0
 27 25  1  0  0  0  0
 30 18  1  0  0  0  0
 31 20  1  0  0  0  0
 33 22  1  0  0  0  0
 36 23  1  0  0  0  0
 37 24  1  0  0  0  0
 40 26  1  0  0  0  0
 41 47  1  0  0  0  0
 41 42  1  0  0  0  0
 42 43  1  0  0  0  0
 42 50  1  1  0  0  0
 43 27  1  0  0  0  0
 44 46  1  0  0  0  0
 44 42  1  0  0  0  0
 45 44  2  0  0  0  0
 48 41  1  0  0  0  0
 49 41  1  0  0  0  0
 51 43  1  0  0  0  0
M  END
$$$$
