VRC.pdb
 OpenBabel07022419243D

 52 51  0  0  1  0  0  0  0  0999 V2000
    2.8120   -4.4420    1.7190 C   0  0  0  0  0  0  0  0  0  0  0  0
    2.1200   -3.0660    1.7190 C   0  0  0  0  0  0  0  0  0  0  0  0
    1.4540   -2.9070    3.0380 C   0  0  0  0  0  0  0  0  0  0  0  0
    1.2140   -3.0820    0.5230 C   0  0  2  0  0  0  0  0  0  0  0  0
    2.0070   -3.2960   -0.7040 N   0  0  0  0  0  0  0  0  0  0  0  0
    0.4230   -1.8540    0.3160 C   0  0  0  0  0  0  0  0  0  0  0  0
    0.6560   -1.1880   -0.7220 O   0  0  0  0  0  0  0  0  0  0  0  0
    2.0380   -5.1950    1.4650 H   0  0  0  0  0  0  0  0  0  0  0  0
    3.5340   -4.4420    0.8860 H   0  0  0  0  0  0  0  0  0  0  0  0
    3.2700   -4.6660    2.6880 H   0  0  0  0  0  0  0  0  0  0  0  0
    2.9240   -2.3270    1.5750 H   0  0  0  0  0  0  0  0  0  0  0  0
    2.1720   -3.2530    3.8500 H   0  0  0  0  0  0  0  0  0  0  0  0
    0.5820   -3.5710    3.1670 H   0  0  0  0  0  0  0  0  0  0  0  0
    1.2660   -1.8490    3.3100 H   0  0  0  0  0  0  0  0  0  0  0  0
    0.5110   -3.9300    0.5750 H   0  0  0  0  0  0  0  0  0  0  0  0
    2.7810   -2.5970   -0.7010 H   0  0  0  0  0  0  0  0  0  0  0  0
    1.3280   -3.0740   -1.4850 H   0  0  0  0  0  0  0  0  0  0  0  0
    0.4720    2.3070    4.8880 N   0  0  0  0  0  0  0  0  0  0  0  0
    0.3660    2.9800    3.6510 C   0  0  0  0  0  0  0  0  0  0  0  0
   -0.6650    3.7080    3.3650 N   0  0  0  0  0  0  0  0  0  0  0  0
    1.3790    2.8950    2.6640 N   0  0  0  0  0  0  0  0  0  0  0  0
    1.1430    2.7610    1.2660 C   0  0  0  0  0  0  0  0  0  0  0  0
    0.5970    1.4430    0.8060 C   0  0  0  0  0  0  0  0  0  0  0  0
   -0.7110    1.0860    1.4020 C   0  0  0  0  0  0  0  0  0  0  0  0
   -1.3030   -0.2070    0.9590 C   0  0  2  0  0  0  0  0  0  0  0  0
   -0.5700   -1.3910    1.2090 N   0  0  0  0  0  0  0  0  0  0  0  0
   -1.8960   -0.0850   -0.3880 C   0  0  0  0  0  0  0  0  0  0  0  0
   -2.3360    1.0280   -0.8300 O   0  0  0  0  0  0  0  0  0  0  0  0
   -0.3060    1.6990    5.2200 H   0  0  0  0  0  0  0  0  0  0  0  0
    1.3300    2.4250    5.4580 H   0  0  0  0  0  0  0  0  0  0  0  0
   -0.8050    4.2210    2.4890 H   0  0  0  0  0  0  0  0  0  0  0  0
    2.3890    2.9300    3.0090 H   0  0  0  0  0  0  0  0  0  0  0  0
    2.0900    3.0090    0.7220 H   0  0  0  0  0  0  0  0  0  0  0  0
    0.4200    3.5760    0.9780 H   0  0  0  0  0  0  0  0  0  0  0  0
    0.5560    1.4610   -0.3080 H   0  0  0  0  0  0  0  0  0  0  0  0
    1.3450    0.6660    1.1220 H   0  0  0  0  0  0  0  0  0  0  0  0
   -1.4380    1.9150    1.1870 H   0  0  0  0  0  0  0  0  0  0  0  0
   -0.6210    1.0930    2.5190 H   0  0  0  0  0  0  0  0  0  0  0  0
   -2.2480   -0.3120    1.6590 H   0  0  0  0  0  0  0  0  0  0  0  0
   -0.7580   -1.9600    2.0770 H   0  0  0  0  0  0  0  0  0  0  0  0
   -2.0310   -1.1730   -1.2840 N   0  0  0  0  0  0  0  0  0  0  0  0
   -2.6070   -1.0390   -2.5900 C   0  0  1  0  0  0  0  0  0  0  0  0
   -1.7520   -1.4240   -3.7410 C   0  0  0  0  0  0  0  0  0  0  0  0
   -0.2500   -0.4460   -3.8310 S   0  0  0  0  0  0  0  0  0  0  0  0
   -3.9210   -1.7240   -2.5960 C   0  0  0  0  0  0  0  0  0  0  0  0
   -4.6440   -1.7620   -3.6280 O   0  0  0  0  0  0  0  0  0  0  0  0
   -4.3870   -2.3450   -1.4530 O   0  0  0  0  0  0  0  0  0  0  0  0
   -1.7380   -2.1640   -1.0390 H   0  0  0  0  0  0  0  0  0  0  0  0
   -2.8610    0.0550   -2.7260 H   0  0  0  0  0  0  0  0  0  0  0  0
   -2.3510   -1.1540   -4.6640 H   0  0  0  0  0  0  0  0  0  0  0  0
   -1.5660   -2.5040   -3.8390 H   0  0  0  0  0  0  0  0  0  0  0  0
   -0.5310    0.8990   -3.5420 H   0  0  0  0  0  0  0  0  0  0  0  0
  1 10  1  0  0  0  0
  2  1  1  0  0  0  0
  2  3  1  0  0  0  0
  3 13  1  0  0  0  0
  3 14  1  0  0  0  0
  3 12  1  0  0  0  0
  4 15  1  1  0  0  0
  4  2  1  0  0  0  0
  5 16  1  0  0  0  0
  5  4  1  0  0  0  0
  6  4  1  0  0  0  0
  6 26  1  0  0  0  0
  7  6  2  0  0  0  0
  8  1  1  0  0  0  0
  9  1  1  0  0  0  0
 11  2  1  0  0  0  0
 17  5  1  0  0  0  0
 18 29  1  0  0  0  0
 18 30  1  0  0  0  0
 19 18  1  0  0  0  0
 20 19  2  0  0  0  0
 21 32  1  0  0  0  0
 21 19  1  0  0  0  0
 22 21  1  0  0  0  0
 23 36  1  0  0  0  0
 23 22  1  0  0  0  0
 23 24  1  0  0  0  0
 24 38  1  0  0  0  0
 25 26  1  0  0  0  0
 25 24  1  0  0  0  0
 25 39  1  1  0  0  0
 26 40  1  0  0  0  0
 27 25  1  0  0  0  0
 28 27  2  0  0  0  0
 31 20  1  0  0  0  0
 33 22  1  0  0  0  0
 34 22  1  0  0  0  0
 35 23  1  0  0  0  0
 37 24  1  0  0  0  0
 41 48  1  0  0  0  0
 41 27  1  0  0  0  0
 42 49  1  6  0  0  0
 42 41  1  0  0  0  0
 43 42  1  0  0  0  0
 44 43  1  0  0  0  0
 44 52  1  0  0  0  0
 45 42  1  0  0  0  0
 45 47  1  0  0  0  0
 46 45  2  0  0  0  0
 50 43  1  0  0  0  0
 51 43  1  0  0  0  0
M  END
$$$$
