VRD.pdb
 OpenBabel07022419243D

 54 53  0  0  1  0  0  0  0  0999 V2000
    1.4770   -3.4990    4.6670 C   0  0  0  0  0  0  0  0  0  0  0  0
    0.6600   -2.3690    4.1440 C   0  0  0  0  0  0  0  0  0  0  0  0
    1.4690   -1.0970    4.0560 C   0  0  0  0  0  0  0  0  0  0  0  0
    0.0030   -2.6850    2.8120 C   0  0  2  0  0  0  0  0  0  0  0  0
    1.0350   -2.9810    1.8590 N   0  0  0  0  0  0  0  0  0  0  0  0
   -0.7900   -1.4830    2.4350 C   0  0  0  0  0  0  0  0  0  0  0  0
   -1.7020   -1.0730    3.1940 O   0  0  0  0  0  0  0  0  0  0  0  0
    1.3020   -4.4560    4.1130 H   0  0  0  0  0  0  0  0  0  0  0  0
    2.5800   -3.2550    4.6800 H   0  0  0  0  0  0  0  0  0  0  0  0
    1.2220   -3.6660    5.7330 H   0  0  0  0  0  0  0  0  0  0  0  0
   -0.2120   -2.2050    4.8470 H   0  0  0  0  0  0  0  0  0  0  0  0
    0.9870   -0.3090    4.6720 H   0  0  0  0  0  0  0  0  0  0  0  0
    1.5250   -0.7730    3.0090 H   0  0  0  0  0  0  0  0  0  0  0  0
    2.4890   -1.2450    4.4480 H   0  0  0  0  0  0  0  0  0  0  0  0
   -0.6180   -3.5810    2.9470 H   0  0  0  0  0  0  0  0  0  0  0  0
    0.8750   -3.8090    1.2770 H   0  0  0  0  0  0  0  0  0  0  0  0
    1.9860   -2.9340    2.2850 H   0  0  0  0  0  0  0  0  0  0  0  0
    3.4590    1.8420    2.7560 N   0  0  0  0  0  0  0  0  0  0  0  0
    3.2080    1.8210    1.3630 C   0  0  0  0  0  0  0  0  0  0  0  0
    3.8180    1.0270    0.5550 N   0  0  0  0  0  0  0  0  0  0  0  0
    2.2350    2.7240    0.8290 N   0  0  0  0  0  0  0  0  0  0  0  0
    1.5710    2.4830   -0.4240 C   0  0  0  0  0  0  0  0  0  0  0  0
    0.6350    1.2780   -0.3200 C   0  0  0  0  0  0  0  0  0  0  0  0
   -0.3790    1.5730    0.7320 C   0  0  0  0  0  0  0  0  0  0  0  0
   -1.3350    0.4160    0.8660 C   0  0  2  0  0  0  0  0  0  0  0  0
   -0.5720   -0.7540    1.2390 N   0  0  0  0  0  0  0  0  0  0  0  0
   -2.0470    0.2370   -0.4120 C   0  0  0  0  0  0  0  0  0  0  0  0
   -2.7400    1.1920   -0.8350 O   0  0  0  0  0  0  0  0  0  0  0  0
    3.5430    2.7320    3.3000 H   0  0  0  0  0  0  0  0  0  0  0  0
    3.5650    0.9230    3.2650 H   0  0  0  0  0  0  0  0  0  0  0  0
    3.6490    0.9970   -0.4630 H   0  0  0  0  0  0  0  0  0  0  0  0
    1.9970    3.5830    1.3650 H   0  0  0  0  0  0  0  0  0  0  0  0
    2.2750    2.2710   -1.2610 H   0  0  0  0  0  0  0  0  0  0  0  0
    0.9900    3.3790   -0.6960 H   0  0  0  0  0  0  0  0  0  0  0  0
    1.2470    0.4060   -0.0900 H   0  0  0  0  0  0  0  0  0  0  0  0
    0.1840    1.1690   -1.3350 H   0  0  0  0  0  0  0  0  0  0  0  0
    0.1920    1.6920    1.7010 H   0  0  0  0  0  0  0  0  0  0  0  0
   -0.9000    2.5300    0.5220 H   0  0  0  0  0  0  0  0  0  0  0  0
   -2.1160    0.6560    1.6250 H   0  0  0  0  0  0  0  0  0  0  0  0
    0.1800   -1.1130    0.6200 H   0  0  0  0  0  0  0  0  0  0  0  0
   -1.9900   -0.9500   -1.1800 N   0  0  0  0  0  0  0  0  0  0  0  0
   -2.7430   -1.0440   -2.4570 C   0  0  1  0  0  0  0  0  0  0  0  0
   -1.8190   -1.4490   -3.5560 C   0  0  0  0  0  0  0  0  0  0  0  0
   -2.4520   -1.5420   -4.8800 C   0  0  0  0  0  0  0  0  0  0  0  0
   -3.6290   -1.2480   -5.1370 O   0  0  0  0  0  0  0  0  0  0  0  0
   -3.7600   -2.1320   -2.2500 C   0  0  0  0  0  0  0  0  0  0  0  0
   -3.8080   -2.7630   -1.1440 O   0  0  0  0  0  0  0  0  0  0  0  0
   -1.6800   -1.9980   -5.9610 O   0  0  0  0  0  0  0  0  0  0  0  0
   -4.6800   -2.5120   -3.1960 O   0  0  0  0  0  0  0  0  0  0  0  0
   -1.4220   -1.7440   -0.8420 H   0  0  0  0  0  0  0  0  0  0  0  0
   -3.2820   -0.1110   -2.6580 H   0  0  0  0  0  0  0  0  0  0  0  0
   -0.8940   -0.8200   -3.5940 H   0  0  0  0  0  0  0  0  0  0  0  0
   -1.4670   -2.4980   -3.3190 H   0  0  0  0  0  0  0  0  0  0  0  0
   -2.0950   -2.4640   -6.7660 H   0  0  0  0  0  0  0  0  0  0  0  0
  1  9  1  0  0  0  0
  1 10  1  0  0  0  0
  2  1  1  0  0  0  0
  2 11  1  0  0  0  0
  3  2  1  0  0  0  0
  3 14  1  0  0  0  0
  3 12  1  0  0  0  0
  4 15  1  1  0  0  0
  4  2  1  0  0  0  0
  5 17  1  0  0  0  0
  5  4  1  0  0  0  0
  6  4  1  0  0  0  0
  6  7  2  0  0  0  0
  8  1  1  0  0  0  0
 13  3  1  0  0  0  0
 16  5  1  0  0  0  0
 18 30  1  0  0  0  0
 18 29  1  0  0  0  0
 19 18  1  0  0  0  0
 20 19  2  0  0  0  0
 21 19  1  0  0  0  0
 21 32  1  0  0  0  0
 22 23  1  0  0  0  0
 22 21  1  0  0  0  0
 23 35  1  0  0  0  0
 23 24  1  0  0  0  0
 24 25  1  0  0  0  0
 24 37  1  0  0  0  0
 25 26  1  0  0  0  0
 25 39  1  1  0  0  0
 26  6  1  0  0  0  0
 27 25  1  0  0  0  0
 28 27  2  0  0  0  0
 31 20  1  0  0  0  0
 33 22  1  0  0  0  0
 34 22  1  0  0  0  0
 36 23  1  0  0  0  0
 38 24  1  0  0  0  0
 40 26  1  0  0  0  0
 41 50  1  0  0  0  0
 41 27  1  0  0  0  0
 42 51  1  6  0  0  0
 42 46  1  0  0  0  0
 42 41  1  0  0  0  0
 43 53  1  0  0  0  0
 43 42  1  0  0  0  0
 44 43  1  0  0  0  0
 45 44  2  0  0  0  0
 46 47  1  0  0  0  0
 48 44  1  0  0  0  0
 49 46  2  0  0  0  0
 52 43  1  0  0  0  0
 54 48  1  0  0  0  0
M  END
$$$$
