VRE.pdb
 OpenBabel07022419243D

 57 56  0  0  1  0  0  0  0  0999 V2000
   -2.2910    1.0200    4.1200 C   0  0  0  0  0  0  0  0  0  0  0  0
   -0.8780    0.6610    4.4690 C   0  0  0  0  0  0  0  0  0  0  0  0
    0.0870    1.7870    4.1560 C   0  0  0  0  0  0  0  0  0  0  0  0
   -0.5000   -0.6250    3.7760 C   0  0  2  0  0  0  0  0  0  0  0  0
    0.8600   -1.0390    4.0720 N   0  0  0  0  0  0  0  0  0  0  0  0
   -0.7540   -0.6120    2.3280 C   0  0  0  0  0  0  0  0  0  0  0  0
   -1.8580   -0.2350    1.8730 O   0  0  0  0  0  0  0  0  0  0  0  0
   -2.3570    1.6770    3.2410 H   0  0  0  0  0  0  0  0  0  0  0  0
   -2.7300    1.5480    5.0050 H   0  0  0  0  0  0  0  0  0  0  0  0
   -2.8570    0.0790    3.9560 H   0  0  0  0  0  0  0  0  0  0  0  0
   -0.7610    0.4640    5.5690 H   0  0  0  0  0  0  0  0  0  0  0  0
    1.1040    1.5000    4.4230 H   0  0  0  0  0  0  0  0  0  0  0  0
   -0.2560    2.6570    4.7860 H   0  0  0  0  0  0  0  0  0  0  0  0
    0.0260    2.1250    3.1200 H   0  0  0  0  0  0  0  0  0  0  0  0
   -1.1550   -1.4230    4.2250 H   0  0  0  0  0  0  0  0  0  0  0  0
    0.9510   -1.1620    5.1020 H   0  0  0  0  0  0  0  0  0  0  0  0
    1.5610   -0.3600    3.7010 H   0  0  0  0  0  0  0  0  0  0  0  0
    3.3210    4.3020    2.4030 N   0  0  0  0  0  0  0  0  0  0  0  0
    3.1910    2.9190    2.0330 C   0  0  0  0  0  0  0  0  0  0  0  0
    3.6180    2.0230    2.8640 N   0  0  0  0  0  0  0  0  0  0  0  0
    2.6140    2.5220    0.7990 N   0  0  0  0  0  0  0  0  0  0  0  0
    2.1320    1.1520    0.6860 C   0  0  0  0  0  0  0  0  0  0  0  0
    1.5550    0.8730   -0.6610 C   0  0  0  0  0  0  0  0  0  0  0  0
    1.0540   -0.5130   -0.8840 C   0  0  0  0  0  0  0  0  0  0  0  0
   -0.0450   -0.9990   -0.0200 C   0  0  2  0  0  0  0  0  0  0  0  0
    0.2480   -1.0300    1.3830 N   0  0  0  0  0  0  0  0  0  0  0  0
   -0.3870   -2.4350   -0.3950 C   0  0  0  0  0  0  0  0  0  0  0  0
   -0.3650   -3.3570    0.4440 O   0  0  0  0  0  0  0  0  0  0  0  0
    4.2250    4.6260    2.8080 H   0  0  0  0  0  0  0  0  0  0  0  0
    2.5750    4.9970    2.2940 H   0  0  0  0  0  0  0  0  0  0  0  0
    4.0440    2.2810    3.7720 H   0  0  0  0  0  0  0  0  0  0  0  0
    2.5630    3.2190    0.0370 H   0  0  0  0  0  0  0  0  0  0  0  0
    1.3620    1.0310    1.4520 H   0  0  0  0  0  0  0  0  0  0  0  0
    2.9460    0.4500    0.9310 H   0  0  0  0  0  0  0  0  0  0  0  0
    0.7930    1.6480   -0.9580 H   0  0  0  0  0  0  0  0  0  0  0  0
    2.3730    1.0370   -1.4310 H   0  0  0  0  0  0  0  0  0  0  0  0
    1.9490   -1.1980   -0.7330 H   0  0  0  0  0  0  0  0  0  0  0  0
    0.7870   -0.6980   -1.9560 H   0  0  0  0  0  0  0  0  0  0  0  0
   -0.9800   -0.4450   -0.2520 H   0  0  0  0  0  0  0  0  0  0  0  0
    1.1650   -1.3430    1.7640 H   0  0  0  0  0  0  0  0  0  0  0  0
   -0.7430   -2.7560   -1.7290 N   0  0  0  0  0  0  0  0  0  0  0  0
   -1.0770   -4.0760   -2.1630 C   0  0  1  0  0  0  0  0  0  0  0  0
   -2.5170   -4.2530   -2.4910 C   0  0  0  0  0  0  0  0  0  0  0  0
   -3.1230   -3.3820   -3.5110 C   0  0  0  0  0  0  0  0  0  0  0  0
   -2.6320   -3.3830   -4.8670 C   0  0  0  0  0  0  0  0  0  0  0  0
   -1.7210   -4.1010   -5.2950 O   0  0  0  0  0  0  0  0  0  0  0  0
   -0.1800   -4.7230   -3.1020 C   0  0  0  0  0  0  0  0  0  0  0  0
   -0.4110   -5.9430   -3.3950 O   0  0  0  0  0  0  0  0  0  0  0  0
   -3.1980   -2.5150   -5.8330 O   0  0  0  0  0  0  0  0  0  0  0  0
    0.9220   -4.1660   -3.7310 O   0  0  0  0  0  0  0  0  0  0  0  0
   -0.7750   -1.9990   -2.4770 H   0  0  0  0  0  0  0  0  0  0  0  0
   -0.9500   -4.7140   -1.1950 H   0  0  0  0  0  0  0  0  0  0  0  0
   -3.1150   -4.2080   -1.5290 H   0  0  0  0  0  0  0  0  0  0  0  0
   -2.6850   -5.3250   -2.8170 H   0  0  0  0  0  0  0  0  0  0  0  0
   -3.2230   -2.3360   -3.0830 H   0  0  0  0  0  0  0  0  0  0  0  0
   -4.2240   -3.6990   -3.5700 H   0  0  0  0  0  0  0  0  0  0  0  0
   -3.2660   -2.7880   -6.8050 H   0  0  0  0  0  0  0  0  0  0  0  0
  1  2  1  0  0  0  0
  1  9  1  0  0  0  0
  2 11  1  0  0  0  0
  3 12  1  0  0  0  0
  3  2  1  0  0  0  0
  3 13  1  0  0  0  0
  4  5  1  0  0  0  0
  4 15  1  1  0  0  0
  4  2  1  0  0  0  0
  5 16  1  0  0  0  0
  6  4  1  0  0  0  0
  7  6  2  0  0  0  0
  8  1  1  0  0  0  0
 10  1  1  0  0  0  0
 14  3  1  0  0  0  0
 17  5  1  0  0  0  0
 18 29  1  0  0  0  0
 19 18  1  0  0  0  0
 19 20  2  0  0  0  0
 20 31  1  0  0  0  0
 21 19  1  0  0  0  0
 22 21  1  0  0  0  0
 22 34  1  0  0  0  0
 22 33  1  0  0  0  0
 23 22  1  0  0  0  0
 24 37  1  0  0  0  0
 24 23  1  0  0  0  0
 24 25  1  0  0  0  0
 25 39  1  6  0  0  0
 25 26  1  0  0  0  0
 26 40  1  0  0  0  0
 26  6  1  0  0  0  0
 27 25  1  0  0  0  0
 27 28  2  0  0  0  0
 30 18  1  0  0  0  0
 32 21  1  0  0  0  0
 35 23  1  0  0  0  0
 36 23  1  0  0  0  0
 38 24  1  0  0  0  0
 41 27  1  0  0  0  0
 42 41  1  0  0  0  0
 42 52  1  1  0  0  0
 43 42  1  0  0  0  0
 43 53  1  0  0  0  0
 44 55  1  0  0  0  0
 44 43  1  0  0  0  0
 45 44  1  0  0  0  0
 46 45  2  0  0  0  0
 47 42  1  0  0  0  0
 48 47  1  0  0  0  0
 49 45  1  0  0  0  0
 50 47  2  0  0  0  0
 51 41  1  0  0  0  0
 54 43  1  0  0  0  0
 56 44  1  0  0  0  0
 57 49  1  0  0  0  0
M  END
$$$$
