VRF.pdb
 OpenBabel07022419243D

 61 61  0  0  1  0  0  0  0  0999 V2000
    1.1550    0.8710    4.5930 C   0  0  0  0  0  0  0  0  0  0  0  0
    2.0120   -0.2600    4.0890 C   0  0  0  0  0  0  0  0  0  0  0  0
    1.3370   -1.5830    4.1240 C   0  0  0  0  0  0  0  0  0  0  0  0
    2.7320    0.0680    2.8000 C   0  0  2  0  0  0  0  0  0  0  0  0
    3.6220    1.2180    3.0240 N   0  0  0  0  0  0  0  0  0  0  0  0
    1.7480    0.4320    1.7550 C   0  0  0  0  0  0  0  0  0  0  0  0
    1.6280    1.6640    1.4230 O   0  0  0  0  0  0  0  0  0  0  0  0
    0.1300    0.8490    4.1360 H   0  0  0  0  0  0  0  0  0  0  0  0
    0.9880    0.7040    5.6790 H   0  0  0  0  0  0  0  0  0  0  0  0
    1.6420    1.8420    4.3860 H   0  0  0  0  0  0  0  0  0  0  0  0
    2.8570   -0.3320    4.8600 H   0  0  0  0  0  0  0  0  0  0  0  0
    1.3440   -1.9260    5.1970 H   0  0  0  0  0  0  0  0  0  0  0  0
    1.7320   -2.3420    3.4510 H   0  0  0  0  0  0  0  0  0  0  0  0
    0.2650   -1.4270    3.8970 H   0  0  0  0  0  0  0  0  0  0  0  0
    3.3560   -0.7910    2.5240 H   0  0  0  0  0  0  0  0  0  0  0  0
    3.6920    1.3770    4.0410 H   0  0  0  0  0  0  0  0  0  0  0  0
    3.1910    2.0580    2.5980 H   0  0  0  0  0  0  0  0  0  0  0  0
    2.2740    3.9860   -2.8890 N   0  0  0  0  0  0  0  0  0  0  0  0
    0.9830    3.3910   -2.9040 C   0  0  0  0  0  0  0  0  0  0  0  0
   -0.0650    4.1390   -3.0690 N   0  0  0  0  0  0  0  0  0  0  0  0
    0.8830    1.9870   -2.7370 N   0  0  0  0  0  0  0  0  0  0  0  0
   -0.3820    1.3240   -2.6110 C   0  0  0  0  0  0  0  0  0  0  0  0
   -0.1810   -0.1660   -2.4450 C   0  0  0  0  0  0  0  0  0  0  0  0
    0.6170   -0.5360   -1.2470 C   0  0  0  0  0  0  0  0  0  0  0  0
   -0.0010   -0.0830    0.0780 C   0  0  2  0  0  0  0  0  0  0  0  0
    0.9370   -0.5330    1.1040 N   0  0  0  0  0  0  0  0  0  0  0  0
   -1.3470   -0.6200    0.2510 C   0  0  0  0  0  0  0  0  0  0  0  0
   -2.2770   -0.2370   -0.5120 O   0  0  0  0  0  0  0  0  0  0  0  0
    3.0860    3.5020   -2.4180 H   0  0  0  0  0  0  0  0  0  0  0  0
    2.4170    4.9030   -3.3450 H   0  0  0  0  0  0  0  0  0  0  0  0
    0.0540    5.1670   -3.1880 H   0  0  0  0  0  0  0  0  0  0  0  0
    1.7570    1.4300   -2.7060 H   0  0  0  0  0  0  0  0  0  0  0  0
   -1.0570    1.7800   -1.8860 H   0  0  0  0  0  0  0  0  0  0  0  0
   -0.8940    1.4410   -3.6120 H   0  0  0  0  0  0  0  0  0  0  0  0
    0.4040   -0.4940   -3.3380 H   0  0  0  0  0  0  0  0  0  0  0  0
   -1.1290   -0.6970   -2.4500 H   0  0  0  0  0  0  0  0  0  0  0  0
    1.6650   -0.1840   -1.2870 H   0  0  0  0  0  0  0  0  0  0  0  0
    0.6510   -1.6430   -1.1910 H   0  0  0  0  0  0  0  0  0  0  0  0
   -0.0080    1.0200    0.1010 H   0  0  0  0  0  0  0  0  0  0  0  0
    1.0260   -1.5200    1.3590 H   0  0  0  0  0  0  0  0  0  0  0  0
   -1.6080   -1.5690    1.2710 N   0  0  0  0  0  0  0  0  0  0  0  0
   -2.9460   -2.0860    1.4260 C   0  0  1  0  0  0  0  0  0  0  0  0
   -2.8800   -3.5820    1.1910 C   0  0  0  0  0  0  0  0  0  0  0  0
   -2.3920   -3.9360   -0.1360 C   0  0  0  0  0  0  0  0  0  0  0  0
   -1.0490   -4.1230   -0.3690 C   0  0  0  0  0  0  0  0  0  0  0  0
   -0.5760   -4.4630   -1.6390 C   0  0  0  0  0  0  0  0  0  0  0  0
   -1.4550   -4.6170   -2.6890 C   0  0  0  0  0  0  0  0  0  0  0  0
   -2.8000   -4.4320   -2.4640 C   0  0  0  0  0  0  0  0  0  0  0  0
   -3.2590   -4.0930   -1.1920 C   0  0  0  0  0  0  0  0  0  0  0  0
   -3.4780   -1.8830    2.7940 C   0  0  0  0  0  0  0  0  0  0  0  0
   -4.6420   -2.3040    3.0200 O   0  0  0  0  0  0  0  0  0  0  0  0
   -2.8020   -1.2770    3.8180 O   0  0  0  0  0  0  0  0  0  0  0  0
   -0.8820   -1.9250    1.9200 H   0  0  0  0  0  0  0  0  0  0  0  0
   -3.6610   -1.6730    0.7060 H   0  0  0  0  0  0  0  0  0  0  0  0
   -3.9130   -3.9670    1.3980 H   0  0  0  0  0  0  0  0  0  0  0  0
   -2.2530   -4.0020    2.0210 H   0  0  0  0  0  0  0  0  0  0  0  0
   -0.3060   -4.0170    0.4130 H   0  0  0  0  0  0  0  0  0  0  0  0
    0.4720   -4.6130   -1.8370 H   0  0  0  0  0  0  0  0  0  0  0  0
   -1.1030   -4.8850   -3.6980 H   0  0  0  0  0  0  0  0  0  0  0  0
   -3.4720   -4.5560   -3.2950 H   0  0  0  0  0  0  0  0  0  0  0  0
   -4.3120   -3.9520   -1.0360 H   0  0  0  0  0  0  0  0  0  0  0  0
  1  9  1  0  0  0  0
  2  3  1  0  0  0  0
  2  1  1  0  0  0  0
  2 11  1  0  0  0  0
  3 12  1  0  0  0  0
  4 15  1  6  0  0  0
  4  5  1  0  0  0  0
  4  2  1  0  0  0  0
  5 16  1  0  0  0  0
  6  4  1  0  0  0  0
  7  6  2  0  0  0  0
  8  1  1  0  0  0  0
 10  1  1  0  0  0  0
 13  3  1  0  0  0  0
 14  3  1  0  0  0  0
 17  5  1  0  0  0  0
 18 29  1  0  0  0  0
 19 18  1  0  0  0  0
 19 21  1  0  0  0  0
 20 19  2  0  0  0  0
 21 32  1  0  0  0  0
 21 22  1  0  0  0  0
 22 23  1  0  0  0  0
 22 33  1  0  0  0  0
 23 24  1  0  0  0  0
 24 38  1  0  0  0  0
 24 25  1  0  0  0  0
 25 39  1  1  0  0  0
 25 27  1  0  0  0  0
 25 26  1  0  0  0  0
 26 40  1  0  0  0  0
 26  6  1  0  0  0  0
 27 41  1  0  0  0  0
 28 27  2  0  0  0  0
 30 18  1  0  0  0  0
 31 20  1  0  0  0  0
 34 22  1  0  0  0  0
 35 23  1  0  0  0  0
 36 23  1  0  0  0  0
 37 24  1  0  0  0  0
 41 42  1  0  0  0  0
 41 53  1  0  0  0  0
 42 54  1  6  0  0  0
 42 50  1  0  0  0  0
 43 55  1  0  0  0  0
 43 42  1  0  0  0  0
 43 56  1  0  0  0  0
 44 43  1  0  0  0  0
 45 44  1  0  0  0  0
 45 57  1  0  0  0  0
 46 45  2  0  0  0  0
 47 48  2  0  0  0  0
 47 46  1  0  0  0  0
 48 49  1  0  0  0  0
 49 61  1  0  0  0  0
 49 44  2  0  0  0  0
 50 51  2  0  0  0  0
 50 52  1  0  0  0  0
 58 46  1  0  0  0  0
 59 47  1  0  0  0  0
 60 48  1  0  0  0  0
M  END
$$$$
