VRH.pdb
 OpenBabel07022419243D

 58 58  0  0  1  0  0  0  0  0999 V2000
    0.9990   -1.7160    4.0660 C   0  0  0  0  0  0  0  0  0  0  0  0
   -0.1380   -2.6310    4.3500 C   0  0  0  0  0  0  0  0  0  0  0  0
    0.0770   -3.9410    3.6060 C   0  0  0  0  0  0  0  0  0  0  0  0
   -1.5030   -2.0840    4.0870 C   0  0  2  0  0  0  0  0  0  0  0  0
   -2.4380   -3.1680    4.4480 N   0  0  0  0  0  0  0  0  0  0  0  0
   -1.7270   -1.7270    2.6360 C   0  0  0  0  0  0  0  0  0  0  0  0
   -2.5150   -2.4050    1.9300 O   0  0  0  0  0  0  0  0  0  0  0  0
    1.2520   -1.6760    2.9880 H   0  0  0  0  0  0  0  0  0  0  0  0
    0.8340   -0.6810    4.4490 H   0  0  0  0  0  0  0  0  0  0  0  0
    1.9430   -2.0530    4.5960 H   0  0  0  0  0  0  0  0  0  0  0  0
   -0.0870   -2.8920    5.4360 H   0  0  0  0  0  0  0  0  0  0  0  0
   -0.2740   -4.7920    4.2430 H   0  0  0  0  0  0  0  0  0  0  0  0
    1.1290   -4.0630    3.3460 H   0  0  0  0  0  0  0  0  0  0  0  0
   -0.6160   -3.9140    2.7300 H   0  0  0  0  0  0  0  0  0  0  0  0
   -1.7050   -1.2000    4.7000 H   0  0  0  0  0  0  0  0  0  0  0  0
   -2.0240   -3.7430    5.2240 H   0  0  0  0  0  0  0  0  0  0  0  0
   -2.5590   -3.7990    3.6180 H   0  0  0  0  0  0  0  0  0  0  0  0
    1.5690    4.0420   -1.1560 N   0  0  0  0  0  0  0  0  0  0  0  0
    0.2930    3.7230   -1.7030 C   0  0  0  0  0  0  0  0  0  0  0  0
    0.0280    3.9890   -2.9520 N   0  0  0  0  0  0  0  0  0  0  0  0
   -0.6700    3.1220   -0.8870 N   0  0  0  0  0  0  0  0  0  0  0  0
   -1.5960    2.1590   -1.4960 C   0  0  0  0  0  0  0  0  0  0  0  0
   -2.5560    1.6240   -0.5160 C   0  0  0  0  0  0  0  0  0  0  0  0
   -2.0760    0.9630    0.6790 C   0  0  0  0  0  0  0  0  0  0  0  0
   -1.3210   -0.3080    0.6060 C   0  0  2  0  0  0  0  0  0  0  0  0
   -1.0610   -0.6390    2.0740 N   0  0  0  0  0  0  0  0  0  0  0  0
   -0.0240   -0.3940   -0.0460 C   0  0  0  0  0  0  0  0  0  0  0  0
    1.0700   -0.2710    0.6460 O   0  0  0  0  0  0  0  0  0  0  0  0
    1.8250    5.0120   -0.8990 H   0  0  0  0  0  0  0  0  0  0  0  0
    2.2680    3.2820   -1.0100 H   0  0  0  0  0  0  0  0  0  0  0  0
    0.7730    4.4410   -3.5390 H   0  0  0  0  0  0  0  0  0  0  0  0
   -0.7480    3.3330    0.1120 H   0  0  0  0  0  0  0  0  0  0  0  0
   -2.2230    2.8220   -2.2310 H   0  0  0  0  0  0  0  0  0  0  0  0
   -1.1470    1.4570   -2.1500 H   0  0  0  0  0  0  0  0  0  0  0  0
   -3.2740    0.9610   -1.1140 H   0  0  0  0  0  0  0  0  0  0  0  0
   -3.2710    2.4890   -0.2600 H   0  0  0  0  0  0  0  0  0  0  0  0
   -1.5360    1.7010    1.3830 H   0  0  0  0  0  0  0  0  0  0  0  0
   -3.0320    0.6850    1.2840 H   0  0  0  0  0  0  0  0  0  0  0  0
   -2.0110   -1.0980    0.2770 H   0  0  0  0  0  0  0  0  0  0  0  0
   -0.3940   -0.0060    2.5430 H   0  0  0  0  0  0  0  0  0  0  0  0
    0.2220   -0.6260   -1.4180 N   0  0  0  0  0  0  0  0  0  0  0  0
    1.5480   -0.7230   -1.9570 C   0  0  1  0  0  0  0  0  0  0  0  0
    1.7220   -2.1910   -2.4110 C   0  0  0  0  0  0  0  0  0  0  0  0
    1.5570   -3.1280   -1.2800 C   0  0  0  0  0  0  0  0  0  0  0  0
    2.5380   -3.5960   -0.4360 C   0  0  0  0  0  0  0  0  0  0  0  0
    1.9900   -4.4480    0.4770 N   0  0  0  0  0  0  0  0  0  0  0  0
    0.6720   -4.5050    0.1970 C   0  0  0  0  0  0  0  0  0  0  0  0
    0.4100   -3.7100   -0.8610 N   0  0  0  0  0  0  0  0  0  0  0  0
    1.9030    0.1740   -3.0410 C   0  0  0  0  0  0  0  0  0  0  0  0
    3.0660    0.1150   -3.5140 O   0  0  0  0  0  0  0  0  0  0  0  0
    1.0370    1.0830   -3.5780 O   0  0  0  0  0  0  0  0  0  0  0  0
   -0.5930   -0.7600   -2.0980 H   0  0  0  0  0  0  0  0  0  0  0  0
    2.2690   -0.6540   -1.0870 H   0  0  0  0  0  0  0  0  0  0  0  0
    2.7200   -2.3260   -2.8820 H   0  0  0  0  0  0  0  0  0  0  0  0
    0.9170   -2.3570   -3.1710 H   0  0  0  0  0  0  0  0  0  0  0  0
    3.5940   -3.3280   -0.4870 H   0  0  0  0  0  0  0  0  0  0  0  0
    2.5020   -4.9540    1.2430 H   0  0  0  0  0  0  0  0  0  0  0  0
   -0.0200   -5.1120    0.7610 H   0  0  0  0  0  0  0  0  0  0  0  0
  1  2  1  0  0  0  0
  1  9  1  0  0  0  0
  1 10  1  0  0  0  0
  2 11  1  0  0  0  0
  3 12  1  0  0  0  0
  3  2  1  0  0  0  0
  4  2  1  0  0  0  0
  4  5  1  0  0  0  0
  4 15  1  1  0  0  0
  5 16  1  0  0  0  0
  6  4  1  0  0  0  0
  7  6  2  0  0  0  0
  8  1  1  0  0  0  0
 13  3  1  0  0  0  0
 14  3  1  0  0  0  0
 17  5  1  0  0  0  0
 18 30  1  0  0  0  0
 18 29  1  0  0  0  0
 19 18  1  0  0  0  0
 19 21  1  0  0  0  0
 20 19  2  0  0  0  0
 21 32  1  0  0  0  0
 22 21  1  0  0  0  0
 22 23  1  0  0  0  0
 23 36  1  0  0  0  0
 23 24  1  0  0  0  0
 24 38  1  0  0  0  0
 24 37  1  0  0  0  0
 25 39  1  6  0  0  0
 25 24  1  0  0  0  0
 25 26  1  0  0  0  0
 26 40  1  0  0  0  0
 26  6  1  0  0  0  0
 27 25  1  0  0  0  0
 27 28  2  0  0  0  0
 31 20  1  0  0  0  0
 33 22  1  0  0  0  0
 34 22  1  0  0  0  0
 35 23  1  0  0  0  0
 41 27  1  0  0  0  0
 42 41  1  0  0  0  0
 42 53  1  1  0  0  0
 43 42  1  0  0  0  0
 43 44  1  0  0  0  0
 44 48  1  0  0  0  0
 44 45  2  0  0  0  0
 45 46  1  0  0  0  0
 46 57  1  0  0  0  0
 47 46  1  0  0  0  0
 47 58  1  0  0  0  0
 48 47  2  0  0  0  0
 49 42  1  0  0  0  0
 50 49  1  0  0  0  0
 51 49  2  0  0  0  0
 52 41  1  0  0  0  0
 54 43  1  0  0  0  0
 55 43  1  0  0  0  0
 56 45  1  0  0  0  0
M  END
$$$$
