VRK.pdb
 OpenBabel07022419243D

 62 61  0  0  1  0  0  0  0  0999 V2000
   -1.7190    2.3120    5.4100 C   0  0  0  0  0  0  0  0  0  0  0  0
   -0.7300    1.1830    5.3630 C   0  0  0  0  0  0  0  0  0  0  0  0
    0.6070    1.7180    4.8650 C   0  0  0  0  0  0  0  0  0  0  0  0
   -1.1880   -0.0300    4.6290 C   0  0  2  0  0  0  0  0  0  0  0  0
   -0.1400   -1.0430    4.6620 N   0  0  0  0  0  0  0  0  0  0  0  0
   -1.5450    0.2320    3.1890 C   0  0  0  0  0  0  0  0  0  0  0  0
   -2.3750    1.1100    2.9330 O   0  0  0  0  0  0  0  0  0  0  0  0
   -1.4050    2.9850    6.2670 H   0  0  0  0  0  0  0  0  0  0  0  0
   -2.7230    1.9210    5.6720 H   0  0  0  0  0  0  0  0  0  0  0  0
   -1.7600    2.9330    4.4880 H   0  0  0  0  0  0  0  0  0  0  0  0
   -0.5380    0.8630    6.4230 H   0  0  0  0  0  0  0  0  0  0  0  0
    0.5640    1.8640    3.7860 H   0  0  0  0  0  0  0  0  0  0  0  0
    0.7280    2.7210    5.3670 H   0  0  0  0  0  0  0  0  0  0  0  0
    1.4250    1.0920    5.2330 H   0  0  0  0  0  0  0  0  0  0  0  0
   -2.0610   -0.4360    5.1400 H   0  0  0  0  0  0  0  0  0  0  0  0
   -0.0420   -1.4010    5.6400 H   0  0  0  0  0  0  0  0  0  0  0  0
    0.7650   -0.7260    4.3230 H   0  0  0  0  0  0  0  0  0  0  0  0
    2.8270    4.0650    2.3470 N   0  0  0  0  0  0  0  0  0  0  0  0
    2.9940    2.9150    1.5350 C   0  0  0  0  0  0  0  0  0  0  0  0
    3.6600    1.8640    1.9080 N   0  0  0  0  0  0  0  0  0  0  0  0
    2.4270    2.8580    0.2050 N   0  0  0  0  0  0  0  0  0  0  0  0
    1.9390    1.6080   -0.3100 C   0  0  0  0  0  0  0  0  0  0  0  0
    0.7020    1.2420    0.4850 C   0  0  0  0  0  0  0  0  0  0  0  0
    0.1070   -0.0760    0.0280 C   0  0  0  0  0  0  0  0  0  0  0  0
   -1.1460   -0.4100    0.7520 C   0  0  2  0  0  0  0  0  0  0  0  0
   -0.9480   -0.5030    2.1520 N   0  0  0  0  0  0  0  0  0  0  0  0
   -1.8270   -1.5760    0.1720 C   0  0  0  0  0  0  0  0  0  0  0  0
   -2.4940   -2.3120    0.9320 O   0  0  0  0  0  0  0  0  0  0  0  0
    2.5840    3.9290    3.3440 H   0  0  0  0  0  0  0  0  0  0  0  0
    2.9380    5.0110    1.9730 H   0  0  0  0  0  0  0  0  0  0  0  0
    4.1150    1.8120    2.8480 H   0  0  0  0  0  0  0  0  0  0  0  0
    2.3720    3.7150   -0.3670 H   0  0  0  0  0  0  0  0  0  0  0  0
    2.6940    0.8040   -0.3060 H   0  0  0  0  0  0  0  0  0  0  0  0
    1.6180    1.7120   -1.3970 H   0  0  0  0  0  0  0  0  0  0  0  0
    0.9520    1.2010    1.5640 H   0  0  0  0  0  0  0  0  0  0  0  0
   -0.0270    2.0690    0.3560 H   0  0  0  0  0  0  0  0  0  0  0  0
   -0.1440    0.0390   -1.0480 H   0  0  0  0  0  0  0  0  0  0  0  0
    0.8710   -0.8630    0.2040 H   0  0  0  0  0  0  0  0  0  0  0  0
   -1.8320    0.5110    0.6180 H   0  0  0  0  0  0  0  0  0  0  0  0
   -0.2440   -1.2390    2.4670 H   0  0  0  0  0  0  0  0  0  0  0  0
   -1.7700   -1.9320   -1.2060 N   0  0  0  0  0  0  0  0  0  0  0  0
   -2.4850   -3.0810   -1.7240 C   0  0  1  0  0  0  0  0  0  0  0  0
   -2.4640   -3.1800   -3.2230 C   0  0  0  0  0  0  0  0  0  0  0  0
   -1.0260   -3.3650   -3.7050 C   0  0  0  0  0  0  0  0  0  0  0  0
   -0.8810   -3.5180   -5.1750 C   0  0  0  0  0  0  0  0  0  0  0  0
    0.6110   -3.7810   -5.5020 C   0  0  0  0  0  0  0  0  0  0  0  0
    0.9980   -5.0000   -4.7720 N   0  0  0  0  0  0  0  0  0  0  0  0
   -1.7910   -4.3350   -1.1690 C   0  0  0  0  0  0  0  0  0  0  0  0
   -0.8240   -4.1870   -0.4430 O   0  0  0  0  0  0  0  0  0  0  0  0
   -2.2990   -5.5470   -1.5200 O   0  0  0  0  0  0  0  0  0  0  0  0
   -1.2100   -1.3750   -1.8880 H   0  0  0  0  0  0  0  0  0  0  0  0
   -3.4830   -3.1730   -1.3150 H   0  0  0  0  0  0  0  0  0  0  0  0
   -2.8880   -2.2500   -3.6440 H   0  0  0  0  0  0  0  0  0  0  0  0
   -3.0820   -4.0190   -3.5530 H   0  0  0  0  0  0  0  0  0  0  0  0
   -0.5410   -4.2050   -3.1900 H   0  0  0  0  0  0  0  0  0  0  0  0
   -0.4700   -2.4400   -3.4160 H   0  0  0  0  0  0  0  0  0  0  0  0
   -1.4430   -4.3540   -5.6240 H   0  0  0  0  0  0  0  0  0  0  0  0
   -1.1170   -2.6030   -5.7550 H   0  0  0  0  0  0  0  0  0  0  0  0
    1.2430   -2.9320   -5.2380 H   0  0  0  0  0  0  0  0  0  0  0  0
    0.6950   -4.0190   -6.5630 H   0  0  0  0  0  0  0  0  0  0  0  0
    0.5800   -5.8170   -5.2940 H   0  0  0  0  0  0  0  0  0  0  0  0
    2.0490   -5.0730   -4.8520 H   0  0  0  0  0  0  0  0  0  0  0  0
  1  9  1  0  0  0  0
  1  8  1  0  0  0  0
  2  1  1  0  0  0  0
  2 11  1  0  0  0  0
  3 14  1  0  0  0  0
  3  2  1  0  0  0  0
  3 13  1  0  0  0  0
  4  5  1  0  0  0  0
  4 15  1  1  0  0  0
  4  2  1  0  0  0  0
  5 16  1  0  0  0  0
  6  4  1  0  0  0  0
  7  6  2  0  0  0  0
 10  1  1  0  0  0  0
 12  3  1  0  0  0  0
 17  5  1  0  0  0  0
 18 29  1  0  0  0  0
 19 20  2  0  0  0  0
 19 18  1  0  0  0  0
 20 31  1  0  0  0  0
 21 19  1  0  0  0  0
 22 33  1  0  0  0  0
 22 21  1  0  0  0  0
 22 23  1  0  0  0  0
 23 35  1  0  0  0  0
 24 38  1  0  0  0  0
 24 23  1  0  0  0  0
 24 25  1  0  0  0  0
 25 39  1  6  0  0  0
 25 26  1  0  0  0  0
 26 40  1  0  0  0  0
 26  6  1  0  0  0  0
 27 25  1  0  0  0  0
 27 28  2  0  0  0  0
 30 18  1  0  0  0  0
 32 21  1  0  0  0  0
 34 22  1  0  0  0  0
 36 23  1  0  0  0  0
 37 24  1  0  0  0  0
 41 27  1  0  0  0  0
 42 52  1  1  0  0  0
 42 41  1  0  0  0  0
 42 48  1  0  0  0  0
 43 42  1  0  0  0  0
 44 56  1  0  0  0  0
 44 43  1  0  0  0  0
 44 55  1  0  0  0  0
 45 44  1  0  0  0  0
 46 59  1  0  0  0  0
 46 45  1  0  0  0  0
 46 47  1  0  0  0  0
 48 49  1  0  0  0  0
 50 48  2  0  0  0  0
 51 41  1  0  0  0  0
 53 43  1  0  0  0  0
 54 43  1  0  0  0  0
 57 45  1  0  0  0  0
 58 45  1  0  0  0  0
 60 46  1  0  0  0  0
 61 47  1  0  0  0  0
 62 47  1  0  0  0  0
M  END
$$$$
