VRL.pdb
 OpenBabel07022419243D

 60 59  0  0  1  0  0  0  0  0999 V2000
    4.8110   -2.8520    4.1070 C   0  0  0  0  0  0  0  0  0  0  0  0
    3.4420   -2.3250    3.8030 C   0  0  0  0  0  0  0  0  0  0  0  0
    2.5380   -2.6300    4.9850 C   0  0  0  0  0  0  0  0  0  0  0  0
    2.8670   -2.8990    2.5210 C   0  0  2  0  0  0  0  0  0  0  0  0
    3.7340   -2.5530    1.4370 N   0  0  0  0  0  0  0  0  0  0  0  0
    1.4930   -2.3740    2.3490 C   0  0  0  0  0  0  0  0  0  0  0  0
    0.6250   -2.5980    3.2580 O   0  0  0  0  0  0  0  0  0  0  0  0
    5.5120   -2.7830    3.2650 H   0  0  0  0  0  0  0  0  0  0  0  0
    5.2330   -2.1880    4.9190 H   0  0  0  0  0  0  0  0  0  0  0  0
    4.7540   -3.8610    4.5670 H   0  0  0  0  0  0  0  0  0  0  0  0
    3.5210   -1.2150    3.6560 H   0  0  0  0  0  0  0  0  0  0  0  0
    3.1510   -2.7120    5.9020 H   0  0  0  0  0  0  0  0  0  0  0  0
    2.0490   -3.6250    4.8190 H   0  0  0  0  0  0  0  0  0  0  0  0
    1.8010   -1.8250    5.1600 H   0  0  0  0  0  0  0  0  0  0  0  0
    2.7720   -4.0050    2.6120 H   0  0  0  0  0  0  0  0  0  0  0  0
    3.3480   -2.7440    0.4930 H   0  0  0  0  0  0  0  0  0  0  0  0
    4.1100   -1.5790    1.5420 H   0  0  0  0  0  0  0  0  0  0  0  0
    1.3280    2.7930    3.6580 N   0  0  0  0  0  0  0  0  0  0  0  0
    0.5590    3.0010    2.4900 C   0  0  0  0  0  0  0  0  0  0  0  0
   -0.6990    3.1740    2.5620 N   0  0  0  0  0  0  0  0  0  0  0  0
    1.1790    3.0190    1.2300 N   0  0  0  0  0  0  0  0  0  0  0  0
    0.5880    2.4590    0.0470 C   0  0  0  0  0  0  0  0  0  0  0  0
    0.5170    0.9570    0.0760 C   0  0  0  0  0  0  0  0  0  0  0  0
   -0.2720    0.3710    1.1870 C   0  0  0  0  0  0  0  0  0  0  0  0
   -0.3090   -1.1490    1.1440 C   0  0  2  0  0  0  0  0  0  0  0  0
    1.0430   -1.6270    1.2380 N   0  0  0  0  0  0  0  0  0  0  0  0
   -0.9830   -1.6370   -0.0980 C   0  0  0  0  0  0  0  0  0  0  0  0
   -0.3360   -2.3420   -0.8730 O   0  0  0  0  0  0  0  0  0  0  0  0
    2.3540    2.9880    3.7060 H   0  0  0  0  0  0  0  0  0  0  0  0
    0.8400    2.4250    4.5150 H   0  0  0  0  0  0  0  0  0  0  0  0
   -1.1680    3.1630    3.4870 H   0  0  0  0  0  0  0  0  0  0  0  0
    2.1370    3.4750    1.1770 H   0  0  0  0  0  0  0  0  0  0  0  0
    1.2370    2.7660   -0.8260 H   0  0  0  0  0  0  0  0  0  0  0  0
   -0.3990    2.9220   -0.1860 H   0  0  0  0  0  0  0  0  0  0  0  0
    1.5680    0.6000    0.0370 H   0  0  0  0  0  0  0  0  0  0  0  0
   -0.0180    0.6690   -0.8790 H   0  0  0  0  0  0  0  0  0  0  0  0
    0.2530    0.6020    2.1550 H   0  0  0  0  0  0  0  0  0  0  0  0
   -1.2960    0.7690    1.2800 H   0  0  0  0  0  0  0  0  0  0  0  0
   -0.8470   -1.4710    2.0550 H   0  0  0  0  0  0  0  0  0  0  0  0
    1.7070   -1.4180    0.4710 H   0  0  0  0  0  0  0  0  0  0  0  0
   -3.4220   -1.8170   -4.9540 C   0  0  0  0  0  0  0  0  0  0  0  0
   -3.8430   -0.9120   -3.9000 C   0  0  0  0  0  0  0  0  0  0  0  0
   -3.9780    0.5170   -4.4900 C   0  0  0  0  0  0  0  0  0  0  0  0
   -3.1960   -0.7640   -2.6160 C   0  0  0  0  0  0  0  0  0  0  0  0
   -3.0380   -1.7820   -1.5950 C   0  0  2  0  0  0  0  0  0  0  0  0
   -2.3190   -1.3220   -0.4080 N   0  0  0  0  0  0  0  0  0  0  0  0
   -2.8450   -3.1880   -1.9320 C   0  0  0  0  0  0  0  0  0  0  0  0
   -3.3530   -3.7330   -2.9390 O   0  0  0  0  0  0  0  0  0  0  0  0
   -2.0770   -4.0320   -1.1440 O   0  0  0  0  0  0  0  0  0  0  0  0
   -2.4180   -2.2610   -4.9440 H   0  0  0  0  0  0  0  0  0  0  0  0
   -3.3960   -1.2250   -5.9410 H   0  0  0  0  0  0  0  0  0  0  0  0
   -4.1430   -2.6200   -5.2180 H   0  0  0  0  0  0  0  0  0  0  0  0
   -4.9510   -1.1710   -3.7240 H   0  0  0  0  0  0  0  0  0  0  0  0
   -4.8340    0.5800   -5.1630 H   0  0  0  0  0  0  0  0  0  0  0  0
   -3.0410    0.8090   -4.9900 H   0  0  0  0  0  0  0  0  0  0  0  0
   -4.1380    1.2490   -3.6710 H   0  0  0  0  0  0  0  0  0  0  0  0
   -3.6820    0.1670   -2.1360 H   0  0  0  0  0  0  0  0  0  0  0  0
   -2.1510   -0.3030   -2.7680 H   0  0  0  0  0  0  0  0  0  0  0  0
   -4.1120   -1.8750   -1.1030 H   0  0  0  0  0  0  0  0  0  0  0  0
   -2.8010   -0.6860    0.3160 H   0  0  0  0  0  0  0  0  0  0  0  0
  1 10  1  0  0  0  0
  1  9  1  0  0  0  0
  2  1  1  0  0  0  0
  2  3  1  0  0  0  0
  3 14  1  0  0  0  0
  3 12  1  0  0  0  0
  4 15  1  1  0  0  0
  4  2  1  0  0  0  0
  5 17  1  0  0  0  0
  5  4  1  0  0  0  0
  6  4  1  0  0  0  0
  6  7  2  0  0  0  0
  8  1  1  0  0  0  0
 11  2  1  0  0  0  0
 13  3  1  0  0  0  0
 16  5  1  0  0  0  0
 18 29  1  0  0  0  0
 18 30  1  0  0  0  0
 19 20  2  0  0  0  0
 19 18  1  0  0  0  0
 20 31  1  0  0  0  0
 21 19  1  0  0  0  0
 22 23  1  0  0  0  0
 22 21  1  0  0  0  0
 23 24  1  0  0  0  0
 24 38  1  0  0  0  0
 24 37  1  0  0  0  0
 25 24  1  0  0  0  0
 25 26  1  0  0  0  0
 25 39  1  1  0  0  0
 26  6  1  0  0  0  0
 27 25  1  0  0  0  0
 28 27  2  0  0  0  0
 32 21  1  0  0  0  0
 33 22  1  0  0  0  0
 34 22  1  0  0  0  0
 35 23  1  0  0  0  0
 36 23  1  0  0  0  0
 40 26  1  0  0  0  0
 41 50  1  0  0  0  0
 41 42  1  0  0  0  0
 42 53  1  0  0  0  0
 42 44  1  0  0  0  0
 43 42  1  0  0  0  0
 43 56  1  0  0  0  0
 44 57  1  0  0  0  0
 44 45  1  0  0  0  0
 45 59  1  1  0  0  0
 45 46  1  0  0  0  0
 46 27  1  0  0  0  0
 46 60  1  0  0  0  0
 47 45  1  0  0  0  0
 47 49  1  0  0  0  0
 48 47  2  0  0  0  0
 51 41  1  0  0  0  0
 52 41  1  0  0  0  0
 54 43  1  0  0  0  0
 55 43  1  0  0  0  0
 58 44  1  0  0  0  0
M  END
$$$$
