VRN.pdb
 OpenBabel07022419243D

 55 54  0  0  1  0  0  0  0  0999 V2000
    4.7470   -1.8340    3.4790 C   0  0  0  0  0  0  0  0  0  0  0  0
    3.2660   -2.0400    3.1330 C   0  0  0  0  0  0  0  0  0  0  0  0
    2.5270   -0.9690    3.9140 C   0  0  0  0  0  0  0  0  0  0  0  0
    3.0580   -1.8610    1.6570 C   0  0  2  0  0  0  0  0  0  0  0  0
    3.4510   -0.5300    1.2680 N   0  0  0  0  0  0  0  0  0  0  0  0
    1.6260   -2.0850    1.3430 C   0  0  0  0  0  0  0  0  0  0  0  0
    1.0550   -3.1700    1.6380 O   0  0  0  0  0  0  0  0  0  0  0  0
    5.4000   -2.2890    2.7360 H   0  0  0  0  0  0  0  0  0  0  0  0
    4.9330   -0.7470    3.5550 H   0  0  0  0  0  0  0  0  0  0  0  0
    4.8810   -2.2810    4.4860 H   0  0  0  0  0  0  0  0  0  0  0  0
    2.9200   -3.0180    3.4940 H   0  0  0  0  0  0  0  0  0  0  0  0
    1.4500   -1.1640    3.9860 H   0  0  0  0  0  0  0  0  0  0  0  0
    2.7910    0.0010    3.4430 H   0  0  0  0  0  0  0  0  0  0  0  0
    2.9210   -0.9540    4.9360 H   0  0  0  0  0  0  0  0  0  0  0  0
    3.6800   -2.5880    1.0790 H   0  0  0  0  0  0  0  0  0  0  0  0
    4.4490   -0.3900    1.5440 H   0  0  0  0  0  0  0  0  0  0  0  0
    3.4060   -0.3640    0.2510 H   0  0  0  0  0  0  0  0  0  0  0  0
   -0.6270    2.2020    5.0360 N   0  0  0  0  0  0  0  0  0  0  0  0
   -0.8770    2.2830    3.6550 C   0  0  0  0  0  0  0  0  0  0  0  0
   -1.9620    2.9140    3.2750 N   0  0  0  0  0  0  0  0  0  0  0  0
   -0.0430    1.7410    2.6380 N   0  0  0  0  0  0  0  0  0  0  0  0
   -0.3810    1.8390    1.2420 C   0  0  0  0  0  0  0  0  0  0  0  0
   -1.5520    1.0270    0.8440 C   0  0  0  0  0  0  0  0  0  0  0  0
   -1.5430   -0.4250    1.0420 C   0  0  0  0  0  0  0  0  0  0  0  0
   -0.5400   -1.2740    0.3760 C   0  0  2  0  0  0  0  0  0  0  0  0
    0.8420   -1.0540    0.6830 N   0  0  0  0  0  0  0  0  0  0  0  0
   -0.7500   -1.2910   -1.1210 C   0  0  0  0  0  0  0  0  0  0  0  0
    0.2420   -1.0630   -1.8610 O   0  0  0  0  0  0  0  0  0  0  0  0
   -1.4270    2.1690    5.6940 H   0  0  0  0  0  0  0  0  0  0  0  0
    0.3350    2.1720    5.4630 H   0  0  0  0  0  0  0  0  0  0  0  0
   -2.6330    3.3480    3.9400 H   0  0  0  0  0  0  0  0  0  0  0  0
    0.8290    1.2630    2.9260 H   0  0  0  0  0  0  0  0  0  0  0  0
    0.4820    1.8510    0.5550 H   0  0  0  0  0  0  0  0  0  0  0  0
   -0.7580    2.9360    1.1340 H   0  0  0  0  0  0  0  0  0  0  0  0
   -1.8220    1.3270   -0.2040 H   0  0  0  0  0  0  0  0  0  0  0  0
   -2.4300    1.4320    1.4500 H   0  0  0  0  0  0  0  0  0  0  0  0
   -1.5530   -0.6430    2.1450 H   0  0  0  0  0  0  0  0  0  0  0  0
   -2.5690   -0.8020    0.7160 H   0  0  0  0  0  0  0  0  0  0  0  0
   -0.7780   -2.3410    0.6760 H   0  0  0  0  0  0  0  0  0  0  0  0
    1.3910   -0.2030    0.4700 H   0  0  0  0  0  0  0  0  0  0  0  0
   -1.8140   -3.0750   -5.9930 N   0  0  0  0  0  0  0  0  0  0  0  0
   -2.9040   -2.8950   -5.0920 C   0  0  0  0  0  0  0  0  0  0  0  0
   -4.0560   -2.7130   -5.6010 O   0  0  0  0  0  0  0  0  0  0  0  0
   -2.6710   -2.9230   -3.6270 C   0  0  0  0  0  0  0  0  0  0  0  0
   -2.2470   -1.5680   -3.1340 C   0  0  2  0  0  0  0  0  0  0  0  0
   -2.0130   -1.5530   -1.7060 N   0  0  0  0  0  0  0  0  0  0  0  0
   -3.2820   -0.5810   -3.4480 C   0  0  0  0  0  0  0  0  0  0  0  0
   -3.8370    0.1000   -2.5160 O   0  0  0  0  0  0  0  0  0  0  0  0
   -3.7610   -0.2790   -4.7190 O   0  0  0  0  0  0  0  0  0  0  0  0
   -1.3160   -3.9810   -5.9760 H   0  0  0  0  0  0  0  0  0  0  0  0
   -1.5070   -2.3360   -6.6580 H   0  0  0  0  0  0  0  0  0  0  0  0
   -3.6060   -3.2650   -3.1390 H   0  0  0  0  0  0  0  0  0  0  0  0
   -1.9190   -3.7110   -3.3740 H   0  0  0  0  0  0  0  0  0  0  0  0
   -1.3030   -1.2590   -3.6650 H   0  0  0  0  0  0  0  0  0  0  0  0
   -2.8060   -1.7450   -1.0580 H   0  0  0  0  0  0  0  0  0  0  0  0
  1  9  1  0  0  0  0
  1 10  1  0  0  0  0
  2  1  1  0  0  0  0
  2 11  1  0  0  0  0
  2  3  1  0  0  0  0
  3 12  1  0  0  0  0
  3 14  1  0  0  0  0
  4 15  1  6  0  0  0
  4  2  1  0  0  0  0
  5 16  1  0  0  0  0
  5  4  1  0  0  0  0
  6  7  2  0  0  0  0
  6  4  1  0  0  0  0
  8  1  1  0  0  0  0
 13  3  1  0  0  0  0
 17  5  1  0  0  0  0
 18 30  1  0  0  0  0
 18 29  1  0  0  0  0
 19 18  1  0  0  0  0
 20 19  2  0  0  0  0
 20 31  1  0  0  0  0
 21 32  1  0  0  0  0
 21 19  1  0  0  0  0
 22 21  1  0  0  0  0
 23 24  1  0  0  0  0
 23 22  1  0  0  0  0
 23 36  1  0  0  0  0
 24 37  1  0  0  0  0
 25 39  1  1  0  0  0
 25 26  1  0  0  0  0
 25 24  1  0  0  0  0
 26  6  1  0  0  0  0
 27 25  1  0  0  0  0
 28 27  2  0  0  0  0
 33 22  1  0  0  0  0
 34 22  1  0  0  0  0
 35 23  1  0  0  0  0
 38 24  1  0  0  0  0
 40 26  1  0  0  0  0
 41 50  1  0  0  0  0
 41 42  1  0  0  0  0
 42 44  1  0  0  0  0
 43 42  2  0  0  0  0
 44 53  1  0  0  0  0
 44 52  1  0  0  0  0
 44 45  1  0  0  0  0
 45 54  1  6  0  0  0
 45 46  1  0  0  0  0
 46 27  1  0  0  0  0
 46 55  1  0  0  0  0
 47 45  1  0  0  0  0
 47 48  1  0  0  0  0
 49 47  2  0  0  0  0
 51 41  1  0  0  0  0
M  END
$$$$
