VRP.pdb
 OpenBabel07022419243D

 55 55  0  0  1  0  0  0  0  0999 V2000
    1.9530   -3.6000    4.8200 C   0  0  0  0  0  0  0  0  0  0  0  0
    1.1290   -2.4950    4.1820 C   0  0  0  0  0  0  0  0  0  0  0  0
    1.6140   -1.2020    4.7360 C   0  0  0  0  0  0  0  0  0  0  0  0
    1.2090   -2.6270    2.6850 C   0  0  2  0  0  0  0  0  0  0  0  0
    2.5610   -2.5150    2.2560 N   0  0  0  0  0  0  0  0  0  0  0  0
    0.2200   -1.8520    1.9380 C   0  0  0  0  0  0  0  0  0  0  0  0
   -0.9480   -1.7410    2.4400 O   0  0  0  0  0  0  0  0  0  0  0  0
    1.2420   -4.2610    5.3600 H   0  0  0  0  0  0  0  0  0  0  0  0
    2.5490   -4.1650    4.0930 H   0  0  0  0  0  0  0  0  0  0  0  0
    2.6410   -3.2070    5.6100 H   0  0  0  0  0  0  0  0  0  0  0  0
    0.0510   -2.5900    4.4590 H   0  0  0  0  0  0  0  0  0  0  0  0
    1.0690   -0.3180    4.3460 H   0  0  0  0  0  0  0  0  0  0  0  0
    1.4160   -1.2160    5.8300 H   0  0  0  0  0  0  0  0  0  0  0  0
    2.7160   -1.0570    4.5770 H   0  0  0  0  0  0  0  0  0  0  0  0
    0.9540   -3.7450    2.5130 H   0  0  0  0  0  0  0  0  0  0  0  0
    3.2360   -2.1530    2.9340 H   0  0  0  0  0  0  0  0  0  0  0  0
    2.9090   -3.2730    1.6480 H   0  0  0  0  0  0  0  0  0  0  0  0
    2.0460    2.8490    1.9310 N   0  0  0  0  0  0  0  0  0  0  0  0
    2.5000    1.7690    1.1390 C   0  0  0  0  0  0  0  0  0  0  0  0
    2.7750    0.5950    1.6650 N   0  0  0  0  0  0  0  0  0  0  0  0
    2.6910    1.9200   -0.2560 N   0  0  0  0  0  0  0  0  0  0  0  0
    2.0880    1.0500   -1.2400 C   0  0  0  0  0  0  0  0  0  0  0  0
    0.6400    1.1810   -1.4170 C   0  0  0  0  0  0  0  0  0  0  0  0
   -0.3630    0.8770   -0.3940 C   0  0  0  0  0  0  0  0  0  0  0  0
   -0.6580   -0.4810    0.0700 C   0  0  2  0  0  0  0  0  0  0  0  0
    0.4090   -1.1960    0.6850 N   0  0  0  0  0  0  0  0  0  0  0  0
   -1.3000   -1.3270   -1.0030 C   0  0  0  0  0  0  0  0  0  0  0  0
   -0.6490   -2.3660   -1.3130 O   0  0  0  0  0  0  0  0  0  0  0  0
    1.5130    2.6470    2.7930 H   0  0  0  0  0  0  0  0  0  0  0  0
    2.2330    3.8300    1.6720 H   0  0  0  0  0  0  0  0  0  0  0  0
    2.6820    0.3900    2.6500 H   0  0  0  0  0  0  0  0  0  0  0  0
    3.3180    2.7460   -0.5410 H   0  0  0  0  0  0  0  0  0  0  0  0
    2.4530    0.0130   -1.1280 H   0  0  0  0  0  0  0  0  0  0  0  0
    2.6240    1.3580   -2.2260 H   0  0  0  0  0  0  0  0  0  0  0  0
    0.4750    2.3080   -1.6570 H   0  0  0  0  0  0  0  0  0  0  0  0
    0.3210    0.7530   -2.4410 H   0  0  0  0  0  0  0  0  0  0  0  0
   -0.0520    1.5450    0.5150 H   0  0  0  0  0  0  0  0  0  0  0  0
   -1.3580    1.3720   -0.6220 H   0  0  0  0  0  0  0  0  0  0  0  0
   -1.4730   -0.3690    0.8640 H   0  0  0  0  0  0  0  0  0  0  0  0
    1.3280   -1.2840    0.2570 H   0  0  0  0  0  0  0  0  0  0  0  0
   -2.5250   -1.0460   -1.6470 N   0  0  0  0  0  0  0  0  0  0  0  0
   -3.5030   -0.0140   -1.5150 C   0  0  0  0  0  0  0  0  0  0  0  0
   -4.8200   -0.8100   -1.5800 C   0  0  0  0  0  0  0  0  0  0  0  0
   -4.5340   -1.7210   -2.7460 C   0  0  0  0  0  0  0  0  0  0  0  0
   -3.0610   -1.9080   -2.7290 C   0  0  1  0  0  0  0  0  0  0  0  0
   -2.4000   -1.4720   -3.9800 C   0  0  0  0  0  0  0  0  0  0  0  0
   -2.6770   -2.0750   -5.0680 O   0  0  0  0  0  0  0  0  0  0  0  0
   -1.4870   -0.4430   -4.0790 O   0  0  0  0  0  0  0  0  0  0  0  0
   -3.5530    0.7180   -2.3280 H   0  0  0  0  0  0  0  0  0  0  0  0
   -3.4760    0.5580   -0.5630 H   0  0  0  0  0  0  0  0  0  0  0  0
   -5.6760   -0.1340   -1.7670 H   0  0  0  0  0  0  0  0  0  0  0  0
   -4.9680   -1.4210   -0.6900 H   0  0  0  0  0  0  0  0  0  0  0  0
   -5.1120   -2.6660   -2.7010 H   0  0  0  0  0  0  0  0  0  0  0  0
   -4.8080   -1.1590   -3.6750 H   0  0  0  0  0  0  0  0  0  0  0  0
   -2.8190   -2.9710   -2.5090 H   0  0  0  0  0  0  0  0  0  0  0  0
  1  8  1  0  0  0  0
  1 10  1  0  0  0  0
  2 11  1  0  0  0  0
  2  3  1  0  0  0  0
  2  1  1  0  0  0  0
  3 13  1  0  0  0  0
  4 15  1  6  0  0  0
  4  2  1  0  0  0  0
  5  4  1  0  0  0  0
  5 16  1  0  0  0  0
  6  7  2  0  0  0  0
  6  4  1  0  0  0  0
  9  1  1  0  0  0  0
 12  3  1  0  0  0  0
 14  3  1  0  0  0  0
 17  5  1  0  0  0  0
 18 29  1  0  0  0  0
 19 20  2  0  0  0  0
 19 18  1  0  0  0  0
 20 31  1  0  0  0  0
 21 19  1  0  0  0  0
 22 33  1  0  0  0  0
 22 21  1  0  0  0  0
 23 22  1  0  0  0  0
 23 24  1  0  0  0  0
 24 25  1  0  0  0  0
 24 37  1  0  0  0  0
 25 26  1  0  0  0  0
 25 39  1  1  0  0  0
 26  6  1  0  0  0  0
 27 25  1  0  0  0  0
 28 27  2  0  0  0  0
 30 18  1  0  0  0  0
 32 21  1  0  0  0  0
 34 22  1  0  0  0  0
 35 23  1  0  0  0  0
 36 23  1  0  0  0  0
 38 24  1  0  0  0  0
 40 26  1  0  0  0  0
 41 42  1  0  0  0  0
 41 27  1  0  0  0  0
 42 50  1  0  0  0  0
 43 42  1  0  0  0  0
 43 52  1  0  0  0  0
 44 45  1  0  0  0  0
 44 53  1  0  0  0  0
 44 43  1  0  0  0  0
 45 55  1  1  0  0  0
 45 41  1  0  0  0  0
 46 45  1  0  0  0  0
 47 46  2  0  0  0  0
 48 46  1  0  0  0  0
 49 42  1  0  0  0  0
 51 43  1  0  0  0  0
 54 44  1  0  0  0  0
M  END
$$$$
