VRR.pdb
 OpenBabel07022419243D

 64 63  0  0  1  0  0  0  0  0999 V2000
    2.7990   -1.5840    3.9570 C   0  0  0  0  0  0  0  0  0  0  0  0
    3.1320   -0.8440    2.7050 C   0  0  0  0  0  0  0  0  0  0  0  0
    2.7380   -1.6210    1.4860 C   0  0  0  0  0  0  0  0  0  0  0  0
    2.6170    0.5810    2.7110 C   0  0  2  0  0  0  0  0  0  0  0  0
    3.3000    1.2020    3.8750 N   0  0  0  0  0  0  0  0  0  0  0  0
    1.1660    0.6950    2.9100 C   0  0  0  0  0  0  0  0  0  0  0  0
    0.6610    0.9660    4.0270 O   0  0  0  0  0  0  0  0  0  0  0  0
    1.7650   -1.4100    4.3200 H   0  0  0  0  0  0  0  0  0  0  0  0
    2.9260   -2.6650    3.8170 H   0  0  0  0  0  0  0  0  0  0  0  0
    3.4950   -1.3010    4.8010 H   0  0  0  0  0  0  0  0  0  0  0  0
    4.2690   -0.8060    2.6760 H   0  0  0  0  0  0  0  0  0  0  0  0
    3.5260   -2.3930    1.2390 H   0  0  0  0  0  0  0  0  0  0  0  0
    2.6210   -0.9900    0.5860 H   0  0  0  0  0  0  0  0  0  0  0  0
    1.8040   -2.1870    1.6690 H   0  0  0  0  0  0  0  0  0  0  0  0
    3.0180    1.1030    1.8270 H   0  0  0  0  0  0  0  0  0  0  0  0
    2.8900    0.7250    4.6990 H   0  0  0  0  0  0  0  0  0  0  0  0
    4.2980    0.8780    3.7890 H   0  0  0  0  0  0  0  0  0  0  0  0
    2.4890    2.9190   -1.2430 N   0  0  0  0  0  0  0  0  0  0  0  0
    1.1500    2.9090   -0.7480 C   0  0  0  0  0  0  0  0  0  0  0  0
    0.3240    2.0020   -1.0980 N   0  0  0  0  0  0  0  0  0  0  0  0
    0.6650    3.9030    0.1390 N   0  0  0  0  0  0  0  0  0  0  0  0
    0.0210    3.7020    1.3840 C   0  0  0  0  0  0  0  0  0  0  0  0
   -1.2970    3.1260    1.5320 C   0  0  0  0  0  0  0  0  0  0  0  0
   -1.7240    1.7770    1.2280 C   0  0  0  0  0  0  0  0  0  0  0  0
   -1.1550    0.6120    1.9760 C   0  0  2  0  0  0  0  0  0  0  0  0
    0.2470    0.5060    1.8290 N   0  0  0  0  0  0  0  0  0  0  0  0
   -1.9070   -0.5970    1.4690 C   0  0  0  0  0  0  0  0  0  0  0  0
   -3.1600   -0.6440    1.6020 O   0  0  0  0  0  0  0  0  0  0  0  0
    3.1110    2.1300   -1.0130 H   0  0  0  0  0  0  0  0  0  0  0  0
    2.8390    3.6950   -1.8230 H   0  0  0  0  0  0  0  0  0  0  0  0
    0.4550    1.2150   -1.7190 H   0  0  0  0  0  0  0  0  0  0  0  0
    0.8460    4.9260   -0.2290 H   0  0  0  0  0  0  0  0  0  0  0  0
   -0.1040    4.7970    1.7950 H   0  0  0  0  0  0  0  0  0  0  0  0
    0.7830    3.3420    2.1400 H   0  0  0  0  0  0  0  0  0  0  0  0
   -2.0030    3.8110    0.9020 H   0  0  0  0  0  0  0  0  0  0  0  0
   -1.7340    3.3890    2.5810 H   0  0  0  0  0  0  0  0  0  0  0  0
   -2.8730    1.7770    1.5370 H   0  0  0  0  0  0  0  0  0  0  0  0
   -1.8820    1.5210    0.1370 H   0  0  0  0  0  0  0  0  0  0  0  0
   -1.3830    0.7480    3.0700 H   0  0  0  0  0  0  0  0  0  0  0  0
    0.6440    0.2640    0.8990 H   0  0  0  0  0  0  0  0  0  0  0  0
   -3.0320   -0.9640   -4.0770 N   0  0  0  0  0  0  0  0  0  0  0  0
   -2.2920   -2.1730   -4.0000 C   0  0  0  0  0  0  0  0  0  0  0  0
   -0.9790   -2.2090   -4.0190 N   0  0  0  0  0  0  0  0  0  0  0  0
   -3.0240   -3.3940   -3.9000 N   0  0  0  0  0  0  0  0  0  0  0  0
   -2.5740   -4.4770   -3.0830 C   0  0  0  0  0  0  0  0  0  0  0  0
   -2.6730   -4.2110   -1.5910 C   0  0  0  0  0  0  0  0  0  0  0  0
   -1.8840   -3.0370   -1.1160 C   0  0  0  0  0  0  0  0  0  0  0  0
   -2.0560   -2.8550    0.3590 C   0  0  2  0  0  0  0  0  0  0  0  0
   -1.3130   -1.6980    0.8440 N   0  0  0  0  0  0  0  0  0  0  0  0
   -1.5290   -4.0170    1.0790 C   0  0  0  0  0  0  0  0  0  0  0  0
   -1.9870   -5.1640    1.0100 O   0  0  0  0  0  0  0  0  0  0  0  0
   -0.4220   -3.8520    1.9190 O   0  0  0  0  0  0  0  0  0  0  0  0
   -3.1170   -0.3570   -3.2170 H   0  0  0  0  0  0  0  0  0  0  0  0
   -3.5050   -0.6290   -4.9400 H   0  0  0  0  0  0  0  0  0  0  0  0
   -0.5070   -1.2850   -4.0930 H   0  0  0  0  0  0  0  0  0  0  0  0
   -3.9200   -3.4680   -4.4580 H   0  0  0  0  0  0  0  0  0  0  0  0
   -1.5230   -4.7730   -3.3150 H   0  0  0  0  0  0  0  0  0  0  0  0
   -3.1750   -5.3920   -3.2700 H   0  0  0  0  0  0  0  0  0  0  0  0
   -2.3240   -5.1970   -1.1470 H   0  0  0  0  0  0  0  0  0  0  0  0
   -3.7440   -4.1690   -1.2850 H   0  0  0  0  0  0  0  0  0  0  0  0
   -0.8340   -3.1870   -1.4100 H   0  0  0  0  0  0  0  0  0  0  0  0
   -2.3560   -2.1340   -1.6120 H   0  0  0  0  0  0  0  0  0  0  0  0
   -3.1130   -2.7300    0.5740 H   0  0  0  0  0  0  0  0  0  0  0  0
   -0.2880   -1.7270    0.6960 H   0  0  0  0  0  0  0  0  0  0  0  0
  1  8  1  0  0  0  0
  1 10  1  0  0  0  0
  2  4  1  0  0  0  0
  2  1  1  0  0  0  0
  3 14  1  0  0  0  0
  3  2  1  0  0  0  0
  4 15  1  6  0  0  0
  4  6  1  0  0  0  0
  4  5  1  0  0  0  0
  5 16  1  0  0  0  0
  6  7  2  0  0  0  0
  9  1  1  0  0  0  0
 11  2  1  0  0  0  0
 12  3  1  0  0  0  0
 13  3  1  0  0  0  0
 17  5  1  0  0  0  0
 18 29  1  0  0  0  0
 18 19  1  0  0  0  0
 19 21  1  0  0  0  0
 20 19  2  0  0  0  0
 21 22  1  0  0  0  0
 22 23  1  0  0  0  0
 22 33  1  0  0  0  0
 22 34  1  0  0  0  0
 23 36  1  0  0  0  0
 24 23  1  0  0  0  0
 24 37  1  0  0  0  0
 24 25  1  0  0  0  0
 25 39  1  1  0  0  0
 26 25  1  0  0  0  0
 26  6  1  0  0  0  0
 27 28  2  0  0  0  0
 27 25  1  0  0  0  0
 30 18  1  0  0  0  0
 31 20  1  0  0  0  0
 32 21  1  0  0  0  0
 35 23  1  0  0  0  0
 38 24  1  0  0  0  0
 40 26  1  0  0  0  0
 41 42  1  0  0  0  0
 41 53  1  0  0  0  0
 42 44  1  0  0  0  0
 43 42  2  0  0  0  0
 44 45  1  0  0  0  0
 45 46  1  0  0  0  0
 46 60  1  0  0  0  0
 46 59  1  0  0  0  0
 46 47  1  0  0  0  0
 47 48  1  0  0  0  0
 48 63  1  1  0  0  0
 48 49  1  0  0  0  0
 48 50  1  0  0  0  0
 49 27  1  0  0  0  0
 50 52  1  0  0  0  0
 51 50  2  0  0  0  0
 54 41  1  0  0  0  0
 55 43  1  0  0  0  0
 56 44  1  0  0  0  0
 57 45  1  0  0  0  0
 58 45  1  0  0  0  0
 61 47  1  0  0  0  0
 62 47  1  0  0  0  0
 64 49  1  0  0  0  0
M  END
$$$$
