VRS.pdb
 OpenBabel07022419243D

 52 51  0  0  1  0  0  0  0  0999 V2000
    3.0920   -1.7450   -4.7760 C   0  0  0  0  0  0  0  0  0  0  0  0
    1.9120   -1.2880   -3.9430 C   0  0  0  0  0  0  0  0  0  0  0  0
    1.2030   -0.1410   -4.6240 C   0  0  0  0  0  0  0  0  0  0  0  0
    0.9360   -2.4320   -3.7160 C   0  0  2  0  0  0  0  0  0  0  0  0
    0.4940   -2.8490   -5.0310 N   0  0  0  0  0  0  0  0  0  0  0  0
   -0.1840   -1.8960   -2.9030 C   0  0  0  0  0  0  0  0  0  0  0  0
   -1.3370   -1.8040   -3.4460 O   0  0  0  0  0  0  0  0  0  0  0  0
    2.9150   -1.3740   -5.8080 H   0  0  0  0  0  0  0  0  0  0  0  0
    4.0210   -1.2460   -4.4180 H   0  0  0  0  0  0  0  0  0  0  0  0
    3.1780   -2.8390   -4.8450 H   0  0  0  0  0  0  0  0  0  0  0  0
    2.3130   -0.9130   -2.9830 H   0  0  0  0  0  0  0  0  0  0  0  0
    1.9220    0.6710   -4.7980 H   0  0  0  0  0  0  0  0  0  0  0  0
    0.4160    0.2330   -3.9530 H   0  0  0  0  0  0  0  0  0  0  0  0
    0.7520   -0.5500   -5.5520 H   0  0  0  0  0  0  0  0  0  0  0  0
    1.4080   -3.2780   -3.2010 H   0  0  0  0  0  0  0  0  0  0  0  0
    0.7390   -3.8340   -5.2520 H   0  0  0  0  0  0  0  0  0  0  0  0
   -0.4800   -2.5840   -5.2350 H   0  0  0  0  0  0  0  0  0  0  0  0
   -5.3310   -0.1640    4.9570 N   0  0  0  0  0  0  0  0  0  0  0  0
   -4.2110    0.0630    4.1220 C   0  0  0  0  0  0  0  0  0  0  0  0
   -3.5360    1.1700    4.2190 N   0  0  0  0  0  0  0  0  0  0  0  0
   -3.7940   -0.8890    3.1700 N   0  0  0  0  0  0  0  0  0  0  0  0
   -2.6750   -0.5600    2.2350 C   0  0  0  0  0  0  0  0  0  0  0  0
   -2.4640   -1.7290    1.3680 C   0  0  0  0  0  0  0  0  0  0  0  0
   -1.4190   -1.8380    0.3790 C   0  0  0  0  0  0  0  0  0  0  0  0
   -1.2460   -0.9490   -0.7920 C   0  0  2  0  0  0  0  0  0  0  0  0
   -0.0710   -1.4820   -1.5730 N   0  0  0  0  0  0  0  0  0  0  0  0
   -0.8680    0.4500   -0.5520 C   0  0  0  0  0  0  0  0  0  0  0  0
   -1.6720    1.2580   -0.0420 O   0  0  0  0  0  0  0  0  0  0  0  0
   -5.7540    0.6340    5.4620 H   0  0  0  0  0  0  0  0  0  0  0  0
   -5.7360   -1.1060    5.0740 H   0  0  0  0  0  0  0  0  0  0  0  0
   -3.8180    1.8800    4.9050 H   0  0  0  0  0  0  0  0  0  0  0  0
   -4.2450   -1.8100    3.1030 H   0  0  0  0  0  0  0  0  0  0  0  0
   -3.0670    0.3620    1.7540 H   0  0  0  0  0  0  0  0  0  0  0  0
   -1.8240   -0.2720    2.8720 H   0  0  0  0  0  0  0  0  0  0  0  0
   -3.4790   -2.0330    0.9270 H   0  0  0  0  0  0  0  0  0  0  0  0
   -2.3090   -2.6120    2.1020 H   0  0  0  0  0  0  0  0  0  0  0  0
   -0.3770   -2.0050    0.8790 H   0  0  0  0  0  0  0  0  0  0  0  0
   -1.5310   -2.8950   -0.0890 H   0  0  0  0  0  0  0  0  0  0  0  0
   -2.1470   -0.9850   -1.4190 H   0  0  0  0  0  0  0  0  0  0  0  0
    0.8270   -1.5420   -1.0790 H   0  0  0  0  0  0  0  0  0  0  0  0
    2.9620    1.8820   -0.0880 O   0  0  0  0  0  0  0  0  0  0  0  0
    1.8360    2.4810    0.4360 C   0  0  0  0  0  0  0  0  0  0  0  0
    0.7020    2.3570   -0.5960 C   0  0  2  0  0  0  0  0  0  0  0  0
    0.4260    0.9740   -0.8780 N   0  0  0  0  0  0  0  0  0  0  0  0
    1.1980    3.0920   -1.7910 C   0  0  0  0  0  0  0  0  0  0  0  0
    1.3640    2.5950   -2.9130 O   0  0  0  0  0  0  0  0  0  0  0  0
    1.4940    4.4390   -1.6180 O   0  0  0  0  0  0  0  0  0  0  0  0
    3.4030    1.2880    0.5730 H   0  0  0  0  0  0  0  0  0  0  0  0
    1.5230    2.0800    1.4160 H   0  0  0  0  0  0  0  0  0  0  0  0
    2.0210    3.5700    0.5380 H   0  0  0  0  0  0  0  0  0  0  0  0
   -0.1710    2.8260   -0.1460 H   0  0  0  0  0  0  0  0  0  0  0  0
    1.1730    0.3780   -1.3200 H   0  0  0  0  0  0  0  0  0  0  0  0
  1  9  1  0  0  0  0
  1  2  1  0  0  0  0
  2  4  1  0  0  0  0
  2 11  1  0  0  0  0
  3 13  1  0  0  0  0
  3  2  1  0  0  0  0
  4 15  1  1  0  0  0
  4  6  1  0  0  0  0
  5  4  1  0  0  0  0
  6 26  1  0  0  0  0
  7  6  2  0  0  0  0
  8  1  1  0  0  0  0
 10  1  1  0  0  0  0
 12  3  1  0  0  0  0
 14  3  1  0  0  0  0
 16  5  1  0  0  0  0
 17  5  1  0  0  0  0
 18 30  1  0  0  0  0
 18 29  1  0  0  0  0
 19 20  2  0  0  0  0
 19 18  1  0  0  0  0
 20 31  1  0  0  0  0
 21 19  1  0  0  0  0
 22 34  1  0  0  0  0
 22 21  1  0  0  0  0
 23 36  1  0  0  0  0
 23 22  1  0  0  0  0
 24 37  1  0  0  0  0
 24 23  1  0  0  0  0
 25 39  1  6  0  0  0
 25 27  1  0  0  0  0
 25 24  1  0  0  0  0
 26 40  1  0  0  0  0
 26 25  1  0  0  0  0
 27 28  2  0  0  0  0
 32 21  1  0  0  0  0
 33 22  1  0  0  0  0
 35 23  1  0  0  0  0
 38 24  1  0  0  0  0
 41 42  1  0  0  0  0
 41 48  1  0  0  0  0
 42 50  1  0  0  0  0
 42 49  1  0  0  0  0
 43 51  1  1  0  0  0
 43 42  1  0  0  0  0
 44 43  1  0  0  0  0
 44 27  1  0  0  0  0
 45 47  1  0  0  0  0
 45 43  1  0  0  0  0
 46 45  2  0  0  0  0
 52 44  1  0  0  0  0
M  END
$$$$
