VRW.pdb
 OpenBabel07022419243D

 65 66  0  0  1  0  0  0  0  0999 V2000
    3.3890    2.0650    2.4650 C   0  0  0  0  0  0  0  0  0  0  0  0
    3.0160    0.9610    3.4310 C   0  0  0  0  0  0  0  0  0  0  0  0
    4.0030    0.8390    4.5420 C   0  0  0  0  0  0  0  0  0  0  0  0
    2.7970   -0.3640    2.7060 C   0  0  2  0  0  0  0  0  0  0  0  0
    3.9490   -0.8220    1.9990 N   0  0  0  0  0  0  0  0  0  0  0  0
    1.6330   -0.1680    1.8140 C   0  0  0  0  0  0  0  0  0  0  0  0
    0.5650    0.2320    2.3380 O   0  0  0  0  0  0  0  0  0  0  0  0
    2.5760    2.8210    2.3490 H   0  0  0  0  0  0  0  0  0  0  0  0
    4.2770    2.6450    2.8520 H   0  0  0  0  0  0  0  0  0  0  0  0
    3.5590    1.6300    1.4780 H   0  0  0  0  0  0  0  0  0  0  0  0
    2.0300    1.2350    3.8580 H   0  0  0  0  0  0  0  0  0  0  0  0
    3.5470    1.1270    5.4970 H   0  0  0  0  0  0  0  0  0  0  0  0
    4.2550   -0.2510    4.6440 H   0  0  0  0  0  0  0  0  0  0  0  0
    4.9350    1.4210    4.3760 H   0  0  0  0  0  0  0  0  0  0  0  0
    2.4950   -1.0920    3.4890 H   0  0  0  0  0  0  0  0  0  0  0  0
    4.1170   -0.3210    1.1230 H   0  0  0  0  0  0  0  0  0  0  0  0
    4.7640   -0.9610    2.6020 H   0  0  0  0  0  0  0  0  0  0  0  0
   -2.3930    4.7820    0.5280 N   0  0  0  0  0  0  0  0  0  0  0  0
   -2.4340    3.5340   -0.1200 C   0  0  0  0  0  0  0  0  0  0  0  0
   -3.5730    2.8910   -0.0560 N   0  0  0  0  0  0  0  0  0  0  0  0
   -1.3530    2.9510   -0.8130 N   0  0  0  0  0  0  0  0  0  0  0  0
   -1.5590    1.7900   -1.6280 C   0  0  0  0  0  0  0  0  0  0  0  0
   -0.2970    1.3010   -2.2950 C   0  0  0  0  0  0  0  0  0  0  0  0
    0.7750    0.9180   -1.3470 C   0  0  0  0  0  0  0  0  0  0  0  0
    0.4610   -0.1870   -0.3970 C   0  0  2  0  0  0  0  0  0  0  0  0
    1.6240   -0.3920    0.4370 N   0  0  0  0  0  0  0  0  0  0  0  0
    0.0070   -1.4270   -1.0590 C   0  0  0  0  0  0  0  0  0  0  0  0
   -0.9780   -1.3810   -1.8160 O   0  0  0  0  0  0  0  0  0  0  0  0
   -1.6370    4.9720    1.2120 H   0  0  0  0  0  0  0  0  0  0  0  0
   -3.1000    5.5210    0.3400 H   0  0  0  0  0  0  0  0  0  0  0  0
   -3.7520    1.9740   -0.4790 H   0  0  0  0  0  0  0  0  0  0  0  0
   -0.4130    3.3650   -0.7310 H   0  0  0  0  0  0  0  0  0  0  0  0
   -2.3130    2.0790   -2.4100 H   0  0  0  0  0  0  0  0  0  0  0  0
   -2.0620    0.9920   -1.0420 H   0  0  0  0  0  0  0  0  0  0  0  0
   -0.5810    0.5610   -3.0460 H   0  0  0  0  0  0  0  0  0  0  0  0
    0.0950    2.1880   -2.8770 H   0  0  0  0  0  0  0  0  0  0  0  0
    1.1150    1.8350   -0.8250 H   0  0  0  0  0  0  0  0  0  0  0  0
    1.6640    0.6060   -1.9710 H   0  0  0  0  0  0  0  0  0  0  0  0
   -0.3460    0.1620    0.2750 H   0  0  0  0  0  0  0  0  0  0  0  0
    2.4890   -0.7240   -0.0370 H   0  0  0  0  0  0  0  0  0  0  0  0
    0.6480   -2.6750   -0.8680 N   0  0  0  0  0  0  0  0  0  0  0  0
    0.2550   -3.8960   -1.4990 C   0  0  1  0  0  0  0  0  0  0  0  0
   -0.6130   -4.8060   -0.7100 C   0  0  0  0  0  0  0  0  0  0  0  0
   -1.9070   -4.2440   -0.2850 C   0  0  0  0  0  0  0  0  0  0  0  0
   -3.1100   -4.4860   -0.9050 C   0  0  0  0  0  0  0  0  0  0  0  0
   -4.0400   -3.7920   -0.2430 N   0  0  0  0  0  0  0  0  0  0  0  0
   -3.5000   -3.1130    0.7750 C   0  0  0  0  0  0  0  0  0  0  0  0
   -4.0430   -2.2620    1.7440 C   0  0  0  0  0  0  0  0  0  0  0  0
   -3.2300   -1.6910    2.6990 C   0  0  0  0  0  0  0  0  0  0  0  0
   -1.8750   -1.9730    2.6800 C   0  0  0  0  0  0  0  0  0  0  0  0
   -1.3340   -2.8240    1.7100 C   0  0  0  0  0  0  0  0  0  0  0  0
   -2.1580   -3.3900    0.7590 C   0  0  0  0  0  0  0  0  0  0  0  0
   -0.1420   -3.7700   -2.9340 C   0  0  0  0  0  0  0  0  0  0  0  0
   -0.0550   -2.7450   -3.6330 O   0  0  0  0  0  0  0  0  0  0  0  0
   -0.6730   -4.8940   -3.6070 O   0  0  0  0  0  0  0  0  0  0  0  0
    1.4960   -2.6680   -0.1850 H   0  0  0  0  0  0  0  0  0  0  0  0
    1.2700   -4.4590   -1.6180 H   0  0  0  0  0  0  0  0  0  0  0  0
   -0.1270   -5.1960    0.2120 H   0  0  0  0  0  0  0  0  0  0  0  0
   -0.8320   -5.7300   -1.3090 H   0  0  0  0  0  0  0  0  0  0  0  0
   -3.2960   -5.1270   -1.7840 H   0  0  0  0  0  0  0  0  0  0  0  0
   -5.0560   -3.7690   -0.4740 H   0  0  0  0  0  0  0  0  0  0  0  0
   -5.0940   -2.0380    1.7640 H   0  0  0  0  0  0  0  0  0  0  0  0
   -3.6060   -1.0250    3.4710 H   0  0  0  0  0  0  0  0  0  0  0  0
   -1.2530   -1.5120    3.4430 H   0  0  0  0  0  0  0  0  0  0  0  0
   -0.2640   -3.0160    1.7400 H   0  0  0  0  0  0  0  0  0  0  0  0
  1  9  1  0  0  0  0
  1  2  1  0  0  0  0
  2 11  1  0  0  0  0
  2  3  1  0  0  0  0
  3 13  1  0  0  0  0
  3 12  1  0  0  0  0
  4  2  1  0  0  0  0
  4 15  1  1  0  0  0
  5 17  1  0  0  0  0
  5  4  1  0  0  0  0
  6  7  2  0  0  0  0
  6  4  1  0  0  0  0
  8  1  1  0  0  0  0
 10  1  1  0  0  0  0
 14  3  1  0  0  0  0
 16  5  1  0  0  0  0
 18 29  1  0  0  0  0
 19 20  2  0  0  0  0
 19 18  1  0  0  0  0
 21 32  1  0  0  0  0
 21 19  1  0  0  0  0
 22 34  1  0  0  0  0
 22 21  1  0  0  0  0
 23 22  1  0  0  0  0
 23 24  1  0  0  0  0
 24 37  1  0  0  0  0
 24 25  1  0  0  0  0
 25 39  1  1  0  0  0
 25 26  1  0  0  0  0
 26  6  1  0  0  0  0
 27 41  1  0  0  0  0
 27 25  1  0  0  0  0
 28 27  2  0  0  0  0
 30 18  1  0  0  0  0
 31 20  1  0  0  0  0
 33 22  1  0  0  0  0
 35 23  1  0  0  0  0
 36 23  1  0  0  0  0
 38 24  1  0  0  0  0
 40 26  1  0  0  0  0
 41 56  1  0  0  0  0
 42 57  1  6  0  0  0
 42 41  1  0  0  0  0
 42 43  1  0  0  0  0
 43 44  1  0  0  0  0
 43 58  1  0  0  0  0
 44 52  1  0  0  0  0
 45 44  2  0  0  0  0
 45 46  1  0  0  0  0
 46 47  1  0  0  0  0
 47 48  1  0  0  0  0
 48 62  1  0  0  0  0
 48 49  2  0  0  0  0
 49 63  1  0  0  0  0
 50 49  1  0  0  0  0
 50 64  1  0  0  0  0
 51 65  1  0  0  0  0
 51 50  2  0  0  0  0
 52 47  2  0  0  0  0
 52 51  1  0  0  0  0
 53 42  1  0  0  0  0
 54 53  2  0  0  0  0
 55 53  1  0  0  0  0
 59 43  1  0  0  0  0
 60 45  1  0  0  0  0
 61 46  1  0  0  0  0
M  END
$$$$
