VRY.pdb
 OpenBabel07022419243D

 62 62  0  0  1  0  0  0  0  0999 V2000
    2.5960    1.9440    3.7200 C   0  0  0  0  0  0  0  0  0  0  0  0
    1.7350    0.9480    4.4200 C   0  0  0  0  0  0  0  0  0  0  0  0
    0.4250    1.5560    4.8070 C   0  0  0  0  0  0  0  0  0  0  0  0
    1.5890   -0.3560    3.6920 C   0  0  2  0  0  0  0  0  0  0  0  0
    2.8550   -0.9980    3.5040 N   0  0  0  0  0  0  0  0  0  0  0  0
    0.7970   -0.2580    2.4440 C   0  0  0  0  0  0  0  0  0  0  0  0
   -0.3220    0.3210    2.4360 O   0  0  0  0  0  0  0  0  0  0  0  0
    2.9620    1.5760    2.7530 H   0  0  0  0  0  0  0  0  0  0  0  0
    2.0110    2.8820    3.4940 H   0  0  0  0  0  0  0  0  0  0  0  0
    3.4900    2.2640    4.3020 H   0  0  0  0  0  0  0  0  0  0  0  0
    2.2730    0.6910    5.3820 H   0  0  0  0  0  0  0  0  0  0  0  0
   -0.4370    0.8660    4.7020 H   0  0  0  0  0  0  0  0  0  0  0  0
    0.4200    1.9160    5.8590 H   0  0  0  0  0  0  0  0  0  0  0  0
    0.2080    2.4380    4.1710 H   0  0  0  0  0  0  0  0  0  0  0  0
    0.9960   -1.0320    4.3770 H   0  0  0  0  0  0  0  0  0  0  0  0
    3.3660   -0.6860    2.6510 H   0  0  0  0  0  0  0  0  0  0  0  0
    3.5060   -0.8200    4.3000 H   0  0  0  0  0  0  0  0  0  0  0  0
    0.9650    4.6160   -1.5970 N   0  0  0  0  0  0  0  0  0  0  0  0
    0.5520    3.4710   -2.3250 C   0  0  0  0  0  0  0  0  0  0  0  0
    0.9390    3.3060   -3.5630 N   0  0  0  0  0  0  0  0  0  0  0  0
   -0.2710    2.5080   -1.7260 N   0  0  0  0  0  0  0  0  0  0  0  0
   -0.4890    1.2100   -2.3360 C   0  0  0  0  0  0  0  0  0  0  0  0
    0.7650    0.3690   -2.3230 C   0  0  0  0  0  0  0  0  0  0  0  0
    1.3020    0.0760   -0.9780 C   0  0  0  0  0  0  0  0  0  0  0  0
    0.4400   -0.6920   -0.0330 C   0  0  2  0  0  0  0  0  0  0  0  0
    1.2270   -0.7920    1.2040 N   0  0  0  0  0  0  0  0  0  0  0  0
    0.0570   -2.0460   -0.4870 C   0  0  0  0  0  0  0  0  0  0  0  0
    0.5260   -3.0530    0.1540 O   0  0  0  0  0  0  0  0  0  0  0  0
    1.7860    5.1710   -1.8970 H   0  0  0  0  0  0  0  0  0  0  0  0
    0.4500    4.9210   -0.7480 H   0  0  0  0  0  0  0  0  0  0  0  0
    1.5480    4.0220   -3.9980 H   0  0  0  0  0  0  0  0  0  0  0  0
   -0.7460    2.7100   -0.8220 H   0  0  0  0  0  0  0  0  0  0  0  0
   -0.7550    1.3950   -3.3970 H   0  0  0  0  0  0  0  0  0  0  0  0
   -1.3220    0.7010   -1.8610 H   0  0  0  0  0  0  0  0  0  0  0  0
    0.6270   -0.4810   -3.0020 H   0  0  0  0  0  0  0  0  0  0  0  0
    1.5500    1.0240   -2.8310 H   0  0  0  0  0  0  0  0  0  0  0  0
    2.3010   -0.4220   -1.1190 H   0  0  0  0  0  0  0  0  0  0  0  0
    1.5870    1.0710   -0.5200 H   0  0  0  0  0  0  0  0  0  0  0  0
   -0.4510   -0.1010    0.2090 H   0  0  0  0  0  0  0  0  0  0  0  0
    2.1250   -1.2730    1.1460 H   0  0  0  0  0  0  0  0  0  0  0  0
   -3.9000   -3.1020    3.7780 O   0  0  0  0  0  0  0  0  0  0  0  0
   -3.5660   -3.3640    2.4590 C   0  0  0  0  0  0  0  0  0  0  0  0
   -3.1290   -4.5960    2.0150 C   0  0  0  0  0  0  0  0  0  0  0  0
   -2.7980   -4.8550    0.7020 C   0  0  0  0  0  0  0  0  0  0  0  0
   -2.8980   -3.8640   -0.2270 C   0  0  0  0  0  0  0  0  0  0  0  0
   -2.5600   -4.0460   -1.6640 C   0  0  0  0  0  0  0  0  0  0  0  0
   -1.0930   -3.7240   -1.9220 C   0  0  2  0  0  0  0  0  0  0  0  0
   -0.7850   -2.3580   -1.5640 N   0  0  0  0  0  0  0  0  0  0  0  0
   -0.8070   -4.0360   -3.3160 C   0  0  0  0  0  0  0  0  0  0  0  0
   -1.0250   -5.1790   -3.7680 O   0  0  0  0  0  0  0  0  0  0  0  0
   -3.3320   -2.6190    0.1830 C   0  0  0  0  0  0  0  0  0  0  0  0
   -3.6600   -2.3700    1.4950 C   0  0  0  0  0  0  0  0  0  0  0  0
   -0.2920   -3.0670   -4.1510 O   0  0  0  0  0  0  0  0  0  0  0  0
   -4.6860   -2.4510    3.9250 H   0  0  0  0  0  0  0  0  0  0  0  0
   -3.0550   -5.3830    2.7800 H   0  0  0  0  0  0  0  0  0  0  0  0
   -2.4590   -5.8380    0.3980 H   0  0  0  0  0  0  0  0  0  0  0  0
   -3.1900   -3.3980   -2.2890 H   0  0  0  0  0  0  0  0  0  0  0  0
   -2.6770   -5.1280   -1.8880 H   0  0  0  0  0  0  0  0  0  0  0  0
   -0.5360   -4.3850   -1.2190 H   0  0  0  0  0  0  0  0  0  0  0  0
   -1.2200   -1.6120   -2.1320 H   0  0  0  0  0  0  0  0  0  0  0  0
   -3.4220   -1.8000   -0.5470 H   0  0  0  0  0  0  0  0  0  0  0  0
   -3.9970   -1.3840    1.7830 H   0  0  0  0  0  0  0  0  0  0  0  0
  1 10  1  0  0  0  0
  1  2  1  0  0  0  0
  2  3  1  0  0  0  0
  2 11  1  0  0  0  0
  3 13  1  0  0  0  0
  4 15  1  1  0  0  0
  4  2  1  0  0  0  0
  5  4  1  0  0  0  0
  5 17  1  0  0  0  0
  6  4  1  0  0  0  0
  7  6  2  0  0  0  0
  8  1  1  0  0  0  0
  9  1  1  0  0  0  0
 12  3  1  0  0  0  0
 14  3  1  0  0  0  0
 16  5  1  0  0  0  0
 18 30  1  0  0  0  0
 19 21  1  0  0  0  0
 19 18  1  0  0  0  0
 20 19  2  0  0  0  0
 21 32  1  0  0  0  0
 22 23  1  0  0  0  0
 22 34  1  0  0  0  0
 22 21  1  0  0  0  0
 23 24  1  0  0  0  0
 24 38  1  0  0  0  0
 24 25  1  0  0  0  0
 25 39  1  1  0  0  0
 25 26  1  0  0  0  0
 26  6  1  0  0  0  0
 27 25  1  0  0  0  0
 27 28  2  0  0  0  0
 29 18  1  0  0  0  0
 31 20  1  0  0  0  0
 33 22  1  0  0  0  0
 35 23  1  0  0  0  0
 36 23  1  0  0  0  0
 37 24  1  0  0  0  0
 40 26  1  0  0  0  0
 41 54  1  0  0  0  0
 42 41  1  0  0  0  0
 43 42  1  0  0  0  0
 43 55  1  0  0  0  0
 44 43  2  0  0  0  0
 45 51  2  0  0  0  0
 45 44  1  0  0  0  0
 46 45  1  0  0  0  0
 47 46  1  0  0  0  0
 47 48  1  0  0  0  0
 47 59  1  1  0  0  0
 48 27  1  0  0  0  0
 49 47  1  0  0  0  0
 50 49  1  0  0  0  0
 51 52  1  0  0  0  0
 52 62  1  0  0  0  0
 52 42  2  0  0  0  0
 53 49  2  0  0  0  0
 56 44  1  0  0  0  0
 57 46  1  0  0  0  0
 58 46  1  0  0  0  0
 60 48  1  0  0  0  0
 61 51  1  0  0  0  0
M  END
$$$$
