VSC.pdb
 OpenBabel07022419273D

 40 39  0  0  1  0  0  0  0  0999 V2000
   -0.0230   -3.1000    2.5550 C   0  0  0  0  0  0  0  0  0  0  0  0
   -0.2400   -3.3820    1.0850 C   0  0  0  0  0  0  0  0  0  0  0  0
   -1.3180   -2.5750    0.4520 C   0  0  0  0  0  0  0  0  0  0  0  0
    1.0500   -3.4510    0.3200 C   0  0  2  0  0  0  0  0  0  0  0  0
    1.8140   -4.5520    0.9340 N   0  0  0  0  0  0  0  0  0  0  0  0
    1.8420   -2.2210    0.2760 C   0  0  0  0  0  0  0  0  0  0  0  0
    3.0430   -2.2120    0.7290 O   0  0  0  0  0  0  0  0  0  0  0  0
    0.7400   -3.8150    2.9110 H   0  0  0  0  0  0  0  0  0  0  0  0
   -0.9930   -3.2630    3.0780 H   0  0  0  0  0  0  0  0  0  0  0  0
    0.3240   -2.0960    2.7720 H   0  0  0  0  0  0  0  0  0  0  0  0
   -0.6230   -4.4540    1.0890 H   0  0  0  0  0  0  0  0  0  0  0  0
   -1.4400   -1.5670    0.8570 H   0  0  0  0  0  0  0  0  0  0  0  0
   -2.3060   -3.0820    0.6620 H   0  0  0  0  0  0  0  0  0  0  0  0
   -1.1960   -2.6270   -0.6440 H   0  0  0  0  0  0  0  0  0  0  0  0
    0.8540   -3.7830   -0.7200 H   0  0  0  0  0  0  0  0  0  0  0  0
    2.3790   -4.1820    1.7250 H   0  0  0  0  0  0  0  0  0  0  0  0
    1.1870   -5.3260    1.1760 H   0  0  0  0  0  0  0  0  0  0  0  0
    1.2200    0.7690   -2.2960 O   0  0  0  0  0  0  0  0  0  0  0  0
    2.4770    0.5510   -1.7380 C   0  0  0  0  0  0  0  0  0  0  0  0
    2.2390    0.2140   -0.2600 C   0  0  2  0  0  0  0  0  0  0  0  0
    1.4150   -0.9710   -0.2360 N   0  0  0  0  0  0  0  0  0  0  0  0
    1.6190    1.3810    0.4160 C   0  0  0  0  0  0  0  0  0  0  0  0
    2.2220    2.5040    0.4780 O   0  0  0  0  0  0  0  0  0  0  0  0
    1.0180    1.7160   -2.3720 H   0  0  0  0  0  0  0  0  0  0  0  0
    3.0980    1.4780   -1.8030 H   0  0  0  0  0  0  0  0  0  0  0  0
    3.0290   -0.2580   -2.2370 H   0  0  0  0  0  0  0  0  0  0  0  0
    3.2490    0.0370    0.1630 H   0  0  0  0  0  0  0  0  0  0  0  0
    0.4540   -0.8890   -0.6190 H   0  0  0  0  0  0  0  0  0  0  0  0
    0.3520    1.3390    1.0240 N   0  0  0  0  0  0  0  0  0  0  0  0
   -0.2730    2.4580    1.6870 C   0  0  1  0  0  0  0  0  0  0  0  0
   -1.5480    2.8980    0.9960 C   0  0  0  0  0  0  0  0  0  0  0  0
   -2.7910    1.6100    0.9240 S   0  0  0  0  0  0  0  0  0  0  0  0
   -0.5460    2.2190    3.1080 C   0  0  0  0  0  0  0  0  0  0  0  0
   -1.0910    3.1460    3.7630 O   0  0  0  0  0  0  0  0  0  0  0  0
   -0.2550    1.0570    3.7930 O   0  0  0  0  0  0  0  0  0  0  0  0
   -0.1670    0.4360    0.9900 H   0  0  0  0  0  0  0  0  0  0  0  0
    0.4270    3.3280    1.6220 H   0  0  0  0  0  0  0  0  0  0  0  0
   -1.3180    3.3450   -0.0060 H   0  0  0  0  0  0  0  0  0  0  0  0
   -1.9550    3.7380    1.6010 H   0  0  0  0  0  0  0  0  0  0  0  0
   -3.5710    1.8000   -0.2360 H   0  0  0  0  0  0  0  0  0  0  0  0
  1 10  1  0  0  0  0
  1  8  1  0  0  0  0
  1  9  1  0  0  0  0
  2 11  1  0  0  0  0
  2  1  1  0  0  0  0
  3 13  1  0  0  0  0
  3 12  1  0  0  0  0
  3  2  1  0  0  0  0
  4 15  1  6  0  0  0
  4  5  1  0  0  0  0
  4  2  1  0  0  0  0
  5 17  1  0  0  0  0
  5 16  1  0  0  0  0
  6  4  1  0  0  0  0
  6  7  2  0  0  0  0
 14  3  1  0  0  0  0
 18 19  1  0  0  0  0
 19 20  1  0  0  0  0
 20 21  1  0  0  0  0
 20 27  1  1  0  0  0
 20 22  1  0  0  0  0
 21  6  1  0  0  0  0
 22 23  2  0  0  0  0
 22 29  1  0  0  0  0
 24 18  1  0  0  0  0
 25 19  1  0  0  0  0
 26 19  1  0  0  0  0
 28 21  1  0  0  0  0
 29 30  1  0  0  0  0
 30 37  1  6  0  0  0
 30 33  1  0  0  0  0
 31 39  1  0  0  0  0
 31 30  1  0  0  0  0
 32 31  1  0  0  0  0
 33 34  2  0  0  0  0
 33 35  1  0  0  0  0
 36 29  1  0  0  0  0
 38 31  1  0  0  0  0
 40 32  1  0  0  0  0
M  END
$$$$
