VSD.pdb
 OpenBabel07022419273D

 42 41  0  0  1  0  0  0  0  0999 V2000
   -1.8270   -5.2870   -1.6180 C   0  0  0  0  0  0  0  0  0  0  0  0
   -0.6480   -4.5010   -1.0870 C   0  0  0  0  0  0  0  0  0  0  0  0
    0.2300   -5.4260   -0.3110 C   0  0  0  0  0  0  0  0  0  0  0  0
   -1.1790   -3.3460   -0.2830 C   0  0  2  0  0  0  0  0  0  0  0  0
   -1.9910   -2.5290   -1.1600 N   0  0  0  0  0  0  0  0  0  0  0  0
   -0.1020   -2.4990    0.2720 C   0  0  0  0  0  0  0  0  0  0  0  0
    0.7670   -2.9290    1.0720 O   0  0  0  0  0  0  0  0  0  0  0  0
   -2.7820   -5.0140   -1.0960 H   0  0  0  0  0  0  0  0  0  0  0  0
   -1.7030   -6.3890   -1.4150 H   0  0  0  0  0  0  0  0  0  0  0  0
   -1.9080   -5.2030   -2.7160 H   0  0  0  0  0  0  0  0  0  0  0  0
   -0.0600   -4.0740   -1.9310 H   0  0  0  0  0  0  0  0  0  0  0  0
    1.3080   -5.1850   -0.3700 H   0  0  0  0  0  0  0  0  0  0  0  0
    0.1170   -6.4470   -0.7470 H   0  0  0  0  0  0  0  0  0  0  0  0
   -0.0390   -5.5140    0.7620 H   0  0  0  0  0  0  0  0  0  0  0  0
   -1.7960   -3.7760    0.5350 H   0  0  0  0  0  0  0  0  0  0  0  0
   -2.5530   -3.1080   -1.7920 H   0  0  0  0  0  0  0  0  0  0  0  0
   -2.5230   -1.8000   -0.6410 H   0  0  0  0  0  0  0  0  0  0  0  0
    1.3170    0.9760   -1.5480 O   0  0  0  0  0  0  0  0  0  0  0  0
    1.9840    0.1900   -0.6140 C   0  0  0  0  0  0  0  0  0  0  0  0
    1.0490   -0.3240    0.4630 C   0  0  2  0  0  0  0  0  0  0  0  0
   -0.0130   -1.1340   -0.0920 N   0  0  0  0  0  0  0  0  0  0  0  0
    0.4200    0.8050    1.1810 C   0  0  0  0  0  0  0  0  0  0  0  0
   -0.8240    0.9150    1.2190 O   0  0  0  0  0  0  0  0  0  0  0  0
    0.3800    1.1030   -1.2010 H   0  0  0  0  0  0  0  0  0  0  0  0
    2.7640    0.7930   -0.0960 H   0  0  0  0  0  0  0  0  0  0  0  0
    2.4950   -0.6760   -1.0670 H   0  0  0  0  0  0  0  0  0  0  0  0
    1.7020   -0.9250    1.1530 H   0  0  0  0  0  0  0  0  0  0  0  0
   -0.6710   -0.6640   -0.7430 H   0  0  0  0  0  0  0  0  0  0  0  0
    1.2110    1.8030    1.8510 N   0  0  0  0  0  0  0  0  0  0  0  0
    0.6170    2.9080    2.5540 C   0  0  1  0  0  0  0  0  0  0  0  0
    0.9450    2.8170    4.0060 C   0  0  0  0  0  0  0  0  0  0  0  0
    2.3950    2.8580    4.2800 C   0  0  0  0  0  0  0  0  0  0  0  0
    3.2320    2.9810    3.3700 O   0  0  0  0  0  0  0  0  0  0  0  0
    1.0300    4.2160    2.0380 C   0  0  0  0  0  0  0  0  0  0  0  0
    1.8290    4.2680    1.0740 O   0  0  0  0  0  0  0  0  0  0  0  0
    2.9040    2.7610    5.5780 O   0  0  0  0  0  0  0  0  0  0  0  0
    0.5450    5.3660    2.6100 O   0  0  0  0  0  0  0  0  0  0  0  0
    2.2360    1.6450    1.7740 H   0  0  0  0  0  0  0  0  0  0  0  0
   -0.4870    2.8340    2.4600 H   0  0  0  0  0  0  0  0  0  0  0  0
    0.5160    1.9010    4.4730 H   0  0  0  0  0  0  0  0  0  0  0  0
    0.4310    3.6710    4.5180 H   0  0  0  0  0  0  0  0  0  0  0  0
    3.7590    3.2650    5.7680 H   0  0  0  0  0  0  0  0  0  0  0  0
  1  9  1  0  0  0  0
  1  8  1  0  0  0  0
  1  2  1  0  0  0  0
  2  3  1  0  0  0  0
  2  4  1  0  0  0  0
  3 14  1  0  0  0  0
  4  6  1  0  0  0  0
  4 15  1  1  0  0  0
  5 17  1  0  0  0  0
  5  4  1  0  0  0  0
  6  7  2  0  0  0  0
 10  1  1  0  0  0  0
 11  2  1  0  0  0  0
 12  3  1  0  0  0  0
 13  3  1  0  0  0  0
 16  5  1  0  0  0  0
 18 24  1  0  0  0  0
 18 19  1  0  0  0  0
 19 25  1  0  0  0  0
 19 20  1  0  0  0  0
 20 27  1  1  0  0  0
 20 22  1  0  0  0  0
 21  6  1  0  0  0  0
 21 20  1  0  0  0  0
 22 23  2  0  0  0  0
 22 29  1  0  0  0  0
 26 19  1  0  0  0  0
 28 21  1  0  0  0  0
 29 30  1  0  0  0  0
 30 39  1  6  0  0  0
 30 31  1  0  0  0  0
 31 32  1  0  0  0  0
 31 40  1  0  0  0  0
 31 41  1  0  0  0  0
 32 36  1  0  0  0  0
 33 32  2  0  0  0  0
 34 30  1  0  0  0  0
 34 37  1  0  0  0  0
 35 34  2  0  0  0  0
 36 42  1  0  0  0  0
 38 29  1  0  0  0  0
M  END
$$$$
