VSE.pdb
 OpenBabel07022419273D

 45 44  0  0  1  0  0  0  0  0999 V2000
    2.9590   -5.2650   -2.3560 C   0  0  0  0  0  0  0  0  0  0  0  0
    2.8650   -4.3950   -1.0950 C   0  0  0  0  0  0  0  0  0  0  0  0
    2.7860   -5.2880    0.1050 C   0  0  0  0  0  0  0  0  0  0  0  0
    1.7160   -3.4720   -1.2660 C   0  0  2  0  0  0  0  0  0  0  0  0
    1.9300   -2.6450   -2.4350 N   0  0  0  0  0  0  0  0  0  0  0  0
    1.4900   -2.6170   -0.0650 C   0  0  0  0  0  0  0  0  0  0  0  0
    1.2940   -3.1010    1.0800 O   0  0  0  0  0  0  0  0  0  0  0  0
    2.0440   -5.9180   -2.3120 H   0  0  0  0  0  0  0  0  0  0  0  0
    3.8760   -5.8640   -2.3250 H   0  0  0  0  0  0  0  0  0  0  0  0
    2.8620   -4.6240   -3.2710 H   0  0  0  0  0  0  0  0  0  0  0  0
    3.7940   -3.7930   -1.0140 H   0  0  0  0  0  0  0  0  0  0  0  0
    3.4240   -4.9040    0.9540 H   0  0  0  0  0  0  0  0  0  0  0  0
    1.7510   -5.5220    0.4180 H   0  0  0  0  0  0  0  0  0  0  0  0
    3.2570   -6.2600   -0.1720 H   0  0  0  0  0  0  0  0  0  0  0  0
    0.8000   -4.0930   -1.4880 H   0  0  0  0  0  0  0  0  0  0  0  0
    2.6980   -1.9700   -2.2420 H   0  0  0  0  0  0  0  0  0  0  0  0
    1.0880   -2.0940   -2.7200 H   0  0  0  0  0  0  0  0  0  0  0  0
    2.2630    1.2320    2.4550 O   0  0  0  0  0  0  0  0  0  0  0  0
    2.5060    0.4580    1.3290 C   0  0  0  0  0  0  0  0  0  0  0  0
    1.2670   -0.3700    1.0280 C   0  0  2  0  0  0  0  0  0  0  0  0
    1.4840   -1.2000   -0.1450 N   0  0  0  0  0  0  0  0  0  0  0  0
    0.0810    0.4690    0.7350 C   0  0  0  0  0  0  0  0  0  0  0  0
   -0.4680    0.3620   -0.3850 O   0  0  0  0  0  0  0  0  0  0  0  0
    2.5300    2.1670    2.3740 H   0  0  0  0  0  0  0  0  0  0  0  0
    2.8290    1.0680    0.4680 H   0  0  0  0  0  0  0  0  0  0  0  0
    3.3210   -0.2440    1.5880 H   0  0  0  0  0  0  0  0  0  0  0  0
    1.0840   -0.9950    1.9410 H   0  0  0  0  0  0  0  0  0  0  0  0
    1.6370   -0.7040   -1.0480 H   0  0  0  0  0  0  0  0  0  0  0  0
   -0.4610    1.3820    1.6570 N   0  0  0  0  0  0  0  0  0  0  0  0
   -1.6240    2.2240    1.3890 C   0  0  1  0  0  0  0  0  0  0  0  0
   -2.6440    1.8610    2.4300 C   0  0  0  0  0  0  0  0  0  0  0  0
   -3.9290    2.6040    2.3770 C   0  0  0  0  0  0  0  0  0  0  0  0
   -4.7980    2.0670    3.4790 C   0  0  0  0  0  0  0  0  0  0  0  0
   -5.0450    0.8350    3.5070 O   0  0  0  0  0  0  0  0  0  0  0  0
   -1.2860    3.6540    1.5210 C   0  0  0  0  0  0  0  0  0  0  0  0
   -0.1100    3.9620    1.8850 O   0  0  0  0  0  0  0  0  0  0  0  0
   -5.3370    2.8800    4.4690 O   0  0  0  0  0  0  0  0  0  0  0  0
   -2.1410    4.7060    1.2800 O   0  0  0  0  0  0  0  0  0  0  0  0
   -0.0050    1.4540    2.5910 H   0  0  0  0  0  0  0  0  0  0  0  0
   -2.0400    2.0450    0.3910 H   0  0  0  0  0  0  0  0  0  0  0  0
   -2.8740    0.7680    2.2690 H   0  0  0  0  0  0  0  0  0  0  0  0
   -2.1670    1.9030    3.4360 H   0  0  0  0  0  0  0  0  0  0  0  0
   -4.4580    2.3360    1.4460 H   0  0  0  0  0  0  0  0  0  0  0  0
   -3.7900    3.6830    2.4920 H   0  0  0  0  0  0  0  0  0  0  0  0
   -5.4930    2.5420    5.4160 H   0  0  0  0  0  0  0  0  0  0  0  0
  1  9  1  0  0  0  0
  1  8  1  0  0  0  0
  1  2  1  0  0  0  0
  2 11  1  0  0  0  0
  2  3  1  0  0  0  0
  3 13  1  0  0  0  0
  3 12  1  0  0  0  0
  4 15  1  6  0  0  0
  4  2  1  0  0  0  0
  4  6  1  0  0  0  0
  5 16  1  0  0  0  0
  5  4  1  0  0  0  0
  6  7  2  0  0  0  0
 10  1  1  0  0  0  0
 14  3  1  0  0  0  0
 17  5  1  0  0  0  0
 19 26  1  0  0  0  0
 19 18  1  0  0  0  0
 20 19  1  0  0  0  0
 20 27  1  1  0  0  0
 21  6  1  0  0  0  0
 21 20  1  0  0  0  0
 22 20  1  0  0  0  0
 22 29  1  0  0  0  0
 23 22  2  0  0  0  0
 24 18  1  0  0  0  0
 25 19  1  0  0  0  0
 28 21  1  0  0  0  0
 29 39  1  0  0  0  0
 30 40  1  6  0  0  0
 30 35  1  0  0  0  0
 30 29  1  0  0  0  0
 30 31  1  0  0  0  0
 31 42  1  0  0  0  0
 32 31  1  0  0  0  0
 32 44  1  0  0  0  0
 32 33  1  0  0  0  0
 33 34  2  0  0  0  0
 33 37  1  0  0  0  0
 35 36  1  0  0  0  0
 37 45  1  0  0  0  0
 38 35  2  0  0  0  0
 41 31  1  0  0  0  0
 43 32  1  0  0  0  0
M  END
$$$$
