VSG.pdb
 OpenBabel07022419273D

 36 35  0  0  1  0  0  0  0  0999 V2000
   -2.7120   -3.0290   -0.9790 C   0  0  0  0  0  0  0  0  0  0  0  0
   -1.8760   -3.3920    0.2180 C   0  0  0  0  0  0  0  0  0  0  0  0
   -1.9260   -4.8810    0.3890 C   0  0  0  0  0  0  0  0  0  0  0  0
   -0.4570   -2.9040   -0.0430 C   0  0  2  0  0  0  0  0  0  0  0  0
    0.3230   -3.2670    1.1240 N   0  0  0  0  0  0  0  0  0  0  0  0
   -0.4710   -1.4380   -0.2170 C   0  0  0  0  0  0  0  0  0  0  0  0
   -1.0770   -0.8600   -1.1550 O   0  0  0  0  0  0  0  0  0  0  0  0
   -3.5670   -3.7230   -1.0520 H   0  0  0  0  0  0  0  0  0  0  0  0
   -3.1140   -2.0160   -0.8350 H   0  0  0  0  0  0  0  0  0  0  0  0
   -2.1160   -3.1530   -1.9010 H   0  0  0  0  0  0  0  0  0  0  0  0
   -2.2780   -2.8770    1.0970 H   0  0  0  0  0  0  0  0  0  0  0  0
   -1.1780   -5.4000   -0.2570 H   0  0  0  0  0  0  0  0  0  0  0  0
   -2.9300   -5.2860    0.1520 H   0  0  0  0  0  0  0  0  0  0  0  0
   -1.6850   -5.1940    1.4340 H   0  0  0  0  0  0  0  0  0  0  0  0
   -0.0490   -3.4430   -0.9140 H   0  0  0  0  0  0  0  0  0  0  0  0
   -0.2210   -3.0820    2.0130 H   0  0  0  0  0  0  0  0  0  0  0  0
    0.5320   -4.2790    1.1190 H   0  0  0  0  0  0  0  0  0  0  0  0
   -1.5950    1.1450    2.1060 O   0  0  0  0  0  0  0  0  0  0  0  0
   -0.2790    1.5050    1.8360 C   0  0  0  0  0  0  0  0  0  0  0  0
    0.2550    0.8240    0.5990 C   0  0  2  0  0  0  0  0  0  0  0  0
    0.2340   -0.6190    0.7190 N   0  0  0  0  0  0  0  0  0  0  0  0
    1.6570    1.2640    0.4240 C   0  0  0  0  0  0  0  0  0  0  0  0
    2.5620    0.3980    0.4050 O   0  0  0  0  0  0  0  0  0  0  0  0
   -1.9640    1.8660    2.6990 H   0  0  0  0  0  0  0  0  0  0  0  0
   -0.2730    2.5960    1.6320 H   0  0  0  0  0  0  0  0  0  0  0  0
    0.3770    1.3250    2.6930 H   0  0  0  0  0  0  0  0  0  0  0  0
   -0.3320    1.1250   -0.2840 H   0  0  0  0  0  0  0  0  0  0  0  0
    0.7400   -1.1150    1.5040 H   0  0  0  0  0  0  0  0  0  0  0  0
    2.0000    2.6320    0.2780 N   0  0  0  0  0  0  0  0  0  0  0  0
    3.3590    3.1030    0.1050 C   0  0  0  0  0  0  0  0  0  0  0  0
    4.1500    2.6920    1.2860 C   0  0  0  0  0  0  0  0  0  0  0  0
    3.6250    2.0390    2.2340 O   0  0  0  0  0  0  0  0  0  0  0  0
    5.5000    2.9900    1.4310 O   0  0  0  0  0  0  0  0  0  0  0  0
    1.1780    3.3030    0.3040 H   0  0  0  0  0  0  0  0  0  0  0  0
    3.7960    2.5830   -0.7710 H   0  0  0  0  0  0  0  0  0  0  0  0
    3.3420    4.1950   -0.0080 H   0  0  0  0  0  0  0  0  0  0  0  0
  1  9  1  0  0  0  0
  1  2  1  0  0  0  0
  2  3  1  0  0  0  0
  2 11  1  0  0  0  0
  3 14  1  0  0  0  0
  4 15  1  6  0  0  0
  4  2  1  0  0  0  0
  4  5  1  0  0  0  0
  5 16  1  0  0  0  0
  6  4  1  0  0  0  0
  6 21  1  0  0  0  0
  7  6  2  0  0  0  0
  8  1  1  0  0  0  0
 10  1  1  0  0  0  0
 12  3  1  0  0  0  0
 13  3  1  0  0  0  0
 17  5  1  0  0  0  0
 18 24  1  0  0  0  0
 19 18  1  0  0  0  0
 19 26  1  0  0  0  0
 20 27  1  6  0  0  0
 20 21  1  0  0  0  0
 20 19  1  0  0  0  0
 21 28  1  0  0  0  0
 22 20  1  0  0  0  0
 23 22  2  0  0  0  0
 25 19  1  0  0  0  0
 29 34  1  0  0  0  0
 29 22  1  0  0  0  0
 30 29  1  0  0  0  0
 30 31  1  0  0  0  0
 31 33  2  0  0  0  0
 31 32  1  0  0  0  0
 35 30  1  0  0  0  0
 36 30  1  0  0  0  0
M  END
$$$$
