VSI.pdb
 OpenBabel07022419273D

 48 47  0  0  1  0  0  0  0  0999 V2000
    0.9260   -3.1850    2.0240 C   0  0  0  0  0  0  0  0  0  0  0  0
    1.3430   -3.5430    0.6200 C   0  0  0  0  0  0  0  0  0  0  0  0
    1.5350   -5.0430    0.5450 C   0  0  0  0  0  0  0  0  0  0  0  0
    2.6450   -2.9030    0.2160 C   0  0  2  0  0  0  0  0  0  0  0  0
    3.7010   -3.3350    1.1130 N   0  0  0  0  0  0  0  0  0  0  0  0
    2.5500   -1.4200    0.1640 C   0  0  0  0  0  0  0  0  0  0  0  0
    3.3320   -0.7110    0.8490 O   0  0  0  0  0  0  0  0  0  0  0  0
   -0.1610   -2.9250    2.0850 H   0  0  0  0  0  0  0  0  0  0  0  0
    1.5430   -2.3310    2.4280 H   0  0  0  0  0  0  0  0  0  0  0  0
    1.0870   -4.0150    2.7430 H   0  0  0  0  0  0  0  0  0  0  0  0
    0.5590   -3.2860   -0.1280 H   0  0  0  0  0  0  0  0  0  0  0  0
    0.6070   -5.5710    0.2200 H   0  0  0  0  0  0  0  0  0  0  0  0
    2.4040   -5.3120   -0.1040 H   0  0  0  0  0  0  0  0  0  0  0  0
    1.7960   -5.3990    1.5600 H   0  0  0  0  0  0  0  0  0  0  0  0
    2.8970   -3.2830   -0.7930 H   0  0  0  0  0  0  0  0  0  0  0  0
    3.4540   -2.9460    2.0620 H   0  0  0  0  0  0  0  0  0  0  0  0
    4.5990   -2.8530    0.8510 H   0  0  0  0  0  0  0  0  0  0  0  0
    0.7980    0.5720   -3.0230 O   0  0  0  0  0  0  0  0  0  0  0  0
    1.6940    1.1490   -2.1550 C   0  0  0  0  0  0  0  0  0  0  0  0
    1.4500    0.6620   -0.7390 C   0  0  2  0  0  0  0  0  0  0  0  0
    1.5960   -0.7730   -0.6420 N   0  0  0  0  0  0  0  0  0  0  0  0
    0.1070    1.0370   -0.2500 C   0  0  0  0  0  0  0  0  0  0  0  0
   -0.2770    2.2300   -0.2270 O   0  0  0  0  0  0  0  0  0  0  0  0
   -0.1100    0.8860   -2.7850 H   0  0  0  0  0  0  0  0  0  0  0  0
    1.7350    2.2550   -2.2050 H   0  0  0  0  0  0  0  0  0  0  0  0
    2.7420    0.8120   -2.4060 H   0  0  0  0  0  0  0  0  0  0  0  0
    2.1920    1.1870   -0.0920 H   0  0  0  0  0  0  0  0  0  0  0  0
    0.9530   -1.3640   -1.2060 H   0  0  0  0  0  0  0  0  0  0  0  0
   -0.1420    1.1730    2.8970 C   0  0  0  0  0  0  0  0  0  0  0  0
   -1.6210    1.2140    2.9650 C   0  0  0  0  0  0  0  0  0  0  0  0
   -2.3560    1.4870    1.6810 C   0  0  2  0  0  0  0  0  0  0  0  0
   -3.8450    1.4790    2.0280 C   0  0  0  0  0  0  0  0  0  0  0  0
   -2.1340    0.3950    0.7090 C   0  0  2  0  0  0  0  0  0  0  0  0
   -0.8510    0.0980    0.2300 N   0  0  0  0  0  0  0  0  0  0  0  0
   -3.0740    0.5030   -0.4260 C   0  0  0  0  0  0  0  0  0  0  0  0
   -2.6620    0.3450   -1.6270 O   0  0  0  0  0  0  0  0  0  0  0  0
   -4.4290    0.7720   -0.3200 O   0  0  0  0  0  0  0  0  0  0  0  0
    0.2770    2.0630    2.4270 H   0  0  0  0  0  0  0  0  0  0  0  0
    0.2060    1.1060    3.9850 H   0  0  0  0  0  0  0  0  0  0  0  0
    0.2590    0.2130    2.4690 H   0  0  0  0  0  0  0  0  0  0  0  0
   -1.8860    1.9710    3.7590 H   0  0  0  0  0  0  0  0  0  0  0  0
   -1.9660    0.2470    3.4270 H   0  0  0  0  0  0  0  0  0  0  0  0
   -2.1740    2.5080    1.3050 H   0  0  0  0  0  0  0  0  0  0  0  0
   -4.3990    2.2560    1.4510 H   0  0  0  0  0  0  0  0  0  0  0  0
   -3.9030    1.8610    3.0910 H   0  0  0  0  0  0  0  0  0  0  0  0
   -4.2840    0.4830    1.9850 H   0  0  0  0  0  0  0  0  0  0  0  0
   -2.4770   -0.5320    1.2980 H   0  0  0  0  0  0  0  0  0  0  0  0
   -0.5370   -0.8990    0.2070 H   0  0  0  0  0  0  0  0  0  0  0  0
  1  8  1  0  0  0  0
  1  9  1  0  0  0  0
  1 10  1  0  0  0  0
  2  1  1  0  0  0  0
  3  2  1  0  0  0  0
  3 14  1  0  0  0  0
  4 15  1  6  0  0  0
  4  2  1  0  0  0  0
  4  5  1  0  0  0  0
  5 16  1  0  0  0  0
  6  4  1  0  0  0  0
  6  7  2  0  0  0  0
 11  2  1  0  0  0  0
 12  3  1  0  0  0  0
 13  3  1  0  0  0  0
 17  5  1  0  0  0  0
 18 24  1  0  0  0  0
 18 19  1  0  0  0  0
 19 20  1  0  0  0  0
 20 21  1  0  0  0  0
 20 22  1  0  0  0  0
 20 27  1  1  0  0  0
 21  6  1  0  0  0  0
 22 23  2  0  0  0  0
 22 34  1  0  0  0  0
 25 19  1  0  0  0  0
 26 19  1  0  0  0  0
 28 21  1  0  0  0  0
 29 30  1  0  0  0  0
 29 39  1  0  0  0  0
 30 42  1  0  0  0  0
 30 41  1  0  0  0  0
 31 43  1  6  0  0  0
 31 32  1  0  0  0  0
 31 30  1  0  0  0  0
 32 45  1  0  0  0  0
 33 47  1  1  0  0  0
 33 31  1  0  0  0  0
 34 33  1  0  0  0  0
 35 37  1  0  0  0  0
 35 33  1  0  0  0  0
 36 35  2  0  0  0  0
 38 29  1  0  0  0  0
 40 29  1  0  0  0  0
 44 32  1  0  0  0  0
 46 32  1  0  0  0  0
 48 34  1  0  0  0  0
M  END
$$$$
