VSL.pdb
 OpenBabel07022419273D

 48 47  0  0  1  0  0  0  0  0999 V2000
    2.2980   -0.3890    2.0060 C   0  0  0  0  0  0  0  0  0  0  0  0
    2.4650   -1.6670    1.2150 C   0  0  0  0  0  0  0  0  0  0  0  0
    3.5270   -2.4840    1.9480 C   0  0  0  0  0  0  0  0  0  0  0  0
    2.9350   -1.4050   -0.1890 C   0  0  2  0  0  0  0  0  0  0  0  0
    4.2320   -0.7220   -0.2250 N   0  0  0  0  0  0  0  0  0  0  0  0
    1.9560   -0.7610   -1.0640 C   0  0  0  0  0  0  0  0  0  0  0  0
    2.3510    0.2200   -1.7820 O   0  0  0  0  0  0  0  0  0  0  0  0
    1.8710   -0.5780    3.0100 H   0  0  0  0  0  0  0  0  0  0  0  0
    1.6350    0.2900    1.4640 H   0  0  0  0  0  0  0  0  0  0  0  0
    3.2970    0.0810    2.2090 H   0  0  0  0  0  0  0  0  0  0  0  0
    1.5450   -2.2680    1.1680 H   0  0  0  0  0  0  0  0  0  0  0  0
    3.0600   -3.3750    2.4040 H   0  0  0  0  0  0  0  0  0  0  0  0
    4.3110   -2.8300    1.2540 H   0  0  0  0  0  0  0  0  0  0  0  0
    4.0200   -1.9180    2.7530 H   0  0  0  0  0  0  0  0  0  0  0  0
    3.1690   -2.4260   -0.6210 H   0  0  0  0  0  0  0  0  0  0  0  0
    4.0400    0.3040   -0.2150 H   0  0  0  0  0  0  0  0  0  0  0  0
    4.7760   -0.9110    0.6590 H   0  0  0  0  0  0  0  0  0  0  0  0
   -1.8430   -0.7220   -3.8760 O   0  0  0  0  0  0  0  0  0  0  0  0
   -0.9700   -1.4190   -3.0600 C   0  0  0  0  0  0  0  0  0  0  0  0
   -0.3240   -0.4580   -2.0790 C   0  0  2  0  0  0  0  0  0  0  0  0
    0.5930   -1.1180   -1.2010 N   0  0  0  0  0  0  0  0  0  0  0  0
   -1.3390    0.2690   -1.3000 C   0  0  0  0  0  0  0  0  0  0  0  0
   -2.2690    0.9400   -1.8420 O   0  0  0  0  0  0  0  0  0  0  0  0
   -1.3210   -0.2350   -4.5660 H   0  0  0  0  0  0  0  0  0  0  0  0
   -1.4660   -2.2010   -2.4500 H   0  0  0  0  0  0  0  0  0  0  0  0
   -0.1570   -1.8180   -3.6950 H   0  0  0  0  0  0  0  0  0  0  0  0
    0.2840    0.3200   -2.6310 H   0  0  0  0  0  0  0  0  0  0  0  0
    0.2560   -1.9240   -0.6080 H   0  0  0  0  0  0  0  0  0  0  0  0
   -1.6980   -0.4310    3.6870 C   0  0  0  0  0  0  0  0  0  0  0  0
   -2.4840   -1.0710    2.5750 C   0  0  0  0  0  0  0  0  0  0  0  0
   -1.7130   -2.1600    1.9250 C   0  0  0  0  0  0  0  0  0  0  0  0
   -3.0870   -0.0580    1.6790 C   0  0  0  0  0  0  0  0  0  0  0  0
   -2.2090    0.8900    0.9750 C   0  0  2  0  0  0  0  0  0  0  0  0
   -1.2800    0.2220    0.1200 N   0  0  0  0  0  0  0  0  0  0  0  0
   -1.5920    1.9420    1.8110 C   0  0  0  0  0  0  0  0  0  0  0  0
   -0.3590    2.2220    1.7760 O   0  0  0  0  0  0  0  0  0  0  0  0
   -2.3580    2.6870    2.6920 O   0  0  0  0  0  0  0  0  0  0  0  0
   -2.2800    0.3810    4.1610 H   0  0  0  0  0  0  0  0  0  0  0  0
   -1.4830   -1.1530    4.5240 H   0  0  0  0  0  0  0  0  0  0  0  0
   -0.6940   -0.0960    3.3430 H   0  0  0  0  0  0  0  0  0  0  0  0
   -3.3650   -1.5600    3.1020 H   0  0  0  0  0  0  0  0  0  0  0  0
   -2.0530   -3.1360    2.3250 H   0  0  0  0  0  0  0  0  0  0  0  0
   -1.8980   -2.2300    0.8310 H   0  0  0  0  0  0  0  0  0  0  0  0
   -0.6240   -2.1320    2.1300 H   0  0  0  0  0  0  0  0  0  0  0  0
   -3.8200    0.5460    2.2900 H   0  0  0  0  0  0  0  0  0  0  0  0
   -3.7240   -0.5820    0.9150 H   0  0  0  0  0  0  0  0  0  0  0  0
   -2.8970    1.4660    0.2720 H   0  0  0  0  0  0  0  0  0  0  0  0
   -0.5140   -0.3250    0.5550 H   0  0  0  0  0  0  0  0  0  0  0  0
  1 10  1  0  0  0  0
  1  8  1  0  0  0  0
  2  3  1  0  0  0  0
  2  1  1  0  0  0  0
  3 12  1  0  0  0  0
  3 14  1  0  0  0  0
  4 15  1  6  0  0  0
  4  2  1  0  0  0  0
  5 16  1  0  0  0  0
  5  4  1  0  0  0  0
  5 17  1  0  0  0  0
  6  4  1  0  0  0  0
  7  6  2  0  0  0  0
  9  1  1  0  0  0  0
 11  2  1  0  0  0  0
 13  3  1  0  0  0  0
 18 19  1  0  0  0  0
 19 25  1  0  0  0  0
 19 20  1  0  0  0  0
 20 27  1  6  0  0  0
 20 22  1  0  0  0  0
 20 21  1  0  0  0  0
 21  6  1  0  0  0  0
 21 28  1  0  0  0  0
 22 34  1  0  0  0  0
 23 22  2  0  0  0  0
 24 18  1  0  0  0  0
 26 19  1  0  0  0  0
 29 38  1  0  0  0  0
 29 39  1  0  0  0  0
 30 41  1  0  0  0  0
 30 29  1  0  0  0  0
 31 44  1  0  0  0  0
 31 42  1  0  0  0  0
 31 30  1  0  0  0  0
 32 45  1  0  0  0  0
 32 30  1  0  0  0  0
 33 47  1  6  0  0  0
 33 32  1  0  0  0  0
 33 35  1  0  0  0  0
 34 48  1  0  0  0  0
 34 33  1  0  0  0  0
 35 37  1  0  0  0  0
 36 35  2  0  0  0  0
 40 29  1  0  0  0  0
 43 31  1  0  0  0  0
 46 32  1  0  0  0  0
M  END
$$$$
