VSM.pdb
 OpenBabel07022419273D

 46 45  0  0  1  0  0  0  0  0999 V2000
    2.7480   -4.1960   -0.9600 C   0  0  0  0  0  0  0  0  0  0  0  0
    1.8240   -2.9620   -0.8410 C   0  0  0  0  0  0  0  0  0  0  0  0
    1.8280   -2.6090    0.6270 C   0  0  0  0  0  0  0  0  0  0  0  0
    0.4530   -3.4240   -1.3110 C   0  0  2  0  0  0  0  0  0  0  0  0
    0.6240   -3.9030   -2.7100 N   0  0  0  0  0  0  0  0  0  0  0  0
   -0.5670   -2.3860   -1.3670 C   0  0  0  0  0  0  0  0  0  0  0  0
   -0.9910   -1.9920   -2.5110 O   0  0  0  0  0  0  0  0  0  0  0  0
    2.3130   -4.9250   -1.6940 H   0  0  0  0  0  0  0  0  0  0  0  0
    3.7230   -3.8850   -1.3820 H   0  0  0  0  0  0  0  0  0  0  0  0
    2.9290   -4.6530    0.0170 H   0  0  0  0  0  0  0  0  0  0  0  0
    2.2000   -2.1420   -1.4600 H   0  0  0  0  0  0  0  0  0  0  0  0
    2.8230   -2.9480    1.0450 H   0  0  0  0  0  0  0  0  0  0  0  0
    1.7310   -1.5250    0.8000 H   0  0  0  0  0  0  0  0  0  0  0  0
    1.0420   -3.2130    1.1230 H   0  0  0  0  0  0  0  0  0  0  0  0
    0.1980   -4.3190   -0.7290 H   0  0  0  0  0  0  0  0  0  0  0  0
    1.5300   -3.5630   -3.0820 H   0  0  0  0  0  0  0  0  0  0  0  0
   -0.1300   -3.5440   -3.3280 H   0  0  0  0  0  0  0  0  0  0  0  0
   -4.4750   -0.1610   -0.2930 O   0  0  0  0  0  0  0  0  0  0  0  0
   -3.5890   -1.2140   -0.0660 C   0  0  0  0  0  0  0  0  0  0  0  0
   -2.2160   -0.7050   -0.4800 C   0  0  2  0  0  0  0  0  0  0  0  0
   -1.2000   -1.7130   -0.2920 N   0  0  0  0  0  0  0  0  0  0  0  0
   -1.8660    0.5150    0.2800 C   0  0  0  0  0  0  0  0  0  0  0  0
   -2.6100    1.5600    0.2140 O   0  0  0  0  0  0  0  0  0  0  0  0
   -4.3670    0.2300   -1.1970 H   0  0  0  0  0  0  0  0  0  0  0  0
   -3.6300   -1.4420    1.0110 H   0  0  0  0  0  0  0  0  0  0  0  0
   -3.8510   -2.0340   -0.7330 H   0  0  0  0  0  0  0  0  0  0  0  0
   -2.3200   -0.4760   -1.5650 H   0  0  0  0  0  0  0  0  0  0  0  0
   -0.9190   -1.9570    0.6720 H   0  0  0  0  0  0  0  0  0  0  0  0
    2.5610    2.2050    4.9130 C   0  0  0  0  0  0  0  0  0  0  0  0
    1.4070    3.3880    4.2070 S   0  0  0  0  0  0  0  0  0  0  0  0
   -0.2750    2.7990    4.1850 C   0  0  0  0  0  0  0  0  0  0  0  0
   -0.5760    1.6420    3.3060 C   0  0  0  0  0  0  0  0  0  0  0  0
   -0.4180    1.8950    1.8630 C   0  0  2  0  0  0  0  0  0  0  0  0
   -0.7440    0.6480    1.1090 N   0  0  0  0  0  0  0  0  0  0  0  0
    0.7880    2.4940    1.3420 C   0  0  0  0  0  0  0  0  0  0  0  0
    1.4860    1.8060    0.5060 O   0  0  0  0  0  0  0  0  0  0  0  0
    1.3070    3.7340    1.6140 O   0  0  0  0  0  0  0  0  0  0  0  0
    3.0910    2.6940    5.7550 H   0  0  0  0  0  0  0  0  0  0  0  0
    2.0790    1.2780    5.2820 H   0  0  0  0  0  0  0  0  0  0  0  0
    3.3150    1.9700    4.1290 H   0  0  0  0  0  0  0  0  0  0  0  0
   -0.9470    3.6670    3.9420 H   0  0  0  0  0  0  0  0  0  0  0  0
   -0.5440    2.5680    5.2680 H   0  0  0  0  0  0  0  0  0  0  0  0
   -1.6880    1.4300    3.4710 H   0  0  0  0  0  0  0  0  0  0  0  0
   -0.0190    0.7250    3.6550 H   0  0  0  0  0  0  0  0  0  0  0  0
   -1.2690    2.5860    1.5740 H   0  0  0  0  0  0  0  0  0  0  0  0
   -0.0970   -0.1510    1.2230 H   0  0  0  0  0  0  0  0  0  0  0  0
  1  2  1  0  0  0  0
  1 10  1  0  0  0  0
  2  3  1  0  0  0  0
  3 13  1  0  0  0  0
  3 12  1  0  0  0  0
  3 14  1  0  0  0  0
  4  2  1  0  0  0  0
  4 15  1  1  0  0  0
  5  4  1  0  0  0  0
  6  4  1  0  0  0  0
  6 21  1  0  0  0  0
  7  6  2  0  0  0  0
  8  1  1  0  0  0  0
  9  1  1  0  0  0  0
 11  2  1  0  0  0  0
 16  5  1  0  0  0  0
 17  5  1  0  0  0  0
 18 19  1  0  0  0  0
 19 25  1  0  0  0  0
 20 27  1  6  0  0  0
 20 21  1  0  0  0  0
 20 19  1  0  0  0  0
 20 22  1  0  0  0  0
 21 28  1  0  0  0  0
 22 34  1  0  0  0  0
 23 22  2  0  0  0  0
 24 18  1  0  0  0  0
 26 19  1  0  0  0  0
 29 39  1  0  0  0  0
 29 38  1  0  0  0  0
 30 29  1  0  0  0  0
 31 30  1  0  0  0  0
 31 42  1  0  0  0  0
 32 43  1  0  0  0  0
 32 44  1  0  0  0  0
 32 31  1  0  0  0  0
 33 45  1  6  0  0  0
 33 32  1  0  0  0  0
 34 46  1  0  0  0  0
 34 33  1  0  0  0  0
 35 37  1  0  0  0  0
 35 33  1  0  0  0  0
 36 35  2  0  0  0  0
 40 29  1  0  0  0  0
 41 31  1  0  0  0  0
M  END
$$$$
