VSP.pdb
 OpenBabel07022419273D

 43 43  0  0  1  0  0  0  0  0999 V2000
   -0.4210   -5.1110    1.1520 C   0  0  0  0  0  0  0  0  0  0  0  0
   -0.2170   -4.0880    0.0390 C   0  0  0  0  0  0  0  0  0  0  0  0
    0.8480   -4.6390   -0.8750 C   0  0  0  0  0  0  0  0  0  0  0  0
    0.2120   -2.8040    0.7110 C   0  0  2  0  0  0  0  0  0  0  0  0
   -0.8170   -2.3990    1.6060 N   0  0  0  0  0  0  0  0  0  0  0  0
    0.6590   -1.7790   -0.2280 C   0  0  0  0  0  0  0  0  0  0  0  0
    1.5650   -2.0500   -1.0550 O   0  0  0  0  0  0  0  0  0  0  0  0
    0.0200   -6.0910    0.9040 H   0  0  0  0  0  0  0  0  0  0  0  0
   -1.5130   -5.1880    1.4150 H   0  0  0  0  0  0  0  0  0  0  0  0
    0.0680   -4.7770    2.1040 H   0  0  0  0  0  0  0  0  0  0  0  0
   -1.1500   -4.0110   -0.5160 H   0  0  0  0  0  0  0  0  0  0  0  0
    0.5980   -5.7270   -1.0250 H   0  0  0  0  0  0  0  0  0  0  0  0
    0.8460   -4.1900   -1.8730 H   0  0  0  0  0  0  0  0  0  0  0  0
    1.8570   -4.6160   -0.4120 H   0  0  0  0  0  0  0  0  0  0  0  0
    1.1070   -3.0810    1.3430 H   0  0  0  0  0  0  0  0  0  0  0  0
   -1.7200   -2.9090    1.4970 H   0  0  0  0  0  0  0  0  0  0  0  0
   -0.5230   -2.2800    2.5910 H   0  0  0  0  0  0  0  0  0  0  0  0
   -1.5720    1.4820   -1.1200 O   0  0  0  0  0  0  0  0  0  0  0  0
   -0.6430    0.9720   -2.0350 C   0  0  0  0  0  0  0  0  0  0  0  0
    0.5770    0.5450   -1.2060 C   0  0  2  0  0  0  0  0  0  0  0  0
    0.1320   -0.4370   -0.2890 N   0  0  0  0  0  0  0  0  0  0  0  0
    1.0380    1.7640   -0.5200 C   0  0  0  0  0  0  0  0  0  0  0  0
    1.3610    2.7330   -1.3170 O   0  0  0  0  0  0  0  0  0  0  0  0
   -2.4200    1.7210   -1.5620 H   0  0  0  0  0  0  0  0  0  0  0  0
   -1.0320    0.0960   -2.5840 H   0  0  0  0  0  0  0  0  0  0  0  0
   -0.3360    1.7760   -2.7250 H   0  0  0  0  0  0  0  0  0  0  0  0
    1.3420    0.1660   -1.9270 H   0  0  0  0  0  0  0  0  0  0  0  0
   -0.6200   -0.2210    0.3760 H   0  0  0  0  0  0  0  0  0  0  0  0
    1.1690    2.0040    0.8540 N   0  0  0  0  0  0  0  0  0  0  0  0
    1.6170    3.3330    1.3410 C   0  0  0  0  0  0  0  0  0  0  0  0
    1.8100    3.2060    2.8130 C   0  0  0  0  0  0  0  0  0  0  0  0
    2.0320    1.7220    2.9880 C   0  0  0  0  0  0  0  0  0  0  0  0
    0.9630    1.1880    2.0160 C   0  0  1  0  0  0  0  0  0  0  0  0
   -0.3320    1.4670    2.6970 C   0  0  0  0  0  0  0  0  0  0  0  0
   -0.6330    0.8230    3.7230 O   0  0  0  0  0  0  0  0  0  0  0  0
   -1.2190    2.4210    2.2280 O   0  0  0  0  0  0  0  0  0  0  0  0
    0.8240    4.0810    1.1540 H   0  0  0  0  0  0  0  0  0  0  0  0
    2.5580    3.6240    0.8710 H   0  0  0  0  0  0  0  0  0  0  0  0
    0.8800    3.4770    3.3730 H   0  0  0  0  0  0  0  0  0  0  0  0
    2.6730    3.7890    3.2000 H   0  0  0  0  0  0  0  0  0  0  0  0
    1.7940    1.3910    4.0240 H   0  0  0  0  0  0  0  0  0  0  0  0
    3.0010    1.3780    2.6300 H   0  0  0  0  0  0  0  0  0  0  0  0
    1.1400    0.1030    1.8560 H   0  0  0  0  0  0  0  0  0  0  0  0
  1  9  1  0  0  0  0
  1 10  1  0  0  0  0
  2  4  1  0  0  0  0
  2  1  1  0  0  0  0
  3 14  1  0  0  0  0
  3  2  1  0  0  0  0
  4 15  1  1  0  0  0
  4  5  1  0  0  0  0
  5 17  1  0  0  0  0
  6  4  1  0  0  0  0
  7  6  2  0  0  0  0
  8  1  1  0  0  0  0
 11  2  1  0  0  0  0
 12  3  1  0  0  0  0
 13  3  1  0  0  0  0
 16  5  1  0  0  0  0
 19 20  1  0  0  0  0
 19 18  1  0  0  0  0
 20 27  1  6  0  0  0
 20 22  1  0  0  0  0
 20 21  1  0  0  0  0
 21  6  1  0  0  0  0
 21 28  1  0  0  0  0
 22 29  1  0  0  0  0
 23 22  2  0  0  0  0
 24 18  1  0  0  0  0
 25 19  1  0  0  0  0
 26 19  1  0  0  0  0
 29 30  1  0  0  0  0
 29 33  1  0  0  0  0
 30 31  1  0  0  0  0
 31 32  1  0  0  0  0
 31 40  1  0  0  0  0
 31 39  1  0  0  0  0
 32 41  1  0  0  0  0
 33 43  1  6  0  0  0
 33 34  1  0  0  0  0
 33 32  1  0  0  0  0
 34 35  1  0  0  0  0
 36 34  2  0  0  0  0
 37 30  1  0  0  0  0
 38 30  1  0  0  0  0
 42 32  1  0  0  0  0
M  END
$$$$
