VSQ.pdb
 OpenBabel07022419273D

 46 45  0  0  1  0  0  0  0  0999 V2000
   -2.5450   -4.8790    0.1870 C   0  0  0  0  0  0  0  0  0  0  0  0
   -1.0970   -5.1350    0.5110 C   0  0  0  0  0  0  0  0  0  0  0  0
   -1.0080   -5.5390    1.9580 C   0  0  0  0  0  0  0  0  0  0  0  0
   -0.1620   -4.0510    0.1110 C   0  0  2  0  0  0  0  0  0  0  0  0
    1.2190   -4.3470    0.4500 N   0  0  0  0  0  0  0  0  0  0  0  0
   -0.4830   -2.7130    0.6050 C   0  0  0  0  0  0  0  0  0  0  0  0
   -1.6000   -2.2160    0.4340 O   0  0  0  0  0  0  0  0  0  0  0  0
   -3.0750   -5.8560    0.4090 H   0  0  0  0  0  0  0  0  0  0  0  0
   -2.9290   -4.0880    0.8540 H   0  0  0  0  0  0  0  0  0  0  0  0
   -2.6120   -4.6350   -0.8940 H   0  0  0  0  0  0  0  0  0  0  0  0
   -0.8010   -6.0470   -0.0880 H   0  0  0  0  0  0  0  0  0  0  0  0
   -1.6100   -6.4870    2.0520 H   0  0  0  0  0  0  0  0  0  0  0  0
   -1.5190   -4.8230    2.6430 H   0  0  0  0  0  0  0  0  0  0  0  0
    0.0040   -5.8020    2.2980 H   0  0  0  0  0  0  0  0  0  0  0  0
   -0.1720   -4.0060   -1.0200 H   0  0  0  0  0  0  0  0  0  0  0  0
    1.6130   -5.1340   -0.0870 H   0  0  0  0  0  0  0  0  0  0  0  0
    1.2950   -4.4520    1.4770 H   0  0  0  0  0  0  0  0  0  0  0  0
   -0.2050    0.5060    3.9270 O   0  0  0  0  0  0  0  0  0  0  0  0
    0.1080   -0.6630    3.2920 C   0  0  0  0  0  0  0  0  0  0  0  0
    0.1320   -0.5860    1.7900 C   0  0  2  0  0  0  0  0  0  0  0  0
    0.4830   -1.9090    1.3150 N   0  0  0  0  0  0  0  0  0  0  0  0
    1.0070    0.4630    1.2630 C   0  0  0  0  0  0  0  0  0  0  0  0
    1.9780    0.1920    0.5070 O   0  0  0  0  0  0  0  0  0  0  0  0
   -0.5920    0.4070    4.8090 H   0  0  0  0  0  0  0  0  0  0  0  0
   -0.6690   -1.4260    3.5750 H   0  0  0  0  0  0  0  0  0  0  0  0
    1.0730   -1.0660    3.6650 H   0  0  0  0  0  0  0  0  0  0  0  0
   -0.9050   -0.3730    1.4670 H   0  0  0  0  0  0  0  0  0  0  0  0
    1.4160   -2.3520    1.4450 H   0  0  0  0  0  0  0  0  0  0  0  0
   -0.6130    3.5520   -3.3480 N   0  0  0  0  0  0  0  0  0  0  0  0
   -0.1150    4.0340   -2.1110 C   0  0  0  0  0  0  0  0  0  0  0  0
   -0.2270    5.2530   -1.8570 O   0  0  0  0  0  0  0  0  0  0  0  0
    0.5210    3.1300   -1.1440 C   0  0  0  0  0  0  0  0  0  0  0  0
    0.9890    3.8290    0.0930 C   0  0  0  0  0  0  0  0  0  0  0  0
    1.6450    2.8980    1.0840 C   0  0  2  0  0  0  0  0  0  0  0  0
    0.8170    1.8440    1.5690 N   0  0  0  0  0  0  0  0  0  0  0  0
    2.2520    3.6420    2.2100 C   0  0  0  0  0  0  0  0  0  0  0  0
    3.0470    4.6130    2.0590 O   0  0  0  0  0  0  0  0  0  0  0  0
    1.9160    3.2390    3.5120 O   0  0  0  0  0  0  0  0  0  0  0  0
   -1.5370    3.0640   -3.4460 H   0  0  0  0  0  0  0  0  0  0  0  0
    0.0150    3.7150   -4.1890 H   0  0  0  0  0  0  0  0  0  0  0  0
    1.3640    2.5630   -1.6290 H   0  0  0  0  0  0  0  0  0  0  0  0
   -0.2350    2.3330   -0.8980 H   0  0  0  0  0  0  0  0  0  0  0  0
    1.8020    4.5350   -0.2350 H   0  0  0  0  0  0  0  0  0  0  0  0
    0.1890    4.4330    0.5240 H   0  0  0  0  0  0  0  0  0  0  0  0
    2.4950    2.4010    0.5240 H   0  0  0  0  0  0  0  0  0  0  0  0
   -0.0050    2.0480    2.1970 H   0  0  0  0  0  0  0  0  0  0  0  0
  1  8  1  0  0  0  0
  1  2  1  0  0  0  0
  1  9  1  0  0  0  0
  2  3  1  0  0  0  0
  3 12  1  0  0  0  0
  3 14  1  0  0  0  0
  3 13  1  0  0  0  0
  4 15  1  6  0  0  0
  4  5  1  0  0  0  0
  4  2  1  0  0  0  0
  4  6  1  0  0  0  0
  5 17  1  0  0  0  0
  6 21  1  0  0  0  0
  7  6  2  0  0  0  0
 10  1  1  0  0  0  0
 11  2  1  0  0  0  0
 16  5  1  0  0  0  0
 18 24  1  0  0  0  0
 19 25  1  0  0  0  0
 19 26  1  0  0  0  0
 19 18  1  0  0  0  0
 20 27  1  6  0  0  0
 20 19  1  0  0  0  0
 21 28  1  0  0  0  0
 21 20  1  0  0  0  0
 22 35  1  0  0  0  0
 22 20  1  0  0  0  0
 23 22  2  0  0  0  0
 29 30  1  0  0  0  0
 30 31  2  0  0  0  0
 30 32  1  0  0  0  0
 32 42  1  0  0  0  0
 32 33  1  0  0  0  0
 33 44  1  0  0  0  0
 33 34  1  0  0  0  0
 34 45  1  6  0  0  0
 34 35  1  0  0  0  0
 34 36  1  0  0  0  0
 35 46  1  0  0  0  0
 36 38  1  0  0  0  0
 37 36  2  0  0  0  0
 39 29  1  0  0  0  0
 40 29  1  0  0  0  0
 41 32  1  0  0  0  0
 43 33  1  0  0  0  0
M  END
$$$$
