VST.pdb
 OpenBabel07022419273D

 43 42  0  0  1  0  0  0  0  0999 V2000
    0.1700   -6.2550   -0.2960 C   0  0  0  0  0  0  0  0  0  0  0  0
    0.4760   -4.8500   -0.7690 C   0  0  0  0  0  0  0  0  0  0  0  0
    1.9530   -4.8330   -1.1480 C   0  0  0  0  0  0  0  0  0  0  0  0
    0.2630   -3.8850    0.3740 C   0  0  2  0  0  0  0  0  0  0  0  0
   -1.1070   -3.9450    0.8340 N   0  0  0  0  0  0  0  0  0  0  0  0
    0.6570   -2.4980    0.0040 C   0  0  0  0  0  0  0  0  0  0  0  0
    1.8120   -2.2320   -0.4210 O   0  0  0  0  0  0  0  0  0  0  0  0
    1.0290   -6.6100    0.3320 H   0  0  0  0  0  0  0  0  0  0  0  0
    0.0880   -6.9680   -1.1400 H   0  0  0  0  0  0  0  0  0  0  0  0
   -0.7310   -6.2960    0.3410 H   0  0  0  0  0  0  0  0  0  0  0  0
   -0.1230   -4.5930   -1.6540 H   0  0  0  0  0  0  0  0  0  0  0  0
    2.2070   -5.8230   -1.5770 H   0  0  0  0  0  0  0  0  0  0  0  0
    2.1960   -4.0340   -1.8620 H   0  0  0  0  0  0  0  0  0  0  0  0
    2.5190   -4.7500   -0.1970 H   0  0  0  0  0  0  0  0  0  0  0  0
    0.9090   -4.1880    1.2220 H   0  0  0  0  0  0  0  0  0  0  0  0
   -1.2170   -3.2450    1.6070 H   0  0  0  0  0  0  0  0  0  0  0  0
   -1.7300   -3.5920    0.0480 H   0  0  0  0  0  0  0  0  0  0  0  0
   -0.3630    1.7780   -1.7270 O   0  0  0  0  0  0  0  0  0  0  0  0
   -0.7290    0.4830   -1.3800 C   0  0  0  0  0  0  0  0  0  0  0  0
    0.1430   -0.0310   -0.2560 C   0  0  2  0  0  0  0  0  0  0  0  0
   -0.2390   -1.3980    0.1060 N   0  0  0  0  0  0  0  0  0  0  0  0
    0.0470    0.7960    0.9670 C   0  0  0  0  0  0  0  0  0  0  0  0
   -0.3400    0.2600    2.0360 O   0  0  0  0  0  0  0  0  0  0  0  0
    0.2370    1.7950   -2.5070 H   0  0  0  0  0  0  0  0  0  0  0  0
   -1.8050    0.4470   -1.1300 H   0  0  0  0  0  0  0  0  0  0  0  0
   -0.5710   -0.1430   -2.2810 H   0  0  0  0  0  0  0  0  0  0  0  0
    1.1830    0.0210   -0.6060 H   0  0  0  0  0  0  0  0  0  0  0  0
   -1.2090   -1.5610    0.4530 H   0  0  0  0  0  0  0  0  0  0  0  0
    1.3910    4.1890    4.0150 C   0  0  0  0  0  0  0  0  0  0  0  0
    1.5820    3.4920    2.6840 C   0  0  1  0  0  0  0  0  0  0  0  0
    2.4370    2.4170    2.8910 O   0  0  0  0  0  0  0  0  0  0  0  0
    0.2530    2.9500    2.2590 C   0  0  2  0  0  0  0  0  0  0  0  0
    0.3660    2.1740    1.0190 N   0  0  0  0  0  0  0  0  0  0  0  0
   -0.7750    4.0070    2.0760 C   0  0  0  0  0  0  0  0  0  0  0  0
   -1.0550    4.8070    3.0020 O   0  0  0  0  0  0  0  0  0  0  0  0
   -1.4520    4.1380    0.8760 O   0  0  0  0  0  0  0  0  0  0  0  0
    2.2680    4.0770    4.6770 H   0  0  0  0  0  0  0  0  0  0  0  0
    1.1250    5.2500    3.8460 H   0  0  0  0  0  0  0  0  0  0  0  0
    0.5080    3.7480    4.5590 H   0  0  0  0  0  0  0  0  0  0  0  0
    1.9940    4.1890    1.9270 H   0  0  0  0  0  0  0  0  0  0  0  0
    2.3170    2.1100    3.8300 H   0  0  0  0  0  0  0  0  0  0  0  0
   -0.1050    2.2540    3.0460 H   0  0  0  0  0  0  0  0  0  0  0  0
    0.6890    2.6300    0.1490 H   0  0  0  0  0  0  0  0  0  0  0  0
  1  8  1  0  0  0  0
  1 10  1  0  0  0  0
  2  1  1  0  0  0  0
  2  4  1  0  0  0  0
  3  2  1  0  0  0  0
  3 14  1  0  0  0  0
  4  5  1  0  0  0  0
  4 15  1  1  0  0  0
  5 16  1  0  0  0  0
  6 21  1  0  0  0  0
  6  4  1  0  0  0  0
  7  6  2  0  0  0  0
  9  1  1  0  0  0  0
 11  2  1  0  0  0  0
 12  3  1  0  0  0  0
 13  3  1  0  0  0  0
 17  5  1  0  0  0  0
 18 19  1  0  0  0  0
 19 25  1  0  0  0  0
 19 20  1  0  0  0  0
 20 27  1  6  0  0  0
 20 21  1  0  0  0  0
 20 22  1  0  0  0  0
 21 28  1  0  0  0  0
 22 33  1  0  0  0  0
 22 23  2  0  0  0  0
 24 18  1  0  0  0  0
 26 19  1  0  0  0  0
 29 39  1  0  0  0  0
 29 37  1  0  0  0  0
 30 40  1  6  0  0  0
 30 31  1  0  0  0  0
 30 29  1  0  0  0  0
 31 41  1  0  0  0  0
 32 30  1  0  0  0  0
 32 42  1  1  0  0  0
 33 32  1  0  0  0  0
 34 32  1  0  0  0  0
 34 35  1  0  0  0  0
 36 34  2  0  0  0  0
 38 29  1  0  0  0  0
 43 33  1  0  0  0  0
M  END
$$$$
