VSV.pdb
 OpenBabel07022419273D

 45 44  0  0  1  0  0  0  0  0999 V2000
   -2.3250   -6.0800   -0.6110 C   0  0  0  0  0  0  0  0  0  0  0  0
   -1.2780   -4.9920   -0.7190 C   0  0  0  0  0  0  0  0  0  0  0  0
   -1.3990   -4.3280   -2.0670 C   0  0  0  0  0  0  0  0  0  0  0  0
   -1.4130   -4.0120    0.4240 C   0  0  2  0  0  0  0  0  0  0  0  0
   -2.6870   -3.3670    0.4570 N   0  0  0  0  0  0  0  0  0  0  0  0
   -0.3330   -2.9960    0.3130 C   0  0  0  0  0  0  0  0  0  0  0  0
    0.8860   -3.3080    0.2650 O   0  0  0  0  0  0  0  0  0  0  0  0
   -2.8700   -5.9400    0.3340 H   0  0  0  0  0  0  0  0  0  0  0  0
   -3.0620   -5.9770   -1.4380 H   0  0  0  0  0  0  0  0  0  0  0  0
   -1.8780   -7.0990   -0.5790 H   0  0  0  0  0  0  0  0  0  0  0  0
   -0.2930   -5.4990   -0.6610 H   0  0  0  0  0  0  0  0  0  0  0  0
   -1.8000   -3.2930   -2.0080 H   0  0  0  0  0  0  0  0  0  0  0  0
   -2.0670   -4.9200   -2.7190 H   0  0  0  0  0  0  0  0  0  0  0  0
   -0.4010   -4.2680   -2.5730 H   0  0  0  0  0  0  0  0  0  0  0  0
   -1.3100   -4.6070    1.3600 H   0  0  0  0  0  0  0  0  0  0  0  0
   -2.8900   -2.7740   -0.3640 H   0  0  0  0  0  0  0  0  0  0  0  0
   -2.8290   -2.9040    1.3710 H   0  0  0  0  0  0  0  0  0  0  0  0
    0.2930   -0.8200   -2.1990 O   0  0  0  0  0  0  0  0  0  0  0  0
    0.2240    0.1350   -1.1740 C   0  0  0  0  0  0  0  0  0  0  0  0
    0.4460   -0.5970    0.1480 C   0  0  2  0  0  0  0  0  0  0  0  0
   -0.6230   -1.5930    0.2560 N   0  0  0  0  0  0  0  0  0  0  0  0
    0.3300    0.3820    1.2630 C   0  0  0  0  0  0  0  0  0  0  0  0
   -0.5920    0.2540    2.0980 O   0  0  0  0  0  0  0  0  0  0  0  0
    0.5950   -0.3960   -3.0500 H   0  0  0  0  0  0  0  0  0  0  0  0
    0.9330    0.9540   -1.3010 H   0  0  0  0  0  0  0  0  0  0  0  0
   -0.8310    0.4820   -1.1570 H   0  0  0  0  0  0  0  0  0  0  0  0
    1.4280   -1.0680    0.1200 H   0  0  0  0  0  0  0  0  0  0  0  0
   -1.6270   -1.3150    0.2950 H   0  0  0  0  0  0  0  0  0  0  0  0
    2.1270    3.6150    4.3680 C   0  0  0  0  0  0  0  0  0  0  0  0
    2.3840    2.5510    3.3150 C   0  0  0  0  0  0  0  0  0  0  0  0
    3.5820    3.0080    2.5150 C   0  0  0  0  0  0  0  0  0  0  0  0
    1.1450    2.4320    2.4910 C   0  0  2  0  0  0  0  0  0  0  0  0
    1.2110    1.4660    1.4400 N   0  0  0  0  0  0  0  0  0  0  0  0
    0.8710    3.7730    1.8640 C   0  0  0  0  0  0  0  0  0  0  0  0
    0.7600    4.8190    2.5570 O   0  0  0  0  0  0  0  0  0  0  0  0
    0.7280    3.9140    0.4890 O   0  0  0  0  0  0  0  0  0  0  0  0
    2.6830    3.3540    5.3160 H   0  0  0  0  0  0  0  0  0  0  0  0
    1.0360    3.6710    4.5750 H   0  0  0  0  0  0  0  0  0  0  0  0
    2.5540    4.5860    4.0380 H   0  0  0  0  0  0  0  0  0  0  0  0
    2.5840    1.6170    3.8800 H   0  0  0  0  0  0  0  0  0  0  0  0
    4.4730    2.4230    2.8310 H   0  0  0  0  0  0  0  0  0  0  0  0
    3.4010    2.9480    1.4150 H   0  0  0  0  0  0  0  0  0  0  0  0
    3.8390    4.0770    2.7100 H   0  0  0  0  0  0  0  0  0  0  0  0
    0.2970    2.2390    3.1820 H   0  0  0  0  0  0  0  0  0  0  0  0
    1.9820    1.5660    0.7360 H   0  0  0  0  0  0  0  0  0  0  0  0
  1 10  1  0  0  0  0
  1  8  1  0  0  0  0
  2 11  1  0  0  0  0
  2  1  1  0  0  0  0
  2  4  1  0  0  0  0
  3 12  1  0  0  0  0
  3  2  1  0  0  0  0
  4  5  1  0  0  0  0
  4 15  1  1  0  0  0
  5 17  1  0  0  0  0
  6  4  1  0  0  0  0
  7  6  2  0  0  0  0
  9  1  1  0  0  0  0
 13  3  1  0  0  0  0
 14  3  1  0  0  0  0
 16  5  1  0  0  0  0
 18 19  1  0  0  0  0
 19 26  1  0  0  0  0
 19 20  1  0  0  0  0
 20 27  1  1  0  0  0
 20 21  1  0  0  0  0
 20 22  1  0  0  0  0
 21 28  1  0  0  0  0
 21  6  1  0  0  0  0
 22 33  1  0  0  0  0
 22 23  2  0  0  0  0
 24 18  1  0  0  0  0
 25 19  1  0  0  0  0
 29 38  1  0  0  0  0
 29 37  1  0  0  0  0
 30 40  1  0  0  0  0
 30 29  1  0  0  0  0
 31 43  1  0  0  0  0
 31 41  1  0  0  0  0
 31 30  1  0  0  0  0
 32 44  1  1  0  0  0
 32 30  1  0  0  0  0
 33 32  1  0  0  0  0
 34 32  1  0  0  0  0
 34 35  1  0  0  0  0
 36 34  2  0  0  0  0
 39 29  1  0  0  0  0
 42 31  1  0  0  0  0
 45 33  1  0  0  0  0
M  END
$$$$
