VSY.pdb
 OpenBabel07022419273D

 50 50  0  0  1  0  0  0  0  0999 V2000
    6.1980   -3.3410    0.1890 C   0  0  0  0  0  0  0  0  0  0  0  0
    4.8800   -2.8290    0.7350 C   0  0  0  0  0  0  0  0  0  0  0  0
    4.3990   -3.7460    1.8190 C   0  0  0  0  0  0  0  0  0  0  0  0
    3.8400   -2.7260   -0.3840 C   0  0  2  0  0  0  0  0  0  0  0  0
    4.3210   -1.8060   -1.4170 N   0  0  0  0  0  0  0  0  0  0  0  0
    2.6030   -2.1900    0.2380 C   0  0  0  0  0  0  0  0  0  0  0  0
    2.0510   -2.8870    1.1220 O   0  0  0  0  0  0  0  0  0  0  0  0
    6.0680   -3.9420   -0.7240 H   0  0  0  0  0  0  0  0  0  0  0  0
    6.9210   -2.5140    0.0350 H   0  0  0  0  0  0  0  0  0  0  0  0
    6.6460   -4.0000    0.9610 H   0  0  0  0  0  0  0  0  0  0  0  0
    5.0700   -1.8360    1.1840 H   0  0  0  0  0  0  0  0  0  0  0  0
    5.2250   -4.3380    2.2720 H   0  0  0  0  0  0  0  0  0  0  0  0
    3.7130   -4.4870    1.3720 H   0  0  0  0  0  0  0  0  0  0  0  0
    3.8500   -3.1500    2.5650 H   0  0  0  0  0  0  0  0  0  0  0  0
    3.6960   -3.7050   -0.8770 H   0  0  0  0  0  0  0  0  0  0  0  0
    4.6800   -0.9240   -1.0180 H   0  0  0  0  0  0  0  0  0  0  0  0
    5.0320   -2.3260   -1.9640 H   0  0  0  0  0  0  0  0  0  0  0  0
    2.1700    0.5440    2.2220 O   0  0  0  0  0  0  0  0  0  0  0  0
    1.2200    0.8680    1.2360 C   0  0  0  0  0  0  0  0  0  0  0  0
    0.8220   -0.4070    0.4810 C   0  0  2  0  0  0  0  0  0  0  0  0
    2.0310   -0.9390   -0.1220 N   0  0  0  0  0  0  0  0  0  0  0  0
   -0.2100   -0.1090   -0.5210 C   0  0  0  0  0  0  0  0  0  0  0  0
   -0.0550   -0.2980   -1.7670 O   0  0  0  0  0  0  0  0  0  0  0  0
    2.4680    1.3790    2.6600 H   0  0  0  0  0  0  0  0  0  0  0  0
    0.3540    1.3940    1.6460 H   0  0  0  0  0  0  0  0  0  0  0  0
    1.7380    1.5760    0.5500 H   0  0  0  0  0  0  0  0  0  0  0  0
    0.4090   -1.0940    1.2470 H   0  0  0  0  0  0  0  0  0  0  0  0
    2.5280   -0.3970   -0.8610 H   0  0  0  0  0  0  0  0  0  0  0  0
   -5.6710    0.8430    4.5260 O   0  0  0  0  0  0  0  0  0  0  0  0
   -5.1970    0.6120    3.2330 C   0  0  0  0  0  0  0  0  0  0  0  0
   -5.6530    1.3160    2.1630 C   0  0  0  0  0  0  0  0  0  0  0  0
   -5.1780    1.0790    0.8960 C   0  0  0  0  0  0  0  0  0  0  0  0
   -4.2100    0.1100    0.6450 C   0  0  0  0  0  0  0  0  0  0  0  0
   -3.6940   -0.1490   -0.7250 C   0  0  0  0  0  0  0  0  0  0  0  0
   -2.4860    0.7230   -1.0240 C   0  0  2  0  0  0  0  0  0  0  0  0
   -1.4500    0.4200   -0.0570 N   0  0  0  0  0  0  0  0  0  0  0  0
   -2.8260    2.1580   -0.9860 C   0  0  0  0  0  0  0  0  0  0  0  0
   -2.2270    2.9030   -0.1830 O   0  0  0  0  0  0  0  0  0  0  0  0
   -3.7510   -0.6020    1.7340 C   0  0  0  0  0  0  0  0  0  0  0  0
   -4.2280   -0.3620    2.9990 C   0  0  0  0  0  0  0  0  0  0  0  0
   -3.7810    2.7410   -1.7970 O   0  0  0  0  0  0  0  0  0  0  0  0
   -5.2030    0.4970    5.3390 H   0  0  0  0  0  0  0  0  0  0  0  0
   -6.4030    2.0760    2.3140 H   0  0  0  0  0  0  0  0  0  0  0  0
   -5.5770    1.6670    0.0920 H   0  0  0  0  0  0  0  0  0  0  0  0
   -3.3990   -1.2180   -0.7510 H   0  0  0  0  0  0  0  0  0  0  0  0
   -4.4750   -0.0260   -1.5000 H   0  0  0  0  0  0  0  0  0  0  0  0
   -2.1590    0.4910   -2.0570 H   0  0  0  0  0  0  0  0  0  0  0  0
   -1.6430    0.5990    0.9520 H   0  0  0  0  0  0  0  0  0  0  0  0
   -3.0010   -1.3550    1.5520 H   0  0  0  0  0  0  0  0  0  0  0  0
   -3.8720   -0.9160    3.8550 H   0  0  0  0  0  0  0  0  0  0  0  0
  1  2  1  0  0  0  0
  1 10  1  0  0  0  0
  2 11  1  0  0  0  0
  2  3  1  0  0  0  0
  3 12  1  0  0  0  0
  3 14  1  0  0  0  0
  4 15  1  6  0  0  0
  4  6  1  0  0  0  0
  4  2  1  0  0  0  0
  5 16  1  0  0  0  0
  5  4  1  0  0  0  0
  6  7  2  0  0  0  0
  8  1  1  0  0  0  0
  9  1  1  0  0  0  0
 13  3  1  0  0  0  0
 17  5  1  0  0  0  0
 18 24  1  0  0  0  0
 19 25  1  0  0  0  0
 19 18  1  0  0  0  0
 20 19  1  0  0  0  0
 20 27  1  1  0  0  0
 21  6  1  0  0  0  0
 21 20  1  0  0  0  0
 22 36  1  0  0  0  0
 22 20  1  0  0  0  0
 23 22  2  0  0  0  0
 26 19  1  0  0  0  0
 28 21  1  0  0  0  0
 29 42  1  0  0  0  0
 30 29  1  0  0  0  0
 31 43  1  0  0  0  0
 31 30  2  0  0  0  0
 32 31  1  0  0  0  0
 33 32  2  0  0  0  0
 33 39  1  0  0  0  0
 34 33  1  0  0  0  0
 35 47  1  6  0  0  0
 35 37  1  0  0  0  0
 35 34  1  0  0  0  0
 35 36  1  0  0  0  0
 36 48  1  0  0  0  0
 37 38  1  0  0  0  0
 39 40  2  0  0  0  0
 40 30  1  0  0  0  0
 40 50  1  0  0  0  0
 41 37  2  0  0  0  0
 44 32  1  0  0  0  0
 45 34  1  0  0  0  0
 46 34  1  0  0  0  0
 49 39  1  0  0  0  0
M  END
$$$$
