VTD.pdb
 OpenBabel07022419273D

 45 44  0  0  1  0  0  0  0  0999 V2000
    1.0570   -5.0730   -0.6410 C   0  0  0  0  0  0  0  0  0  0  0  0
    0.9760   -3.6800   -0.0130 C   0  0  0  0  0  0  0  0  0  0  0  0
    2.3890   -3.2530    0.3900 C   0  0  0  0  0  0  0  0  0  0  0  0
    0.1120   -3.6720    1.1860 C   0  0  2  0  0  0  0  0  0  0  0  0
   -1.2530   -4.1340    0.9690 N   0  0  0  0  0  0  0  0  0  0  0  0
   -0.0230   -2.3830    1.9000 C   0  0  0  0  0  0  0  0  0  0  0  0
   -0.6970   -2.3250    2.9930 O   0  0  0  0  0  0  0  0  0  0  0  0
    2.1100   -5.2190   -0.9430 H   0  0  0  0  0  0  0  0  0  0  0  0
    0.6780   -5.8640    0.0010 H   0  0  0  0  0  0  0  0  0  0  0  0
    0.4490   -5.0950   -1.5940 H   0  0  0  0  0  0  0  0  0  0  0  0
    0.6110   -2.9900   -0.7690 H   0  0  0  0  0  0  0  0  0  0  0  0
    2.8070   -2.4860   -0.2820 H   0  0  0  0  0  0  0  0  0  0  0  0
    2.3910   -2.8660    1.4230 H   0  0  0  0  0  0  0  0  0  0  0  0
    3.0440   -4.1580    0.2990 H   0  0  0  0  0  0  0  0  0  0  0  0
    0.5320   -4.3950    1.9520 H   0  0  0  0  0  0  0  0  0  0  0  0
   -1.8080   -3.5510    0.3440 H   0  0  0  0  0  0  0  0  0  0  0  0
   -1.3040   -5.1570    0.8250 H   0  0  0  0  0  0  0  0  0  0  0  0
    1.8240    1.7360    3.4120 C   0  0  0  0  0  0  0  0  0  0  0  0
    1.8130    0.4900    2.5870 C   0  0  1  0  0  0  0  0  0  0  0  0
    2.3310   -0.5510    3.3630 O   0  0  0  0  0  0  0  0  0  0  0  0
    0.3950    0.0740    2.1950 C   0  0  2  0  0  0  0  0  0  0  0  0
    0.5550   -1.1870    1.4360 N   0  0  0  0  0  0  0  0  0  0  0  0
   -0.2220    1.1300    1.3320 C   0  0  0  0  0  0  0  0  0  0  0  0
   -0.4180    2.2280    1.8860 O   0  0  0  0  0  0  0  0  0  0  0  0
    1.0690    1.6110    4.2150 H   0  0  0  0  0  0  0  0  0  0  0  0
    1.6870    2.6630    2.8150 H   0  0  0  0  0  0  0  0  0  0  0  0
    2.8140    1.8230    3.9060 H   0  0  0  0  0  0  0  0  0  0  0  0
    2.4310    0.5680    1.6670 H   0  0  0  0  0  0  0  0  0  0  0  0
    2.2840   -0.3010    4.3360 H   0  0  0  0  0  0  0  0  0  0  0  0
   -0.2130   -0.0970    3.0900 H   0  0  0  0  0  0  0  0  0  0  0  0
    1.0800   -1.1910    0.5430 H   0  0  0  0  0  0  0  0  0  0  0  0
   -0.5560    0.9110   -0.0000 N   0  0  0  0  0  0  0  0  0  0  0  0
   -1.1590    1.7540   -0.9690 C   0  0  1  0  0  0  0  0  0  0  0  0
   -1.5290    3.1590   -0.4590 C   0  0  0  0  0  0  0  0  0  0  0  0
   -2.5700    2.9940    0.5750 C   0  0  0  0  0  0  0  0  0  0  0  0
   -3.1070    1.8710    0.7650 O   0  0  0  0  0  0  0  0  0  0  0  0
   -0.5470    1.8090   -2.2860 C   0  0  0  0  0  0  0  0  0  0  0  0
   -1.0380    2.5220   -3.1860 O   0  0  0  0  0  0  0  0  0  0  0  0
   -3.0000    4.0590    1.3770 O   0  0  0  0  0  0  0  0  0  0  0  0
    0.5910    1.0780   -2.5780 O   0  0  0  0  0  0  0  0  0  0  0  0
   -0.3220   -0.0760   -0.3670 H   0  0  0  0  0  0  0  0  0  0  0  0
   -2.2520    1.3490   -1.1280 H   0  0  0  0  0  0  0  0  0  0  0  0
   -0.6230    3.6800   -0.0820 H   0  0  0  0  0  0  0  0  0  0  0  0
   -1.9810    3.6870   -1.3190 H   0  0  0  0  0  0  0  0  0  0  0  0
   -3.8580    3.9930    1.9020 H   0  0  0  0  0  0  0  0  0  0  0  0
  1  2  1  0  0  0  0
  1  9  1  0  0  0  0
  2  3  1  0  0  0  0
  2  4  1  0  0  0  0
  3 13  1  0  0  0  0
  4  6  1  0  0  0  0
  4 15  1  1  0  0  0
  5  4  1  0  0  0  0
  6  7  2  0  0  0  0
  8  1  1  0  0  0  0
 10  1  1  0  0  0  0
 11  2  1  0  0  0  0
 12  3  1  0  0  0  0
 14  3  1  0  0  0  0
 16  5  1  0  0  0  0
 17  5  1  0  0  0  0
 18 27  1  0  0  0  0
 18 25  1  0  0  0  0
 19 28  1  6  0  0  0
 19 20  1  0  0  0  0
 19 18  1  0  0  0  0
 20 29  1  0  0  0  0
 21 19  1  0  0  0  0
 21 30  1  1  0  0  0
 22  6  1  0  0  0  0
 22 21  1  0  0  0  0
 23 24  2  0  0  0  0
 23 21  1  0  0  0  0
 26 18  1  0  0  0  0
 31 22  1  0  0  0  0
 32 23  1  0  0  0  0
 33 42  1  6  0  0  0
 33 34  1  0  0  0  0
 33 32  1  0  0  0  0
 34 43  1  0  0  0  0
 34 35  1  0  0  0  0
 35 36  2  0  0  0  0
 35 39  1  0  0  0  0
 37 33  1  0  0  0  0
 38 37  2  0  0  0  0
 39 45  1  0  0  0  0
 40 37  1  0  0  0  0
 41 32  1  0  0  0  0
 44 34  1  0  0  0  0
M  END
$$$$
