VTE.pdb
 OpenBabel07022419273D

 48 47  0  0  1  0  0  0  0  0999 V2000
   -0.2050   -5.0970   -0.3060 C   0  0  0  0  0  0  0  0  0  0  0  0
    0.6740   -3.9990    0.3230 C   0  0  0  0  0  0  0  0  0  0  0  0
    0.8140   -4.3660    1.7820 C   0  0  0  0  0  0  0  0  0  0  0  0
   -0.0500   -2.7230    0.0730 C   0  0  2  0  0  0  0  0  0  0  0  0
   -0.1810   -2.5870   -1.3890 N   0  0  0  0  0  0  0  0  0  0  0  0
    0.5710   -1.5100    0.6470 C   0  0  0  0  0  0  0  0  0  0  0  0
    1.0350   -0.6800   -0.1940 O   0  0  0  0  0  0  0  0  0  0  0  0
    0.0890   -6.0720    0.1170 H   0  0  0  0  0  0  0  0  0  0  0  0
   -1.2660   -4.8430   -0.1640 H   0  0  0  0  0  0  0  0  0  0  0  0
    0.0450   -5.0940   -1.4050 H   0  0  0  0  0  0  0  0  0  0  0  0
    1.6450   -4.0820   -0.1790 H   0  0  0  0  0  0  0  0  0  0  0  0
    1.6440   -3.8000    2.2320 H   0  0  0  0  0  0  0  0  0  0  0  0
   -0.1360   -4.2160    2.3310 H   0  0  0  0  0  0  0  0  0  0  0  0
    1.1010   -5.4640    1.8250 H   0  0  0  0  0  0  0  0  0  0  0  0
   -1.0720   -2.8020    0.4810 H   0  0  0  0  0  0  0  0  0  0  0  0
    0.3750   -1.7420   -1.7180 H   0  0  0  0  0  0  0  0  0  0  0  0
   -1.1880   -2.4430   -1.6580 H   0  0  0  0  0  0  0  0  0  0  0  0
    3.3710   -1.2560    3.1020 C   0  0  0  0  0  0  0  0  0  0  0  0
    2.8000   -0.0170    2.4180 C   0  0  1  0  0  0  0  0  0  0  0  0
    3.1510   -0.0690    1.0870 O   0  0  0  0  0  0  0  0  0  0  0  0
    1.2980   -0.0190    2.5610 C   0  0  2  0  0  0  0  0  0  0  0  0
    0.6910   -1.1990    2.0070 N   0  0  0  0  0  0  0  0  0  0  0  0
    0.6590    1.2490    2.1470 C   0  0  0  0  0  0  0  0  0  0  0  0
    1.2080    2.3350    2.5000 O   0  0  0  0  0  0  0  0  0  0  0  0
    4.4500   -1.0960    3.3630 H   0  0  0  0  0  0  0  0  0  0  0  0
    2.7570   -1.4900    3.9930 H   0  0  0  0  0  0  0  0  0  0  0  0
    3.3640   -2.1360    2.4260 H   0  0  0  0  0  0  0  0  0  0  0  0
    3.2100    0.8850    2.9230 H   0  0  0  0  0  0  0  0  0  0  0  0
    3.9060    0.5350    0.8620 H   0  0  0  0  0  0  0  0  0  0  0  0
    1.1560   -0.1370    3.7030 H   0  0  0  0  0  0  0  0  0  0  0  0
    0.2830   -1.9120    2.6670 H   0  0  0  0  0  0  0  0  0  0  0  0
   -0.5110    1.3350    1.3960 N   0  0  0  0  0  0  0  0  0  0  0  0
   -1.1310    2.5970    0.9890 C   0  0  1  0  0  0  0  0  0  0  0  0
   -1.2360    2.6750   -0.5190 C   0  0  0  0  0  0  0  0  0  0  0  0
   -2.0790    1.5330   -1.0530 C   0  0  0  0  0  0  0  0  0  0  0  0
   -2.1430    1.6660   -2.5390 C   0  0  0  0  0  0  0  0  0  0  0  0
   -1.5600    2.6040   -3.1450 O   0  0  0  0  0  0  0  0  0  0  0  0
   -2.5140    2.5810    1.5440 C   0  0  0  0  0  0  0  0  0  0  0  0
   -3.2760    3.5600    1.3400 O   0  0  0  0  0  0  0  0  0  0  0  0
   -2.8530    0.7520   -3.3070 O   0  0  0  0  0  0  0  0  0  0  0  0
   -3.0200    1.5280    2.2890 O   0  0  0  0  0  0  0  0  0  0  0  0
   -1.0070    0.4750    1.0970 H   0  0  0  0  0  0  0  0  0  0  0  0
   -0.5470    3.4470    1.3600 H   0  0  0  0  0  0  0  0  0  0  0  0
   -0.2730    2.7610   -1.0230 H   0  0  0  0  0  0  0  0  0  0  0  0
   -1.8040    3.6100   -0.7450 H   0  0  0  0  0  0  0  0  0  0  0  0
   -3.1050    1.5970   -0.6500 H   0  0  0  0  0  0  0  0  0  0  0  0
   -1.6380    0.5410   -0.8430 H   0  0  0  0  0  0  0  0  0  0  0  0
   -3.0100    0.9160   -4.2910 H   0  0  0  0  0  0  0  0  0  0  0  0
  1  9  1  0  0  0  0
  1  8  1  0  0  0  0
  1  2  1  0  0  0  0
  2  3  1  0  0  0  0
  3 14  1  0  0  0  0
  3 12  1  0  0  0  0
  3 13  1  0  0  0  0
  4  2  1  0  0  0  0
  4 15  1  1  0  0  0
  4  6  1  0  0  0  0
  5  4  1  0  0  0  0
  6 22  1  0  0  0  0
  7  6  2  0  0  0  0
 10  1  1  0  0  0  0
 11  2  1  0  0  0  0
 16  5  1  0  0  0  0
 17  5  1  0  0  0  0
 18 25  1  0  0  0  0
 18 26  1  0  0  0  0
 19 21  1  0  0  0  0
 19 28  1  1  0  0  0
 19 18  1  0  0  0  0
 20 19  1  0  0  0  0
 21 30  1  1  0  0  0
 22 21  1  0  0  0  0
 22 31  1  0  0  0  0
 23 24  2  0  0  0  0
 23 21  1  0  0  0  0
 27 18  1  0  0  0  0
 29 20  1  0  0  0  0
 32 23  1  0  0  0  0
 33 43  1  1  0  0  0
 33 32  1  0  0  0  0
 33 38  1  0  0  0  0
 34 33  1  0  0  0  0
 35 47  1  0  0  0  0
 35 46  1  0  0  0  0
 35 34  1  0  0  0  0
 36 35  1  0  0  0  0
 37 36  2  0  0  0  0
 38 41  1  0  0  0  0
 39 38  2  0  0  0  0
 40 36  1  0  0  0  0
 42 32  1  0  0  0  0
 44 34  1  0  0  0  0
 45 34  1  0  0  0  0
 48 40  1  0  0  0  0
M  END
$$$$
