VTF.pdb
 OpenBabel07022419273D

 52 52  0  0  1  0  0  0  0  0999 V2000
    0.7910   -3.9460    0.8670 C   0  0  0  0  0  0  0  0  0  0  0  0
    2.1880   -3.8840    1.3620 C   0  0  0  0  0  0  0  0  0  0  0  0
    2.8160   -5.2820    1.2710 C   0  0  0  0  0  0  0  0  0  0  0  0
    3.0760   -2.8580    0.7610 C   0  0  2  0  0  0  0  0  0  0  0  0
    4.4120   -2.9720    1.3710 N   0  0  0  0  0  0  0  0  0  0  0  0
    2.6520   -1.4670    0.8530 C   0  0  0  0  0  0  0  0  0  0  0  0
    3.4160   -0.6230    1.4520 O   0  0  0  0  0  0  0  0  0  0  0  0
    0.3880   -4.9850    1.0890 H   0  0  0  0  0  0  0  0  0  0  0  0
    0.1070   -3.2660    1.3630 H   0  0  0  0  0  0  0  0  0  0  0  0
    0.7560   -3.9130   -0.2570 H   0  0  0  0  0  0  0  0  0  0  0  0
    2.1530   -3.6920    2.4790 H   0  0  0  0  0  0  0  0  0  0  0  0
    3.7370   -5.3070    1.9260 H   0  0  0  0  0  0  0  0  0  0  0  0
    3.1790   -5.4900    0.2450 H   0  0  0  0  0  0  0  0  0  0  0  0
    2.1260   -6.0420    1.6560 H   0  0  0  0  0  0  0  0  0  0  0  0
    3.2270   -3.1280   -0.3170 H   0  0  0  0  0  0  0  0  0  0  0  0
    4.2440   -3.2810    2.3540 H   0  0  0  0  0  0  0  0  0  0  0  0
    4.9410   -3.7130    0.8830 H   0  0  0  0  0  0  0  0  0  0  0  0
    0.9110    2.7070   -0.7270 C   0  0  0  0  0  0  0  0  0  0  0  0
    1.1940    1.2270   -0.8500 C   0  0  1  0  0  0  0  0  0  0  0  0
    2.4510    1.1260   -1.4410 O   0  0  0  0  0  0  0  0  0  0  0  0
    1.1480    0.5140    0.4880 C   0  0  2  0  0  0  0  0  0  0  0  0
    1.4570   -0.8930    0.3440 N   0  0  0  0  0  0  0  0  0  0  0  0
   -0.1270    0.7970    1.1670 C   0  0  0  0  0  0  0  0  0  0  0  0
   -0.4180    2.0190    1.3580 O   0  0  0  0  0  0  0  0  0  0  0  0
    1.3150    3.0710    0.2400 H   0  0  0  0  0  0  0  0  0  0  0  0
   -0.1680    2.9440   -0.7560 H   0  0  0  0  0  0  0  0  0  0  0  0
    1.4520    3.2860   -1.5310 H   0  0  0  0  0  0  0  0  0  0  0  0
    0.4320    0.7920   -1.5160 H   0  0  0  0  0  0  0  0  0  0  0  0
    3.0690    1.7930   -1.0510 H   0  0  0  0  0  0  0  0  0  0  0  0
    1.9580    0.9750    1.0870 H   0  0  0  0  0  0  0  0  0  0  0  0
    0.8040   -1.5390   -0.1460 H   0  0  0  0  0  0  0  0  0  0  0  0
   -1.0640   -0.1380    1.6310 N   0  0  0  0  0  0  0  0  0  0  0  0
   -2.3040    0.2260    2.2950 C   0  0  1  0  0  0  0  0  0  0  0  0
   -3.4400   -0.1840    1.3470 C   0  0  0  0  0  0  0  0  0  0  0  0
   -3.3140    0.5310    0.0530 C   0  0  0  0  0  0  0  0  0  0  0  0
   -2.5790   -0.0250   -0.9690 C   0  0  0  0  0  0  0  0  0  0  0  0
   -2.4140    0.5790   -2.2050 C   0  0  0  0  0  0  0  0  0  0  0  0
   -3.0320    1.7960   -2.3750 C   0  0  0  0  0  0  0  0  0  0  0  0
   -3.7720    2.3810   -1.3800 C   0  0  0  0  0  0  0  0  0  0  0  0
   -3.9120    1.7510   -0.1700 C   0  0  0  0  0  0  0  0  0  0  0  0
   -2.4900   -0.4720    3.5700 C   0  0  0  0  0  0  0  0  0  0  0  0
   -1.6260   -1.2880    3.9870 O   0  0  0  0  0  0  0  0  0  0  0  0
   -3.6010   -0.2620    4.3430 O   0  0  0  0  0  0  0  0  0  0  0  0
   -0.8730   -1.1320    1.4970 H   0  0  0  0  0  0  0  0  0  0  0  0
   -2.3960    1.3350    2.3970 H   0  0  0  0  0  0  0  0  0  0  0  0
   -3.4040   -1.2710    1.1270 H   0  0  0  0  0  0  0  0  0  0  0  0
   -4.4360    0.0330    1.8260 H   0  0  0  0  0  0  0  0  0  0  0  0
   -2.0830   -1.0000   -0.8390 H   0  0  0  0  0  0  0  0  0  0  0  0
   -1.8330    0.1050   -2.9670 H   0  0  0  0  0  0  0  0  0  0  0  0
   -2.9500    2.3360   -3.3190 H   0  0  0  0  0  0  0  0  0  0  0  0
   -4.2520    3.3400   -1.5310 H   0  0  0  0  0  0  0  0  0  0  0  0
   -4.5080    2.2390    0.6100 H   0  0  0  0  0  0  0  0  0  0  0  0
  1  8  1  0  0  0  0
  1  2  1  0  0  0  0
  1  9  1  0  0  0  0
  2 11  1  0  0  0  0
  3  2  1  0  0  0  0
  3 14  1  0  0  0  0
  3 12  1  0  0  0  0
  4 15  1  6  0  0  0
  4  6  1  0  0  0  0
  4  2  1  0  0  0  0
  4  5  1  0  0  0  0
  5 16  1  0  0  0  0
  6  7  2  0  0  0  0
 10  1  1  0  0  0  0
 13  3  1  0  0  0  0
 17  5  1  0  0  0  0
 18 25  1  0  0  0  0
 19 28  1  6  0  0  0
 19 18  1  0  0  0  0
 19 21  1  0  0  0  0
 20 29  1  0  0  0  0
 20 19  1  0  0  0  0
 21 30  1  1  0  0  0
 21 23  1  0  0  0  0
 22 21  1  0  0  0  0
 22  6  1  0  0  0  0
 23 24  2  0  0  0  0
 23 32  1  0  0  0  0
 26 18  1  0  0  0  0
 27 18  1  0  0  0  0
 31 22  1  0  0  0  0
 32 33  1  0  0  0  0
 33 45  1  1  0  0  0
 33 41  1  0  0  0  0
 34 47  1  0  0  0  0
 34 33  1  0  0  0  0
 35 34  1  0  0  0  0
 36 48  1  0  0  0  0
 36 35  2  0  0  0  0
 37 36  1  0  0  0  0
 38 37  2  0  0  0  0
 38 39  1  0  0  0  0
 39 40  2  0  0  0  0
 40 35  1  0  0  0  0
 40 52  1  0  0  0  0
 41 42  2  0  0  0  0
 41 43  1  0  0  0  0
 44 32  1  0  0  0  0
 46 34  1  0  0  0  0
 49 37  1  0  0  0  0
 50 38  1  0  0  0  0
 51 39  1  0  0  0  0
M  END
$$$$
