VTH.pdb
 OpenBabel07022419273D

 49 49  0  0  1  0  0  0  0  0999 V2000
    1.1730    0.5310    5.8200 C   0  0  0  0  0  0  0  0  0  0  0  0
    1.7410    1.6390    4.9770 C   0  0  0  0  0  0  0  0  0  0  0  0
    0.7110    2.7090    4.7730 C   0  0  0  0  0  0  0  0  0  0  0  0
    2.2740    1.0770    3.6810 C   0  0  2  0  0  0  0  0  0  0  0  0
    2.8260    2.1320    2.8560 N   0  0  0  0  0  0  0  0  0  0  0  0
    1.2700    0.3200    2.9240 C   0  0  0  0  0  0  0  0  0  0  0  0
    0.6640   -0.6440    3.4500 O   0  0  0  0  0  0  0  0  0  0  0  0
    0.0830    0.4260    5.7270 H   0  0  0  0  0  0  0  0  0  0  0  0
    1.6760   -0.4260    5.5540 H   0  0  0  0  0  0  0  0  0  0  0  0
    1.4070    0.6950    6.8990 H   0  0  0  0  0  0  0  0  0  0  0  0
    2.6040    2.0860    5.5190 H   0  0  0  0  0  0  0  0  0  0  0  0
    0.0460    2.7050    5.6730 H   0  0  0  0  0  0  0  0  0  0  0  0
    0.0780    2.5070    3.8990 H   0  0  0  0  0  0  0  0  0  0  0  0
    1.1230    3.7170    4.6750 H   0  0  0  0  0  0  0  0  0  0  0  0
    3.1490    0.4240    3.9640 H   0  0  0  0  0  0  0  0  0  0  0  0
    2.8190    3.0310    3.4230 H   0  0  0  0  0  0  0  0  0  0  0  0
    3.8230    1.9780    2.6050 H   0  0  0  0  0  0  0  0  0  0  0  0
   -0.7240    1.9570   -0.3970 C   0  0  0  0  0  0  0  0  0  0  0  0
   -1.2040    0.7770    0.4330 C   0  0  1  0  0  0  0  0  0  0  0  0
   -2.1870    0.1210   -0.2770 O   0  0  0  0  0  0  0  0  0  0  0  0
   -0.0470   -0.1100    0.8330 C   0  0  2  0  0  0  0  0  0  0  0  0
    0.9500    0.6450    1.5820 N   0  0  0  0  0  0  0  0  0  0  0  0
    0.5700   -0.7920   -0.3340 C   0  0  0  0  0  0  0  0  0  0  0  0
    1.8190   -0.6570   -0.5860 O   0  0  0  0  0  0  0  0  0  0  0  0
   -1.3730    2.1070   -1.2930 H   0  0  0  0  0  0  0  0  0  0  0  0
    0.3270    1.7670   -0.6690 H   0  0  0  0  0  0  0  0  0  0  0  0
   -0.7380    2.9030    0.1770 H   0  0  0  0  0  0  0  0  0  0  0  0
   -1.6850    1.2120    1.3320 H   0  0  0  0  0  0  0  0  0  0  0  0
   -2.6610    0.7960   -0.8270 H   0  0  0  0  0  0  0  0  0  0  0  0
   -0.4310   -0.8960    1.5100 H   0  0  0  0  0  0  0  0  0  0  0  0
    1.4470    1.4510    1.1180 H   0  0  0  0  0  0  0  0  0  0  0  0
   -0.1290   -1.6230   -1.2430 N   0  0  0  0  0  0  0  0  0  0  0  0
    0.5460   -2.2640   -2.3750 C   0  0  1  0  0  0  0  0  0  0  0  0
    0.4800   -3.7800   -2.1390 C   0  0  0  0  0  0  0  0  0  0  0  0
   -0.9640   -4.1960   -2.0670 C   0  0  0  0  0  0  0  0  0  0  0  0
   -1.7200   -4.5860   -3.1530 C   0  0  0  0  0  0  0  0  0  0  0  0
   -2.9580   -4.8840   -2.7140 N   0  0  0  0  0  0  0  0  0  0  0  0
   -2.9710   -4.6840   -1.3860 C   0  0  0  0  0  0  0  0  0  0  0  0
   -1.7630   -4.2680   -1.0040 N   0  0  0  0  0  0  0  0  0  0  0  0
   -0.0610   -1.8980   -3.6550 C   0  0  0  0  0  0  0  0  0  0  0  0
   -1.0450   -1.1230   -3.7520 O   0  0  0  0  0  0  0  0  0  0  0  0
    0.4710   -2.4270   -4.8200 O   0  0  0  0  0  0  0  0  0  0  0  0
   -1.1470   -1.7790   -1.0960 H   0  0  0  0  0  0  0  0  0  0  0  0
    1.6180   -2.0100   -2.4010 H   0  0  0  0  0  0  0  0  0  0  0  0
    0.9560   -4.0400   -1.1750 H   0  0  0  0  0  0  0  0  0  0  0  0
    0.9910   -4.2690   -2.9700 H   0  0  0  0  0  0  0  0  0  0  0  0
   -1.3740   -4.6410   -4.1720 H   0  0  0  0  0  0  0  0  0  0  0  0
   -3.7840   -5.2160   -3.2780 H   0  0  0  0  0  0  0  0  0  0  0  0
   -3.8300   -4.8350   -0.7160 H   0  0  0  0  0  0  0  0  0  0  0  0
  1 10  1  0  0  0  0
  2 11  1  0  0  0  0
  2  1  1  0  0  0  0
  3  2  1  0  0  0  0
  3 12  1  0  0  0  0
  4 15  1  1  0  0  0
  4  2  1  0  0  0  0
  5 16  1  0  0  0  0
  5  4  1  0  0  0  0
  6  7  2  0  0  0  0
  6  4  1  0  0  0  0
  8  1  1  0  0  0  0
  9  1  1  0  0  0  0
 13  3  1  0  0  0  0
 14  3  1  0  0  0  0
 17  5  1  0  0  0  0
 18 27  1  0  0  0  0
 18 19  1  0  0  0  0
 19 21  1  0  0  0  0
 19 28  1  1  0  0  0
 20 19  1  0  0  0  0
 21 30  1  1  0  0  0
 21 22  1  0  0  0  0
 22  6  1  0  0  0  0
 23 21  1  0  0  0  0
 24 23  2  0  0  0  0
 25 18  1  0  0  0  0
 26 18  1  0  0  0  0
 29 20  1  0  0  0  0
 31 22  1  0  0  0  0
 32 43  1  0  0  0  0
 32 23  1  0  0  0  0
 33 44  1  6  0  0  0
 33 34  1  0  0  0  0
 33 32  1  0  0  0  0
 34 35  1  0  0  0  0
 34 45  1  0  0  0  0
 35 39  1  0  0  0  0
 36 37  1  0  0  0  0
 36 35  2  0  0  0  0
 37 38  1  0  0  0  0
 38 39  2  0  0  0  0
 38 49  1  0  0  0  0
 40 33  1  0  0  0  0
 41 40  1  0  0  0  0
 42 40  2  0  0  0  0
 46 34  1  0  0  0  0
 47 36  1  0  0  0  0
 48 37  1  0  0  0  0
M  END
$$$$
