VTK.pdb
 OpenBabel07022419273D

 53 52  0  0  1  0  0  0  0  0999 V2000
    1.4370   -4.2880    1.6220 C   0  0  0  0  0  0  0  0  0  0  0  0
    0.6590   -4.2700    2.8850 C   0  0  0  0  0  0  0  0  0  0  0  0
   -0.8510   -4.2420    2.6200 C   0  0  0  0  0  0  0  0  0  0  0  0
    0.9630   -3.1180    3.8180 C   0  0  2  0  0  0  0  0  0  0  0  0
    0.1210   -3.2400    5.0270 N   0  0  0  0  0  0  0  0  0  0  0  0
    0.6680   -1.7910    3.2370 C   0  0  0  0  0  0  0  0  0  0  0  0
   -0.2620   -1.1110    3.7400 O   0  0  0  0  0  0  0  0  0  0  0  0
    2.5120   -4.0560    1.7570 H   0  0  0  0  0  0  0  0  0  0  0  0
    1.4430   -5.3670    1.2700 H   0  0  0  0  0  0  0  0  0  0  0  0
    1.0560   -3.6410    0.8150 H   0  0  0  0  0  0  0  0  0  0  0  0
    0.8390   -5.2150    3.4360 H   0  0  0  0  0  0  0  0  0  0  0  0
   -1.3520   -4.5980    3.5540 H   0  0  0  0  0  0  0  0  0  0  0  0
   -1.2180   -3.2420    2.3990 H   0  0  0  0  0  0  0  0  0  0  0  0
   -1.1210   -4.9900    1.8420 H   0  0  0  0  0  0  0  0  0  0  0  0
    2.0080   -3.2000    4.1970 H   0  0  0  0  0  0  0  0  0  0  0  0
   -0.8610   -2.9890    4.7080 H   0  0  0  0  0  0  0  0  0  0  0  0
    0.4010   -2.4130    5.6340 H   0  0  0  0  0  0  0  0  0  0  0  0
    2.4450    1.1990    3.2700 C   0  0  0  0  0  0  0  0  0  0  0  0
    2.2060    1.0290    1.8020 C   0  0  1  0  0  0  0  0  0  0  0  0
    3.3260    0.5130    1.1290 O   0  0  0  0  0  0  0  0  0  0  0  0
    1.0190    0.1060    1.6130 C   0  0  2  0  0  0  0  0  0  0  0  0
    1.3470   -1.1980    2.1480 N   0  0  0  0  0  0  0  0  0  0  0  0
    0.6480    0.0030    0.1610 C   0  0  0  0  0  0  0  0  0  0  0  0
    0.6610   -1.1090   -0.3860 O   0  0  0  0  0  0  0  0  0  0  0  0
    1.5190    0.9800    3.8700 H   0  0  0  0  0  0  0  0  0  0  0  0
    2.7270    2.2450    3.5470 H   0  0  0  0  0  0  0  0  0  0  0  0
    3.2140    0.4850    3.6690 H   0  0  0  0  0  0  0  0  0  0  0  0
    1.9480    2.0230    1.3660 H   0  0  0  0  0  0  0  0  0  0  0  0
    4.1210    0.9580    1.5240 H   0  0  0  0  0  0  0  0  0  0  0  0
    0.1700    0.5650    2.1750 H   0  0  0  0  0  0  0  0  0  0  0  0
    2.1270   -1.7140    1.7030 H   0  0  0  0  0  0  0  0  0  0  0  0
    0.2860    1.1430   -0.5960 N   0  0  0  0  0  0  0  0  0  0  0  0
   -0.0860    1.0930   -2.0130 C   0  0  1  0  0  0  0  0  0  0  0  0
   -1.4800    1.6580   -2.1590 C   0  0  0  0  0  0  0  0  0  0  0  0
   -2.5100    0.9010   -1.3870 C   0  0  0  0  0  0  0  0  0  0  0  0
   -2.6590   -0.5340   -1.7720 C   0  0  0  0  0  0  0  0  0  0  0  0
   -3.0590   -0.6860   -3.2320 C   0  0  0  0  0  0  0  0  0  0  0  0
   -4.3270   -0.0270   -3.4900 N   0  0  0  0  0  0  0  0  0  0  0  0
    0.8030    1.9120   -2.8380 C   0  0  0  0  0  0  0  0  0  0  0  0
    1.7470    2.5510   -2.3270 O   0  0  0  0  0  0  0  0  0  0  0  0
    0.6070    1.9880   -4.2000 O   0  0  0  0  0  0  0  0  0  0  0  0
    0.2910    2.0580   -0.0940 H   0  0  0  0  0  0  0  0  0  0  0  0
   -0.1010    0.0560   -2.3840 H   0  0  0  0  0  0  0  0  0  0  0  0
   -1.7520    1.8030   -3.2230 H   0  0  0  0  0  0  0  0  0  0  0  0
   -1.4640    2.6990   -1.7250 H   0  0  0  0  0  0  0  0  0  0  0  0
   -3.4880    1.3910   -1.5030 H   0  0  0  0  0  0  0  0  0  0  0  0
   -2.2440    0.9330   -0.3090 H   0  0  0  0  0  0  0  0  0  0  0  0
   -3.5270   -0.9370   -1.1860 H   0  0  0  0  0  0  0  0  0  0  0  0
   -1.7760   -1.1540   -1.6230 H   0  0  0  0  0  0  0  0  0  0  0  0
   -2.2900   -0.3190   -3.9190 H   0  0  0  0  0  0  0  0  0  0  0  0
   -3.2100   -1.7670   -3.4160 H   0  0  0  0  0  0  0  0  0  0  0  0
   -4.1790    0.8990   -3.9400 H   0  0  0  0  0  0  0  0  0  0  0  0
   -4.8820    0.0470   -2.6000 H   0  0  0  0  0  0  0  0  0  0  0  0
  1  8  1  0  0  0  0
  1  2  1  0  0  0  0
  2 11  1  0  0  0  0
  2  4  1  0  0  0  0
  3  2  1  0  0  0  0
  3 12  1  0  0  0  0
  4 15  1  1  0  0  0
  4  5  1  0  0  0  0
  5 17  1  0  0  0  0
  6  7  2  0  0  0  0
  6  4  1  0  0  0  0
  9  1  1  0  0  0  0
 10  1  1  0  0  0  0
 13  3  1  0  0  0  0
 14  3  1  0  0  0  0
 16  5  1  0  0  0  0
 18 26  1  0  0  0  0
 18 27  1  0  0  0  0
 18 25  1  0  0  0  0
 19 28  1  6  0  0  0
 19 18  1  0  0  0  0
 20 29  1  0  0  0  0
 20 19  1  0  0  0  0
 21 19  1  0  0  0  0
 21 22  1  0  0  0  0
 21 30  1  1  0  0  0
 22  6  1  0  0  0  0
 23 21  1  0  0  0  0
 24 23  2  0  0  0  0
 31 22  1  0  0  0  0
 32 42  1  0  0  0  0
 32 23  1  0  0  0  0
 33 43  1  6  0  0  0
 33 32  1  0  0  0  0
 34 33  1  0  0  0  0
 34 45  1  0  0  0  0
 34 35  1  0  0  0  0
 35 47  1  0  0  0  0
 36 49  1  0  0  0  0
 36 35  1  0  0  0  0
 36 48  1  0  0  0  0
 37 36  1  0  0  0  0
 38 37  1  0  0  0  0
 38 53  1  0  0  0  0
 39 40  1  0  0  0  0
 39 33  1  0  0  0  0
 41 39  2  0  0  0  0
 44 34  1  0  0  0  0
 46 35  1  0  0  0  0
 50 37  1  0  0  0  0
 51 37  1  0  0  0  0
 52 38  1  0  0  0  0
M  END
$$$$
