VTL.pdb
 OpenBabel07022419273D

 51 50  0  0  1  0  0  0  0  0999 V2000
    1.6720   -3.6300   -1.3090 C   0  0  0  0  0  0  0  0  0  0  0  0
    2.7150   -3.7830   -0.2380 C   0  0  0  0  0  0  0  0  0  0  0  0
    2.0170   -4.2740    1.0090 C   0  0  0  0  0  0  0  0  0  0  0  0
    3.4870   -2.5150   -0.0020 C   0  0  2  0  0  0  0  0  0  0  0  0
    4.4780   -2.8010    1.0540 N   0  0  0  0  0  0  0  0  0  0  0  0
    2.7110   -1.3750    0.4690 C   0  0  0  0  0  0  0  0  0  0  0  0
    2.8480   -0.9160    1.6300 O   0  0  0  0  0  0  0  0  0  0  0  0
    0.7320   -3.2100   -0.9570 H   0  0  0  0  0  0  0  0  0  0  0  0
    2.0800   -3.1520   -2.2420 H   0  0  0  0  0  0  0  0  0  0  0  0
    1.4400   -4.6920   -1.6400 H   0  0  0  0  0  0  0  0  0  0  0  0
    3.4150   -4.5740   -0.5520 H   0  0  0  0  0  0  0  0  0  0  0  0
    2.6950   -4.4250    1.8520 H   0  0  0  0  0  0  0  0  0  0  0  0
    1.1470   -3.6020    1.2570 H   0  0  0  0  0  0  0  0  0  0  0  0
    1.5610   -5.2550    0.7620 H   0  0  0  0  0  0  0  0  0  0  0  0
    4.0700   -2.3040   -0.9190 H   0  0  0  0  0  0  0  0  0  0  0  0
    5.0010   -3.6640    0.7750 H   0  0  0  0  0  0  0  0  0  0  0  0
    5.1880   -2.0390    1.1170 H   0  0  0  0  0  0  0  0  0  0  0  0
    2.7950    1.9810   -0.5900 C   0  0  0  0  0  0  0  0  0  0  0  0
    1.3390    1.6500   -0.6510 C   0  0  1  0  0  0  0  0  0  0  0  0
    0.9910    1.4820   -1.9950 O   0  0  0  0  0  0  0  0  0  0  0  0
    1.0260    0.3950    0.1490 C   0  0  2  0  0  0  0  0  0  0  0  0
    1.7680   -0.7410   -0.3780 N   0  0  0  0  0  0  0  0  0  0  0  0
   -0.4110    0.0840    0.0700 C   0  0  0  0  0  0  0  0  0  0  0  0
   -0.7880   -1.0120   -0.3970 O   0  0  0  0  0  0  0  0  0  0  0  0
    2.9100    3.0750   -0.3580 H   0  0  0  0  0  0  0  0  0  0  0  0
    3.3170    1.8100   -1.5710 H   0  0  0  0  0  0  0  0  0  0  0  0
    3.3600    1.4350    0.1680 H   0  0  0  0  0  0  0  0  0  0  0  0
    0.7270    2.4620   -0.1960 H   0  0  0  0  0  0  0  0  0  0  0  0
    0.9000    2.3810   -2.3830 H   0  0  0  0  0  0  0  0  0  0  0  0
    1.3080    0.6100    1.2030 H   0  0  0  0  0  0  0  0  0  0  0  0
    1.5630   -1.0170   -1.3540 H   0  0  0  0  0  0  0  0  0  0  0  0
   -2.9810   -1.5300    2.5370 C   0  0  0  0  0  0  0  0  0  0  0  0
   -2.9250   -0.0690    2.8210 C   0  0  0  0  0  0  0  0  0  0  0  0
   -3.7640    0.1810    4.0810 C   0  0  0  0  0  0  0  0  0  0  0  0
   -3.5140    0.7920    1.7400 C   0  0  0  0  0  0  0  0  0  0  0  0
   -2.8370    0.6360    0.4130 C   0  0  2  0  0  0  0  0  0  0  0  0
   -1.4170    0.9960    0.5130 N   0  0  0  0  0  0  0  0  0  0  0  0
   -3.4700    1.6020   -0.5310 C   0  0  0  0  0  0  0  0  0  0  0  0
   -2.8140    2.5210   -1.0850 O   0  0  0  0  0  0  0  0  0  0  0  0
   -4.8250    1.5170   -0.8320 O   0  0  0  0  0  0  0  0  0  0  0  0
   -2.0720   -1.9320    2.0580 H   0  0  0  0  0  0  0  0  0  0  0  0
   -3.9080   -1.7520    1.9840 H   0  0  0  0  0  0  0  0  0  0  0  0
   -3.0670   -2.0700    3.5190 H   0  0  0  0  0  0  0  0  0  0  0  0
   -1.8950    0.2440    3.0730 H   0  0  0  0  0  0  0  0  0  0  0  0
   -4.6710   -0.4550    3.9540 H   0  0  0  0  0  0  0  0  0  0  0  0
   -4.0620    1.2330    4.0590 H   0  0  0  0  0  0  0  0  0  0  0  0
   -3.2080   -0.1000    4.9960 H   0  0  0  0  0  0  0  0  0  0  0  0
   -3.4030    1.8480    2.0510 H   0  0  0  0  0  0  0  0  0  0  0  0
   -4.5810    0.5700    1.6130 H   0  0  0  0  0  0  0  0  0  0  0  0
   -2.9590   -0.3600   -0.0210 H   0  0  0  0  0  0  0  0  0  0  0  0
   -1.1060    1.8950    0.8970 H   0  0  0  0  0  0  0  0  0  0  0  0
  1  8  1  0  0  0  0
  1  2  1  0  0  0  0
  2  4  1  0  0  0  0
  2  3  1  0  0  0  0
  3 13  1  0  0  0  0
  3 12  1  0  0  0  0
  4 15  1  6  0  0  0
  4  6  1  0  0  0  0
  4  5  1  0  0  0  0
  5 17  1  0  0  0  0
  6  7  2  0  0  0  0
  9  1  1  0  0  0  0
 10  1  1  0  0  0  0
 11  2  1  0  0  0  0
 14  3  1  0  0  0  0
 16  5  1  0  0  0  0
 18 25  1  0  0  0  0
 18 27  1  0  0  0  0
 19 18  1  0  0  0  0
 19 28  1  1  0  0  0
 19 21  1  0  0  0  0
 20 19  1  0  0  0  0
 21 30  1  1  0  0  0
 22 21  1  0  0  0  0
 22  6  1  0  0  0  0
 23 21  1  0  0  0  0
 23 37  1  0  0  0  0
 24 23  2  0  0  0  0
 26 18  1  0  0  0  0
 29 20  1  0  0  0  0
 31 22  1  0  0  0  0
 32 33  1  0  0  0  0
 32 43  1  0  0  0  0
 33 44  1  0  0  0  0
 33 34  1  0  0  0  0
 34 47  1  0  0  0  0
 35 48  1  0  0  0  0
 35 33  1  0  0  0  0
 36 50  1  6  0  0  0
 36 37  1  0  0  0  0
 36 35  1  0  0  0  0
 37 51  1  0  0  0  0
 38 36  1  0  0  0  0
 39 38  2  0  0  0  0
 40 38  1  0  0  0  0
 41 32  1  0  0  0  0
 42 32  1  0  0  0  0
 45 34  1  0  0  0  0
 46 34  1  0  0  0  0
 49 35  1  0  0  0  0
M  END
$$$$
