VTM.pdb
 OpenBabel07022419273D

 49 48  0  0  1  0  0  0  0  0999 V2000
    1.4570   -3.6640    4.4740 C   0  0  0  0  0  0  0  0  0  0  0  0
    2.1800   -2.7690    3.4680 C   0  0  0  0  0  0  0  0  0  0  0  0
    3.2440   -2.0230    4.2380 C   0  0  0  0  0  0  0  0  0  0  0  0
    1.1410   -1.8400    2.8910 C   0  0  2  0  0  0  0  0  0  0  0  0
    0.1200   -2.6130    2.2480 N   0  0  0  0  0  0  0  0  0  0  0  0
    1.6950   -0.8490    1.9620 C   0  0  0  0  0  0  0  0  0  0  0  0
    2.6080   -0.0370    2.2710 O   0  0  0  0  0  0  0  0  0  0  0  0
    2.1630   -4.0310    5.2440 H   0  0  0  0  0  0  0  0  0  0  0  0
    0.7240   -3.0160    5.0000 H   0  0  0  0  0  0  0  0  0  0  0  0
    0.8950   -4.4560    3.9660 H   0  0  0  0  0  0  0  0  0  0  0  0
    2.6550   -3.3710    2.6820 H   0  0  0  0  0  0  0  0  0  0  0  0
    4.0080   -1.6280    3.5370 H   0  0  0  0  0  0  0  0  0  0  0  0
    2.8230   -1.2440    4.8950 H   0  0  0  0  0  0  0  0  0  0  0  0
    3.7760   -2.7420    4.9090 H   0  0  0  0  0  0  0  0  0  0  0  0
    0.6810   -1.2930    3.7550 H   0  0  0  0  0  0  0  0  0  0  0  0
    0.5100   -3.3270    1.5980 H   0  0  0  0  0  0  0  0  0  0  0  0
   -0.5660   -3.0460    2.9010 H   0  0  0  0  0  0  0  0  0  0  0  0
    2.8190    0.5510   -2.4790 C   0  0  0  0  0  0  0  0  0  0  0  0
    2.2680   -0.5160   -1.5550 C   0  0  1  0  0  0  0  0  0  0  0  0
    3.3660   -1.2570   -1.1230 O   0  0  0  0  0  0  0  0  0  0  0  0
    1.6550    0.1430   -0.3520 C   0  0  2  0  0  0  0  0  0  0  0  0
    1.2060   -0.7700    0.6440 N   0  0  0  0  0  0  0  0  0  0  0  0
    0.5620    1.0930   -0.7290 C   0  0  0  0  0  0  0  0  0  0  0  0
    0.7260    1.9900   -1.5940 O   0  0  0  0  0  0  0  0  0  0  0  0
    3.2870    1.3780   -1.9220 H   0  0  0  0  0  0  0  0  0  0  0  0
    2.0660    0.8760   -3.2220 H   0  0  0  0  0  0  0  0  0  0  0  0
    3.6350    0.0630   -3.0670 H   0  0  0  0  0  0  0  0  0  0  0  0
    1.5500   -1.1060   -2.1440 H   0  0  0  0  0  0  0  0  0  0  0  0
    4.0390   -1.2800   -1.8340 H   0  0  0  0  0  0  0  0  0  0  0  0
    2.4600    0.7740    0.1100 H   0  0  0  0  0  0  0  0  0  0  0  0
    0.4350   -1.4460    0.3590 H   0  0  0  0  0  0  0  0  0  0  0  0
   -4.0720   -1.8710   -2.4210 C   0  0  0  0  0  0  0  0  0  0  0  0
   -4.7330   -0.9730   -0.9930 S   0  0  0  0  0  0  0  0  0  0  0  0
   -3.4190   -0.0210   -0.1850 C   0  0  0  0  0  0  0  0  0  0  0  0
   -2.9130    1.0880   -1.0810 C   0  0  0  0  0  0  0  0  0  0  0  0
   -1.8190    1.8880   -0.4200 C   0  0  2  0  0  0  0  0  0  0  0  0
   -0.7260    1.0170   -0.1130 N   0  0  0  0  0  0  0  0  0  0  0  0
   -2.2850    2.6830    0.7110 C   0  0  0  0  0  0  0  0  0  0  0  0
   -1.7270    2.5600    1.8280 O   0  0  0  0  0  0  0  0  0  0  0  0
   -3.3310    3.5830    0.6070 O   0  0  0  0  0  0  0  0  0  0  0  0
   -3.0150   -1.5640   -2.5450 H   0  0  0  0  0  0  0  0  0  0  0  0
   -4.1260   -2.9830   -2.2730 H   0  0  0  0  0  0  0  0  0  0  0  0
   -4.6010   -1.6060   -3.3580 H   0  0  0  0  0  0  0  0  0  0  0  0
   -2.5880   -0.7230    0.0310 H   0  0  0  0  0  0  0  0  0  0  0  0
   -3.7710    0.3610    0.7960 H   0  0  0  0  0  0  0  0  0  0  0  0
   -3.7440    1.7570   -1.3510 H   0  0  0  0  0  0  0  0  0  0  0  0
   -2.4910    0.6070   -1.9840 H   0  0  0  0  0  0  0  0  0  0  0  0
   -1.4420    2.5970   -1.2150 H   0  0  0  0  0  0  0  0  0  0  0  0
   -0.8340    0.2500    0.6130 H   0  0  0  0  0  0  0  0  0  0  0  0
  1  9  1  0  0  0  0
  1  8  1  0  0  0  0
  2  3  1  0  0  0  0
  2  1  1  0  0  0  0
  3 13  1  0  0  0  0
  3 14  1  0  0  0  0
  4  2  1  0  0  0  0
  4 15  1  1  0  0  0
  5  4  1  0  0  0  0
  5 17  1  0  0  0  0
  6  7  2  0  0  0  0
  6  4  1  0  0  0  0
 10  1  1  0  0  0  0
 11  2  1  0  0  0  0
 12  3  1  0  0  0  0
 16  5  1  0  0  0  0
 18 25  1  0  0  0  0
 18 19  1  0  0  0  0
 19 28  1  6  0  0  0
 19 20  1  0  0  0  0
 19 21  1  0  0  0  0
 21 30  1  1  0  0  0
 21 22  1  0  0  0  0
 22  6  1  0  0  0  0
 23 21  1  0  0  0  0
 23 37  1  0  0  0  0
 24 23  2  0  0  0  0
 26 18  1  0  0  0  0
 27 18  1  0  0  0  0
 29 20  1  0  0  0  0
 31 22  1  0  0  0  0
 32 42  1  0  0  0  0
 32 33  1  0  0  0  0
 33 34  1  0  0  0  0
 34 44  1  0  0  0  0
 34 45  1  0  0  0  0
 35 36  1  0  0  0  0
 35 34  1  0  0  0  0
 36 48  1  6  0  0  0
 36 37  1  0  0  0  0
 36 38  1  0  0  0  0
 37 49  1  0  0  0  0
 38 39  1  0  0  0  0
 40 38  2  0  0  0  0
 41 32  1  0  0  0  0
 43 32  1  0  0  0  0
 46 35  1  0  0  0  0
 47 35  1  0  0  0  0
M  END
$$$$
