VTN.pdb
 OpenBabel07022419273D

 46 45  0  0  1  0  0  0  0  0999 V2000
   -4.7960   -2.7230   -0.7750 C   0  0  0  0  0  0  0  0  0  0  0  0
   -3.3880   -2.2660   -0.4390 C   0  0  0  0  0  0  0  0  0  0  0  0
   -3.5140   -1.2490    0.6680 C   0  0  0  0  0  0  0  0  0  0  0  0
   -2.7060   -1.6820   -1.6780 C   0  0  2  0  0  0  0  0  0  0  0  0
   -2.7200   -2.7910   -2.6380 N   0  0  0  0  0  0  0  0  0  0  0  0
   -1.3140   -1.3650   -1.2830 C   0  0  0  0  0  0  0  0  0  0  0  0
   -0.4050   -2.1690   -1.6840 O   0  0  0  0  0  0  0  0  0  0  0  0
   -5.2850   -2.9380    0.2150 H   0  0  0  0  0  0  0  0  0  0  0  0
   -5.3980   -1.9180   -1.2310 H   0  0  0  0  0  0  0  0  0  0  0  0
   -4.8100   -3.6530   -1.3740 H   0  0  0  0  0  0  0  0  0  0  0  0
   -2.8260   -3.1480   -0.0920 H   0  0  0  0  0  0  0  0  0  0  0  0
   -4.3380   -1.5350    1.3770 H   0  0  0  0  0  0  0  0  0  0  0  0
   -3.7960   -0.2830    0.2150 H   0  0  0  0  0  0  0  0  0  0  0  0
   -2.5910   -1.2160    1.2560 H   0  0  0  0  0  0  0  0  0  0  0  0
   -3.2660   -0.8410   -2.0810 H   0  0  0  0  0  0  0  0  0  0  0  0
   -3.7140   -2.9060   -2.9250 H   0  0  0  0  0  0  0  0  0  0  0  0
   -2.3630   -3.6510   -2.1990 H   0  0  0  0  0  0  0  0  0  0  0  0
    0.2750    2.4270   -0.5270 C   0  0  0  0  0  0  0  0  0  0  0  0
    1.0240    1.2050   -0.9300 C   0  0  1  0  0  0  0  0  0  0  0  0
    2.3560    1.3630   -0.5760 O   0  0  0  0  0  0  0  0  0  0  0  0
    0.5320   -0.0490   -0.1860 C   0  0  2  0  0  0  0  0  0  0  0  0
   -0.8710   -0.2830   -0.5200 N   0  0  0  0  0  0  0  0  0  0  0  0
    0.7260    0.0620    1.2770 C   0  0  0  0  0  0  0  0  0  0  0  0
   -0.2990    0.0170    2.0090 O   0  0  0  0  0  0  0  0  0  0  0  0
    0.8060    2.9250    0.3110 H   0  0  0  0  0  0  0  0  0  0  0  0
   -0.7860    2.2850   -0.3210 H   0  0  0  0  0  0  0  0  0  0  0  0
    0.3320    3.1510   -1.3890 H   0  0  0  0  0  0  0  0  0  0  0  0
    0.9190    0.9590   -2.0100 H   0  0  0  0  0  0  0  0  0  0  0  0
    2.9260    1.7190   -1.2800 H   0  0  0  0  0  0  0  0  0  0  0  0
    1.1960   -0.8560   -0.5560 H   0  0  0  0  0  0  0  0  0  0  0  0
   -1.5620    0.4040   -0.1680 H   0  0  0  0  0  0  0  0  0  0  0  0
    5.1770   -1.8960    3.8250 N   0  0  0  0  0  0  0  0  0  0  0  0
    4.3270   -0.8540    3.3680 C   0  0  0  0  0  0  0  0  0  0  0  0
    4.8010   -0.0490    2.5320 O   0  0  0  0  0  0  0  0  0  0  0  0
    2.9610   -0.8020    3.9120 C   0  0  0  0  0  0  0  0  0  0  0  0
    2.1170    0.3200    3.3600 C   0  0  2  0  0  0  0  0  0  0  0  0
    1.9630    0.2120    1.9280 N   0  0  0  0  0  0  0  0  0  0  0  0
    2.7170    1.6200    3.7350 C   0  0  0  0  0  0  0  0  0  0  0  0
    3.0130    2.4470    2.8370 O   0  0  0  0  0  0  0  0  0  0  0  0
    2.9680    1.9650    5.0470 O   0  0  0  0  0  0  0  0  0  0  0  0
    5.7130   -1.7970    4.7340 H   0  0  0  0  0  0  0  0  0  0  0  0
    5.3140   -2.7780    3.3100 H   0  0  0  0  0  0  0  0  0  0  0  0
    3.0550   -0.7190    5.0170 H   0  0  0  0  0  0  0  0  0  0  0  0
    2.4820   -1.7890    3.6470 H   0  0  0  0  0  0  0  0  0  0  0  0
    1.1160    0.2720    3.8090 H   0  0  0  0  0  0  0  0  0  0  0  0
    2.8290    0.2460    1.3610 H   0  0  0  0  0  0  0  0  0  0  0  0
  1  2  1  0  0  0  0
  1  8  1  0  0  0  0
  2 11  1  0  0  0  0
  2  3  1  0  0  0  0
  3 14  1  0  0  0  0
  3 12  1  0  0  0  0
  4 15  1  6  0  0  0
  4  6  1  0  0  0  0
  4  2  1  0  0  0  0
  5 17  1  0  0  0  0
  5  4  1  0  0  0  0
  6 22  1  0  0  0  0
  7  6  2  0  0  0  0
  9  1  1  0  0  0  0
 10  1  1  0  0  0  0
 13  3  1  0  0  0  0
 16  5  1  0  0  0  0
 18 26  1  0  0  0  0
 18 25  1  0  0  0  0
 19 28  1  6  0  0  0
 19 20  1  0  0  0  0
 19 18  1  0  0  0  0
 19 21  1  0  0  0  0
 21 30  1  6  0  0  0
 21 23  1  0  0  0  0
 22 21  1  0  0  0  0
 22 31  1  0  0  0  0
 23 37  1  0  0  0  0
 23 24  2  0  0  0  0
 27 18  1  0  0  0  0
 29 20  1  0  0  0  0
 32 41  1  0  0  0  0
 33 32  1  0  0  0  0
 33 35  1  0  0  0  0
 34 33  2  0  0  0  0
 35 43  1  0  0  0  0
 36 38  1  0  0  0  0
 36 45  1  1  0  0  0
 36 35  1  0  0  0  0
 37 36  1  0  0  0  0
 38 40  1  0  0  0  0
 39 38  2  0  0  0  0
 42 32  1  0  0  0  0
 44 35  1  0  0  0  0
 46 37  1  0  0  0  0
M  END
$$$$
