VTQ.pdb
 OpenBabel07022419273D

 49 48  0  0  1  0  0  0  0  0999 V2000
    1.6840   -5.9710    1.5410 C   0  0  0  0  0  0  0  0  0  0  0  0
    1.4620   -4.5330    1.9800 C   0  0  0  0  0  0  0  0  0  0  0  0
    0.4190   -4.5810    3.0870 C   0  0  0  0  0  0  0  0  0  0  0  0
    0.8580   -3.7970    0.8250 C   0  0  2  0  0  0  0  0  0  0  0  0
    1.7790   -3.8520   -0.3120 N   0  0  0  0  0  0  0  0  0  0  0  0
    0.5080   -2.3950    1.1540 C   0  0  0  0  0  0  0  0  0  0  0  0
   -0.2810   -2.2070    2.1160 O   0  0  0  0  0  0  0  0  0  0  0  0
    1.4930   -6.6440    2.4210 H   0  0  0  0  0  0  0  0  0  0  0  0
    0.9610   -6.2780    0.7610 H   0  0  0  0  0  0  0  0  0  0  0  0
    2.7030   -6.1600    1.1980 H   0  0  0  0  0  0  0  0  0  0  0  0
    2.4180   -4.1160    2.3160 H   0  0  0  0  0  0  0  0  0  0  0  0
    0.6270   -3.7240    3.7530 H   0  0  0  0  0  0  0  0  0  0  0  0
    0.4980   -5.5410    3.6650 H   0  0  0  0  0  0  0  0  0  0  0  0
   -0.6090   -4.4570    2.6980 H   0  0  0  0  0  0  0  0  0  0  0  0
   -0.0550   -4.3420    0.5080 H   0  0  0  0  0  0  0  0  0  0  0  0
    2.2560   -4.7600   -0.3770 H   0  0  0  0  0  0  0  0  0  0  0  0
    1.3180   -3.6270   -1.2080 H   0  0  0  0  0  0  0  0  0  0  0  0
    2.3510    0.1800    2.5620 C   0  0  0  0  0  0  0  0  0  0  0  0
    1.8720    0.8530    1.3160 C   0  0  1  0  0  0  0  0  0  0  0  0
    2.8410    0.8470    0.3020 O   0  0  0  0  0  0  0  0  0  0  0  0
    0.6400    0.0980    0.8050 C   0  0  2  0  0  0  0  0  0  0  0  0
    0.9910   -1.2680    0.4710 N   0  0  0  0  0  0  0  0  0  0  0  0
    0.0020    0.8100   -0.3060 C   0  0  0  0  0  0  0  0  0  0  0  0
   -0.1990    0.2600   -1.4150 O   0  0  0  0  0  0  0  0  0  0  0  0
    3.4460    0.2760    2.7200 H   0  0  0  0  0  0  0  0  0  0  0  0
    1.8070    0.5530    3.4520 H   0  0  0  0  0  0  0  0  0  0  0  0
    2.1360   -0.9170    2.5160 H   0  0  0  0  0  0  0  0  0  0  0  0
    1.5400    1.8770    1.5730 H   0  0  0  0  0  0  0  0  0  0  0  0
    3.1700    1.7920    0.1720 H   0  0  0  0  0  0  0  0  0  0  0  0
   -0.0630    0.0220    1.6820 H   0  0  0  0  0  0  0  0  0  0  0  0
    1.6440   -1.4080   -0.3270 H   0  0  0  0  0  0  0  0  0  0  0  0
   -3.1370   -0.3680    0.4170 N   0  0  0  0  0  0  0  0  0  0  0  0
   -2.9590    1.0560    0.3910 C   0  0  0  0  0  0  0  0  0  0  0  0
   -2.5330    1.5770    1.4340 O   0  0  0  0  0  0  0  0  0  0  0  0
   -3.2630    1.8670   -0.7900 C   0  0  0  0  0  0  0  0  0  0  0  0
   -2.4850    3.1130   -0.9960 C   0  0  0  0  0  0  0  0  0  0  0  0
   -1.0320    2.8420   -1.2540 C   0  0  2  0  0  0  0  0  0  0  0  0
   -0.4100    2.1630   -0.1570 N   0  0  0  0  0  0  0  0  0  0  0  0
   -0.3000    4.0670   -1.6520 C   0  0  0  0  0  0  0  0  0  0  0  0
   -0.7220    4.7600   -2.5890 O   0  0  0  0  0  0  0  0  0  0  0  0
    0.8380    4.4310   -0.9840 O   0  0  0  0  0  0  0  0  0  0  0  0
   -2.3450   -1.0250    0.2720 H   0  0  0  0  0  0  0  0  0  0  0  0
   -4.0820   -0.7650    0.5870 H   0  0  0  0  0  0  0  0  0  0  0  0
   -4.3840    2.0750   -0.7640 H   0  0  0  0  0  0  0  0  0  0  0  0
   -3.1900    1.1850   -1.6990 H   0  0  0  0  0  0  0  0  0  0  0  0
   -2.9600    3.6730   -1.8380 H   0  0  0  0  0  0  0  0  0  0  0  0
   -2.6040    3.8280   -0.1200 H   0  0  0  0  0  0  0  0  0  0  0  0
   -1.0430    2.1470   -2.1650 H   0  0  0  0  0  0  0  0  0  0  0  0
   -0.2270    2.6520    0.7700 H   0  0  0  0  0  0  0  0  0  0  0  0
  1  2  1  0  0  0  0
  1  8  1  0  0  0  0
  2 11  1  0  0  0  0
  2  3  1  0  0  0  0
  3 13  1  0  0  0  0
  3 12  1  0  0  0  0
  4 15  1  6  0  0  0
  4  6  1  0  0  0  0
  4  2  1  0  0  0  0
  5  4  1  0  0  0  0
  6  7  2  0  0  0  0
  9  1  1  0  0  0  0
 10  1  1  0  0  0  0
 14  3  1  0  0  0  0
 16  5  1  0  0  0  0
 17  5  1  0  0  0  0
 18 25  1  0  0  0  0
 18 26  1  0  0  0  0
 19 28  1  1  0  0  0
 19 18  1  0  0  0  0
 20 19  1  0  0  0  0
 21 19  1  0  0  0  0
 21 30  1  1  0  0  0
 22 21  1  0  0  0  0
 22  6  1  0  0  0  0
 23 38  1  0  0  0  0
 23 21  1  0  0  0  0
 24 23  2  0  0  0  0
 27 18  1  0  0  0  0
 29 20  1  0  0  0  0
 31 22  1  0  0  0  0
 32 43  1  0  0  0  0
 33 32  1  0  0  0  0
 33 34  2  0  0  0  0
 35 44  1  0  0  0  0
 35 33  1  0  0  0  0
 36 35  1  0  0  0  0
 36 47  1  0  0  0  0
 37 48  1  6  0  0  0
 37 36  1  0  0  0  0
 37 38  1  0  0  0  0
 38 49  1  0  0  0  0
 39 37  1  0  0  0  0
 39 41  1  0  0  0  0
 40 39  2  0  0  0  0
 42 32  1  0  0  0  0
 45 35  1  0  0  0  0
 46 36  1  0  0  0  0
M  END
$$$$
