VTS.pdb
 OpenBabel07022419273D

 43 42  0  0  1  0  0  0  0  0999 V2000
   -2.8400   -3.4700   -0.3720 C   0  0  0  0  0  0  0  0  0  0  0  0
   -1.5710   -2.6860    0.0290 C   0  0  0  0  0  0  0  0  0  0  0  0
   -1.9580   -1.8510    1.2040 C   0  0  0  0  0  0  0  0  0  0  0  0
   -1.2240   -1.8970   -1.2160 C   0  0  2  0  0  0  0  0  0  0  0  0
   -1.0180   -2.9290   -2.2520 N   0  0  0  0  0  0  0  0  0  0  0  0
    0.0240   -1.1260   -1.1280 C   0  0  0  0  0  0  0  0  0  0  0  0
    1.0290   -1.5450   -1.7990 O   0  0  0  0  0  0  0  0  0  0  0  0
   -3.6120   -2.7450   -0.6800 H   0  0  0  0  0  0  0  0  0  0  0  0
   -2.6080   -4.2410   -1.1050 H   0  0  0  0  0  0  0  0  0  0  0  0
   -3.2440   -3.9880    0.5310 H   0  0  0  0  0  0  0  0  0  0  0  0
   -0.8180   -3.4210    0.3110 H   0  0  0  0  0  0  0  0  0  0  0  0
   -2.8260   -2.3700    1.7190 H   0  0  0  0  0  0  0  0  0  0  0  0
   -1.1730   -1.8300    1.9970 H   0  0  0  0  0  0  0  0  0  0  0  0
   -2.3280   -0.8510    0.9800 H   0  0  0  0  0  0  0  0  0  0  0  0
   -2.1130   -1.2790   -1.4590 H   0  0  0  0  0  0  0  0  0  0  0  0
   -0.2920   -2.6260   -2.9400 H   0  0  0  0  0  0  0  0  0  0  0  0
   -1.9220   -3.1760   -2.7130 H   0  0  0  0  0  0  0  0  0  0  0  0
    2.8760    2.6370   -1.0860 C   0  0  0  0  0  0  0  0  0  0  0  0
    1.4650    2.0870   -1.0490 C   0  0  1  0  0  0  0  0  0  0  0  0
    1.1020    1.8500   -2.3780 O   0  0  0  0  0  0  0  0  0  0  0  0
    1.5240    0.7480   -0.3640 C   0  0  2  0  0  0  0  0  0  0  0  0
    0.2680    0.0440   -0.3900 N   0  0  0  0  0  0  0  0  0  0  0  0
    2.0230    0.8190    1.0070 C   0  0  0  0  0  0  0  0  0  0  0  0
    3.1510    1.3880    1.2140 O   0  0  0  0  0  0  0  0  0  0  0  0
    3.5900    1.7900   -1.0450 H   0  0  0  0  0  0  0  0  0  0  0  0
    3.0590    3.2390   -2.0000 H   0  0  0  0  0  0  0  0  0  0  0  0
    3.0970    3.2640   -0.1740 H   0  0  0  0  0  0  0  0  0  0  0  0
    0.8370    2.8170   -0.5430 H   0  0  0  0  0  0  0  0  0  0  0  0
    1.8150    2.0480   -3.0190 H   0  0  0  0  0  0  0  0  0  0  0  0
    2.2420    0.1400   -0.9690 H   0  0  0  0  0  0  0  0  0  0  0  0
   -0.5060    0.4350    0.1790 H   0  0  0  0  0  0  0  0  0  0  0  0
   -0.1910    0.3860    4.5470 O   0  0  0  0  0  0  0  0  0  0  0  0
    0.9870    1.1000    4.4620 C   0  0  0  0  0  0  0  0  0  0  0  0
    1.9390    0.4210    3.5050 C   0  0  2  0  0  0  0  0  0  0  0  0
    1.3870    0.3180    2.1700 N   0  0  0  0  0  0  0  0  0  0  0  0
    2.1650   -0.9560    4.0160 C   0  0  0  0  0  0  0  0  0  0  0  0
    2.6450   -1.0780    5.1690 O   0  0  0  0  0  0  0  0  0  0  0  0
    1.8820   -2.1020    3.3090 O   0  0  0  0  0  0  0  0  0  0  0  0
   -0.9370    0.9490    4.2240 H   0  0  0  0  0  0  0  0  0  0  0  0
    1.4720    1.0630    5.4670 H   0  0  0  0  0  0  0  0  0  0  0  0
    0.8430    2.1720    4.2270 H   0  0  0  0  0  0  0  0  0  0  0  0
    2.9140    0.9370    3.5150 H   0  0  0  0  0  0  0  0  0  0  0  0
    0.4670   -0.1440    2.0180 H   0  0  0  0  0  0  0  0  0  0  0  0
  1  2  1  0  0  0  0
  1 10  1  0  0  0  0
  2 11  1  0  0  0  0
  2  3  1  0  0  0  0
  3 12  1  0  0  0  0
  3 13  1  0  0  0  0
  4 15  1  6  0  0  0
  4  6  1  0  0  0  0
  4  2  1  0  0  0  0
  5  4  1  0  0  0  0
  6 22  1  0  0  0  0
  7  6  2  0  0  0  0
  8  1  1  0  0  0  0
  9  1  1  0  0  0  0
 14  3  1  0  0  0  0
 16  5  1  0  0  0  0
 17  5  1  0  0  0  0
 18 19  1  0  0  0  0
 18 25  1  0  0  0  0
 18 27  1  0  0  0  0
 19 28  1  1  0  0  0
 19 21  1  0  0  0  0
 20 19  1  0  0  0  0
 21 30  1  6  0  0  0
 21 23  1  0  0  0  0
 22 21  1  0  0  0  0
 22 31  1  0  0  0  0
 23 24  2  0  0  0  0
 23 35  1  0  0  0  0
 26 18  1  0  0  0  0
 29 20  1  0  0  0  0
 33 32  1  0  0  0  0
 33 40  1  0  0  0  0
 34 42  1  6  0  0  0
 34 36  1  0  0  0  0
 34 33  1  0  0  0  0
 35 34  1  0  0  0  0
 36 37  1  0  0  0  0
 38 36  2  0  0  0  0
 39 32  1  0  0  0  0
 41 33  1  0  0  0  0
 43 35  1  0  0  0  0
M  END
$$$$
