VTT.pdb
 OpenBabel07022419273D

 46 45  0  0  1  0  0  0  0  0999 V2000
   -1.6750   -1.6610   -1.3480 C   0  0  0  0  0  0  0  0  0  0  0  0
   -0.7650   -2.6350   -2.0350 C   0  0  0  0  0  0  0  0  0  0  0  0
   -0.7530   -3.9070   -1.2360 C   0  0  0  0  0  0  0  0  0  0  0  0
    0.6320   -2.0930   -2.2580 C   0  0  2  0  0  0  0  0  0  0  0  0
    1.4220   -3.1520   -2.9520 N   0  0  0  0  0  0  0  0  0  0  0  0
    1.3330   -1.7740   -1.0000 C   0  0  0  0  0  0  0  0  0  0  0  0
    2.2710   -2.5340   -0.5780 O   0  0  0  0  0  0  0  0  0  0  0  0
   -1.5670   -0.6480   -1.7570 H   0  0  0  0  0  0  0  0  0  0  0  0
   -1.4150   -1.6510   -0.2850 H   0  0  0  0  0  0  0  0  0  0  0  0
   -2.7380   -1.9690   -1.5120 H   0  0  0  0  0  0  0  0  0  0  0  0
   -1.2000   -2.8210   -3.0610 H   0  0  0  0  0  0  0  0  0  0  0  0
    0.1240   -4.5480   -1.4610 H   0  0  0  0  0  0  0  0  0  0  0  0
   -1.6610   -4.4870   -1.4940 H   0  0  0  0  0  0  0  0  0  0  0  0
   -0.7670   -3.6170   -0.1570 H   0  0  0  0  0  0  0  0  0  0  0  0
    0.6310   -1.2380   -2.9570 H   0  0  0  0  0  0  0  0  0  0  0  0
    0.8620   -3.5510   -3.7390 H   0  0  0  0  0  0  0  0  0  0  0  0
    2.2330   -2.6600   -3.3540 H   0  0  0  0  0  0  0  0  0  0  0  0
    3.5910    1.0990    1.8730 C   0  0  0  0  0  0  0  0  0  0  0  0
    2.7330    0.7580    0.6800 C   0  0  1  0  0  0  0  0  0  0  0  0
    3.5660    0.3120   -0.3310 O   0  0  0  0  0  0  0  0  0  0  0  0
    1.7720   -0.3810    1.0340 C   0  0  2  0  0  0  0  0  0  0  0  0
    1.0510   -0.6570   -0.1930 N   0  0  0  0  0  0  0  0  0  0  0  0
    0.9520   -0.0460    2.1880 C   0  0  0  0  0  0  0  0  0  0  0  0
    1.5160    0.1520    3.3170 O   0  0  0  0  0  0  0  0  0  0  0  0
    4.4950    1.6150    1.5160 H   0  0  0  0  0  0  0  0  0  0  0  0
    3.9050    0.1560    2.3720 H   0  0  0  0  0  0  0  0  0  0  0  0
    3.0150    1.7720    2.5260 H   0  0  0  0  0  0  0  0  0  0  0  0
    2.1470    1.6220    0.3230 H   0  0  0  0  0  0  0  0  0  0  0  0
    4.3360    0.9250   -0.4390 H   0  0  0  0  0  0  0  0  0  0  0  0
    2.4270   -1.2440    1.2650 H   0  0  0  0  0  0  0  0  0  0  0  0
    0.3060    0.0050   -0.4710 H   0  0  0  0  0  0  0  0  0  0  0  0
   -1.1460    2.9270    3.3760 C   0  0  0  0  0  0  0  0  0  0  0  0
   -1.9970    1.6710    3.3780 C   0  0  1  0  0  0  0  0  0  0  0  0
   -2.9730    1.6960    2.3920 O   0  0  0  0  0  0  0  0  0  0  0  0
   -1.1870    0.4270    3.4090 C   0  0  2  0  0  0  0  0  0  0  0  0
   -0.4500    0.1000    2.2440 N   0  0  0  0  0  0  0  0  0  0  0  0
   -2.0780   -0.7150    3.8180 C   0  0  0  0  0  0  0  0  0  0  0  0
   -2.1190   -1.7940    3.1690 O   0  0  0  0  0  0  0  0  0  0  0  0
   -2.8970   -0.6240    4.9350 O   0  0  0  0  0  0  0  0  0  0  0  0
   -1.6990    3.8060    3.7690 H   0  0  0  0  0  0  0  0  0  0  0  0
   -0.8100    3.1960    2.3580 H   0  0  0  0  0  0  0  0  0  0  0  0
   -0.3100    2.7490    4.0850 H   0  0  0  0  0  0  0  0  0  0  0  0
   -2.5630    1.6950    4.3410 H   0  0  0  0  0  0  0  0  0  0  0  0
   -2.7590    2.4370    1.7760 H   0  0  0  0  0  0  0  0  0  0  0  0
   -0.4550    0.5380    4.2390 H   0  0  0  0  0  0  0  0  0  0  0  0
   -0.9840   -0.0380    1.3610 H   0  0  0  0  0  0  0  0  0  0  0  0
  1  9  1  0  0  0  0
  2  1  1  0  0  0  0
  2  3  1  0  0  0  0
  3 14  1  0  0  0  0
  4 15  1  6  0  0  0
  4  2  1  0  0  0  0
  4  6  1  0  0  0  0
  5  4  1  0  0  0  0
  6  7  2  0  0  0  0
  6 22  1  0  0  0  0
  8  1  1  0  0  0  0
 10  1  1  0  0  0  0
 11  2  1  0  0  0  0
 12  3  1  0  0  0  0
 13  3  1  0  0  0  0
 16  5  1  0  0  0  0
 17  5  1  0  0  0  0
 18 26  1  0  0  0  0
 18 27  1  0  0  0  0
 19 28  1  6  0  0  0
 19 21  1  0  0  0  0
 19 18  1  0  0  0  0
 20 19  1  0  0  0  0
 21 30  1  1  0  0  0
 21 23  1  0  0  0  0
 22 21  1  0  0  0  0
 23 36  1  0  0  0  0
 23 24  2  0  0  0  0
 25 18  1  0  0  0  0
 29 20  1  0  0  0  0
 31 22  1  0  0  0  0
 32 33  1  0  0  0  0
 32 40  1  0  0  0  0
 32 42  1  0  0  0  0
 33 35  1  0  0  0  0
 33 43  1  1  0  0  0
 34 33  1  0  0  0  0
 35 37  1  0  0  0  0
 35 45  1  1  0  0  0
 36 35  1  0  0  0  0
 37 39  1  0  0  0  0
 38 37  2  0  0  0  0
 41 32  1  0  0  0  0
 44 34  1  0  0  0  0
 46 36  1  0  0  0  0
M  END
$$$$
