VTV.pdb
 OpenBabel07022419273D

 48 47  0  0  1  0  0  0  0  0999 V2000
    0.0410   -3.9310    0.2130 C   0  0  0  0  0  0  0  0  0  0  0  0
    1.5340   -4.0080    0.1770 C   0  0  0  0  0  0  0  0  0  0  0  0
    2.1560   -3.8920    1.5480 C   0  0  0  0  0  0  0  0  0  0  0  0
    2.1190   -3.1060   -0.8340 C   0  0  2  0  0  0  0  0  0  0  0  0
    3.6030   -3.2870   -0.7940 N   0  0  0  0  0  0  0  0  0  0  0  0
    1.8900   -1.6810   -0.7450 C   0  0  0  0  0  0  0  0  0  0  0  0
    2.9070   -0.9420   -0.4640 O   0  0  0  0  0  0  0  0  0  0  0  0
   -0.4200   -3.7870   -0.7760 H   0  0  0  0  0  0  0  0  0  0  0  0
   -0.3360   -3.2730    1.0030 H   0  0  0  0  0  0  0  0  0  0  0  0
   -0.3430   -4.9620    0.5240 H   0  0  0  0  0  0  0  0  0  0  0  0
    1.7880   -5.0600   -0.1610 H   0  0  0  0  0  0  0  0  0  0  0  0
    2.6730   -2.9110    1.6850 H   0  0  0  0  0  0  0  0  0  0  0  0
    2.9340   -4.6620    1.7360 H   0  0  0  0  0  0  0  0  0  0  0  0
    1.3690   -4.0610    2.3150 H   0  0  0  0  0  0  0  0  0  0  0  0
    1.8510   -3.4480   -1.8600 H   0  0  0  0  0  0  0  0  0  0  0  0
    3.9380   -2.6260   -0.0320 H   0  0  0  0  0  0  0  0  0  0  0  0
    3.9250   -2.8300   -1.6880 H   0  0  0  0  0  0  0  0  0  0  0  0
    0.3920    2.6310   -2.0380 C   0  0  0  0  0  0  0  0  0  0  0  0
    0.3490    1.1280   -2.1680 C   0  0  1  0  0  0  0  0  0  0  0  0
    1.4560    0.7770   -2.9740 O   0  0  0  0  0  0  0  0  0  0  0  0
    0.5870    0.4700   -0.8240 C   0  0  2  0  0  0  0  0  0  0  0  0
    0.6830   -0.9600   -0.9290 N   0  0  0  0  0  0  0  0  0  0  0  0
   -0.3960    0.8910    0.1850 C   0  0  0  0  0  0  0  0  0  0  0  0
   -0.5230    2.1280    0.3730 O   0  0  0  0  0  0  0  0  0  0  0  0
   -0.5950    3.0710   -1.8230 H   0  0  0  0  0  0  0  0  0  0  0  0
    1.1780    2.9640   -1.3290 H   0  0  0  0  0  0  0  0  0  0  0  0
    0.7170    3.0230   -3.0420 H   0  0  0  0  0  0  0  0  0  0  0  0
   -0.6050    0.8420   -2.6260 H   0  0  0  0  0  0  0  0  0  0  0  0
    2.2610    1.0470   -2.4480 H   0  0  0  0  0  0  0  0  0  0  0  0
    1.5960    0.8360   -0.4960 H   0  0  0  0  0  0  0  0  0  0  0  0
   -0.1740   -1.4850   -1.1540 H   0  0  0  0  0  0  0  0  0  0  0  0
   -2.7710    0.3540    4.3480 C   0  0  0  0  0  0  0  0  0  0  0  0
   -1.7140    0.0450    3.3160 C   0  0  0  0  0  0  0  0  0  0  0  0
   -0.4860    0.8420    3.6810 C   0  0  0  0  0  0  0  0  0  0  0  0
   -2.1740    0.2730    1.9200 C   0  0  2  0  0  0  0  0  0  0  0  0
   -1.1810   -0.0190    0.9280 N   0  0  0  0  0  0  0  0  0  0  0  0
   -2.9950    1.4700    1.6980 C   0  0  0  0  0  0  0  0  0  0  0  0
   -2.9320    2.1210    0.6460 O   0  0  0  0  0  0  0  0  0  0  0  0
   -3.8960    1.9550    2.6450 O   0  0  0  0  0  0  0  0  0  0  0  0
   -3.7960    0.0870    4.0240 H   0  0  0  0  0  0  0  0  0  0  0  0
   -2.5400   -0.2000    5.2990 H   0  0  0  0  0  0  0  0  0  0  0  0
   -2.7630    1.4280    4.6050 H   0  0  0  0  0  0  0  0  0  0  0  0
   -1.5130   -1.0620    3.4160 H   0  0  0  0  0  0  0  0  0  0  0  0
   -0.4110    1.0180    4.7750 H   0  0  0  0  0  0  0  0  0  0  0  0
    0.3970    0.1910    3.4230 H   0  0  0  0  0  0  0  0  0  0  0  0
   -0.4340    1.8060    3.1770 H   0  0  0  0  0  0  0  0  0  0  0  0
   -2.9630   -0.5720    1.7280 H   0  0  0  0  0  0  0  0  0  0  0  0
   -0.9630   -1.0480    0.6720 H   0  0  0  0  0  0  0  0  0  0  0  0
  1 10  1  0  0  0  0
  1  9  1  0  0  0  0
  2  1  1  0  0  0  0
  2  3  1  0  0  0  0
  3 12  1  0  0  0  0
  3 13  1  0  0  0  0
  3 14  1  0  0  0  0
  4 15  1  6  0  0  0
  4  5  1  0  0  0  0
  4  6  1  0  0  0  0
  4  2  1  0  0  0  0
  5 16  1  0  0  0  0
  6  7  2  0  0  0  0
  8  1  1  0  0  0  0
 11  2  1  0  0  0  0
 17  5  1  0  0  0  0
 18 25  1  0  0  0  0
 18 26  1  0  0  0  0
 19 28  1  6  0  0  0
 19 18  1  0  0  0  0
 19 21  1  0  0  0  0
 20 29  1  0  0  0  0
 20 19  1  0  0  0  0
 21 30  1  1  0  0  0
 21 23  1  0  0  0  0
 22 21  1  0  0  0  0
 22  6  1  0  0  0  0
 23 24  2  0  0  0  0
 23 36  1  0  0  0  0
 27 18  1  0  0  0  0
 31 22  1  0  0  0  0
 32 42  1  0  0  0  0
 32 41  1  0  0  0  0
 33 43  1  0  0  0  0
 33 34  1  0  0  0  0
 33 32  1  0  0  0  0
 34 44  1  0  0  0  0
 35 47  1  6  0  0  0
 35 33  1  0  0  0  0
 36 35  1  0  0  0  0
 37 35  1  0  0  0  0
 37 39  1  0  0  0  0
 38 37  2  0  0  0  0
 40 32  1  0  0  0  0
 45 34  1  0  0  0  0
 46 34  1  0  0  0  0
 48 36  1  0  0  0  0
M  END
$$$$
