VVA.pdb
 OpenBabel07022419283D

 44 43  0  0  1  0  0  0  0  0999 V2000
    0.8210   -2.2770    4.0920 C   0  0  0  0  0  0  0  0  0  0  0  0
    2.0030   -2.8370    3.3320 C   0  0  0  0  0  0  0  0  0  0  0  0
    1.5100   -3.9780    2.4950 C   0  0  0  0  0  0  0  0  0  0  0  0
    2.7020   -1.7690    2.5470 C   0  0  2  0  0  0  0  0  0  0  0  0
    3.1630   -0.7640    3.4780 N   0  0  0  0  0  0  0  0  0  0  0  0
    1.8360   -1.1640    1.5000 C   0  0  0  0  0  0  0  0  0  0  0  0
    1.3200   -1.8410    0.5840 O   0  0  0  0  0  0  0  0  0  0  0  0
    1.2200   -1.8350    5.0520 H   0  0  0  0  0  0  0  0  0  0  0  0
    0.1090   -3.1060    4.3470 H   0  0  0  0  0  0  0  0  0  0  0  0
    0.2790   -1.4920    3.5250 H   0  0  0  0  0  0  0  0  0  0  0  0
    2.7220   -3.2420    4.0730 H   0  0  0  0  0  0  0  0  0  0  0  0
    1.2250   -4.8000    3.1850 H   0  0  0  0  0  0  0  0  0  0  0  0
    0.6060   -3.7290    1.9100 H   0  0  0  0  0  0  0  0  0  0  0  0
    2.3300   -4.3790    1.8570 H   0  0  0  0  0  0  0  0  0  0  0  0
    3.5960   -2.1920    2.0570 H   0  0  0  0  0  0  0  0  0  0  0  0
    2.3340   -0.3750    3.9750 H   0  0  0  0  0  0  0  0  0  0  0  0
    3.7580   -0.0340    3.0660 H   0  0  0  0  0  0  0  0  0  0  0  0
    0.7600    2.0310   -1.6910 C   0  0  0  0  0  0  0  0  0  0  0  0
    1.5080    1.3020   -0.6340 C   0  0  0  0  0  0  0  0  0  0  0  0
    2.4020    0.2120   -1.2090 C   0  0  0  0  0  0  0  0  0  0  0  0
    0.7380    0.9230    0.5600 C   0  0  2  0  0  0  0  0  0  0  0  0
    1.5890    0.2200    1.5410 N   0  0  0  0  0  0  0  0  0  0  0  0
   -0.5740    0.3020    0.4490 C   0  0  0  0  0  0  0  0  0  0  0  0
   -0.8490   -0.7710    1.1230 O   0  0  0  0  0  0  0  0  0  0  0  0
    0.1630    1.4160   -2.3750 H   0  0  0  0  0  0  0  0  0  0  0  0
    0.2510    2.9110   -1.2530 H   0  0  0  0  0  0  0  0  0  0  0  0
    1.4970    2.5400   -2.4200 H   0  0  0  0  0  0  0  0  0  0  0  0
    2.3030    2.0620   -0.2900 H   0  0  0  0  0  0  0  0  0  0  0  0
    3.1170   -0.0700   -0.4420 H   0  0  0  0  0  0  0  0  0  0  0  0
    3.0210    0.7540   -1.9910 H   0  0  0  0  0  0  0  0  0  0  0  0
    1.8850   -0.5660   -1.7530 H   0  0  0  0  0  0  0  0  0  0  0  0
    0.4940    1.9000    1.1120 H   0  0  0  0  0  0  0  0  0  0  0  0
    2.0510    0.7800    2.3290 H   0  0  0  0  0  0  0  0  0  0  0  0
   -4.0970    0.9140   -0.0070 C   0  0  0  0  0  0  0  0  0  0  0  0
   -2.9540    0.0050   -0.3680 C   0  0  2  0  0  0  0  0  0  0  0  0
   -1.6760    0.7240   -0.3360 N   0  0  0  0  0  0  0  0  0  0  0  0
   -3.2140   -0.5190   -1.7320 C   0  0  0  0  0  0  0  0  0  0  0  0
   -2.3770   -0.3060   -2.6370 O   0  0  0  0  0  0  0  0  0  0  0  0
   -4.3540   -1.2350   -2.0260 O   0  0  0  0  0  0  0  0  0  0  0  0
   -5.0260    0.6150   -0.5270 H   0  0  0  0  0  0  0  0  0  0  0  0
   -3.8480    1.9720   -0.2930 H   0  0  0  0  0  0  0  0  0  0  0  0
   -4.3270    0.9320    1.0700 H   0  0  0  0  0  0  0  0  0  0  0  0
   -2.8690   -0.8650    0.3010 H   0  0  0  0  0  0  0  0  0  0  0  0
   -1.5820    1.5740   -0.8920 H   0  0  0  0  0  0  0  0  0  0  0  0
  1  9  1  0  0  0  0
  1  8  1  0  0  0  0
  2 11  1  0  0  0  0
  2  1  1  0  0  0  0
  3 12  1  0  0  0  0
  3  2  1  0  0  0  0
  4 15  1  6  0  0  0
  4  2  1  0  0  0  0
  4  5  1  0  0  0  0
  5 16  1  0  0  0  0
  6 22  1  0  0  0  0
  6  4  1  0  0  0  0
  7  6  2  0  0  0  0
 10  1  1  0  0  0  0
 13  3  1  0  0  0  0
 14  3  1  0  0  0  0
 17  5  1  0  0  0  0
 18 26  1  0  0  0  0
 18 19  1  0  0  0  0
 19 28  1  0  0  0  0
 19 21  1  0  0  0  0
 20 19  1  0  0  0  0
 20 29  1  0  0  0  0
 21 32  1  1  0  0  0
 21 22  1  0  0  0  0
 22 33  1  0  0  0  0
 23 21  1  0  0  0  0
 23 24  2  0  0  0  0
 25 18  1  0  0  0  0
 27 18  1  0  0  0  0
 30 20  1  0  0  0  0
 31 20  1  0  0  0  0
 34 42  1  0  0  0  0
 35 36  1  0  0  0  0
 35 34  1  0  0  0  0
 35 43  1  1  0  0  0
 36 23  1  0  0  0  0
 37 35  1  0  0  0  0
 38 37  2  0  0  0  0
 39 37  1  0  0  0  0
 40 34  1  0  0  0  0
 41 34  1  0  0  0  0
 44 36  1  0  0  0  0
M  END
$$$$
