VVC.pdb
 OpenBabel07022419283D

 45 44  0  0  1  0  0  0  0  0999 V2000
    3.5140   -1.7840    2.4720 C   0  0  0  0  0  0  0  0  0  0  0  0
    2.2670   -2.5100    2.8630 C   0  0  0  0  0  0  0  0  0  0  0  0
    2.0950   -3.7810    2.0550 C   0  0  0  0  0  0  0  0  0  0  0  0
    1.0200   -1.6690    2.8510 C   0  0  2  0  0  0  0  0  0  0  0  0
   -0.0560   -2.5920    3.2700 N   0  0  0  0  0  0  0  0  0  0  0  0
    0.6460   -1.1620    1.5110 C   0  0  0  0  0  0  0  0  0  0  0  0
   -0.3610   -1.6220    0.9050 O   0  0  0  0  0  0  0  0  0  0  0  0
    3.6720   -1.7020    1.3760 H   0  0  0  0  0  0  0  0  0  0  0  0
    4.3700   -2.4470    2.8120 H   0  0  0  0  0  0  0  0  0  0  0  0
    3.6390   -0.8620    3.0370 H   0  0  0  0  0  0  0  0  0  0  0  0
    2.4010   -2.8420    3.9240 H   0  0  0  0  0  0  0  0  0  0  0  0
    1.0610   -4.1360    2.2400 H   0  0  0  0  0  0  0  0  0  0  0  0
    2.3570   -3.6730    1.0030 H   0  0  0  0  0  0  0  0  0  0  0  0
    2.7750   -4.5420    2.4900 H   0  0  0  0  0  0  0  0  0  0  0  0
    1.0970   -0.9090    3.6270 H   0  0  0  0  0  0  0  0  0  0  0  0
   -0.7950   -2.6720    2.5440 H   0  0  0  0  0  0  0  0  0  0  0  0
   -0.5080   -2.2710    4.1480 H   0  0  0  0  0  0  0  0  0  0  0  0
    1.2700    0.3210   -2.9230 C   0  0  0  0  0  0  0  0  0  0  0  0
    1.6170   -0.3410   -1.6080 C   0  0  0  0  0  0  0  0  0  0  0  0
    1.1440   -1.7750   -1.6800 C   0  0  0  0  0  0  0  0  0  0  0  0
    1.1190    0.4170   -0.4310 C   0  0  2  0  0  0  0  0  0  0  0  0
    1.4030   -0.1380    0.8520 N   0  0  0  0  0  0  0  0  0  0  0  0
   -0.2560    0.9620   -0.5680 C   0  0  0  0  0  0  0  0  0  0  0  0
   -0.6860    1.2820   -1.6970 O   0  0  0  0  0  0  0  0  0  0  0  0
    2.0570    0.0050   -3.6600 H   0  0  0  0  0  0  0  0  0  0  0  0
    1.3220    1.4250   -2.8760 H   0  0  0  0  0  0  0  0  0  0  0  0
    0.2960   -0.0410   -3.3380 H   0  0  0  0  0  0  0  0  0  0  0  0
    2.7480   -0.4160   -1.5860 H   0  0  0  0  0  0  0  0  0  0  0  0
    0.0440   -1.8130   -1.7810 H   0  0  0  0  0  0  0  0  0  0  0  0
    1.5480   -2.4110   -0.8700 H   0  0  0  0  0  0  0  0  0  0  0  0
    1.5230   -2.2660   -2.6250 H   0  0  0  0  0  0  0  0  0  0  0  0
    1.7420    1.4020   -0.4410 H   0  0  0  0  0  0  0  0  0  0  0  0
    2.2370    0.1940    1.4310 H   0  0  0  0  0  0  0  0  0  0  0  0
   -1.0460    1.1090    0.5900 N   0  0  0  0  0  0  0  0  0  0  0  0
   -2.4160    1.6400    0.4900 C   0  0  1  0  0  0  0  0  0  0  0  0
   -3.3630    0.5370    0.9810 C   0  0  0  0  0  0  0  0  0  0  0  0
   -5.0660    1.1290    0.8830 S   0  0  0  0  0  0  0  0  0  0  0  0
   -2.5650    2.8430    1.3260 C   0  0  0  0  0  0  0  0  0  0  0  0
   -1.5730    3.2480    1.9810 O   0  0  0  0  0  0  0  0  0  0  0  0
   -3.7850    3.4920    1.3690 O   0  0  0  0  0  0  0  0  0  0  0  0
   -0.7540    0.8920    1.5620 H   0  0  0  0  0  0  0  0  0  0  0  0
   -2.6300    1.8580   -0.5680 H   0  0  0  0  0  0  0  0  0  0  0  0
   -3.2800   -0.3250    0.2720 H   0  0  0  0  0  0  0  0  0  0  0  0
   -3.0750    0.1920    1.9780 H   0  0  0  0  0  0  0  0  0  0  0  0
   -5.9300    0.4210    1.7110 H   0  0  0  0  0  0  0  0  0  0  0  0
  1  9  1  0  0  0  0
  1  2  1  0  0  0  0
  1 10  1  0  0  0  0
  2 11  1  0  0  0  0
  3 12  1  0  0  0  0
  3 14  1  0  0  0  0
  3  2  1  0  0  0  0
  4  2  1  0  0  0  0
  4  5  1  0  0  0  0
  4 15  1  1  0  0  0
  5 17  1  0  0  0  0
  6  4  1  0  0  0  0
  7  6  2  0  0  0  0
  8  1  1  0  0  0  0
 13  3  1  0  0  0  0
 16  5  1  0  0  0  0
 18 26  1  0  0  0  0
 18 19  1  0  0  0  0
 19 28  1  0  0  0  0
 19 21  1  0  0  0  0
 20 19  1  0  0  0  0
 20 30  1  0  0  0  0
 21 32  1  6  0  0  0
 21 22  1  0  0  0  0
 22 33  1  0  0  0  0
 22  6  1  0  0  0  0
 23 21  1  0  0  0  0
 23 34  1  0  0  0  0
 24 23  2  0  0  0  0
 25 18  1  0  0  0  0
 27 18  1  0  0  0  0
 29 20  1  0  0  0  0
 31 20  1  0  0  0  0
 34 41  1  0  0  0  0
 35 42  1  6  0  0  0
 35 34  1  0  0  0  0
 35 36  1  0  0  0  0
 35 38  1  0  0  0  0
 36 44  1  0  0  0  0
 37 36  1  0  0  0  0
 37 45  1  0  0  0  0
 38 40  2  0  0  0  0
 38 39  1  0  0  0  0
 43 36  1  0  0  0  0
M  END
$$$$
