VVD.pdb
 OpenBabel07022419283D

 47 46  0  0  1  0  0  0  0  0999 V2000
   -1.1450   -4.3360    3.2900 C   0  0  0  0  0  0  0  0  0  0  0  0
   -0.2070   -3.2100    2.9060 C   0  0  0  0  0  0  0  0  0  0  0  0
   -0.9740   -1.9120    3.1010 C   0  0  0  0  0  0  0  0  0  0  0  0
    0.1600   -3.4280    1.4340 C   0  0  2  0  0  0  0  0  0  0  0  0
    0.7800   -4.7290    1.3780 N   0  0  0  0  0  0  0  0  0  0  0  0
    1.1960   -2.4170    1.0370 C   0  0  0  0  0  0  0  0  0  0  0  0
    2.3870   -2.7380    1.1100 O   0  0  0  0  0  0  0  0  0  0  0  0
   -1.3010   -4.3730    4.3990 H   0  0  0  0  0  0  0  0  0  0  0  0
   -2.0600   -4.2370    2.7180 H   0  0  0  0  0  0  0  0  0  0  0  0
   -0.6670   -5.3130    3.0160 H   0  0  0  0  0  0  0  0  0  0  0  0
    0.6740   -3.2420    3.5310 H   0  0  0  0  0  0  0  0  0  0  0  0
   -0.2200   -1.0930    3.0110 H   0  0  0  0  0  0  0  0  0  0  0  0
   -1.7360   -1.8240    2.3060 H   0  0  0  0  0  0  0  0  0  0  0  0
   -1.4580   -1.9010    4.1100 H   0  0  0  0  0  0  0  0  0  0  0  0
   -0.7410   -3.4200    0.8320 H   0  0  0  0  0  0  0  0  0  0  0  0
    1.2570   -4.9470    2.2770 H   0  0  0  0  0  0  0  0  0  0  0  0
    0.1520   -5.4950    1.0520 H   0  0  0  0  0  0  0  0  0  0  0  0
    3.6280   -0.9790   -0.7460 C   0  0  0  0  0  0  0  0  0  0  0  0
    2.4730   -0.0800   -1.0070 C   0  0  0  0  0  0  0  0  0  0  0  0
    3.0090    1.2850   -1.3700 C   0  0  0  0  0  0  0  0  0  0  0  0
    1.5500    0.0210    0.1980 C   0  0  2  0  0  0  0  0  0  0  0  0
    0.8570   -1.1290    0.5960 N   0  0  0  0  0  0  0  0  0  0  0  0
    0.7510    1.2440    0.1130 C   0  0  0  0  0  0  0  0  0  0  0  0
    1.3860    2.3670   -0.0600 O   0  0  0  0  0  0  0  0  0  0  0  0
    3.9180   -0.9900    0.3280 H   0  0  0  0  0  0  0  0  0  0  0  0
    4.6040   -0.4510   -1.1740 H   0  0  0  0  0  0  0  0  0  0  0  0
    3.6140   -1.9780   -1.1570 H   0  0  0  0  0  0  0  0  0  0  0  0
    1.8840   -0.3960   -1.9180 H   0  0  0  0  0  0  0  0  0  0  0  0
    2.3620    1.8920   -2.0030 H   0  0  0  0  0  0  0  0  0  0  0  0
    3.5090    1.8130   -0.5440 H   0  0  0  0  0  0  0  0  0  0  0  0
    3.8910    1.0330   -2.0780 H   0  0  0  0  0  0  0  0  0  0  0  0
    2.3520    0.1960    1.0330 H   0  0  0  0  0  0  0  0  0  0  0  0
   -0.2440   -1.0110    0.5990 H   0  0  0  0  0  0  0  0  0  0  0  0
   -0.6380    1.3640    0.1880 N   0  0  0  0  0  0  0  0  0  0  0  0
   -1.3250    2.6980    0.0520 C   0  0  1  0  0  0  0  0  0  0  0  0
   -2.3370    2.5250   -1.0860 C   0  0  0  0  0  0  0  0  0  0  0  0
   -3.3490    1.4900   -0.6940 C   0  0  0  0  0  0  0  0  0  0  0  0
   -4.1250    1.7330    0.2520 O   0  0  0  0  0  0  0  0  0  0  0  0
   -2.0780    2.9780    1.2610 C   0  0  0  0  0  0  0  0  0  0  0  0
   -2.7410    4.0110    1.4800 O   0  0  0  0  0  0  0  0  0  0  0  0
   -3.4140    0.3010   -1.3720 O   0  0  0  0  0  0  0  0  0  0  0  0
   -2.0730    1.9990    2.2850 O   0  0  0  0  0  0  0  0  0  0  0  0
   -1.2400    0.5440    0.3340 H   0  0  0  0  0  0  0  0  0  0  0  0
   -0.6070    3.4360   -0.2170 H   0  0  0  0  0  0  0  0  0  0  0  0
   -2.7860    3.4510   -1.3620 H   0  0  0  0  0  0  0  0  0  0  0  0
   -1.7630    2.1190   -1.9850 H   0  0  0  0  0  0  0  0  0  0  0  0
   -4.1300   -0.3890   -1.1800 H   0  0  0  0  0  0  0  0  0  0  0  0
  1  8  1  0  0  0  0
  2  3  1  0  0  0  0
  2  1  1  0  0  0  0
  2 11  1  0  0  0  0
  3 14  1  0  0  0  0
  4 15  1  6  0  0  0
  4  2  1  0  0  0  0
  5  4  1  0  0  0  0
  5 16  1  0  0  0  0
  6  7  2  0  0  0  0
  6  4  1  0  0  0  0
  9  1  1  0  0  0  0
 10  1  1  0  0  0  0
 12  3  1  0  0  0  0
 13  3  1  0  0  0  0
 17  5  1  0  0  0  0
 18 25  1  0  0  0  0
 19 18  1  0  0  0  0
 19 21  1  0  0  0  0
 20 19  1  0  0  0  0
 20 30  1  0  0  0  0
 21 22  1  0  0  0  0
 21 32  1  1  0  0  0
 22 33  1  0  0  0  0
 22  6  1  0  0  0  0
 23 34  1  0  0  0  0
 23 21  1  0  0  0  0
 24 23  2  0  0  0  0
 26 18  1  0  0  0  0
 27 18  1  0  0  0  0
 28 19  1  0  0  0  0
 29 20  1  0  0  0  0
 31 20  1  0  0  0  0
 34 43  1  0  0  0  0
 35 44  1  6  0  0  0
 35 34  1  0  0  0  0
 35 39  1  0  0  0  0
 36 37  1  0  0  0  0
 36 35  1  0  0  0  0
 37 38  2  0  0  0  0
 39 40  2  0  0  0  0
 39 42  1  0  0  0  0
 41 47  1  0  0  0  0
 41 37  1  0  0  0  0
 45 36  1  0  0  0  0
 46 36  1  0  0  0  0
M  END
$$$$
