VVE.pdb
 OpenBabel07022419283D

 50 49  0  0  1  0  0  0  0  0999 V2000
    1.3750   -4.5430    2.6530 C   0  0  0  0  0  0  0  0  0  0  0  0
    0.8380   -4.4920    1.2330 C   0  0  0  0  0  0  0  0  0  0  0  0
   -0.0960   -5.6690    0.9710 C   0  0  0  0  0  0  0  0  0  0  0  0
    0.0130   -3.2450    1.0950 C   0  0  2  0  0  0  0  0  0  0  0  0
   -0.5360   -3.1220   -0.2300 N   0  0  0  0  0  0  0  0  0  0  0  0
    0.7360   -2.0110    1.5110 C   0  0  0  0  0  0  0  0  0  0  0  0
    1.3010   -1.9580    2.6450 O   0  0  0  0  0  0  0  0  0  0  0  0
    0.6310   -4.0840    3.3390 H   0  0  0  0  0  0  0  0  0  0  0  0
    1.4600   -5.6340    2.9140 H   0  0  0  0  0  0  0  0  0  0  0  0
    2.3800   -4.0550    2.7150 H   0  0  0  0  0  0  0  0  0  0  0  0
    1.6870   -4.5180    0.5040 H   0  0  0  0  0  0  0  0  0  0  0  0
   -0.6770   -5.9180    1.8870 H   0  0  0  0  0  0  0  0  0  0  0  0
   -0.8530   -5.4080    0.1840 H   0  0  0  0  0  0  0  0  0  0  0  0
    0.4530   -6.5520    0.5910 H   0  0  0  0  0  0  0  0  0  0  0  0
   -0.8740   -3.3860    1.7820 H   0  0  0  0  0  0  0  0  0  0  0  0
    0.1550   -2.9890   -0.9760 H   0  0  0  0  0  0  0  0  0  0  0  0
   -1.2710   -2.3840   -0.2930 H   0  0  0  0  0  0  0  0  0  0  0  0
    3.5870   -0.2380   -0.2390 C   0  0  0  0  0  0  0  0  0  0  0  0
    2.4590    0.7530   -0.0740 C   0  0  0  0  0  0  0  0  0  0  0  0
    3.0430    2.0750    0.4090 C   0  0  0  0  0  0  0  0  0  0  0  0
    1.4310    0.3130    0.9050 C   0  0  2  0  0  0  0  0  0  0  0  0
    0.7690   -0.9130    0.6090 N   0  0  0  0  0  0  0  0  0  0  0  0
    0.4220    1.4050    1.0950 C   0  0  0  0  0  0  0  0  0  0  0  0
    0.7070    2.5890    1.3310 O   0  0  0  0  0  0  0  0  0  0  0  0
    4.3110   -0.0460    0.5690 H   0  0  0  0  0  0  0  0  0  0  0  0
    4.1310   -0.0080   -1.2030 H   0  0  0  0  0  0  0  0  0  0  0  0
    3.2570   -1.2770   -0.3270 H   0  0  0  0  0  0  0  0  0  0  0  0
    2.0280    0.9480   -1.0750 H   0  0  0  0  0  0  0  0  0  0  0  0
    3.0010    2.1930    1.4950 H   0  0  0  0  0  0  0  0  0  0  0  0
    2.5400    2.9310   -0.0780 H   0  0  0  0  0  0  0  0  0  0  0  0
    4.1060    2.1090    0.0340 H   0  0  0  0  0  0  0  0  0  0  0  0
    1.8860    0.1950    1.9340 H   0  0  0  0  0  0  0  0  0  0  0  0
    0.2800   -1.0310   -0.3030 H   0  0  0  0  0  0  0  0  0  0  0  0
   -0.9840    1.0810    1.0050 N   0  0  0  0  0  0  0  0  0  0  0  0
   -1.9590    2.1130    1.1880 C   0  0  1  0  0  0  0  0  0  0  0  0
   -3.0680    1.9820    0.1950 C   0  0  0  0  0  0  0  0  0  0  0  0
   -2.7220    2.0670   -1.2430 C   0  0  0  0  0  0  0  0  0  0  0  0
   -1.7990    1.0370   -1.7410 C   0  0  0  0  0  0  0  0  0  0  0  0
   -0.5670    1.1800   -1.9070 O   0  0  0  0  0  0  0  0  0  0  0  0
   -2.6130    1.9880    2.5400 C   0  0  0  0  0  0  0  0  0  0  0  0
   -3.4900    2.7880    2.8880 O   0  0  0  0  0  0  0  0  0  0  0  0
   -2.2930   -0.2370   -2.0740 O   0  0  0  0  0  0  0  0  0  0  0  0
   -2.2120    0.9720    3.3620 O   0  0  0  0  0  0  0  0  0  0  0  0
   -1.2950    0.1210    0.8120 H   0  0  0  0  0  0  0  0  0  0  0  0
   -1.4780    3.1190    1.1230 H   0  0  0  0  0  0  0  0  0  0  0  0
   -3.5910    0.9960    0.3410 H   0  0  0  0  0  0  0  0  0  0  0  0
   -3.8860    2.7290    0.3780 H   0  0  0  0  0  0  0  0  0  0  0  0
   -2.4130    3.0950   -1.5640 H   0  0  0  0  0  0  0  0  0  0  0  0
   -3.6870    1.9070   -1.8120 H   0  0  0  0  0  0  0  0  0  0  0  0
   -1.7180   -0.8770   -2.6260 H   0  0  0  0  0  0  0  0  0  0  0  0
  1 10  1  0  0  0  0
  1  9  1  0  0  0  0
  1  8  1  0  0  0  0
  2  1  1  0  0  0  0
  3  2  1  0  0  0  0
  3 12  1  0  0  0  0
  4  2  1  0  0  0  0
  4  6  1  0  0  0  0
  4 15  1  1  0  0  0
  5  4  1  0  0  0  0
  6  7  2  0  0  0  0
 11  2  1  0  0  0  0
 13  3  1  0  0  0  0
 14  3  1  0  0  0  0
 16  5  1  0  0  0  0
 17  5  1  0  0  0  0
 18 19  1  0  0  0  0
 18 25  1  0  0  0  0
 19 20  1  0  0  0  0
 19 21  1  0  0  0  0
 20 29  1  0  0  0  0
 21 23  1  0  0  0  0
 21 32  1  1  0  0  0
 22 21  1  0  0  0  0
 22  6  1  0  0  0  0
 23 24  2  0  0  0  0
 26 18  1  0  0  0  0
 27 18  1  0  0  0  0
 28 19  1  0  0  0  0
 30 20  1  0  0  0  0
 31 20  1  0  0  0  0
 33 22  1  0  0  0  0
 34 23  1  0  0  0  0
 34 35  1  0  0  0  0
 35 45  1  6  0  0  0
 35 40  1  0  0  0  0
 36 46  1  0  0  0  0
 36 47  1  0  0  0  0
 36 35  1  0  0  0  0
 37 36  1  0  0  0  0
 38 37  1  0  0  0  0
 39 38  2  0  0  0  0
 40 41  2  0  0  0  0
 40 43  1  0  0  0  0
 42 38  1  0  0  0  0
 44 34  1  0  0  0  0
 48 37  1  0  0  0  0
 49 37  1  0  0  0  0
 50 42  1  0  0  0  0
M  END
$$$$
