VVH.pdb
 OpenBabel07022419283D

 51 51  0  0  1  0  0  0  0  0999 V2000
   -0.9440   -3.1720    4.7530 C   0  0  0  0  0  0  0  0  0  0  0  0
   -0.0280   -2.2150    3.9580 C   0  0  0  0  0  0  0  0  0  0  0  0
    0.0810   -0.9680    4.8110 C   0  0  0  0  0  0  0  0  0  0  0  0
   -0.6980   -1.9570    2.6250 C   0  0  2  0  0  0  0  0  0  0  0  0
   -0.8600   -3.2690    1.9530 N   0  0  0  0  0  0  0  0  0  0  0  0
    0.0410   -1.1080    1.7010 C   0  0  0  0  0  0  0  0  0  0  0  0
    0.4190   -1.6250    0.5990 O   0  0  0  0  0  0  0  0  0  0  0  0
   -2.0090   -3.0090    4.4980 H   0  0  0  0  0  0  0  0  0  0  0  0
   -0.7190   -4.2310    4.4800 H   0  0  0  0  0  0  0  0  0  0  0  0
   -0.8490   -3.0100    5.8410 H   0  0  0  0  0  0  0  0  0  0  0  0
    0.9360   -2.7210    3.8160 H   0  0  0  0  0  0  0  0  0  0  0  0
    0.1180   -1.2480    5.9110 H   0  0  0  0  0  0  0  0  0  0  0  0
   -0.8370   -0.3700    4.7080 H   0  0  0  0  0  0  0  0  0  0  0  0
    1.0260   -0.4060    4.6580 H   0  0  0  0  0  0  0  0  0  0  0  0
   -1.7040   -1.5200    2.7900 H   0  0  0  0  0  0  0  0  0  0  0  0
   -1.5730   -3.8370    2.4630 H   0  0  0  0  0  0  0  0  0  0  0  0
    0.0440   -3.7400    1.8360 H   0  0  0  0  0  0  0  0  0  0  0  0
    3.2240    1.0280    2.1520 C   0  0  0  0  0  0  0  0  0  0  0  0
    2.5970    0.7320    0.8030 C   0  0  0  0  0  0  0  0  0  0  0  0
    3.0340   -0.5430    0.2040 C   0  0  0  0  0  0  0  0  0  0  0  0
    1.1430    1.0110    0.9040 C   0  0  2  0  0  0  0  0  0  0  0  0
    0.4040    0.2590    1.8770 N   0  0  0  0  0  0  0  0  0  0  0  0
    0.4700    1.1950   -0.4010 C   0  0  0  0  0  0  0  0  0  0  0  0
    1.1700    1.7660   -1.2900 O   0  0  0  0  0  0  0  0  0  0  0  0
    4.2440    0.5520    2.2260 H   0  0  0  0  0  0  0  0  0  0  0  0
    3.2200    2.0960    2.3960 H   0  0  0  0  0  0  0  0  0  0  0  0
    2.6090    0.4930    2.9090 H   0  0  0  0  0  0  0  0  0  0  0  0
    3.0150    1.5490    0.1290 H   0  0  0  0  0  0  0  0  0  0  0  0
    3.0730   -1.4200    0.8700 H   0  0  0  0  0  0  0  0  0  0  0  0
    4.1360   -0.3910   -0.0730 H   0  0  0  0  0  0  0  0  0  0  0  0
    2.5570   -0.6970   -0.7710 H   0  0  0  0  0  0  0  0  0  0  0  0
    1.1190    2.1010    1.3200 H   0  0  0  0  0  0  0  0  0  0  0  0
    0.0760    0.6770    2.7880 H   0  0  0  0  0  0  0  0  0  0  0  0
   -0.8530    0.8020   -0.7220 N   0  0  0  0  0  0  0  0  0  0  0  0
   -1.4430    1.0230   -2.0050 C   0  0  1  0  0  0  0  0  0  0  0  0
   -2.2990   -0.0700   -2.5170 C   0  0  0  0  0  0  0  0  0  0  0  0
   -1.5610   -1.3260   -2.6700 C   0  0  0  0  0  0  0  0  0  0  0  0
   -0.8660   -1.7880   -3.7920 C   0  0  0  0  0  0  0  0  0  0  0  0
   -0.3520   -2.9880   -3.5100 N   0  0  0  0  0  0  0  0  0  0  0  0
   -0.6840   -3.3160   -2.2620 C   0  0  0  0  0  0  0  0  0  0  0  0
   -1.4120   -2.3100   -1.7630 N   0  0  0  0  0  0  0  0  0  0  0  0
   -2.2310    2.3150   -2.0160 C   0  0  0  0  0  0  0  0  0  0  0  0
   -2.3400    3.0780   -1.0570 O   0  0  0  0  0  0  0  0  0  0  0  0
   -2.8650    2.6360   -3.2050 O   0  0  0  0  0  0  0  0  0  0  0  0
   -1.4050    0.3330    0.0200 H   0  0  0  0  0  0  0  0  0  0  0  0
   -0.6290    1.2330   -2.7400 H   0  0  0  0  0  0  0  0  0  0  0  0
   -3.1060   -0.2590   -1.7480 H   0  0  0  0  0  0  0  0  0  0  0  0
   -2.7770    0.2650   -3.4750 H   0  0  0  0  0  0  0  0  0  0  0  0
   -0.7760   -1.2400   -4.7250 H   0  0  0  0  0  0  0  0  0  0  0  0
    0.2210   -3.5410   -4.2110 H   0  0  0  0  0  0  0  0  0  0  0  0
   -0.3950   -4.2430   -1.7760 H   0  0  0  0  0  0  0  0  0  0  0  0
  1 10  1  0  0  0  0
  2  1  1  0  0  0  0
  2  3  1  0  0  0  0
  3 12  1  0  0  0  0
  4 15  1  1  0  0  0
  4  2  1  0  0  0  0
  5 16  1  0  0  0  0
  5  4  1  0  0  0  0
  6 22  1  0  0  0  0
  6  4  1  0  0  0  0
  7  6  2  0  0  0  0
  8  1  1  0  0  0  0
  9  1  1  0  0  0  0
 11  2  1  0  0  0  0
 13  3  1  0  0  0  0
 14  3  1  0  0  0  0
 17  5  1  0  0  0  0
 18 25  1  0  0  0  0
 18 26  1  0  0  0  0
 18 27  1  0  0  0  0
 19 21  1  0  0  0  0
 19 18  1  0  0  0  0
 20 19  1  0  0  0  0
 20 29  1  0  0  0  0
 21 32  1  1  0  0  0
 21 22  1  0  0  0  0
 22 33  1  0  0  0  0
 23 21  1  0  0  0  0
 24 23  2  0  0  0  0
 28 19  1  0  0  0  0
 30 20  1  0  0  0  0
 31 20  1  0  0  0  0
 34 23  1  0  0  0  0
 34 45  1  0  0  0  0
 35 46  1  6  0  0  0
 35 34  1  0  0  0  0
 36 35  1  0  0  0  0
 36 47  1  0  0  0  0
 37 36  1  0  0  0  0
 37 41  1  0  0  0  0
 38 39  1  0  0  0  0
 38 37  2  0  0  0  0
 39 40  1  0  0  0  0
 40 51  1  0  0  0  0
 40 41  2  0  0  0  0
 42 35  1  0  0  0  0
 42 43  1  0  0  0  0
 44 42  2  0  0  0  0
 48 36  1  0  0  0  0
 49 38  1  0  0  0  0
 50 39  1  0  0  0  0
M  END
$$$$
