VVK.pdb
 OpenBabel07022419283D

 55 54  0  0  1  0  0  0  0  0999 V2000
    0.5270   -4.2010    0.9650 C   0  0  0  0  0  0  0  0  0  0  0  0
    1.5300   -4.3700    2.0560 C   0  0  0  0  0  0  0  0  0  0  0  0
    2.0050   -5.7990    2.1920 C   0  0  0  0  0  0  0  0  0  0  0  0
    2.7280   -3.4810    1.7860 C   0  0  2  0  0  0  0  0  0  0  0  0
    3.6510   -3.7220    2.9170 N   0  0  0  0  0  0  0  0  0  0  0  0
    2.3980   -2.0380    1.7860 C   0  0  0  0  0  0  0  0  0  0  0  0
    2.6140   -1.3600    2.8080 O   0  0  0  0  0  0  0  0  0  0  0  0
    0.9730   -4.2290   -0.0350 H   0  0  0  0  0  0  0  0  0  0  0  0
   -0.2710   -4.9840    1.0870 H   0  0  0  0  0  0  0  0  0  0  0  0
    0.0000   -3.2310    1.1830 H   0  0  0  0  0  0  0  0  0  0  0  0
    1.0840   -4.0070    2.9940 H   0  0  0  0  0  0  0  0  0  0  0  0
    1.2070   -6.4950    1.8450 H   0  0  0  0  0  0  0  0  0  0  0  0
    2.8550   -5.9560    1.4840 H   0  0  0  0  0  0  0  0  0  0  0  0
    2.3310   -6.0270    3.2250 H   0  0  0  0  0  0  0  0  0  0  0  0
    3.2580   -3.8170    0.8750 H   0  0  0  0  0  0  0  0  0  0  0  0
    3.2230   -4.2590    3.6750 H   0  0  0  0  0  0  0  0  0  0  0  0
    4.5360   -4.1460    2.5670 H   0  0  0  0  0  0  0  0  0  0  0  0
    3.9100    0.6340    0.5470 C   0  0  0  0  0  0  0  0  0  0  0  0
    2.5620    0.8610   -0.0880 C   0  0  0  0  0  0  0  0  0  0  0  0
    2.5560    0.5340   -1.5520 C   0  0  0  0  0  0  0  0  0  0  0  0
    1.5250    0.0520    0.6840 C   0  0  2  0  0  0  0  0  0  0  0  0
    1.8330   -1.3590    0.6450 N   0  0  0  0  0  0  0  0  0  0  0  0
    0.1540    0.3910    0.2490 C   0  0  0  0  0  0  0  0  0  0  0  0
   -0.2260    1.5740    0.3690 O   0  0  0  0  0  0  0  0  0  0  0  0
    4.3510   -0.3450    0.3630 H   0  0  0  0  0  0  0  0  0  0  0  0
    3.7980    0.8220    1.6550 H   0  0  0  0  0  0  0  0  0  0  0  0
    4.6490    1.4160    0.2240 H   0  0  0  0  0  0  0  0  0  0  0  0
    2.3210    1.9370    0.0160 H   0  0  0  0  0  0  0  0  0  0  0  0
    1.8540    1.1690   -2.1370 H   0  0  0  0  0  0  0  0  0  0  0  0
    2.2590   -0.5140   -1.7590 H   0  0  0  0  0  0  0  0  0  0  0  0
    3.5710    0.7580   -1.9870 H   0  0  0  0  0  0  0  0  0  0  0  0
    1.6420    0.3900    1.7300 H   0  0  0  0  0  0  0  0  0  0  0  0
    1.6770   -1.9700   -0.1830 H   0  0  0  0  0  0  0  0  0  0  0  0
   -0.7150   -0.5700   -0.2880 N   0  0  0  0  0  0  0  0  0  0  0  0
   -2.1120   -0.2680   -0.7370 C   0  0  1  0  0  0  0  0  0  0  0  0
   -2.9060    0.0580    0.4670 C   0  0  0  0  0  0  0  0  0  0  0  0
   -4.3220    0.3620    0.4840 C   0  0  0  0  0  0  0  0  0  0  0  0
   -4.8930    1.5200   -0.2270 C   0  0  0  0  0  0  0  0  0  0  0  0
   -4.2620    2.8410    0.1810 C   0  0  0  0  0  0  0  0  0  0  0  0
   -4.8880    3.9160   -0.5710 N   0  0  0  0  0  0  0  0  0  0  0  0
   -2.0240    0.7010   -1.8280 C   0  0  0  0  0  0  0  0  0  0  0  0
   -0.8840    1.2460   -2.1080 O   0  0  0  0  0  0  0  0  0  0  0  0
   -3.0600    1.1060   -2.6230 O   0  0  0  0  0  0  0  0  0  0  0  0
   -0.3700   -1.5400   -0.3870 H   0  0  0  0  0  0  0  0  0  0  0  0
   -2.4790   -1.2180   -1.1720 H   0  0  0  0  0  0  0  0  0  0  0  0
   -2.3090    0.8540    1.0780 H   0  0  0  0  0  0  0  0  0  0  0  0
   -2.7880   -0.8870    1.1360 H   0  0  0  0  0  0  0  0  0  0  0  0
   -4.6100    0.4450    1.6050 H   0  0  0  0  0  0  0  0  0  0  0  0
   -4.8810   -0.5980    0.2210 H   0  0  0  0  0  0  0  0  0  0  0  0
   -5.0780    1.4360   -1.2890 H   0  0  0  0  0  0  0  0  0  0  0  0
   -5.9970    1.5780    0.1780 H   0  0  0  0  0  0  0  0  0  0  0  0
   -4.4860    3.0650    1.2590 H   0  0  0  0  0  0  0  0  0  0  0  0
   -3.1780    2.7630    0.0180 H   0  0  0  0  0  0  0  0  0  0  0  0
   -4.9720    3.6090   -1.5700 H   0  0  0  0  0  0  0  0  0  0  0  0
   -4.2460    4.7380   -0.5340 H   0  0  0  0  0  0  0  0  0  0  0  0
  1  9  1  0  0  0  0
  1 10  1  0  0  0  0
  1  2  1  0  0  0  0
  2  3  1  0  0  0  0
  2 11  1  0  0  0  0
  3 14  1  0  0  0  0
  4 15  1  6  0  0  0
  4  6  1  0  0  0  0
  4  2  1  0  0  0  0
  4  5  1  0  0  0  0
  5 16  1  0  0  0  0
  6  7  2  0  0  0  0
  8  1  1  0  0  0  0
 12  3  1  0  0  0  0
 13  3  1  0  0  0  0
 17  5  1  0  0  0  0
 18 26  1  0  0  0  0
 19 28  1  0  0  0  0
 19 18  1  0  0  0  0
 19 21  1  0  0  0  0
 20 19  1  0  0  0  0
 21 32  1  1  0  0  0
 22 21  1  0  0  0  0
 22  6  1  0  0  0  0
 23 24  2  0  0  0  0
 23 21  1  0  0  0  0
 25 18  1  0  0  0  0
 27 18  1  0  0  0  0
 29 20  1  0  0  0  0
 30 20  1  0  0  0  0
 31 20  1  0  0  0  0
 33 22  1  0  0  0  0
 34 23  1  0  0  0  0
 35 45  1  6  0  0  0
 35 34  1  0  0  0  0
 35 36  1  0  0  0  0
 36 37  1  0  0  0  0
 36 46  1  0  0  0  0
 36 47  1  0  0  0  0
 37 48  1  0  0  0  0
 38 51  1  0  0  0  0
 38 39  1  0  0  0  0
 38 37  1  0  0  0  0
 39 52  1  0  0  0  0
 40 55  1  0  0  0  0
 40 39  1  0  0  0  0
 41 35  1  0  0  0  0
 42 41  1  0  0  0  0
 43 41  2  0  0  0  0
 44 34  1  0  0  0  0
 49 37  1  0  0  0  0
 50 38  1  0  0  0  0
 53 39  1  0  0  0  0
 54 40  1  0  0  0  0
M  END
$$$$
