VVL.pdb
 OpenBabel07022419283D

 53 52  0  0  1  0  0  0  0  0999 V2000
    3.9640   -1.5510   -3.7450 C   0  0  0  0  0  0  0  0  0  0  0  0
    3.2480   -2.2600   -2.5930 C   0  0  0  0  0  0  0  0  0  0  0  0
    2.9030   -3.6630   -3.0360 C   0  0  0  0  0  0  0  0  0  0  0  0
    1.9770   -1.4890   -2.2170 C   0  0  2  0  0  0  0  0  0  0  0  0
    2.2800   -0.1530   -1.8030 N   0  0  0  0  0  0  0  0  0  0  0  0
    1.3390   -2.2450   -1.1080 C   0  0  0  0  0  0  0  0  0  0  0  0
    0.9830   -3.4410   -1.2430 O   0  0  0  0  0  0  0  0  0  0  0  0
    4.6320   -2.2570   -4.2650 H   0  0  0  0  0  0  0  0  0  0  0  0
    3.2300   -1.2000   -4.5000 H   0  0  0  0  0  0  0  0  0  0  0  0
    4.5540   -0.6910   -3.3780 H   0  0  0  0  0  0  0  0  0  0  0  0
    3.8820   -2.2860   -1.6940 H   0  0  0  0  0  0  0  0  0  0  0  0
    3.0830   -4.3920   -2.2020 H   0  0  0  0  0  0  0  0  0  0  0  0
    1.8890   -3.7500   -3.4560 H   0  0  0  0  0  0  0  0  0  0  0  0
    3.6050   -4.0010   -3.8500 H   0  0  0  0  0  0  0  0  0  0  0  0
    1.3510   -1.4620   -3.1250 H   0  0  0  0  0  0  0  0  0  0  0  0
    3.3100    0.0140   -1.8430 H   0  0  0  0  0  0  0  0  0  0  0  0
    1.8240    0.5880   -2.3830 H   0  0  0  0  0  0  0  0  0  0  0  0
    1.8150   -1.0470    2.8990 C   0  0  0  0  0  0  0  0  0  0  0  0
    1.4500   -2.4100    2.4140 C   0  0  0  0  0  0  0  0  0  0  0  0
    0.9280   -3.3180    3.5140 C   0  0  0  0  0  0  0  0  0  0  0  0
    0.4790   -2.3740    1.2530 C   0  0  2  0  0  0  0  0  0  0  0  0
    1.0980   -1.6500    0.1670 N   0  0  0  0  0  0  0  0  0  0  0  0
   -0.7920   -1.6900    1.6350 C   0  0  0  0  0  0  0  0  0  0  0  0
   -1.5290   -2.1250    2.5630 O   0  0  0  0  0  0  0  0  0  0  0  0
    1.0470   -0.2730    2.6360 H   0  0  0  0  0  0  0  0  0  0  0  0
    2.7680   -0.6780    2.4320 H   0  0  0  0  0  0  0  0  0  0  0  0
    1.9970   -1.0940    3.9900 H   0  0  0  0  0  0  0  0  0  0  0  0
    2.3870   -2.8920    2.0430 H   0  0  0  0  0  0  0  0  0  0  0  0
    0.0870   -2.9010    4.0630 H   0  0  0  0  0  0  0  0  0  0  0  0
    1.7820   -3.5660    4.2070 H   0  0  0  0  0  0  0  0  0  0  0  0
    0.6960   -4.2970    3.0120 H   0  0  0  0  0  0  0  0  0  0  0  0
    0.2380   -3.4070    0.9550 H   0  0  0  0  0  0  0  0  0  0  0  0
    1.3840   -0.6590    0.3050 H   0  0  0  0  0  0  0  0  0  0  0  0
   -4.1240    3.0140    1.3220 C   0  0  0  0  0  0  0  0  0  0  0  0
   -3.1550    2.4660    2.2970 C   0  0  0  0  0  0  0  0  0  0  0  0
   -3.9590    1.9740    3.5040 C   0  0  0  0  0  0  0  0  0  0  0  0
   -2.1340    1.5160    1.8610 C   0  0  0  0  0  0  0  0  0  0  0  0
   -2.4620    0.2020    1.2940 C   0  0  2  0  0  0  0  0  0  0  0  0
   -1.1970   -0.5200    0.9490 N   0  0  0  0  0  0  0  0  0  0  0  0
   -3.4010    0.0810    0.1980 C   0  0  0  0  0  0  0  0  0  0  0  0
   -2.9840   -0.4510   -0.8950 O   0  0  0  0  0  0  0  0  0  0  0  0
   -4.7210    0.4610    0.1580 O   0  0  0  0  0  0  0  0  0  0  0  0
   -3.8480    2.9640    0.2620 H   0  0  0  0  0  0  0  0  0  0  0  0
   -5.1920    2.7010    1.4990 H   0  0  0  0  0  0  0  0  0  0  0  0
   -4.2180    4.1490    1.4940 H   0  0  0  0  0  0  0  0  0  0  0  0
   -2.5820    3.3550    2.7290 H   0  0  0  0  0  0  0  0  0  0  0  0
   -4.8840    2.5820    3.6230 H   0  0  0  0  0  0  0  0  0  0  0  0
   -3.3890    2.0920    4.4490 H   0  0  0  0  0  0  0  0  0  0  0  0
   -4.1670    0.8990    3.3860 H   0  0  0  0  0  0  0  0  0  0  0  0
   -1.4560    1.3530    2.7710 H   0  0  0  0  0  0  0  0  0  0  0  0
   -1.4120    2.1060    1.1910 H   0  0  0  0  0  0  0  0  0  0  0  0
   -2.8750   -0.4270    2.1440 H   0  0  0  0  0  0  0  0  0  0  0  0
   -0.6000   -0.1460    0.1780 H   0  0  0  0  0  0  0  0  0  0  0  0
  1 10  1  0  0  0  0
  1  2  1  0  0  0  0
  2  4  1  0  0  0  0
  2 11  1  0  0  0  0
  3  2  1  0  0  0  0
  3 12  1  0  0  0  0
  4 15  1  6  0  0  0
  4  5  1  0  0  0  0
  4  6  1  0  0  0  0
  6 22  1  0  0  0  0
  7  6  2  0  0  0  0
  8  1  1  0  0  0  0
  9  1  1  0  0  0  0
 13  3  1  0  0  0  0
 14  3  1  0  0  0  0
 16  5  1  0  0  0  0
 17  5  1  0  0  0  0
 18 27  1  0  0  0  0
 19 18  1  0  0  0  0
 19 20  1  0  0  0  0
 20 29  1  0  0  0  0
 20 30  1  0  0  0  0
 21 32  1  6  0  0  0
 21 23  1  0  0  0  0
 21 19  1  0  0  0  0
 22 33  1  0  0  0  0
 22 21  1  0  0  0  0
 23 24  2  0  0  0  0
 25 18  1  0  0  0  0
 26 18  1  0  0  0  0
 28 19  1  0  0  0  0
 31 20  1  0  0  0  0
 34 45  1  0  0  0  0
 34 44  1  0  0  0  0
 34 35  1  0  0  0  0
 35 46  1  0  0  0  0
 35 36  1  0  0  0  0
 36 47  1  0  0  0  0
 36 48  1  0  0  0  0
 37 35  1  0  0  0  0
 37 50  1  0  0  0  0
 38 37  1  0  0  0  0
 38 52  1  1  0  0  0
 39 38  1  0  0  0  0
 39 23  1  0  0  0  0
 40 38  1  0  0  0  0
 41 40  2  0  0  0  0
 42 40  1  0  0  0  0
 43 34  1  0  0  0  0
 49 36  1  0  0  0  0
 51 37  1  0  0  0  0
 53 39  1  0  0  0  0
M  END
$$$$
