VVN.pdb
 OpenBabel07022419283D

 48 47  0  0  1  0  0  0  0  0999 V2000
    0.2390   -3.8060   -3.4690 C   0  0  0  0  0  0  0  0  0  0  0  0
    0.9040   -3.4350   -2.1640 C   0  0  0  0  0  0  0  0  0  0  0  0
    1.3690   -4.6920   -1.4890 C   0  0  0  0  0  0  0  0  0  0  0  0
   -0.0290   -2.6210   -1.2960 C   0  0  2  0  0  0  0  0  0  0  0  0
   -0.3870   -1.4110   -2.0140 N   0  0  0  0  0  0  0  0  0  0  0  0
    0.5690   -2.3180    0.0170 C   0  0  0  0  0  0  0  0  0  0  0  0
    0.9250   -3.3060    0.7260 O   0  0  0  0  0  0  0  0  0  0  0  0
    0.4880   -4.8510   -3.7320 H   0  0  0  0  0  0  0  0  0  0  0  0
   -0.8670   -3.7210   -3.3080 H   0  0  0  0  0  0  0  0  0  0  0  0
    0.5700   -3.1360   -4.2900 H   0  0  0  0  0  0  0  0  0  0  0  0
    1.8040   -2.8200   -2.3950 H   0  0  0  0  0  0  0  0  0  0  0  0
    2.3180   -4.5270   -0.9340 H   0  0  0  0  0  0  0  0  0  0  0  0
    0.6410   -5.0920   -0.7540 H   0  0  0  0  0  0  0  0  0  0  0  0
    1.5270   -5.5120   -2.2290 H   0  0  0  0  0  0  0  0  0  0  0  0
   -0.9600   -3.2180   -1.1910 H   0  0  0  0  0  0  0  0  0  0  0  0
   -1.0650   -1.6690   -2.7550 H   0  0  0  0  0  0  0  0  0  0  0  0
    0.4250   -0.9290   -2.4260 H   0  0  0  0  0  0  0  0  0  0  0  0
    2.4110    1.4380    1.0620 C   0  0  0  0  0  0  0  0  0  0  0  0
    2.5920    0.0950    1.6860 C   0  0  0  0  0  0  0  0  0  0  0  0
    3.7210   -0.6450    1.0340 C   0  0  0  0  0  0  0  0  0  0  0  0
    1.3250   -0.7200    1.7560 C   0  0  2  0  0  0  0  0  0  0  0  0
    0.7430   -0.9840    0.4790 N   0  0  0  0  0  0  0  0  0  0  0  0
    0.3770   -0.0400    2.6890 C   0  0  0  0  0  0  0  0  0  0  0  0
    0.7670    0.2460    3.8360 O   0  0  0  0  0  0  0  0  0  0  0  0
    1.3630    1.7630    0.9940 H   0  0  0  0  0  0  0  0  0  0  0  0
    2.9220    1.4230    0.0580 H   0  0  0  0  0  0  0  0  0  0  0  0
    2.9570    2.2320    1.6320 H   0  0  0  0  0  0  0  0  0  0  0  0
    2.9000    0.2740    2.7580 H   0  0  0  0  0  0  0  0  0  0  0  0
    3.4580   -1.6620    0.7200 H   0  0  0  0  0  0  0  0  0  0  0  0
    4.6220   -0.7270    1.7030 H   0  0  0  0  0  0  0  0  0  0  0  0
    4.0920   -0.1090    0.1290 H   0  0  0  0  0  0  0  0  0  0  0  0
    1.5870   -1.6780    2.2440 H   0  0  0  0  0  0  0  0  0  0  0  0
    0.4170   -0.2280   -0.1800 H   0  0  0  0  0  0  0  0  0  0  0  0
   -3.7050    4.2620    2.5370 N   0  0  0  0  0  0  0  0  0  0  0  0
   -3.2390    3.0810    3.1710 C   0  0  0  0  0  0  0  0  0  0  0  0
   -3.6670    2.8230    4.3130 O   0  0  0  0  0  0  0  0  0  0  0  0
   -2.2950    2.2260    2.4780 C   0  0  0  0  0  0  0  0  0  0  0  0
   -1.9040    0.9540    3.1940 C   0  0  2  0  0  0  0  0  0  0  0  0
   -0.9310    0.2820    2.3060 N   0  0  0  0  0  0  0  0  0  0  0  0
   -3.0560    0.0380    3.2770 C   0  0  0  0  0  0  0  0  0  0  0  0
   -4.0490    0.3140    3.9780 O   0  0  0  0  0  0  0  0  0  0  0  0
   -3.0680   -1.1470    2.5850 O   0  0  0  0  0  0  0  0  0  0  0  0
   -3.8500    5.1230    3.0850 H   0  0  0  0  0  0  0  0  0  0  0  0
   -3.8960    4.2450    1.5170 H   0  0  0  0  0  0  0  0  0  0  0  0
   -2.6510    1.9410    1.4430 H   0  0  0  0  0  0  0  0  0  0  0  0
   -1.3450    2.8010    2.2520 H   0  0  0  0  0  0  0  0  0  0  0  0
   -1.4310    1.1480    4.1680 H   0  0  0  0  0  0  0  0  0  0  0  0
   -1.2630    0.0510    1.3610 H   0  0  0  0  0  0  0  0  0  0  0  0
  1  9  1  0  0  0  0
  1  2  1  0  0  0  0
  2  3  1  0  0  0  0
  2  4  1  0  0  0  0
  3 12  1  0  0  0  0
  3 13  1  0  0  0  0
  4 15  1  1  0  0  0
  4  6  1  0  0  0  0
  5  4  1  0  0  0  0
  6 22  1  0  0  0  0
  6  7  2  0  0  0  0
  8  1  1  0  0  0  0
 10  1  1  0  0  0  0
 11  2  1  0  0  0  0
 14  3  1  0  0  0  0
 16  5  1  0  0  0  0
 17  5  1  0  0  0  0
 18 27  1  0  0  0  0
 18 19  1  0  0  0  0
 19 21  1  0  0  0  0
 19 28  1  0  0  0  0
 20 19  1  0  0  0  0
 20 30  1  0  0  0  0
 21 32  1  1  0  0  0
 21 23  1  0  0  0  0
 22 21  1  0  0  0  0
 23 24  2  0  0  0  0
 25 18  1  0  0  0  0
 26 18  1  0  0  0  0
 29 20  1  0  0  0  0
 31 20  1  0  0  0  0
 33 22  1  0  0  0  0
 34 43  1  0  0  0  0
 34 35  1  0  0  0  0
 35 36  2  0  0  0  0
 37 35  1  0  0  0  0
 37 38  1  0  0  0  0
 38 40  1  0  0  0  0
 38 47  1  1  0  0  0
 39 23  1  0  0  0  0
 39 38  1  0  0  0  0
 40 41  1  0  0  0  0
 42 40  2  0  0  0  0
 44 34  1  0  0  0  0
 45 37  1  0  0  0  0
 46 37  1  0  0  0  0
 48 39  1  0  0  0  0
M  END
$$$$
