VVP.pdb
 OpenBabel07022419283D

 48 48  0  0  1  0  0  0  0  0999 V2000
   -0.1540   -5.1730   -0.4660 C   0  0  0  0  0  0  0  0  0  0  0  0
    0.1190   -3.8380    0.2980 C   0  0  0  0  0  0  0  0  0  0  0  0
   -1.2040   -3.4030    0.8240 C   0  0  0  0  0  0  0  0  0  0  0  0
    0.7390   -2.9490   -0.7440 C   0  0  2  0  0  0  0  0  0  0  0  0
    1.9400   -3.7700   -1.1690 N   0  0  0  0  0  0  0  0  0  0  0  0
    1.2630   -1.6550   -0.3050 C   0  0  0  0  0  0  0  0  0  0  0  0
    2.5160   -1.5800   -0.0510 O   0  0  0  0  0  0  0  0  0  0  0  0
   -0.8530   -4.9090   -1.2820 H   0  0  0  0  0  0  0  0  0  0  0  0
   -0.6460   -5.8200    0.2910 H   0  0  0  0  0  0  0  0  0  0  0  0
    0.8030   -5.5850   -0.8390 H   0  0  0  0  0  0  0  0  0  0  0  0
    0.8060   -4.0990    1.1190 H   0  0  0  0  0  0  0  0  0  0  0  0
   -2.0100   -4.1500    0.5380 H   0  0  0  0  0  0  0  0  0  0  0  0
   -1.2050   -3.2720    1.9300 H   0  0  0  0  0  0  0  0  0  0  0  0
   -1.5410   -2.4670    0.3430 H   0  0  0  0  0  0  0  0  0  0  0  0
    0.0990   -2.8640   -1.6370 H   0  0  0  0  0  0  0  0  0  0  0  0
    2.7460   -3.1490   -1.1710 H   0  0  0  0  0  0  0  0  0  0  0  0
    1.7220   -4.2340   -2.0690 H   0  0  0  0  0  0  0  0  0  0  0  0
    1.8150    3.0330   -0.6440 C   0  0  0  0  0  0  0  0  0  0  0  0
    1.1940    1.7080   -0.9920 C   0  0  0  0  0  0  0  0  0  0  0  0
    2.1900    1.0380   -1.9550 C   0  0  0  0  0  0  0  0  0  0  0  0
    1.1110    0.7860    0.2420 C   0  0  2  0  0  0  0  0  0  0  0  0
    0.5150   -0.4660   -0.1470 N   0  0  0  0  0  0  0  0  0  0  0  0
    0.5710    1.4490    1.3870 C   0  0  0  0  0  0  0  0  0  0  0  0
    1.1060    2.6100    1.6850 O   0  0  0  0  0  0  0  0  0  0  0  0
    2.6790    2.9610    0.0490 H   0  0  0  0  0  0  0  0  0  0  0  0
    2.2210    3.4330   -1.6140 H   0  0  0  0  0  0  0  0  0  0  0  0
    1.0990    3.7740   -0.2940 H   0  0  0  0  0  0  0  0  0  0  0  0
    0.2230    1.8850   -1.4540 H   0  0  0  0  0  0  0  0  0  0  0  0
    2.5120    1.7900   -2.7290 H   0  0  0  0  0  0  0  0  0  0  0  0
    3.0990    0.7930   -1.3750 H   0  0  0  0  0  0  0  0  0  0  0  0
    1.7870    0.1440   -2.4260 H   0  0  0  0  0  0  0  0  0  0  0  0
    2.1990    0.5200    0.4860 H   0  0  0  0  0  0  0  0  0  0  0  0
   -0.4990   -0.4880   -0.3360 H   0  0  0  0  0  0  0  0  0  0  0  0
   -0.4540    1.1000    2.2890 N   0  0  0  0  0  0  0  0  0  0  0  0
   -0.9310    1.9160    3.4060 C   0  0  0  0  0  0  0  0  0  0  0  0
   -1.7290    1.0310    4.2940 C   0  0  0  0  0  0  0  0  0  0  0  0
   -1.5640   -0.3670    3.7950 C   0  0  0  0  0  0  0  0  0  0  0  0
   -1.2240   -0.1170    2.3270 C   0  0  1  0  0  0  0  0  0  0  0  0
   -2.4930    0.0950    1.6310 C   0  0  0  0  0  0  0  0  0  0  0  0
   -2.7620    1.2220    1.1060 O   0  0  0  0  0  0  0  0  0  0  0  0
   -3.4530   -0.9040    1.5110 O   0  0  0  0  0  0  0  0  0  0  0  0
   -1.5270    2.7380    2.9810 H   0  0  0  0  0  0  0  0  0  0  0  0
   -0.0930    2.3780    3.9580 H   0  0  0  0  0  0  0  0  0  0  0  0
   -2.8110    1.3500    4.3130 H   0  0  0  0  0  0  0  0  0  0  0  0
   -1.3950    1.1610    5.3610 H   0  0  0  0  0  0  0  0  0  0  0  0
   -2.5340   -0.9050    3.8610 H   0  0  0  0  0  0  0  0  0  0  0  0
   -0.7860   -0.9310    4.3180 H   0  0  0  0  0  0  0  0  0  0  0  0
   -0.6240   -0.9720    1.9660 H   0  0  0  0  0  0  0  0  0  0  0  0
  1  9  1  0  0  0  0
  1  2  1  0  0  0  0
  2  3  1  0  0  0  0
  2 11  1  0  0  0  0
  3 13  1  0  0  0  0
  4 15  1  6  0  0  0
  4  6  1  0  0  0  0
  4  2  1  0  0  0  0
  5  4  1  0  0  0  0
  6 22  1  0  0  0  0
  6  7  2  0  0  0  0
  8  1  1  0  0  0  0
 10  1  1  0  0  0  0
 12  3  1  0  0  0  0
 14  3  1  0  0  0  0
 16  5  1  0  0  0  0
 17  5  1  0  0  0  0
 18 27  1  0  0  0  0
 18 25  1  0  0  0  0
 19 18  1  0  0  0  0
 19 21  1  0  0  0  0
 20 30  1  0  0  0  0
 20 19  1  0  0  0  0
 21 32  1  1  0  0  0
 21 23  1  0  0  0  0
 22 21  1  0  0  0  0
 23 24  2  0  0  0  0
 23 34  1  0  0  0  0
 26 18  1  0  0  0  0
 28 19  1  0  0  0  0
 29 20  1  0  0  0  0
 31 20  1  0  0  0  0
 33 22  1  0  0  0  0
 34 38  1  0  0  0  0
 34 35  1  0  0  0  0
 35 43  1  0  0  0  0
 35 36  1  0  0  0  0
 36 44  1  0  0  0  0
 36 45  1  0  0  0  0
 37 46  1  0  0  0  0
 37 36  1  0  0  0  0
 37 47  1  0  0  0  0
 38 48  1  6  0  0  0
 38 37  1  0  0  0  0
 39 38  1  0  0  0  0
 40 39  2  0  0  0  0
 41 39  1  0  0  0  0
 42 35  1  0  0  0  0
M  END
$$$$
