VVQ.pdb
 OpenBabel07022419283D

 51 50  0  0  1  0  0  0  0  0999 V2000
   -0.7220   -3.0240    4.7060 C   0  0  0  0  0  0  0  0  0  0  0  0
   -0.2930   -2.0300    3.6010 C   0  0  0  0  0  0  0  0  0  0  0  0
   -1.1450   -2.4500    2.4110 C   0  0  0  0  0  0  0  0  0  0  0  0
    1.1730   -2.3020    3.3090 C   0  0  2  0  0  0  0  0  0  0  0  0
    1.9490   -2.1210    4.5490 N   0  0  0  0  0  0  0  0  0  0  0  0
    1.7770   -1.3740    2.3330 C   0  0  0  0  0  0  0  0  0  0  0  0
    2.7270   -0.5850    2.6820 O   0  0  0  0  0  0  0  0  0  0  0  0
   -1.7760   -2.8240    4.9870 H   0  0  0  0  0  0  0  0  0  0  0  0
   -0.6990   -4.0460    4.2720 H   0  0  0  0  0  0  0  0  0  0  0  0
   -0.1040   -2.9200    5.5980 H   0  0  0  0  0  0  0  0  0  0  0  0
   -0.5110   -1.0040    3.8940 H   0  0  0  0  0  0  0  0  0  0  0  0
   -2.1130   -2.8970    2.7760 H   0  0  0  0  0  0  0  0  0  0  0  0
   -1.3940   -1.6320    1.7370 H   0  0  0  0  0  0  0  0  0  0  0  0
   -0.6630   -3.3060    1.8690 H   0  0  0  0  0  0  0  0  0  0  0  0
    1.2580   -3.3640    3.0500 H   0  0  0  0  0  0  0  0  0  0  0  0
    1.9100   -2.9770    5.1390 H   0  0  0  0  0  0  0  0  0  0  0  0
    2.9350   -1.8450    4.3030 H   0  0  0  0  0  0  0  0  0  0  0  0
    1.7800   -1.7900   -1.9410 C   0  0  0  0  0  0  0  0  0  0  0  0
    2.7410   -0.9760   -1.0840 C   0  0  0  0  0  0  0  0  0  0  0  0
    3.4420    0.0240   -1.9760 C   0  0  0  0  0  0  0  0  0  0  0  0
    2.0620   -0.3150    0.0700 C   0  0  2  0  0  0  0  0  0  0  0  0
    1.4290   -1.2320    0.9780 N   0  0  0  0  0  0  0  0  0  0  0  0
    1.1720    0.7320   -0.4670 C   0  0  0  0  0  0  0  0  0  0  0  0
    1.5910    1.6000   -1.3090 O   0  0  0  0  0  0  0  0  0  0  0  0
    2.3290   -2.4600   -2.6330 H   0  0  0  0  0  0  0  0  0  0  0  0
    1.1410   -1.1350   -2.5660 H   0  0  0  0  0  0  0  0  0  0  0  0
    1.1700   -2.4790   -1.2980 H   0  0  0  0  0  0  0  0  0  0  0  0
    3.5300   -1.6950   -0.7750 H   0  0  0  0  0  0  0  0  0  0  0  0
    3.8090    0.9100   -1.4420 H   0  0  0  0  0  0  0  0  0  0  0  0
    2.8230    0.3530   -2.8350 H   0  0  0  0  0  0  0  0  0  0  0  0
    4.3360   -0.4650   -2.4690 H   0  0  0  0  0  0  0  0  0  0  0  0
    2.8760    0.2300    0.6380 H   0  0  0  0  0  0  0  0  0  0  0  0
    0.6690   -1.8250    0.5920 H   0  0  0  0  0  0  0  0  0  0  0  0
   -3.3570   -1.7180   -0.2480 N   0  0  0  0  0  0  0  0  0  0  0  0
   -2.4730   -0.9050   -1.0070 C   0  0  0  0  0  0  0  0  0  0  0  0
   -1.3560   -1.3970   -1.2810 O   0  0  0  0  0  0  0  0  0  0  0  0
   -2.9210    0.4130   -1.4090 C   0  0  0  0  0  0  0  0  0  0  0  0
   -1.9260    1.4450   -1.7440 C   0  0  0  0  0  0  0  0  0  0  0  0
   -1.0170    1.9530   -0.6910 C   0  0  2  0  0  0  0  0  0  0  0  0
   -0.2130    0.8990   -0.1230 N   0  0  0  0  0  0  0  0  0  0  0  0
   -1.7420    2.7340    0.3090 C   0  0  0  0  0  0  0  0  0  0  0  0
   -1.6350    2.4650    1.5210 O   0  0  0  0  0  0  0  0  0  0  0  0
   -2.5480    3.7730   -0.0970 O   0  0  0  0  0  0  0  0  0  0  0  0
   -3.5720   -1.4980    0.7400 H   0  0  0  0  0  0  0  0  0  0  0  0
   -3.7850   -2.5360   -0.6970 H   0  0  0  0  0  0  0  0  0  0  0  0
   -3.6740    0.8390   -0.6690 H   0  0  0  0  0  0  0  0  0  0  0  0
   -3.5720    0.2880   -2.3360 H   0  0  0  0  0  0  0  0  0  0  0  0
   -2.5070    2.3350   -2.1580 H   0  0  0  0  0  0  0  0  0  0  0  0
   -1.3760    1.0930   -2.6610 H   0  0  0  0  0  0  0  0  0  0  0  0
   -0.3320    2.6870   -1.2170 H   0  0  0  0  0  0  0  0  0  0  0  0
   -0.5880    0.2470    0.5690 H   0  0  0  0  0  0  0  0  0  0  0  0
  1  8  1  0  0  0  0
  1 10  1  0  0  0  0
  2 11  1  0  0  0  0
  2  1  1  0  0  0  0
  3 12  1  0  0  0  0
  3  2  1  0  0  0  0
  4 15  1  6  0  0  0
  4  2  1  0  0  0  0
  4  5  1  0  0  0  0
  5 16  1  0  0  0  0
  6  7  2  0  0  0  0
  6  4  1  0  0  0  0
  9  1  1  0  0  0  0
 13  3  1  0  0  0  0
 14  3  1  0  0  0  0
 17  5  1  0  0  0  0
 18 27  1  0  0  0  0
 18 19  1  0  0  0  0
 19 28  1  0  0  0  0
 19 21  1  0  0  0  0
 20 29  1  0  0  0  0
 20 19  1  0  0  0  0
 21 32  1  1  0  0  0
 21 22  1  0  0  0  0
 22  6  1  0  0  0  0
 23 40  1  0  0  0  0
 23 21  1  0  0  0  0
 24 23  2  0  0  0  0
 25 18  1  0  0  0  0
 26 18  1  0  0  0  0
 30 20  1  0  0  0  0
 31 20  1  0  0  0  0
 33 22  1  0  0  0  0
 34 44  1  0  0  0  0
 35 34  1  0  0  0  0
 36 35  2  0  0  0  0
 37 35  1  0  0  0  0
 37 46  1  0  0  0  0
 38 37  1  0  0  0  0
 38 39  1  0  0  0  0
 39 50  1  6  0  0  0
 39 40  1  0  0  0  0
 39 41  1  0  0  0  0
 40 51  1  0  0  0  0
 41 42  1  0  0  0  0
 43 41  2  0  0  0  0
 45 34  1  0  0  0  0
 47 37  1  0  0  0  0
 48 38  1  0  0  0  0
 49 38  1  0  0  0  0
M  END
$$$$
