VVS.pdb
 OpenBabel07022419283D

 45 44  0  0  1  0  0  0  0  0999 V2000
   -1.5280   -3.4380   -2.8540 C   0  0  0  0  0  0  0  0  0  0  0  0
   -0.3310   -3.1380   -1.9710 C   0  0  0  0  0  0  0  0  0  0  0  0
    0.1460   -4.4270   -1.3820 C   0  0  0  0  0  0  0  0  0  0  0  0
   -0.7930   -2.1760   -0.9030 C   0  0  2  0  0  0  0  0  0  0  0  0
   -1.2860   -0.9620   -1.4860 N   0  0  0  0  0  0  0  0  0  0  0  0
    0.2170   -1.9550    0.1480 C   0  0  0  0  0  0  0  0  0  0  0  0
    0.7050   -2.9670    0.7150 O   0  0  0  0  0  0  0  0  0  0  0  0
   -2.2730   -4.0350   -2.2890 H   0  0  0  0  0  0  0  0  0  0  0  0
   -1.2230   -3.9470   -3.7890 H   0  0  0  0  0  0  0  0  0  0  0  0
   -2.0440   -2.4920   -3.1360 H   0  0  0  0  0  0  0  0  0  0  0  0
    0.4290   -2.6580   -2.6130 H   0  0  0  0  0  0  0  0  0  0  0  0
    0.0370   -5.2210   -2.1770 H   0  0  0  0  0  0  0  0  0  0  0  0
    1.2110   -4.3390   -1.1130 H   0  0  0  0  0  0  0  0  0  0  0  0
   -0.5000   -4.7430   -0.5580 H   0  0  0  0  0  0  0  0  0  0  0  0
   -1.6710   -2.6720   -0.4030 H   0  0  0  0  0  0  0  0  0  0  0  0
   -0.5810   -0.4750   -2.0460 H   0  0  0  0  0  0  0  0  0  0  0  0
   -1.8020   -0.3770   -0.8070 H   0  0  0  0  0  0  0  0  0  0  0  0
    2.6460    1.4640    0.3780 C   0  0  0  0  0  0  0  0  0  0  0  0
    2.8990    0.1300    1.0000 C   0  0  0  0  0  0  0  0  0  0  0  0
    3.4560   -0.8100   -0.0370 C   0  0  0  0  0  0  0  0  0  0  0  0
    1.6780   -0.5030    1.6070 C   0  0  2  0  0  0  0  0  0  0  0  0
    0.6820   -0.6860    0.5700 N   0  0  0  0  0  0  0  0  0  0  0  0
    1.1340    0.3280    2.7350 C   0  0  0  0  0  0  0  0  0  0  0  0
    1.8400    0.6060    3.7380 O   0  0  0  0  0  0  0  0  0  0  0  0
    3.5410    1.6930   -0.2710 H   0  0  0  0  0  0  0  0  0  0  0  0
    1.7820    1.4730   -0.2940 H   0  0  0  0  0  0  0  0  0  0  0  0
    2.6320    2.2650    1.1480 H   0  0  0  0  0  0  0  0  0  0  0  0
    3.6720    0.2360    1.7890 H   0  0  0  0  0  0  0  0  0  0  0  0
    3.5660   -1.8470    0.3850 H   0  0  0  0  0  0  0  0  0  0  0  0
    4.4630   -0.5160   -0.3950 H   0  0  0  0  0  0  0  0  0  0  0  0
    2.8010   -0.8860   -0.9370 H   0  0  0  0  0  0  0  0  0  0  0  0
    1.9700   -1.5070    1.9670 H   0  0  0  0  0  0  0  0  0  0  0  0
    0.2750    0.1490    0.0970 H   0  0  0  0  0  0  0  0  0  0  0  0
   -2.0050    2.9230    2.2390 O   0  0  0  0  0  0  0  0  0  0  0  0
   -1.0990    3.0380    3.3040 C   0  0  0  0  0  0  0  0  0  0  0  0
   -0.7750    1.6320    3.7560 C   0  0  2  0  0  0  0  0  0  0  0  0
   -0.1870    0.8340    2.7220 N   0  0  0  0  0  0  0  0  0  0  0  0
   -1.9090    0.9800    4.4260 C   0  0  0  0  0  0  0  0  0  0  0  0
   -2.2660   -0.1580    4.0720 O   0  0  0  0  0  0  0  0  0  0  0  0
   -2.5730    1.6260    5.4410 O   0  0  0  0  0  0  0  0  0  0  0  0
   -2.0170    3.7270    1.6660 H   0  0  0  0  0  0  0  0  0  0  0  0
   -1.6450    3.5780    4.1040 H   0  0  0  0  0  0  0  0  0  0  0  0
   -0.2140    3.6280    3.0620 H   0  0  0  0  0  0  0  0  0  0  0  0
    0.0250    1.7550    4.5470 H   0  0  0  0  0  0  0  0  0  0  0  0
   -0.7700    0.5930    1.8720 H   0  0  0  0  0  0  0  0  0  0  0  0
  1  8  1  0  0  0  0
  1  2  1  0  0  0  0
  2  3  1  0  0  0  0
  2  4  1  0  0  0  0
  3 13  1  0  0  0  0
  3 14  1  0  0  0  0
  4 15  1  1  0  0  0
  4  6  1  0  0  0  0
  5  4  1  0  0  0  0
  5 17  1  0  0  0  0
  6 22  1  0  0  0  0
  6  7  2  0  0  0  0
  9  1  1  0  0  0  0
 10  1  1  0  0  0  0
 11  2  1  0  0  0  0
 12  3  1  0  0  0  0
 16  5  1  0  0  0  0
 18 19  1  0  0  0  0
 18 27  1  0  0  0  0
 19 21  1  0  0  0  0
 19 28  1  0  0  0  0
 20 29  1  0  0  0  0
 20 19  1  0  0  0  0
 21 32  1  1  0  0  0
 21 23  1  0  0  0  0
 22 21  1  0  0  0  0
 23 24  2  0  0  0  0
 25 18  1  0  0  0  0
 26 18  1  0  0  0  0
 30 20  1  0  0  0  0
 31 20  1  0  0  0  0
 33 22  1  0  0  0  0
 34 35  1  0  0  0  0
 35 36  1  0  0  0  0
 35 42  1  0  0  0  0
 36 38  1  0  0  0  0
 36 44  1  1  0  0  0
 37 23  1  0  0  0  0
 37 36  1  0  0  0  0
 38 40  1  0  0  0  0
 39 38  2  0  0  0  0
 41 34  1  0  0  0  0
 43 35  1  0  0  0  0
 45 37  1  0  0  0  0
M  END
$$$$
