VVT.pdb
 OpenBabel07022419283D

 48 47  0  0  1  0  0  0  0  0999 V2000
   -1.0710   -4.6470   -1.8810 C   0  0  0  0  0  0  0  0  0  0  0  0
   -0.5310   -3.7100   -0.7680 C   0  0  0  0  0  0  0  0  0  0  0  0
   -1.6430   -2.6980   -0.5940 C   0  0  0  0  0  0  0  0  0  0  0  0
    0.6670   -3.0390   -1.4380 C   0  0  2  0  0  0  0  0  0  0  0  0
    1.5880   -4.1510   -1.8410 N   0  0  0  0  0  0  0  0  0  0  0  0
    1.4140   -2.1170   -0.5970 C   0  0  0  0  0  0  0  0  0  0  0  0
    2.5980   -2.4180   -0.2100 O   0  0  0  0  0  0  0  0  0  0  0  0
   -1.1730   -4.0410   -2.7820 H   0  0  0  0  0  0  0  0  0  0  0  0
   -2.0990   -4.9070   -1.5360 H   0  0  0  0  0  0  0  0  0  0  0  0
   -0.4350   -5.5380   -1.9770 H   0  0  0  0  0  0  0  0  0  0  0  0
   -0.2780   -4.2510    0.1400 H   0  0  0  0  0  0  0  0  0  0  0  0
   -2.6250   -3.2440   -0.7880 H   0  0  0  0  0  0  0  0  0  0  0  0
   -1.7240   -2.3190    0.4210 H   0  0  0  0  0  0  0  0  0  0  0  0
   -1.5910   -1.9670   -1.4070 H   0  0  0  0  0  0  0  0  0  0  0  0
    0.2960   -2.6370   -2.3970 H   0  0  0  0  0  0  0  0  0  0  0  0
    1.2030   -4.5830   -2.7300 H   0  0  0  0  0  0  0  0  0  0  0  0
    2.5040   -3.7090   -2.1560 H   0  0  0  0  0  0  0  0  0  0  0  0
    3.0320    2.1060    0.7880 C   0  0  0  0  0  0  0  0  0  0  0  0
    2.2170    1.2180   -0.1270 C   0  0  0  0  0  0  0  0  0  0  0  0
    1.1090    1.9960   -0.7590 C   0  0  0  0  0  0  0  0  0  0  0  0
    1.7370    0.0220    0.6690 C   0  0  2  0  0  0  0  0  0  0  0  0
    0.9450   -0.8760   -0.1570 N   0  0  0  0  0  0  0  0  0  0  0  0
    1.0100    0.4110    1.8870 C   0  0  0  0  0  0  0  0  0  0  0  0
    1.6170    1.1690    2.7320 O   0  0  0  0  0  0  0  0  0  0  0  0
    3.8210    2.6090    0.1690 H   0  0  0  0  0  0  0  0  0  0  0  0
    2.3680    2.8360    1.2790 H   0  0  0  0  0  0  0  0  0  0  0  0
    3.5980    1.5120    1.5420 H   0  0  0  0  0  0  0  0  0  0  0  0
    2.9100    0.8320   -0.9060 H   0  0  0  0  0  0  0  0  0  0  0  0
    1.4800    2.4420   -1.7270 H   0  0  0  0  0  0  0  0  0  0  0  0
    0.2160    1.4140   -1.0000 H   0  0  0  0  0  0  0  0  0  0  0  0
    0.8790    2.8940   -0.1200 H   0  0  0  0  0  0  0  0  0  0  0  0
    2.6620   -0.5330    0.9330 H   0  0  0  0  0  0  0  0  0  0  0  0
   -0.0050   -0.5390   -0.4080 H   0  0  0  0  0  0  0  0  0  0  0  0
   -1.8860    2.6000    2.6180 C   0  0  0  0  0  0  0  0  0  0  0  0
   -2.2070    1.2500    3.2450 C   0  0  1  0  0  0  0  0  0  0  0  0
   -3.1670    0.5630    2.5450 O   0  0  0  0  0  0  0  0  0  0  0  0
   -0.9460    0.4730    3.4740 C   0  0  2  0  0  0  0  0  0  0  0  0
   -0.2890    0.0590    2.2630 N   0  0  0  0  0  0  0  0  0  0  0  0
   -1.2430   -0.7310    4.2930 C   0  0  0  0  0  0  0  0  0  0  0  0
   -1.8290   -0.6150    5.4220 O   0  0  0  0  0  0  0  0  0  0  0  0
   -0.9130   -2.0210    3.8970 O   0  0  0  0  0  0  0  0  0  0  0  0
   -1.7390    2.5270    1.5190 H   0  0  0  0  0  0  0  0  0  0  0  0
   -1.0180    3.0610    3.1320 H   0  0  0  0  0  0  0  0  0  0  0  0
   -2.7360    3.3160    2.7630 H   0  0  0  0  0  0  0  0  0  0  0  0
   -2.6310    1.4720    4.2570 H   0  0  0  0  0  0  0  0  0  0  0  0
   -3.0630    0.6710    1.5500 H   0  0  0  0  0  0  0  0  0  0  0  0
   -0.2770    1.1200    4.0960 H   0  0  0  0  0  0  0  0  0  0  0  0
   -0.8250   -0.5470    1.6130 H   0  0  0  0  0  0  0  0  0  0  0  0
  1  9  1  0  0  0  0
  1  2  1  0  0  0  0
  2  3  1  0  0  0  0
  2 11  1  0  0  0  0
  3 13  1  0  0  0  0
  4 15  1  6  0  0  0
  4  2  1  0  0  0  0
  4  6  1  0  0  0  0
  5  4  1  0  0  0  0
  6  7  2  0  0  0  0
  6 22  1  0  0  0  0
  8  1  1  0  0  0  0
 10  1  1  0  0  0  0
 12  3  1  0  0  0  0
 14  3  1  0  0  0  0
 16  5  1  0  0  0  0
 17  5  1  0  0  0  0
 18 26  1  0  0  0  0
 18 27  1  0  0  0  0
 19 21  1  0  0  0  0
 19 18  1  0  0  0  0
 20 19  1  0  0  0  0
 20 31  1  0  0  0  0
 21 32  1  1  0  0  0
 21 23  1  0  0  0  0
 22 21  1  0  0  0  0
 23 38  1  0  0  0  0
 23 24  2  0  0  0  0
 25 18  1  0  0  0  0
 28 19  1  0  0  0  0
 29 20  1  0  0  0  0
 30 20  1  0  0  0  0
 33 22  1  0  0  0  0
 34 44  1  0  0  0  0
 34 43  1  0  0  0  0
 34 35  1  0  0  0  0
 35 37  1  0  0  0  0
 35 45  1  1  0  0  0
 36 35  1  0  0  0  0
 37 47  1  1  0  0  0
 37 39  1  0  0  0  0
 38 37  1  0  0  0  0
 39 40  1  0  0  0  0
 41 39  2  0  0  0  0
 42 34  1  0  0  0  0
 46 36  1  0  0  0  0
 48 38  1  0  0  0  0
M  END
$$$$
