VVV.pdb
 OpenBabel07022419283D

 50 49  0  0  1  0  0  0  0  0999 V2000
    2.2990   -4.9520    2.6700 C   0  0  0  0  0  0  0  0  0  0  0  0
    2.7130   -3.6390    2.0070 C   0  0  0  0  0  0  0  0  0  0  0  0
    3.7190   -2.9180    2.8860 C   0  0  0  0  0  0  0  0  0  0  0  0
    1.4690   -2.7750    1.9720 C   0  0  2  0  0  0  0  0  0  0  0  0
    0.3990   -3.3750    1.2270 N   0  0  0  0  0  0  0  0  0  0  0  0
    1.7770   -1.3940    1.4870 C   0  0  0  0  0  0  0  0  0  0  0  0
    2.6800   -0.6900    2.0010 O   0  0  0  0  0  0  0  0  0  0  0  0
    1.6710   -5.5050    1.9480 H   0  0  0  0  0  0  0  0  0  0  0  0
    1.6280   -4.6640    3.5060 H   0  0  0  0  0  0  0  0  0  0  0  0
    3.1690   -5.5300    3.0010 H   0  0  0  0  0  0  0  0  0  0  0  0
    3.0900   -3.8070    0.9890 H   0  0  0  0  0  0  0  0  0  0  0  0
    4.2840   -3.7070    3.4220 H   0  0  0  0  0  0  0  0  0  0  0  0
    4.4310   -2.3210    2.3070 H   0  0  0  0  0  0  0  0  0  0  0  0
    3.2240   -2.2700    3.6380 H   0  0  0  0  0  0  0  0  0  0  0  0
    1.1150   -2.7090    3.0400 H   0  0  0  0  0  0  0  0  0  0  0  0
   -0.5370   -3.0700    1.5080 H   0  0  0  0  0  0  0  0  0  0  0  0
    0.5700   -3.4930    0.2250 H   0  0  0  0  0  0  0  0  0  0  0  0
    2.7990   -0.4060   -1.8880 C   0  0  0  0  0  0  0  0  0  0  0  0
    1.5690    0.4290   -1.5880 C   0  0  0  0  0  0  0  0  0  0  0  0
    1.9010    1.8570   -1.9770 C   0  0  0  0  0  0  0  0  0  0  0  0
    1.2540    0.4370   -0.1050 C   0  0  2  0  0  0  0  0  0  0  0  0
    0.9990   -0.8960    0.4060 N   0  0  0  0  0  0  0  0  0  0  0  0
   -0.0050    1.2110    0.0700 C   0  0  0  0  0  0  0  0  0  0  0  0
   -0.0230    2.4180   -0.3100 O   0  0  0  0  0  0  0  0  0  0  0  0
    3.5700    0.1690   -2.4450 H   0  0  0  0  0  0  0  0  0  0  0  0
    3.2910   -0.7450   -0.9480 H   0  0  0  0  0  0  0  0  0  0  0  0
    2.5510   -1.2810   -2.5490 H   0  0  0  0  0  0  0  0  0  0  0  0
    0.7130    0.0570   -2.1780 H   0  0  0  0  0  0  0  0  0  0  0  0
    2.2990    2.4360   -1.1390 H   0  0  0  0  0  0  0  0  0  0  0  0
    1.0040    2.3670   -2.4290 H   0  0  0  0  0  0  0  0  0  0  0  0
    2.6700    1.8830   -2.7960 H   0  0  0  0  0  0  0  0  0  0  0  0
    2.0680    0.9230    0.4430 H   0  0  0  0  0  0  0  0  0  0  0  0
    0.2510   -1.4920   -0.0120 H   0  0  0  0  0  0  0  0  0  0  0  0
   -3.7890   -0.6390    0.2140 C   0  0  0  0  0  0  0  0  0  0  0  0
   -3.5060    0.8030   -0.0600 C   0  0  0  0  0  0  0  0  0  0  0  0
   -4.7850    1.5900    0.0470 C   0  0  0  0  0  0  0  0  0  0  0  0
   -2.4170    1.3750    0.8270 C   0  0  2  0  0  0  0  0  0  0  0  0
   -1.1830    0.6630    0.6400 N   0  0  0  0  0  0  0  0  0  0  0  0
   -2.8250    1.5080    2.2170 C   0  0  0  0  0  0  0  0  0  0  0  0
   -2.1300    1.0270    3.1370 O   0  0  0  0  0  0  0  0  0  0  0  0
   -3.9920    2.1690    2.5390 O   0  0  0  0  0  0  0  0  0  0  0  0
   -4.3380   -0.8120    1.1540 H   0  0  0  0  0  0  0  0  0  0  0  0
   -2.8840   -1.2690    0.2510 H   0  0  0  0  0  0  0  0  0  0  0  0
   -4.4240   -1.0240   -0.6030 H   0  0  0  0  0  0  0  0  0  0  0  0
   -3.1460    0.9030   -1.1020 H   0  0  0  0  0  0  0  0  0  0  0  0
   -5.4000    1.5270   -0.8770 H   0  0  0  0  0  0  0  0  0  0  0  0
   -5.4270    1.2150    0.8760 H   0  0  0  0  0  0  0  0  0  0  0  0
   -4.5870    2.6820    0.1990 H   0  0  0  0  0  0  0  0  0  0  0  0
   -2.2360    2.4190    0.4320 H   0  0  0  0  0  0  0  0  0  0  0  0
   -1.1470   -0.3310    0.9460 H   0  0  0  0  0  0  0  0  0  0  0  0
  1 10  1  0  0  0  0
  1  9  1  0  0  0  0
  2  1  1  0  0  0  0
  2  3  1  0  0  0  0
  3 12  1  0  0  0  0
  3 14  1  0  0  0  0
  4  2  1  0  0  0  0
  4 15  1  1  0  0  0
  5 16  1  0  0  0  0
  5  4  1  0  0  0  0
  6  4  1  0  0  0  0
  6  7  2  0  0  0  0
  8  1  1  0  0  0  0
 11  2  1  0  0  0  0
 13  3  1  0  0  0  0
 17  5  1  0  0  0  0
 18 19  1  0  0  0  0
 18 26  1  0  0  0  0
 19 21  1  0  0  0  0
 20 19  1  0  0  0  0
 20 29  1  0  0  0  0
 21 23  1  0  0  0  0
 21 22  1  0  0  0  0
 21 32  1  1  0  0  0
 22  6  1  0  0  0  0
 23 38  1  0  0  0  0
 24 23  2  0  0  0  0
 25 18  1  0  0  0  0
 27 18  1  0  0  0  0
 28 19  1  0  0  0  0
 30 20  1  0  0  0  0
 31 20  1  0  0  0  0
 33 22  1  0  0  0  0
 34 43  1  0  0  0  0
 34 42  1  0  0  0  0
 35 36  1  0  0  0  0
 35 34  1  0  0  0  0
 35 37  1  0  0  0  0
 36 48  1  0  0  0  0
 36 47  1  0  0  0  0
 37 49  1  6  0  0  0
 37 39  1  0  0  0  0
 38 37  1  0  0  0  0
 38 50  1  0  0  0  0
 39 41  2  0  0  0  0
 39 40  1  0  0  0  0
 44 34  1  0  0  0  0
 45 35  1  0  0  0  0
 46 36  1  0  0  0  0
M  END
$$$$
