VVW.pdb
 OpenBabel07022419283D

 58 59  0  0  1  0  0  0  0  0999 V2000
    0.8530   -0.7740    5.4790 C   0  0  0  0  0  0  0  0  0  0  0  0
    1.8340    0.3650    5.3860 C   0  0  0  0  0  0  0  0  0  0  0  0
    2.1560    0.8640    6.7710 C   0  0  0  0  0  0  0  0  0  0  0  0
    1.3530    1.4840    4.5290 C   0  0  2  0  0  0  0  0  0  0  0  0
    0.1370    2.1070    4.9390 N   0  0  0  0  0  0  0  0  0  0  0  0
    1.2530    1.0750    3.0920 C   0  0  0  0  0  0  0  0  0  0  0  0
    2.2210    0.4950    2.5330 O   0  0  0  0  0  0  0  0  0  0  0  0
    0.8420   -1.1950    6.5240 H   0  0  0  0  0  0  0  0  0  0  0  0
    1.1190   -1.6270    4.8220 H   0  0  0  0  0  0  0  0  0  0  0  0
   -0.1750   -0.4280    5.2860 H   0  0  0  0  0  0  0  0  0  0  0  0
    2.7770   -0.0270    4.8920 H   0  0  0  0  0  0  0  0  0  0  0  0
    1.2570    1.2840    7.2200 H   0  0  0  0  0  0  0  0  0  0  0  0
    2.6070    0.0580    7.3930 H   0  0  0  0  0  0  0  0  0  0  0  0
    2.9290    1.6690    6.7370 H   0  0  0  0  0  0  0  0  0  0  0  0
    2.1510    2.2830    4.5380 H   0  0  0  0  0  0  0  0  0  0  0  0
   -0.0830    2.9790    4.4520 H   0  0  0  0  0  0  0  0  0  0  0  0
   -0.1070    2.0350    5.9280 H   0  0  0  0  0  0  0  0  0  0  0  0
    0.7180    3.2000    0.1980 C   0  0  0  0  0  0  0  0  0  0  0  0
    0.9610    1.7000    0.0880 C   0  0  0  0  0  0  0  0  0  0  0  0
    0.9320    1.4040   -1.3930 C   0  0  0  0  0  0  0  0  0  0  0  0
   -0.0220    0.9240    0.9100 C   0  0  2  0  0  0  0  0  0  0  0  0
    0.0880    1.3220    2.3240 N   0  0  0  0  0  0  0  0  0  0  0  0
    0.0990   -0.5460    0.8010 C   0  0  0  0  0  0  0  0  0  0  0  0
    0.4120   -1.2490    1.8370 O   0  0  0  0  0  0  0  0  0  0  0  0
    1.6680    3.7200   -0.0440 H   0  0  0  0  0  0  0  0  0  0  0  0
   -0.0280    3.5480   -0.5460 H   0  0  0  0  0  0  0  0  0  0  0  0
    0.3300    3.4630    1.1940 H   0  0  0  0  0  0  0  0  0  0  0  0
    1.9810    1.4690    0.4490 H   0  0  0  0  0  0  0  0  0  0  0  0
    1.4790    0.4910   -1.6730 H   0  0  0  0  0  0  0  0  0  0  0  0
    1.4170    2.2730   -1.9450 H   0  0  0  0  0  0  0  0  0  0  0  0
   -0.1040    1.4000   -1.7880 H   0  0  0  0  0  0  0  0  0  0  0  0
   -1.0400    1.2130    0.5950 H   0  0  0  0  0  0  0  0  0  0  0  0
   -0.6940    1.8080    2.8240 H   0  0  0  0  0  0  0  0  0  0  0  0
   -0.1020   -1.3130   -0.3690 N   0  0  0  0  0  0  0  0  0  0  0  0
    0.0530   -2.7930   -0.3610 C   0  0  1  0  0  0  0  0  0  0  0  0
   -1.3480   -3.3010   -0.5760 C   0  0  0  0  0  0  0  0  0  0  0  0
   -1.9760   -2.8500   -1.8250 C   0  0  0  0  0  0  0  0  0  0  0  0
   -2.7980   -1.7330   -2.0020 C   0  0  0  0  0  0  0  0  0  0  0  0
   -3.1320   -1.6240   -3.2860 N   0  0  0  0  0  0  0  0  0  0  0  0
   -2.5580   -2.6440   -3.9930 C   0  0  0  0  0  0  0  0  0  0  0  0
   -2.5950   -2.9910   -5.3250 C   0  0  0  0  0  0  0  0  0  0  0  0
   -1.9140   -4.1070   -5.7600 C   0  0  0  0  0  0  0  0  0  0  0  0
   -1.2040   -4.8580   -4.8360 C   0  0  0  0  0  0  0  0  0  0  0  0
   -1.1590   -4.5200   -3.5010 C   0  0  0  0  0  0  0  0  0  0  0  0
   -1.8400   -3.4010   -3.0700 C   0  0  0  0  0  0  0  0  0  0  0  0
    1.0610   -3.1750   -1.3240 C   0  0  0  0  0  0  0  0  0  0  0  0
    1.5540   -2.3240   -2.1080 O   0  0  0  0  0  0  0  0  0  0  0  0
    1.5310   -4.4710   -1.4290 O   0  0  0  0  0  0  0  0  0  0  0  0
   -0.3790   -0.8490   -1.2520 H   0  0  0  0  0  0  0  0  0  0  0  0
    0.3350   -3.1020    0.6710 H   0  0  0  0  0  0  0  0  0  0  0  0
   -1.3900   -4.4160   -0.5770 H   0  0  0  0  0  0  0  0  0  0  0  0
   -1.9720   -2.9100    0.2650 H   0  0  0  0  0  0  0  0  0  0  0  0
   -3.0880   -1.0900   -1.1950 H   0  0  0  0  0  0  0  0  0  0  0  0
   -3.7280   -0.9150   -3.7680 H   0  0  0  0  0  0  0  0  0  0  0  0
   -3.1640   -2.3770   -6.0210 H   0  0  0  0  0  0  0  0  0  0  0  0
   -1.9190   -4.4190   -6.8150 H   0  0  0  0  0  0  0  0  0  0  0  0
   -0.6520   -5.7460   -5.1240 H   0  0  0  0  0  0  0  0  0  0  0  0
   -0.6080   -5.1360   -2.7810 H   0  0  0  0  0  0  0  0  0  0  0  0
  1  8  1  0  0  0  0
  2  1  1  0  0  0  0
  2  3  1  0  0  0  0
  3 12  1  0  0  0  0
  3 13  1  0  0  0  0
  4 15  1  1  0  0  0
  4  5  1  0  0  0  0
  4  2  1  0  0  0  0
  5 17  1  0  0  0  0
  6  4  1  0  0  0  0
  7  6  2  0  0  0  0
  9  1  1  0  0  0  0
 10  1  1  0  0  0  0
 11  2  1  0  0  0  0
 14  3  1  0  0  0  0
 16  5  1  0  0  0  0
 18 27  1  0  0  0  0
 19 18  1  0  0  0  0
 19 28  1  0  0  0  0
 19 21  1  0  0  0  0
 20 19  1  0  0  0  0
 21 32  1  6  0  0  0
 21 22  1  0  0  0  0
 22 33  1  0  0  0  0
 22  6  1  0  0  0  0
 23 21  1  0  0  0  0
 23 24  2  0  0  0  0
 25 18  1  0  0  0  0
 26 18  1  0  0  0  0
 29 20  1  0  0  0  0
 30 20  1  0  0  0  0
 31 20  1  0  0  0  0
 34 35  1  0  0  0  0
 34 23  1  0  0  0  0
 35 50  1  1  0  0  0
 36 35  1  0  0  0  0
 36 52  1  0  0  0  0
 37 36  1  0  0  0  0
 38 37  2  0  0  0  0
 38 53  1  0  0  0  0
 39 38  1  0  0  0  0
 40 39  1  0  0  0  0
 40 45  1  0  0  0  0
 41 40  2  0  0  0  0
 42 41  1  0  0  0  0
 42 43  2  0  0  0  0
 43 44  1  0  0  0  0
 44 45  2  0  0  0  0
 44 58  1  0  0  0  0
 45 37  1  0  0  0  0
 46 35  1  0  0  0  0
 47 46  2  0  0  0  0
 48 46  1  0  0  0  0
 49 34  1  0  0  0  0
 51 36  1  0  0  0  0
 54 39  1  0  0  0  0
 55 41  1  0  0  0  0
 56 42  1  0  0  0  0
 57 43  1  0  0  0  0
M  END
$$$$
