VVY.pdb
 OpenBabel07022419283D

 55 55  0  0  1  0  0  0  0  0999 V2000
    4.5860   -2.3500    0.0480 C   0  0  0  0  0  0  0  0  0  0  0  0
    3.3370   -1.8140    0.7180 C   0  0  0  0  0  0  0  0  0  0  0  0
    3.1630   -2.5590    2.0300 C   0  0  0  0  0  0  0  0  0  0  0  0
    3.6010   -0.3560    1.0910 C   0  0  2  0  0  0  0  0  0  0  0  0
    4.7360   -0.3720    1.9940 N   0  0  0  0  0  0  0  0  0  0  0  0
    2.3920    0.1940    1.7570 C   0  0  0  0  0  0  0  0  0  0  0  0
    2.4570    0.5660    2.9570 O   0  0  0  0  0  0  0  0  0  0  0  0
    4.6830   -2.0590   -0.9980 H   0  0  0  0  0  0  0  0  0  0  0  0
    5.4480   -1.8940    0.6140 H   0  0  0  0  0  0  0  0  0  0  0  0
    4.5760   -3.4610    0.1730 H   0  0  0  0  0  0  0  0  0  0  0  0
    2.4800   -1.9340    0.0540 H   0  0  0  0  0  0  0  0  0  0  0  0
    3.6070   -3.5720    1.9730 H   0  0  0  0  0  0  0  0  0  0  0  0
    2.1040   -2.6460    2.2860 H   0  0  0  0  0  0  0  0  0  0  0  0
    3.7240   -2.0210    2.8430 H   0  0  0  0  0  0  0  0  0  0  0  0
    3.8510    0.2000    0.1600 H   0  0  0  0  0  0  0  0  0  0  0  0
    4.5270    0.3390    2.7530 H   0  0  0  0  0  0  0  0  0  0  0  0
    5.5720   -0.0020    1.5010 H   0  0  0  0  0  0  0  0  0  0  0  0
   -1.7200    2.6860    1.6790 C   0  0  0  0  0  0  0  0  0  0  0  0
   -0.4570    2.1460    1.0430 C   0  0  0  0  0  0  0  0  0  0  0  0
   -0.6330    2.0660   -0.4360 C   0  0  0  0  0  0  0  0  0  0  0  0
   -0.0440    0.8420    1.6810 C   0  0  2  0  0  0  0  0  0  0  0  0
    1.1640    0.3140    1.0820 N   0  0  0  0  0  0  0  0  0  0  0  0
   -1.1140   -0.1690    1.6810 C   0  0  0  0  0  0  0  0  0  0  0  0
   -2.2440    0.1030    2.1610 O   0  0  0  0  0  0  0  0  0  0  0  0
   -1.7580    3.7880    1.4720 H   0  0  0  0  0  0  0  0  0  0  0  0
   -2.5750    2.1840    1.1470 H   0  0  0  0  0  0  0  0  0  0  0  0
   -1.7890    2.4890    2.7530 H   0  0  0  0  0  0  0  0  0  0  0  0
    0.3590    2.8800    1.2490 H   0  0  0  0  0  0  0  0  0  0  0  0
   -1.6400    1.7320   -0.7470 H   0  0  0  0  0  0  0  0  0  0  0  0
   -0.5430    3.1210   -0.8320 H   0  0  0  0  0  0  0  0  0  0  0  0
    0.1900    1.5110   -0.9320 H   0  0  0  0  0  0  0  0  0  0  0  0
    0.2380    1.1030    2.7440 H   0  0  0  0  0  0  0  0  0  0  0  0
    1.1120    0.0030    0.0840 H   0  0  0  0  0  0  0  0  0  0  0  0
   -3.8250    1.1080   -3.8360 O   0  0  0  0  0  0  0  0  0  0  0  0
   -3.4910    0.0990   -2.9410 C   0  0  0  0  0  0  0  0  0  0  0  0
   -4.4440   -0.5620   -2.1950 C   0  0  0  0  0  0  0  0  0  0  0  0
   -4.0940   -1.5630   -1.3090 C   0  0  0  0  0  0  0  0  0  0  0  0
   -2.7730   -1.9250   -1.1490 C   0  0  0  0  0  0  0  0  0  0  0  0
   -2.2940   -2.9700   -0.2400 C   0  0  0  0  0  0  0  0  0  0  0  0
   -1.9590   -2.4740    1.1430 C   0  0  2  0  0  0  0  0  0  0  0  0
   -0.9320   -1.4750    1.1530 N   0  0  0  0  0  0  0  0  0  0  0  0
   -1.5640   -3.6510    1.9500 C   0  0  0  0  0  0  0  0  0  0  0  0
   -0.4470   -3.6430    2.5160 O   0  0  0  0  0  0  0  0  0  0  0  0
   -1.8450   -1.2400   -1.9140 C   0  0  0  0  0  0  0  0  0  0  0  0
   -2.1830   -0.2510   -2.7910 C   0  0  0  0  0  0  0  0  0  0  0  0
   -2.3730   -4.7610    2.1090 O   0  0  0  0  0  0  0  0  0  0  0  0
   -4.5850    1.7470   -3.7200 H   0  0  0  0  0  0  0  0  0  0  0  0
   -5.4720   -0.2520   -2.3460 H   0  0  0  0  0  0  0  0  0  0  0  0
   -4.8440   -2.0780   -0.7270 H   0  0  0  0  0  0  0  0  0  0  0  0
   -1.4360   -3.5370   -0.6840 H   0  0  0  0  0  0  0  0  0  0  0  0
   -3.1090   -3.7220   -0.1250 H   0  0  0  0  0  0  0  0  0  0  0  0
   -2.9000   -2.0820    1.5960 H   0  0  0  0  0  0  0  0  0  0  0  0
    0.0100   -1.6900    0.7580 H   0  0  0  0  0  0  0  0  0  0  0  0
   -0.8000   -1.4910   -1.8210 H   0  0  0  0  0  0  0  0  0  0  0  0
   -1.4210    0.2550   -3.3650 H   0  0  0  0  0  0  0  0  0  0  0  0
  1 10  1  0  0  0  0
  1  9  1  0  0  0  0
  1  2  1  0  0  0  0
  2  4  1  0  0  0  0
  2  3  1  0  0  0  0
  3 13  1  0  0  0  0
  3 14  1  0  0  0  0
  4 15  1  6  0  0  0
  4  6  1  0  0  0  0
  4  5  1  0  0  0  0
  5 16  1  0  0  0  0
  6  7  2  0  0  0  0
  8  1  1  0  0  0  0
 11  2  1  0  0  0  0
 12  3  1  0  0  0  0
 17  5  1  0  0  0  0
 18 27  1  0  0  0  0
 19 28  1  0  0  0  0
 19 18  1  0  0  0  0
 19 21  1  0  0  0  0
 20 19  1  0  0  0  0
 21 23  1  0  0  0  0
 21 32  1  1  0  0  0
 22 21  1  0  0  0  0
 22  6  1  0  0  0  0
 23 24  2  0  0  0  0
 25 18  1  0  0  0  0
 26 18  1  0  0  0  0
 29 20  1  0  0  0  0
 30 20  1  0  0  0  0
 31 20  1  0  0  0  0
 33 22  1  0  0  0  0
 34 47  1  0  0  0  0
 34 35  1  0  0  0  0
 35 45  2  0  0  0  0
 35 36  1  0  0  0  0
 36 37  2  0  0  0  0
 37 38  1  0  0  0  0
 37 49  1  0  0  0  0
 38 39  1  0  0  0  0
 39 51  1  0  0  0  0
 39 40  1  0  0  0  0
 40 41  1  0  0  0  0
 40 52  1  1  0  0  0
 40 42  1  0  0  0  0
 41 23  1  0  0  0  0
 42 46  2  0  0  0  0
 42 43  1  0  0  0  0
 44 54  1  0  0  0  0
 44 38  2  0  0  0  0
 45 44  1  0  0  0  0
 48 36  1  0  0  0  0
 50 39  1  0  0  0  0
 53 41  1  0  0  0  0
 55 45  1  0  0  0  0
M  END
$$$$
