VWC.pdb
 OpenBabel07022419273D

 53 54  0  0  1  0  0  0  0  0999 V2000
    4.0160   -2.0220    2.3120 C   0  0  0  0  0  0  0  0  0  0  0  0
    2.5450   -1.8510    1.9930 C   0  0  0  0  0  0  0  0  0  0  0  0
    1.7520   -2.4040    3.1590 C   0  0  0  0  0  0  0  0  0  0  0  0
    2.2470   -0.3710    1.7810 C   0  0  2  0  0  0  0  0  0  0  0  0
    2.5910    0.3030    3.0150 N   0  0  0  0  0  0  0  0  0  0  0  0
    0.8250   -0.1880    1.4140 C   0  0  0  0  0  0  0  0  0  0  0  0
    0.0690    0.4650    2.1620 O   0  0  0  0  0  0  0  0  0  0  0  0
    4.5750   -1.0710    2.3020 H   0  0  0  0  0  0  0  0  0  0  0  0
    4.5290   -2.6930    1.5920 H   0  0  0  0  0  0  0  0  0  0  0  0
    4.1720   -2.4580    3.3430 H   0  0  0  0  0  0  0  0  0  0  0  0
    2.3550   -2.4470    1.0680 H   0  0  0  0  0  0  0  0  0  0  0  0
    1.0180   -3.1290    2.7480 H   0  0  0  0  0  0  0  0  0  0  0  0
    2.3870   -2.9740    3.8560 H   0  0  0  0  0  0  0  0  0  0  0  0
    1.1900   -1.6220    3.7040 H   0  0  0  0  0  0  0  0  0  0  0  0
    2.8770   -0.0480    0.9250 H   0  0  0  0  0  0  0  0  0  0  0  0
    3.5990    0.5810    3.0150 H   0  0  0  0  0  0  0  0  0  0  0  0
    1.9620    1.1340    3.1630 H   0  0  0  0  0  0  0  0  0  0  0  0
    0.3220   -0.7440    0.2300 N   0  0  0  0  0  0  0  0  0  0  0  0
   -1.0220   -0.6380   -0.2360 C   0  0  1  0  0  0  0  0  0  0  0  0
   -1.1690    0.1970   -1.4860 C   0  0  0  0  0  0  0  0  0  0  0  0
   -0.6940    1.5910   -1.2480 C   0  0  0  0  0  0  0  0  0  0  0  0
    0.4630    2.2080   -1.6150 C   0  0  0  0  0  0  0  0  0  0  0  0
    0.4470    3.4800   -1.1660 N   0  0  0  0  0  0  0  0  0  0  0  0
   -0.7130    3.7150   -0.5020 C   0  0  0  0  0  0  0  0  0  0  0  0
   -1.2230    4.8410    0.1430 C   0  0  0  0  0  0  0  0  0  0  0  0
   -2.4600    4.8070    0.7520 C   0  0  0  0  0  0  0  0  0  0  0  0
   -3.1830    3.6340    0.7080 C   0  0  0  0  0  0  0  0  0  0  0  0
   -2.6810    2.5220    0.0710 C   0  0  0  0  0  0  0  0  0  0  0  0
   -1.4340    2.5400   -0.5480 C   0  0  0  0  0  0  0  0  0  0  0  0
   -1.6840   -1.9380   -0.4350 C   0  0  0  0  0  0  0  0  0  0  0  0
   -2.8790   -2.0080   -0.8480 O   0  0  0  0  0  0  0  0  0  0  0  0
    1.0000   -1.2930   -0.3750 H   0  0  0  0  0  0  0  0  0  0  0  0
   -1.5910   -0.0840    0.5490 H   0  0  0  0  0  0  0  0  0  0  0  0
   -2.2570    0.2710   -1.6930 H   0  0  0  0  0  0  0  0  0  0  0  0
   -0.6940   -0.2400   -2.3620 H   0  0  0  0  0  0  0  0  0  0  0  0
    1.2550    1.7060   -2.1870 H   0  0  0  0  0  0  0  0  0  0  0  0
    1.1880    4.2040   -1.2870 H   0  0  0  0  0  0  0  0  0  0  0  0
   -0.5940    5.7300    0.1360 H   0  0  0  0  0  0  0  0  0  0  0  0
   -2.8450    5.7020    1.2540 H   0  0  0  0  0  0  0  0  0  0  0  0
   -4.1630    3.5650    1.1760 H   0  0  0  0  0  0  0  0  0  0  0  0
   -3.2180    1.5810    0.0120 H   0  0  0  0  0  0  0  0  0  0  0  0
   -1.0530   -3.1880   -0.1870 N   0  0  0  0  0  0  0  0  0  0  0  0
   -1.6930   -4.4740   -0.3790 C   0  0  1  0  0  0  0  0  0  0  0  0
   -0.9050   -5.2230   -1.4500 C   0  0  0  0  0  0  0  0  0  0  0  0
   -0.9770   -4.1910   -2.9600 S   0  0  0  0  0  0  0  0  0  0  0  0
   -1.7090   -5.2710    0.8700 C   0  0  0  0  0  0  0  0  0  0  0  0
   -2.2300   -6.4120    0.8730 O   0  0  0  0  0  0  0  0  0  0  0  0
   -1.1640   -4.7990    2.0470 O   0  0  0  0  0  0  0  0  0  0  0  0
   -0.0690   -3.1750    0.1550 H   0  0  0  0  0  0  0  0  0  0  0  0
   -2.7210   -4.2690   -0.7430 H   0  0  0  0  0  0  0  0  0  0  0  0
   -1.3170   -6.2280   -1.6460 H   0  0  0  0  0  0  0  0  0  0  0  0
    0.1510   -5.2740   -1.1530 H   0  0  0  0  0  0  0  0  0  0  0  0
   -2.2930   -4.1890   -3.4980 H   0  0  0  0  0  0  0  0  0  0  0  0
  1 10  1  0  0  0  0
  2  1  1  0  0  0  0
  2  3  1  0  0  0  0
  3 14  1  0  0  0  0
  3 13  1  0  0  0  0
  4 15  1  6  0  0  0
  4  2  1  0  0  0  0
  4  5  1  0  0  0  0
  5 17  1  0  0  0  0
  6  4  1  0  0  0  0
  6  7  2  0  0  0  0
  8  1  1  0  0  0  0
  9  1  1  0  0  0  0
 11  2  1  0  0  0  0
 12  3  1  0  0  0  0
 16  5  1  0  0  0  0
 18  6  1  0  0  0  0
 19 18  1  0  0  0  0
 19 33  1  1  0  0  0
 20 21  1  0  0  0  0
 20 19  1  0  0  0  0
 21 29  1  0  0  0  0
 22 21  2  0  0  0  0
 22 23  1  0  0  0  0
 23 24  1  0  0  0  0
 24 25  1  0  0  0  0
 25 26  2  0  0  0  0
 26 39  1  0  0  0  0
 27 26  1  0  0  0  0
 27 40  1  0  0  0  0
 28 27  2  0  0  0  0
 29 24  2  0  0  0  0
 29 28  1  0  0  0  0
 30 19  1  0  0  0  0
 30 42  1  0  0  0  0
 31 30  2  0  0  0  0
 32 18  1  0  0  0  0
 34 20  1  0  0  0  0
 35 20  1  0  0  0  0
 36 22  1  0  0  0  0
 37 23  1  0  0  0  0
 38 25  1  0  0  0  0
 41 28  1  0  0  0  0
 42 49  1  0  0  0  0
 43 50  1  6  0  0  0
 43 42  1  0  0  0  0
 43 46  1  0  0  0  0
 44 52  1  0  0  0  0
 44 43  1  0  0  0  0
 45 44  1  0  0  0  0
 46 47  2  0  0  0  0
 46 48  1  0  0  0  0
 51 44  1  0  0  0  0
 53 45  1  0  0  0  0
M  END
$$$$
