VWD.pdb
 OpenBabel07022419273D

 55 56  0  0  1  0  0  0  0  0999 V2000
    4.0460   -0.5140   -1.0100 C   0  0  0  0  0  0  0  0  0  0  0  0
    4.0850   -1.4290    0.1860 C   0  0  0  0  0  0  0  0  0  0  0  0
    5.3970   -2.1960    0.2480 C   0  0  0  0  0  0  0  0  0  0  0  0
    3.8420   -0.6840    1.4780 C   0  0  2  0  0  0  0  0  0  0  0  0
    3.8920   -1.5860    2.6120 N   0  0  0  0  0  0  0  0  0  0  0  0
    2.5420    0.0120    1.3800 C   0  0  0  0  0  0  0  0  0  0  0  0
    2.4340    1.0890    2.0680 O   0  0  0  0  0  0  0  0  0  0  0  0
    4.8830    0.2280   -0.9910 H   0  0  0  0  0  0  0  0  0  0  0  0
    4.2440   -1.1700   -1.9040 H   0  0  0  0  0  0  0  0  0  0  0  0
    3.0910   -0.0200   -1.1780 H   0  0  0  0  0  0  0  0  0  0  0  0
    3.2830   -2.1750    0.0890 H   0  0  0  0  0  0  0  0  0  0  0  0
    5.6010   -2.3690    1.3240 H   0  0  0  0  0  0  0  0  0  0  0  0
    5.2510   -3.1740   -0.2320 H   0  0  0  0  0  0  0  0  0  0  0  0
    6.2100   -1.6070   -0.2350 H   0  0  0  0  0  0  0  0  0  0  0  0
    4.6420    0.0710    1.6610 H   0  0  0  0  0  0  0  0  0  0  0  0
    3.0760   -2.2140    2.6780 H   0  0  0  0  0  0  0  0  0  0  0  0
    4.0710   -1.0200    3.4570 H   0  0  0  0  0  0  0  0  0  0  0  0
    1.4340   -0.3880    0.6190 N   0  0  0  0  0  0  0  0  0  0  0  0
    0.1590    0.3520    0.5610 C   0  0  1  0  0  0  0  0  0  0  0  0
   -0.0760    0.9260   -0.7690 C   0  0  0  0  0  0  0  0  0  0  0  0
   -1.3400    1.6650   -0.9260 C   0  0  0  0  0  0  0  0  0  0  0  0
   -1.4860    3.0470   -0.7550 C   0  0  0  0  0  0  0  0  0  0  0  0
   -2.7720    3.3830   -0.9380 N   0  0  0  0  0  0  0  0  0  0  0  0
   -3.5160    2.2780   -1.2300 C   0  0  0  0  0  0  0  0  0  0  0  0
   -4.8570    2.0980   -1.5100 C   0  0  0  0  0  0  0  0  0  0  0  0
   -5.3490    0.8470   -1.7930 C   0  0  0  0  0  0  0  0  0  0  0  0
   -4.4580   -0.2040   -1.7850 C   0  0  0  0  0  0  0  0  0  0  0  0
   -3.1210   -0.0350   -1.5060 C   0  0  0  0  0  0  0  0  0  0  0  0
   -2.6180    1.2320   -1.2180 C   0  0  0  0  0  0  0  0  0  0  0  0
   -0.8350   -0.4670    1.2100 C   0  0  0  0  0  0  0  0  0  0  0  0
   -1.9900   -0.0080    1.3950 O   0  0  0  0  0  0  0  0  0  0  0  0
    1.4890   -1.2560    0.0570 H   0  0  0  0  0  0  0  0  0  0  0  0
    0.3480    1.2300    1.2640 H   0  0  0  0  0  0  0  0  0  0  0  0
    0.7560    1.6740   -0.9660 H   0  0  0  0  0  0  0  0  0  0  0  0
    0.0520    0.2070   -1.6150 H   0  0  0  0  0  0  0  0  0  0  0  0
   -0.6470    3.6870   -0.5130 H   0  0  0  0  0  0  0  0  0  0  0  0
   -3.1590    4.3700   -0.8660 H   0  0  0  0  0  0  0  0  0  0  0  0
   -5.5180    2.9480   -1.5050 H   0  0  0  0  0  0  0  0  0  0  0  0
   -6.4090    0.6770   -2.0190 H   0  0  0  0  0  0  0  0  0  0  0  0
   -4.8420   -1.1910   -2.0090 H   0  0  0  0  0  0  0  0  0  0  0  0
   -2.4070   -0.8400   -1.4940 H   0  0  0  0  0  0  0  0  0  0  0  0
   -0.5940   -1.8050    1.6720 N   0  0  0  0  0  0  0  0  0  0  0  0
   -1.6650   -2.5380    2.3100 C   0  0  1  0  0  0  0  0  0  0  0  0
   -1.9530   -3.8440    1.5990 C   0  0  0  0  0  0  0  0  0  0  0  0
   -2.3470   -3.5590    0.1980 C   0  0  0  0  0  0  0  0  0  0  0  0
   -1.4760   -3.2930   -0.6700 O   0  0  0  0  0  0  0  0  0  0  0  0
   -1.2620   -2.8220    3.7060 C   0  0  0  0  0  0  0  0  0  0  0  0
   -2.0070   -3.4530    4.5050 O   0  0  0  0  0  0  0  0  0  0  0  0
   -3.6760   -3.5810   -0.1860 O   0  0  0  0  0  0  0  0  0  0  0  0
   -0.0340   -2.3850    4.1550 O   0  0  0  0  0  0  0  0  0  0  0  0
    0.3450   -2.1750    1.5210 H   0  0  0  0  0  0  0  0  0  0  0  0
   -2.6020   -1.9380    2.3510 H   0  0  0  0  0  0  0  0  0  0  0  0
   -1.1010   -4.5290    1.6060 H   0  0  0  0  0  0  0  0  0  0  0  0
   -2.8180   -4.3170    2.1010 H   0  0  0  0  0  0  0  0  0  0  0  0
   -3.9120   -3.4970   -1.1780 H   0  0  0  0  0  0  0  0  0  0  0  0
  1  8  1  0  0  0  0
  1  2  1  0  0  0  0
  2  3  1  0  0  0  0
  2  4  1  0  0  0  0
  3 12  1  0  0  0  0
  4 15  1  1  0  0  0
  4  5  1  0  0  0  0
  5 16  1  0  0  0  0
  5 17  1  0  0  0  0
  6  4  1  0  0  0  0
  6  7  2  0  0  0  0
  9  1  1  0  0  0  0
 10  1  1  0  0  0  0
 11  2  1  0  0  0  0
 13  3  1  0  0  0  0
 14  3  1  0  0  0  0
 18  6  1  0  0  0  0
 19 18  1  0  0  0  0
 19 30  1  0  0  0  0
 19 33  1  1  0  0  0
 20 19  1  0  0  0  0
 21 20  1  0  0  0  0
 21 22  2  0  0  0  0
 22 36  1  0  0  0  0
 23 37  1  0  0  0  0
 23 22  1  0  0  0  0
 24 29  1  0  0  0  0
 24 23  1  0  0  0  0
 25 38  1  0  0  0  0
 25 24  2  0  0  0  0
 26 27  2  0  0  0  0
 26 25  1  0  0  0  0
 27 28  1  0  0  0  0
 28 41  1  0  0  0  0
 28 29  2  0  0  0  0
 29 21  1  0  0  0  0
 30 31  2  0  0  0  0
 30 42  1  0  0  0  0
 32 18  1  0  0  0  0
 34 20  1  0  0  0  0
 35 20  1  0  0  0  0
 39 26  1  0  0  0  0
 40 27  1  0  0  0  0
 42 43  1  0  0  0  0
 43 52  1  1  0  0  0
 43 47  1  0  0  0  0
 44 53  1  0  0  0  0
 44 54  1  0  0  0  0
 44 43  1  0  0  0  0
 45 44  1  0  0  0  0
 46 45  2  0  0  0  0
 47 50  2  0  0  0  0
 47 48  1  0  0  0  0
 49 45  1  0  0  0  0
 51 42  1  0  0  0  0
 55 49  1  0  0  0  0
M  END
$$$$
