VWF.pdb
 OpenBabel07022419273D

 62 64  0  0  1  0  0  0  0  0999 V2000
    0.1800   -3.1000    2.1490 C   0  0  0  0  0  0  0  0  0  0  0  0
    0.5640   -2.1210    3.2180 C   0  0  0  0  0  0  0  0  0  0  0  0
   -0.5900   -1.8470    4.1670 C   0  0  0  0  0  0  0  0  0  0  0  0
    1.2410   -0.8770    2.7670 C   0  0  2  0  0  0  0  0  0  0  0  0
    1.5060   -0.1310    4.0320 N   0  0  0  0  0  0  0  0  0  0  0  0
    0.4840    0.0390    1.9300 C   0  0  0  0  0  0  0  0  0  0  0  0
    0.0230    1.1040    2.4170 O   0  0  0  0  0  0  0  0  0  0  0  0
   -0.9400   -3.1290    1.9980 H   0  0  0  0  0  0  0  0  0  0  0  0
    0.3840   -4.1670    2.4870 H   0  0  0  0  0  0  0  0  0  0  0  0
    0.7460   -3.0160    1.2120 H   0  0  0  0  0  0  0  0  0  0  0  0
    1.3230   -2.6600    3.8650 H   0  0  0  0  0  0  0  0  0  0  0  0
   -0.1640   -1.3860    5.1050 H   0  0  0  0  0  0  0  0  0  0  0  0
   -1.0060   -2.8300    4.4720 H   0  0  0  0  0  0  0  0  0  0  0  0
   -1.3780   -1.2360    3.7290 H   0  0  0  0  0  0  0  0  0  0  0  0
    2.2340   -1.1610    2.3490 H   0  0  0  0  0  0  0  0  0  0  0  0
    2.3510    0.4670    3.9230 H   0  0  0  0  0  0  0  0  0  0  0  0
    0.7060    0.5280    4.2110 H   0  0  0  0  0  0  0  0  0  0  0  0
    0.1840   -0.1270    0.5500 N   0  0  0  0  0  0  0  0  0  0  0  0
   -0.5590    0.8200   -0.2070 C   0  0  1  0  0  0  0  0  0  0  0  0
    0.0880    1.3760   -1.4160 C   0  0  0  0  0  0  0  0  0  0  0  0
    1.3380    2.1000   -1.2480 C   0  0  0  0  0  0  0  0  0  0  0  0
    2.5810    1.5820   -1.5550 C   0  0  0  0  0  0  0  0  0  0  0  0
    3.5410    2.4820   -1.2930 N   0  0  0  0  0  0  0  0  0  0  0  0
    2.9210    3.5800   -0.8160 C   0  0  0  0  0  0  0  0  0  0  0  0
    3.4030    4.8200   -0.3810 C   0  0  0  0  0  0  0  0  0  0  0  0
    2.5130    5.7740    0.0640 C   0  0  0  0  0  0  0  0  0  0  0  0
    1.1520    5.5240    0.0860 C   0  0  0  0  0  0  0  0  0  0  0  0
    0.6600    4.3210   -0.3340 C   0  0  0  0  0  0  0  0  0  0  0  0
    1.5630    3.3710   -0.7790 C   0  0  0  0  0  0  0  0  0  0  0  0
   -1.7970    0.1570   -0.6740 C   0  0  0  0  0  0  0  0  0  0  0  0
   -2.6440    0.8330   -1.3350 O   0  0  0  0  0  0  0  0  0  0  0  0
    0.5200   -0.9790    0.0410 H   0  0  0  0  0  0  0  0  0  0  0  0
   -0.9120    1.6070    0.5090 H   0  0  0  0  0  0  0  0  0  0  0  0
    0.2150    0.5480   -2.1410 H   0  0  0  0  0  0  0  0  0  0  0  0
   -0.6500    2.0730   -1.8870 H   0  0  0  0  0  0  0  0  0  0  0  0
    2.8090    0.5940   -1.9550 H   0  0  0  0  0  0  0  0  0  0  0  0
    4.5900    2.3790   -1.4230 H   0  0  0  0  0  0  0  0  0  0  0  0
    4.4700    5.0150   -0.3990 H   0  0  0  0  0  0  0  0  0  0  0  0
    2.9060    6.7210    0.3940 H   0  0  0  0  0  0  0  0  0  0  0  0
    0.4730    6.2880    0.4390 H   0  0  0  0  0  0  0  0  0  0  0  0
   -0.3800    4.0560   -0.3450 H   0  0  0  0  0  0  0  0  0  0  0  0
   -2.0540   -1.1880   -0.4070 N   0  0  0  0  0  0  0  0  0  0  0  0
   -3.2530   -1.8830   -0.8410 C   0  0  1  0  0  0  0  0  0  0  0  0
   -2.9490   -2.9380   -1.8660 C   0  0  0  0  0  0  0  0  0  0  0  0
   -2.0170   -3.9740   -1.3530 C   0  0  0  0  0  0  0  0  0  0  0  0
   -0.6520   -3.8050   -1.5030 C   0  0  0  0  0  0  0  0  0  0  0  0
    0.2080   -4.7710   -1.0270 C   0  0  0  0  0  0  0  0  0  0  0  0
   -0.3000   -5.8890   -0.4090 C   0  0  0  0  0  0  0  0  0  0  0  0
   -1.6560   -6.0300   -0.2740 C   0  0  0  0  0  0  0  0  0  0  0  0
   -2.5560   -5.0820   -0.7390 C   0  0  0  0  0  0  0  0  0  0  0  0
   -4.0440   -2.3920    0.2870 C   0  0  0  0  0  0  0  0  0  0  0  0
   -5.1060   -3.0110    0.0780 O   0  0  0  0  0  0  0  0  0  0  0  0
   -3.6170   -2.1890    1.5820 O   0  0  0  0  0  0  0  0  0  0  0  0
   -1.3660   -1.7440    0.1260 H   0  0  0  0  0  0  0  0  0  0  0  0
   -3.8750   -1.1080   -1.3800 H   0  0  0  0  0  0  0  0  0  0  0  0
   -3.9070   -3.4100   -2.1690 H   0  0  0  0  0  0  0  0  0  0  0  0
   -2.5050   -2.5230   -2.7820 H   0  0  0  0  0  0  0  0  0  0  0  0
   -0.2800   -2.9270   -1.9880 H   0  0  0  0  0  0  0  0  0  0  0  0
    1.2830   -4.6370   -1.1470 H   0  0  0  0  0  0  0  0  0  0  0  0
    0.3520   -6.6600   -0.0270 H   0  0  0  0  0  0  0  0  0  0  0  0
   -2.0840   -6.9000    0.2090 H   0  0  0  0  0  0  0  0  0  0  0  0
   -3.6280   -5.2170   -0.6190 H   0  0  0  0  0  0  0  0  0  0  0  0
  1  9  1  0  0  0  0
  1  2  1  0  0  0  0
  2 11  1  0  0  0  0
  2  3  1  0  0  0  0
  3 13  1  0  0  0  0
  3 12  1  0  0  0  0
  4 15  1  6  0  0  0
  4  2  1  0  0  0  0
  4  5  1  0  0  0  0
  5 17  1  0  0  0  0
  6  7  2  0  0  0  0
  6  4  1  0  0  0  0
  8  1  1  0  0  0  0
 10  1  1  0  0  0  0
 14  3  1  0  0  0  0
 16  5  1  0  0  0  0
 18  6  1  0  0  0  0
 19 33  1  1  0  0  0
 19 18  1  0  0  0  0
 20 21  1  0  0  0  0
 20 19  1  0  0  0  0
 21 29  1  0  0  0  0
 22 23  1  0  0  0  0
 22 21  2  0  0  0  0
 23 24  1  0  0  0  0
 24 29  2  0  0  0  0
 24 25  1  0  0  0  0
 25 26  2  0  0  0  0
 26 27  1  0  0  0  0
 26 39  1  0  0  0  0
 27 40  1  0  0  0  0
 28 27  2  0  0  0  0
 29 28  1  0  0  0  0
 30 42  1  0  0  0  0
 30 19  1  0  0  0  0
 31 30  2  0  0  0  0
 32 18  1  0  0  0  0
 34 20  1  0  0  0  0
 35 20  1  0  0  0  0
 36 22  1  0  0  0  0
 37 23  1  0  0  0  0
 38 25  1  0  0  0  0
 41 28  1  0  0  0  0
 42 54  1  0  0  0  0
 43 55  1  6  0  0  0
 43 42  1  0  0  0  0
 43 51  1  0  0  0  0
 44 45  1  0  0  0  0
 44 43  1  0  0  0  0
 45 50  1  0  0  0  0
 46 45  2  0  0  0  0
 46 47  1  0  0  0  0
 47 48  2  0  0  0  0
 48 49  1  0  0  0  0
 48 60  1  0  0  0  0
 49 61  1  0  0  0  0
 50 62  1  0  0  0  0
 50 49  2  0  0  0  0
 51 53  1  0  0  0  0
 52 51  2  0  0  0  0
 56 44  1  0  0  0  0
 57 44  1  0  0  0  0
 58 46  1  0  0  0  0
 59 47  1  0  0  0  0
M  END
$$$$
