VWG.pdb
 OpenBabel07022419273D

 49 50  0  0  1  0  0  0  0  0999 V2000
    0.8650   -4.3080    1.9590 C   0  0  0  0  0  0  0  0  0  0  0  0
    2.1900   -3.5870    2.0830 C   0  0  0  0  0  0  0  0  0  0  0  0
    3.0680   -3.9260    0.9040 C   0  0  0  0  0  0  0  0  0  0  0  0
    1.9980   -2.0990    2.2720 C   0  0  2  0  0  0  0  0  0  0  0  0
    1.2320   -1.9180    3.4870 N   0  0  0  0  0  0  0  0  0  0  0  0
    1.2500   -1.5130    1.1020 C   0  0  0  0  0  0  0  0  0  0  0  0
    1.7440   -1.5760   -0.0390 O   0  0  0  0  0  0  0  0  0  0  0  0
    0.8430   -5.2480    2.5850 H   0  0  0  0  0  0  0  0  0  0  0  0
    0.0400   -3.6890    2.3500 H   0  0  0  0  0  0  0  0  0  0  0  0
    0.7120   -4.6460    0.9170 H   0  0  0  0  0  0  0  0  0  0  0  0
    2.6870   -4.0160    2.9850 H   0  0  0  0  0  0  0  0  0  0  0  0
    2.5050   -3.7820   -0.0300 H   0  0  0  0  0  0  0  0  0  0  0  0
    3.3970   -4.9880    1.0360 H   0  0  0  0  0  0  0  0  0  0  0  0
    3.9750   -3.3070    0.8670 H   0  0  0  0  0  0  0  0  0  0  0  0
    2.9750   -1.6190    2.3670 H   0  0  0  0  0  0  0  0  0  0  0  0
    1.1650   -0.9340    3.7960 H   0  0  0  0  0  0  0  0  0  0  0  0
    1.4470   -2.6080    4.2130 H   0  0  0  0  0  0  0  0  0  0  0  0
   -0.0060   -0.8950    1.2890 N   0  0  0  0  0  0  0  0  0  0  0  0
   -0.8220   -0.2850    0.3050 C   0  0  1  0  0  0  0  0  0  0  0  0
   -0.0940    0.3580   -0.8670 C   0  0  0  0  0  0  0  0  0  0  0  0
    0.7770    1.4800   -0.4420 C   0  0  0  0  0  0  0  0  0  0  0  0
    2.1320    1.5890   -0.3040 C   0  0  0  0  0  0  0  0  0  0  0  0
    2.4640    2.8290    0.1110 N   0  0  0  0  0  0  0  0  0  0  0  0
    1.3600    3.5760    0.2600 C   0  0  0  0  0  0  0  0  0  0  0  0
    1.1400    4.8900    0.6500 C   0  0  0  0  0  0  0  0  0  0  0  0
   -0.1340    5.4130    0.7100 C   0  0  0  0  0  0  0  0  0  0  0  0
   -1.1870    4.6230    0.3790 C   0  0  0  0  0  0  0  0  0  0  0  0
   -0.9540    3.3020   -0.0120 C   0  0  0  0  0  0  0  0  0  0  0  0
    0.3100    2.7580   -0.0780 C   0  0  0  0  0  0  0  0  0  0  0  0
   -2.0230   -1.0280   -0.1010 C   0  0  0  0  0  0  0  0  0  0  0  0
   -2.7710   -0.5190   -0.9750 O   0  0  0  0  0  0  0  0  0  0  0  0
   -0.3560   -0.9030    2.2970 H   0  0  0  0  0  0  0  0  0  0  0  0
   -1.2040    0.6900    0.8250 H   0  0  0  0  0  0  0  0  0  0  0  0
    0.4380   -0.3380   -1.5070 H   0  0  0  0  0  0  0  0  0  0  0  0
   -0.9100    0.8450   -1.4820 H   0  0  0  0  0  0  0  0  0  0  0  0
    2.8380    0.7780   -0.5140 H   0  0  0  0  0  0  0  0  0  0  0  0
    3.4260    3.1610    0.2900 H   0  0  0  0  0  0  0  0  0  0  0  0
    1.9530    5.5470    0.9200 H   0  0  0  0  0  0  0  0  0  0  0  0
   -0.3120    6.4530    1.0180 H   0  0  0  0  0  0  0  0  0  0  0  0
   -2.1930    5.0160    0.4190 H   0  0  0  0  0  0  0  0  0  0  0  0
   -1.7850    2.6610   -0.2890 H   0  0  0  0  0  0  0  0  0  0  0  0
   -2.4060   -2.2850    0.4200 N   0  0  0  0  0  0  0  0  0  0  0  0
   -3.6150   -2.9810   -0.0230 C   0  0  0  0  0  0  0  0  0  0  0  0
   -3.5900   -3.2700   -1.4570 C   0  0  0  0  0  0  0  0  0  0  0  0
   -4.5510   -3.8590   -1.9800 O   0  0  0  0  0  0  0  0  0  0  0  0
   -2.5160   -2.9000   -2.2450 O   0  0  0  0  0  0  0  0  0  0  0  0
   -1.7830   -2.7040    1.1450 H   0  0  0  0  0  0  0  0  0  0  0  0
   -3.7080   -3.9090    0.5470 H   0  0  0  0  0  0  0  0  0  0  0  0
   -4.4860   -2.3130    0.2330 H   0  0  0  0  0  0  0  0  0  0  0  0
  1  2  1  0  0  0  0
  1  9  1  0  0  0  0
  1  8  1  0  0  0  0
  2  4  1  0  0  0  0
  2 11  1  0  0  0  0
  3 13  1  0  0  0  0
  3  2  1  0  0  0  0
  4 15  1  1  0  0  0
  4  5  1  0  0  0  0
  5 16  1  0  0  0  0
  5 17  1  0  0  0  0
  6 18  1  0  0  0  0
  6  4  1  0  0  0  0
  7  6  2  0  0  0  0
 10  1  1  0  0  0  0
 12  3  1  0  0  0  0
 14  3  1  0  0  0  0
 18 32  1  0  0  0  0
 19 33  1  1  0  0  0
 19 18  1  0  0  0  0
 20 21  1  0  0  0  0
 20 19  1  0  0  0  0
 21 22  2  0  0  0  0
 21 29  1  0  0  0  0
 22 23  1  0  0  0  0
 23 24  1  0  0  0  0
 23 37  1  0  0  0  0
 24 25  1  0  0  0  0
 25 26  2  0  0  0  0
 25 38  1  0  0  0  0
 26 39  1  0  0  0  0
 27 40  1  0  0  0  0
 27 26  1  0  0  0  0
 28 27  2  0  0  0  0
 29 28  1  0  0  0  0
 29 24  2  0  0  0  0
 30 19  1  0  0  0  0
 30 42  1  0  0  0  0
 31 30  2  0  0  0  0
 34 20  1  0  0  0  0
 35 20  1  0  0  0  0
 36 22  1  0  0  0  0
 41 28  1  0  0  0  0
 42 47  1  0  0  0  0
 43 49  1  0  0  0  0
 43 42  1  0  0  0  0
 43 48  1  0  0  0  0
 44 43  1  0  0  0  0
 45 44  1  0  0  0  0
 46 44  2  0  0  0  0
M  END
$$$$
