VWI.pdb
 OpenBabel07022419273D

 61 62  0  0  1  0  0  0  0  0999 V2000
    1.8980    3.2260    2.2810 C   0  0  0  0  0  0  0  0  0  0  0  0
    2.4340    2.2670    3.2950 C   0  0  0  0  0  0  0  0  0  0  0  0
    1.6010    2.2280    4.5590 C   0  0  0  0  0  0  0  0  0  0  0  0
    2.6970    0.8800    2.7550 C   0  0  2  0  0  0  0  0  0  0  0  0
    3.6610    0.9810    1.6950 N   0  0  0  0  0  0  0  0  0  0  0  0
    1.4610    0.2040    2.2980 C   0  0  0  0  0  0  0  0  0  0  0  0
    0.5110    0.0520    3.1210 O   0  0  0  0  0  0  0  0  0  0  0  0
    2.3480    4.2520    2.3880 H   0  0  0  0  0  0  0  0  0  0  0  0
    2.0850    2.9100    1.2390 H   0  0  0  0  0  0  0  0  0  0  0  0
    0.7970    3.3820    2.3750 H   0  0  0  0  0  0  0  0  0  0  0  0
    3.4400    2.6600    3.6150 H   0  0  0  0  0  0  0  0  0  0  0  0
    1.9480    3.0050    5.2720 H   0  0  0  0  0  0  0  0  0  0  0  0
    0.5300    2.3850    4.3760 H   0  0  0  0  0  0  0  0  0  0  0  0
    1.8050    1.2420    5.0370 H   0  0  0  0  0  0  0  0  0  0  0  0
    3.1930    0.3270    3.5830 H   0  0  0  0  0  0  0  0  0  0  0  0
    3.9400    1.9640    1.4820 H   0  0  0  0  0  0  0  0  0  0  0  0
    4.4750    0.3390    1.7990 H   0  0  0  0  0  0  0  0  0  0  0  0
    1.2560   -0.2930    0.9970 N   0  0  0  0  0  0  0  0  0  0  0  0
    0.0680   -0.9580    0.5270 C   0  0  1  0  0  0  0  0  0  0  0  0
   -0.5370   -0.1070   -0.5680 C   0  0  0  0  0  0  0  0  0  0  0  0
   -0.9140    1.2460   -0.1280 C   0  0  0  0  0  0  0  0  0  0  0  0
   -0.2520    2.4180   -0.3980 C   0  0  0  0  0  0  0  0  0  0  0  0
   -0.9310    3.4300    0.1830 N   0  0  0  0  0  0  0  0  0  0  0  0
   -2.0110    2.9710    0.8240 C   0  0  0  0  0  0  0  0  0  0  0  0
   -3.0110    3.5560    1.5570 C   0  0  0  0  0  0  0  0  0  0  0  0
   -4.0350    2.8150    2.1230 C   0  0  0  0  0  0  0  0  0  0  0  0
   -4.0470    1.4530    1.9430 C   0  0  0  0  0  0  0  0  0  0  0  0
   -3.0380    0.8730    1.2050 C   0  0  0  0  0  0  0  0  0  0  0  0
   -2.0040    1.6010    0.6310 C   0  0  0  0  0  0  0  0  0  0  0  0
    0.3460   -2.3320    0.0400 C   0  0  0  0  0  0  0  0  0  0  0  0
    1.5260   -2.7280    0.1020 O   0  0  0  0  0  0  0  0  0  0  0  0
    2.0370   -0.1720    0.3010 H   0  0  0  0  0  0  0  0  0  0  0  0
   -0.6510   -0.9650    1.3880 H   0  0  0  0  0  0  0  0  0  0  0  0
    0.1110   -0.0830   -1.4730 H   0  0  0  0  0  0  0  0  0  0  0  0
   -1.4550   -0.6710   -0.9090 H   0  0  0  0  0  0  0  0  0  0  0  0
    0.6560    2.5660   -0.9690 H   0  0  0  0  0  0  0  0  0  0  0  0
   -0.6540    4.4300    0.1400 H   0  0  0  0  0  0  0  0  0  0  0  0
   -3.0220    4.6250    1.7110 H   0  0  0  0  0  0  0  0  0  0  0  0
   -4.8360    3.2510    2.7040 H   0  0  0  0  0  0  0  0  0  0  0  0
   -4.8010    0.7900    2.3440 H   0  0  0  0  0  0  0  0  0  0  0  0
   -2.9960   -0.2040    1.0290 H   0  0  0  0  0  0  0  0  0  0  0  0
   -2.4470   -4.5230   -3.0250 C   0  0  0  0  0  0  0  0  0  0  0  0
   -1.0580   -4.0400   -3.2830 C   0  0  0  0  0  0  0  0  0  0  0  0
   -0.0760   -4.7450   -2.3350 C   0  0  2  0  0  0  0  0  0  0  0  0
   -0.2480   -6.2330   -2.6840 C   0  0  0  0  0  0  0  0  0  0  0  0
   -0.5270   -4.5110   -0.9630 C   0  0  2  0  0  0  0  0  0  0  0  0
   -0.6270   -3.1980   -0.4800 N   0  0  0  0  0  0  0  0  0  0  0  0
    0.3320   -5.3180   -0.0200 C   0  0  0  0  0  0  0  0  0  0  0  0
    0.6250   -6.4950   -0.3510 O   0  0  0  0  0  0  0  0  0  0  0  0
    0.8100   -4.8540    1.1770 O   0  0  0  0  0  0  0  0  0  0  0  0
   -2.5100   -5.5720   -2.7190 H   0  0  0  0  0  0  0  0  0  0  0  0
   -3.0860   -4.4160   -3.9410 H   0  0  0  0  0  0  0  0  0  0  0  0
   -2.9290   -3.8250   -2.2800 H   0  0  0  0  0  0  0  0  0  0  0  0
   -0.7790   -4.3910   -4.3190 H   0  0  0  0  0  0  0  0  0  0  0  0
   -0.9490   -2.9620   -3.2620 H   0  0  0  0  0  0  0  0  0  0  0  0
    0.9590   -4.5160   -2.5660 H   0  0  0  0  0  0  0  0  0  0  0  0
    0.7520   -6.7570   -2.6660 H   0  0  0  0  0  0  0  0  0  0  0  0
   -0.5930   -6.3640   -3.7390 H   0  0  0  0  0  0  0  0  0  0  0  0
   -0.9760   -6.7270   -2.0320 H   0  0  0  0  0  0  0  0  0  0  0  0
   -1.5480   -5.0060   -0.7690 H   0  0  0  0  0  0  0  0  0  0  0  0
   -1.6030   -2.7520   -0.5030 H   0  0  0  0  0  0  0  0  0  0  0  0
  1 10  1  0  0  0  0
  1  8  1  0  0  0  0
  1  2  1  0  0  0  0
  2 11  1  0  0  0  0
  2  3  1  0  0  0  0
  3 14  1  0  0  0  0
  3 12  1  0  0  0  0
  4  2  1  0  0  0  0
  4 15  1  1  0  0  0
  5 17  1  0  0  0  0
  5  4  1  0  0  0  0
  6  4  1  0  0  0  0
  6  7  2  0  0  0  0
  9  1  1  0  0  0  0
 13  3  1  0  0  0  0
 16  5  1  0  0  0  0
 18  6  1  0  0  0  0
 19 18  1  0  0  0  0
 19 33  1  1  0  0  0
 20 21  1  0  0  0  0
 20 19  1  0  0  0  0
 21 29  1  0  0  0  0
 22 21  2  0  0  0  0
 22 23  1  0  0  0  0
 23 24  1  0  0  0  0
 24 25  1  0  0  0  0
 25 38  1  0  0  0  0
 25 26  2  0  0  0  0
 26 39  1  0  0  0  0
 27 26  1  0  0  0  0
 27 40  1  0  0  0  0
 28 27  2  0  0  0  0
 29 24  2  0  0  0  0
 29 28  1  0  0  0  0
 30 31  2  0  0  0  0
 30 19  1  0  0  0  0
 32 18  1  0  0  0  0
 34 20  1  0  0  0  0
 35 20  1  0  0  0  0
 36 22  1  0  0  0  0
 37 23  1  0  0  0  0
 41 28  1  0  0  0  0
 42 51  1  0  0  0  0
 42 53  1  0  0  0  0
 43 55  1  0  0  0  0
 43 42  1  0  0  0  0
 43 44  1  0  0  0  0
 44 56  1  6  0  0  0
 44 46  1  0  0  0  0
 45 57  1  0  0  0  0
 45 44  1  0  0  0  0
 45 59  1  0  0  0  0
 46 60  1  1  0  0  0
 46 47  1  0  0  0  0
 46 48  1  0  0  0  0
 47 30  1  0  0  0  0
 48 50  1  0  0  0  0
 49 48  2  0  0  0  0
 52 42  1  0  0  0  0
 54 43  1  0  0  0  0
 58 45  1  0  0  0  0
 61 47  1  0  0  0  0
M  END
$$$$
