VWL.pdb
 OpenBabel07022419273D

 61 62  0  0  1  0  0  0  0  0999 V2000
    3.2870    1.6600    4.0960 C   0  0  0  0  0  0  0  0  0  0  0  0
    3.0310    0.3010    4.6550 C   0  0  0  0  0  0  0  0  0  0  0  0
    2.2190    0.3910    5.9290 C   0  0  0  0  0  0  0  0  0  0  0  0
    2.4860   -0.6980    3.6920 C   0  0  2  0  0  0  0  0  0  0  0  0
    3.4150   -0.8880    2.6110 N   0  0  0  0  0  0  0  0  0  0  0  0
    1.1610   -0.3110    3.1370 C   0  0  0  0  0  0  0  0  0  0  0  0
    0.2260   -0.0400    3.9230 O   0  0  0  0  0  0  0  0  0  0  0  0
    3.3550    1.6210    3.0140 H   0  0  0  0  0  0  0  0  0  0  0  0
    2.4690    2.3190    4.4700 H   0  0  0  0  0  0  0  0  0  0  0  0
    4.2340    2.0920    4.4820 H   0  0  0  0  0  0  0  0  0  0  0  0
    4.0390   -0.0980    4.9760 H   0  0  0  0  0  0  0  0  0  0  0  0
    2.8420    0.2370    6.8370 H   0  0  0  0  0  0  0  0  0  0  0  0
    1.3670   -0.3150    5.9410 H   0  0  0  0  0  0  0  0  0  0  0  0
    1.8130    1.4160    5.9930 H   0  0  0  0  0  0  0  0  0  0  0  0
    2.4410   -1.6840    4.2330 H   0  0  0  0  0  0  0  0  0  0  0  0
    4.3830   -1.0040    3.0200 H   0  0  0  0  0  0  0  0  0  0  0  0
    3.4870   -0.0860    1.9520 H   0  0  0  0  0  0  0  0  0  0  0  0
    0.9070   -0.2340    1.7500 N   0  0  0  0  0  0  0  0  0  0  0  0
   -0.3930    0.1490    1.1690 C   0  0  1  0  0  0  0  0  0  0  0  0
   -0.3120    1.4350    0.4590 C   0  0  0  0  0  0  0  0  0  0  0  0
   -1.5770    1.8490   -0.1620 C   0  0  0  0  0  0  0  0  0  0  0  0
   -2.5600    2.6550    0.4290 C   0  0  0  0  0  0  0  0  0  0  0  0
   -3.5940    2.7960   -0.4150 N   0  0  0  0  0  0  0  0  0  0  0  0
   -3.3470    2.1120   -1.5670 C   0  0  0  0  0  0  0  0  0  0  0  0
   -4.1110    1.9900   -2.7070 C   0  0  0  0  0  0  0  0  0  0  0  0
   -3.5880    1.2420   -3.7390 C   0  0  0  0  0  0  0  0  0  0  0  0
   -2.3450    0.6480   -3.6080 C   0  0  0  0  0  0  0  0  0  0  0  0
   -1.6050    0.7850   -2.4620 C   0  0  0  0  0  0  0  0  0  0  0  0
   -2.1030    1.5300   -1.4050 C   0  0  0  0  0  0  0  0  0  0  0  0
   -1.0840   -0.9830    0.5860 C   0  0  0  0  0  0  0  0  0  0  0  0
   -2.2290   -0.9280    0.0730 O   0  0  0  0  0  0  0  0  0  0  0  0
    1.6950   -0.4660    1.0880 H   0  0  0  0  0  0  0  0  0  0  0  0
   -0.9990    0.3880    2.1210 H   0  0  0  0  0  0  0  0  0  0  0  0
    0.0400    2.2360    1.1700 H   0  0  0  0  0  0  0  0  0  0  0  0
    0.4560    1.4650   -0.3520 H   0  0  0  0  0  0  0  0  0  0  0  0
   -2.4300    3.0660    1.4260 H   0  0  0  0  0  0  0  0  0  0  0  0
   -4.4630    3.3430   -0.2340 H   0  0  0  0  0  0  0  0  0  0  0  0
   -5.0820    2.4360   -2.8460 H   0  0  0  0  0  0  0  0  0  0  0  0
   -4.1320    1.0960   -4.6810 H   0  0  0  0  0  0  0  0  0  0  0  0
   -1.9200    0.0530   -4.4210 H   0  0  0  0  0  0  0  0  0  0  0  0
   -0.6270    0.3420   -2.3060 H   0  0  0  0  0  0  0  0  0  0  0  0
   -1.1510   -2.8100   -2.9540 C   0  0  0  0  0  0  0  0  0  0  0  0
    0.0650   -3.2740   -2.2030 C   0  0  0  0  0  0  0  0  0  0  0  0
    1.0360   -3.9400   -3.1190 C   0  0  0  0  0  0  0  0  0  0  0  0
   -0.3140   -4.1300   -1.0440 C   0  0  0  0  0  0  0  0  0  0  0  0
   -1.1790   -3.4530   -0.0220 C   0  0  2  0  0  0  0  0  0  0  0  0
   -0.5060   -2.3080    0.5460 N   0  0  0  0  0  0  0  0  0  0  0  0
   -1.6060   -4.4100    1.0370 C   0  0  0  0  0  0  0  0  0  0  0  0
   -2.2050   -5.4510    0.7100 O   0  0  0  0  0  0  0  0  0  0  0  0
   -1.3460   -4.1570    2.3640 O   0  0  0  0  0  0  0  0  0  0  0  0
   -1.7790   -3.6970   -3.1960 H   0  0  0  0  0  0  0  0  0  0  0  0
   -0.8030   -2.3030   -3.8930 H   0  0  0  0  0  0  0  0  0  0  0  0
   -1.7020   -2.0860   -2.3490 H   0  0  0  0  0  0  0  0  0  0  0  0
    0.5480   -2.3360   -1.7990 H   0  0  0  0  0  0  0  0  0  0  0  0
    1.4380   -3.2110   -3.8500 H   0  0  0  0  0  0  0  0  0  0  0  0
    0.4660   -4.6960   -3.7340 H   0  0  0  0  0  0  0  0  0  0  0  0
    1.8240   -4.5080   -2.5910 H   0  0  0  0  0  0  0  0  0  0  0  0
   -0.9260   -4.9860   -1.4530 H   0  0  0  0  0  0  0  0  0  0  0  0
    0.5580   -4.6140   -0.5510 H   0  0  0  0  0  0  0  0  0  0  0  0
   -2.0920   -3.0430   -0.5400 H   0  0  0  0  0  0  0  0  0  0  0  0
    0.4390   -2.4470    0.9440 H   0  0  0  0  0  0  0  0  0  0  0  0
  1  9  1  0  0  0  0
  1 10  1  0  0  0  0
  1  2  1  0  0  0  0
  2 11  1  0  0  0  0
  2  3  1  0  0  0  0
  3 13  1  0  0  0  0
  3 14  1  0  0  0  0
  3 12  1  0  0  0  0
  4 15  1  1  0  0  0
  4  2  1  0  0  0  0
  5 16  1  0  0  0  0
  5  4  1  0  0  0  0
  6  4  1  0  0  0  0
  6  7  2  0  0  0  0
  8  1  1  0  0  0  0
 17  5  1  0  0  0  0
 18  6  1  0  0  0  0
 19 18  1  0  0  0  0
 19 33  1  1  0  0  0
 20 19  1  0  0  0  0
 20 34  1  0  0  0  0
 21 22  2  0  0  0  0
 21 20  1  0  0  0  0
 22 36  1  0  0  0  0
 23 37  1  0  0  0  0
 23 22  1  0  0  0  0
 24 29  1  0  0  0  0
 24 23  1  0  0  0  0
 25 24  2  0  0  0  0
 26 27  2  0  0  0  0
 26 25  1  0  0  0  0
 27 28  1  0  0  0  0
 28 41  1  0  0  0  0
 28 29  2  0  0  0  0
 29 21  1  0  0  0  0
 30 19  1  0  0  0  0
 31 30  2  0  0  0  0
 32 18  1  0  0  0  0
 35 20  1  0  0  0  0
 38 25  1  0  0  0  0
 39 26  1  0  0  0  0
 40 27  1  0  0  0  0
 42 53  1  0  0  0  0
 42 43  1  0  0  0  0
 43 54  1  0  0  0  0
 43 45  1  0  0  0  0
 44 57  1  0  0  0  0
 44 43  1  0  0  0  0
 45 59  1  0  0  0  0
 45 46  1  0  0  0  0
 46 60  1  6  0  0  0
 46 47  1  0  0  0  0
 46 48  1  0  0  0  0
 47 30  1  0  0  0  0
 47 61  1  0  0  0  0
 48 50  1  0  0  0  0
 49 48  2  0  0  0  0
 51 42  1  0  0  0  0
 52 42  1  0  0  0  0
 55 44  1  0  0  0  0
 56 44  1  0  0  0  0
 58 45  1  0  0  0  0
M  END
$$$$
