VWN.pdb
 OpenBabel07022419273D

 56 57  0  0  1  0  0  0  0  0999 V2000
    1.6190    1.7760    3.8740 C   0  0  0  0  0  0  0  0  0  0  0  0
    1.6720    0.3530    4.2960 C   0  0  0  0  0  0  0  0  0  0  0  0
    0.3400   -0.0010    4.9410 C   0  0  0  0  0  0  0  0  0  0  0  0
    2.0560   -0.6220    3.2370 C   0  0  2  0  0  0  0  0  0  0  0  0
    3.3570   -0.3380    2.7180 N   0  0  0  0  0  0  0  0  0  0  0  0
    1.0330   -0.8160    2.1840 C   0  0  0  0  0  0  0  0  0  0  0  0
   -0.1680   -1.0470    2.4920 O   0  0  0  0  0  0  0  0  0  0  0  0
    2.4290    2.1080    3.2070 H   0  0  0  0  0  0  0  0  0  0  0  0
    0.6230    2.0050    3.4510 H   0  0  0  0  0  0  0  0  0  0  0  0
    1.7100    2.4020    4.8100 H   0  0  0  0  0  0  0  0  0  0  0  0
    2.4350    0.2560    5.1150 H   0  0  0  0  0  0  0  0  0  0  0  0
    0.1280   -1.0900    4.9010 H   0  0  0  0  0  0  0  0  0  0  0  0
   -0.4980    0.5400    4.4940 H   0  0  0  0  0  0  0  0  0  0  0  0
    0.3460    0.2630    6.0350 H   0  0  0  0  0  0  0  0  0  0  0  0
    2.1350   -1.6250    3.7540 H   0  0  0  0  0  0  0  0  0  0  0  0
    3.9510   -1.1950    2.6500 H   0  0  0  0  0  0  0  0  0  0  0  0
    3.9190    0.3300    3.3290 H   0  0  0  0  0  0  0  0  0  0  0  0
    1.3160   -0.7590    0.7890 N   0  0  0  0  0  0  0  0  0  0  0  0
    0.3020   -0.9510   -0.2340 C   0  0  1  0  0  0  0  0  0  0  0  0
    0.1940    0.2980   -1.0450 C   0  0  0  0  0  0  0  0  0  0  0  0
   -0.1890    1.4360   -0.1720 C   0  0  0  0  0  0  0  0  0  0  0  0
    0.5740    2.4700    0.3260 C   0  0  0  0  0  0  0  0  0  0  0  0
   -0.2120    3.2810    1.0860 N   0  0  0  0  0  0  0  0  0  0  0  0
   -1.4610    2.8060    1.0980 C   0  0  0  0  0  0  0  0  0  0  0  0
   -2.5970    3.2750    1.7200 C   0  0  0  0  0  0  0  0  0  0  0  0
   -3.7830    2.5670    1.5560 C   0  0  0  0  0  0  0  0  0  0  0  0
   -3.8300    1.4240    0.7940 C   0  0  0  0  0  0  0  0  0  0  0  0
   -2.6670    0.9950    0.1920 C   0  0  0  0  0  0  0  0  0  0  0  0
   -1.4610    1.6530    0.3160 C   0  0  0  0  0  0  0  0  0  0  0  0
    0.5210   -2.1640   -1.0260 C   0  0  0  0  0  0  0  0  0  0  0  0
    1.5040   -2.9150   -0.7990 O   0  0  0  0  0  0  0  0  0  0  0  0
    2.2810   -0.5740    0.4690 H   0  0  0  0  0  0  0  0  0  0  0  0
   -0.6620   -1.1130    0.3230 H   0  0  0  0  0  0  0  0  0  0  0  0
    1.2080    0.5180   -1.4830 H   0  0  0  0  0  0  0  0  0  0  0  0
   -0.5470    0.2470   -1.8530 H   0  0  0  0  0  0  0  0  0  0  0  0
    1.6240    2.5950    0.1290 H   0  0  0  0  0  0  0  0  0  0  0  0
    0.0870    4.1450    1.5910 H   0  0  0  0  0  0  0  0  0  0  0  0
   -2.5990    4.1770    2.3310 H   0  0  0  0  0  0  0  0  0  0  0  0
   -4.6830    2.9230    2.0390 H   0  0  0  0  0  0  0  0  0  0  0  0
   -4.7690    0.9070    0.6950 H   0  0  0  0  0  0  0  0  0  0  0  0
   -2.6580    0.0930   -0.4220 H   0  0  0  0  0  0  0  0  0  0  0  0
   -0.6150   -7.0020   -3.1220 N   0  0  0  0  0  0  0  0  0  0  0  0
   -1.2890   -5.8210   -3.5860 C   0  0  0  0  0  0  0  0  0  0  0  0
   -1.7680   -5.8910   -4.7450 O   0  0  0  0  0  0  0  0  0  0  0  0
   -1.4080   -4.6090   -2.7530 C   0  0  0  0  0  0  0  0  0  0  0  0
   -0.2410   -3.6930   -2.9010 C   0  0  2  0  0  0  0  0  0  0  0  0
   -0.3840   -2.5010   -2.0630 N   0  0  0  0  0  0  0  0  0  0  0  0
   -0.0570   -3.3190   -4.3190 C   0  0  0  0  0  0  0  0  0  0  0  0
   -0.0850   -2.0980   -4.6170 O   0  0  0  0  0  0  0  0  0  0  0  0
    0.1430   -4.2450   -5.3220 O   0  0  0  0  0  0  0  0  0  0  0  0
    0.4290   -7.0830   -3.2160 H   0  0  0  0  0  0  0  0  0  0  0  0
   -1.1700   -7.7610   -2.6990 H   0  0  0  0  0  0  0  0  0  0  0  0
   -1.6070   -4.9130   -1.7080 H   0  0  0  0  0  0  0  0  0  0  0  0
   -2.3600   -4.1010   -3.0950 H   0  0  0  0  0  0  0  0  0  0  0  0
    0.6730   -4.2360   -2.5800 H   0  0  0  0  0  0  0  0  0  0  0  0
   -1.1870   -1.8590   -2.2260 H   0  0  0  0  0  0  0  0  0  0  0  0
  1  2  1  0  0  0  0
  1 10  1  0  0  0  0
  2  3  1  0  0  0  0
  2 11  1  0  0  0  0
  3 14  1  0  0  0  0
  4 15  1  1  0  0  0
  4  2  1  0  0  0  0
  5  4  1  0  0  0  0
  5 17  1  0  0  0  0
  6  7  2  0  0  0  0
  6  4  1  0  0  0  0
  8  1  1  0  0  0  0
  9  1  1  0  0  0  0
 12  3  1  0  0  0  0
 13  3  1  0  0  0  0
 16  5  1  0  0  0  0
 18  6  1  0  0  0  0
 19 33  1  1  0  0  0
 19 18  1  0  0  0  0
 20 19  1  0  0  0  0
 20 21  1  0  0  0  0
 21 29  1  0  0  0  0
 21 22  2  0  0  0  0
 22 23  1  0  0  0  0
 23 24  1  0  0  0  0
 23 37  1  0  0  0  0
 24 25  1  0  0  0  0
 25 38  1  0  0  0  0
 26 25  2  0  0  0  0
 26 39  1  0  0  0  0
 27 26  1  0  0  0  0
 28 29  1  0  0  0  0
 28 27  2  0  0  0  0
 29 24  2  0  0  0  0
 30 31  2  0  0  0  0
 30 19  1  0  0  0  0
 32 18  1  0  0  0  0
 34 20  1  0  0  0  0
 35 20  1  0  0  0  0
 36 22  1  0  0  0  0
 40 27  1  0  0  0  0
 41 28  1  0  0  0  0
 42 52  1  0  0  0  0
 43 42  1  0  0  0  0
 43 45  1  0  0  0  0
 44 43  2  0  0  0  0
 45 53  1  0  0  0  0
 46 45  1  0  0  0  0
 46 55  1  1  0  0  0
 46 47  1  0  0  0  0
 47 30  1  0  0  0  0
 48 46  1  0  0  0  0
 49 48  1  0  0  0  0
 50 48  2  0  0  0  0
 51 42  1  0  0  0  0
 54 45  1  0  0  0  0
 56 47  1  0  0  0  0
M  END
$$$$
