VWQ.pdb
 OpenBabel07022419273D

 59 60  0  0  1  0  0  0  0  0999 V2000
    3.0530    1.3310    3.9970 C   0  0  0  0  0  0  0  0  0  0  0  0
    3.5690   -0.0310    4.4470 C   0  0  0  0  0  0  0  0  0  0  0  0
    2.5600   -0.6850    5.3830 C   0  0  0  0  0  0  0  0  0  0  0  0
    3.7420   -0.9010    3.2140 C   0  0  2  0  0  0  0  0  0  0  0  0
    4.6870   -0.2530    2.3500 N   0  0  0  0  0  0  0  0  0  0  0  0
    2.4220   -0.9440    2.5290 C   0  0  0  0  0  0  0  0  0  0  0  0
    1.4000   -1.4650    3.0650 O   0  0  0  0  0  0  0  0  0  0  0  0
    2.9170    1.9690    4.8810 H   0  0  0  0  0  0  0  0  0  0  0  0
    2.0500    1.2130    3.5020 H   0  0  0  0  0  0  0  0  0  0  0  0
    3.8060    1.7680    3.3260 H   0  0  0  0  0  0  0  0  0  0  0  0
    4.5380    0.1460    4.9360 H   0  0  0  0  0  0  0  0  0  0  0  0
    1.5890   -0.1820    5.3230 H   0  0  0  0  0  0  0  0  0  0  0  0
    3.0100   -0.6190    6.4080 H   0  0  0  0  0  0  0  0  0  0  0  0
    2.4860   -1.7740    5.1120 H   0  0  0  0  0  0  0  0  0  0  0  0
    4.0710   -1.9090    3.5370 H   0  0  0  0  0  0  0  0  0  0  0  0
    5.1960   -0.9740    1.7880 H   0  0  0  0  0  0  0  0  0  0  0  0
    5.3640    0.2760    2.9650 H   0  0  0  0  0  0  0  0  0  0  0  0
    2.2350   -0.3980    1.2290 N   0  0  0  0  0  0  0  0  0  0  0  0
    0.9250   -0.4400    0.5460 C   0  0  1  0  0  0  0  0  0  0  0  0
    0.5530    0.9790    0.3060 C   0  0  0  0  0  0  0  0  0  0  0  0
   -0.7180    1.2300   -0.3640 C   0  0  0  0  0  0  0  0  0  0  0  0
   -0.9650    1.6410   -1.6740 C   0  0  0  0  0  0  0  0  0  0  0  0
   -2.2900    1.7590   -1.8570 N   0  0  0  0  0  0  0  0  0  0  0  0
   -2.9120    1.4320   -0.6910 C   0  0  0  0  0  0  0  0  0  0  0  0
   -4.2610    1.3850   -0.3360 C   0  0  0  0  0  0  0  0  0  0  0  0
   -4.6220    1.0120    0.9410 C   0  0  0  0  0  0  0  0  0  0  0  0
   -3.6690    0.6810    1.8820 C   0  0  0  0  0  0  0  0  0  0  0  0
   -2.3360    0.7270    1.5290 C   0  0  0  0  0  0  0  0  0  0  0  0
   -1.9510    1.1020    0.2420 C   0  0  0  0  0  0  0  0  0  0  0  0
    1.0140   -1.2920   -0.6550 C   0  0  0  0  0  0  0  0  0  0  0  0
    2.1390   -1.7980   -0.9670 O   0  0  0  0  0  0  0  0  0  0  0  0
    3.0700    0.0360    0.7740 H   0  0  0  0  0  0  0  0  0  0  0  0
    0.2360   -0.9530    1.2530 H   0  0  0  0  0  0  0  0  0  0  0  0
    0.6620    1.5230    1.2700 H   0  0  0  0  0  0  0  0  0  0  0  0
    1.3620    1.4190   -0.3480 H   0  0  0  0  0  0  0  0  0  0  0  0
   -0.1820    1.8300   -2.4120 H   0  0  0  0  0  0  0  0  0  0  0  0
   -2.7970    2.0460   -2.7210 H   0  0  0  0  0  0  0  0  0  0  0  0
   -4.9860    1.6550   -1.1050 H   0  0  0  0  0  0  0  0  0  0  0  0
   -5.6900    0.9780    1.2140 H   0  0  0  0  0  0  0  0  0  0  0  0
   -3.8990    0.3820    2.8940 H   0  0  0  0  0  0  0  0  0  0  0  0
   -1.5400    0.4800    2.2170 H   0  0  0  0  0  0  0  0  0  0  0  0
   -4.2160   -4.7680   -1.4540 N   0  0  0  0  0  0  0  0  0  0  0  0
   -2.8240   -4.7550   -1.7610 C   0  0  0  0  0  0  0  0  0  0  0  0
   -2.1800   -5.8410   -1.7760 O   0  0  0  0  0  0  0  0  0  0  0  0
   -2.1340   -3.4920   -2.0580 C   0  0  0  0  0  0  0  0  0  0  0  0
   -0.6740   -3.7540   -2.3570 C   0  0  0  0  0  0  0  0  0  0  0  0
    0.0560   -2.4460   -2.6690 C   0  0  2  0  0  0  0  0  0  0  0  0
   -0.0670   -1.6110   -1.5160 N   0  0  0  0  0  0  0  0  0  0  0  0
   -0.4620   -1.8600   -3.9200 C   0  0  0  0  0  0  0  0  0  0  0  0
   -0.4060   -2.4990   -5.0260 O   0  0  0  0  0  0  0  0  0  0  0  0
   -1.0280   -0.6130   -3.9780 O   0  0  0  0  0  0  0  0  0  0  0  0
   -4.8790   -4.1160   -1.9260 H   0  0  0  0  0  0  0  0  0  0  0  0
   -4.5670   -5.4520   -0.7350 H   0  0  0  0  0  0  0  0  0  0  0  0
   -2.1410   -2.8940   -1.1050 H   0  0  0  0  0  0  0  0  0  0  0  0
   -2.6300   -2.9290   -2.8600 H   0  0  0  0  0  0  0  0  0  0  0  0
   -0.5310   -4.4920   -3.1650 H   0  0  0  0  0  0  0  0  0  0  0  0
   -0.2300   -4.1650   -1.4290 H   0  0  0  0  0  0  0  0  0  0  0  0
    1.1230   -2.7740   -2.8390 H   0  0  0  0  0  0  0  0  0  0  0  0
   -1.0010   -1.2140   -1.2860 H   0  0  0  0  0  0  0  0  0  0  0  0
  1  2  1  0  0  0  0
  1  8  1  0  0  0  0
  2 11  1  0  0  0  0
  2  3  1  0  0  0  0
  3 13  1  0  0  0  0
  4 15  1  1  0  0  0
  4  2  1  0  0  0  0
  5 17  1  0  0  0  0
  5  4  1  0  0  0  0
  6  7  2  0  0  0  0
  6  4  1  0  0  0  0
  9  1  1  0  0  0  0
 10  1  1  0  0  0  0
 12  3  1  0  0  0  0
 14  3  1  0  0  0  0
 16  5  1  0  0  0  0
 18  6  1  0  0  0  0
 19 18  1  0  0  0  0
 19 33  1  1  0  0  0
 20 19  1  0  0  0  0
 20 34  1  0  0  0  0
 21 29  1  0  0  0  0
 21 20  1  0  0  0  0
 22 21  2  0  0  0  0
 23 22  1  0  0  0  0
 23 24  1  0  0  0  0
 24 25  2  0  0  0  0
 24 29  1  0  0  0  0
 25 26  1  0  0  0  0
 26 39  1  0  0  0  0
 26 27  2  0  0  0  0
 27 40  1  0  0  0  0
 28 27  1  0  0  0  0
 28 41  1  0  0  0  0
 29 28  2  0  0  0  0
 30 19  1  0  0  0  0
 31 30  2  0  0  0  0
 32 18  1  0  0  0  0
 35 20  1  0  0  0  0
 36 22  1  0  0  0  0
 37 23  1  0  0  0  0
 38 25  1  0  0  0  0
 42 53  1  0  0  0  0
 43 42  1  0  0  0  0
 44 43  2  0  0  0  0
 45 43  1  0  0  0  0
 45 54  1  0  0  0  0
 46 45  1  0  0  0  0
 46 57  1  0  0  0  0
 47 58  1  6  0  0  0
 47 46  1  0  0  0  0
 47 48  1  0  0  0  0
 48 59  1  0  0  0  0
 48 30  1  0  0  0  0
 49 47  1  0  0  0  0
 50 49  2  0  0  0  0
 51 49  1  0  0  0  0
 52 42  1  0  0  0  0
 55 45  1  0  0  0  0
 56 46  1  0  0  0  0
M  END
$$$$
