VWR.pdb
 OpenBabel07022419273D

 65 66  0  0  1  0  0  0  0  0999 V2000
    4.6050    0.6640   -3.7630 C   0  0  0  0  0  0  0  0  0  0  0  0
    3.8680    0.4760   -2.4460 C   0  0  0  0  0  0  0  0  0  0  0  0
    4.6060   -0.6160   -1.7010 C   0  0  0  0  0  0  0  0  0  0  0  0
    3.9290    1.7920   -1.6740 C   0  0  2  0  0  0  0  0  0  0  0  0
    5.3160    2.0960   -1.4510 N   0  0  0  0  0  0  0  0  0  0  0  0
    3.1750    1.6520   -0.3990 C   0  0  0  0  0  0  0  0  0  0  0  0
    3.7550    1.7150    0.7280 O   0  0  0  0  0  0  0  0  0  0  0  0
    5.0860   -0.2940   -4.0600 H   0  0  0  0  0  0  0  0  0  0  0  0
    5.4520    1.3750   -3.6000 H   0  0  0  0  0  0  0  0  0  0  0  0
    3.8940    1.0090   -4.5220 H   0  0  0  0  0  0  0  0  0  0  0  0
    2.8240    0.2230   -2.6810 H   0  0  0  0  0  0  0  0  0  0  0  0
    3.9430   -1.4290   -1.3500 H   0  0  0  0  0  0  0  0  0  0  0  0
    5.3870   -1.1040   -2.3190 H   0  0  0  0  0  0  0  0  0  0  0  0
    5.1230   -0.2280   -0.7980 H   0  0  0  0  0  0  0  0  0  0  0  0
    3.4110    2.5540   -2.2820 H   0  0  0  0  0  0  0  0  0  0  0  0
    5.5590    3.0140   -1.8850 H   0  0  0  0  0  0  0  0  0  0  0  0
    5.4920    2.0800   -0.4230 H   0  0  0  0  0  0  0  0  0  0  0  0
    1.7750    1.4420   -0.3600 N   0  0  0  0  0  0  0  0  0  0  0  0
    1.0590    1.3080    0.9280 C   0  0  1  0  0  0  0  0  0  0  0  0
    0.2740    2.5390    1.1460 C   0  0  0  0  0  0  0  0  0  0  0  0
   -0.5200    2.5610    2.3860 C   0  0  0  0  0  0  0  0  0  0  0  0
   -0.1380    3.1220    3.6190 C   0  0  0  0  0  0  0  0  0  0  0  0
   -1.1060    2.9310    4.5210 N   0  0  0  0  0  0  0  0  0  0  0  0
   -2.1450    2.2600    3.9640 C   0  0  0  0  0  0  0  0  0  0  0  0
   -3.3670    1.8300    4.4370 C   0  0  0  0  0  0  0  0  0  0  0  0
   -4.2810    1.1640    3.6470 C   0  0  0  0  0  0  0  0  0  0  0  0
   -3.9210    0.9380    2.3330 C   0  0  0  0  0  0  0  0  0  0  0  0
   -2.7080    1.3650    1.8640 C   0  0  0  0  0  0  0  0  0  0  0  0
   -1.7760    2.0390    2.6560 C   0  0  0  0  0  0  0  0  0  0  0  0
    0.4150    0.0210    0.9470 C   0  0  0  0  0  0  0  0  0  0  0  0
   -0.1400   -0.3930    2.0200 O   0  0  0  0  0  0  0  0  0  0  0  0
    1.2080    1.3760   -1.2280 H   0  0  0  0  0  0  0  0  0  0  0  0
    1.8580    1.2980    1.7370 H   0  0  0  0  0  0  0  0  0  0  0  0
    1.0270    3.3820    1.2440 H   0  0  0  0  0  0  0  0  0  0  0  0
   -0.3390    2.8560    0.2730 H   0  0  0  0  0  0  0  0  0  0  0  0
    0.8180    3.6260    3.7550 H   0  0  0  0  0  0  0  0  0  0  0  0
   -1.1160    3.2330    5.5300 H   0  0  0  0  0  0  0  0  0  0  0  0
   -3.6330    2.0130    5.4620 H   0  0  0  0  0  0  0  0  0  0  0  0
   -5.2410    0.8290    4.0300 H   0  0  0  0  0  0  0  0  0  0  0  0
   -4.6170    0.4110    1.6660 H   0  0  0  0  0  0  0  0  0  0  0  0
   -2.3860    1.2030    0.8260 H   0  0  0  0  0  0  0  0  0  0  0  0
   -5.1520   -6.7050    1.4540 N   0  0  0  0  0  0  0  0  0  0  0  0
   -4.1100   -5.7530    1.5880 C   0  0  0  0  0  0  0  0  0  0  0  0
   -3.7090   -5.4290    2.7660 N   0  0  0  0  0  0  0  0  0  0  0  0
   -3.5230   -5.1700    0.4420 N   0  0  0  0  0  0  0  0  0  0  0  0
   -2.8100   -3.8880    0.5140 C   0  0  0  0  0  0  0  0  0  0  0  0
   -2.3010   -3.5410   -0.8650 C   0  0  0  0  0  0  0  0  0  0  0  0
   -1.5600   -2.2600   -0.9240 C   0  0  0  0  0  0  0  0  0  0  0  0
   -0.3650   -2.1910   -0.0370 C   0  0  2  0  0  0  0  0  0  0  0  0
    0.3120   -0.9030   -0.1460 N   0  0  0  0  0  0  0  0  0  0  0  0
    0.5950   -3.2420   -0.3790 C   0  0  0  0  0  0  0  0  0  0  0  0
    1.7480   -2.9500   -0.7600 O   0  0  0  0  0  0  0  0  0  0  0  0
    0.2460   -4.5690   -0.2850 O   0  0  0  0  0  0  0  0  0  0  0  0
   -6.1330   -6.4620    1.2280 H   0  0  0  0  0  0  0  0  0  0  0  0
   -4.9120   -7.7150    1.5940 H   0  0  0  0  0  0  0  0  0  0  0  0
   -4.1230   -5.8420    3.6340 H   0  0  0  0  0  0  0  0  0  0  0  0
   -3.6010   -5.6600   -0.4540 H   0  0  0  0  0  0  0  0  0  0  0  0
   -2.0250   -3.9480    1.2720 H   0  0  0  0  0  0  0  0  0  0  0  0
   -3.5590   -3.1460    0.8600 H   0  0  0  0  0  0  0  0  0  0  0  0
   -1.7420   -4.3550   -1.3350 H   0  0  0  0  0  0  0  0  0  0  0  0
   -3.2460   -3.4550   -1.5030 H   0  0  0  0  0  0  0  0  0  0  0  0
   -2.2880   -1.4420   -0.6420 H   0  0  0  0  0  0  0  0  0  0  0  0
   -1.3280   -2.0450   -1.9910 H   0  0  0  0  0  0  0  0  0  0  0  0
   -0.7410   -2.3450    1.0110 H   0  0  0  0  0  0  0  0  0  0  0  0
    0.7540   -0.6000   -1.0350 H   0  0  0  0  0  0  0  0  0  0  0  0
  1  9  1  0  0  0  0
  1  2  1  0  0  0  0
  2  3  1  0  0  0  0
  2  4  1  0  0  0  0
  3 12  1  0  0  0  0
  3 14  1  0  0  0  0
  4 15  1  6  0  0  0
  4  5  1  0  0  0  0
  4  6  1  0  0  0  0
  5 17  1  0  0  0  0
  6 18  1  0  0  0  0
  6  7  2  0  0  0  0
  8  1  1  0  0  0  0
 10  1  1  0  0  0  0
 11  2  1  0  0  0  0
 13  3  1  0  0  0  0
 16  5  1  0  0  0  0
 18 19  1  0  0  0  0
 19 30  1  0  0  0  0
 19 20  1  0  0  0  0
 19 33  1  1  0  0  0
 20 34  1  0  0  0  0
 20 21  1  0  0  0  0
 21 29  1  0  0  0  0
 21 22  2  0  0  0  0
 22 36  1  0  0  0  0
 22 23  1  0  0  0  0
 23 37  1  0  0  0  0
 24 25  1  0  0  0  0
 24 23  1  0  0  0  0
 25 38  1  0  0  0  0
 26 39  1  0  0  0  0
 26 25  2  0  0  0  0
 27 26  1  0  0  0  0
 28 27  2  0  0  0  0
 28 29  1  0  0  0  0
 29 24  2  0  0  0  0
 30 31  2  0  0  0  0
 32 18  1  0  0  0  0
 35 20  1  0  0  0  0
 40 27  1  0  0  0  0
 41 28  1  0  0  0  0
 42 43  1  0  0  0  0
 42 55  1  0  0  0  0
 43 44  2  0  0  0  0
 44 56  1  0  0  0  0
 45 46  1  0  0  0  0
 45 43  1  0  0  0  0
 46 59  1  0  0  0  0
 46 58  1  0  0  0  0
 47 46  1  0  0  0  0
 48 47  1  0  0  0  0
 48 62  1  0  0  0  0
 48 49  1  0  0  0  0
 49 64  1  1  0  0  0
 50 49  1  0  0  0  0
 50 30  1  0  0  0  0
 51 53  1  0  0  0  0
 51 49  1  0  0  0  0
 52 51  2  0  0  0  0
 54 42  1  0  0  0  0
 57 45  1  0  0  0  0
 60 47  1  0  0  0  0
 61 47  1  0  0  0  0
 63 48  1  0  0  0  0
 65 50  1  0  0  0  0
M  END
$$$$
