VWS.pdb
 OpenBabel07022419273D

 53 54  0  0  1  0  0  0  0  0999 V2000
    2.0900   -0.7510    4.6070 C   0  0  0  0  0  0  0  0  0  0  0  0
    1.4620   -0.4130    3.2910 C   0  0  0  0  0  0  0  0  0  0  0  0
    1.1860    1.0730    3.2180 C   0  0  0  0  0  0  0  0  0  0  0  0
    2.2450   -0.9200    2.1170 C   0  0  2  0  0  0  0  0  0  0  0  0
    3.5610   -0.3540    2.1130 N   0  0  0  0  0  0  0  0  0  0  0  0
    1.5270   -0.6560    0.8240 C   0  0  0  0  0  0  0  0  0  0  0  0
    2.0750   -0.0220   -0.1040 O   0  0  0  0  0  0  0  0  0  0  0  0
    2.9680   -0.1260    4.8000 H   0  0  0  0  0  0  0  0  0  0  0  0
    2.3830   -1.8290    4.6000 H   0  0  0  0  0  0  0  0  0  0  0  0
    1.3030   -0.6450    5.3980 H   0  0  0  0  0  0  0  0  0  0  0  0
    0.4590   -0.9230    3.2600 H   0  0  0  0  0  0  0  0  0  0  0  0
    0.1260    1.2870    2.9730 H   0  0  0  0  0  0  0  0  0  0  0  0
    1.3710    1.5700    4.2120 H   0  0  0  0  0  0  0  0  0  0  0  0
    1.8100    1.5900    2.4700 H   0  0  0  0  0  0  0  0  0  0  0  0
    2.3290   -2.0100    2.2030 H   0  0  0  0  0  0  0  0  0  0  0  0
    4.3070   -1.0630    2.1840 H   0  0  0  0  0  0  0  0  0  0  0  0
    3.7690    0.2640    1.3130 H   0  0  0  0  0  0  0  0  0  0  0  0
    0.2100   -1.1120    0.6070 N   0  0  0  0  0  0  0  0  0  0  0  0
   -0.6450   -0.9710   -0.4880 C   0  0  1  0  0  0  0  0  0  0  0  0
   -0.4260    0.3600   -1.2170 C   0  0  0  0  0  0  0  0  0  0  0  0
   -0.7080    1.5270   -0.3480 C   0  0  0  0  0  0  0  0  0  0  0  0
    0.0690    2.4270    0.3080 C   0  0  0  0  0  0  0  0  0  0  0  0
   -0.7010    3.3270    0.9790 N   0  0  0  0  0  0  0  0  0  0  0  0
   -1.9970    3.0410    0.7800 C   0  0  0  0  0  0  0  0  0  0  0  0
   -3.1480    3.6510    1.2350 C   0  0  0  0  0  0  0  0  0  0  0  0
   -4.3810    3.1540    0.8730 C   0  0  0  0  0  0  0  0  0  0  0  0
   -4.4490    2.0470    0.0560 C   0  0  0  0  0  0  0  0  0  0  0  0
   -3.2750    1.4620   -0.3810 C   0  0  0  0  0  0  0  0  0  0  0  0
   -2.0230    1.9320   -0.0380 C   0  0  0  0  0  0  0  0  0  0  0  0
   -0.8080   -2.0910   -1.3880 C   0  0  0  0  0  0  0  0  0  0  0  0
   -1.5770   -1.9800   -2.3680 O   0  0  0  0  0  0  0  0  0  0  0  0
   -0.2040   -1.6760    1.4390 H   0  0  0  0  0  0  0  0  0  0  0  0
   -1.6890   -0.7380   -0.0120 H   0  0  0  0  0  0  0  0  0  0  0  0
   -1.2020    0.3330   -2.0390 H   0  0  0  0  0  0  0  0  0  0  0  0
    0.5710    0.4200   -1.6620 H   0  0  0  0  0  0  0  0  0  0  0  0
    1.1580    2.4360    0.2940 H   0  0  0  0  0  0  0  0  0  0  0  0
   -0.2950    4.0940    1.5420 H   0  0  0  0  0  0  0  0  0  0  0  0
   -3.1170    4.5190    1.8760 H   0  0  0  0  0  0  0  0  0  0  0  0
   -5.3130    3.6150    1.2170 H   0  0  0  0  0  0  0  0  0  0  0  0
   -5.3870    1.6160   -0.2590 H   0  0  0  0  0  0  0  0  0  0  0  0
   -3.3310    0.5900   -1.0350 H   0  0  0  0  0  0  0  0  0  0  0  0
    2.0970   -5.1700   -1.8700 O   0  0  0  0  0  0  0  0  0  0  0  0
    1.0540   -4.8670   -2.7030 C   0  0  0  0  0  0  0  0  0  0  0  0
   -0.2190   -4.4680   -2.0230 C   0  0  2  0  0  0  0  0  0  0  0  0
   -0.1200   -3.3110   -1.1890 N   0  0  0  0  0  0  0  0  0  0  0  0
   -0.7650   -5.6490   -1.3100 C   0  0  0  0  0  0  0  0  0  0  0  0
   -1.0820   -5.5390   -0.0790 O   0  0  0  0  0  0  0  0  0  0  0  0
   -0.9590   -6.8740   -1.8830 O   0  0  0  0  0  0  0  0  0  0  0  0
    2.7030   -4.4130   -1.6770 H   0  0  0  0  0  0  0  0  0  0  0  0
    0.8150   -5.8060   -3.2770 H   0  0  0  0  0  0  0  0  0  0  0  0
    1.3230   -4.1270   -3.5090 H   0  0  0  0  0  0  0  0  0  0  0  0
   -0.9480   -4.2290   -2.8370 H   0  0  0  0  0  0  0  0  0  0  0  0
    0.5240   -3.3910   -0.3610 H   0  0  0  0  0  0  0  0  0  0  0  0
  1  8  1  0  0  0  0
  1 10  1  0  0  0  0
  2  1  1  0  0  0  0
  3  2  1  0  0  0  0
  3 13  1  0  0  0  0
  4 15  1  1  0  0  0
  4  2  1  0  0  0  0
  5  4  1  0  0  0  0
  5 16  1  0  0  0  0
  6  4  1  0  0  0  0
  7  6  2  0  0  0  0
  9  1  1  0  0  0  0
 11  2  1  0  0  0  0
 12  3  1  0  0  0  0
 14  3  1  0  0  0  0
 17  5  1  0  0  0  0
 18  6  1  0  0  0  0
 18 32  1  0  0  0  0
 19 33  1  1  0  0  0
 19 18  1  0  0  0  0
 20 19  1  0  0  0  0
 20 21  1  0  0  0  0
 21 29  1  0  0  0  0
 21 22  2  0  0  0  0
 22 23  1  0  0  0  0
 23 37  1  0  0  0  0
 24 23  1  0  0  0  0
 24 25  1  0  0  0  0
 25 38  1  0  0  0  0
 26 39  1  0  0  0  0
 26 25  2  0  0  0  0
 27 26  1  0  0  0  0
 28 29  1  0  0  0  0
 28 27  2  0  0  0  0
 29 24  2  0  0  0  0
 30 45  1  0  0  0  0
 30 19  1  0  0  0  0
 31 30  2  0  0  0  0
 34 20  1  0  0  0  0
 35 20  1  0  0  0  0
 36 22  1  0  0  0  0
 40 27  1  0  0  0  0
 41 28  1  0  0  0  0
 42 49  1  0  0  0  0
 43 44  1  0  0  0  0
 43 42  1  0  0  0  0
 44 52  1  6  0  0  0
 44 46  1  0  0  0  0
 44 45  1  0  0  0  0
 45 53  1  0  0  0  0
 46 47  1  0  0  0  0
 48 46  2  0  0  0  0
 50 43  1  0  0  0  0
 51 43  1  0  0  0  0
M  END
$$$$
