VWV.pdb
 OpenBabel07022419283D

 58 59  0  0  1  0  0  0  0  0999 V2000
    3.2830   -2.7840    2.4980 C   0  0  0  0  0  0  0  0  0  0  0  0
    3.7170   -1.3480    2.4540 C   0  0  0  0  0  0  0  0  0  0  0  0
    4.1620   -0.8720    1.1030 C   0  0  0  0  0  0  0  0  0  0  0  0
    2.8100   -0.4100    3.1880 C   0  0  2  0  0  0  0  0  0  0  0  0
    2.8090   -0.8510    4.5800 N   0  0  0  0  0  0  0  0  0  0  0  0
    1.4580   -0.2640    2.7050 C   0  0  0  0  0  0  0  0  0  0  0  0
    0.5020   -0.4930    3.5300 O   0  0  0  0  0  0  0  0  0  0  0  0
    2.9630   -3.1840    1.5170 H   0  0  0  0  0  0  0  0  0  0  0  0
    2.4490   -2.8470    3.2530 H   0  0  0  0  0  0  0  0  0  0  0  0
    4.0560   -3.4850    2.8790 H   0  0  0  0  0  0  0  0  0  0  0  0
    4.6690   -1.3310    3.0850 H   0  0  0  0  0  0  0  0  0  0  0  0
    5.2270   -1.1920    0.8810 H   0  0  0  0  0  0  0  0  0  0  0  0
    4.2280    0.2400    1.0520 H   0  0  0  0  0  0  0  0  0  0  0  0
    3.5930   -1.3040    0.2530 H   0  0  0  0  0  0  0  0  0  0  0  0
    3.3030    0.5920    3.1610 H   0  0  0  0  0  0  0  0  0  0  0  0
    3.2330   -0.1180    5.1880 H   0  0  0  0  0  0  0  0  0  0  0  0
    1.8110   -0.9650    4.9020 H   0  0  0  0  0  0  0  0  0  0  0  0
    1.1010    0.1110    1.3930 N   0  0  0  0  0  0  0  0  0  0  0  0
   -0.2630    0.2500    0.9540 C   0  0  1  0  0  0  0  0  0  0  0  0
   -0.5570    1.6370    0.4590 C   0  0  0  0  0  0  0  0  0  0  0  0
   -1.9810    1.7000    0.0260 C   0  0  0  0  0  0  0  0  0  0  0  0
   -2.5210    1.7050   -1.2410 C   0  0  0  0  0  0  0  0  0  0  0  0
   -3.8590    1.7730   -1.1220 N   0  0  0  0  0  0  0  0  0  0  0  0
   -4.2050    1.8120    0.1840 C   0  0  0  0  0  0  0  0  0  0  0  0
   -5.4420    1.8830    0.7890 C   0  0  0  0  0  0  0  0  0  0  0  0
   -5.5700    1.9120    2.1760 C   0  0  0  0  0  0  0  0  0  0  0  0
   -4.3940    1.8660    2.8960 C   0  0  0  0  0  0  0  0  0  0  0  0
   -3.1560    1.7950    2.2980 C   0  0  0  0  0  0  0  0  0  0  0  0
   -3.0480    1.7670    0.9180 C   0  0  0  0  0  0  0  0  0  0  0  0
   -0.5870   -0.8110   -0.0310 C   0  0  0  0  0  0  0  0  0  0  0  0
   -1.7400   -0.8380   -0.5350 O   0  0  0  0  0  0  0  0  0  0  0  0
    1.8660    0.2930    0.7240 H   0  0  0  0  0  0  0  0  0  0  0  0
   -0.9390    0.0290    1.8340 H   0  0  0  0  0  0  0  0  0  0  0  0
   -0.4040    2.3490    1.2690 H   0  0  0  0  0  0  0  0  0  0  0  0
    0.0750    1.8250   -0.4350 H   0  0  0  0  0  0  0  0  0  0  0  0
   -1.9400    1.6610   -2.1540 H   0  0  0  0  0  0  0  0  0  0  0  0
   -4.5340    1.7920   -1.9180 H   0  0  0  0  0  0  0  0  0  0  0  0
   -6.3580    1.9190    0.2170 H   0  0  0  0  0  0  0  0  0  0  0  0
   -6.5520    1.9670    2.6240 H   0  0  0  0  0  0  0  0  0  0  0  0
   -4.4870    1.8890    3.9840 H   0  0  0  0  0  0  0  0  0  0  0  0
   -2.2360    1.7600    2.8660 H   0  0  0  0  0  0  0  0  0  0  0  0
    0.7620   -1.4410   -3.3240 C   0  0  0  0  0  0  0  0  0  0  0  0
    0.8620   -2.7840   -2.6410 C   0  0  0  0  0  0  0  0  0  0  0  0
    0.3780   -3.8360   -3.6150 C   0  0  0  0  0  0  0  0  0  0  0  0
   -0.0380   -2.8380   -1.4240 C   0  0  2  0  0  0  0  0  0  0  0  0
    0.3260   -1.8140   -0.4510 N   0  0  0  0  0  0  0  0  0  0  0  0
    0.0250   -4.1460   -0.7580 C   0  0  0  0  0  0  0  0  0  0  0  0
   -0.2490   -5.1770   -1.4020 O   0  0  0  0  0  0  0  0  0  0  0  0
    0.3810   -4.2420    0.5630 O   0  0  0  0  0  0  0  0  0  0  0  0
    0.7740   -0.6000   -2.5900 H   0  0  0  0  0  0  0  0  0  0  0  0
   -0.2060   -1.4040   -3.8750 H   0  0  0  0  0  0  0  0  0  0  0  0
    1.6020   -1.2530   -4.0130 H   0  0  0  0  0  0  0  0  0  0  0  0
    1.9100   -3.0430   -2.3880 H   0  0  0  0  0  0  0  0  0  0  0  0
    0.4210   -3.4360   -4.6550 H   0  0  0  0  0  0  0  0  0  0  0  0
    0.9950   -4.7550   -3.5820 H   0  0  0  0  0  0  0  0  0  0  0  0
   -0.6930   -4.0640   -3.4180 H   0  0  0  0  0  0  0  0  0  0  0  0
   -1.0770   -2.7050   -1.7790 H   0  0  0  0  0  0  0  0  0  0  0  0
    1.2750   -1.7750   -0.0210 H   0  0  0  0  0  0  0  0  0  0  0  0
  1 10  1  0  0  0  0
  1  9  1  0  0  0  0
  2  1  1  0  0  0  0
  2 11  1  0  0  0  0
  2  4  1  0  0  0  0
  3  2  1  0  0  0  0
  4 15  1  6  0  0  0
  4  5  1  0  0  0  0
  5 17  1  0  0  0  0
  5 16  1  0  0  0  0
  6  4  1  0  0  0  0
  6  7  2  0  0  0  0
  8  1  1  0  0  0  0
 12  3  1  0  0  0  0
 13  3  1  0  0  0  0
 14  3  1  0  0  0  0
 18  6  1  0  0  0  0
 19 18  1  0  0  0  0
 19 33  1  1  0  0  0
 20 19  1  0  0  0  0
 20 34  1  0  0  0  0
 21 20  1  0  0  0  0
 21 29  1  0  0  0  0
 22 23  1  0  0  0  0
 22 21  2  0  0  0  0
 23 24  1  0  0  0  0
 24 25  2  0  0  0  0
 24 29  1  0  0  0  0
 25 26  1  0  0  0  0
 26 39  1  0  0  0  0
 26 27  2  0  0  0  0
 27 40  1  0  0  0  0
 28 41  1  0  0  0  0
 28 27  1  0  0  0  0
 29 28  2  0  0  0  0
 30 19  1  0  0  0  0
 31 30  2  0  0  0  0
 32 18  1  0  0  0  0
 35 20  1  0  0  0  0
 36 22  1  0  0  0  0
 37 23  1  0  0  0  0
 38 25  1  0  0  0  0
 42 43  1  0  0  0  0
 42 50  1  0  0  0  0
 43 53  1  0  0  0  0
 43 45  1  0  0  0  0
 44 55  1  0  0  0  0
 44 56  1  0  0  0  0
 44 43  1  0  0  0  0
 45 57  1  6  0  0  0
 45 47  1  0  0  0  0
 45 46  1  0  0  0  0
 46 30  1  0  0  0  0
 46 58  1  0  0  0  0
 47 49  1  0  0  0  0
 48 47  2  0  0  0  0
 51 42  1  0  0  0  0
 52 42  1  0  0  0  0
 54 44  1  0  0  0  0
M  END
$$$$
