VWW.pdb
 OpenBabel07022419283D

 66 69  0  0  1  0  0  0  0  0999 V2000
    4.1590   -2.0320    2.3170 C   0  0  0  0  0  0  0  0  0  0  0  0
    4.2500   -2.4980    0.8820 C   0  0  0  0  0  0  0  0  0  0  0  0
    5.3100   -3.5400    0.7050 C   0  0  0  0  0  0  0  0  0  0  0  0
    4.4420   -1.3190   -0.0620 C   0  0  2  0  0  0  0  0  0  0  0  0
    5.6790   -0.6810    0.3450 N   0  0  0  0  0  0  0  0  0  0  0  0
    3.2990   -0.3820    0.0990 C   0  0  0  0  0  0  0  0  0  0  0  0
    3.5400    0.7650    0.5520 O   0  0  0  0  0  0  0  0  0  0  0  0
    3.1470   -1.5950    2.4530 H   0  0  0  0  0  0  0  0  0  0  0  0
    4.8670   -1.1810    2.4140 H   0  0  0  0  0  0  0  0  0  0  0  0
    4.3150   -2.8270    3.0410 H   0  0  0  0  0  0  0  0  0  0  0  0
    3.2740   -2.9630    0.6320 H   0  0  0  0  0  0  0  0  0  0  0  0
    6.2200   -3.3030    1.2940 H   0  0  0  0  0  0  0  0  0  0  0  0
    5.5320   -3.6500   -0.3760 H   0  0  0  0  0  0  0  0  0  0  0  0
    4.8950   -4.5100    1.0530 H   0  0  0  0  0  0  0  0  0  0  0  0
    4.5780   -1.6440   -1.1000 H   0  0  0  0  0  0  0  0  0  0  0  0
    5.5050    0.2560    0.7230 H   0  0  0  0  0  0  0  0  0  0  0  0
    6.2640   -1.3000    0.9200 H   0  0  0  0  0  0  0  0  0  0  0  0
    1.9670   -0.6920   -0.2200 N   0  0  0  0  0  0  0  0  0  0  0  0
    0.8460    0.2240   -0.0620 C   0  0  1  0  0  0  0  0  0  0  0  0
    0.2300    0.5750   -1.4090 C   0  0  0  0  0  0  0  0  0  0  0  0
   -0.8950    1.5060   -1.1450 C   0  0  0  0  0  0  0  0  0  0  0  0
   -2.2630    1.2580   -1.1590 C   0  0  0  0  0  0  0  0  0  0  0  0
   -2.9190    2.3970   -0.8610 N   0  0  0  0  0  0  0  0  0  0  0  0
   -2.0470    3.3930   -0.6510 C   0  0  0  0  0  0  0  0  0  0  0  0
   -2.1950    4.7180   -0.3260 C   0  0  0  0  0  0  0  0  0  0  0  0
   -1.1190    5.5660   -0.1590 C   0  0  0  0  0  0  0  0  0  0  0  0
    0.1460    5.0490   -0.3270 C   0  0  0  0  0  0  0  0  0  0  0  0
    0.2840    3.7170   -0.6530 C   0  0  0  0  0  0  0  0  0  0  0  0
   -0.7890    2.8590   -0.8220 C   0  0  0  0  0  0  0  0  0  0  0  0
   -0.1600   -0.3260    0.8880 C   0  0  0  0  0  0  0  0  0  0  0  0
   -1.2110    0.2920    1.1900 O   0  0  0  0  0  0  0  0  0  0  0  0
    1.7530   -1.6390   -0.5960 H   0  0  0  0  0  0  0  0  0  0  0  0
    1.1930    1.1970    0.3670 H   0  0  0  0  0  0  0  0  0  0  0  0
   -0.1920   -0.3370   -1.8890 H   0  0  0  0  0  0  0  0  0  0  0  0
    1.0140    1.0220   -2.0210 H   0  0  0  0  0  0  0  0  0  0  0  0
   -2.7180    0.3100   -1.3720 H   0  0  0  0  0  0  0  0  0  0  0  0
   -3.9570    2.5070   -0.8000 H   0  0  0  0  0  0  0  0  0  0  0  0
   -3.1800    5.1620   -0.1860 H   0  0  0  0  0  0  0  0  0  0  0  0
   -1.2630    6.6270    0.1010 H   0  0  0  0  0  0  0  0  0  0  0  0
    1.0310    5.6590   -0.2100 H   0  0  0  0  0  0  0  0  0  0  0  0
    1.2730    3.2870   -0.7920 H   0  0  0  0  0  0  0  0  0  0  0  0
    0.0020   -1.6040    1.5230 N   0  0  0  0  0  0  0  0  0  0  0  0
   -0.9830   -2.1200    2.4380 C   0  0  1  0  0  0  0  0  0  0  0  0
   -1.5980   -3.4140    1.9440 C   0  0  0  0  0  0  0  0  0  0  0  0
   -2.2750   -3.2400    0.6400 C   0  0  0  0  0  0  0  0  0  0  0  0
   -1.7720   -3.6550   -0.5580 C   0  0  0  0  0  0  0  0  0  0  0  0
   -2.6600   -3.3250   -1.4920 N   0  0  0  0  0  0  0  0  0  0  0  0
   -3.7280   -2.7060   -0.9380 C   0  0  0  0  0  0  0  0  0  0  0  0
   -4.9000   -2.1760   -1.4650 C   0  0  0  0  0  0  0  0  0  0  0  0
   -5.8280   -1.5900   -0.6180 C   0  0  0  0  0  0  0  0  0  0  0  0
   -5.5890   -1.5330    0.7390 C   0  0  0  0  0  0  0  0  0  0  0  0
   -4.4270   -2.0590    1.2580 C   0  0  0  0  0  0  0  0  0  0  0  0
   -3.4830   -2.6520    0.4160 C   0  0  0  0  0  0  0  0  0  0  0  0
   -0.3420   -2.3780    3.7360 C   0  0  0  0  0  0  0  0  0  0  0  0
    0.8800   -2.1450    3.9020 O   0  0  0  0  0  0  0  0  0  0  0  0
   -1.0650   -2.8830    4.8060 O   0  0  0  0  0  0  0  0  0  0  0  0
    0.8570   -2.1400    1.2960 H   0  0  0  0  0  0  0  0  0  0  0  0
   -1.8340   -1.4180    2.5750 H   0  0  0  0  0  0  0  0  0  0  0  0
   -2.3050   -3.7460    2.7250 H   0  0  0  0  0  0  0  0  0  0  0  0
   -0.8070   -4.2010    1.8760 H   0  0  0  0  0  0  0  0  0  0  0  0
   -0.8200   -4.1600   -0.6930 H   0  0  0  0  0  0  0  0  0  0  0  0
   -2.5720   -3.5050   -2.5200 H   0  0  0  0  0  0  0  0  0  0  0  0
   -5.0550   -2.2380   -2.5310 H   0  0  0  0  0  0  0  0  0  0  0  0
   -6.7290   -1.1860   -1.0500 H   0  0  0  0  0  0  0  0  0  0  0  0
   -6.3200   -1.0710    1.4150 H   0  0  0  0  0  0  0  0  0  0  0  0
   -4.1930   -2.0400    2.3100 H   0  0  0  0  0  0  0  0  0  0  0  0
  1  9  1  0  0  0  0
  1  8  1  0  0  0  0
  1 10  1  0  0  0  0
  2  1  1  0  0  0  0
  3  2  1  0  0  0  0
  3 14  1  0  0  0  0
  3 12  1  0  0  0  0
  4 15  1  6  0  0  0
  4  6  1  0  0  0  0
  4  5  1  0  0  0  0
  4  2  1  0  0  0  0
  5 16  1  0  0  0  0
  5 17  1  0  0  0  0
  6  7  2  0  0  0  0
 11  2  1  0  0  0  0
 13  3  1  0  0  0  0
 18 19  1  0  0  0  0
 18  6  1  0  0  0  0
 19 33  1  1  0  0  0
 19 30  1  0  0  0  0
 20 21  1  0  0  0  0
 20 19  1  0  0  0  0
 21 29  1  0  0  0  0
 22 21  2  0  0  0  0
 22 23  1  0  0  0  0
 23 37  1  0  0  0  0
 23 24  1  0  0  0  0
 24 25  1  0  0  0  0
 25 38  1  0  0  0  0
 25 26  2  0  0  0  0
 26 39  1  0  0  0  0
 27 40  1  0  0  0  0
 27 26  1  0  0  0  0
 28 27  2  0  0  0  0
 29 28  1  0  0  0  0
 29 24  2  0  0  0  0
 30 31  2  0  0  0  0
 30 42  1  0  0  0  0
 32 18  1  0  0  0  0
 34 20  1  0  0  0  0
 35 20  1  0  0  0  0
 36 22  1  0  0  0  0
 41 28  1  0  0  0  0
 42 43  1  0  0  0  0
 43 58  1  1  0  0  0
 43 54  1  0  0  0  0
 44 43  1  0  0  0  0
 44 59  1  0  0  0  0
 45 44  1  0  0  0  0
 46 45  2  0  0  0  0
 47 48  1  0  0  0  0
 47 46  1  0  0  0  0
 48 53  1  0  0  0  0
 49 48  2  0  0  0  0
 49 50  1  0  0  0  0
 50 51  2  0  0  0  0
 51 52  1  0  0  0  0
 51 65  1  0  0  0  0
 52 66  1  0  0  0  0
 53 45  1  0  0  0  0
 53 52  2  0  0  0  0
 54 55  2  0  0  0  0
 54 56  1  0  0  0  0
 57 42  1  0  0  0  0
 60 44  1  0  0  0  0
 61 46  1  0  0  0  0
 62 47  1  0  0  0  0
 63 49  1  0  0  0  0
 64 50  1  0  0  0  0
M  END
$$$$
