VWY.pdb
 OpenBabel07022419283D

 63 65  0  0  1  0  0  0  0  0999 V2000
    3.4160   -2.5550   -0.6110 C   0  0  0  0  0  0  0  0  0  0  0  0
    3.5820   -1.8940    0.7480 C   0  0  0  0  0  0  0  0  0  0  0  0
    2.9640   -2.6600    1.8680 C   0  0  0  0  0  0  0  0  0  0  0  0
    3.1730   -0.4610    0.7170 C   0  0  2  0  0  0  0  0  0  0  0  0
    3.3430    0.1130    2.0310 N   0  0  0  0  0  0  0  0  0  0  0  0
    1.7230   -0.3750    0.2890 C   0  0  0  0  0  0  0  0  0  0  0  0
    1.3710   -0.8350   -0.8200 O   0  0  0  0  0  0  0  0  0  0  0  0
    4.1190   -3.4280   -0.7000 H   0  0  0  0  0  0  0  0  0  0  0  0
    3.7310   -1.8270   -1.3770 H   0  0  0  0  0  0  0  0  0  0  0  0
    2.4060   -2.9620   -0.7520 H   0  0  0  0  0  0  0  0  0  0  0  0
    4.7050   -1.9000    0.9230 H   0  0  0  0  0  0  0  0  0  0  0  0
    3.6910   -2.7080    2.7210 H   0  0  0  0  0  0  0  0  0  0  0  0
    2.7910   -3.7160    1.5550 H   0  0  0  0  0  0  0  0  0  0  0  0
    2.0500   -2.2080    2.2700 H   0  0  0  0  0  0  0  0  0  0  0  0
    3.7990    0.1150   -0.0020 H   0  0  0  0  0  0  0  0  0  0  0  0
    3.1530   -0.5790    2.7750 H   0  0  0  0  0  0  0  0  0  0  0  0
    4.3300    0.5030    2.0980 H   0  0  0  0  0  0  0  0  0  0  0  0
    0.7500    0.2150    1.1090 N   0  0  0  0  0  0  0  0  0  0  0  0
   -0.6070    0.3960    0.8550 C   0  0  1  0  0  0  0  0  0  0  0  0
   -0.8390    0.7260   -0.6350 C   0  0  0  0  0  0  0  0  0  0  0  0
   -0.1700    1.9830   -1.0420 C   0  0  0  0  0  0  0  0  0  0  0  0
    0.9640    2.1930   -1.7740 C   0  0  0  0  0  0  0  0  0  0  0  0
    1.2020    3.5160   -1.9070 N   0  0  0  0  0  0  0  0  0  0  0  0
    0.2460    4.2180   -1.2760 C   0  0  0  0  0  0  0  0  0  0  0  0
    0.0490    5.5770   -1.1310 C   0  0  0  0  0  0  0  0  0  0  0  0
   -1.0370    6.0460   -0.4240 C   0  0  0  0  0  0  0  0  0  0  0  0
   -1.8970    5.1160    0.1180 C   0  0  0  0  0  0  0  0  0  0  0  0
   -1.6880    3.7480   -0.0360 C   0  0  0  0  0  0  0  0  0  0  0  0
   -0.6120    3.2830   -0.7350 C   0  0  0  0  0  0  0  0  0  0  0  0
   -1.5730   -0.5770    1.3380 C   0  0  0  0  0  0  0  0  0  0  0  0
   -2.7990   -0.3460    1.0640 O   0  0  0  0  0  0  0  0  0  0  0  0
    1.1190    0.5660    2.0600 H   0  0  0  0  0  0  0  0  0  0  0  0
   -0.8490    1.4530    1.3030 H   0  0  0  0  0  0  0  0  0  0  0  0
   -0.6450   -0.0890   -1.3060 H   0  0  0  0  0  0  0  0  0  0  0  0
   -1.9550    0.9700   -0.6920 H   0  0  0  0  0  0  0  0  0  0  0  0
    1.6010    1.4400   -2.2050 H   0  0  0  0  0  0  0  0  0  0  0  0
    2.0080    3.9360   -2.4220 H   0  0  0  0  0  0  0  0  0  0  0  0
    0.7190    6.3110   -1.5520 H   0  0  0  0  0  0  0  0  0  0  0  0
   -1.2240    7.1150   -0.2890 H   0  0  0  0  0  0  0  0  0  0  0  0
   -2.7510    5.4720    0.6740 H   0  0  0  0  0  0  0  0  0  0  0  0
   -2.3730    3.0220    0.3910 H   0  0  0  0  0  0  0  0  0  0  0  0
   -2.7890   -3.9000   -3.5940 O   0  0  0  0  0  0  0  0  0  0  0  0
   -2.5690   -3.9380   -2.2200 C   0  0  0  0  0  0  0  0  0  0  0  0
   -1.3310   -3.7780   -1.6430 C   0  0  0  0  0  0  0  0  0  0  0  0
   -1.1000   -3.8130   -0.2870 C   0  0  0  0  0  0  0  0  0  0  0  0
   -2.1900   -4.0220    0.5380 C   0  0  0  0  0  0  0  0  0  0  0  0
   -2.0820   -4.0810    2.0070 C   0  0  0  0  0  0  0  0  0  0  0  0
   -2.2620   -2.6930    2.5420 C   0  0  2  0  0  0  0  0  0  0  0  0
   -1.3010   -1.7440    2.0740 N   0  0  0  0  0  0  0  0  0  0  0  0
   -2.2780   -2.6790    4.0130 C   0  0  0  0  0  0  0  0  0  0  0  0
   -3.0500   -3.4360    4.6320 O   0  0  0  0  0  0  0  0  0  0  0  0
   -3.4400   -4.1850   -0.0230 C   0  0  0  0  0  0  0  0  0  0  0  0
   -3.6400   -4.1460   -1.3780 C   0  0  0  0  0  0  0  0  0  0  0  0
   -1.4440   -1.8330    4.7050 O   0  0  0  0  0  0  0  0  0  0  0  0
   -2.6940   -2.9880   -4.0600 H   0  0  0  0  0  0  0  0  0  0  0  0
   -0.4980   -3.6150   -2.3130 H   0  0  0  0  0  0  0  0  0  0  0  0
   -0.1250   -3.6850    0.1570 H   0  0  0  0  0  0  0  0  0  0  0  0
   -2.9220   -4.6990    2.3800 H   0  0  0  0  0  0  0  0  0  0  0  0
   -1.1610   -4.5760    2.3600 H   0  0  0  0  0  0  0  0  0  0  0  0
   -3.2710   -2.3060    2.2120 H   0  0  0  0  0  0  0  0  0  0  0  0
   -0.3060   -1.9450    2.3070 H   0  0  0  0  0  0  0  0  0  0  0  0
   -4.3330   -4.3540    0.5980 H   0  0  0  0  0  0  0  0  0  0  0  0
   -4.6390   -4.2760   -1.8060 H   0  0  0  0  0  0  0  0  0  0  0  0
  1  2  1  0  0  0  0
  2 11  1  0  0  0  0
  2  3  1  0  0  0  0
  3 14  1  0  0  0  0
  3 12  1  0  0  0  0
  4 15  1  6  0  0  0
  4  2  1  0  0  0  0
  4  5  1  0  0  0  0
  5 17  1  0  0  0  0
  5 16  1  0  0  0  0
  6  4  1  0  0  0  0
  6 18  1  0  0  0  0
  7  6  2  0  0  0  0
  8  1  1  0  0  0  0
  9  1  1  0  0  0  0
 10  1  1  0  0  0  0
 13  3  1  0  0  0  0
 18 32  1  0  0  0  0
 19 18  1  0  0  0  0
 19 33  1  1  0  0  0
 19 30  1  0  0  0  0
 20 19  1  0  0  0  0
 21 29  1  0  0  0  0
 21 20  1  0  0  0  0
 22 21  2  0  0  0  0
 23 22  1  0  0  0  0
 23 24  1  0  0  0  0
 24 25  2  0  0  0  0
 24 29  1  0  0  0  0
 25 26  1  0  0  0  0
 26 39  1  0  0  0  0
 26 27  2  0  0  0  0
 27 40  1  0  0  0  0
 28 27  1  0  0  0  0
 28 41  1  0  0  0  0
 29 28  2  0  0  0  0
 30 49  1  0  0  0  0
 31 30  2  0  0  0  0
 34 20  1  0  0  0  0
 35 20  1  0  0  0  0
 36 22  1  0  0  0  0
 37 23  1  0  0  0  0
 38 25  1  0  0  0  0
 42 43  1  0  0  0  0
 43 44  2  0  0  0  0
 43 53  1  0  0  0  0
 44 45  1  0  0  0  0
 45 57  1  0  0  0  0
 45 46  2  0  0  0  0
 46 47  1  0  0  0  0
 47 59  1  0  0  0  0
 47 58  1  0  0  0  0
 47 48  1  0  0  0  0
 48 60  1  6  0  0  0
 48 50  1  0  0  0  0
 49 61  1  0  0  0  0
 49 48  1  0  0  0  0
 50 51  2  0  0  0  0
 50 54  1  0  0  0  0
 52 46  1  0  0  0  0
 52 62  1  0  0  0  0
 53 52  2  0  0  0  0
 55 42  1  0  0  0  0
 56 44  1  0  0  0  0
 63 53  1  0  0  0  0
M  END
$$$$
