VYA.pdb
 OpenBabel07022419283D

 49 49  0  0  1  0  0  0  0  0999 V2000
    3.0090   -4.4540    0.7440 C   0  0  0  0  0  0  0  0  0  0  0  0
    1.9750   -3.3980    1.1640 C   0  0  0  0  0  0  0  0  0  0  0  0
    1.0600   -3.2160    0.0120 C   0  0  0  0  0  0  0  0  0  0  0  0
    2.7260   -2.2310    1.6520 C   0  0  2  0  0  0  0  0  0  0  0  0
    3.5520   -2.6590    2.7800 N   0  0  0  0  0  0  0  0  0  0  0  0
    2.0170   -1.0250    2.0280 C   0  0  0  0  0  0  0  0  0  0  0  0
    2.2170   -0.5810    3.1970 O   0  0  0  0  0  0  0  0  0  0  0  0
    3.0370   -4.4550   -0.3630 H   0  0  0  0  0  0  0  0  0  0  0  0
    4.0360   -4.1720    1.0620 H   0  0  0  0  0  0  0  0  0  0  0  0
    2.7330   -5.4620    1.1300 H   0  0  0  0  0  0  0  0  0  0  0  0
    1.4140   -3.8660    2.0150 H   0  0  0  0  0  0  0  0  0  0  0  0
    0.8310   -4.2110   -0.4840 H   0  0  0  0  0  0  0  0  0  0  0  0
    1.5570   -2.6440   -0.7970 H   0  0  0  0  0  0  0  0  0  0  0  0
    0.0600   -2.8410    0.2960 H   0  0  0  0  0  0  0  0  0  0  0  0
    3.4790   -1.9190    0.8600 H   0  0  0  0  0  0  0  0  0  0  0  0
    3.1520   -3.5500    3.1340 H   0  0  0  0  0  0  0  0  0  0  0  0
    4.5360   -2.8310    2.4940 H   0  0  0  0  0  0  0  0  0  0  0  0
   -0.4040    2.2110   -4.5100 O   0  0  0  0  0  0  0  0  0  0  0  0
   -0.0700    2.1980   -3.1580 C   0  0  0  0  0  0  0  0  0  0  0  0
    1.1400    1.7250   -2.6820 C   0  0  0  0  0  0  0  0  0  0  0  0
    1.4750    1.7100   -1.3560 C   0  0  0  0  0  0  0  0  0  0  0  0
    0.5930    2.1780   -0.4220 C   0  0  0  0  0  0  0  0  0  0  0  0
    0.8860    2.1920    1.0270 C   0  0  0  0  0  0  0  0  0  0  0  0
    0.4710    0.9450    1.7470 C   0  0  2  0  0  0  0  0  0  0  0  0
    1.1110   -0.2490    1.2580 N   0  0  0  0  0  0  0  0  0  0  0  0
   -0.9940    0.8300    1.9250 C   0  0  0  0  0  0  0  0  0  0  0  0
   -1.6790    1.8200    2.3500 O   0  0  0  0  0  0  0  0  0  0  0  0
   -0.6250    2.6600   -0.8400 C   0  0  0  0  0  0  0  0  0  0  0  0
   -0.9290    2.6610   -2.1830 C   0  0  0  0  0  0  0  0  0  0  0  0
   -0.5760    1.2830   -4.9170 H   0  0  0  0  0  0  0  0  0  0  0  0
    1.8270    1.3550   -3.4610 H   0  0  0  0  0  0  0  0  0  0  0  0
    2.4430    1.3210   -1.0790 H   0  0  0  0  0  0  0  0  0  0  0  0
    1.9780    2.3200    1.1670 H   0  0  0  0  0  0  0  0  0  0  0  0
    0.4020    3.0900    1.4530 H   0  0  0  0  0  0  0  0  0  0  0  0
    0.8630    1.0930    2.7890 H   0  0  0  0  0  0  0  0  0  0  0  0
    0.9340   -0.6170    0.2730 H   0  0  0  0  0  0  0  0  0  0  0  0
   -1.3540    3.0440   -0.0970 H   0  0  0  0  0  0  0  0  0  0  0  0
   -1.8960    3.0450   -2.4990 H   0  0  0  0  0  0  0  0  0  0  0  0
   -3.9040   -0.6820    0.5320 C   0  0  0  0  0  0  0  0  0  0  0  0
   -3.1980   -0.4020    1.8450 C   0  0  2  0  0  0  0  0  0  0  0  0
   -1.7540   -0.3400    1.6540 N   0  0  0  0  0  0  0  0  0  0  0  0
   -3.5320   -1.4520    2.8030 C   0  0  0  0  0  0  0  0  0  0  0  0
   -2.6260   -2.1440    3.3300 O   0  0  0  0  0  0  0  0  0  0  0  0
   -4.8410   -1.7230    3.1640 O   0  0  0  0  0  0  0  0  0  0  0  0
   -4.3090    0.2530    0.0800 H   0  0  0  0  0  0  0  0  0  0  0  0
   -4.7730   -1.3360    0.7470 H   0  0  0  0  0  0  0  0  0  0  0  0
   -3.2310   -1.2280   -0.1650 H   0  0  0  0  0  0  0  0  0  0  0  0
   -3.5090    0.5940    2.2220 H   0  0  0  0  0  0  0  0  0  0  0  0
   -1.2910   -1.1810    1.3110 H   0  0  0  0  0  0  0  0  0  0  0  0
  1  9  1  0  0  0  0
  1 10  1  0  0  0  0
  1  2  1  0  0  0  0
  2  4  1  0  0  0  0
  2 11  1  0  0  0  0
  3 14  1  0  0  0  0
  3  2  1  0  0  0  0
  4 15  1  6  0  0  0
  4  6  1  0  0  0  0
  4  5  1  0  0  0  0
  5 16  1  0  0  0  0
  6  7  2  0  0  0  0
  8  1  1  0  0  0  0
 12  3  1  0  0  0  0
 13  3  1  0  0  0  0
 17  5  1  0  0  0  0
 18 19  1  0  0  0  0
 19 20  2  0  0  0  0
 19 29  1  0  0  0  0
 20 21  1  0  0  0  0
 21 32  1  0  0  0  0
 21 22  2  0  0  0  0
 22 23  1  0  0  0  0
 23 33  1  0  0  0  0
 23 34  1  0  0  0  0
 23 24  1  0  0  0  0
 24 26  1  0  0  0  0
 24 35  1  1  0  0  0
 25 24  1  0  0  0  0
 25  6  1  0  0  0  0
 26 27  2  0  0  0  0
 28 22  1  0  0  0  0
 28 37  1  0  0  0  0
 29 28  2  0  0  0  0
 30 18  1  0  0  0  0
 31 20  1  0  0  0  0
 36 25  1  0  0  0  0
 38 29  1  0  0  0  0
 39 46  1  0  0  0  0
 39 40  1  0  0  0  0
 40 48  1  1  0  0  0
 40 42  1  0  0  0  0
 41 40  1  0  0  0  0
 41 26  1  0  0  0  0
 42 44  2  0  0  0  0
 42 43  1  0  0  0  0
 45 39  1  0  0  0  0
 47 39  1  0  0  0  0
 49 41  1  0  0  0  0
M  END
$$$$
