VYC.pdb
 OpenBabel07022419283D

 50 50  0  0  1  0  0  0  0  0999 V2000
    3.8210   -4.7500    0.9060 C   0  0  0  0  0  0  0  0  0  0  0  0
    2.6220   -3.7880    1.0310 C   0  0  0  0  0  0  0  0  0  0  0  0
    2.0900   -3.6600   -0.3910 C   0  0  0  0  0  0  0  0  0  0  0  0
    3.1060   -2.4300    1.4690 C   0  0  2  0  0  0  0  0  0  0  0  0
    3.7740   -2.6900    2.7690 N   0  0  0  0  0  0  0  0  0  0  0  0
    2.0650   -1.4420    1.7360 C   0  0  0  0  0  0  0  0  0  0  0  0
    1.8500   -1.0900    2.9460 O   0  0  0  0  0  0  0  0  0  0  0  0
    3.4430   -5.7950    0.8710 H   0  0  0  0  0  0  0  0  0  0  0  0
    4.4120   -4.5270    0.0120 H   0  0  0  0  0  0  0  0  0  0  0  0
    4.4660   -4.6820    1.8060 H   0  0  0  0  0  0  0  0  0  0  0  0
    1.9090   -4.2700    1.6850 H   0  0  0  0  0  0  0  0  0  0  0  0
    2.6150   -2.8860   -0.9770 H   0  0  0  0  0  0  0  0  0  0  0  0
    2.2930   -4.6160   -0.9640 H   0  0  0  0  0  0  0  0  0  0  0  0
    1.0200   -3.4750   -0.4150 H   0  0  0  0  0  0  0  0  0  0  0  0
    3.9000   -2.0660    0.7990 H   0  0  0  0  0  0  0  0  0  0  0  0
    3.5880   -1.9190    3.4390 H   0  0  0  0  0  0  0  0  0  0  0  0
    4.7960   -2.8410    2.6220 H   0  0  0  0  0  0  0  0  0  0  0  0
   -3.0300    5.4080    2.6150 O   0  0  0  0  0  0  0  0  0  0  0  0
   -2.1440    4.4680    2.1260 C   0  0  0  0  0  0  0  0  0  0  0  0
   -2.2440    3.9770    0.8300 C   0  0  0  0  0  0  0  0  0  0  0  0
   -1.3430    3.0400    0.3760 C   0  0  0  0  0  0  0  0  0  0  0  0
   -0.3270    2.5780    1.2080 C   0  0  0  0  0  0  0  0  0  0  0  0
    0.6740    1.5770    0.8030 C   0  0  0  0  0  0  0  0  0  0  0  0
    0.2300    0.1850    1.2020 C   0  0  2  0  0  0  0  0  0  0  0  0
    1.2300   -0.7950    0.7960 N   0  0  0  0  0  0  0  0  0  0  0  0
   -1.1130   -0.1220    0.6600 C   0  0  0  0  0  0  0  0  0  0  0  0
   -2.1400    0.5520    0.9840 O   0  0  0  0  0  0  0  0  0  0  0  0
   -0.2480    3.0830    2.4970 C   0  0  0  0  0  0  0  0  0  0  0  0
   -1.1360    4.0100    2.9520 C   0  0  0  0  0  0  0  0  0  0  0  0
   -3.7000    5.1380    3.3270 H   0  0  0  0  0  0  0  0  0  0  0  0
   -3.0560    4.3650    0.2070 H   0  0  0  0  0  0  0  0  0  0  0  0
   -1.4140    2.6540   -0.6310 H   0  0  0  0  0  0  0  0  0  0  0  0
    1.6110    1.8060    1.3520 H   0  0  0  0  0  0  0  0  0  0  0  0
    0.8610    1.6380   -0.3020 H   0  0  0  0  0  0  0  0  0  0  0  0
    0.2390    0.1970    2.3100 H   0  0  0  0  0  0  0  0  0  0  0  0
    1.3500   -1.0390   -0.2050 H   0  0  0  0  0  0  0  0  0  0  0  0
    0.5270    2.7520    3.1800 H   0  0  0  0  0  0  0  0  0  0  0  0
   -1.0380    4.3850    3.9820 H   0  0  0  0  0  0  0  0  0  0  0  0
   -1.3750   -1.1740   -0.2530 N   0  0  0  0  0  0  0  0  0  0  0  0
   -2.6890   -1.4730   -0.7800 C   0  0  1  0  0  0  0  0  0  0  0  0
   -2.7000   -1.4160   -2.3000 C   0  0  0  0  0  0  0  0  0  0  0  0
   -2.2310    0.2200   -2.9040 S   0  0  0  0  0  0  0  0  0  0  0  0
   -3.0390   -2.8560   -0.4030 C   0  0  0  0  0  0  0  0  0  0  0  0
   -4.1400   -3.3280   -0.7570 O   0  0  0  0  0  0  0  0  0  0  0  0
   -2.1740   -3.6330    0.3300 O   0  0  0  0  0  0  0  0  0  0  0  0
   -0.5780   -1.7610   -0.5640 H   0  0  0  0  0  0  0  0  0  0  0  0
   -3.4080   -0.7490   -0.3450 H   0  0  0  0  0  0  0  0  0  0  0  0
   -3.7230   -1.6200   -2.6760 H   0  0  0  0  0  0  0  0  0  0  0  0
   -2.0530   -2.2080   -2.7260 H   0  0  0  0  0  0  0  0  0  0  0  0
   -2.8160    0.5380   -4.1280 H   0  0  0  0  0  0  0  0  0  0  0  0
  1  2  1  0  0  0  0
  1 10  1  0  0  0  0
  2  4  1  0  0  0  0
  2 11  1  0  0  0  0
  3  2  1  0  0  0  0
  4 15  1  6  0  0  0
  4  6  1  0  0  0  0
  4  5  1  0  0  0  0
  5 16  1  0  0  0  0
  6  7  2  0  0  0  0
  8  1  1  0  0  0  0
  9  1  1  0  0  0  0
 12  3  1  0  0  0  0
 13  3  1  0  0  0  0
 14  3  1  0  0  0  0
 17  5  1  0  0  0  0
 18 30  1  0  0  0  0
 19 18  1  0  0  0  0
 19 29  1  0  0  0  0
 20 19  2  0  0  0  0
 21 20  1  0  0  0  0
 21 22  2  0  0  0  0
 22 28  1  0  0  0  0
 23 24  1  0  0  0  0
 23 22  1  0  0  0  0
 23 33  1  0  0  0  0
 24 35  1  1  0  0  0
 25 24  1  0  0  0  0
 25  6  1  0  0  0  0
 26 27  2  0  0  0  0
 26 24  1  0  0  0  0
 28 29  2  0  0  0  0
 28 37  1  0  0  0  0
 29 38  1  0  0  0  0
 31 20  1  0  0  0  0
 32 21  1  0  0  0  0
 34 23  1  0  0  0  0
 36 25  1  0  0  0  0
 39 26  1  0  0  0  0
 40 43  1  0  0  0  0
 40 47  1  1  0  0  0
 40 39  1  0  0  0  0
 41 40  1  0  0  0  0
 42 41  1  0  0  0  0
 43 45  1  0  0  0  0
 44 43  2  0  0  0  0
 46 39  1  0  0  0  0
 48 41  1  0  0  0  0
 49 41  1  0  0  0  0
 50 42  1  0  0  0  0
M  END
$$$$
