VYD.pdb
 OpenBabel07022419283D

 52 52  0  0  1  0  0  0  0  0999 V2000
    1.1450   -2.6780    2.6270 C   0  0  0  0  0  0  0  0  0  0  0  0
    1.2850   -1.4660    3.4880 C   0  0  0  0  0  0  0  0  0  0  0  0
    0.0070   -1.3160    4.2850 C   0  0  0  0  0  0  0  0  0  0  0  0
    1.6250   -0.1920    2.7490 C   0  0  2  0  0  0  0  0  0  0  0  0
    1.7160    0.8310    3.8030 N   0  0  0  0  0  0  0  0  0  0  0  0
    0.5080    0.1490    1.8340 C   0  0  0  0  0  0  0  0  0  0  0  0
   -0.2940    1.0700    2.1920 O   0  0  0  0  0  0  0  0  0  0  0  0
    1.4010   -3.5590    3.2990 H   0  0  0  0  0  0  0  0  0  0  0  0
    1.8280   -2.7450    1.7820 H   0  0  0  0  0  0  0  0  0  0  0  0
    0.0840   -2.8620    2.3600 H   0  0  0  0  0  0  0  0  0  0  0  0
    2.0970   -1.6050    4.2490 H   0  0  0  0  0  0  0  0  0  0  0  0
   -0.8830   -1.3880    3.6200 H   0  0  0  0  0  0  0  0  0  0  0  0
   -0.0080   -0.3970    4.9030 H   0  0  0  0  0  0  0  0  0  0  0  0
   -0.0600   -2.2150    4.9660 H   0  0  0  0  0  0  0  0  0  0  0  0
    2.5690   -0.3170    2.2190 H   0  0  0  0  0  0  0  0  0  0  0  0
    0.7500    1.2140    3.9090 H   0  0  0  0  0  0  0  0  0  0  0  0
    1.9690    0.3980    4.7170 H   0  0  0  0  0  0  0  0  0  0  0  0
    2.4450    5.4310    0.3440 O   0  0  0  0  0  0  0  0  0  0  0  0
    1.7530    4.3000   -0.0860 C   0  0  0  0  0  0  0  0  0  0  0  0
    2.4170    3.1000   -0.3250 C   0  0  0  0  0  0  0  0  0  0  0  0
    1.7350    1.9830   -0.7500 C   0  0  0  0  0  0  0  0  0  0  0  0
    0.3780    1.9830   -0.9610 C   0  0  0  0  0  0  0  0  0  0  0  0
   -0.3840    0.7930   -1.4190 C   0  0  0  0  0  0  0  0  0  0  0  0
   -0.8680   -0.0220   -0.2000 C   0  0  2  0  0  0  0  0  0  0  0  0
    0.2550   -0.4630    0.5830 N   0  0  0  0  0  0  0  0  0  0  0  0
   -1.7540   -1.1170   -0.6540 C   0  0  0  0  0  0  0  0  0  0  0  0
   -2.8210   -0.8690   -1.3180 O   0  0  0  0  0  0  0  0  0  0  0  0
   -0.2830    3.1840   -0.7200 C   0  0  0  0  0  0  0  0  0  0  0  0
    0.3920    4.3080   -0.2950 C   0  0  0  0  0  0  0  0  0  0  0  0
    2.5060    5.6690    1.3170 H   0  0  0  0  0  0  0  0  0  0  0  0
    3.4920    3.1140   -0.1540 H   0  0  0  0  0  0  0  0  0  0  0  0
    2.2880    1.0770   -0.9230 H   0  0  0  0  0  0  0  0  0  0  0  0
   -1.2840    1.1710   -1.9450 H   0  0  0  0  0  0  0  0  0  0  0  0
    0.1650    0.1660   -2.1290 H   0  0  0  0  0  0  0  0  0  0  0  0
   -1.4890    0.7000    0.3740 H   0  0  0  0  0  0  0  0  0  0  0  0
    0.8820   -1.2220    0.2390 H   0  0  0  0  0  0  0  0  0  0  0  0
   -1.3630    3.1890   -0.8870 H   0  0  0  0  0  0  0  0  0  0  0  0
   -0.1360    5.2310   -0.1130 H   0  0  0  0  0  0  0  0  0  0  0  0
   -1.5150   -2.4980   -0.4090 N   0  0  0  0  0  0  0  0  0  0  0  0
   -2.4410   -3.5140   -0.8930 C   0  0  1  0  0  0  0  0  0  0  0  0
   -1.7450   -4.5860   -1.6730 C   0  0  0  0  0  0  0  0  0  0  0  0
   -1.0690   -3.9930   -2.8390 C   0  0  0  0  0  0  0  0  0  0  0  0
   -1.1230   -2.7600   -3.0630 O   0  0  0  0  0  0  0  0  0  0  0  0
   -3.0980   -4.1580    0.2830 C   0  0  0  0  0  0  0  0  0  0  0  0
   -3.9470   -5.0750    0.1500 O   0  0  0  0  0  0  0  0  0  0  0  0
   -0.3380   -4.7690   -3.7460 O   0  0  0  0  0  0  0  0  0  0  0  0
   -2.7890   -3.7610    1.5760 O   0  0  0  0  0  0  0  0  0  0  0  0
   -0.6550   -2.7510    0.1230 H   0  0  0  0  0  0  0  0  0  0  0  0
   -3.2510   -3.0820   -1.4910 H   0  0  0  0  0  0  0  0  0  0  0  0
   -2.5100   -5.2940   -2.0630 H   0  0  0  0  0  0  0  0  0  0  0  0
   -1.0470   -5.1650   -1.0260 H   0  0  0  0  0  0  0  0  0  0  0  0
    0.5220   -4.4010   -4.1620 H   0  0  0  0  0  0  0  0  0  0  0  0
  1  8  1  0  0  0  0
  1  2  1  0  0  0  0
  2 11  1  0  0  0  0
  2  3  1  0  0  0  0
  3 13  1  0  0  0  0
  3 14  1  0  0  0  0
  4 15  1  6  0  0  0
  4  2  1  0  0  0  0
  4  5  1  0  0  0  0
  5 16  1  0  0  0  0
  5 17  1  0  0  0  0
  6  7  2  0  0  0  0
  6  4  1  0  0  0  0
  9  1  1  0  0  0  0
 10  1  1  0  0  0  0
 12  3  1  0  0  0  0
 18 30  1  0  0  0  0
 19 18  1  0  0  0  0
 20 31  1  0  0  0  0
 20 19  2  0  0  0  0
 21 20  1  0  0  0  0
 22 21  2  0  0  0  0
 22 28  1  0  0  0  0
 23 22  1  0  0  0  0
 23 24  1  0  0  0  0
 24 35  1  1  0  0  0
 24 25  1  0  0  0  0
 25  6  1  0  0  0  0
 26 39  1  0  0  0  0
 26 24  1  0  0  0  0
 27 26  2  0  0  0  0
 28 29  2  0  0  0  0
 29 38  1  0  0  0  0
 29 19  1  0  0  0  0
 32 21  1  0  0  0  0
 33 23  1  0  0  0  0
 34 23  1  0  0  0  0
 36 25  1  0  0  0  0
 37 28  1  0  0  0  0
 39 48  1  0  0  0  0
 40 49  1  6  0  0  0
 40 39  1  0  0  0  0
 40 44  1  0  0  0  0
 41 51  1  0  0  0  0
 41 40  1  0  0  0  0
 42 41  1  0  0  0  0
 43 42  2  0  0  0  0
 44 47  1  0  0  0  0
 45 44  2  0  0  0  0
 46 42  1  0  0  0  0
 50 41  1  0  0  0  0
 52 46  1  0  0  0  0
M  END
$$$$
