VYE.pdb
 OpenBabel07022419283D

 55 55  0  0  1  0  0  0  0  0999 V2000
    0.0720   -0.5440    4.5910 C   0  0  0  0  0  0  0  0  0  0  0  0
    0.7760    0.7700    4.3100 C   0  0  0  0  0  0  0  0  0  0  0  0
    1.4450    1.2100    5.5930 C   0  0  0  0  0  0  0  0  0  0  0  0
   -0.1610    1.7930    3.7640 C   0  0  2  0  0  0  0  0  0  0  0  0
   -1.2600    2.1200    4.6400 N   0  0  0  0  0  0  0  0  0  0  0  0
   -0.7170    1.2980    2.4800 C   0  0  0  0  0  0  0  0  0  0  0  0
   -1.9590    1.2350    2.2650 O   0  0  0  0  0  0  0  0  0  0  0  0
   -0.7590   -0.6420    3.8530 H   0  0  0  0  0  0  0  0  0  0  0  0
    0.8080   -1.3840    4.4850 H   0  0  0  0  0  0  0  0  0  0  0  0
   -0.3950   -0.5430    5.5870 H   0  0  0  0  0  0  0  0  0  0  0  0
    1.5760    0.6070    3.5640 H   0  0  0  0  0  0  0  0  0  0  0  0
    1.6090    2.3080    5.5690 H   0  0  0  0  0  0  0  0  0  0  0  0
    2.4470    0.7380    5.6300 H   0  0  0  0  0  0  0  0  0  0  0  0
    0.8570    0.8660    6.4620 H   0  0  0  0  0  0  0  0  0  0  0  0
    0.4200    2.7460    3.6250 H   0  0  0  0  0  0  0  0  0  0  0  0
   -2.1860    1.8440    4.2590 H   0  0  0  0  0  0  0  0  0  0  0  0
   -1.1110    1.8170    5.6240 H   0  0  0  0  0  0  0  0  0  0  0  0
   -1.0020    0.3700   -6.2670 O   0  0  0  0  0  0  0  0  0  0  0  0
   -0.6650    0.5960   -4.9280 C   0  0  0  0  0  0  0  0  0  0  0  0
    0.4890    0.0980   -4.3760 C   0  0  0  0  0  0  0  0  0  0  0  0
    0.8080    0.3270   -3.0590 C   0  0  0  0  0  0  0  0  0  0  0  0
   -0.0230    1.0680   -2.2440 C   0  0  0  0  0  0  0  0  0  0  0  0
    0.2790    1.3360   -0.8430 C   0  0  0  0  0  0  0  0  0  0  0  0
   -0.3070    0.3790    0.1550 C   0  0  2  0  0  0  0  0  0  0  0  0
    0.1520    0.8840    1.4630 N   0  0  0  0  0  0  0  0  0  0  0  0
    0.1380   -1.0080    0.0630 C   0  0  0  0  0  0  0  0  0  0  0  0
    0.8940   -1.5000    0.9810 O   0  0  0  0  0  0  0  0  0  0  0  0
   -1.2030    1.5810   -2.8000 C   0  0  0  0  0  0  0  0  0  0  0  0
   -1.4910    1.3340   -4.1170 C   0  0  0  0  0  0  0  0  0  0  0  0
   -0.6080   -0.4240   -6.7180 H   0  0  0  0  0  0  0  0  0  0  0  0
    1.1520   -0.4840   -4.9990 H   0  0  0  0  0  0  0  0  0  0  0  0
    1.7180   -0.0660   -2.6190 H   0  0  0  0  0  0  0  0  0  0  0  0
   -0.0300    2.3630   -0.5310 H   0  0  0  0  0  0  0  0  0  0  0  0
    1.3910    1.2550   -0.7240 H   0  0  0  0  0  0  0  0  0  0  0  0
   -1.4160    0.4370    0.0930 H   0  0  0  0  0  0  0  0  0  0  0  0
    1.1830    0.9180    1.5970 H   0  0  0  0  0  0  0  0  0  0  0  0
   -1.8520    2.1630   -2.1520 H   0  0  0  0  0  0  0  0  0  0  0  0
   -2.4170    1.7340   -4.5560 H   0  0  0  0  0  0  0  0  0  0  0  0
   -0.1830   -1.9330   -0.9680 N   0  0  0  0  0  0  0  0  0  0  0  0
    0.3230   -3.3060   -0.9360 C   0  0  1  0  0  0  0  0  0  0  0  0
   -0.9060   -4.1930   -0.8220 C   0  0  0  0  0  0  0  0  0  0  0  0
   -1.6690   -3.8730    0.4240 C   0  0  0  0  0  0  0  0  0  0  0  0
   -0.9570   -4.0730    1.6810 C   0  0  0  0  0  0  0  0  0  0  0  0
   -1.4930   -3.7100    2.7790 O   0  0  0  0  0  0  0  0  0  0  0  0
    1.1110   -3.6600   -2.1280 C   0  0  0  0  0  0  0  0  0  0  0  0
    1.3020   -2.8480   -3.0520 O   0  0  0  0  0  0  0  0  0  0  0  0
    0.2940   -4.6460    1.7860 O   0  0  0  0  0  0  0  0  0  0  0  0
    1.6660   -4.9300   -2.2480 O   0  0  0  0  0  0  0  0  0  0  0  0
   -0.7920   -1.6180   -1.7410 H   0  0  0  0  0  0  0  0  0  0  0  0
    0.9580   -3.4570   -0.0430 H   0  0  0  0  0  0  0  0  0  0  0  0
   -0.5920   -5.2620   -0.8160 H   0  0  0  0  0  0  0  0  0  0  0  0
   -1.5880   -4.0110   -1.6790 H   0  0  0  0  0  0  0  0  0  0  0  0
   -2.6070   -4.4970    0.4830 H   0  0  0  0  0  0  0  0  0  0  0  0
   -2.0480   -2.8240    0.2990 H   0  0  0  0  0  0  0  0  0  0  0  0
    0.9860   -4.3280    2.4530 H   0  0  0  0  0  0  0  0  0  0  0  0
  1 10  1  0  0  0  0
  2  1  1  0  0  0  0
  2  3  1  0  0  0  0
  3 13  1  0  0  0  0
  3 14  1  0  0  0  0
  4 15  1  6  0  0  0
  4  2  1  0  0  0  0
  4  5  1  0  0  0  0
  5 17  1  0  0  0  0
  6  4  1  0  0  0  0
  7  6  2  0  0  0  0
  8  1  1  0  0  0  0
  9  1  1  0  0  0  0
 11  2  1  0  0  0  0
 12  3  1  0  0  0  0
 16  5  1  0  0  0  0
 18 19  1  0  0  0  0
 19 20  2  0  0  0  0
 19 29  1  0  0  0  0
 20 21  1  0  0  0  0
 21 32  1  0  0  0  0
 21 22  2  0  0  0  0
 22 23  1  0  0  0  0
 23 34  1  0  0  0  0
 23 33  1  0  0  0  0
 23 24  1  0  0  0  0
 24 35  1  6  0  0  0
 24 25  1  0  0  0  0
 25 36  1  0  0  0  0
 25  6  1  0  0  0  0
 26 24  1  0  0  0  0
 26 27  2  0  0  0  0
 28 22  1  0  0  0  0
 28 37  1  0  0  0  0
 29 28  2  0  0  0  0
 30 18  1  0  0  0  0
 31 20  1  0  0  0  0
 38 29  1  0  0  0  0
 39 40  1  0  0  0  0
 39 26  1  0  0  0  0
 40 41  1  0  0  0  0
 40 50  1  1  0  0  0
 41 51  1  0  0  0  0
 41 42  1  0  0  0  0
 42 53  1  0  0  0  0
 42 43  1  0  0  0  0
 43 47  1  0  0  0  0
 43 44  2  0  0  0  0
 45 40  1  0  0  0  0
 46 45  2  0  0  0  0
 47 55  1  0  0  0  0
 48 45  1  0  0  0  0
 49 39  1  0  0  0  0
 52 41  1  0  0  0  0
 54 42  1  0  0  0  0
M  END
$$$$
