VYF.pdb
 OpenBabel07022419283D

 59 60  0  0  1  0  0  0  0  0999 V2000
    0.0890   -0.3040    4.3710 C   0  0  0  0  0  0  0  0  0  0  0  0
    1.4740   -0.2730    3.7950 C   0  0  0  0  0  0  0  0  0  0  0  0
    1.8470   -1.6350    3.3040 C   0  0  0  0  0  0  0  0  0  0  0  0
    1.6680    0.8000    2.7480 C   0  0  2  0  0  0  0  0  0  0  0  0
    1.4310    2.1200    3.2690 N   0  0  0  0  0  0  0  0  0  0  0  0
    0.8440    0.6110    1.5370 C   0  0  0  0  0  0  0  0  0  0  0  0
    0.8790   -0.4630    0.9050 O   0  0  0  0  0  0  0  0  0  0  0  0
   -0.6240   -0.9160    3.7900 H   0  0  0  0  0  0  0  0  0  0  0  0
    0.1700   -0.8330    5.3670 H   0  0  0  0  0  0  0  0  0  0  0  0
   -0.3010    0.7030    4.6250 H   0  0  0  0  0  0  0  0  0  0  0  0
    2.1590   -0.0400    4.6640 H   0  0  0  0  0  0  0  0  0  0  0  0
    2.2650   -2.2090    4.1790 H   0  0  0  0  0  0  0  0  0  0  0  0
    0.9760   -2.2280    2.9560 H   0  0  0  0  0  0  0  0  0  0  0  0
    2.6490   -1.5530    2.5680 H   0  0  0  0  0  0  0  0  0  0  0  0
    2.7660    0.7620    2.4850 H   0  0  0  0  0  0  0  0  0  0  0  0
    2.1770    2.4250    3.9060 H   0  0  0  0  0  0  0  0  0  0  0  0
    0.4750    2.2830    3.6000 H   0  0  0  0  0  0  0  0  0  0  0  0
    4.1290   -1.3920   -2.7460 O   0  0  0  0  0  0  0  0  0  0  0  0
    3.0120   -0.6220   -2.4420 C   0  0  0  0  0  0  0  0  0  0  0  0
    3.2220    0.5410   -1.7350 C   0  0  0  0  0  0  0  0  0  0  0  0
    2.1730    1.3630   -1.3920 C   0  0  0  0  0  0  0  0  0  0  0  0
    0.8820    1.0010   -1.7730 C   0  0  0  0  0  0  0  0  0  0  0  0
   -0.2030    1.9110   -1.3920 C   0  0  0  0  0  0  0  0  0  0  0  0
   -0.8540    1.6180   -0.0710 C   0  0  2  0  0  0  0  0  0  0  0  0
   -0.0090    1.6480    1.0600 N   0  0  0  0  0  0  0  0  0  0  0  0
   -1.8330    0.5470   -0.1960 C   0  0  0  0  0  0  0  0  0  0  0  0
   -2.4670    0.5230   -1.3080 O   0  0  0  0  0  0  0  0  0  0  0  0
    0.6940   -0.1660   -2.4790 C   0  0  0  0  0  0  0  0  0  0  0  0
    1.7460   -0.9870   -2.8210 C   0  0  0  0  0  0  0  0  0  0  0  0
    5.0190   -0.9530   -2.9720 H   0  0  0  0  0  0  0  0  0  0  0  0
    4.2350    0.8240   -1.4370 H   0  0  0  0  0  0  0  0  0  0  0  0
    2.3630    2.2780   -0.8330 H   0  0  0  0  0  0  0  0  0  0  0  0
    0.0930    2.9830   -1.4570 H   0  0  0  0  0  0  0  0  0  0  0  0
   -1.0080    1.7850   -2.1770 H   0  0  0  0  0  0  0  0  0  0  0  0
   -1.5500    2.5590    0.0670 H   0  0  0  0  0  0  0  0  0  0  0  0
    0.0030    2.5540    1.6350 H   0  0  0  0  0  0  0  0  0  0  0  0
   -0.2900   -0.4600   -2.7790 H   0  0  0  0  0  0  0  0  0  0  0  0
    1.6500   -1.9050   -3.3720 H   0  0  0  0  0  0  0  0  0  0  0  0
   -2.1740   -0.4540    0.7410 N   0  0  0  0  0  0  0  0  0  0  0  0
   -3.1860   -1.4300    0.4450 C   0  0  1  0  0  0  0  0  0  0  0  0
   -2.7970   -2.8550    0.5220 C   0  0  0  0  0  0  0  0  0  0  0  0
   -1.7120   -3.2780   -0.3890 C   0  0  0  0  0  0  0  0  0  0  0  0
   -2.0120   -3.6930   -1.6710 C   0  0  0  0  0  0  0  0  0  0  0  0
   -1.0630   -4.1170   -2.5750 C   0  0  0  0  0  0  0  0  0  0  0  0
    0.2430   -4.1200   -2.1630 C   0  0  0  0  0  0  0  0  0  0  0  0
    0.5720   -3.7060   -0.8760 C   0  0  0  0  0  0  0  0  0  0  0  0
   -0.3990   -3.2940   -0.0110 C   0  0  0  0  0  0  0  0  0  0  0  0
   -4.3220   -1.2310    1.4000 C   0  0  0  0  0  0  0  0  0  0  0  0
   -4.2350   -0.3270    2.2420 O   0  0  0  0  0  0  0  0  0  0  0  0
   -5.4010   -2.0880    1.2660 O   0  0  0  0  0  0  0  0  0  0  0  0
   -1.6650   -0.4530    1.6810 H   0  0  0  0  0  0  0  0  0  0  0  0
   -3.5420   -1.2410   -0.6050 H   0  0  0  0  0  0  0  0  0  0  0  0
   -2.6030   -3.2130    1.5590 H   0  0  0  0  0  0  0  0  0  0  0  0
   -3.7060   -3.4510    0.2070 H   0  0  0  0  0  0  0  0  0  0  0  0
   -3.0370   -3.6860   -1.9830 H   0  0  0  0  0  0  0  0  0  0  0  0
   -1.3070   -4.4360   -3.5640 H   0  0  0  0  0  0  0  0  0  0  0  0
    1.0240   -4.4450   -2.8380 H   0  0  0  0  0  0  0  0  0  0  0  0
    1.6190   -3.7190   -0.5720 H   0  0  0  0  0  0  0  0  0  0  0  0
   -0.1780   -2.9690    1.0030 H   0  0  0  0  0  0  0  0  0  0  0  0
  1 10  1  0  0  0  0
  1  9  1  0  0  0  0
  2  1  1  0  0  0  0
  2 11  1  0  0  0  0
  3  2  1  0  0  0  0
  3 12  1  0  0  0  0
  4 15  1  6  0  0  0
  4  5  1  0  0  0  0
  4  2  1  0  0  0  0
  5 17  1  0  0  0  0
  5 16  1  0  0  0  0
  6  4  1  0  0  0  0
  7  6  2  0  0  0  0
  8  1  1  0  0  0  0
 13  3  1  0  0  0  0
 14  3  1  0  0  0  0
 18 19  1  0  0  0  0
 19 20  1  0  0  0  0
 20 31  1  0  0  0  0
 20 21  2  0  0  0  0
 21 32  1  0  0  0  0
 22 21  1  0  0  0  0
 22 23  1  0  0  0  0
 23 24  1  0  0  0  0
 24 35  1  1  0  0  0
 24 25  1  0  0  0  0
 25  6  1  0  0  0  0
 25 36  1  0  0  0  0
 26 24  1  0  0  0  0
 26 39  1  0  0  0  0
 27 26  2  0  0  0  0
 28 22  2  0  0  0  0
 29 28  1  0  0  0  0
 29 19  2  0  0  0  0
 30 18  1  0  0  0  0
 33 23  1  0  0  0  0
 34 23  1  0  0  0  0
 37 28  1  0  0  0  0
 38 29  1  0  0  0  0
 39 51  1  0  0  0  0
 40 52  1  6  0  0  0
 40 41  1  0  0  0  0
 40 39  1  0  0  0  0
 40 48  1  0  0  0  0
 41 53  1  0  0  0  0
 42 47  1  0  0  0  0
 42 41  1  0  0  0  0
 43 42  2  0  0  0  0
 44 45  2  0  0  0  0
 44 43  1  0  0  0  0
 45 46  1  0  0  0  0
 46 58  1  0  0  0  0
 46 47  2  0  0  0  0
 47 59  1  0  0  0  0
 48 49  1  0  0  0  0
 50 48  2  0  0  0  0
 54 41  1  0  0  0  0
 55 43  1  0  0  0  0
 56 44  1  0  0  0  0
 57 45  1  0  0  0  0
M  END
$$$$
