VYG.pdb
 OpenBabel07022419283D

 46 46  0  0  1  0  0  0  0  0999 V2000
    0.2270   -5.2110    1.5310 C   0  0  0  0  0  0  0  0  0  0  0  0
    0.7850   -3.8030    1.4690 C   0  0  0  0  0  0  0  0  0  0  0  0
    2.0270   -3.7770    2.3300 C   0  0  0  0  0  0  0  0  0  0  0  0
   -0.2920   -2.8790    1.9810 C   0  0  2  0  0  0  0  0  0  0  0  0
   -1.4360   -3.0390    1.1170 N   0  0  0  0  0  0  0  0  0  0  0  0
    0.1110   -1.4760    2.0180 C   0  0  0  0  0  0  0  0  0  0  0  0
    1.0910   -1.0520    2.7010 O   0  0  0  0  0  0  0  0  0  0  0  0
   -0.4070   -5.3350    2.4510 H   0  0  0  0  0  0  0  0  0  0  0  0
   -0.4780   -5.4010    0.6790 H   0  0  0  0  0  0  0  0  0  0  0  0
    1.0180   -5.9780    1.6000 H   0  0  0  0  0  0  0  0  0  0  0  0
    1.0580   -3.6110    0.4110 H   0  0  0  0  0  0  0  0  0  0  0  0
    1.8040   -4.0650    3.3670 H   0  0  0  0  0  0  0  0  0  0  0  0
    2.5600   -2.8290    2.3150 H   0  0  0  0  0  0  0  0  0  0  0  0
    2.6980   -4.5800    1.9260 H   0  0  0  0  0  0  0  0  0  0  0  0
   -0.5190   -3.2130    3.0180 H   0  0  0  0  0  0  0  0  0  0  0  0
   -2.2600   -2.4910    1.4380 H   0  0  0  0  0  0  0  0  0  0  0  0
   -1.1990   -2.7480    0.1480 H   0  0  0  0  0  0  0  0  0  0  0  0
    4.2540   -1.3190   -2.6840 O   0  0  0  0  0  0  0  0  0  0  0  0
    3.1820   -0.6620   -2.0610 C   0  0  0  0  0  0  0  0  0  0  0  0
    3.4250    0.4700   -1.3180 C   0  0  0  0  0  0  0  0  0  0  0  0
    2.3770    1.1060   -0.7130 C   0  0  0  0  0  0  0  0  0  0  0  0
    1.0800    0.6550   -0.8190 C   0  0  0  0  0  0  0  0  0  0  0  0
   -0.0020    1.4060   -0.1300 C   0  0  0  0  0  0  0  0  0  0  0  0
   -0.2310    0.9020    1.2780 C   0  0  2  0  0  0  0  0  0  0  0  0
   -0.6130   -0.5180    1.2610 N   0  0  0  0  0  0  0  0  0  0  0  0
   -1.3780    1.6690    1.8410 C   0  0  0  0  0  0  0  0  0  0  0  0
   -2.4490    1.0860    2.2080 O   0  0  0  0  0  0  0  0  0  0  0  0
    0.8530   -0.4720   -1.5610 C   0  0  0  0  0  0  0  0  0  0  0  0
    1.8890   -1.1200   -2.1720 C   0  0  0  0  0  0  0  0  0  0  0  0
    5.1130   -1.4060   -2.1250 H   0  0  0  0  0  0  0  0  0  0  0  0
    4.4620    0.8360   -1.2300 H   0  0  0  0  0  0  0  0  0  0  0  0
    2.6300    2.0060   -0.1330 H   0  0  0  0  0  0  0  0  0  0  0  0
   -0.9480    1.2730   -0.6850 H   0  0  0  0  0  0  0  0  0  0  0  0
    0.3250    2.4630   -0.0650 H   0  0  0  0  0  0  0  0  0  0  0  0
    0.6440    1.0370    1.9360 H   0  0  0  0  0  0  0  0  0  0  0  0
   -1.4280   -0.8060    0.6800 H   0  0  0  0  0  0  0  0  0  0  0  0
   -0.1420   -0.8510   -1.6640 H   0  0  0  0  0  0  0  0  0  0  0  0
    1.7510   -2.0270   -2.7760 H   0  0  0  0  0  0  0  0  0  0  0  0
   -1.3430    3.0780    2.0000 N   0  0  0  0  0  0  0  0  0  0  0  0
   -2.4320    3.8470    2.5390 C   0  0  0  0  0  0  0  0  0  0  0  0
   -3.6530    3.6850    1.7160 C   0  0  0  0  0  0  0  0  0  0  0  0
   -3.5920    2.9420    0.7070 O   0  0  0  0  0  0  0  0  0  0  0  0
   -4.8500    4.3170    2.0120 O   0  0  0  0  0  0  0  0  0  0  0  0
   -0.4800    3.5830    1.7090 H   0  0  0  0  0  0  0  0  0  0  0  0
   -2.6950    3.5510    3.5760 H   0  0  0  0  0  0  0  0  0  0  0  0
   -2.1960    4.9180    2.5560 H   0  0  0  0  0  0  0  0  0  0  0  0
  1 10  1  0  0  0  0
  1  8  1  0  0  0  0
  2  1  1  0  0  0  0
  2  4  1  0  0  0  0
  2  3  1  0  0  0  0
  3 12  1  0  0  0  0
  4  6  1  0  0  0  0
  4 15  1  1  0  0  0
  5 16  1  0  0  0  0
  5  4  1  0  0  0  0
  6  7  2  0  0  0  0
  9  1  1  0  0  0  0
 11  2  1  0  0  0  0
 13  3  1  0  0  0  0
 14  3  1  0  0  0  0
 17  5  1  0  0  0  0
 18 30  1  0  0  0  0
 18 19  1  0  0  0  0
 19 20  1  0  0  0  0
 20 31  1  0  0  0  0
 20 21  2  0  0  0  0
 21 32  1  0  0  0  0
 22 21  1  0  0  0  0
 22 23  1  0  0  0  0
 23 34  1  0  0  0  0
 23 24  1  0  0  0  0
 24 26  1  0  0  0  0
 24 35  1  1  0  0  0
 25 24  1  0  0  0  0
 25  6  1  0  0  0  0
 26 39  1  0  0  0  0
 26 27  2  0  0  0  0
 28 22  2  0  0  0  0
 29 19  2  0  0  0  0
 29 28  1  0  0  0  0
 33 23  1  0  0  0  0
 36 25  1  0  0  0  0
 37 28  1  0  0  0  0
 38 29  1  0  0  0  0
 39 40  1  0  0  0  0
 40 46  1  0  0  0  0
 40 45  1  0  0  0  0
 41 43  1  0  0  0  0
 41 40  1  0  0  0  0
 42 41  2  0  0  0  0
 44 39  1  0  0  0  0
M  END
$$$$
