VYH.pdb
 OpenBabel07022419283D

 56 57  0  0  1  0  0  0  0  0999 V2000
    0.7840   -1.5790    3.4880 C   0  0  0  0  0  0  0  0  0  0  0  0
    1.8350   -1.3910    2.4080 C   0  0  0  0  0  0  0  0  0  0  0  0
    2.8880   -2.4670    2.5100 C   0  0  0  0  0  0  0  0  0  0  0  0
    2.4350   -0.0050    2.4700 C   0  0  2  0  0  0  0  0  0  0  0  0
    3.0700    0.2770    3.7140 N   0  0  0  0  0  0  0  0  0  0  0  0
    1.3420    0.9770    2.1730 C   0  0  0  0  0  0  0  0  0  0  0  0
    1.0500    1.9160    2.9600 O   0  0  0  0  0  0  0  0  0  0  0  0
    0.2200   -0.6330    3.6680 H   0  0  0  0  0  0  0  0  0  0  0  0
    1.2870   -1.8560    4.4400 H   0  0  0  0  0  0  0  0  0  0  0  0
    0.0640   -2.3670    3.2450 H   0  0  0  0  0  0  0  0  0  0  0  0
    1.3330   -1.5300    1.4300 H   0  0  0  0  0  0  0  0  0  0  0  0
    3.8210   -2.0540    2.0680 H   0  0  0  0  0  0  0  0  0  0  0  0
    2.5780   -3.3980    1.9520 H   0  0  0  0  0  0  0  0  0  0  0  0
    3.0400   -2.7930    3.5520 H   0  0  0  0  0  0  0  0  0  0  0  0
    3.1650    0.0780    1.6400 H   0  0  0  0  0  0  0  0  0  0  0  0
    3.2850   -0.5650    4.2860 H   0  0  0  0  0  0  0  0  0  0  0  0
    3.8400    0.9610    3.6660 H   0  0  0  0  0  0  0  0  0  0  0  0
    0.7200   -0.9840   -5.0300 O   0  0  0  0  0  0  0  0  0  0  0  0
    0.5520   -0.1200   -3.9480 C   0  0  0  0  0  0  0  0  0  0  0  0
    1.5990    0.2550   -3.1370 C   0  0  0  0  0  0  0  0  0  0  0  0
    1.3910    1.1090   -2.0810 C   0  0  0  0  0  0  0  0  0  0  0  0
    0.1110    1.6060   -1.8200 C   0  0  0  0  0  0  0  0  0  0  0  0
   -0.1320    2.5340   -0.6790 C   0  0  0  0  0  0  0  0  0  0  0  0
   -0.4730    1.7580    0.5950 C   0  0  2  0  0  0  0  0  0  0  0  0
    0.5920    0.8710    0.9730 N   0  0  0  0  0  0  0  0  0  0  0  0
   -1.7720    1.0750    0.4520 C   0  0  0  0  0  0  0  0  0  0  0  0
   -2.7970    1.7280    0.1310 O   0  0  0  0  0  0  0  0  0  0  0  0
   -0.9020    1.2060   -2.6520 C   0  0  0  0  0  0  0  0  0  0  0  0
   -0.7400    0.3530   -3.7220 C   0  0  0  0  0  0  0  0  0  0  0  0
    1.1060   -1.9150   -4.9360 H   0  0  0  0  0  0  0  0  0  0  0  0
    2.5760   -0.1340   -3.3500 H   0  0  0  0  0  0  0  0  0  0  0  0
    2.1770    1.4300   -1.4190 H   0  0  0  0  0  0  0  0  0  0  0  0
    0.7460    3.1670   -0.5210 H   0  0  0  0  0  0  0  0  0  0  0  0
   -0.9800    3.1920   -0.9190 H   0  0  0  0  0  0  0  0  0  0  0  0
   -0.5800    2.5080    1.4040 H   0  0  0  0  0  0  0  0  0  0  0  0
    0.8260    0.0970    0.3130 H   0  0  0  0  0  0  0  0  0  0  0  0
   -1.9140    1.5870   -2.4630 H   0  0  0  0  0  0  0  0  0  0  0  0
   -1.5620    0.0630   -4.3530 H   0  0  0  0  0  0  0  0  0  0  0  0
   -1.9440   -0.3220    0.6590 N   0  0  0  0  0  0  0  0  0  0  0  0
   -3.2050   -1.0020    0.5230 C   0  0  1  0  0  0  0  0  0  0  0  0
   -3.2000   -1.9970   -0.6170 C   0  0  0  0  0  0  0  0  0  0  0  0
   -2.1930   -3.0500   -0.4710 C   0  0  0  0  0  0  0  0  0  0  0  0
   -0.8980   -3.0030   -0.9370 C   0  0  0  0  0  0  0  0  0  0  0  0
   -0.2680   -4.1460   -0.6200 N   0  0  0  0  0  0  0  0  0  0  0  0
   -1.1590   -4.9060    0.0400 C   0  0  0  0  0  0  0  0  0  0  0  0
   -2.3280   -4.2430    0.1320 N   0  0  0  0  0  0  0  0  0  0  0  0
   -3.6530   -1.6120    1.7940 C   0  0  0  0  0  0  0  0  0  0  0  0
   -4.7330   -2.2460    1.8600 O   0  0  0  0  0  0  0  0  0  0  0  0
   -2.8910   -1.4980    2.9450 O   0  0  0  0  0  0  0  0  0  0  0  0
   -1.1090   -0.8870    0.9260 H   0  0  0  0  0  0  0  0  0  0  0  0
   -3.9670   -0.2210    0.2340 H   0  0  0  0  0  0  0  0  0  0  0  0
   -3.0850   -1.4090   -1.5640 H   0  0  0  0  0  0  0  0  0  0  0  0
   -4.1940   -2.4670   -0.6390 H   0  0  0  0  0  0  0  0  0  0  0  0
   -0.4130   -2.1840   -1.4860 H   0  0  0  0  0  0  0  0  0  0  0  0
    0.7370   -4.4130   -0.8410 H   0  0  0  0  0  0  0  0  0  0  0  0
   -0.9380   -5.9080    0.4320 H   0  0  0  0  0  0  0  0  0  0  0  0
  1  8  1  0  0  0  0
  1  9  1  0  0  0  0
  2  4  1  0  0  0  0
  2  3  1  0  0  0  0
  2  1  1  0  0  0  0
  3 14  1  0  0  0  0
  4 15  1  6  0  0  0
  4  5  1  0  0  0  0
  5 16  1  0  0  0  0
  6  4  1  0  0  0  0
  6  7  2  0  0  0  0
 10  1  1  0  0  0  0
 11  2  1  0  0  0  0
 12  3  1  0  0  0  0
 13  3  1  0  0  0  0
 17  5  1  0  0  0  0
 18 30  1  0  0  0  0
 18 19  1  0  0  0  0
 19 29  2  0  0  0  0
 19 20  1  0  0  0  0
 20 21  2  0  0  0  0
 21 22  1  0  0  0  0
 21 32  1  0  0  0  0
 22 23  1  0  0  0  0
 23 33  1  0  0  0  0
 23 24  1  0  0  0  0
 24 25  1  0  0  0  0
 24 35  1  1  0  0  0
 25  6  1  0  0  0  0
 26 24  1  0  0  0  0
 26 39  1  0  0  0  0
 27 26  2  0  0  0  0
 28 37  1  0  0  0  0
 28 22  2  0  0  0  0
 29 28  1  0  0  0  0
 31 20  1  0  0  0  0
 34 23  1  0  0  0  0
 36 25  1  0  0  0  0
 38 29  1  0  0  0  0
 39 50  1  0  0  0  0
 40 51  1  6  0  0  0
 40 39  1  0  0  0  0
 40 47  1  0  0  0  0
 41 42  1  0  0  0  0
 41 40  1  0  0  0  0
 42 46  1  0  0  0  0
 43 44  1  0  0  0  0
 43 42  2  0  0  0  0
 44 45  1  0  0  0  0
 45 46  2  0  0  0  0
 45 56  1  0  0  0  0
 47 48  2  0  0  0  0
 47 49  1  0  0  0  0
 52 41  1  0  0  0  0
 53 41  1  0  0  0  0
 54 43  1  0  0  0  0
 55 44  1  0  0  0  0
M  END
$$$$
