VYI.pdb
 OpenBabel07022419283D

 58 58  0  0  1  0  0  0  0  0999 V2000
   -0.6240   -0.3990    5.4300 C   0  0  0  0  0  0  0  0  0  0  0  0
    0.7480    0.1540    5.1160 C   0  0  0  0  0  0  0  0  0  0  0  0
    0.6990    1.6340    4.8430 C   0  0  0  0  0  0  0  0  0  0  0  0
    1.4600   -0.6320    4.0630 C   0  0  2  0  0  0  0  0  0  0  0  0
    2.7460   -0.0680    3.8070 N   0  0  0  0  0  0  0  0  0  0  0  0
    0.6990   -0.8330    2.8300 C   0  0  0  0  0  0  0  0  0  0  0  0
   -0.4680   -1.3280    2.9450 O   0  0  0  0  0  0  0  0  0  0  0  0
   -0.8880   -0.2310    6.5160 H   0  0  0  0  0  0  0  0  0  0  0  0
   -0.6980   -1.4780    5.2710 H   0  0  0  0  0  0  0  0  0  0  0  0
   -1.3950    0.1790    4.8630 H   0  0  0  0  0  0  0  0  0  0  0  0
    1.3470    0.0250    6.0660 H   0  0  0  0  0  0  0  0  0  0  0  0
   -0.3680    1.9950    4.7580 H   0  0  0  0  0  0  0  0  0  0  0  0
    1.2680    1.9470    3.9590 H   0  0  0  0  0  0  0  0  0  0  0  0
    1.1070    2.2380    5.7070 H   0  0  0  0  0  0  0  0  0  0  0  0
    1.6400   -1.6580    4.5010 H   0  0  0  0  0  0  0  0  0  0  0  0
    3.5140   -0.7390    3.7110 H   0  0  0  0  0  0  0  0  0  0  0  0
    2.7600    0.7400    3.1680 H   0  0  0  0  0  0  0  0  0  0  0  0
   -2.8610    3.9900    2.9970 O   0  0  0  0  0  0  0  0  0  0  0  0
   -2.1650    3.1380    2.1600 C   0  0  0  0  0  0  0  0  0  0  0  0
   -2.8430    2.2370    1.3380 C   0  0  0  0  0  0  0  0  0  0  0  0
   -2.1640    1.3780    0.4970 C   0  0  0  0  0  0  0  0  0  0  0  0
   -0.7880    1.4590    0.5140 C   0  0  0  0  0  0  0  0  0  0  0  0
    0.0190    0.5710   -0.3610 C   0  0  0  0  0  0  0  0  0  0  0  0
    0.3730   -0.7380    0.3270 C   0  0  2  0  0  0  0  0  0  0  0  0
    1.1390   -0.5300    1.5250 N   0  0  0  0  0  0  0  0  0  0  0  0
    1.0260   -1.6110   -0.6500 C   0  0  0  0  0  0  0  0  0  0  0  0
    2.1470   -2.0990   -0.4040 O   0  0  0  0  0  0  0  0  0  0  0  0
   -0.1010    2.3430    1.3200 C   0  0  0  0  0  0  0  0  0  0  0  0
   -0.8010    3.1940    2.1540 C   0  0  0  0  0  0  0  0  0  0  0  0
   -3.2040    4.8750    2.6440 H   0  0  0  0  0  0  0  0  0  0  0  0
   -3.9110    2.2200    1.3690 H   0  0  0  0  0  0  0  0  0  0  0  0
   -2.7160    0.6900   -0.1300 H   0  0  0  0  0  0  0  0  0  0  0  0
   -0.6180    0.3190   -1.2350 H   0  0  0  0  0  0  0  0  0  0  0  0
    0.9280    1.1000   -0.7150 H   0  0  0  0  0  0  0  0  0  0  0  0
   -0.6150   -1.1730    0.6610 H   0  0  0  0  0  0  0  0  0  0  0  0
    2.0980   -0.1240    1.4300 H   0  0  0  0  0  0  0  0  0  0  0  0
    0.9760    2.4110    1.3370 H   0  0  0  0  0  0  0  0  0  0  0  0
   -0.2830    3.8930    2.7920 H   0  0  0  0  0  0  0  0  0  0  0  0
   -1.3730   -3.3370   -4.7300 C   0  0  0  0  0  0  0  0  0  0  0  0
   -1.0780   -4.0220   -3.4380 C   0  0  0  0  0  0  0  0  0  0  0  0
    0.3350   -4.0880   -3.0120 C   0  0  2  0  0  0  0  0  0  0  0  0
    0.3450   -4.8480   -1.6680 C   0  0  0  0  0  0  0  0  0  0  0  0
    1.0490   -2.7770   -2.8410 C   0  0  2  0  0  0  0  0  0  0  0  0
    0.4190   -1.9230   -1.8770 N   0  0  0  0  0  0  0  0  0  0  0  0
    1.2960   -2.1470   -4.1410 C   0  0  0  0  0  0  0  0  0  0  0  0
    0.9620   -0.9630   -4.3860 O   0  0  0  0  0  0  0  0  0  0  0  0
    1.9200   -2.8660   -5.1480 O   0  0  0  0  0  0  0  0  0  0  0  0
   -1.4050   -2.2520   -4.6240 H   0  0  0  0  0  0  0  0  0  0  0  0
   -0.6480   -3.5960   -5.5250 H   0  0  0  0  0  0  0  0  0  0  0  0
   -2.4230   -3.6090   -5.0840 H   0  0  0  0  0  0  0  0  0  0  0  0
   -1.4220   -5.0940   -3.5770 H   0  0  0  0  0  0  0  0  0  0  0  0
   -1.7580   -3.6560   -2.6170 H   0  0  0  0  0  0  0  0  0  0  0  0
    0.8790   -4.7640   -3.7080 H   0  0  0  0  0  0  0  0  0  0  0  0
    1.3580   -5.1990   -1.4370 H   0  0  0  0  0  0  0  0  0  0  0  0
   -0.0390   -4.1130   -0.9190 H   0  0  0  0  0  0  0  0  0  0  0  0
   -0.3440   -5.7070   -1.7860 H   0  0  0  0  0  0  0  0  0  0  0  0
    2.0510   -3.0750   -2.3600 H   0  0  0  0  0  0  0  0  0  0  0  0
   -0.5360   -1.5430   -2.1550 H   0  0  0  0  0  0  0  0  0  0  0  0
  1  8  1  0  0  0  0
  2  1  1  0  0  0  0
  2 11  1  0  0  0  0
  3  2  1  0  0  0  0
  3 14  1  0  0  0  0
  4 15  1  1  0  0  0
  4  2  1  0  0  0  0
  5  4  1  0  0  0  0
  6  7  2  0  0  0  0
  6  4  1  0  0  0  0
  9  1  1  0  0  0  0
 10  1  1  0  0  0  0
 12  3  1  0  0  0  0
 13  3  1  0  0  0  0
 16  5  1  0  0  0  0
 17  5  1  0  0  0  0
 19 18  1  0  0  0  0
 20 31  1  0  0  0  0
 20 19  2  0  0  0  0
 21 22  2  0  0  0  0
 21 20  1  0  0  0  0
 22 28  1  0  0  0  0
 23 24  1  0  0  0  0
 23 22  1  0  0  0  0
 24 35  1  1  0  0  0
 24 25  1  0  0  0  0
 25  6  1  0  0  0  0
 26 27  2  0  0  0  0
 26 24  1  0  0  0  0
 28 37  1  0  0  0  0
 28 29  2  0  0  0  0
 29 19  1  0  0  0  0
 29 38  1  0  0  0  0
 30 18  1  0  0  0  0
 32 21  1  0  0  0  0
 33 23  1  0  0  0  0
 34 23  1  0  0  0  0
 36 25  1  0  0  0  0
 39 48  1  0  0  0  0
 39 40  1  0  0  0  0
 40 41  1  0  0  0  0
 40 52  1  0  0  0  0
 41 53  1  6  0  0  0
 41 43  1  0  0  0  0
 41 42  1  0  0  0  0
 42 54  1  0  0  0  0
 42 55  1  0  0  0  0
 43 57  1  1  0  0  0
 43 44  1  0  0  0  0
 44 26  1  0  0  0  0
 45 43  1  0  0  0  0
 46 45  1  0  0  0  0
 47 45  2  0  0  0  0
 49 39  1  0  0  0  0
 50 39  1  0  0  0  0
 51 40  1  0  0  0  0
 56 42  1  0  0  0  0
 58 44  1  0  0  0  0
M  END
$$$$
