VYK.pdb
 OpenBabel07022419283D

 60 60  0  0  1  0  0  0  0  0999 V2000
    0.9430   -2.4300    3.0990 C   0  0  0  0  0  0  0  0  0  0  0  0
    2.0130   -2.4810    2.0350 C   0  0  0  0  0  0  0  0  0  0  0  0
    3.1350   -3.3560    2.5420 C   0  0  0  0  0  0  0  0  0  0  0  0
    2.5080   -1.0780    1.7450 C   0  0  2  0  0  0  0  0  0  0  0  0
    3.0520   -0.4810    2.9090 N   0  0  0  0  0  0  0  0  0  0  0  0
    1.4590   -0.2860    1.0580 C   0  0  0  0  0  0  0  0  0  0  0  0
    0.9700   -0.7860    0.0340 O   0  0  0  0  0  0  0  0  0  0  0  0
    1.3370   -2.8440    4.0460 H   0  0  0  0  0  0  0  0  0  0  0  0
    0.6810   -1.3710    3.3040 H   0  0  0  0  0  0  0  0  0  0  0  0
    0.0240   -2.9920    2.7870 H   0  0  0  0  0  0  0  0  0  0  0  0
    1.5400   -2.9230    1.1220 H   0  0  0  0  0  0  0  0  0  0  0  0
    3.2020   -3.1980    3.6450 H   0  0  0  0  0  0  0  0  0  0  0  0
    4.0980   -3.1420    2.0360 H   0  0  0  0  0  0  0  0  0  0  0  0
    2.8180   -4.4130    2.4100 H   0  0  0  0  0  0  0  0  0  0  0  0
    3.3420   -1.2020    0.9950 H   0  0  0  0  0  0  0  0  0  0  0  0
    2.5400   -0.6630    3.7880 H   0  0  0  0  0  0  0  0  0  0  0  0
    4.0870   -0.5600    2.9990 H   0  0  0  0  0  0  0  0  0  0  0  0
    2.4730   -0.5020   -4.7270 O   0  0  0  0  0  0  0  0  0  0  0  0
    1.9450    0.2320   -3.6510 C   0  0  0  0  0  0  0  0  0  0  0  0
    2.7780    0.8020   -2.7360 C   0  0  0  0  0  0  0  0  0  0  0  0
    2.2370    1.5170   -1.6890 C   0  0  0  0  0  0  0  0  0  0  0  0
    0.8850    1.6880   -1.5150 C   0  0  0  0  0  0  0  0  0  0  0  0
    0.3990    2.4520   -0.3910 C   0  0  0  0  0  0  0  0  0  0  0  0
    0.0050    1.7470    0.8620 C   0  0  2  0  0  0  0  0  0  0  0  0
    1.0130    0.9730    1.5110 N   0  0  0  0  0  0  0  0  0  0  0  0
   -1.3690    1.2330    0.9070 C   0  0  0  0  0  0  0  0  0  0  0  0
   -2.3220    1.9470    0.4100 O   0  0  0  0  0  0  0  0  0  0  0  0
    0.0560    1.1110   -2.4410 C   0  0  0  0  0  0  0  0  0  0  0  0
    0.5740    0.3870   -3.5030 C   0  0  0  0  0  0  0  0  0  0  0  0
    1.9300   -0.6990   -5.5580 H   0  0  0  0  0  0  0  0  0  0  0  0
    3.8690    0.6980   -2.8240 H   0  0  0  0  0  0  0  0  0  0  0  0
    2.9600    1.9500   -0.9880 H   0  0  0  0  0  0  0  0  0  0  0  0
    1.1490    3.2570   -0.0970 H   0  0  0  0  0  0  0  0  0  0  0  0
   -0.4600    3.0830   -0.7800 H   0  0  0  0  0  0  0  0  0  0  0  0
   -0.0910    2.6710    1.6020 H   0  0  0  0  0  0  0  0  0  0  0  0
    1.5010    1.3300    2.4160 H   0  0  0  0  0  0  0  0  0  0  0  0
   -1.0230    1.1820   -2.4010 H   0  0  0  0  0  0  0  0  0  0  0  0
   -0.0900   -0.0650   -4.2290 H   0  0  0  0  0  0  0  0  0  0  0  0
   -1.7970    0.0050    1.4570 N   0  0  0  0  0  0  0  0  0  0  0  0
   -3.1610   -0.3960    1.5050 C   0  0  1  0  0  0  0  0  0  0  0  0
   -3.5860   -1.6330    0.8580 C   0  0  0  0  0  0  0  0  0  0  0  0
   -3.4200   -1.8000   -0.6030 C   0  0  0  0  0  0  0  0  0  0  0  0
   -2.0480   -1.8130   -1.1560 C   0  0  0  0  0  0  0  0  0  0  0  0
   -1.2110   -2.9550   -0.6070 C   0  0  0  0  0  0  0  0  0  0  0  0
   -1.8120   -4.2420   -0.9210 N   0  0  0  0  0  0  0  0  0  0  0  0
   -3.6610   -0.3980    2.9350 C   0  0  0  0  0  0  0  0  0  0  0  0
   -4.8510   -0.7300    3.1530 O   0  0  0  0  0  0  0  0  0  0  0  0
   -2.8630   -0.0520    4.0050 O   0  0  0  0  0  0  0  0  0  0  0  0
   -1.0730   -0.6340    1.8470 H   0  0  0  0  0  0  0  0  0  0  0  0
   -3.7470    0.4500    1.0060 H   0  0  0  0  0  0  0  0  0  0  0  0
   -3.2150   -2.5610    1.4140 H   0  0  0  0  0  0  0  0  0  0  0  0
   -4.7120   -1.7230    1.0450 H   0  0  0  0  0  0  0  0  0  0  0  0
   -3.9600   -0.9350   -1.0920 H   0  0  0  0  0  0  0  0  0  0  0  0
   -3.9640   -2.6910   -1.0030 H   0  0  0  0  0  0  0  0  0  0  0  0
   -1.5060   -0.8840   -1.0260 H   0  0  0  0  0  0  0  0  0  0  0  0
   -2.1350   -1.9860   -2.2610 H   0  0  0  0  0  0  0  0  0  0  0  0
   -0.2430   -2.9390   -1.1550 H   0  0  0  0  0  0  0  0  0  0  0  0
   -0.9910   -2.8610    0.4610 H   0  0  0  0  0  0  0  0  0  0  0  0
   -1.2810   -5.0290   -0.5300 H   0  0  0  0  0  0  0  0  0  0  0  0
   -2.7910   -4.3080   -0.5590 H   0  0  0  0  0  0  0  0  0  0  0  0
  1  9  1  0  0  0  0
  1  8  1  0  0  0  0
  2  3  1  0  0  0  0
  2  1  1  0  0  0  0
  3 12  1  0  0  0  0
  4 15  1  6  0  0  0
  4  2  1  0  0  0  0
  4  5  1  0  0  0  0
  5 17  1  0  0  0  0
  5 16  1  0  0  0  0
  6 25  1  0  0  0  0
  6  4  1  0  0  0  0
  7  6  2  0  0  0  0
 10  1  1  0  0  0  0
 11  2  1  0  0  0  0
 13  3  1  0  0  0  0
 14  3  1  0  0  0  0
 18 19  1  0  0  0  0
 19 29  2  0  0  0  0
 19 20  1  0  0  0  0
 20 21  2  0  0  0  0
 21 22  1  0  0  0  0
 21 32  1  0  0  0  0
 22 23  1  0  0  0  0
 23 33  1  0  0  0  0
 23 24  1  0  0  0  0
 24 26  1  0  0  0  0
 24 25  1  0  0  0  0
 24 35  1  1  0  0  0
 25 36  1  0  0  0  0
 26 39  1  0  0  0  0
 27 26  2  0  0  0  0
 28 37  1  0  0  0  0
 28 22  2  0  0  0  0
 29 28  1  0  0  0  0
 30 18  1  0  0  0  0
 31 20  1  0  0  0  0
 34 23  1  0  0  0  0
 38 29  1  0  0  0  0
 39 40  1  0  0  0  0
 39 49  1  0  0  0  0
 40 50  1  6  0  0  0
 40 46  1  0  0  0  0
 41 52  1  0  0  0  0
 41 51  1  0  0  0  0
 41 40  1  0  0  0  0
 42 41  1  0  0  0  0
 43 55  1  0  0  0  0
 43 44  1  0  0  0  0
 43 42  1  0  0  0  0
 44 58  1  0  0  0  0
 45 44  1  0  0  0  0
 45 60  1  0  0  0  0
 45 59  1  0  0  0  0
 46 47  2  0  0  0  0
 46 48  1  0  0  0  0
 53 42  1  0  0  0  0
 54 42  1  0  0  0  0
 56 43  1  0  0  0  0
 57 44  1  0  0  0  0
M  END
$$$$
