VYN.pdb
 OpenBabel07022419283D

 53 53  0  0  1  0  0  0  0  0999 V2000
    1.7200   -3.7370    1.7340 C   0  0  0  0  0  0  0  0  0  0  0  0
    2.6880   -3.1970    2.7240 C   0  0  0  0  0  0  0  0  0  0  0  0
    2.0370   -2.9780    4.0760 C   0  0  0  0  0  0  0  0  0  0  0  0
    3.2540   -1.8510    2.3020 C   0  0  2  0  0  0  0  0  0  0  0  0
    4.1770   -1.4910    3.3900 N   0  0  0  0  0  0  0  0  0  0  0  0
    2.2410   -0.8080    2.1160 C   0  0  0  0  0  0  0  0  0  0  0  0
    2.0460    0.1100    2.9890 O   0  0  0  0  0  0  0  0  0  0  0  0
    0.7230   -3.2790    1.8840 H   0  0  0  0  0  0  0  0  0  0  0  0
    1.6070   -4.8460    1.9100 H   0  0  0  0  0  0  0  0  0  0  0  0
    2.0950   -3.6300    0.7160 H   0  0  0  0  0  0  0  0  0  0  0  0
    3.5430   -3.8950    2.8830 H   0  0  0  0  0  0  0  0  0  0  0  0
    2.7400   -2.3740    4.6870 H   0  0  0  0  0  0  0  0  0  0  0  0
    1.8510   -3.9480    4.6020 H   0  0  0  0  0  0  0  0  0  0  0  0
    1.0810   -2.4350    3.9660 H   0  0  0  0  0  0  0  0  0  0  0  0
    3.8490   -1.9630    1.3900 H   0  0  0  0  0  0  0  0  0  0  0  0
    4.8320   -0.7360    3.0840 H   0  0  0  0  0  0  0  0  0  0  0  0
    4.6480   -2.3260    3.7660 H   0  0  0  0  0  0  0  0  0  0  0  0
   -2.4110    5.7980   -1.1330 O   0  0  0  0  0  0  0  0  0  0  0  0
   -1.5710    4.7020   -0.8880 C   0  0  0  0  0  0  0  0  0  0  0  0
   -0.6550    4.7270    0.1410 C   0  0  0  0  0  0  0  0  0  0  0  0
    0.1770    3.6590    0.3940 C   0  0  0  0  0  0  0  0  0  0  0  0
    0.1270    2.5090   -0.3790 C   0  0  0  0  0  0  0  0  0  0  0  0
    1.0110    1.3470   -0.1300 C   0  0  0  0  0  0  0  0  0  0  0  0
    0.4100    0.3530    0.8480 C   0  0  2  0  0  0  0  0  0  0  0  0
    1.4060   -0.7230    0.9740 N   0  0  0  0  0  0  0  0  0  0  0  0
   -0.8460   -0.2130    0.4090 C   0  0  0  0  0  0  0  0  0  0  0  0
   -1.8280    0.6100    0.3260 O   0  0  0  0  0  0  0  0  0  0  0  0
   -0.8030    2.5040   -1.4110 C   0  0  0  0  0  0  0  0  0  0  0  0
   -1.6310    3.5640   -1.6650 C   0  0  0  0  0  0  0  0  0  0  0  0
   -2.0070    6.7240   -0.9480 H   0  0  0  0  0  0  0  0  0  0  0  0
   -0.6080    5.6170    0.7490 H   0  0  0  0  0  0  0  0  0  0  0  0
    0.9030    3.6910    1.2180 H   0  0  0  0  0  0  0  0  0  0  0  0
    1.9190    1.7570    0.3870 H   0  0  0  0  0  0  0  0  0  0  0  0
    1.3850    0.8710   -1.0510 H   0  0  0  0  0  0  0  0  0  0  0  0
    0.3300    0.8930    1.8110 H   0  0  0  0  0  0  0  0  0  0  0  0
    1.4690   -1.4080    0.1940 H   0  0  0  0  0  0  0  0  0  0  0  0
   -0.8680    1.6240   -2.0360 H   0  0  0  0  0  0  0  0  0  0  0  0
   -2.3460    3.5370   -2.4730 H   0  0  0  0  0  0  0  0  0  0  0  0
   -3.5120   -3.6260   -3.6660 N   0  0  0  0  0  0  0  0  0  0  0  0
   -3.5740   -3.0200   -2.3870 C   0  0  0  0  0  0  0  0  0  0  0  0
   -4.6770   -2.9080   -1.8260 O   0  0  0  0  0  0  0  0  0  0  0  0
   -2.3470   -2.5400   -1.7570 C   0  0  0  0  0  0  0  0  0  0  0  0
   -2.4870   -1.9790   -0.3750 C   0  0  2  0  0  0  0  0  0  0  0  0
   -1.1460   -1.5320    0.0590 N   0  0  0  0  0  0  0  0  0  0  0  0
   -2.8960   -3.0730    0.5370 C   0  0  0  0  0  0  0  0  0  0  0  0
   -3.9700   -3.6920    0.5040 O   0  0  0  0  0  0  0  0  0  0  0  0
   -1.9970   -3.4560    1.5350 O   0  0  0  0  0  0  0  0  0  0  0  0
   -4.2110   -3.4330   -4.4240 H   0  0  0  0  0  0  0  0  0  0  0  0
   -2.7550   -4.3160   -3.9420 H   0  0  0  0  0  0  0  0  0  0  0  0
   -1.9410   -1.7290   -2.4280 H   0  0  0  0  0  0  0  0  0  0  0  0
   -1.5400   -3.3270   -1.8070 H   0  0  0  0  0  0  0  0  0  0  0  0
   -3.1880   -1.1320   -0.3860 H   0  0  0  0  0  0  0  0  0  0  0  0
   -0.3960   -2.2340    0.0990 H   0  0  0  0  0  0  0  0  0  0  0  0
  1  8  1  0  0  0  0
  1  9  1  0  0  0  0
  1  2  1  0  0  0  0
  2 11  1  0  0  0  0
  2  3  1  0  0  0  0
  3 13  1  0  0  0  0
  3 12  1  0  0  0  0
  4 15  1  6  0  0  0
  4  2  1  0  0  0  0
  4  5  1  0  0  0  0
  5 17  1  0  0  0  0
  6  4  1  0  0  0  0
  6  7  2  0  0  0  0
 10  1  1  0  0  0  0
 14  3  1  0  0  0  0
 16  5  1  0  0  0  0
 18 30  1  0  0  0  0
 18 19  1  0  0  0  0
 19 20  1  0  0  0  0
 20 21  2  0  0  0  0
 20 31  1  0  0  0  0
 21 32  1  0  0  0  0
 22 23  1  0  0  0  0
 22 21  1  0  0  0  0
 23 33  1  0  0  0  0
 23 24  1  0  0  0  0
 24 25  1  0  0  0  0
 24 35  1  1  0  0  0
 25  6  1  0  0  0  0
 26 24  1  0  0  0  0
 27 26  2  0  0  0  0
 28 22  2  0  0  0  0
 29 28  1  0  0  0  0
 29 19  2  0  0  0  0
 34 23  1  0  0  0  0
 36 25  1  0  0  0  0
 37 28  1  0  0  0  0
 38 29  1  0  0  0  0
 39 40  1  0  0  0  0
 40 41  2  0  0  0  0
 40 42  1  0  0  0  0
 42 43  1  0  0  0  0
 43 52  1  1  0  0  0
 43 44  1  0  0  0  0
 43 45  1  0  0  0  0
 44 53  1  0  0  0  0
 44 26  1  0  0  0  0
 45 47  1  0  0  0  0
 46 45  2  0  0  0  0
 48 39  1  0  0  0  0
 49 39  1  0  0  0  0
 50 42  1  0  0  0  0
 51 42  1  0  0  0  0
M  END
$$$$
