VYP.pdb
 OpenBabel07022419283D

 53 54  0  0  1  0  0  0  0  0999 V2000
    2.7240   -4.7290    2.1270 C   0  0  0  0  0  0  0  0  0  0  0  0
    1.8150   -3.5070    2.0790 C   0  0  0  0  0  0  0  0  0  0  0  0
    0.8370   -3.6660    3.2330 C   0  0  0  0  0  0  0  0  0  0  0  0
    2.6050   -2.2520    2.1740 C   0  0  2  0  0  0  0  0  0  0  0  0
    3.3660   -2.1610    3.4060 N   0  0  0  0  0  0  0  0  0  0  0  0
    1.8690   -1.0120    1.8820 C   0  0  0  0  0  0  0  0  0  0  0  0
    1.8720   -0.0190    2.6700 O   0  0  0  0  0  0  0  0  0  0  0  0
    3.2930   -4.7620    1.1700 H   0  0  0  0  0  0  0  0  0  0  0  0
    2.1210   -5.6480    2.2400 H   0  0  0  0  0  0  0  0  0  0  0  0
    3.4120   -4.6010    2.9840 H   0  0  0  0  0  0  0  0  0  0  0  0
    1.2440   -3.5990    1.1430 H   0  0  0  0  0  0  0  0  0  0  0  0
    0.1370   -4.4780    2.9650 H   0  0  0  0  0  0  0  0  0  0  0  0
    0.2710   -2.7380    3.4270 H   0  0  0  0  0  0  0  0  0  0  0  0
    1.4360   -4.0040    4.1090 H   0  0  0  0  0  0  0  0  0  0  0  0
    3.3980   -2.3210    1.3640 H   0  0  0  0  0  0  0  0  0  0  0  0
    4.2490   -2.6730    3.3320 H   0  0  0  0  0  0  0  0  0  0  0  0
    3.4090   -1.2170    3.8030 H   0  0  0  0  0  0  0  0  0  0  0  0
   -1.6070    5.9510   -2.0720 O   0  0  0  0  0  0  0  0  0  0  0  0
   -0.9500    4.7540   -1.7470 C   0  0  0  0  0  0  0  0  0  0  0  0
   -0.0260    4.6990   -0.7300 C   0  0  0  0  0  0  0  0  0  0  0  0
    0.6210    3.5410   -0.4040 C   0  0  0  0  0  0  0  0  0  0  0  0
    0.3860    2.3480   -1.0750 C   0  0  0  0  0  0  0  0  0  0  0  0
    1.0960    1.1140   -0.7500 C   0  0  0  0  0  0  0  0  0  0  0  0
    0.4040    0.3800    0.3900 C   0  0  2  0  0  0  0  0  0  0  0  0
    1.1080   -0.8360    0.6970 N   0  0  0  0  0  0  0  0  0  0  0  0
   -1.0400    0.2800    0.2500 C   0  0  0  0  0  0  0  0  0  0  0  0
   -1.6950    1.3890    0.0700 O   0  0  0  0  0  0  0  0  0  0  0  0
   -0.5570    2.4150   -2.1090 C   0  0  0  0  0  0  0  0  0  0  0  0
   -1.2030    3.5860   -2.4310 C   0  0  0  0  0  0  0  0  0  0  0  0
   -2.3620    6.3090   -1.5000 H   0  0  0  0  0  0  0  0  0  0  0  0
    0.1840    5.6210   -0.1800 H   0  0  0  0  0  0  0  0  0  0  0  0
    1.3610    3.4920    0.4090 H   0  0  0  0  0  0  0  0  0  0  0  0
    1.1640    0.4930   -1.6570 H   0  0  0  0  0  0  0  0  0  0  0  0
    2.1270    1.3470   -0.4210 H   0  0  0  0  0  0  0  0  0  0  0  0
    0.5820    1.0650    1.2810 H   0  0  0  0  0  0  0  0  0  0  0  0
    1.0760   -1.6260    0.0310 H   0  0  0  0  0  0  0  0  0  0  0  0
   -0.7590    1.4880   -2.6520 H   0  0  0  0  0  0  0  0  0  0  0  0
   -1.9300    3.6250   -3.2320 H   0  0  0  0  0  0  0  0  0  0  0  0
   -1.8570   -0.8750    0.2820 N   0  0  0  0  0  0  0  0  0  0  0  0
   -3.3140   -0.7800    0.1180 C   0  0  0  0  0  0  0  0  0  0  0  0
   -3.7820   -2.2060    0.0000 C   0  0  0  0  0  0  0  0  0  0  0  0
   -2.8380   -2.8730    1.0140 C   0  0  0  0  0  0  0  0  0  0  0  0
   -1.5230   -2.2730    0.4660 C   0  0  1  0  0  0  0  0  0  0  0  0
   -1.2980   -2.9690   -0.8170 C   0  0  0  0  0  0  0  0  0  0  0  0
   -0.9980   -4.1890   -0.8490 O   0  0  0  0  0  0  0  0  0  0  0  0
   -1.4000   -2.3320   -2.0490 O   0  0  0  0  0  0  0  0  0  0  0  0
   -3.6880   -0.3970    1.0950 H   0  0  0  0  0  0  0  0  0  0  0  0
   -3.5910   -0.1450   -0.7270 H   0  0  0  0  0  0  0  0  0  0  0  0
   -3.5180   -2.6270   -1.0040 H   0  0  0  0  0  0  0  0  0  0  0  0
   -4.8230   -2.3520    0.2750 H   0  0  0  0  0  0  0  0  0  0  0  0
   -2.9750   -2.4520    2.0120 H   0  0  0  0  0  0  0  0  0  0  0  0
   -2.8500   -3.9580    0.9390 H   0  0  0  0  0  0  0  0  0  0  0  0
   -0.7980   -2.4500    1.2450 H   0  0  0  0  0  0  0  0  0  0  0  0
  1  9  1  0  0  0  0
  1 10  1  0  0  0  0
  2  1  1  0  0  0  0
  2  4  1  0  0  0  0
  2  3  1  0  0  0  0
  3 13  1  0  0  0  0
  3 14  1  0  0  0  0
  4 15  1  6  0  0  0
  4  5  1  0  0  0  0
  5 17  1  0  0  0  0
  6  4  1  0  0  0  0
  6  7  2  0  0  0  0
  8  1  1  0  0  0  0
 11  2  1  0  0  0  0
 12  3  1  0  0  0  0
 16  5  1  0  0  0  0
 18 19  1  0  0  0  0
 18 30  1  0  0  0  0
 19 20  1  0  0  0  0
 20 21  2  0  0  0  0
 20 31  1  0  0  0  0
 21 32  1  0  0  0  0
 22 23  1  0  0  0  0
 22 21  1  0  0  0  0
 23 34  1  0  0  0  0
 23 24  1  0  0  0  0
 24 25  1  0  0  0  0
 24 35  1  1  0  0  0
 25  6  1  0  0  0  0
 26 39  1  0  0  0  0
 26 24  1  0  0  0  0
 27 26  2  0  0  0  0
 28 22  2  0  0  0  0
 29 28  1  0  0  0  0
 29 19  2  0  0  0  0
 33 23  1  0  0  0  0
 36 25  1  0  0  0  0
 37 28  1  0  0  0  0
 38 29  1  0  0  0  0
 39 43  1  0  0  0  0
 40 39  1  0  0  0  0
 40 47  1  0  0  0  0
 41 40  1  0  0  0  0
 41 50  1  0  0  0  0
 41 42  1  0  0  0  0
 42 51  1  0  0  0  0
 43 42  1  0  0  0  0
 43 53  1  1  0  0  0
 44 43  1  0  0  0  0
 45 44  1  0  0  0  0
 46 44  2  0  0  0  0
 48 40  1  0  0  0  0
 49 41  1  0  0  0  0
 52 42  1  0  0  0  0
M  END
$$$$
