VYQ.pdb
 OpenBabel07022419283D

 56 56  0  0  1  0  0  0  0  0999 V2000
    1.6090    1.7970    5.1770 C   0  0  0  0  0  0  0  0  0  0  0  0
    2.4480    1.3690    4.0260 C   0  0  0  0  0  0  0  0  0  0  0  0
    2.5740    2.5050    3.0310 C   0  0  0  0  0  0  0  0  0  0  0  0
    2.0300    0.0770    3.3930 C   0  0  2  0  0  0  0  0  0  0  0  0
    2.8700   -0.2740    2.2920 N   0  0  0  0  0  0  0  0  0  0  0  0
    0.5810    0.0730    3.0540 C   0  0  0  0  0  0  0  0  0  0  0  0
   -0.2750    0.3110    3.9600 O   0  0  0  0  0  0  0  0  0  0  0  0
    0.7370    2.4260    4.8360 H   0  0  0  0  0  0  0  0  0  0  0  0
    1.2050    1.0110    5.8100 H   0  0  0  0  0  0  0  0  0  0  0  0
    2.1780    2.4850    5.8620 H   0  0  0  0  0  0  0  0  0  0  0  0
    3.4870    1.1970    4.4330 H   0  0  0  0  0  0  0  0  0  0  0  0
    2.5100    3.4860    3.5380 H   0  0  0  0  0  0  0  0  0  0  0  0
    3.5420    2.4480    2.4880 H   0  0  0  0  0  0  0  0  0  0  0  0
    1.7440    2.4680    2.2910 H   0  0  0  0  0  0  0  0  0  0  0  0
    2.1730   -0.7160    4.1810 H   0  0  0  0  0  0  0  0  0  0  0  0
    3.8380   -0.4320    2.6790 H   0  0  0  0  0  0  0  0  0  0  0  0
    2.5730   -1.2210    1.9200 H   0  0  0  0  0  0  0  0  0  0  0  0
    0.7730    1.1640   -4.4480 O   0  0  0  0  0  0  0  0  0  0  0  0
    0.1570    1.1220   -3.2060 C   0  0  0  0  0  0  0  0  0  0  0  0
    0.6970    1.6860   -2.0700 C   0  0  0  0  0  0  0  0  0  0  0  0
    0.1070    1.6560   -0.8410 C   0  0  0  0  0  0  0  0  0  0  0  0
   -1.1160    1.0270   -0.6770 C   0  0  0  0  0  0  0  0  0  0  0  0
   -1.7620    1.0020    0.6540 C   0  0  0  0  0  0  0  0  0  0  0  0
   -1.3410   -0.1710    1.5100 C   0  0  2  0  0  0  0  0  0  0  0  0
    0.0660   -0.1830    1.7610 N   0  0  0  0  0  0  0  0  0  0  0  0
   -1.8960   -1.3910    0.9320 C   0  0  0  0  0  0  0  0  0  0  0  0
   -3.1280   -1.4020    0.6820 O   0  0  0  0  0  0  0  0  0  0  0  0
   -1.6890    0.4510   -1.7900 C   0  0  0  0  0  0  0  0  0  0  0  0
   -1.0730    0.4950   -3.0220 C   0  0  0  0  0  0  0  0  0  0  0  0
    1.5320    0.5130   -4.5920 H   0  0  0  0  0  0  0  0  0  0  0  0
    1.6670    2.1800   -2.2120 H   0  0  0  0  0  0  0  0  0  0  0  0
    0.6100    2.1310    0.0120 H   0  0  0  0  0  0  0  0  0  0  0  0
   -1.5600    1.9760    1.1510 H   0  0  0  0  0  0  0  0  0  0  0  0
   -2.8650    0.9930    0.4660 H   0  0  0  0  0  0  0  0  0  0  0  0
   -1.9250   -0.0140    2.4770 H   0  0  0  0  0  0  0  0  0  0  0  0
    0.7280   -0.3820    0.9890 H   0  0  0  0  0  0  0  0  0  0  0  0
   -2.6610   -0.0560   -1.6930 H   0  0  0  0  0  0  0  0  0  0  0  0
   -1.5200    0.0460   -3.8910 H   0  0  0  0  0  0  0  0  0  0  0  0
   -1.0400   -2.9620   -4.8130 N   0  0  0  0  0  0  0  0  0  0  0  0
   -0.9130   -3.7080   -3.6290 C   0  0  0  0  0  0  0  0  0  0  0  0
   -0.3460   -4.8270   -3.6640 O   0  0  0  0  0  0  0  0  0  0  0  0
   -1.4160   -3.2460   -2.3130 C   0  0  0  0  0  0  0  0  0  0  0  0
   -1.2130   -4.2740   -1.2220 C   0  0  0  0  0  0  0  0  0  0  0  0
   -1.7410   -3.7610    0.0640 C   0  0  2  0  0  0  0  0  0  0  0  0
   -1.2050   -2.5830    0.6150 N   0  0  0  0  0  0  0  0  0  0  0  0
   -1.7470   -4.8190    1.1140 C   0  0  0  0  0  0  0  0  0  0  0  0
   -1.3110   -4.5870    2.2730 O   0  0  0  0  0  0  0  0  0  0  0  0
   -2.2230   -6.0890    0.8680 O   0  0  0  0  0  0  0  0  0  0  0  0
   -0.4860   -3.1910   -5.6600 H   0  0  0  0  0  0  0  0  0  0  0  0
   -1.6940   -2.1500   -4.8960 H   0  0  0  0  0  0  0  0  0  0  0  0
   -0.9050   -2.3090   -2.0120 H   0  0  0  0  0  0  0  0  0  0  0  0
   -2.4840   -2.9870   -2.4560 H   0  0  0  0  0  0  0  0  0  0  0  0
   -1.8810   -5.1440   -1.5140 H   0  0  0  0  0  0  0  0  0  0  0  0
   -0.2140   -4.6990   -1.2030 H   0  0  0  0  0  0  0  0  0  0  0  0
   -2.8460   -3.5670   -0.1110 H   0  0  0  0  0  0  0  0  0  0  0  0
   -0.1690   -2.5750    0.8220 H   0  0  0  0  0  0  0  0  0  0  0  0
  1  9  1  0  0  0  0
  1 10  1  0  0  0  0
  2 11  1  0  0  0  0
  2  1  1  0  0  0  0
  3 12  1  0  0  0  0
  3  2  1  0  0  0  0
  4  2  1  0  0  0  0
  4 15  1  1  0  0  0
  5 16  1  0  0  0  0
  5  4  1  0  0  0  0
  6  4  1  0  0  0  0
  6  7  2  0  0  0  0
  8  1  1  0  0  0  0
 13  3  1  0  0  0  0
 14  3  1  0  0  0  0
 17  5  1  0  0  0  0
 18 19  1  0  0  0  0
 19 29  2  0  0  0  0
 19 20  1  0  0  0  0
 20 21  2  0  0  0  0
 21 22  1  0  0  0  0
 21 32  1  0  0  0  0
 22 23  1  0  0  0  0
 23 33  1  0  0  0  0
 23 24  1  0  0  0  0
 24 25  1  0  0  0  0
 24 35  1  1  0  0  0
 25  6  1  0  0  0  0
 26 24  1  0  0  0  0
 27 26  2  0  0  0  0
 28 37  1  0  0  0  0
 28 22  2  0  0  0  0
 29 28  1  0  0  0  0
 30 18  1  0  0  0  0
 31 20  1  0  0  0  0
 34 23  1  0  0  0  0
 36 25  1  0  0  0  0
 38 29  1  0  0  0  0
 39 40  1  0  0  0  0
 40 42  1  0  0  0  0
 41 40  2  0  0  0  0
 42 51  1  0  0  0  0
 42 43  1  0  0  0  0
 43 54  1  0  0  0  0
 43 44  1  0  0  0  0
 44 55  1  6  0  0  0
 44 45  1  0  0  0  0
 44 46  1  0  0  0  0
 45 56  1  0  0  0  0
 45 26  1  0  0  0  0
 46 47  1  0  0  0  0
 48 46  2  0  0  0  0
 49 39  1  0  0  0  0
 50 39  1  0  0  0  0
 52 42  1  0  0  0  0
 53 43  1  0  0  0  0
M  END
$$$$
