VYS.pdb
 OpenBabel07022419283D

 50 50  0  0  1  0  0  0  0  0999 V2000
    3.8620   -2.1740    2.1490 C   0  0  0  0  0  0  0  0  0  0  0  0
    4.5850   -1.4950    1.0080 C   0  0  0  0  0  0  0  0  0  0  0  0
    5.0890   -2.4550   -0.0260 C   0  0  0  0  0  0  0  0  0  0  0  0
    3.7110   -0.4100    0.4230 C   0  0  2  0  0  0  0  0  0  0  0  0
    3.4190    0.5560    1.4640 N   0  0  0  0  0  0  0  0  0  0  0  0
    2.4340   -0.9910   -0.1250 C   0  0  0  0  0  0  0  0  0  0  0  0
    2.4640   -1.8480   -1.0360 O   0  0  0  0  0  0  0  0  0  0  0  0
    4.5750   -2.4650    2.9660 H   0  0  0  0  0  0  0  0  0  0  0  0
    3.1070   -1.5220    2.6250 H   0  0  0  0  0  0  0  0  0  0  0  0
    3.3830   -3.1320    1.8210 H   0  0  0  0  0  0  0  0  0  0  0  0
    5.4670   -0.9860    1.4480 H   0  0  0  0  0  0  0  0  0  0  0  0
    6.1740   -2.7100    0.1470 H   0  0  0  0  0  0  0  0  0  0  0  0
    4.5440   -3.4170    0.0700 H   0  0  0  0  0  0  0  0  0  0  0  0
    5.0530   -2.0380   -1.0570 H   0  0  0  0  0  0  0  0  0  0  0  0
    4.2500    0.0920   -0.3950 H   0  0  0  0  0  0  0  0  0  0  0  0
    3.2230    1.4880    1.0180 H   0  0  0  0  0  0  0  0  0  0  0  0
    4.2850    0.7000    2.0360 H   0  0  0  0  0  0  0  0  0  0  0  0
   -1.9190    0.8100    5.7530 O   0  0  0  0  0  0  0  0  0  0  0  0
   -1.6580    0.1490    4.5700 C   0  0  0  0  0  0  0  0  0  0  0  0
   -0.4730   -0.5260    4.4240 C   0  0  0  0  0  0  0  0  0  0  0  0
   -0.2230   -1.1870    3.2290 C   0  0  0  0  0  0  0  0  0  0  0  0
   -1.1200   -1.1900    2.1880 C   0  0  0  0  0  0  0  0  0  0  0  0
   -0.8210   -1.8930    0.9560 C   0  0  0  0  0  0  0  0  0  0  0  0
   -0.1070   -1.0880   -0.0940 C   0  0  2  0  0  0  0  0  0  0  0  0
    1.1680   -0.5890    0.3680 N   0  0  0  0  0  0  0  0  0  0  0  0
   -0.9230   -0.0700   -0.7600 C   0  0  0  0  0  0  0  0  0  0  0  0
   -0.5420    1.1450   -0.8860 O   0  0  0  0  0  0  0  0  0  0  0  0
   -2.2990   -0.5030    2.3680 C   0  0  0  0  0  0  0  0  0  0  0  0
   -2.5750    0.1710    3.5640 C   0  0  0  0  0  0  0  0  0  0  0  0
   -2.6260    0.4880    6.4070 H   0  0  0  0  0  0  0  0  0  0  0  0
    0.2270   -0.5230    5.2380 H   0  0  0  0  0  0  0  0  0  0  0  0
    0.6930   -1.7050    3.1220 H   0  0  0  0  0  0  0  0  0  0  0  0
   -1.7690   -2.2520    0.5030 H   0  0  0  0  0  0  0  0  0  0  0  0
   -0.2040   -2.8030    1.1440 H   0  0  0  0  0  0  0  0  0  0  0  0
    0.1590   -1.8370   -0.9030 H   0  0  0  0  0  0  0  0  0  0  0  0
    1.1730    0.1220    1.1220 H   0  0  0  0  0  0  0  0  0  0  0  0
   -3.0360   -0.4680    1.5990 H   0  0  0  0  0  0  0  0  0  0  0  0
   -3.5030    0.7110    3.7040 H   0  0  0  0  0  0  0  0  0  0  0  0
   -3.7070    1.1700   -4.2350 O   0  0  0  0  0  0  0  0  0  0  0  0
   -3.0000    0.2810   -3.4610 C   0  0  0  0  0  0  0  0  0  0  0  0
   -2.9860    0.7000   -1.9820 C   0  0  2  0  0  0  0  0  0  0  0  0
   -2.2010   -0.3460   -1.3210 N   0  0  0  0  0  0  0  0  0  0  0  0
   -4.3650    0.7200   -1.4570 C   0  0  0  0  0  0  0  0  0  0  0  0
   -5.1630    1.5710   -1.9170 O   0  0  0  0  0  0  0  0  0  0  0  0
   -4.7720   -0.1660   -0.4920 O   0  0  0  0  0  0  0  0  0  0  0  0
   -4.6570    0.9620   -4.1920 H   0  0  0  0  0  0  0  0  0  0  0  0
   -3.5370   -0.6940   -3.4860 H   0  0  0  0  0  0  0  0  0  0  0  0
   -1.9850    0.1070   -3.8300 H   0  0  0  0  0  0  0  0  0  0  0  0
   -2.4740    1.6700   -1.9250 H   0  0  0  0  0  0  0  0  0  0  0  0
   -2.6070   -1.3010   -1.2730 H   0  0  0  0  0  0  0  0  0  0  0  0
  1  9  1  0  0  0  0
  1  8  1  0  0  0  0
  2 11  1  0  0  0  0
  2  1  1  0  0  0  0
  3 13  1  0  0  0  0
  3 12  1  0  0  0  0
  3  2  1  0  0  0  0
  4 15  1  6  0  0  0
  4  2  1  0  0  0  0
  4  5  1  0  0  0  0
  5 17  1  0  0  0  0
  6 25  1  0  0  0  0
  6  4  1  0  0  0  0
  7  6  2  0  0  0  0
 10  1  1  0  0  0  0
 14  3  1  0  0  0  0
 16  5  1  0  0  0  0
 18 30  1  0  0  0  0
 19 18  1  0  0  0  0
 20 19  1  0  0  0  0
 20 31  1  0  0  0  0
 21 20  2  0  0  0  0
 22 28  2  0  0  0  0
 22 21  1  0  0  0  0
 23 34  1  0  0  0  0
 23 22  1  0  0  0  0
 24 35  1  6  0  0  0
 24 25  1  0  0  0  0
 24 23  1  0  0  0  0
 25 36  1  0  0  0  0
 26 24  1  0  0  0  0
 27 26  2  0  0  0  0
 28 29  1  0  0  0  0
 29 38  1  0  0  0  0
 29 19  2  0  0  0  0
 32 21  1  0  0  0  0
 33 23  1  0  0  0  0
 37 28  1  0  0  0  0
 39 46  1  0  0  0  0
 39 40  1  0  0  0  0
 40 41  1  0  0  0  0
 41 49  1  1  0  0  0
 41 43  1  0  0  0  0
 41 42  1  0  0  0  0
 42 50  1  0  0  0  0
 42 26  1  0  0  0  0
 43 45  1  0  0  0  0
 44 43  2  0  0  0  0
 47 40  1  0  0  0  0
 48 40  1  0  0  0  0
M  END
$$$$
