VYT.pdb
 OpenBabel07022419283D

 53 53  0  0  1  0  0  0  0  0999 V2000
    3.0310   -3.8210    1.1320 C   0  0  0  0  0  0  0  0  0  0  0  0
    3.5900   -2.8990    0.0770 C   0  0  0  0  0  0  0  0  0  0  0  0
    2.8900   -3.0000   -1.2380 C   0  0  0  0  0  0  0  0  0  0  0  0
    3.8570   -1.5110    0.5640 C   0  0  2  0  0  0  0  0  0  0  0  0
    4.8400   -1.6460    1.6460 N   0  0  0  0  0  0  0  0  0  0  0  0
    2.7350   -0.7410    1.0360 C   0  0  0  0  0  0  0  0  0  0  0  0
    2.7480   -0.3440    2.2540 O   0  0  0  0  0  0  0  0  0  0  0  0
    3.4260   -4.8530    1.0100 H   0  0  0  0  0  0  0  0  0  0  0  0
    3.1910   -3.4590    2.1550 H   0  0  0  0  0  0  0  0  0  0  0  0
    1.9310   -3.9220    0.8870 H   0  0  0  0  0  0  0  0  0  0  0  0
    4.6280   -3.3250   -0.1180 H   0  0  0  0  0  0  0  0  0  0  0  0
    3.1870   -3.9340   -1.8060 H   0  0  0  0  0  0  0  0  0  0  0  0
    3.2060   -2.1690   -1.9210 H   0  0  0  0  0  0  0  0  0  0  0  0
    1.7860   -3.0660   -1.1670 H   0  0  0  0  0  0  0  0  0  0  0  0
    4.3780   -0.9670   -0.2520 H   0  0  0  0  0  0  0  0  0  0  0  0
    5.3090   -0.7000    1.7190 H   0  0  0  0  0  0  0  0  0  0  0  0
    4.3120   -1.7890    2.5290 H   0  0  0  0  0  0  0  0  0  0  0  0
   -3.7710    4.8240    2.7410 O   0  0  0  0  0  0  0  0  0  0  0  0
   -2.7720    4.0720    2.1290 C   0  0  0  0  0  0  0  0  0  0  0  0
   -1.5260    3.9660    2.7090 C   0  0  0  0  0  0  0  0  0  0  0  0
   -0.5090    3.2320    2.1380 C   0  0  0  0  0  0  0  0  0  0  0  0
   -0.7040    2.5540    0.9290 C   0  0  0  0  0  0  0  0  0  0  0  0
    0.4030    1.8020    0.3180 C   0  0  0  0  0  0  0  0  0  0  0  0
    0.4950    0.4400    0.9010 C   0  0  2  0  0  0  0  0  0  0  0  0
    1.5770   -0.3450    0.3240 N   0  0  0  0  0  0  0  0  0  0  0  0
   -0.8000   -0.2490    0.8110 C   0  0  0  0  0  0  0  0  0  0  0  0
   -1.8090    0.2160    1.3400 O   0  0  0  0  0  0  0  0  0  0  0  0
   -1.9620    2.6740    0.3650 C   0  0  0  0  0  0  0  0  0  0  0  0
   -2.9780    3.4090    0.9380 C   0  0  0  0  0  0  0  0  0  0  0  0
   -4.7540    4.5620    2.6220 H   0  0  0  0  0  0  0  0  0  0  0  0
   -1.3700    4.4910    3.6490 H   0  0  0  0  0  0  0  0  0  0  0  0
    0.4750    3.1500    2.5980 H   0  0  0  0  0  0  0  0  0  0  0  0
    0.2060    1.8000   -0.7800 H   0  0  0  0  0  0  0  0  0  0  0  0
    1.3360    2.3750    0.5470 H   0  0  0  0  0  0  0  0  0  0  0  0
    0.7820    0.5900    1.9840 H   0  0  0  0  0  0  0  0  0  0  0  0
    1.5280   -0.6520   -0.6700 H   0  0  0  0  0  0  0  0  0  0  0  0
   -2.1090    2.1410   -0.5850 H   0  0  0  0  0  0  0  0  0  0  0  0
   -3.9430    3.4690    0.4520 H   0  0  0  0  0  0  0  0  0  0  0  0
   -4.0010   -3.0540   -1.3650 C   0  0  0  0  0  0  0  0  0  0  0  0
   -2.6330   -2.4040   -1.4260 C   0  0  1  0  0  0  0  0  0  0  0  0
   -2.8620   -1.1590   -2.0640 O   0  0  0  0  0  0  0  0  0  0  0  0
   -2.1560   -2.2050   -0.0210 C   0  0  2  0  0  0  0  0  0  0  0  0
   -0.9440   -1.4780    0.1120 N   0  0  0  0  0  0  0  0  0  0  0  0
   -2.0240   -3.5150    0.6400 C   0  0  0  0  0  0  0  0  0  0  0  0
   -2.9750   -4.3140    0.6540 O   0  0  0  0  0  0  0  0  0  0  0  0
   -0.8380   -3.8580    1.2490 O   0  0  0  0  0  0  0  0  0  0  0  0
   -4.6200   -2.7640   -2.2630 H   0  0  0  0  0  0  0  0  0  0  0  0
   -3.9480   -4.1710   -1.4480 H   0  0  0  0  0  0  0  0  0  0  0  0
   -4.5600   -2.8000   -0.4640 H   0  0  0  0  0  0  0  0  0  0  0  0
   -1.9860   -3.0560   -2.0060 H   0  0  0  0  0  0  0  0  0  0  0  0
   -3.7630   -0.8190   -1.9030 H   0  0  0  0  0  0  0  0  0  0  0  0
   -2.9520   -1.6330    0.5340 H   0  0  0  0  0  0  0  0  0  0  0  0
   -0.0860   -1.8650   -0.3330 H   0  0  0  0  0  0  0  0  0  0  0  0
  1  9  1  0  0  0  0
  2  4  1  0  0  0  0
  2  1  1  0  0  0  0
  3 14  1  0  0  0  0
  3  2  1  0  0  0  0
  4 15  1  6  0  0  0
  4  6  1  0  0  0  0
  4  5  1  0  0  0  0
  5 16  1  0  0  0  0
  5 17  1  0  0  0  0
  6  7  2  0  0  0  0
  8  1  1  0  0  0  0
 10  1  1  0  0  0  0
 11  2  1  0  0  0  0
 12  3  1  0  0  0  0
 13  3  1  0  0  0  0
 19 20  1  0  0  0  0
 19 18  1  0  0  0  0
 20 31  1  0  0  0  0
 21 32  1  0  0  0  0
 21 20  2  0  0  0  0
 22 21  1  0  0  0  0
 23 34  1  0  0  0  0
 23 24  1  0  0  0  0
 23 22  1  0  0  0  0
 24 35  1  1  0  0  0
 25 24  1  0  0  0  0
 25  6  1  0  0  0  0
 26 24  1  0  0  0  0
 26 27  2  0  0  0  0
 28 22  2  0  0  0  0
 28 29  1  0  0  0  0
 29 19  2  0  0  0  0
 30 18  1  0  0  0  0
 33 23  1  0  0  0  0
 36 25  1  0  0  0  0
 37 28  1  0  0  0  0
 38 29  1  0  0  0  0
 39 49  1  0  0  0  0
 40 50  1  6  0  0  0
 40 39  1  0  0  0  0
 40 42  1  0  0  0  0
 41 51  1  0  0  0  0
 41 40  1  0  0  0  0
 42 43  1  0  0  0  0
 42 52  1  1  0  0  0
 42 44  1  0  0  0  0
 43 26  1  0  0  0  0
 44 45  2  0  0  0  0
 44 46  1  0  0  0  0
 47 39  1  0  0  0  0
 48 39  1  0  0  0  0
 53 43  1  0  0  0  0
M  END
$$$$
