VYW.pdb
 OpenBabel07022419283D

 63 65  0  0  1  0  0  0  0  0999 V2000
    5.4430   -0.2350   -1.8570 C   0  0  0  0  0  0  0  0  0  0  0  0
    5.4170   -0.7020   -0.4160 C   0  0  0  0  0  0  0  0  0  0  0  0
    5.3860   -2.1890   -0.3540 C   0  0  0  0  0  0  0  0  0  0  0  0
    4.2740   -0.0550    0.3450 C   0  0  2  0  0  0  0  0  0  0  0  0
    4.2760   -0.5110    1.6960 N   0  0  0  0  0  0  0  0  0  0  0  0
    2.9980   -0.1530   -0.3630 C   0  0  0  0  0  0  0  0  0  0  0  0
    2.9160    0.2470   -1.5760 O   0  0  0  0  0  0  0  0  0  0  0  0
    6.4950   -0.3960   -2.2170 H   0  0  0  0  0  0  0  0  0  0  0  0
    5.2700    0.8570   -1.9370 H   0  0  0  0  0  0  0  0  0  0  0  0
    4.7970   -0.8380   -2.5070 H   0  0  0  0  0  0  0  0  0  0  0  0
    6.3520   -0.3430    0.0580 H   0  0  0  0  0  0  0  0  0  0  0  0
    4.4980   -2.5980    0.1780 H   0  0  0  0  0  0  0  0  0  0  0  0
    5.4770   -2.5970   -1.3820 H   0  0  0  0  0  0  0  0  0  0  0  0
    6.2720   -2.5750    0.1970 H   0  0  0  0  0  0  0  0  0  0  0  0
    4.5540    1.0420    0.3880 H   0  0  0  0  0  0  0  0  0  0  0  0
    3.3990   -0.3710    2.1930 H   0  0  0  0  0  0  0  0  0  0  0  0
    4.7710   -1.3960    1.7930 H   0  0  0  0  0  0  0  0  0  0  0  0
   -4.6640   -2.4560   -3.9150 O   0  0  0  0  0  0  0  0  0  0  0  0
   -3.5190   -2.3780   -3.1360 C   0  0  0  0  0  0  0  0  0  0  0  0
   -2.2490   -2.3940   -3.6810 C   0  0  0  0  0  0  0  0  0  0  0  0
   -1.0980   -2.3170   -2.9320 C   0  0  0  0  0  0  0  0  0  0  0  0
   -1.1950   -2.2170   -1.5620 C   0  0  0  0  0  0  0  0  0  0  0  0
    0.0700   -2.1400   -0.7630 C   0  0  0  0  0  0  0  0  0  0  0  0
    0.5580   -0.7230   -0.6100 C   0  0  2  0  0  0  0  0  0  0  0  0
    1.7850   -0.6650    0.1700 N   0  0  0  0  0  0  0  0  0  0  0  0
   -0.4370    0.1930   -0.0100 C   0  0  0  0  0  0  0  0  0  0  0  0
   -1.5940    0.3790   -0.4670 O   0  0  0  0  0  0  0  0  0  0  0  0
   -2.4340   -2.1980   -0.9850 C   0  0  0  0  0  0  0  0  0  0  0  0
   -3.5680   -2.2760   -1.7550 C   0  0  0  0  0  0  0  0  0  0  0  0
   -5.2440   -1.6870   -4.1750 H   0  0  0  0  0  0  0  0  0  0  0  0
   -2.1780   -2.4730   -4.7740 H   0  0  0  0  0  0  0  0  0  0  0  0
   -0.1010   -2.3320   -3.3820 H   0  0  0  0  0  0  0  0  0  0  0  0
    0.8090   -2.7730   -1.2930 H   0  0  0  0  0  0  0  0  0  0  0  0
   -0.1190   -2.6140    0.2320 H   0  0  0  0  0  0  0  0  0  0  0  0
    0.7420   -0.3350   -1.6550 H   0  0  0  0  0  0  0  0  0  0  0  0
    1.7910   -1.0060    1.1500 H   0  0  0  0  0  0  0  0  0  0  0  0
   -2.5140   -2.1260    0.0840 H   0  0  0  0  0  0  0  0  0  0  0  0
   -4.5750   -2.2630   -1.3170 H   0  0  0  0  0  0  0  0  0  0  0  0
   -0.1040    0.9330    1.1600 N   0  0  0  0  0  0  0  0  0  0  0  0
   -0.9660    1.8480    1.8380 C   0  0  1  0  0  0  0  0  0  0  0  0
   -1.2150    1.2760    3.2310 C   0  0  0  0  0  0  0  0  0  0  0  0
   -1.8550   -0.0570    3.1250 C   0  0  0  0  0  0  0  0  0  0  0  0
   -1.3030   -1.2980    3.3030 C   0  0  0  0  0  0  0  0  0  0  0  0
   -2.2670   -2.2060    3.1040 N   0  0  0  0  0  0  0  0  0  0  0  0
   -3.4330   -1.6150    2.8000 C   0  0  0  0  0  0  0  0  0  0  0  0
   -4.7030   -2.1150    2.5120 C   0  0  0  0  0  0  0  0  0  0  0  0
   -5.7350   -1.2460    2.2310 C   0  0  0  0  0  0  0  0  0  0  0  0
   -5.4980    0.1020    2.2390 C   0  0  0  0  0  0  0  0  0  0  0  0
   -4.2460    0.5950    2.5230 C   0  0  0  0  0  0  0  0  0  0  0  0
   -3.1860   -0.2570    2.8110 C   0  0  0  0  0  0  0  0  0  0  0  0
   -0.4310    3.2060    1.9450 C   0  0  0  0  0  0  0  0  0  0  0  0
   -1.1090    4.0920    2.5240 O   0  0  0  0  0  0  0  0  0  0  0  0
    0.8030    3.5690    1.4330 O   0  0  0  0  0  0  0  0  0  0  0  0
    0.8540    0.7900    1.5510 H   0  0  0  0  0  0  0  0  0  0  0  0
   -1.9470    1.8840    1.3140 H   0  0  0  0  0  0  0  0  0  0  0  0
   -1.8610    1.9910    3.7960 H   0  0  0  0  0  0  0  0  0  0  0  0
   -0.2650    1.2100    3.7980 H   0  0  0  0  0  0  0  0  0  0  0  0
   -0.2910   -1.5270    3.5560 H   0  0  0  0  0  0  0  0  0  0  0  0
   -2.1970   -3.2580    3.1590 H   0  0  0  0  0  0  0  0  0  0  0  0
   -4.8720   -3.1860    2.5100 H   0  0  0  0  0  0  0  0  0  0  0  0
   -6.6910   -1.6720    2.0160 H   0  0  0  0  0  0  0  0  0  0  0  0
   -6.2820    0.8120    2.0230 H   0  0  0  0  0  0  0  0  0  0  0  0
   -4.0070    1.6600    2.5420 H   0  0  0  0  0  0  0  0  0  0  0  0
  1  2  1  0  0  0  0
  2  3  1  0  0  0  0
  2 11  1  0  0  0  0
  2  4  1  0  0  0  0
  3 12  1  0  0  0  0
  3 14  1  0  0  0  0
  4 15  1  1  0  0  0
  4  5  1  0  0  0  0
  5 17  1  0  0  0  0
  5 16  1  0  0  0  0
  6 25  1  0  0  0  0
  6  4  1  0  0  0  0
  7  6  2  0  0  0  0
  8  1  1  0  0  0  0
  9  1  1  0  0  0  0
 10  1  1  0  0  0  0
 13  3  1  0  0  0  0
 18 19  1  0  0  0  0
 19 29  1  0  0  0  0
 20 19  2  0  0  0  0
 20 21  1  0  0  0  0
 21 22  2  0  0  0  0
 22 28  1  0  0  0  0
 22 23  1  0  0  0  0
 23 24  1  0  0  0  0
 23 34  1  0  0  0  0
 24 35  1  6  0  0  0
 24 26  1  0  0  0  0
 24 25  1  0  0  0  0
 25 36  1  0  0  0  0
 26 39  1  0  0  0  0
 27 26  2  0  0  0  0
 28 37  1  0  0  0  0
 29 38  1  0  0  0  0
 29 28  2  0  0  0  0
 30 18  1  0  0  0  0
 31 20  1  0  0  0  0
 32 21  1  0  0  0  0
 33 23  1  0  0  0  0
 39 54  1  0  0  0  0
 39 40  1  0  0  0  0
 40 55  1  6  0  0  0
 40 51  1  0  0  0  0
 40 41  1  0  0  0  0
 41 56  1  0  0  0  0
 41 57  1  0  0  0  0
 42 41  1  0  0  0  0
 42 43  2  0  0  0  0
 43 58  1  0  0  0  0
 44 59  1  0  0  0  0
 44 43  1  0  0  0  0
 45 50  1  0  0  0  0
 45 44  1  0  0  0  0
 46 45  2  0  0  0  0
 47 48  2  0  0  0  0
 47 46  1  0  0  0  0
 48 49  1  0  0  0  0
 49 63  1  0  0  0  0
 49 50  2  0  0  0  0
 50 42  1  0  0  0  0
 51 52  1  0  0  0  0
 53 51  2  0  0  0  0
 60 46  1  0  0  0  0
 61 47  1  0  0  0  0
 62 48  1  0  0  0  0
M  END
$$$$
