WAA.pdb
 OpenBabel07022419153D

 46 47  0  0  1  0  0  0  0  0999 V2000
    1.1010   -1.6220   -0.3450 N   0  0  0  0  0  0  0  0  0  0  0  0
    1.6580   -1.8040    0.9600 C   0  0  1  0  0  0  0  0  0  0  0  0
    3.0580   -1.3210    1.0290 C   0  0  0  0  0  0  0  0  0  0  0  0
    3.2350    0.1310    0.7150 C   0  0  0  0  0  0  0  0  0  0  0  0
    3.3410    1.1380    1.6490 C   0  0  0  0  0  0  0  0  0  0  0  0
    3.4560    2.2930    0.9870 N   0  0  0  0  0  0  0  0  0  0  0  0
    3.4310    2.0910   -0.3410 C   0  0  0  0  0  0  0  0  0  0  0  0
    3.5180    2.9240   -1.4440 C   0  0  0  0  0  0  0  0  0  0  0  0
    3.4690    2.4100   -2.7350 C   0  0  0  0  0  0  0  0  0  0  0  0
    3.3320    1.0560   -2.9350 C   0  0  0  0  0  0  0  0  0  0  0  0
    3.2460    0.2320   -1.8320 C   0  0  0  0  0  0  0  0  0  0  0  0
    3.2920    0.7320   -0.5200 C   0  0  0  0  0  0  0  0  0  0  0  0
    0.7910   -1.2700    2.0400 C   0  0  0  0  0  0  0  0  0  0  0  0
    1.1770   -1.4030    3.2340 O   0  0  0  0  0  0  0  0  0  0  0  0
    0.0770   -1.9120   -0.2690 H   0  0  0  0  0  0  0  0  0  0  0  0
    1.5090   -2.2980   -1.0480 H   0  0  0  0  0  0  0  0  0  0  0  0
    1.6960   -2.9170    1.1350 H   0  0  0  0  0  0  0  0  0  0  0  0
    3.5940   -1.5950    1.9510 H   0  0  0  0  0  0  0  0  0  0  0  0
    3.6180   -1.8580    0.2060 H   0  0  0  0  0  0  0  0  0  0  0  0
    3.3340    1.0320    2.7360 H   0  0  0  0  0  0  0  0  0  0  0  0
    3.5560    3.2670    1.4070 H   0  0  0  0  0  0  0  0  0  0  0  0
    3.6250    3.9820   -1.2620 H   0  0  0  0  0  0  0  0  0  0  0  0
    3.5430    3.1260   -3.5520 H   0  0  0  0  0  0  0  0  0  0  0  0
    3.2980    0.6880   -3.9440 H   0  0  0  0  0  0  0  0  0  0  0  0
    3.1490   -0.8350   -1.9830 H   0  0  0  0  0  0  0  0  0  0  0  0
   -1.4120    1.4090    2.8430 C   0  0  0  0  0  0  0  0  0  0  0  0
   -1.2640   -0.1080    2.9340 C   0  0  2  0  0  0  0  0  0  0  0  0
   -0.4460   -0.6170    1.8510 N   0  0  0  0  0  0  0  0  0  0  0  0
   -2.6160   -0.7130    2.8600 C   0  0  0  0  0  0  0  0  0  0  0  0
   -3.4750   -0.3870    3.7160 O   0  0  0  0  0  0  0  0  0  0  0  0
   -2.1460    1.6870    3.6430 H   0  0  0  0  0  0  0  0  0  0  0  0
   -1.8230    1.7150    1.8690 H   0  0  0  0  0  0  0  0  0  0  0  0
   -0.4450    1.8840    3.0840 H   0  0  0  0  0  0  0  0  0  0  0  0
   -0.8070   -0.2960    3.9270 H   0  0  0  0  0  0  0  0  0  0  0  0
   -0.7970   -0.4880    0.8800 H   0  0  0  0  0  0  0  0  0  0  0  0
   -4.8200   -1.7850    0.3900 C   0  0  0  0  0  0  0  0  0  0  0  0
   -4.2530   -2.2620    1.7270 C   0  0  2  0  0  0  0  0  0  0  0  0
   -2.9560   -1.6330    1.8630 N   0  0  0  0  0  0  0  0  0  0  0  0
   -4.1900   -3.7220    1.7630 C   0  0  0  0  0  0  0  0  0  0  0  0
   -5.2300   -4.4180    1.6630 O   0  0  0  0  0  0  0  0  0  0  0  0
   -2.9720   -4.3510    1.9110 O   0  0  0  0  0  0  0  0  0  0  0  0
   -5.4230   -0.8840    0.5080 H   0  0  0  0  0  0  0  0  0  0  0  0
   -5.4960   -2.5700   -0.0380 H   0  0  0  0  0  0  0  0  0  0  0  0
   -3.9920   -1.6190   -0.3360 H   0  0  0  0  0  0  0  0  0  0  0  0
   -4.9120   -1.8760    2.5290 H   0  0  0  0  0  0  0  0  0  0  0  0
   -2.2380   -1.8990    1.1550 H   0  0  0  0  0  0  0  0  0  0  0  0
  1 15  1  0  0  0  0
  1  2  1  0  0  0  0
  2  3  1  0  0  0  0
  2 17  1  1  0  0  0
  2 13  1  0  0  0  0
  3 18  1  0  0  0  0
  4  3  1  0  0  0  0
  4  5  2  0  0  0  0
  5 20  1  0  0  0  0
  6 21  1  0  0  0  0
  6  5  1  0  0  0  0
  7  6  1  0  0  0  0
  8 22  1  0  0  0  0
  8  7  2  0  0  0  0
  9  8  1  0  0  0  0
 10  9  2  0  0  0  0
 10 11  1  0  0  0  0
 11 12  2  0  0  0  0
 12  7  1  0  0  0  0
 12  4  1  0  0  0  0
 13 14  2  0  0  0  0
 16  1  1  0  0  0  0
 19  3  1  0  0  0  0
 23  9  1  0  0  0  0
 24 10  1  0  0  0  0
 25 11  1  0  0  0  0
 26 27  1  0  0  0  0
 26 33  1  0  0  0  0
 26 31  1  0  0  0  0
 27 34  1  1  0  0  0
 28 13  1  0  0  0  0
 28 27  1  0  0  0  0
 29 27  1  0  0  0  0
 29 30  2  0  0  0  0
 32 26  1  0  0  0  0
 35 28  1  0  0  0  0
 36 42  1  0  0  0  0
 36 37  1  0  0  0  0
 37 39  1  0  0  0  0
 37 38  1  0  0  0  0
 37 45  1  1  0  0  0
 38 29  1  0  0  0  0
 39 41  1  0  0  0  0
 40 39  2  0  0  0  0
 43 36  1  0  0  0  0
 44 36  1  0  0  0  0
 46 38  1  0  0  0  0
M  END
$$$$
