WAC.pdb
 OpenBabel07022419153D

 47 48  0  0  1  0  0  0  0  0999 V2000
    0.5550   -2.4760   -1.1240 N   0  0  0  0  0  0  0  0  0  0  0  0
    1.2390   -1.4010   -0.4640 C   0  0  1  0  0  0  0  0  0  0  0  0
    2.2890   -0.8170   -1.4180 C   0  0  0  0  0  0  0  0  0  0  0  0
    3.0270    0.3080   -0.7690 C   0  0  0  0  0  0  0  0  0  0  0  0
    2.8910    1.6530   -0.9720 C   0  0  0  0  0  0  0  0  0  0  0  0
    3.7470    2.2830   -0.1840 N   0  0  0  0  0  0  0  0  0  0  0  0
    4.4510    1.3790    0.5390 C   0  0  0  0  0  0  0  0  0  0  0  0
    5.4540    1.5280    1.4940 C   0  0  0  0  0  0  0  0  0  0  0  0
    6.0100    0.4250    2.0850 C   0  0  0  0  0  0  0  0  0  0  0  0
    5.5640   -0.8280    1.7230 C   0  0  0  0  0  0  0  0  0  0  0  0
    4.5780   -0.9810    0.7860 C   0  0  0  0  0  0  0  0  0  0  0  0
    4.0060    0.1290    0.1790 C   0  0  0  0  0  0  0  0  0  0  0  0
    0.3480   -0.3370    0.0110 C   0  0  0  0  0  0  0  0  0  0  0  0
    0.8630    0.6400    0.6100 O   0  0  0  0  0  0  0  0  0  0  0  0
    1.0900   -2.8970   -1.9060 H   0  0  0  0  0  0  0  0  0  0  0  0
    0.2700   -3.2550   -0.4940 H   0  0  0  0  0  0  0  0  0  0  0  0
    1.8030   -1.7900    0.3970 H   0  0  0  0  0  0  0  0  0  0  0  0
    2.9910   -1.6260   -1.6720 H   0  0  0  0  0  0  0  0  0  0  0  0
    1.7740   -0.4590   -2.3140 H   0  0  0  0  0  0  0  0  0  0  0  0
    2.1800    2.0930   -1.6750 H   0  0  0  0  0  0  0  0  0  0  0  0
    3.8990    3.3250   -0.0940 H   0  0  0  0  0  0  0  0  0  0  0  0
    5.7760    2.5110    1.7490 H   0  0  0  0  0  0  0  0  0  0  0  0
    6.7970    0.4960    2.8370 H   0  0  0  0  0  0  0  0  0  0  0  0
    6.0140   -1.6980    2.2000 H   0  0  0  0  0  0  0  0  0  0  0  0
    4.1950   -1.9460    0.4710 H   0  0  0  0  0  0  0  0  0  0  0  0
   -2.5420    1.5170   -0.7960 C   0  0  0  0  0  0  0  0  0  0  0  0
   -1.8400    0.7950    0.3640 C   0  0  2  0  0  0  0  0  0  0  0  0
   -1.0710   -0.3190   -0.1530 N   0  0  0  0  0  0  0  0  0  0  0  0
   -2.9050    0.2880    1.2480 C   0  0  0  0  0  0  0  0  0  0  0  0
   -3.7170    1.0620    1.8420 O   0  0  0  0  0  0  0  0  0  0  0  0
   -2.6700    0.7900   -1.6060 H   0  0  0  0  0  0  0  0  0  0  0  0
   -1.9130    2.3550   -1.1660 H   0  0  0  0  0  0  0  0  0  0  0  0
   -3.4930    1.9130   -0.4120 H   0  0  0  0  0  0  0  0  0  0  0  0
   -1.1900    1.5220    0.8550 H   0  0  0  0  0  0  0  0  0  0  0  0
   -1.4980   -1.1210   -0.6440 H   0  0  0  0  0  0  0  0  0  0  0  0
   -3.0950   -1.1020    1.4930 N   0  0  0  0  0  0  0  0  0  0  0  0
   -4.1360   -1.5970    2.3540 C   0  0  1  0  0  0  0  0  0  0  0  0
   -5.1460   -2.4150    1.5450 C   0  0  0  0  0  0  0  0  0  0  0  0
   -6.4260   -3.0120    2.6650 S   0  0  0  0  0  0  0  0  0  0  0  0
   -3.5840   -2.5060    3.3710 C   0  0  0  0  0  0  0  0  0  0  0  0
   -2.3620   -2.7420    3.3950 O   0  0  0  0  0  0  0  0  0  0  0  0
   -4.4220   -3.0920    4.2910 O   0  0  0  0  0  0  0  0  0  0  0  0
   -2.4610   -1.7710    1.0360 H   0  0  0  0  0  0  0  0  0  0  0  0
   -4.6960   -0.7350    2.7860 H   0  0  0  0  0  0  0  0  0  0  0  0
   -4.5990   -3.2090    1.0280 H   0  0  0  0  0  0  0  0  0  0  0  0
   -5.5450   -1.7340    0.7670 H   0  0  0  0  0  0  0  0  0  0  0  0
   -7.6670   -2.8880    2.0410 H   0  0  0  0  0  0  0  0  0  0  0  0
  1 16  1  0  0  0  0
  1  2  1  0  0  0  0
  2 13  1  0  0  0  0
  2 17  1  1  0  0  0
  3  4  1  0  0  0  0
  3  2  1  0  0  0  0
  4 12  1  0  0  0  0
  5  4  2  0  0  0  0
  5  6  1  0  0  0  0
  6 21  1  0  0  0  0
  6  7  1  0  0  0  0
  7  8  1  0  0  0  0
  8 22  1  0  0  0  0
  8  9  2  0  0  0  0
  9 23  1  0  0  0  0
 10  9  1  0  0  0  0
 10 24  1  0  0  0  0
 11 10  2  0  0  0  0
 12  7  2  0  0  0  0
 12 11  1  0  0  0  0
 13 14  2  0  0  0  0
 15  1  1  0  0  0  0
 18  3  1  0  0  0  0
 19  3  1  0  0  0  0
 20  5  1  0  0  0  0
 25 11  1  0  0  0  0
 26 33  1  0  0  0  0
 26 27  1  0  0  0  0
 27 34  1  1  0  0  0
 27 29  1  0  0  0  0
 28 13  1  0  0  0  0
 28 27  1  0  0  0  0
 29 36  1  0  0  0  0
 29 30  2  0  0  0  0
 31 26  1  0  0  0  0
 32 26  1  0  0  0  0
 35 28  1  0  0  0  0
 36 37  1  0  0  0  0
 37 44  1  1  0  0  0
 37 40  1  0  0  0  0
 38 37  1  0  0  0  0
 38 39  1  0  0  0  0
 40 41  2  0  0  0  0
 40 42  1  0  0  0  0
 43 36  1  0  0  0  0
 45 38  1  0  0  0  0
 46 38  1  0  0  0  0
 47 39  1  0  0  0  0
M  END
$$$$
