WAD.pdb
 OpenBabel07022419153D

 49 50  0  0  1  0  0  0  0  0999 V2000
    2.2370    1.8950    2.0050 N   0  0  0  0  0  0  0  0  0  0  0  0
    1.9790    1.1420    0.8100 C   0  0  1  0  0  0  0  0  0  0  0  0
    2.3360   -0.3000    0.8820 C   0  0  0  0  0  0  0  0  0  0  0  0
    3.7660   -0.5410    1.1710 C   0  0  0  0  0  0  0  0  0  0  0  0
    4.7890   -0.8500    0.2730 C   0  0  0  0  0  0  0  0  0  0  0  0
    5.9550   -0.9700    0.9300 N   0  0  0  0  0  0  0  0  0  0  0  0
    5.7430   -0.7530    2.2340 C   0  0  0  0  0  0  0  0  0  0  0  0
    6.6250   -0.7760    3.2870 C   0  0  0  0  0  0  0  0  0  0  0  0
    6.1250   -0.5210    4.5480 C   0  0  0  0  0  0  0  0  0  0  0  0
    4.7930   -0.2490    4.7800 C   0  0  0  0  0  0  0  0  0  0  0  0
    3.9380   -0.2350    3.6860 C   0  0  0  0  0  0  0  0  0  0  0  0
    4.4050   -0.4880    2.3960 C   0  0  0  0  0  0  0  0  0  0  0  0
    0.4950    1.2650    0.5630 C   0  0  0  0  0  0  0  0  0  0  0  0
   -0.2560    1.9590    1.3170 O   0  0  0  0  0  0  0  0  0  0  0  0
    3.0470    2.5500    1.9210 H   0  0  0  0  0  0  0  0  0  0  0  0
    1.4030    2.3160    2.4240 H   0  0  0  0  0  0  0  0  0  0  0  0
    2.5050    1.6640   -0.0230 H   0  0  0  0  0  0  0  0  0  0  0  0
    1.7510   -0.7650    1.7120 H   0  0  0  0  0  0  0  0  0  0  0  0
    2.0460   -0.7530   -0.1020 H   0  0  0  0  0  0  0  0  0  0  0  0
    4.6390   -0.9670   -0.7860 H   0  0  0  0  0  0  0  0  0  0  0  0
    6.8770   -1.1950    0.5050 H   0  0  0  0  0  0  0  0  0  0  0  0
    7.6550   -0.9810    3.1410 H   0  0  0  0  0  0  0  0  0  0  0  0
    6.7760   -0.5330    5.3950 H   0  0  0  0  0  0  0  0  0  0  0  0
    4.4610   -0.0560    5.7820 H   0  0  0  0  0  0  0  0  0  0  0  0
    2.9080   -0.0270    3.8700 H   0  0  0  0  0  0  0  0  0  0  0  0
   -1.8220    1.3280   -2.0890 C   0  0  0  0  0  0  0  0  0  0  0  0
   -1.5600    0.7230   -0.7670 C   0  0  2  0  0  0  0  0  0  0  0  0
   -0.1350    0.6050   -0.5320 N   0  0  0  0  0  0  0  0  0  0  0  0
   -2.1840   -0.5880   -0.5450 C   0  0  0  0  0  0  0  0  0  0  0  0
   -1.4510   -1.5470   -0.1730 O   0  0  0  0  0  0  0  0  0  0  0  0
   -0.8560    1.4950   -2.6210 H   0  0  0  0  0  0  0  0  0  0  0  0
   -2.2990    2.3350   -2.0040 H   0  0  0  0  0  0  0  0  0  0  0  0
   -2.4380    0.7120   -2.7710 H   0  0  0  0  0  0  0  0  0  0  0  0
   -1.9770    1.4110    0.0260 H   0  0  0  0  0  0  0  0  0  0  0  0
    0.4730    0.0180   -1.1750 H   0  0  0  0  0  0  0  0  0  0  0  0
   -3.5550   -0.8750   -0.7150 N   0  0  0  0  0  0  0  0  0  0  0  0
   -4.2230   -2.1170   -0.5150 C   0  0  1  0  0  0  0  0  0  0  0  0
   -5.5070   -2.0020    0.2890 C   0  0  0  0  0  0  0  0  0  0  0  0
   -6.0460   -3.3770    0.3850 C   0  0  0  0  0  0  0  0  0  0  0  0
   -5.3410   -4.3840    0.7200 O   0  0  0  0  0  0  0  0  0  0  0  0
   -4.6790   -2.5470   -1.8870 C   0  0  0  0  0  0  0  0  0  0  0  0
   -5.3110   -3.6190   -1.9900 O   0  0  0  0  0  0  0  0  0  0  0  0
   -7.3780   -3.6040    0.0990 O   0  0  0  0  0  0  0  0  0  0  0  0
   -4.4340   -1.8170   -3.0310 O   0  0  0  0  0  0  0  0  0  0  0  0
   -4.1490   -0.0550   -1.0320 H   0  0  0  0  0  0  0  0  0  0  0  0
   -3.6350   -2.9250   -0.0850 H   0  0  0  0  0  0  0  0  0  0  0  0
   -5.2620   -1.6220    1.3290 H   0  0  0  0  0  0  0  0  0  0  0  0
   -6.2230   -1.3370   -0.1680 H   0  0  0  0  0  0  0  0  0  0  0  0
   -7.7250   -4.4510   -0.3250 H   0  0  0  0  0  0  0  0  0  0  0  0
  1 16  1  0  0  0  0
  2 17  1  6  0  0  0
  2  3  1  0  0  0  0
  2  1  1  0  0  0  0
  3  4  1  0  0  0  0
  3 18  1  0  0  0  0
  4 12  1  0  0  0  0
  5  6  1  0  0  0  0
  5  4  2  0  0  0  0
  6  7  1  0  0  0  0
  7 12  2  0  0  0  0
  7  8  1  0  0  0  0
  8  9  2  0  0  0  0
  9 10  1  0  0  0  0
  9 23  1  0  0  0  0
 10 24  1  0  0  0  0
 11 25  1  0  0  0  0
 11 10  2  0  0  0  0
 12 11  1  0  0  0  0
 13  2  1  0  0  0  0
 13 14  2  0  0  0  0
 15  1  1  0  0  0  0
 19  3  1  0  0  0  0
 20  5  1  0  0  0  0
 21  6  1  0  0  0  0
 22  8  1  0  0  0  0
 26 32  1  0  0  0  0
 26 27  1  0  0  0  0
 27 29  1  0  0  0  0
 27 28  1  0  0  0  0
 27 34  1  1  0  0  0
 28 13  1  0  0  0  0
 29 30  2  0  0  0  0
 31 26  1  0  0  0  0
 33 26  1  0  0  0  0
 35 28  1  0  0  0  0
 36 29  1  0  0  0  0
 36 37  1  0  0  0  0
 37 46  1  1  0  0  0
 37 38  1  0  0  0  0
 38 39  1  0  0  0  0
 38 47  1  0  0  0  0
 39 40  2  0  0  0  0
 41 37  1  0  0  0  0
 42 41  1  0  0  0  0
 43 39  1  0  0  0  0
 44 41  2  0  0  0  0
 45 36  1  0  0  0  0
 48 38  1  0  0  0  0
 49 43  1  0  0  0  0
M  END
$$$$
