WAE.pdb
 OpenBabel07022419153D

 52 53  0  0  1  0  0  0  0  0999 V2000
    0.9260    4.2690   -0.2200 N   0  0  0  0  0  0  0  0  0  0  0  0
    0.9520    2.7840   -0.1140 C   0  0  1  0  0  0  0  0  0  0  0  0
    2.2670    2.3970    0.4930 C   0  0  0  0  0  0  0  0  0  0  0  0
    2.5290    0.9720    0.7070 C   0  0  0  0  0  0  0  0  0  0  0  0
    3.2660    0.1420   -0.1610 C   0  0  0  0  0  0  0  0  0  0  0  0
    3.3130   -1.0980    0.3400 N   0  0  0  0  0  0  0  0  0  0  0  0
    2.6310   -1.1130    1.5120 C   0  0  0  0  0  0  0  0  0  0  0  0
    2.4000   -2.1290    2.4160 C   0  0  0  0  0  0  0  0  0  0  0  0
    1.6760   -1.8850    3.5680 C   0  0  0  0  0  0  0  0  0  0  0  0
    1.1950   -0.5960    3.7820 C   0  0  0  0  0  0  0  0  0  0  0  0
    1.4080    0.4410    2.9000 C   0  0  0  0  0  0  0  0  0  0  0  0
    2.1330    0.1740    1.7560 C   0  0  0  0  0  0  0  0  0  0  0  0
   -0.1760    2.3180    0.6760 C   0  0  0  0  0  0  0  0  0  0  0  0
   -0.6480    2.9920    1.6630 O   0  0  0  0  0  0  0  0  0  0  0  0
   -0.0890    4.5090   -0.2680 H   0  0  0  0  0  0  0  0  0  0  0  0
    1.4150    4.7060    0.5670 H   0  0  0  0  0  0  0  0  0  0  0  0
    0.9470    2.4440   -1.1660 H   0  0  0  0  0  0  0  0  0  0  0  0
    3.0750    2.8390   -0.1820 H   0  0  0  0  0  0  0  0  0  0  0  0
    2.4070    2.9590    1.4700 H   0  0  0  0  0  0  0  0  0  0  0  0
    3.7210    0.4600   -1.0870 H   0  0  0  0  0  0  0  0  0  0  0  0
    3.7730   -1.9490   -0.0450 H   0  0  0  0  0  0  0  0  0  0  0  0
    2.7590   -3.1400    2.2810 H   0  0  0  0  0  0  0  0  0  0  0  0
    1.4800   -2.6610    4.2910 H   0  0  0  0  0  0  0  0  0  0  0  0
    0.6170   -0.3580    4.6830 H   0  0  0  0  0  0  0  0  0  0  0  0
    1.0170    1.4240    3.1250 H   0  0  0  0  0  0  0  0  0  0  0  0
   -3.2660    1.4450    0.7000 C   0  0  0  0  0  0  0  0  0  0  0  0
   -1.9920    0.6950    1.2410 C   0  0  2  0  0  0  0  0  0  0  0  0
   -0.8790    1.0780    0.4320 N   0  0  0  0  0  0  0  0  0  0  0  0
   -2.3670   -0.7230    1.1470 C   0  0  0  0  0  0  0  0  0  0  0  0
   -3.3720   -1.1240    1.8360 O   0  0  0  0  0  0  0  0  0  0  0  0
   -3.1730    2.5180    0.9120 H   0  0  0  0  0  0  0  0  0  0  0  0
   -3.3250    1.2390   -0.3660 H   0  0  0  0  0  0  0  0  0  0  0  0
   -4.1010    1.0260    1.2880 H   0  0  0  0  0  0  0  0  0  0  0  0
   -1.9660    1.0230    2.2800 H   0  0  0  0  0  0  0  0  0  0  0  0
   -0.5020    0.5210   -0.3630 H   0  0  0  0  0  0  0  0  0  0  0  0
   -1.7420   -1.7140    0.3690 N   0  0  0  0  0  0  0  0  0  0  0  0
   -2.2000   -3.0760    0.3210 C   0  0  1  0  0  0  0  0  0  0  0  0
   -2.6050   -3.4520   -1.0630 C   0  0  0  0  0  0  0  0  0  0  0  0
   -1.6280   -3.3120   -2.1530 C   0  0  0  0  0  0  0  0  0  0  0  0
   -0.4140   -4.1110   -2.0440 C   0  0  0  0  0  0  0  0  0  0  0  0
   -0.2040   -4.9050   -1.1310 O   0  0  0  0  0  0  0  0  0  0  0  0
   -1.4570   -4.0500    1.1050 C   0  0  0  0  0  0  0  0  0  0  0  0
   -1.8440   -5.2490    1.2670 O   0  0  0  0  0  0  0  0  0  0  0  0
    0.5590   -3.9320   -3.0740 O   0  0  0  0  0  0  0  0  0  0  0  0
   -0.2660   -3.7280    1.7340 O   0  0  0  0  0  0  0  0  0  0  0  0
   -0.9030   -1.4630   -0.2070 H   0  0  0  0  0  0  0  0  0  0  0  0
   -3.2200   -3.0260    0.8990 H   0  0  0  0  0  0  0  0  0  0  0  0
   -3.5320   -2.8610   -1.3590 H   0  0  0  0  0  0  0  0  0  0  0  0
   -3.0240   -4.5060   -0.9950 H   0  0  0  0  0  0  0  0  0  0  0  0
   -2.1100   -3.4640   -3.1690 H   0  0  0  0  0  0  0  0  0  0  0  0
   -1.2590   -2.2320   -2.2440 H   0  0  0  0  0  0  0  0  0  0  0  0
    1.4090   -4.4670   -2.9540 H   0  0  0  0  0  0  0  0  0  0  0  0
  1  2  1  0  0  0  0
  1 16  1  0  0  0  0
  2 17  1  6  0  0  0
  2  3  1  0  0  0  0
  2 13  1  0  0  0  0
  3  4  1  0  0  0  0
  3 19  1  0  0  0  0
  4 12  1  0  0  0  0
  5  6  1  0  0  0  0
  5  4  2  0  0  0  0
  6  7  1  0  0  0  0
  7 12  2  0  0  0  0
  7  8  1  0  0  0  0
  8  9  2  0  0  0  0
  9 10  1  0  0  0  0
  9 23  1  0  0  0  0
 10 24  1  0  0  0  0
 11 25  1  0  0  0  0
 11 10  2  0  0  0  0
 12 11  1  0  0  0  0
 13 14  2  0  0  0  0
 15  1  1  0  0  0  0
 18  3  1  0  0  0  0
 20  5  1  0  0  0  0
 21  6  1  0  0  0  0
 22  8  1  0  0  0  0
 26 31  1  0  0  0  0
 26 27  1  0  0  0  0
 26 33  1  0  0  0  0
 27 34  1  1  0  0  0
 28 13  1  0  0  0  0
 28 27  1  0  0  0  0
 29 27  1  0  0  0  0
 29 30  2  0  0  0  0
 32 26  1  0  0  0  0
 35 28  1  0  0  0  0
 36 29  1  0  0  0  0
 37 36  1  0  0  0  0
 37 47  1  1  0  0  0
 37 42  1  0  0  0  0
 38 49  1  0  0  0  0
 38 37  1  0  0  0  0
 39 40  1  0  0  0  0
 39 38  1  0  0  0  0
 40 41  2  0  0  0  0
 42 43  2  0  0  0  0
 42 45  1  0  0  0  0
 44 52  1  0  0  0  0
 44 40  1  0  0  0  0
 46 36  1  0  0  0  0
 48 38  1  0  0  0  0
 50 39  1  0  0  0  0
 51 39  1  0  0  0  0
M  END
$$$$
