WAH.pdb
 OpenBabel07022419153D

 53 55  0  0  1  0  0  0  0  0999 V2000
    1.5380    0.2000    0.7850 N   0  0  0  0  0  0  0  0  0  0  0  0
    0.8550    0.7170    1.9450 C   0  0  1  0  0  0  0  0  0  0  0  0
    1.5920    1.8630    2.5440 C   0  0  0  0  0  0  0  0  0  0  0  0
    2.9670    1.5500    2.9960 C   0  0  0  0  0  0  0  0  0  0  0  0
    3.3550    1.2510    4.3130 C   0  0  0  0  0  0  0  0  0  0  0  0
    4.6700    0.9950    4.3340 N   0  0  0  0  0  0  0  0  0  0  0  0
    5.1830    1.1090    3.0890 C   0  0  0  0  0  0  0  0  0  0  0  0
    6.4490    0.9620    2.5620 C   0  0  0  0  0  0  0  0  0  0  0  0
    6.6960    1.1520    1.2200 C   0  0  0  0  0  0  0  0  0  0  0  0
    5.6670    1.4960    0.3720 C   0  0  0  0  0  0  0  0  0  0  0  0
    4.4060    1.6370    0.9280 C   0  0  0  0  0  0  0  0  0  0  0  0
    4.1160    1.4570    2.2560 C   0  0  0  0  0  0  0  0  0  0  0  0
   -0.5240    1.0710    1.5270 C   0  0  0  0  0  0  0  0  0  0  0  0
   -1.2790    1.5800    2.4060 O   0  0  0  0  0  0  0  0  0  0  0  0
    1.4890    0.8360   -0.0240 H   0  0  0  0  0  0  0  0  0  0  0  0
    1.0960   -0.7030    0.4800 H   0  0  0  0  0  0  0  0  0  0  0  0
    0.8340   -0.0870    2.7380 H   0  0  0  0  0  0  0  0  0  0  0  0
    1.0190    2.2360    3.4390 H   0  0  0  0  0  0  0  0  0  0  0  0
    1.6250    2.7610    1.8620 H   0  0  0  0  0  0  0  0  0  0  0  0
    2.6360    1.2490    5.1310 H   0  0  0  0  0  0  0  0  0  0  0  0
    5.2130    0.7430    5.1980 H   0  0  0  0  0  0  0  0  0  0  0  0
    7.2870    0.6940    3.1890 H   0  0  0  0  0  0  0  0  0  0  0  0
    7.7020    1.0330    0.8100 H   0  0  0  0  0  0  0  0  0  0  0  0
    5.8680    1.6430   -0.6770 H   0  0  0  0  0  0  0  0  0  0  0  0
    3.6020    1.9180    0.2620 H   0  0  0  0  0  0  0  0  0  0  0  0
   -2.4910    2.1710   -1.3090 C   0  0  0  0  0  0  0  0  0  0  0  0
   -2.4020    1.2370   -0.1510 C   0  0  2  0  0  0  0  0  0  0  0  0
   -1.0620    0.8890    0.2420 N   0  0  0  0  0  0  0  0  0  0  0  0
   -3.1900   -0.0230   -0.4150 C   0  0  0  0  0  0  0  0  0  0  0  0
   -4.3910    0.0300   -0.7800 O   0  0  0  0  0  0  0  0  0  0  0  0
   -2.1990    3.1950   -1.0600 H   0  0  0  0  0  0  0  0  0  0  0  0
   -3.5570    2.1710   -1.6600 H   0  0  0  0  0  0  0  0  0  0  0  0
   -1.9150    1.7510   -2.1660 H   0  0  0  0  0  0  0  0  0  0  0  0
   -2.9430    1.7080    0.7170 H   0  0  0  0  0  0  0  0  0  0  0  0
   -0.4520    0.4680   -0.4950 H   0  0  0  0  0  0  0  0  0  0  0  0
   -2.6010   -1.3030   -0.2590 N   0  0  0  0  0  0  0  0  0  0  0  0
   -3.3580   -2.5330   -0.5120 C   0  0  1  0  0  0  0  0  0  0  0  0
   -2.6650   -3.2140   -1.6680 C   0  0  0  0  0  0  0  0  0  0  0  0
   -3.3200   -4.5050   -2.0540 C   0  0  0  0  0  0  0  0  0  0  0  0
   -3.0340   -5.7680   -1.5980 C   0  0  0  0  0  0  0  0  0  0  0  0
   -3.8570   -6.6200   -2.2220 N   0  0  0  0  0  0  0  0  0  0  0  0
   -4.6460   -5.9280   -3.0540 C   0  0  0  0  0  0  0  0  0  0  0  0
   -4.3140   -4.6390   -2.9470 N   0  0  0  0  0  0  0  0  0  0  0  0
   -3.3410   -3.4280    0.6490 C   0  0  0  0  0  0  0  0  0  0  0  0
   -2.6770   -3.0530    1.6760 O   0  0  0  0  0  0  0  0  0  0  0  0
   -3.9750   -4.6340    0.7370 O   0  0  0  0  0  0  0  0  0  0  0  0
   -1.6040   -1.3580    0.0440 H   0  0  0  0  0  0  0  0  0  0  0  0
   -4.3900   -2.3050   -0.8260 H   0  0  0  0  0  0  0  0  0  0  0  0
   -1.5920   -3.4070   -1.4600 H   0  0  0  0  0  0  0  0  0  0  0  0
   -2.6810   -2.5840   -2.5900 H   0  0  0  0  0  0  0  0  0  0  0  0
   -2.2810   -6.0280   -0.8720 H   0  0  0  0  0  0  0  0  0  0  0  0
   -3.9020   -7.6700   -2.1020 H   0  0  0  0  0  0  0  0  0  0  0  0
   -5.4290   -6.3040   -3.7150 H   0  0  0  0  0  0  0  0  0  0  0  0
  1  2  1  0  0  0  0
  2  3  1  0  0  0  0
  2 17  1  1  0  0  0
  3  4  1  0  0  0  0
  3 18  1  0  0  0  0
  4  5  2  0  0  0  0
  5  6  1  0  0  0  0
  5 20  1  0  0  0  0
  6 21  1  0  0  0  0
  7  6  1  0  0  0  0
  8  7  1  0  0  0  0
  8 22  1  0  0  0  0
  9  8  2  0  0  0  0
 10 11  2  0  0  0  0
 10  9  1  0  0  0  0
 11 12  1  0  0  0  0
 12  4  1  0  0  0  0
 12  7  2  0  0  0  0
 13  2  1  0  0  0  0
 13 14  2  0  0  0  0
 15  1  1  0  0  0  0
 16  1  1  0  0  0  0
 19  3  1  0  0  0  0
 23  9  1  0  0  0  0
 24 10  1  0  0  0  0
 25 11  1  0  0  0  0
 26 31  1  0  0  0  0
 26 27  1  0  0  0  0
 27 28  1  0  0  0  0
 27 34  1  1  0  0  0
 28 13  1  0  0  0  0
 29 36  1  0  0  0  0
 29 27  1  0  0  0  0
 30 29  2  0  0  0  0
 32 26  1  0  0  0  0
 33 26  1  0  0  0  0
 35 28  1  0  0  0  0
 36 47  1  0  0  0  0
 37 48  1  6  0  0  0
 37 36  1  0  0  0  0
 37 44  1  0  0  0  0
 38 49  1  0  0  0  0
 38 37  1  0  0  0  0
 39 38  1  0  0  0  0
 39 40  2  0  0  0  0
 40 51  1  0  0  0  0
 41 52  1  0  0  0  0
 41 40  1  0  0  0  0
 42 43  2  0  0  0  0
 42 41  1  0  0  0  0
 43 39  1  0  0  0  0
 44 46  2  0  0  0  0
 44 45  1  0  0  0  0
 50 38  1  0  0  0  0
 53 42  1  0  0  0  0
M  END
$$$$
