WAI.pdb
 OpenBabel07022419153D

 55 56  0  0  1  0  0  0  0  0999 V2000
   -1.1530    1.4970    0.5200 N   0  0  0  0  0  0  0  0  0  0  0  0
    0.2640    1.3560    0.3990 C   0  0  1  0  0  0  0  0  0  0  0  0
    0.9750    2.5560    0.9840 C   0  0  0  0  0  0  0  0  0  0  0  0
    2.4480    2.4310    0.8680 C   0  0  0  0  0  0  0  0  0  0  0  0
    3.3730    2.1170    1.8350 C   0  0  0  0  0  0  0  0  0  0  0  0
    4.5930    2.1170    1.2760 N   0  0  0  0  0  0  0  0  0  0  0  0
    4.4900    2.4250   -0.0430 C   0  0  0  0  0  0  0  0  0  0  0  0
    5.4700    2.5470   -1.0330 C   0  0  0  0  0  0  0  0  0  0  0  0
    5.0660    2.8750   -2.3040 C   0  0  0  0  0  0  0  0  0  0  0  0
    3.7300    3.0740   -2.5760 C   0  0  0  0  0  0  0  0  0  0  0  0
    2.7690    2.9540   -1.6020 C   0  0  0  0  0  0  0  0  0  0  0  0
    3.1520    2.6210   -0.3010 C   0  0  0  0  0  0  0  0  0  0  0  0
    0.6780    0.1340    1.1160 C   0  0  0  0  0  0  0  0  0  0  0  0
    1.8930   -0.2170    1.1730 O   0  0  0  0  0  0  0  0  0  0  0  0
   -1.4250    2.4880    0.3150 H   0  0  0  0  0  0  0  0  0  0  0  0
   -1.6150    0.8610   -0.1700 H   0  0  0  0  0  0  0  0  0  0  0  0
    0.5080    1.3350   -0.6880 H   0  0  0  0  0  0  0  0  0  0  0  0
    0.6680    2.6480    2.0490 H   0  0  0  0  0  0  0  0  0  0  0  0
    0.6830    3.4990    0.4800 H   0  0  0  0  0  0  0  0  0  0  0  0
    3.1220    1.9080    2.8800 H   0  0  0  0  0  0  0  0  0  0  0  0
    5.5120    1.9210    1.7260 H   0  0  0  0  0  0  0  0  0  0  0  0
    6.5220    2.3810   -0.7760 H   0  0  0  0  0  0  0  0  0  0  0  0
    5.8200    2.9740   -3.0900 H   0  0  0  0  0  0  0  0  0  0  0  0
    3.4310    3.3300   -3.5730 H   0  0  0  0  0  0  0  0  0  0  0  0
    1.7100    3.1030   -1.7780 H   0  0  0  0  0  0  0  0  0  0  0  0
   -0.1910   -1.9270    3.9360 C   0  0  0  0  0  0  0  0  0  0  0  0
    0.2070   -1.9120    2.4770 C   0  0  2  0  0  0  0  0  0  0  0  0
   -0.2480   -0.7240    1.7850 N   0  0  0  0  0  0  0  0  0  0  0  0
   -0.4060   -3.0840    1.8110 C   0  0  0  0  0  0  0  0  0  0  0  0
   -0.1670   -4.2410    2.2440 O   0  0  0  0  0  0  0  0  0  0  0  0
    0.2680   -1.0600    4.4550 H   0  0  0  0  0  0  0  0  0  0  0  0
   -1.2740   -1.8840    4.0810 H   0  0  0  0  0  0  0  0  0  0  0  0
    0.2760   -2.8330    4.3750 H   0  0  0  0  0  0  0  0  0  0  0  0
    1.3130   -2.0110    2.4170 H   0  0  0  0  0  0  0  0  0  0  0  0
   -1.2500   -0.4840    1.7720 H   0  0  0  0  0  0  0  0  0  0  0  0
   -5.4630   -2.7550   -0.6050 C   0  0  0  0  0  0  0  0  0  0  0  0
   -3.9500   -2.7280   -0.5800 C   0  0  0  0  0  0  0  0  0  0  0  0
   -3.3780   -3.9790    0.0440 C   0  0  2  0  0  0  0  0  0  0  0  0
   -3.8300   -4.1690    1.4630 C   0  0  0  0  0  0  0  0  0  0  0  0
   -1.8850   -4.0210   -0.0010 C   0  0  2  0  0  0  0  0  0  0  0  0
   -1.2570   -2.9230    0.6930 N   0  0  0  0  0  0  0  0  0  0  0  0
   -1.3530   -4.1600   -1.3930 C   0  0  0  0  0  0  0  0  0  0  0  0
   -1.7620   -5.0510   -2.1760 O   0  0  0  0  0  0  0  0  0  0  0  0
   -0.3760   -3.3010   -1.8800 O   0  0  0  0  0  0  0  0  0  0  0  0
   -5.8570   -3.6500   -1.1300 H   0  0  0  0  0  0  0  0  0  0  0  0
   -5.8720   -2.6480    0.4150 H   0  0  0  0  0  0  0  0  0  0  0  0
   -5.7820   -1.8420   -1.1660 H   0  0  0  0  0  0  0  0  0  0  0  0
   -3.6290   -2.6970   -1.6500 H   0  0  0  0  0  0  0  0  0  0  0  0
   -3.6480   -1.8130   -0.0480 H   0  0  0  0  0  0  0  0  0  0  0  0
   -3.7470   -4.8540   -0.5420 H   0  0  0  0  0  0  0  0  0  0  0  0
   -4.5760   -4.9900    1.5490 H   0  0  0  0  0  0  0  0  0  0  0  0
   -2.9690   -4.4670    2.1190 H   0  0  0  0  0  0  0  0  0  0  0  0
   -4.2870   -3.2590    1.8950 H   0  0  0  0  0  0  0  0  0  0  0  0
   -1.5650   -4.9540    0.5250 H   0  0  0  0  0  0  0  0  0  0  0  0
   -1.4300   -1.9370    0.3620 H   0  0  0  0  0  0  0  0  0  0  0  0
  2 17  1  6  0  0  0
  2  1  1  0  0  0  0
  2  3  1  0  0  0  0
  2 13  1  0  0  0  0
  3 18  1  0  0  0  0
  4  3  1  0  0  0  0
  4  5  2  0  0  0  0
  5 20  1  0  0  0  0
  6 21  1  0  0  0  0
  6  5  1  0  0  0  0
  7  6  1  0  0  0  0
  8 22  1  0  0  0  0
  8  7  2  0  0  0  0
  9  8  1  0  0  0  0
 10  9  2  0  0  0  0
 10 11  1  0  0  0  0
 11 12  2  0  0  0  0
 12  7  1  0  0  0  0
 12  4  1  0  0  0  0
 13 14  2  0  0  0  0
 13 28  1  0  0  0  0
 15  1  1  0  0  0  0
 16  1  1  0  0  0  0
 19  3  1  0  0  0  0
 23  9  1  0  0  0  0
 24 10  1  0  0  0  0
 25 11  1  0  0  0  0
 26 32  1  0  0  0  0
 26 33  1  0  0  0  0
 26 31  1  0  0  0  0
 27 34  1  6  0  0  0
 27 26  1  0  0  0  0
 28 27  1  0  0  0  0
 29 30  2  0  0  0  0
 29 27  1  0  0  0  0
 35 28  1  0  0  0  0
 36 37  1  0  0  0  0
 36 46  1  0  0  0  0
 37 49  1  0  0  0  0
 37 38  1  0  0  0  0
 38 50  1  6  0  0  0
 38 39  1  0  0  0  0
 39 51  1  0  0  0  0
 39 53  1  0  0  0  0
 39 52  1  0  0  0  0
 40 38  1  0  0  0  0
 40 54  1  1  0  0  0
 40 41  1  0  0  0  0
 41 29  1  0  0  0  0
 42 40  1  0  0  0  0
 43 42  2  0  0  0  0
 44 42  1  0  0  0  0
 45 36  1  0  0  0  0
 47 36  1  0  0  0  0
 48 37  1  0  0  0  0
 55 41  1  0  0  0  0
M  END
$$$$
