WAK.pdb
 OpenBabel07022419153D

 57 58  0  0  1  0  0  0  0  0999 V2000
    0.6710   -0.9700   -2.1190 N   0  0  0  0  0  0  0  0  0  0  0  0
    1.8600   -0.7590   -1.2950 C   0  0  1  0  0  0  0  0  0  0  0  0
    2.5620    0.4230   -1.8810 C   0  0  0  0  0  0  0  0  0  0  0  0
    3.7930    0.8370   -1.1850 C   0  0  0  0  0  0  0  0  0  0  0  0
    5.1050    0.4570   -1.4900 C   0  0  0  0  0  0  0  0  0  0  0  0
    5.9430    1.0120   -0.6190 N   0  0  0  0  0  0  0  0  0  0  0  0
    5.2680    1.7610    0.2770 C   0  0  0  0  0  0  0  0  0  0  0  0
    5.7180    2.5200    1.3360 C   0  0  0  0  0  0  0  0  0  0  0  0
    4.8140    3.2300    2.1180 C   0  0  0  0  0  0  0  0  0  0  0  0
    3.4840    3.1290    1.7730 C   0  0  0  0  0  0  0  0  0  0  0  0
    3.0410    2.3690    0.7140 C   0  0  0  0  0  0  0  0  0  0  0  0
    3.9400    1.6580   -0.0670 C   0  0  0  0  0  0  0  0  0  0  0  0
    1.5560   -0.5810    0.1100 C   0  0  0  0  0  0  0  0  0  0  0  0
    2.4350   -0.6740    1.0160 O   0  0  0  0  0  0  0  0  0  0  0  0
   -0.0180   -1.5970   -1.6620 H   0  0  0  0  0  0  0  0  0  0  0  0
    0.2750   -0.1070   -2.5000 H   0  0  0  0  0  0  0  0  0  0  0  0
    2.5080   -1.6450   -1.5070 H   0  0  0  0  0  0  0  0  0  0  0  0
    2.8690    0.2000   -2.9360 H   0  0  0  0  0  0  0  0  0  0  0  0
    1.8680    1.2980   -1.8550 H   0  0  0  0  0  0  0  0  0  0  0  0
    5.3740   -0.1990   -2.3260 H   0  0  0  0  0  0  0  0  0  0  0  0
    6.9780    0.8780   -0.6370 H   0  0  0  0  0  0  0  0  0  0  0  0
    6.7560    2.5940    1.5980 H   0  0  0  0  0  0  0  0  0  0  0  0
    5.1680    3.8240    2.9470 H   0  0  0  0  0  0  0  0  0  0  0  0
    2.7790    3.6970    2.4000 H   0  0  0  0  0  0  0  0  0  0  0  0
    1.9950    2.2990    0.4560 H   0  0  0  0  0  0  0  0  0  0  0  0
   -0.6690    1.2450    2.3040 C   0  0  0  0  0  0  0  0  0  0  0  0
   -0.0740   -0.1070    1.9940 C   0  0  2  0  0  0  0  0  0  0  0  0
    0.2360   -0.2840    0.6100 N   0  0  0  0  0  0  0  0  0  0  0  0
   -1.0070   -1.2070    2.4260 C   0  0  0  0  0  0  0  0  0  0  0  0
   -1.4270   -1.2640    3.6270 O   0  0  0  0  0  0  0  0  0  0  0  0
   -0.9070    1.2630    3.3840 H   0  0  0  0  0  0  0  0  0  0  0  0
   -1.5500    1.4800    1.6870 H   0  0  0  0  0  0  0  0  0  0  0  0
    0.1550    1.9890    2.1620 H   0  0  0  0  0  0  0  0  0  0  0  0
    0.8190   -0.2200    2.6580 H   0  0  0  0  0  0  0  0  0  0  0  0
   -0.5240   -0.1970   -0.0980 H   0  0  0  0  0  0  0  0  0  0  0  0
   -1.4240   -2.1900    1.4870 N   0  0  0  0  0  0  0  0  0  0  0  0
   -2.3150   -3.2760    1.8200 C   0  0  1  0  0  0  0  0  0  0  0  0
   -3.5600   -3.2640    0.9390 C   0  0  0  0  0  0  0  0  0  0  0  0
   -4.3350   -2.0060    1.0810 C   0  0  0  0  0  0  0  0  0  0  0  0
   -5.5730   -1.9790    0.2550 C   0  0  0  0  0  0  0  0  0  0  0  0
   -5.4170   -2.0940   -1.2140 C   0  0  0  0  0  0  0  0  0  0  0  0
   -4.8240   -3.3000   -1.7050 N   0  0  0  0  0  0  0  0  0  0  0  0
   -1.6220   -4.5520    1.5940 C   0  0  0  0  0  0  0  0  0  0  0  0
   -2.1830   -5.6760    1.8050 O   0  0  0  0  0  0  0  0  0  0  0  0
   -0.3140   -4.5590    1.1350 O   0  0  0  0  0  0  0  0  0  0  0  0
   -1.0590   -2.1120    0.5090 H   0  0  0  0  0  0  0  0  0  0  0  0
   -2.6190   -3.2210    2.8810 H   0  0  0  0  0  0  0  0  0  0  0  0
   -4.1920   -4.1210    1.2390 H   0  0  0  0  0  0  0  0  0  0  0  0
   -3.2280   -3.4420   -0.1060 H   0  0  0  0  0  0  0  0  0  0  0  0
   -4.5650   -1.7840    2.1590 H   0  0  0  0  0  0  0  0  0  0  0  0
   -3.7040   -1.1340    0.7360 H   0  0  0  0  0  0  0  0  0  0  0  0
   -6.1620   -1.0230    0.4320 H   0  0  0  0  0  0  0  0  0  0  0  0
   -6.3090   -2.7690    0.6110 H   0  0  0  0  0  0  0  0  0  0  0  0
   -6.3940   -1.9710   -1.7610 H   0  0  0  0  0  0  0  0  0  0  0  0
   -4.7770   -1.2340   -1.5430 H   0  0  0  0  0  0  0  0  0  0  0  0
   -4.3040   -3.1940   -2.5860 H   0  0  0  0  0  0  0  0  0  0  0  0
   -5.4360   -4.1230   -1.6980 H   0  0  0  0  0  0  0  0  0  0  0  0
  1 15  1  0  0  0  0
  1  2  1  0  0  0  0
  2 17  1  6  0  0  0
  2 13  1  0  0  0  0
  3 19  1  0  0  0  0
  3  2  1  0  0  0  0
  3  4  1  0  0  0  0
  4 12  1  0  0  0  0
  5  4  2  0  0  0  0
  5  6  1  0  0  0  0
  6  7  1  0  0  0  0
  7  8  1  0  0  0  0
  8 22  1  0  0  0  0
  8  9  2  0  0  0  0
  9 23  1  0  0  0  0
 10  9  1  0  0  0  0
 10 24  1  0  0  0  0
 11 10  2  0  0  0  0
 12  7  2  0  0  0  0
 12 11  1  0  0  0  0
 13 28  1  0  0  0  0
 13 14  2  0  0  0  0
 16  1  1  0  0  0  0
 18  3  1  0  0  0  0
 20  5  1  0  0  0  0
 21  6  1  0  0  0  0
 25 11  1  0  0  0  0
 26 31  1  0  0  0  0
 27 26  1  0  0  0  0
 27 29  1  0  0  0  0
 27 34  1  1  0  0  0
 28 27  1  0  0  0  0
 29 30  2  0  0  0  0
 32 26  1  0  0  0  0
 33 26  1  0  0  0  0
 35 28  1  0  0  0  0
 36 37  1  0  0  0  0
 36 29  1  0  0  0  0
 37 47  1  1  0  0  0
 38 39  1  0  0  0  0
 38 48  1  0  0  0  0
 38 37  1  0  0  0  0
 39 50  1  0  0  0  0
 40 52  1  0  0  0  0
 40 53  1  0  0  0  0
 40 39  1  0  0  0  0
 41 40  1  0  0  0  0
 42 57  1  0  0  0  0
 42 41  1  0  0  0  0
 43 44  1  0  0  0  0
 43 37  1  0  0  0  0
 45 43  2  0  0  0  0
 46 36  1  0  0  0  0
 49 38  1  0  0  0  0
 51 39  1  0  0  0  0
 54 41  1  0  0  0  0
 55 41  1  0  0  0  0
 56 42  1  0  0  0  0
M  END
$$$$
