WAL.pdb
 OpenBabel07022419153D

 55 56  0  0  1  0  0  0  0  0999 V2000
   -1.4270    1.6650    0.9890 N   0  0  0  0  0  0  0  0  0  0  0  0
   -0.0440    1.6660    0.6230 C   0  0  1  0  0  0  0  0  0  0  0  0
    0.6560    2.9150    1.1580 C   0  0  0  0  0  0  0  0  0  0  0  0
    2.0890    2.9360    0.7910 C   0  0  0  0  0  0  0  0  0  0  0  0
    3.1520    2.6630    1.6350 C   0  0  0  0  0  0  0  0  0  0  0  0
    4.2920    2.7900    0.9280 N   0  0  0  0  0  0  0  0  0  0  0  0
    4.0290    3.1310   -0.3290 C   0  0  0  0  0  0  0  0  0  0  0  0
    4.8820    3.3670   -1.4010 C   0  0  0  0  0  0  0  0  0  0  0  0
    4.3160    3.7090   -2.6060 C   0  0  0  0  0  0  0  0  0  0  0  0
    2.9450    3.8080   -2.7220 C   0  0  0  0  0  0  0  0  0  0  0  0
    2.1020    3.5730   -1.6550 C   0  0  0  0  0  0  0  0  0  0  0  0
    2.6580    3.2280   -0.4360 C   0  0  0  0  0  0  0  0  0  0  0  0
    0.6790    0.4340    1.0250 C   0  0  0  0  0  0  0  0  0  0  0  0
    1.9060    0.3820    0.7130 O   0  0  0  0  0  0  0  0  0  0  0  0
   -1.8050    2.5790    1.2790 H   0  0  0  0  0  0  0  0  0  0  0  0
   -2.0230    1.1700    0.2890 H   0  0  0  0  0  0  0  0  0  0  0  0
   -0.0050    1.7660   -0.4980 H   0  0  0  0  0  0  0  0  0  0  0  0
    0.5600    2.8890    2.2610 H   0  0  0  0  0  0  0  0  0  0  0  0
    0.1990    3.8280    0.7780 H   0  0  0  0  0  0  0  0  0  0  0  0
    3.0660    2.3900    2.6990 H   0  0  0  0  0  0  0  0  0  0  0  0
    5.2660    2.6440    1.3000 H   0  0  0  0  0  0  0  0  0  0  0  0
    5.9710    3.2820   -1.2850 H   0  0  0  0  0  0  0  0  0  0  0  0
    4.9640    3.8930   -3.4380 H   0  0  0  0  0  0  0  0  0  0  0  0
    2.4990    4.0780   -3.6710 H   0  0  0  0  0  0  0  0  0  0  0  0
    1.0250    3.6380   -1.6990 H   0  0  0  0  0  0  0  0  0  0  0  0
    0.9460   -1.9560    3.5790 C   0  0  0  0  0  0  0  0  0  0  0  0
    0.8410   -1.7750    2.0570 C   0  0  2  0  0  0  0  0  0  0  0  0
    0.0370   -0.6310    1.7210 N   0  0  0  0  0  0  0  0  0  0  0  0
    0.3260   -3.0440    1.5300 C   0  0  0  0  0  0  0  0  0  0  0  0
    0.9810   -4.0860    1.7880 O   0  0  0  0  0  0  0  0  0  0  0  0
   -0.0430   -2.0080    4.0430 H   0  0  0  0  0  0  0  0  0  0  0  0
    1.6360   -1.2260    4.0180 H   0  0  0  0  0  0  0  0  0  0  0  0
    1.4180   -2.9570    3.7160 H   0  0  0  0  0  0  0  0  0  0  0  0
    1.8880   -1.6680    1.7120 H   0  0  0  0  0  0  0  0  0  0  0  0
   -0.9550   -0.5120    1.9360 H   0  0  0  0  0  0  0  0  0  0  0  0
   -4.1360   -3.5050   -0.8700 C   0  0  0  0  0  0  0  0  0  0  0  0
   -3.8150   -3.7840    0.5800 C   0  0  0  0  0  0  0  0  0  0  0  0
   -5.1020   -4.3620    1.1810 C   0  0  0  0  0  0  0  0  0  0  0  0
   -2.7080   -4.7470    0.7910 C   0  0  0  0  0  0  0  0  0  0  0  0
   -1.3800   -4.3760    0.2320 C   0  0  2  0  0  0  0  0  0  0  0  0
   -0.8540   -3.1380    0.7610 N   0  0  0  0  0  0  0  0  0  0  0  0
   -1.3340   -4.4240   -1.2480 C   0  0  0  0  0  0  0  0  0  0  0  0
   -0.8760   -3.4590   -1.9500 O   0  0  0  0  0  0  0  0  0  0  0  0
   -1.7820   -5.5140   -1.9610 O   0  0  0  0  0  0  0  0  0  0  0  0
   -4.2470   -4.4520   -1.4520 H   0  0  0  0  0  0  0  0  0  0  0  0
   -5.1540   -3.0110   -0.9290 H   0  0  0  0  0  0  0  0  0  0  0  0
   -3.4500   -2.7860   -1.3290 H   0  0  0  0  0  0  0  0  0  0  0  0
   -3.6730   -2.8080    1.0870 H   0  0  0  0  0  0  0  0  0  0  0  0
   -5.5310   -5.1340    0.4940 H   0  0  0  0  0  0  0  0  0  0  0  0
   -4.8440   -4.7610    2.1700 H   0  0  0  0  0  0  0  0  0  0  0  0
   -5.7980   -3.5170    1.3060 H   0  0  0  0  0  0  0  0  0  0  0  0
   -2.9930   -5.7230    0.3410 H   0  0  0  0  0  0  0  0  0  0  0  0
   -2.6200   -4.9590    1.8890 H   0  0  0  0  0  0  0  0  0  0  0  0
   -0.6730   -5.2060    0.5580 H   0  0  0  0  0  0  0  0  0  0  0  0
   -1.3530   -2.2370    0.5820 H   0  0  0  0  0  0  0  0  0  0  0  0
  1 15  1  0  0  0  0
  2 17  1  6  0  0  0
  2  1  1  0  0  0  0
  2 13  1  0  0  0  0
  2  3  1  0  0  0  0
  3 18  1  0  0  0  0
  4  3  1  0  0  0  0
  4  5  2  0  0  0  0
  5 20  1  0  0  0  0
  6 21  1  0  0  0  0
  6  5  1  0  0  0  0
  7  6  1  0  0  0  0
  8 22  1  0  0  0  0
  8  7  2  0  0  0  0
  9  8  1  0  0  0  0
 10  9  2  0  0  0  0
 10 11  1  0  0  0  0
 11 12  2  0  0  0  0
 12  7  1  0  0  0  0
 12  4  1  0  0  0  0
 13 28  1  0  0  0  0
 14 13  2  0  0  0  0
 16  1  1  0  0  0  0
 19  3  1  0  0  0  0
 23  9  1  0  0  0  0
 24 10  1  0  0  0  0
 25 11  1  0  0  0  0
 26 33  1  0  0  0  0
 26 32  1  0  0  0  0
 26 31  1  0  0  0  0
 27 34  1  6  0  0  0
 27 26  1  0  0  0  0
 28 35  1  0  0  0  0
 28 27  1  0  0  0  0
 29 30  2  0  0  0  0
 29 27  1  0  0  0  0
 36 37  1  0  0  0  0
 37 39  1  0  0  0  0
 37 48  1  0  0  0  0
 37 38  1  0  0  0  0
 38 51  1  0  0  0  0
 38 50  1  0  0  0  0
 39 53  1  0  0  0  0
 40 54  1  1  0  0  0
 40 41  1  0  0  0  0
 40 39  1  0  0  0  0
 41 29  1  0  0  0  0
 42 40  1  0  0  0  0
 43 42  1  0  0  0  0
 44 42  2  0  0  0  0
 45 36  1  0  0  0  0
 46 36  1  0  0  0  0
 47 36  1  0  0  0  0
 49 38  1  0  0  0  0
 52 39  1  0  0  0  0
 55 41  1  0  0  0  0
M  END
$$$$
