WAM.pdb
 OpenBabel07022419153D

 53 54  0  0  1  0  0  0  0  0999 V2000
    2.6560    0.0270    2.7610 N   0  0  0  0  0  0  0  0  0  0  0  0
    1.6110    0.6250    1.9700 C   0  0  1  0  0  0  0  0  0  0  0  0
    1.9230    0.6410    0.5140 C   0  0  0  0  0  0  0  0  0  0  0  0
    3.1850    1.4080    0.2720 C   0  0  0  0  0  0  0  0  0  0  0  0
    3.2630    2.7370   -0.0850 C   0  0  0  0  0  0  0  0  0  0  0  0
    4.5590    3.0460   -0.1690 N   0  0  0  0  0  0  0  0  0  0  0  0
    5.3160    1.9690    0.1190 C   0  0  0  0  0  0  0  0  0  0  0  0
    6.6960    1.7830    0.1560 C   0  0  0  0  0  0  0  0  0  0  0  0
    7.1980    0.5400    0.4770 C   0  0  0  0  0  0  0  0  0  0  0  0
    6.3360   -0.4990    0.7560 C   0  0  0  0  0  0  0  0  0  0  0  0
    4.9660   -0.3500    0.7280 C   0  0  0  0  0  0  0  0  0  0  0  0
    4.4750    0.9210    0.4000 C   0  0  0  0  0  0  0  0  0  0  0  0
    0.3530   -0.1360    2.2690 C   0  0  0  0  0  0  0  0  0  0  0  0
    0.3390   -0.9820    3.1970 O   0  0  0  0  0  0  0  0  0  0  0  0
    3.4120    0.6990    3.0070 H   0  0  0  0  0  0  0  0  0  0  0  0
    2.2830   -0.3550    3.6610 H   0  0  0  0  0  0  0  0  0  0  0  0
    1.5180    1.6770    2.3610 H   0  0  0  0  0  0  0  0  0  0  0  0
    1.0850    1.0150   -0.1090 H   0  0  0  0  0  0  0  0  0  0  0  0
    2.1490   -0.4030    0.1450 H   0  0  0  0  0  0  0  0  0  0  0  0
    2.3920    3.3900   -0.2600 H   0  0  0  0  0  0  0  0  0  0  0  0
    4.9430    4.0000   -0.4250 H   0  0  0  0  0  0  0  0  0  0  0  0
    7.3100    2.6350   -0.0710 H   0  0  0  0  0  0  0  0  0  0  0  0
    8.2660    0.3740    0.5120 H   0  0  0  0  0  0  0  0  0  0  0  0
    6.7800   -1.4630    1.0030 H   0  0  0  0  0  0  0  0  0  0  0  0
    4.2950   -1.1650    0.9360 H   0  0  0  0  0  0  0  0  0  0  0  0
   -3.2340    0.2300    2.0440 C   0  0  0  0  0  0  0  0  0  0  0  0
   -2.0630   -0.6820    1.8320 C   0  0  2  0  0  0  0  0  0  0  0  0
   -0.8450    0.0600    1.5330 N   0  0  0  0  0  0  0  0  0  0  0  0
   -2.2380   -1.6680    0.7390 C   0  0  0  0  0  0  0  0  0  0  0  0
   -1.4250   -1.7350   -0.2390 O   0  0  0  0  0  0  0  0  0  0  0  0
   -2.9450    1.1660    2.5770 H   0  0  0  0  0  0  0  0  0  0  0  0
   -3.6290    0.5980    1.0520 H   0  0  0  0  0  0  0  0  0  0  0  0
   -4.0260   -0.2500    2.6520 H   0  0  0  0  0  0  0  0  0  0  0  0
   -1.9230   -1.2670    2.7930 H   0  0  0  0  0  0  0  0  0  0  0  0
   -0.8200    0.7570    0.7660 H   0  0  0  0  0  0  0  0  0  0  0  0
   -6.1760   -1.2490    0.2750 C   0  0  0  0  0  0  0  0  0  0  0  0
   -5.5400   -1.0240   -1.3770 S   0  0  0  0  0  0  0  0  0  0  0  0
   -4.9940   -2.5370   -2.1260 C   0  0  0  0  0  0  0  0  0  0  0  0
   -3.7310   -3.1550   -1.7190 C   0  0  0  0  0  0  0  0  0  0  0  0
   -3.4180   -3.5560   -0.3600 C   0  0  2  0  0  0  0  0  0  0  0  0
   -3.3230   -2.6210    0.6960 N   0  0  0  0  0  0  0  0  0  0  0  0
   -2.1340   -4.3920   -0.4430 C   0  0  0  0  0  0  0  0  0  0  0  0
   -1.2330   -4.2250    0.3990 O   0  0  0  0  0  0  0  0  0  0  0  0
   -2.0150   -5.3200   -1.4700 O   0  0  0  0  0  0  0  0  0  0  0  0
   -6.1620   -2.3070    0.6210 H   0  0  0  0  0  0  0  0  0  0  0  0
   -5.7340   -0.5290    0.9690 H   0  0  0  0  0  0  0  0  0  0  0  0
   -7.2770   -0.9550    0.2430 H   0  0  0  0  0  0  0  0  0  0  0  0
   -4.8830   -2.3080   -3.2480 H   0  0  0  0  0  0  0  0  0  0  0  0
   -5.8450   -3.2950   -2.1550 H   0  0  0  0  0  0  0  0  0  0  0  0
   -3.6630   -4.1270   -2.3500 H   0  0  0  0  0  0  0  0  0  0  0  0
   -2.8860   -2.5500   -2.2020 H   0  0  0  0  0  0  0  0  0  0  0  0
   -4.1550   -4.3710   -0.0490 H   0  0  0  0  0  0  0  0  0  0  0  0
   -3.9880   -2.5760    1.4820 H   0  0  0  0  0  0  0  0  0  0  0  0
  1 15  1  0  0  0  0
  1 16  1  0  0  0  0
  2 13  1  0  0  0  0
  2 17  1  1  0  0  0
  2  1  1  0  0  0  0
  3  2  1  0  0  0  0
  4 12  1  0  0  0  0
  4  3  1  0  0  0  0
  5  4  2  0  0  0  0
  6  5  1  0  0  0  0
  6  7  1  0  0  0  0
  7  8  2  0  0  0  0
  7 12  1  0  0  0  0
  8  9  1  0  0  0  0
  9 23  1  0  0  0  0
  9 10  2  0  0  0  0
 10 24  1  0  0  0  0
 11 10  1  0  0  0  0
 11 25  1  0  0  0  0
 12 11  2  0  0  0  0
 13 14  2  0  0  0  0
 18  3  1  0  0  0  0
 19  3  1  0  0  0  0
 20  5  1  0  0  0  0
 21  6  1  0  0  0  0
 22  8  1  0  0  0  0
 26 31  1  0  0  0  0
 26 33  1  0  0  0  0
 27 26  1  0  0  0  0
 27 34  1  1  0  0  0
 28 27  1  0  0  0  0
 28 13  1  0  0  0  0
 29 27  1  0  0  0  0
 30 29  2  0  0  0  0
 32 26  1  0  0  0  0
 35 28  1  0  0  0  0
 36 45  1  0  0  0  0
 36 46  1  0  0  0  0
 37 36  1  0  0  0  0
 38 39  1  0  0  0  0
 38 37  1  0  0  0  0
 39 40  1  0  0  0  0
 40 52  1  1  0  0  0
 40 41  1  0  0  0  0
 41 29  1  0  0  0  0
 41 53  1  0  0  0  0
 42 40  1  0  0  0  0
 42 43  1  0  0  0  0
 44 42  2  0  0  0  0
 47 36  1  0  0  0  0
 48 38  1  0  0  0  0
 49 38  1  0  0  0  0
 50 39  1  0  0  0  0
 51 39  1  0  0  0  0
M  END
$$$$
