WAQ.pdb
 OpenBabel07022419153D

 53 54  0  0  1  0  0  0  0  0999 V2000
    0.9650    1.4770   -2.8610 N   0  0  0  0  0  0  0  0  0  0  0  0
    1.9100    1.1080   -1.8140 C   0  0  1  0  0  0  0  0  0  0  0  0
    2.4850    2.3610   -1.2220 C   0  0  0  0  0  0  0  0  0  0  0  0
    3.4360    2.1210   -0.1240 C   0  0  0  0  0  0  0  0  0  0  0  0
    4.8250    1.9870   -0.2070 C   0  0  0  0  0  0  0  0  0  0  0  0
    5.3420    1.7370    1.0040 N   0  0  0  0  0  0  0  0  0  0  0  0
    4.3430    1.6940    1.9270 C   0  0  0  0  0  0  0  0  0  0  0  0
    4.3760    1.4870    3.2890 C   0  0  0  0  0  0  0  0  0  0  0  0
    3.2090    1.5100    4.0230 C   0  0  0  0  0  0  0  0  0  0  0  0
    2.0150    1.7460    3.3600 C   0  0  0  0  0  0  0  0  0  0  0  0
    2.0120    1.9490    1.9970 C   0  0  0  0  0  0  0  0  0  0  0  0
    3.1720    1.9300    1.2370 C   0  0  0  0  0  0  0  0  0  0  0  0
    1.3430    0.2340   -0.7850 C   0  0  0  0  0  0  0  0  0  0  0  0
    2.1070   -0.4230    0.0050 O   0  0  0  0  0  0  0  0  0  0  0  0
    0.7050    0.6390   -3.4090 H   0  0  0  0  0  0  0  0  0  0  0  0
    1.2870    2.2830   -3.4040 H   0  0  0  0  0  0  0  0  0  0  0  0
    2.7590    0.6200   -2.3630 H   0  0  0  0  0  0  0  0  0  0  0  0
    2.9940    2.9580   -2.0220 H   0  0  0  0  0  0  0  0  0  0  0  0
    1.6310    2.9820   -0.8090 H   0  0  0  0  0  0  0  0  0  0  0  0
    5.3400    2.0880   -1.1680 H   0  0  0  0  0  0  0  0  0  0  0  0
    6.3530    1.6000    1.1840 H   0  0  0  0  0  0  0  0  0  0  0  0
    5.2940    1.3010    3.8270 H   0  0  0  0  0  0  0  0  0  0  0  0
    3.2100    1.3480    5.1040 H   0  0  0  0  0  0  0  0  0  0  0  0
    1.1110    1.7610    3.9560 H   0  0  0  0  0  0  0  0  0  0  0  0
    1.0820    2.1340    1.4740 H   0  0  0  0  0  0  0  0  0  0  0  0
   -1.3430   -0.1420    1.4880 C   0  0  0  0  0  0  0  0  0  0  0  0
   -0.5130   -0.8410    0.4640 C   0  0  2  0  0  0  0  0  0  0  0  0
   -0.0480    0.0450   -0.5810 N   0  0  0  0  0  0  0  0  0  0  0  0
   -1.2050   -1.9850   -0.1990 C   0  0  0  0  0  0  0  0  0  0  0  0
   -1.2740   -2.0270   -1.4470 O   0  0  0  0  0  0  0  0  0  0  0  0
   -0.6980    0.5740    2.0160 H   0  0  0  0  0  0  0  0  0  0  0  0
   -2.2130    0.3560    1.0160 H   0  0  0  0  0  0  0  0  0  0  0  0
   -1.6820   -0.9070    2.2220 H   0  0  0  0  0  0  0  0  0  0  0  0
    0.3740   -1.2630    1.0320 H   0  0  0  0  0  0  0  0  0  0  0  0
   -0.7370    0.5370   -1.1750 H   0  0  0  0  0  0  0  0  0  0  0  0
   -5.4880   -2.3100    2.7150 N   0  0  0  0  0  0  0  0  0  0  0  0
   -4.7730   -2.5730    1.4800 C   0  0  0  0  0  0  0  0  0  0  0  0
   -4.1120   -1.6360    1.0280 O   0  0  0  0  0  0  0  0  0  0  0  0
   -4.8470   -3.8720    0.8260 C   0  0  0  0  0  0  0  0  0  0  0  0
   -3.8720   -4.1660   -0.2510 C   0  0  0  0  0  0  0  0  0  0  0  0
   -2.4380   -4.1990    0.0760 C   0  0  2  0  0  0  0  0  0  0  0  0
   -1.7890   -3.0410    0.5740 N   0  0  0  0  0  0  0  0  0  0  0  0
   -1.6840   -4.7970   -1.0840 C   0  0  0  0  0  0  0  0  0  0  0  0
   -0.5740   -4.3580   -1.3830 O   0  0  0  0  0  0  0  0  0  0  0  0
   -2.2190   -5.8380   -1.8270 O   0  0  0  0  0  0  0  0  0  0  0  0
   -5.2420   -2.8420    3.5830 H   0  0  0  0  0  0  0  0  0  0  0  0
   -6.2410   -1.6120    2.7850 H   0  0  0  0  0  0  0  0  0  0  0  0
   -5.8730   -3.9320    0.3390 H   0  0  0  0  0  0  0  0  0  0  0  0
   -4.8510   -4.7270    1.5450 H   0  0  0  0  0  0  0  0  0  0  0  0
   -4.1780   -5.1860   -0.6630 H   0  0  0  0  0  0  0  0  0  0  0  0
   -4.0690   -3.5070   -1.1570 H   0  0  0  0  0  0  0  0  0  0  0  0
   -2.2500   -4.9910    0.9230 H   0  0  0  0  0  0  0  0  0  0  0  0
   -1.6820   -2.8600    1.6330 H   0  0  0  0  0  0  0  0  0  0  0  0
  1  2  1  0  0  0  0
  2 17  1  6  0  0  0
  2  3  1  0  0  0  0
  2 13  1  0  0  0  0
  3 19  1  0  0  0  0
  3  4  1  0  0  0  0
  4 12  1  0  0  0  0
  5  4  2  0  0  0  0
  5  6  1  0  0  0  0
  6 21  1  0  0  0  0
  6  7  1  0  0  0  0
  7  8  1  0  0  0  0
  8 22  1  0  0  0  0
  8  9  2  0  0  0  0
  9 23  1  0  0  0  0
 10 24  1  0  0  0  0
 10  9  1  0  0  0  0
 11 10  2  0  0  0  0
 12  7  2  0  0  0  0
 12 11  1  0  0  0  0
 13 28  1  0  0  0  0
 13 14  2  0  0  0  0
 15  1  1  0  0  0  0
 16  1  1  0  0  0  0
 18  3  1  0  0  0  0
 20  5  1  0  0  0  0
 25 11  1  0  0  0  0
 26 31  1  0  0  0  0
 26 33  1  0  0  0  0
 27 34  1  1  0  0  0
 27 26  1  0  0  0  0
 28 27  1  0  0  0  0
 29 27  1  0  0  0  0
 29 42  1  0  0  0  0
 30 29  2  0  0  0  0
 32 26  1  0  0  0  0
 35 28  1  0  0  0  0
 36 47  1  0  0  0  0
 36 46  1  0  0  0  0
 37 36  1  0  0  0  0
 38 37  2  0  0  0  0
 39 37  1  0  0  0  0
 39 49  1  0  0  0  0
 40 41  1  0  0  0  0
 40 39  1  0  0  0  0
 41 42  1  0  0  0  0
 41 52  1  1  0  0  0
 42 53  1  0  0  0  0
 43 41  1  0  0  0  0
 44 43  1  0  0  0  0
 45 43  2  0  0  0  0
 48 39  1  0  0  0  0
 50 40  1  0  0  0  0
 51 40  1  0  0  0  0
M  END
$$$$
