WAS.pdb
 OpenBabel07022419153D

 47 48  0  0  1  0  0  0  0  0999 V2000
    1.0870   -2.5480   -0.1270 N   0  0  0  0  0  0  0  0  0  0  0  0
    1.4360   -1.3560    0.6300 C   0  0  1  0  0  0  0  0  0  0  0  0
    2.8670   -1.0170    0.2170 C   0  0  0  0  0  0  0  0  0  0  0  0
    3.3600    0.1810    0.9060 C   0  0  0  0  0  0  0  0  0  0  0  0
    3.4750    1.4240    0.3190 C   0  0  0  0  0  0  0  0  0  0  0  0
    3.9540    2.2610    1.2390 N   0  0  0  0  0  0  0  0  0  0  0  0
    4.1560    1.6130    2.4030 C   0  0  0  0  0  0  0  0  0  0  0  0
    4.6310    2.0120    3.6520 C   0  0  0  0  0  0  0  0  0  0  0  0
    4.7450    1.1350    4.7090 C   0  0  0  0  0  0  0  0  0  0  0  0
    4.3730   -0.1720    4.5030 C   0  0  0  0  0  0  0  0  0  0  0  0
    3.9040   -0.5610    3.2660 C   0  0  0  0  0  0  0  0  0  0  0  0
    3.7840    0.2940    2.2070 C   0  0  0  0  0  0  0  0  0  0  0  0
    0.5080   -0.2620    0.3270 C   0  0  0  0  0  0  0  0  0  0  0  0
    0.5530    0.8720    0.8640 O   0  0  0  0  0  0  0  0  0  0  0  0
    1.8620   -3.2650    0.0130 H   0  0  0  0  0  0  0  0  0  0  0  0
    0.2430   -3.0190    0.3040 H   0  0  0  0  0  0  0  0  0  0  0  0
    1.4480   -1.6360    1.6950 H   0  0  0  0  0  0  0  0  0  0  0  0
    3.4920   -1.8730    0.5430 H   0  0  0  0  0  0  0  0  0  0  0  0
    2.8590   -0.9100   -0.8750 H   0  0  0  0  0  0  0  0  0  0  0  0
    3.2210    1.6560   -0.6900 H   0  0  0  0  0  0  0  0  0  0  0  0
    4.1650    3.2980    1.1300 H   0  0  0  0  0  0  0  0  0  0  0  0
    4.9130    3.0350    3.7810 H   0  0  0  0  0  0  0  0  0  0  0  0
    5.1170    1.4630    5.6740 H   0  0  0  0  0  0  0  0  0  0  0  0
    4.4410   -0.9050    5.2950 H   0  0  0  0  0  0  0  0  0  0  0  0
    3.6080   -1.6030    3.1040 H   0  0  0  0  0  0  0  0  0  0  0  0
   -1.4050    0.9790   -2.4110 C   0  0  0  0  0  0  0  0  0  0  0  0
   -1.4490    0.5830   -0.9560 C   0  0  2  0  0  0  0  0  0  0  0  0
   -0.5240   -0.4650   -0.6370 N   0  0  0  0  0  0  0  0  0  0  0  0
   -2.8280    0.1220   -0.6660 C   0  0  0  0  0  0  0  0  0  0  0  0
   -3.8510    0.8360   -0.8370 O   0  0  0  0  0  0  0  0  0  0  0  0
   -1.3190    0.1020   -3.0880 H   0  0  0  0  0  0  0  0  0  0  0  0
   -0.6090    1.7240   -2.5600 H   0  0  0  0  0  0  0  0  0  0  0  0
   -2.3700    1.4710   -2.6510 H   0  0  0  0  0  0  0  0  0  0  0  0
   -1.1990    1.4870   -0.3580 H   0  0  0  0  0  0  0  0  0  0  0  0
   -0.6260   -1.3770   -1.1310 H   0  0  0  0  0  0  0  0  0  0  0  0
   -6.1130   -3.1870   -0.4210 O   0  0  0  0  0  0  0  0  0  0  0  0
   -4.8360   -2.7830   -0.8110 C   0  0  0  0  0  0  0  0  0  0  0  0
   -4.3860   -1.6910    0.1320 C   0  0  2  0  0  0  0  0  0  0  0  0
   -3.0810   -1.1930   -0.1640 N   0  0  0  0  0  0  0  0  0  0  0  0
   -4.5790   -2.0590    1.5470 C   0  0  0  0  0  0  0  0  0  0  0  0
   -3.6300   -1.9100    2.3430 O   0  0  0  0  0  0  0  0  0  0  0  0
   -5.7660   -2.5620    2.0310 O   0  0  0  0  0  0  0  0  0  0  0  0
   -6.5120   -3.8330   -1.0510 H   0  0  0  0  0  0  0  0  0  0  0  0
   -4.9890   -2.3540   -1.8470 H   0  0  0  0  0  0  0  0  0  0  0  0
   -4.1200   -3.5980   -0.9350 H   0  0  0  0  0  0  0  0  0  0  0  0
   -5.0990   -0.8350   -0.0660 H   0  0  0  0  0  0  0  0  0  0  0  0
   -2.2460   -1.8260   -0.0060 H   0  0  0  0  0  0  0  0  0  0  0  0
  1 15  1  0  0  0  0
  1 16  1  0  0  0  0
  1  2  1  0  0  0  0
  2 17  1  1  0  0  0
  3 18  1  0  0  0  0
  3  2  1  0  0  0  0
  3  4  1  0  0  0  0
  4 12  1  0  0  0  0
  5  4  2  0  0  0  0
  5  6  1  0  0  0  0
  6  7  1  0  0  0  0
  7  8  1  0  0  0  0
  8 22  1  0  0  0  0
  8  9  2  0  0  0  0
  9 23  1  0  0  0  0
 10  9  1  0  0  0  0
 10 24  1  0  0  0  0
 11 10  2  0  0  0  0
 12  7  2  0  0  0  0
 12 11  1  0  0  0  0
 13  2  1  0  0  0  0
 13 14  2  0  0  0  0
 19  3  1  0  0  0  0
 20  5  1  0  0  0  0
 21  6  1  0  0  0  0
 25 11  1  0  0  0  0
 26 27  1  0  0  0  0
 27 29  1  0  0  0  0
 27 28  1  0  0  0  0
 27 34  1  1  0  0  0
 28 13  1  0  0  0  0
 29 39  1  0  0  0  0
 30 29  2  0  0  0  0
 31 26  1  0  0  0  0
 32 26  1  0  0  0  0
 33 26  1  0  0  0  0
 35 28  1  0  0  0  0
 37 36  1  0  0  0  0
 37 38  1  0  0  0  0
 38 46  1  6  0  0  0
 38 40  1  0  0  0  0
 39 47  1  0  0  0  0
 39 38  1  0  0  0  0
 40 42  2  0  0  0  0
 40 41  1  0  0  0  0
 43 36  1  0  0  0  0
 44 37  1  0  0  0  0
 45 37  1  0  0  0  0
M  END
$$$$
