WCA.pdb
 OpenBabel07022419163D

 47 48  0  0  1  0  0  0  0  0999 V2000
    1.8170   -2.4950   -1.4990 N   0  0  0  0  0  0  0  0  0  0  0  0
    1.9940   -1.7040   -0.3190 C   0  0  1  0  0  0  0  0  0  0  0  0
    2.9710   -0.5840   -0.7080 C   0  0  0  0  0  0  0  0  0  0  0  0
    3.2630    0.3200    0.3990 C   0  0  0  0  0  0  0  0  0  0  0  0
    2.7470    1.5840    0.5590 C   0  0  0  0  0  0  0  0  0  0  0  0
    3.2700    2.0650    1.6990 N   0  0  0  0  0  0  0  0  0  0  0  0
    4.0900    1.1590    2.2610 C   0  0  0  0  0  0  0  0  0  0  0  0
    4.8450    1.1610    3.3960 C   0  0  0  0  0  0  0  0  0  0  0  0
    5.6170    0.0860    3.7620 C   0  0  0  0  0  0  0  0  0  0  0  0
    5.6410   -1.0300    2.9720 C   0  0  0  0  0  0  0  0  0  0  0  0
    4.8820   -1.0450    1.8210 C   0  0  0  0  0  0  0  0  0  0  0  0
    4.0990    0.0530    1.4570 C   0  0  0  0  0  0  0  0  0  0  0  0
    0.7490   -1.0110    0.1000 C   0  0  0  0  0  0  0  0  0  0  0  0
    0.7900   -0.2990    1.1320 O   0  0  0  0  0  0  0  0  0  0  0  0
    1.1920   -3.2980   -1.4070 H   0  0  0  0  0  0  0  0  0  0  0  0
    1.7410   -1.9610   -2.3790 H   0  0  0  0  0  0  0  0  0  0  0  0
    2.3820   -2.3190    0.4990 H   0  0  0  0  0  0  0  0  0  0  0  0
    3.8670   -1.1130   -1.1020 H   0  0  0  0  0  0  0  0  0  0  0  0
    2.5130   -0.0820   -1.5880 H   0  0  0  0  0  0  0  0  0  0  0  0
    2.0470    2.1080   -0.1040 H   0  0  0  0  0  0  0  0  0  0  0  0
    3.0670    3.0090    2.0910 H   0  0  0  0  0  0  0  0  0  0  0  0
    4.8420    2.0360    4.0390 H   0  0  0  0  0  0  0  0  0  0  0  0
    6.2180    0.1130    4.6830 H   0  0  0  0  0  0  0  0  0  0  0  0
    6.2260   -1.8930    3.2150 H   0  0  0  0  0  0  0  0  0  0  0  0
    4.9110   -1.9360    1.2060 H   0  0  0  0  0  0  0  0  0  0  0  0
   -0.4720   -1.1100   -0.5930 N   0  0  0  0  0  0  0  0  0  0  0  0
   -1.6310   -0.4100   -0.1210 C   0  0  1  0  0  0  0  0  0  0  0  0
   -2.1310    0.6110   -1.1260 C   0  0  0  0  0  0  0  0  0  0  0  0
   -0.8880    1.8480   -1.4900 S   0  0  0  0  0  0  0  0  0  0  0  0
   -2.7300   -1.3520    0.2600 C   0  0  0  0  0  0  0  0  0  0  0  0
   -2.5010   -2.5800    0.1140 O   0  0  0  0  0  0  0  0  0  0  0  0
   -0.4830   -1.7200   -1.4650 H   0  0  0  0  0  0  0  0  0  0  0  0
   -1.3570    0.1400    0.7980 H   0  0  0  0  0  0  0  0  0  0  0  0
   -2.5080    0.0810   -2.0400 H   0  0  0  0  0  0  0  0  0  0  0  0
   -3.0160    1.0970   -0.6720 H   0  0  0  0  0  0  0  0  0  0  0  0
   -1.1540    3.0000   -0.7250 H   0  0  0  0  0  0  0  0  0  0  0  0
   -5.3000   -1.8120    2.6180 C   0  0  0  0  0  0  0  0  0  0  0  0
   -5.0010   -1.8470    1.1140 C   0  0  2  0  0  0  0  0  0  0  0  0
   -3.9750   -0.8900    0.7630 N   0  0  0  0  0  0  0  0  0  0  0  0
   -6.2340   -1.6060    0.3290 C   0  0  0  0  0  0  0  0  0  0  0  0
   -7.2250   -2.3540    0.5010 O   0  0  0  0  0  0  0  0  0  0  0  0
   -6.3180   -0.5650   -0.6000 O   0  0  0  0  0  0  0  0  0  0  0  0
   -5.6680   -0.8210    2.9320 H   0  0  0  0  0  0  0  0  0  0  0  0
   -6.0900   -2.5760    2.8020 H   0  0  0  0  0  0  0  0  0  0  0  0
   -4.3900   -2.0810    3.1590 H   0  0  0  0  0  0  0  0  0  0  0  0
   -4.6520   -2.8720    0.9090 H   0  0  0  0  0  0  0  0  0  0  0  0
   -4.0870    0.1350    0.8560 H   0  0  0  0  0  0  0  0  0  0  0  0
  1 15  1  0  0  0  0
  1  2  1  0  0  0  0
  2 13  1  0  0  0  0
  2 17  1  1  0  0  0
  3  2  1  0  0  0  0
  3  4  1  0  0  0  0
  4  5  2  0  0  0  0
  4 12  1  0  0  0  0
  5  6  1  0  0  0  0
  6 21  1  0  0  0  0
  6  7  1  0  0  0  0
  7  8  1  0  0  0  0
  8  9  2  0  0  0  0
  8 22  1  0  0  0  0
  9 23  1  0  0  0  0
 10 24  1  0  0  0  0
 10  9  1  0  0  0  0
 11 10  2  0  0  0  0
 12 11  1  0  0  0  0
 12  7  2  0  0  0  0
 13 14  2  0  0  0  0
 16  1  1  0  0  0  0
 18  3  1  0  0  0  0
 19  3  1  0  0  0  0
 20  5  1  0  0  0  0
 25 11  1  0  0  0  0
 26 27  1  0  0  0  0
 26 13  1  0  0  0  0
 27 30  1  0  0  0  0
 27 33  1  1  0  0  0
 28 35  1  0  0  0  0
 28 27  1  0  0  0  0
 29 28  1  0  0  0  0
 29 36  1  0  0  0  0
 30 39  1  0  0  0  0
 31 30  2  0  0  0  0
 32 26  1  0  0  0  0
 34 28  1  0  0  0  0
 37 44  1  0  0  0  0
 37 43  1  0  0  0  0
 37 45  1  0  0  0  0
 38 46  1  6  0  0  0
 38 37  1  0  0  0  0
 39 47  1  0  0  0  0
 39 38  1  0  0  0  0
 40 41  1  0  0  0  0
 40 38  1  0  0  0  0
 42 40  2  0  0  0  0
M  END
$$$$
