WCE.pdb
 OpenBabel07022419163D

 53 54  0  0  1  0  0  0  0  0999 V2000
    2.2250   -0.5640   -0.2120 N   0  0  0  0  0  0  0  0  0  0  0  0
    2.3730   -1.4030    0.9510 C   0  0  1  0  0  0  0  0  0  0  0  0
    3.4410   -0.9340    1.9020 C   0  0  0  0  0  0  0  0  0  0  0  0
    3.2550    0.4000    2.4520 C   0  0  0  0  0  0  0  0  0  0  0  0
    2.7280    0.7220    3.6940 C   0  0  0  0  0  0  0  0  0  0  0  0
    2.6920    2.0550    3.8340 N   0  0  0  0  0  0  0  0  0  0  0  0
    3.1900    2.6280    2.6980 C   0  0  0  0  0  0  0  0  0  0  0  0
    3.3810    3.9430    2.3230 C   0  0  0  0  0  0  0  0  0  0  0  0
    3.9190    4.3040    1.1050 C   0  0  0  0  0  0  0  0  0  0  0  0
    4.2640    3.2700    0.2600 C   0  0  0  0  0  0  0  0  0  0  0  0
    4.0820    1.9490    0.6120 C   0  0  0  0  0  0  0  0  0  0  0  0
    3.5380    1.6000    1.8440 C   0  0  0  0  0  0  0  0  0  0  0  0
    1.0770   -1.5580    1.6680 C   0  0  0  0  0  0  0  0  0  0  0  0
    0.9960   -2.2570    2.7120 O   0  0  0  0  0  0  0  0  0  0  0  0
    1.8170   -1.0410   -1.0230 H   0  0  0  0  0  0  0  0  0  0  0  0
    1.7590    0.3330   -0.0460 H   0  0  0  0  0  0  0  0  0  0  0  0
    2.7270   -2.3990    0.5510 H   0  0  0  0  0  0  0  0  0  0  0  0
    3.4820   -1.6720    2.7500 H   0  0  0  0  0  0  0  0  0  0  0  0
    4.4500   -1.0390    1.4090 H   0  0  0  0  0  0  0  0  0  0  0  0
    2.3770    0.0480    4.4840 H   0  0  0  0  0  0  0  0  0  0  0  0
    2.3580    2.6380    4.6370 H   0  0  0  0  0  0  0  0  0  0  0  0
    3.0950    4.7390    3.0210 H   0  0  0  0  0  0  0  0  0  0  0  0
    4.0670    5.3380    0.8160 H   0  0  0  0  0  0  0  0  0  0  0  0
    4.7000    3.4770   -0.7300 H   0  0  0  0  0  0  0  0  0  0  0  0
    4.3610    1.1320   -0.0440 H   0  0  0  0  0  0  0  0  0  0  0  0
   -0.1270   -0.9400    1.2280 N   0  0  0  0  0  0  0  0  0  0  0  0
   -1.3960   -1.0750    1.9060 C   0  0  1  0  0  0  0  0  0  0  0  0
   -1.9230    0.2810    2.3250 C   0  0  0  0  0  0  0  0  0  0  0  0
   -3.5000    0.1540    3.1720 S   0  0  0  0  0  0  0  0  0  0  0  0
   -2.3360   -1.7710    1.0050 C   0  0  0  0  0  0  0  0  0  0  0  0
   -3.5360   -2.0060    1.3700 O   0  0  0  0  0  0  0  0  0  0  0  0
   -0.1210   -0.3460    0.3650 H   0  0  0  0  0  0  0  0  0  0  0  0
   -1.2980   -1.7340    2.8120 H   0  0  0  0  0  0  0  0  0  0  0  0
   -2.0390    0.9030    1.4190 H   0  0  0  0  0  0  0  0  0  0  0  0
   -1.1480    0.7490    2.9660 H   0  0  0  0  0  0  0  0  0  0  0  0
   -3.3210    0.0790    4.5760 H   0  0  0  0  0  0  0  0  0  0  0  0
   -1.8980   -2.1770   -0.2700 N   0  0  0  0  0  0  0  0  0  0  0  0
   -2.7760   -2.8750   -1.2250 C   0  0  1  0  0  0  0  0  0  0  0  0
   -2.8300   -2.1380   -2.5190 C   0  0  0  0  0  0  0  0  0  0  0  0
   -3.7290   -2.8270   -3.4990 C   0  0  0  0  0  0  0  0  0  0  0  0
   -5.1200   -2.9580   -2.9720 C   0  0  0  0  0  0  0  0  0  0  0  0
   -5.8110   -1.9140   -2.8490 O   0  0  0  0  0  0  0  0  0  0  0  0
   -2.2000   -4.2210   -1.4260 C   0  0  0  0  0  0  0  0  0  0  0  0
   -1.0960   -4.5420   -0.8730 O   0  0  0  0  0  0  0  0  0  0  0  0
   -5.6670   -4.1650   -2.6200 O   0  0  0  0  0  0  0  0  0  0  0  0
   -2.7770   -5.2200   -2.1950 O   0  0  0  0  0  0  0  0  0  0  0  0
   -0.9220   -1.9800   -0.5510 H   0  0  0  0  0  0  0  0  0  0  0  0
   -3.7570   -2.9980   -0.7650 H   0  0  0  0  0  0  0  0  0  0  0  0
   -3.1210   -1.0700   -2.3850 H   0  0  0  0  0  0  0  0  0  0  0  0
   -1.8100   -2.1190   -3.0060 H   0  0  0  0  0  0  0  0  0  0  0  0
   -3.3060   -3.7860   -3.8270 H   0  0  0  0  0  0  0  0  0  0  0  0
   -3.7930   -2.2020   -4.4380 H   0  0  0  0  0  0  0  0  0  0  0  0
   -6.5080   -4.1450   -2.0270 H   0  0  0  0  0  0  0  0  0  0  0  0
  1 16  1  0  0  0  0
  1  2  1  0  0  0  0
  2 17  1  6  0  0  0
  2 13  1  0  0  0  0
  2  3  1  0  0  0  0
  3  4  1  0  0  0  0
  3 18  1  0  0  0  0
  4  5  2  0  0  0  0
  5  6  1  0  0  0  0
  5 20  1  0  0  0  0
  6 21  1  0  0  0  0
  7  6  1  0  0  0  0
  8  7  1  0  0  0  0
  8 22  1  0  0  0  0
  9  8  2  0  0  0  0
 10 11  2  0  0  0  0
 10  9  1  0  0  0  0
 11 12  1  0  0  0  0
 12  4  1  0  0  0  0
 12  7  2  0  0  0  0
 13 14  2  0  0  0  0
 15  1  1  0  0  0  0
 19  3  1  0  0  0  0
 23  9  1  0  0  0  0
 24 10  1  0  0  0  0
 25 11  1  0  0  0  0
 26 13  1  0  0  0  0
 26 27  1  0  0  0  0
 27 28  1  0  0  0  0
 27 33  1  1  0  0  0
 28 35  1  0  0  0  0
 28 29  1  0  0  0  0
 29 36  1  0  0  0  0
 30 31  2  0  0  0  0
 30 27  1  0  0  0  0
 32 26  1  0  0  0  0
 34 28  1  0  0  0  0
 37 30  1  0  0  0  0
 38 48  1  1  0  0  0
 38 37  1  0  0  0  0
 39 49  1  0  0  0  0
 39 38  1  0  0  0  0
 40 41  1  0  0  0  0
 40 39  1  0  0  0  0
 41 42  2  0  0  0  0
 41 45  1  0  0  0  0
 43 38  1  0  0  0  0
 43 44  1  0  0  0  0
 45 53  1  0  0  0  0
 46 43  2  0  0  0  0
 47 37  1  0  0  0  0
 50 39  1  0  0  0  0
 51 40  1  0  0  0  0
 52 40  1  0  0  0  0
M  END
$$$$
