WCF.pdb
 OpenBabel07022419163D

 57 59  0  0  1  0  0  0  0  0999 V2000
    0.4120    1.2670    1.7460 N   0  0  0  0  0  0  0  0  0  0  0  0
    1.5520    0.4680    2.1030 C   0  0  1  0  0  0  0  0  0  0  0  0
    2.1270    0.9260    3.4320 C   0  0  0  0  0  0  0  0  0  0  0  0
    2.5310    2.3510    3.2450 C   0  0  0  0  0  0  0  0  0  0  0  0
    1.9020    3.5000    3.6700 C   0  0  0  0  0  0  0  0  0  0  0  0
    2.6160    4.5720    3.2770 N   0  0  0  0  0  0  0  0  0  0  0  0
    3.7100    4.1940    2.5990 C   0  0  0  0  0  0  0  0  0  0  0  0
    4.7360    4.8990    2.0040 C   0  0  0  0  0  0  0  0  0  0  0  0
    5.7600    4.2380    1.3580 C   0  0  0  0  0  0  0  0  0  0  0  0
    5.7140    2.8550    1.3340 C   0  0  0  0  0  0  0  0  0  0  0  0
    4.6860    2.1390    1.9290 C   0  0  0  0  0  0  0  0  0  0  0  0
    3.6700    2.8040    2.5700 C   0  0  0  0  0  0  0  0  0  0  0  0
    1.1980   -0.9810    2.2200 C   0  0  0  0  0  0  0  0  0  0  0  0
    2.1020   -1.8380    2.4850 O   0  0  0  0  0  0  0  0  0  0  0  0
   -0.0530    0.8130    0.9160 H   0  0  0  0  0  0  0  0  0  0  0  0
    0.7460    2.1940    1.3880 H   0  0  0  0  0  0  0  0  0  0  0  0
    2.3510    0.6360    1.3470 H   0  0  0  0  0  0  0  0  0  0  0  0
    3.0330    0.3490    3.6980 H   0  0  0  0  0  0  0  0  0  0  0  0
    1.3960    0.8440    4.2460 H   0  0  0  0  0  0  0  0  0  0  0  0
    0.9660    3.4760    4.2380 H   0  0  0  0  0  0  0  0  0  0  0  0
    2.3440    5.5570    3.4800 H   0  0  0  0  0  0  0  0  0  0  0  0
    4.7900    5.9780    2.0120 H   0  0  0  0  0  0  0  0  0  0  0  0
    6.5930    4.7620    0.8740 H   0  0  0  0  0  0  0  0  0  0  0  0
    6.5070    2.3120    0.8330 H   0  0  0  0  0  0  0  0  0  0  0  0
    4.6440    1.0550    1.9140 H   0  0  0  0  0  0  0  0  0  0  0  0
   -0.1120   -1.4690    2.0490 N   0  0  0  0  0  0  0  0  0  0  0  0
   -0.3850   -2.8760    2.1730 C   0  0  1  0  0  0  0  0  0  0  0  0
   -1.2960   -3.1470    3.3810 C   0  0  0  0  0  0  0  0  0  0  0  0
   -1.5760   -4.9200    3.4500 S   0  0  0  0  0  0  0  0  0  0  0  0
   -0.9860   -3.4360    0.9400 C   0  0  0  0  0  0  0  0  0  0  0  0
   -1.2700   -4.6520    0.8930 O   0  0  0  0  0  0  0  0  0  0  0  0
   -0.8790   -0.8150    1.8350 H   0  0  0  0  0  0  0  0  0  0  0  0
    0.5820   -3.4340    2.3570 H   0  0  0  0  0  0  0  0  0  0  0  0
   -0.7840   -2.7830    4.2870 H   0  0  0  0  0  0  0  0  0  0  0  0
   -2.2390   -2.5820    3.2310 H   0  0  0  0  0  0  0  0  0  0  0  0
   -2.7850   -5.2550    4.0850 H   0  0  0  0  0  0  0  0  0  0  0  0
   -1.2270   -2.5940   -0.1560 N   0  0  0  0  0  0  0  0  0  0  0  0
   -1.8170   -3.0550   -1.4150 C   0  0  1  0  0  0  0  0  0  0  0  0
   -3.1480   -2.3990   -1.5870 C   0  0  0  0  0  0  0  0  0  0  0  0
   -3.7990   -2.8190   -2.8360 C   0  0  0  0  0  0  0  0  0  0  0  0
   -3.6350   -2.1110   -4.0070 C   0  0  0  0  0  0  0  0  0  0  0  0
   -4.2390   -2.4830   -5.1860 C   0  0  0  0  0  0  0  0  0  0  0  0
   -5.0260   -3.5930   -5.1930 C   0  0  0  0  0  0  0  0  0  0  0  0
   -5.2090   -4.3250   -4.0360 C   0  0  0  0  0  0  0  0  0  0  0  0
   -4.6010   -3.9440   -2.8590 C   0  0  0  0  0  0  0  0  0  0  0  0
   -0.8930   -2.8900   -2.5360 C   0  0  0  0  0  0  0  0  0  0  0  0
   -1.2070   -3.2800   -3.6780 O   0  0  0  0  0  0  0  0  0  0  0  0
    0.3370   -2.2990   -2.3360 O   0  0  0  0  0  0  0  0  0  0  0  0
   -0.9840   -1.5930   -0.0960 H   0  0  0  0  0  0  0  0  0  0  0  0
   -1.9770   -4.1640   -1.2710 H   0  0  0  0  0  0  0  0  0  0  0  0
   -2.9980   -1.2990   -1.5780 H   0  0  0  0  0  0  0  0  0  0  0  0
   -3.7960   -2.7120   -0.7140 H   0  0  0  0  0  0  0  0  0  0  0  0
   -2.9930   -1.2200   -3.9570 H   0  0  0  0  0  0  0  0  0  0  0  0
   -4.0560   -1.8650   -6.0710 H   0  0  0  0  0  0  0  0  0  0  0  0
   -5.5110   -3.9110   -6.0980 H   0  0  0  0  0  0  0  0  0  0  0  0
   -5.8420   -5.1980   -4.0860 H   0  0  0  0  0  0  0  0  0  0  0  0
   -4.7320   -4.5070   -1.9350 H   0  0  0  0  0  0  0  0  0  0  0  0
  1  2  1  0  0  0  0
  2 17  1  6  0  0  0
  2 13  1  0  0  0  0
  2  3  1  0  0  0  0
  3 18  1  0  0  0  0
  3 19  1  0  0  0  0
  4  3  1  0  0  0  0
  4  5  2  0  0  0  0
  5 20  1  0  0  0  0
  6 21  1  0  0  0  0
  6  5  1  0  0  0  0
  7  6  1  0  0  0  0
  8 22  1  0  0  0  0
  8  7  2  0  0  0  0
  9  8  1  0  0  0  0
 10  9  2  0  0  0  0
 10 11  1  0  0  0  0
 11 12  2  0  0  0  0
 12  7  1  0  0  0  0
 12  4  1  0  0  0  0
 13 14  2  0  0  0  0
 15  1  1  0  0  0  0
 16  1  1  0  0  0  0
 23  9  1  0  0  0  0
 24 10  1  0  0  0  0
 25 11  1  0  0  0  0
 26 27  1  0  0  0  0
 26 13  1  0  0  0  0
 27 33  1  1  0  0  0
 27 28  1  0  0  0  0
 28 29  1  0  0  0  0
 28 34  1  0  0  0  0
 29 36  1  0  0  0  0
 30 27  1  0  0  0  0
 31 30  2  0  0  0  0
 32 26  1  0  0  0  0
 35 28  1  0  0  0  0
 37 49  1  0  0  0  0
 37 30  1  0  0  0  0
 38 50  1  1  0  0  0
 38 37  1  0  0  0  0
 39 51  1  0  0  0  0
 39 38  1  0  0  0  0
 39 52  1  0  0  0  0
 40 39  1  0  0  0  0
 41 53  1  0  0  0  0
 41 40  2  0  0  0  0
 42 41  1  0  0  0  0
 43 42  2  0  0  0  0
 43 44  1  0  0  0  0
 44 45  2  0  0  0  0
 45 40  1  0  0  0  0
 45 57  1  0  0  0  0
 46 48  1  0  0  0  0
 46 38  1  0  0  0  0
 47 46  2  0  0  0  0
 54 42  1  0  0  0  0
 55 43  1  0  0  0  0
 56 44  1  0  0  0  0
M  END
$$$$
