WCP.pdb
 OpenBabel07022419163D

 51 53  0  0  1  0  0  0  0  0999 V2000
    1.4510    2.6830    0.9390 N   0  0  0  0  0  0  0  0  0  0  0  0
    2.1030    1.5630    0.2230 C   0  0  1  0  0  0  0  0  0  0  0  0
    3.4320    1.3800    0.8040 C   0  0  0  0  0  0  0  0  0  0  0  0
    3.5050    1.0330    2.2350 C   0  0  0  0  0  0  0  0  0  0  0  0
    3.5940    1.9670    3.2700 C   0  0  0  0  0  0  0  0  0  0  0  0
    3.5930    1.3450    4.4460 N   0  0  0  0  0  0  0  0  0  0  0  0
    3.5050    0.0030    4.2770 C   0  0  0  0  0  0  0  0  0  0  0  0
    3.4790   -1.0610    5.1640 C   0  0  0  0  0  0  0  0  0  0  0  0
    3.4000   -2.3360    4.6590 C   0  0  0  0  0  0  0  0  0  0  0  0
    3.3480   -2.5500    3.3060 C   0  0  0  0  0  0  0  0  0  0  0  0
    3.3740   -1.4710    2.4170 C   0  0  0  0  0  0  0  0  0  0  0  0
    3.4510   -0.1810    2.8910 C   0  0  0  0  0  0  0  0  0  0  0  0
    1.1810    0.4540    0.0500 C   0  0  0  0  0  0  0  0  0  0  0  0
    1.5200   -0.6990   -0.2830 O   0  0  0  0  0  0  0  0  0  0  0  0
    0.7650    3.1570    0.3290 H   0  0  0  0  0  0  0  0  0  0  0  0
    0.9270    2.2910    1.7780 H   0  0  0  0  0  0  0  0  0  0  0  0
    2.2630    2.0160   -0.8180 H   0  0  0  0  0  0  0  0  0  0  0  0
    3.9730    2.3850    0.7110 H   0  0  0  0  0  0  0  0  0  0  0  0
    4.1020    0.6940    0.2230 H   0  0  0  0  0  0  0  0  0  0  0  0
    3.6550    3.0360    3.1090 H   0  0  0  0  0  0  0  0  0  0  0  0
    3.6500    1.7690    5.4060 H   0  0  0  0  0  0  0  0  0  0  0  0
    3.5230   -0.8990    6.2120 H   0  0  0  0  0  0  0  0  0  0  0  0
    3.3750   -3.1940    5.3520 H   0  0  0  0  0  0  0  0  0  0  0  0
    3.2880   -3.5500    2.8950 H   0  0  0  0  0  0  0  0  0  0  0  0
    3.3560   -1.6230    1.3570 H   0  0  0  0  0  0  0  0  0  0  0  0
   -0.2410    0.6290    0.2590 N   0  0  0  0  0  0  0  0  0  0  0  0
   -1.1960   -0.4920    0.0990 C   0  0  1  0  0  0  0  0  0  0  0  0
   -2.2150   -0.4410    1.1750 C   0  0  0  0  0  0  0  0  0  0  0  0
   -3.2090    1.0750    1.1320 S   0  0  0  0  0  0  0  0  0  0  0  0
   -1.6660   -0.5390   -1.2850 C   0  0  0  0  0  0  0  0  0  0  0  0
   -1.1090    0.2980   -2.0810 O   0  0  0  0  0  0  0  0  0  0  0  0
   -0.5460    1.5820    0.5240 H   0  0  0  0  0  0  0  0  0  0  0  0
   -0.5580   -1.4000    0.2340 H   0  0  0  0  0  0  0  0  0  0  0  0
   -2.7390   -1.3600    1.3280 H   0  0  0  0  0  0  0  0  0  0  0  0
   -1.5960   -0.3260    2.1530 H   0  0  0  0  0  0  0  0  0  0  0  0
   -2.9460    1.8470   -0.0320 H   0  0  0  0  0  0  0  0  0  0  0  0
   -2.6430   -1.3820   -1.8580 N   0  0  0  0  0  0  0  0  0  0  0  0
   -2.9640   -1.3680   -3.3110 C   0  0  0  0  0  0  0  0  0  0  0  0
   -3.8220   -2.5710   -3.5320 C   0  0  0  0  0  0  0  0  0  0  0  0
   -4.5840   -2.6400   -2.2470 C   0  0  0  0  0  0  0  0  0  0  0  0
   -3.4860   -2.3340   -1.2190 C   0  0  1  0  0  0  0  0  0  0  0  0
   -2.8480   -3.6300   -0.9180 C   0  0  0  0  0  0  0  0  0  0  0  0
   -1.6630   -3.8720   -1.2380 O   0  0  0  0  0  0  0  0  0  0  0  0
   -3.5520   -4.6390   -0.2620 O   0  0  0  0  0  0  0  0  0  0  0  0
   -3.5320   -0.4650   -3.5760 H   0  0  0  0  0  0  0  0  0  0  0  0
   -2.0290   -1.4480   -3.8890 H   0  0  0  0  0  0  0  0  0  0  0  0
   -3.2650   -3.4880   -3.7200 H   0  0  0  0  0  0  0  0  0  0  0  0
   -4.5050   -2.4430   -4.4200 H   0  0  0  0  0  0  0  0  0  0  0  0
   -5.0270   -3.6410   -2.0540 H   0  0  0  0  0  0  0  0  0  0  0  0
   -5.3290   -1.8170   -2.2500 H   0  0  0  0  0  0  0  0  0  0  0  0
   -4.0460   -1.9280   -0.3350 H   0  0  0  0  0  0  0  0  0  0  0  0
  1 16  1  0  0  0  0
  2 17  1  6  0  0  0
  2  3  1  0  0  0  0
  2  1  1  0  0  0  0
  3  4  1  0  0  0  0
  4 12  1  0  0  0  0
  4  5  2  0  0  0  0
  5  6  1  0  0  0  0
  6 21  1  0  0  0  0
  7  6  1  0  0  0  0
  7  8  1  0  0  0  0
  8 22  1  0  0  0  0
  9  8  2  0  0  0  0
  9 23  1  0  0  0  0
 10  9  1  0  0  0  0
 11 12  1  0  0  0  0
 11 10  2  0  0  0  0
 12  7  2  0  0  0  0
 13  2  1  0  0  0  0
 13 26  1  0  0  0  0
 14 13  2  0  0  0  0
 15  1  1  0  0  0  0
 18  3  1  0  0  0  0
 19  3  1  0  0  0  0
 20  5  1  0  0  0  0
 24 10  1  0  0  0  0
 25 11  1  0  0  0  0
 26 32  1  0  0  0  0
 27 33  1  1  0  0  0
 27 26  1  0  0  0  0
 27 28  1  0  0  0  0
 28 34  1  0  0  0  0
 28 35  1  0  0  0  0
 29 28  1  0  0  0  0
 30 27  1  0  0  0  0
 31 30  2  0  0  0  0
 36 29  1  0  0  0  0
 37 30  1  0  0  0  0
 37 41  1  0  0  0  0
 38 37  1  0  0  0  0
 39 38  1  0  0  0  0
 39 40  1  0  0  0  0
 40 49  1  0  0  0  0
 40 41  1  0  0  0  0
 41 42  1  0  0  0  0
 41 51  1  1  0  0  0
 42 44  1  0  0  0  0
 43 42  2  0  0  0  0
 45 38  1  0  0  0  0
 46 38  1  0  0  0  0
 47 39  1  0  0  0  0
 48 39  1  0  0  0  0
 50 40  1  0  0  0  0
M  END
$$$$
