WCQ.pdb
 OpenBabel07022419163D

 54 55  0  0  1  0  0  0  0  0999 V2000
    2.0640    2.7420   -0.2330 N   0  0  0  0  0  0  0  0  0  0  0  0
    1.4000    1.5310   -0.5490 C   0  0  1  0  0  0  0  0  0  0  0  0
    2.2560    0.2990   -0.3570 C   0  0  0  0  0  0  0  0  0  0  0  0
    2.7390    0.1630    1.0310 C   0  0  0  0  0  0  0  0  0  0  0  0
    2.1980   -0.6050    2.0370 C   0  0  0  0  0  0  0  0  0  0  0  0
    2.8990   -0.4410    3.1710 N   0  0  0  0  0  0  0  0  0  0  0  0
    3.9000    0.4370    2.9000 C   0  0  0  0  0  0  0  0  0  0  0  0
    4.9080    0.9470    3.7050 C   0  0  0  0  0  0  0  0  0  0  0  0
    5.8500    1.8380    3.2360 C   0  0  0  0  0  0  0  0  0  0  0  0
    5.7440    2.2050    1.9120 C   0  0  0  0  0  0  0  0  0  0  0  0
    4.7570    1.7160    1.0940 C   0  0  0  0  0  0  0  0  0  0  0  0
    3.8250    0.8270    1.5830 C   0  0  0  0  0  0  0  0  0  0  0  0
    0.1130    1.4530    0.1850 C   0  0  0  0  0  0  0  0  0  0  0  0
   -0.1730    2.2330    1.1250 O   0  0  0  0  0  0  0  0  0  0  0  0
    2.6190    3.1710   -0.9960 H   0  0  0  0  0  0  0  0  0  0  0  0
    1.5340    3.4210    0.3400 H   0  0  0  0  0  0  0  0  0  0  0  0
    1.1830    1.5600   -1.6590 H   0  0  0  0  0  0  0  0  0  0  0  0
    1.6940   -0.6150   -0.6410 H   0  0  0  0  0  0  0  0  0  0  0  0
    3.1270    0.3770   -1.0360 H   0  0  0  0  0  0  0  0  0  0  0  0
    1.3410   -1.2630    2.0030 H   0  0  0  0  0  0  0  0  0  0  0  0
    2.7740   -0.8610    4.1190 H   0  0  0  0  0  0  0  0  0  0  0  0
    4.9860    0.6540    4.7470 H   0  0  0  0  0  0  0  0  0  0  0  0
    6.6370    2.2290    3.8880 H   0  0  0  0  0  0  0  0  0  0  0  0
    6.4710    2.9040    1.5140 H   0  0  0  0  0  0  0  0  0  0  0  0
    4.6870    2.0070    0.0370 H   0  0  0  0  0  0  0  0  0  0  0  0
   -0.9070    0.4770   -0.1320 N   0  0  0  0  0  0  0  0  0  0  0  0
   -2.1520    0.4220    0.5900 C   0  0  1  0  0  0  0  0  0  0  0  0
   -3.2520    1.1180   -0.2550 C   0  0  0  0  0  0  0  0  0  0  0  0
   -3.4290    0.2670   -1.8440 S   0  0  0  0  0  0  0  0  0  0  0  0
   -2.5360   -0.9800    0.8260 C   0  0  0  0  0  0  0  0  0  0  0  0
   -3.6460   -1.2370    1.4400 O   0  0  0  0  0  0  0  0  0  0  0  0
   -0.7170   -0.1800   -0.8990 H   0  0  0  0  0  0  0  0  0  0  0  0
   -2.0920    1.0380    1.5170 H   0  0  0  0  0  0  0  0  0  0  0  0
   -2.9690    2.1610   -0.4360 H   0  0  0  0  0  0  0  0  0  0  0  0
   -4.2140    1.0630    0.2930 H   0  0  0  0  0  0  0  0  0  0  0  0
   -4.6590    0.5530   -2.4240 H   0  0  0  0  0  0  0  0  0  0  0  0
   -5.5660   -2.9530   -2.0700 N   0  0  0  0  0  0  0  0  0  0  0  0
   -4.6240   -3.5820   -1.2260 C   0  0  0  0  0  0  0  0  0  0  0  0
   -5.0030   -4.0690   -0.1430 O   0  0  0  0  0  0  0  0  0  0  0  0
   -3.2120   -3.6590   -1.6290 C   0  0  0  0  0  0  0  0  0  0  0  0
   -2.2920   -4.2540   -0.6240 C   0  0  0  0  0  0  0  0  0  0  0  0
   -2.2420   -3.4750    0.6910 C   0  0  2  0  0  0  0  0  0  0  0  0
   -1.7930   -2.1230    0.4370 N   0  0  0  0  0  0  0  0  0  0  0  0
   -1.2600   -4.1230    1.5980 C   0  0  0  0  0  0  0  0  0  0  0  0
   -1.4470   -5.3350    1.9610 O   0  0  0  0  0  0  0  0  0  0  0  0
   -0.1300   -3.5250    2.1030 O   0  0  0  0  0  0  0  0  0  0  0  0
   -6.4770   -2.6080   -1.6740 H   0  0  0  0  0  0  0  0  0  0  0  0
   -5.3540   -2.8350   -3.0750 H   0  0  0  0  0  0  0  0  0  0  0  0
   -2.8480   -2.6690   -1.9960 H   0  0  0  0  0  0  0  0  0  0  0  0
   -3.1920   -4.3370   -2.5330 H   0  0  0  0  0  0  0  0  0  0  0  0
   -1.2780   -4.2900   -1.0710 H   0  0  0  0  0  0  0  0  0  0  0  0
   -2.6490   -5.2960   -0.3980 H   0  0  0  0  0  0  0  0  0  0  0  0
   -3.2430   -3.4600    1.1870 H   0  0  0  0  0  0  0  0  0  0  0  0
   -0.8910   -1.9910   -0.0470 H   0  0  0  0  0  0  0  0  0  0  0  0
  1 16  1  0  0  0  0
  2 17  1  6  0  0  0
  2  3  1  0  0  0  0
  2  1  1  0  0  0  0
  2 13  1  0  0  0  0
  3  4  1  0  0  0  0
  4 12  1  0  0  0  0
  4  5  2  0  0  0  0
  5  6  1  0  0  0  0
  6 21  1  0  0  0  0
  7  6  1  0  0  0  0
  7  8  1  0  0  0  0
  8 22  1  0  0  0  0
  9  8  2  0  0  0  0
  9 23  1  0  0  0  0
 10  9  1  0  0  0  0
 11 12  1  0  0  0  0
 11 10  2  0  0  0  0
 12  7  2  0  0  0  0
 13 14  2  0  0  0  0
 15  1  1  0  0  0  0
 18  3  1  0  0  0  0
 19  3  1  0  0  0  0
 20  5  1  0  0  0  0
 24 10  1  0  0  0  0
 25 11  1  0  0  0  0
 26 13  1  0  0  0  0
 26 27  1  0  0  0  0
 27 30  1  0  0  0  0
 27 33  1  1  0  0  0
 28 35  1  0  0  0  0
 28 27  1  0  0  0  0
 29 28  1  0  0  0  0
 30 31  2  0  0  0  0
 32 26  1  0  0  0  0
 34 28  1  0  0  0  0
 36 29  1  0  0  0  0
 37 47  1  0  0  0  0
 37 38  1  0  0  0  0
 38 39  2  0  0  0  0
 40 38  1  0  0  0  0
 40 41  1  0  0  0  0
 41 52  1  0  0  0  0
 41 42  1  0  0  0  0
 42 53  1  1  0  0  0
 42 44  1  0  0  0  0
 43 42  1  0  0  0  0
 43 30  1  0  0  0  0
 44 45  2  0  0  0  0
 44 46  1  0  0  0  0
 48 37  1  0  0  0  0
 49 40  1  0  0  0  0
 50 40  1  0  0  0  0
 51 41  1  0  0  0  0
 54 43  1  0  0  0  0
M  END
$$$$
