WCR.pdb
 OpenBabel07022419163D

 60 61  0  0  1  0  0  0  0  0999 V2000
    0.2820   -0.1410    3.5390 N   0  0  0  0  0  0  0  0  0  0  0  0
    0.2350    0.4430    2.2230 C   0  0  1  0  0  0  0  0  0  0  0  0
    1.2170   -0.1340    1.2440 C   0  0  0  0  0  0  0  0  0  0  0  0
    2.6230    0.0440    1.7180 C   0  0  0  0  0  0  0  0  0  0  0  0
    3.4190   -0.9140    2.2500 C   0  0  0  0  0  0  0  0  0  0  0  0
    4.6000   -0.2980    2.5350 N   0  0  0  0  0  0  0  0  0  0  0  0
    4.5480    0.9920    2.1970 C   0  0  0  0  0  0  0  0  0  0  0  0
    5.5040    1.9980    2.3030 C   0  0  0  0  0  0  0  0  0  0  0  0
    5.1720    3.2570    1.8690 C   0  0  0  0  0  0  0  0  0  0  0  0
    3.9160    3.5040    1.3420 C   0  0  0  0  0  0  0  0  0  0  0  0
    2.9820    2.5100    1.2410 C   0  0  0  0  0  0  0  0  0  0  0  0
    3.3040    1.2340    1.6750 C   0  0  0  0  0  0  0  0  0  0  0  0
   -1.1200    0.4130    1.6400 C   0  0  0  0  0  0  0  0  0  0  0  0
   -2.0710    0.0100    2.3820 O   0  0  0  0  0  0  0  0  0  0  0  0
    0.0430    0.5760    4.2360 H   0  0  0  0  0  0  0  0  0  0  0  0
   -0.2390   -1.0250    3.6370 H   0  0  0  0  0  0  0  0  0  0  0  0
    0.5510    1.5300    2.3890 H   0  0  0  0  0  0  0  0  0  0  0  0
    0.9630   -1.1820    1.0360 H   0  0  0  0  0  0  0  0  0  0  0  0
    1.1320    0.4730    0.2950 H   0  0  0  0  0  0  0  0  0  0  0  0
    3.1850   -1.9500    2.4180 H   0  0  0  0  0  0  0  0  0  0  0  0
    5.4140   -0.7870    2.9570 H   0  0  0  0  0  0  0  0  0  0  0  0
    6.4860    1.8270    2.7100 H   0  0  0  0  0  0  0  0  0  0  0  0
    5.8610    4.1040    1.9170 H   0  0  0  0  0  0  0  0  0  0  0  0
    3.6530    4.5070    0.9990 H   0  0  0  0  0  0  0  0  0  0  0  0
    1.9870    2.6580    0.8340 H   0  0  0  0  0  0  0  0  0  0  0  0
   -1.4330    0.7980    0.3480 N   0  0  0  0  0  0  0  0  0  0  0  0
   -2.7130    0.8450   -0.3080 C   0  0  1  0  0  0  0  0  0  0  0  0
   -2.9050    2.2690   -0.8340 C   0  0  0  0  0  0  0  0  0  0  0  0
   -4.5020    2.3890   -1.6690 S   0  0  0  0  0  0  0  0  0  0  0  0
   -2.7580   -0.1500   -1.3780 C   0  0  0  0  0  0  0  0  0  0  0  0
   -3.5850    0.1080   -2.3280 O   0  0  0  0  0  0  0  0  0  0  0  0
   -0.6080    1.1150   -0.2550 H   0  0  0  0  0  0  0  0  0  0  0  0
   -3.5480    0.6840    0.4320 H   0  0  0  0  0  0  0  0  0  0  0  0
   -2.8900    2.9410    0.0490 H   0  0  0  0  0  0  0  0  0  0  0  0
   -2.0740    2.5790   -1.4860 H   0  0  0  0  0  0  0  0  0  0  0  0
   -5.4900    1.7020   -0.9570 H   0  0  0  0  0  0  0  0  0  0  0  0
    1.2600   -3.9190    2.1530 N   0  0  0  0  0  0  0  0  0  0  0  0
   -0.0390   -3.7820    1.6000 C   0  0  0  0  0  0  0  0  0  0  0  0
   -1.0550   -3.5170    2.3740 N   0  0  0  0  0  0  0  0  0  0  0  0
   -0.2110   -3.9380    0.2050 N   0  0  0  0  0  0  0  0  0  0  0  0
   -1.5050   -4.3010   -0.2870 C   0  0  0  0  0  0  0  0  0  0  0  0
   -1.6440   -4.5230   -1.7320 C   0  0  0  0  0  0  0  0  0  0  0  0
   -1.3810   -3.4490   -2.7040 C   0  0  0  0  0  0  0  0  0  0  0  0
   -2.1570   -2.2110   -2.6440 C   0  0  2  0  0  0  0  0  0  0  0  0
   -2.0290   -1.3470   -1.5140 N   0  0  0  0  0  0  0  0  0  0  0  0
   -3.6420   -2.6890   -2.6780 C   0  0  0  0  0  0  0  0  0  0  0  0
   -4.0340   -3.4500   -3.5760 O   0  0  0  0  0  0  0  0  0  0  0  0
   -4.4870   -2.2490   -1.6990 O   0  0  0  0  0  0  0  0  0  0  0  0
    2.0590   -4.2510    1.5980 H   0  0  0  0  0  0  0  0  0  0  0  0
    1.3860   -3.6710    3.1580 H   0  0  0  0  0  0  0  0  0  0  0  0
   -0.9220   -3.4040    3.4030 H   0  0  0  0  0  0  0  0  0  0  0  0
    0.5890   -3.7890   -0.4230 H   0  0  0  0  0  0  0  0  0  0  0  0
   -2.3110   -3.5740    0.0360 H   0  0  0  0  0  0  0  0  0  0  0  0
   -1.8230   -5.2350    0.3030 H   0  0  0  0  0  0  0  0  0  0  0  0
   -2.6290   -5.0660   -1.9660 H   0  0  0  0  0  0  0  0  0  0  0  0
   -0.8970   -5.3580   -1.9920 H   0  0  0  0  0  0  0  0  0  0  0  0
   -0.2550   -3.2470   -2.6470 H   0  0  0  0  0  0  0  0  0  0  0  0
   -1.4680   -3.8840   -3.7510 H   0  0  0  0  0  0  0  0  0  0  0  0
   -2.1330   -1.6240   -3.5700 H   0  0  0  0  0  0  0  0  0  0  0  0
   -1.3710   -1.5820   -0.7500 H   0  0  0  0  0  0  0  0  0  0  0  0
  1 16  1  0  0  0  0
  1 15  1  0  0  0  0
  2 17  1  1  0  0  0
  2  1  1  0  0  0  0
  3  4  1  0  0  0  0
  3  2  1  0  0  0  0
  4  5  2  0  0  0  0
  5 20  1  0  0  0  0
  5  6  1  0  0  0  0
  6 21  1  0  0  0  0
  7  8  1  0  0  0  0
  7  6  1  0  0  0  0
  8 22  1  0  0  0  0
  9 23  1  0  0  0  0
  9  8  2  0  0  0  0
 10  9  1  0  0  0  0
 11 10  2  0  0  0  0
 11 12  1  0  0  0  0
 12  4  1  0  0  0  0
 12  7  2  0  0  0  0
 13  2  1  0  0  0  0
 13 14  2  0  0  0  0
 18  3  1  0  0  0  0
 19  3  1  0  0  0  0
 24 10  1  0  0  0  0
 25 11  1  0  0  0  0
 26 13  1  0  0  0  0
 27 26  1  0  0  0  0
 27 33  1  1  0  0  0
 28 27  1  0  0  0  0
 28 34  1  0  0  0  0
 29 36  1  0  0  0  0
 29 28  1  0  0  0  0
 30 27  1  0  0  0  0
 31 30  2  0  0  0  0
 32 26  1  0  0  0  0
 35 28  1  0  0  0  0
 37 50  1  0  0  0  0
 38 37  1  0  0  0  0
 38 39  2  0  0  0  0
 39 51  1  0  0  0  0
 40 38  1  0  0  0  0
 41 53  1  0  0  0  0
 41 40  1  0  0  0  0
 41 54  1  0  0  0  0
 42 41  1  0  0  0  0
 43 57  1  0  0  0  0
 43 44  1  0  0  0  0
 43 42  1  0  0  0  0
 44 59  1  6  0  0  0
 44 45  1  0  0  0  0
 45 30  1  0  0  0  0
 45 60  1  0  0  0  0
 46 44  1  0  0  0  0
 46 48  1  0  0  0  0
 47 46  2  0  0  0  0
 49 37  1  0  0  0  0
 52 40  1  0  0  0  0
 55 42  1  0  0  0  0
 56 42  1  0  0  0  0
 58 43  1  0  0  0  0
M  END
$$$$
