WCS.pdb
 OpenBabel07022419163D

 48 49  0  0  1  0  0  0  0  0999 V2000
    1.8850    1.2800    3.6820 N   0  0  0  0  0  0  0  0  0  0  0  0
    0.7350    0.6700    3.0410 C   0  0  1  0  0  0  0  0  0  0  0  0
    0.2790    1.6230    1.9800 C   0  0  0  0  0  0  0  0  0  0  0  0
    1.2800    1.9570    0.9610 C   0  0  0  0  0  0  0  0  0  0  0  0
    2.0240    3.1470    0.9500 C   0  0  0  0  0  0  0  0  0  0  0  0
    2.8590    3.1550   -0.0830 N   0  0  0  0  0  0  0  0  0  0  0  0
    2.7070    2.0040   -0.7820 C   0  0  0  0  0  0  0  0  0  0  0  0
    3.3240    1.5280   -1.9220 C   0  0  0  0  0  0  0  0  0  0  0  0
    2.9540    0.2860   -2.4240 C   0  0  0  0  0  0  0  0  0  0  0  0
    1.9820   -0.4450   -1.7780 C   0  0  0  0  0  0  0  0  0  0  0  0
    1.3640    0.0250   -0.6410 C   0  0  0  0  0  0  0  0  0  0  0  0
    1.7200    1.2540   -0.1300 C   0  0  0  0  0  0  0  0  0  0  0  0
    0.9330   -0.7120    2.6500 C   0  0  0  0  0  0  0  0  0  0  0  0
    2.0660   -1.2320    2.5600 O   0  0  0  0  0  0  0  0  0  0  0  0
    1.9090    0.9460    4.6650 H   0  0  0  0  0  0  0  0  0  0  0  0
    1.7480    2.3180    3.6870 H   0  0  0  0  0  0  0  0  0  0  0  0
   -0.0840    0.6810    3.8240 H   0  0  0  0  0  0  0  0  0  0  0  0
   -0.0450    2.5610    2.5210 H   0  0  0  0  0  0  0  0  0  0  0  0
   -0.6380    1.2830    1.4540 H   0  0  0  0  0  0  0  0  0  0  0  0
    1.9340    3.9410    1.6730 H   0  0  0  0  0  0  0  0  0  0  0  0
    3.5230    3.8990   -0.3370 H   0  0  0  0  0  0  0  0  0  0  0  0
    4.0820    2.1090   -2.4180 H   0  0  0  0  0  0  0  0  0  0  0  0
    3.4220   -0.1070   -3.3150 H   0  0  0  0  0  0  0  0  0  0  0  0
    1.6600   -1.4300   -2.1410 H   0  0  0  0  0  0  0  0  0  0  0  0
    0.5990   -0.5490   -0.1490 H   0  0  0  0  0  0  0  0  0  0  0  0
   -0.1700   -1.5560    2.3500 N   0  0  0  0  0  0  0  0  0  0  0  0
   -0.0970   -2.9110    1.9600 C   0  0  1  0  0  0  0  0  0  0  0  0
   -0.4240   -3.8870    3.0760 C   0  0  0  0  0  0  0  0  0  0  0  0
   -2.0790   -3.6600    3.7240 S   0  0  0  0  0  0  0  0  0  0  0  0
   -0.8980   -3.1610    0.7650 C   0  0  0  0  0  0  0  0  0  0  0  0
   -0.9690   -4.2890    0.1930 O   0  0  0  0  0  0  0  0  0  0  0  0
   -1.1160   -1.1240    2.4400 H   0  0  0  0  0  0  0  0  0  0  0  0
    0.9700   -3.1430    1.7160 H   0  0  0  0  0  0  0  0  0  0  0  0
   -0.3750   -4.8980    2.6180 H   0  0  0  0  0  0  0  0  0  0  0  0
    0.3680   -3.8340    3.8190 H   0  0  0  0  0  0  0  0  0  0  0  0
   -2.1630   -2.6450    4.6760 H   0  0  0  0  0  0  0  0  0  0  0  0
   -4.0270   -3.4180    0.4580 O   0  0  0  0  0  0  0  0  0  0  0  0
   -3.9200   -2.4200   -0.5080 C   0  0  0  0  0  0  0  0  0  0  0  0
   -2.4720   -2.4100   -1.0400 C   0  0  2  0  0  0  0  0  0  0  0  0
   -1.6640   -2.1300    0.1620 N   0  0  0  0  0  0  0  0  0  0  0  0
   -2.3480   -1.3810   -2.0710 C   0  0  0  0  0  0  0  0  0  0  0  0
   -2.9900   -1.5540   -3.1390 O   0  0  0  0  0  0  0  0  0  0  0  0
   -1.5750   -0.2660   -1.9150 O   0  0  0  0  0  0  0  0  0  0  0  0
   -3.7990   -3.0440    1.3420 H   0  0  0  0  0  0  0  0  0  0  0  0
   -4.1760   -1.4430   -0.0550 H   0  0  0  0  0  0  0  0  0  0  0  0
   -4.6330   -2.6740   -1.3150 H   0  0  0  0  0  0  0  0  0  0  0  0
   -2.2840   -3.4400   -1.3510 H   0  0  0  0  0  0  0  0  0  0  0  0
   -1.6810   -1.1570    0.5360 H   0  0  0  0  0  0  0  0  0  0  0  0
  1 16  1  0  0  0  0
  1 15  1  0  0  0  0
  2  1  1  0  0  0  0
  2 17  1  1  0  0  0
  3 18  1  0  0  0  0
  3  2  1  0  0  0  0
  4  3  1  0  0  0  0
  5  4  2  0  0  0  0
  5 20  1  0  0  0  0
  6  5  1  0  0  0  0
  7 12  1  0  0  0  0
  7  6  1  0  0  0  0
  8  7  2  0  0  0  0
  9  8  1  0  0  0  0
  9 10  2  0  0  0  0
 10 11  1  0  0  0  0
 11 25  1  0  0  0  0
 11 12  2  0  0  0  0
 12  4  1  0  0  0  0
 13  2  1  0  0  0  0
 14 13  2  0  0  0  0
 19  3  1  0  0  0  0
 21  6  1  0  0  0  0
 22  8  1  0  0  0  0
 23  9  1  0  0  0  0
 24 10  1  0  0  0  0
 26 32  1  0  0  0  0
 26 13  1  0  0  0  0
 27 33  1  6  0  0  0
 27 26  1  0  0  0  0
 27 28  1  0  0  0  0
 28 29  1  0  0  0  0
 28 35  1  0  0  0  0
 29 36  1  0  0  0  0
 30 27  1  0  0  0  0
 31 30  2  0  0  0  0
 34 28  1  0  0  0  0
 37 44  1  0  0  0  0
 38 45  1  0  0  0  0
 38 37  1  0  0  0  0
 39 47  1  6  0  0  0
 39 38  1  0  0  0  0
 39 40  1  0  0  0  0
 40 48  1  0  0  0  0
 40 30  1  0  0  0  0
 41 43  1  0  0  0  0
 41 39  1  0  0  0  0
 42 41  2  0  0  0  0
 46 38  1  0  0  0  0
M  END
$$$$
