WCV.pdb
 OpenBabel07022419163D

 53 54  0  0  1  0  0  0  0  0999 V2000
    1.3540   -0.3270    0.7270 N   0  0  0  0  0  0  0  0  0  0  0  0
    0.8420    0.1850    1.9510 C   0  0  1  0  0  0  0  0  0  0  0  0
    1.4120    1.5590    2.2200 C   0  0  0  0  0  0  0  0  0  0  0  0
    2.8830    1.5580    2.3270 C   0  0  0  0  0  0  0  0  0  0  0  0
    3.5670    1.5260    3.5490 C   0  0  0  0  0  0  0  0  0  0  0  0
    4.8860    1.5030    3.3220 N   0  0  0  0  0  0  0  0  0  0  0  0
    5.1060    1.5190    2.0020 C   0  0  0  0  0  0  0  0  0  0  0  0
    6.2870    1.5130    1.2810 C   0  0  0  0  0  0  0  0  0  0  0  0
    6.2110    1.5430   -0.0900 C   0  0  0  0  0  0  0  0  0  0  0  0
    4.9890    1.5790   -0.7270 C   0  0  0  0  0  0  0  0  0  0  0  0
    3.8150    1.5840    0.0130 C   0  0  0  0  0  0  0  0  0  0  0  0
    3.8720    1.5540    1.3730 C   0  0  0  0  0  0  0  0  0  0  0  0
   -0.6400    0.3610    1.8700 C   0  0  0  0  0  0  0  0  0  0  0  0
   -1.2820    0.8230    2.8720 O   0  0  0  0  0  0  0  0  0  0  0  0
    1.5720   -1.3260    0.6960 H   0  0  0  0  0  0  0  0  0  0  0  0
    1.0320    0.1250   -0.1280 H   0  0  0  0  0  0  0  0  0  0  0  0
    1.1020   -0.5080    2.7950 H   0  0  0  0  0  0  0  0  0  0  0  0
    1.1070    2.2290    1.3850 H   0  0  0  0  0  0  0  0  0  0  0  0
    0.9750    1.9350    3.1800 H   0  0  0  0  0  0  0  0  0  0  0  0
    3.0810    1.5210    4.5200 H   0  0  0  0  0  0  0  0  0  0  0  0
    5.6390    1.4760    4.0600 H   0  0  0  0  0  0  0  0  0  0  0  0
    7.2330    1.4850    1.7820 H   0  0  0  0  0  0  0  0  0  0  0  0
    7.1280    1.5390   -0.6650 H   0  0  0  0  0  0  0  0  0  0  0  0
    4.9130    1.6030   -1.8120 H   0  0  0  0  0  0  0  0  0  0  0  0
    2.8510    1.6230   -0.4830 H   0  0  0  0  0  0  0  0  0  0  0  0
   -1.4070    0.0470    0.7350 N   0  0  0  0  0  0  0  0  0  0  0  0
   -2.8430    0.2210    0.6670 C   0  0  1  0  0  0  0  0  0  0  0  0
   -3.2570    1.1540   -0.4480 C   0  0  0  0  0  0  0  0  0  0  0  0
   -5.0700    1.2650   -0.4000 S   0  0  0  0  0  0  0  0  0  0  0  0
   -3.4420   -1.0990    0.4250 C   0  0  0  0  0  0  0  0  0  0  0  0
   -4.6880   -1.1600    0.3390 O   0  0  0  0  0  0  0  0  0  0  0  0
   -0.9340   -0.3330   -0.1130 H   0  0  0  0  0  0  0  0  0  0  0  0
   -3.2350    0.6270    1.6200 H   0  0  0  0  0  0  0  0  0  0  0  0
   -2.9630    0.8140   -1.4420 H   0  0  0  0  0  0  0  0  0  0  0  0
   -2.8750    2.1660   -0.1770 H   0  0  0  0  0  0  0  0  0  0  0  0
   -5.6510    0.8660   -1.6130 H   0  0  0  0  0  0  0  0  0  0  0  0
   -3.3690   -3.0950   -2.3240 C   0  0  0  0  0  0  0  0  0  0  0  0
   -2.8490   -4.1010   -1.2980 C   0  0  0  0  0  0  0  0  0  0  0  0
   -1.3900   -4.2760   -1.5050 C   0  0  0  0  0  0  0  0  0  0  0  0
   -3.2300   -3.5600    0.0540 C   0  0  2  0  0  0  0  0  0  0  0  0
   -2.6400   -2.2490    0.2950 N   0  0  0  0  0  0  0  0  0  0  0  0
   -2.9310   -4.4790    1.1570 C   0  0  0  0  0  0  0  0  0  0  0  0
   -2.2520   -4.0600    2.1200 O   0  0  0  0  0  0  0  0  0  0  0  0
   -3.3540   -5.7910    1.2030 O   0  0  0  0  0  0  0  0  0  0  0  0
   -4.4760   -3.2130   -2.4830 H   0  0  0  0  0  0  0  0  0  0  0  0
   -2.8470   -3.1660   -3.2810 H   0  0  0  0  0  0  0  0  0  0  0  0
   -3.2490   -2.0550   -1.9080 H   0  0  0  0  0  0  0  0  0  0  0  0
   -3.4120   -5.0360   -1.4950 H   0  0  0  0  0  0  0  0  0  0  0  0
   -1.2490   -5.1150   -2.2500 H   0  0  0  0  0  0  0  0  0  0  0  0
   -0.9040   -3.3980   -1.9880 H   0  0  0  0  0  0  0  0  0  0  0  0
   -0.8320   -4.5940   -0.6060 H   0  0  0  0  0  0  0  0  0  0  0  0
   -4.3460   -3.4340    0.0250 H   0  0  0  0  0  0  0  0  0  0  0  0
   -1.5780   -2.2000    0.3680 H   0  0  0  0  0  0  0  0  0  0  0  0
  1  2  1  0  0  0  0
  2  3  1  0  0  0  0
  2 17  1  1  0  0  0
  3  4  1  0  0  0  0
  3 19  1  0  0  0  0
  4  5  2  0  0  0  0
  5 20  1  0  0  0  0
  6  5  1  0  0  0  0
  6 21  1  0  0  0  0
  7  6  1  0  0  0  0
  8 22  1  0  0  0  0
  8  7  2  0  0  0  0
  9  8  1  0  0  0  0
 10  9  2  0  0  0  0
 10 11  1  0  0  0  0
 11 12  2  0  0  0  0
 12  7  1  0  0  0  0
 12  4  1  0  0  0  0
 13  2  1  0  0  0  0
 13 14  2  0  0  0  0
 15  1  1  0  0  0  0
 16  1  1  0  0  0  0
 18  3  1  0  0  0  0
 23  9  1  0  0  0  0
 24 10  1  0  0  0  0
 25 11  1  0  0  0  0
 26 13  1  0  0  0  0
 27 26  1  0  0  0  0
 27 33  1  1  0  0  0
 28 29  1  0  0  0  0
 28 35  1  0  0  0  0
 28 27  1  0  0  0  0
 30 27  1  0  0  0  0
 31 30  2  0  0  0  0
 32 26  1  0  0  0  0
 34 28  1  0  0  0  0
 36 29  1  0  0  0  0
 37 47  1  0  0  0  0
 37 38  1  0  0  0  0
 38 40  1  0  0  0  0
 39 38  1  0  0  0  0
 39 51  1  0  0  0  0
 40 52  1  6  0  0  0
 40 41  1  0  0  0  0
 40 42  1  0  0  0  0
 41 53  1  0  0  0  0
 41 30  1  0  0  0  0
 42 44  2  0  0  0  0
 42 43  1  0  0  0  0
 45 37  1  0  0  0  0
 46 37  1  0  0  0  0
 48 38  1  0  0  0  0
 49 39  1  0  0  0  0
 50 39  1  0  0  0  0
M  END
$$$$
