WCW.pdb
 OpenBabel07022419163D

 61 64  0  0  1  0  0  0  0  0999 V2000
    1.2660    2.3280    2.8990 N   0  0  0  0  0  0  0  0  0  0  0  0
    1.9930    1.4980    1.9330 C   0  0  1  0  0  0  0  0  0  0  0  0
    3.1430    0.9160    2.6960 C   0  0  0  0  0  0  0  0  0  0  0  0
    4.0420    0.0200    1.9660 C   0  0  0  0  0  0  0  0  0  0  0  0
    5.2360    0.3720    1.3090 C   0  0  0  0  0  0  0  0  0  0  0  0
    5.7690   -0.7060    0.7260 N   0  0  0  0  0  0  0  0  0  0  0  0
    4.9830   -1.7810    0.9630 C   0  0  0  0  0  0  0  0  0  0  0  0
    5.1170   -3.1210    0.5830 C   0  0  0  0  0  0  0  0  0  0  0  0
    4.1760   -4.0470    0.9700 C   0  0  0  0  0  0  0  0  0  0  0  0
    3.1260   -3.5910    1.7300 C   0  0  0  0  0  0  0  0  0  0  0  0
    2.9850   -2.2780    2.1070 C   0  0  0  0  0  0  0  0  0  0  0  0
    3.9220   -1.3460    1.7230 C   0  0  0  0  0  0  0  0  0  0  0  0
    1.0970    0.4470    1.4410 C   0  0  0  0  0  0  0  0  0  0  0  0
    1.3730   -0.2360    0.4130 O   0  0  0  0  0  0  0  0  0  0  0  0
    0.3370    2.6110    2.4960 H   0  0  0  0  0  0  0  0  0  0  0  0
    1.1490    1.7190    3.7580 H   0  0  0  0  0  0  0  0  0  0  0  0
    2.3510    2.1710    1.1190 H   0  0  0  0  0  0  0  0  0  0  0  0
    3.7400    1.7320    3.2000 H   0  0  0  0  0  0  0  0  0  0  0  0
    2.7210    0.3280    3.5590 H   0  0  0  0  0  0  0  0  0  0  0  0
    5.6040    1.4060    1.3220 H   0  0  0  0  0  0  0  0  0  0  0  0
    6.6550   -0.7030    0.1760 H   0  0  0  0  0  0  0  0  0  0  0  0
    5.9740   -3.4280   -0.0230 H   0  0  0  0  0  0  0  0  0  0  0  0
    4.2720   -5.0930    0.6790 H   0  0  0  0  0  0  0  0  0  0  0  0
    2.3930   -4.3300    2.0280 H   0  0  0  0  0  0  0  0  0  0  0  0
    2.1470   -1.9620    2.7020 H   0  0  0  0  0  0  0  0  0  0  0  0
   -0.1440    0.1120    2.0700 N   0  0  0  0  0  0  0  0  0  0  0  0
   -1.0340   -0.9110    1.6050 C   0  0  1  0  0  0  0  0  0  0  0  0
   -1.2320   -1.9240    2.6810 C   0  0  0  0  0  0  0  0  0  0  0  0
   -1.9410   -1.2070    4.1870 S   0  0  0  0  0  0  0  0  0  0  0  0
   -2.3260   -0.3450    1.1080 C   0  0  0  0  0  0  0  0  0  0  0  0
   -2.4620    0.9030    1.1670 O   0  0  0  0  0  0  0  0  0  0  0  0
   -0.4020    0.6550    2.9190 H   0  0  0  0  0  0  0  0  0  0  0  0
   -0.6230   -1.4510    0.7060 H   0  0  0  0  0  0  0  0  0  0  0  0
   -0.2340   -2.3150    2.9650 H   0  0  0  0  0  0  0  0  0  0  0  0
   -1.8490   -2.7590    2.2910 H   0  0  0  0  0  0  0  0  0  0  0  0
   -2.9410   -2.0210    4.7270 H   0  0  0  0  0  0  0  0  0  0  0  0
   -3.3800   -1.1220    0.5870 N   0  0  0  0  0  0  0  0  0  0  0  0
   -4.6220   -0.6210    0.1030 C   0  0  1  0  0  0  0  0  0  0  0  0
   -4.7370   -0.8040   -1.4100 C   0  0  0  0  0  0  0  0  0  0  0  0
   -3.6820   -0.1010   -2.1610 C   0  0  0  0  0  0  0  0  0  0  0  0
   -3.8310    1.1440   -2.7830 C   0  0  0  0  0  0  0  0  0  0  0  0
   -2.6770    1.5050   -3.3520 N   0  0  0  0  0  0  0  0  0  0  0  0
   -1.7780    0.5320   -3.1210 C   0  0  0  0  0  0  0  0  0  0  0  0
   -0.4400    0.4490   -3.5160 C   0  0  0  0  0  0  0  0  0  0  0  0
    0.2800   -0.6540   -3.1640 C   0  0  0  0  0  0  0  0  0  0  0  0
   -0.2990   -1.6740   -2.4280 C   0  0  0  0  0  0  0  0  0  0  0  0
   -1.6220   -1.5670   -2.0500 C   0  0  0  0  0  0  0  0  0  0  0  0
   -2.3760   -0.4650   -2.3900 C   0  0  0  0  0  0  0  0  0  0  0  0
   -5.8180   -1.2460    0.7090 C   0  0  0  0  0  0  0  0  0  0  0  0
   -6.9500   -0.8620    0.3400 O   0  0  0  0  0  0  0  0  0  0  0  0
   -5.7400   -2.2390    1.6690 O   0  0  0  0  0  0  0  0  0  0  0  0
   -3.2080   -2.1710    0.5710 H   0  0  0  0  0  0  0  0  0  0  0  0
   -4.7370    0.4800    0.2530 H   0  0  0  0  0  0  0  0  0  0  0  0
   -5.7410   -0.4470   -1.7130 H   0  0  0  0  0  0  0  0  0  0  0  0
   -4.6770   -1.8890   -1.6610 H   0  0  0  0  0  0  0  0  0  0  0  0
   -4.7370    1.7350   -2.8080 H   0  0  0  0  0  0  0  0  0  0  0  0
   -2.4620    2.3890   -3.8980 H   0  0  0  0  0  0  0  0  0  0  0  0
    0.0140    1.2340   -4.0850 H   0  0  0  0  0  0  0  0  0  0  0  0
    1.3220   -0.6980   -3.4820 H   0  0  0  0  0  0  0  0  0  0  0  0
    0.3240   -2.5190   -2.1820 H   0  0  0  0  0  0  0  0  0  0  0  0
   -2.0630   -2.3710   -1.4870 H   0  0  0  0  0  0  0  0  0  0  0  0
  1 16  1  0  0  0  0
  2 17  1  6  0  0  0
  2  3  1  0  0  0  0
  2  1  1  0  0  0  0
  3 18  1  0  0  0  0
  3 19  1  0  0  0  0
  4  3  1  0  0  0  0
  5 20  1  0  0  0  0
  5  4  2  0  0  0  0
  6  7  1  0  0  0  0
  6  5  1  0  0  0  0
  7 12  1  0  0  0  0
  8  7  2  0  0  0  0
  8  9  1  0  0  0  0
  9 10  2  0  0  0  0
 10 24  1  0  0  0  0
 10 11  1  0  0  0  0
 11 25  1  0  0  0  0
 12  4  1  0  0  0  0
 12 11  2  0  0  0  0
 13  2  1  0  0  0  0
 13 26  1  0  0  0  0
 14 13  2  0  0  0  0
 15  1  1  0  0  0  0
 21  6  1  0  0  0  0
 22  8  1  0  0  0  0
 23  9  1  0  0  0  0
 26 32  1  0  0  0  0
 27 33  1  6  0  0  0
 27 26  1  0  0  0  0
 27 28  1  0  0  0  0
 28 34  1  0  0  0  0
 28 29  1  0  0  0  0
 29 36  1  0  0  0  0
 30 31  2  0  0  0  0
 30 27  1  0  0  0  0
 35 28  1  0  0  0  0
 37 30  1  0  0  0  0
 38 53  1  1  0  0  0
 38 37  1  0  0  0  0
 38 49  1  0  0  0  0
 39 38  1  0  0  0  0
 40 39  1  0  0  0  0
 41 40  2  0  0  0  0
 42 43  1  0  0  0  0
 42 41  1  0  0  0  0
 43 48  1  0  0  0  0
 44 45  1  0  0  0  0
 44 43  2  0  0  0  0
 45 46  2  0  0  0  0
 46 60  1  0  0  0  0
 46 47  1  0  0  0  0
 47 61  1  0  0  0  0
 48 40  1  0  0  0  0
 48 47  2  0  0  0  0
 49 51  1  0  0  0  0
 50 49  2  0  0  0  0
 52 37  1  0  0  0  0
 54 39  1  0  0  0  0
 55 39  1  0  0  0  0
 56 41  1  0  0  0  0
 57 42  1  0  0  0  0
 58 44  1  0  0  0  0
 59 45  1  0  0  0  0
M  END
$$$$
