WCY.pdb
 OpenBabel07022419163D

 58 60  0  0  1  0  0  0  0  0999 V2000
    2.2440   -2.2150    4.6210 N   0  0  0  0  0  0  0  0  0  0  0  0
    1.2410   -1.3310    3.9710 C   0  0  1  0  0  0  0  0  0  0  0  0
    1.7930    0.0290    3.7860 C   0  0  0  0  0  0  0  0  0  0  0  0
    3.0320    0.0890    2.9770 C   0  0  0  0  0  0  0  0  0  0  0  0
    4.3090    0.0530    3.5830 C   0  0  0  0  0  0  0  0  0  0  0  0
    5.2300    0.0850    2.6260 N   0  0  0  0  0  0  0  0  0  0  0  0
    4.6330    0.1390    1.4240 C   0  0  0  0  0  0  0  0  0  0  0  0
    5.1230    0.2080    0.1220 C   0  0  0  0  0  0  0  0  0  0  0  0
    4.2610    0.2800   -0.9390 C   0  0  0  0  0  0  0  0  0  0  0  0
    2.9030    0.2830   -0.6950 C   0  0  0  0  0  0  0  0  0  0  0  0
    2.3800    0.2150    0.5790 C   0  0  0  0  0  0  0  0  0  0  0  0
    3.2740    0.1420    1.6450 C   0  0  0  0  0  0  0  0  0  0  0  0
    0.7340   -2.0240    2.8030 C   0  0  0  0  0  0  0  0  0  0  0  0
    1.2840   -3.1110    2.4110 O   0  0  0  0  0  0  0  0  0  0  0  0
    1.6710   -3.0500    4.9330 H   0  0  0  0  0  0  0  0  0  0  0  0
    2.8480   -2.5460    3.8400 H   0  0  0  0  0  0  0  0  0  0  0  0
    0.4150   -1.2410    4.7700 H   0  0  0  0  0  0  0  0  0  0  0  0
    2.0220    0.4950    4.7810 H   0  0  0  0  0  0  0  0  0  0  0  0
    1.0230    0.6850    3.2760 H   0  0  0  0  0  0  0  0  0  0  0  0
    4.5110    0.0090    4.6380 H   0  0  0  0  0  0  0  0  0  0  0  0
    6.2750    0.0720    2.7250 H   0  0  0  0  0  0  0  0  0  0  0  0
    6.1890    0.2040   -0.0220 H   0  0  0  0  0  0  0  0  0  0  0  0
    4.6730    0.3340   -1.9530 H   0  0  0  0  0  0  0  0  0  0  0  0
    2.2240    0.3480   -1.5290 H   0  0  0  0  0  0  0  0  0  0  0  0
    1.3370    0.2200    0.7980 H   0  0  0  0  0  0  0  0  0  0  0  0
   -0.3740   -1.5980    2.0240 N   0  0  0  0  0  0  0  0  0  0  0  0
   -0.8350   -2.3600    0.9340 C   0  0  1  0  0  0  0  0  0  0  0  0
   -2.1410   -3.0430    1.4360 C   0  0  0  0  0  0  0  0  0  0  0  0
   -1.7300   -4.0940    2.8800 S   0  0  0  0  0  0  0  0  0  0  0  0
   -1.0600   -1.7280   -0.3540 C   0  0  0  0  0  0  0  0  0  0  0  0
   -0.8150   -0.5360   -0.6230 O   0  0  0  0  0  0  0  0  0  0  0  0
   -0.8810   -0.6880    2.2480 H   0  0  0  0  0  0  0  0  0  0  0  0
   -0.1440   -3.2380    0.7650 H   0  0  0  0  0  0  0  0  0  0  0  0
   -2.8470   -2.2730    1.8120 H   0  0  0  0  0  0  0  0  0  0  0  0
   -2.6350   -3.6010    0.6410 H   0  0  0  0  0  0  0  0  0  0  0  0
   -1.9580   -5.4260    2.5440 H   0  0  0  0  0  0  0  0  0  0  0  0
   -3.9120    3.2870    0.3180 O   0  0  0  0  0  0  0  0  0  0  0  0
   -3.7320    2.1500   -0.4610 C   0  0  0  0  0  0  0  0  0  0  0  0
   -4.1930    0.9240   -0.0270 C   0  0  0  0  0  0  0  0  0  0  0  0
   -3.9980   -0.1860   -0.8240 C   0  0  0  0  0  0  0  0  0  0  0  0
   -3.3530   -0.0960   -2.0450 C   0  0  0  0  0  0  0  0  0  0  0  0
   -3.1450   -1.2760   -2.8760 C   0  0  0  0  0  0  0  0  0  0  0  0
   -1.8690   -2.0080   -2.7090 C   0  0  2  0  0  0  0  0  0  0  0  0
   -1.6080   -2.5330   -1.3920 N   0  0  0  0  0  0  0  0  0  0  0  0
   -0.6780   -1.3610   -3.3090 C   0  0  0  0  0  0  0  0  0  0  0  0
   -0.7430   -0.7740   -4.4000 O   0  0  0  0  0  0  0  0  0  0  0  0
   -2.8950    1.1260   -2.4760 C   0  0  0  0  0  0  0  0  0  0  0  0
   -3.0860    2.2360   -1.6870 C   0  0  0  0  0  0  0  0  0  0  0  0
    0.5170   -1.4180   -2.6430 O   0  0  0  0  0  0  0  0  0  0  0  0
   -3.0810    3.8590    0.4530 H   0  0  0  0  0  0  0  0  0  0  0  0
   -4.6900    0.9010    0.9330 H   0  0  0  0  0  0  0  0  0  0  0  0
   -4.3780   -1.1370   -0.4400 H   0  0  0  0  0  0  0  0  0  0  0  0
   -3.2310   -0.9620   -3.9550 H   0  0  0  0  0  0  0  0  0  0  0  0
   -3.9790   -1.9950   -2.7290 H   0  0  0  0  0  0  0  0  0  0  0  0
   -1.9830   -2.9350   -3.4050 H   0  0  0  0  0  0  0  0  0  0  0  0
   -1.8320   -3.5580   -1.1970 H   0  0  0  0  0  0  0  0  0  0  0  0
   -2.3750    1.2480   -3.4400 H   0  0  0  0  0  0  0  0  0  0  0  0
   -2.7120    3.2050   -2.0500 H   0  0  0  0  0  0  0  0  0  0  0  0
  1 15  1  0  0  0  0
  2  1  1  0  0  0  0
  2 17  1  1  0  0  0
  3  2  1  0  0  0  0
  3 18  1  0  0  0  0
  4  5  2  0  0  0  0
  4  3  1  0  0  0  0
  5 20  1  0  0  0  0
  6 21  1  0  0  0  0
  6  5  1  0  0  0  0
  7 12  1  0  0  0  0
  7  6  1  0  0  0  0
  8  7  2  0  0  0  0
  9 10  2  0  0  0  0
  9  8  1  0  0  0  0
 10 11  1  0  0  0  0
 11 25  1  0  0  0  0
 11 12  2  0  0  0  0
 12  4  1  0  0  0  0
 13  2  1  0  0  0  0
 14 13  2  0  0  0  0
 16  1  1  0  0  0  0
 19  3  1  0  0  0  0
 22  8  1  0  0  0  0
 23  9  1  0  0  0  0
 24 10  1  0  0  0  0
 26 32  1  0  0  0  0
 26 13  1  0  0  0  0
 27 33  1  6  0  0  0
 27 28  1  0  0  0  0
 27 26  1  0  0  0  0
 28 34  1  0  0  0  0
 28 29  1  0  0  0  0
 30 27  1  0  0  0  0
 31 30  2  0  0  0  0
 35 28  1  0  0  0  0
 36 29  1  0  0  0  0
 37 50  1  0  0  0  0
 38 39  1  0  0  0  0
 38 37  1  0  0  0  0
 39 51  1  0  0  0  0
 40 52  1  0  0  0  0
 40 39  2  0  0  0  0
 41 40  1  0  0  0  0
 42 54  1  0  0  0  0
 42 43  1  0  0  0  0
 42 41  1  0  0  0  0
 43 55  1  6  0  0  0
 43 44  1  0  0  0  0
 44 56  1  0  0  0  0
 44 30  1  0  0  0  0
 45 43  1  0  0  0  0
 45 49  1  0  0  0  0
 46 45  2  0  0  0  0
 47 41  2  0  0  0  0
 47 48  1  0  0  0  0
 48 38  2  0  0  0  0
 53 42  1  0  0  0  0
 57 47  1  0  0  0  0
 58 48  1  0  0  0  0
M  END
$$$$
