WDA.pdb
 OpenBabel07022419153D

 49 50  0  0  1  0  0  0  0  0999 V2000
   -1.0500    0.9450   -1.0300 N   0  0  0  0  0  0  0  0  0  0  0  0
    0.2670    0.7960   -0.4600 C   0  0  1  0  0  0  0  0  0  0  0  0
    0.9460    2.1040   -0.2040 C   0  0  0  0  0  0  0  0  0  0  0  0
    2.2790    1.8800    0.3790 C   0  0  0  0  0  0  0  0  0  0  0  0
    2.7130    2.0230    1.6780 C   0  0  0  0  0  0  0  0  0  0  0  0
    4.0250    1.7040    1.7390 N   0  0  0  0  0  0  0  0  0  0  0  0
    4.4690    1.3550    0.5160 C   0  0  0  0  0  0  0  0  0  0  0  0
    5.6950    0.9540    0.0270 C   0  0  0  0  0  0  0  0  0  0  0  0
    5.8460    0.6570   -1.3130 C   0  0  0  0  0  0  0  0  0  0  0  0
    4.7850    0.7530   -2.1850 C   0  0  0  0  0  0  0  0  0  0  0  0
    3.5640    1.1550   -1.6880 C   0  0  0  0  0  0  0  0  0  0  0  0
    3.3920    1.4600   -0.3340 C   0  0  0  0  0  0  0  0  0  0  0  0
    0.1660    0.0000    0.8150 C   0  0  0  0  0  0  0  0  0  0  0  0
    1.1860   -0.2790    1.4950 O   0  0  0  0  0  0  0  0  0  0  0  0
   -1.6880    1.4290   -0.3650 H   0  0  0  0  0  0  0  0  0  0  0  0
   -1.4360   -0.0090   -1.1870 H   0  0  0  0  0  0  0  0  0  0  0  0
    0.8680    0.2230   -1.2000 H   0  0  0  0  0  0  0  0  0  0  0  0
    0.3260    2.7330    0.5010 H   0  0  0  0  0  0  0  0  0  0  0  0
    0.9900    2.6570   -1.1690 H   0  0  0  0  0  0  0  0  0  0  0  0
    2.0600    2.3470    2.4820 H   0  0  0  0  0  0  0  0  0  0  0  0
    4.6400    1.7160    2.5860 H   0  0  0  0  0  0  0  0  0  0  0  0
    6.5270    0.8820    0.7160 H   0  0  0  0  0  0  0  0  0  0  0  0
    6.8310    0.3510   -1.6370 H   0  0  0  0  0  0  0  0  0  0  0  0
    4.8740    0.5260   -3.2320 H   0  0  0  0  0  0  0  0  0  0  0  0
    2.6930    1.2540   -2.3270 H   0  0  0  0  0  0  0  0  0  0  0  0
   -1.0750   -0.4770    1.3190 N   0  0  0  0  0  0  0  0  0  0  0  0
   -1.1960   -1.2380    2.5390 C   0  0  1  0  0  0  0  0  0  0  0  0
   -1.9630   -0.5050    3.6070 C   0  0  0  0  0  0  0  0  0  0  0  0
   -3.3330   -0.1770    3.2380 C   0  0  0  0  0  0  0  0  0  0  0  0
   -4.1150   -1.0980    2.8840 O   0  0  0  0  0  0  0  0  0  0  0  0
   -1.7480   -2.5560    2.2100 C   0  0  0  0  0  0  0  0  0  0  0  0
   -1.9430   -3.3740    3.1410 O   0  0  0  0  0  0  0  0  0  0  0  0
   -3.8280    1.1140    3.2540 O   0  0  0  0  0  0  0  0  0  0  0  0
   -1.9290   -0.2590    0.7730 H   0  0  0  0  0  0  0  0  0  0  0  0
   -0.1610   -1.3680    2.9410 H   0  0  0  0  0  0  0  0  0  0  0  0
   -1.9070   -1.1290    4.5250 H   0  0  0  0  0  0  0  0  0  0  0  0
   -1.3780    0.4180    3.8460 H   0  0  0  0  0  0  0  0  0  0  0  0
   -4.6510    1.2920    2.6660 H   0  0  0  0  0  0  0  0  0  0  0  0
   -3.9920   -3.8950   -0.0800 C   0  0  0  0  0  0  0  0  0  0  0  0
   -2.5970   -4.1720    0.4670 C   0  0  2  0  0  0  0  0  0  0  0  0
   -2.0530   -2.9050    0.8940 N   0  0  0  0  0  0  0  0  0  0  0  0
   -1.8050   -4.8140   -0.5780 C   0  0  0  0  0  0  0  0  0  0  0  0
   -2.1470   -5.9220   -1.0480 O   0  0  0  0  0  0  0  0  0  0  0  0
   -0.6640   -4.2070   -1.0630 O   0  0  0  0  0  0  0  0  0  0  0  0
   -4.7040   -3.8760    0.7520 H   0  0  0  0  0  0  0  0  0  0  0  0
   -4.1900   -4.6410   -0.8500 H   0  0  0  0  0  0  0  0  0  0  0  0
   -3.9720   -2.8900   -0.5900 H   0  0  0  0  0  0  0  0  0  0  0  0
   -2.7080   -4.8030    1.3880 H   0  0  0  0  0  0  0  0  0  0  0  0
   -1.8680   -2.1830    0.1510 H   0  0  0  0  0  0  0  0  0  0  0  0
  1  2  1  0  0  0  0
  1 15  1  0  0  0  0
  2 17  1  6  0  0  0
  2  3  1  0  0  0  0
  2 13  1  0  0  0  0
  3  4  1  0  0  0  0
  3 18  1  0  0  0  0
  4  5  2  0  0  0  0
  5  6  1  0  0  0  0
  5 20  1  0  0  0  0
  6 21  1  0  0  0  0
  7  6  1  0  0  0  0
  8  7  1  0  0  0  0
  8 22  1  0  0  0  0
  9  8  2  0  0  0  0
 10 11  2  0  0  0  0
 10  9  1  0  0  0  0
 11 12  1  0  0  0  0
 12  4  1  0  0  0  0
 12  7  2  0  0  0  0
 13 26  1  0  0  0  0
 13 14  2  0  0  0  0
 16  1  1  0  0  0  0
 19  3  1  0  0  0  0
 23  9  1  0  0  0  0
 24 10  1  0  0  0  0
 25 11  1  0  0  0  0
 26 27  1  0  0  0  0
 27 35  1  1  0  0  0
 27 28  1  0  0  0  0
 28 37  1  0  0  0  0
 28 36  1  0  0  0  0
 29 33  1  0  0  0  0
 29 28  1  0  0  0  0
 30 29  2  0  0  0  0
 31 27  1  0  0  0  0
 31 32  2  0  0  0  0
 34 26  1  0  0  0  0
 38 33  1  0  0  0  0
 39 40  1  0  0  0  0
 39 45  1  0  0  0  0
 40 41  1  0  0  0  0
 40 48  1  1  0  0  0
 41 31  1  0  0  0  0
 42 40  1  0  0  0  0
 43 42  1  0  0  0  0
 44 42  2  0  0  0  0
 46 39  1  0  0  0  0
 47 39  1  0  0  0  0
 49 41  1  0  0  0  0
M  END
$$$$
