WDC.pdb
 OpenBabel07022419163D

 50 51  0  0  1  0  0  0  0  0999 V2000
    0.4700    3.3610   -1.7510 N   0  0  0  0  0  0  0  0  0  0  0  0
    0.7580    1.9870   -1.2620 C   0  0  1  0  0  0  0  0  0  0  0  0
    2.1320    2.0590   -0.7090 C   0  0  0  0  0  0  0  0  0  0  0  0
    2.7180    0.8690   -0.1180 C   0  0  0  0  0  0  0  0  0  0  0  0
    3.5900   -0.0230   -0.7000 C   0  0  0  0  0  0  0  0  0  0  0  0
    3.8680   -0.9630    0.2080 N   0  0  0  0  0  0  0  0  0  0  0  0
    3.2280   -0.7370    1.3510 C   0  0  0  0  0  0  0  0  0  0  0  0
    3.2040   -1.4150    2.5740 C   0  0  0  0  0  0  0  0  0  0  0  0
    2.4490   -0.9560    3.6330 C   0  0  0  0  0  0  0  0  0  0  0  0
    1.7330    0.1900    3.4210 C   0  0  0  0  0  0  0  0  0  0  0  0
    1.7390    0.8740    2.2310 C   0  0  0  0  0  0  0  0  0  0  0  0
    2.4960    0.4130    1.1690 C   0  0  0  0  0  0  0  0  0  0  0  0
   -0.3190    1.6420   -0.3450 C   0  0  0  0  0  0  0  0  0  0  0  0
   -0.8500    2.5390    0.3970 O   0  0  0  0  0  0  0  0  0  0  0  0
    0.6290    4.0250   -0.9420 H   0  0  0  0  0  0  0  0  0  0  0  0
   -0.5680    3.3860   -1.9260 H   0  0  0  0  0  0  0  0  0  0  0  0
    0.7830    1.3660   -2.1850 H   0  0  0  0  0  0  0  0  0  0  0  0
    2.7990    2.3750   -1.5610 H   0  0  0  0  0  0  0  0  0  0  0  0
    2.1540    2.8900    0.0400 H   0  0  0  0  0  0  0  0  0  0  0  0
    3.9950   -0.0020   -1.6960 H   0  0  0  0  0  0  0  0  0  0  0  0
    4.5070   -1.8030    0.0930 H   0  0  0  0  0  0  0  0  0  0  0  0
    3.7880   -2.3170    2.6910 H   0  0  0  0  0  0  0  0  0  0  0  0
    2.4130   -1.4650    4.5920 H   0  0  0  0  0  0  0  0  0  0  0  0
    1.1360    0.5600    4.2450 H   0  0  0  0  0  0  0  0  0  0  0  0
    1.1660    1.7930    2.0870 H   0  0  0  0  0  0  0  0  0  0  0  0
   -0.8670    0.3290   -0.1960 N   0  0  0  0  0  0  0  0  0  0  0  0
   -1.9270    0.1010    0.7450 C   0  0  1  0  0  0  0  0  0  0  0  0
   -3.2820    0.2320    0.0140 C   0  0  0  0  0  0  0  0  0  0  0  0
   -4.3720    0.0360    0.9880 C   0  0  0  0  0  0  0  0  0  0  0  0
   -5.5180   -0.3540    0.5600 O   0  0  0  0  0  0  0  0  0  0  0  0
   -1.8830   -1.2830    1.2360 C   0  0  0  0  0  0  0  0  0  0  0  0
   -2.6400   -1.6800    2.1960 O   0  0  0  0  0  0  0  0  0  0  0  0
   -4.3050    0.2300    2.3450 O   0  0  0  0  0  0  0  0  0  0  0  0
   -0.4950   -0.4090   -0.7710 H   0  0  0  0  0  0  0  0  0  0  0  0
   -2.0060    0.8330    1.5590 H   0  0  0  0  0  0  0  0  0  0  0  0
   -3.3440    1.2500   -0.4010 H   0  0  0  0  0  0  0  0  0  0  0  0
   -3.3620   -0.5710   -0.7450 H   0  0  0  0  0  0  0  0  0  0  0  0
   -5.0030   -0.1220    2.9910 H   0  0  0  0  0  0  0  0  0  0  0  0
   -1.0390   -2.3090    0.7270 N   0  0  0  0  0  0  0  0  0  0  0  0
   -1.0840   -3.6710    1.2890 C   0  0  1  0  0  0  0  0  0  0  0  0
   -1.8710   -4.4800    0.2230 C   0  0  0  0  0  0  0  0  0  0  0  0
   -0.9970   -4.4220   -1.3550 S   0  0  0  0  0  0  0  0  0  0  0  0
    0.2860   -4.1800    1.3820 C   0  0  0  0  0  0  0  0  0  0  0  0
    0.4970   -5.3090    1.8720 O   0  0  0  0  0  0  0  0  0  0  0  0
    1.3450   -3.4310    0.9350 O   0  0  0  0  0  0  0  0  0  0  0  0
   -0.3590   -2.1850   -0.0410 H   0  0  0  0  0  0  0  0  0  0  0  0
   -1.6710   -3.6890    2.2250 H   0  0  0  0  0  0  0  0  0  0  0  0
   -1.9240   -5.5160    0.5640 H   0  0  0  0  0  0  0  0  0  0  0  0
   -2.8900   -4.0820    0.1280 H   0  0  0  0  0  0  0  0  0  0  0  0
   -1.3480   -3.2890   -2.1020 H   0  0  0  0  0  0  0  0  0  0  0  0
  1  2  1  0  0  0  0
  1 15  1  0  0  0  0
  2 17  1  6  0  0  0
  2  3  1  0  0  0  0
  2 13  1  0  0  0  0
  3  4  1  0  0  0  0
  3 19  1  0  0  0  0
  4 12  1  0  0  0  0
  5  4  2  0  0  0  0
  5  6  1  0  0  0  0
  6  7  1  0  0  0  0
  7  8  1  0  0  0  0
  8 22  1  0  0  0  0
  8  9  2  0  0  0  0
  9 23  1  0  0  0  0
 10  9  1  0  0  0  0
 10 24  1  0  0  0  0
 11 10  2  0  0  0  0
 12  7  2  0  0  0  0
 12 11  1  0  0  0  0
 13 26  1  0  0  0  0
 13 14  2  0  0  0  0
 16  1  1  0  0  0  0
 18  3  1  0  0  0  0
 20  5  1  0  0  0  0
 21  6  1  0  0  0  0
 25 11  1  0  0  0  0
 26 27  1  0  0  0  0
 27 31  1  0  0  0  0
 27 35  1  1  0  0  0
 28 27  1  0  0  0  0
 28 29  1  0  0  0  0
 29 33  1  0  0  0  0
 30 29  2  0  0  0  0
 31 32  2  0  0  0  0
 33 38  1  0  0  0  0
 34 26  1  0  0  0  0
 36 28  1  0  0  0  0
 37 28  1  0  0  0  0
 39 31  1  0  0  0  0
 39 40  1  0  0  0  0
 40 43  1  0  0  0  0
 40 47  1  1  0  0  0
 41 48  1  0  0  0  0
 41 40  1  0  0  0  0
 42 41  1  0  0  0  0
 43 44  1  0  0  0  0
 45 43  2  0  0  0  0
 46 39  1  0  0  0  0
 49 41  1  0  0  0  0
 50 42  1  0  0  0  0
M  END
$$$$
