WDD.pdb
 OpenBabel07022419153D

 52 53  0  0  1  0  0  0  0  0999 V2000
    1.7690   -0.9690   -0.9000 N   0  0  0  0  0  0  0  0  0  0  0  0
    1.1810   -1.7440    0.1670 C   0  0  1  0  0  0  0  0  0  0  0  0
    2.1280   -2.0920    1.2520 C   0  0  0  0  0  0  0  0  0  0  0  0
    2.6590   -0.8570    1.8730 C   0  0  0  0  0  0  0  0  0  0  0  0
    2.1590   -0.3180    3.0680 C   0  0  0  0  0  0  0  0  0  0  0  0
    2.8240    0.8080    3.3570 N   0  0  0  0  0  0  0  0  0  0  0  0
    3.7490    1.0560    2.4150 C   0  0  0  0  0  0  0  0  0  0  0  0
    4.6850    2.0620    2.2420 C   0  0  0  0  0  0  0  0  0  0  0  0
    5.5090    2.0190    1.1470 C   0  0  0  0  0  0  0  0  0  0  0  0
    5.4150    0.9960    0.2290 C   0  0  0  0  0  0  0  0  0  0  0  0
    4.4840   -0.0010    0.4050 C   0  0  0  0  0  0  0  0  0  0  0  0
    3.6450    0.0210    1.4970 C   0  0  0  0  0  0  0  0  0  0  0  0
   -0.0520   -1.0710    0.6100 C   0  0  0  0  0  0  0  0  0  0  0  0
   -0.4010   -0.0330   -0.0040 O   0  0  0  0  0  0  0  0  0  0  0  0
    2.0850   -1.5770   -1.7100 H   0  0  0  0  0  0  0  0  0  0  0  0
    1.0650   -0.2730   -1.3020 H   0  0  0  0  0  0  0  0  0  0  0  0
    0.8360   -2.7160   -0.3160 H   0  0  0  0  0  0  0  0  0  0  0  0
    1.7650   -2.8170    1.9790 H   0  0  0  0  0  0  0  0  0  0  0  0
    3.0340   -2.5870    0.7820 H   0  0  0  0  0  0  0  0  0  0  0  0
    1.3610   -0.7830    3.6260 H   0  0  0  0  0  0  0  0  0  0  0  0
    2.6570    1.4100    4.1830 H   0  0  0  0  0  0  0  0  0  0  0  0
    4.7530    2.8580    2.9600 H   0  0  0  0  0  0  0  0  0  0  0  0
    6.2590    2.7980    0.9830 H   0  0  0  0  0  0  0  0  0  0  0  0
    6.0620    0.9700   -0.6290 H   0  0  0  0  0  0  0  0  0  0  0  0
    4.4320   -0.8190   -0.3340 H   0  0  0  0  0  0  0  0  0  0  0  0
   -0.8810   -1.5030    1.6820 N   0  0  0  0  0  0  0  0  0  0  0  0
   -2.0940   -0.7650    2.0630 C   0  0  1  0  0  0  0  0  0  0  0  0
   -1.7680    0.5920    2.5660 C   0  0  0  0  0  0  0  0  0  0  0  0
   -2.8780    1.4310    3.0060 C   0  0  0  0  0  0  0  0  0  0  0  0
   -4.0870    1.1440    3.0940 O   0  0  0  0  0  0  0  0  0  0  0  0
   -3.0980   -0.8360    0.9830 C   0  0  0  0  0  0  0  0  0  0  0  0
   -4.1900   -0.2180    0.9510 O   0  0  0  0  0  0  0  0  0  0  0  0
   -2.5610    2.7530    3.3900 O   0  0  0  0  0  0  0  0  0  0  0  0
   -0.5800   -2.3610    2.1750 H   0  0  0  0  0  0  0  0  0  0  0  0
   -2.5360   -1.3540    2.9090 H   0  0  0  0  0  0  0  0  0  0  0  0
   -1.2320    1.1640    1.7500 H   0  0  0  0  0  0  0  0  0  0  0  0
   -0.9820    0.4920    3.3850 H   0  0  0  0  0  0  0  0  0  0  0  0
   -3.1120    3.2620    4.0800 H   0  0  0  0  0  0  0  0  0  0  0  0
   -2.8860   -1.6720   -0.1860 N   0  0  0  0  0  0  0  0  0  0  0  0
   -3.8550   -1.7380   -1.2480 C   0  0  1  0  0  0  0  0  0  0  0  0
   -3.2040   -1.2540   -2.5260 C   0  0  0  0  0  0  0  0  0  0  0  0
   -2.0430   -2.0390   -2.9580 C   0  0  0  0  0  0  0  0  0  0  0  0
   -1.0340   -2.3020   -2.2620 O   0  0  0  0  0  0  0  0  0  0  0  0
   -4.4310   -3.0830   -1.4150 C   0  0  0  0  0  0  0  0  0  0  0  0
   -5.2960   -3.2960   -2.2920 O   0  0  0  0  0  0  0  0  0  0  0  0
   -2.0090   -2.5710   -4.2660 O   0  0  0  0  0  0  0  0  0  0  0  0
   -4.0340   -4.1400   -0.6140 O   0  0  0  0  0  0  0  0  0  0  0  0
   -2.0120   -2.2300   -0.2100 H   0  0  0  0  0  0  0  0  0  0  0  0
   -4.7200   -1.0500   -1.0670 H   0  0  0  0  0  0  0  0  0  0  0  0
   -2.8150   -0.2190   -2.2920 H   0  0  0  0  0  0  0  0  0  0  0  0
   -3.9680   -1.1890   -3.3400 H   0  0  0  0  0  0  0  0  0  0  0  0
   -1.5180   -3.4350   -4.4680 H   0  0  0  0  0  0  0  0  0  0  0  0
  1  2  1  0  0  0  0
  2 17  1  6  0  0  0
  2 13  1  0  0  0  0
  2  3  1  0  0  0  0
  3  4  1  0  0  0  0
  3 18  1  0  0  0  0
  4  5  2  0  0  0  0
  5  6  1  0  0  0  0
  5 20  1  0  0  0  0
  6 21  1  0  0  0  0
  7  6  1  0  0  0  0
  8  7  1  0  0  0  0
  8 22  1  0  0  0  0
  9  8  2  0  0  0  0
 10 11  2  0  0  0  0
 10  9  1  0  0  0  0
 11 12  1  0  0  0  0
 12  4  1  0  0  0  0
 12  7  2  0  0  0  0
 13 26  1  0  0  0  0
 14 13  2  0  0  0  0
 15  1  1  0  0  0  0
 16  1  1  0  0  0  0
 19  3  1  0  0  0  0
 23  9  1  0  0  0  0
 24 10  1  0  0  0  0
 25 11  1  0  0  0  0
 26 27  1  0  0  0  0
 26 34  1  0  0  0  0
 27 28  1  0  0  0  0
 27 35  1  1  0  0  0
 28 29  1  0  0  0  0
 28 37  1  0  0  0  0
 29 30  2  0  0  0  0
 29 33  1  0  0  0  0
 31 27  1  0  0  0  0
 32 31  2  0  0  0  0
 33 38  1  0  0  0  0
 36 28  1  0  0  0  0
 39 31  1  0  0  0  0
 40 49  1  1  0  0  0
 40 39  1  0  0  0  0
 41 50  1  0  0  0  0
 41 40  1  0  0  0  0
 42 41  1  0  0  0  0
 42 43  2  0  0  0  0
 44 40  1  0  0  0  0
 44 47  1  0  0  0  0
 45 44  2  0  0  0  0
 46 42  1  0  0  0  0
 48 39  1  0  0  0  0
 51 41  1  0  0  0  0
 52 46  1  0  0  0  0
M  END
$$$$
