WDE.pdb
 OpenBabel07022419163D

 55 56  0  0  1  0  0  0  0  0999 V2000
    0.0010    1.7220    3.5970 N   0  0  0  0  0  0  0  0  0  0  0  0
    0.4940    1.1780    2.3530 C   0  0  1  0  0  0  0  0  0  0  0  0
    1.1890   -0.1460    2.6570 C   0  0  0  0  0  0  0  0  0  0  0  0
    2.3180    0.0290    3.5720 C   0  0  0  0  0  0  0  0  0  0  0  0
    2.3850   -0.2730    4.9020 C   0  0  0  0  0  0  0  0  0  0  0  0
    3.6180    0.0540    5.3440 N   0  0  0  0  0  0  0  0  0  0  0  0
    4.3410    0.5580    4.3290 C   0  0  0  0  0  0  0  0  0  0  0  0
    5.6340    1.0370    4.2410 C   0  0  0  0  0  0  0  0  0  0  0  0
    6.1240    1.5030    3.0510 C   0  0  0  0  0  0  0  0  0  0  0  0
    5.3170    1.4940    1.9300 C   0  0  0  0  0  0  0  0  0  0  0  0
    4.0410    1.0270    1.9920 C   0  0  0  0  0  0  0  0  0  0  0  0
    3.5470    0.5540    3.2070 C   0  0  0  0  0  0  0  0  0  0  0  0
   -0.5650    0.9060    1.3550 C   0  0  0  0  0  0  0  0  0  0  0  0
   -1.7450    1.1670    1.6490 O   0  0  0  0  0  0  0  0  0  0  0  0
   -1.0200    1.7980    3.6570 H   0  0  0  0  0  0  0  0  0  0  0  0
    0.4960    2.5890    3.8850 H   0  0  0  0  0  0  0  0  0  0  0  0
    1.2260    1.9100    1.9370 H   0  0  0  0  0  0  0  0  0  0  0  0
    0.4270   -0.8500    3.0550 H   0  0  0  0  0  0  0  0  0  0  0  0
    1.5170   -0.5640    1.6640 H   0  0  0  0  0  0  0  0  0  0  0  0
    1.5840   -0.7060    5.5120 H   0  0  0  0  0  0  0  0  0  0  0  0
    4.0020   -0.0460    6.3030 H   0  0  0  0  0  0  0  0  0  0  0  0
    6.2750    1.0510    5.1050 H   0  0  0  0  0  0  0  0  0  0  0  0
    7.1450    1.8750    3.0020 H   0  0  0  0  0  0  0  0  0  0  0  0
    5.7230    1.8650    1.0040 H   0  0  0  0  0  0  0  0  0  0  0  0
    3.3610    0.9960    1.1440 H   0  0  0  0  0  0  0  0  0  0  0  0
   -0.1930    0.3670    0.1180 N   0  0  0  0  0  0  0  0  0  0  0  0
   -1.2200    0.0800   -0.9230 C   0  0  1  0  0  0  0  0  0  0  0  0
   -0.8080    0.8590   -2.1250 C   0  0  0  0  0  0  0  0  0  0  0  0
   -1.6270    0.8400   -3.3040 C   0  0  0  0  0  0  0  0  0  0  0  0
   -2.7570    0.3310   -3.3990 O   0  0  0  0  0  0  0  0  0  0  0  0
   -1.1920   -1.3990   -1.0950 C   0  0  0  0  0  0  0  0  0  0  0  0
   -0.1510   -1.9890   -0.6300 O   0  0  0  0  0  0  0  0  0  0  0  0
   -1.1720    1.4390   -4.5180 O   0  0  0  0  0  0  0  0  0  0  0  0
    0.7790    0.1550   -0.1120 H   0  0  0  0  0  0  0  0  0  0  0  0
   -2.2040    0.3790   -0.5710 H   0  0  0  0  0  0  0  0  0  0  0  0
   -0.6980    1.9430   -1.7880 H   0  0  0  0  0  0  0  0  0  0  0  0
    0.2660    0.5710   -2.3200 H   0  0  0  0  0  0  0  0  0  0  0  0
   -1.8600    1.7860   -5.1800 H   0  0  0  0  0  0  0  0  0  0  0  0
   -2.1880   -2.1910   -1.7040 N   0  0  0  0  0  0  0  0  0  0  0  0
   -2.0510   -3.6220   -1.8250 C   0  0  1  0  0  0  0  0  0  0  0  0
   -3.0220   -4.4040   -1.0440 C   0  0  0  0  0  0  0  0  0  0  0  0
   -4.4630   -4.2810   -1.2890 C   0  0  0  0  0  0  0  0  0  0  0  0
   -5.1190   -2.9990   -1.1330 C   0  0  0  0  0  0  0  0  0  0  0  0
   -5.6100   -2.4140   -2.1300 O   0  0  0  0  0  0  0  0  0  0  0  0
   -1.9220   -4.0580   -3.2390 C   0  0  0  0  0  0  0  0  0  0  0  0
   -1.8010   -5.2720   -3.5210 O   0  0  0  0  0  0  0  0  0  0  0  0
   -5.2460   -2.3540    0.0810 O   0  0  0  0  0  0  0  0  0  0  0  0
   -1.9290   -3.1650   -4.2930 O   0  0  0  0  0  0  0  0  0  0  0  0
   -3.0380   -1.7550   -2.0520 H   0  0  0  0  0  0  0  0  0  0  0  0
   -1.0350   -3.8730   -1.3710 H   0  0  0  0  0  0  0  0  0  0  0  0
   -2.7740   -4.2120    0.0520 H   0  0  0  0  0  0  0  0  0  0  0  0
   -2.6970   -5.4900   -1.1470 H   0  0  0  0  0  0  0  0  0  0  0  0
   -4.9740   -5.0260   -0.5960 H   0  0  0  0  0  0  0  0  0  0  0  0
   -4.6780   -4.7540   -2.3020 H   0  0  0  0  0  0  0  0  0  0  0  0
   -6.0320   -1.7100    0.1900 H   0  0  0  0  0  0  0  0  0  0  0  0
  1 15  1  0  0  0  0
  1 16  1  0  0  0  0
  2 17  1  6  0  0  0
  2  3  1  0  0  0  0
  2  1  1  0  0  0  0
  3 18  1  0  0  0  0
  3  4  1  0  0  0  0
  4  5  2  0  0  0  0
  5  6  1  0  0  0  0
  5 20  1  0  0  0  0
  6 21  1  0  0  0  0
  7  6  1  0  0  0  0
  8  7  1  0  0  0  0
  8 22  1  0  0  0  0
  9  8  2  0  0  0  0
 10 11  2  0  0  0  0
 10  9  1  0  0  0  0
 11 12  1  0  0  0  0
 12  4  1  0  0  0  0
 12  7  2  0  0  0  0
 13 14  2  0  0  0  0
 13  2  1  0  0  0  0
 19  3  1  0  0  0  0
 23  9  1  0  0  0  0
 24 10  1  0  0  0  0
 25 11  1  0  0  0  0
 26 13  1  0  0  0  0
 27 35  1  1  0  0  0
 27 26  1  0  0  0  0
 28 36  1  0  0  0  0
 28 27  1  0  0  0  0
 29 28  1  0  0  0  0
 30 29  2  0  0  0  0
 31 27  1  0  0  0  0
 31 32  2  0  0  0  0
 33 29  1  0  0  0  0
 34 26  1  0  0  0  0
 37 28  1  0  0  0  0
 38 33  1  0  0  0  0
 39 31  1  0  0  0  0
 40 39  1  0  0  0  0
 40 50  1  1  0  0  0
 40 41  1  0  0  0  0
 41 51  1  0  0  0  0
 42 43  1  0  0  0  0
 42 41  1  0  0  0  0
 42 53  1  0  0  0  0
 43 47  1  0  0  0  0
 44 43  2  0  0  0  0
 45 40  1  0  0  0  0
 46 45  1  0  0  0  0
 47 55  1  0  0  0  0
 48 45  2  0  0  0  0
 49 39  1  0  0  0  0
 52 41  1  0  0  0  0
 54 42  1  0  0  0  0
M  END
$$$$
