WDF.pdb
 OpenBabel07022419163D

 59 61  0  0  1  0  0  0  0  0999 V2000
    0.4790   -0.8730    3.3220 N   0  0  0  0  0  0  0  0  0  0  0  0
   -0.2290    0.3210    2.9040 C   0  0  1  0  0  0  0  0  0  0  0  0
    0.3990    1.5350    3.4950 C   0  0  0  0  0  0  0  0  0  0  0  0
    1.7920    1.8080    3.1850 C   0  0  0  0  0  0  0  0  0  0  0  0
    2.8640    1.3170    3.9430 C   0  0  0  0  0  0  0  0  0  0  0  0
    4.0260    1.6750    3.3980 N   0  0  0  0  0  0  0  0  0  0  0  0
    3.7380    2.3950    2.2930 C   0  0  0  0  0  0  0  0  0  0  0  0
    4.5540    3.0080    1.3850 C   0  0  0  0  0  0  0  0  0  0  0  0
    4.0720    3.7260    0.3180 C   0  0  0  0  0  0  0  0  0  0  0  0
    2.7070    3.8280    0.1620 C   0  0  0  0  0  0  0  0  0  0  0  0
    1.8780    3.2120    1.0710 C   0  0  0  0  0  0  0  0  0  0  0  0
    2.3790    2.4830    2.1520 C   0  0  0  0  0  0  0  0  0  0  0  0
   -0.4540    0.4120    1.4790 C   0  0  0  0  0  0  0  0  0  0  0  0
   -0.9930    1.4440    1.0080 O   0  0  0  0  0  0  0  0  0  0  0  0
    1.4310   -0.9360    2.9540 H   0  0  0  0  0  0  0  0  0  0  0  0
   -0.0560   -1.7450    3.1820 H   0  0  0  0  0  0  0  0  0  0  0  0
   -1.2680    0.2540    3.3840 H   0  0  0  0  0  0  0  0  0  0  0  0
   -0.2220    2.4480    3.1970 H   0  0  0  0  0  0  0  0  0  0  0  0
    0.2190    1.5130    4.6250 H   0  0  0  0  0  0  0  0  0  0  0  0
    2.7750    0.7290    4.8470 H   0  0  0  0  0  0  0  0  0  0  0  0
    4.9980    1.4470    3.7520 H   0  0  0  0  0  0  0  0  0  0  0  0
    5.6420    2.9350    1.4980 H   0  0  0  0  0  0  0  0  0  0  0  0
    4.7520    4.2030   -0.3870 H   0  0  0  0  0  0  0  0  0  0  0  0
    2.3000    4.3920   -0.6750 H   0  0  0  0  0  0  0  0  0  0  0  0
    0.8320    3.3120    0.9470 H   0  0  0  0  0  0  0  0  0  0  0  0
   -0.1080   -0.6040    0.5390 N   0  0  0  0  0  0  0  0  0  0  0  0
   -0.3850   -0.3980   -0.8600 C   0  0  1  0  0  0  0  0  0  0  0  0
    0.7110   -0.9850   -1.6770 C   0  0  0  0  0  0  0  0  0  0  0  0
    2.0460   -0.4160   -1.4150 C   0  0  0  0  0  0  0  0  0  0  0  0
    2.1530    0.4730   -0.5400 O   0  0  0  0  0  0  0  0  0  0  0  0
   -1.7090   -1.0300   -1.2280 C   0  0  0  0  0  0  0  0  0  0  0  0
   -2.1220   -0.9740   -2.4120 O   0  0  0  0  0  0  0  0  0  0  0  0
    3.1650   -0.8280   -2.0940 O   0  0  0  0  0  0  0  0  0  0  0  0
    0.3290   -1.4560    0.8860 H   0  0  0  0  0  0  0  0  0  0  0  0
   -0.5370    0.6690   -1.1160 H   0  0  0  0  0  0  0  0  0  0  0  0
    0.8120   -2.0940   -1.5380 H   0  0  0  0  0  0  0  0  0  0  0  0
    0.4930   -0.8250   -2.7710 H   0  0  0  0  0  0  0  0  0  0  0  0
    4.1170   -0.6790   -1.7770 H   0  0  0  0  0  0  0  0  0  0  0  0
   -2.5230   -1.6970   -0.2750 N   0  0  0  0  0  0  0  0  0  0  0  0
   -3.7930   -2.3060   -0.6110 C   0  0  1  0  0  0  0  0  0  0  0  0
   -3.7690   -3.7620   -0.2050 C   0  0  0  0  0  0  0  0  0  0  0  0
   -2.6640   -4.4240   -0.9450 C   0  0  0  0  0  0  0  0  0  0  0  0
   -2.8680   -5.0000   -2.1820 C   0  0  0  0  0  0  0  0  0  0  0  0
   -1.8180   -5.6180   -2.8580 C   0  0  0  0  0  0  0  0  0  0  0  0
   -0.5560   -5.6650   -2.3020 C   0  0  0  0  0  0  0  0  0  0  0  0
   -0.3390   -5.0940   -1.0690 C   0  0  0  0  0  0  0  0  0  0  0  0
   -1.3800   -4.4950   -0.4260 C   0  0  0  0  0  0  0  0  0  0  0  0
   -4.9170   -1.6580    0.1230 C   0  0  0  0  0  0  0  0  0  0  0  0
   -6.0740   -2.0960   -0.0790 O   0  0  0  0  0  0  0  0  0  0  0  0
   -4.7550   -0.6080    1.0090 O   0  0  0  0  0  0  0  0  0  0  0  0
   -2.1680   -1.7370    0.7050 H   0  0  0  0  0  0  0  0  0  0  0  0
   -4.0390   -2.2320   -1.6710 H   0  0  0  0  0  0  0  0  0  0  0  0
   -3.5540   -3.8650    0.8780 H   0  0  0  0  0  0  0  0  0  0  0  0
   -4.7100   -4.2610   -0.5100 H   0  0  0  0  0  0  0  0  0  0  0  0
   -3.8560   -4.9860   -2.6600 H   0  0  0  0  0  0  0  0  0  0  0  0
   -1.9870   -6.0630   -3.8180 H   0  0  0  0  0  0  0  0  0  0  0  0
    0.2580   -6.1440   -2.8250 H   0  0  0  0  0  0  0  0  0  0  0  0
    0.6260   -5.0910   -0.5670 H   0  0  0  0  0  0  0  0  0  0  0  0
   -1.2400   -4.0330    0.5530 H   0  0  0  0  0  0  0  0  0  0  0  0
  2  1  1  0  0  0  0
  2 17  1  1  0  0  0
  2  3  1  0  0  0  0
  3 19  1  0  0  0  0
  4  3  1  0  0  0  0
  4  5  2  0  0  0  0
  5 20  1  0  0  0  0
  6 21  1  0  0  0  0
  6  5  1  0  0  0  0
  7  6  1  0  0  0  0
  8 22  1  0  0  0  0
  8  7  2  0  0  0  0
  9  8  1  0  0  0  0
 10  9  2  0  0  0  0
 10 11  1  0  0  0  0
 11 12  2  0  0  0  0
 12  7  1  0  0  0  0
 12  4  1  0  0  0  0
 13  2  1  0  0  0  0
 14 13  2  0  0  0  0
 15  1  1  0  0  0  0
 16  1  1  0  0  0  0
 18  3  1  0  0  0  0
 23  9  1  0  0  0  0
 24 10  1  0  0  0  0
 25 11  1  0  0  0  0
 26 34  1  0  0  0  0
 26 13  1  0  0  0  0
 27 35  1  6  0  0  0
 27 26  1  0  0  0  0
 28 36  1  0  0  0  0
 28 29  1  0  0  0  0
 28 27  1  0  0  0  0
 29 30  2  0  0  0  0
 31 27  1  0  0  0  0
 31 39  1  0  0  0  0
 32 31  2  0  0  0  0
 33 38  1  0  0  0  0
 33 29  1  0  0  0  0
 37 28  1  0  0  0  0
 39 51  1  0  0  0  0
 40 52  1  6  0  0  0
 40 39  1  0  0  0  0
 40 41  1  0  0  0  0
 40 48  1  0  0  0  0
 41 53  1  0  0  0  0
 42 47  1  0  0  0  0
 42 41  1  0  0  0  0
 43 42  2  0  0  0  0
 44 45  2  0  0  0  0
 44 43  1  0  0  0  0
 45 46  1  0  0  0  0
 46 58  1  0  0  0  0
 46 47  2  0  0  0  0
 47 59  1  0  0  0  0
 48 50  1  0  0  0  0
 49 48  2  0  0  0  0
 54 41  1  0  0  0  0
 55 43  1  0  0  0  0
 56 44  1  0  0  0  0
 57 45  1  0  0  0  0
M  END
$$$$
