WDH.pdb
 OpenBabel07022419163D

 56 58  0  0  1  0  0  0  0  0999 V2000
    0.7550    1.6910    4.5840 N   0  0  0  0  0  0  0  0  0  0  0  0
    0.1210    1.9050    3.2570 C   0  0  1  0  0  0  0  0  0  0  0  0
    1.1210    2.6230    2.3850 C   0  0  0  0  0  0  0  0  0  0  0  0
    2.3660    1.8540    2.1710 C   0  0  0  0  0  0  0  0  0  0  0  0
    3.5310    1.7670    2.8950 C   0  0  0  0  0  0  0  0  0  0  0  0
    4.3480    0.8630    2.3150 N   0  0  0  0  0  0  0  0  0  0  0  0
    3.7710    0.3380    1.2240 C   0  0  0  0  0  0  0  0  0  0  0  0
    4.1700   -0.5770    0.2790 C   0  0  0  0  0  0  0  0  0  0  0  0
    3.3510   -0.9090   -0.7950 C   0  0  0  0  0  0  0  0  0  0  0  0
    2.1240   -0.3000   -0.9000 C   0  0  0  0  0  0  0  0  0  0  0  0
    1.7250    0.6130    0.0470 C   0  0  0  0  0  0  0  0  0  0  0  0
    2.5370    0.9500    1.1240 C   0  0  0  0  0  0  0  0  0  0  0  0
   -0.3370    0.5990    2.8240 C   0  0  0  0  0  0  0  0  0  0  0  0
    0.1050   -0.4350    3.4360 O   0  0  0  0  0  0  0  0  0  0  0  0
    0.0890    1.8140    5.3490 H   0  0  0  0  0  0  0  0  0  0  0  0
    1.3420    0.8450    4.5910 H   0  0  0  0  0  0  0  0  0  0  0  0
   -0.7100    2.6180    3.4940 H   0  0  0  0  0  0  0  0  0  0  0  0
    0.6360    2.7840    1.3980 H   0  0  0  0  0  0  0  0  0  0  0  0
    1.4120    3.5750    2.8700 H   0  0  0  0  0  0  0  0  0  0  0  0
    3.7250    2.3520    3.7910 H   0  0  0  0  0  0  0  0  0  0  0  0
    5.2880    0.6210    2.6810 H   0  0  0  0  0  0  0  0  0  0  0  0
    5.1360   -1.0480    0.3750 H   0  0  0  0  0  0  0  0  0  0  0  0
    3.6880   -1.6360   -1.5290 H   0  0  0  0  0  0  0  0  0  0  0  0
    1.4440   -0.4850   -1.7080 H   0  0  0  0  0  0  0  0  0  0  0  0
    0.7660    1.1020   -0.0130 H   0  0  0  0  0  0  0  0  0  0  0  0
   -1.2730    0.3330    1.7550 N   0  0  0  0  0  0  0  0  0  0  0  0
   -1.6580   -0.9960    1.4810 C   0  0  1  0  0  0  0  0  0  0  0  0
   -3.0280   -1.1940    2.1830 C   0  0  0  0  0  0  0  0  0  0  0  0
   -3.5440   -2.5590    1.9590 C   0  0  0  0  0  0  0  0  0  0  0  0
   -4.4990   -2.8200    1.1500 O   0  0  0  0  0  0  0  0  0  0  0  0
   -1.8420   -1.4350    0.0840 C   0  0  0  0  0  0  0  0  0  0  0  0
   -2.2350   -2.6590   -0.1010 O   0  0  0  0  0  0  0  0  0  0  0  0
   -2.9960   -3.6430    2.6370 O   0  0  0  0  0  0  0  0  0  0  0  0
   -1.6410    1.1300    1.2140 H   0  0  0  0  0  0  0  0  0  0  0  0
   -1.0020   -1.7170    2.0530 H   0  0  0  0  0  0  0  0  0  0  0  0
   -2.9570   -0.9280    3.2370 H   0  0  0  0  0  0  0  0  0  0  0  0
   -3.7110   -0.4760    1.6840 H   0  0  0  0  0  0  0  0  0  0  0  0
   -3.2130   -4.5960    2.3240 H   0  0  0  0  0  0  0  0  0  0  0  0
   -1.6340   -0.6630   -1.0690 N   0  0  0  0  0  0  0  0  0  0  0  0
   -1.7610   -1.0180   -2.4320 C   0  0  1  0  0  0  0  0  0  0  0  0
   -2.2470   -2.3660   -2.8210 C   0  0  0  0  0  0  0  0  0  0  0  0
   -1.3160   -3.4460   -2.4490 C   0  0  0  0  0  0  0  0  0  0  0  0
   -0.0470   -3.4280   -1.9100 C   0  0  0  0  0  0  0  0  0  0  0  0
    0.4200   -4.6850   -1.8150 N   0  0  0  0  0  0  0  0  0  0  0  0
   -0.5230   -5.5020   -2.2820 C   0  0  0  0  0  0  0  0  0  0  0  0
   -1.5820   -4.7770   -2.6710 N   0  0  0  0  0  0  0  0  0  0  0  0
   -2.2410    0.0130   -3.3450 C   0  0  0  0  0  0  0  0  0  0  0  0
   -2.5390    1.1820   -2.9470 O   0  0  0  0  0  0  0  0  0  0  0  0
   -2.3800   -0.2810   -4.6910 O   0  0  0  0  0  0  0  0  0  0  0  0
   -1.3330    0.3690   -0.8560 H   0  0  0  0  0  0  0  0  0  0  0  0
   -0.6070   -1.1530   -2.7370 H   0  0  0  0  0  0  0  0  0  0  0  0
   -2.3760   -2.3540   -3.9300 H   0  0  0  0  0  0  0  0  0  0  0  0
   -3.2630   -2.6050   -2.4320 H   0  0  0  0  0  0  0  0  0  0  0  0
    0.4810   -2.5540   -1.6080 H   0  0  0  0  0  0  0  0  0  0  0  0
    1.3550   -4.9560   -1.4400 H   0  0  0  0  0  0  0  0  0  0  0  0
   -0.4000   -6.5710   -2.3200 H   0  0  0  0  0  0  0  0  0  0  0  0
  1 16  1  0  0  0  0
  1 15  1  0  0  0  0
  2 17  1  1  0  0  0
  2  1  1  0  0  0  0
  3 19  1  0  0  0  0
  3  2  1  0  0  0  0
  4  3  1  0  0  0  0
  4  5  2  0  0  0  0
  5 20  1  0  0  0  0
  6 21  1  0  0  0  0
  6  5  1  0  0  0  0
  7  6  1  0  0  0  0
  8 22  1  0  0  0  0
  8  7  2  0  0  0  0
  9  8  1  0  0  0  0
 10  9  2  0  0  0  0
 10 11  1  0  0  0  0
 11 12  2  0  0  0  0
 12  7  1  0  0  0  0
 12  4  1  0  0  0  0
 13  2  1  0  0  0  0
 13 14  2  0  0  0  0
 18  3  1  0  0  0  0
 23  9  1  0  0  0  0
 24 10  1  0  0  0  0
 25 11  1  0  0  0  0
 26 13  1  0  0  0  0
 27 26  1  0  0  0  0
 27 35  1  1  0  0  0
 27 28  1  0  0  0  0
 28 36  1  0  0  0  0
 29 28  1  0  0  0  0
 29 33  1  0  0  0  0
 30 29  2  0  0  0  0
 31 27  1  0  0  0  0
 32 31  2  0  0  0  0
 34 26  1  0  0  0  0
 37 28  1  0  0  0  0
 38 33  1  0  0  0  0
 39 50  1  0  0  0  0
 39 31  1  0  0  0  0
 40 51  1  6  0  0  0
 40 39  1  0  0  0  0
 41 42  1  0  0  0  0
 41 40  1  0  0  0  0
 41 53  1  0  0  0  0
 42 43  2  0  0  0  0
 43 44  1  0  0  0  0
 43 54  1  0  0  0  0
 44 55  1  0  0  0  0
 45 44  1  0  0  0  0
 46 42  1  0  0  0  0
 46 45  2  0  0  0  0
 47 48  1  0  0  0  0
 47 40  1  0  0  0  0
 49 47  2  0  0  0  0
 52 41  1  0  0  0  0
 56 45  1  0  0  0  0
M  END
$$$$
