WDI.pdb
 OpenBabel07022419163D

 58 59  0  0  1  0  0  0  0  0999 V2000
    0.5590    1.7620   -0.7860 N   0  0  0  0  0  0  0  0  0  0  0  0
    1.5240    1.1210    0.0670 C   0  0  1  0  0  0  0  0  0  0  0  0
    2.3780    2.1850    0.7600 C   0  0  0  0  0  0  0  0  0  0  0  0
    3.3830    1.5810    1.6430 C   0  0  0  0  0  0  0  0  0  0  0  0
    3.3600    1.4960    3.0150 C   0  0  0  0  0  0  0  0  0  0  0  0
    4.4720    0.8650    3.4320 N   0  0  0  0  0  0  0  0  0  0  0  0
    5.2340    0.5280    2.3900 C   0  0  0  0  0  0  0  0  0  0  0  0
    6.4330   -0.1100    2.2710 C   0  0  0  0  0  0  0  0  0  0  0  0
    7.0430   -0.3510    1.0390 C   0  0  0  0  0  0  0  0  0  0  0  0
    6.3540    0.1010   -0.0750 C   0  0  0  0  0  0  0  0  0  0  0  0
    5.1510    0.7430    0.0200 C   0  0  0  0  0  0  0  0  0  0  0  0
    4.5790    0.9630    1.2610 C   0  0  0  0  0  0  0  0  0  0  0  0
    0.8080    0.3420    1.1410 C   0  0  0  0  0  0  0  0  0  0  0  0
    1.4370   -0.2760    2.0360 O   0  0  0  0  0  0  0  0  0  0  0  0
    1.0190    2.5960   -1.2180 H   0  0  0  0  0  0  0  0  0  0  0  0
    0.3170    1.0880   -1.5550 H   0  0  0  0  0  0  0  0  0  0  0  0
    2.1580    0.4390   -0.4980 H   0  0  0  0  0  0  0  0  0  0  0  0
    2.8610    2.8270    0.0160 H   0  0  0  0  0  0  0  0  0  0  0  0
    1.7090    2.8300    1.3820 H   0  0  0  0  0  0  0  0  0  0  0  0
    2.5850    1.8650    3.7000 H   0  0  0  0  0  0  0  0  0  0  0  0
    4.7230    0.6590    4.4260 H   0  0  0  0  0  0  0  0  0  0  0  0
    6.9890   -0.4720    3.1340 H   0  0  0  0  0  0  0  0  0  0  0  0
    7.9810   -0.8480    0.9250 H   0  0  0  0  0  0  0  0  0  0  0  0
    6.7600   -0.0460   -1.0810 H   0  0  0  0  0  0  0  0  0  0  0  0
    4.6380    1.0850   -0.8900 H   0  0  0  0  0  0  0  0  0  0  0  0
   -0.6130    0.2790    1.1770 N   0  0  0  0  0  0  0  0  0  0  0  0
   -1.2920   -0.4930    2.2460 C   0  0  1  0  0  0  0  0  0  0  0  0
   -2.1990    0.4060    3.0200 C   0  0  0  0  0  0  0  0  0  0  0  0
   -2.9260   -0.1970    4.1290 C   0  0  0  0  0  0  0  0  0  0  0  0
   -2.7770   -1.3750    4.4830 O   0  0  0  0  0  0  0  0  0  0  0  0
   -2.0070   -1.6270    1.5740 C   0  0  0  0  0  0  0  0  0  0  0  0
   -2.6650   -2.4770    2.1870 O   0  0  0  0  0  0  0  0  0  0  0  0
   -3.8310    0.5950    4.8200 O   0  0  0  0  0  0  0  0  0  0  0  0
   -1.1920    0.7690    0.4610 H   0  0  0  0  0  0  0  0  0  0  0  0
   -0.5170   -0.8880    2.9170 H   0  0  0  0  0  0  0  0  0  0  0  0
   -2.9070    0.8920    2.2900 H   0  0  0  0  0  0  0  0  0  0  0  0
   -1.6410    1.2910    3.4460 H   0  0  0  0  0  0  0  0  0  0  0  0
   -4.4610    0.2090    5.5230 H   0  0  0  0  0  0  0  0  0  0  0  0
   -3.6690   -3.9990   -3.4310 C   0  0  0  0  0  0  0  0  0  0  0  0
   -4.3640   -3.5470   -2.1860 C   0  0  0  0  0  0  0  0  0  0  0  0
   -3.7070   -2.4460   -1.4260 C   0  0  2  0  0  0  0  0  0  0  0  0
   -3.5400   -1.2630   -2.3320 C   0  0  0  0  0  0  0  0  0  0  0  0
   -2.6340   -2.8670   -0.5620 C   0  0  2  0  0  0  0  0  0  0  0  0
   -1.9740   -1.7980    0.1750 N   0  0  0  0  0  0  0  0  0  0  0  0
   -1.5620   -3.7320   -1.0530 C   0  0  0  0  0  0  0  0  0  0  0  0
   -0.3660   -3.3540   -0.9450 O   0  0  0  0  0  0  0  0  0  0  0  0
   -1.7020   -4.9700   -1.6420 O   0  0  0  0  0  0  0  0  0  0  0  0
   -3.5740   -5.0900   -3.5080 H   0  0  0  0  0  0  0  0  0  0  0  0
   -4.3020   -3.7050   -4.3250 H   0  0  0  0  0  0  0  0  0  0  0  0
   -2.7000   -3.5270   -3.6240 H   0  0  0  0  0  0  0  0  0  0  0  0
   -4.4310   -4.4470   -1.4980 H   0  0  0  0  0  0  0  0  0  0  0  0
   -5.4570   -3.3140   -2.3990 H   0  0  0  0  0  0  0  0  0  0  0  0
   -4.5760   -2.1380   -0.7130 H   0  0  0  0  0  0  0  0  0  0  0  0
   -2.4870   -0.9430   -2.4450 H   0  0  0  0  0  0  0  0  0  0  0  0
   -4.0990   -0.3610   -2.0090 H   0  0  0  0  0  0  0  0  0  0  0  0
   -3.9030   -1.4980   -3.3540 H   0  0  0  0  0  0  0  0  0  0  0  0
   -3.1330   -3.4660    0.2810 H   0  0  0  0  0  0  0  0  0  0  0  0
   -1.4430   -1.1210   -0.4040 H   0  0  0  0  0  0  0  0  0  0  0  0
  1  2  1  0  0  0  0
  2 17  1  6  0  0  0
  2  3  1  0  0  0  0
  2 13  1  0  0  0  0
  3 19  1  0  0  0  0
  3  4  1  0  0  0  0
  4  5  2  0  0  0  0
  5  6  1  0  0  0  0
  5 20  1  0  0  0  0
  6 21  1  0  0  0  0
  7  6  1  0  0  0  0
  8  7  1  0  0  0  0
  8 22  1  0  0  0  0
  9  8  2  0  0  0  0
 10 11  2  0  0  0  0
 10  9  1  0  0  0  0
 11 12  1  0  0  0  0
 12  4  1  0  0  0  0
 12  7  2  0  0  0  0
 13 26  1  0  0  0  0
 13 14  2  0  0  0  0
 15  1  1  0  0  0  0
 16  1  1  0  0  0  0
 18  3  1  0  0  0  0
 23  9  1  0  0  0  0
 24 10  1  0  0  0  0
 25 11  1  0  0  0  0
 26 27  1  0  0  0  0
 27 35  1  1  0  0  0
 27 28  1  0  0  0  0
 28 37  1  0  0  0  0
 28 29  1  0  0  0  0
 29 30  2  0  0  0  0
 29 33  1  0  0  0  0
 31 32  2  0  0  0  0
 31 27  1  0  0  0  0
 33 38  1  0  0  0  0
 34 26  1  0  0  0  0
 36 28  1  0  0  0  0
 39 40  1  0  0  0  0
 40 51  1  0  0  0  0
 40 41  1  0  0  0  0
 41 53  1  1  0  0  0
 41 43  1  0  0  0  0
 42 55  1  0  0  0  0
 42 41  1  0  0  0  0
 43 44  1  0  0  0  0
 43 57  1  1  0  0  0
 44 31  1  0  0  0  0
 45 46  1  0  0  0  0
 45 43  1  0  0  0  0
 47 45  2  0  0  0  0
 48 39  1  0  0  0  0
 49 39  1  0  0  0  0
 50 39  1  0  0  0  0
 52 40  1  0  0  0  0
 54 42  1  0  0  0  0
 56 42  1  0  0  0  0
 58 44  1  0  0  0  0
M  END
$$$$
