WDK.pdb
 OpenBabel07022419163D

 60 61  0  0  1  0  0  0  0  0999 V2000
    0.7680    0.0510    4.1680 N   0  0  0  0  0  0  0  0  0  0  0  0
    0.5360    0.2540    2.7480 C   0  0  1  0  0  0  0  0  0  0  0  0
    1.4670   -0.6060    1.9150 C   0  0  0  0  0  0  0  0  0  0  0  0
    2.8910   -0.2850    2.1760 C   0  0  0  0  0  0  0  0  0  0  0  0
    3.7840   -1.0250    2.9310 C   0  0  0  0  0  0  0  0  0  0  0  0
    4.9920   -0.4180    2.9380 N   0  0  0  0  0  0  0  0  0  0  0  0
    4.9140    0.7120    2.2000 C   0  0  0  0  0  0  0  0  0  0  0  0
    5.8660    1.6660    1.9040 C   0  0  0  0  0  0  0  0  0  0  0  0
    5.5000    2.7350    1.1100 C   0  0  0  0  0  0  0  0  0  0  0  0
    4.1930    2.8180    0.6360 C   0  0  0  0  0  0  0  0  0  0  0  0
    3.2370    1.8730    0.9240 C   0  0  0  0  0  0  0  0  0  0  0  0
    3.6180    0.7960    1.7280 C   0  0  0  0  0  0  0  0  0  0  0  0
   -0.8750    0.0480    2.3950 C   0  0  0  0  0  0  0  0  0  0  0  0
   -1.7260   -0.3750    3.2470 O   0  0  0  0  0  0  0  0  0  0  0  0
    0.3800    0.9050    4.6500 H   0  0  0  0  0  0  0  0  0  0  0  0
    1.7560   -0.1280    4.3770 H   0  0  0  0  0  0  0  0  0  0  0  0
    0.7960    1.3120    2.5370 H   0  0  0  0  0  0  0  0  0  0  0  0
    1.2460   -0.4490    0.8540 H   0  0  0  0  0  0  0  0  0  0  0  0
    1.2730   -1.7020    2.1270 H   0  0  0  0  0  0  0  0  0  0  0  0
    3.4920   -1.9480    3.4190 H   0  0  0  0  0  0  0  0  0  0  0  0
    5.8390   -0.7720    3.4350 H   0  0  0  0  0  0  0  0  0  0  0  0
    6.8940    1.6190    2.2650 H   0  0  0  0  0  0  0  0  0  0  0  0
    6.1780    3.5170    0.8350 H   0  0  0  0  0  0  0  0  0  0  0  0
    3.9150    3.6550    0.0160 H   0  0  0  0  0  0  0  0  0  0  0  0
    2.2140    1.9150    0.5670 H   0  0  0  0  0  0  0  0  0  0  0  0
   -1.3900    0.3090    1.0840 N   0  0  0  0  0  0  0  0  0  0  0  0
   -2.8180    0.0930    0.7680 C   0  0  1  0  0  0  0  0  0  0  0  0
   -3.4700    1.4280    0.5370 C   0  0  0  0  0  0  0  0  0  0  0  0
   -4.9010    1.2950    0.2870 C   0  0  0  0  0  0  0  0  0  0  0  0
   -5.5450    0.2420    0.4360 O   0  0  0  0  0  0  0  0  0  0  0  0
   -2.9240   -0.8030   -0.4030 C   0  0  0  0  0  0  0  0  0  0  0  0
   -4.0230   -1.1370   -0.8830 O   0  0  0  0  0  0  0  0  0  0  0  0
   -5.6620    2.4010   -0.1570 O   0  0  0  0  0  0  0  0  0  0  0  0
   -0.7290    0.6610    0.3670 H   0  0  0  0  0  0  0  0  0  0  0  0
   -3.2710   -0.3810    1.6390 H   0  0  0  0  0  0  0  0  0  0  0  0
   -3.2670    2.0780    1.4210 H   0  0  0  0  0  0  0  0  0  0  0  0
   -2.9730    1.9530   -0.3370 H   0  0  0  0  0  0  0  0  0  0  0  0
   -6.6120    2.5490    0.2110 H   0  0  0  0  0  0  0  0  0  0  0  0
   -1.7660   -1.3270   -1.0420 N   0  0  0  0  0  0  0  0  0  0  0  0
   -1.8640   -2.1780   -2.1950 C   0  0  1  0  0  0  0  0  0  0  0  0
   -2.5130   -3.4740   -2.0160 C   0  0  0  0  0  0  0  0  0  0  0  0
   -2.0260   -4.4780   -1.0770 C   0  0  0  0  0  0  0  0  0  0  0  0
   -0.7110   -5.1120   -1.1970 C   0  0  0  0  0  0  0  0  0  0  0  0
    0.4760   -4.2040   -1.1190 C   0  0  0  0  0  0  0  0  0  0  0  0
    0.5280   -3.4440    0.1020 N   0  0  0  0  0  0  0  0  0  0  0  0
   -2.7180   -1.4420   -3.2510 C   0  0  0  0  0  0  0  0  0  0  0  0
   -3.0140   -2.0280   -4.3210 O   0  0  0  0  0  0  0  0  0  0  0  0
   -3.1620   -0.1540   -3.0460 O   0  0  0  0  0  0  0  0  0  0  0  0
   -0.8300   -1.0650   -0.6280 H   0  0  0  0  0  0  0  0  0  0  0  0
   -0.8790   -2.1430   -2.7100 H   0  0  0  0  0  0  0  0  0  0  0  0
   -3.5970   -3.2510   -1.7140 H   0  0  0  0  0  0  0  0  0  0  0  0
   -2.6370   -3.9360   -3.0460 H   0  0  0  0  0  0  0  0  0  0  0  0
   -2.2210   -4.0870   -0.0250 H   0  0  0  0  0  0  0  0  0  0  0  0
   -2.7920   -5.3380   -1.1120 H   0  0  0  0  0  0  0  0  0  0  0  0
   -0.6070   -5.7550   -2.1190 H   0  0  0  0  0  0  0  0  0  0  0  0
   -0.5430   -5.8860   -0.3730 H   0  0  0  0  0  0  0  0  0  0  0  0
    1.4360   -4.8340   -1.0800 H   0  0  0  0  0  0  0  0  0  0  0  0
    0.6150   -3.5870   -1.9910 H   0  0  0  0  0  0  0  0  0  0  0  0
    1.5240   -3.0950    0.2030 H   0  0  0  0  0  0  0  0  0  0  0  0
    0.3260   -4.0360    0.9460 H   0  0  0  0  0  0  0  0  0  0  0  0
  1 16  1  0  0  0  0
  1 15  1  0  0  0  0
  2 17  1  6  0  0  0
  2  1  1  0  0  0  0
  3 19  1  0  0  0  0
  3  4  1  0  0  0  0
  3  2  1  0  0  0  0
  4  5  2  0  0  0  0
  5  6  1  0  0  0  0
  5 20  1  0  0  0  0
  6 21  1  0  0  0  0
  7  6  1  0  0  0  0
  8  7  1  0  0  0  0
  8 22  1  0  0  0  0
  9  8  2  0  0  0  0
 10 11  2  0  0  0  0
 10  9  1  0  0  0  0
 11 12  1  0  0  0  0
 12  4  1  0  0  0  0
 12  7  2  0  0  0  0
 13  2  1  0  0  0  0
 13 14  2  0  0  0  0
 18  3  1  0  0  0  0
 23  9  1  0  0  0  0
 24 10  1  0  0  0  0
 25 11  1  0  0  0  0
 26 13  1  0  0  0  0
 27 26  1  0  0  0  0
 27 35  1  1  0  0  0
 28 27  1  0  0  0  0
 28 36  1  0  0  0  0
 29 30  2  0  0  0  0
 29 28  1  0  0  0  0
 31 27  1  0  0  0  0
 32 31  2  0  0  0  0
 33 38  1  0  0  0  0
 33 29  1  0  0  0  0
 34 26  1  0  0  0  0
 37 28  1  0  0  0  0
 39 49  1  0  0  0  0
 39 31  1  0  0  0  0
 40 50  1  6  0  0  0
 40 41  1  0  0  0  0
 40 39  1  0  0  0  0
 41 51  1  0  0  0  0
 41 42  1  0  0  0  0
 42 53  1  0  0  0  0
 43 44  1  0  0  0  0
 43 42  1  0  0  0  0
 43 56  1  0  0  0  0
 44 57  1  0  0  0  0
 44 45  1  0  0  0  0
 45 59  1  0  0  0  0
 45 60  1  0  0  0  0
 46 48  1  0  0  0  0
 46 40  1  0  0  0  0
 47 46  2  0  0  0  0
 52 41  1  0  0  0  0
 54 42  1  0  0  0  0
 55 43  1  0  0  0  0
 58 44  1  0  0  0  0
M  END
$$$$
