WDL.pdb
 OpenBabel07022419163D

 58 59  0  0  1  0  0  0  0  0999 V2000
    0.3850    1.7550   -0.7700 N   0  0  0  0  0  0  0  0  0  0  0  0
    1.4550    1.3790    0.1050 C   0  0  1  0  0  0  0  0  0  0  0  0
    2.2260    2.5940    0.6010 C   0  0  0  0  0  0  0  0  0  0  0  0
    3.3190    2.1450    1.5010 C   0  0  0  0  0  0  0  0  0  0  0  0
    3.3220    2.2330    2.8710 C   0  0  0  0  0  0  0  0  0  0  0  0
    4.4780    1.7250    3.3070 N   0  0  0  0  0  0  0  0  0  0  0  0
    5.2310    1.3080    2.2640 C   0  0  0  0  0  0  0  0  0  0  0  0
    6.4880    0.7180    2.1870 C   0  0  0  0  0  0  0  0  0  0  0  0
    7.0260    0.3870    0.9610 C   0  0  0  0  0  0  0  0  0  0  0  0
    6.2780    0.6610   -0.1630 C   0  0  0  0  0  0  0  0  0  0  0  0
    5.0330    1.2420   -0.1230 C   0  0  0  0  0  0  0  0  0  0  0  0
    4.5100    1.5670    1.1180 C   0  0  0  0  0  0  0  0  0  0  0  0
    0.9490    0.5450    1.2160 C   0  0  0  0  0  0  0  0  0  0  0  0
    1.6970    0.0970    2.1230 O   0  0  0  0  0  0  0  0  0  0  0  0
    0.7590    2.4900   -1.4260 H   0  0  0  0  0  0  0  0  0  0  0  0
    0.1090    0.9180   -1.3310 H   0  0  0  0  0  0  0  0  0  0  0  0
    2.1830    0.7880   -0.4980 H   0  0  0  0  0  0  0  0  0  0  0  0
    2.7030    3.0570   -0.2940 H   0  0  0  0  0  0  0  0  0  0  0  0
    1.5560    3.3150    1.1070 H   0  0  0  0  0  0  0  0  0  0  0  0
    2.5060    2.6510    3.4770 H   0  0  0  0  0  0  0  0  0  0  0  0
    4.7690    1.6570    4.3240 H   0  0  0  0  0  0  0  0  0  0  0  0
    7.0530    0.5150    3.0880 H   0  0  0  0  0  0  0  0  0  0  0  0
    8.0160   -0.0780    0.8900 H   0  0  0  0  0  0  0  0  0  0  0  0
    6.6750    0.4120   -1.1400 H   0  0  0  0  0  0  0  0  0  0  0  0
    4.4330    1.4630   -0.9960 H   0  0  0  0  0  0  0  0  0  0  0  0
   -0.4390    0.2040    1.3150 N   0  0  0  0  0  0  0  0  0  0  0  0
   -0.9130   -0.6120    2.4090 C   0  0  1  0  0  0  0  0  0  0  0  0
   -1.9440    0.0640    3.2560 C   0  0  0  0  0  0  0  0  0  0  0  0
   -3.1570    0.4410    2.4960 C   0  0  0  0  0  0  0  0  0  0  0  0
   -3.2100    0.1600    1.2750 O   0  0  0  0  0  0  0  0  0  0  0  0
   -1.5230   -1.8290    1.7900 C   0  0  0  0  0  0  0  0  0  0  0  0
   -2.0060   -2.6830    2.5750 O   0  0  0  0  0  0  0  0  0  0  0  0
   -4.2210    1.0830    3.0700 O   0  0  0  0  0  0  0  0  0  0  0  0
   -1.0440    0.5820    0.5590 H   0  0  0  0  0  0  0  0  0  0  0  0
   -0.0720   -0.8970    3.0940 H   0  0  0  0  0  0  0  0  0  0  0  0
   -1.5220    0.9680    3.7580 H   0  0  0  0  0  0  0  0  0  0  0  0
   -2.2910   -0.6040    4.0790 H   0  0  0  0  0  0  0  0  0  0  0  0
   -4.7880    1.7420    2.5620 H   0  0  0  0  0  0  0  0  0  0  0  0
   -3.4610   -4.7210   -2.7390 C   0  0  0  0  0  0  0  0  0  0  0  0
   -4.1130   -3.9360   -1.6710 C   0  0  0  0  0  0  0  0  0  0  0  0
   -5.3630   -3.2630   -2.3030 C   0  0  0  0  0  0  0  0  0  0  0  0
   -3.3690   -2.8700   -0.9750 C   0  0  0  0  0  0  0  0  0  0  0  0
   -2.1900   -3.2700   -0.1990 C   0  0  2  0  0  0  0  0  0  0  0  0
   -1.5840   -2.0620    0.4230 N   0  0  0  0  0  0  0  0  0  0  0  0
   -1.0750   -3.9610   -0.8070 C   0  0  0  0  0  0  0  0  0  0  0  0
    0.0370   -3.3930   -0.9610 O   0  0  0  0  0  0  0  0  0  0  0  0
   -1.1480   -5.2590   -1.2410 O   0  0  0  0  0  0  0  0  0  0  0  0
   -4.1860   -4.7970   -3.6440 H   0  0  0  0  0  0  0  0  0  0  0  0
   -3.3900   -5.7950   -2.4550 H   0  0  0  0  0  0  0  0  0  0  0  0
   -2.5670   -4.3080   -3.2030 H   0  0  0  0  0  0  0  0  0  0  0  0
   -4.5620   -4.6440   -0.9070 H   0  0  0  0  0  0  0  0  0  0  0  0
   -6.1610   -4.0040   -2.4570 H   0  0  0  0  0  0  0  0  0  0  0  0
   -5.7440   -2.4780   -1.6270 H   0  0  0  0  0  0  0  0  0  0  0  0
   -5.0890   -2.7760   -3.2590 H   0  0  0  0  0  0  0  0  0  0  0  0
   -3.1500   -2.0020   -1.6740 H   0  0  0  0  0  0  0  0  0  0  0  0
   -4.1130   -2.4700   -0.1920 H   0  0  0  0  0  0  0  0  0  0  0  0
   -2.5460   -3.8560    0.6870 H   0  0  0  0  0  0  0  0  0  0  0  0
   -1.1940   -1.3760   -0.2420 H   0  0  0  0  0  0  0  0  0  0  0  0
  1  2  1  0  0  0  0
  2 17  1  6  0  0  0
  2  3  1  0  0  0  0
  2 13  1  0  0  0  0
  3 19  1  0  0  0  0
  3  4  1  0  0  0  0
  4  5  2  0  0  0  0
  5  6  1  0  0  0  0
  5 20  1  0  0  0  0
  6 21  1  0  0  0  0
  7  6  1  0  0  0  0
  8  7  1  0  0  0  0
  8 22  1  0  0  0  0
  9  8  2  0  0  0  0
 10 11  2  0  0  0  0
 10  9  1  0  0  0  0
 11 12  1  0  0  0  0
 12  4  1  0  0  0  0
 12  7  2  0  0  0  0
 13 26  1  0  0  0  0
 13 14  2  0  0  0  0
 15  1  1  0  0  0  0
 16  1  1  0  0  0  0
 18  3  1  0  0  0  0
 23  9  1  0  0  0  0
 24 10  1  0  0  0  0
 25 11  1  0  0  0  0
 26 27  1  0  0  0  0
 27 35  1  1  0  0  0
 27 28  1  0  0  0  0
 28 36  1  0  0  0  0
 28 37  1  0  0  0  0
 29 33  1  0  0  0  0
 29 28  1  0  0  0  0
 30 29  2  0  0  0  0
 31 27  1  0  0  0  0
 31 32  2  0  0  0  0
 34 26  1  0  0  0  0
 38 33  1  0  0  0  0
 39 49  1  0  0  0  0
 39 40  1  0  0  0  0
 40 42  1  0  0  0  0
 40 51  1  0  0  0  0
 41 40  1  0  0  0  0
 41 53  1  0  0  0  0
 42 43  1  0  0  0  0
 42 56  1  0  0  0  0
 43 44  1  0  0  0  0
 43 57  1  1  0  0  0
 44 31  1  0  0  0  0
 45 43  1  0  0  0  0
 46 45  1  0  0  0  0
 47 45  2  0  0  0  0
 48 39  1  0  0  0  0
 50 39  1  0  0  0  0
 52 41  1  0  0  0  0
 54 41  1  0  0  0  0
 55 42  1  0  0  0  0
 58 44  1  0  0  0  0
M  END
$$$$
