WDM.pdb
 OpenBabel07022419163D

 56 57  0  0  1  0  0  0  0  0999 V2000
   -1.2200    2.3890    2.7010 N   0  0  0  0  0  0  0  0  0  0  0  0
    0.1750    2.3970    2.1910 C   0  0  1  0  0  0  0  0  0  0  0  0
    1.0240    2.4920    3.4130 C   0  0  0  0  0  0  0  0  0  0  0  0
    2.4700    2.5100    3.2340 C   0  0  0  0  0  0  0  0  0  0  0  0
    3.2720    3.6400    3.1670 C   0  0  0  0  0  0  0  0  0  0  0  0
    4.5420    3.2810    2.9690 N   0  0  0  0  0  0  0  0  0  0  0  0
    4.5980    1.9200    2.9040 C   0  0  0  0  0  0  0  0  0  0  0  0
    5.6820    1.0600    2.7240 C   0  0  0  0  0  0  0  0  0  0  0  0
    5.5220   -0.3070    2.7030 C   0  0  0  0  0  0  0  0  0  0  0  0
    4.2320   -0.7620    2.8700 C   0  0  0  0  0  0  0  0  0  0  0  0
    3.1500    0.0640    3.0480 C   0  0  0  0  0  0  0  0  0  0  0  0
    3.3250    1.4340    3.0670 C   0  0  0  0  0  0  0  0  0  0  0  0
    0.3220    1.1790    1.3820 C   0  0  0  0  0  0  0  0  0  0  0  0
    1.3350    0.9530    0.6490 O   0  0  0  0  0  0  0  0  0  0  0  0
   -1.5050    3.3250    3.0140 H   0  0  0  0  0  0  0  0  0  0  0  0
   -1.3070    1.6670    3.4660 H   0  0  0  0  0  0  0  0  0  0  0  0
    0.2320    3.3170    1.5560 H   0  0  0  0  0  0  0  0  0  0  0  0
    0.7720    1.6110    4.0490 H   0  0  0  0  0  0  0  0  0  0  0  0
    0.7330    3.3810    4.0400 H   0  0  0  0  0  0  0  0  0  0  0  0
    2.9470    4.6880    3.2580 H   0  0  0  0  0  0  0  0  0  0  0  0
    5.4050    3.8960    2.8700 H   0  0  0  0  0  0  0  0  0  0  0  0
    6.6730    1.4820    2.5980 H   0  0  0  0  0  0  0  0  0  0  0  0
    6.3710   -0.9750    2.5630 H   0  0  0  0  0  0  0  0  0  0  0  0
    4.0940   -1.8500    2.8560 H   0  0  0  0  0  0  0  0  0  0  0  0
    2.1390   -0.2930    3.1790 H   0  0  0  0  0  0  0  0  0  0  0  0
   -0.6880    0.1430    1.3620 N   0  0  0  0  0  0  0  0  0  0  0  0
   -0.4940   -1.0390    0.5460 C   0  0  1  0  0  0  0  0  0  0  0  0
   -0.4790   -2.2440    1.4510 C   0  0  0  0  0  0  0  0  0  0  0  0
   -1.7400   -2.4250    2.2130 C   0  0  0  0  0  0  0  0  0  0  0  0
   -2.6930   -1.6490    2.0410 O   0  0  0  0  0  0  0  0  0  0  0  0
   -1.6150   -1.2060   -0.4260 C   0  0  0  0  0  0  0  0  0  0  0  0
   -2.5430   -0.3590   -0.4020 O   0  0  0  0  0  0  0  0  0  0  0  0
   -1.8990   -3.4550    3.1320 O   0  0  0  0  0  0  0  0  0  0  0  0
   -1.5220    0.3210    1.9570 H   0  0  0  0  0  0  0  0  0  0  0  0
    0.4890   -1.0130    0.0210 H   0  0  0  0  0  0  0  0  0  0  0  0
    0.3330   -2.1320    2.2220 H   0  0  0  0  0  0  0  0  0  0  0  0
   -0.2570   -3.1570    0.8310 H   0  0  0  0  0  0  0  0  0  0  0  0
   -2.7970   -3.6810    3.5530 H   0  0  0  0  0  0  0  0  0  0  0  0
   -2.8980   -5.0730   -5.6870 C   0  0  0  0  0  0  0  0  0  0  0  0
   -4.0060   -3.7640   -5.1680 S   0  0  0  0  0  0  0  0  0  0  0  0
   -3.2090   -2.2030   -4.8310 C   0  0  0  0  0  0  0  0  0  0  0  0
   -2.2900   -2.1430   -3.6840 C   0  0  0  0  0  0  0  0  0  0  0  0
   -2.8250   -2.3860   -2.3200 C   0  0  2  0  0  0  0  0  0  0  0  0
   -1.6910   -2.2500   -1.3620 N   0  0  0  0  0  0  0  0  0  0  0  0
   -3.4150   -3.6910   -2.0340 C   0  0  0  0  0  0  0  0  0  0  0  0
   -2.8400   -4.4710   -1.2120 O   0  0  0  0  0  0  0  0  0  0  0  0
   -4.5850   -4.1930   -2.5780 O   0  0  0  0  0  0  0  0  0  0  0  0
   -1.9140   -4.6710   -6.0110 H   0  0  0  0  0  0  0  0  0  0  0  0
   -3.3400   -5.6250   -6.5680 H   0  0  0  0  0  0  0  0  0  0  0  0
   -2.7290   -5.7700   -4.8400 H   0  0  0  0  0  0  0  0  0  0  0  0
   -4.0390   -1.4310   -4.7680 H   0  0  0  0  0  0  0  0  0  0  0  0
   -2.6230   -1.8420   -5.7360 H   0  0  0  0  0  0  0  0  0  0  0  0
   -1.8210   -1.1220   -3.6580 H   0  0  0  0  0  0  0  0  0  0  0  0
   -1.4190   -2.8170   -3.9260 H   0  0  0  0  0  0  0  0  0  0  0  0
   -3.5280   -1.5390   -2.0490 H   0  0  0  0  0  0  0  0  0  0  0  0
   -0.9440   -2.9600   -1.4040 H   0  0  0  0  0  0  0  0  0  0  0  0
  1 15  1  0  0  0  0
  1 16  1  0  0  0  0
  2 17  1  6  0  0  0
  2  1  1  0  0  0  0
  2  3  1  0  0  0  0
  3 19  1  0  0  0  0
  3 18  1  0  0  0  0
  4  3  1  0  0  0  0
  5  4  2  0  0  0  0
  5 20  1  0  0  0  0
  6  5  1  0  0  0  0
  7  6  1  0  0  0  0
  7 12  1  0  0  0  0
  8  7  2  0  0  0  0
  9  8  1  0  0  0  0
  9 10  2  0  0  0  0
 10 11  1  0  0  0  0
 11 12  2  0  0  0  0
 11 25  1  0  0  0  0
 12  4  1  0  0  0  0
 13  2  1  0  0  0  0
 14 13  2  0  0  0  0
 21  6  1  0  0  0  0
 22  8  1  0  0  0  0
 23  9  1  0  0  0  0
 24 10  1  0  0  0  0
 26 13  1  0  0  0  0
 26 34  1  0  0  0  0
 27 35  1  6  0  0  0
 27 26  1  0  0  0  0
 27 28  1  0  0  0  0
 28 29  1  0  0  0  0
 28 36  1  0  0  0  0
 29 33  1  0  0  0  0
 30 29  2  0  0  0  0
 31 32  2  0  0  0  0
 31 27  1  0  0  0  0
 33 38  1  0  0  0  0
 37 28  1  0  0  0  0
 39 40  1  0  0  0  0
 39 50  1  0  0  0  0
 40 41  1  0  0  0  0
 41 51  1  0  0  0  0
 41 42  1  0  0  0  0
 42 53  1  0  0  0  0
 42 43  1  0  0  0  0
 43 55  1  1  0  0  0
 43 45  1  0  0  0  0
 43 44  1  0  0  0  0
 44 31  1  0  0  0  0
 45 46  1  0  0  0  0
 47 45  2  0  0  0  0
 48 39  1  0  0  0  0
 49 39  1  0  0  0  0
 52 41  1  0  0  0  0
 54 42  1  0  0  0  0
 56 44  1  0  0  0  0
M  END
$$$$
