WDN.pdb
 OpenBabel07022419153D

 53 54  0  0  1  0  0  0  0  0999 V2000
    3.0290    0.3990    0.1910 N   0  0  0  0  0  0  0  0  0  0  0  0
    2.0220   -0.6370    0.2580 C   0  0  1  0  0  0  0  0  0  0  0  0
    2.5850   -1.6920    1.2090 C   0  0  0  0  0  0  0  0  0  0  0  0
    2.8510   -1.0470    2.5300 C   0  0  0  0  0  0  0  0  0  0  0  0
    2.0100   -0.9980    3.6040 C   0  0  0  0  0  0  0  0  0  0  0  0
    2.6080   -0.2650    4.5500 N   0  0  0  0  0  0  0  0  0  0  0  0
    3.8240    0.1770    4.1450 C   0  0  0  0  0  0  0  0  0  0  0  0
    4.7770    0.9460    4.7830 C   0  0  0  0  0  0  0  0  0  0  0  0
    5.9510    1.2430    4.1340 C   0  0  0  0  0  0  0  0  0  0  0  0
    6.1150    0.7480    2.8570 C   0  0  0  0  0  0  0  0  0  0  0  0
    5.1730   -0.0180    2.2050 C   0  0  0  0  0  0  0  0  0  0  0  0
    3.9940   -0.3180    2.8510 C   0  0  0  0  0  0  0  0  0  0  0  0
    0.7100   -0.1510    0.7060 C   0  0  0  0  0  0  0  0  0  0  0  0
    0.6350    0.5050    1.7630 O   0  0  0  0  0  0  0  0  0  0  0  0
    2.6350    1.3670    0.2480 H   0  0  0  0  0  0  0  0  0  0  0  0
    3.6460    0.2850   -0.6510 H   0  0  0  0  0  0  0  0  0  0  0  0
    1.9350   -1.1090   -0.7370 H   0  0  0  0  0  0  0  0  0  0  0  0
    3.5740   -1.9720    0.7950 H   0  0  0  0  0  0  0  0  0  0  0  0
    1.9770   -2.5920    1.2660 H   0  0  0  0  0  0  0  0  0  0  0  0
    1.0360   -1.4900    3.6240 H   0  0  0  0  0  0  0  0  0  0  0  0
    2.1670   -0.0750    5.4750 H   0  0  0  0  0  0  0  0  0  0  0  0
    4.6450    1.3310    5.7770 H   0  0  0  0  0  0  0  0  0  0  0  0
    6.7210    1.8550    4.6220 H   0  0  0  0  0  0  0  0  0  0  0  0
    7.0520    0.9800    2.3390 H   0  0  0  0  0  0  0  0  0  0  0  0
    5.3670   -0.3940    1.2040 H   0  0  0  0  0  0  0  0  0  0  0  0
   -0.5000   -0.3810   -0.0010 N   0  0  0  0  0  0  0  0  0  0  0  0
   -1.7910    0.1160    0.5010 C   0  0  1  0  0  0  0  0  0  0  0  0
   -1.9250    1.5060   -0.1260 C   0  0  0  0  0  0  0  0  0  0  0  0
   -3.1030    2.2620    0.2150 C   0  0  0  0  0  0  0  0  0  0  0  0
   -3.9550    1.8910    1.0280 O   0  0  0  0  0  0  0  0  0  0  0  0
   -2.9080   -0.7490    0.2000 C   0  0  0  0  0  0  0  0  0  0  0  0
   -4.1000   -0.5820    0.6410 O   0  0  0  0  0  0  0  0  0  0  0  0
   -3.2840    3.4980   -0.4230 O   0  0  0  0  0  0  0  0  0  0  0  0
   -0.4780   -0.8910   -0.8870 H   0  0  0  0  0  0  0  0  0  0  0  0
   -1.6520    0.3100    1.5770 H   0  0  0  0  0  0  0  0  0  0  0  0
   -1.8640    1.3610   -1.2530 H   0  0  0  0  0  0  0  0  0  0  0  0
   -1.0100    2.1160    0.1170 H   0  0  0  0  0  0  0  0  0  0  0  0
   -3.9020    4.2070   -0.0500 H   0  0  0  0  0  0  0  0  0  0  0  0
   -3.7300   -2.4730   -4.6920 N   0  0  0  0  0  0  0  0  0  0  0  0
   -3.5030   -2.7340   -3.3180 C   0  0  0  0  0  0  0  0  0  0  0  0
   -2.4110   -3.2500   -2.9990 O   0  0  0  0  0  0  0  0  0  0  0  0
   -4.5160   -2.4100   -2.3090 C   0  0  0  0  0  0  0  0  0  0  0  0
   -3.9900   -2.7300   -0.9120 C   0  0  2  0  0  0  0  0  0  0  0  0
   -2.8080   -1.9160   -0.6500 N   0  0  0  0  0  0  0  0  0  0  0  0
   -3.6180   -4.1640   -0.9290 C   0  0  0  0  0  0  0  0  0  0  0  0
   -2.4560   -4.5810   -0.7130 O   0  0  0  0  0  0  0  0  0  0  0  0
   -4.6200   -5.1090   -1.2030 O   0  0  0  0  0  0  0  0  0  0  0  0
   -4.0280   -1.5450   -5.0560 H   0  0  0  0  0  0  0  0  0  0  0  0
   -3.5930   -3.2600   -5.3720 H   0  0  0  0  0  0  0  0  0  0  0  0
   -5.4480   -3.0280   -2.4780 H   0  0  0  0  0  0  0  0  0  0  0  0
   -4.8600   -1.3550   -2.3640 H   0  0  0  0  0  0  0  0  0  0  0  0
   -4.7870   -2.5160   -0.1630 H   0  0  0  0  0  0  0  0  0  0  0  0
   -1.9020   -2.1900   -1.0740 H   0  0  0  0  0  0  0  0  0  0  0  0
  1 15  1  0  0  0  0
  1  2  1  0  0  0  0
  2 17  1  6  0  0  0
  2 13  1  0  0  0  0
  2  3  1  0  0  0  0
  3 19  1  0  0  0  0
  3  4  1  0  0  0  0
  4 12  1  0  0  0  0
  4  5  2  0  0  0  0
  5 20  1  0  0  0  0
  5  6  1  0  0  0  0
  6 21  1  0  0  0  0
  7  6  1  0  0  0  0
  7  8  1  0  0  0  0
  8 22  1  0  0  0  0
  9 23  1  0  0  0  0
  9  8  2  0  0  0  0
 10  9  1  0  0  0  0
 11 12  1  0  0  0  0
 11 10  2  0  0  0  0
 12  7  2  0  0  0  0
 13 14  2  0  0  0  0
 16  1  1  0  0  0  0
 18  3  1  0  0  0  0
 24 10  1  0  0  0  0
 25 11  1  0  0  0  0
 26 27  1  0  0  0  0
 26 13  1  0  0  0  0
 27 35  1  1  0  0  0
 28 37  1  0  0  0  0
 28 29  1  0  0  0  0
 28 27  1  0  0  0  0
 29 30  2  0  0  0  0
 31 27  1  0  0  0  0
 31 32  2  0  0  0  0
 33 38  1  0  0  0  0
 33 29  1  0  0  0  0
 34 26  1  0  0  0  0
 36 28  1  0  0  0  0
 39 40  1  0  0  0  0
 40 41  2  0  0  0  0
 40 42  1  0  0  0  0
 42 43  1  0  0  0  0
 43 44  1  0  0  0  0
 43 52  1  1  0  0  0
 44 31  1  0  0  0  0
 45 43  1  0  0  0  0
 45 46  1  0  0  0  0
 47 45  2  0  0  0  0
 48 39  1  0  0  0  0
 49 39  1  0  0  0  0
 50 42  1  0  0  0  0
 51 42  1  0  0  0  0
 53 44  1  0  0  0  0
M  END
$$$$
