WDQ.pdb
 OpenBabel07022419163D

 56 57  0  0  1  0  0  0  0  0999 V2000
    2.7870   -1.5170    3.0460 N   0  0  0  0  0  0  0  0  0  0  0  0
    1.7620   -0.6220    2.6540 C   0  0  1  0  0  0  0  0  0  0  0  0
    2.2680    0.4510    1.7650 C   0  0  0  0  0  0  0  0  0  0  0  0
    3.3150    1.2290    2.4600 C   0  0  0  0  0  0  0  0  0  0  0  0
    3.1430    2.4290    3.1570 C   0  0  0  0  0  0  0  0  0  0  0  0
    4.3110    2.8150    3.6860 N   0  0  0  0  0  0  0  0  0  0  0  0
    5.2390    1.8760    3.3370 C   0  0  0  0  0  0  0  0  0  0  0  0
    6.5930    1.7700    3.6000 C   0  0  0  0  0  0  0  0  0  0  0  0
    7.3660    0.7250    3.1360 C   0  0  0  0  0  0  0  0  0  0  0  0
    6.7670   -0.2580    2.3790 C   0  0  0  0  0  0  0  0  0  0  0  0
    5.4170   -0.1730    2.1050 C   0  0  0  0  0  0  0  0  0  0  0  0
    4.6520    0.8840    2.5790 C   0  0  0  0  0  0  0  0  0  0  0  0
    0.5610   -1.3170    2.0990 C   0  0  0  0  0  0  0  0  0  0  0  0
    0.4860   -2.5770    2.0190 O   0  0  0  0  0  0  0  0  0  0  0  0
    2.7580   -1.8510    4.0200 H   0  0  0  0  0  0  0  0  0  0  0  0
    3.0310   -2.2440    2.3440 H   0  0  0  0  0  0  0  0  0  0  0  0
    1.3940   -0.1160    3.5970 H   0  0  0  0  0  0  0  0  0  0  0  0
    1.4160    1.1480    1.5200 H   0  0  0  0  0  0  0  0  0  0  0  0
    2.6860    0.0170    0.8110 H   0  0  0  0  0  0  0  0  0  0  0  0
    2.2040    2.9550    3.2470 H   0  0  0  0  0  0  0  0  0  0  0  0
    4.5630    3.6470    4.2620 H   0  0  0  0  0  0  0  0  0  0  0  0
    7.0680    2.5400    4.1950 H   0  0  0  0  0  0  0  0  0  0  0  0
    8.4320    0.6400    3.3420 H   0  0  0  0  0  0  0  0  0  0  0  0
    7.3300   -1.1110    1.9820 H   0  0  0  0  0  0  0  0  0  0  0  0
    4.9190   -0.9290    1.4940 H   0  0  0  0  0  0  0  0  0  0  0  0
   -0.5700   -0.5980    1.6280 N   0  0  0  0  0  0  0  0  0  0  0  0
   -1.7610   -1.2910    1.0790 C   0  0  1  0  0  0  0  0  0  0  0  0
   -2.9670   -0.9250    1.9290 C   0  0  0  0  0  0  0  0  0  0  0  0
   -4.1800   -1.6080    1.4450 C   0  0  0  0  0  0  0  0  0  0  0  0
   -4.1760   -2.8840    1.4910 O   0  0  0  0  0  0  0  0  0  0  0  0
   -1.8960   -0.7960   -0.3080 C   0  0  0  0  0  0  0  0  0  0  0  0
   -1.0650    0.0780   -0.7160 O   0  0  0  0  0  0  0  0  0  0  0  0
   -5.3100   -1.0020    0.9500 O   0  0  0  0  0  0  0  0  0  0  0  0
   -0.5750    0.4420    1.6640 H   0  0  0  0  0  0  0  0  0  0  0  0
   -1.6440   -2.3710    1.1130 H   0  0  0  0  0  0  0  0  0  0  0  0
   -2.7840   -1.1060    2.9930 H   0  0  0  0  0  0  0  0  0  0  0  0
   -3.1370    0.1710    1.7660 H   0  0  0  0  0  0  0  0  0  0  0  0
   -6.0640   -1.5160    0.5230 H   0  0  0  0  0  0  0  0  0  0  0  0
   -4.3970   -5.0310   -4.5660 N   0  0  0  0  0  0  0  0  0  0  0  0
   -3.5290   -3.9130   -4.5080 C   0  0  0  0  0  0  0  0  0  0  0  0
   -2.5770   -3.8560   -5.3260 O   0  0  0  0  0  0  0  0  0  0  0  0
   -3.7990   -2.8750   -3.4810 C   0  0  0  0  0  0  0  0  0  0  0  0
   -2.7520   -1.8000   -3.6140 C   0  0  0  0  0  0  0  0  0  0  0  0
   -2.9580   -0.6890   -2.5900 C   0  0  2  0  0  0  0  0  0  0  0  0
   -2.8820   -1.2170   -1.2360 N   0  0  0  0  0  0  0  0  0  0  0  0
   -4.2250    0.0210   -2.8340 C   0  0  0  0  0  0  0  0  0  0  0  0
   -5.0730    0.1070   -1.9320 O   0  0  0  0  0  0  0  0  0  0  0  0
   -4.4630    0.5850   -4.0630 O   0  0  0  0  0  0  0  0  0  0  0  0
   -4.4300   -5.6860   -3.7640 H   0  0  0  0  0  0  0  0  0  0  0  0
   -4.9680   -5.1310   -5.4410 H   0  0  0  0  0  0  0  0  0  0  0  0
   -3.8210   -3.3700   -2.5120 H   0  0  0  0  0  0  0  0  0  0  0  0
   -4.7960   -2.4100   -3.6610 H   0  0  0  0  0  0  0  0  0  0  0  0
   -1.7290   -2.1740   -3.5450 H   0  0  0  0  0  0  0  0  0  0  0  0
   -2.8850   -1.3310   -4.6110 H   0  0  0  0  0  0  0  0  0  0  0  0
   -2.1460    0.0440   -2.7790 H   0  0  0  0  0  0  0  0  0  0  0  0
   -3.5580   -1.9190   -0.9410 H   0  0  0  0  0  0  0  0  0  0  0  0
  1 15  1  0  0  0  0
  2  1  1  0  0  0  0
  2 17  1  1  0  0  0
  3  4  1  0  0  0  0
  3  2  1  0  0  0  0
  4 12  1  0  0  0  0
  4  5  2  0  0  0  0
  5 20  1  0  0  0  0
  5  6  1  0  0  0  0
  6 21  1  0  0  0  0
  7  8  1  0  0  0  0
  7  6  1  0  0  0  0
  8 22  1  0  0  0  0
  9 23  1  0  0  0  0
  9  8  2  0  0  0  0
 10  9  1  0  0  0  0
 11 10  2  0  0  0  0
 11 12  1  0  0  0  0
 12  7  2  0  0  0  0
 13  2  1  0  0  0  0
 14 13  2  0  0  0  0
 16  1  1  0  0  0  0
 18  3  1  0  0  0  0
 19  3  1  0  0  0  0
 24 10  1  0  0  0  0
 25 11  1  0  0  0  0
 26 34  1  0  0  0  0
 26 13  1  0  0  0  0
 27 35  1  1  0  0  0
 27 26  1  0  0  0  0
 27 28  1  0  0  0  0
 28 36  1  0  0  0  0
 29 30  2  0  0  0  0
 29 28  1  0  0  0  0
 31 27  1  0  0  0  0
 32 31  2  0  0  0  0
 33 29  1  0  0  0  0
 37 28  1  0  0  0  0
 38 33  1  0  0  0  0
 39 40  1  0  0  0  0
 39 49  1  0  0  0  0
 40 42  1  0  0  0  0
 41 40  2  0  0  0  0
 42 51  1  0  0  0  0
 43 53  1  0  0  0  0
 43 42  1  0  0  0  0
 43 44  1  0  0  0  0
 44 55  1  6  0  0  0
 44 45  1  0  0  0  0
 45 56  1  0  0  0  0
 45 31  1  0  0  0  0
 46 44  1  0  0  0  0
 46 47  1  0  0  0  0
 48 46  2  0  0  0  0
 50 39  1  0  0  0  0
 52 42  1  0  0  0  0
 54 43  1  0  0  0  0
M  END
$$$$
