WDS.pdb
 OpenBabel07022419163D

 50 51  0  0  1  0  0  0  0  0999 V2000
    0.1350    0.0620    4.0620 N   0  0  0  0  0  0  0  0  0  0  0  0
    0.1260    0.2510    2.6310 C   0  0  1  0  0  0  0  0  0  0  0  0
    1.1280   -0.7100    2.0370 C   0  0  0  0  0  0  0  0  0  0  0  0
    2.4910   -0.4850    2.5360 C   0  0  0  0  0  0  0  0  0  0  0  0
    3.2170   -1.2040    3.4640 C   0  0  0  0  0  0  0  0  0  0  0  0
    4.4260   -0.6530    3.6290 N   0  0  0  0  0  0  0  0  0  0  0  0
    4.4950    0.4330    2.8060 C   0  0  0  0  0  0  0  0  0  0  0  0
    5.4870    1.3670    2.5600 C   0  0  0  0  0  0  0  0  0  0  0  0
    5.3180    2.4050    1.6580 C   0  0  0  0  0  0  0  0  0  0  0  0
    4.1190    2.5040    0.9840 C   0  0  0  0  0  0  0  0  0  0  0  0
    3.1160    1.5900    1.2090 C   0  0  0  0  0  0  0  0  0  0  0  0
    3.3060    0.5540    2.1200 C   0  0  0  0  0  0  0  0  0  0  0  0
   -1.2280   -0.1110    2.1310 C   0  0  0  0  0  0  0  0  0  0  0  0
   -2.1210   -0.5070    2.9290 O   0  0  0  0  0  0  0  0  0  0  0  0
   -0.2590    0.8480    4.5990 H   0  0  0  0  0  0  0  0  0  0  0  0
   -0.3050   -0.8280    4.3600 H   0  0  0  0  0  0  0  0  0  0  0  0
    0.3840    1.3070    2.4120 H   0  0  0  0  0  0  0  0  0  0  0  0
    0.8050   -1.7350    2.3860 H   0  0  0  0  0  0  0  0  0  0  0  0
    1.1450   -0.6810    0.9290 H   0  0  0  0  0  0  0  0  0  0  0  0
    2.8820   -2.0890    3.9970 H   0  0  0  0  0  0  0  0  0  0  0  0
    5.2120   -0.9470    4.2510 H   0  0  0  0  0  0  0  0  0  0  0  0
    6.4160    1.2950    3.0780 H   0  0  0  0  0  0  0  0  0  0  0  0
    6.1020    3.1390    1.4670 H   0  0  0  0  0  0  0  0  0  0  0  0
    3.9050    3.2870    0.2600 H   0  0  0  0  0  0  0  0  0  0  0  0
    2.1490    1.6310    0.6960 H   0  0  0  0  0  0  0  0  0  0  0  0
   -1.5550   -0.0220    0.7380 N   0  0  0  0  0  0  0  0  0  0  0  0
   -2.9010   -0.3970    0.3430 C   0  0  1  0  0  0  0  0  0  0  0  0
   -3.6340    0.7990   -0.2470 C   0  0  0  0  0  0  0  0  0  0  0  0
   -5.0110    0.4820   -0.6670 C   0  0  0  0  0  0  0  0  0  0  0  0
   -5.2470    0.0790   -1.8320 O   0  0  0  0  0  0  0  0  0  0  0  0
   -2.8860   -1.5250   -0.6180 C   0  0  0  0  0  0  0  0  0  0  0  0
   -3.9400   -2.0210   -1.0510 O   0  0  0  0  0  0  0  0  0  0  0  0
   -6.0660    0.6220    0.2160 O   0  0  0  0  0  0  0  0  0  0  0  0
   -0.8570    0.2950    0.0590 H   0  0  0  0  0  0  0  0  0  0  0  0
   -3.5060   -0.7180    1.2150 H   0  0  0  0  0  0  0  0  0  0  0  0
   -3.6350    1.6390    0.4810 H   0  0  0  0  0  0  0  0  0  0  0  0
   -3.0730    1.1760   -1.1440 H   0  0  0  0  0  0  0  0  0  0  0  0
   -6.9760    0.1900    0.0030 H   0  0  0  0  0  0  0  0  0  0  0  0
    0.3710   -2.4550   -3.1680 O   0  0  0  0  0  0  0  0  0  0  0  0
   -0.9370   -2.8410   -3.3240 C   0  0  0  0  0  0  0  0  0  0  0  0
   -1.6270   -3.1910   -2.0260 C   0  0  2  0  0  0  0  0  0  0  0  0
   -1.6620   -2.1050   -1.1010 N   0  0  0  0  0  0  0  0  0  0  0  0
   -0.9350   -4.3620   -1.4310 C   0  0  0  0  0  0  0  0  0  0  0  0
   -0.7810   -5.4390   -2.0570 O   0  0  0  0  0  0  0  0  0  0  0  0
   -0.4410   -4.2650   -0.1390 O   0  0  0  0  0  0  0  0  0  0  0  0
    0.6130   -1.9190   -3.9870 H   0  0  0  0  0  0  0  0  0  0  0  0
   -1.4900   -2.0670   -3.8970 H   0  0  0  0  0  0  0  0  0  0  0  0
   -0.9330   -3.7500   -3.9810 H   0  0  0  0  0  0  0  0  0  0  0  0
   -2.6500   -3.5440   -2.3190 H   0  0  0  0  0  0  0  0  0  0  0  0
   -0.7840   -1.6820   -0.7310 H   0  0  0  0  0  0  0  0  0  0  0  0
  1 16  1  0  0  0  0
  1 15  1  0  0  0  0
  2 17  1  6  0  0  0
  2  1  1  0  0  0  0
  3 18  1  0  0  0  0
  3  4  1  0  0  0  0
  3  2  1  0  0  0  0
  4  5  2  0  0  0  0
  5  6  1  0  0  0  0
  5 20  1  0  0  0  0
  6 21  1  0  0  0  0
  7  6  1  0  0  0  0
  8  7  1  0  0  0  0
  8 22  1  0  0  0  0
  9  8  2  0  0  0  0
 10 11  2  0  0  0  0
 10  9  1  0  0  0  0
 11 12  1  0  0  0  0
 12  4  1  0  0  0  0
 12  7  2  0  0  0  0
 13  2  1  0  0  0  0
 13 14  2  0  0  0  0
 19  3  1  0  0  0  0
 23  9  1  0  0  0  0
 24 10  1  0  0  0  0
 25 11  1  0  0  0  0
 26 13  1  0  0  0  0
 27 26  1  0  0  0  0
 27 35  1  1  0  0  0
 28 27  1  0  0  0  0
 28 36  1  0  0  0  0
 29 28  1  0  0  0  0
 29 33  1  0  0  0  0
 30 29  2  0  0  0  0
 31 27  1  0  0  0  0
 32 31  2  0  0  0  0
 34 26  1  0  0  0  0
 37 28  1  0  0  0  0
 38 33  1  0  0  0  0
 40 39  1  0  0  0  0
 40 41  1  0  0  0  0
 41 49  1  6  0  0  0
 41 43  1  0  0  0  0
 41 42  1  0  0  0  0
 42 50  1  0  0  0  0
 42 31  1  0  0  0  0
 43 45  1  0  0  0  0
 44 43  2  0  0  0  0
 46 39  1  0  0  0  0
 47 40  1  0  0  0  0
 48 40  1  0  0  0  0
M  END
$$$$
