WDT.pdb
 OpenBabel07022419163D

 53 54  0  0  1  0  0  0  0  0999 V2000
    2.1660   -0.7740   -0.2540 N   0  0  0  0  0  0  0  0  0  0  0  0
    2.1800   -1.7190    0.8100 C   0  0  1  0  0  0  0  0  0  0  0  0
    3.1050   -1.3990    1.9560 C   0  0  0  0  0  0  0  0  0  0  0  0
    2.8230   -0.1270    2.6370 C   0  0  0  0  0  0  0  0  0  0  0  0
    2.1110    0.0570    3.8310 C   0  0  0  0  0  0  0  0  0  0  0  0
    2.0470    1.3650    4.1120 N   0  0  0  0  0  0  0  0  0  0  0  0
    2.6940    2.0590    3.1420 C   0  0  0  0  0  0  0  0  0  0  0  0
    2.9400    3.3960    2.9270 C   0  0  0  0  0  0  0  0  0  0  0  0
    3.6470    3.8690    1.8410 C   0  0  0  0  0  0  0  0  0  0  0  0
    4.1190    2.9320    0.9430 C   0  0  0  0  0  0  0  0  0  0  0  0
    3.8910    1.5910    1.1280 C   0  0  0  0  0  0  0  0  0  0  0  0
    3.1750    1.1420    2.2300 C   0  0  0  0  0  0  0  0  0  0  0  0
    0.8130   -1.9270    1.3630 C   0  0  0  0  0  0  0  0  0  0  0  0
    0.6380   -2.7270    2.3220 O   0  0  0  0  0  0  0  0  0  0  0  0
    1.8810   -1.2290   -1.1410 H   0  0  0  0  0  0  0  0  0  0  0  0
    1.6700    0.0980   -0.0280 H   0  0  0  0  0  0  0  0  0  0  0  0
    2.5810   -2.6810    0.3750 H   0  0  0  0  0  0  0  0  0  0  0  0
    4.1740   -1.5120    1.6780 H   0  0  0  0  0  0  0  0  0  0  0  0
    2.9300   -2.2190    2.7140 H   0  0  0  0  0  0  0  0  0  0  0  0
    1.6870   -0.7580    4.4180 H   0  0  0  0  0  0  0  0  0  0  0  0
    1.5910    1.8450    4.9230 H   0  0  0  0  0  0  0  0  0  0  0  0
    2.5500    4.0960    3.6580 H   0  0  0  0  0  0  0  0  0  0  0  0
    3.8270    4.9420    1.6970 H   0  0  0  0  0  0  0  0  0  0  0  0
    4.6850    3.2370    0.0640 H   0  0  0  0  0  0  0  0  0  0  0  0
    4.2680    0.8360    0.4290 H   0  0  0  0  0  0  0  0  0  0  0  0
   -0.3270   -1.2620    0.8600 N   0  0  0  0  0  0  0  0  0  0  0  0
   -1.6820   -1.4650    1.4040 C   0  0  1  0  0  0  0  0  0  0  0  0
   -2.2870   -0.1310    1.7660 C   0  0  0  0  0  0  0  0  0  0  0  0
   -3.6260   -0.3220    2.3120 C   0  0  0  0  0  0  0  0  0  0  0  0
   -4.6740   -0.3400    1.6270 O   0  0  0  0  0  0  0  0  0  0  0  0
   -2.4550   -2.0710    0.2930 C   0  0  0  0  0  0  0  0  0  0  0  0
   -3.6600   -2.3990    0.4360 O   0  0  0  0  0  0  0  0  0  0  0  0
   -3.7810   -0.4990    3.6820 O   0  0  0  0  0  0  0  0  0  0  0  0
   -0.2480   -0.5910    0.0730 H   0  0  0  0  0  0  0  0  0  0  0  0
   -1.6290   -2.1760    2.2550 H   0  0  0  0  0  0  0  0  0  0  0  0
   -2.3460    0.4410    0.7940 H   0  0  0  0  0  0  0  0  0  0  0  0
   -1.5890    0.3820    2.4700 H   0  0  0  0  0  0  0  0  0  0  0  0
   -4.5760   -0.0900    4.1960 H   0  0  0  0  0  0  0  0  0  0  0  0
   -3.5140   -0.8370   -3.2020 C   0  0  0  0  0  0  0  0  0  0  0  0
   -2.6580   -2.0610   -3.3260 C   0  0  1  0  0  0  0  0  0  0  0  0
   -1.3830   -1.7920   -3.8240 O   0  0  0  0  0  0  0  0  0  0  0  0
   -2.6190   -2.9030   -2.0810 C   0  0  2  0  0  0  0  0  0  0  0  0
   -1.9100   -2.3250   -0.9950 N   0  0  0  0  0  0  0  0  0  0  0  0
   -1.9730   -4.1940   -2.4240 C   0  0  0  0  0  0  0  0  0  0  0  0
   -0.9710   -4.5920   -1.7810 O   0  0  0  0  0  0  0  0  0  0  0  0
   -2.4350   -5.0080   -3.4510 O   0  0  0  0  0  0  0  0  0  0  0  0
   -2.8560    0.0680   -3.1440 H   0  0  0  0  0  0  0  0  0  0  0  0
   -4.2420   -0.8830   -2.3780 H   0  0  0  0  0  0  0  0  0  0  0  0
   -4.1330   -0.6600   -4.1320 H   0  0  0  0  0  0  0  0  0  0  0  0
   -3.1450   -2.7060   -4.1180 H   0  0  0  0  0  0  0  0  0  0  0  0
   -0.7440   -2.2640   -3.2150 H   0  0  0  0  0  0  0  0  0  0  0  0
   -3.6840   -3.1520   -1.8320 H   0  0  0  0  0  0  0  0  0  0  0  0
   -0.9110   -2.0670   -1.1530 H   0  0  0  0  0  0  0  0  0  0  0  0
  1 16  1  0  0  0  0
  1  2  1  0  0  0  0
  2 17  1  6  0  0  0
  2 13  1  0  0  0  0
  2  3  1  0  0  0  0
  3  4  1  0  0  0  0
  3 19  1  0  0  0  0
  4  5  2  0  0  0  0
  5  6  1  0  0  0  0
  5 20  1  0  0  0  0
  6 21  1  0  0  0  0
  7  6  1  0  0  0  0
  8  7  1  0  0  0  0
  8 22  1  0  0  0  0
  9  8  2  0  0  0  0
 10 11  2  0  0  0  0
 10  9  1  0  0  0  0
 11 12  1  0  0  0  0
 12  4  1  0  0  0  0
 12  7  2  0  0  0  0
 13 14  2  0  0  0  0
 15  1  1  0  0  0  0
 18  3  1  0  0  0  0
 23  9  1  0  0  0  0
 24 10  1  0  0  0  0
 25 11  1  0  0  0  0
 26 13  1  0  0  0  0
 26 27  1  0  0  0  0
 27 28  1  0  0  0  0
 27 35  1  1  0  0  0
 28 29  1  0  0  0  0
 28 37  1  0  0  0  0
 29 33  1  0  0  0  0
 30 29  2  0  0  0  0
 31 32  2  0  0  0  0
 31 27  1  0  0  0  0
 33 38  1  0  0  0  0
 34 26  1  0  0  0  0
 36 28  1  0  0  0  0
 39 47  1  0  0  0  0
 39 48  1  0  0  0  0
 40 50  1  6  0  0  0
 40 39  1  0  0  0  0
 40 42  1  0  0  0  0
 41 40  1  0  0  0  0
 41 51  1  0  0  0  0
 42 52  1  1  0  0  0
 42 43  1  0  0  0  0
 43 31  1  0  0  0  0
 44 42  1  0  0  0  0
 44 45  1  0  0  0  0
 46 44  2  0  0  0  0
 49 39  1  0  0  0  0
 53 43  1  0  0  0  0
M  END
$$$$
