WDV.pdb
 OpenBabel07022419163D

 55 56  0  0  1  0  0  0  0  0999 V2000
    2.6950    2.1970    0.4360 N   0  0  0  0  0  0  0  0  0  0  0  0
    1.9220    1.1500   -0.1780 C   0  0  1  0  0  0  0  0  0  0  0  0
    2.3790   -0.2360    0.2940 C   0  0  0  0  0  0  0  0  0  0  0  0
    2.2510   -0.3610    1.7520 C   0  0  0  0  0  0  0  0  0  0  0  0
    1.1760   -0.9260    2.4330 C   0  0  0  0  0  0  0  0  0  0  0  0
    1.3950   -0.8240    3.7530 N   0  0  0  0  0  0  0  0  0  0  0  0
    2.5830   -0.2090    3.9270 C   0  0  0  0  0  0  0  0  0  0  0  0
    3.3070    0.1500    5.0570 C   0  0  0  0  0  0  0  0  0  0  0  0
    4.5230    0.7750    4.9890 C   0  0  0  0  0  0  0  0  0  0  0  0
    5.0330    1.0490    3.7460 C   0  0  0  0  0  0  0  0  0  0  0  0
    4.3650    0.7190    2.5940 C   0  0  0  0  0  0  0  0  0  0  0  0
    3.1420    0.0920    2.6900 C   0  0  0  0  0  0  0  0  0  0  0  0
    0.4680    1.3220    0.0580 C   0  0  0  0  0  0  0  0  0  0  0  0
    0.0300    2.1710    0.8710 O   0  0  0  0  0  0  0  0  0  0  0  0
    3.5730    2.3810   -0.1120 H   0  0  0  0  0  0  0  0  0  0  0  0
    2.1330    3.0730    0.4040 H   0  0  0  0  0  0  0  0  0  0  0  0
    2.1760    1.1700   -1.2750 H   0  0  0  0  0  0  0  0  0  0  0  0
    3.4470   -0.3140    0.0100 H   0  0  0  0  0  0  0  0  0  0  0  0
    1.7980   -0.9760   -0.2770 H   0  0  0  0  0  0  0  0  0  0  0  0
    0.3120   -1.3670    1.9880 H   0  0  0  0  0  0  0  0  0  0  0  0
    0.7970   -1.1410    4.5250 H   0  0  0  0  0  0  0  0  0  0  0  0
    2.8530   -0.0930    6.0170 H   0  0  0  0  0  0  0  0  0  0  0  0
    5.0520    1.0370    5.8990 H   0  0  0  0  0  0  0  0  0  0  0  0
    5.9860    1.5380    3.6450 H   0  0  0  0  0  0  0  0  0  0  0  0
    4.7920    0.9340    1.6230 H   0  0  0  0  0  0  0  0  0  0  0  0
   -0.4560    0.5000   -0.6620 N   0  0  0  0  0  0  0  0  0  0  0  0
   -1.8890    0.6250   -0.4700 C   0  0  1  0  0  0  0  0  0  0  0  0
   -2.4940    1.4010   -1.6410 C   0  0  0  0  0  0  0  0  0  0  0  0
   -3.9500    1.5260   -1.4410 C   0  0  0  0  0  0  0  0  0  0  0  0
   -4.7780    0.7030   -1.8990 O   0  0  0  0  0  0  0  0  0  0  0  0
   -2.5190   -0.6920   -0.3000 C   0  0  0  0  0  0  0  0  0  0  0  0
   -3.7690   -0.7910   -0.0490 O   0  0  0  0  0  0  0  0  0  0  0  0
   -4.5000    2.5940   -0.7140 O   0  0  0  0  0  0  0  0  0  0  0  0
   -0.0580   -0.1880   -1.3280 H   0  0  0  0  0  0  0  0  0  0  0  0
   -2.0940    1.2560    0.4160 H   0  0  0  0  0  0  0  0  0  0  0  0
   -2.2810    0.8430   -2.5690 H   0  0  0  0  0  0  0  0  0  0  0  0
   -2.0320    2.3880   -1.6900 H   0  0  0  0  0  0  0  0  0  0  0  0
   -5.5120    2.7230   -0.6770 H   0  0  0  0  0  0  0  0  0  0  0  0
   -3.1960   -2.9780   -2.6310 C   0  0  0  0  0  0  0  0  0  0  0  0
   -2.4630   -3.8280   -1.6430 C   0  0  0  0  0  0  0  0  0  0  0  0
   -0.9910   -3.9440   -2.0490 C   0  0  0  0  0  0  0  0  0  0  0  0
   -2.4670   -3.2020   -0.2390 C   0  0  2  0  0  0  0  0  0  0  0  0
   -1.8120   -1.9190   -0.4010 N   0  0  0  0  0  0  0  0  0  0  0  0
   -1.8700   -4.0860    0.7480 C   0  0  0  0  0  0  0  0  0  0  0  0
   -0.8580   -3.7400    1.3860 O   0  0  0  0  0  0  0  0  0  0  0  0
   -2.4120   -5.3300    0.9990 O   0  0  0  0  0  0  0  0  0  0  0  0
   -4.0460   -2.4120   -2.2390 H   0  0  0  0  0  0  0  0  0  0  0  0
   -2.4610   -2.2380   -3.0570 H   0  0  0  0  0  0  0  0  0  0  0  0
   -3.5090   -3.5990   -3.5210 H   0  0  0  0  0  0  0  0  0  0  0  0
   -2.9360   -4.8140   -1.6000 H   0  0  0  0  0  0  0  0  0  0  0  0
   -0.6960   -3.0750   -2.6850 H   0  0  0  0  0  0  0  0  0  0  0  0
   -0.8750   -4.8930   -2.6000 H   0  0  0  0  0  0  0  0  0  0  0  0
   -0.3620   -4.0040   -1.1430 H   0  0  0  0  0  0  0  0  0  0  0  0
   -3.5590   -2.9960   -0.0350 H   0  0  0  0  0  0  0  0  0  0  0  0
   -0.7930   -1.9290   -0.5960 H   0  0  0  0  0  0  0  0  0  0  0  0
  2 17  1  6  0  0  0
  2 13  1  0  0  0  0
  2  3  1  0  0  0  0
  2  1  1  0  0  0  0
  3  4  1  0  0  0  0
  4  5  2  0  0  0  0
  4 12  1  0  0  0  0
  5  6  1  0  0  0  0
  6  7  1  0  0  0  0
  6 21  1  0  0  0  0
  7  8  1  0  0  0  0
  8 22  1  0  0  0  0
  9  8  2  0  0  0  0
  9 23  1  0  0  0  0
 10  9  1  0  0  0  0
 11 12  1  0  0  0  0
 11 10  2  0  0  0  0
 12  7  2  0  0  0  0
 13 14  2  0  0  0  0
 15  1  1  0  0  0  0
 16  1  1  0  0  0  0
 18  3  1  0  0  0  0
 19  3  1  0  0  0  0
 20  5  1  0  0  0  0
 24 10  1  0  0  0  0
 25 11  1  0  0  0  0
 26 27  1  0  0  0  0
 26 13  1  0  0  0  0
 27 31  1  0  0  0  0
 27 35  1  1  0  0  0
 28 29  1  0  0  0  0
 28 27  1  0  0  0  0
 29 33  1  0  0  0  0
 30 29  2  0  0  0  0
 31 32  2  0  0  0  0
 33 38  1  0  0  0  0
 34 26  1  0  0  0  0
 36 28  1  0  0  0  0
 37 28  1  0  0  0  0
 39 47  1  0  0  0  0
 39 40  1  0  0  0  0
 40 50  1  0  0  0  0
 40 42  1  0  0  0  0
 41 40  1  0  0  0  0
 41 53  1  0  0  0  0
 42 54  1  1  0  0  0
 42 44  1  0  0  0  0
 43 31  1  0  0  0  0
 43 42  1  0  0  0  0
 44 46  2  0  0  0  0
 44 45  1  0  0  0  0
 48 39  1  0  0  0  0
 49 39  1  0  0  0  0
 51 41  1  0  0  0  0
 52 41  1  0  0  0  0
 55 43  1  0  0  0  0
M  END
$$$$
