WDY.pdb
 OpenBabel07022419163D

 60 62  0  0  1  0  0  0  0  0999 V2000
    0.0630    1.1670    3.1360 N   0  0  0  0  0  0  0  0  0  0  0  0
    1.2780    1.5130    2.3740 C   0  0  1  0  0  0  0  0  0  0  0  0
    2.4260    1.3970    3.3310 C   0  0  0  0  0  0  0  0  0  0  0  0
    3.7630    1.6690    2.8120 C   0  0  0  0  0  0  0  0  0  0  0  0
    4.4430    2.8950    2.8370 C   0  0  0  0  0  0  0  0  0  0  0  0
    5.6280    2.7490    2.2350 N   0  0  0  0  0  0  0  0  0  0  0  0
    5.7720    1.4730    1.8080 C   0  0  0  0  0  0  0  0  0  0  0  0
    6.8460    0.8670    1.1450 C   0  0  0  0  0  0  0  0  0  0  0  0
    6.7430   -0.4680    0.8360 C   0  0  0  0  0  0  0  0  0  0  0  0
    5.5970   -1.1460    1.1900 C   0  0  0  0  0  0  0  0  0  0  0  0
    4.5440   -0.5480    1.8390 C   0  0  0  0  0  0  0  0  0  0  0  0
    4.6290    0.8020    2.1590 C   0  0  0  0  0  0  0  0  0  0  0  0
    1.4620    0.6300    1.2230 C   0  0  0  0  0  0  0  0  0  0  0  0
    2.2770    0.9430    0.3150 O   0  0  0  0  0  0  0  0  0  0  0  0
    0.3460    0.4810    3.8560 H   0  0  0  0  0  0  0  0  0  0  0  0
   -0.2320    2.0500    3.6020 H   0  0  0  0  0  0  0  0  0  0  0  0
    1.2050    2.5900    2.0480 H   0  0  0  0  0  0  0  0  0  0  0  0
    2.2830    2.1050    4.2050 H   0  0  0  0  0  0  0  0  0  0  0  0
    2.4630    0.3930    3.8220 H   0  0  0  0  0  0  0  0  0  0  0  0
    4.0350    3.8130    3.2890 H   0  0  0  0  0  0  0  0  0  0  0  0
    6.3790    3.4880    2.0880 H   0  0  0  0  0  0  0  0  0  0  0  0
    7.7240    1.4300    0.8860 H   0  0  0  0  0  0  0  0  0  0  0  0
    7.5450   -1.0040    0.3190 H   0  0  0  0  0  0  0  0  0  0  0  0
    5.5370   -2.2170    0.9310 H   0  0  0  0  0  0  0  0  0  0  0  0
    3.6360   -1.0500    2.1320 H   0  0  0  0  0  0  0  0  0  0  0  0
    0.7620   -0.6190    1.0260 N   0  0  0  0  0  0  0  0  0  0  0  0
    0.9870   -1.4370   -0.1330 C   0  0  1  0  0  0  0  0  0  0  0  0
    1.5250   -2.7720    0.3160 C   0  0  0  0  0  0  0  0  0  0  0  0
    0.6230   -3.5110    1.2090 C   0  0  0  0  0  0  0  0  0  0  0  0
   -0.5020   -3.0690    1.5510 O   0  0  0  0  0  0  0  0  0  0  0  0
   -0.2700   -1.6140   -0.9350 C   0  0  0  0  0  0  0  0  0  0  0  0
   -0.2320   -2.2880   -2.0080 O   0  0  0  0  0  0  0  0  0  0  0  0
    0.9700   -4.7600    1.7320 O   0  0  0  0  0  0  0  0  0  0  0  0
    0.0980   -0.8480    1.7940 H   0  0  0  0  0  0  0  0  0  0  0  0
    1.7790   -0.9940   -0.8040 H   0  0  0  0  0  0  0  0  0  0  0  0
    2.4990   -2.6810    0.8310 H   0  0  0  0  0  0  0  0  0  0  0  0
    1.7270   -3.4500   -0.5530 H   0  0  0  0  0  0  0  0  0  0  0  0
    0.2760   -5.4070    2.0650 H   0  0  0  0  0  0  0  0  0  0  0  0
   -8.5890   -3.1690   -3.0030 O   0  0  0  0  0  0  0  0  0  0  0  0
   -7.3660   -2.8870   -2.3750 C   0  0  0  0  0  0  0  0  0  0  0  0
   -6.3150   -3.7210   -2.6560 C   0  0  0  0  0  0  0  0  0  0  0  0
   -5.0920   -3.4530   -2.0390 C   0  0  0  0  0  0  0  0  0  0  0  0
   -4.9330   -2.3960   -1.1790 C   0  0  0  0  0  0  0  0  0  0  0  0
   -3.6510   -2.1320   -0.5430 C   0  0  0  0  0  0  0  0  0  0  0  0
   -2.7420   -1.2330   -1.3440 C   0  0  2  0  0  0  0  0  0  0  0  0
   -1.5220   -1.0730   -0.5770 N   0  0  0  0  0  0  0  0  0  0  0  0
   -3.3290    0.0280   -1.7530 C   0  0  0  0  0  0  0  0  0  0  0  0
   -4.3760    0.0510   -2.4270 O   0  0  0  0  0  0  0  0  0  0  0  0
   -6.0110   -1.5930   -0.9300 C   0  0  0  0  0  0  0  0  0  0  0  0
   -7.2300   -1.8240   -1.5180 C   0  0  0  0  0  0  0  0  0  0  0  0
   -2.7390    1.2240   -1.4050 O   0  0  0  0  0  0  0  0  0  0  0  0
   -8.9580   -2.4940   -3.6510 H   0  0  0  0  0  0  0  0  0  0  0  0
   -6.4440   -4.5520   -3.3340 H   0  0  0  0  0  0  0  0  0  0  0  0
   -4.2660   -4.1160   -2.2650 H   0  0  0  0  0  0  0  0  0  0  0  0
   -3.7820   -1.6640    0.4560 H   0  0  0  0  0  0  0  0  0  0  0  0
   -3.0560   -3.0740   -0.3520 H   0  0  0  0  0  0  0  0  0  0  0  0
   -2.4220   -1.8120   -2.2640 H   0  0  0  0  0  0  0  0  0  0  0  0
   -1.5890   -0.5170    0.2990 H   0  0  0  0  0  0  0  0  0  0  0  0
   -5.9460   -0.7300   -0.2490 H   0  0  0  0  0  0  0  0  0  0  0  0
   -8.0860   -1.1970   -1.3270 H   0  0  0  0  0  0  0  0  0  0  0  0
  1 16  1  0  0  0  0
  1 15  1  0  0  0  0
  2 17  1  6  0  0  0
  2  1  1  0  0  0  0
  2  3  1  0  0  0  0
  3 19  1  0  0  0  0
  3 18  1  0  0  0  0
  4  5  2  0  0  0  0
  4  3  1  0  0  0  0
  5 20  1  0  0  0  0
  6  5  1  0  0  0  0
  7 12  1  0  0  0  0
  7  6  1  0  0  0  0
  8  7  2  0  0  0  0
  9  8  1  0  0  0  0
  9 10  2  0  0  0  0
 10 11  1  0  0  0  0
 11 25  1  0  0  0  0
 11 12  2  0  0  0  0
 12  4  1  0  0  0  0
 13  2  1  0  0  0  0
 14 13  2  0  0  0  0
 21  6  1  0  0  0  0
 22  8  1  0  0  0  0
 23  9  1  0  0  0  0
 24 10  1  0  0  0  0
 26 13  1  0  0  0  0
 26 34  1  0  0  0  0
 27 35  1  6  0  0  0
 27 28  1  0  0  0  0
 27 26  1  0  0  0  0
 28 36  1  0  0  0  0
 28 29  1  0  0  0  0
 29 30  2  0  0  0  0
 29 33  1  0  0  0  0
 31 46  1  0  0  0  0
 31 27  1  0  0  0  0
 32 31  2  0  0  0  0
 33 38  1  0  0  0  0
 37 28  1  0  0  0  0
 39 40  1  0  0  0  0
 40 50  1  0  0  0  0
 41 40  2  0  0  0  0
 41 42  1  0  0  0  0
 42 43  2  0  0  0  0
 43 49  1  0  0  0  0
 43 44  1  0  0  0  0
 44 56  1  0  0  0  0
 44 55  1  0  0  0  0
 45 57  1  6  0  0  0
 45 46  1  0  0  0  0
 45 44  1  0  0  0  0
 46 58  1  0  0  0  0
 47 51  1  0  0  0  0
 47 45  1  0  0  0  0
 48 47  2  0  0  0  0
 49 59  1  0  0  0  0
 50 60  1  0  0  0  0
 50 49  2  0  0  0  0
 52 39  1  0  0  0  0
 53 41  1  0  0  0  0
 54 42  1  0  0  0  0
M  END
$$$$
