WEC.pdb
 OpenBabel07022419163D

 53 54  0  0  1  0  0  0  0  0999 V2000
    1.6570    2.4340   -0.5810 N   0  0  0  0  0  0  0  0  0  0  0  0
    1.0150    1.1620   -0.7620 C   0  0  1  0  0  0  0  0  0  0  0  0
    2.0270    0.0680   -0.5290 C   0  0  0  0  0  0  0  0  0  0  0  0
    2.6360    0.0860    0.7940 C   0  0  0  0  0  0  0  0  0  0  0  0
    2.2440   -0.6770    1.8720 C   0  0  0  0  0  0  0  0  0  0  0  0
    3.0000   -0.3830    2.9430 N   0  0  0  0  0  0  0  0  0  0  0  0
    3.8710    0.5540    2.5780 C   0  0  0  0  0  0  0  0  0  0  0  0
    4.8660    1.1910    3.2990 C   0  0  0  0  0  0  0  0  0  0  0  0
    5.6490    2.1320    2.6840 C   0  0  0  0  0  0  0  0  0  0  0  0
    5.4940    2.4830    1.3590 C   0  0  0  0  0  0  0  0  0  0  0  0
    4.4950    1.8320    0.6630 C   0  0  0  0  0  0  0  0  0  0  0  0
    3.6730    0.8720    1.2400 C   0  0  0  0  0  0  0  0  0  0  0  0
   -0.1770    1.0360    0.0910 C   0  0  0  0  0  0  0  0  0  0  0  0
   -0.3690    1.8170    1.0440 O   0  0  0  0  0  0  0  0  0  0  0  0
    2.1140    2.8130   -1.4180 H   0  0  0  0  0  0  0  0  0  0  0  0
    1.1180    3.1050   -0.0200 H   0  0  0  0  0  0  0  0  0  0  0  0
    0.6760    1.1110   -1.8200 H   0  0  0  0  0  0  0  0  0  0  0  0
    1.5160   -0.8980   -0.7580 H   0  0  0  0  0  0  0  0  0  0  0  0
    2.8300    0.1900   -1.2860 H   0  0  0  0  0  0  0  0  0  0  0  0
    1.4640   -1.3980    1.8960 H   0  0  0  0  0  0  0  0  0  0  0  0
    2.9370   -0.8030    3.9110 H   0  0  0  0  0  0  0  0  0  0  0  0
    5.0090    0.9270    4.3590 H   0  0  0  0  0  0  0  0  0  0  0  0
    6.4250    2.6190    3.2730 H   0  0  0  0  0  0  0  0  0  0  0  0
    6.1350    3.2330    0.9090 H   0  0  0  0  0  0  0  0  0  0  0  0
    4.3620    2.0840   -0.3790 H   0  0  0  0  0  0  0  0  0  0  0  0
   -1.1930    0.0530   -0.0800 N   0  0  0  0  0  0  0  0  0  0  0  0
   -2.3400   -0.1080    0.7020 C   0  0  1  0  0  0  0  0  0  0  0  0
   -3.6500    0.3230    0.1420 C   0  0  0  0  0  0  0  0  0  0  0  0
   -3.9390   -0.4520   -1.1300 C   0  0  0  0  0  0  0  0  0  0  0  0
   -5.2250   -0.0710   -1.7330 C   0  0  0  0  0  0  0  0  0  0  0  0
   -5.9860    0.7940   -1.2310 O   0  0  0  0  0  0  0  0  0  0  0  0
   -2.5120   -1.5260    1.0740 C   0  0  0  0  0  0  0  0  0  0  0  0
   -3.4920   -1.8780    1.8160 O   0  0  0  0  0  0  0  0  0  0  0  0
   -5.6290   -0.6850   -2.9070 O   0  0  0  0  0  0  0  0  0  0  0  0
   -1.0550   -0.6060   -0.8810 H   0  0  0  0  0  0  0  0  0  0  0  0
   -2.2050    0.4710    1.6500 H   0  0  0  0  0  0  0  0  0  0  0  0
   -3.7890    1.3820   -0.0190 H   0  0  0  0  0  0  0  0  0  0  0  0
   -4.4400    0.0050    0.8610 H   0  0  0  0  0  0  0  0  0  0  0  0
   -3.0870   -0.2680   -1.8150 H   0  0  0  0  0  0  0  0  0  0  0  0
   -3.9450   -1.5480   -0.9440 H   0  0  0  0  0  0  0  0  0  0  0  0
   -6.4030   -0.2960   -3.4670 H   0  0  0  0  0  0  0  0  0  0  0  0
   -1.6590   -2.5900    0.6690 N   0  0  0  0  0  0  0  0  0  0  0  0
   -1.8800   -3.9600    1.0510 C   0  0  1  0  0  0  0  0  0  0  0  0
   -2.1930   -4.7120   -0.2560 C   0  0  0  0  0  0  0  0  0  0  0  0
   -2.4950   -6.4710    0.0880 S   0  0  0  0  0  0  0  0  0  0  0  0
   -0.6350   -4.5240    1.6160 C   0  0  0  0  0  0  0  0  0  0  0  0
    0.4460   -3.8940    1.7280 O   0  0  0  0  0  0  0  0  0  0  0  0
   -0.5840   -5.8490    2.0810 O   0  0  0  0  0  0  0  0  0  0  0  0
   -0.8440   -2.3620    0.0730 H   0  0  0  0  0  0  0  0  0  0  0  0
   -2.7390   -4.0690    1.7310 H   0  0  0  0  0  0  0  0  0  0  0  0
   -1.3200   -4.6650   -0.9390 H   0  0  0  0  0  0  0  0  0  0  0  0
   -3.0850   -4.2260   -0.7040 H   0  0  0  0  0  0  0  0  0  0  0  0
   -3.1870   -7.0040   -1.0260 H   0  0  0  0  0  0  0  0  0  0  0  0
  1 16  1  0  0  0  0
  2 17  1  6  0  0  0
  2  1  1  0  0  0  0
  2  3  1  0  0  0  0
  2 13  1  0  0  0  0
  3  4  1  0  0  0  0
  4 12  1  0  0  0  0
  4  5  2  0  0  0  0
  5 20  1  0  0  0  0
  5  6  1  0  0  0  0
  6 21  1  0  0  0  0
  7  6  1  0  0  0  0
  7  8  1  0  0  0  0
  8 22  1  0  0  0  0
  9 23  1  0  0  0  0
  9  8  2  0  0  0  0
 10  9  1  0  0  0  0
 11 12  1  0  0  0  0
 11 10  2  0  0  0  0
 12  7  2  0  0  0  0
 13 14  2  0  0  0  0
 15  1  1  0  0  0  0
 18  3  1  0  0  0  0
 19  3  1  0  0  0  0
 24 10  1  0  0  0  0
 25 11  1  0  0  0  0
 26 13  1  0  0  0  0
 26 27  1  0  0  0  0
 27 32  1  0  0  0  0
 27 36  1  1  0  0  0
 28 27  1  0  0  0  0
 28 38  1  0  0  0  0
 29 40  1  0  0  0  0
 29 28  1  0  0  0  0
 30 31  2  0  0  0  0
 30 29  1  0  0  0  0
 32 33  2  0  0  0  0
 34 30  1  0  0  0  0
 35 26  1  0  0  0  0
 37 28  1  0  0  0  0
 39 29  1  0  0  0  0
 41 34  1  0  0  0  0
 42 43  1  0  0  0  0
 42 32  1  0  0  0  0
 43 46  1  0  0  0  0
 43 50  1  1  0  0  0
 44 45  1  0  0  0  0
 44 43  1  0  0  0  0
 46 47  2  0  0  0  0
 46 48  1  0  0  0  0
 49 42  1  0  0  0  0
 51 44  1  0  0  0  0
 52 44  1  0  0  0  0
 53 45  1  0  0  0  0
M  END
$$$$
