WEE.pdb
 OpenBabel07022419163D

 58 59  0  0  1  0  0  0  0  0999 V2000
    0.9240   -1.4370    3.1810 N   0  0  0  0  0  0  0  0  0  0  0  0
   -0.2870   -0.6520    3.4430 C   0  0  1  0  0  0  0  0  0  0  0  0
    0.1420    0.5880    4.1370 C   0  0  0  0  0  0  0  0  0  0  0  0
    1.0910    1.4420    3.4150 C   0  0  0  0  0  0  0  0  0  0  0  0
    2.4820    1.4520    3.5390 C   0  0  0  0  0  0  0  0  0  0  0  0
    2.9860    2.3440    2.6880 N   0  0  0  0  0  0  0  0  0  0  0  0
    1.9960    2.9470    1.9860 C   0  0  0  0  0  0  0  0  0  0  0  0
    2.0120    3.9250    1.0160 C   0  0  0  0  0  0  0  0  0  0  0  0
    0.8160    4.3550    0.4870 C   0  0  0  0  0  0  0  0  0  0  0  0
   -0.3950    3.8170    0.9180 C   0  0  0  0  0  0  0  0  0  0  0  0
   -0.3650    2.8430    1.8860 C   0  0  0  0  0  0  0  0  0  0  0  0
    0.8070    2.3790    2.4460 C   0  0  0  0  0  0  0  0  0  0  0  0
   -1.0170   -0.4970    2.1790 C   0  0  0  0  0  0  0  0  0  0  0  0
   -2.2100   -0.0450    2.1240 O   0  0  0  0  0  0  0  0  0  0  0  0
    1.6120   -0.8970    2.6350 H   0  0  0  0  0  0  0  0  0  0  0  0
    1.2860   -1.9250    4.0040 H   0  0  0  0  0  0  0  0  0  0  0  0
   -0.9180   -1.3080    4.0940 H   0  0  0  0  0  0  0  0  0  0  0  0
    0.6640    0.2670    5.0870 H   0  0  0  0  0  0  0  0  0  0  0  0
   -0.7240    1.2000    4.5110 H   0  0  0  0  0  0  0  0  0  0  0  0
    3.0070    0.8240    4.2220 H   0  0  0  0  0  0  0  0  0  0  0  0
    4.0090    2.5900    2.5370 H   0  0  0  0  0  0  0  0  0  0  0  0
    2.9240    4.3680    0.6550 H   0  0  0  0  0  0  0  0  0  0  0  0
    0.7600    5.1190   -0.2750 H   0  0  0  0  0  0  0  0  0  0  0  0
   -1.3480    4.1560    0.5000 H   0  0  0  0  0  0  0  0  0  0  0  0
   -1.3010    2.4330    2.2320 H   0  0  0  0  0  0  0  0  0  0  0  0
   -0.4610   -0.8380    0.9080 N   0  0  0  0  0  0  0  0  0  0  0  0
   -1.1600   -0.6980   -0.3510 C   0  0  1  0  0  0  0  0  0  0  0  0
   -0.5620    0.4080   -1.1720 C   0  0  0  0  0  0  0  0  0  0  0  0
   -1.2170    0.6130   -2.4850 C   0  0  0  0  0  0  0  0  0  0  0  0
   -2.6420    0.9460   -2.4560 C   0  0  0  0  0  0  0  0  0  0  0  0
   -3.2050    1.0900   -3.5940 O   0  0  0  0  0  0  0  0  0  0  0  0
   -1.3020   -1.9550   -1.0800 C   0  0  0  0  0  0  0  0  0  0  0  0
   -1.9070   -2.0520   -2.1760 O   0  0  0  0  0  0  0  0  0  0  0  0
   -3.4410    1.1220   -1.3600 O   0  0  0  0  0  0  0  0  0  0  0  0
    0.5240   -1.2130    0.9150 H   0  0  0  0  0  0  0  0  0  0  0  0
   -2.1870   -0.3290   -0.0620 H   0  0  0  0  0  0  0  0  0  0  0  0
   -0.6730    1.3730   -0.6020 H   0  0  0  0  0  0  0  0  0  0  0  0
    0.5330    0.2930   -1.3110 H   0  0  0  0  0  0  0  0  0  0  0  0
   -1.0510   -0.1760   -3.2420 H   0  0  0  0  0  0  0  0  0  0  0  0
   -0.7100    1.5240   -2.9460 H   0  0  0  0  0  0  0  0  0  0  0  0
   -4.4190    0.8020   -1.3180 H   0  0  0  0  0  0  0  0  0  0  0  0
   -0.7400   -3.1800   -0.5650 N   0  0  0  0  0  0  0  0  0  0  0  0
   -0.8490   -4.4410   -1.2290 C   0  0  1  0  0  0  0  0  0  0  0  0
    0.4050   -4.8940   -1.8630 C   0  0  0  0  0  0  0  0  0  0  0  0
    1.6030   -5.1150   -1.0310 C   0  0  0  0  0  0  0  0  0  0  0  0
    2.1470   -3.9880   -0.2930 C   0  0  0  0  0  0  0  0  0  0  0  0
    2.1740   -3.9870    0.9570 O   0  0  0  0  0  0  0  0  0  0  0  0
   -1.5120   -5.4750   -0.4010 C   0  0  0  0  0  0  0  0  0  0  0  0
   -1.8990   -5.1460    0.7450 O   0  0  0  0  0  0  0  0  0  0  0  0
    2.6500   -2.8840   -0.9580 O   0  0  0  0  0  0  0  0  0  0  0  0
   -1.7310   -6.7670   -0.8020 O   0  0  0  0  0  0  0  0  0  0  0  0
   -0.2490   -3.1020    0.3400 H   0  0  0  0  0  0  0  0  0  0  0  0
   -1.5800   -4.2820   -2.1000 H   0  0  0  0  0  0  0  0  0  0  0  0
    0.1860   -5.8320   -2.4320 H   0  0  0  0  0  0  0  0  0  0  0  0
    0.6340   -4.1490   -2.6860 H   0  0  0  0  0  0  0  0  0  0  0  0
    1.3610   -5.9770   -0.3300 H   0  0  0  0  0  0  0  0  0  0  0  0
    2.3830   -5.5920   -1.7100 H   0  0  0  0  0  0  0  0  0  0  0  0
    3.1910   -2.1940   -0.4920 H   0  0  0  0  0  0  0  0  0  0  0  0
  1  2  1  0  0  0  0
  1 16  1  0  0  0  0
  2 17  1  1  0  0  0
  2  3  1  0  0  0  0
  3 19  1  0  0  0  0
  3 18  1  0  0  0  0
  4  5  2  0  0  0  0
  4  3  1  0  0  0  0
  5 20  1  0  0  0  0
  6  5  1  0  0  0  0
  7 12  1  0  0  0  0
  7  6  1  0  0  0  0
  8  7  2  0  0  0  0
  9 10  2  0  0  0  0
  9  8  1  0  0  0  0
 10 11  1  0  0  0  0
 11 25  1  0  0  0  0
 11 12  2  0  0  0  0
 12  4  1  0  0  0  0
 13  2  1  0  0  0  0
 14 13  2  0  0  0  0
 15  1  1  0  0  0  0
 21  6  1  0  0  0  0
 22  8  1  0  0  0  0
 23  9  1  0  0  0  0
 24 10  1  0  0  0  0
 26 35  1  0  0  0  0
 26 13  1  0  0  0  0
 27 36  1  1  0  0  0
 27 26  1  0  0  0  0
 28 37  1  0  0  0  0
 28 27  1  0  0  0  0
 29 30  1  0  0  0  0
 29 28  1  0  0  0  0
 30 34  1  0  0  0  0
 31 30  2  0  0  0  0
 32 42  1  0  0  0  0
 32 27  1  0  0  0  0
 33 32  2  0  0  0  0
 34 41  1  0  0  0  0
 38 28  1  0  0  0  0
 39 29  1  0  0  0  0
 40 29  1  0  0  0  0
 42 52  1  0  0  0  0
 43 53  1  6  0  0  0
 43 42  1  0  0  0  0
 43 48  1  0  0  0  0
 44 43  1  0  0  0  0
 44 45  1  0  0  0  0
 45 56  1  0  0  0  0
 45 46  1  0  0  0  0
 46 47  2  0  0  0  0
 48 49  1  0  0  0  0
 50 58  1  0  0  0  0
 50 46  1  0  0  0  0
 51 48  2  0  0  0  0
 54 44  1  0  0  0  0
 55 44  1  0  0  0  0
 57 45  1  0  0  0  0
M  END
$$$$
