WEF.pdb
 OpenBabel07022419163D

 62 64  0  0  1  0  0  0  0  0999 V2000
    1.6780   -4.3060    2.3260 N   0  0  0  0  0  0  0  0  0  0  0  0
    1.9660   -2.9400    2.8590 C   0  0  1  0  0  0  0  0  0  0  0  0
    3.2520   -2.5030    2.3380 C   0  0  0  0  0  0  0  0  0  0  0  0
    3.7720   -1.1760    2.7080 C   0  0  0  0  0  0  0  0  0  0  0  0
    4.4480   -0.8760    3.9080 C   0  0  0  0  0  0  0  0  0  0  0  0
    4.7280    0.4060    4.0070 N   0  0  0  0  0  0  0  0  0  0  0  0
    4.2580    1.0030    2.8900 C   0  0  0  0  0  0  0  0  0  0  0  0
    4.3000    2.3180    2.4600 C   0  0  0  0  0  0  0  0  0  0  0  0
    3.7710    2.6900    1.2440 C   0  0  0  0  0  0  0  0  0  0  0  0
    3.1970    1.7280    0.4600 C   0  0  0  0  0  0  0  0  0  0  0  0
    3.1320    0.4120    0.8490 C   0  0  0  0  0  0  0  0  0  0  0  0
    3.6620    0.0360    2.0740 C   0  0  0  0  0  0  0  0  0  0  0  0
    0.7550   -2.1930    2.9040 C   0  0  0  0  0  0  0  0  0  0  0  0
   -0.0070   -2.4420    3.9420 O   0  0  0  0  0  0  0  0  0  0  0  0
    1.0100   -4.1350    1.5500 H   0  0  0  0  0  0  0  0  0  0  0  0
    2.5520   -4.7050    1.9350 H   0  0  0  0  0  0  0  0  0  0  0  0
    2.1980   -3.2070    3.9860 H   0  0  0  0  0  0  0  0  0  0  0  0
    4.0280   -3.2480    2.7260 H   0  0  0  0  0  0  0  0  0  0  0  0
    3.3760   -2.6380    1.2270 H   0  0  0  0  0  0  0  0  0  0  0  0
    4.6880   -1.6410    4.6330 H   0  0  0  0  0  0  0  0  0  0  0  0
    5.2140    0.9300    4.7640 H   0  0  0  0  0  0  0  0  0  0  0  0
    4.7610    3.0670    3.0970 H   0  0  0  0  0  0  0  0  0  0  0  0
    3.8110    3.7210    0.9200 H   0  0  0  0  0  0  0  0  0  0  0  0
    2.7730    1.9840   -0.5030 H   0  0  0  0  0  0  0  0  0  0  0  0
    2.6960   -0.3580    0.2280 H   0  0  0  0  0  0  0  0  0  0  0  0
    0.1930   -1.2330    2.0540 N   0  0  0  0  0  0  0  0  0  0  0  0
   -1.0650   -0.5610    2.2390 C   0  0  1  0  0  0  0  0  0  0  0  0
   -1.0150    0.8240    2.7060 C   0  0  0  0  0  0  0  0  0  0  0  0
   -0.2940    1.8600    1.9670 C   0  0  0  0  0  0  0  0  0  0  0  0
   -0.6250    2.2100    0.6170 C   0  0  0  0  0  0  0  0  0  0  0  0
   -1.5260    1.7120   -0.0580 O   0  0  0  0  0  0  0  0  0  0  0  0
   -2.0160   -0.7850    1.1610 C   0  0  0  0  0  0  0  0  0  0  0  0
   -3.2070   -0.3210    1.3020 O   0  0  0  0  0  0  0  0  0  0  0  0
    0.1390    3.2120   -0.0130 O   0  0  0  0  0  0  0  0  0  0  0  0
    0.7130   -0.9890    1.2000 H   0  0  0  0  0  0  0  0  0  0  0  0
   -1.5320   -1.1420    3.1320 H   0  0  0  0  0  0  0  0  0  0  0  0
   -2.0990    1.1690    2.7750 H   0  0  0  0  0  0  0  0  0  0  0  0
   -0.7310    0.8070    3.8080 H   0  0  0  0  0  0  0  0  0  0  0  0
   -0.3040    2.8500    2.5540 H   0  0  0  0  0  0  0  0  0  0  0  0
    0.8170    1.6000    2.0680 H   0  0  0  0  0  0  0  0  0  0  0  0
    0.3030    3.1850   -1.0340 H   0  0  0  0  0  0  0  0  0  0  0  0
   -1.7510   -1.4710   -0.0380 N   0  0  0  0  0  0  0  0  0  0  0  0
   -2.8060   -1.6340   -1.0520 C   0  0  1  0  0  0  0  0  0  0  0  0
   -2.4200   -0.9550   -2.3290 C   0  0  0  0  0  0  0  0  0  0  0  0
   -3.4870   -1.1240   -3.3330 C   0  0  0  0  0  0  0  0  0  0  0  0
   -4.5340   -0.2190   -3.3650 C   0  0  0  0  0  0  0  0  0  0  0  0
   -5.5600   -0.2960   -4.2850 C   0  0  0  0  0  0  0  0  0  0  0  0
   -5.5720   -1.2970   -5.2180 C   0  0  0  0  0  0  0  0  0  0  0  0
   -4.5440   -2.2090   -5.2080 C   0  0  0  0  0  0  0  0  0  0  0  0
   -3.5180   -2.1250   -4.2830 C   0  0  0  0  0  0  0  0  0  0  0  0
   -3.1380   -3.0500   -1.2070 C   0  0  0  0  0  0  0  0  0  0  0  0
   -4.0440   -3.4400   -1.9740 O   0  0  0  0  0  0  0  0  0  0  0  0
   -2.4440   -4.0140   -0.4960 O   0  0  0  0  0  0  0  0  0  0  0  0
   -0.8200   -1.8590   -0.2030 H   0  0  0  0  0  0  0  0  0  0  0  0
   -3.6960   -1.0970   -0.6610 H   0  0  0  0  0  0  0  0  0  0  0  0
   -2.2000    0.1150   -2.1630 H   0  0  0  0  0  0  0  0  0  0  0  0
   -1.4920   -1.4500   -2.6880 H   0  0  0  0  0  0  0  0  0  0  0  0
   -4.5660    0.5920   -2.6440 H   0  0  0  0  0  0  0  0  0  0  0  0
   -6.3560    0.4280   -4.2770 H   0  0  0  0  0  0  0  0  0  0  0  0
   -6.3720   -1.3610   -5.9380 H   0  0  0  0  0  0  0  0  0  0  0  0
   -4.5400   -3.0140   -5.9450 H   0  0  0  0  0  0  0  0  0  0  0  0
   -2.7040   -2.8460   -4.2780 H   0  0  0  0  0  0  0  0  0  0  0  0
  1  2  1  0  0  0  0
  2 13  1  0  0  0  0
  2 17  1  1  0  0  0
  3  4  1  0  0  0  0
  3 18  1  0  0  0  0
  3  2  1  0  0  0  0
  4  5  2  0  0  0  0
  5  6  1  0  0  0  0
  5 20  1  0  0  0  0
  6 21  1  0  0  0  0
  7  6  1  0  0  0  0
  8  7  1  0  0  0  0
  8 22  1  0  0  0  0
  9  8  2  0  0  0  0
 10 11  2  0  0  0  0
 10  9  1  0  0  0  0
 11 12  1  0  0  0  0
 12  4  1  0  0  0  0
 12  7  2  0  0  0  0
 13 14  2  0  0  0  0
 15  1  1  0  0  0  0
 16  1  1  0  0  0  0
 19  3  1  0  0  0  0
 23  9  1  0  0  0  0
 24 10  1  0  0  0  0
 25 11  1  0  0  0  0
 26 27  1  0  0  0  0
 26 13  1  0  0  0  0
 27 28  1  0  0  0  0
 27 36  1  1  0  0  0
 28 37  1  0  0  0  0
 28 38  1  0  0  0  0
 29 40  1  0  0  0  0
 29 39  1  0  0  0  0
 29 28  1  0  0  0  0
 30 29  1  0  0  0  0
 31 30  2  0  0  0  0
 32 33  2  0  0  0  0
 32 27  1  0  0  0  0
 34 30  1  0  0  0  0
 35 26  1  0  0  0  0
 41 34  1  0  0  0  0
 42 32  1  0  0  0  0
 43 55  1  1  0  0  0
 43 42  1  0  0  0  0
 44 56  1  0  0  0  0
 44 43  1  0  0  0  0
 45 44  1  0  0  0  0
 46 45  1  0  0  0  0
 46 58  1  0  0  0  0
 47 59  1  0  0  0  0
 47 46  2  0  0  0  0
 48 49  2  0  0  0  0
 48 47  1  0  0  0  0
 49 50  1  0  0  0  0
 50 62  1  0  0  0  0
 50 45  2  0  0  0  0
 51 43  1  0  0  0  0
 51 53  1  0  0  0  0
 52 51  2  0  0  0  0
 54 42  1  0  0  0  0
 57 44  1  0  0  0  0
 60 48  1  0  0  0  0
 61 49  1  0  0  0  0
M  END
$$$$
