WEH.pdb
 OpenBabel07022419163D

 59 61  0  0  1  0  0  0  0  0999 V2000
    1.1590   -1.8540    2.1720 N   0  0  0  0  0  0  0  0  0  0  0  0
    0.5480   -0.6770    2.7760 C   0  0  1  0  0  0  0  0  0  0  0  0
    1.5530    0.2270    3.3930 C   0  0  0  0  0  0  0  0  0  0  0  0
    2.6010    0.7490    2.5020 C   0  0  0  0  0  0  0  0  0  0  0  0
    3.8960    0.2260    2.3440 C   0  0  0  0  0  0  0  0  0  0  0  0
    4.5710    0.9270    1.4410 N   0  0  0  0  0  0  0  0  0  0  0  0
    3.7550    1.9130    0.9870 C   0  0  0  0  0  0  0  0  0  0  0  0
    3.9840    2.8980    0.0670 C   0  0  0  0  0  0  0  0  0  0  0  0
    3.0170    3.8240   -0.2480 C   0  0  0  0  0  0  0  0  0  0  0  0
    1.7980    3.7290    0.3990 C   0  0  0  0  0  0  0  0  0  0  0  0
    1.5610    2.7450    1.3220 C   0  0  0  0  0  0  0  0  0  0  0  0
    2.5470    1.8100    1.6340 C   0  0  0  0  0  0  0  0  0  0  0  0
   -0.4890   -0.0630    1.9600 C   0  0  0  0  0  0  0  0  0  0  0  0
   -1.2180    0.8930    2.3620 O   0  0  0  0  0  0  0  0  0  0  0  0
    1.7230   -2.3510    2.8830 H   0  0  0  0  0  0  0  0  0  0  0  0
    1.8440   -1.4730    1.4570 H   0  0  0  0  0  0  0  0  0  0  0  0
   -0.0310   -1.1420    3.6650 H   0  0  0  0  0  0  0  0  0  0  0  0
    1.0640    1.0860    3.9470 H   0  0  0  0  0  0  0  0  0  0  0  0
    2.0970   -0.3100    4.2330 H   0  0  0  0  0  0  0  0  0  0  0  0
    4.2830   -0.6290    2.8840 H   0  0  0  0  0  0  0  0  0  0  0  0
    5.5700    0.7530    1.1230 H   0  0  0  0  0  0  0  0  0  0  0  0
    4.9480    2.9300   -0.4070 H   0  0  0  0  0  0  0  0  0  0  0  0
    3.1840    4.6160   -0.9860 H   0  0  0  0  0  0  0  0  0  0  0  0
    1.0400    4.4810    0.1290 H   0  0  0  0  0  0  0  0  0  0  0  0
    0.6110    2.7180    1.8020 H   0  0  0  0  0  0  0  0  0  0  0  0
   -0.7290   -0.5480    0.6150 N   0  0  0  0  0  0  0  0  0  0  0  0
   -1.7740    0.0780   -0.1710 C   0  0  1  0  0  0  0  0  0  0  0  0
   -1.2330    0.5030   -1.5040 C   0  0  0  0  0  0  0  0  0  0  0  0
   -0.0870    1.4840   -1.3940 C   0  0  0  0  0  0  0  0  0  0  0  0
    0.3260    1.8130   -2.7740 C   0  0  0  0  0  0  0  0  0  0  0  0
   -0.5130    2.2090   -3.6130 O   0  0  0  0  0  0  0  0  0  0  0  0
   -2.9040   -0.8910   -0.3820 C   0  0  0  0  0  0  0  0  0  0  0  0
   -3.9590   -0.5350   -0.9500 O   0  0  0  0  0  0  0  0  0  0  0  0
    1.6580    1.6760   -3.1370 O   0  0  0  0  0  0  0  0  0  0  0  0
   -0.1600   -1.3250    0.2460 H   0  0  0  0  0  0  0  0  0  0  0  0
   -2.1770    0.9340    0.3790 H   0  0  0  0  0  0  0  0  0  0  0  0
   -2.0630    0.9540   -2.1050 H   0  0  0  0  0  0  0  0  0  0  0  0
   -0.8850   -0.3800   -2.0950 H   0  0  0  0  0  0  0  0  0  0  0  0
   -0.3950    2.3880   -0.8220 H   0  0  0  0  0  0  0  0  0  0  0  0
    0.7480    0.9690   -0.8890 H   0  0  0  0  0  0  0  0  0  0  0  0
    2.0000    1.7330   -4.0870 H   0  0  0  0  0  0  0  0  0  0  0  0
   -2.8040   -2.2390    0.0580 N   0  0  0  0  0  0  0  0  0  0  0  0
   -3.8380   -3.2380   -0.0940 C   0  0  1  0  0  0  0  0  0  0  0  0
   -3.3200   -4.2860   -1.0640 C   0  0  0  0  0  0  0  0  0  0  0  0
   -2.0830   -4.8610   -0.4980 C   0  0  0  0  0  0  0  0  0  0  0  0
   -0.7790   -4.4490   -0.6960 C   0  0  0  0  0  0  0  0  0  0  0  0
    0.0330   -5.2640    0.0000 N   0  0  0  0  0  0  0  0  0  0  0  0
   -0.7390   -6.1630    0.6190 C   0  0  0  0  0  0  0  0  0  0  0  0
   -2.0250   -5.9200    0.3180 N   0  0  0  0  0  0  0  0  0  0  0  0
   -4.1780   -3.9000    1.1780 C   0  0  0  0  0  0  0  0  0  0  0  0
   -3.6090   -3.5700    2.2300 O   0  0  0  0  0  0  0  0  0  0  0  0
   -5.1360   -4.8910    1.1940 O   0  0  0  0  0  0  0  0  0  0  0  0
   -1.9170   -2.5190    0.5210 H   0  0  0  0  0  0  0  0  0  0  0  0
   -4.7720   -2.7690   -0.5000 H   0  0  0  0  0  0  0  0  0  0  0  0
   -3.2000   -3.8540   -2.0700 H   0  0  0  0  0  0  0  0  0  0  0  0
   -4.0670   -5.1330   -1.1480 H   0  0  0  0  0  0  0  0  0  0  0  0
   -0.4660   -3.6170   -1.3050 H   0  0  0  0  0  0  0  0  0  0  0  0
    1.0700   -5.2650    0.0940 H   0  0  0  0  0  0  0  0  0  0  0  0
   -0.4180   -6.9780    1.2720 H   0  0  0  0  0  0  0  0  0  0  0  0
  1  2  1  0  0  0  0
  1 15  1  0  0  0  0
  2  3  1  0  0  0  0
  2 17  1  1  0  0  0
  3 18  1  0  0  0  0
  3 19  1  0  0  0  0
  4  3  1  0  0  0  0
  5  4  2  0  0  0  0
  5 20  1  0  0  0  0
  6  5  1  0  0  0  0
  7  6  1  0  0  0  0
  7 12  1  0  0  0  0
  8  7  2  0  0  0  0
  9  8  1  0  0  0  0
  9 10  2  0  0  0  0
 10 11  1  0  0  0  0
 11 12  2  0  0  0  0
 11 25  1  0  0  0  0
 12  4  1  0  0  0  0
 13 14  2  0  0  0  0
 13  2  1  0  0  0  0
 16  1  1  0  0  0  0
 21  6  1  0  0  0  0
 22  8  1  0  0  0  0
 23  9  1  0  0  0  0
 24 10  1  0  0  0  0
 26 13  1  0  0  0  0
 27 36  1  1  0  0  0
 27 26  1  0  0  0  0
 28 29  1  0  0  0  0
 28 27  1  0  0  0  0
 29 40  1  0  0  0  0
 29 39  1  0  0  0  0
 30 29  1  0  0  0  0
 31 30  2  0  0  0  0
 32 27  1  0  0  0  0
 32 42  1  0  0  0  0
 33 32  2  0  0  0  0
 34 30  1  0  0  0  0
 35 26  1  0  0  0  0
 37 28  1  0  0  0  0
 38 28  1  0  0  0  0
 41 34  1  0  0  0  0
 42 53  1  0  0  0  0
 43 54  1  6  0  0  0
 43 42  1  0  0  0  0
 43 50  1  0  0  0  0
 44 45  1  0  0  0  0
 44 43  1  0  0  0  0
 45 49  1  0  0  0  0
 46 45  2  0  0  0  0
 46 47  1  0  0  0  0
 47 58  1  0  0  0  0
 47 48  1  0  0  0  0
 48 59  1  0  0  0  0
 49 48  2  0  0  0  0
 50 52  2  0  0  0  0
 50 51  1  0  0  0  0
 55 44  1  0  0  0  0
 56 44  1  0  0  0  0
 57 46  1  0  0  0  0
M  END
$$$$
