WEL.pdb
 OpenBabel07022419163D

 61 62  0  0  1  0  0  0  0  0999 V2000
    1.6660    3.1130    2.3670 N   0  0  0  0  0  0  0  0  0  0  0  0
    0.9140    2.0240    1.7220 C   0  0  1  0  0  0  0  0  0  0  0  0
    1.7640    1.4160    0.6150 C   0  0  0  0  0  0  0  0  0  0  0  0
    2.1300    2.3830   -0.4340 C   0  0  0  0  0  0  0  0  0  0  0  0
    3.3660    3.0120   -0.5280 C   0  0  0  0  0  0  0  0  0  0  0  0
    3.3640    3.8350   -1.5860 N   0  0  0  0  0  0  0  0  0  0  0  0
    2.1550    3.7830   -2.2170 C   0  0  0  0  0  0  0  0  0  0  0  0
    1.7030    4.4420   -3.3330 C   0  0  0  0  0  0  0  0  0  0  0  0
    0.4050    4.1560   -3.7260 C   0  0  0  0  0  0  0  0  0  0  0  0
   -0.3890    3.2670   -3.0450 C   0  0  0  0  0  0  0  0  0  0  0  0
    0.0950    2.6190   -1.9220 C   0  0  0  0  0  0  0  0  0  0  0  0
    1.3920    2.8730   -1.4880 C   0  0  0  0  0  0  0  0  0  0  0  0
    0.6650    0.9250    2.6900 C   0  0  0  0  0  0  0  0  0  0  0  0
    1.2820    0.9450    3.7760 O   0  0  0  0  0  0  0  0  0  0  0  0
    2.3850    2.6940    3.0180 H   0  0  0  0  0  0  0  0  0  0  0  0
    2.2100    3.5660    1.5740 H   0  0  0  0  0  0  0  0  0  0  0  0
   -0.0120    2.4650    1.3270 H   0  0  0  0  0  0  0  0  0  0  0  0
    1.2320    0.5840    0.1580 H   0  0  0  0  0  0  0  0  0  0  0  0
    2.6630    0.9840    1.1190 H   0  0  0  0  0  0  0  0  0  0  0  0
    4.2180    2.8780    0.1340 H   0  0  0  0  0  0  0  0  0  0  0  0
    4.1600    4.4240   -1.8810 H   0  0  0  0  0  0  0  0  0  0  0  0
    2.3460    5.1430   -3.8590 H   0  0  0  0  0  0  0  0  0  0  0  0
    0.0500    4.6810   -4.6140 H   0  0  0  0  0  0  0  0  0  0  0  0
   -1.4040    3.0820   -3.4060 H   0  0  0  0  0  0  0  0  0  0  0  0
   -0.5090    1.9180   -1.3700 H   0  0  0  0  0  0  0  0  0  0  0  0
   -0.2530   -0.1440    2.4170 N   0  0  0  0  0  0  0  0  0  0  0  0
   -0.4740   -1.2130    3.3690 C   0  0  1  0  0  0  0  0  0  0  0  0
   -1.7410   -0.9910    4.1700 C   0  0  0  0  0  0  0  0  0  0  0  0
   -2.9890   -0.9100    3.3690 C   0  0  0  0  0  0  0  0  0  0  0  0
   -3.0260    0.1950    2.3920 C   0  0  0  0  0  0  0  0  0  0  0  0
   -3.4490   -0.0310    1.2350 O   0  0  0  0  0  0  0  0  0  0  0  0
   -0.4690   -2.5400    2.7150 C   0  0  0  0  0  0  0  0  0  0  0  0
   -0.5780   -3.5720    3.4220 O   0  0  0  0  0  0  0  0  0  0  0  0
   -2.6090    1.4710    2.7140 O   0  0  0  0  0  0  0  0  0  0  0  0
   -0.7240   -0.0700    1.4890 H   0  0  0  0  0  0  0  0  0  0  0  0
    0.3610   -1.1270    4.1270 H   0  0  0  0  0  0  0  0  0  0  0  0
   -1.8290   -1.6980    5.0150 H   0  0  0  0  0  0  0  0  0  0  0  0
   -1.5930    0.0160    4.6570 H   0  0  0  0  0  0  0  0  0  0  0  0
   -3.8540   -0.7350    4.0670 H   0  0  0  0  0  0  0  0  0  0  0  0
   -3.2420   -1.8490    2.8390 H   0  0  0  0  0  0  0  0  0  0  0  0
   -2.5500    2.2300    2.0390 H   0  0  0  0  0  0  0  0  0  0  0  0
   -1.1790   -5.7550   -1.9530 C   0  0  0  0  0  0  0  0  0  0  0  0
   -1.9810   -5.4650   -0.7170 C   0  0  0  0  0  0  0  0  0  0  0  0
   -1.9950   -6.7500    0.0880 C   0  0  0  0  0  0  0  0  0  0  0  0
   -1.6540   -4.2660    0.0290 C   0  0  0  0  0  0  0  0  0  0  0  0
   -0.3430   -4.0470    0.6720 C   0  0  2  0  0  0  0  0  0  0  0  0
   -0.3480   -2.7230    1.3250 N   0  0  0  0  0  0  0  0  0  0  0  0
    0.8770   -4.2450   -0.0860 C   0  0  0  0  0  0  0  0  0  0  0  0
    1.2870   -5.3060   -0.5940 O   0  0  0  0  0  0  0  0  0  0  0  0
    1.7200   -3.1220   -0.2880 O   0  0  0  0  0  0  0  0  0  0  0  0
   -0.6010   -4.9080   -2.3460 H   0  0  0  0  0  0  0  0  0  0  0  0
   -0.5770   -6.6830   -1.8810 H   0  0  0  0  0  0  0  0  0  0  0  0
   -1.8810   -5.9980   -2.8290 H   0  0  0  0  0  0  0  0  0  0  0  0
   -3.0620   -5.3660   -1.0710 H   0  0  0  0  0  0  0  0  0  0  0  0
   -1.0300   -7.0750    0.4560 H   0  0  0  0  0  0  0  0  0  0  0  0
   -2.4380   -7.5680   -0.5430 H   0  0  0  0  0  0  0  0  0  0  0  0
   -2.6760   -6.6400    0.9560 H   0  0  0  0  0  0  0  0  0  0  0  0
   -2.4260   -4.1310    0.8760 H   0  0  0  0  0  0  0  0  0  0  0  0
   -1.9540   -3.3780   -0.6330 H   0  0  0  0  0  0  0  0  0  0  0  0
   -0.3180   -4.7680    1.5550 H   0  0  0  0  0  0  0  0  0  0  0  0
   -0.2590   -1.8800    0.7320 H   0  0  0  0  0  0  0  0  0  0  0  0
  1 15  1  0  0  0  0
  2 17  1  6  0  0  0
  2  1  1  0  0  0  0
  2 13  1  0  0  0  0
  3 19  1  0  0  0  0
  3  2  1  0  0  0  0
  4  3  1  0  0  0  0
  5  4  2  0  0  0  0
  5 20  1  0  0  0  0
  6  5  1  0  0  0  0
  7  6  1  0  0  0  0
  7 12  1  0  0  0  0
  8  7  2  0  0  0  0
  9  8  1  0  0  0  0
  9 10  2  0  0  0  0
 10 11  1  0  0  0  0
 11 12  2  0  0  0  0
 11 25  1  0  0  0  0
 12  4  1  0  0  0  0
 13 14  2  0  0  0  0
 16  1  1  0  0  0  0
 18  3  1  0  0  0  0
 21  6  1  0  0  0  0
 22  8  1  0  0  0  0
 23  9  1  0  0  0  0
 24 10  1  0  0  0  0
 26 13  1  0  0  0  0
 26 27  1  0  0  0  0
 27 36  1  1  0  0  0
 27 28  1  0  0  0  0
 28 38  1  0  0  0  0
 28 37  1  0  0  0  0
 29 39  1  0  0  0  0
 29 28  1  0  0  0  0
 30 34  1  0  0  0  0
 30 29  1  0  0  0  0
 31 30  2  0  0  0  0
 32 27  1  0  0  0  0
 32 33  2  0  0  0  0
 35 26  1  0  0  0  0
 40 29  1  0  0  0  0
 41 34  1  0  0  0  0
 42 52  1  0  0  0  0
 42 43  1  0  0  0  0
 43 45  1  0  0  0  0
 43 44  1  0  0  0  0
 44 55  1  0  0  0  0
 44 57  1  0  0  0  0
 45 46  1  0  0  0  0
 45 58  1  0  0  0  0
 46 47  1  0  0  0  0
 46 60  1  1  0  0  0
 47 32  1  0  0  0  0
 48 46  1  0  0  0  0
 49 48  2  0  0  0  0
 50 48  1  0  0  0  0
 51 42  1  0  0  0  0
 53 42  1  0  0  0  0
 54 43  1  0  0  0  0
 56 44  1  0  0  0  0
 59 45  1  0  0  0  0
 61 47  1  0  0  0  0
M  END
$$$$
