WEN.pdb
 OpenBabel07022419163D

 56 57  0  0  1  0  0  0  0  0999 V2000
    0.1960    1.9390    3.2230 N   0  0  0  0  0  0  0  0  0  0  0  0
    0.3800    1.4040    1.8890 C   0  0  1  0  0  0  0  0  0  0  0  0
    1.5910    0.4740    1.9180 C   0  0  0  0  0  0  0  0  0  0  0  0
    2.8220    1.1500    2.3250 C   0  0  0  0  0  0  0  0  0  0  0  0
    3.4200    1.0410    3.5710 C   0  0  0  0  0  0  0  0  0  0  0  0
    4.5260    1.7970    3.5720 N   0  0  0  0  0  0  0  0  0  0  0  0
    4.6980    2.4090    2.3810 C   0  0  0  0  0  0  0  0  0  0  0  0
    5.6770    3.2660    1.9280 C   0  0  0  0  0  0  0  0  0  0  0  0
    5.6010    3.7480    0.6400 C   0  0  0  0  0  0  0  0  0  0  0  0
    4.5250    3.3450   -0.1590 C   0  0  0  0  0  0  0  0  0  0  0  0
    3.5570    2.4870    0.3140 C   0  0  0  0  0  0  0  0  0  0  0  0
    3.6240    1.9990    1.6010 C   0  0  0  0  0  0  0  0  0  0  0  0
   -0.7970    0.5600    1.4990 C   0  0  0  0  0  0  0  0  0  0  0  0
   -1.7130    0.4530    2.3580 O   0  0  0  0  0  0  0  0  0  0  0  0
    0.3670    2.9860    3.2440 H   0  0  0  0  0  0  0  0  0  0  0  0
   -0.7820    1.8180    3.5720 H   0  0  0  0  0  0  0  0  0  0  0  0
    0.5510    2.2130    1.1460 H   0  0  0  0  0  0  0  0  0  0  0  0
    1.6640    0.0730    0.8640 H   0  0  0  0  0  0  0  0  0  0  0  0
    1.3470   -0.4090    2.5420 H   0  0  0  0  0  0  0  0  0  0  0  0
    3.0730    0.4510    4.4230 H   0  0  0  0  0  0  0  0  0  0  0  0
    5.1830    1.9040    4.3900 H   0  0  0  0  0  0  0  0  0  0  0  0
    6.5020    3.5740    2.5470 H   0  0  0  0  0  0  0  0  0  0  0  0
    6.3650    4.4250    0.2680 H   0  0  0  0  0  0  0  0  0  0  0  0
    4.5010    3.7460   -1.1670 H   0  0  0  0  0  0  0  0  0  0  0  0
    2.7390    2.1900   -0.3180 H   0  0  0  0  0  0  0  0  0  0  0  0
   -0.8670   -0.0800    0.2320 N   0  0  0  0  0  0  0  0  0  0  0  0
   -2.0040   -0.8740   -0.0990 C   0  0  1  0  0  0  0  0  0  0  0  0
   -2.7770   -0.3760   -1.2850 C   0  0  0  0  0  0  0  0  0  0  0  0
   -1.9630   -0.3130   -2.5520 C   0  0  0  0  0  0  0  0  0  0  0  0
   -2.7860    0.1710   -3.6940 C   0  0  0  0  0  0  0  0  0  0  0  0
   -4.0270    0.4490   -3.5520 O   0  0  0  0  0  0  0  0  0  0  0  0
   -1.6210   -2.2860   -0.1890 C   0  0  0  0  0  0  0  0  0  0  0  0
   -0.4280   -2.6040    0.0360 O   0  0  0  0  0  0  0  0  0  0  0  0
   -2.2680    0.3480   -4.9640 O   0  0  0  0  0  0  0  0  0  0  0  0
   -0.0470    0.0780   -0.4060 H   0  0  0  0  0  0  0  0  0  0  0  0
   -2.7250   -0.8170    0.7620 H   0  0  0  0  0  0  0  0  0  0  0  0
   -3.1040    0.6580   -1.0480 H   0  0  0  0  0  0  0  0  0  0  0  0
   -3.6800   -0.9960   -1.3880 H   0  0  0  0  0  0  0  0  0  0  0  0
   -1.6840   -1.3690   -2.8160 H   0  0  0  0  0  0  0  0  0  0  0  0
   -1.0940    0.3500   -2.4560 H   0  0  0  0  0  0  0  0  0  0  0  0
   -2.7390    0.8440   -5.7100 H   0  0  0  0  0  0  0  0  0  0  0  0
   -2.5520   -6.2100    2.5810 N   0  0  0  0  0  0  0  0  0  0  0  0
   -2.9580   -5.2330    1.6490 C   0  0  0  0  0  0  0  0  0  0  0  0
   -3.2510   -4.0340    1.9410 O   0  0  0  0  0  0  0  0  0  0  0  0
   -3.0550   -5.6130    0.2100 C   0  0  0  0  0  0  0  0  0  0  0  0
   -2.2270   -4.6900   -0.6150 C   0  0  2  0  0  0  0  0  0  0  0  0
   -2.5850   -3.3060   -0.5270 N   0  0  0  0  0  0  0  0  0  0  0  0
   -2.3390   -5.1260   -2.0530 C   0  0  0  0  0  0  0  0  0  0  0  0
   -2.6820   -4.3370   -2.9620 O   0  0  0  0  0  0  0  0  0  0  0  0
   -2.0490   -6.4360   -2.3490 O   0  0  0  0  0  0  0  0  0  0  0  0
   -2.8410   -7.1850    2.4550 H   0  0  0  0  0  0  0  0  0  0  0  0
   -1.9480   -5.8990    3.3950 H   0  0  0  0  0  0  0  0  0  0  0  0
   -4.1000   -5.5750   -0.1730 H   0  0  0  0  0  0  0  0  0  0  0  0
   -2.7070   -6.6450    0.0350 H   0  0  0  0  0  0  0  0  0  0  0  0
   -1.1460   -4.7790   -0.3770 H   0  0  0  0  0  0  0  0  0  0  0  0
   -3.5470   -2.9270   -0.6930 H   0  0  0  0  0  0  0  0  0  0  0  0
  1 15  1  0  0  0  0
  1 16  1  0  0  0  0
  2 17  1  6  0  0  0
  2  3  1  0  0  0  0
  2  1  1  0  0  0  0
  3  4  1  0  0  0  0
  3 19  1  0  0  0  0
  4  5  2  0  0  0  0
  5  6  1  0  0  0  0
  5 20  1  0  0  0  0
  6 21  1  0  0  0  0
  7  6  1  0  0  0  0
  8  7  1  0  0  0  0
  8 22  1  0  0  0  0
  9  8  2  0  0  0  0
 10 11  2  0  0  0  0
 10  9  1  0  0  0  0
 11 12  1  0  0  0  0
 12  4  1  0  0  0  0
 12  7  2  0  0  0  0
 13  2  1  0  0  0  0
 13 14  2  0  0  0  0
 18  3  1  0  0  0  0
 23  9  1  0  0  0  0
 24 10  1  0  0  0  0
 25 11  1  0  0  0  0
 26 13  1  0  0  0  0
 27 26  1  0  0  0  0
 27 36  1  1  0  0  0
 28 37  1  0  0  0  0
 28 27  1  0  0  0  0
 29 40  1  0  0  0  0
 29 28  1  0  0  0  0
 30 31  2  0  0  0  0
 30 29  1  0  0  0  0
 32 27  1  0  0  0  0
 32 33  2  0  0  0  0
 34 30  1  0  0  0  0
 35 26  1  0  0  0  0
 38 28  1  0  0  0  0
 39 29  1  0  0  0  0
 41 34  1  0  0  0  0
 42 52  1  0  0  0  0
 43 44  2  0  0  0  0
 43 42  1  0  0  0  0
 45 43  1  0  0  0  0
 46 47  1  0  0  0  0
 46 55  1  1  0  0  0
 46 45  1  0  0  0  0
 47 32  1  0  0  0  0
 48 46  1  0  0  0  0
 49 48  2  0  0  0  0
 50 48  1  0  0  0  0
 51 42  1  0  0  0  0
 53 45  1  0  0  0  0
 54 45  1  0  0  0  0
 56 47  1  0  0  0  0
M  END
$$$$
