WER.pdb
 OpenBabel07022419163D

 65 66  0  0  1  0  0  0  0  0999 V2000
    1.3090    1.6610    3.2650 N   0  0  0  0  0  0  0  0  0  0  0  0
    0.8860    1.4390    1.8970 C   0  0  1  0  0  0  0  0  0  0  0  0
    1.6660    0.2110    1.4090 C   0  0  0  0  0  0  0  0  0  0  0  0
    3.1270    0.4440    1.4680 C   0  0  0  0  0  0  0  0  0  0  0  0
    4.0030   -0.0510    2.4090 C   0  0  0  0  0  0  0  0  0  0  0  0
    5.2500    0.3870    2.1210 N   0  0  0  0  0  0  0  0  0  0  0  0
    5.2010    1.1630    1.0020 C   0  0  0  0  0  0  0  0  0  0  0  0
    6.1690    1.8420    0.2960 C   0  0  0  0  0  0  0  0  0  0  0  0
    5.8820    2.5800   -0.8330 C   0  0  0  0  0  0  0  0  0  0  0  0
    4.5660    2.6190   -1.2420 C   0  0  0  0  0  0  0  0  0  0  0  0
    3.5910    1.9420   -0.5410 C   0  0  0  0  0  0  0  0  0  0  0  0
    3.8830    1.1960    0.6000 C   0  0  0  0  0  0  0  0  0  0  0  0
   -0.5390    1.0430    1.9110 C   0  0  0  0  0  0  0  0  0  0  0  0
   -1.1230    0.9250    3.0110 O   0  0  0  0  0  0  0  0  0  0  0  0
    1.2640    0.7540    3.7690 H   0  0  0  0  0  0  0  0  0  0  0  0
    2.1830    2.1860    3.3620 H   0  0  0  0  0  0  0  0  0  0  0  0
    1.0860    2.3070    1.2560 H   0  0  0  0  0  0  0  0  0  0  0  0
    1.4350   -0.6700    2.0410 H   0  0  0  0  0  0  0  0  0  0  0  0
    1.3310   -0.0770    0.3730 H   0  0  0  0  0  0  0  0  0  0  0  0
    3.7770   -0.6990    3.2700 H   0  0  0  0  0  0  0  0  0  0  0  0
    6.1390    0.1960    2.6320 H   0  0  0  0  0  0  0  0  0  0  0  0
    7.2040    1.7910    0.6470 H   0  0  0  0  0  0  0  0  0  0  0  0
    6.6560    3.1160   -1.3870 H   0  0  0  0  0  0  0  0  0  0  0  0
    4.2890    3.1890   -2.1290 H   0  0  0  0  0  0  0  0  0  0  0  0
    2.5390    1.9700   -0.8630 H   0  0  0  0  0  0  0  0  0  0  0  0
   -1.2700    0.7900    0.7050 N   0  0  0  0  0  0  0  0  0  0  0  0
   -2.6910    0.3960    0.8310 C   0  0  1  0  0  0  0  0  0  0  0  0
   -3.5200    1.3550    0.0220 C   0  0  0  0  0  0  0  0  0  0  0  0
   -4.9960    1.0710    0.0760 C   0  0  0  0  0  0  0  0  0  0  0  0
   -5.7690    2.0580   -0.7200 C   0  0  0  0  0  0  0  0  0  0  0  0
   -7.0090    1.9640   -0.7770 O   0  0  0  0  0  0  0  0  0  0  0  0
   -2.8170   -0.9710    0.2650 C   0  0  0  0  0  0  0  0  0  0  0  0
   -3.9080   -1.5960    0.2860 O   0  0  0  0  0  0  0  0  0  0  0  0
   -5.1230    3.0680   -1.3910 O   0  0  0  0  0  0  0  0  0  0  0  0
   -0.8220    0.8830   -0.2170 H   0  0  0  0  0  0  0  0  0  0  0  0
   -2.9910    0.3730    1.8780 H   0  0  0  0  0  0  0  0  0  0  0  0
   -3.4000    2.3930    0.4530 H   0  0  0  0  0  0  0  0  0  0  0  0
   -3.1860    1.3730   -1.0380 H   0  0  0  0  0  0  0  0  0  0  0  0
   -5.2870    1.0720    1.1540 H   0  0  0  0  0  0  0  0  0  0  0  0
   -5.2740    0.0780   -0.3350 H   0  0  0  0  0  0  0  0  0  0  0  0
   -5.6120    3.9040   -1.7270 H   0  0  0  0  0  0  0  0  0  0  0  0
    1.8510   -3.1100    0.0930 N   0  0  0  0  0  0  0  0  0  0  0  0
    1.0540   -4.2120    0.4590 C   0  0  0  0  0  0  0  0  0  0  0  0
    1.0120   -5.2570   -0.3240 N   0  0  0  0  0  0  0  0  0  0  0  0
    0.3030   -4.2180    1.6440 N   0  0  0  0  0  0  0  0  0  0  0  0
   -0.9760   -4.7850    1.7790 C   0  0  0  0  0  0  0  0  0  0  0  0
   -2.1980   -4.2060    1.2430 C   0  0  0  0  0  0  0  0  0  0  0  0
   -2.5200   -3.9410   -0.1450 C   0  0  0  0  0  0  0  0  0  0  0  0
   -1.7260   -2.9530   -0.8980 C   0  0  2  0  0  0  0  0  0  0  0  0
   -1.7230   -1.6270   -0.3200 N   0  0  0  0  0  0  0  0  0  0  0  0
   -2.4290   -2.7800   -2.2520 C   0  0  0  0  0  0  0  0  0  0  0  0
   -2.5910   -3.7630   -3.0160 O   0  0  0  0  0  0  0  0  0  0  0  0
   -2.8730   -1.5330   -2.6040 O   0  0  0  0  0  0  0  0  0  0  0  0
    1.7680   -2.6550   -0.8570 H   0  0  0  0  0  0  0  0  0  0  0  0
    2.5610   -2.6870    0.7360 H   0  0  0  0  0  0  0  0  0  0  0  0
    1.5510   -5.2740   -1.1900 H   0  0  0  0  0  0  0  0  0  0  0  0
    0.7980   -3.7360    2.4730 H   0  0  0  0  0  0  0  0  0  0  0  0
   -1.1030   -4.9670    2.9230 H   0  0  0  0  0  0  0  0  0  0  0  0
   -0.9320   -5.9160    1.4650 H   0  0  0  0  0  0  0  0  0  0  0  0
   -3.0820   -4.8220    1.7100 H   0  0  0  0  0  0  0  0  0  0  0  0
   -2.3270   -3.2070    1.8240 H   0  0  0  0  0  0  0  0  0  0  0  0
   -3.6390   -3.8150   -0.3260 H   0  0  0  0  0  0  0  0  0  0  0  0
   -2.3620   -4.9450   -0.7020 H   0  0  0  0  0  0  0  0  0  0  0  0
   -0.7380   -3.3060   -1.1940 H   0  0  0  0  0  0  0  0  0  0  0  0
   -0.8070   -1.1270   -0.3490 H   0  0  0  0  0  0  0  0  0  0  0  0
  1 16  1  0  0  0  0
  1 15  1  0  0  0  0
  2 17  1  6  0  0  0
  2 13  1  0  0  0  0
  2  1  1  0  0  0  0
  3  4  1  0  0  0  0
  3  2  1  0  0  0  0
  3 18  1  0  0  0  0
  4  5  2  0  0  0  0
  5 20  1  0  0  0  0
  6  5  1  0  0  0  0
  6 21  1  0  0  0  0
  7  6  1  0  0  0  0
  8 22  1  0  0  0  0
  8  7  2  0  0  0  0
  9  8  1  0  0  0  0
 10  9  2  0  0  0  0
 10 11  1  0  0  0  0
 11 12  2  0  0  0  0
 12  7  1  0  0  0  0
 12  4  1  0  0  0  0
 13 14  2  0  0  0  0
 19  3  1  0  0  0  0
 23  9  1  0  0  0  0
 24 10  1  0  0  0  0
 25 11  1  0  0  0  0
 26 27  1  0  0  0  0
 26 13  1  0  0  0  0
 27 36  1  1  0  0  0
 28 29  1  0  0  0  0
 28 37  1  0  0  0  0
 28 27  1  0  0  0  0
 29 39  1  0  0  0  0
 30 29  1  0  0  0  0
 31 30  2  0  0  0  0
 32 33  2  0  0  0  0
 32 27  1  0  0  0  0
 34 30  1  0  0  0  0
 35 26  1  0  0  0  0
 38 28  1  0  0  0  0
 40 29  1  0  0  0  0
 41 34  1  0  0  0  0
 42 43  1  0  0  0  0
 42 55  1  0  0  0  0
 43 45  1  0  0  0  0
 44 43  2  0  0  0  0
 45 46  1  0  0  0  0
 45 57  1  0  0  0  0
 46 58  1  0  0  0  0
 47 60  1  0  0  0  0
 47 46  1  0  0  0  0
 47 61  1  0  0  0  0
 48 47  1  0  0  0  0
 49 64  1  6  0  0  0
 49 50  1  0  0  0  0
 49 48  1  0  0  0  0
 50 32  1  0  0  0  0
 51 49  1  0  0  0  0
 52 51  2  0  0  0  0
 53 51  1  0  0  0  0
 54 42  1  0  0  0  0
 56 44  1  0  0  0  0
 59 46  1  0  0  0  0
 62 48  1  0  0  0  0
 63 48  1  0  0  0  0
 65 50  1  0  0  0  0
M  END
$$$$
