WEV.pdb
 OpenBabel07022419163D

 58 59  0  0  1  0  0  0  0  0999 V2000
    0.8310    2.2960    2.8890 N   0  0  0  0  0  0  0  0  0  0  0  0
    0.4640    1.4550    1.7610 C   0  0  1  0  0  0  0  0  0  0  0  0
    1.5760    0.4940    1.4510 C   0  0  0  0  0  0  0  0  0  0  0  0
    2.7670    1.3210    1.1180 C   0  0  0  0  0  0  0  0  0  0  0  0
    3.8060    1.5400    2.0020 C   0  0  0  0  0  0  0  0  0  0  0  0
    4.7190    2.3350    1.3980 N   0  0  0  0  0  0  0  0  0  0  0  0
    4.2830    2.6210    0.1570 C   0  0  0  0  0  0  0  0  0  0  0  0
    4.8250    3.3850   -0.8820 C   0  0  0  0  0  0  0  0  0  0  0  0
    4.1660    3.5180   -2.0790 C   0  0  0  0  0  0  0  0  0  0  0  0
    2.9510    2.8750   -2.2280 C   0  0  0  0  0  0  0  0  0  0  0  0
    2.3810    2.1140   -1.2320 C   0  0  0  0  0  0  0  0  0  0  0  0
    3.0650    1.9940   -0.0320 C   0  0  0  0  0  0  0  0  0  0  0  0
   -0.8410    0.8410    1.9640 C   0  0  0  0  0  0  0  0  0  0  0  0
   -1.4100    1.0660    3.0920 O   0  0  0  0  0  0  0  0  0  0  0  0
    1.3580    3.1520    2.6140 H   0  0  0  0  0  0  0  0  0  0  0  0
   -0.0220    2.6130    3.3970 H   0  0  0  0  0  0  0  0  0  0  0  0
    0.3790    2.1460    0.8810 H   0  0  0  0  0  0  0  0  0  0  0  0
    1.8550   -0.1950    2.2370 H   0  0  0  0  0  0  0  0  0  0  0  0
    1.3210   -0.0830    0.5170 H   0  0  0  0  0  0  0  0  0  0  0  0
    3.9010    1.1510    3.0220 H   0  0  0  0  0  0  0  0  0  0  0  0
    5.5970    2.6470    1.8550 H   0  0  0  0  0  0  0  0  0  0  0  0
    5.7860    3.8870   -0.7500 H   0  0  0  0  0  0  0  0  0  0  0  0
    4.5310    4.0930   -2.9200 H   0  0  0  0  0  0  0  0  0  0  0  0
    2.4080    2.9660   -3.1680 H   0  0  0  0  0  0  0  0  0  0  0  0
    1.4480    1.6080   -1.3150 H   0  0  0  0  0  0  0  0  0  0  0  0
   -1.5550    0.0370    1.0830 N   0  0  0  0  0  0  0  0  0  0  0  0
   -2.8390   -0.5700    1.2740 C   0  0  1  0  0  0  0  0  0  0  0  0
   -3.9370   -0.0470    0.4550 C   0  0  0  0  0  0  0  0  0  0  0  0
   -3.8120   -0.1110   -1.0230 C   0  0  0  0  0  0  0  0  0  0  0  0
   -3.6750   -1.4670   -1.5940 C   0  0  0  0  0  0  0  0  0  0  0  0
   -2.5590   -2.0540   -1.6550 O   0  0  0  0  0  0  0  0  0  0  0  0
   -2.6850   -2.0360    1.3210 C   0  0  0  0  0  0  0  0  0  0  0  0
   -3.6320   -2.8450    1.4910 O   0  0  0  0  0  0  0  0  0  0  0  0
   -4.7580   -2.1810   -2.0990 O   0  0  0  0  0  0  0  0  0  0  0  0
   -1.0970   -0.1580    0.1420 H   0  0  0  0  0  0  0  0  0  0  0  0
   -3.1080   -0.2730    2.3510 H   0  0  0  0  0  0  0  0  0  0  0  0
   -4.2320    0.9550    0.8330 H   0  0  0  0  0  0  0  0  0  0  0  0
   -4.8510   -0.6740    0.7070 H   0  0  0  0  0  0  0  0  0  0  0  0
   -2.9430    0.4630   -1.4220 H   0  0  0  0  0  0  0  0  0  0  0  0
   -4.7510    0.3150   -1.4870 H   0  0  0  0  0  0  0  0  0  0  0  0
   -4.8020   -3.1710   -1.9670 H   0  0  0  0  0  0  0  0  0  0  0  0
   -0.6470   -6.1360   -0.0120 C   0  0  0  0  0  0  0  0  0  0  0  0
   -0.8330   -4.6390   -0.1570 C   0  0  0  0  0  0  0  0  0  0  0  0
    0.3710   -3.9650   -0.7190 C   0  0  0  0  0  0  0  0  0  0  0  0
   -1.1950   -4.0770    1.2220 C   0  0  2  0  0  0  0  0  0  0  0  0
   -1.3840   -2.6420    1.1700 N   0  0  0  0  0  0  0  0  0  0  0  0
   -0.1790   -4.4740    2.2080 C   0  0  0  0  0  0  0  0  0  0  0  0
    0.1380   -5.6730    2.4190 O   0  0  0  0  0  0  0  0  0  0  0  0
    0.5180   -3.5340    2.9940 O   0  0  0  0  0  0  0  0  0  0  0  0
    0.4020   -6.4230    0.1730 H   0  0  0  0  0  0  0  0  0  0  0  0
   -1.2850   -6.5160    0.7890 H   0  0  0  0  0  0  0  0  0  0  0  0
   -1.0030   -6.6470   -0.9500 H   0  0  0  0  0  0  0  0  0  0  0  0
   -1.7460   -4.5000   -0.7840 H   0  0  0  0  0  0  0  0  0  0  0  0
    1.1860   -4.7070   -0.8550 H   0  0  0  0  0  0  0  0  0  0  0  0
    0.7480   -3.1860   -0.0520 H   0  0  0  0  0  0  0  0  0  0  0  0
    0.0870   -3.5120   -1.6960 H   0  0  0  0  0  0  0  0  0  0  0  0
   -2.1580   -4.5950    1.5110 H   0  0  0  0  0  0  0  0  0  0  0  0
   -0.5520   -2.0460    1.0180 H   0  0  0  0  0  0  0  0  0  0  0  0
  1 16  1  0  0  0  0
  2 17  1  6  0  0  0
  2 13  1  0  0  0  0
  2  1  1  0  0  0  0
  3  2  1  0  0  0  0
  3 18  1  0  0  0  0
  4  3  1  0  0  0  0
  4  5  2  0  0  0  0
  5 20  1  0  0  0  0
  6 21  1  0  0  0  0
  6  5  1  0  0  0  0
  7  6  1  0  0  0  0
  8 22  1  0  0  0  0
  8  7  2  0  0  0  0
  9  8  1  0  0  0  0
 10  9  2  0  0  0  0
 10 11  1  0  0  0  0
 11 12  2  0  0  0  0
 12  7  1  0  0  0  0
 12  4  1  0  0  0  0
 13 14  2  0  0  0  0
 15  1  1  0  0  0  0
 19  3  1  0  0  0  0
 23  9  1  0  0  0  0
 24 10  1  0  0  0  0
 25 11  1  0  0  0  0
 26 27  1  0  0  0  0
 26 13  1  0  0  0  0
 27 32  1  0  0  0  0
 27 36  1  1  0  0  0
 28 38  1  0  0  0  0
 28 37  1  0  0  0  0
 28 27  1  0  0  0  0
 29 28  1  0  0  0  0
 30 29  1  0  0  0  0
 31 30  2  0  0  0  0
 32 33  2  0  0  0  0
 34 41  1  0  0  0  0
 34 30  1  0  0  0  0
 35 26  1  0  0  0  0
 39 29  1  0  0  0  0
 40 29  1  0  0  0  0
 42 50  1  0  0  0  0
 42 51  1  0  0  0  0
 43 42  1  0  0  0  0
 43 45  1  0  0  0  0
 44 43  1  0  0  0  0
 44 55  1  0  0  0  0
 45 57  1  1  0  0  0
 45 47  1  0  0  0  0
 46 45  1  0  0  0  0
 46 32  1  0  0  0  0
 47 48  2  0  0  0  0
 47 49  1  0  0  0  0
 52 42  1  0  0  0  0
 53 43  1  0  0  0  0
 54 44  1  0  0  0  0
 56 44  1  0  0  0  0
 58 46  1  0  0  0  0
M  END
$$$$
