WEW.pdb
 OpenBabel07022419163D

 66 69  0  0  1  0  0  0  0  0999 V2000
    1.7980    0.2140    0.1340 N   0  0  0  0  0  0  0  0  0  0  0  0
    2.3920   -0.6760    1.0960 C   0  0  1  0  0  0  0  0  0  0  0  0
    3.1950    0.1560    2.0740 C   0  0  0  0  0  0  0  0  0  0  0  0
    4.2690    0.9330    1.4620 C   0  0  0  0  0  0  0  0  0  0  0  0
    4.2950    2.2830    1.2170 C   0  0  0  0  0  0  0  0  0  0  0  0
    5.4630    2.5650    0.6560 N   0  0  0  0  0  0  0  0  0  0  0  0
    6.2280    1.4700    0.5110 C   0  0  0  0  0  0  0  0  0  0  0  0
    7.4870    1.2360   -0.0010 C   0  0  0  0  0  0  0  0  0  0  0  0
    8.0230   -0.0460   -0.0150 C   0  0  0  0  0  0  0  0  0  0  0  0
    7.2780   -1.0860    0.4920 C   0  0  0  0  0  0  0  0  0  0  0  0
    6.0170   -0.8400    1.0030 C   0  0  0  0  0  0  0  0  0  0  0  0
    5.4750    0.4360    1.0200 C   0  0  0  0  0  0  0  0  0  0  0  0
    1.2660   -1.2750    1.8800 C   0  0  0  0  0  0  0  0  0  0  0  0
    1.5760   -2.0380    2.8260 O   0  0  0  0  0  0  0  0  0  0  0  0
    1.4280   -0.2260   -0.7110 H   0  0  0  0  0  0  0  0  0  0  0  0
    2.3450    1.0890   -0.0090 H   0  0  0  0  0  0  0  0  0  0  0  0
    3.0120   -1.4620    0.6240 H   0  0  0  0  0  0  0  0  0  0  0  0
    2.5240    0.8090    2.6560 H   0  0  0  0  0  0  0  0  0  0  0  0
    3.6410   -0.5490    2.8380 H   0  0  0  0  0  0  0  0  0  0  0  0
    3.5100    3.0270    1.4300 H   0  0  0  0  0  0  0  0  0  0  0  0
    5.7740    3.5150    0.3550 H   0  0  0  0  0  0  0  0  0  0  0  0
    8.0890    2.0370   -0.4040 H   0  0  0  0  0  0  0  0  0  0  0  0
    9.0090   -0.1830   -0.4240 H   0  0  0  0  0  0  0  0  0  0  0  0
    7.7010   -2.0790    0.4770 H   0  0  0  0  0  0  0  0  0  0  0  0
    5.4420   -1.6430    1.3930 H   0  0  0  0  0  0  0  0  0  0  0  0
   -0.0990   -1.0160    1.5990 N   0  0  0  0  0  0  0  0  0  0  0  0
   -1.1010   -1.6380    2.4140 C   0  0  1  0  0  0  0  0  0  0  0  0
   -2.0020   -0.6540    3.1170 C   0  0  0  0  0  0  0  0  0  0  0  0
   -2.7480    0.2310    2.1530 C   0  0  0  0  0  0  0  0  0  0  0  0
   -3.6050    1.1660    2.9400 C   0  0  0  0  0  0  0  0  0  0  0  0
   -3.6460    1.1540    4.2020 O   0  0  0  0  0  0  0  0  0  0  0  0
   -1.8620   -2.6160    1.6070 C   0  0  0  0  0  0  0  0  0  0  0  0
   -2.8220   -3.2620    2.1520 O   0  0  0  0  0  0  0  0  0  0  0  0
   -4.4150    2.1130    2.3090 O   0  0  0  0  0  0  0  0  0  0  0  0
   -0.3290   -0.3740    0.7980 H   0  0  0  0  0  0  0  0  0  0  0  0
   -0.5680   -2.2050    3.2350 H   0  0  0  0  0  0  0  0  0  0  0  0
   -1.3780   -0.0050    3.7620 H   0  0  0  0  0  0  0  0  0  0  0  0
   -2.6780   -1.2290    3.7780 H   0  0  0  0  0  0  0  0  0  0  0  0
   -3.3220   -0.3250    1.4050 H   0  0  0  0  0  0  0  0  0  0  0  0
   -2.0220    0.8740    1.6140 H   0  0  0  0  0  0  0  0  0  0  0  0
   -4.9580    2.7910    2.8270 H   0  0  0  0  0  0  0  0  0  0  0  0
   -1.5090   -2.8160    0.2500 N   0  0  0  0  0  0  0  0  0  0  0  0
   -2.1980   -3.7480   -0.5800 C   0  0  1  0  0  0  0  0  0  0  0  0
   -2.8420   -3.2310   -1.8080 C   0  0  0  0  0  0  0  0  0  0  0  0
   -3.8770   -2.2120   -1.6470 C   0  0  0  0  0  0  0  0  0  0  0  0
   -5.2570   -2.4470   -1.6440 C   0  0  0  0  0  0  0  0  0  0  0  0
   -5.8410   -1.2630   -1.4480 N   0  0  0  0  0  0  0  0  0  0  0  0
   -4.9340   -0.2770   -1.3240 C   0  0  0  0  0  0  0  0  0  0  0  0
   -5.0570    1.0810   -1.1230 C   0  0  0  0  0  0  0  0  0  0  0  0
   -3.9220    1.8480   -1.0470 C   0  0  0  0  0  0  0  0  0  0  0  0
   -2.6600    1.3040   -1.1660 C   0  0  0  0  0  0  0  0  0  0  0  0
   -2.5470   -0.0540   -1.3670 C   0  0  0  0  0  0  0  0  0  0  0  0
   -3.6920   -0.8570   -1.4480 C   0  0  0  0  0  0  0  0  0  0  0  0
   -1.2740   -4.8730   -0.9850 C   0  0  0  0  0  0  0  0  0  0  0  0
   -0.0780   -4.8940   -0.5980 O   0  0  0  0  0  0  0  0  0  0  0  0
   -1.7240   -5.8960   -1.7850 O   0  0  0  0  0  0  0  0  0  0  0  0
   -0.7200   -2.2700   -0.1360 H   0  0  0  0  0  0  0  0  0  0  0  0
   -3.0130   -4.2860    0.0020 H   0  0  0  0  0  0  0  0  0  0  0  0
   -3.2380   -4.0440   -2.4650 H   0  0  0  0  0  0  0  0  0  0  0  0
   -2.0330   -2.7580   -2.4430 H   0  0  0  0  0  0  0  0  0  0  0  0
   -5.7210   -3.4340   -1.7810 H   0  0  0  0  0  0  0  0  0  0  0  0
   -6.8750   -1.1080   -1.3960 H   0  0  0  0  0  0  0  0  0  0  0  0
   -6.0620    1.5230   -1.0270 H   0  0  0  0  0  0  0  0  0  0  0  0
   -4.0080    2.9230   -0.8870 H   0  0  0  0  0  0  0  0  0  0  0  0
   -1.7610    1.9140   -1.1060 H   0  0  0  0  0  0  0  0  0  0  0  0
   -1.5680   -0.5320   -1.4750 H   0  0  0  0  0  0  0  0  0  0  0  0
  1  2  1  0  0  0  0
  2 17  1  6  0  0  0
  2 13  1  0  0  0  0
  2  3  1  0  0  0  0
  3 18  1  0  0  0  0
  3 19  1  0  0  0  0
  4  3  1  0  0  0  0
  5 20  1  0  0  0  0
  5  4  2  0  0  0  0
  6  5  1  0  0  0  0
  7  6  1  0  0  0  0
  7 12  1  0  0  0  0
  8  7  2  0  0  0  0
  9  8  1  0  0  0  0
  9 10  2  0  0  0  0
 10 11  1  0  0  0  0
 11 12  2  0  0  0  0
 11 25  1  0  0  0  0
 12  4  1  0  0  0  0
 13 14  2  0  0  0  0
 15  1  1  0  0  0  0
 16  1  1  0  0  0  0
 21  6  1  0  0  0  0
 22  8  1  0  0  0  0
 23  9  1  0  0  0  0
 24 10  1  0  0  0  0
 26 13  1  0  0  0  0
 26 27  1  0  0  0  0
 27 28  1  0  0  0  0
 27 36  1  1  0  0  0
 28 37  1  0  0  0  0
 28 38  1  0  0  0  0
 29 30  1  0  0  0  0
 29 28  1  0  0  0  0
 30 31  2  0  0  0  0
 32 33  2  0  0  0  0
 32 27  1  0  0  0  0
 34 41  1  0  0  0  0
 34 30  1  0  0  0  0
 35 26  1  0  0  0  0
 39 29  1  0  0  0  0
 40 29  1  0  0  0  0
 42 32  1  0  0  0  0
 43 58  1  1  0  0  0
 43 42  1  0  0  0  0
 44 45  1  0  0  0  0
 44 43  1  0  0  0  0
 45 46  2  0  0  0  0
 45 53  1  0  0  0  0
 46 47  1  0  0  0  0
 47 62  1  0  0  0  0
 47 48  1  0  0  0  0
 48 49  1  0  0  0  0
 49 50  2  0  0  0  0
 49 63  1  0  0  0  0
 50 64  1  0  0  0  0
 51 65  1  0  0  0  0
 51 50  1  0  0  0  0
 52 51  2  0  0  0  0
 53 52  1  0  0  0  0
 53 48  2  0  0  0  0
 54 55  1  0  0  0  0
 54 43  1  0  0  0  0
 56 54  2  0  0  0  0
 57 42  1  0  0  0  0
 59 44  1  0  0  0  0
 60 44  1  0  0  0  0
 61 46  1  0  0  0  0
 66 52  1  0  0  0  0
M  END
$$$$
