WEY.pdb
 OpenBabel07022419163D

 63 65  0  0  1  0  0  0  0  0999 V2000
    1.7250    0.4290    2.8230 N   0  0  0  0  0  0  0  0  0  0  0  0
    0.8250    1.5650    2.6380 C   0  0  1  0  0  0  0  0  0  0  0  0
    1.6990    2.7860    2.4910 C   0  0  0  0  0  0  0  0  0  0  0  0
    1.0050    4.0400    2.2670 C   0  0  0  0  0  0  0  0  0  0  0  0
    0.9130    4.6460    1.0090 C   0  0  0  0  0  0  0  0  0  0  0  0
    0.2190    5.7650    1.1460 N   0  0  0  0  0  0  0  0  0  0  0  0
   -0.1580    5.9400    2.4260 C   0  0  0  0  0  0  0  0  0  0  0  0
   -0.8790    6.9470    3.0080 C   0  0  0  0  0  0  0  0  0  0  0  0
   -1.1430    6.9100    4.3560 C   0  0  0  0  0  0  0  0  0  0  0  0
   -0.6500    5.8230    5.0760 C   0  0  0  0  0  0  0  0  0  0  0  0
    0.0730    4.8130    4.4960 C   0  0  0  0  0  0  0  0  0  0  0  0
    0.3330    4.8620    3.1300 C   0  0  0  0  0  0  0  0  0  0  0  0
   -0.0450    1.3330    1.5020 C   0  0  0  0  0  0  0  0  0  0  0  0
   -1.0660    2.0420    1.3350 O   0  0  0  0  0  0  0  0  0  0  0  0
    2.4300    0.4590    2.0580 H   0  0  0  0  0  0  0  0  0  0  0  0
    1.1780   -0.4650    2.8470 H   0  0  0  0  0  0  0  0  0  0  0  0
    0.2780    1.6700    3.6070 H   0  0  0  0  0  0  0  0  0  0  0  0
    2.3050    2.9010    3.4420 H   0  0  0  0  0  0  0  0  0  0  0  0
    2.4420    2.5700    1.6960 H   0  0  0  0  0  0  0  0  0  0  0  0
    1.3310    4.2830    0.0760 H   0  0  0  0  0  0  0  0  0  0  0  0
   -0.0200    6.4400    0.3820 H   0  0  0  0  0  0  0  0  0  0  0  0
   -1.2720    7.7940    2.4550 H   0  0  0  0  0  0  0  0  0  0  0  0
   -1.7160    7.6870    4.8730 H   0  0  0  0  0  0  0  0  0  0  0  0
   -0.8680    5.8150    6.1380 H   0  0  0  0  0  0  0  0  0  0  0  0
    0.4620    3.9640    5.0430 H   0  0  0  0  0  0  0  0  0  0  0  0
    0.1980    0.3260    0.5380 N   0  0  0  0  0  0  0  0  0  0  0  0
   -0.7110    0.1210   -0.6030 C   0  0  1  0  0  0  0  0  0  0  0  0
   -0.1440    0.7060   -1.8210 C   0  0  0  0  0  0  0  0  0  0  0  0
   -0.9380    0.5290   -3.0560 C   0  0  0  0  0  0  0  0  0  0  0  0
   -0.9750   -0.8480   -3.5700 C   0  0  0  0  0  0  0  0  0  0  0  0
   -1.9150   -1.2630   -4.2590 O   0  0  0  0  0  0  0  0  0  0  0  0
   -1.0880   -1.2680   -0.6660 C   0  0  0  0  0  0  0  0  0  0  0  0
   -2.1230   -1.6850   -1.3150 O   0  0  0  0  0  0  0  0  0  0  0  0
    0.0950   -1.6860   -3.2610 O   0  0  0  0  0  0  0  0  0  0  0  0
    1.0170   -0.3140    0.5590 H   0  0  0  0  0  0  0  0  0  0  0  0
   -1.6390    0.7290   -0.3460 H   0  0  0  0  0  0  0  0  0  0  0  0
    0.8820    0.2250   -1.9640 H   0  0  0  0  0  0  0  0  0  0  0  0
    0.0280    1.8260   -1.7390 H   0  0  0  0  0  0  0  0  0  0  0  0
   -1.9900    0.9340   -2.9340 H   0  0  0  0  0  0  0  0  0  0  0  0
   -0.5410    1.1700   -3.9120 H   0  0  0  0  0  0  0  0  0  0  0  0
    0.4000   -2.4130   -3.8880 H   0  0  0  0  0  0  0  0  0  0  0  0
   -0.6370   -9.9560   -1.6870 O   0  0  0  0  0  0  0  0  0  0  0  0
   -0.4110   -8.6150   -1.4960 C   0  0  0  0  0  0  0  0  0  0  0  0
    0.2650   -8.2100   -0.3710 C   0  0  0  0  0  0  0  0  0  0  0  0
    0.4860   -6.8680   -0.1920 C   0  0  0  0  0  0  0  0  0  0  0  0
    0.0610   -5.8960   -1.0910 C   0  0  0  0  0  0  0  0  0  0  0  0
    0.3160   -4.4590   -0.8790 C   0  0  0  0  0  0  0  0  0  0  0  0
   -0.7950   -3.7270   -0.1510 C   0  0  2  0  0  0  0  0  0  0  0  0
   -0.3730   -2.3340   -0.0330 N   0  0  0  0  0  0  0  0  0  0  0  0
   -1.0520   -4.3390    1.1700 C   0  0  0  0  0  0  0  0  0  0  0  0
   -0.8850   -3.7350    2.2500 O   0  0  0  0  0  0  0  0  0  0  0  0
   -0.6220   -6.3730   -2.2180 C   0  0  0  0  0  0  0  0  0  0  0  0
   -0.8630   -7.7030   -2.4320 C   0  0  0  0  0  0  0  0  0  0  0  0
   -1.5020   -5.6480    1.2260 O   0  0  0  0  0  0  0  0  0  0  0  0
   -0.6590  -10.3650   -2.5930 H   0  0  0  0  0  0  0  0  0  0  0  0
    0.6040   -8.9500    0.3440 H   0  0  0  0  0  0  0  0  0  0  0  0
    1.0250   -6.5370    0.6950 H   0  0  0  0  0  0  0  0  0  0  0  0
    0.5430   -3.9540   -1.8550 H   0  0  0  0  0  0  0  0  0  0  0  0
    1.2350   -4.3530   -0.2550 H   0  0  0  0  0  0  0  0  0  0  0  0
   -1.7180   -3.7300   -0.7580 H   0  0  0  0  0  0  0  0  0  0  0  0
    0.4770   -2.1880    0.5420 H   0  0  0  0  0  0  0  0  0  0  0  0
   -0.9430   -5.6080   -2.9040 H   0  0  0  0  0  0  0  0  0  0  0  0
   -1.3850   -8.0520   -3.2960 H   0  0  0  0  0  0  0  0  0  0  0  0
  1 16  1  0  0  0  0
  2  1  1  0  0  0  0
  2 17  1  1  0  0  0
  3  2  1  0  0  0  0
  3 18  1  0  0  0  0
  4  3  1  0  0  0  0
  4 12  1  0  0  0  0
  5  6  1  0  0  0  0
  5  4  2  0  0  0  0
  6  7  1  0  0  0  0
  7  8  2  0  0  0  0
  7 12  1  0  0  0  0
  8  9  1  0  0  0  0
  9 23  1  0  0  0  0
  9 10  2  0  0  0  0
 10 24  1  0  0  0  0
 11 25  1  0  0  0  0
 11 10  1  0  0  0  0
 12 11  2  0  0  0  0
 13  2  1  0  0  0  0
 14 13  2  0  0  0  0
 15  1  1  0  0  0  0
 19  3  1  0  0  0  0
 20  5  1  0  0  0  0
 21  6  1  0  0  0  0
 22  8  1  0  0  0  0
 26 35  1  0  0  0  0
 26 13  1  0  0  0  0
 27 36  1  1  0  0  0
 27 26  1  0  0  0  0
 28 38  1  0  0  0  0
 28 27  1  0  0  0  0
 29 39  1  0  0  0  0
 29 28  1  0  0  0  0
 30 34  1  0  0  0  0
 30 29  1  0  0  0  0
 31 30  2  0  0  0  0
 32 27  1  0  0  0  0
 32 49  1  0  0  0  0
 33 32  2  0  0  0  0
 37 28  1  0  0  0  0
 40 29  1  0  0  0  0
 41 34  1  0  0  0  0
 42 43  1  0  0  0  0
 43 44  1  0  0  0  0
 44 45  2  0  0  0  0
 44 56  1  0  0  0  0
 45 57  1  0  0  0  0
 46 47  1  0  0  0  0
 46 45  1  0  0  0  0
 47 59  1  0  0  0  0
 47 48  1  0  0  0  0
 48 60  1  6  0  0  0
 48 49  1  0  0  0  0
 48 50  1  0  0  0  0
 49 61  1  0  0  0  0
 50 54  2  0  0  0  0
 50 51  1  0  0  0  0
 52 46  2  0  0  0  0
 53 52  1  0  0  0  0
 53 43  2  0  0  0  0
 55 42  1  0  0  0  0
 58 47  1  0  0  0  0
 62 52  1  0  0  0  0
 63 53  1  0  0  0  0
M  END
$$$$
