WFA.pdb
 OpenBabel07022419183D

 56 58  0  0  1  0  0  0  0  0999 V2000
    2.0140   -1.5030   -0.7920 N   0  0  0  0  0  0  0  0  0  0  0  0
    2.2740   -2.2310    0.4180 C   0  0  1  0  0  0  0  0  0  0  0  0
    3.5030   -1.7450    1.0880 C   0  0  0  0  0  0  0  0  0  0  0  0
    3.3720   -0.3140    1.4260 C   0  0  0  0  0  0  0  0  0  0  0  0
    2.9850    0.1500    2.6750 C   0  0  0  0  0  0  0  0  0  0  0  0
    2.9390    1.4810    2.6310 N   0  0  0  0  0  0  0  0  0  0  0  0
    3.2750    1.9450    1.4220 C   0  0  0  0  0  0  0  0  0  0  0  0
    3.3860    3.2090    0.8880 C   0  0  0  0  0  0  0  0  0  0  0  0
    3.7730    3.3970   -0.4210 C   0  0  0  0  0  0  0  0  0  0  0  0
    4.0440    2.2700   -1.1680 C   0  0  0  0  0  0  0  0  0  0  0  0
    3.9380    0.9970   -0.6480 C   0  0  0  0  0  0  0  0  0  0  0  0
    3.5490    0.8160    0.6610 C   0  0  0  0  0  0  0  0  0  0  0  0
    1.0650   -2.1890    1.2790 C   0  0  0  0  0  0  0  0  0  0  0  0
    1.0900   -2.7150    2.4270 O   0  0  0  0  0  0  0  0  0  0  0  0
    1.5470   -0.5840   -0.6410 H   0  0  0  0  0  0  0  0  0  0  0  0
    1.4550   -2.0440   -1.4960 H   0  0  0  0  0  0  0  0  0  0  0  0
    2.4560   -3.3030    0.0650 H   0  0  0  0  0  0  0  0  0  0  0  0
    3.7400   -2.3250    2.0060 H   0  0  0  0  0  0  0  0  0  0  0  0
    4.3480   -1.8780    0.3480 H   0  0  0  0  0  0  0  0  0  0  0  0
    2.7660   -0.4960    3.5140 H   0  0  0  0  0  0  0  0  0  0  0  0
    2.6750    2.0900    3.4390 H   0  0  0  0  0  0  0  0  0  0  0  0
    3.1780    4.1040    1.4590 H   0  0  0  0  0  0  0  0  0  0  0  0
    3.8630    4.4070   -0.8510 H   0  0  0  0  0  0  0  0  0  0  0  0
    4.3470    2.4270   -2.1920 H   0  0  0  0  0  0  0  0  0  0  0  0
    4.1640    0.1290   -1.2490 H   0  0  0  0  0  0  0  0  0  0  0  0
   -0.1630   -1.6010    0.9400 N   0  0  0  0  0  0  0  0  0  0  0  0
   -1.2850   -1.5900    1.7980 C   0  0  1  0  0  0  0  0  0  0  0  0
   -1.8230   -0.2680    2.1970 C   0  0  0  0  0  0  0  0  0  0  0  0
   -2.2780    0.5850    1.0400 C   0  0  0  0  0  0  0  0  0  0  0  0
   -3.5790    0.4950    0.6220 C   0  0  0  0  0  0  0  0  0  0  0  0
   -4.0190    1.2630   -0.4330 C   0  0  0  0  0  0  0  0  0  0  0  0
   -3.1480    2.1260   -1.0720 C   0  0  0  0  0  0  0  0  0  0  0  0
   -1.8340    2.2060   -0.6370 C   0  0  0  0  0  0  0  0  0  0  0  0
   -1.4130    1.4390    0.4090 C   0  0  0  0  0  0  0  0  0  0  0  0
   -2.3470   -2.4920    1.2560 C   0  0  0  0  0  0  0  0  0  0  0  0
   -3.4440   -2.6640    1.8430 O   0  0  0  0  0  0  0  0  0  0  0  0
   -0.2690   -1.1440    0.0000 H   0  0  0  0  0  0  0  0  0  0  0  0
   -0.9780   -2.1090    2.7540 H   0  0  0  0  0  0  0  0  0  0  0  0
   -1.1290    0.2870    2.8470 H   0  0  0  0  0  0  0  0  0  0  0  0
   -2.7380   -0.4260    2.8050 H   0  0  0  0  0  0  0  0  0  0  0  0
   -4.3110   -0.1790    1.1030 H   0  0  0  0  0  0  0  0  0  0  0  0
   -5.0540    1.2140   -0.7910 H   0  0  0  0  0  0  0  0  0  0  0  0
   -3.4520    2.7450   -1.9010 H   0  0  0  0  0  0  0  0  0  0  0  0
   -1.1520    2.9020   -1.1600 H   0  0  0  0  0  0  0  0  0  0  0  0
   -0.3650    1.5240    0.7310 H   0  0  0  0  0  0  0  0  0  0  0  0
   -3.6830   -3.5010   -1.7690 C   0  0  0  0  0  0  0  0  0  0  0  0
   -3.2080   -4.0580   -0.4390 C   0  0  2  0  0  0  0  0  0  0  0  0
   -2.1410   -3.1920    0.0400 N   0  0  0  0  0  0  0  0  0  0  0  0
   -2.7210   -5.4480   -0.6430 C   0  0  0  0  0  0  0  0  0  0  0  0
   -1.5160   -5.6970   -0.3940 O   0  0  0  0  0  0  0  0  0  0  0  0
   -3.6150   -6.3970   -1.0950 O   0  0  0  0  0  0  0  0  0  0  0  0
   -4.6020   -4.0110   -2.1240 H   0  0  0  0  0  0  0  0  0  0  0  0
   -3.7970   -2.3930   -1.7400 H   0  0  0  0  0  0  0  0  0  0  0  0
   -2.9220   -3.6960   -2.5800 H   0  0  0  0  0  0  0  0  0  0  0  0
   -4.0790   -4.0470    0.2450 H   0  0  0  0  0  0  0  0  0  0  0  0
   -1.2370   -3.0960   -0.5150 H   0  0  0  0  0  0  0  0  0  0  0  0
  1 15  1  0  0  0  0
  1  2  1  0  0  0  0
  2 17  1  6  0  0  0
  2  3  1  0  0  0  0
  2 13  1  0  0  0  0
  3  4  1  0  0  0  0
  3 18  1  0  0  0  0
  4  5  2  0  0  0  0
  5 20  1  0  0  0  0
  6  5  1  0  0  0  0
  6 21  1  0  0  0  0
  7  6  1  0  0  0  0
  8  7  1  0  0  0  0
  8 22  1  0  0  0  0
  9  8  2  0  0  0  0
 10 11  2  0  0  0  0
 10  9  1  0  0  0  0
 11 12  1  0  0  0  0
 12  7  2  0  0  0  0
 12  4  1  0  0  0  0
 13 14  2  0  0  0  0
 16  1  1  0  0  0  0
 19  3  1  0  0  0  0
 23  9  1  0  0  0  0
 24 10  1  0  0  0  0
 25 11  1  0  0  0  0
 26 13  1  0  0  0  0
 26 27  1  0  0  0  0
 27 28  1  0  0  0  0
 27 38  1  1  0  0  0
 28 40  1  0  0  0  0
 28 39  1  0  0  0  0
 29 28  1  0  0  0  0
 30 29  1  0  0  0  0
 30 41  1  0  0  0  0
 31 30  2  0  0  0  0
 32 33  2  0  0  0  0
 32 31  1  0  0  0  0
 33 34  1  0  0  0  0
 34 45  1  0  0  0  0
 34 29  2  0  0  0  0
 35 27  1  0  0  0  0
 35 36  2  0  0  0  0
 37 26  1  0  0  0  0
 42 31  1  0  0  0  0
 43 32  1  0  0  0  0
 44 33  1  0  0  0  0
 46 53  1  0  0  0  0
 46 47  1  0  0  0  0
 47 48  1  0  0  0  0
 47 55  1  1  0  0  0
 48 35  1  0  0  0  0
 49 47  1  0  0  0  0
 49 50  1  0  0  0  0
 51 49  2  0  0  0  0
 52 46  1  0  0  0  0
 54 46  1  0  0  0  0
 56 48  1  0  0  0  0
M  END
$$$$
