WFD.pdb
 OpenBabel07022419183D

 59 61  0  0  1  0  0  0  0  0999 V2000
    1.8880   -1.0840    3.3490 N   0  0  0  0  0  0  0  0  0  0  0  0
    1.1210    0.1660    3.4420 C   0  0  1  0  0  0  0  0  0  0  0  0
    2.0420    1.3470    3.4900 C   0  0  0  0  0  0  0  0  0  0  0  0
    2.9360    1.4840    2.3410 C   0  0  0  0  0  0  0  0  0  0  0  0
    4.2510    1.0170    2.3490 C   0  0  0  0  0  0  0  0  0  0  0  0
    4.7760    1.2640    1.1500 N   0  0  0  0  0  0  0  0  0  0  0  0
    3.8540    1.8710    0.3710 C   0  0  0  0  0  0  0  0  0  0  0  0
    3.9200    2.3330   -0.9460 C   0  0  0  0  0  0  0  0  0  0  0  0
    2.8080    2.9370   -1.4990 C   0  0  0  0  0  0  0  0  0  0  0  0
    1.6460    3.0850   -0.7650 C   0  0  0  0  0  0  0  0  0  0  0  0
    1.5960    2.6290    0.5210 C   0  0  0  0  0  0  0  0  0  0  0  0
    2.7050    2.0100    1.1110 C   0  0  0  0  0  0  0  0  0  0  0  0
    0.0640    0.2290    2.4340 C   0  0  0  0  0  0  0  0  0  0  0  0
   -0.8080    1.1330    2.5260 O   0  0  0  0  0  0  0  0  0  0  0  0
    2.9000   -0.9380    3.3000 H   0  0  0  0  0  0  0  0  0  0  0  0
    1.5840   -1.7520    4.0900 H   0  0  0  0  0  0  0  0  0  0  0  0
    0.5810    0.1720    4.4500 H   0  0  0  0  0  0  0  0  0  0  0  0
    1.3870    2.2670    3.5360 H   0  0  0  0  0  0  0  0  0  0  0  0
    2.6030    1.3260    4.4630 H   0  0  0  0  0  0  0  0  0  0  0  0
    4.7770    0.5310    3.1900 H   0  0  0  0  0  0  0  0  0  0  0  0
    5.7530    1.0290    0.8410 H   0  0  0  0  0  0  0  0  0  0  0  0
    4.8290    2.2160   -1.5130 H   0  0  0  0  0  0  0  0  0  0  0  0
    2.8220    3.3090   -2.5210 H   0  0  0  0  0  0  0  0  0  0  0  0
    0.7790    3.5700   -1.2300 H   0  0  0  0  0  0  0  0  0  0  0  0
    0.7110    2.7420    1.1180 H   0  0  0  0  0  0  0  0  0  0  0  0
   -0.0410   -0.6780    1.3470 N   0  0  0  0  0  0  0  0  0  0  0  0
   -1.0920   -0.6220    0.3350 C   0  0  1  0  0  0  0  0  0  0  0  0
   -0.4930   -0.4080   -1.0190 C   0  0  0  0  0  0  0  0  0  0  0  0
   -1.5280   -0.3550   -2.0570 C   0  0  0  0  0  0  0  0  0  0  0  0
   -2.1890    0.8580   -2.3060 C   0  0  0  0  0  0  0  0  0  0  0  0
   -3.1260    0.8910   -3.2930 C   0  0  0  0  0  0  0  0  0  0  0  0
   -3.4480   -0.2210   -4.0530 C   0  0  0  0  0  0  0  0  0  0  0  0
   -2.7920   -1.4000   -3.7950 C   0  0  0  0  0  0  0  0  0  0  0  0
   -1.8380   -1.4650   -2.8030 C   0  0  0  0  0  0  0  0  0  0  0  0
   -1.8870   -1.8670    0.3950 C   0  0  0  0  0  0  0  0  0  0  0  0
   -2.8510   -2.0160   -0.3690 O   0  0  0  0  0  0  0  0  0  0  0  0
    0.6730   -1.4260    1.2640 H   0  0  0  0  0  0  0  0  0  0  0  0
   -1.7040    0.2680    0.6200 H   0  0  0  0  0  0  0  0  0  0  0  0
    0.1650   -1.3020   -1.2130 H   0  0  0  0  0  0  0  0  0  0  0  0
    0.1510    0.5030   -1.0560 H   0  0  0  0  0  0  0  0  0  0  0  0
   -1.9030    1.7050   -1.6890 H   0  0  0  0  0  0  0  0  0  0  0  0
   -3.6460    1.8320   -3.4970 H   0  0  0  0  0  0  0  0  0  0  0  0
   -4.2030   -0.1330   -4.8230 H   0  0  0  0  0  0  0  0  0  0  0  0
   -3.0320   -2.2740   -4.3780 H   0  0  0  0  0  0  0  0  0  0  0  0
   -1.3320   -2.3960   -2.6120 H   0  0  0  0  0  0  0  0  0  0  0  0
   -1.6110   -2.9290    1.2960 N   0  0  0  0  0  0  0  0  0  0  0  0
   -2.4350   -4.1120    1.2970 C   0  0  1  0  0  0  0  0  0  0  0  0
   -1.6500   -5.3800    1.0450 C   0  0  0  0  0  0  0  0  0  0  0  0
   -0.9350   -5.3990   -0.2380 C   0  0  0  0  0  0  0  0  0  0  0  0
   -0.1170   -4.4880   -0.5660 O   0  0  0  0  0  0  0  0  0  0  0  0
   -3.1360   -4.2670    2.6210 C   0  0  0  0  0  0  0  0  0  0  0  0
   -3.8990   -5.2250    2.8470 O   0  0  0  0  0  0  0  0  0  0  0  0
   -1.1800   -6.4590   -1.1040 O   0  0  0  0  0  0  0  0  0  0  0  0
   -2.9510   -3.3380    3.6330 O   0  0  0  0  0  0  0  0  0  0  0  0
   -0.8140   -2.8350    1.9430 H   0  0  0  0  0  0  0  0  0  0  0  0
   -3.2080   -4.0580    0.4800 H   0  0  0  0  0  0  0  0  0  0  0  0
   -2.2800   -6.2720    1.1970 H   0  0  0  0  0  0  0  0  0  0  0  0
   -0.8910   -5.4230    1.8830 H   0  0  0  0  0  0  0  0  0  0  0  0
   -0.7300   -6.4190   -2.0310 H   0  0  0  0  0  0  0  0  0  0  0  0
  1  2  1  0  0  0  0
  1 16  1  0  0  0  0
  2  3  1  0  0  0  0
  2 17  1  1  0  0  0
  3 18  1  0  0  0  0
  3 19  1  0  0  0  0
  4  5  2  0  0  0  0
  4  3  1  0  0  0  0
  5 20  1  0  0  0  0
  6  5  1  0  0  0  0
  7 12  1  0  0  0  0
  7  6  1  0  0  0  0
  8  7  2  0  0  0  0
  9  8  1  0  0  0  0
  9 10  2  0  0  0  0
 10 11  1  0  0  0  0
 11 12  2  0  0  0  0
 11 25  1  0  0  0  0
 12  4  1  0  0  0  0
 13 14  2  0  0  0  0
 13  2  1  0  0  0  0
 15  1  1  0  0  0  0
 21  6  1  0  0  0  0
 22  8  1  0  0  0  0
 23  9  1  0  0  0  0
 24 10  1  0  0  0  0
 26 13  1  0  0  0  0
 27 35  1  0  0  0  0
 27 38  1  1  0  0  0
 27 26  1  0  0  0  0
 28 27  1  0  0  0  0
 29 28  1  0  0  0  0
 30 29  1  0  0  0  0
 30 41  1  0  0  0  0
 31 30  2  0  0  0  0
 32 33  2  0  0  0  0
 32 31  1  0  0  0  0
 33 34  1  0  0  0  0
 34 45  1  0  0  0  0
 34 29  2  0  0  0  0
 35 46  1  0  0  0  0
 36 35  2  0  0  0  0
 37 26  1  0  0  0  0
 39 28  1  0  0  0  0
 40 28  1  0  0  0  0
 42 31  1  0  0  0  0
 43 32  1  0  0  0  0
 44 33  1  0  0  0  0
 46 47  1  0  0  0  0
 46 55  1  0  0  0  0
 47 56  1  6  0  0  0
 47 51  1  0  0  0  0
 48 57  1  0  0  0  0
 48 47  1  0  0  0  0
 48 58  1  0  0  0  0
 49 48  1  0  0  0  0
 50 49  2  0  0  0  0
 51 52  2  0  0  0  0
 51 54  1  0  0  0  0
 53 49  1  0  0  0  0
 59 53  1  0  0  0  0
M  END
$$$$
