WFF.pdb
 OpenBabel07022419183D

 66 69  0  0  1  0  0  0  0  0999 V2000
    2.3230   -0.1550    3.0620 N   0  0  0  0  0  0  0  0  0  0  0  0
    1.4390    0.6380    2.1440 C   0  0  1  0  0  0  0  0  0  0  0  0
    2.2080    1.8370    1.7640 C   0  0  0  0  0  0  0  0  0  0  0  0
    1.5490    2.7450    0.8370 C   0  0  0  0  0  0  0  0  0  0  0  0
    0.7910    3.8680    1.1530 C   0  0  0  0  0  0  0  0  0  0  0  0
    0.3280    4.4440    0.0340 N   0  0  0  0  0  0  0  0  0  0  0  0
    0.7570    3.7360   -1.0240 C   0  0  0  0  0  0  0  0  0  0  0  0
    0.5860    3.8900   -2.3950 C   0  0  0  0  0  0  0  0  0  0  0  0
    1.1720    2.9930   -3.2490 C   0  0  0  0  0  0  0  0  0  0  0  0
    1.9300    1.9370   -2.7710 C   0  0  0  0  0  0  0  0  0  0  0  0
    2.1010    1.7850   -1.3980 C   0  0  0  0  0  0  0  0  0  0  0  0
    1.5080    2.6900   -0.5550 C   0  0  0  0  0  0  0  0  0  0  0  0
    0.8630   -0.2260    1.1440 C   0  0  0  0  0  0  0  0  0  0  0  0
    1.2900   -1.4180    0.9560 O   0  0  0  0  0  0  0  0  0  0  0  0
    2.2880    0.3370    3.9670 H   0  0  0  0  0  0  0  0  0  0  0  0
    1.8280   -1.0620    3.1630 H   0  0  0  0  0  0  0  0  0  0  0  0
    0.6190    0.9960    2.8510 H   0  0  0  0  0  0  0  0  0  0  0  0
    3.2420    1.5980    1.3930 H   0  0  0  0  0  0  0  0  0  0  0  0
    2.3660    2.4310    2.7230 H   0  0  0  0  0  0  0  0  0  0  0  0
    0.5900    4.2460    2.1570 H   0  0  0  0  0  0  0  0  0  0  0  0
   -0.2690    5.2990   -0.0600 H   0  0  0  0  0  0  0  0  0  0  0  0
   -0.0080    4.7190   -2.7240 H   0  0  0  0  0  0  0  0  0  0  0  0
    1.0220    3.1390   -4.3090 H   0  0  0  0  0  0  0  0  0  0  0  0
    2.4040    1.2150   -3.4110 H   0  0  0  0  0  0  0  0  0  0  0  0
    2.6910    0.9640   -0.9900 H   0  0  0  0  0  0  0  0  0  0  0  0
   -0.2260    0.1790    0.2970 N   0  0  0  0  0  0  0  0  0  0  0  0
   -0.7740   -0.7390   -0.6840 C   0  0  1  0  0  0  0  0  0  0  0  0
   -0.3280   -0.6110   -2.0540 C   0  0  0  0  0  0  0  0  0  0  0  0
   -0.9080   -1.5220   -3.0400 C   0  0  0  0  0  0  0  0  0  0  0  0
   -2.1320   -1.2370   -3.6330 C   0  0  0  0  0  0  0  0  0  0  0  0
   -2.6960   -2.0510   -4.5840 C   0  0  0  0  0  0  0  0  0  0  0  0
   -2.0410   -3.1960   -4.9750 C   0  0  0  0  0  0  0  0  0  0  0  0
   -0.8330   -3.5050   -4.4110 C   0  0  0  0  0  0  0  0  0  0  0  0
   -0.2720   -2.6600   -3.4420 C   0  0  0  0  0  0  0  0  0  0  0  0
   -0.8700   -2.1140   -0.0950 C   0  0  0  0  0  0  0  0  0  0  0  0
   -0.6880   -3.1250   -0.7870 O   0  0  0  0  0  0  0  0  0  0  0  0
   -0.5970    1.1330    0.4330 H   0  0  0  0  0  0  0  0  0  0  0  0
   -1.9030   -0.4500   -0.6780 H   0  0  0  0  0  0  0  0  0  0  0  0
   -0.5110    0.4340   -2.4610 H   0  0  0  0  0  0  0  0  0  0  0  0
    0.8100   -0.6700   -2.0660 H   0  0  0  0  0  0  0  0  0  0  0  0
   -2.6820   -0.3280   -3.3430 H   0  0  0  0  0  0  0  0  0  0  0  0
   -3.6590   -1.8270   -5.0510 H   0  0  0  0  0  0  0  0  0  0  0  0
   -2.4920   -3.8610   -5.7430 H   0  0  0  0  0  0  0  0  0  0  0  0
   -0.3350   -4.4130   -4.7400 H   0  0  0  0  0  0  0  0  0  0  0  0
    0.6860   -2.9890   -3.0750 H   0  0  0  0  0  0  0  0  0  0  0  0
   -1.1820   -2.2550    1.2770 N   0  0  0  0  0  0  0  0  0  0  0  0
   -1.2750   -3.5100    1.9540 C   0  0  1  0  0  0  0  0  0  0  0  0
   -1.5800   -3.4570    3.4020 C   0  0  0  0  0  0  0  0  0  0  0  0
   -0.6700   -2.7350    4.2690 C   0  0  0  0  0  0  0  0  0  0  0  0
   -0.8100   -1.3870    4.5570 C   0  0  0  0  0  0  0  0  0  0  0  0
    0.0330   -0.6830    5.3960 C   0  0  0  0  0  0  0  0  0  0  0  0
    1.0700   -1.3650    5.9770 C   0  0  0  0  0  0  0  0  0  0  0  0
    1.2380   -2.7070    5.7110 C   0  0  0  0  0  0  0  0  0  0  0  0
    0.4010   -3.3970    4.8800 C   0  0  0  0  0  0  0  0  0  0  0  0
   -2.3680   -4.3450    1.2510 C   0  0  0  0  0  0  0  0  0  0  0  0
   -2.9930   -3.8780    0.2770 O   0  0  0  0  0  0  0  0  0  0  0  0
   -2.6610   -5.6130    1.6940 O   0  0  0  0  0  0  0  0  0  0  0  0
   -1.3640   -1.3450    1.7850 H   0  0  0  0  0  0  0  0  0  0  0  0
   -0.3780   -4.1110    1.7450 H   0  0  0  0  0  0  0  0  0  0  0  0
   -1.7500   -4.5020    3.7920 H   0  0  0  0  0  0  0  0  0  0  0  0
   -2.5980   -2.9820    3.5410 H   0  0  0  0  0  0  0  0  0  0  0  0
   -1.6270   -0.8660    4.1000 H   0  0  0  0  0  0  0  0  0  0  0  0
   -0.1210    0.3640    5.5820 H   0  0  0  0  0  0  0  0  0  0  0  0
    1.7460   -0.8070    6.6470 H   0  0  0  0  0  0  0  0  0  0  0  0
    2.0880   -3.1830    6.2070 H   0  0  0  0  0  0  0  0  0  0  0  0
    0.5570   -4.4570    4.6880 H   0  0  0  0  0  0  0  0  0  0  0  0
  1 16  1  0  0  0  0
  1 15  1  0  0  0  0
  2 17  1  1  0  0  0
  2  1  1  0  0  0  0
  3  2  1  0  0  0  0
  3 19  1  0  0  0  0
  4  5  2  0  0  0  0
  4  3  1  0  0  0  0
  5 20  1  0  0  0  0
  6  5  1  0  0  0  0
  7 12  1  0  0  0  0
  7  6  1  0  0  0  0
  8  7  2  0  0  0  0
  9 10  2  0  0  0  0
  9  8  1  0  0  0  0
 10 11  1  0  0  0  0
 11 25  1  0  0  0  0
 11 12  2  0  0  0  0
 12  4  1  0  0  0  0
 13  2  1  0  0  0  0
 14 13  2  0  0  0  0
 18  3  1  0  0  0  0
 21  6  1  0  0  0  0
 22  8  1  0  0  0  0
 23  9  1  0  0  0  0
 24 10  1  0  0  0  0
 26 37  1  0  0  0  0
 26 13  1  0  0  0  0
 27 38  1  6  0  0  0
 27 35  1  0  0  0  0
 27 26  1  0  0  0  0
 28 27  1  0  0  0  0
 29 28  1  0  0  0  0
 30 41  1  0  0  0  0
 30 29  2  0  0  0  0
 31 30  1  0  0  0  0
 32 31  2  0  0  0  0
 32 33  1  0  0  0  0
 33 34  2  0  0  0  0
 34 45  1  0  0  0  0
 34 29  1  0  0  0  0
 35 46  1  0  0  0  0
 36 35  2  0  0  0  0
 39 28  1  0  0  0  0
 40 28  1  0  0  0  0
 42 31  1  0  0  0  0
 43 32  1  0  0  0  0
 44 33  1  0  0  0  0
 46 58  1  0  0  0  0
 46 47  1  0  0  0  0
 47 59  1  6  0  0  0
 47 48  1  0  0  0  0
 48 61  1  0  0  0  0
 48 60  1  0  0  0  0
 48 49  1  0  0  0  0
 49 50  2  0  0  0  0
 49 54  1  0  0  0  0
 50 51  1  0  0  0  0
 51 63  1  0  0  0  0
 51 52  2  0  0  0  0
 52 64  1  0  0  0  0
 53 52  1  0  0  0  0
 53 65  1  0  0  0  0
 54 53  2  0  0  0  0
 55 57  1  0  0  0  0
 55 47  1  0  0  0  0
 56 55  2  0  0  0  0
 62 50  1  0  0  0  0
 66 54  1  0  0  0  0
M  END
$$$$
