WFG.pdb
 OpenBabel07022419183D

 53 55  0  0  1  0  0  0  0  0999 V2000
    1.6680    2.3810   -0.1980 N   0  0  0  0  0  0  0  0  0  0  0  0
    0.9090    1.1990   -0.4130 C   0  0  1  0  0  0  0  0  0  0  0  0
    1.6990   -0.0850   -0.2260 C   0  0  0  0  0  0  0  0  0  0  0  0
    2.2600   -0.1930    1.1520 C   0  0  0  0  0  0  0  0  0  0  0  0
    1.7480   -0.9080    2.2190 C   0  0  0  0  0  0  0  0  0  0  0  0
    2.5300   -0.7310    3.2940 N   0  0  0  0  0  0  0  0  0  0  0  0
    3.5450    0.0870    2.9490 C   0  0  0  0  0  0  0  0  0  0  0  0
    4.6230    0.5850    3.6600 C   0  0  0  0  0  0  0  0  0  0  0  0
    5.5700    1.4160    3.1130 C   0  0  0  0  0  0  0  0  0  0  0  0
    5.4270    1.7620    1.7910 C   0  0  0  0  0  0  0  0  0  0  0  0
    4.3440    1.2660    1.0670 C   0  0  0  0  0  0  0  0  0  0  0  0
    3.3900    0.4300    1.6160 C   0  0  0  0  0  0  0  0  0  0  0  0
   -0.2810    1.0690    0.4690 C   0  0  0  0  0  0  0  0  0  0  0  0
   -0.4930    1.8720    1.4010 O   0  0  0  0  0  0  0  0  0  0  0  0
    1.0500    3.1650    0.1130 H   0  0  0  0  0  0  0  0  0  0  0  0
    2.0700    2.7060   -1.1270 H   0  0  0  0  0  0  0  0  0  0  0  0
    0.5600    1.1820   -1.4790 H   0  0  0  0  0  0  0  0  0  0  0  0
    1.0280   -0.9560   -0.3650 H   0  0  0  0  0  0  0  0  0  0  0  0
    2.4980   -0.0690   -1.0000 H   0  0  0  0  0  0  0  0  0  0  0  0
    0.8690   -1.5050    2.1860 H   0  0  0  0  0  0  0  0  0  0  0  0
    2.4330   -1.1240    4.2590 H   0  0  0  0  0  0  0  0  0  0  0  0
    4.7340    0.3110    4.7000 H   0  0  0  0  0  0  0  0  0  0  0  0
    6.4100    1.7960    3.6910 H   0  0  0  0  0  0  0  0  0  0  0  0
    6.1610    2.4100    1.3550 H   0  0  0  0  0  0  0  0  0  0  0  0
    4.2710    1.5540    0.0260 H   0  0  0  0  0  0  0  0  0  0  0  0
   -1.1710    0.0120    0.2260 N   0  0  0  0  0  0  0  0  0  0  0  0
   -2.3600   -0.2270    1.0090 C   0  0  1  0  0  0  0  0  0  0  0  0
   -3.6210    0.0900    0.2140 C   0  0  0  0  0  0  0  0  0  0  0  0
   -3.7280   -0.7300   -0.9980 C   0  0  0  0  0  0  0  0  0  0  0  0
   -4.3450   -1.9590   -1.0610 C   0  0  0  0  0  0  0  0  0  0  0  0
   -4.4080   -2.6720   -2.2360 C   0  0  0  0  0  0  0  0  0  0  0  0
   -3.8480   -2.1720   -3.4080 C   0  0  0  0  0  0  0  0  0  0  0  0
   -3.2260   -0.9370   -3.3520 C   0  0  0  0  0  0  0  0  0  0  0  0
   -3.1680   -0.2300   -2.1720 C   0  0  0  0  0  0  0  0  0  0  0  0
   -2.4440   -1.6050    1.4900 C   0  0  0  0  0  0  0  0  0  0  0  0
   -3.3980   -1.9870    2.2260 O   0  0  0  0  0  0  0  0  0  0  0  0
   -0.9710   -0.6390   -0.5610 H   0  0  0  0  0  0  0  0  0  0  0  0
   -2.3600    0.4850    1.8490 H   0  0  0  0  0  0  0  0  0  0  0  0
   -3.7290    1.1720    0.0540 H   0  0  0  0  0  0  0  0  0  0  0  0
   -4.4700   -0.2080    0.8900 H   0  0  0  0  0  0  0  0  0  0  0  0
   -4.7870   -2.3740   -0.1740 H   0  0  0  0  0  0  0  0  0  0  0  0
   -4.9010   -3.6250   -2.2250 H   0  0  0  0  0  0  0  0  0  0  0  0
   -3.8920   -2.7270   -4.3390 H   0  0  0  0  0  0  0  0  0  0  0  0
   -2.7740   -0.5030   -4.2360 H   0  0  0  0  0  0  0  0  0  0  0  0
   -2.6800    0.7210   -2.1670 H   0  0  0  0  0  0  0  0  0  0  0  0
   -1.4770   -2.6210    1.1750 N   0  0  0  0  0  0  0  0  0  0  0  0
   -1.5860   -3.9740    1.6650 C   0  0  0  0  0  0  0  0  0  0  0  0
   -0.4270   -4.7400    1.1440 C   0  0  0  0  0  0  0  0  0  0  0  0
   -0.2550   -5.9760    1.4150 O   0  0  0  0  0  0  0  0  0  0  0  0
    0.5520   -4.1660    0.3250 O   0  0  0  0  0  0  0  0  0  0  0  0
   -0.6870   -2.3550    0.5780 H   0  0  0  0  0  0  0  0  0  0  0  0
   -1.5170   -4.0140    2.7840 H   0  0  0  0  0  0  0  0  0  0  0  0
   -2.5540   -4.4440    1.3640 H   0  0  0  0  0  0  0  0  0  0  0  0
  1 15  1  0  0  0  0
  2 17  1  6  0  0  0
  2  3  1  0  0  0  0
  2  1  1  0  0  0  0
  2 13  1  0  0  0  0
  3  4  1  0  0  0  0
  4 12  1  0  0  0  0
  4  5  2  0  0  0  0
  5  6  1  0  0  0  0
  6 21  1  0  0  0  0
  7  6  1  0  0  0  0
  7  8  1  0  0  0  0
  8 22  1  0  0  0  0
  9  8  2  0  0  0  0
  9 23  1  0  0  0  0
 10  9  1  0  0  0  0
 11 12  1  0  0  0  0
 11 10  2  0  0  0  0
 12  7  2  0  0  0  0
 13 14  2  0  0  0  0
 16  1  1  0  0  0  0
 18  3  1  0  0  0  0
 19  3  1  0  0  0  0
 20  5  1  0  0  0  0
 24 10  1  0  0  0  0
 25 11  1  0  0  0  0
 26 13  1  0  0  0  0
 26 27  1  0  0  0  0
 27 35  1  0  0  0  0
 27 38  1  1  0  0  0
 28 40  1  0  0  0  0
 28 27  1  0  0  0  0
 29 28  1  0  0  0  0
 30 29  1  0  0  0  0
 30 41  1  0  0  0  0
 31 42  1  0  0  0  0
 31 30  2  0  0  0  0
 32 33  2  0  0  0  0
 32 31  1  0  0  0  0
 33 34  1  0  0  0  0
 34 45  1  0  0  0  0
 34 29  2  0  0  0  0
 35 36  2  0  0  0  0
 37 26  1  0  0  0  0
 39 28  1  0  0  0  0
 43 32  1  0  0  0  0
 44 33  1  0  0  0  0
 46 35  1  0  0  0  0
 46 47  1  0  0  0  0
 47 52  1  0  0  0  0
 48 49  1  0  0  0  0
 48 47  1  0  0  0  0
 50 48  2  0  0  0  0
 51 46  1  0  0  0  0
 53 47  1  0  0  0  0
M  END
$$$$
