WFI.pdb
 OpenBabel07022419183D

 65 67  0  0  1  0  0  0  0  0999 V2000
    1.3180    0.3740    3.6740 N   0  0  0  0  0  0  0  0  0  0  0  0
    0.2130    1.3330    3.4320 C   0  0  1  0  0  0  0  0  0  0  0  0
    0.7950    2.5550    2.8130 C   0  0  0  0  0  0  0  0  0  0  0  0
    1.5030    2.3330    1.5540 C   0  0  0  0  0  0  0  0  0  0  0  0
    2.8710    2.1700    1.4140 C   0  0  0  0  0  0  0  0  0  0  0  0
    3.1820    1.9410    0.1340 N   0  0  0  0  0  0  0  0  0  0  0  0
    2.0300    1.9530   -0.5780 C   0  0  0  0  0  0  0  0  0  0  0  0
    1.7560    1.7810   -1.9170 C   0  0  0  0  0  0  0  0  0  0  0  0
    0.4710    1.8510   -2.3930 C   0  0  0  0  0  0  0  0  0  0  0  0
   -0.5690    2.0970   -1.5090 C   0  0  0  0  0  0  0  0  0  0  0  0
   -0.3030    2.2670   -0.1740 C   0  0  0  0  0  0  0  0  0  0  0  0
    0.9970    2.1960    0.3020 C   0  0  0  0  0  0  0  0  0  0  0  0
   -0.9150    0.6920    2.7650 C   0  0  0  0  0  0  0  0  0  0  0  0
   -2.0850    1.1170    2.9250 O   0  0  0  0  0  0  0  0  0  0  0  0
    1.8090    0.1780    2.7760 H   0  0  0  0  0  0  0  0  0  0  0  0
    0.8970   -0.4600    4.0730 H   0  0  0  0  0  0  0  0  0  0  0  0
   -0.1330    1.6280    4.4750 H   0  0  0  0  0  0  0  0  0  0  0  0
   -0.0120    3.3190    2.7350 H   0  0  0  0  0  0  0  0  0  0  0  0
    1.5300    2.9730    3.5430 H   0  0  0  0  0  0  0  0  0  0  0  0
    3.5930    2.2190    2.2100 H   0  0  0  0  0  0  0  0  0  0  0  0
    4.1000    1.7760   -0.3200 H   0  0  0  0  0  0  0  0  0  0  0  0
    2.5820    1.5850   -2.6220 H   0  0  0  0  0  0  0  0  0  0  0  0
    0.2100    1.7240   -3.4270 H   0  0  0  0  0  0  0  0  0  0  0  0
   -1.5860    2.1510   -1.9060 H   0  0  0  0  0  0  0  0  0  0  0  0
   -1.0810    2.4770    0.5640 H   0  0  0  0  0  0  0  0  0  0  0  0
   -0.7880   -0.4400    1.9150 N   0  0  0  0  0  0  0  0  0  0  0  0
   -1.7020   -1.2210    1.2400 C   0  0  1  0  0  0  0  0  0  0  0  0
   -2.7480   -0.7140    0.3010 C   0  0  0  0  0  0  0  0  0  0  0  0
   -3.7790    0.2000    0.7960 C   0  0  0  0  0  0  0  0  0  0  0  0
   -3.8800    1.5410    0.4700 C   0  0  0  0  0  0  0  0  0  0  0  0
   -4.8550    2.3760    0.9770 C   0  0  0  0  0  0  0  0  0  0  0  0
   -5.8250    1.9040    1.8710 C   0  0  0  0  0  0  0  0  0  0  0  0
   -5.7460    0.5780    2.2080 C   0  0  0  0  0  0  0  0  0  0  0  0
   -4.7660   -0.2350    1.6920 C   0  0  0  0  0  0  0  0  0  0  0  0
   -1.1640   -2.4420    0.5870 C   0  0  0  0  0  0  0  0  0  0  0  0
   -2.0080   -3.1970   -0.0170 O   0  0  0  0  0  0  0  0  0  0  0  0
    0.2770   -0.7070    1.8540 H   0  0  0  0  0  0  0  0  0  0  0  0
   -2.4080   -1.6420    2.0830 H   0  0  0  0  0  0  0  0  0  0  0  0
   -2.3130   -0.3720   -0.6790 H   0  0  0  0  0  0  0  0  0  0  0  0
   -3.3090   -1.6610   -0.0210 H   0  0  0  0  0  0  0  0  0  0  0  0
   -3.1520    1.9160   -0.2380 H   0  0  0  0  0  0  0  0  0  0  0  0
   -4.8970    3.4230    0.6880 H   0  0  0  0  0  0  0  0  0  0  0  0
   -6.5820    2.5660    2.2570 H   0  0  0  0  0  0  0  0  0  0  0  0
   -6.4510    0.1410    2.8900 H   0  0  0  0  0  0  0  0  0  0  0  0
   -4.6960   -1.2980    1.9590 H   0  0  0  0  0  0  0  0  0  0  0  0
    2.9530   -4.2900   -3.1510 C   0  0  0  0  0  0  0  0  0  0  0  0
    2.1100   -4.7900   -1.9780 C   0  0  0  0  0  0  0  0  0  0  0  0
    1.6010   -3.6230   -1.2160 C   0  0  2  0  0  0  0  0  0  0  0  0
    2.7570   -2.7970   -0.6760 C   0  0  0  0  0  0  0  0  0  0  0  0
    0.6430   -4.0410   -0.1340 C   0  0  2  0  0  0  0  0  0  0  0  0
    0.1820   -2.8110    0.5810 N   0  0  0  0  0  0  0  0  0  0  0  0
    1.1580   -4.9770    0.8490 C   0  0  0  0  0  0  0  0  0  0  0  0
    1.2010   -4.7400    2.0750 O   0  0  0  0  0  0  0  0  0  0  0  0
    1.6400   -6.2260    0.4570 O   0  0  0  0  0  0  0  0  0  0  0  0
    4.0120   -4.1580   -2.8710 H   0  0  0  0  0  0  0  0  0  0  0  0
    2.5500   -3.3120   -3.4790 H   0  0  0  0  0  0  0  0  0  0  0  0
    2.9190   -5.0160   -3.9900 H   0  0  0  0  0  0  0  0  0  0  0  0
    2.8000   -5.3700   -1.3360 H   0  0  0  0  0  0  0  0  0  0  0  0
    1.2780   -5.4420   -2.3250 H   0  0  0  0  0  0  0  0  0  0  0  0
    1.0420   -2.9060   -1.8740 H   0  0  0  0  0  0  0  0  0  0  0  0
    3.4920   -2.5620   -1.4510 H   0  0  0  0  0  0  0  0  0  0  0  0
    2.3980   -1.8090   -0.3040 H   0  0  0  0  0  0  0  0  0  0  0  0
    3.2840   -3.3610    0.1190 H   0  0  0  0  0  0  0  0  0  0  0  0
   -0.2520   -4.4450   -0.6200 H   0  0  0  0  0  0  0  0  0  0  0  0
    0.8840   -2.2380    1.0780 H   0  0  0  0  0  0  0  0  0  0  0  0
  1 16  1  0  0  0  0
  2  1  1  0  0  0  0
  2 17  1  1  0  0  0
  3  2  1  0  0  0  0
  3 19  1  0  0  0  0
  4  3  1  0  0  0  0
  5  4  2  0  0  0  0
  5 20  1  0  0  0  0
  6  5  1  0  0  0  0
  7  6  1  0  0  0  0
  7 12  1  0  0  0  0
  8  7  2  0  0  0  0
  9  8  1  0  0  0  0
  9 10  2  0  0  0  0
 10 11  1  0  0  0  0
 11 12  2  0  0  0  0
 11 25  1  0  0  0  0
 12  4  1  0  0  0  0
 13 14  2  0  0  0  0
 13  2  1  0  0  0  0
 15  1  1  0  0  0  0
 18  3  1  0  0  0  0
 21  6  1  0  0  0  0
 22  8  1  0  0  0  0
 23  9  1  0  0  0  0
 24 10  1  0  0  0  0
 26 13  1  0  0  0  0
 27 26  1  0  0  0  0
 27 38  1  1  0  0  0
 28 29  1  0  0  0  0
 28 27  1  0  0  0  0
 29 34  1  0  0  0  0
 30 29  2  0  0  0  0
 30 31  1  0  0  0  0
 31 32  2  0  0  0  0
 32 33  1  0  0  0  0
 32 43  1  0  0  0  0
 33 44  1  0  0  0  0
 34 45  1  0  0  0  0
 34 33  2  0  0  0  0
 35 27  1  0  0  0  0
 36 35  2  0  0  0  0
 37 26  1  0  0  0  0
 39 28  1  0  0  0  0
 40 28  1  0  0  0  0
 41 30  1  0  0  0  0
 42 31  1  0  0  0  0
 46 55  1  0  0  0  0
 46 47  1  0  0  0  0
 47 58  1  0  0  0  0
 47 48  1  0  0  0  0
 48 60  1  6  0  0  0
 48 49  1  0  0  0  0
 48 50  1  0  0  0  0
 49 62  1  0  0  0  0
 49 63  1  0  0  0  0
 50 64  1  6  0  0  0
 50 51  1  0  0  0  0
 50 52  1  0  0  0  0
 51 35  1  0  0  0  0
 51 65  1  0  0  0  0
 52 53  1  0  0  0  0
 54 52  2  0  0  0  0
 56 46  1  0  0  0  0
 57 46  1  0  0  0  0
 59 47  1  0  0  0  0
 61 49  1  0  0  0  0
M  END
$$$$
