WFL.pdb
 OpenBabel07022419183D

 65 67  0  0  1  0  0  0  0  0999 V2000
   -1.4200   -1.9900    4.1260 N   0  0  0  0  0  0  0  0  0  0  0  0
   -1.3740   -1.0570    3.0010 C   0  0  1  0  0  0  0  0  0  0  0  0
   -0.8630    0.2650    3.4830 C   0  0  0  0  0  0  0  0  0  0  0  0
    0.4780    0.2230    4.1030 C   0  0  0  0  0  0  0  0  0  0  0  0
    0.7320    0.1900    5.4810 C   0  0  0  0  0  0  0  0  0  0  0  0
    2.0540    0.1300    5.6510 N   0  0  0  0  0  0  0  0  0  0  0  0
    2.6920    0.1220    4.4740 C   0  0  0  0  0  0  0  0  0  0  0  0
    4.0370    0.0740    4.1780 C   0  0  0  0  0  0  0  0  0  0  0  0
    4.4380    0.0850    2.8630 C   0  0  0  0  0  0  0  0  0  0  0  0
    3.4800    0.1440    1.8860 C   0  0  0  0  0  0  0  0  0  0  0  0
    2.1540    0.1910    2.1870 C   0  0  0  0  0  0  0  0  0  0  0  0
    1.7090    0.1810    3.5000 C   0  0  0  0  0  0  0  0  0  0  0  0
   -0.6340   -1.6620    1.8860 C   0  0  0  0  0  0  0  0  0  0  0  0
    0.1680   -2.6360    2.0680 O   0  0  0  0  0  0  0  0  0  0  0  0
   -1.7770   -2.9190    3.8200 H   0  0  0  0  0  0  0  0  0  0  0  0
   -2.0850   -1.6160    4.8630 H   0  0  0  0  0  0  0  0  0  0  0  0
   -2.4370   -0.9070    2.7110 H   0  0  0  0  0  0  0  0  0  0  0  0
   -0.7640    0.9270    2.5770 H   0  0  0  0  0  0  0  0  0  0  0  0
   -1.6250    0.7160    4.1260 H   0  0  0  0  0  0  0  0  0  0  0  0
   -0.0580    0.2110    6.2470 H   0  0  0  0  0  0  0  0  0  0  0  0
    2.5480    0.0930    6.5730 H   0  0  0  0  0  0  0  0  0  0  0  0
    4.8170    0.0270    4.9330 H   0  0  0  0  0  0  0  0  0  0  0  0
    5.5020    0.0470    2.6010 H   0  0  0  0  0  0  0  0  0  0  0  0
    3.8100    0.1520    0.8540 H   0  0  0  0  0  0  0  0  0  0  0  0
    1.3930    0.2470    1.4270 H   0  0  0  0  0  0  0  0  0  0  0  0
   -0.7630   -1.2100    0.5320 N   0  0  0  0  0  0  0  0  0  0  0  0
   -0.0110   -1.8400   -0.5110 C   0  0  1  0  0  0  0  0  0  0  0  0
   -0.8990   -2.7840   -1.3300 C   0  0  0  0  0  0  0  0  0  0  0  0
   -1.4580   -3.8500   -0.4350 C   0  0  0  0  0  0  0  0  0  0  0  0
   -2.6660   -3.6780    0.2070 C   0  0  0  0  0  0  0  0  0  0  0  0
   -3.2010   -4.6510    1.0450 C   0  0  0  0  0  0  0  0  0  0  0  0
   -2.5270   -5.8360    1.2610 C   0  0  0  0  0  0  0  0  0  0  0  0
   -1.3200   -6.0130    0.6220 C   0  0  0  0  0  0  0  0  0  0  0  0
   -0.7870   -5.0330   -0.2180 C   0  0  0  0  0  0  0  0  0  0  0  0
    0.5500   -0.8460   -1.4340 C   0  0  0  0  0  0  0  0  0  0  0  0
    1.2440   -1.2330   -2.4320 O   0  0  0  0  0  0  0  0  0  0  0  0
   -1.4080   -0.4320    0.3150 H   0  0  0  0  0  0  0  0  0  0  0  0
    0.7980   -2.4690   -0.0310 H   0  0  0  0  0  0  0  0  0  0  0  0
   -1.7440   -2.2450   -1.7940 H   0  0  0  0  0  0  0  0  0  0  0  0
   -0.2670   -3.1880   -2.1380 H   0  0  0  0  0  0  0  0  0  0  0  0
   -3.1900   -2.7440    0.0310 H   0  0  0  0  0  0  0  0  0  0  0  0
   -4.1600   -4.4800    1.5380 H   0  0  0  0  0  0  0  0  0  0  0  0
   -2.9500   -6.5900    1.9160 H   0  0  0  0  0  0  0  0  0  0  0  0
   -0.7940   -6.9530    0.7990 H   0  0  0  0  0  0  0  0  0  0  0  0
    0.1620   -5.1970   -0.7070 H   0  0  0  0  0  0  0  0  0  0  0  0
   -2.0680    2.5550   -4.3470 C   0  0  0  0  0  0  0  0  0  0  0  0
   -1.0820    1.5320   -3.7540 C   0  0  0  0  0  0  0  0  0  0  0  0
   -1.8640    0.4510   -3.1020 C   0  0  0  0  0  0  0  0  0  0  0  0
   -0.1490    2.3020   -2.8950 C   0  0  0  0  0  0  0  0  0  0  0  0
    0.9160    1.5240   -2.1950 C   0  0  2  0  0  0  0  0  0  0  0  0
    0.3650    0.5410   -1.2850 N   0  0  0  0  0  0  0  0  0  0  0  0
    1.7350    2.4890   -1.4320 C   0  0  0  0  0  0  0  0  0  0  0  0
    1.8380    2.3670   -0.1950 O   0  0  0  0  0  0  0  0  0  0  0  0
    2.4070    3.5470   -2.0380 O   0  0  0  0  0  0  0  0  0  0  0  0
   -2.9220    2.7050   -3.6720 H   0  0  0  0  0  0  0  0  0  0  0  0
   -2.4620    2.1830   -5.3160 H   0  0  0  0  0  0  0  0  0  0  0  0
   -1.5210    3.4970   -4.5130 H   0  0  0  0  0  0  0  0  0  0  0  0
   -0.5310    1.0490   -4.6180 H   0  0  0  0  0  0  0  0  0  0  0  0
   -1.5330   -0.5690   -3.4380 H   0  0  0  0  0  0  0  0  0  0  0  0
   -1.9500    0.5530   -2.0220 H   0  0  0  0  0  0  0  0  0  0  0  0
   -2.9300    0.5010   -3.4840 H   0  0  0  0  0  0  0  0  0  0  0  0
   -0.7160    2.9390   -2.1720 H   0  0  0  0  0  0  0  0  0  0  0  0
    0.3700    3.0460   -3.5690 H   0  0  0  0  0  0  0  0  0  0  0  0
    1.5700    1.0290   -2.9630 H   0  0  0  0  0  0  0  0  0  0  0  0
   -0.1840    0.9010   -0.4820 H   0  0  0  0  0  0  0  0  0  0  0  0
  1 16  1  0  0  0  0
  2 17  1  6  0  0  0
  2  3  1  0  0  0  0
  2  1  1  0  0  0  0
  3  4  1  0  0  0  0
  3 19  1  0  0  0  0
  4  5  2  0  0  0  0
  5  6  1  0  0  0  0
  5 20  1  0  0  0  0
  6 21  1  0  0  0  0
  7  6  1  0  0  0  0
  8  7  1  0  0  0  0
  8 22  1  0  0  0  0
  9  8  2  0  0  0  0
 10 11  2  0  0  0  0
 10  9  1  0  0  0  0
 11 12  1  0  0  0  0
 12  4  1  0  0  0  0
 12  7  2  0  0  0  0
 13 14  2  0  0  0  0
 13  2  1  0  0  0  0
 15  1  1  0  0  0  0
 18  3  1  0  0  0  0
 23  9  1  0  0  0  0
 24 10  1  0  0  0  0
 25 11  1  0  0  0  0
 26 13  1  0  0  0  0
 27 38  1  1  0  0  0
 27 26  1  0  0  0  0
 28 27  1  0  0  0  0
 28 29  1  0  0  0  0
 29 34  2  0  0  0  0
 29 30  1  0  0  0  0
 30 31  2  0  0  0  0
 31 32  1  0  0  0  0
 31 42  1  0  0  0  0
 32 43  1  0  0  0  0
 33 44  1  0  0  0  0
 33 32  2  0  0  0  0
 34 33  1  0  0  0  0
 35 51  1  0  0  0  0
 35 27  1  0  0  0  0
 36 35  2  0  0  0  0
 37 26  1  0  0  0  0
 39 28  1  0  0  0  0
 40 28  1  0  0  0  0
 41 30  1  0  0  0  0
 45 34  1  0  0  0  0
 46 47  1  0  0  0  0
 46 55  1  0  0  0  0
 47 48  1  0  0  0  0
 47 49  1  0  0  0  0
 48 60  1  0  0  0  0
 49 50  1  0  0  0  0
 49 62  1  0  0  0  0
 50 64  1  6  0  0  0
 50 52  1  0  0  0  0
 50 51  1  0  0  0  0
 51 65  1  0  0  0  0
 52 53  1  0  0  0  0
 54 52  2  0  0  0  0
 56 46  1  0  0  0  0
 57 46  1  0  0  0  0
 58 47  1  0  0  0  0
 59 48  1  0  0  0  0
 61 48  1  0  0  0  0
 63 49  1  0  0  0  0
M  END
$$$$
