WFM.pdb
 OpenBabel07022419183D

 63 65  0  0  1  0  0  0  0  0999 V2000
    2.7820    0.6090    1.4250 N   0  0  0  0  0  0  0  0  0  0  0  0
    2.3500   -0.5840    2.0930 C   0  0  1  0  0  0  0  0  0  0  0  0
    2.3040   -0.4530    3.6090 C   0  0  0  0  0  0  0  0  0  0  0  0
    3.5910   -0.1350    4.2270 C   0  0  0  0  0  0  0  0  0  0  0  0
    4.4120   -1.0840    4.8340 C   0  0  0  0  0  0  0  0  0  0  0  0
    5.5160   -0.4680    5.2860 N   0  0  0  0  0  0  0  0  0  0  0  0
    5.4200    0.8550    4.9790 C   0  0  0  0  0  0  0  0  0  0  0  0
    6.2750    1.9280    5.2170 C   0  0  0  0  0  0  0  0  0  0  0  0
    5.9290    3.1970    4.7960 C   0  0  0  0  0  0  0  0  0  0  0  0
    4.7430    3.4350    4.1390 C   0  0  0  0  0  0  0  0  0  0  0  0
    3.9110    2.3710    3.9110 C   0  0  0  0  0  0  0  0  0  0  0  0
    4.2260    1.0690    4.3220 C   0  0  0  0  0  0  0  0  0  0  0  0
    0.9860   -0.9820    1.5860 C   0  0  0  0  0  0  0  0  0  0  0  0
    0.4830   -2.0890    1.9470 O   0  0  0  0  0  0  0  0  0  0  0  0
    3.8230    0.7370    1.5500 H   0  0  0  0  0  0  0  0  0  0  0  0
    2.5590    0.5600    0.3890 H   0  0  0  0  0  0  0  0  0  0  0  0
    3.0120   -1.4460    1.8520 H   0  0  0  0  0  0  0  0  0  0  0  0
    1.5380    0.3390    3.8490 H   0  0  0  0  0  0  0  0  0  0  0  0
    1.9180   -1.3990    4.0330 H   0  0  0  0  0  0  0  0  0  0  0  0
    4.2270   -2.1480    4.9450 H   0  0  0  0  0  0  0  0  0  0  0  0
    6.3330   -0.9020    5.7900 H   0  0  0  0  0  0  0  0  0  0  0  0
    7.2060    1.7630    5.7290 H   0  0  0  0  0  0  0  0  0  0  0  0
    6.6040    4.0160    4.9900 H   0  0  0  0  0  0  0  0  0  0  0  0
    4.5160    4.4460    3.8280 H   0  0  0  0  0  0  0  0  0  0  0  0
    2.9890    2.5300    3.4090 H   0  0  0  0  0  0  0  0  0  0  0  0
    0.2240   -0.1720    0.7160 N   0  0  0  0  0  0  0  0  0  0  0  0
   -1.1120   -0.6670    0.2710 C   0  0  1  0  0  0  0  0  0  0  0  0
   -2.1500    0.0270    1.0950 C   0  0  0  0  0  0  0  0  0  0  0  0
   -3.5080   -0.3860    0.7630 C   0  0  0  0  0  0  0  0  0  0  0  0
   -4.3530    0.2820   -0.0770 C   0  0  0  0  0  0  0  0  0  0  0  0
   -5.6470   -0.1350   -0.3620 C   0  0  0  0  0  0  0  0  0  0  0  0
   -6.1070   -1.2830    0.2310 C   0  0  0  0  0  0  0  0  0  0  0  0
   -5.2950   -1.9980    1.0900 C   0  0  0  0  0  0  0  0  0  0  0  0
   -4.0140   -1.5470    1.3460 C   0  0  0  0  0  0  0  0  0  0  0  0
   -1.2060   -0.5140   -1.1830 C   0  0  0  0  0  0  0  0  0  0  0  0
   -0.3010    0.1640   -1.8040 O   0  0  0  0  0  0  0  0  0  0  0  0
    0.5560    0.7530    0.3760 H   0  0  0  0  0  0  0  0  0  0  0  0
   -1.1660   -1.7380    0.5320 H   0  0  0  0  0  0  0  0  0  0  0  0
   -2.0070   -0.1820    2.1850 H   0  0  0  0  0  0  0  0  0  0  0  0
   -2.0630    1.1480    1.0090 H   0  0  0  0  0  0  0  0  0  0  0  0
   -3.9870    1.1860   -0.5460 H   0  0  0  0  0  0  0  0  0  0  0  0
   -6.2930    0.4220   -1.0360 H   0  0  0  0  0  0  0  0  0  0  0  0
   -7.1060   -1.6430    0.0380 H   0  0  0  0  0  0  0  0  0  0  0  0
   -5.6430   -2.8990    1.5610 H   0  0  0  0  0  0  0  0  0  0  0  0
   -3.3950   -2.1440    2.0360 H   0  0  0  0  0  0  0  0  0  0  0  0
   -2.0590   -5.4990   -4.4970 C   0  0  0  0  0  0  0  0  0  0  0  0
   -0.7460   -4.3620   -4.9690 S   0  0  0  0  0  0  0  0  0  0  0  0
   -0.7930   -2.8660   -3.9520 C   0  0  0  0  0  0  0  0  0  0  0  0
   -2.0470   -2.1100   -4.2650 C   0  0  0  0  0  0  0  0  0  0  0  0
   -2.1860   -0.8230   -3.4710 C   0  0  2  0  0  0  0  0  0  0  0  0
   -2.2080   -1.0440   -2.0370 N   0  0  0  0  0  0  0  0  0  0  0  0
   -3.3660   -0.1310   -4.0100 C   0  0  0  0  0  0  0  0  0  0  0  0
   -4.2970    0.1990   -3.2680 O   0  0  0  0  0  0  0  0  0  0  0  0
   -3.4520    0.1590   -5.3640 O   0  0  0  0  0  0  0  0  0  0  0  0
   -2.9200   -5.3640   -5.1910 H   0  0  0  0  0  0  0  0  0  0  0  0
   -1.6730   -6.5400   -4.6310 H   0  0  0  0  0  0  0  0  0  0  0  0
   -2.3910   -5.3330   -3.4680 H   0  0  0  0  0  0  0  0  0  0  0  0
   -0.6890   -3.1060   -2.8800 H   0  0  0  0  0  0  0  0  0  0  0  0
    0.1160   -2.2680   -4.2350 H   0  0  0  0  0  0  0  0  0  0  0  0
   -1.9720   -1.7840   -5.3380 H   0  0  0  0  0  0  0  0  0  0  0  0
   -2.9570   -2.7390   -4.2100 H   0  0  0  0  0  0  0  0  0  0  0  0
   -1.3060   -0.1590   -3.7150 H   0  0  0  0  0  0  0  0  0  0  0  0
   -2.9570   -1.6150   -1.6100 H   0  0  0  0  0  0  0  0  0  0  0  0
  1 15  1  0  0  0  0
  1  2  1  0  0  0  0
  2 17  1  6  0  0  0
  2  3  1  0  0  0  0
  3 18  1  0  0  0  0
  3 19  1  0  0  0  0
  3  4  1  0  0  0  0
  4 12  1  0  0  0  0
  4  5  2  0  0  0  0
  5 20  1  0  0  0  0
  5  6  1  0  0  0  0
  6 21  1  0  0  0  0
  7  8  1  0  0  0  0
  7  6  1  0  0  0  0
  8 22  1  0  0  0  0
  9 23  1  0  0  0  0
  9  8  2  0  0  0  0
 10  9  1  0  0  0  0
 11 10  2  0  0  0  0
 11 12  1  0  0  0  0
 12  7  2  0  0  0  0
 13 14  2  0  0  0  0
 13  2  1  0  0  0  0
 16  1  1  0  0  0  0
 24 10  1  0  0  0  0
 25 11  1  0  0  0  0
 26 13  1  0  0  0  0
 27 38  1  1  0  0  0
 27 26  1  0  0  0  0
 27 28  1  0  0  0  0
 28 39  1  0  0  0  0
 29 28  1  0  0  0  0
 29 34  1  0  0  0  0
 30 29  2  0  0  0  0
 31 30  1  0  0  0  0
 31 32  2  0  0  0  0
 32 33  1  0  0  0  0
 33 34  2  0  0  0  0
 33 44  1  0  0  0  0
 34 45  1  0  0  0  0
 35 27  1  0  0  0  0
 36 35  2  0  0  0  0
 37 26  1  0  0  0  0
 40 28  1  0  0  0  0
 41 30  1  0  0  0  0
 42 31  1  0  0  0  0
 43 32  1  0  0  0  0
 46 57  1  0  0  0  0
 47 46  1  0  0  0  0
 47 48  1  0  0  0  0
 48 58  1  0  0  0  0
 49 61  1  0  0  0  0
 49 48  1  0  0  0  0
 49 50  1  0  0  0  0
 50 62  1  6  0  0  0
 50 51  1  0  0  0  0
 51 63  1  0  0  0  0
 51 35  1  0  0  0  0
 52 50  1  0  0  0  0
 52 53  1  0  0  0  0
 54 52  2  0  0  0  0
 55 46  1  0  0  0  0
 56 46  1  0  0  0  0
 59 48  1  0  0  0  0
 60 49  1  0  0  0  0
M  END
$$$$
