WFP.pdb
 OpenBabel07022419183D

 60 63  0  0  1  0  0  0  0  0999 V2000
    1.0800    0.1700    0.5750 N   0  0  0  0  0  0  0  0  0  0  0  0
    1.2670   -0.4490    1.8550 C   0  0  1  0  0  0  0  0  0  0  0  0
    1.7380    0.4590    2.9420 C   0  0  0  0  0  0  0  0  0  0  0  0
    3.0440    1.1090    2.6750 C   0  0  0  0  0  0  0  0  0  0  0  0
    4.2950    0.7080    3.1710 C   0  0  0  0  0  0  0  0  0  0  0  0
    5.2340    1.5260    2.6940 N   0  0  0  0  0  0  0  0  0  0  0  0
    4.6890    2.4630    1.9000 C   0  0  0  0  0  0  0  0  0  0  0  0
    5.2350    3.5110    1.1960 C   0  0  0  0  0  0  0  0  0  0  0  0
    4.3960    4.3190    0.4620 C   0  0  0  0  0  0  0  0  0  0  0  0
    3.0390    4.1090    0.4160 C   0  0  0  0  0  0  0  0  0  0  0  0
    2.5120    3.0410    1.1380 C   0  0  0  0  0  0  0  0  0  0  0  0
    3.3220    2.2040    1.8880 C   0  0  0  0  0  0  0  0  0  0  0  0
    0.1100   -1.2780    2.2670 C   0  0  0  0  0  0  0  0  0  0  0  0
    0.0760   -1.8590    3.3640 O   0  0  0  0  0  0  0  0  0  0  0  0
    0.2360    0.7780    0.5270 H   0  0  0  0  0  0  0  0  0  0  0  0
    0.9800   -0.5490   -0.1720 H   0  0  0  0  0  0  0  0  0  0  0  0
    2.1070   -1.2000    1.7050 H   0  0  0  0  0  0  0  0  0  0  0  0
    1.7960   -0.1370    3.8880 H   0  0  0  0  0  0  0  0  0  0  0  0
    0.9460    1.2450    3.0970 H   0  0  0  0  0  0  0  0  0  0  0  0
    4.3870   -0.1490    3.8340 H   0  0  0  0  0  0  0  0  0  0  0  0
    6.2620    1.4230    2.9290 H   0  0  0  0  0  0  0  0  0  0  0  0
    6.2880    3.7390    1.1830 H   0  0  0  0  0  0  0  0  0  0  0  0
    4.7960    5.1690   -0.1160 H   0  0  0  0  0  0  0  0  0  0  0  0
    2.3410    4.7130   -0.1430 H   0  0  0  0  0  0  0  0  0  0  0  0
    1.4520    2.8330    1.1440 H   0  0  0  0  0  0  0  0  0  0  0  0
   -0.9840   -1.4050    1.3710 N   0  0  0  0  0  0  0  0  0  0  0  0
   -2.1570   -2.1610    1.6250 C   0  0  1  0  0  0  0  0  0  0  0  0
   -3.4140   -1.2970    1.6450 C   0  0  0  0  0  0  0  0  0  0  0  0
   -3.6140   -0.6070    0.3470 C   0  0  0  0  0  0  0  0  0  0  0  0
   -4.3290   -1.1290   -0.6970 C   0  0  0  0  0  0  0  0  0  0  0  0
   -4.4800   -0.4470   -1.8770 C   0  0  0  0  0  0  0  0  0  0  0  0
   -3.8980    0.7910   -2.0120 C   0  0  0  0  0  0  0  0  0  0  0  0
   -3.1710    1.3450   -0.9790 C   0  0  0  0  0  0  0  0  0  0  0  0
   -3.0380    0.6340    0.1940 C   0  0  0  0  0  0  0  0  0  0  0  0
   -2.4180   -3.3240    0.7850 C   0  0  0  0  0  0  0  0  0  0  0  0
   -3.5370   -3.9130    1.0400 O   0  0  0  0  0  0  0  0  0  0  0  0
   -0.9230   -0.8930    0.4610 H   0  0  0  0  0  0  0  0  0  0  0  0
   -2.0550   -2.5370    2.6940 H   0  0  0  0  0  0  0  0  0  0  0  0
   -4.2710   -1.9710    1.8280 H   0  0  0  0  0  0  0  0  0  0  0  0
   -3.3820   -0.5560    2.4410 H   0  0  0  0  0  0  0  0  0  0  0  0
   -4.7880   -2.0980   -0.6000 H   0  0  0  0  0  0  0  0  0  0  0  0
   -5.0490   -0.8520   -2.7210 H   0  0  0  0  0  0  0  0  0  0  0  0
   -3.9880    1.3810   -2.9360 H   0  0  0  0  0  0  0  0  0  0  0  0
   -2.7160    2.3360   -1.1110 H   0  0  0  0  0  0  0  0  0  0  0  0
   -2.4530    1.0980    1.0050 H   0  0  0  0  0  0  0  0  0  0  0  0
   -1.6220   -3.8690   -0.2430 N   0  0  0  0  0  0  0  0  0  0  0  0
   -2.0500   -5.0480   -1.0210 C   0  0  0  0  0  0  0  0  0  0  0  0
   -0.7800   -5.7940   -1.2440 C   0  0  0  0  0  0  0  0  0  0  0  0
    0.3500   -4.8900   -0.8430 C   0  0  0  0  0  0  0  0  0  0  0  0
   -0.3480   -3.5300   -0.7800 C   0  0  1  0  0  0  0  0  0  0  0  0
   -0.3930   -2.9440   -2.1400 C   0  0  0  0  0  0  0  0  0  0  0  0
    0.6990   -2.6530   -2.6860 O   0  0  0  0  0  0  0  0  0  0  0  0
   -1.5630   -2.7030   -2.8300 O   0  0  0  0  0  0  0  0  0  0  0  0
   -2.8090   -5.6310   -0.4520 H   0  0  0  0  0  0  0  0  0  0  0  0
   -2.4790   -4.6400   -1.9590 H   0  0  0  0  0  0  0  0  0  0  0  0
   -0.8240   -6.7210   -0.6120 H   0  0  0  0  0  0  0  0  0  0  0  0
   -0.6930   -6.0670   -2.3280 H   0  0  0  0  0  0  0  0  0  0  0  0
    1.1940   -4.8940   -1.5430 H   0  0  0  0  0  0  0  0  0  0  0  0
    0.6520   -5.1660    0.1970 H   0  0  0  0  0  0  0  0  0  0  0  0
    0.2410   -2.8310   -0.1510 H   0  0  0  0  0  0  0  0  0  0  0  0
  1  2  1  0  0  0  0
  2 17  1  6  0  0  0
  2 13  1  0  0  0  0
  2  3  1  0  0  0  0
  3 19  1  0  0  0  0
  3 18  1  0  0  0  0
  4  3  1  0  0  0  0
  4  5  2  0  0  0  0
  5 20  1  0  0  0  0
  6 21  1  0  0  0  0
  6  5  1  0  0  0  0
  7  6  1  0  0  0  0
  8  7  2  0  0  0  0
  9  8  1  0  0  0  0
 10  9  2  0  0  0  0
 10 11  1  0  0  0  0
 11 25  1  0  0  0  0
 11 12  2  0  0  0  0
 12  7  1  0  0  0  0
 12  4  1  0  0  0  0
 13 14  2  0  0  0  0
 15  1  1  0  0  0  0
 16  1  1  0  0  0  0
 22  8  1  0  0  0  0
 23  9  1  0  0  0  0
 24 10  1  0  0  0  0
 26 27  1  0  0  0  0
 26 13  1  0  0  0  0
 27 28  1  0  0  0  0
 27 38  1  1  0  0  0
 28 39  1  0  0  0  0
 28 40  1  0  0  0  0
 29 28  1  0  0  0  0
 30 41  1  0  0  0  0
 30 29  2  0  0  0  0
 31 30  1  0  0  0  0
 32 31  2  0  0  0  0
 32 33  1  0  0  0  0
 33 34  2  0  0  0  0
 34 29  1  0  0  0  0
 34 45  1  0  0  0  0
 35 36  2  0  0  0  0
 35 27  1  0  0  0  0
 37 26  1  0  0  0  0
 42 31  1  0  0  0  0
 43 32  1  0  0  0  0
 44 33  1  0  0  0  0
 46 35  1  0  0  0  0
 47 54  1  0  0  0  0
 47 46  1  0  0  0  0
 48 47  1  0  0  0  0
 48 49  1  0  0  0  0
 48 56  1  0  0  0  0
 49 50  1  0  0  0  0
 49 59  1  0  0  0  0
 50 46  1  0  0  0  0
 50 60  1  1  0  0  0
 51 50  1  0  0  0  0
 52 51  1  0  0  0  0
 53 51  2  0  0  0  0
 55 47  1  0  0  0  0
 57 48  1  0  0  0  0
 58 49  1  0  0  0  0
M  END
$$$$
