WFQ.pdb
 OpenBabel07022419183D

 63 65  0  0  1  0  0  0  0  0999 V2000
    1.7010   -1.7440    4.4750 N   0  0  0  0  0  0  0  0  0  0  0  0
    1.2600   -0.2940    4.3330 C   0  0  1  0  0  0  0  0  0  0  0  0
    2.5550    0.4200    4.2420 C   0  0  0  0  0  0  0  0  0  0  0  0
    2.5830    1.8580    4.1140 C   0  0  0  0  0  0  0  0  0  0  0  0
    2.7240    2.7270    5.1930 C   0  0  0  0  0  0  0  0  0  0  0  0
    2.6870    4.0020    4.7750 N   0  0  0  0  0  0  0  0  0  0  0  0
    2.5220    3.9670    3.4320 C   0  0  0  0  0  0  0  0  0  0  0  0
    2.4280    4.9990    2.5100 C   0  0  0  0  0  0  0  0  0  0  0  0
    2.2730    4.7390    1.1850 C   0  0  0  0  0  0  0  0  0  0  0  0
    2.2060    3.4360    0.7480 C   0  0  0  0  0  0  0  0  0  0  0  0
    2.2990    2.4000    1.6450 C   0  0  0  0  0  0  0  0  0  0  0  0
    2.4550    2.6600    3.0120 C   0  0  0  0  0  0  0  0  0  0  0  0
    0.3800   -0.3180    3.1530 C   0  0  0  0  0  0  0  0  0  0  0  0
   -0.8250    0.1220    3.2570 O   0  0  0  0  0  0  0  0  0  0  0  0
    2.3260   -1.8670    3.6500 H   0  0  0  0  0  0  0  0  0  0  0  0
    0.8490   -2.3350    4.4630 H   0  0  0  0  0  0  0  0  0  0  0  0
    0.6610   -0.0140    5.2250 H   0  0  0  0  0  0  0  0  0  0  0  0
    3.1280    0.1220    5.1870 H   0  0  0  0  0  0  0  0  0  0  0  0
    3.1660   -0.0900    3.4370 H   0  0  0  0  0  0  0  0  0  0  0  0
    2.8470    2.4400    6.2330 H   0  0  0  0  0  0  0  0  0  0  0  0
    2.7680    4.8560    5.3810 H   0  0  0  0  0  0  0  0  0  0  0  0
    2.4850    6.0150    2.8890 H   0  0  0  0  0  0  0  0  0  0  0  0
    2.2010    5.5650    0.4730 H   0  0  0  0  0  0  0  0  0  0  0  0
    2.0820    3.2360   -0.3250 H   0  0  0  0  0  0  0  0  0  0  0  0
    2.2690    1.3710    1.3350 H   0  0  0  0  0  0  0  0  0  0  0  0
    0.7270   -0.7940    1.8700 N   0  0  0  0  0  0  0  0  0  0  0  0
   -0.2980   -0.8150    0.7860 C   0  0  1  0  0  0  0  0  0  0  0  0
   -0.3390    0.5050    0.1070 C   0  0  0  0  0  0  0  0  0  0  0  0
   -1.3550    0.5080   -0.9720 C   0  0  0  0  0  0  0  0  0  0  0  0
   -2.6620    0.6710   -0.5940 C   0  0  0  0  0  0  0  0  0  0  0  0
   -3.6390    0.7220   -1.5620 C   0  0  0  0  0  0  0  0  0  0  0  0
   -3.3290    0.6140   -2.9010 C   0  0  0  0  0  0  0  0  0  0  0  0
   -2.0060    0.4500   -3.2690 C   0  0  0  0  0  0  0  0  0  0  0  0
   -1.0400    0.3990   -2.3000 C   0  0  0  0  0  0  0  0  0  0  0  0
   -0.0560   -2.0090   -0.0130 C   0  0  0  0  0  0  0  0  0  0  0  0
    1.0390   -2.6510    0.2700 O   0  0  0  0  0  0  0  0  0  0  0  0
    1.6970   -1.1250    1.6860 H   0  0  0  0  0  0  0  0  0  0  0  0
   -1.2870   -0.8600    1.3560 H   0  0  0  0  0  0  0  0  0  0  0  0
   -0.6850    1.2430    0.8740 H   0  0  0  0  0  0  0  0  0  0  0  0
    0.6420    0.8810   -0.2690 H   0  0  0  0  0  0  0  0  0  0  0  0
   -2.9360    0.7580    0.4710 H   0  0  0  0  0  0  0  0  0  0  0  0
   -4.6830    0.8500   -1.2430 H   0  0  0  0  0  0  0  0  0  0  0  0
   -4.0970    0.6480   -3.6360 H   0  0  0  0  0  0  0  0  0  0  0  0
   -1.8140    0.3740   -4.3330 H   0  0  0  0  0  0  0  0  0  0  0  0
   -0.0090    0.2760   -2.5740 H   0  0  0  0  0  0  0  0  0  0  0  0
   -4.7580   -6.2310   -2.5250 N   0  0  0  0  0  0  0  0  0  0  0  0
   -3.4640   -6.0200   -2.0010 C   0  0  0  0  0  0  0  0  0  0  0  0
   -2.9530   -6.9680   -1.3490 O   0  0  0  0  0  0  0  0  0  0  0  0
   -2.6910   -4.7510   -2.1820 C   0  0  0  0  0  0  0  0  0  0  0  0
   -1.3330   -4.9490   -1.6180 C   0  0  0  0  0  0  0  0  0  0  0  0
   -0.3890   -3.8090   -1.7140 C   0  0  2  0  0  0  0  0  0  0  0  0
   -0.8130   -2.5910   -1.0410 N   0  0  0  0  0  0  0  0  0  0  0  0
   -0.0080   -3.5110   -3.1070 C   0  0  0  0  0  0  0  0  0  0  0  0
   -0.0690   -2.3450   -3.5360 O   0  0  0  0  0  0  0  0  0  0  0  0
    0.4300   -4.4760   -4.0030 O   0  0  0  0  0  0  0  0  0  0  0  0
   -5.6060   -5.8260   -2.1050 H   0  0  0  0  0  0  0  0  0  0  0  0
   -4.8690   -6.8340   -3.3880 H   0  0  0  0  0  0  0  0  0  0  0  0
   -3.2520   -3.8930   -1.7390 H   0  0  0  0  0  0  0  0  0  0  0  0
   -2.6400   -4.5850   -3.2870 H   0  0  0  0  0  0  0  0  0  0  0  0
   -0.8610   -5.7980   -2.2030 H   0  0  0  0  0  0  0  0  0  0  0  0
   -1.4040   -5.3550   -0.5780 H   0  0  0  0  0  0  0  0  0  0  0  0
    0.5790   -4.1870   -1.2370 H   0  0  0  0  0  0  0  0  0  0  0  0
   -1.7000   -2.1320   -1.3030 H   0  0  0  0  0  0  0  0  0  0  0  0
  2  1  1  0  0  0  0
  2 17  1  1  0  0  0
  3  2  1  0  0  0  0
  3 18  1  0  0  0  0
  4  3  1  0  0  0  0
  4  5  2  0  0  0  0
  5 20  1  0  0  0  0
  6  5  1  0  0  0  0
  6 21  1  0  0  0  0
  7  6  1  0  0  0  0
  8 22  1  0  0  0  0
  8  7  2  0  0  0  0
  9  8  1  0  0  0  0
 10  9  2  0  0  0  0
 10 11  1  0  0  0  0
 11 12  2  0  0  0  0
 12  7  1  0  0  0  0
 12  4  1  0  0  0  0
 13 14  2  0  0  0  0
 13  2  1  0  0  0  0
 15  1  1  0  0  0  0
 16  1  1  0  0  0  0
 19  3  1  0  0  0  0
 23  9  1  0  0  0  0
 24 10  1  0  0  0  0
 25 11  1  0  0  0  0
 26 13  1  0  0  0  0
 27 38  1  1  0  0  0
 27 26  1  0  0  0  0
 28 27  1  0  0  0  0
 28 39  1  0  0  0  0
 29 30  1  0  0  0  0
 29 28  1  0  0  0  0
 30 41  1  0  0  0  0
 31 42  1  0  0  0  0
 31 30  2  0  0  0  0
 32 31  1  0  0  0  0
 33 32  2  0  0  0  0
 33 34  1  0  0  0  0
 34 29  2  0  0  0  0
 35 36  2  0  0  0  0
 35 27  1  0  0  0  0
 37 26  1  0  0  0  0
 40 28  1  0  0  0  0
 43 32  1  0  0  0  0
 44 33  1  0  0  0  0
 45 34  1  0  0  0  0
 46 56  1  0  0  0  0
 46 47  1  0  0  0  0
 47 48  2  0  0  0  0
 49 47  1  0  0  0  0
 49 58  1  0  0  0  0
 49 50  1  0  0  0  0
 50 61  1  0  0  0  0
 51 50  1  0  0  0  0
 51 62  1  1  0  0  0
 51 52  1  0  0  0  0
 52 35  1  0  0  0  0
 53 51  1  0  0  0  0
 54 53  1  0  0  0  0
 55 53  2  0  0  0  0
 57 46  1  0  0  0  0
 59 49  1  0  0  0  0
 60 50  1  0  0  0  0
 63 52  1  0  0  0  0
M  END
$$$$
