WFR.pdb
 OpenBabel07022419183D

 69 71  0  0  1  0  0  0  0  0999 V2000
    0.4200   -0.4430    1.7960 N   0  0  0  0  0  0  0  0  0  0  0  0
    1.8630   -0.4440    1.5750 C   0  0  1  0  0  0  0  0  0  0  0  0
    2.5490   -1.1170    2.7420 C   0  0  0  0  0  0  0  0  0  0  0  0
    2.1990   -0.3320    3.9520 C   0  0  0  0  0  0  0  0  0  0  0  0
    1.2890   -0.6320    4.9350 C   0  0  0  0  0  0  0  0  0  0  0  0
    1.2790    0.3650    5.8590 N   0  0  0  0  0  0  0  0  0  0  0  0
    2.1750    1.3200    5.4940 C   0  0  0  0  0  0  0  0  0  0  0  0
    2.5580    2.5160    6.0600 C   0  0  0  0  0  0  0  0  0  0  0  0
    3.5230    3.2750    5.4240 C   0  0  0  0  0  0  0  0  0  0  0  0
    4.1010    2.8550    4.2430 C   0  0  0  0  0  0  0  0  0  0  0  0
    3.7000    1.6420    3.6890 C   0  0  0  0  0  0  0  0  0  0  0  0
    2.7500    0.8940    4.3130 C   0  0  0  0  0  0  0  0  0  0  0  0
    2.1800   -1.1220    0.2910 C   0  0  0  0  0  0  0  0  0  0  0  0
    3.3740   -1.2290   -0.0850 O   0  0  0  0  0  0  0  0  0  0  0  0
    0.1770    0.0700    2.6510 H   0  0  0  0  0  0  0  0  0  0  0  0
    0.0690   -1.4370    1.9100 H   0  0  0  0  0  0  0  0  0  0  0  0
    2.1780    0.6180    1.5760 H   0  0  0  0  0  0  0  0  0  0  0  0
    2.1810   -2.1600    2.8460 H   0  0  0  0  0  0  0  0  0  0  0  0
    3.6440   -1.1030    2.5880 H   0  0  0  0  0  0  0  0  0  0  0  0
    0.6830   -1.5210    4.9600 H   0  0  0  0  0  0  0  0  0  0  0  0
    0.7060    0.4500    6.7270 H   0  0  0  0  0  0  0  0  0  0  0  0
    2.1350    2.8820    6.9770 H   0  0  0  0  0  0  0  0  0  0  0  0
    3.8660    4.2360    5.8290 H   0  0  0  0  0  0  0  0  0  0  0  0
    4.8600    3.4220    3.7170 H   0  0  0  0  0  0  0  0  0  0  0  0
    4.1460    1.2860    2.7520 H   0  0  0  0  0  0  0  0  0  0  0  0
    1.1360   -1.6500   -0.5100 N   0  0  0  0  0  0  0  0  0  0  0  0
    1.3640   -2.3230   -1.7710 C   0  0  1  0  0  0  0  0  0  0  0  0
    0.9980   -3.7870   -1.6980 C   0  0  0  0  0  0  0  0  0  0  0  0
   -0.4260   -4.0040   -1.3530 C   0  0  0  0  0  0  0  0  0  0  0  0
   -0.8850   -4.1290   -0.0720 C   0  0  0  0  0  0  0  0  0  0  0  0
   -2.2260   -4.3270    0.1480 C   0  0  0  0  0  0  0  0  0  0  0  0
   -3.1590   -4.4090   -0.8730 C   0  0  0  0  0  0  0  0  0  0  0  0
   -2.6550   -4.2780   -2.1480 C   0  0  0  0  0  0  0  0  0  0  0  0
   -1.3180   -4.0790   -2.3950 C   0  0  0  0  0  0  0  0  0  0  0  0
    0.7550   -1.6180   -2.9080 C   0  0  0  0  0  0  0  0  0  0  0  0
    0.8420   -2.0630   -4.0800 O   0  0  0  0  0  0  0  0  0  0  0  0
    0.1460   -1.5370   -0.1540 H   0  0  0  0  0  0  0  0  0  0  0  0
    2.4840   -2.3100   -1.9210 H   0  0  0  0  0  0  0  0  0  0  0  0
    1.2280   -4.3110   -2.6470 H   0  0  0  0  0  0  0  0  0  0  0  0
    1.6320   -4.2430   -0.9140 H   0  0  0  0  0  0  0  0  0  0  0  0
   -0.1870   -4.0700    0.7560 H   0  0  0  0  0  0  0  0  0  0  0  0
   -2.6390   -4.4330    1.1620 H   0  0  0  0  0  0  0  0  0  0  0  0
   -4.2220   -4.5680   -0.6670 H   0  0  0  0  0  0  0  0  0  0  0  0
   -3.3930   -4.3430   -2.9570 H   0  0  0  0  0  0  0  0  0  0  0  0
   -1.0080   -3.9870   -3.4340 H   0  0  0  0  0  0  0  0  0  0  0  0
   -4.7870    0.9810    1.7470 N   0  0  0  0  0  0  0  0  0  0  0  0
   -4.1260    0.1990    0.7440 C   0  0  0  0  0  0  0  0  0  0  0  0
   -3.6910   -0.9610    1.0920 N   0  0  0  0  0  0  0  0  0  0  0  0
   -3.9460    0.6500   -0.5700 N   0  0  0  0  0  0  0  0  0  0  0  0
   -2.9060    0.0420   -1.4440 C   0  0  0  0  0  0  0  0  0  0  0  0
   -2.9290    0.7020   -2.7730 C   0  0  0  0  0  0  0  0  0  0  0  0
   -2.0210    0.2570   -3.8300 C   0  0  0  0  0  0  0  0  0  0  0  0
   -0.5610    0.3370   -3.6950 C   0  0  2  0  0  0  0  0  0  0  0  0
    0.0470   -0.3900   -2.6500 N   0  0  0  0  0  0  0  0  0  0  0  0
   -0.1580    1.7770   -3.7180 C   0  0  0  0  0  0  0  0  0  0  0  0
   -0.6600    2.4810   -4.6240 O   0  0  0  0  0  0  0  0  0  0  0  0
    0.7070    2.3450   -2.8230 O   0  0  0  0  0  0  0  0  0  0  0  0
   -5.5000    1.7130    1.5120 H   0  0  0  0  0  0  0  0  0  0  0  0
   -4.5700    0.8370    2.7470 H   0  0  0  0  0  0  0  0  0  0  0  0
   -3.7960   -1.3530    2.0570 H   0  0  0  0  0  0  0  0  0  0  0  0
   -4.5400    1.4150   -0.9420 H   0  0  0  0  0  0  0  0  0  0  0  0
   -3.1890   -1.0290   -1.4830 H   0  0  0  0  0  0  0  0  0  0  0  0
   -2.0020    0.1200   -0.8520 H   0  0  0  0  0  0  0  0  0  0  0  0
   -2.8500    1.8370   -2.6670 H   0  0  0  0  0  0  0  0  0  0  0  0
   -4.0110    0.6070   -3.1320 H   0  0  0  0  0  0  0  0  0  0  0  0
   -2.2750    0.8790   -4.7650 H   0  0  0  0  0  0  0  0  0  0  0  0
   -2.3130   -0.7890   -4.2220 H   0  0  0  0  0  0  0  0  0  0  0  0
   -0.1430   -0.0850   -4.6640 H   0  0  0  0  0  0  0  0  0  0  0  0
    0.0420   -0.0760   -1.6690 H   0  0  0  0  0  0  0  0  0  0  0  0
  1 16  1  0  0  0  0
  1 15  1  0  0  0  0
  2 17  1  6  0  0  0
  2  1  1  0  0  0  0
  2  3  1  0  0  0  0
  3 18  1  0  0  0  0
  3  4  1  0  0  0  0
  4 12  1  0  0  0  0
  4  5  2  0  0  0  0
  5 20  1  0  0  0  0
  5  6  1  0  0  0  0
  6 21  1  0  0  0  0
  7  6  1  0  0  0  0
  7  8  1  0  0  0  0
  8 22  1  0  0  0  0
  9 23  1  0  0  0  0
  9  8  2  0  0  0  0
 10  9  1  0  0  0  0
 11 10  2  0  0  0  0
 11 12  1  0  0  0  0
 12  7  2  0  0  0  0
 13  2  1  0  0  0  0
 14 13  2  0  0  0  0
 19  3  1  0  0  0  0
 24 10  1  0  0  0  0
 25 11  1  0  0  0  0
 26 37  1  0  0  0  0
 26 13  1  0  0  0  0
 27 38  1  6  0  0  0
 27 28  1  0  0  0  0
 27 26  1  0  0  0  0
 28 29  1  0  0  0  0
 28 40  1  0  0  0  0
 29 30  1  0  0  0  0
 30 31  2  0  0  0  0
 30 41  1  0  0  0  0
 31 42  1  0  0  0  0
 32 43  1  0  0  0  0
 32 31  1  0  0  0  0
 33 32  2  0  0  0  0
 34 33  1  0  0  0  0
 34 29  2  0  0  0  0
 35 54  1  0  0  0  0
 35 27  1  0  0  0  0
 36 35  2  0  0  0  0
 39 28  1  0  0  0  0
 44 33  1  0  0  0  0
 45 34  1  0  0  0  0
 46 59  1  0  0  0  0
 47 48  2  0  0  0  0
 47 46  1  0  0  0  0
 48 60  1  0  0  0  0
 49 47  1  0  0  0  0
 50 63  1  0  0  0  0
 50 49  1  0  0  0  0
 51 64  1  0  0  0  0
 51 50  1  0  0  0  0
 52 53  1  0  0  0  0
 52 51  1  0  0  0  0
 53 68  1  6  0  0  0
 53 54  1  0  0  0  0
 54 69  1  0  0  0  0
 55 53  1  0  0  0  0
 55 57  1  0  0  0  0
 56 55  2  0  0  0  0
 58 46  1  0  0  0  0
 61 49  1  0  0  0  0
 62 50  1  0  0  0  0
 65 51  1  0  0  0  0
 66 52  1  0  0  0  0
 67 52  1  0  0  0  0
M  END
$$$$
