WFS.pdb
 OpenBabel07022419183D

 57 59  0  0  1  0  0  0  0  0999 V2000
    0.6540    0.0080    4.4660 N   0  0  0  0  0  0  0  0  0  0  0  0
    0.5880    0.0960    3.0380 C   0  0  1  0  0  0  0  0  0  0  0  0
    1.8470   -0.3730    2.3620 C   0  0  0  0  0  0  0  0  0  0  0  0
    3.0340    0.3910    2.7490 C   0  0  0  0  0  0  0  0  0  0  0  0
    4.0450    0.0150    3.6020 C   0  0  0  0  0  0  0  0  0  0  0  0
    4.9560    1.0090    3.6920 N   0  0  0  0  0  0  0  0  0  0  0  0
    4.5660    2.0480    2.9070 C   0  0  0  0  0  0  0  0  0  0  0  0
    5.1270    3.2800    2.6460 C   0  0  0  0  0  0  0  0  0  0  0  0
    4.4540    4.1160    1.7810 C   0  0  0  0  0  0  0  0  0  0  0  0
    3.2610    3.7560    1.1840 C   0  0  0  0  0  0  0  0  0  0  0  0
    2.7140    2.5160    1.4570 C   0  0  0  0  0  0  0  0  0  0  0  0
    3.3570    1.6560    2.3160 C   0  0  0  0  0  0  0  0  0  0  0  0
   -0.5420   -0.7330    2.4910 C   0  0  0  0  0  0  0  0  0  0  0  0
   -1.2580   -1.3580    3.3130 O   0  0  0  0  0  0  0  0  0  0  0  0
   -0.1550    0.5000    4.8670 H   0  0  0  0  0  0  0  0  0  0  0  0
    1.5690    0.3920    4.7650 H   0  0  0  0  0  0  0  0  0  0  0  0
    0.4100    1.1630    2.7520 H   0  0  0  0  0  0  0  0  0  0  0  0
    1.6590   -0.3630    1.2620 H   0  0  0  0  0  0  0  0  0  0  0  0
    1.9660   -1.4650    2.6200 H   0  0  0  0  0  0  0  0  0  0  0  0
    4.0720   -0.9400    4.1070 H   0  0  0  0  0  0  0  0  0  0  0  0
    5.8320    1.0320    4.2530 H   0  0  0  0  0  0  0  0  0  0  0  0
    6.0740    3.5810    3.1130 H   0  0  0  0  0  0  0  0  0  0  0  0
    4.8870    5.1010    1.5640 H   0  0  0  0  0  0  0  0  0  0  0  0
    2.7220    4.4090    0.5000 H   0  0  0  0  0  0  0  0  0  0  0  0
    1.7850    2.1800    1.0200 H   0  0  0  0  0  0  0  0  0  0  0  0
   -0.8320   -0.8420    1.1200 N   0  0  0  0  0  0  0  0  0  0  0  0
   -1.9300   -1.6500    0.6180 C   0  0  1  0  0  0  0  0  0  0  0  0
   -2.9710   -0.8050   -0.0400 C   0  0  0  0  0  0  0  0  0  0  0  0
   -2.4510   -0.0210   -1.1920 C   0  0  0  0  0  0  0  0  0  0  0  0
   -2.4810   -0.5400   -2.4570 C   0  0  0  0  0  0  0  0  0  0  0  0
   -2.0030    0.1670   -3.5360 C   0  0  0  0  0  0  0  0  0  0  0  0
   -1.4790    1.4290   -3.3560 C   0  0  0  0  0  0  0  0  0  0  0  0
   -1.4570    1.9380   -2.0690 C   0  0  0  0  0  0  0  0  0  0  0  0
   -1.9340    1.2280   -1.0000 C   0  0  0  0  0  0  0  0  0  0  0  0
   -1.4530   -2.7980   -0.1520 C   0  0  0  0  0  0  0  0  0  0  0  0
   -0.2120   -2.9280   -0.3280 O   0  0  0  0  0  0  0  0  0  0  0  0
   -0.2100   -0.3050    0.4560 H   0  0  0  0  0  0  0  0  0  0  0  0
   -2.4310   -2.0850    1.5360 H   0  0  0  0  0  0  0  0  0  0  0  0
   -3.8150   -1.4170   -0.3780 H   0  0  0  0  0  0  0  0  0  0  0  0
   -3.3670   -0.0770    0.6970 H   0  0  0  0  0  0  0  0  0  0  0  0
   -2.8930   -1.5490   -2.6530 H   0  0  0  0  0  0  0  0  0  0  0  0
   -2.0230   -0.2420   -4.5530 H   0  0  0  0  0  0  0  0  0  0  0  0
   -1.0950    2.0020   -4.2120 H   0  0  0  0  0  0  0  0  0  0  0  0
   -1.0360    2.9410   -1.9560 H   0  0  0  0  0  0  0  0  0  0  0  0
   -1.8910    1.6850    0.0010 H   0  0  0  0  0  0  0  0  0  0  0  0
   -3.4900   -6.3840   -0.6440 O   0  0  0  0  0  0  0  0  0  0  0  0
   -2.1140   -6.2280   -0.7630 C   0  0  0  0  0  0  0  0  0  0  0  0
   -1.7720   -4.9180   -1.4710 C   0  0  2  0  0  0  0  0  0  0  0  0
   -2.2970   -3.7890   -0.7190 N   0  0  0  0  0  0  0  0  0  0  0  0
   -2.3660   -4.9970   -2.8290 C   0  0  0  0  0  0  0  0  0  0  0  0
   -1.9860   -5.9250   -3.6250 O   0  0  0  0  0  0  0  0  0  0  0  0
   -3.3110   -4.1460   -3.3290 O   0  0  0  0  0  0  0  0  0  0  0  0
   -3.8740   -6.2380   -1.5480 H   0  0  0  0  0  0  0  0  0  0  0  0
   -1.5910   -6.2010    0.2120 H   0  0  0  0  0  0  0  0  0  0  0  0
   -1.7050   -7.0630   -1.3570 H   0  0  0  0  0  0  0  0  0  0  0  0
   -0.6870   -4.7940   -1.5720 H   0  0  0  0  0  0  0  0  0  0  0  0
   -3.3260   -3.6530   -0.5580 H   0  0  0  0  0  0  0  0  0  0  0  0
  1 16  1  0  0  0  0
  1 15  1  0  0  0  0
  2 17  1  6  0  0  0
  2  1  1  0  0  0  0
  3 19  1  0  0  0  0
  3  4  1  0  0  0  0
  3  2  1  0  0  0  0
  4  5  2  0  0  0  0
  5  6  1  0  0  0  0
  5 20  1  0  0  0  0
  6 21  1  0  0  0  0
  7  6  1  0  0  0  0
  8  7  1  0  0  0  0
  8 22  1  0  0  0  0
  9  8  2  0  0  0  0
 10 11  2  0  0  0  0
 10  9  1  0  0  0  0
 11 12  1  0  0  0  0
 12  4  1  0  0  0  0
 12  7  2  0  0  0  0
 13  2  1  0  0  0  0
 13 14  2  0  0  0  0
 18  3  1  0  0  0  0
 23  9  1  0  0  0  0
 24 10  1  0  0  0  0
 25 11  1  0  0  0  0
 26 13  1  0  0  0  0
 27 26  1  0  0  0  0
 27 38  1  1  0  0  0
 28 27  1  0  0  0  0
 28 40  1  0  0  0  0
 29 34  1  0  0  0  0
 29 28  1  0  0  0  0
 30 29  2  0  0  0  0
 31 32  2  0  0  0  0
 31 30  1  0  0  0  0
 32 33  1  0  0  0  0
 33 44  1  0  0  0  0
 33 34  2  0  0  0  0
 34 45  1  0  0  0  0
 35 27  1  0  0  0  0
 36 35  2  0  0  0  0
 37 26  1  0  0  0  0
 39 28  1  0  0  0  0
 41 30  1  0  0  0  0
 42 31  1  0  0  0  0
 43 32  1  0  0  0  0
 47 46  1  0  0  0  0
 47 54  1  0  0  0  0
 48 56  1  6  0  0  0
 48 47  1  0  0  0  0
 48 49  1  0  0  0  0
 49 57  1  0  0  0  0
 49 35  1  0  0  0  0
 50 48  1  0  0  0  0
 51 50  2  0  0  0  0
 52 50  1  0  0  0  0
 53 46  1  0  0  0  0
 55 47  1  0  0  0  0
M  END
$$$$
