WFY.pdb
 OpenBabel07022419183D

 67 70  0  0  1  0  0  0  0  0999 V2000
    2.0790   -2.4920    1.5500 N   0  0  0  0  0  0  0  0  0  0  0  0
    1.1030   -2.4880    2.5890 C   0  0  1  0  0  0  0  0  0  0  0  0
    1.7640   -2.0520    3.8890 C   0  0  0  0  0  0  0  0  0  0  0  0
    2.3370   -0.7020    3.7970 C   0  0  0  0  0  0  0  0  0  0  0  0
    1.6830    0.4430    4.2350 C   0  0  0  0  0  0  0  0  0  0  0  0
    2.4500    1.5170    3.9660 N   0  0  0  0  0  0  0  0  0  0  0  0
    3.6090    1.1240    3.3560 C   0  0  0  0  0  0  0  0  0  0  0  0
    4.6890    1.8320    2.9010 C   0  0  0  0  0  0  0  0  0  0  0  0
    5.7350    1.1640    2.3260 C   0  0  0  0  0  0  0  0  0  0  0  0
    5.6700   -0.2060    2.2230 C   0  0  0  0  0  0  0  0  0  0  0  0
    4.5870   -0.9230    2.6780 C   0  0  0  0  0  0  0  0  0  0  0  0
    3.5220   -0.2710    3.2580 C   0  0  0  0  0  0  0  0  0  0  0  0
   -0.0500   -1.6020    2.2730 C   0  0  0  0  0  0  0  0  0  0  0  0
   -1.0640   -1.5870    3.0220 O   0  0  0  0  0  0  0  0  0  0  0  0
    1.7080   -2.5370    0.5780 H   0  0  0  0  0  0  0  0  0  0  0  0
    2.7710   -3.2760    1.6480 H   0  0  0  0  0  0  0  0  0  0  0  0
    0.7500   -3.5310    2.7440 H   0  0  0  0  0  0  0  0  0  0  0  0
    1.0430   -2.1830    4.7200 H   0  0  0  0  0  0  0  0  0  0  0  0
    2.6060   -2.7520    4.0800 H   0  0  0  0  0  0  0  0  0  0  0  0
    0.7100    0.4440    4.7160 H   0  0  0  0  0  0  0  0  0  0  0  0
    2.2320    2.5010    4.1740 H   0  0  0  0  0  0  0  0  0  0  0  0
    4.7270    2.8980    2.9870 H   0  0  0  0  0  0  0  0  0  0  0  0
    6.6220    1.7040    1.9500 H   0  0  0  0  0  0  0  0  0  0  0  0
    6.4920   -0.7500    1.7690 H   0  0  0  0  0  0  0  0  0  0  0  0
    4.5500   -2.0180    2.6040 H   0  0  0  0  0  0  0  0  0  0  0  0
   -0.0080   -0.7730    1.1300 N   0  0  0  0  0  0  0  0  0  0  0  0
   -1.0930    0.1270    0.7490 C   0  0  1  0  0  0  0  0  0  0  0  0
   -0.7300    1.5470    1.0890 C   0  0  0  0  0  0  0  0  0  0  0  0
   -1.8070    2.4670    0.7120 C   0  0  0  0  0  0  0  0  0  0  0  0
   -1.8300    3.2060   -0.4610 C   0  0  0  0  0  0  0  0  0  0  0  0
   -2.8540    4.0530   -0.8000 C   0  0  0  0  0  0  0  0  0  0  0  0
   -3.9410    4.1950    0.0620 C   0  0  0  0  0  0  0  0  0  0  0  0
   -3.9160    3.4600    1.2240 C   0  0  0  0  0  0  0  0  0  0  0  0
   -2.8890    2.6140    1.5600 C   0  0  0  0  0  0  0  0  0  0  0  0
   -1.5500   -0.0360   -0.6180 C   0  0  0  0  0  0  0  0  0  0  0  0
   -2.4800    0.6740   -1.0510 O   0  0  0  0  0  0  0  0  0  0  0  0
    0.8110   -0.7510    0.4840 H   0  0  0  0  0  0  0  0  0  0  0  0
   -1.9500   -0.1400    1.4430 H   0  0  0  0  0  0  0  0  0  0  0  0
    0.2200    1.8460    0.5890 H   0  0  0  0  0  0  0  0  0  0  0  0
   -0.6200    1.6260    2.2100 H   0  0  0  0  0  0  0  0  0  0  0  0
   -0.9770    3.0930   -1.1230 H   0  0  0  0  0  0  0  0  0  0  0  0
   -2.8730    4.6260   -1.7050 H   0  0  0  0  0  0  0  0  0  0  0  0
   -4.7770    4.8440   -0.1470 H   0  0  0  0  0  0  0  0  0  0  0  0
   -4.7740    3.5800    1.8880 H   0  0  0  0  0  0  0  0  0  0  0  0
   -2.9250    2.0510    2.5040 H   0  0  0  0  0  0  0  0  0  0  0  0
   -1.0370   -7.3010   -1.3690 O   0  0  0  0  0  0  0  0  0  0  0  0
   -1.4160   -6.0240   -1.7250 C   0  0  0  0  0  0  0  0  0  0  0  0
   -1.9920   -5.1430   -0.8560 C   0  0  0  0  0  0  0  0  0  0  0  0
   -2.3650   -3.8640   -1.2390 C   0  0  0  0  0  0  0  0  0  0  0  0
   -2.1470   -3.4690   -2.5480 C   0  0  0  0  0  0  0  0  0  0  0  0
   -2.5130   -2.1370   -3.0690 C   0  0  0  0  0  0  0  0  0  0  0  0
   -1.3760   -1.1860   -2.8850 C   0  0  2  0  0  0  0  0  0  0  0  0
   -0.9760   -0.9900   -1.5220 N   0  0  0  0  0  0  0  0  0  0  0  0
   -1.5340    0.0820   -3.6590 C   0  0  0  0  0  0  0  0  0  0  0  0
   -1.9410   -0.0070   -4.8470 O   0  0  0  0  0  0  0  0  0  0  0  0
   -1.5580   -4.3600   -3.4510 C   0  0  0  0  0  0  0  0  0  0  0  0
   -1.2010   -5.6190   -3.0360 C   0  0  0  0  0  0  0  0  0  0  0  0
   -1.2700    1.3360   -3.1810 O   0  0  0  0  0  0  0  0  0  0  0  0
   -1.6490   -8.1110   -1.3740 H   0  0  0  0  0  0  0  0  0  0  0  0
   -2.1770   -5.4280    0.1890 H   0  0  0  0  0  0  0  0  0  0  0  0
   -2.8240   -3.1660   -0.5370 H   0  0  0  0  0  0  0  0  0  0  0  0
   -2.8200   -2.1820   -4.1460 H   0  0  0  0  0  0  0  0  0  0  0  0
   -3.4400   -1.7970   -2.5360 H   0  0  0  0  0  0  0  0  0  0  0  0
   -0.4620   -1.6540   -3.3930 H   0  0  0  0  0  0  0  0  0  0  0  0
   -0.1970   -1.5630   -1.0750 H   0  0  0  0  0  0  0  0  0  0  0  0
   -1.3870   -4.0430   -4.4810 H   0  0  0  0  0  0  0  0  0  0  0  0
   -0.7440   -6.2920   -3.7550 H   0  0  0  0  0  0  0  0  0  0  0  0
  1 16  1  0  0  0  0
  1  2  1  0  0  0  0
  2 17  1  1  0  0  0
  2  3  1  0  0  0  0
  3 19  1  0  0  0  0
  3 18  1  0  0  0  0
  4  3  1  0  0  0  0
  4  5  2  0  0  0  0
  5 20  1  0  0  0  0
  6 21  1  0  0  0  0
  6  5  1  0  0  0  0
  7  6  1  0  0  0  0
  8 22  1  0  0  0  0
  8  7  2  0  0  0  0
  9  8  1  0  0  0  0
 10  9  2  0  0  0  0
 10 11  1  0  0  0  0
 11 12  2  0  0  0  0
 12  7  1  0  0  0  0
 12  4  1  0  0  0  0
 13  2  1  0  0  0  0
 13 14  2  0  0  0  0
 15  1  1  0  0  0  0
 23  9  1  0  0  0  0
 24 10  1  0  0  0  0
 25 11  1  0  0  0  0
 26 13  1  0  0  0  0
 27 28  1  0  0  0  0
 27 26  1  0  0  0  0
 27 38  1  1  0  0  0
 28 40  1  0  0  0  0
 29 28  1  0  0  0  0
 29 34  1  0  0  0  0
 30 29  2  0  0  0  0
 31 30  1  0  0  0  0
 31 32  2  0  0  0  0
 32 33  1  0  0  0  0
 33 34  2  0  0  0  0
 33 44  1  0  0  0  0
 34 45  1  0  0  0  0
 35 27  1  0  0  0  0
 36 35  2  0  0  0  0
 37 26  1  0  0  0  0
 39 28  1  0  0  0  0
 41 30  1  0  0  0  0
 42 31  1  0  0  0  0
 43 32  1  0  0  0  0
 47 46  1  0  0  0  0
 47 48  1  0  0  0  0
 48 60  1  0  0  0  0
 49 48  2  0  0  0  0
 49 61  1  0  0  0  0
 50 49  1  0  0  0  0
 51 52  1  0  0  0  0
 51 50  1  0  0  0  0
 51 63  1  0  0  0  0
 52 64  1  6  0  0  0
 52 53  1  0  0  0  0
 53 65  1  0  0  0  0
 53 35  1  0  0  0  0
 54 58  1  0  0  0  0
 54 52  1  0  0  0  0
 55 54  2  0  0  0  0
 56 57  1  0  0  0  0
 56 50  2  0  0  0  0
 57 47  2  0  0  0  0
 59 46  1  0  0  0  0
 62 51  1  0  0  0  0
 66 56  1  0  0  0  0
 67 57  1  0  0  0  0
M  END
$$$$
