WGA.pdb
 OpenBabel07022419163D

 43 44  0  0  1  0  0  0  0  0999 V2000
    3.0000   -2.7570    0.3910 N   0  0  0  0  0  0  0  0  0  0  0  0
    2.1200   -2.6860    1.5090 C   0  0  1  0  0  0  0  0  0  0  0  0
    2.5630   -1.6140    2.4550 C   0  0  0  0  0  0  0  0  0  0  0  0
    2.6140   -0.2590    1.8930 C   0  0  0  0  0  0  0  0  0  0  0  0
    1.6130    0.6800    2.0750 C   0  0  0  0  0  0  0  0  0  0  0  0
    1.9650    1.7930    1.4160 N   0  0  0  0  0  0  0  0  0  0  0  0
    3.1610    1.5870    0.8220 C   0  0  0  0  0  0  0  0  0  0  0  0
    3.9190    2.4450    0.0440 C   0  0  0  0  0  0  0  0  0  0  0  0
    5.1350    2.0140   -0.4600 C   0  0  0  0  0  0  0  0  0  0  0  0
    5.5640    0.7370   -0.1760 C   0  0  0  0  0  0  0  0  0  0  0  0
    4.8080   -0.1280    0.6030 C   0  0  0  0  0  0  0  0  0  0  0  0
    3.5960    0.2980    1.1060 C   0  0  0  0  0  0  0  0  0  0  0  0
    0.7020   -2.5300    1.0780 C   0  0  0  0  0  0  0  0  0  0  0  0
    0.4460   -2.4790   -0.1500 O   0  0  0  0  0  0  0  0  0  0  0  0
    2.5390   -3.0940   -0.4990 H   0  0  0  0  0  0  0  0  0  0  0  0
    3.8400   -3.3100    0.6310 H   0  0  0  0  0  0  0  0  0  0  0  0
    2.2400   -3.6560    2.0770 H   0  0  0  0  0  0  0  0  0  0  0  0
    1.8950   -1.6500    3.3600 H   0  0  0  0  0  0  0  0  0  0  0  0
    3.5690   -1.9020    2.8250 H   0  0  0  0  0  0  0  0  0  0  0  0
    0.7030    0.5710    2.6350 H   0  0  0  0  0  0  0  0  0  0  0  0
    1.3970    2.6630    1.3790 H   0  0  0  0  0  0  0  0  0  0  0  0
    3.5330    3.4390   -0.1470 H   0  0  0  0  0  0  0  0  0  0  0  0
    5.7110    2.7120   -1.0690 H   0  0  0  0  0  0  0  0  0  0  0  0
    6.5170    0.4030   -0.5740 H   0  0  0  0  0  0  0  0  0  0  0  0
    5.1400   -1.1100    0.8300 H   0  0  0  0  0  0  0  0  0  0  0  0
   -0.3820   -2.4350    1.9890 N   0  0  0  0  0  0  0  0  0  0  0  0
   -1.7500   -2.2870    1.5810 C   0  0  0  0  0  0  0  0  0  0  0  0
   -2.0140   -1.0810    0.7900 C   0  0  0  0  0  0  0  0  0  0  0  0
   -1.1640   -0.2120    0.4660 O   0  0  0  0  0  0  0  0  0  0  0  0
   -0.1090   -2.4820    3.0170 H   0  0  0  0  0  0  0  0  0  0  0  0
   -2.0140   -3.2210    1.0060 H   0  0  0  0  0  0  0  0  0  0  0  0
   -2.3910   -2.3460    2.4990 H   0  0  0  0  0  0  0  0  0  0  0  0
   -4.3120   -0.0620   -1.7830 C   0  0  0  0  0  0  0  0  0  0  0  0
   -3.7470    0.2890   -0.4480 C   0  0  2  0  0  0  0  0  0  0  0  0
   -3.3420   -0.8480    0.3350 N   0  0  0  0  0  0  0  0  0  0  0  0
   -4.7330    1.0750    0.3360 C   0  0  0  0  0  0  0  0  0  0  0  0
   -5.2580    2.1380   -0.1240 O   0  0  0  0  0  0  0  0  0  0  0  0
   -5.1520    0.7120    1.6140 O   0  0  0  0  0  0  0  0  0  0  0  0
   -3.8300    0.5490   -2.5810 H   0  0  0  0  0  0  0  0  0  0  0  0
   -5.3840    0.2250   -1.7970 H   0  0  0  0  0  0  0  0  0  0  0  0
   -4.2740   -1.1430   -2.0130 H   0  0  0  0  0  0  0  0  0  0  0  0
   -2.8450    0.9290   -0.5940 H   0  0  0  0  0  0  0  0  0  0  0  0
   -4.1050   -1.5430    0.5740 H   0  0  0  0  0  0  0  0  0  0  0  0
  1 16  1  0  0  0  0
  1  2  1  0  0  0  0
  2 17  1  1  0  0  0
  2  3  1  0  0  0  0
  3 19  1  0  0  0  0
  3 18  1  0  0  0  0
  4  5  2  0  0  0  0
  4  3  1  0  0  0  0
  5 20  1  0  0  0  0
  6  5  1  0  0  0  0
  7 12  1  0  0  0  0
  7  6  1  0  0  0  0
  8  7  2  0  0  0  0
  9 10  2  0  0  0  0
  9  8  1  0  0  0  0
 10 11  1  0  0  0  0
 11 25  1  0  0  0  0
 11 12  2  0  0  0  0
 12  4  1  0  0  0  0
 13  2  1  0  0  0  0
 13 26  1  0  0  0  0
 14 13  2  0  0  0  0
 15  1  1  0  0  0  0
 21  6  1  0  0  0  0
 22  8  1  0  0  0  0
 23  9  1  0  0  0  0
 24 10  1  0  0  0  0
 26 30  1  0  0  0  0
 27 26  1  0  0  0  0
 27 32  1  0  0  0  0
 28 27  1  0  0  0  0
 29 28  2  0  0  0  0
 31 27  1  0  0  0  0
 33 34  1  0  0  0  0
 34 42  1  6  0  0  0
 34 35  1  0  0  0  0
 34 36  1  0  0  0  0
 35 43  1  0  0  0  0
 35 28  1  0  0  0  0
 36 38  1  0  0  0  0
 37 36  2  0  0  0  0
 39 33  1  0  0  0  0
 40 33  1  0  0  0  0
 41 33  1  0  0  0  0
M  END
$$$$
