WGC.pdb
 OpenBabel07022419163D

 44 45  0  0  1  0  0  0  0  0999 V2000
    2.0420   -2.8210    1.9630 N   0  0  0  0  0  0  0  0  0  0  0  0
    2.5730   -1.5270    2.2550 C   0  0  1  0  0  0  0  0  0  0  0  0
    3.6350   -1.1850    1.2510 C   0  0  0  0  0  0  0  0  0  0  0  0
    3.1760   -1.1560   -0.1490 C   0  0  0  0  0  0  0  0  0  0  0  0
    1.9450   -1.5080   -0.6370 C   0  0  0  0  0  0  0  0  0  0  0  0
    1.9810   -1.3310   -1.9680 N   0  0  0  0  0  0  0  0  0  0  0  0
    3.1920   -0.8800   -2.3310 C   0  0  0  0  0  0  0  0  0  0  0  0
    3.7480   -0.5400   -3.5680 C   0  0  0  0  0  0  0  0  0  0  0  0
    5.0570   -0.0890   -3.6610 C   0  0  0  0  0  0  0  0  0  0  0  0
    5.8450    0.0340   -2.5240 C   0  0  0  0  0  0  0  0  0  0  0  0
    5.2840   -0.3050   -1.3060 C   0  0  0  0  0  0  0  0  0  0  0  0
    3.9800   -0.7540   -1.2110 C   0  0  0  0  0  0  0  0  0  0  0  0
    1.5130   -0.5010    2.3740 C   0  0  0  0  0  0  0  0  0  0  0  0
    1.8330    0.7000    2.5570 O   0  0  0  0  0  0  0  0  0  0  0  0
    2.0710   -3.4900    2.7660 H   0  0  0  0  0  0  0  0  0  0  0  0
    2.5570   -3.2800    1.1840 H   0  0  0  0  0  0  0  0  0  0  0  0
    3.0730   -1.6350    3.2750 H   0  0  0  0  0  0  0  0  0  0  0  0
    4.4760   -1.9350    1.2740 H   0  0  0  0  0  0  0  0  0  0  0  0
    4.1440   -0.2180    1.5060 H   0  0  0  0  0  0  0  0  0  0  0  0
    1.0730   -1.8740   -0.0740 H   0  0  0  0  0  0  0  0  0  0  0  0
    1.1830   -1.5160   -2.6450 H   0  0  0  0  0  0  0  0  0  0  0  0
    3.1300   -0.6380   -4.4470 H   0  0  0  0  0  0  0  0  0  0  0  0
    5.4640    0.1660   -4.6260 H   0  0  0  0  0  0  0  0  0  0  0  0
    6.8400    0.3830   -2.6520 H   0  0  0  0  0  0  0  0  0  0  0  0
    5.8990   -0.2100   -0.4160 H   0  0  0  0  0  0  0  0  0  0  0  0
    0.1260   -0.7930    2.2930 N   0  0  0  0  0  0  0  0  0  0  0  0
   -0.8290    0.2820    2.4220 C   0  0  0  0  0  0  0  0  0  0  0  0
   -2.1910   -0.2890    2.3060 C   0  0  0  0  0  0  0  0  0  0  0  0
   -2.3560   -1.5210    2.1320 O   0  0  0  0  0  0  0  0  0  0  0  0
   -0.1930   -1.7750    2.1430 H   0  0  0  0  0  0  0  0  0  0  0  0
   -0.7720    0.7540    3.4440 H   0  0  0  0  0  0  0  0  0  0  0  0
   -0.6570    1.0930    1.6860 H   0  0  0  0  0  0  0  0  0  0  0  0
   -3.3690    0.5110    2.3830 N   0  0  0  0  0  0  0  0  0  0  0  0
   -4.6900   -0.0560    2.2710 C   0  0  1  0  0  0  0  0  0  0  0  0
   -5.5200    0.2140    3.5160 C   0  0  0  0  0  0  0  0  0  0  0  0
   -5.6990    2.0100    3.7800 S   0  0  0  0  0  0  0  0  0  0  0  0
   -5.4140    0.4700    1.0780 C   0  0  0  0  0  0  0  0  0  0  0  0
   -4.9270    1.3000    0.2890 O   0  0  0  0  0  0  0  0  0  0  0  0
   -6.7000    0.0100    0.8340 O   0  0  0  0  0  0  0  0  0  0  0  0
   -3.2660    1.5380    2.5240 H   0  0  0  0  0  0  0  0  0  0  0  0
   -4.6440   -1.1570    2.1490 H   0  0  0  0  0  0  0  0  0  0  0  0
   -6.5120   -0.2520    3.3460 H   0  0  0  0  0  0  0  0  0  0  0  0
   -4.9970   -0.2340    4.3880 H   0  0  0  0  0  0  0  0  0  0  0  0
   -5.1730    2.6800    2.6540 H   0  0  0  0  0  0  0  0  0  0  0  0
  1  2  1  0  0  0  0
  1 15  1  0  0  0  0
  2 13  1  0  0  0  0
  2 17  1  1  0  0  0
  3 18  1  0  0  0  0
  3 19  1  0  0  0  0
  3  2  1  0  0  0  0
  4  3  1  0  0  0  0
  5  4  2  0  0  0  0
  5 20  1  0  0  0  0
  6  5  1  0  0  0  0
  7  6  1  0  0  0  0
  7 12  1  0  0  0  0
  8  7  2  0  0  0  0
  9  8  1  0  0  0  0
  9 10  2  0  0  0  0
 10 11  1  0  0  0  0
 11 12  2  0  0  0  0
 11 25  1  0  0  0  0
 12  4  1  0  0  0  0
 13 14  2  0  0  0  0
 16  1  1  0  0  0  0
 21  6  1  0  0  0  0
 22  8  1  0  0  0  0
 23  9  1  0  0  0  0
 24 10  1  0  0  0  0
 26 13  1  0  0  0  0
 26 27  1  0  0  0  0
 27 31  1  0  0  0  0
 28 33  1  0  0  0  0
 28 27  1  0  0  0  0
 29 28  2  0  0  0  0
 30 26  1  0  0  0  0
 32 27  1  0  0  0  0
 33 40  1  0  0  0  0
 34 41  1  6  0  0  0
 34 33  1  0  0  0  0
 34 35  1  0  0  0  0
 35 36  1  0  0  0  0
 35 43  1  0  0  0  0
 37 34  1  0  0  0  0
 38 37  2  0  0  0  0
 39 37  1  0  0  0  0
 42 35  1  0  0  0  0
 44 36  1  0  0  0  0
M  END
$$$$
