WGF.pdb
 OpenBabel07022419163D

 53 55  0  0  1  0  0  0  0  0999 V2000
    2.6220    0.0550   -0.7310 N   0  0  0  0  0  0  0  0  0  0  0  0
    2.0530   -0.7910    0.2850 C   0  0  1  0  0  0  0  0  0  0  0  0
    2.8910   -0.9830    1.5010 C   0  0  0  0  0  0  0  0  0  0  0  0
    3.2300    0.2330    2.2450 C   0  0  0  0  0  0  0  0  0  0  0  0
    2.6220    0.7100    3.3830 C   0  0  0  0  0  0  0  0  0  0  0  0
    3.2000    1.8610    3.7540 N   0  0  0  0  0  0  0  0  0  0  0  0
    4.1850    2.1370    2.8620 C   0  0  0  0  0  0  0  0  0  0  0  0
    5.0900    3.1990    2.7820 C   0  0  0  0  0  0  0  0  0  0  0  0
    6.0350    3.2980    1.7860 C   0  0  0  0  0  0  0  0  0  0  0  0
    6.0440    2.2820    0.8580 C   0  0  0  0  0  0  0  0  0  0  0  0
    5.1610    1.2080    0.9010 C   0  0  0  0  0  0  0  0  0  0  0  0
    4.2140    1.1320    1.9180 C   0  0  0  0  0  0  0  0  0  0  0  0
    0.6850   -0.2780    0.5930 C   0  0  0  0  0  0  0  0  0  0  0  0
    0.2150    0.7350    0.0060 O   0  0  0  0  0  0  0  0  0  0  0  0
    2.9930   -0.4320   -1.5510 H   0  0  0  0  0  0  0  0  0  0  0  0
    2.0470    0.8950   -0.9280 H   0  0  0  0  0  0  0  0  0  0  0  0
    1.9830   -1.8130   -0.2000 H   0  0  0  0  0  0  0  0  0  0  0  0
    3.8470   -1.4800    1.1670 H   0  0  0  0  0  0  0  0  0  0  0  0
    2.4440   -1.7410    2.1990 H   0  0  0  0  0  0  0  0  0  0  0  0
    1.7910    0.2660    3.9450 H   0  0  0  0  0  0  0  0  0  0  0  0
    2.9940    2.4910    4.5630 H   0  0  0  0  0  0  0  0  0  0  0  0
    5.0580    3.9820    3.5280 H   0  0  0  0  0  0  0  0  0  0  0  0
    6.7430    4.1110    1.7070 H   0  0  0  0  0  0  0  0  0  0  0  0
    6.7740    2.3050    0.0410 H   0  0  0  0  0  0  0  0  0  0  0  0
    5.1770    0.4190    0.1850 H   0  0  0  0  0  0  0  0  0  0  0  0
   -0.1620   -0.8910    1.5540 N   0  0  0  0  0  0  0  0  0  0  0  0
   -1.4940   -0.4320    1.8680 C   0  0  0  0  0  0  0  0  0  0  0  0
   -2.4490   -0.5110    0.7380 C   0  0  0  0  0  0  0  0  0  0  0  0
   -3.6100   -0.0700    0.9730 O   0  0  0  0  0  0  0  0  0  0  0  0
    0.1980   -1.7250    2.0650 H   0  0  0  0  0  0  0  0  0  0  0  0
   -1.8790   -0.9780    2.7660 H   0  0  0  0  0  0  0  0  0  0  0  0
   -1.4800    0.6430    2.2040 H   0  0  0  0  0  0  0  0  0  0  0  0
   -2.1850   -1.0230   -0.5460 N   0  0  0  0  0  0  0  0  0  0  0  0
   -3.0990   -1.1070   -1.6470 C   0  0  1  0  0  0  0  0  0  0  0  0
   -4.4640   -1.6740   -1.2990 C   0  0  0  0  0  0  0  0  0  0  0  0
   -4.3890   -3.0620   -0.7870 C   0  0  0  0  0  0  0  0  0  0  0  0
   -4.2940   -3.4300    0.5250 C   0  0  0  0  0  0  0  0  0  0  0  0
   -4.2200   -4.7600    0.9190 C   0  0  0  0  0  0  0  0  0  0  0  0
   -4.2400   -5.7820    0.0020 C   0  0  0  0  0  0  0  0  0  0  0  0
   -4.3360   -5.4290   -1.3260 C   0  0  0  0  0  0  0  0  0  0  0  0
   -4.4080   -4.1140   -1.7110 C   0  0  0  0  0  0  0  0  0  0  0  0
   -3.1800    0.1230   -2.4420 C   0  0  0  0  0  0  0  0  0  0  0  0
   -3.9480    0.1580   -3.4340 O   0  0  0  0  0  0  0  0  0  0  0  0
   -2.4460    1.2620   -2.1560 O   0  0  0  0  0  0  0  0  0  0  0  0
   -1.2020   -1.3900   -0.6850 H   0  0  0  0  0  0  0  0  0  0  0  0
   -2.6680   -1.9450   -2.3090 H   0  0  0  0  0  0  0  0  0  0  0  0
   -5.0550   -1.7050   -2.2490 H   0  0  0  0  0  0  0  0  0  0  0  0
   -4.9770   -1.0390   -0.5900 H   0  0  0  0  0  0  0  0  0  0  0  0
   -4.2830   -2.6530    1.2890 H   0  0  0  0  0  0  0  0  0  0  0  0
   -4.1450   -5.0150    1.9630 H   0  0  0  0  0  0  0  0  0  0  0  0
   -4.1830   -6.8250    0.3050 H   0  0  0  0  0  0  0  0  0  0  0  0
   -4.3520   -6.2480   -2.0620 H   0  0  0  0  0  0  0  0  0  0  0  0
   -4.4830   -3.8550   -2.7580 H   0  0  0  0  0  0  0  0  0  0  0  0
  1  2  1  0  0  0  0
  2 17  1  6  0  0  0
  2 13  1  0  0  0  0
  2  3  1  0  0  0  0
  3 19  1  0  0  0  0
  3  4  1  0  0  0  0
  4  5  2  0  0  0  0
  5  6  1  0  0  0  0
  5 20  1  0  0  0  0
  6 21  1  0  0  0  0
  7  6  1  0  0  0  0
  8  7  1  0  0  0  0
  8 22  1  0  0  0  0
  9  8  2  0  0  0  0
 10 11  2  0  0  0  0
 10  9  1  0  0  0  0
 11 12  1  0  0  0  0
 12  4  1  0  0  0  0
 12  7  2  0  0  0  0
 13 26  1  0  0  0  0
 14 13  2  0  0  0  0
 15  1  1  0  0  0  0
 16  1  1  0  0  0  0
 18  3  1  0  0  0  0
 23  9  1  0  0  0  0
 24 10  1  0  0  0  0
 25 11  1  0  0  0  0
 26 27  1  0  0  0  0
 26 30  1  0  0  0  0
 27 32  1  0  0  0  0
 27 31  1  0  0  0  0
 28 29  2  0  0  0  0
 28 27  1  0  0  0  0
 33 28  1  0  0  0  0
 34 46  1  6  0  0  0
 34 35  1  0  0  0  0
 34 33  1  0  0  0  0
 35 36  1  0  0  0  0
 35 48  1  0  0  0  0
 36 37  1  0  0  0  0
 37 38  2  0  0  0  0
 37 49  1  0  0  0  0
 38 50  1  0  0  0  0
 39 51  1  0  0  0  0
 39 38  1  0  0  0  0
 40 39  2  0  0  0  0
 41 40  1  0  0  0  0
 41 36  2  0  0  0  0
 42 44  1  0  0  0  0
 42 34  1  0  0  0  0
 43 42  2  0  0  0  0
 45 33  1  0  0  0  0
 47 35  1  0  0  0  0
 52 40  1  0  0  0  0
 53 41  1  0  0  0  0
M  END
$$$$
