WGG.pdb
 OpenBabel07022419163D

 40 41  0  0  1  0  0  0  0  0999 V2000
    1.3390   -3.3430    1.6320 N   0  0  0  0  0  0  0  0  0  0  0  0
    2.2560   -2.8560    0.6080 C   0  0  1  0  0  0  0  0  0  0  0  0
    1.7840   -3.3450   -0.7440 C   0  0  0  0  0  0  0  0  0  0  0  0
    0.4060   -2.8890   -1.0710 C   0  0  0  0  0  0  0  0  0  0  0  0
   -0.7680   -3.6320   -0.8710 C   0  0  0  0  0  0  0  0  0  0  0  0
   -1.8500   -2.9310   -1.2330 N   0  0  0  0  0  0  0  0  0  0  0  0
   -1.4090   -1.7330   -1.6700 C   0  0  0  0  0  0  0  0  0  0  0  0
   -2.1360   -0.6650   -2.1560 C   0  0  0  0  0  0  0  0  0  0  0  0
   -1.4880    0.4710   -2.5620 C   0  0  0  0  0  0  0  0  0  0  0  0
   -0.1290    0.5180   -2.4750 C   0  0  0  0  0  0  0  0  0  0  0  0
    0.6260   -0.5520   -1.9860 C   0  0  0  0  0  0  0  0  0  0  0  0
   -0.0270   -1.6870   -1.5800 C   0  0  0  0  0  0  0  0  0  0  0  0
    2.4440   -1.4030    0.7160 C   0  0  0  0  0  0  0  0  0  0  0  0
    3.3520   -0.7810    0.1050 O   0  0  0  0  0  0  0  0  0  0  0  0
    1.2130   -4.3590    1.5910 H   0  0  0  0  0  0  0  0  0  0  0  0
    1.6450   -3.0110    2.5820 H   0  0  0  0  0  0  0  0  0  0  0  0
    3.2660   -3.3160    0.7570 H   0  0  0  0  0  0  0  0  0  0  0  0
    2.4530   -3.0040   -1.5590 H   0  0  0  0  0  0  0  0  0  0  0  0
    1.7530   -4.4710   -0.7140 H   0  0  0  0  0  0  0  0  0  0  0  0
   -0.7440   -4.6220   -0.4810 H   0  0  0  0  0  0  0  0  0  0  0  0
   -2.8520   -3.2280   -1.1940 H   0  0  0  0  0  0  0  0  0  0  0  0
   -3.2340   -0.7100   -2.2250 H   0  0  0  0  0  0  0  0  0  0  0  0
   -2.1010    1.2930   -2.9380 H   0  0  0  0  0  0  0  0  0  0  0  0
    0.4090    1.4040   -2.7900 H   0  0  0  0  0  0  0  0  0  0  0  0
    1.6840   -0.5190   -1.9320 H   0  0  0  0  0  0  0  0  0  0  0  0
    1.5880   -0.6200    1.5350 N   0  0  0  0  0  0  0  0  0  0  0  0
    1.7020    0.8100    1.6970 C   0  0  0  0  0  0  0  0  0  0  0  0
    0.6530    1.3040    2.6130 C   0  0  0  0  0  0  0  0  0  0  0  0
   -0.1610    0.4780    3.1160 O   0  0  0  0  0  0  0  0  0  0  0  0
    0.8320   -1.1170    2.0490 H   0  0  0  0  0  0  0  0  0  0  0  0
    2.6780    0.9860    2.2300 H   0  0  0  0  0  0  0  0  0  0  0  0
    1.7140    1.3520    0.7310 H   0  0  0  0  0  0  0  0  0  0  0  0
    0.4880    2.6660    2.9770 N   0  0  0  0  0  0  0  0  0  0  0  0
   -0.5540    3.0940    3.8750 C   0  0  0  0  0  0  0  0  0  0  0  0
   -0.4230    2.4470    5.1980 C   0  0  0  0  0  0  0  0  0  0  0  0
    0.5310    1.6460    5.3980 O   0  0  0  0  0  0  0  0  0  0  0  0
   -1.2890    2.6670    6.2410 O   0  0  0  0  0  0  0  0  0  0  0  0
    1.1720    3.3540    2.5530 H   0  0  0  0  0  0  0  0  0  0  0  0
   -0.5310    4.2000    3.9210 H   0  0  0  0  0  0  0  0  0  0  0  0
   -1.5700    2.8250    3.4920 H   0  0  0  0  0  0  0  0  0  0  0  0
  1 16  1  0  0  0  0
  2 13  1  0  0  0  0
  2 17  1  1  0  0  0
  2  1  1  0  0  0  0
  3 19  1  0  0  0  0
  3  2  1  0  0  0  0
  4  5  2  0  0  0  0
  4  3  1  0  0  0  0
  5 20  1  0  0  0  0
  6 21  1  0  0  0  0
  6  5  1  0  0  0  0
  7 12  1  0  0  0  0
  7  6  1  0  0  0  0
  8  7  2  0  0  0  0
  9 10  2  0  0  0  0
  9  8  1  0  0  0  0
 10 11  1  0  0  0  0
 11 25  1  0  0  0  0
 11 12  2  0  0  0  0
 12  4  1  0  0  0  0
 13 26  1  0  0  0  0
 14 13  2  0  0  0  0
 15  1  1  0  0  0  0
 18  3  1  0  0  0  0
 22  8  1  0  0  0  0
 23  9  1  0  0  0  0
 24 10  1  0  0  0  0
 26 27  1  0  0  0  0
 26 30  1  0  0  0  0
 27 31  1  0  0  0  0
 27 28  1  0  0  0  0
 28 33  1  0  0  0  0
 28 29  2  0  0  0  0
 32 27  1  0  0  0  0
 33 34  1  0  0  0  0
 34 39  1  0  0  0  0
 34 35  1  0  0  0  0
 35 36  2  0  0  0  0
 35 37  1  0  0  0  0
 38 33  1  0  0  0  0
 40 34  1  0  0  0  0
M  END
$$$$
