WGI.pdb
 OpenBabel07022419163D

 52 53  0  0  1  0  0  0  0  0999 V2000
    1.4670    1.9420    4.3820 N   0  0  0  0  0  0  0  0  0  0  0  0
    0.8050    1.5900    3.1250 C   0  0  1  0  0  0  0  0  0  0  0  0
    1.4280    2.2750    1.9670 C   0  0  0  0  0  0  0  0  0  0  0  0
    2.8430    2.0140    1.7200 C   0  0  0  0  0  0  0  0  0  0  0  0
    3.8760    2.8220    2.1920 C   0  0  0  0  0  0  0  0  0  0  0  0
    5.0540    2.2980    1.8350 N   0  0  0  0  0  0  0  0  0  0  0  0
    4.8460    1.1600    1.1360 C   0  0  0  0  0  0  0  0  0  0  0  0
    5.7210    0.2660    0.5460 C   0  0  0  0  0  0  0  0  0  0  0  0
    5.2240   -0.8260   -0.1310 C   0  0  0  0  0  0  0  0  0  0  0  0
    3.8470   -1.0080   -0.2070 C   0  0  0  0  0  0  0  0  0  0  0  0
    2.9750   -0.1290    0.3740 C   0  0  0  0  0  0  0  0  0  0  0  0
    3.4590    0.9700    1.0560 C   0  0  0  0  0  0  0  0  0  0  0  0
    0.6980    0.1400    3.0600 C   0  0  0  0  0  0  0  0  0  0  0  0
    1.3120   -0.5780    3.8880 O   0  0  0  0  0  0  0  0  0  0  0  0
    1.1780    1.2160    5.0730 H   0  0  0  0  0  0  0  0  0  0  0  0
    1.1030    2.8660    4.7540 H   0  0  0  0  0  0  0  0  0  0  0  0
   -0.2330    2.0450    3.2310 H   0  0  0  0  0  0  0  0  0  0  0  0
    0.8570    2.0120    1.0260 H   0  0  0  0  0  0  0  0  0  0  0  0
    1.2090    3.3740    2.0860 H   0  0  0  0  0  0  0  0  0  0  0  0
    3.7720    3.7340    2.7600 H   0  0  0  0  0  0  0  0  0  0  0  0
    6.0350    2.6560    2.0310 H   0  0  0  0  0  0  0  0  0  0  0  0
    6.8020    0.4200    0.6130 H   0  0  0  0  0  0  0  0  0  0  0  0
    5.9330   -1.5210   -0.5910 H   0  0  0  0  0  0  0  0  0  0  0  0
    3.5330   -1.8840   -0.7540 H   0  0  0  0  0  0  0  0  0  0  0  0
    1.9200   -0.2640    0.3040 H   0  0  0  0  0  0  0  0  0  0  0  0
   -0.0910   -0.5710    2.0860 N   0  0  0  0  0  0  0  0  0  0  0  0
   -0.0980   -2.0010    2.1660 C   0  0  0  0  0  0  0  0  0  0  0  0
   -0.9240   -2.5920    1.1170 C   0  0  0  0  0  0  0  0  0  0  0  0
   -0.9830   -3.8790    1.1350 O   0  0  0  0  0  0  0  0  0  0  0  0
   -0.6230   -0.0630    1.3680 H   0  0  0  0  0  0  0  0  0  0  0  0
    0.9390   -2.4250    2.1920 H   0  0  0  0  0  0  0  0  0  0  0  0
   -0.5160   -2.3240    3.1690 H   0  0  0  0  0  0  0  0  0  0  0  0
   -6.2100   -2.8970   -1.4600 C   0  0  0  0  0  0  0  0  0  0  0  0
   -4.7310   -3.1800   -1.7620 C   0  0  0  0  0  0  0  0  0  0  0  0
   -3.8790   -2.4060   -0.8110 C   0  0  2  0  0  0  0  0  0  0  0  0
   -4.0970   -0.9130   -0.9200 C   0  0  0  0  0  0  0  0  0  0  0  0
   -2.4390   -2.7900   -0.8760 C   0  0  2  0  0  0  0  0  0  0  0  0
   -1.6600   -1.9870    0.0960 N   0  0  0  0  0  0  0  0  0  0  0  0
   -1.8420   -2.6800   -2.2190 C   0  0  0  0  0  0  0  0  0  0  0  0
   -2.3500   -3.3030   -3.1710 O   0  0  0  0  0  0  0  0  0  0  0  0
   -0.7340   -1.9000   -2.4380 O   0  0  0  0  0  0  0  0  0  0  0  0
   -6.6650   -2.3690   -2.3070 H   0  0  0  0  0  0  0  0  0  0  0  0
   -6.7410   -3.8510   -1.3380 H   0  0  0  0  0  0  0  0  0  0  0  0
   -6.2850   -2.3200   -0.5080 H   0  0  0  0  0  0  0  0  0  0  0  0
   -4.5940   -2.9620   -2.8200 H   0  0  0  0  0  0  0  0  0  0  0  0
   -4.5330   -4.2720   -1.5570 H   0  0  0  0  0  0  0  0  0  0  0  0
   -4.2290   -2.6990    0.2260 H   0  0  0  0  0  0  0  0  0  0  0  0
   -3.2370   -0.4790   -1.4700 H   0  0  0  0  0  0  0  0  0  0  0  0
   -5.0640   -0.7420   -1.4350 H   0  0  0  0  0  0  0  0  0  0  0  0
   -4.1680   -0.4340    0.0760 H   0  0  0  0  0  0  0  0  0  0  0  0
   -2.3620   -3.8700   -0.6020 H   0  0  0  0  0  0  0  0  0  0  0  0
   -1.6670   -0.9540    0.0080 H   0  0  0  0  0  0  0  0  0  0  0  0
  1 16  1  0  0  0  0
  1 15  1  0  0  0  0
  2 17  1  1  0  0  0
  2  1  1  0  0  0  0
  3 19  1  0  0  0  0
  3  2  1  0  0  0  0
  4  3  1  0  0  0  0
  4  5  2  0  0  0  0
  5 20  1  0  0  0  0
  6 21  1  0  0  0  0
  6  5  1  0  0  0  0
  7  6  1  0  0  0  0
  8 22  1  0  0  0  0
  8  7  2  0  0  0  0
  9  8  1  0  0  0  0
 10  9  2  0  0  0  0
 10 11  1  0  0  0  0
 11 12  2  0  0  0  0
 12  7  1  0  0  0  0
 12  4  1  0  0  0  0
 13  2  1  0  0  0  0
 13 14  2  0  0  0  0
 18  3  1  0  0  0  0
 23  9  1  0  0  0  0
 24 10  1  0  0  0  0
 25 11  1  0  0  0  0
 26 27  1  0  0  0  0
 26 13  1  0  0  0  0
 27 31  1  0  0  0  0
 27 32  1  0  0  0  0
 28 29  2  0  0  0  0
 28 27  1  0  0  0  0
 30 26  1  0  0  0  0
 33 43  1  0  0  0  0
 33 44  1  0  0  0  0
 34 46  1  0  0  0  0
 34 33  1  0  0  0  0
 34 35  1  0  0  0  0
 35 47  1  1  0  0  0
 36 35  1  0  0  0  0
 36 50  1  0  0  0  0
 37 35  1  0  0  0  0
 37 51  1  1  0  0  0
 37 38  1  0  0  0  0
 38 28  1  0  0  0  0
 39 37  1  0  0  0  0
 40 39  2  0  0  0  0
 41 39  1  0  0  0  0
 42 33  1  0  0  0  0
 45 34  1  0  0  0  0
 48 36  1  0  0  0  0
 49 36  1  0  0  0  0
 52 38  1  0  0  0  0
M  END
$$$$
