WGK.pdb
 OpenBabel07022419163D

 54 55  0  0  1  0  0  0  0  0999 V2000
    0.9400    2.7810    0.4440 N   0  0  0  0  0  0  0  0  0  0  0  0
    1.0680    1.6470    1.2890 C   0  0  1  0  0  0  0  0  0  0  0  0
    2.3090    1.7280    2.1890 C   0  0  0  0  0  0  0  0  0  0  0  0
    3.5430    1.8110    1.3380 C   0  0  0  0  0  0  0  0  0  0  0  0
    4.3330    2.9100    1.0660 C   0  0  0  0  0  0  0  0  0  0  0  0
    5.3320    2.5310    0.2620 N   0  0  0  0  0  0  0  0  0  0  0  0
    5.2610    1.2170   -0.0300 C   0  0  0  0  0  0  0  0  0  0  0  0
    6.0220    0.3570   -0.7930 C   0  0  0  0  0  0  0  0  0  0  0  0
    5.6930   -0.9750   -0.9080 C   0  0  0  0  0  0  0  0  0  0  0  0
    4.5760   -1.4370   -0.2390 C   0  0  0  0  0  0  0  0  0  0  0  0
    3.8070   -0.5800    0.5280 C   0  0  0  0  0  0  0  0  0  0  0  0
    4.1360    0.7680    0.6470 C   0  0  0  0  0  0  0  0  0  0  0  0
   -0.1270    1.2840    2.0620 C   0  0  0  0  0  0  0  0  0  0  0  0
   -0.0110    0.2830    2.8300 O   0  0  0  0  0  0  0  0  0  0  0  0
    1.7030    3.4630    0.4690 H   0  0  0  0  0  0  0  0  0  0  0  0
    0.5100    2.6170   -0.4720 H   0  0  0  0  0  0  0  0  0  0  0  0
    1.2690    0.7650    0.6090 H   0  0  0  0  0  0  0  0  0  0  0  0
    2.2820    2.6050    2.8420 H   0  0  0  0  0  0  0  0  0  0  0  0
    2.4080    0.8260    2.8040 H   0  0  0  0  0  0  0  0  0  0  0  0
    4.1260    3.8950    1.4680 H   0  0  0  0  0  0  0  0  0  0  0  0
    6.0710    3.1780   -0.0920 H   0  0  0  0  0  0  0  0  0  0  0  0
    6.8960    0.7070   -1.3190 H   0  0  0  0  0  0  0  0  0  0  0  0
    6.2840   -1.6830   -1.5110 H   0  0  0  0  0  0  0  0  0  0  0  0
    4.2930   -2.4690   -0.3090 H   0  0  0  0  0  0  0  0  0  0  0  0
    2.9310   -0.9050    1.0630 H   0  0  0  0  0  0  0  0  0  0  0  0
   -1.3590    1.9490    2.0120 N   0  0  0  0  0  0  0  0  0  0  0  0
   -2.5360    1.5850    2.7620 C   0  0  0  0  0  0  0  0  0  0  0  0
   -2.9760    0.2390    2.3380 C   0  0  0  0  0  0  0  0  0  0  0  0
   -3.9830   -0.2410    2.9520 O   0  0  0  0  0  0  0  0  0  0  0  0
   -1.4320    2.7820    1.3760 H   0  0  0  0  0  0  0  0  0  0  0  0
   -3.3770    2.2920    2.5880 H   0  0  0  0  0  0  0  0  0  0  0  0
   -2.3560    1.5750    3.8560 H   0  0  0  0  0  0  0  0  0  0  0  0
   -2.3950   -0.5320    1.3430 N   0  0  0  0  0  0  0  0  0  0  0  0
   -2.9230   -1.9180    0.9840 C   0  0  1  0  0  0  0  0  0  0  0  0
   -3.4780   -1.7030   -0.3410 C   0  0  0  0  0  0  0  0  0  0  0  0
   -4.1260   -2.5990   -1.2630 C   0  0  0  0  0  0  0  0  0  0  0  0
   -3.5350   -3.6800   -2.0270 C   0  0  0  0  0  0  0  0  0  0  0  0
   -2.8960   -4.8520   -1.3960 C   0  0  0  0  0  0  0  0  0  0  0  0
   -3.8450   -5.5060   -0.5470 N   0  0  0  0  0  0  0  0  0  0  0  0
   -1.8820   -2.8530    1.2870 C   0  0  0  0  0  0  0  0  0  0  0  0
   -0.6630   -2.4700    1.3280 O   0  0  0  0  0  0  0  0  0  0  0  0
   -2.0740   -4.1870    1.5650 O   0  0  0  0  0  0  0  0  0  0  0  0
   -1.6100   -0.2330    0.7870 H   0  0  0  0  0  0  0  0  0  0  0  0
   -3.7930   -2.0430    1.7030 H   0  0  0  0  0  0  0  0  0  0  0  0
   -4.1440   -0.7110   -0.2900 H   0  0  0  0  0  0  0  0  0  0  0  0
   -2.6010   -1.1820   -0.9670 H   0  0  0  0  0  0  0  0  0  0  0  0
   -4.7010   -1.9490   -2.0590 H   0  0  0  0  0  0  0  0  0  0  0  0
   -5.0320   -3.0500   -0.6570 H   0  0  0  0  0  0  0  0  0  0  0  0
   -2.7150   -3.1790   -2.6880 H   0  0  0  0  0  0  0  0  0  0  0  0
   -4.2580   -4.0540   -2.8510 H   0  0  0  0  0  0  0  0  0  0  0  0
   -1.9490   -4.6310   -0.9230 H   0  0  0  0  0  0  0  0  0  0  0  0
   -2.6720   -5.6480   -2.2160 H   0  0  0  0  0  0  0  0  0  0  0  0
   -4.3020   -4.8180    0.0860 H   0  0  0  0  0  0  0  0  0  0  0  0
   -4.5900   -5.9590   -1.1060 H   0  0  0  0  0  0  0  0  0  0  0  0
  1 15  1  0  0  0  0
  1  2  1  0  0  0  0
  2 17  1  6  0  0  0
  2 13  1  0  0  0  0
  2  3  1  0  0  0  0
  3 19  1  0  0  0  0
  3 18  1  0  0  0  0
  4  3  1  0  0  0  0
  5  4  2  0  0  0  0
  5 20  1  0  0  0  0
  6  5  1  0  0  0  0
  7  6  1  0  0  0  0
  7 12  1  0  0  0  0
  8  7  2  0  0  0  0
  9  8  1  0  0  0  0
  9 10  2  0  0  0  0
 10 11  1  0  0  0  0
 11 12  2  0  0  0  0
 11 25  1  0  0  0  0
 12  4  1  0  0  0  0
 13 14  2  0  0  0  0
 16  1  1  0  0  0  0
 21  6  1  0  0  0  0
 22  8  1  0  0  0  0
 23  9  1  0  0  0  0
 24 10  1  0  0  0  0
 26 13  1  0  0  0  0
 26 27  1  0  0  0  0
 27 32  1  0  0  0  0
 28 27  1  0  0  0  0
 28 29  2  0  0  0  0
 30 26  1  0  0  0  0
 31 27  1  0  0  0  0
 33 28  1  0  0  0  0
 34 40  1  0  0  0  0
 34 33  1  0  0  0  0
 34 44  1  1  0  0  0
 35 45  1  0  0  0  0
 35 34  1  0  0  0  0
 36 48  1  0  0  0  0
 36 35  1  0  0  0  0
 37 38  1  0  0  0  0
 37 36  1  0  0  0  0
 38 51  1  0  0  0  0
 38 39  1  0  0  0  0
 39 53  1  0  0  0  0
 40 41  2  0  0  0  0
 40 42  1  0  0  0  0
 43 33  1  0  0  0  0
 46 35  1  0  0  0  0
 47 36  1  0  0  0  0
 49 37  1  0  0  0  0
 50 37  1  0  0  0  0
 52 38  1  0  0  0  0
 54 39  1  0  0  0  0
M  END
$$$$
