WGL.pdb
 OpenBabel07022419163D

 52 53  0  0  1  0  0  0  0  0999 V2000
    0.8540    1.8230    1.8140 N   0  0  0  0  0  0  0  0  0  0  0  0
    1.0730    1.3210    0.4430 C   0  0  1  0  0  0  0  0  0  0  0  0
    2.3830    1.8030   -0.0680 C   0  0  0  0  0  0  0  0  0  0  0  0
    3.5690    1.4330    0.6880 C   0  0  0  0  0  0  0  0  0  0  0  0
    4.2050    2.2540    1.6290 C   0  0  0  0  0  0  0  0  0  0  0  0
    5.2380    1.5810    2.1460 N   0  0  0  0  0  0  0  0  0  0  0  0
    5.3140    0.3540    1.5900 C   0  0  0  0  0  0  0  0  0  0  0  0
    6.2130   -0.6900    1.7990 C   0  0  0  0  0  0  0  0  0  0  0  0
    6.1020   -1.8700    1.1010 C   0  0  0  0  0  0  0  0  0  0  0  0
    5.0720   -1.9750    0.1910 C   0  0  0  0  0  0  0  0  0  0  0  0
    4.1870   -0.9390   -0.0110 C   0  0  0  0  0  0  0  0  0  0  0  0
    4.2760    0.2650    0.6840 C   0  0  0  0  0  0  0  0  0  0  0  0
    0.8300   -0.1290    0.3520 C   0  0  0  0  0  0  0  0  0  0  0  0
    0.7580   -0.7170   -0.7690 O   0  0  0  0  0  0  0  0  0  0  0  0
   -0.1790    1.7750    1.9620 H   0  0  0  0  0  0  0  0  0  0  0  0
    1.1160    2.8370    1.8030 H   0  0  0  0  0  0  0  0  0  0  0  0
    0.2900    1.8880   -0.1550 H   0  0  0  0  0  0  0  0  0  0  0  0
    2.5080    1.5360   -1.1610 H   0  0  0  0  0  0  0  0  0  0  0  0
    2.3040    2.9320   -0.1110 H   0  0  0  0  0  0  0  0  0  0  0  0
    3.9120    3.2680    1.8980 H   0  0  0  0  0  0  0  0  0  0  0  0
    5.9260    1.9060    2.8810 H   0  0  0  0  0  0  0  0  0  0  0  0
    7.0220   -0.6100    2.5120 H   0  0  0  0  0  0  0  0  0  0  0  0
    6.7850   -2.6820    1.2500 H   0  0  0  0  0  0  0  0  0  0  0  0
    4.9490   -2.9010   -0.3890 H   0  0  0  0  0  0  0  0  0  0  0  0
    3.3930   -1.0080   -0.7220 H   0  0  0  0  0  0  0  0  0  0  0  0
    0.6680   -0.9270    1.5040 N   0  0  0  0  0  0  0  0  0  0  0  0
    0.4180   -2.3360    1.3920 C   0  0  0  0  0  0  0  0  0  0  0  0
   -0.8830   -2.5520    0.7290 C   0  0  0  0  0  0  0  0  0  0  0  0
   -1.2870   -3.7510    0.4770 O   0  0  0  0  0  0  0  0  0  0  0  0
    0.7250   -0.5180    2.4690 H   0  0  0  0  0  0  0  0  0  0  0  0
    1.1790   -2.8330    0.7370 H   0  0  0  0  0  0  0  0  0  0  0  0
    0.4560   -2.8510    2.3800 H   0  0  0  0  0  0  0  0  0  0  0  0
   -6.4450   -0.8620    1.1490 C   0  0  0  0  0  0  0  0  0  0  0  0
   -5.5210   -1.4950    0.1010 C   0  0  0  0  0  0  0  0  0  0  0  0
   -5.8230   -2.9980    0.1890 C   0  0  0  0  0  0  0  0  0  0  0  0
   -4.1250   -1.2920    0.5770 C   0  0  0  0  0  0  0  0  0  0  0  0
   -3.0540   -1.8480   -0.3310 C   0  0  2  0  0  0  0  0  0  0  0  0
   -1.7870   -1.5440    0.3210 N   0  0  0  0  0  0  0  0  0  0  0  0
   -3.1140   -1.2930   -1.6950 C   0  0  0  0  0  0  0  0  0  0  0  0
   -4.0700   -1.4250   -2.4700 O   0  0  0  0  0  0  0  0  0  0  0  0
   -2.0030   -0.5600   -2.1460 O   0  0  0  0  0  0  0  0  0  0  0  0
   -6.0440   -1.1760    2.1350 H   0  0  0  0  0  0  0  0  0  0  0  0
   -7.4980   -1.1760    1.0020 H   0  0  0  0  0  0  0  0  0  0  0  0
   -6.3300    0.2390    1.0890 H   0  0  0  0  0  0  0  0  0  0  0  0
   -5.7530   -1.1420   -0.9010 H   0  0  0  0  0  0  0  0  0  0  0  0
   -5.1390   -3.6080   -0.3950 H   0  0  0  0  0  0  0  0  0  0  0  0
   -6.8500   -3.2090   -0.1710 H   0  0  0  0  0  0  0  0  0  0  0  0
   -5.7830   -3.2470    1.2610 H   0  0  0  0  0  0  0  0  0  0  0  0
   -4.0250   -1.8180    1.5600 H   0  0  0  0  0  0  0  0  0  0  0  0
   -3.8860   -0.2260    0.7980 H   0  0  0  0  0  0  0  0  0  0  0  0
   -3.2210   -2.9380   -0.4170 H   0  0  0  0  0  0  0  0  0  0  0  0
   -1.5580   -0.5480    0.5030 H   0  0  0  0  0  0  0  0  0  0  0  0
  1 15  1  0  0  0  0
  2 17  1  6  0  0  0
  2  1  1  0  0  0  0
  3  2  1  0  0  0  0
  3  4  1  0  0  0  0
  4  5  2  0  0  0  0
  5 20  1  0  0  0  0
  5  6  1  0  0  0  0
  6 21  1  0  0  0  0
  7  8  1  0  0  0  0
  7  6  1  0  0  0  0
  8 22  1  0  0  0  0
  9 23  1  0  0  0  0
  9  8  2  0  0  0  0
 10  9  1  0  0  0  0
 11 10  2  0  0  0  0
 11 12  1  0  0  0  0
 12  4  1  0  0  0  0
 12  7  2  0  0  0  0
 13  2  1  0  0  0  0
 13 26  1  0  0  0  0
 14 13  2  0  0  0  0
 16  1  1  0  0  0  0
 18  3  1  0  0  0  0
 19  3  1  0  0  0  0
 24 10  1  0  0  0  0
 25 11  1  0  0  0  0
 26 30  1  0  0  0  0
 27 26  1  0  0  0  0
 27 32  1  0  0  0  0
 28 27  1  0  0  0  0
 29 28  2  0  0  0  0
 31 27  1  0  0  0  0
 33 42  1  0  0  0  0
 34 35  1  0  0  0  0
 34 36  1  0  0  0  0
 34 33  1  0  0  0  0
 35 48  1  0  0  0  0
 36 50  1  0  0  0  0
 36 49  1  0  0  0  0
 37 51  1  6  0  0  0
 37 38  1  0  0  0  0
 37 36  1  0  0  0  0
 38 52  1  0  0  0  0
 38 28  1  0  0  0  0
 39 37  1  0  0  0  0
 40 39  2  0  0  0  0
 41 39  1  0  0  0  0
 43 33  1  0  0  0  0
 44 33  1  0  0  0  0
 45 34  1  0  0  0  0
 46 35  1  0  0  0  0
 47 35  1  0  0  0  0
M  END
$$$$
