WGM.pdb
 OpenBabel07022419163D

 50 51  0  0  1  0  0  0  0  0999 V2000
    0.9550    2.4910    3.7920 N   0  0  0  0  0  0  0  0  0  0  0  0
    0.3760    1.7860    2.6310 C   0  0  1  0  0  0  0  0  0  0  0  0
    0.8920    2.4240    1.3710 C   0  0  0  0  0  0  0  0  0  0  0  0
    2.3360    2.4210    1.1950 C   0  0  0  0  0  0  0  0  0  0  0  0
    3.1620    3.4930    1.5160 C   0  0  0  0  0  0  0  0  0  0  0  0
    4.4110    3.1340    1.2560 N   0  0  0  0  0  0  0  0  0  0  0  0
    4.4710    1.8850    0.7780 C   0  0  0  0  0  0  0  0  0  0  0  0
    5.5520    1.1240    0.3740 C   0  0  0  0  0  0  0  0  0  0  0  0
    5.3600   -0.1560   -0.1000 C   0  0  0  0  0  0  0  0  0  0  0  0
    4.0510   -0.6240   -0.1480 C   0  0  0  0  0  0  0  0  0  0  0  0
    2.9890    0.1490    0.2600 C   0  0  0  0  0  0  0  0  0  0  0  0
    3.1660    1.4320    0.7380 C   0  0  0  0  0  0  0  0  0  0  0  0
    0.5330    0.3440    2.7420 C   0  0  0  0  0  0  0  0  0  0  0  0
    1.2770   -0.1050    3.6790 O   0  0  0  0  0  0  0  0  0  0  0  0
    0.3650    2.1560    4.6120 H   0  0  0  0  0  0  0  0  0  0  0  0
    0.6980    3.4950    3.6670 H   0  0  0  0  0  0  0  0  0  0  0  0
   -0.7170    2.0940    2.6820 H   0  0  0  0  0  0  0  0  0  0  0  0
    0.3730    1.9990    0.4620 H   0  0  0  0  0  0  0  0  0  0  0  0
    0.4910    3.4840    1.3970 H   0  0  0  0  0  0  0  0  0  0  0  0
    2.8460    4.4690    1.9160 H   0  0  0  0  0  0  0  0  0  0  0  0
    5.2730    3.7400    1.3980 H   0  0  0  0  0  0  0  0  0  0  0  0
    6.5790    1.4770    0.4060 H   0  0  0  0  0  0  0  0  0  0  0  0
    6.1950   -0.7620   -0.4210 H   0  0  0  0  0  0  0  0  0  0  0  0
    3.9330   -1.6320   -0.5260 H   0  0  0  0  0  0  0  0  0  0  0  0
    1.9960   -0.2180    0.2070 H   0  0  0  0  0  0  0  0  0  0  0  0
   -0.0680   -0.6180    1.9070 N   0  0  0  0  0  0  0  0  0  0  0  0
    0.1770   -2.0030    2.1470 C   0  0  0  0  0  0  0  0  0  0  0  0
   -0.4930   -2.9240    1.2120 C   0  0  0  0  0  0  0  0  0  0  0  0
   -0.3240   -4.1960    1.3750 O   0  0  0  0  0  0  0  0  0  0  0  0
   -0.6680   -0.2890    1.1460 H   0  0  0  0  0  0  0  0  0  0  0  0
    1.2830   -2.2330    2.1880 H   0  0  0  0  0  0  0  0  0  0  0  0
   -0.1530   -2.3040    3.1970 H   0  0  0  0  0  0  0  0  0  0  0  0
   -6.1310   -1.6270   -0.5860 C   0  0  0  0  0  0  0  0  0  0  0  0
   -5.9390   -3.3330    0.0330 S   0  0  0  0  0  0  0  0  0  0  0  0
   -4.1630   -3.5350    0.4500 C   0  0  0  0  0  0  0  0  0  0  0  0
   -3.4120   -3.4380   -0.8580 C   0  0  0  0  0  0  0  0  0  0  0  0
   -1.9340   -3.5860   -0.7360 C   0  0  2  0  0  0  0  0  0  0  0  0
   -1.3250   -2.5670    0.1230 N   0  0  0  0  0  0  0  0  0  0  0  0
   -1.3530   -3.4470   -2.0890 C   0  0  0  0  0  0  0  0  0  0  0  0
   -0.4930   -2.5690   -2.3150 O   0  0  0  0  0  0  0  0  0  0  0  0
   -1.7700   -4.2960   -3.0970 O   0  0  0  0  0  0  0  0  0  0  0  0
   -6.3210   -1.6320   -1.6920 H   0  0  0  0  0  0  0  0  0  0  0  0
   -6.9860   -1.1880   -0.0190 H   0  0  0  0  0  0  0  0  0  0  0  0
   -5.2500   -0.9970   -0.3500 H   0  0  0  0  0  0  0  0  0  0  0  0
   -4.0430   -4.5030    0.9390 H   0  0  0  0  0  0  0  0  0  0  0  0
   -3.9250   -2.7470    1.1640 H   0  0  0  0  0  0  0  0  0  0  0  0
   -3.6460   -2.5160   -1.3950 H   0  0  0  0  0  0  0  0  0  0  0  0
   -3.7660   -4.3020   -1.4790 H   0  0  0  0  0  0  0  0  0  0  0  0
   -1.6480   -4.5910   -0.3200 H   0  0  0  0  0  0  0  0  0  0  0  0
   -1.4930   -1.5550   -0.0520 H   0  0  0  0  0  0  0  0  0  0  0  0
  1 15  1  0  0  0  0
  2 17  1  1  0  0  0
  2 13  1  0  0  0  0
  2  1  1  0  0  0  0
  3 19  1  0  0  0  0
  3  2  1  0  0  0  0
  4  3  1  0  0  0  0
  4  5  2  0  0  0  0
  5 20  1  0  0  0  0
  6 21  1  0  0  0  0
  6  5  1  0  0  0  0
  7  6  1  0  0  0  0
  8 22  1  0  0  0  0
  8  7  2  0  0  0  0
  9  8  1  0  0  0  0
 10  9  2  0  0  0  0
 10 11  1  0  0  0  0
 11 12  2  0  0  0  0
 12  7  1  0  0  0  0
 12  4  1  0  0  0  0
 13 14  2  0  0  0  0
 16  1  1  0  0  0  0
 18  3  1  0  0  0  0
 23  9  1  0  0  0  0
 24 10  1  0  0  0  0
 25 11  1  0  0  0  0
 26 27  1  0  0  0  0
 26 13  1  0  0  0  0
 27 31  1  0  0  0  0
 27 32  1  0  0  0  0
 28 29  2  0  0  0  0
 28 27  1  0  0  0  0
 30 26  1  0  0  0  0
 33 44  1  0  0  0  0
 33 43  1  0  0  0  0
 33 34  1  0  0  0  0
 34 35  1  0  0  0  0
 35 45  1  0  0  0  0
 35 46  1  0  0  0  0
 36 37  1  0  0  0  0
 36 35  1  0  0  0  0
 37 49  1  1  0  0  0
 37 38  1  0  0  0  0
 38 28  1  0  0  0  0
 39 37  1  0  0  0  0
 40 39  1  0  0  0  0
 41 39  2  0  0  0  0
 42 33  1  0  0  0  0
 47 36  1  0  0  0  0
 48 36  1  0  0  0  0
 50 38  1  0  0  0  0
M  END
$$$$
