WGN.pdb
 OpenBabel07022419163D

 47 48  0  0  1  0  0  0  0  0999 V2000
   -0.6090    1.5680    1.9650 N   0  0  0  0  0  0  0  0  0  0  0  0
   -0.4600    1.1180    0.5720 C   0  0  1  0  0  0  0  0  0  0  0  0
    0.3600    2.0730   -0.2190 C   0  0  0  0  0  0  0  0  0  0  0  0
    1.7320    2.3070    0.2760 C   0  0  0  0  0  0  0  0  0  0  0  0
    2.1010    3.3460    1.0990 C   0  0  0  0  0  0  0  0  0  0  0  0
    3.4000    3.2030    1.3670 N   0  0  0  0  0  0  0  0  0  0  0  0
    3.9030    2.1170    0.7560 C   0  0  0  0  0  0  0  0  0  0  0  0
    5.1890    1.5890    0.7440 C   0  0  0  0  0  0  0  0  0  0  0  0
    5.4090    0.4540    0.0070 C   0  0  0  0  0  0  0  0  0  0  0  0
    4.3890   -0.1250   -0.6860 C   0  0  0  0  0  0  0  0  0  0  0  0
    3.1230    0.3990   -0.6700 C   0  0  0  0  0  0  0  0  0  0  0  0
    2.8470    1.5370    0.0560 C   0  0  0  0  0  0  0  0  0  0  0  0
   -0.0370   -0.2790    0.5490 C   0  0  0  0  0  0  0  0  0  0  0  0
   -0.0030   -0.9760   -0.5040 O   0  0  0  0  0  0  0  0  0  0  0  0
   -1.3990    0.9650    2.3450 H   0  0  0  0  0  0  0  0  0  0  0  0
   -1.0250    2.5470    1.9270 H   0  0  0  0  0  0  0  0  0  0  0  0
   -1.5150    1.2100    0.1660 H   0  0  0  0  0  0  0  0  0  0  0  0
    0.3930    1.7700   -1.3070 H   0  0  0  0  0  0  0  0  0  0  0  0
   -0.2280    3.0400   -0.2570 H   0  0  0  0  0  0  0  0  0  0  0  0
    1.4790    4.1370    1.4710 H   0  0  0  0  0  0  0  0  0  0  0  0
    4.0000    3.8400    1.9770 H   0  0  0  0  0  0  0  0  0  0  0  0
    5.9720    2.0730    1.3030 H   0  0  0  0  0  0  0  0  0  0  0  0
    6.4230    0.0490    0.0050 H   0  0  0  0  0  0  0  0  0  0  0  0
    4.6200   -1.0240   -1.2540 H   0  0  0  0  0  0  0  0  0  0  0  0
    2.3530   -0.0730   -1.2380 H   0  0  0  0  0  0  0  0  0  0  0  0
    0.3710   -0.9440    1.7500 N   0  0  0  0  0  0  0  0  0  0  0  0
    0.7750   -2.3220    1.7030 C   0  0  0  0  0  0  0  0  0  0  0  0
   -0.3610   -3.1700    1.2790 C   0  0  0  0  0  0  0  0  0  0  0  0
   -0.0690   -4.4140    1.1550 O   0  0  0  0  0  0  0  0  0  0  0  0
    0.3720   -0.4180    2.6720 H   0  0  0  0  0  0  0  0  0  0  0  0
    1.6000   -2.4610    0.9680 H   0  0  0  0  0  0  0  0  0  0  0  0
    1.1610   -2.6140    2.7060 H   0  0  0  0  0  0  0  0  0  0  0  0
   -4.2710   -1.2450    1.3570 N   0  0  0  0  0  0  0  0  0  0  0  0
   -4.5340   -2.5280    1.8750 C   0  0  0  0  0  0  0  0  0  0  0  0
   -5.5200   -2.6060    2.6840 O   0  0  0  0  0  0  0  0  0  0  0  0
   -3.8150   -3.7600    1.5930 C   0  0  0  0  0  0  0  0  0  0  0  0
   -2.6970   -3.6600    0.6000 C   0  0  2  0  0  0  0  0  0  0  0  0
   -1.6760   -2.7340    1.0170 N   0  0  0  0  0  0  0  0  0  0  0  0
   -3.2030   -3.4060   -0.7720 C   0  0  0  0  0  0  0  0  0  0  0  0
   -4.1180   -4.1340   -1.1920 O   0  0  0  0  0  0  0  0  0  0  0  0
   -2.7140   -2.4170   -1.5980 O   0  0  0  0  0  0  0  0  0  0  0  0
   -4.2340   -0.3990    1.9650 H   0  0  0  0  0  0  0  0  0  0  0  0
   -4.1110   -1.1420    0.3380 H   0  0  0  0  0  0  0  0  0  0  0  0
   -3.3250   -4.0910    2.5610 H   0  0  0  0  0  0  0  0  0  0  0  0
   -4.4890   -4.6140    1.3330 H   0  0  0  0  0  0  0  0  0  0  0  0
   -2.2230   -4.6960    0.5280 H   0  0  0  0  0  0  0  0  0  0  0  0
   -1.9180   -1.7380    1.1430 H   0  0  0  0  0  0  0  0  0  0  0  0
  1 15  1  0  0  0  0
  2 17  1  6  0  0  0
  2  1  1  0  0  0  0
  3  4  1  0  0  0  0
  3  2  1  0  0  0  0
  4  5  2  0  0  0  0
  5  6  1  0  0  0  0
  5 20  1  0  0  0  0
  6 21  1  0  0  0  0
  7  6  1  0  0  0  0
  8  7  1  0  0  0  0
  8 22  1  0  0  0  0
  9  8  2  0  0  0  0
 10 11  2  0  0  0  0
 10  9  1  0  0  0  0
 11 12  1  0  0  0  0
 12  4  1  0  0  0  0
 12  7  2  0  0  0  0
 13  2  1  0  0  0  0
 13 26  1  0  0  0  0
 14 13  2  0  0  0  0
 16  1  1  0  0  0  0
 18  3  1  0  0  0  0
 19  3  1  0  0  0  0
 23  9  1  0  0  0  0
 24 10  1  0  0  0  0
 25 11  1  0  0  0  0
 26 30  1  0  0  0  0
 27 26  1  0  0  0  0
 27 32  1  0  0  0  0
 28 27  1  0  0  0  0
 29 28  2  0  0  0  0
 31 27  1  0  0  0  0
 33 34  1  0  0  0  0
 33 42  1  0  0  0  0
 34 35  2  0  0  0  0
 36 34  1  0  0  0  0
 36 44  1  0  0  0  0
 37 46  1  6  0  0  0
 37 38  1  0  0  0  0
 37 36  1  0  0  0  0
 38 47  1  0  0  0  0
 38 28  1  0  0  0  0
 39 37  1  0  0  0  0
 40 39  1  0  0  0  0
 41 39  2  0  0  0  0
 43 33  1  0  0  0  0
 45 36  1  0  0  0  0
M  END
$$$$
