WGP.pdb
 OpenBabel07022419163D

 47 49  0  0  1  0  0  0  0  0999 V2000
    2.3700   -3.1520    2.5900 N   0  0  0  0  0  0  0  0  0  0  0  0
    2.3540   -1.9080    1.8680 C   0  0  1  0  0  0  0  0  0  0  0  0
    2.7140   -2.2510    0.4170 C   0  0  0  0  0  0  0  0  0  0  0  0
    2.7290   -1.0410   -0.4340 C   0  0  0  0  0  0  0  0  0  0  0  0
    1.7470   -0.6690   -1.3480 C   0  0  0  0  0  0  0  0  0  0  0  0
    2.1410    0.4880   -1.9110 N   0  0  0  0  0  0  0  0  0  0  0  0
    3.3390    0.8570   -1.3800 C   0  0  0  0  0  0  0  0  0  0  0  0
    4.1710    1.9350   -1.5970 C   0  0  0  0  0  0  0  0  0  0  0  0
    5.3630    2.1000   -0.9250 C   0  0  0  0  0  0  0  0  0  0  0  0
    5.7210    1.1400   -0.0060 C   0  0  0  0  0  0  0  0  0  0  0  0
    4.9200    0.0550    0.2360 C   0  0  0  0  0  0  0  0  0  0  0  0
    3.7210   -0.0830   -0.4590 C   0  0  0  0  0  0  0  0  0  0  0  0
    0.9870   -1.3020    1.9100 C   0  0  0  0  0  0  0  0  0  0  0  0
    0.7820   -0.2040    1.3390 O   0  0  0  0  0  0  0  0  0  0  0  0
    1.7870   -3.8940    2.1950 H   0  0  0  0  0  0  0  0  0  0  0  0
    2.2170   -2.9540    3.6020 H   0  0  0  0  0  0  0  0  0  0  0  0
    3.1250   -1.2530    2.2810 H   0  0  0  0  0  0  0  0  0  0  0  0
    3.7370   -2.7190    0.4780 H   0  0  0  0  0  0  0  0  0  0  0  0
    2.0550   -3.0420    0.0220 H   0  0  0  0  0  0  0  0  0  0  0  0
    0.8250   -1.1800   -1.5950 H   0  0  0  0  0  0  0  0  0  0  0  0
    1.5980    1.0050   -2.6390 H   0  0  0  0  0  0  0  0  0  0  0  0
    3.8720    2.6930   -2.3340 H   0  0  0  0  0  0  0  0  0  0  0  0
    6.0190    2.9410   -1.0890 H   0  0  0  0  0  0  0  0  0  0  0  0
    6.6410    1.2000    0.5600 H   0  0  0  0  0  0  0  0  0  0  0  0
    5.1810   -0.7180    0.9600 H   0  0  0  0  0  0  0  0  0  0  0  0
   -0.1000   -1.9210    2.5750 N   0  0  0  0  0  0  0  0  0  0  0  0
   -1.3930   -1.2750    2.5710 C   0  0  0  0  0  0  0  0  0  0  0  0
   -1.9090   -1.1040    1.1870 C   0  0  0  0  0  0  0  0  0  0  0  0
   -1.1900   -1.5250    0.2440 O   0  0  0  0  0  0  0  0  0  0  0  0
    0.0330   -2.8450    3.0690 H   0  0  0  0  0  0  0  0  0  0  0  0
   -1.2930   -0.2570    3.0420 H   0  0  0  0  0  0  0  0  0  0  0  0
   -2.1170   -1.8290    3.2100 H   0  0  0  0  0  0  0  0  0  0  0  0
   -3.1370   -0.5050    0.8800 N   0  0  0  0  0  0  0  0  0  0  0  0
   -3.6770   -0.3160   -0.4310 C   0  0  0  0  0  0  0  0  0  0  0  0
   -4.3970    1.0130   -0.3480 C   0  0  0  0  0  0  0  0  0  0  0  0
   -5.0580    0.8660    1.0300 C   0  0  0  0  0  0  0  0  0  0  0  0
   -4.0750    0.0240    1.8290 C   0  0  1  0  0  0  0  0  0  0  0  0
   -4.8080   -1.1420    2.4170 C   0  0  0  0  0  0  0  0  0  0  0  0
   -5.7110   -0.9690    3.2900 O   0  0  0  0  0  0  0  0  0  0  0  0
   -4.5430   -2.4520    2.0450 O   0  0  0  0  0  0  0  0  0  0  0  0
   -2.9060   -0.3220   -1.2270 H   0  0  0  0  0  0  0  0  0  0  0  0
   -4.4240   -1.1430   -0.6060 H   0  0  0  0  0  0  0  0  0  0  0  0
   -3.6430    1.8040   -0.3610 H   0  0  0  0  0  0  0  0  0  0  0  0
   -5.1580    1.1320   -1.1300 H   0  0  0  0  0  0  0  0  0  0  0  0
   -5.1910    1.8240    1.5290 H   0  0  0  0  0  0  0  0  0  0  0  0
   -6.0090    0.3280    0.8660 H   0  0  0  0  0  0  0  0  0  0  0  0
   -3.5860    0.6290    2.6250 H   0  0  0  0  0  0  0  0  0  0  0  0
  1 16  1  0  0  0  0
  2 13  1  0  0  0  0
  2 17  1  1  0  0  0
  2  1  1  0  0  0  0
  3 18  1  0  0  0  0
  3  2  1  0  0  0  0
  4  3  1  0  0  0  0
  5  4  2  0  0  0  0
  6  7  1  0  0  0  0
  6  5  1  0  0  0  0
  7 12  1  0  0  0  0
  8  7  2  0  0  0  0
  8  9  1  0  0  0  0
  9 10  2  0  0  0  0
 10 11  1  0  0  0  0
 10 24  1  0  0  0  0
 11 25  1  0  0  0  0
 12  4  1  0  0  0  0
 12 11  2  0  0  0  0
 13 26  1  0  0  0  0
 14 13  2  0  0  0  0
 15  1  1  0  0  0  0
 19  3  1  0  0  0  0
 20  5  1  0  0  0  0
 21  6  1  0  0  0  0
 22  8  1  0  0  0  0
 23  9  1  0  0  0  0
 26 30  1  0  0  0  0
 27 26  1  0  0  0  0
 27 31  1  0  0  0  0
 27 32  1  0  0  0  0
 28 27  1  0  0  0  0
 29 28  2  0  0  0  0
 33 28  1  0  0  0  0
 33 37  1  0  0  0  0
 34 35  1  0  0  0  0
 34 33  1  0  0  0  0
 35 36  1  0  0  0  0
 36 45  1  0  0  0  0
 36 37  1  0  0  0  0
 37 38  1  0  0  0  0
 37 47  1  1  0  0  0
 38 39  1  0  0  0  0
 40 38  2  0  0  0  0
 41 34  1  0  0  0  0
 42 34  1  0  0  0  0
 43 35  1  0  0  0  0
 44 35  1  0  0  0  0
 46 36  1  0  0  0  0
M  END
$$$$
