WGQ.pdb
 OpenBabel07022419163D

 50 51  0  0  1  0  0  0  0  0999 V2000
    1.1150    1.3370    3.1340 N   0  0  0  0  0  0  0  0  0  0  0  0
    0.7330    1.4660    1.7360 C   0  0  1  0  0  0  0  0  0  0  0  0
    1.6340    2.5150    1.1430 C   0  0  0  0  0  0  0  0  0  0  0  0
    3.0370    2.1210    1.2800 C   0  0  0  0  0  0  0  0  0  0  0  0
    3.8940    2.5340    2.2940 C   0  0  0  0  0  0  0  0  0  0  0  0
    5.0770    1.9560    2.1270 N   0  0  0  0  0  0  0  0  0  0  0  0
    5.0560    1.1620    1.0320 C   0  0  0  0  0  0  0  0  0  0  0  0
    6.0080    0.3660    0.4330 C   0  0  0  0  0  0  0  0  0  0  0  0
    5.7470   -0.3540   -0.7030 C   0  0  0  0  0  0  0  0  0  0  0  0
    4.4700   -0.2510   -1.2370 C   0  0  0  0  0  0  0  0  0  0  0  0
    3.5190    0.5380   -0.6470 C   0  0  0  0  0  0  0  0  0  0  0  0
    3.7720    1.2630    0.4930 C   0  0  0  0  0  0  0  0  0  0  0  0
    0.6320    0.2110    1.0120 C   0  0  0  0  0  0  0  0  0  0  0  0
    0.0860    0.2520   -0.1420 O   0  0  0  0  0  0  0  0  0  0  0  0
    0.8900    2.2580    3.5840 H   0  0  0  0  0  0  0  0  0  0  0  0
    0.5280    0.6350    3.6340 H   0  0  0  0  0  0  0  0  0  0  0  0
   -0.3040    1.9330    1.7540 H   0  0  0  0  0  0  0  0  0  0  0  0
    1.3680    2.7330    0.0760 H   0  0  0  0  0  0  0  0  0  0  0  0
    1.4640    3.4450    1.7600 H   0  0  0  0  0  0  0  0  0  0  0  0
    3.6240    3.2190    3.0870 H   0  0  0  0  0  0  0  0  0  0  0  0
    5.9170    2.0850    2.7440 H   0  0  0  0  0  0  0  0  0  0  0  0
    7.0000    0.2930    0.8590 H   0  0  0  0  0  0  0  0  0  0  0  0
    6.5090   -0.9770   -1.1630 H   0  0  0  0  0  0  0  0  0  0  0  0
    4.2950   -0.8390   -2.1460 H   0  0  0  0  0  0  0  0  0  0  0  0
    2.5500    0.6050   -1.0940 H   0  0  0  0  0  0  0  0  0  0  0  0
    1.0860   -1.0430    1.4740 N   0  0  0  0  0  0  0  0  0  0  0  0
    0.9310   -2.2350    0.6910 C   0  0  0  0  0  0  0  0  0  0  0  0
   -0.5010   -2.5640    0.4770 C   0  0  0  0  0  0  0  0  0  0  0  0
   -0.8220   -3.5720   -0.2490 O   0  0  0  0  0  0  0  0  0  0  0  0
    1.5410   -1.0990    2.4040 H   0  0  0  0  0  0  0  0  0  0  0  0
    1.4850   -2.1820   -0.2760 H   0  0  0  0  0  0  0  0  0  0  0  0
    1.3580   -3.1000    1.2750 H   0  0  0  0  0  0  0  0  0  0  0  0
   -7.1170   -2.0080   -0.5650 N   0  0  0  0  0  0  0  0  0  0  0  0
   -5.7710   -1.6420   -0.3380 C   0  0  0  0  0  0  0  0  0  0  0  0
   -5.5090   -0.7450    0.4800 O   0  0  0  0  0  0  0  0  0  0  0  0
   -4.7010   -2.3310   -1.0780 C   0  0  0  0  0  0  0  0  0  0  0  0
   -3.3080   -1.9650   -0.6630 C   0  0  0  0  0  0  0  0  0  0  0  0
   -2.9880   -2.2560    0.7490 C   0  0  2  0  0  0  0  0  0  0  0  0
   -1.5890   -1.8500    1.0200 N   0  0  0  0  0  0  0  0  0  0  0  0
   -3.2140   -3.6310    1.2110 C   0  0  0  0  0  0  0  0  0  0  0  0
   -2.2920   -4.3200    1.7490 O   0  0  0  0  0  0  0  0  0  0  0  0
   -4.4320   -4.2870    1.1050 O   0  0  0  0  0  0  0  0  0  0  0  0
   -7.8550   -1.9060    0.1900 H   0  0  0  0  0  0  0  0  0  0  0  0
   -7.4800   -2.3960   -1.4660 H   0  0  0  0  0  0  0  0  0  0  0  0
   -4.8330   -2.1820   -2.1920 H   0  0  0  0  0  0  0  0  0  0  0  0
   -4.8480   -3.4380   -0.9630 H   0  0  0  0  0  0  0  0  0  0  0  0
   -3.0940   -0.8750   -0.8810 H   0  0  0  0  0  0  0  0  0  0  0  0
   -2.6010   -2.5020   -1.3470 H   0  0  0  0  0  0  0  0  0  0  0  0
   -3.6130   -1.5920    1.4150 H   0  0  0  0  0  0  0  0  0  0  0  0
   -1.3990   -1.0270    1.6380 H   0  0  0  0  0  0  0  0  0  0  0  0
  1 15  1  0  0  0  0
  1 16  1  0  0  0  0
  2 17  1  1  0  0  0
  2  1  1  0  0  0  0
  3  4  1  0  0  0  0
  3  2  1  0  0  0  0
  3 19  1  0  0  0  0
  4  5  2  0  0  0  0
  5 20  1  0  0  0  0
  6  5  1  0  0  0  0
  6 21  1  0  0  0  0
  7  6  1  0  0  0  0
  8 22  1  0  0  0  0
  8  7  2  0  0  0  0
  9  8  1  0  0  0  0
 10  9  2  0  0  0  0
 10 11  1  0  0  0  0
 11 12  2  0  0  0  0
 12  7  1  0  0  0  0
 12  4  1  0  0  0  0
 13 26  1  0  0  0  0
 13  2  1  0  0  0  0
 14 13  2  0  0  0  0
 18  3  1  0  0  0  0
 23  9  1  0  0  0  0
 24 10  1  0  0  0  0
 25 11  1  0  0  0  0
 26 30  1  0  0  0  0
 27 32  1  0  0  0  0
 27 26  1  0  0  0  0
 28 27  1  0  0  0  0
 28 39  1  0  0  0  0
 29 28  2  0  0  0  0
 31 27  1  0  0  0  0
 33 34  1  0  0  0  0
 33 43  1  0  0  0  0
 34 35  2  0  0  0  0
 36 46  1  0  0  0  0
 36 37  1  0  0  0  0
 36 34  1  0  0  0  0
 37 38  1  0  0  0  0
 38 39  1  0  0  0  0
 38 40  1  0  0  0  0
 38 49  1  1  0  0  0
 39 50  1  0  0  0  0
 40 41  1  0  0  0  0
 42 40  2  0  0  0  0
 44 33  1  0  0  0  0
 45 36  1  0  0  0  0
 47 37  1  0  0  0  0
 48 37  1  0  0  0  0
M  END
$$$$
