WGW.pdb
 OpenBabel07022419163D

 57 60  0  0  1  0  0  0  0  0999 V2000
    2.5370   -1.2260    2.6150 N   0  0  0  0  0  0  0  0  0  0  0  0
    1.9050    0.0430    2.8110 C   0  0  1  0  0  0  0  0  0  0  0  0
    2.3480    1.0840    1.8600 C   0  0  0  0  0  0  0  0  0  0  0  0
    3.8110    1.3120    1.9760 C   0  0  0  0  0  0  0  0  0  0  0  0
    4.4410    2.3190    2.7130 C   0  0  0  0  0  0  0  0  0  0  0  0
    5.7620    2.1770    2.6000 N   0  0  0  0  0  0  0  0  0  0  0  0
    6.0160    1.1070    1.8090 C   0  0  0  0  0  0  0  0  0  0  0  0
    7.2290    0.5540    1.3850 C   0  0  0  0  0  0  0  0  0  0  0  0
    7.2270   -0.5500    0.5610 C   0  0  0  0  0  0  0  0  0  0  0  0
    6.0050   -1.0800    0.1770 C   0  0  0  0  0  0  0  0  0  0  0  0
    4.8170   -0.5610    0.5770 C   0  0  0  0  0  0  0  0  0  0  0  0
    4.8190    0.5600    1.4140 C   0  0  0  0  0  0  0  0  0  0  0  0
    0.4490   -0.1260    2.9340 C   0  0  0  0  0  0  0  0  0  0  0  0
   -0.0130   -1.2870    2.8100 O   0  0  0  0  0  0  0  0  0  0  0  0
    2.7380   -1.7360    3.5050 H   0  0  0  0  0  0  0  0  0  0  0  0
    2.0700   -1.8580    1.9610 H   0  0  0  0  0  0  0  0  0  0  0  0
    2.2440    0.3880    3.8360 H   0  0  0  0  0  0  0  0  0  0  0  0
    1.8620    2.0630    2.0530 H   0  0  0  0  0  0  0  0  0  0  0  0
    2.1550    0.8610    0.7950 H   0  0  0  0  0  0  0  0  0  0  0  0
    3.9110    3.0860    3.2810 H   0  0  0  0  0  0  0  0  0  0  0  0
    6.4980    2.7770    3.0370 H   0  0  0  0  0  0  0  0  0  0  0  0
    8.1480    1.0150    1.7200 H   0  0  0  0  0  0  0  0  0  0  0  0
    8.1360   -0.9960    0.2200 H   0  0  0  0  0  0  0  0  0  0  0  0
    5.9740   -1.9570   -0.4770 H   0  0  0  0  0  0  0  0  0  0  0  0
    3.8760   -0.9620    0.2710 H   0  0  0  0  0  0  0  0  0  0  0  0
   -0.4580    0.9330    3.1810 N   0  0  0  0  0  0  0  0  0  0  0  0
   -1.8570    0.7430    3.2850 C   0  0  0  0  0  0  0  0  0  0  0  0
   -2.5360    0.2390    2.0720 C   0  0  0  0  0  0  0  0  0  0  0  0
   -3.7910    0.0440    2.2290 O   0  0  0  0  0  0  0  0  0  0  0  0
   -0.0500    1.8800    3.2870 H   0  0  0  0  0  0  0  0  0  0  0  0
   -2.0810   -0.0120    4.0930 H   0  0  0  0  0  0  0  0  0  0  0  0
   -2.4130    1.6570    3.5990 H   0  0  0  0  0  0  0  0  0  0  0  0
   -1.9110   -0.0180    0.8310 N   0  0  0  0  0  0  0  0  0  0  0  0
   -2.7020   -0.5090   -0.2730 C   0  0  1  0  0  0  0  0  0  0  0  0
   -3.2220   -1.8830    0.0670 C   0  0  0  0  0  0  0  0  0  0  0  0
   -4.0520   -2.4300   -1.0540 C   0  0  0  0  0  0  0  0  0  0  0  0
   -5.4230   -2.5270   -1.1110 C   0  0  0  0  0  0  0  0  0  0  0  0
   -5.8000   -3.0650   -2.2670 N   0  0  0  0  0  0  0  0  0  0  0  0
   -4.6710   -3.3260   -2.9820 C   0  0  0  0  0  0  0  0  0  0  0  0
   -4.5260   -3.8760   -4.2300 C   0  0  0  0  0  0  0  0  0  0  0  0
   -3.2560   -4.0320   -4.7290 C   0  0  0  0  0  0  0  0  0  0  0  0
   -2.1370   -3.6500   -4.0060 C   0  0  0  0  0  0  0  0  0  0  0  0
   -2.2930   -3.1050   -2.7690 C   0  0  0  0  0  0  0  0  0  0  0  0
   -3.5700   -2.9360   -2.2400 C   0  0  0  0  0  0  0  0  0  0  0  0
   -3.8090    0.4510   -0.5130 C   0  0  0  0  0  0  0  0  0  0  0  0
   -4.6890    0.2290   -1.3940 O   0  0  0  0  0  0  0  0  0  0  0  0
   -3.9230    1.6240    0.2120 O   0  0  0  0  0  0  0  0  0  0  0  0
   -0.8800    0.1670    0.7410 H   0  0  0  0  0  0  0  0  0  0  0  0
   -2.0780   -0.5490   -1.2150 H   0  0  0  0  0  0  0  0  0  0  0  0
   -3.8660   -1.8690    0.9560 H   0  0  0  0  0  0  0  0  0  0  0  0
   -2.4150   -2.6060    0.2550 H   0  0  0  0  0  0  0  0  0  0  0  0
   -6.1290   -2.2150   -0.3300 H   0  0  0  0  0  0  0  0  0  0  0  0
   -6.7720   -3.2550   -2.5790 H   0  0  0  0  0  0  0  0  0  0  0  0
   -5.3990   -4.1750   -4.7950 H   0  0  0  0  0  0  0  0  0  0  0  0
   -3.0960   -4.4590   -5.7040 H   0  0  0  0  0  0  0  0  0  0  0  0
   -1.1350   -3.7860   -4.4290 H   0  0  0  0  0  0  0  0  0  0  0  0
   -1.4570   -2.7880   -2.1590 H   0  0  0  0  0  0  0  0  0  0  0  0
  1  2  1  0  0  0  0
  1 15  1  0  0  0  0
  2 13  1  0  0  0  0
  2 17  1  1  0  0  0
  3  4  1  0  0  0  0
  3 18  1  0  0  0  0
  3  2  1  0  0  0  0
  4  5  2  0  0  0  0
  5 20  1  0  0  0  0
  6  5  1  0  0  0  0
  6 21  1  0  0  0  0
  7  6  1  0  0  0  0
  8 22  1  0  0  0  0
  8  7  2  0  0  0  0
  9  8  1  0  0  0  0
 10  9  2  0  0  0  0
 10 11  1  0  0  0  0
 11 12  2  0  0  0  0
 12  7  1  0  0  0  0
 12  4  1  0  0  0  0
 13 26  1  0  0  0  0
 14 13  2  0  0  0  0
 16  1  1  0  0  0  0
 19  3  1  0  0  0  0
 23  9  1  0  0  0  0
 24 10  1  0  0  0  0
 25 11  1  0  0  0  0
 26 27  1  0  0  0  0
 26 30  1  0  0  0  0
 27 32  1  0  0  0  0
 27 31  1  0  0  0  0
 28 29  2  0  0  0  0
 28 27  1  0  0  0  0
 33 28  1  0  0  0  0
 34 49  1  6  0  0  0
 34 35  1  0  0  0  0
 34 33  1  0  0  0  0
 35 51  1  0  0  0  0
 35 50  1  0  0  0  0
 36 35  1  0  0  0  0
 37 36  2  0  0  0  0
 37 52  1  0  0  0  0
 38 37  1  0  0  0  0
 39 38  1  0  0  0  0
 39 44  1  0  0  0  0
 40 39  2  0  0  0  0
 41 40  1  0  0  0  0
 41 42  2  0  0  0  0
 42 43  1  0  0  0  0
 43 44  2  0  0  0  0
 43 57  1  0  0  0  0
 44 36  1  0  0  0  0
 45 34  1  0  0  0  0
 45 47  1  0  0  0  0
 46 45  2  0  0  0  0
 48 33  1  0  0  0  0
 53 38  1  0  0  0  0
 54 40  1  0  0  0  0
 55 41  1  0  0  0  0
 56 42  1  0  0  0  0
M  END
$$$$
