WHA.pdb
 OpenBabel07022419173D

 53 55  0  0  1  0  0  0  0  0999 V2000
    1.9880   -0.3020   -0.8110 N   0  0  0  0  0  0  0  0  0  0  0  0
    2.4910   -1.2830    0.1160 C   0  0  1  0  0  0  0  0  0  0  0  0
    3.5420   -0.7180    1.0370 C   0  0  0  0  0  0  0  0  0  0  0  0
    3.1080    0.3950    1.8740 C   0  0  0  0  0  0  0  0  0  0  0  0
    2.7310    0.3110    3.2040 C   0  0  0  0  0  0  0  0  0  0  0  0
    2.3810    1.5350    3.6200 N   0  0  0  0  0  0  0  0  0  0  0  0
    2.5100    2.4270    2.6230 C   0  0  0  0  0  0  0  0  0  0  0  0
    2.2740    3.7960    2.5820 C   0  0  0  0  0  0  0  0  0  0  0  0
    2.4910    4.5110    1.4230 C   0  0  0  0  0  0  0  0  0  0  0  0
    2.9450    3.8120    0.3290 C   0  0  0  0  0  0  0  0  0  0  0  0
    3.1820    2.4460    0.3640 C   0  0  0  0  0  0  0  0  0  0  0  0
    2.9650    1.7180    1.5310 C   0  0  0  0  0  0  0  0  0  0  0  0
    1.3960   -1.9460    0.8770 C   0  0  0  0  0  0  0  0  0  0  0  0
    1.7150   -2.8040    1.7290 O   0  0  0  0  0  0  0  0  0  0  0  0
    1.3260    0.3270   -0.3060 H   0  0  0  0  0  0  0  0  0  0  0  0
    1.4190   -0.8180   -1.5320 H   0  0  0  0  0  0  0  0  0  0  0  0
    3.0390   -2.0420   -0.5200 H   0  0  0  0  0  0  0  0  0  0  0  0
    4.0400   -1.5340    1.6300 H   0  0  0  0  0  0  0  0  0  0  0  0
    4.3780   -0.3260    0.3850 H   0  0  0  0  0  0  0  0  0  0  0  0
    2.7030   -0.5630    3.8480 H   0  0  0  0  0  0  0  0  0  0  0  0
    2.0510    1.7730    4.5860 H   0  0  0  0  0  0  0  0  0  0  0  0
    1.9170    4.3520    3.4410 H   0  0  0  0  0  0  0  0  0  0  0  0
    2.3230    5.5740    1.3380 H   0  0  0  0  0  0  0  0  0  0  0  0
    3.1160    4.3840   -0.5900 H   0  0  0  0  0  0  0  0  0  0  0  0
    3.5400    1.9430   -0.5010 H   0  0  0  0  0  0  0  0  0  0  0  0
    0.0240   -1.6690    0.7020 N   0  0  0  0  0  0  0  0  0  0  0  0
   -0.9870   -2.3550    1.4820 C   0  0  1  0  0  0  0  0  0  0  0  0
   -1.7690   -1.4070    2.3540 C   0  0  0  0  0  0  0  0  0  0  0  0
   -2.4750   -0.3690    1.5580 C   0  0  0  0  0  0  0  0  0  0  0  0
   -3.7350   -0.4790    1.0580 C   0  0  0  0  0  0  0  0  0  0  0  0
   -4.0370    0.6380    0.4000 N   0  0  0  0  0  0  0  0  0  0  0  0
   -2.9680    1.4470    0.4880 C   0  0  0  0  0  0  0  0  0  0  0  0
   -2.0100    0.8330    1.1970 N   0  0  0  0  0  0  0  0  0  0  0  0
   -1.8750   -3.1760    0.6150 C   0  0  0  0  0  0  0  0  0  0  0  0
   -2.7920   -3.8160    1.1950 O   0  0  0  0  0  0  0  0  0  0  0  0
   -0.2370   -0.9440   -0.0210 H   0  0  0  0  0  0  0  0  0  0  0  0
   -0.4580   -3.0520    2.1640 H   0  0  0  0  0  0  0  0  0  0  0  0
   -1.0420   -0.9060    3.0230 H   0  0  0  0  0  0  0  0  0  0  0  0
   -2.4830   -1.9860    2.9450 H   0  0  0  0  0  0  0  0  0  0  0  0
   -4.3830   -1.3270    1.1720 H   0  0  0  0  0  0  0  0  0  0  0  0
   -4.9490    0.8720   -0.1100 H   0  0  0  0  0  0  0  0  0  0  0  0
   -2.9130    2.4500    0.0400 H   0  0  0  0  0  0  0  0  0  0  0  0
   -3.4320   -3.1080   -2.4830 C   0  0  0  0  0  0  0  0  0  0  0  0
   -2.6500   -4.0950   -1.6070 C   0  0  2  0  0  0  0  0  0  0  0  0
   -1.7760   -3.2910   -0.7760 N   0  0  0  0  0  0  0  0  0  0  0  0
   -1.9250   -5.0430   -2.4530 C   0  0  0  0  0  0  0  0  0  0  0  0
   -0.6790   -5.1080   -2.4240 O   0  0  0  0  0  0  0  0  0  0  0  0
   -2.6190   -5.8810   -3.3000 O   0  0  0  0  0  0  0  0  0  0  0  0
   -4.2980   -3.6070   -2.9630 H   0  0  0  0  0  0  0  0  0  0  0  0
   -3.7470   -2.2270   -1.9160 H   0  0  0  0  0  0  0  0  0  0  0  0
   -2.7730   -2.7510   -3.3030 H   0  0  0  0  0  0  0  0  0  0  0  0
   -3.4130   -4.6120   -0.9890 H   0  0  0  0  0  0  0  0  0  0  0  0
   -1.0220   -2.7660   -1.2690 H   0  0  0  0  0  0  0  0  0  0  0  0
  1 15  1  0  0  0  0
  1  2  1  0  0  0  0
  2 17  1  6  0  0  0
  2 13  1  0  0  0  0
  2  3  1  0  0  0  0
  3 18  1  0  0  0  0
  3  4  1  0  0  0  0
  4  5  2  0  0  0  0
  5  6  1  0  0  0  0
  5 20  1  0  0  0  0
  6 21  1  0  0  0  0
  7  6  1  0  0  0  0
  8  7  1  0  0  0  0
  8 22  1  0  0  0  0
  9  8  2  0  0  0  0
 10 11  2  0  0  0  0
 10  9  1  0  0  0  0
 11 12  1  0  0  0  0
 12  4  1  0  0  0  0
 12  7  2  0  0  0  0
 13 14  2  0  0  0  0
 16  1  1  0  0  0  0
 19  3  1  0  0  0  0
 23  9  1  0  0  0  0
 24 10  1  0  0  0  0
 25 11  1  0  0  0  0
 26 13  1  0  0  0  0
 26 27  1  0  0  0  0
 27 37  1  1  0  0  0
 27 28  1  0  0  0  0
 28 39  1  0  0  0  0
 28 38  1  0  0  0  0
 29 28  1  0  0  0  0
 30 40  1  0  0  0  0
 30 29  2  0  0  0  0
 31 32  1  0  0  0  0
 31 30  1  0  0  0  0
 32 33  2  0  0  0  0
 33 29  1  0  0  0  0
 34 35  2  0  0  0  0
 34 27  1  0  0  0  0
 36 26  1  0  0  0  0
 41 31  1  0  0  0  0
 42 32  1  0  0  0  0
 43 50  1  0  0  0  0
 43 44  1  0  0  0  0
 44 52  1  1  0  0  0
 44 45  1  0  0  0  0
 45 34  1  0  0  0  0
 46 47  1  0  0  0  0
 46 44  1  0  0  0  0
 48 46  2  0  0  0  0
 49 43  1  0  0  0  0
 51 43  1  0  0  0  0
 53 45  1  0  0  0  0
M  END
$$$$
