WHD.pdb
 OpenBabel07022419173D

 56 58  0  0  1  0  0  0  0  0999 V2000
    0.0830    2.6200    0.9260 N   0  0  0  0  0  0  0  0  0  0  0  0
    1.1430    1.6950    1.1390 C   0  0  1  0  0  0  0  0  0  0  0  0
    1.8130    1.9780    2.4590 C   0  0  0  0  0  0  0  0  0  0  0  0
    2.9200    1.0630    2.7500 C   0  0  0  0  0  0  0  0  0  0  0  0
    2.9750   -0.0230    3.6080 C   0  0  0  0  0  0  0  0  0  0  0  0
    4.1940   -0.5870    3.5590 N   0  0  0  0  0  0  0  0  0  0  0  0
    4.9340    0.1250    2.6730 C   0  0  0  0  0  0  0  0  0  0  0  0
    6.2440    0.0100    2.2210 C   0  0  0  0  0  0  0  0  0  0  0  0
    6.7860    0.8820    1.2890 C   0  0  0  0  0  0  0  0  0  0  0  0
    6.0120    1.9030    0.7830 C   0  0  0  0  0  0  0  0  0  0  0  0
    4.7000    2.0430    1.2150 C   0  0  0  0  0  0  0  0  0  0  0  0
    4.1810    1.1610    2.1460 C   0  0  0  0  0  0  0  0  0  0  0  0
    0.6890    0.3220    0.9860 C   0  0  0  0  0  0  0  0  0  0  0  0
    1.4080   -0.7010    1.1280 O   0  0  0  0  0  0  0  0  0  0  0  0
    0.0420    3.3980    1.6130 H   0  0  0  0  0  0  0  0  0  0  0  0
   -0.0130    2.9390   -0.0630 H   0  0  0  0  0  0  0  0  0  0  0  0
    1.9150    1.9160    0.3480 H   0  0  0  0  0  0  0  0  0  0  0  0
    1.0930    1.9150    3.2990 H   0  0  0  0  0  0  0  0  0  0  0  0
    2.1560    3.0410    2.4270 H   0  0  0  0  0  0  0  0  0  0  0  0
    2.1410   -0.3690    4.2360 H   0  0  0  0  0  0  0  0  0  0  0  0
    4.5750   -1.4130    4.0700 H   0  0  0  0  0  0  0  0  0  0  0  0
    6.8520   -0.7850    2.6130 H   0  0  0  0  0  0  0  0  0  0  0  0
    7.8080    0.7750    0.9500 H   0  0  0  0  0  0  0  0  0  0  0  0
    6.3560    2.6240    0.0560 H   0  0  0  0  0  0  0  0  0  0  0  0
    4.0570    2.8330    0.8460 H   0  0  0  0  0  0  0  0  0  0  0  0
   -0.6970    0.0820    0.6420 N   0  0  0  0  0  0  0  0  0  0  0  0
   -1.1850   -1.2750    0.4800 C   0  0  1  0  0  0  0  0  0  0  0  0
   -2.2810   -1.5270    1.4520 C   0  0  0  0  0  0  0  0  0  0  0  0
   -3.4380   -0.6510    1.2400 C   0  0  0  0  0  0  0  0  0  0  0  0
   -3.7800    0.2940    0.3150 C   0  0  0  0  0  0  0  0  0  0  0  0
   -5.0290    0.7960    0.5700 N   0  0  0  0  0  0  0  0  0  0  0  0
   -5.4680    0.1660    1.6530 C   0  0  0  0  0  0  0  0  0  0  0  0
   -4.5430   -0.6930    2.0640 N   0  0  0  0  0  0  0  0  0  0  0  0
   -1.5290   -1.5800   -0.9370 C   0  0  0  0  0  0  0  0  0  0  0  0
   -1.3440   -0.7550   -1.8700 O   0  0  0  0  0  0  0  0  0  0  0  0
   -1.2630    0.9470    0.5390 H   0  0  0  0  0  0  0  0  0  0  0  0
   -0.3310   -1.9700    0.7640 H   0  0  0  0  0  0  0  0  0  0  0  0
   -1.8630   -1.3690    2.5030 H   0  0  0  0  0  0  0  0  0  0  0  0
   -2.5790   -2.6100    1.4880 H   0  0  0  0  0  0  0  0  0  0  0  0
   -3.2150    0.6380   -0.5290 H   0  0  0  0  0  0  0  0  0  0  0  0
   -5.4880    1.5350   -0.0170 H   0  0  0  0  0  0  0  0  0  0  0  0
   -6.4560    0.3810    2.0800 H   0  0  0  0  0  0  0  0  0  0  0  0
   -2.0920   -2.8280   -1.3280 N   0  0  0  0  0  0  0  0  0  0  0  0
   -2.4210   -3.1090   -2.7120 C   0  0  1  0  0  0  0  0  0  0  0  0
   -1.7860   -4.3410   -3.2590 C   0  0  0  0  0  0  0  0  0  0  0  0
   -2.1460   -5.5680   -2.5520 C   0  0  0  0  0  0  0  0  0  0  0  0
   -2.9330   -5.5130   -1.5770 O   0  0  0  0  0  0  0  0  0  0  0  0
   -3.9090   -3.2450   -2.7970 C   0  0  0  0  0  0  0  0  0  0  0  0
   -4.6510   -3.1200   -1.7950 O   0  0  0  0  0  0  0  0  0  0  0  0
   -1.6520   -6.8100   -2.9130 O   0  0  0  0  0  0  0  0  0  0  0  0
   -4.5230   -3.5190   -4.0180 O   0  0  0  0  0  0  0  0  0  0  0  0
   -2.2550   -3.5250   -0.5710 H   0  0  0  0  0  0  0  0  0  0  0  0
   -2.1690   -2.2570   -3.3760 H   0  0  0  0  0  0  0  0  0  0  0  0
   -2.1480   -4.4310   -4.3210 H   0  0  0  0  0  0  0  0  0  0  0  0
   -0.6800   -4.2060   -3.3610 H   0  0  0  0  0  0  0  0  0  0  0  0
   -1.8390   -7.6600   -2.3610 H   0  0  0  0  0  0  0  0  0  0  0  0
  1  2  1  0  0  0  0
  1 15  1  0  0  0  0
  2 17  1  6  0  0  0
  2  3  1  0  0  0  0
  3  4  1  0  0  0  0
  3 18  1  0  0  0  0
  4  5  2  0  0  0  0
  5 20  1  0  0  0  0
  6  5  1  0  0  0  0
  6 21  1  0  0  0  0
  7  6  1  0  0  0  0
  8 22  1  0  0  0  0
  8  7  1  0  0  0  0
  9  8  2  0  0  0  0
 10 11  2  0  0  0  0
 10  9  1  0  0  0  0
 11 12  1  0  0  0  0
 12  7  2  0  0  0  0
 12  4  1  0  0  0  0
 13 14  2  0  0  0  0
 13  2  1  0  0  0  0
 16  1  1  0  0  0  0
 19  3  1  0  0  0  0
 23  9  1  0  0  0  0
 24 10  1  0  0  0  0
 25 11  1  0  0  0  0
 26 13  1  0  0  0  0
 27 26  1  0  0  0  0
 27 37  1  1  0  0  0
 27 28  1  0  0  0  0
 28 39  1  0  0  0  0
 28 38  1  0  0  0  0
 29 28  1  0  0  0  0
 29 33  1  0  0  0  0
 30 31  1  0  0  0  0
 30 29  2  0  0  0  0
 31 32  1  0  0  0  0
 32 33  2  0  0  0  0
 32 42  1  0  0  0  0
 34 27  1  0  0  0  0
 35 34  2  0  0  0  0
 36 26  1  0  0  0  0
 40 30  1  0  0  0  0
 41 31  1  0  0  0  0
 43 34  1  0  0  0  0
 43 52  1  0  0  0  0
 44 53  1  6  0  0  0
 44 43  1  0  0  0  0
 45 44  1  0  0  0  0
 45 46  1  0  0  0  0
 46 47  2  0  0  0  0
 48 44  1  0  0  0  0
 48 49  1  0  0  0  0
 50 46  1  0  0  0  0
 50 56  1  0  0  0  0
 51 48  2  0  0  0  0
 54 45  1  0  0  0  0
 55 45  1  0  0  0  0
M  END
$$$$
