WHF.pdb
 OpenBabel07022419173D

 63 66  0  0  1  0  0  0  0  0999 V2000
    1.0310    0.5050    5.6870 N   0  0  0  0  0  0  0  0  0  0  0  0
    0.5650    0.7730    4.3120 C   0  0  1  0  0  0  0  0  0  0  0  0
    1.5830    1.6800    3.7030 C   0  0  0  0  0  0  0  0  0  0  0  0
    1.3220    2.0920    2.3200 C   0  0  0  0  0  0  0  0  0  0  0  0
    1.9630    1.6580    1.1830 C   0  0  0  0  0  0  0  0  0  0  0  0
    1.4380    2.2880    0.1230 N   0  0  0  0  0  0  0  0  0  0  0  0
    0.4710    3.1210    0.5570 C   0  0  0  0  0  0  0  0  0  0  0  0
   -0.3870    4.0020   -0.0930 C   0  0  0  0  0  0  0  0  0  0  0  0
   -1.3050    4.7470    0.6510 C   0  0  0  0  0  0  0  0  0  0  0  0
   -1.3760    4.6230    2.0270 C   0  0  0  0  0  0  0  0  0  0  0  0
   -0.5400    3.7620    2.6750 C   0  0  0  0  0  0  0  0  0  0  0  0
    0.3750    3.0190    1.9310 C   0  0  0  0  0  0  0  0  0  0  0  0
    0.5180   -0.5350    3.6210 C   0  0  0  0  0  0  0  0  0  0  0  0
    0.9640   -1.5820    4.2090 O   0  0  0  0  0  0  0  0  0  0  0  0
    0.2790    0.0340    6.2450 H   0  0  0  0  0  0  0  0  0  0  0  0
    1.8600   -0.1270    5.6120 H   0  0  0  0  0  0  0  0  0  0  0  0
   -0.4330    1.2280    4.4040 H   0  0  0  0  0  0  0  0  0  0  0  0
    1.7390    2.6050    4.3330 H   0  0  0  0  0  0  0  0  0  0  0  0
    2.5940    1.1870    3.7240 H   0  0  0  0  0  0  0  0  0  0  0  0
    2.7700    0.9160    1.1590 H   0  0  0  0  0  0  0  0  0  0  0  0
    1.7100    2.1730   -0.8620 H   0  0  0  0  0  0  0  0  0  0  0  0
   -0.3350    4.1030   -1.1720 H   0  0  0  0  0  0  0  0  0  0  0  0
   -1.9550    5.4200    0.1250 H   0  0  0  0  0  0  0  0  0  0  0  0
   -2.0800    5.1910    2.6210 H   0  0  0  0  0  0  0  0  0  0  0  0
   -0.5660    3.6370    3.7540 H   0  0  0  0  0  0  0  0  0  0  0  0
    0.0030   -0.7440    2.3170 N   0  0  0  0  0  0  0  0  0  0  0  0
   -0.0100   -2.0400    1.7320 C   0  0  1  0  0  0  0  0  0  0  0  0
   -1.4280   -2.5440    1.6390 C   0  0  0  0  0  0  0  0  0  0  0  0
   -2.3230   -1.6850    0.8560 C   0  0  0  0  0  0  0  0  0  0  0  0
   -3.6620   -2.0000    0.6750 C   0  0  0  0  0  0  0  0  0  0  0  0
   -4.2320   -1.0430   -0.0640 N   0  0  0  0  0  0  0  0  0  0  0  0
   -3.2710   -0.1480   -0.3420 C   0  0  0  0  0  0  0  0  0  0  0  0
   -2.1120   -0.5380    0.2160 N   0  0  0  0  0  0  0  0  0  0  0  0
    0.7790   -2.1990    0.4950 C   0  0  0  0  0  0  0  0  0  0  0  0
    1.3780   -1.2570   -0.0450 O   0  0  0  0  0  0  0  0  0  0  0  0
   -0.3660    0.0850    1.8080 H   0  0  0  0  0  0  0  0  0  0  0  0
    0.4800   -2.7830    2.4600 H   0  0  0  0  0  0  0  0  0  0  0  0
   -1.8220   -2.5810    2.6750 H   0  0  0  0  0  0  0  0  0  0  0  0
   -1.4430   -3.5840    1.2510 H   0  0  0  0  0  0  0  0  0  0  0  0
   -4.1910   -2.8710    1.0580 H   0  0  0  0  0  0  0  0  0  0  0  0
   -5.2340   -1.0080   -0.3630 H   0  0  0  0  0  0  0  0  0  0  0  0
   -3.3560    0.7650   -0.9200 H   0  0  0  0  0  0  0  0  0  0  0  0
    0.8570   -3.4940   -0.0990 N   0  0  0  0  0  0  0  0  0  0  0  0
    1.5810   -3.8330   -1.2820 C   0  0  1  0  0  0  0  0  0  0  0  0
    1.4830   -2.8810   -2.4400 C   0  0  0  0  0  0  0  0  0  0  0  0
    0.1420   -2.6980   -3.0010 C   0  0  0  0  0  0  0  0  0  0  0  0
   -0.2730   -3.6280   -3.9680 C   0  0  0  0  0  0  0  0  0  0  0  0
   -1.4790   -3.5780   -4.6010 C   0  0  0  0  0  0  0  0  0  0  0  0
   -2.3320   -2.5450   -4.2600 C   0  0  0  0  0  0  0  0  0  0  0  0
   -1.9900   -1.6000   -3.3210 C   0  0  0  0  0  0  0  0  0  0  0  0
   -0.7400   -1.6990   -2.7020 C   0  0  0  0  0  0  0  0  0  0  0  0
    3.0040   -4.1340   -1.0400 C   0  0  0  0  0  0  0  0  0  0  0  0
    3.7480   -4.4470   -2.0030 O   0  0  0  0  0  0  0  0  0  0  0  0
    3.5810   -4.0880    0.2210 O   0  0  0  0  0  0  0  0  0  0  0  0
    0.3070   -4.2480    0.4300 H   0  0  0  0  0  0  0  0  0  0  0  0
    1.0440   -4.7660   -1.6970 H   0  0  0  0  0  0  0  0  0  0  0  0
    1.9750   -1.9060   -2.1990 H   0  0  0  0  0  0  0  0  0  0  0  0
    2.1430   -3.3260   -3.2440 H   0  0  0  0  0  0  0  0  0  0  0  0
    0.4130   -4.4430   -4.2300 H   0  0  0  0  0  0  0  0  0  0  0  0
   -1.8050   -4.2810   -5.3390 H   0  0  0  0  0  0  0  0  0  0  0  0
   -3.3020   -2.4510   -4.7260 H   0  0  0  0  0  0  0  0  0  0  0  0
   -2.6790   -0.7910   -3.0710 H   0  0  0  0  0  0  0  0  0  0  0  0
   -0.4480   -0.9670   -1.9710 H   0  0  0  0  0  0  0  0  0  0  0  0
  1 15  1  0  0  0  0
  2 17  1  1  0  0  0
  2  1  1  0  0  0  0
  3 19  1  0  0  0  0
  3  2  1  0  0  0  0
  3 18  1  0  0  0  0
  4  3  1  0  0  0  0
  5  4  2  0  0  0  0
  6  7  1  0  0  0  0
  6  5  1  0  0  0  0
  7 12  1  0  0  0  0
  8  7  2  0  0  0  0
  8  9  1  0  0  0  0
  9 10  2  0  0  0  0
 10 24  1  0  0  0  0
 10 11  1  0  0  0  0
 11 25  1  0  0  0  0
 12  4  1  0  0  0  0
 12 11  2  0  0  0  0
 13 14  2  0  0  0  0
 13  2  1  0  0  0  0
 16  1  1  0  0  0  0
 20  5  1  0  0  0  0
 21  6  1  0  0  0  0
 22  8  1  0  0  0  0
 23  9  1  0  0  0  0
 26 13  1  0  0  0  0
 27 26  1  0  0  0  0
 27 37  1  1  0  0  0
 28 27  1  0  0  0  0
 28 38  1  0  0  0  0
 29 28  1  0  0  0  0
 30 29  2  0  0  0  0
 30 40  1  0  0  0  0
 31 30  1  0  0  0  0
 32 31  1  0  0  0  0
 32 33  2  0  0  0  0
 33 29  1  0  0  0  0
 34 27  1  0  0  0  0
 35 34  2  0  0  0  0
 36 26  1  0  0  0  0
 39 28  1  0  0  0  0
 41 31  1  0  0  0  0
 42 32  1  0  0  0  0
 43 55  1  0  0  0  0
 43 34  1  0  0  0  0
 44 56  1  6  0  0  0
 44 52  1  0  0  0  0
 44 43  1  0  0  0  0
 45 57  1  0  0  0  0
 45 44  1  0  0  0  0
 46 51  1  0  0  0  0
 46 45  1  0  0  0  0
 47 46  2  0  0  0  0
 48 49  2  0  0  0  0
 48 47  1  0  0  0  0
 49 50  1  0  0  0  0
 50 62  1  0  0  0  0
 50 51  2  0  0  0  0
 51 63  1  0  0  0  0
 52 54  1  0  0  0  0
 53 52  2  0  0  0  0
 58 45  1  0  0  0  0
 59 47  1  0  0  0  0
 60 48  1  0  0  0  0
 61 49  1  0  0  0  0
M  END
$$$$
