WHG.pdb
 OpenBabel07022419173D

 50 52  0  0  1  0  0  0  0  0999 V2000
   -0.2280    2.7150    2.8680 N   0  0  0  0  0  0  0  0  0  0  0  0
   -0.5610    1.9710    1.6360 C   0  0  1  0  0  0  0  0  0  0  0  0
    0.3200    2.5760    0.5650 C   0  0  0  0  0  0  0  0  0  0  0  0
    1.7560    2.4660    0.8970 C   0  0  0  0  0  0  0  0  0  0  0  0
    2.5440    3.4610    1.4850 C   0  0  0  0  0  0  0  0  0  0  0  0
    3.7760    3.0050    1.6670 N   0  0  0  0  0  0  0  0  0  0  0  0
    3.8520    1.7350    1.2210 C   0  0  0  0  0  0  0  0  0  0  0  0
    4.8980    0.8460    1.1830 C   0  0  0  0  0  0  0  0  0  0  0  0
    4.7750   -0.4310    0.6690 C   0  0  0  0  0  0  0  0  0  0  0  0
    3.5210   -0.7590    0.1910 C   0  0  0  0  0  0  0  0  0  0  0  0
    2.4610    0.1180    0.2210 C   0  0  0  0  0  0  0  0  0  0  0  0
    2.6120    1.3880    0.7410 C   0  0  0  0  0  0  0  0  0  0  0  0
   -0.3580    0.5480    1.8950 C   0  0  0  0  0  0  0  0  0  0  0  0
    0.3580    0.1810    2.8590 O   0  0  0  0  0  0  0  0  0  0  0  0
   -0.0110    2.0670    3.6320 H   0  0  0  0  0  0  0  0  0  0  0  0
   -0.9900    3.3670    3.0990 H   0  0  0  0  0  0  0  0  0  0  0  0
   -1.6240    2.2180    1.3950 H   0  0  0  0  0  0  0  0  0  0  0  0
    0.0630    3.6630    0.5310 H   0  0  0  0  0  0  0  0  0  0  0  0
    0.0960    2.1230   -0.4340 H   0  0  0  0  0  0  0  0  0  0  0  0
    2.1560    4.4430    1.7360 H   0  0  0  0  0  0  0  0  0  0  0  0
    4.6080    3.4990    2.0840 H   0  0  0  0  0  0  0  0  0  0  0  0
    5.8850    1.1320    1.5690 H   0  0  0  0  0  0  0  0  0  0  0  0
    5.6070   -1.1290    0.6430 H   0  0  0  0  0  0  0  0  0  0  0  0
    3.3790   -1.7570   -0.2240 H   0  0  0  0  0  0  0  0  0  0  0  0
    1.4960   -0.1330   -0.1590 H   0  0  0  0  0  0  0  0  0  0  0  0
   -0.9420   -0.5080    1.1020 N   0  0  0  0  0  0  0  0  0  0  0  0
   -0.7120   -1.8970    1.4020 C   0  0  1  0  0  0  0  0  0  0  0  0
   -1.8500   -2.4920    2.2020 C   0  0  0  0  0  0  0  0  0  0  0  0
   -3.1580   -2.4480    1.5460 C   0  0  0  0  0  0  0  0  0  0  0  0
   -3.7080   -3.4230    0.7610 C   0  0  0  0  0  0  0  0  0  0  0  0
   -4.9180   -3.0120    0.3660 N   0  0  0  0  0  0  0  0  0  0  0  0
   -5.1520   -1.7970    0.8820 C   0  0  0  0  0  0  0  0  0  0  0  0
   -4.0690   -1.4610    1.6020 N   0  0  0  0  0  0  0  0  0  0  0  0
   -0.2870   -2.7100    0.2510 C   0  0  0  0  0  0  0  0  0  0  0  0
   -0.0280   -3.9290    0.4250 O   0  0  0  0  0  0  0  0  0  0  0  0
   -1.5320   -0.1820    0.3120 H   0  0  0  0  0  0  0  0  0  0  0  0
    0.1560   -1.9000    2.1360 H   0  0  0  0  0  0  0  0  0  0  0  0
   -1.5470   -3.5150    2.5120 H   0  0  0  0  0  0  0  0  0  0  0  0
   -1.8890   -1.9020    3.1600 H   0  0  0  0  0  0  0  0  0  0  0  0
   -3.2180   -4.3510    0.5320 H   0  0  0  0  0  0  0  0  0  0  0  0
   -5.6120   -3.5230   -0.2500 H   0  0  0  0  0  0  0  0  0  0  0  0
   -6.0590   -1.1860    0.7430 H   0  0  0  0  0  0  0  0  0  0  0  0
   -0.1490   -2.1860   -1.0640 N   0  0  0  0  0  0  0  0  0  0  0  0
    0.2750   -2.9370   -2.2170 C   0  0  0  0  0  0  0  0  0  0  0  0
   -0.6430   -4.0570   -2.5010 C   0  0  0  0  0  0  0  0  0  0  0  0
   -0.4120   -4.8150   -3.4740 O   0  0  0  0  0  0  0  0  0  0  0  0
   -1.7420   -4.2910   -1.7320 O   0  0  0  0  0  0  0  0  0  0  0  0
   -0.4010   -1.1550   -1.1410 H   0  0  0  0  0  0  0  0  0  0  0  0
    0.2630   -2.2570   -3.0990 H   0  0  0  0  0  0  0  0  0  0  0  0
    1.3300   -3.2780   -2.1210 H   0  0  0  0  0  0  0  0  0  0  0  0
  1 16  1  0  0  0  0
  1 15  1  0  0  0  0
  2 17  1  6  0  0  0
  2 13  1  0  0  0  0
  2  1  1  0  0  0  0
  3  4  1  0  0  0  0
  3  2  1  0  0  0  0
  4  5  2  0  0  0  0
  5  6  1  0  0  0  0
  5 20  1  0  0  0  0
  6 21  1  0  0  0  0
  7  6  1  0  0  0  0
  8  7  1  0  0  0  0
  8 22  1  0  0  0  0
  9  8  2  0  0  0  0
 10 11  2  0  0  0  0
 10  9  1  0  0  0  0
 11 12  1  0  0  0  0
 12  4  1  0  0  0  0
 12  7  2  0  0  0  0
 13 14  2  0  0  0  0
 18  3  1  0  0  0  0
 19  3  1  0  0  0  0
 23  9  1  0  0  0  0
 24 10  1  0  0  0  0
 25 11  1  0  0  0  0
 26 27  1  0  0  0  0
 26 13  1  0  0  0  0
 27 37  1  1  0  0  0
 27 28  1  0  0  0  0
 28 38  1  0  0  0  0
 28 39  1  0  0  0  0
 29 33  1  0  0  0  0
 29 28  1  0  0  0  0
 30 29  2  0  0  0  0
 31 30  1  0  0  0  0
 31 32  1  0  0  0  0
 32 33  2  0  0  0  0
 34 35  2  0  0  0  0
 34 27  1  0  0  0  0
 36 26  1  0  0  0  0
 40 30  1  0  0  0  0
 41 31  1  0  0  0  0
 42 32  1  0  0  0  0
 43 34  1  0  0  0  0
 44 50  1  0  0  0  0
 44 43  1  0  0  0  0
 45 44  1  0  0  0  0
 45 47  1  0  0  0  0
 46 45  2  0  0  0  0
 48 43  1  0  0  0  0
 49 44  1  0  0  0  0
M  END
$$$$
