WHH.pdb
 OpenBabel07022419173D

 60 63  0  0  1  0  0  0  0  0999 V2000
    2.3780   -0.1320    4.8070 N   0  0  0  0  0  0  0  0  0  0  0  0
    1.8580    0.4160    3.5360 C   0  0  1  0  0  0  0  0  0  0  0  0
    3.0400    0.7190    2.7040 C   0  0  0  0  0  0  0  0  0  0  0  0
    2.8030    1.2810    1.3780 C   0  0  0  0  0  0  0  0  0  0  0  0
    2.8940    0.6910    0.1340 C   0  0  0  0  0  0  0  0  0  0  0  0
    2.5910    1.6000   -0.7970 N   0  0  0  0  0  0  0  0  0  0  0  0
    2.2980    2.7830   -0.2360 C   0  0  0  0  0  0  0  0  0  0  0  0
    1.9340    4.0030   -0.7470 C   0  0  0  0  0  0  0  0  0  0  0  0
    1.6910    5.0620    0.0820 C   0  0  0  0  0  0  0  0  0  0  0  0
    1.8110    4.9090    1.4430 C   0  0  0  0  0  0  0  0  0  0  0  0
    2.1790    3.6690    1.9410 C   0  0  0  0  0  0  0  0  0  0  0  0
    2.4300    2.5870    1.1320 C   0  0  0  0  0  0  0  0  0  0  0  0
    0.9470   -0.6100    2.9850 C   0  0  0  0  0  0  0  0  0  0  0  0
    0.7860   -1.7410    3.5560 O   0  0  0  0  0  0  0  0  0  0  0  0
    1.6220   -0.0580    5.5200 H   0  0  0  0  0  0  0  0  0  0  0  0
    2.5610   -1.1640    4.6400 H   0  0  0  0  0  0  0  0  0  0  0  0
    1.2940    1.3380    3.8570 H   0  0  0  0  0  0  0  0  0  0  0  0
    3.6270   -0.2370    2.5710 H   0  0  0  0  0  0  0  0  0  0  0  0
    3.7310    1.3580    3.3280 H   0  0  0  0  0  0  0  0  0  0  0  0
    3.1620   -0.3260   -0.0700 H   0  0  0  0  0  0  0  0  0  0  0  0
    2.5640    1.4790   -1.8530 H   0  0  0  0  0  0  0  0  0  0  0  0
    1.8390    4.1280   -1.8290 H   0  0  0  0  0  0  0  0  0  0  0  0
    1.4030    6.0320   -0.2960 H   0  0  0  0  0  0  0  0  0  0  0  0
    1.6190    5.7430    2.0880 H   0  0  0  0  0  0  0  0  0  0  0  0
    2.2750    3.5430    3.0110 H   0  0  0  0  0  0  0  0  0  0  0  0
    0.1920   -0.4280    1.8040 N   0  0  0  0  0  0  0  0  0  0  0  0
   -0.7050   -1.4410    1.2680 C   0  0  1  0  0  0  0  0  0  0  0  0
   -2.1470   -0.9960    1.3820 C   0  0  0  0  0  0  0  0  0  0  0  0
   -2.4440    0.2440    0.6800 C   0  0  0  0  0  0  0  0  0  0  0  0
   -2.8590    0.3580   -0.6250 C   0  0  0  0  0  0  0  0  0  0  0  0
   -3.0270    1.6680   -0.9000 N   0  0  0  0  0  0  0  0  0  0  0  0
   -2.7320    2.3770    0.1820 C   0  0  0  0  0  0  0  0  0  0  0  0
   -2.3720    1.5000    1.1570 N   0  0  0  0  0  0  0  0  0  0  0  0
   -0.3210   -1.9600   -0.0400 C   0  0  0  0  0  0  0  0  0  0  0  0
    0.6780   -1.5260   -0.6900 O   0  0  0  0  0  0  0  0  0  0  0  0
    0.2610    0.4550    1.2830 H   0  0  0  0  0  0  0  0  0  0  0  0
   -0.6350   -2.3210    1.9790 H   0  0  0  0  0  0  0  0  0  0  0  0
   -2.3320   -0.8370    2.4770 H   0  0  0  0  0  0  0  0  0  0  0  0
   -2.7740   -1.8430    1.0790 H   0  0  0  0  0  0  0  0  0  0  0  0
   -3.0420   -0.4040   -1.3600 H   0  0  0  0  0  0  0  0  0  0  0  0
   -3.3370    2.0710   -1.8120 H   0  0  0  0  0  0  0  0  0  0  0  0
   -2.7680    3.4550    0.2800 H   0  0  0  0  0  0  0  0  0  0  0  0
   -1.0780   -3.0080   -0.6450 N   0  0  0  0  0  0  0  0  0  0  0  0
   -0.7050   -3.5250   -1.9240 C   0  0  1  0  0  0  0  0  0  0  0  0
   -0.1760   -4.9460   -1.8290 C   0  0  0  0  0  0  0  0  0  0  0  0
   -1.1630   -5.8790   -1.2710 C   0  0  0  0  0  0  0  0  0  0  0  0
   -1.3090   -6.1690    0.0570 C   0  0  0  0  0  0  0  0  0  0  0  0
   -2.2990   -7.0520    0.1920 N   0  0  0  0  0  0  0  0  0  0  0  0
   -2.7770   -7.3230   -1.0290 C   0  0  0  0  0  0  0  0  0  0  0  0
   -2.0830   -6.6050   -1.9260 N   0  0  0  0  0  0  0  0  0  0  0  0
   -1.8440   -3.4330   -2.8550 C   0  0  0  0  0  0  0  0  0  0  0  0
   -1.7770   -3.8030   -4.0620 O   0  0  0  0  0  0  0  0  0  0  0  0
   -3.0470   -2.9210   -2.4060 O   0  0  0  0  0  0  0  0  0  0  0  0
   -1.8940   -3.3770   -0.1380 H   0  0  0  0  0  0  0  0  0  0  0  0
    0.1410   -2.9360   -2.3600 H   0  0  0  0  0  0  0  0  0  0  0  0
    0.7750   -4.9490   -1.2800 H   0  0  0  0  0  0  0  0  0  0  0  0
    0.0350   -5.2600   -2.8810 H   0  0  0  0  0  0  0  0  0  0  0  0
   -0.7200   -5.7500    0.8600 H   0  0  0  0  0  0  0  0  0  0  0  0
   -2.6620   -7.4820    1.1060 H   0  0  0  0  0  0  0  0  0  0  0  0
   -3.5940   -8.0150   -1.2250 H   0  0  0  0  0  0  0  0  0  0  0  0
  1 15  1  0  0  0  0
  2 17  1  1  0  0  0
  2  1  1  0  0  0  0
  3 19  1  0  0  0  0
  3  2  1  0  0  0  0
  4  3  1  0  0  0  0
  5  4  2  0  0  0  0
  6  7  1  0  0  0  0
  6  5  1  0  0  0  0
  7 12  1  0  0  0  0
  8  7  2  0  0  0  0
  8  9  1  0  0  0  0
  9 10  2  0  0  0  0
 10 11  1  0  0  0  0
 10 24  1  0  0  0  0
 11 25  1  0  0  0  0
 12  4  1  0  0  0  0
 12 11  2  0  0  0  0
 13  2  1  0  0  0  0
 13 14  2  0  0  0  0
 16  1  1  0  0  0  0
 18  3  1  0  0  0  0
 20  5  1  0  0  0  0
 21  6  1  0  0  0  0
 22  8  1  0  0  0  0
 23  9  1  0  0  0  0
 26 13  1  0  0  0  0
 27 28  1  0  0  0  0
 27 26  1  0  0  0  0
 27 37  1  1  0  0  0
 28 38  1  0  0  0  0
 29 33  1  0  0  0  0
 29 28  1  0  0  0  0
 30 29  2  0  0  0  0
 31 30  1  0  0  0  0
 31 32  1  0  0  0  0
 32 42  1  0  0  0  0
 32 33  2  0  0  0  0
 34 27  1  0  0  0  0
 35 34  2  0  0  0  0
 36 26  1  0  0  0  0
 39 28  1  0  0  0  0
 40 30  1  0  0  0  0
 41 31  1  0  0  0  0
 43 54  1  0  0  0  0
 43 34  1  0  0  0  0
 44 55  1  6  0  0  0
 44 45  1  0  0  0  0
 44 43  1  0  0  0  0
 45 56  1  0  0  0  0
 45 46  1  0  0  0  0
 46 47  2  0  0  0  0
 47 48  1  0  0  0  0
 47 58  1  0  0  0  0
 48 59  1  0  0  0  0
 49 48  1  0  0  0  0
 50 46  1  0  0  0  0
 50 49  2  0  0  0  0
 51 53  1  0  0  0  0
 51 44  1  0  0  0  0
 52 51  2  0  0  0  0
 57 45  1  0  0  0  0
 60 49  1  0  0  0  0
M  END
$$$$
