WHI.pdb
 OpenBabel07022419173D

 62 64  0  0  1  0  0  0  0  0999 V2000
    1.5090    0.6700    5.0090 N   0  0  0  0  0  0  0  0  0  0  0  0
    1.5120    0.8900    3.5370 C   0  0  1  0  0  0  0  0  0  0  0  0
    2.8120    0.4180    3.0080 C   0  0  0  0  0  0  0  0  0  0  0  0
    2.9840    0.5790    1.5600 C   0  0  0  0  0  0  0  0  0  0  0  0
    2.9790   -0.3670    0.5520 C   0  0  0  0  0  0  0  0  0  0  0  0
    3.1980    0.2240   -0.6320 N   0  0  0  0  0  0  0  0  0  0  0  0
    3.3530    1.5590   -0.4550 C   0  0  0  0  0  0  0  0  0  0  0  0
    3.5960    2.6100   -1.3300 C   0  0  0  0  0  0  0  0  0  0  0  0
    3.7170    3.9130   -0.8900 C   0  0  0  0  0  0  0  0  0  0  0  0
    3.5880    4.1580    0.4710 C   0  0  0  0  0  0  0  0  0  0  0  0
    3.3450    3.0940    1.3240 C   0  0  0  0  0  0  0  0  0  0  0  0
    3.2220    1.7900    0.8970 C   0  0  0  0  0  0  0  0  0  0  0  0
    0.2970    0.2600    3.0430 C   0  0  0  0  0  0  0  0  0  0  0  0
   -0.4940   -0.4050    3.8110 O   0  0  0  0  0  0  0  0  0  0  0  0
    0.6550    1.2040    5.3540 H   0  0  0  0  0  0  0  0  0  0  0  0
    2.3270    1.2430    5.3480 H   0  0  0  0  0  0  0  0  0  0  0  0
    1.4970    2.0100    3.4500 H   0  0  0  0  0  0  0  0  0  0  0  0
    2.8910   -0.6790    3.2530 H   0  0  0  0  0  0  0  0  0  0  0  0
    3.6370    0.9260    3.5870 H   0  0  0  0  0  0  0  0  0  0  0  0
    2.8200   -1.4320    0.7370 H   0  0  0  0  0  0  0  0  0  0  0  0
    3.2520   -0.2280   -1.5880 H   0  0  0  0  0  0  0  0  0  0  0  0
    3.6950    2.4040   -2.3930 H   0  0  0  0  0  0  0  0  0  0  0  0
    3.9080    4.7080   -1.6010 H   0  0  0  0  0  0  0  0  0  0  0  0
    3.6780    5.1800    0.8600 H   0  0  0  0  0  0  0  0  0  0  0  0
    3.2410    3.2650    2.4030 H   0  0  0  0  0  0  0  0  0  0  0  0
   -0.1830    0.2910    1.6840 N   0  0  0  0  0  0  0  0  0  0  0  0
   -1.3850   -0.3270    1.2620 C   0  0  1  0  0  0  0  0  0  0  0  0
   -2.3960    0.5100    0.6050 C   0  0  0  0  0  0  0  0  0  0  0  0
   -2.0330    1.1660   -0.6490 C   0  0  0  0  0  0  0  0  0  0  0  0
   -0.9250    1.1520   -1.4290 C   0  0  0  0  0  0  0  0  0  0  0  0
   -1.1640    1.9480   -2.5100 N   0  0  0  0  0  0  0  0  0  0  0  0
   -2.3980    2.4560   -2.4170 C   0  0  0  0  0  0  0  0  0  0  0  0
   -2.9290    1.9820   -1.2870 N   0  0  0  0  0  0  0  0  0  0  0  0
   -1.0280   -1.5460    0.4520 C   0  0  0  0  0  0  0  0  0  0  0  0
    0.1650   -1.8690    0.2460 O   0  0  0  0  0  0  0  0  0  0  0  0
    0.3970    0.8060    1.0000 H   0  0  0  0  0  0  0  0  0  0  0  0
   -1.8850   -0.7740    2.1770 H   0  0  0  0  0  0  0  0  0  0  0  0
   -3.2820   -0.1520    0.3650 H   0  0  0  0  0  0  0  0  0  0  0  0
   -2.8150    1.2070    1.3660 H   0  0  0  0  0  0  0  0  0  0  0  0
   -0.0250    0.6180   -1.2580 H   0  0  0  0  0  0  0  0  0  0  0  0
   -0.4620    2.1120   -3.2770 H   0  0  0  0  0  0  0  0  0  0  0  0
   -2.8470    3.1190   -3.1380 H   0  0  0  0  0  0  0  0  0  0  0  0
   -4.2140   -4.3130    0.8770 C   0  0  0  0  0  0  0  0  0  0  0  0
   -3.5690   -5.0410   -0.2500 C   0  0  0  0  0  0  0  0  0  0  0  0
   -2.0800   -4.8560   -0.3650 C   0  0  2  0  0  0  0  0  0  0  0  0
   -1.3750   -5.3210    0.8870 C   0  0  0  0  0  0  0  0  0  0  0  0
   -1.6380   -3.5330   -0.8800 C   0  0  2  0  0  0  0  0  0  0  0  0
   -2.0250   -2.3890   -0.1170 N   0  0  0  0  0  0  0  0  0  0  0  0
   -2.1140   -3.4380   -2.3050 C   0  0  0  0  0  0  0  0  0  0  0  0
   -2.7630   -2.4900   -2.7620 O   0  0  0  0  0  0  0  0  0  0  0  0
   -1.7880   -4.4990   -3.1350 O   0  0  0  0  0  0  0  0  0  0  0  0
   -4.9170   -5.0230    1.4100 H   0  0  0  0  0  0  0  0  0  0  0  0
   -3.4810   -3.8900    1.5820 H   0  0  0  0  0  0  0  0  0  0  0  0
   -4.8990   -3.4860    0.5520 H   0  0  0  0  0  0  0  0  0  0  0  0
   -4.0540   -4.7660   -1.2150 H   0  0  0  0  0  0  0  0  0  0  0  0
   -3.7270   -6.1490   -0.1120 H   0  0  0  0  0  0  0  0  0  0  0  0
   -1.7690   -5.6230   -1.1530 H   0  0  0  0  0  0  0  0  0  0  0  0
   -0.2760   -5.3970    0.6920 H   0  0  0  0  0  0  0  0  0  0  0  0
   -1.7130   -6.3760    1.0530 H   0  0  0  0  0  0  0  0  0  0  0  0
   -1.6300   -4.7240    1.7620 H   0  0  0  0  0  0  0  0  0  0  0  0
   -0.5100   -3.5960   -0.9670 H   0  0  0  0  0  0  0  0  0  0  0  0
   -3.0100   -2.1320    0.0450 H   0  0  0  0  0  0  0  0  0  0  0  0
  1 16  1  0  0  0  0
  1 15  1  0  0  0  0
  2 17  1  6  0  0  0
  2  1  1  0  0  0  0
  3 18  1  0  0  0  0
  3  2  1  0  0  0  0
  3 19  1  0  0  0  0
  4  3  1  0  0  0  0
  5 20  1  0  0  0  0
  5  4  2  0  0  0  0
  6  7  1  0  0  0  0
  6  5  1  0  0  0  0
  7 12  1  0  0  0  0
  8  9  1  0  0  0  0
  8  7  2  0  0  0  0
  9 10  2  0  0  0  0
 10 24  1  0  0  0  0
 10 11  1  0  0  0  0
 11 25  1  0  0  0  0
 12 11  2  0  0  0  0
 12  4  1  0  0  0  0
 13  2  1  0  0  0  0
 13 14  2  0  0  0  0
 21  6  1  0  0  0  0
 22  8  1  0  0  0  0
 23  9  1  0  0  0  0
 26 13  1  0  0  0  0
 27 26  1  0  0  0  0
 27 37  1  1  0  0  0
 28 27  1  0  0  0  0
 28 39  1  0  0  0  0
 29 28  1  0  0  0  0
 30 40  1  0  0  0  0
 30 29  2  0  0  0  0
 31 32  1  0  0  0  0
 31 30  1  0  0  0  0
 32 33  2  0  0  0  0
 33 29  1  0  0  0  0
 34 27  1  0  0  0  0
 35 34  2  0  0  0  0
 36 26  1  0  0  0  0
 38 28  1  0  0  0  0
 41 31  1  0  0  0  0
 42 32  1  0  0  0  0
 43 52  1  0  0  0  0
 43 53  1  0  0  0  0
 44 56  1  0  0  0  0
 44 43  1  0  0  0  0
 45 57  1  6  0  0  0
 45 44  1  0  0  0  0
 45 46  1  0  0  0  0
 46 59  1  0  0  0  0
 46 60  1  0  0  0  0
 47 61  1  6  0  0  0
 47 45  1  0  0  0  0
 47 48  1  0  0  0  0
 48 62  1  0  0  0  0
 48 34  1  0  0  0  0
 49 47  1  0  0  0  0
 50 49  1  0  0  0  0
 51 49  2  0  0  0  0
 54 43  1  0  0  0  0
 55 44  1  0  0  0  0
 58 46  1  0  0  0  0
M  END
$$$$
