WHL.pdb
 OpenBabel07022419173D

 62 64  0  0  1  0  0  0  0  0999 V2000
    1.3900    0.8640    0.6520 N   0  0  0  0  0  0  0  0  0  0  0  0
    1.9900    0.2900    1.8150 C   0  0  1  0  0  0  0  0  0  0  0  0
    2.3320    1.3970    2.7930 C   0  0  0  0  0  0  0  0  0  0  0  0
    3.2670    2.3610    2.1940 C   0  0  0  0  0  0  0  0  0  0  0  0
    4.6580    2.3150    2.3540 C   0  0  0  0  0  0  0  0  0  0  0  0
    5.2120    3.3120    1.6550 N   0  0  0  0  0  0  0  0  0  0  0  0
    4.2720    4.0400    1.0230 C   0  0  0  0  0  0  0  0  0  0  0  0
    4.3270    5.1510    0.2050 C   0  0  0  0  0  0  0  0  0  0  0  0
    3.1730    5.6950   -0.2940 C   0  0  0  0  0  0  0  0  0  0  0  0
    1.9700    5.1130    0.0360 C   0  0  0  0  0  0  0  0  0  0  0  0
    1.8980    4.0000    0.8550 C   0  0  0  0  0  0  0  0  0  0  0  0
    3.0540    3.4410    1.3640 C   0  0  0  0  0  0  0  0  0  0  0  0
    1.1810   -0.7600    2.4680 C   0  0  0  0  0  0  0  0  0  0  0  0
    1.6600   -1.4840    3.3680 O   0  0  0  0  0  0  0  0  0  0  0  0
    2.0950    1.3080    0.0060 H   0  0  0  0  0  0  0  0  0  0  0  0
    0.8800    0.0960    0.1360 H   0  0  0  0  0  0  0  0  0  0  0  0
    2.9820   -0.1770    1.5610 H   0  0  0  0  0  0  0  0  0  0  0  0
    2.8130    0.9810    3.7250 H   0  0  0  0  0  0  0  0  0  0  0  0
    1.4090    1.9420    3.1140 H   0  0  0  0  0  0  0  0  0  0  0  0
    5.1930    1.5840    2.9500 H   0  0  0  0  0  0  0  0  0  0  0  0
    6.2300    3.5080    1.5990 H   0  0  0  0  0  0  0  0  0  0  0  0
    5.2650    5.6110   -0.0580 H   0  0  0  0  0  0  0  0  0  0  0  0
    3.2020    6.5810   -0.9490 H   0  0  0  0  0  0  0  0  0  0  0  0
    1.0670    5.5510   -0.3650 H   0  0  0  0  0  0  0  0  0  0  0  0
    0.9600    3.5450    1.1230 H   0  0  0  0  0  0  0  0  0  0  0  0
   -0.1640   -0.9950    2.1120 N   0  0  0  0  0  0  0  0  0  0  0  0
   -1.0110   -1.9790    2.6790 C   0  0  1  0  0  0  0  0  0  0  0  0
   -2.2640   -1.6690    3.3240 C   0  0  0  0  0  0  0  0  0  0  0  0
   -3.3270   -1.0250    2.5150 C   0  0  0  0  0  0  0  0  0  0  0  0
   -3.3790   -0.6780    1.1870 C   0  0  0  0  0  0  0  0  0  0  0  0
   -4.5750   -0.1340    0.9020 N   0  0  0  0  0  0  0  0  0  0  0  0
   -5.2890   -0.1270    2.0220 C   0  0  0  0  0  0  0  0  0  0  0  0
   -4.5620   -0.6520    2.9880 N   0  0  0  0  0  0  0  0  0  0  0  0
   -1.2880   -2.9870    1.5990 C   0  0  0  0  0  0  0  0  0  0  0  0
   -2.0210   -4.0020    1.8550 O   0  0  0  0  0  0  0  0  0  0  0  0
   -0.5730   -0.3910    1.3770 H   0  0  0  0  0  0  0  0  0  0  0  0
   -0.3590   -2.5400    3.4180 H   0  0  0  0  0  0  0  0  0  0  0  0
   -2.7250   -2.6710    3.6120 H   0  0  0  0  0  0  0  0  0  0  0  0
   -2.1920   -1.1770    4.3370 H   0  0  0  0  0  0  0  0  0  0  0  0
   -2.6300   -0.8010    0.4420 H   0  0  0  0  0  0  0  0  0  0  0  0
   -4.8960    0.2260   -0.0480 H   0  0  0  0  0  0  0  0  0  0  0  0
   -6.3190    0.2590    2.1030 H   0  0  0  0  0  0  0  0  0  0  0  0
   -3.0870   -3.5080   -3.9900 C   0  0  0  0  0  0  0  0  0  0  0  0
   -2.2300   -4.2140   -2.9210 C   0  0  0  0  0  0  0  0  0  0  0  0
   -3.0860   -5.3600   -2.3680 C   0  0  0  0  0  0  0  0  0  0  0  0
   -1.8840   -3.2380   -1.8390 C   0  0  0  0  0  0  0  0  0  0  0  0
   -1.0640   -3.8750   -0.7660 C   0  0  2  0  0  0  0  0  0  0  0  0
   -0.7720   -2.8670    0.2870 N   0  0  0  0  0  0  0  0  0  0  0  0
    0.1820   -4.4310   -1.2770 C   0  0  0  0  0  0  0  0  0  0  0  0
    1.3000   -3.9660   -0.8580 O   0  0  0  0  0  0  0  0  0  0  0  0
    0.2390   -5.4340   -2.1880 O   0  0  0  0  0  0  0  0  0  0  0  0
   -2.4540   -3.0210   -4.7460 H   0  0  0  0  0  0  0  0  0  0  0  0
   -3.7390   -2.7690   -3.5050 H   0  0  0  0  0  0  0  0  0  0  0  0
   -3.7260   -4.2690   -4.5100 H   0  0  0  0  0  0  0  0  0  0  0  0
   -1.3940   -4.6500   -3.4680 H   0  0  0  0  0  0  0  0  0  0  0  0
   -3.5490   -5.8540   -3.2360 H   0  0  0  0  0  0  0  0  0  0  0  0
   -2.4150   -6.0870   -1.8750 H   0  0  0  0  0  0  0  0  0  0  0  0
   -3.8550   -4.9520   -1.6590 H   0  0  0  0  0  0  0  0  0  0  0  0
   -2.8440   -2.8240   -1.4380 H   0  0  0  0  0  0  0  0  0  0  0  0
   -1.3330   -2.3780   -2.2790 H   0  0  0  0  0  0  0  0  0  0  0  0
   -1.6670   -4.6530   -0.2800 H   0  0  0  0  0  0  0  0  0  0  0  0
   -0.1740   -2.0500    0.0640 H   0  0  0  0  0  0  0  0  0  0  0  0
  1  2  1  0  0  0  0
  2 17  1  6  0  0  0
  2 13  1  0  0  0  0
  2  3  1  0  0  0  0
  3 19  1  0  0  0  0
  3 18  1  0  0  0  0
  4  5  2  0  0  0  0
  4  3  1  0  0  0  0
  5 20  1  0  0  0  0
  6  5  1  0  0  0  0
  7 12  1  0  0  0  0
  7  6  1  0  0  0  0
  8  7  2  0  0  0  0
  9 10  2  0  0  0  0
  9  8  1  0  0  0  0
 10 11  1  0  0  0  0
 11 25  1  0  0  0  0
 11 12  2  0  0  0  0
 12  4  1  0  0  0  0
 13 14  2  0  0  0  0
 15  1  1  0  0  0  0
 16  1  1  0  0  0  0
 21  6  1  0  0  0  0
 22  8  1  0  0  0  0
 23  9  1  0  0  0  0
 24 10  1  0  0  0  0
 26 13  1  0  0  0  0
 26 27  1  0  0  0  0
 27 28  1  0  0  0  0
 27 37  1  1  0  0  0
 28 38  1  0  0  0  0
 28 39  1  0  0  0  0
 29 33  1  0  0  0  0
 29 28  1  0  0  0  0
 30 29  2  0  0  0  0
 31 30  1  0  0  0  0
 31 32  1  0  0  0  0
 32 42  1  0  0  0  0
 32 33  2  0  0  0  0
 34 35  2  0  0  0  0
 34 27  1  0  0  0  0
 36 26  1  0  0  0  0
 40 30  1  0  0  0  0
 41 31  1  0  0  0  0
 43 53  1  0  0  0  0
 43 44  1  0  0  0  0
 44 45  1  0  0  0  0
 44 46  1  0  0  0  0
 45 57  1  0  0  0  0
 45 58  1  0  0  0  0
 46 59  1  0  0  0  0
 46 47  1  0  0  0  0
 47 61  1  1  0  0  0
 47 48  1  0  0  0  0
 48 34  1  0  0  0  0
 49 50  1  0  0  0  0
 49 47  1  0  0  0  0
 51 49  2  0  0  0  0
 52 43  1  0  0  0  0
 54 43  1  0  0  0  0
 55 44  1  0  0  0  0
 56 45  1  0  0  0  0
 60 46  1  0  0  0  0
 62 48  1  0  0  0  0
M  END
$$$$
