WHN.pdb
 OpenBabel07022419173D

 57 59  0  0  1  0  0  0  0  0999 V2000
    0.8900    2.6970    4.0780 N   0  0  0  0  0  0  0  0  0  0  0  0
    0.9810    1.8070    2.8920 C   0  0  1  0  0  0  0  0  0  0  0  0
    2.4370    1.8240    2.4980 C   0  0  0  0  0  0  0  0  0  0  0  0
    2.7660    1.0060    1.3330 C   0  0  0  0  0  0  0  0  0  0  0  0
    3.4490   -0.2110    1.2990 C   0  0  0  0  0  0  0  0  0  0  0  0
    3.5750   -0.6120    0.0280 N   0  0  0  0  0  0  0  0  0  0  0  0
    2.9970    0.2910   -0.8100 C   0  0  0  0  0  0  0  0  0  0  0  0
    2.8710    0.3200   -2.1900 C   0  0  0  0  0  0  0  0  0  0  0  0
    2.2300    1.3720   -2.8000 C   0  0  0  0  0  0  0  0  0  0  0  0
    1.7310    2.3690   -1.9910 C   0  0  0  0  0  0  0  0  0  0  0  0
    1.8450    2.3620   -0.6110 C   0  0  0  0  0  0  0  0  0  0  0  0
    2.4950    1.2930   -0.0050 C   0  0  0  0  0  0  0  0  0  0  0  0
    0.4270    0.4980    3.2050 C   0  0  0  0  0  0  0  0  0  0  0  0
    0.4500    0.0170    4.3890 O   0  0  0  0  0  0  0  0  0  0  0  0
    0.7570    3.6830    3.7710 H   0  0  0  0  0  0  0  0  0  0  0  0
    0.1400    2.3690    4.7240 H   0  0  0  0  0  0  0  0  0  0  0  0
    0.4090    2.3130    2.1020 H   0  0  0  0  0  0  0  0  0  0  0  0
    3.0670    1.4590    3.3490 H   0  0  0  0  0  0  0  0  0  0  0  0
    2.6780    2.8880    2.2620 H   0  0  0  0  0  0  0  0  0  0  0  0
    3.8050   -0.7160    2.1850 H   0  0  0  0  0  0  0  0  0  0  0  0
    4.0420   -1.4750   -0.3160 H   0  0  0  0  0  0  0  0  0  0  0  0
    3.2670   -0.4670   -2.8060 H   0  0  0  0  0  0  0  0  0  0  0  0
    2.1180    1.4180   -3.8850 H   0  0  0  0  0  0  0  0  0  0  0  0
    1.2330    3.1850   -2.4760 H   0  0  0  0  0  0  0  0  0  0  0  0
    1.4630    3.1280    0.0290 H   0  0  0  0  0  0  0  0  0  0  0  0
   -0.2000   -0.3680    2.2330 N   0  0  0  0  0  0  0  0  0  0  0  0
   -0.7290   -1.6260    2.6420 C   0  0  1  0  0  0  0  0  0  0  0  0
   -2.1580   -1.4430    3.2090 C   0  0  0  0  0  0  0  0  0  0  0  0
   -3.0800   -0.8630    2.2340 C   0  0  0  0  0  0  0  0  0  0  0  0
   -3.8850   -1.5000    1.3160 C   0  0  0  0  0  0  0  0  0  0  0  0
   -4.5490   -0.5220    0.6480 N   0  0  0  0  0  0  0  0  0  0  0  0
   -4.1950    0.6840    1.1060 C   0  0  0  0  0  0  0  0  0  0  0  0
   -3.2960    0.4560    2.0760 N   0  0  0  0  0  0  0  0  0  0  0  0
   -0.7850   -2.6030    1.5740 C   0  0  0  0  0  0  0  0  0  0  0  0
   -1.2420   -3.7890    1.8380 O   0  0  0  0  0  0  0  0  0  0  0  0
   -0.2500   -0.0400    1.2450 H   0  0  0  0  0  0  0  0  0  0  0  0
   -0.1660   -1.9530    3.5560 H   0  0  0  0  0  0  0  0  0  0  0  0
   -2.0690   -0.8950    4.1600 H   0  0  0  0  0  0  0  0  0  0  0  0
   -2.5050   -2.4700    3.4450 H   0  0  0  0  0  0  0  0  0  0  0  0
   -3.9970   -2.5640    1.1310 H   0  0  0  0  0  0  0  0  0  0  0  0
   -5.2560   -0.6410   -0.1320 H   0  0  0  0  0  0  0  0  0  0  0  0
   -4.5090    1.6770    0.8210 H   0  0  0  0  0  0  0  0  0  0  0  0
   -2.5340   -3.6150   -3.9870 N   0  0  0  0  0  0  0  0  0  0  0  0
   -1.7420   -4.0140   -2.8770 C   0  0  0  0  0  0  0  0  0  0  0  0
   -1.3240   -5.1880   -2.8400 O   0  0  0  0  0  0  0  0  0  0  0  0
   -1.4530   -3.0370   -1.8300 C   0  0  0  0  0  0  0  0  0  0  0  0
   -0.5420   -3.5430   -0.7420 C   0  0  2  0  0  0  0  0  0  0  0  0
   -0.4000   -2.4470    0.2220 N   0  0  0  0  0  0  0  0  0  0  0  0
    0.8100   -3.8650   -1.2580 C   0  0  0  0  0  0  0  0  0  0  0  0
    1.0550   -4.7540   -2.0900 O   0  0  0  0  0  0  0  0  0  0  0  0
    1.9420   -3.1480   -0.8120 O   0  0  0  0  0  0  0  0  0  0  0  0
   -2.1450   -2.9790   -4.6970 H   0  0  0  0  0  0  0  0  0  0  0  0
   -3.5070   -3.9820   -4.0570 H   0  0  0  0  0  0  0  0  0  0  0  0
   -2.4310   -2.6970   -1.4240 H   0  0  0  0  0  0  0  0  0  0  0  0
   -0.9880   -2.0970   -2.2290 H   0  0  0  0  0  0  0  0  0  0  0  0
   -0.9470   -4.4470   -0.2700 H   0  0  0  0  0  0  0  0  0  0  0  0
   -0.0110   -1.5380   -0.0790 H   0  0  0  0  0  0  0  0  0  0  0  0
  1 16  1  0  0  0  0
  2 17  1  6  0  0  0
  2 13  1  0  0  0  0
  2  1  1  0  0  0  0
  3  2  1  0  0  0  0
  3 18  1  0  0  0  0
  4  3  1  0  0  0  0
  5  4  2  0  0  0  0
  5 20  1  0  0  0  0
  6  5  1  0  0  0  0
  7 12  1  0  0  0  0
  7  6  1  0  0  0  0
  8  7  2  0  0  0  0
  9  8  1  0  0  0  0
  9 10  2  0  0  0  0
 10 11  1  0  0  0  0
 11 12  2  0  0  0  0
 11 25  1  0  0  0  0
 12  4  1  0  0  0  0
 13 14  2  0  0  0  0
 15  1  1  0  0  0  0
 19  3  1  0  0  0  0
 21  6  1  0  0  0  0
 22  8  1  0  0  0  0
 23  9  1  0  0  0  0
 24 10  1  0  0  0  0
 26 27  1  0  0  0  0
 26 13  1  0  0  0  0
 27 28  1  0  0  0  0
 27 37  1  1  0  0  0
 28 39  1  0  0  0  0
 28 38  1  0  0  0  0
 29 28  1  0  0  0  0
 30 29  2  0  0  0  0
 31 32  1  0  0  0  0
 31 30  1  0  0  0  0
 32 33  2  0  0  0  0
 33 29  1  0  0  0  0
 34 35  2  0  0  0  0
 34 27  1  0  0  0  0
 36 26  1  0  0  0  0
 40 30  1  0  0  0  0
 41 31  1  0  0  0  0
 42 32  1  0  0  0  0
 43 44  1  0  0  0  0
 44 45  2  0  0  0  0
 44 46  1  0  0  0  0
 46 54  1  0  0  0  0
 46 47  1  0  0  0  0
 47 56  1  1  0  0  0
 47 48  1  0  0  0  0
 48 34  1  0  0  0  0
 49 51  1  0  0  0  0
 49 47  1  0  0  0  0
 50 49  2  0  0  0  0
 52 43  1  0  0  0  0
 53 43  1  0  0  0  0
 55 46  1  0  0  0  0
 57 48  1  0  0  0  0
M  END
$$$$
