WHP.pdb
 OpenBabel07022419173D

 57 60  0  0  1  0  0  0  0  0999 V2000
    1.4070    1.5510    3.5430 N   0  0  0  0  0  0  0  0  0  0  0  0
    0.7660    1.2450    2.2740 C   0  0  1  0  0  0  0  0  0  0  0  0
    1.7530    1.1210    1.1380 C   0  0  0  0  0  0  0  0  0  0  0  0
    2.5450    2.3440    0.8990 C   0  0  0  0  0  0  0  0  0  0  0  0
    3.8830    2.5210    1.2490 C   0  0  0  0  0  0  0  0  0  0  0  0
    4.2510    3.7590    0.8630 N   0  0  0  0  0  0  0  0  0  0  0  0
    3.2340    4.4160    0.2750 C   0  0  0  0  0  0  0  0  0  0  0  0
    3.1090    5.6810   -0.2770 C   0  0  0  0  0  0  0  0  0  0  0  0
    1.9120    6.0760   -0.8130 C   0  0  0  0  0  0  0  0  0  0  0  0
    0.8640    5.1700   -0.7770 C   0  0  0  0  0  0  0  0  0  0  0  0
    0.9430    3.9190   -0.2450 C   0  0  0  0  0  0  0  0  0  0  0  0
    2.1650    3.5220    0.3000 C   0  0  0  0  0  0  0  0  0  0  0  0
    0.0850   -0.0970    2.3570 C   0  0  0  0  0  0  0  0  0  0  0  0
    0.0840   -0.7190    3.4600 O   0  0  0  0  0  0  0  0  0  0  0  0
    1.9410    0.7020    3.8540 H   0  0  0  0  0  0  0  0  0  0  0  0
    2.1320    2.2950    3.3470 H   0  0  0  0  0  0  0  0  0  0  0  0
    0.0550    2.0470    1.9890 H   0  0  0  0  0  0  0  0  0  0  0  0
    1.1470    0.9170    0.2130 H   0  0  0  0  0  0  0  0  0  0  0  0
    2.4620    0.2660    1.2930 H   0  0  0  0  0  0  0  0  0  0  0  0
    4.4590    1.7640    1.7380 H   0  0  0  0  0  0  0  0  0  0  0  0
    5.2110    4.1260    1.0150 H   0  0  0  0  0  0  0  0  0  0  0  0
    3.9570    6.3470   -0.2800 H   0  0  0  0  0  0  0  0  0  0  0  0
    1.7810    7.0650   -1.2540 H   0  0  0  0  0  0  0  0  0  0  0  0
   -0.0860    5.4910   -1.2070 H   0  0  0  0  0  0  0  0  0  0  0  0
    0.1480    3.1920   -0.2030 H   0  0  0  0  0  0  0  0  0  0  0  0
   -0.5520   -0.6960    1.2570 N   0  0  0  0  0  0  0  0  0  0  0  0
   -1.2050   -2.0120    1.3780 C   0  0  1  0  0  0  0  0  0  0  0  0
   -2.6750   -1.7060    1.0470 C   0  0  0  0  0  0  0  0  0  0  0  0
   -2.7180   -1.1450   -0.3540 C   0  0  0  0  0  0  0  0  0  0  0  0
   -2.8520   -1.9010   -1.4990 C   0  0  0  0  0  0  0  0  0  0  0  0
   -2.8370   -1.0360   -2.5200 N   0  0  0  0  0  0  0  0  0  0  0  0
   -2.7010    0.2140   -2.0500 C   0  0  0  0  0  0  0  0  0  0  0  0
   -2.6300    0.1300   -0.7210 N   0  0  0  0  0  0  0  0  0  0  0  0
   -0.6500   -2.8720    0.3030 C   0  0  0  0  0  0  0  0  0  0  0  0
    0.0920   -2.2740   -0.5620 O   0  0  0  0  0  0  0  0  0  0  0  0
   -0.5500   -0.1930    0.3460 H   0  0  0  0  0  0  0  0  0  0  0  0
   -1.1560   -2.4210    2.3790 H   0  0  0  0  0  0  0  0  0  0  0  0
   -3.3030   -2.6020    1.1180 H   0  0  0  0  0  0  0  0  0  0  0  0
   -3.0600   -0.9020    1.6970 H   0  0  0  0  0  0  0  0  0  0  0  0
   -2.9490   -2.9990   -1.5300 H   0  0  0  0  0  0  0  0  0  0  0  0
   -2.9180   -1.2880   -3.5250 H   0  0  0  0  0  0  0  0  0  0  0  0
   -2.6590    1.1310   -2.6700 H   0  0  0  0  0  0  0  0  0  0  0  0
   -0.8680   -4.2560    0.1620 N   0  0  0  0  0  0  0  0  0  0  0  0
   -0.3640   -5.0580   -0.9050 C   0  0  0  0  0  0  0  0  0  0  0  0
   -1.2950   -6.2550   -0.9370 C   0  0  0  0  0  0  0  0  0  0  0  0
   -2.4370   -5.8680    0.0120 C   0  0  0  0  0  0  0  0  0  0  0  0
   -1.5830   -5.1050    1.0530 C   0  0  1  0  0  0  0  0  0  0  0  0
   -0.7280   -6.0850    1.7530 C   0  0  0  0  0  0  0  0  0  0  0  0
   -1.2330   -6.8770    2.5660 O   0  0  0  0  0  0  0  0  0  0  0  0
    0.6270   -6.1260    1.5120 O   0  0  0  0  0  0  0  0  0  0  0  0
    0.7010   -5.3460   -0.7770 H   0  0  0  0  0  0  0  0  0  0  0  0
   -0.4590   -4.4980   -1.8890 H   0  0  0  0  0  0  0  0  0  0  0  0
   -0.7870   -7.1110   -0.4950 H   0  0  0  0  0  0  0  0  0  0  0  0
   -1.7380   -6.4150   -1.9360 H   0  0  0  0  0  0  0  0  0  0  0  0
   -2.8520   -6.7340    0.5430 H   0  0  0  0  0  0  0  0  0  0  0  0
   -3.1550   -5.2060   -0.4600 H   0  0  0  0  0  0  0  0  0  0  0  0
   -2.2690   -4.5800    1.7610 H   0  0  0  0  0  0  0  0  0  0  0  0
  1 15  1  0  0  0  0
  2 17  1  6  0  0  0
  2 13  1  0  0  0  0
  2  1  1  0  0  0  0
  3 19  1  0  0  0  0
  3  2  1  0  0  0  0
  4  3  1  0  0  0  0
  4  5  2  0  0  0  0
  5 20  1  0  0  0  0
  6 21  1  0  0  0  0
  6  5  1  0  0  0  0
  7 12  1  0  0  0  0
  7  6  1  0  0  0  0
  8  7  2  0  0  0  0
  9 10  2  0  0  0  0
  9  8  1  0  0  0  0
 10 11  1  0  0  0  0
 11 25  1  0  0  0  0
 11 12  2  0  0  0  0
 12  4  1  0  0  0  0
 13 14  2  0  0  0  0
 16  1  1  0  0  0  0
 18  3  1  0  0  0  0
 22  8  1  0  0  0  0
 23  9  1  0  0  0  0
 24 10  1  0  0  0  0
 26 27  1  0  0  0  0
 26 13  1  0  0  0  0
 27 37  1  1  0  0  0
 28 38  1  0  0  0  0
 28 27  1  0  0  0  0
 28 39  1  0  0  0  0
 29 28  1  0  0  0  0
 30 29  2  0  0  0  0
 31 32  1  0  0  0  0
 31 30  1  0  0  0  0
 32 33  2  0  0  0  0
 33 29  1  0  0  0  0
 34 27  1  0  0  0  0
 35 34  2  0  0  0  0
 36 26  1  0  0  0  0
 40 30  1  0  0  0  0
 41 31  1  0  0  0  0
 42 32  1  0  0  0  0
 43 34  1  0  0  0  0
 43 47  1  0  0  0  0
 44 51  1  0  0  0  0
 44 43  1  0  0  0  0
 45 44  1  0  0  0  0
 45 53  1  0  0  0  0
 45 46  1  0  0  0  0
 46 55  1  0  0  0  0
 46 47  1  0  0  0  0
 47 48  1  0  0  0  0
 47 57  1  1  0  0  0
 48 49  1  0  0  0  0
 50 48  2  0  0  0  0
 52 44  1  0  0  0  0
 54 45  1  0  0  0  0
 56 46  1  0  0  0  0
M  END
$$$$
