WHQ.pdb
 OpenBabel07022419173D

 60 62  0  0  1  0  0  0  0  0999 V2000
    2.0530    0.7430    0.3120 N   0  0  0  0  0  0  0  0  0  0  0  0
    1.8020    0.5720    1.7040 C   0  0  1  0  0  0  0  0  0  0  0  0
    1.9130    1.8540    2.5150 C   0  0  0  0  0  0  0  0  0  0  0  0
    3.2540    2.4690    2.4280 C   0  0  0  0  0  0  0  0  0  0  0  0
    4.2530    2.3460    3.4000 C   0  0  0  0  0  0  0  0  0  0  0  0
    5.3380    3.0340    2.9520 N   0  0  0  0  0  0  0  0  0  0  0  0
    5.0610    3.5730    1.7570 C   0  0  0  0  0  0  0  0  0  0  0  0
    5.8470    4.3480    0.9330 C   0  0  0  0  0  0  0  0  0  0  0  0
    5.3560    4.8160   -0.2770 C   0  0  0  0  0  0  0  0  0  0  0  0
    4.0550    4.4830   -0.6390 C   0  0  0  0  0  0  0  0  0  0  0  0
    3.3020    3.7050    0.2130 C   0  0  0  0  0  0  0  0  0  0  0  0
    3.7760    3.2360    1.4140 C   0  0  0  0  0  0  0  0  0  0  0  0
    0.5700   -0.1620    2.0360 C   0  0  0  0  0  0  0  0  0  0  0  0
    0.3500   -0.3760    3.2780 O   0  0  0  0  0  0  0  0  0  0  0  0
    3.0690    0.8340    0.0770 H   0  0  0  0  0  0  0  0  0  0  0  0
    1.6690   -0.0520   -0.2640 H   0  0  0  0  0  0  0  0  0  0  0  0
    2.6460   -0.0750    2.0950 H   0  0  0  0  0  0  0  0  0  0  0  0
    1.1690    2.6020    2.1380 H   0  0  0  0  0  0  0  0  0  0  0  0
    1.6950    1.6450    3.5820 H   0  0  0  0  0  0  0  0  0  0  0  0
    4.2190    1.8190    4.3410 H   0  0  0  0  0  0  0  0  0  0  0  0
    6.2580    3.1350    3.4540 H   0  0  0  0  0  0  0  0  0  0  0  0
    6.8510    4.6020    1.2170 H   0  0  0  0  0  0  0  0  0  0  0  0
    5.9380    5.4280   -0.9550 H   0  0  0  0  0  0  0  0  0  0  0  0
    3.6950    4.8610   -1.5910 H   0  0  0  0  0  0  0  0  0  0  0  0
    2.2950    3.4650   -0.0840 H   0  0  0  0  0  0  0  0  0  0  0  0
   -0.3940   -0.6570    1.1450 N   0  0  0  0  0  0  0  0  0  0  0  0
   -1.5860   -1.3720    1.5330 C   0  0  1  0  0  0  0  0  0  0  0  0
   -2.8360   -0.6470    1.1550 C   0  0  0  0  0  0  0  0  0  0  0  0
   -2.9760   -0.4000   -0.2990 C   0  0  0  0  0  0  0  0  0  0  0  0
   -3.5800   -1.2230   -1.2230 C   0  0  0  0  0  0  0  0  0  0  0  0
   -3.5140   -0.6590   -2.4570 N   0  0  0  0  0  0  0  0  0  0  0  0
   -2.8700    0.5150   -2.3060 C   0  0  0  0  0  0  0  0  0  0  0  0
   -2.5450    0.6760   -1.0180 N   0  0  0  0  0  0  0  0  0  0  0  0
   -1.4870   -2.7560    1.0010 C   0  0  0  0  0  0  0  0  0  0  0  0
   -0.4510   -3.0410    0.3540 O   0  0  0  0  0  0  0  0  0  0  0  0
   -0.2480   -0.4980    0.1260 H   0  0  0  0  0  0  0  0  0  0  0  0
   -1.6320   -1.4950    2.6570 H   0  0  0  0  0  0  0  0  0  0  0  0
   -2.7870    0.3530    1.6410 H   0  0  0  0  0  0  0  0  0  0  0  0
   -3.7280   -1.1460    1.5850 H   0  0  0  0  0  0  0  0  0  0  0  0
   -4.0450   -2.1740   -1.0440 H   0  0  0  0  0  0  0  0  0  0  0  0
   -3.8870   -1.0480   -3.3630 H   0  0  0  0  0  0  0  0  0  0  0  0
   -2.6670    1.1940   -3.1240 H   0  0  0  0  0  0  0  0  0  0  0  0
   -3.9810   -4.1870   -3.2220 N   0  0  0  0  0  0  0  0  0  0  0  0
   -3.3600   -4.9940   -2.2510 C   0  0  0  0  0  0  0  0  0  0  0  0
   -3.9130   -6.0130   -1.8080 O   0  0  0  0  0  0  0  0  0  0  0  0
   -2.0080   -4.6190   -1.7460 C   0  0  0  0  0  0  0  0  0  0  0  0
   -1.6190   -5.3530   -0.5010 C   0  0  0  0  0  0  0  0  0  0  0  0
   -2.4860   -5.0730    0.7080 C   0  0  2  0  0  0  0  0  0  0  0  0
   -2.4730   -3.7300    1.1870 N   0  0  0  0  0  0  0  0  0  0  0  0
   -2.3980   -6.1070    1.7520 C   0  0  0  0  0  0  0  0  0  0  0  0
   -2.3940   -7.3380    1.5050 O   0  0  0  0  0  0  0  0  0  0  0  0
   -2.3130   -5.7450    3.0910 O   0  0  0  0  0  0  0  0  0  0  0  0
   -5.0090   -4.2010   -3.3150 H   0  0  0  0  0  0  0  0  0  0  0  0
   -3.4400   -3.5680   -3.8580 H   0  0  0  0  0  0  0  0  0  0  0  0
   -1.9030   -3.5370   -1.6950 H   0  0  0  0  0  0  0  0  0  0  0  0
   -1.2830   -4.9890   -2.5420 H   0  0  0  0  0  0  0  0  0  0  0  0
   -1.7420   -6.4540   -0.7570 H   0  0  0  0  0  0  0  0  0  0  0  0
   -0.5440   -5.2320   -0.3320 H   0  0  0  0  0  0  0  0  0  0  0  0
   -3.5430   -5.2170    0.2340 H   0  0  0  0  0  0  0  0  0  0  0  0
   -3.3120   -3.3960    1.7640 H   0  0  0  0  0  0  0  0  0  0  0  0
  1  2  1  0  0  0  0
  2 13  1  0  0  0  0
  2 17  1  1  0  0  0
  2  3  1  0  0  0  0
  3 19  1  0  0  0  0
  4  3  1  0  0  0  0
  4  5  2  0  0  0  0
  5 20  1  0  0  0  0
  6  5  1  0  0  0  0
  6 21  1  0  0  0  0
  7  6  1  0  0  0  0
  8 22  1  0  0  0  0
  8  7  2  0  0  0  0
  9  8  1  0  0  0  0
 10  9  2  0  0  0  0
 10 11  1  0  0  0  0
 11 12  2  0  0  0  0
 12  7  1  0  0  0  0
 12  4  1  0  0  0  0
 13 14  2  0  0  0  0
 15  1  1  0  0  0  0
 16  1  1  0  0  0  0
 18  3  1  0  0  0  0
 23  9  1  0  0  0  0
 24 10  1  0  0  0  0
 25 11  1  0  0  0  0
 26 27  1  0  0  0  0
 26 13  1  0  0  0  0
 27 37  1  1  0  0  0
 28 27  1  0  0  0  0
 28 39  1  0  0  0  0
 28 38  1  0  0  0  0
 29 28  1  0  0  0  0
 30 40  1  0  0  0  0
 30 29  2  0  0  0  0
 31 32  1  0  0  0  0
 31 30  1  0  0  0  0
 32 33  2  0  0  0  0
 33 29  1  0  0  0  0
 34 49  1  0  0  0  0
 34 27  1  0  0  0  0
 35 34  2  0  0  0  0
 36 26  1  0  0  0  0
 41 31  1  0  0  0  0
 42 32  1  0  0  0  0
 43 44  1  0  0  0  0
 44 45  2  0  0  0  0
 44 46  1  0  0  0  0
 46 55  1  0  0  0  0
 46 47  1  0  0  0  0
 47 58  1  0  0  0  0
 47 48  1  0  0  0  0
 48 59  1  6  0  0  0
 48 49  1  0  0  0  0
 48 50  1  0  0  0  0
 49 60  1  0  0  0  0
 50 52  1  0  0  0  0
 51 50  2  0  0  0  0
 53 43  1  0  0  0  0
 54 43  1  0  0  0  0
 56 46  1  0  0  0  0
 57 47  1  0  0  0  0
M  END
$$$$
