WHR.pdb
 OpenBabel07022419173D

 66 68  0  0  1  0  0  0  0  0999 V2000
   -1.9870    1.1530    4.9090 N   0  0  0  0  0  0  0  0  0  0  0  0
   -1.4570    1.4600    3.5600 C   0  0  1  0  0  0  0  0  0  0  0  0
   -0.1110    2.0240    3.7660 C   0  0  0  0  0  0  0  0  0  0  0  0
    0.6520    2.4260    2.5920 C   0  0  0  0  0  0  0  0  0  0  0  0
    1.7300    1.7930    2.0010 C   0  0  0  0  0  0  0  0  0  0  0  0
    2.1390    2.5030    0.9490 N   0  0  0  0  0  0  0  0  0  0  0  0
    1.3840    3.6050    0.7870 C   0  0  0  0  0  0  0  0  0  0  0  0
    1.4060    4.6290   -0.1290 C   0  0  0  0  0  0  0  0  0  0  0  0
    0.4750    5.6280   -0.0140 C   0  0  0  0  0  0  0  0  0  0  0  0
   -0.4810    5.6330    0.9960 C   0  0  0  0  0  0  0  0  0  0  0  0
   -0.4610    4.5840    1.8900 C   0  0  0  0  0  0  0  0  0  0  0  0
    0.4470    3.5660    1.8160 C   0  0  0  0  0  0  0  0  0  0  0  0
   -1.5740    0.2440    2.7640 C   0  0  0  0  0  0  0  0  0  0  0  0
   -1.9920   -0.8170    3.2790 O   0  0  0  0  0  0  0  0  0  0  0  0
   -1.2470    1.1490    5.6200 H   0  0  0  0  0  0  0  0  0  0  0  0
   -2.5520    0.2800    4.8810 H   0  0  0  0  0  0  0  0  0  0  0  0
   -2.1680    2.2670    3.2020 H   0  0  0  0  0  0  0  0  0  0  0  0
    0.4950    1.2580    4.3370 H   0  0  0  0  0  0  0  0  0  0  0  0
   -0.2230    2.8610    4.5190 H   0  0  0  0  0  0  0  0  0  0  0  0
    2.1700    0.8620    2.3440 H   0  0  0  0  0  0  0  0  0  0  0  0
    2.9420    2.2650    0.3040 H   0  0  0  0  0  0  0  0  0  0  0  0
    2.1230    4.6720   -0.9250 H   0  0  0  0  0  0  0  0  0  0  0  0
    0.4560    6.4460   -0.7090 H   0  0  0  0  0  0  0  0  0  0  0  0
   -1.2210    6.3950    1.1170 H   0  0  0  0  0  0  0  0  0  0  0  0
   -1.1880    4.5200    2.7150 H   0  0  0  0  0  0  0  0  0  0  0  0
   -1.2200    0.2310    1.3910 N   0  0  0  0  0  0  0  0  0  0  0  0
   -1.3180   -0.9430    0.5550 C   0  0  1  0  0  0  0  0  0  0  0  0
   -2.3630   -0.6340   -0.5060 C   0  0  0  0  0  0  0  0  0  0  0  0
   -1.9830    0.5340   -1.3070 C   0  0  0  0  0  0  0  0  0  0  0  0
   -1.2480    0.6100   -2.4640 C   0  0  0  0  0  0  0  0  0  0  0  0
   -1.1410    1.8980   -2.8550 N   0  0  0  0  0  0  0  0  0  0  0  0
   -1.8050    2.6340   -1.9490 C   0  0  0  0  0  0  0  0  0  0  0  0
   -2.3170    1.8020   -1.0080 N   0  0  0  0  0  0  0  0  0  0  0  0
   -0.0600   -1.3500   -0.0690 C   0  0  0  0  0  0  0  0  0  0  0  0
    1.0120   -0.7230    0.0850 O   0  0  0  0  0  0  0  0  0  0  0  0
   -0.8740    1.1390    0.9850 H   0  0  0  0  0  0  0  0  0  0  0  0
   -1.7620   -1.7680    1.1860 H   0  0  0  0  0  0  0  0  0  0  0  0
   -2.4600   -1.5330   -1.1630 H   0  0  0  0  0  0  0  0  0  0  0  0
   -3.3340   -0.5280    0.0130 H   0  0  0  0  0  0  0  0  0  0  0  0
   -0.8070   -0.2020   -3.0130 H   0  0  0  0  0  0  0  0  0  0  0  0
   -0.6490    2.2810   -3.6860 H   0  0  0  0  0  0  0  0  0  0  0  0
   -1.9040    3.6990   -1.9810 H   0  0  0  0  0  0  0  0  0  0  0  0
   -1.3660   -7.3470    0.5110 N   0  0  0  0  0  0  0  0  0  0  0  0
   -0.2530   -6.7530    1.1490 C   0  0  0  0  0  0  0  0  0  0  0  0
   -0.3820   -6.1900    2.3020 N   0  0  0  0  0  0  0  0  0  0  0  0
    1.0270   -6.7640    0.5410 N   0  0  0  0  0  0  0  0  0  0  0  0
    2.0740   -5.8380    0.8780 C   0  0  0  0  0  0  0  0  0  0  0  0
    1.7350   -4.4090    0.4350 C   0  0  0  0  0  0  0  0  0  0  0  0
    1.5370   -4.3720   -1.0650 C   0  0  0  0  0  0  0  0  0  0  0  0
    1.1970   -2.9730   -1.5420 C   0  0  2  0  0  0  0  0  0  0  0  0
   -0.0340   -2.5220   -0.9000 N   0  0  0  0  0  0  0  0  0  0  0  0
    1.0420   -3.0250   -3.0160 C   0  0  0  0  0  0  0  0  0  0  0  0
   -0.0050   -2.7390   -3.6370 O   0  0  0  0  0  0  0  0  0  0  0  0
    2.1680   -3.4270   -3.7410 O   0  0  0  0  0  0  0  0  0  0  0  0
   -2.3040   -6.9230    0.6180 H   0  0  0  0  0  0  0  0  0  0  0  0
   -1.2560   -8.1940   -0.0570 H   0  0  0  0  0  0  0  0  0  0  0  0
   -1.2800   -6.1340    2.8240 H   0  0  0  0  0  0  0  0  0  0  0  0
    1.2120   -7.4830   -0.1890 H   0  0  0  0  0  0  0  0  0  0  0  0
    3.0410   -6.1140    0.4340 H   0  0  0  0  0  0  0  0  0  0  0  0
    2.2370   -5.7850    1.9800 H   0  0  0  0  0  0  0  0  0  0  0  0
    2.6160   -3.7940    0.7240 H   0  0  0  0  0  0  0  0  0  0  0  0
    0.8480   -4.1070    0.9930 H   0  0  0  0  0  0  0  0  0  0  0  0
    2.4850   -4.6620   -1.5560 H   0  0  0  0  0  0  0  0  0  0  0  0
    0.6880   -5.0420   -1.3070 H   0  0  0  0  0  0  0  0  0  0  0  0
    2.0350   -2.2840   -1.3200 H   0  0  0  0  0  0  0  0  0  0  0  0
   -0.9060   -3.0460   -1.0370 H   0  0  0  0  0  0  0  0  0  0  0  0
  1 15  1  0  0  0  0
  2 17  1  6  0  0  0
  2  3  1  0  0  0  0
  2  1  1  0  0  0  0
  3 18  1  0  0  0  0
  3 19  1  0  0  0  0
  4  3  1  0  0  0  0
  5 20  1  0  0  0  0
  5  4  2  0  0  0  0
  6  5  1  0  0  0  0
  7  6  1  0  0  0  0
  7 12  1  0  0  0  0
  8  9  1  0  0  0  0
  8  7  2  0  0  0  0
  9 10  2  0  0  0  0
 10 24  1  0  0  0  0
 10 11  1  0  0  0  0
 11 25  1  0  0  0  0
 12 11  2  0  0  0  0
 12  4  1  0  0  0  0
 13 14  2  0  0  0  0
 13  2  1  0  0  0  0
 16  1  1  0  0  0  0
 21  6  1  0  0  0  0
 22  8  1  0  0  0  0
 23  9  1  0  0  0  0
 26 13  1  0  0  0  0
 27 37  1  1  0  0  0
 27 26  1  0  0  0  0
 28 39  1  0  0  0  0
 28 27  1  0  0  0  0
 29 33  1  0  0  0  0
 29 28  1  0  0  0  0
 30 29  2  0  0  0  0
 31 30  1  0  0  0  0
 31 32  1  0  0  0  0
 32 33  2  0  0  0  0
 34 35  2  0  0  0  0
 34 27  1  0  0  0  0
 36 26  1  0  0  0  0
 38 28  1  0  0  0  0
 40 30  1  0  0  0  0
 41 31  1  0  0  0  0
 42 32  1  0  0  0  0
 43 55  1  0  0  0  0
 43 44  1  0  0  0  0
 44 45  2  0  0  0  0
 45 57  1  0  0  0  0
 46 47  1  0  0  0  0
 46 44  1  0  0  0  0
 47 60  1  0  0  0  0
 48 61  1  0  0  0  0
 48 47  1  0  0  0  0
 48 62  1  0  0  0  0
 49 48  1  0  0  0  0
 50 65  1  1  0  0  0
 50 49  1  0  0  0  0
 50 51  1  0  0  0  0
 51 34  1  0  0  0  0
 52 50  1  0  0  0  0
 53 52  1  0  0  0  0
 54 52  2  0  0  0  0
 56 43  1  0  0  0  0
 58 46  1  0  0  0  0
 59 47  1  0  0  0  0
 63 49  1  0  0  0  0
 64 49  1  0  0  0  0
 66 51  1  0  0  0  0
M  END
$$$$
