WHV.pdb
 OpenBabel07022419173D

 59 61  0  0  1  0  0  0  0  0999 V2000
    0.2560    1.1320    4.3590 N   0  0  0  0  0  0  0  0  0  0  0  0
    0.4200    0.9230    2.9540 C   0  0  1  0  0  0  0  0  0  0  0  0
    1.6110    0.0880    2.5860 C   0  0  0  0  0  0  0  0  0  0  0  0
    2.8890    0.6740    3.0330 C   0  0  0  0  0  0  0  0  0  0  0  0
    3.6640    0.2820    4.0980 C   0  0  0  0  0  0  0  0  0  0  0  0
    4.7660    1.0620    4.1910 N   0  0  0  0  0  0  0  0  0  0  0  0
    4.6980    1.9620    3.1780 C   0  0  0  0  0  0  0  0  0  0  0  0
    5.5340    2.9990    2.7760 C   0  0  0  0  0  0  0  0  0  0  0  0
    5.2140    3.7850    1.6720 C   0  0  0  0  0  0  0  0  0  0  0  0
    4.0640    3.5540    0.9550 C   0  0  0  0  0  0  0  0  0  0  0  0
    3.2600    2.5270    1.3740 C   0  0  0  0  0  0  0  0  0  0  0  0
    3.5600    1.7350    2.4670 C   0  0  0  0  0  0  0  0  0  0  0  0
   -0.7760    0.2470    2.3810 C   0  0  0  0  0  0  0  0  0  0  0  0
   -1.7430   -0.0390    3.1650 O   0  0  0  0  0  0  0  0  0  0  0  0
    0.9190    1.8590    4.6740 H   0  0  0  0  0  0  0  0  0  0  0  0
   -0.7310    1.4760    4.5030 H   0  0  0  0  0  0  0  0  0  0  0  0
    0.5660    1.9300    2.4860 H   0  0  0  0  0  0  0  0  0  0  0  0
    1.6210    0.0060    1.4740 H   0  0  0  0  0  0  0  0  0  0  0  0
    1.4530   -0.9380    2.9690 H   0  0  0  0  0  0  0  0  0  0  0  0
    3.4320   -0.5270    4.7640 H   0  0  0  0  0  0  0  0  0  0  0  0
    5.5490    1.0300    4.8810 H   0  0  0  0  0  0  0  0  0  0  0  0
    6.4430    3.2040    3.3180 H   0  0  0  0  0  0  0  0  0  0  0  0
    5.8550    4.5940    1.3500 H   0  0  0  0  0  0  0  0  0  0  0  0
    3.7540    4.1230    0.0910 H   0  0  0  0  0  0  0  0  0  0  0  0
    2.3460    2.3350    0.8130 H   0  0  0  0  0  0  0  0  0  0  0  0
   -0.9250   -0.1040    1.0290 N   0  0  0  0  0  0  0  0  0  0  0  0
   -2.0690   -0.7530    0.4620 C   0  0  1  0  0  0  0  0  0  0  0  0
   -2.6890    0.2580   -0.5120 C   0  0  0  0  0  0  0  0  0  0  0  0
   -1.7230    0.6400   -1.5650 C   0  0  0  0  0  0  0  0  0  0  0  0
   -1.5700    0.0040   -2.7730 C   0  0  0  0  0  0  0  0  0  0  0  0
   -0.5940    0.6330   -3.4740 N   0  0  0  0  0  0  0  0  0  0  0  0
   -0.1400    1.6490   -2.7210 C   0  0  0  0  0  0  0  0  0  0  0  0
   -0.8250    1.6560   -1.5590 N   0  0  0  0  0  0  0  0  0  0  0  0
   -1.7880   -1.9770   -0.2910 C   0  0  0  0  0  0  0  0  0  0  0  0
   -0.5740   -2.3230   -0.4130 O   0  0  0  0  0  0  0  0  0  0  0  0
   -0.1050    0.1440    0.3960 H   0  0  0  0  0  0  0  0  0  0  0  0
   -2.8170   -0.9210    1.2800 H   0  0  0  0  0  0  0  0  0  0  0  0
   -2.9730    1.1870    0.0140 H   0  0  0  0  0  0  0  0  0  0  0  0
   -3.6420   -0.1470   -0.9420 H   0  0  0  0  0  0  0  0  0  0  0  0
   -2.1190   -0.8550   -3.1300 H   0  0  0  0  0  0  0  0  0  0  0  0
   -0.2990    0.3290   -4.4240 H   0  0  0  0  0  0  0  0  0  0  0  0
    0.6390    2.3230   -3.0250 H   0  0  0  0  0  0  0  0  0  0  0  0
   -2.3370   -5.3630    0.4890 C   0  0  0  0  0  0  0  0  0  0  0  0
   -2.8760   -5.2520   -0.9210 C   0  0  0  0  0  0  0  0  0  0  0  0
   -2.3680   -6.4460   -1.6950 C   0  0  0  0  0  0  0  0  0  0  0  0
   -2.3540   -4.0060   -1.6180 C   0  0  2  0  0  0  0  0  0  0  0  0
   -2.7500   -2.8050   -0.8920 N   0  0  0  0  0  0  0  0  0  0  0  0
   -2.9610   -4.0270   -2.9710 C   0  0  0  0  0  0  0  0  0  0  0  0
   -2.7480   -4.9500   -3.7710 O   0  0  0  0  0  0  0  0  0  0  0  0
   -3.7940   -2.9960   -3.3710 O   0  0  0  0  0  0  0  0  0  0  0  0
   -1.2440   -5.4130    0.4820 H   0  0  0  0  0  0  0  0  0  0  0  0
   -2.7220   -6.3410    0.8820 H   0  0  0  0  0  0  0  0  0  0  0  0
   -2.7450   -4.5850    1.1560 H   0  0  0  0  0  0  0  0  0  0  0  0
   -3.9740   -5.2010   -0.8920 H   0  0  0  0  0  0  0  0  0  0  0  0
   -1.4360   -6.2330   -2.2370 H   0  0  0  0  0  0  0  0  0  0  0  0
   -2.1270   -7.3060   -1.0080 H   0  0  0  0  0  0  0  0  0  0  0  0
   -3.1530   -6.7960   -2.3930 H   0  0  0  0  0  0  0  0  0  0  0  0
   -1.2480   -4.0620   -1.6650 H   0  0  0  0  0  0  0  0  0  0  0  0
   -3.7550   -2.5480   -0.8120 H   0  0  0  0  0  0  0  0  0  0  0  0
  1 16  1  0  0  0  0
  1 15  1  0  0  0  0
  2 17  1  6  0  0  0
  2  1  1  0  0  0  0
  3  2  1  0  0  0  0
  3 19  1  0  0  0  0
  3  4  1  0  0  0  0
  4  5  2  0  0  0  0
  5  6  1  0  0  0  0
  5 20  1  0  0  0  0
  6 21  1  0  0  0  0
  7  6  1  0  0  0  0
  8  7  1  0  0  0  0
  8 22  1  0  0  0  0
  9  8  2  0  0  0  0
 10 11  2  0  0  0  0
 10  9  1  0  0  0  0
 11 12  1  0  0  0  0
 12  4  1  0  0  0  0
 12  7  2  0  0  0  0
 13  2  1  0  0  0  0
 13 14  2  0  0  0  0
 18  3  1  0  0  0  0
 23  9  1  0  0  0  0
 24 10  1  0  0  0  0
 25 11  1  0  0  0  0
 26 13  1  0  0  0  0
 27 26  1  0  0  0  0
 27 37  1  1  0  0  0
 28 38  1  0  0  0  0
 28 27  1  0  0  0  0
 29 33  1  0  0  0  0
 29 28  1  0  0  0  0
 30 29  2  0  0  0  0
 31 30  1  0  0  0  0
 31 32  1  0  0  0  0
 32 33  2  0  0  0  0
 34 27  1  0  0  0  0
 35 34  2  0  0  0  0
 36 26  1  0  0  0  0
 39 28  1  0  0  0  0
 40 30  1  0  0  0  0
 41 31  1  0  0  0  0
 42 32  1  0  0  0  0
 43 52  1  0  0  0  0
 43 53  1  0  0  0  0
 44 54  1  0  0  0  0
 44 43  1  0  0  0  0
 45 56  1  0  0  0  0
 45 44  1  0  0  0  0
 46 58  1  6  0  0  0
 46 44  1  0  0  0  0
 46 47  1  0  0  0  0
 47 59  1  0  0  0  0
 47 34  1  0  0  0  0
 48 46  1  0  0  0  0
 49 48  2  0  0  0  0
 50 48  1  0  0  0  0
 51 43  1  0  0  0  0
 55 45  1  0  0  0  0
 57 45  1  0  0  0  0
M  END
$$$$
