WHY.pdb
 OpenBabel07022419173D

 64 67  0  0  1  0  0  0  0  0999 V2000
    1.9430    2.6910    0.1820 N   0  0  0  0  0  0  0  0  0  0  0  0
    2.3330    2.1480    1.4570 C   0  0  1  0  0  0  0  0  0  0  0  0
    2.3700    3.1570    2.5560 C   0  0  0  0  0  0  0  0  0  0  0  0
    1.1070    3.8340    2.8450 C   0  0  0  0  0  0  0  0  0  0  0  0
    0.2710    3.4920    3.8820 C   0  0  0  0  0  0  0  0  0  0  0  0
   -0.7890    4.3040    3.8290 N   0  0  0  0  0  0  0  0  0  0  0  0
   -0.6650    5.1570    2.7960 C   0  0  0  0  0  0  0  0  0  0  0  0
   -1.4860    6.1870    2.3210 C   0  0  0  0  0  0  0  0  0  0  0  0
   -1.1370    6.9420    1.2250 C   0  0  0  0  0  0  0  0  0  0  0  0
    0.0560    6.6510    0.6030 C   0  0  0  0  0  0  0  0  0  0  0  0
    0.8750    5.6270    1.0720 C   0  0  0  0  0  0  0  0  0  0  0  0
    0.5210    4.8690    2.1740 C   0  0  0  0  0  0  0  0  0  0  0  0
    1.5330    0.9440    1.8150 C   0  0  0  0  0  0  0  0  0  0  0  0
    1.7900    0.3420    2.8890 O   0  0  0  0  0  0  0  0  0  0  0  0
    1.9990    1.8770   -0.5040 H   0  0  0  0  0  0  0  0  0  0  0  0
    2.7260    3.3340   -0.1470 H   0  0  0  0  0  0  0  0  0  0  0  0
    3.3910    1.7830    1.3290 H   0  0  0  0  0  0  0  0  0  0  0  0
    2.8370    2.7040    3.4740 H   0  0  0  0  0  0  0  0  0  0  0  0
    3.1280    3.9360    2.2420 H   0  0  0  0  0  0  0  0  0  0  0  0
    0.4140    2.7030    4.6350 H   0  0  0  0  0  0  0  0  0  0  0  0
   -1.6140    4.3080    4.4780 H   0  0  0  0  0  0  0  0  0  0  0  0
   -2.4210    6.3890    2.8380 H   0  0  0  0  0  0  0  0  0  0  0  0
   -1.7890    7.7390    0.8710 H   0  0  0  0  0  0  0  0  0  0  0  0
    0.3770    7.2230   -0.2710 H   0  0  0  0  0  0  0  0  0  0  0  0
    1.8040    5.4120    0.5880 H   0  0  0  0  0  0  0  0  0  0  0  0
    0.4920    0.4610    0.9800 N   0  0  0  0  0  0  0  0  0  0  0  0
   -0.2400   -0.7080    1.3870 C   0  0  1  0  0  0  0  0  0  0  0  0
   -1.6880   -0.3830    1.6990 C   0  0  0  0  0  0  0  0  0  0  0  0
   -2.4270    0.1920    0.5770 C   0  0  0  0  0  0  0  0  0  0  0  0
   -3.1630   -0.4150   -0.4140 C   0  0  0  0  0  0  0  0  0  0  0  0
   -3.6750    0.5300   -1.2470 N   0  0  0  0  0  0  0  0  0  0  0  0
   -3.2670    1.7230   -0.7860 C   0  0  0  0  0  0  0  0  0  0  0  0
   -2.5170    1.5270    0.3090 N   0  0  0  0  0  0  0  0  0  0  0  0
   -0.1100   -1.8000    0.4010 C   0  0  0  0  0  0  0  0  0  0  0  0
    0.5540   -1.5820   -0.6690 O   0  0  0  0  0  0  0  0  0  0  0  0
    0.2750    0.9730    0.0730 H   0  0  0  0  0  0  0  0  0  0  0  0
    0.1860   -1.0640    2.3530 H   0  0  0  0  0  0  0  0  0  0  0  0
   -1.6810    0.2680    2.6030 H   0  0  0  0  0  0  0  0  0  0  0  0
   -2.1430   -1.3540    2.0450 H   0  0  0  0  0  0  0  0  0  0  0  0
   -3.3340   -1.4680   -0.5500 H   0  0  0  0  0  0  0  0  0  0  0  0
   -4.2730    0.3630   -2.0870 H   0  0  0  0  0  0  0  0  0  0  0  0
   -3.5380    2.6600   -1.2730 H   0  0  0  0  0  0  0  0  0  0  0  0
    1.3300   -9.1640   -3.8330 O   0  0  0  0  0  0  0  0  0  0  0  0
    1.0960   -8.1760   -2.8580 C   0  0  0  0  0  0  0  0  0  0  0  0
    0.0210   -8.3370   -2.0140 C   0  0  0  0  0  0  0  0  0  0  0  0
   -0.2480   -7.3910   -1.0410 C   0  0  0  0  0  0  0  0  0  0  0  0
    0.5670   -6.2910   -0.9250 C   0  0  0  0  0  0  0  0  0  0  0  0
    0.3420   -5.2430    0.0730 C   0  0  0  0  0  0  0  0  0  0  0  0
   -0.4760   -4.0970   -0.4860 C   0  0  2  0  0  0  0  0  0  0  0  0
   -0.6700   -3.0800    0.5600 N   0  0  0  0  0  0  0  0  0  0  0  0
   -1.8060   -4.5850   -0.8800 C   0  0  0  0  0  0  0  0  0  0  0  0
   -1.9480   -5.4140   -1.8310 O   0  0  0  0  0  0  0  0  0  0  0  0
    1.6450   -6.1470   -1.7850 C   0  0  0  0  0  0  0  0  0  0  0  0
    1.9150   -7.0770   -2.7460 C   0  0  0  0  0  0  0  0  0  0  0  0
   -2.9490   -4.1460   -0.2120 O   0  0  0  0  0  0  0  0  0  0  0  0
    1.9140   -8.9140   -4.6200 H   0  0  0  0  0  0  0  0  0  0  0  0
   -0.5930   -9.2000   -2.1300 H   0  0  0  0  0  0  0  0  0  0  0  0
   -1.0950   -7.5520   -0.3930 H   0  0  0  0  0  0  0  0  0  0  0  0
    1.3040   -4.8420    0.4540 H   0  0  0  0  0  0  0  0  0  0  0  0
   -0.1860   -5.6920    0.9370 H   0  0  0  0  0  0  0  0  0  0  0  0
    0.0440   -3.6180   -1.3360 H   0  0  0  0  0  0  0  0  0  0  0  0
   -1.2210   -3.3130    1.4110 H   0  0  0  0  0  0  0  0  0  0  0  0
    2.3050   -5.2870   -1.7140 H   0  0  0  0  0  0  0  0  0  0  0  0
    2.7680   -6.9570   -3.4220 H   0  0  0  0  0  0  0  0  0  0  0  0
  1  2  1  0  0  0  0
  2 17  1  6  0  0  0
  2 13  1  0  0  0  0
  2  3  1  0  0  0  0
  3  4  1  0  0  0  0
  3 18  1  0  0  0  0
  4  5  2  0  0  0  0
  5 20  1  0  0  0  0
  6  5  1  0  0  0  0
  6 21  1  0  0  0  0
  7  6  1  0  0  0  0
  8  7  1  0  0  0  0
  8 22  1  0  0  0  0
  9  8  2  0  0  0  0
 10 11  2  0  0  0  0
 10  9  1  0  0  0  0
 11 12  1  0  0  0  0
 12  7  2  0  0  0  0
 12  4  1  0  0  0  0
 13 14  2  0  0  0  0
 15  1  1  0  0  0  0
 16  1  1  0  0  0  0
 19  3  1  0  0  0  0
 23  9  1  0  0  0  0
 24 10  1  0  0  0  0
 25 11  1  0  0  0  0
 26 27  1  0  0  0  0
 26 13  1  0  0  0  0
 27 28  1  0  0  0  0
 27 37  1  1  0  0  0
 28 39  1  0  0  0  0
 28 38  1  0  0  0  0
 29 28  1  0  0  0  0
 30 29  2  0  0  0  0
 31 32  1  0  0  0  0
 31 30  1  0  0  0  0
 32 33  2  0  0  0  0
 33 29  1  0  0  0  0
 34 50  1  0  0  0  0
 34 27  1  0  0  0  0
 35 34  2  0  0  0  0
 36 26  1  0  0  0  0
 40 30  1  0  0  0  0
 41 31  1  0  0  0  0
 42 32  1  0  0  0  0
 43 44  1  0  0  0  0
 44 54  2  0  0  0  0
 44 45  1  0  0  0  0
 45 46  2  0  0  0  0
 46 47  1  0  0  0  0
 46 58  1  0  0  0  0
 47 48  1  0  0  0  0
 48 59  1  0  0  0  0
 48 60  1  0  0  0  0
 49 61  1  6  0  0  0
 49 48  1  0  0  0  0
 49 50  1  0  0  0  0
 50 62  1  0  0  0  0
 51 49  1  0  0  0  0
 51 55  1  0  0  0  0
 52 51  2  0  0  0  0
 53 63  1  0  0  0  0
 53 47  2  0  0  0  0
 54 53  1  0  0  0  0
 56 43  1  0  0  0  0
 57 45  1  0  0  0  0
 64 54  1  0  0  0  0
M  END
$$$$
