WIC.pdb
 OpenBabel07022419173D

 56 57  0  0  1  0  0  0  0  0999 V2000
    1.5030   -1.3100    1.5650 N   0  0  0  0  0  0  0  0  0  0  0  0
    1.0840    0.0020    1.1340 C   0  0  1  0  0  0  0  0  0  0  0  0
    1.8230    0.3230   -0.1500 C   0  0  0  0  0  0  0  0  0  0  0  0
    3.2760    0.2920    0.1570 C   0  0  0  0  0  0  0  0  0  0  0  0
    4.1830   -0.7180   -0.1740 C   0  0  0  0  0  0  0  0  0  0  0  0
    5.4020   -0.3690    0.2810 N   0  0  0  0  0  0  0  0  0  0  0  0
    5.3410    0.8260    0.8960 C   0  0  0  0  0  0  0  0  0  0  0  0
    6.3150    1.5780    1.5090 C   0  0  0  0  0  0  0  0  0  0  0  0
    6.0000    2.8020    2.0830 C   0  0  0  0  0  0  0  0  0  0  0  0
    4.6850    3.2050    2.0030 C   0  0  0  0  0  0  0  0  0  0  0  0
    3.7200    2.4510    1.3920 C   0  0  0  0  0  0  0  0  0  0  0  0
    4.0310    1.2320    0.8190 C   0  0  0  0  0  0  0  0  0  0  0  0
   -0.4050    0.0060    0.8920 C   0  0  0  0  0  0  0  0  0  0  0  0
   -0.9380    1.0580    0.5170 O   0  0  0  0  0  0  0  0  0  0  0  0
    1.3060   -1.9870    0.7990 H   0  0  0  0  0  0  0  0  0  0  0  0
    1.0710   -1.6540    2.4260 H   0  0  0  0  0  0  0  0  0  0  0  0
    1.3240    0.7890    1.8670 H   0  0  0  0  0  0  0  0  0  0  0  0
    1.6180   -0.4150   -0.9480 H   0  0  0  0  0  0  0  0  0  0  0  0
    1.5290    1.3160   -0.5530 H   0  0  0  0  0  0  0  0  0  0  0  0
    3.9450   -1.6190   -0.7010 H   0  0  0  0  0  0  0  0  0  0  0  0
    6.2680   -0.9350    0.1750 H   0  0  0  0  0  0  0  0  0  0  0  0
    7.3450    1.2600    1.5700 H   0  0  0  0  0  0  0  0  0  0  0  0
    6.7460    3.4110    2.5700 H   0  0  0  0  0  0  0  0  0  0  0  0
    4.4340    4.1520    2.4460 H   0  0  0  0  0  0  0  0  0  0  0  0
    2.6770    2.7570    1.3210 H   0  0  0  0  0  0  0  0  0  0  0  0
   -3.9780   -0.2290    3.3430 C   0  0  0  0  0  0  0  0  0  0  0  0
   -3.3340    0.6550    2.2640 C   0  0  0  0  0  0  0  0  0  0  0  0
   -3.3850   -0.0870    0.9730 C   0  0  2  0  0  0  0  0  0  0  0  0
   -4.8500   -0.3820    0.6550 C   0  0  0  0  0  0  0  0  0  0  0  0
   -2.5370   -1.3410    0.9350 C   0  0  2  0  0  0  0  0  0  0  0  0
   -1.1370   -1.1680    1.0930 N   0  0  0  0  0  0  0  0  0  0  0  0
   -2.9200   -2.1760   -0.1980 C   0  0  0  0  0  0  0  0  0  0  0  0
   -4.1010   -2.4700   -0.5100 O   0  0  0  0  0  0  0  0  0  0  0  0
   -4.9420   -0.6500    3.0100 H   0  0  0  0  0  0  0  0  0  0  0  0
   -3.2770   -0.9720    3.7500 H   0  0  0  0  0  0  0  0  0  0  0  0
   -4.2550    0.4950    4.1610 H   0  0  0  0  0  0  0  0  0  0  0  0
   -3.9920    1.5620    2.1490 H   0  0  0  0  0  0  0  0  0  0  0  0
   -2.3700    1.0060    2.6050 H   0  0  0  0  0  0  0  0  0  0  0  0
   -3.0880    0.6240    0.1410 H   0  0  0  0  0  0  0  0  0  0  0  0
   -5.4260    0.4910    1.0860 H   0  0  0  0  0  0  0  0  0  0  0  0
   -5.2120   -1.3110    1.1280 H   0  0  0  0  0  0  0  0  0  0  0  0
   -5.0670   -0.3690   -0.4210 H   0  0  0  0  0  0  0  0  0  0  0  0
   -2.8540   -1.8130    1.9590 H   0  0  0  0  0  0  0  0  0  0  0  0
   -0.6290   -2.0720    1.4020 H   0  0  0  0  0  0  0  0  0  0  0  0
   -1.9430   -2.7590   -1.0960 N   0  0  0  0  0  0  0  0  0  0  0  0
   -2.3180   -3.5850   -2.2170 C   0  0  1  0  0  0  0  0  0  0  0  0
   -1.9140   -2.9740   -3.5410 C   0  0  0  0  0  0  0  0  0  0  0  0
   -2.4530   -4.1240   -4.8390 S   0  0  0  0  0  0  0  0  0  0  0  0
   -1.7100   -4.9150   -2.0450 C   0  0  0  0  0  0  0  0  0  0  0  0
   -1.9020   -5.7990   -2.9040 O   0  0  0  0  0  0  0  0  0  0  0  0
   -0.9310   -5.1950   -0.9480 O   0  0  0  0  0  0  0  0  0  0  0  0
   -0.9410   -2.5620   -0.9030 H   0  0  0  0  0  0  0  0  0  0  0  0
   -3.4400   -3.6980   -2.2810 H   0  0  0  0  0  0  0  0  0  0  0  0
   -0.8200   -2.8530   -3.6360 H   0  0  0  0  0  0  0  0  0  0  0  0
   -2.4680   -2.0310   -3.6720 H   0  0  0  0  0  0  0  0  0  0  0  0
   -1.5210   -4.1710   -5.8990 H   0  0  0  0  0  0  0  0  0  0  0  0
  1 16  1  0  0  0  0
  2  1  1  0  0  0  0
  2 17  1  1  0  0  0
  3  4  1  0  0  0  0
  3  2  1  0  0  0  0
  4 12  1  0  0  0  0
  5  4  2  0  0  0  0
  5  6  1  0  0  0  0
  6  7  1  0  0  0  0
  7  8  1  0  0  0  0
  8 22  1  0  0  0  0
  8  9  2  0  0  0  0
  9 23  1  0  0  0  0
 10  9  1  0  0  0  0
 10 24  1  0  0  0  0
 11 10  2  0  0  0  0
 12  7  2  0  0  0  0
 12 11  1  0  0  0  0
 13 31  1  0  0  0  0
 13  2  1  0  0  0  0
 14 13  2  0  0  0  0
 15  1  1  0  0  0  0
 18  3  1  0  0  0  0
 19  3  1  0  0  0  0
 20  5  1  0  0  0  0
 21  6  1  0  0  0  0
 25 11  1  0  0  0  0
 26 35  1  0  0  0  0
 26 36  1  0  0  0  0
 27 38  1  0  0  0  0
 27 26  1  0  0  0  0
 28 39  1  6  0  0  0
 28 27  1  0  0  0  0
 29 28  1  0  0  0  0
 29 40  1  0  0  0  0
 29 41  1  0  0  0  0
 30 28  1  0  0  0  0
 30 31  1  0  0  0  0
 30 43  1  1  0  0  0
 31 44  1  0  0  0  0
 32 30  1  0  0  0  0
 33 32  2  0  0  0  0
 34 26  1  0  0  0  0
 37 27  1  0  0  0  0
 42 29  1  0  0  0  0
 45 52  1  0  0  0  0
 45 32  1  0  0  0  0
 46 53  1  1  0  0  0
 46 49  1  0  0  0  0
 46 45  1  0  0  0  0
 47 46  1  0  0  0  0
 48 47  1  0  0  0  0
 49 51  1  0  0  0  0
 50 49  2  0  0  0  0
 54 47  1  0  0  0  0
 55 47  1  0  0  0  0
 56 48  1  0  0  0  0
M  END
$$$$
