WIE.pdb
 OpenBabel07022419173D

 61 62  0  0  1  0  0  0  0  0999 V2000
    0.9470    2.7790    1.1010 N   0  0  0  0  0  0  0  0  0  0  0  0
    0.7890    1.4540    0.5390 C   0  0  1  0  0  0  0  0  0  0  0  0
    1.4700    0.4680    1.4260 C   0  0  0  0  0  0  0  0  0  0  0  0
    2.9190    0.8820    1.4740 C   0  0  0  0  0  0  0  0  0  0  0  0
    3.5690    1.5190    2.5130 C   0  0  0  0  0  0  0  0  0  0  0  0
    4.8620    1.7140    2.1580 N   0  0  0  0  0  0  0  0  0  0  0  0
    5.0890    1.2300    0.9250 C   0  0  0  0  0  0  0  0  0  0  0  0
    6.2270    1.1890    0.1290 C   0  0  0  0  0  0  0  0  0  0  0  0
    6.1890    0.6240   -1.1280 C   0  0  0  0  0  0  0  0  0  0  0  0
    4.9850    0.1090   -1.5510 C   0  0  0  0  0  0  0  0  0  0  0  0
    3.8430    0.1440   -0.7670 C   0  0  0  0  0  0  0  0  0  0  0  0
    3.8800    0.7100    0.4940 C   0  0  0  0  0  0  0  0  0  0  0  0
   -0.6390    1.2020    0.2860 C   0  0  0  0  0  0  0  0  0  0  0  0
   -1.4490    2.1620    0.4660 O   0  0  0  0  0  0  0  0  0  0  0  0
    1.4380    2.7430    2.0360 H   0  0  0  0  0  0  0  0  0  0  0  0
    0.0570    3.2730    1.2520 H   0  0  0  0  0  0  0  0  0  0  0  0
    1.3480    1.4590   -0.4270 H   0  0  0  0  0  0  0  0  0  0  0  0
    1.0910    0.4940    2.4590 H   0  0  0  0  0  0  0  0  0  0  0  0
    1.3990   -0.5790    1.0660 H   0  0  0  0  0  0  0  0  0  0  0  0
    3.1360    1.8190    3.4560 H   0  0  0  0  0  0  0  0  0  0  0  0
    5.6210    2.1730    2.7260 H   0  0  0  0  0  0  0  0  0  0  0  0
    7.1820    1.5950    0.4560 H   0  0  0  0  0  0  0  0  0  0  0  0
    7.0580    0.5720   -1.7840 H   0  0  0  0  0  0  0  0  0  0  0  0
    4.9100   -0.3450   -2.5340 H   0  0  0  0  0  0  0  0  0  0  0  0
    2.8990   -0.2620   -1.1000 H   0  0  0  0  0  0  0  0  0  0  0  0
   -0.9750   -1.9160   -2.5720 C   0  0  0  0  0  0  0  0  0  0  0  0
   -2.4200   -1.9340   -2.2200 C   0  0  0  0  0  0  0  0  0  0  0  0
   -2.9670   -0.6310   -1.7400 C   0  0  2  0  0  0  0  0  0  0  0  0
   -2.8190    0.4720   -2.7810 C   0  0  0  0  0  0  0  0  0  0  0  0
   -2.5550   -0.2110   -0.3760 C   0  0  2  0  0  0  0  0  0  0  0  0
   -1.1640   -0.0380   -0.1440 N   0  0  0  0  0  0  0  0  0  0  0  0
   -3.2040   -1.0390    0.6760 C   0  0  0  0  0  0  0  0  0  0  0  0
   -4.4020   -1.3340    0.5450 O   0  0  0  0  0  0  0  0  0  0  0  0
   -0.3340   -2.5440   -1.9220 H   0  0  0  0  0  0  0  0  0  0  0  0
   -0.5800   -0.8780   -2.6430 H   0  0  0  0  0  0  0  0  0  0  0  0
   -0.8440   -2.3380   -3.5950 H   0  0  0  0  0  0  0  0  0  0  0  0
   -2.9960   -2.2650   -3.1370 H   0  0  0  0  0  0  0  0  0  0  0  0
   -2.6770   -2.7260   -1.4670 H   0  0  0  0  0  0  0  0  0  0  0  0
   -4.0920   -0.7870   -1.6850 H   0  0  0  0  0  0  0  0  0  0  0  0
   -1.7740    0.8050   -2.8990 H   0  0  0  0  0  0  0  0  0  0  0  0
   -3.2790    0.1190   -3.7270 H   0  0  0  0  0  0  0  0  0  0  0  0
   -3.4070    1.3520   -2.4480 H   0  0  0  0  0  0  0  0  0  0  0  0
   -3.0280    0.8220   -0.2060 H   0  0  0  0  0  0  0  0  0  0  0  0
   -0.4410   -0.8000   -0.2680 H   0  0  0  0  0  0  0  0  0  0  0  0
   -2.4380   -1.4640    1.7980 N   0  0  0  0  0  0  0  0  0  0  0  0
   -3.0700   -2.2450    2.8070 C   0  0  1  0  0  0  0  0  0  0  0  0
   -2.4910   -3.5810    3.0220 C   0  0  0  0  0  0  0  0  0  0  0  0
   -2.4980   -4.5740    1.9290 C   0  0  0  0  0  0  0  0  0  0  0  0
   -1.7300   -4.3020    0.7270 C   0  0  0  0  0  0  0  0  0  0  0  0
   -0.9510   -3.3430    0.6280 O   0  0  0  0  0  0  0  0  0  0  0  0
   -3.0010   -1.4100    4.0730 C   0  0  0  0  0  0  0  0  0  0  0  0
   -2.4740   -0.2830    4.1020 O   0  0  0  0  0  0  0  0  0  0  0  0
   -1.8810   -5.1710   -0.3720 O   0  0  0  0  0  0  0  0  0  0  0  0
   -3.5470   -1.9320    5.2250 O   0  0  0  0  0  0  0  0  0  0  0  0
   -1.4380   -1.1720    1.8890 H   0  0  0  0  0  0  0  0  0  0  0  0
   -4.1850   -2.3410    2.5920 H   0  0  0  0  0  0  0  0  0  0  0  0
   -1.4090   -3.4630    3.3720 H   0  0  0  0  0  0  0  0  0  0  0  0
   -2.9850   -4.0220    3.9410 H   0  0  0  0  0  0  0  0  0  0  0  0
   -2.1280   -5.5710    2.3330 H   0  0  0  0  0  0  0  0  0  0  0  0
   -3.5710   -4.8200    1.6520 H   0  0  0  0  0  0  0  0  0  0  0  0
   -1.4950   -4.8670   -1.2490 H   0  0  0  0  0  0  0  0  0  0  0  0
  1 16  1  0  0  0  0
  1 15  1  0  0  0  0
  2 17  1  6  0  0  0
  2  1  1  0  0  0  0
  2  3  1  0  0  0  0
  3  4  1  0  0  0  0
  3 18  1  0  0  0  0
  4  5  2  0  0  0  0
  5 20  1  0  0  0  0
  6  5  1  0  0  0  0
  6 21  1  0  0  0  0
  7  6  1  0  0  0  0
  8 22  1  0  0  0  0
  8  7  2  0  0  0  0
  9  8  1  0  0  0  0
 10  9  2  0  0  0  0
 10 11  1  0  0  0  0
 11 12  2  0  0  0  0
 12  7  1  0  0  0  0
 12  4  1  0  0  0  0
 13 14  2  0  0  0  0
 13  2  1  0  0  0  0
 19  3  1  0  0  0  0
 23  9  1  0  0  0  0
 24 10  1  0  0  0  0
 25 11  1  0  0  0  0
 26 27  1  0  0  0  0
 26 34  1  0  0  0  0
 27 28  1  0  0  0  0
 27 38  1  0  0  0  0
 28 39  1  1  0  0  0
 28 30  1  0  0  0  0
 29 42  1  0  0  0  0
 29 28  1  0  0  0  0
 30 43  1  1  0  0  0
 30 31  1  0  0  0  0
 30 32  1  0  0  0  0
 31 13  1  0  0  0  0
 32 45  1  0  0  0  0
 33 32  2  0  0  0  0
 35 26  1  0  0  0  0
 36 26  1  0  0  0  0
 37 27  1  0  0  0  0
 40 29  1  0  0  0  0
 41 29  1  0  0  0  0
 44 31  1  0  0  0  0
 45 55  1  0  0  0  0
 45 46  1  0  0  0  0
 46 56  1  6  0  0  0
 46 47  1  0  0  0  0
 46 51  1  0  0  0  0
 47 57  1  0  0  0  0
 47 58  1  0  0  0  0
 48 59  1  0  0  0  0
 48 47  1  0  0  0  0
 49 48  1  0  0  0  0
 50 49  2  0  0  0  0
 51 52  2  0  0  0  0
 51 54  1  0  0  0  0
 53 49  1  0  0  0  0
 60 48  1  0  0  0  0
 61 53  1  0  0  0  0
M  END
$$$$
