WIF.pdb
 OpenBabel07022419173D

 65 67  0  0  1  0  0  0  0  0999 V2000
    2.6790   -1.2370    1.9100 N   0  0  0  0  0  0  0  0  0  0  0  0
    1.8530   -0.0230    2.0680 C   0  0  1  0  0  0  0  0  0  0  0  0
    2.6860    1.1900    2.0480 C   0  0  0  0  0  0  0  0  0  0  0  0
    3.4990    1.4400    0.8450 C   0  0  0  0  0  0  0  0  0  0  0  0
    4.8350    1.0290    0.6750 C   0  0  0  0  0  0  0  0  0  0  0  0
    5.2480    1.3850   -0.5410 N   0  0  0  0  0  0  0  0  0  0  0  0
    4.2710    2.0120   -1.1990 C   0  0  0  0  0  0  0  0  0  0  0  0
    4.2330    2.5680   -2.4550 C   0  0  0  0  0  0  0  0  0  0  0  0
    3.0750    3.1840   -2.8770 C   0  0  0  0  0  0  0  0  0  0  0  0
    1.9790    3.2390   -2.0510 C   0  0  0  0  0  0  0  0  0  0  0  0
    2.0560    2.6690   -0.7990 C   0  0  0  0  0  0  0  0  0  0  0  0
    3.1840    2.0480   -0.3420 C   0  0  0  0  0  0  0  0  0  0  0  0
    0.6930   -0.0740    1.1990 C   0  0  0  0  0  0  0  0  0  0  0  0
   -0.1570    0.8400    1.1370 O   0  0  0  0  0  0  0  0  0  0  0  0
    3.4810   -1.1120    2.5680 H   0  0  0  0  0  0  0  0  0  0  0  0
    2.1150   -2.0500    2.1920 H   0  0  0  0  0  0  0  0  0  0  0  0
    1.4590   -0.1570    3.1450 H   0  0  0  0  0  0  0  0  0  0  0  0
    2.0240    2.0930    2.2560 H   0  0  0  0  0  0  0  0  0  0  0  0
    3.3840    1.1980    2.9470 H   0  0  0  0  0  0  0  0  0  0  0  0
    5.3840    0.5140    1.4380 H   0  0  0  0  0  0  0  0  0  0  0  0
    6.2120    1.2090   -0.9560 H   0  0  0  0  0  0  0  0  0  0  0  0
    5.0710    2.5420   -3.1250 H   0  0  0  0  0  0  0  0  0  0  0  0
    3.0480    3.6240   -3.8750 H   0  0  0  0  0  0  0  0  0  0  0  0
    1.0600    3.7190   -2.3630 H   0  0  0  0  0  0  0  0  0  0  0  0
    1.2120    2.7220   -0.1580 H   0  0  0  0  0  0  0  0  0  0  0  0
   -0.2490    0.7960   -2.7210 C   0  0  0  0  0  0  0  0  0  0  0  0
    0.4800   -0.5200   -2.5420 C   0  0  0  0  0  0  0  0  0  0  0  0
   -0.4100   -1.5650   -1.9220 C   0  0  2  0  0  0  0  0  0  0  0  0
   -1.6150   -1.8170   -2.7670 C   0  0  0  0  0  0  0  0  0  0  0  0
   -0.6970   -1.2630   -0.4820 C   0  0  2  0  0  0  0  0  0  0  0  0
    0.4580   -1.2190    0.3500 N   0  0  0  0  0  0  0  0  0  0  0  0
   -1.7190   -2.2160    0.0750 C   0  0  0  0  0  0  0  0  0  0  0  0
   -2.7810   -2.3970   -0.5220 O   0  0  0  0  0  0  0  0  0  0  0  0
   -0.3300    1.3980   -1.8160 H   0  0  0  0  0  0  0  0  0  0  0  0
    0.3060    1.3780   -3.4820 H   0  0  0  0  0  0  0  0  0  0  0  0
   -1.2590    0.5860   -3.1620 H   0  0  0  0  0  0  0  0  0  0  0  0
    0.8050   -0.8770   -3.5410 H   0  0  0  0  0  0  0  0  0  0  0  0
    1.3820   -0.3950   -1.9110 H   0  0  0  0  0  0  0  0  0  0  0  0
    0.2050   -2.5240   -2.0030 H   0  0  0  0  0  0  0  0  0  0  0  0
   -1.9270   -2.8710   -2.6440 H   0  0  0  0  0  0  0  0  0  0  0  0
   -2.4120   -1.0880   -2.5470 H   0  0  0  0  0  0  0  0  0  0  0  0
   -1.3150   -1.6240   -3.8330 H   0  0  0  0  0  0  0  0  0  0  0  0
   -1.2170   -0.2670   -0.4420 H   0  0  0  0  0  0  0  0  0  0  0  0
    1.1560   -2.0130    0.3610 H   0  0  0  0  0  0  0  0  0  0  0  0
   -1.4320   -2.8800    1.2730 N   0  0  0  0  0  0  0  0  0  0  0  0
   -2.2770   -3.8010    1.9460 C   0  0  1  0  0  0  0  0  0  0  0  0
   -3.7410   -3.4160    2.0430 C   0  0  0  0  0  0  0  0  0  0  0  0
   -3.8970   -2.1760    2.8070 C   0  0  0  0  0  0  0  0  0  0  0  0
   -3.9850   -2.2680    4.2050 C   0  0  0  0  0  0  0  0  0  0  0  0
   -4.1480   -1.1780    5.0230 C   0  0  0  0  0  0  0  0  0  0  0  0
   -4.2340    0.0830    4.4780 C   0  0  0  0  0  0  0  0  0  0  0  0
   -4.1500    0.1870    3.1130 C   0  0  0  0  0  0  0  0  0  0  0  0
   -3.9840   -0.9220    2.2750 C   0  0  0  0  0  0  0  0  0  0  0  0
   -2.0390   -5.1760    1.5460 C   0  0  0  0  0  0  0  0  0  0  0  0
   -2.6380   -6.1830    1.9790 O   0  0  0  0  0  0  0  0  0  0  0  0
   -1.0440   -5.4270    0.5810 O   0  0  0  0  0  0  0  0  0  0  0  0
   -0.4830   -2.6710    1.7110 H   0  0  0  0  0  0  0  0  0  0  0  0
   -1.9630   -3.7160    3.0550 H   0  0  0  0  0  0  0  0  0  0  0  0
   -4.2260   -3.3890    1.0470 H   0  0  0  0  0  0  0  0  0  0  0  0
   -4.2360   -4.2370    2.6040 H   0  0  0  0  0  0  0  0  0  0  0  0
   -3.9230   -3.2380    4.6930 H   0  0  0  0  0  0  0  0  0  0  0  0
   -4.2150   -1.2560    6.1020 H   0  0  0  0  0  0  0  0  0  0  0  0
   -4.3630    0.9730    5.0840 H   0  0  0  0  0  0  0  0  0  0  0  0
   -4.2150    1.1690    2.6600 H   0  0  0  0  0  0  0  0  0  0  0  0
   -3.9360   -0.7570    1.1950 H   0  0  0  0  0  0  0  0  0  0  0  0
  1  2  1  0  0  0  0
  1 16  1  0  0  0  0
  1 15  1  0  0  0  0
  2 17  1  1  0  0  0
  3  2  1  0  0  0  0
  3 18  1  0  0  0  0
  3 19  1  0  0  0  0
  4  3  1  0  0  0  0
  5  4  2  0  0  0  0
  5 20  1  0  0  0  0
  6  5  1  0  0  0  0
  7  6  1  0  0  0  0
  7 12  1  0  0  0  0
  8  7  2  0  0  0  0
  9  8  1  0  0  0  0
  9 10  2  0  0  0  0
 10 11  1  0  0  0  0
 11 12  2  0  0  0  0
 11 25  1  0  0  0  0
 12  4  1  0  0  0  0
 13  2  1  0  0  0  0
 14 13  2  0  0  0  0
 21  6  1  0  0  0  0
 22  8  1  0  0  0  0
 23  9  1  0  0  0  0
 24 10  1  0  0  0  0
 26 27  1  0  0  0  0
 26 34  1  0  0  0  0
 27 28  1  0  0  0  0
 27 38  1  0  0  0  0
 28 39  1  6  0  0  0
 28 30  1  0  0  0  0
 29 40  1  0  0  0  0
 29 41  1  0  0  0  0
 29 28  1  0  0  0  0
 30 43  1  1  0  0  0
 30 32  1  0  0  0  0
 30 31  1  0  0  0  0
 31 44  1  0  0  0  0
 31 13  1  0  0  0  0
 32 45  1  0  0  0  0
 33 32  2  0  0  0  0
 35 26  1  0  0  0  0
 36 26  1  0  0  0  0
 37 27  1  0  0  0  0
 42 29  1  0  0  0  0
 45 57  1  0  0  0  0
 45 46  1  0  0  0  0
 46 47  1  0  0  0  0
 46 58  1  1  0  0  0
 47 60  1  0  0  0  0
 47 48  1  0  0  0  0
 48 49  1  0  0  0  0
 49 61  1  0  0  0  0
 49 50  2  0  0  0  0
 50 62  1  0  0  0  0
 51 50  1  0  0  0  0
 51 63  1  0  0  0  0
 52 51  2  0  0  0  0
 53 48  2  0  0  0  0
 53 52  1  0  0  0  0
 54 46  1  0  0  0  0
 54 55  1  0  0  0  0
 56 54  2  0  0  0  0
 59 47  1  0  0  0  0
 64 52  1  0  0  0  0
 65 53  1  0  0  0  0
M  END
$$$$
