WIG.pdb
 OpenBabel07022419173D

 52 53  0  0  1  0  0  0  0  0999 V2000
   -0.9040   -3.4540    2.6370 N   0  0  0  0  0  0  0  0  0  0  0  0
    0.0450   -2.3480    2.4160 C   0  0  1  0  0  0  0  0  0  0  0  0
    1.3490   -2.8850    2.0040 C   0  0  0  0  0  0  0  0  0  0  0  0
    2.4320   -1.9420    1.7210 C   0  0  0  0  0  0  0  0  0  0  0  0
    3.2780   -1.4370    2.7160 C   0  0  0  0  0  0  0  0  0  0  0  0
    4.1030   -0.5680    2.1470 N   0  0  0  0  0  0  0  0  0  0  0  0
    3.8380   -0.4860    0.8440 C   0  0  0  0  0  0  0  0  0  0  0  0
    4.3940    0.2330   -0.1910 C   0  0  0  0  0  0  0  0  0  0  0  0
    3.9730    0.1510   -1.4950 C   0  0  0  0  0  0  0  0  0  0  0  0
    2.9190   -0.7220   -1.7530 C   0  0  0  0  0  0  0  0  0  0  0  0
    2.3320   -1.4560   -0.7650 C   0  0  0  0  0  0  0  0  0  0  0  0
    2.7780   -1.3490    0.5330 C   0  0  0  0  0  0  0  0  0  0  0  0
   -0.5400   -1.2820    1.6000 C   0  0  0  0  0  0  0  0  0  0  0  0
    0.1460   -0.4120    1.0710 O   0  0  0  0  0  0  0  0  0  0  0  0
   -0.3490   -4.3320    2.6790 H   0  0  0  0  0  0  0  0  0  0  0  0
   -1.3800   -3.3760    3.5580 H   0  0  0  0  0  0  0  0  0  0  0  0
    0.2290   -1.9190    3.4890 H   0  0  0  0  0  0  0  0  0  0  0  0
    1.2440   -3.6090    1.1380 H   0  0  0  0  0  0  0  0  0  0  0  0
    1.6940   -3.5770    2.8380 H   0  0  0  0  0  0  0  0  0  0  0  0
    3.2560   -1.7120    3.7650 H   0  0  0  0  0  0  0  0  0  0  0  0
    4.8500   -0.0320    2.6690 H   0  0  0  0  0  0  0  0  0  0  0  0
    5.2180    0.9200    0.0160 H   0  0  0  0  0  0  0  0  0  0  0  0
    4.4480    0.7440   -2.2730 H   0  0  0  0  0  0  0  0  0  0  0  0
    2.5930   -0.7850   -2.7840 H   0  0  0  0  0  0  0  0  0  0  0  0
    1.5240   -2.1200   -0.9950 H   0  0  0  0  0  0  0  0  0  0  0  0
   -1.9810    3.3560    1.9070 C   0  0  0  0  0  0  0  0  0  0  0  0
   -1.6020    1.9070    1.5450 C   0  0  0  0  0  0  0  0  0  0  0  0
   -2.8040    1.1190    1.1740 C   0  0  2  0  0  0  0  0  0  0  0  0
   -3.8220    1.0580    2.3170 C   0  0  0  0  0  0  0  0  0  0  0  0
   -2.6360   -0.2330    0.6280 C   0  0  2  0  0  0  0  0  0  0  0  0
   -1.9710   -1.2240    1.3970 N   0  0  0  0  0  0  0  0  0  0  0  0
   -2.2920   -0.2970   -0.8390 C   0  0  0  0  0  0  0  0  0  0  0  0
   -2.6390    0.6050   -1.6340 O   0  0  0  0  0  0  0  0  0  0  0  0
   -2.9440    3.6090    1.4340 H   0  0  0  0  0  0  0  0  0  0  0  0
   -1.2240    4.0750    1.5300 H   0  0  0  0  0  0  0  0  0  0  0  0
   -2.0740    3.4710    3.0040 H   0  0  0  0  0  0  0  0  0  0  0  0
   -0.8980    2.0130    0.7010 H   0  0  0  0  0  0  0  0  0  0  0  0
   -1.0740    1.5320    2.4330 H   0  0  0  0  0  0  0  0  0  0  0  0
   -3.3670    1.7220    0.3770 H   0  0  0  0  0  0  0  0  0  0  0  0
   -4.2560    2.0840    2.4690 H   0  0  0  0  0  0  0  0  0  0  0  0
   -4.6600    0.4320    1.9500 H   0  0  0  0  0  0  0  0  0  0  0  0
   -3.4180    0.6310    3.2280 H   0  0  0  0  0  0  0  0  0  0  0  0
   -3.7410   -0.6370    0.5770 H   0  0  0  0  0  0  0  0  0  0  0  0
   -2.4980   -2.0100    1.8830 H   0  0  0  0  0  0  0  0  0  0  0  0
   -1.5600   -1.3920   -1.3990 N   0  0  0  0  0  0  0  0  0  0  0  0
   -1.2700   -1.3970   -2.8140 C   0  0  0  0  0  0  0  0  0  0  0  0
   -0.5530   -2.6390   -3.1470 C   0  0  0  0  0  0  0  0  0  0  0  0
   -0.1380   -2.8280   -4.3170 O   0  0  0  0  0  0  0  0  0  0  0  0
   -0.3250   -3.6110   -2.2040 O   0  0  0  0  0  0  0  0  0  0  0  0
   -1.2350   -2.1830   -0.7810 H   0  0  0  0  0  0  0  0  0  0  0  0
   -0.6270   -0.5460   -3.1190 H   0  0  0  0  0  0  0  0  0  0  0  0
   -2.2080   -1.2830   -3.4040 H   0  0  0  0  0  0  0  0  0  0  0  0
  1 15  1  0  0  0  0
  1 16  1  0  0  0  0
  2  1  1  0  0  0  0
  2 17  1  1  0  0  0
  3  2  1  0  0  0  0
  3 19  1  0  0  0  0
  4  3  1  0  0  0  0
  4  5  2  0  0  0  0
  5 20  1  0  0  0  0
  6 21  1  0  0  0  0
  6  5  1  0  0  0  0
  7  6  1  0  0  0  0
  8 22  1  0  0  0  0
  8  7  2  0  0  0  0
  9  8  1  0  0  0  0
 10  9  2  0  0  0  0
 10 11  1  0  0  0  0
 11 12  2  0  0  0  0
 12  7  1  0  0  0  0
 12  4  1  0  0  0  0
 13  2  1  0  0  0  0
 14 13  2  0  0  0  0
 18  3  1  0  0  0  0
 23  9  1  0  0  0  0
 24 10  1  0  0  0  0
 25 11  1  0  0  0  0
 26 36  1  0  0  0  0
 27 26  1  0  0  0  0
 27 38  1  0  0  0  0
 28 39  1  6  0  0  0
 28 27  1  0  0  0  0
 28 29  1  0  0  0  0
 29 40  1  0  0  0  0
 29 42  1  0  0  0  0
 30 43  1  1  0  0  0
 30 28  1  0  0  0  0
 30 31  1  0  0  0  0
 31 13  1  0  0  0  0
 31 44  1  0  0  0  0
 32 30  1  0  0  0  0
 33 32  2  0  0  0  0
 34 26  1  0  0  0  0
 35 26  1  0  0  0  0
 37 27  1  0  0  0  0
 41 29  1  0  0  0  0
 45 32  1  0  0  0  0
 45 50  1  0  0  0  0
 46 45  1  0  0  0  0
 47 46  1  0  0  0  0
 47 49  1  0  0  0  0
 48 47  2  0  0  0  0
 51 46  1  0  0  0  0
 52 46  1  0  0  0  0
M  END
$$$$
