WIH.pdb
 OpenBabel07022419173D

 62 64  0  0  1  0  0  0  0  0999 V2000
    2.5710    0.5580   -0.1330 N   0  0  0  0  0  0  0  0  0  0  0  0
    1.6190    0.0790    0.8350 C   0  0  1  0  0  0  0  0  0  0  0  0
    1.4700    0.9990    2.0260 C   0  0  0  0  0  0  0  0  0  0  0  0
    2.7700    1.1470    2.7260 C   0  0  0  0  0  0  0  0  0  0  0  0
    3.1670    0.4480    3.8750 C   0  0  0  0  0  0  0  0  0  0  0  0
    4.4100    0.8190    4.2150 N   0  0  0  0  0  0  0  0  0  0  0  0
    4.8780    1.7450    3.3430 C   0  0  0  0  0  0  0  0  0  0  0  0
    6.0760    2.4280    3.2680 C   0  0  0  0  0  0  0  0  0  0  0  0
    6.3100    3.3470    2.2670 C   0  0  0  0  0  0  0  0  0  0  0  0
    5.2940    3.5410    1.3570 C   0  0  0  0  0  0  0  0  0  0  0  0
    4.0810    2.8580    1.4230 C   0  0  0  0  0  0  0  0  0  0  0  0
    3.8630    1.9420    2.4300 C   0  0  0  0  0  0  0  0  0  0  0  0
    0.3250   -0.1260    0.1400 C   0  0  0  0  0  0  0  0  0  0  0  0
    0.2670    0.1370   -1.0830 O   0  0  0  0  0  0  0  0  0  0  0  0
    2.9470   -0.2820   -0.6410 H   0  0  0  0  0  0  0  0  0  0  0  0
    2.0790    1.1050   -0.9040 H   0  0  0  0  0  0  0  0  0  0  0  0
    2.0310   -0.8930    1.2120 H   0  0  0  0  0  0  0  0  0  0  0  0
    1.2320    2.0110    1.6260 H   0  0  0  0  0  0  0  0  0  0  0  0
    0.7200    0.5980    2.7090 H   0  0  0  0  0  0  0  0  0  0  0  0
    2.5080   -0.2680    4.3550 H   0  0  0  0  0  0  0  0  0  0  0  0
    4.9090    0.4260    5.0410 H   0  0  0  0  0  0  0  0  0  0  0  0
    6.8630    2.2640    3.9900 H   0  0  0  0  0  0  0  0  0  0  0  0
    7.2490    3.8850    2.2060 H   0  0  0  0  0  0  0  0  0  0  0  0
    5.4700    4.2680    0.5600 H   0  0  0  0  0  0  0  0  0  0  0  0
    3.3160    3.0570    0.6880 H   0  0  0  0  0  0  0  0  0  0  0  0
   -1.8590    2.0290    1.4310 C   0  0  0  0  0  0  0  0  0  0  0  0
   -3.0090    1.4870    0.6740 C   0  0  0  0  0  0  0  0  0  0  0  0
   -2.7220    0.4330   -0.3610 C   0  0  2  0  0  0  0  0  0  0  0  0
   -4.1010    0.1230   -0.9640 C   0  0  0  0  0  0  0  0  0  0  0  0
   -2.1230   -0.8260    0.1510 C   0  0  2  0  0  0  0  0  0  0  0  0
   -0.8330   -0.6040    0.8010 N   0  0  0  0  0  0  0  0  0  0  0  0
   -1.9400   -1.9040   -0.8540 C   0  0  0  0  0  0  0  0  0  0  0  0
   -0.7390   -2.2690   -1.1580 O   0  0  0  0  0  0  0  0  0  0  0  0
   -0.9930    2.2830    0.8120 H   0  0  0  0  0  0  0  0  0  0  0  0
   -1.5330    1.3240    2.2180 H   0  0  0  0  0  0  0  0  0  0  0  0
   -2.1990    3.0040    1.9330 H   0  0  0  0  0  0  0  0  0  0  0  0
   -3.8290    1.1330    1.3560 H   0  0  0  0  0  0  0  0  0  0  0  0
   -3.4930    2.3410    0.1020 H   0  0  0  0  0  0  0  0  0  0  0  0
   -2.1410    0.9290   -1.1600 H   0  0  0  0  0  0  0  0  0  0  0  0
   -4.7080   -0.5160   -0.3070 H   0  0  0  0  0  0  0  0  0  0  0  0
   -3.9840   -0.2280   -1.9830 H   0  0  0  0  0  0  0  0  0  0  0  0
   -4.6580    1.1250   -1.0140 H   0  0  0  0  0  0  0  0  0  0  0  0
   -2.8120   -1.2340    0.9120 H   0  0  0  0  0  0  0  0  0  0  0  0
   -0.7400   -0.8190    1.8060 H   0  0  0  0  0  0  0  0  0  0  0  0
   -2.9430   -2.6110   -1.5420 N   0  0  0  0  0  0  0  0  0  0  0  0
   -2.6200   -3.6570   -2.5270 C   0  0  1  0  0  0  0  0  0  0  0  0
   -3.2200   -4.9490   -1.9730 C   0  0  0  0  0  0  0  0  0  0  0  0
   -2.5850   -5.1930   -0.6670 C   0  0  0  0  0  0  0  0  0  0  0  0
   -1.4230   -5.9300   -0.4950 C   0  0  0  0  0  0  0  0  0  0  0  0
   -1.1290   -5.9520    0.8200 N   0  0  0  0  0  0  0  0  0  0  0  0
   -2.0550   -5.2630    1.4780 C   0  0  0  0  0  0  0  0  0  0  0  0
   -2.9470   -4.7980    0.5670 N   0  0  0  0  0  0  0  0  0  0  0  0
   -3.2810   -3.3690   -3.8270 C   0  0  0  0  0  0  0  0  0  0  0  0
   -3.0690   -4.2060   -4.7460 O   0  0  0  0  0  0  0  0  0  0  0  0
   -4.0840   -2.2580   -4.0430 O   0  0  0  0  0  0  0  0  0  0  0  0
   -3.9340   -2.4120   -1.3380 H   0  0  0  0  0  0  0  0  0  0  0  0
   -1.5490   -3.8090   -2.6390 H   0  0  0  0  0  0  0  0  0  0  0  0
   -3.0830   -5.7860   -2.6760 H   0  0  0  0  0  0  0  0  0  0  0  0
   -4.3020   -4.7780   -1.8340 H   0  0  0  0  0  0  0  0  0  0  0  0
   -0.8440   -6.4070   -1.2620 H   0  0  0  0  0  0  0  0  0  0  0  0
   -0.3140   -6.4280    1.2560 H   0  0  0  0  0  0  0  0  0  0  0  0
   -2.1230   -5.0810    2.5430 H   0  0  0  0  0  0  0  0  0  0  0  0
  1  2  1  0  0  0  0
  2 17  1  1  0  0  0
  2  3  1  0  0  0  0
  3 19  1  0  0  0  0
  3  4  1  0  0  0  0
  4  5  2  0  0  0  0
  5  6  1  0  0  0  0
  5 20  1  0  0  0  0
  6 21  1  0  0  0  0
  7  6  1  0  0  0  0
  8  7  1  0  0  0  0
  8 22  1  0  0  0  0
  9  8  2  0  0  0  0
 10 11  2  0  0  0  0
 10  9  1  0  0  0  0
 11 12  1  0  0  0  0
 12  4  1  0  0  0  0
 12  7  2  0  0  0  0
 13 31  1  0  0  0  0
 13  2  1  0  0  0  0
 14 13  2  0  0  0  0
 15  1  1  0  0  0  0
 16  1  1  0  0  0  0
 18  3  1  0  0  0  0
 23  9  1  0  0  0  0
 24 10  1  0  0  0  0
 25 11  1  0  0  0  0
 26 36  1  0  0  0  0
 26 35  1  0  0  0  0
 27 37  1  0  0  0  0
 27 26  1  0  0  0  0
 28 39  1  6  0  0  0
 28 30  1  0  0  0  0
 28 27  1  0  0  0  0
 29 28  1  0  0  0  0
 29 40  1  0  0  0  0
 30 31  1  0  0  0  0
 30 43  1  1  0  0  0
 31 44  1  0  0  0  0
 32 30  1  0  0  0  0
 33 32  2  0  0  0  0
 34 26  1  0  0  0  0
 38 27  1  0  0  0  0
 41 29  1  0  0  0  0
 42 29  1  0  0  0  0
 45 56  1  0  0  0  0
 45 32  1  0  0  0  0
 46 57  1  6  0  0  0
 46 47  1  0  0  0  0
 46 45  1  0  0  0  0
 47 59  1  0  0  0  0
 47 48  1  0  0  0  0
 48 49  2  0  0  0  0
 48 52  1  0  0  0  0
 49 50  1  0  0  0  0
 50 61  1  0  0  0  0
 50 51  1  0  0  0  0
 51 62  1  0  0  0  0
 52 51  2  0  0  0  0
 53 46  1  0  0  0  0
 54 53  2  0  0  0  0
 55 53  1  0  0  0  0
 58 47  1  0  0  0  0
 60 49  1  0  0  0  0
M  END
$$$$
