WII.pdb
 OpenBabel07022419173D

 64 65  0  0  1  0  0  0  0  0999 V2000
    1.5510    1.7810    1.5920 N   0  0  0  0  0  0  0  0  0  0  0  0
    2.1150    0.4710    1.4010 C   0  0  1  0  0  0  0  0  0  0  0  0
    2.9470    0.0560    2.6160 C   0  0  0  0  0  0  0  0  0  0  0  0
    4.0560    0.9860    2.8580 C   0  0  0  0  0  0  0  0  0  0  0  0
    4.1450    1.9610    3.8310 C   0  0  0  0  0  0  0  0  0  0  0  0
    5.3290    2.5890    3.7040 N   0  0  0  0  0  0  0  0  0  0  0  0
    6.0260    2.0520    2.6700 C   0  0  0  0  0  0  0  0  0  0  0  0
    7.2790    2.3450    2.1430 C   0  0  0  0  0  0  0  0  0  0  0  0
    7.7800    1.6450    1.0680 C   0  0  0  0  0  0  0  0  0  0  0  0
    6.9880    0.6450    0.5390 C   0  0  0  0  0  0  0  0  0  0  0  0
    5.7440    0.3490    1.0570 C   0  0  0  0  0  0  0  0  0  0  0  0
    5.2390    1.0510    2.1370 C   0  0  0  0  0  0  0  0  0  0  0  0
    1.1000   -0.5680    1.1260 C   0  0  0  0  0  0  0  0  0  0  0  0
    1.5110   -1.7400    0.9420 O   0  0  0  0  0  0  0  0  0  0  0  0
    0.8860    1.8440    2.3830 H   0  0  0  0  0  0  0  0  0  0  0  0
    2.3430    2.4320    1.7820 H   0  0  0  0  0  0  0  0  0  0  0  0
    2.7950    0.5470    0.5120 H   0  0  0  0  0  0  0  0  0  0  0  0
    2.2450    0.0330    3.4770 H   0  0  0  0  0  0  0  0  0  0  0  0
    3.3350   -0.9680    2.3910 H   0  0  0  0  0  0  0  0  0  0  0  0
    3.4220    2.2240    4.5910 H   0  0  0  0  0  0  0  0  0  0  0  0
    5.6810    3.3830    4.3080 H   0  0  0  0  0  0  0  0  0  0  0  0
    7.8840    3.1320    2.5710 H   0  0  0  0  0  0  0  0  0  0  0  0
    8.7480    1.8400    0.6270 H   0  0  0  0  0  0  0  0  0  0  0  0
    7.3170    0.0520   -0.3080 H   0  0  0  0  0  0  0  0  0  0  0  0
    5.1340   -0.4530    0.6170 H   0  0  0  0  0  0  0  0  0  0  0  0
   -4.0230   -0.5100    3.2820 C   0  0  0  0  0  0  0  0  0  0  0  0
   -2.9950   -0.2820    2.1970 C   0  0  0  0  0  0  0  0  0  0  0  0
   -2.2240   -1.5610    1.9300 C   0  0  2  0  0  0  0  0  0  0  0  0
   -1.5290   -1.9750    3.2100 C   0  0  0  0  0  0  0  0  0  0  0  0
   -1.2580   -1.3770    0.7830 C   0  0  2  0  0  0  0  0  0  0  0  0
   -0.2970   -0.3360    1.0560 N   0  0  0  0  0  0  0  0  0  0  0  0
   -2.0840   -1.0390   -0.4180 C   0  0  0  0  0  0  0  0  0  0  0  0
   -1.8960    0.0380   -1.0530 O   0  0  0  0  0  0  0  0  0  0  0  0
   -3.9230    0.1870    4.1160 H   0  0  0  0  0  0  0  0  0  0  0  0
   -5.0350   -0.4520    2.7910 H   0  0  0  0  0  0  0  0  0  0  0  0
   -3.9510   -1.5850    3.6240 H   0  0  0  0  0  0  0  0  0  0  0  0
   -2.3310    0.5360    2.5420 H   0  0  0  0  0  0  0  0  0  0  0  0
   -3.4630    0.0690    1.2470 H   0  0  0  0  0  0  0  0  0  0  0  0
   -2.9750   -2.3480    1.7190 H   0  0  0  0  0  0  0  0  0  0  0  0
   -2.1800   -2.6470    3.8110 H   0  0  0  0  0  0  0  0  0  0  0  0
   -0.5780   -2.4630    2.9240 H   0  0  0  0  0  0  0  0  0  0  0  0
   -1.2810   -1.0410    3.7530 H   0  0  0  0  0  0  0  0  0  0  0  0
   -0.7160   -2.3300    0.6490 H   0  0  0  0  0  0  0  0  0  0  0  0
   -0.6140    0.6620    1.2160 H   0  0  0  0  0  0  0  0  0  0  0  0
   -1.8750   -1.6950   -4.2720 C   0  0  0  0  0  0  0  0  0  0  0  0
   -2.2970   -2.8860   -3.4640 C   0  0  0  0  0  0  0  0  0  0  0  0
   -3.7420   -2.7120   -3.0460 C   0  0  2  0  0  0  0  0  0  0  0  0
   -4.6250   -2.5960   -4.2430 C   0  0  0  0  0  0  0  0  0  0  0  0
   -3.9100   -1.5770   -2.0610 C   0  0  2  0  0  0  0  0  0  0  0  0
   -3.1050   -1.8970   -0.8970 N   0  0  0  0  0  0  0  0  0  0  0  0
   -5.3450   -1.5110   -1.7060 C   0  0  0  0  0  0  0  0  0  0  0  0
   -5.6700   -1.7270   -0.5120 O   0  0  0  0  0  0  0  0  0  0  0  0
   -6.3430   -1.2250   -2.6120 O   0  0  0  0  0  0  0  0  0  0  0  0
   -2.7300   -1.2240   -4.7880 H   0  0  0  0  0  0  0  0  0  0  0  0
   -1.3870   -0.9030   -3.6780 H   0  0  0  0  0  0  0  0  0  0  0  0
   -1.1830   -2.0600   -5.0750 H   0  0  0  0  0  0  0  0  0  0  0  0
   -2.2720   -3.8080   -4.0980 H   0  0  0  0  0  0  0  0  0  0  0  0
   -1.6440   -3.0910   -2.6000 H   0  0  0  0  0  0  0  0  0  0  0  0
   -4.0270   -3.6430   -2.4980 H   0  0  0  0  0  0  0  0  0  0  0  0
   -4.7320   -1.5790   -4.6430 H   0  0  0  0  0  0  0  0  0  0  0  0
   -4.2180   -3.2800   -5.0260 H   0  0  0  0  0  0  0  0  0  0  0  0
   -5.6360   -2.9740   -3.9990 H   0  0  0  0  0  0  0  0  0  0  0  0
   -3.6130   -0.5960   -2.5030 H   0  0  0  0  0  0  0  0  0  0  0  0
   -3.2670   -2.7770   -0.3870 H   0  0  0  0  0  0  0  0  0  0  0  0
  1 16  1  0  0  0  0
  1 15  1  0  0  0  0
  2 17  1  6  0  0  0
  2  1  1  0  0  0  0
  2  3  1  0  0  0  0
  3  4  1  0  0  0  0
  3 18  1  0  0  0  0
  4  5  2  0  0  0  0
  5 20  1  0  0  0  0
  6  5  1  0  0  0  0
  6 21  1  0  0  0  0
  7  6  1  0  0  0  0
  8 22  1  0  0  0  0
  8  7  1  0  0  0  0
  9  8  2  0  0  0  0
 10 11  2  0  0  0  0
 10  9  1  0  0  0  0
 11 12  1  0  0  0  0
 12  7  2  0  0  0  0
 12  4  1  0  0  0  0
 13  2  1  0  0  0  0
 14 13  2  0  0  0  0
 19  3  1  0  0  0  0
 23  9  1  0  0  0  0
 24 10  1  0  0  0  0
 25 11  1  0  0  0  0
 26 36  1  0  0  0  0
 26 34  1  0  0  0  0
 27 37  1  0  0  0  0
 27 26  1  0  0  0  0
 28 39  1  6  0  0  0
 28 27  1  0  0  0  0
 28 29  1  0  0  0  0
 29 42  1  0  0  0  0
 29 40  1  0  0  0  0
 30 43  1  6  0  0  0
 30 31  1  0  0  0  0
 30 28  1  0  0  0  0
 31 13  1  0  0  0  0
 31 44  1  0  0  0  0
 32 30  1  0  0  0  0
 33 32  2  0  0  0  0
 35 26  1  0  0  0  0
 38 27  1  0  0  0  0
 41 29  1  0  0  0  0
 45 55  1  0  0  0  0
 45 46  1  0  0  0  0
 46 47  1  0  0  0  0
 46 58  1  0  0  0  0
 47 59  1  1  0  0  0
 47 49  1  0  0  0  0
 48 62  1  0  0  0  0
 48 47  1  0  0  0  0
 49 63  1  6  0  0  0
 49 51  1  0  0  0  0
 49 50  1  0  0  0  0
 50 32  1  0  0  0  0
 50 64  1  0  0  0  0
 51 52  1  0  0  0  0
 53 51  2  0  0  0  0
 54 45  1  0  0  0  0
 56 45  1  0  0  0  0
 57 46  1  0  0  0  0
 60 48  1  0  0  0  0
 61 48  1  0  0  0  0
M  END
$$$$
