WIK.pdb
 OpenBabel07022419173D

 66 67  0  0  1  0  0  0  0  0999 V2000
    0.8250    1.5250   -3.5660 N   0  0  0  0  0  0  0  0  0  0  0  0
    0.1880    0.6150   -2.6800 C   0  0  1  0  0  0  0  0  0  0  0  0
    1.0570   -0.6120   -2.4480 C   0  0  0  0  0  0  0  0  0  0  0  0
    2.3780   -0.1960   -1.8630 C   0  0  0  0  0  0  0  0  0  0  0  0
    2.6780   -0.2100   -0.5170 C   0  0  0  0  0  0  0  0  0  0  0  0
    3.9230    0.2580   -0.3660 N   0  0  0  0  0  0  0  0  0  0  0  0
    4.4480    0.5760   -1.5640 C   0  0  0  0  0  0  0  0  0  0  0  0
    5.6990    1.0900   -1.9300 C   0  0  0  0  0  0  0  0  0  0  0  0
    6.0080    1.3300   -3.2460 C   0  0  0  0  0  0  0  0  0  0  0  0
    5.0400    1.0430   -4.1750 C   0  0  0  0  0  0  0  0  0  0  0  0
    3.7860    0.5290   -3.8180 C   0  0  0  0  0  0  0  0  0  0  0  0
    3.4870    0.2950   -2.5090 C   0  0  0  0  0  0  0  0  0  0  0  0
   -0.1350    1.2500   -1.3520 C   0  0  0  0  0  0  0  0  0  0  0  0
    0.3170    2.3980   -1.1250 O   0  0  0  0  0  0  0  0  0  0  0  0
    0.6950    1.3000   -4.5610 H   0  0  0  0  0  0  0  0  0  0  0  0
    0.6270    2.5280   -3.3400 H   0  0  0  0  0  0  0  0  0  0  0  0
   -0.7890    0.3070   -3.0960 H   0  0  0  0  0  0  0  0  0  0  0  0
    1.1810   -1.2040   -3.3630 H   0  0  0  0  0  0  0  0  0  0  0  0
    0.5770   -1.2740   -1.7050 H   0  0  0  0  0  0  0  0  0  0  0  0
    2.0140   -0.5400    0.2780 H   0  0  0  0  0  0  0  0  0  0  0  0
    4.4090    0.3560    0.5650 H   0  0  0  0  0  0  0  0  0  0  0  0
    6.4080    1.2910   -1.1480 H   0  0  0  0  0  0  0  0  0  0  0  0
    6.9620    1.7260   -3.5690 H   0  0  0  0  0  0  0  0  0  0  0  0
    5.2670    1.2270   -5.2220 H   0  0  0  0  0  0  0  0  0  0  0  0
    3.0490    0.3040   -4.5740 H   0  0  0  0  0  0  0  0  0  0  0  0
   -2.0920    3.5550    2.5450 C   0  0  0  0  0  0  0  0  0  0  0  0
   -3.0130    2.4660    2.0820 C   0  0  0  0  0  0  0  0  0  0  0  0
   -2.6320    1.7870    0.8290 C   0  0  2  0  0  0  0  0  0  0  0  0
   -3.6750    0.7410    0.5110 C   0  0  0  0  0  0  0  0  0  0  0  0
   -1.2360    1.1940    0.8910 C   0  0  2  0  0  0  0  0  0  0  0  0
   -0.9340    0.5530   -0.3910 N   0  0  0  0  0  0  0  0  0  0  0  0
   -1.0420    0.2810    2.0160 C   0  0  0  0  0  0  0  0  0  0  0  0
   -1.2300    0.6840    3.1940 O   0  0  0  0  0  0  0  0  0  0  0  0
   -1.0450    3.2870    2.4680 H   0  0  0  0  0  0  0  0  0  0  0  0
   -2.3170    3.7160    3.6310 H   0  0  0  0  0  0  0  0  0  0  0  0
   -2.3320    4.5340    2.0540 H   0  0  0  0  0  0  0  0  0  0  0  0
   -4.0000    2.9900    1.8690 H   0  0  0  0  0  0  0  0  0  0  0  0
   -3.2480    1.7870    2.9270 H   0  0  0  0  0  0  0  0  0  0  0  0
   -2.6160    2.5220    0.0040 H   0  0  0  0  0  0  0  0  0  0  0  0
   -4.4800    1.2070   -0.0970 H   0  0  0  0  0  0  0  0  0  0  0  0
   -4.1810    0.3590    1.4310 H   0  0  0  0  0  0  0  0  0  0  0  0
   -3.2730   -0.0920   -0.0870 H   0  0  0  0  0  0  0  0  0  0  0  0
   -0.5690    2.0630    0.9660 H   0  0  0  0  0  0  0  0  0  0  0  0
   -1.2640   -0.3860   -0.6610 H   0  0  0  0  0  0  0  0  0  0  0  0
   -0.6470   -1.0850    1.9320 N   0  0  0  0  0  0  0  0  0  0  0  0
   -0.4860   -1.9250    3.0890 C   0  0  1  0  0  0  0  0  0  0  0  0
   -1.4900   -3.0580    3.1270 C   0  0  0  0  0  0  0  0  0  0  0  0
   -1.3670   -3.9560    1.9210 C   0  0  0  0  0  0  0  0  0  0  0  0
   -2.3630   -5.0880    1.9550 C   0  0  0  0  0  0  0  0  0  0  0  0
   -2.1940   -5.9710    3.1620 C   0  0  0  0  0  0  0  0  0  0  0  0
   -3.2000   -7.0160    3.0930 N   0  0  0  0  0  0  0  0  0  0  0  0
    0.8460   -2.5130    3.1500 C   0  0  0  0  0  0  0  0  0  0  0  0
    1.7490   -2.3170    2.3020 O   0  0  0  0  0  0  0  0  0  0  0  0
    1.2060   -3.3660    4.2070 O   0  0  0  0  0  0  0  0  0  0  0  0
   -0.4670   -1.4970    0.9970 H   0  0  0  0  0  0  0  0  0  0  0  0
   -0.6600   -1.3460    4.0440 H   0  0  0  0  0  0  0  0  0  0  0  0
   -1.2540   -3.6690    4.0220 H   0  0  0  0  0  0  0  0  0  0  0  0
   -2.4850   -2.6370    3.2560 H   0  0  0  0  0  0  0  0  0  0  0  0
   -0.3500   -4.3930    1.8750 H   0  0  0  0  0  0  0  0  0  0  0  0
   -1.5190   -3.3960    0.9800 H   0  0  0  0  0  0  0  0  0  0  0  0
   -3.3970   -4.6750    1.9940 H   0  0  0  0  0  0  0  0  0  0  0  0
   -2.3000   -5.7100    1.0440 H   0  0  0  0  0  0  0  0  0  0  0  0
   -2.3600   -5.4270    4.1140 H   0  0  0  0  0  0  0  0  0  0  0  0
   -1.1920   -6.4430    3.0980 H   0  0  0  0  0  0  0  0  0  0  0  0
   -4.1060   -6.5750    3.4190 H   0  0  0  0  0  0  0  0  0  0  0  0
   -2.9570   -7.7280    3.8170 H   0  0  0  0  0  0  0  0  0  0  0  0
  1 16  1  0  0  0  0
  1  2  1  0  0  0  0
  2 17  1  6  0  0  0
  2  3  1  0  0  0  0
  2 13  1  0  0  0  0
  3  4  1  0  0  0  0
  3 19  1  0  0  0  0
  4  5  2  0  0  0  0
  5  6  1  0  0  0  0
  5 20  1  0  0  0  0
  6 21  1  0  0  0  0
  7  6  1  0  0  0  0
  8  7  1  0  0  0  0
  8 22  1  0  0  0  0
  9  8  2  0  0  0  0
 10 11  2  0  0  0  0
 10  9  1  0  0  0  0
 11 12  1  0  0  0  0
 12  4  1  0  0  0  0
 12  7  2  0  0  0  0
 13 14  2  0  0  0  0
 13 31  1  0  0  0  0
 15  1  1  0  0  0  0
 18  3  1  0  0  0  0
 23  9  1  0  0  0  0
 24 10  1  0  0  0  0
 25 11  1  0  0  0  0
 26 35  1  0  0  0  0
 27 26  1  0  0  0  0
 27 38  1  0  0  0  0
 28 39  1  6  0  0  0
 28 30  1  0  0  0  0
 28 27  1  0  0  0  0
 29 28  1  0  0  0  0
 29 41  1  0  0  0  0
 30 43  1  1  0  0  0
 30 32  1  0  0  0  0
 31 30  1  0  0  0  0
 32 33  2  0  0  0  0
 34 26  1  0  0  0  0
 36 26  1  0  0  0  0
 37 27  1  0  0  0  0
 40 29  1  0  0  0  0
 42 29  1  0  0  0  0
 44 31  1  0  0  0  0
 45 32  1  0  0  0  0
 45 46  1  0  0  0  0
 46 47  1  0  0  0  0
 46 52  1  0  0  0  0
 46 56  1  1  0  0  0
 47 58  1  0  0  0  0
 47 57  1  0  0  0  0
 48 49  1  0  0  0  0
 48 47  1  0  0  0  0
 49 61  1  0  0  0  0
 49 50  1  0  0  0  0
 50 63  1  0  0  0  0
 51 50  1  0  0  0  0
 51 65  1  0  0  0  0
 51 66  1  0  0  0  0
 52 54  1  0  0  0  0
 53 52  2  0  0  0  0
 55 45  1  0  0  0  0
 59 48  1  0  0  0  0
 60 48  1  0  0  0  0
 62 49  1  0  0  0  0
 64 50  1  0  0  0  0
M  END
$$$$
