WIL.pdb
 OpenBabel07022419173D

 64 65  0  0  1  0  0  0  0  0999 V2000
    2.5290    0.0410    0.0600 N   0  0  0  0  0  0  0  0  0  0  0  0
    1.6970   -0.7280    0.9640 C   0  0  1  0  0  0  0  0  0  0  0  0
    2.2240   -0.5590    2.3610 C   0  0  0  0  0  0  0  0  0  0  0  0
    3.6230   -1.0280    2.4450 C   0  0  0  0  0  0  0  0  0  0  0  0
    4.7550   -0.2500    2.5230 C   0  0  0  0  0  0  0  0  0  0  0  0
    5.8210   -1.0890    2.5910 N   0  0  0  0  0  0  0  0  0  0  0  0
    5.4220   -2.3810    2.5600 C   0  0  0  0  0  0  0  0  0  0  0  0
    6.0410   -3.5950    2.5970 C   0  0  0  0  0  0  0  0  0  0  0  0
    5.3840   -4.8030    2.5490 C   0  0  0  0  0  0  0  0  0  0  0  0
    4.0040   -4.7360    2.4580 C   0  0  0  0  0  0  0  0  0  0  0  0
    3.3370   -3.5430    2.4180 C   0  0  0  0  0  0  0  0  0  0  0  0
    4.0350   -2.3310    2.4670 C   0  0  0  0  0  0  0  0  0  0  0  0
    0.2810   -0.3010    0.8370 C   0  0  0  0  0  0  0  0  0  0  0  0
    0.0280    0.6340    0.0660 O   0  0  0  0  0  0  0  0  0  0  0  0
    3.0030    0.8450    0.4890 H   0  0  0  0  0  0  0  0  0  0  0  0
    1.9870    0.3940   -0.7730 H   0  0  0  0  0  0  0  0  0  0  0  0
    1.7610   -1.7830    0.6460 H   0  0  0  0  0  0  0  0  0  0  0  0
    2.1620    0.5210    2.6160 H   0  0  0  0  0  0  0  0  0  0  0  0
    1.6490   -1.1170    3.1210 H   0  0  0  0  0  0  0  0  0  0  0  0
    4.8390    0.8430    2.5310 H   0  0  0  0  0  0  0  0  0  0  0  0
    6.8020   -0.7830    2.6580 H   0  0  0  0  0  0  0  0  0  0  0  0
    7.1200   -3.6190    2.6690 H   0  0  0  0  0  0  0  0  0  0  0  0
    5.8940   -5.7730    2.5790 H   0  0  0  0  0  0  0  0  0  0  0  0
    3.4650   -5.6880    2.4180 H   0  0  0  0  0  0  0  0  0  0  0  0
    2.2420   -3.5050    2.3470 H   0  0  0  0  0  0  0  0  0  0  0  0
   -2.4860    2.4100    0.6850 C   0  0  0  0  0  0  0  0  0  0  0  0
   -2.0970    1.8820    2.0400 C   0  0  0  0  0  0  0  0  0  0  0  0
   -2.6260    0.5450    2.3940 C   0  0  2  0  0  0  0  0  0  0  0  0
   -2.1100    0.2820    3.8490 C   0  0  0  0  0  0  0  0  0  0  0  0
   -2.1610   -0.6190    1.5450 C   0  0  2  0  0  0  0  0  0  0  0  0
   -0.7850   -0.8900    1.5390 N   0  0  0  0  0  0  0  0  0  0  0  0
   -2.9090   -0.6730    0.2770 C   0  0  0  0  0  0  0  0  0  0  0  0
   -4.1590   -0.3410    0.2750 O   0  0  0  0  0  0  0  0  0  0  0  0
   -1.7580    3.2290    0.4530 H   0  0  0  0  0  0  0  0  0  0  0  0
   -2.4430    1.7080   -0.1370 H   0  0  0  0  0  0  0  0  0  0  0  0
   -3.5250    2.8370    0.7710 H   0  0  0  0  0  0  0  0  0  0  0  0
   -2.5030    2.6620    2.7660 H   0  0  0  0  0  0  0  0  0  0  0  0
   -0.9830    1.9670    2.2170 H   0  0  0  0  0  0  0  0  0  0  0  0
   -3.7210    0.5560    2.4730 H   0  0  0  0  0  0  0  0  0  0  0  0
   -2.2000   -0.7770    4.0910 H   0  0  0  0  0  0  0  0  0  0  0  0
   -1.0790    0.6880    3.8790 H   0  0  0  0  0  0  0  0  0  0  0  0
   -2.7300    0.9420    4.4790 H   0  0  0  0  0  0  0  0  0  0  0  0
   -2.6540   -1.5180    2.1670 H   0  0  0  0  0  0  0  0  0  0  0  0
   -0.4350   -1.6930    2.1820 H   0  0  0  0  0  0  0  0  0  0  0  0
   -3.4160    1.8190   -3.1990 C   0  0  0  0  0  0  0  0  0  0  0  0
   -2.3030    0.8510   -3.4890 C   0  0  0  0  0  0  0  0  0  0  0  0
   -0.9850    1.1700   -2.8890 C   0  0  0  0  0  0  0  0  0  0  0  0
   -2.7130   -0.5730   -3.4010 C   0  0  0  0  0  0  0  0  0  0  0  0
   -3.2720   -1.1050   -2.1610 C   0  0  2  0  0  0  0  0  0  0  0  0
   -2.4220   -1.0670   -0.9990 N   0  0  0  0  0  0  0  0  0  0  0  0
   -3.6420   -2.5510   -2.4360 C   0  0  0  0  0  0  0  0  0  0  0  0
   -3.2240   -3.4690   -1.7060 O   0  0  0  0  0  0  0  0  0  0  0  0
   -4.4490   -2.8520   -3.5040 O   0  0  0  0  0  0  0  0  0  0  0  0
   -3.0920    2.8280   -3.5020 H   0  0  0  0  0  0  0  0  0  0  0  0
   -3.7310    1.8460   -2.1510 H   0  0  0  0  0  0  0  0  0  0  0  0
   -4.2620    1.5230   -3.8740 H   0  0  0  0  0  0  0  0  0  0  0  0
   -2.1310    1.0110   -4.6330 H   0  0  0  0  0  0  0  0  0  0  0  0
   -0.5300    0.2000   -2.5610 H   0  0  0  0  0  0  0  0  0  0  0  0
   -0.2220    1.5600   -3.6330 H   0  0  0  0  0  0  0  0  0  0  0  0
   -0.9970    1.9370   -2.0970 H   0  0  0  0  0  0  0  0  0  0  0  0
   -1.7900   -1.2090   -3.6460 H   0  0  0  0  0  0  0  0  0  0  0  0
   -3.4660   -0.8050   -4.2290 H   0  0  0  0  0  0  0  0  0  0  0  0
   -4.2560   -0.5800   -1.8910 H   0  0  0  0  0  0  0  0  0  0  0  0
   -1.4260   -1.3430   -1.0410 H   0  0  0  0  0  0  0  0  0  0  0  0
  1 15  1  0  0  0  0
  1  2  1  0  0  0  0
  2 17  1  6  0  0  0
  2  3  1  0  0  0  0
  3  4  1  0  0  0  0
  3 18  1  0  0  0  0
  3 19  1  0  0  0  0
  4 12  1  0  0  0  0
  4  5  2  0  0  0  0
  5 20  1  0  0  0  0
  5  6  1  0  0  0  0
  6 21  1  0  0  0  0
  7  6  1  0  0  0  0
  7  8  1  0  0  0  0
  8 22  1  0  0  0  0
  9 23  1  0  0  0  0
  9  8  2  0  0  0  0
 10  9  1  0  0  0  0
 11 10  2  0  0  0  0
 11 12  1  0  0  0  0
 12  7  2  0  0  0  0
 13  2  1  0  0  0  0
 13 31  1  0  0  0  0
 14 13  2  0  0  0  0
 16  1  1  0  0  0  0
 24 10  1  0  0  0  0
 25 11  1  0  0  0  0
 26 36  1  0  0  0  0
 26 27  1  0  0  0  0
 27 38  1  0  0  0  0
 27 28  1  0  0  0  0
 27 37  1  0  0  0  0
 28 39  1  1  0  0  0
 28 29  1  0  0  0  0
 29 41  1  0  0  0  0
 29 40  1  0  0  0  0
 29 42  1  0  0  0  0
 30 43  1  1  0  0  0
 30 28  1  0  0  0  0
 31 30  1  0  0  0  0
 31 44  1  0  0  0  0
 32 30  1  0  0  0  0
 33 32  2  0  0  0  0
 34 26  1  0  0  0  0
 35 26  1  0  0  0  0
 45 55  1  0  0  0  0
 46 48  1  0  0  0  0
 46 45  1  0  0  0  0
 46 47  1  0  0  0  0
 47 58  1  0  0  0  0
 47 60  1  0  0  0  0
 48 49  1  0  0  0  0
 49 63  1  1  0  0  0
 49 50  1  0  0  0  0
 50 32  1  0  0  0  0
 51 49  1  0  0  0  0
 51 52  1  0  0  0  0
 53 51  2  0  0  0  0
 54 45  1  0  0  0  0
 56 45  1  0  0  0  0
 57 46  1  0  0  0  0
 59 47  1  0  0  0  0
 61 48  1  0  0  0  0
 62 48  1  0  0  0  0
 64 50  1  0  0  0  0
M  END
$$$$
