WIN.pdb
 OpenBabel07022419173D

 59 60  0  0  1  0  0  0  0  0999 V2000
   -1.0480    2.2140    2.0500 N   0  0  0  0  0  0  0  0  0  0  0  0
   -0.1700    1.2010    1.5430 C   0  0  1  0  0  0  0  0  0  0  0  0
    1.1670    1.3820    2.2330 C   0  0  0  0  0  0  0  0  0  0  0  0
    1.6430    2.7480    1.8970 C   0  0  0  0  0  0  0  0  0  0  0  0
    1.6230    3.8760    2.6860 C   0  0  0  0  0  0  0  0  0  0  0  0
    2.1340    4.9140    2.0270 N   0  0  0  0  0  0  0  0  0  0  0  0
    2.4970    4.4780    0.7930 C   0  0  0  0  0  0  0  0  0  0  0  0
    3.0740    5.1570   -0.2670 C   0  0  0  0  0  0  0  0  0  0  0  0
    3.3700    4.5240   -1.4550 C   0  0  0  0  0  0  0  0  0  0  0  0
    3.0670    3.1750   -1.5430 C   0  0  0  0  0  0  0  0  0  0  0  0
    2.4950    2.4990   -0.4920 C   0  0  0  0  0  0  0  0  0  0  0  0
    2.1980    3.1350    0.6980 C   0  0  0  0  0  0  0  0  0  0  0  0
   -0.6980   -0.1900    1.7970 C   0  0  0  0  0  0  0  0  0  0  0  0
   -1.7340   -0.2220    2.4920 O   0  0  0  0  0  0  0  0  0  0  0  0
   -2.0120    2.1660    1.6500 H   0  0  0  0  0  0  0  0  0  0  0  0
   -0.6190    3.1300    1.8460 H   0  0  0  0  0  0  0  0  0  0  0  0
   -0.0730    1.3090    0.4590 H   0  0  0  0  0  0  0  0  0  0  0  0
    0.9590    1.3640    3.3270 H   0  0  0  0  0  0  0  0  0  0  0  0
    1.8300    0.5770    1.8980 H   0  0  0  0  0  0  0  0  0  0  0  0
    1.2200    3.8330    3.7080 H   0  0  0  0  0  0  0  0  0  0  0  0
    2.2220    5.8820    2.4230 H   0  0  0  0  0  0  0  0  0  0  0  0
    3.3060    6.2120   -0.1870 H   0  0  0  0  0  0  0  0  0  0  0  0
    3.8260    5.0600   -2.2940 H   0  0  0  0  0  0  0  0  0  0  0  0
    3.2770    2.6250   -2.4560 H   0  0  0  0  0  0  0  0  0  0  0  0
    2.2530    1.4440   -0.5480 H   0  0  0  0  0  0  0  0  0  0  0  0
   -2.4360   -2.7460    4.7410 C   0  0  0  0  0  0  0  0  0  0  0  0
   -1.1980   -2.6600    3.8570 C   0  0  0  0  0  0  0  0  0  0  0  0
   -1.4970   -2.9950    2.4390 C   0  0  2  0  0  0  0  0  0  0  0  0
   -1.9950   -4.4160    2.3640 C   0  0  0  0  0  0  0  0  0  0  0  0
   -0.4070   -2.6850    1.4500 C   0  0  2  0  0  0  0  0  0  0  0  0
   -0.0560   -1.3250    1.2820 N   0  0  0  0  0  0  0  0  0  0  0  0
   -0.4840   -3.4210    0.1830 C   0  0  0  0  0  0  0  0  0  0  0  0
   -0.7170   -4.6520    0.0880 O   0  0  0  0  0  0  0  0  0  0  0  0
   -2.2250   -2.0900    5.6340 H   0  0  0  0  0  0  0  0  0  0  0  0
   -3.3320   -2.3360    4.2380 H   0  0  0  0  0  0  0  0  0  0  0  0
   -2.6490   -3.7500    5.0980 H   0  0  0  0  0  0  0  0  0  0  0  0
   -0.5500   -3.5230    4.3110 H   0  0  0  0  0  0  0  0  0  0  0  0
   -0.6110   -1.7950    4.0960 H   0  0  0  0  0  0  0  0  0  0  0  0
   -2.4320   -2.3820    2.1800 H   0  0  0  0  0  0  0  0  0  0  0  0
   -2.5800   -4.6320    1.4720 H   0  0  0  0  0  0  0  0  0  0  0  0
   -1.0760   -5.0770    2.3240 H   0  0  0  0  0  0  0  0  0  0  0  0
   -2.4880   -4.7260    3.3100 H   0  0  0  0  0  0  0  0  0  0  0  0
    0.5010   -3.1770    2.0180 H   0  0  0  0  0  0  0  0  0  0  0  0
    0.8050   -1.1200    0.6880 H   0  0  0  0  0  0  0  0  0  0  0  0
   -2.5250   -5.2200   -4.1910 N   0  0  0  0  0  0  0  0  0  0  0  0
   -1.9640   -3.9020   -4.1970 C   0  0  0  0  0  0  0  0  0  0  0  0
   -1.6840   -3.3730   -5.2820 O   0  0  0  0  0  0  0  0  0  0  0  0
   -1.7410   -3.2220   -2.9230 C   0  0  0  0  0  0  0  0  0  0  0  0
   -0.3620   -3.4840   -2.3330 C   0  0  2  0  0  0  0  0  0  0  0  0
   -0.2910   -2.7610   -1.0900 N   0  0  0  0  0  0  0  0  0  0  0  0
    0.7280   -3.2120   -3.2570 C   0  0  0  0  0  0  0  0  0  0  0  0
    1.6610   -2.4060   -3.0070 O   0  0  0  0  0  0  0  0  0  0  0  0
    0.7680   -3.8570   -4.4820 O   0  0  0  0  0  0  0  0  0  0  0  0
   -3.1810   -5.5480   -4.9140 H   0  0  0  0  0  0  0  0  0  0  0  0
   -2.2610   -5.8840   -3.4190 H   0  0  0  0  0  0  0  0  0  0  0  0
   -1.8570   -2.1110   -3.0470 H   0  0  0  0  0  0  0  0  0  0  0  0
   -2.5070   -3.5200   -2.1750 H   0  0  0  0  0  0  0  0  0  0  0  0
   -0.3920   -4.5820   -2.0630 H   0  0  0  0  0  0  0  0  0  0  0  0
   -0.0970   -1.7420   -1.1280 H   0  0  0  0  0  0  0  0  0  0  0  0
  2 17  1  6  0  0  0
  2 13  1  0  0  0  0
  2  1  1  0  0  0  0
  2  3  1  0  0  0  0
  3 18  1  0  0  0  0
  4  3  1  0  0  0  0
  4  5  2  0  0  0  0
  5 20  1  0  0  0  0
  6 21  1  0  0  0  0
  6  5  1  0  0  0  0
  7  6  1  0  0  0  0
  8 22  1  0  0  0  0
  8  7  2  0  0  0  0
  9  8  1  0  0  0  0
 10  9  2  0  0  0  0
 10 11  1  0  0  0  0
 11 12  2  0  0  0  0
 12  7  1  0  0  0  0
 12  4  1  0  0  0  0
 13 14  2  0  0  0  0
 15  1  1  0  0  0  0
 16  1  1  0  0  0  0
 19  3  1  0  0  0  0
 23  9  1  0  0  0  0
 24 10  1  0  0  0  0
 25 11  1  0  0  0  0
 26 36  1  0  0  0  0
 26 34  1  0  0  0  0
 27 38  1  0  0  0  0
 27 37  1  0  0  0  0
 27 26  1  0  0  0  0
 28 39  1  6  0  0  0
 28 27  1  0  0  0  0
 29 28  1  0  0  0  0
 29 42  1  0  0  0  0
 30 43  1  1  0  0  0
 30 28  1  0  0  0  0
 31 30  1  0  0  0  0
 31 13  1  0  0  0  0
 32 30  1  0  0  0  0
 33 32  2  0  0  0  0
 35 26  1  0  0  0  0
 40 29  1  0  0  0  0
 41 29  1  0  0  0  0
 44 31  1  0  0  0  0
 45 55  1  0  0  0  0
 46 45  1  0  0  0  0
 46 48  1  0  0  0  0
 47 46  2  0  0  0  0
 48 49  1  0  0  0  0
 48 57  1  0  0  0  0
 49 58  1  1  0  0  0
 49 50  1  0  0  0  0
 50 32  1  0  0  0  0
 51 52  1  0  0  0  0
 51 49  1  0  0  0  0
 53 51  2  0  0  0  0
 54 45  1  0  0  0  0
 56 48  1  0  0  0  0
 59 50  1  0  0  0  0
M  END
$$$$
