WIR.pdb
 OpenBabel07022419173D

 68 69  0  0  1  0  0  0  0  0999 V2000
    1.9740    0.0950    2.3180 N   0  0  0  0  0  0  0  0  0  0  0  0
    1.6690    1.5080    2.0780 C   0  0  1  0  0  0  0  0  0  0  0  0
    2.8680    2.2820    1.7040 C   0  0  0  0  0  0  0  0  0  0  0  0
    3.6050    1.8700    0.5100 C   0  0  0  0  0  0  0  0  0  0  0  0
    4.6950    0.9720    0.4870 C   0  0  0  0  0  0  0  0  0  0  0  0
    5.0980    0.7820   -0.7660 N   0  0  0  0  0  0  0  0  0  0  0  0
    4.3360    1.5120   -1.6210 C   0  0  0  0  0  0  0  0  0  0  0  0
    4.3850    1.6470   -2.9850 C   0  0  0  0  0  0  0  0  0  0  0  0
    3.4880    2.4830   -3.5990 C   0  0  0  0  0  0  0  0  0  0  0  0
    2.5690    3.1570   -2.8220 C   0  0  0  0  0  0  0  0  0  0  0  0
    2.5330    3.0110   -1.4570 C   0  0  0  0  0  0  0  0  0  0  0  0
    3.4110    2.1840   -0.8100 C   0  0  0  0  0  0  0  0  0  0  0  0
    0.5180    1.6800    1.1940 C   0  0  0  0  0  0  0  0  0  0  0  0
    0.0210    2.7930    0.9160 O   0  0  0  0  0  0  0  0  0  0  0  0
    2.7600    0.0940    3.0330 H   0  0  0  0  0  0  0  0  0  0  0  0
    1.1530   -0.3310    2.8260 H   0  0  0  0  0  0  0  0  0  0  0  0
    1.3050    1.8480    3.1150 H   0  0  0  0  0  0  0  0  0  0  0  0
    2.6440    3.3970    1.6930 H   0  0  0  0  0  0  0  0  0  0  0  0
    3.6010    2.2110    2.5690 H   0  0  0  0  0  0  0  0  0  0  0  0
    5.0880    0.5410    1.4020 H   0  0  0  0  0  0  0  0  0  0  0  0
    5.8790    0.1730   -1.0930 H   0  0  0  0  0  0  0  0  0  0  0  0
    5.1000    1.1210   -3.5810 H   0  0  0  0  0  0  0  0  0  0  0  0
    3.4740    2.6360   -4.6910 H   0  0  0  0  0  0  0  0  0  0  0  0
    1.8490    3.8250   -3.2890 H   0  0  0  0  0  0  0  0  0  0  0  0
    1.8270    3.5460   -0.8350 H   0  0  0  0  0  0  0  0  0  0  0  0
   -0.5970   -1.9340   -2.8900 C   0  0  0  0  0  0  0  0  0  0  0  0
   -0.7920   -1.3630   -1.4800 C   0  0  0  0  0  0  0  0  0  0  0  0
   -1.0530    0.1150   -1.6260 C   0  0  2  0  0  0  0  0  0  0  0  0
    0.1020    0.8190   -2.2990 C   0  0  0  0  0  0  0  0  0  0  0  0
   -1.2860    0.7260   -0.2960 C   0  0  2  0  0  0  0  0  0  0  0  0
   -0.1410    0.5500    0.5700 N   0  0  0  0  0  0  0  0  0  0  0  0
   -2.5270    0.2840    0.3590 C   0  0  0  0  0  0  0  0  0  0  0  0
   -3.6130    0.3400   -0.2380 O   0  0  0  0  0  0  0  0  0  0  0  0
   -1.2620   -2.8290   -2.9730 H   0  0  0  0  0  0  0  0  0  0  0  0
    0.4550   -2.2240   -2.9980 H   0  0  0  0  0  0  0  0  0  0  0  0
   -0.9300   -1.2140   -3.6590 H   0  0  0  0  0  0  0  0  0  0  0  0
    0.1240   -1.5310   -0.8830 H   0  0  0  0  0  0  0  0  0  0  0  0
   -1.6240   -1.8690   -0.9650 H   0  0  0  0  0  0  0  0  0  0  0  0
   -1.9770    0.2590   -2.2560 H   0  0  0  0  0  0  0  0  0  0  0  0
   -0.0480    1.9210   -2.1560 H   0  0  0  0  0  0  0  0  0  0  0  0
    0.1350    0.5520   -3.3740 H   0  0  0  0  0  0  0  0  0  0  0  0
    1.0380    0.5540   -1.7760 H   0  0  0  0  0  0  0  0  0  0  0  0
   -1.4250    1.8390   -0.4520 H   0  0  0  0  0  0  0  0  0  0  0  0
    0.2510   -0.3940    0.7800 H   0  0  0  0  0  0  0  0  0  0  0  0
   -1.7760   -7.4720    0.3630 N   0  0  0  0  0  0  0  0  0  0  0  0
   -2.1900   -6.6180    1.4160 C   0  0  0  0  0  0  0  0  0  0  0  0
   -2.3090   -7.0680    2.6250 N   0  0  0  0  0  0  0  0  0  0  0  0
   -2.4930   -5.2400    1.2130 N   0  0  0  0  0  0  0  0  0  0  0  0
   -2.7490   -4.3810    2.3440 C   0  0  0  0  0  0  0  0  0  0  0  0
   -3.0420   -2.9900    1.8260 C   0  0  0  0  0  0  0  0  0  0  0  0
   -3.3220   -2.0330    2.9700 C   0  0  0  0  0  0  0  0  0  0  0  0
   -3.6110   -0.6590    2.4180 C   0  0  2  0  0  0  0  0  0  0  0  0
   -2.4700   -0.2060    1.6810 N   0  0  0  0  0  0  0  0  0  0  0  0
   -3.8310    0.2310    3.6160 C   0  0  0  0  0  0  0  0  0  0  0  0
   -4.7780    0.0320    4.4160 O   0  0  0  0  0  0  0  0  0  0  0  0
   -2.9850    1.3030    3.8670 O   0  0  0  0  0  0  0  0  0  0  0  0
   -0.8560   -7.9570    0.4250 H   0  0  0  0  0  0  0  0  0  0  0  0
   -2.3610   -7.6310   -0.4670 H   0  0  0  0  0  0  0  0  0  0  0  0
   -2.1020   -8.0600    2.8300 H   0  0  0  0  0  0  0  0  0  0  0  0
   -2.5270   -4.8670    0.2620 H   0  0  0  0  0  0  0  0  0  0  0  0
   -3.6280   -4.7450    2.9130 H   0  0  0  0  0  0  0  0  0  0  0  0
   -1.8680   -4.2930    3.0220 H   0  0  0  0  0  0  0  0  0  0  0  0
   -3.9720   -3.0680    1.2260 H   0  0  0  0  0  0  0  0  0  0  0  0
   -2.1820   -2.6500    1.2230 H   0  0  0  0  0  0  0  0  0  0  0  0
   -2.4050   -2.0130    3.6170 H   0  0  0  0  0  0  0  0  0  0  0  0
   -4.1870   -2.3730    3.5570 H   0  0  0  0  0  0  0  0  0  0  0  0
   -4.5370   -0.6210    1.8440 H   0  0  0  0  0  0  0  0  0  0  0  0
   -1.5390   -0.2540    2.1850 H   0  0  0  0  0  0  0  0  0  0  0  0
  1 16  1  0  0  0  0
  1 15  1  0  0  0  0
  2  1  1  0  0  0  0
  2 17  1  1  0  0  0
  3  2  1  0  0  0  0
  3 19  1  0  0  0  0
  4  3  1  0  0  0  0
  5  4  2  0  0  0  0
  5 20  1  0  0  0  0
  6  5  1  0  0  0  0
  7 12  1  0  0  0  0
  7  6  1  0  0  0  0
  8  7  2  0  0  0  0
  9  8  1  0  0  0  0
  9 10  2  0  0  0  0
 10 11  1  0  0  0  0
 11 25  1  0  0  0  0
 11 12  2  0  0  0  0
 12  4  1  0  0  0  0
 13  2  1  0  0  0  0
 14 13  2  0  0  0  0
 18  3  1  0  0  0  0
 21  6  1  0  0  0  0
 22  8  1  0  0  0  0
 23  9  1  0  0  0  0
 24 10  1  0  0  0  0
 26 27  1  0  0  0  0
 27 38  1  0  0  0  0
 27 37  1  0  0  0  0
 28 39  1  6  0  0  0
 28 27  1  0  0  0  0
 28 30  1  0  0  0  0
 29 40  1  0  0  0  0
 29 42  1  0  0  0  0
 29 28  1  0  0  0  0
 30 43  1  6  0  0  0
 30 32  1  0  0  0  0
 30 31  1  0  0  0  0
 31 44  1  0  0  0  0
 31 13  1  0  0  0  0
 32 53  1  0  0  0  0
 33 32  2  0  0  0  0
 34 26  1  0  0  0  0
 35 26  1  0  0  0  0
 36 26  1  0  0  0  0
 41 29  1  0  0  0  0
 45 57  1  0  0  0  0
 45 46  1  0  0  0  0
 46 47  2  0  0  0  0
 47 59  1  0  0  0  0
 48 46  1  0  0  0  0
 48 49  1  0  0  0  0
 49 61  1  0  0  0  0
 49 62  1  0  0  0  0
 50 49  1  0  0  0  0
 50 51  1  0  0  0  0
 51 66  1  0  0  0  0
 51 65  1  0  0  0  0
 52 67  1  6  0  0  0
 52 51  1  0  0  0  0
 52 54  1  0  0  0  0
 53 68  1  0  0  0  0
 53 52  1  0  0  0  0
 54 56  2  0  0  0  0
 54 55  1  0  0  0  0
 58 45  1  0  0  0  0
 60 48  1  0  0  0  0
 63 50  1  0  0  0  0
 64 50  1  0  0  0  0
M  END
$$$$
