WIS.pdb
 OpenBabel07022419173D

 56 57  0  0  1  0  0  0  0  0999 V2000
    1.4320   -0.4690   -0.9070 N   0  0  0  0  0  0  0  0  0  0  0  0
    1.2130    0.3500    0.2700 C   0  0  1  0  0  0  0  0  0  0  0  0
    1.6110    1.7620   -0.0690 C   0  0  0  0  0  0  0  0  0  0  0  0
    3.0470    1.7420   -0.4510 C   0  0  0  0  0  0  0  0  0  0  0  0
    3.6170    1.8230   -1.7140 C   0  0  0  0  0  0  0  0  0  0  0  0
    4.9570    1.7670   -1.6030 N   0  0  0  0  0  0  0  0  0  0  0  0
    5.3130    1.6510   -0.3090 C   0  0  0  0  0  0  0  0  0  0  0  0
    6.5230    1.5540    0.3620 C   0  0  0  0  0  0  0  0  0  0  0  0
    6.5490    1.4420    1.7370 C   0  0  0  0  0  0  0  0  0  0  0  0
    5.3870    1.4250    2.4560 C   0  0  0  0  0  0  0  0  0  0  0  0
    4.1780    1.5210    1.7900 C   0  0  0  0  0  0  0  0  0  0  0  0
    4.1300    1.6340    0.4160 C   0  0  0  0  0  0  0  0  0  0  0  0
   -0.1970    0.2590    0.7430 C   0  0  0  0  0  0  0  0  0  0  0  0
   -0.5350    0.9130    1.7540 O   0  0  0  0  0  0  0  0  0  0  0  0
    1.0930   -1.4320   -0.6930 H   0  0  0  0  0  0  0  0  0  0  0  0
    0.8340   -0.0700   -1.6740 H   0  0  0  0  0  0  0  0  0  0  0  0
    1.8800   -0.0220    1.0550 H   0  0  0  0  0  0  0  0  0  0  0  0
    1.0210    2.0490   -0.9780 H   0  0  0  0  0  0  0  0  0  0  0  0
    1.4170    2.4800    0.7340 H   0  0  0  0  0  0  0  0  0  0  0  0
    3.0530    1.9160   -2.6250 H   0  0  0  0  0  0  0  0  0  0  0  0
    5.6680    1.8030   -2.3720 H   0  0  0  0  0  0  0  0  0  0  0  0
    7.4520    1.5650   -0.1820 H   0  0  0  0  0  0  0  0  0  0  0  0
    7.5130    1.3670    2.2470 H   0  0  0  0  0  0  0  0  0  0  0  0
    5.3720    1.3400    3.5200 H   0  0  0  0  0  0  0  0  0  0  0  0
    3.2280    1.5120    2.3160 H   0  0  0  0  0  0  0  0  0  0  0  0
   -5.2240    0.4970    1.2220 C   0  0  0  0  0  0  0  0  0  0  0  0
   -4.9560   -0.2610   -0.0330 C   0  0  0  0  0  0  0  0  0  0  0  0
   -3.5190   -0.2000   -0.4770 C   0  0  2  0  0  0  0  0  0  0  0  0
   -3.4160   -1.0380   -1.7550 C   0  0  0  0  0  0  0  0  0  0  0  0
   -2.5630   -0.6130    0.5830 C   0  0  2  0  0  0  0  0  0  0  0  0
   -1.1760   -0.5290    0.1100 N   0  0  0  0  0  0  0  0  0  0  0  0
   -2.8210   -2.0090    0.9970 C   0  0  0  0  0  0  0  0  0  0  0  0
   -3.9070   -2.3570    1.5150 O   0  0  0  0  0  0  0  0  0  0  0  0
   -5.4840   -0.1800    2.0880 H   0  0  0  0  0  0  0  0  0  0  0  0
   -4.4080    1.2020    1.4970 H   0  0  0  0  0  0  0  0  0  0  0  0
   -6.1290    1.1200    1.0780 H   0  0  0  0  0  0  0  0  0  0  0  0
   -5.6330    0.1300   -0.8500 H   0  0  0  0  0  0  0  0  0  0  0  0
   -5.2600   -1.3110    0.0940 H   0  0  0  0  0  0  0  0  0  0  0  0
   -3.2930    0.8480   -0.8550 H   0  0  0  0  0  0  0  0  0  0  0  0
   -4.3910   -1.0900   -2.2840 H   0  0  0  0  0  0  0  0  0  0  0  0
   -3.1410   -2.0850   -1.5190 H   0  0  0  0  0  0  0  0  0  0  0  0
   -2.6610   -0.6510   -2.4450 H   0  0  0  0  0  0  0  0  0  0  0  0
   -2.7310    0.0230    1.4730 H   0  0  0  0  0  0  0  0  0  0  0  0
   -0.9160   -1.0740   -0.7260 H   0  0  0  0  0  0  0  0  0  0  0  0
   -0.8250   -5.3170   -0.4350 O   0  0  0  0  0  0  0  0  0  0  0  0
   -2.1090   -5.3560    0.0860 C   0  0  0  0  0  0  0  0  0  0  0  0
   -2.1560   -4.3850    1.2540 C   0  0  2  0  0  0  0  0  0  0  0  0
   -1.8450   -3.0400    0.8300 N   0  0  0  0  0  0  0  0  0  0  0  0
   -1.1360   -4.8330    2.2190 C   0  0  0  0  0  0  0  0  0  0  0  0
   -0.2020   -4.0710    2.5350 O   0  0  0  0  0  0  0  0  0  0  0  0
   -1.2220   -6.0930    2.7640 O   0  0  0  0  0  0  0  0  0  0  0  0
   -0.7650   -4.6250   -1.1460 H   0  0  0  0  0  0  0  0  0  0  0  0
   -2.8280   -4.9960   -0.6800 H   0  0  0  0  0  0  0  0  0  0  0  0
   -2.3910   -6.3690    0.3740 H   0  0  0  0  0  0  0  0  0  0  0  0
   -3.1780   -4.4210    1.6870 H   0  0  0  0  0  0  0  0  0  0  0  0
   -0.9420   -2.7640    0.4030 H   0  0  0  0  0  0  0  0  0  0  0  0
  1 15  1  0  0  0  0
  1  2  1  0  0  0  0
  2 13  1  0  0  0  0
  2 17  1  1  0  0  0
  3  2  1  0  0  0  0
  3 19  1  0  0  0  0
  4  3  1  0  0  0  0
  4 12  1  0  0  0  0
  5  6  1  0  0  0  0
  5  4  2  0  0  0  0
  6  7  1  0  0  0  0
  7  8  2  0  0  0  0
  7 12  1  0  0  0  0
  8  9  1  0  0  0  0
  9 23  1  0  0  0  0
  9 10  2  0  0  0  0
 10 24  1  0  0  0  0
 11 25  1  0  0  0  0
 11 10  1  0  0  0  0
 12 11  2  0  0  0  0
 13 14  2  0  0  0  0
 16  1  1  0  0  0  0
 18  3  1  0  0  0  0
 20  5  1  0  0  0  0
 21  6  1  0  0  0  0
 22  8  1  0  0  0  0
 26 35  1  0  0  0  0
 26 34  1  0  0  0  0
 27 38  1  0  0  0  0
 27 26  1  0  0  0  0
 28 39  1  6  0  0  0
 28 27  1  0  0  0  0
 28 30  1  0  0  0  0
 29 41  1  0  0  0  0
 29 28  1  0  0  0  0
 30 32  1  0  0  0  0
 30 43  1  1  0  0  0
 31 30  1  0  0  0  0
 31 13  1  0  0  0  0
 32 33  2  0  0  0  0
 36 26  1  0  0  0  0
 37 27  1  0  0  0  0
 40 29  1  0  0  0  0
 42 29  1  0  0  0  0
 44 31  1  0  0  0  0
 45 46  1  0  0  0  0
 46 54  1  0  0  0  0
 46 47  1  0  0  0  0
 47 55  1  1  0  0  0
 47 49  1  0  0  0  0
 48 32  1  0  0  0  0
 48 47  1  0  0  0  0
 49 50  2  0  0  0  0
 49 51  1  0  0  0  0
 52 45  1  0  0  0  0
 53 46  1  0  0  0  0
 56 48  1  0  0  0  0
M  END
$$$$
