WIT.pdb
 OpenBabel07022419173D

 59 60  0  0  1  0  0  0  0  0999 V2000
   -0.8940   -0.4580   -2.5540 N   0  0  0  0  0  0  0  0  0  0  0  0
    0.4240   -0.5790   -1.9290 C   0  0  1  0  0  0  0  0  0  0  0  0
    1.4120    0.2560   -2.6460 C   0  0  0  0  0  0  0  0  0  0  0  0
    2.7650    0.1820   -2.0620 C   0  0  0  0  0  0  0  0  0  0  0  0
    3.7430   -0.7680   -2.3140 C   0  0  0  0  0  0  0  0  0  0  0  0
    4.8340   -0.5690   -1.5590 N   0  0  0  0  0  0  0  0  0  0  0  0
    4.6140    0.5220   -0.7790 C   0  0  0  0  0  0  0  0  0  0  0  0
    5.4200    1.1450    0.1420 C   0  0  0  0  0  0  0  0  0  0  0  0
    4.9770    2.2650    0.7910 C   0  0  0  0  0  0  0  0  0  0  0  0
    3.7160    2.7420    0.4950 C   0  0  0  0  0  0  0  0  0  0  0  0
    2.8910    2.1280   -0.4290 C   0  0  0  0  0  0  0  0  0  0  0  0
    3.3340    0.9930   -1.0880 C   0  0  0  0  0  0  0  0  0  0  0  0
    0.3760   -0.4020   -0.4910 C   0  0  0  0  0  0  0  0  0  0  0  0
    1.3640   -0.4050    0.2870 O   0  0  0  0  0  0  0  0  0  0  0  0
   -0.7270   -0.4990   -3.5860 H   0  0  0  0  0  0  0  0  0  0  0  0
   -1.4160   -1.3210   -2.2990 H   0  0  0  0  0  0  0  0  0  0  0  0
    0.7210   -1.6620   -2.1990 H   0  0  0  0  0  0  0  0  0  0  0  0
    1.4770   -0.0570   -3.7290 H   0  0  0  0  0  0  0  0  0  0  0  0
    1.1080    1.3390   -2.6110 H   0  0  0  0  0  0  0  0  0  0  0  0
    3.6760   -1.5780   -3.0240 H   0  0  0  0  0  0  0  0  0  0  0  0
    5.7160   -1.1190   -1.5330 H   0  0  0  0  0  0  0  0  0  0  0  0
    6.4090    0.7750    0.3810 H   0  0  0  0  0  0  0  0  0  0  0  0
    5.6080    2.7820    1.5340 H   0  0  0  0  0  0  0  0  0  0  0  0
    3.3710    3.6420    1.0180 H   0  0  0  0  0  0  0  0  0  0  0  0
    1.8970    2.5090   -0.6570 H   0  0  0  0  0  0  0  0  0  0  0  0
   -4.5480    0.6620    2.6820 C   0  0  0  0  0  0  0  0  0  0  0  0
   -3.5000    0.0400    1.7620 C   0  0  0  0  0  0  0  0  0  0  0  0
   -2.1830    0.6980    2.1230 C   0  0  2  0  0  0  0  0  0  0  0  0
   -2.2540    2.1640    1.8950 C   0  0  0  0  0  0  0  0  0  0  0  0
   -1.0070   -0.0280    1.6100 C   0  0  2  0  0  0  0  0  0  0  0  0
   -0.8810   -0.2020    0.2120 N   0  0  0  0  0  0  0  0  0  0  0  0
   -1.1370   -1.4400    2.1900 C   0  0  0  0  0  0  0  0  0  0  0  0
   -1.3580   -1.5520    3.4130 O   0  0  0  0  0  0  0  0  0  0  0  0
   -5.3740   -0.0510    2.8880 H   0  0  0  0  0  0  0  0  0  0  0  0
   -4.0610    0.8420    3.6690 H   0  0  0  0  0  0  0  0  0  0  0  0
   -4.8680    1.6010    2.2260 H   0  0  0  0  0  0  0  0  0  0  0  0
   -3.7730    0.2700    0.7050 H   0  0  0  0  0  0  0  0  0  0  0  0
   -3.4310   -1.0560    1.8900 H   0  0  0  0  0  0  0  0  0  0  0  0
   -2.1400    0.5820    3.2600 H   0  0  0  0  0  0  0  0  0  0  0  0
   -2.6680    2.4420    0.9220 H   0  0  0  0  0  0  0  0  0  0  0  0
   -3.0000    2.5710    2.6450 H   0  0  0  0  0  0  0  0  0  0  0  0
   -1.3060    2.6760    2.1490 H   0  0  0  0  0  0  0  0  0  0  0  0
   -0.0830    0.3270    2.1190 H   0  0  0  0  0  0  0  0  0  0  0  0
   -1.7310   -0.1920   -0.4190 H   0  0  0  0  0  0  0  0  0  0  0  0
   -3.3370   -4.2340    0.6460 C   0  0  0  0  0  0  0  0  0  0  0  0
   -1.9240   -4.7370    0.8440 C   0  0  1  0  0  0  0  0  0  0  0  0
   -1.3160   -4.7500   -0.4210 O   0  0  0  0  0  0  0  0  0  0  0  0
   -1.1110   -3.8940    1.7750 C   0  0  2  0  0  0  0  0  0  0  0  0
   -0.9980   -2.5270    1.3050 N   0  0  0  0  0  0  0  0  0  0  0  0
    0.2600   -4.4620    1.7990 C   0  0  0  0  0  0  0  0  0  0  0  0
    0.4090   -5.6480    2.1630 O   0  0  0  0  0  0  0  0  0  0  0  0
    1.3360   -3.7100    1.4330 O   0  0  0  0  0  0  0  0  0  0  0  0
   -3.9270   -4.3410    1.5740 H   0  0  0  0  0  0  0  0  0  0  0  0
   -3.7940   -4.8810   -0.1500 H   0  0  0  0  0  0  0  0  0  0  0  0
   -3.3000   -3.1940    0.2730 H   0  0  0  0  0  0  0  0  0  0  0  0
   -1.9290   -5.7940    1.1720 H   0  0  0  0  0  0  0  0  0  0  0  0
   -1.8940   -5.1550   -1.1130 H   0  0  0  0  0  0  0  0  0  0  0  0
   -1.5150   -3.9340    2.8260 H   0  0  0  0  0  0  0  0  0  0  0  0
   -0.8100   -2.4100    0.2840 H   0  0  0  0  0  0  0  0  0  0  0  0
  1 16  1  0  0  0  0
  1  2  1  0  0  0  0
  2 17  1  6  0  0  0
  2 13  1  0  0  0  0
  3 19  1  0  0  0  0
  3  4  1  0  0  0  0
  3  2  1  0  0  0  0
  4 12  1  0  0  0  0
  5  4  2  0  0  0  0
  5  6  1  0  0  0  0
  6 21  1  0  0  0  0
  6  7  1  0  0  0  0
  7  8  1  0  0  0  0
  8 22  1  0  0  0  0
  8  9  2  0  0  0  0
  9 23  1  0  0  0  0
 10  9  1  0  0  0  0
 10 24  1  0  0  0  0
 11 10  2  0  0  0  0
 12  7  2  0  0  0  0
 12 11  1  0  0  0  0
 13 31  1  0  0  0  0
 13 14  2  0  0  0  0
 15  1  1  0  0  0  0
 18  3  1  0  0  0  0
 20  5  1  0  0  0  0
 25 11  1  0  0  0  0
 26 34  1  0  0  0  0
 26 35  1  0  0  0  0
 27 38  1  0  0  0  0
 27 28  1  0  0  0  0
 27 26  1  0  0  0  0
 28 39  1  1  0  0  0
 29 28  1  0  0  0  0
 29 42  1  0  0  0  0
 29 41  1  0  0  0  0
 30 43  1  1  0  0  0
 30 28  1  0  0  0  0
 30 32  1  0  0  0  0
 31 30  1  0  0  0  0
 32 33  2  0  0  0  0
 36 26  1  0  0  0  0
 37 27  1  0  0  0  0
 40 29  1  0  0  0  0
 44 31  1  0  0  0  0
 45 46  1  0  0  0  0
 45 53  1  0  0  0  0
 46 56  1  1  0  0  0
 46 48  1  0  0  0  0
 47 46  1  0  0  0  0
 48 50  1  0  0  0  0
 48 58  1  1  0  0  0
 49 48  1  0  0  0  0
 49 32  1  0  0  0  0
 50 51  1  0  0  0  0
 52 50  2  0  0  0  0
 54 45  1  0  0  0  0
 55 45  1  0  0  0  0
 57 47  1  0  0  0  0
 59 49  1  0  0  0  0
M  END
$$$$
