WIV.pdb
 OpenBabel07022419173D

 61 62  0  0  1  0  0  0  0  0999 V2000
    2.7320   -2.7340    1.7470 N   0  0  0  0  0  0  0  0  0  0  0  0
    2.5860   -1.3710    1.3500 C   0  0  1  0  0  0  0  0  0  0  0  0
    3.1100   -1.1980   -0.0520 C   0  0  0  0  0  0  0  0  0  0  0  0
    2.4340   -2.0030   -1.0650 C   0  0  0  0  0  0  0  0  0  0  0  0
    1.5450   -3.0170   -0.8810 C   0  0  0  0  0  0  0  0  0  0  0  0
    1.1680   -3.4850   -2.0780 N   0  0  0  0  0  0  0  0  0  0  0  0
    1.7970   -2.7930   -3.0600 C   0  0  0  0  0  0  0  0  0  0  0  0
    1.7560   -2.8770   -4.4350 C   0  0  0  0  0  0  0  0  0  0  0  0
    2.5070   -2.0350   -5.2100 C   0  0  0  0  0  0  0  0  0  0  0  0
    3.3040   -1.1040   -4.5960 C   0  0  0  0  0  0  0  0  0  0  0  0
    3.3520   -1.0120   -3.2190 C   0  0  0  0  0  0  0  0  0  0  0  0
    2.5900   -1.8650   -2.4270 C   0  0  0  0  0  0  0  0  0  0  0  0
    1.1390   -0.9970    1.4750 C   0  0  0  0  0  0  0  0  0  0  0  0
    0.2890   -1.7800    2.0190 O   0  0  0  0  0  0  0  0  0  0  0  0
    2.5510   -2.9260    2.7520 H   0  0  0  0  0  0  0  0  0  0  0  0
    3.5380   -3.2450    1.3570 H   0  0  0  0  0  0  0  0  0  0  0  0
    3.1140   -0.6640    2.0570 H   0  0  0  0  0  0  0  0  0  0  0  0
    4.2030   -1.4660   -0.0090 H   0  0  0  0  0  0  0  0  0  0  0  0
    3.0940   -0.1300   -0.3640 H   0  0  0  0  0  0  0  0  0  0  0  0
    1.1540   -3.4440    0.0480 H   0  0  0  0  0  0  0  0  0  0  0  0
    0.4870   -4.2720   -2.2860 H   0  0  0  0  0  0  0  0  0  0  0  0
    1.1240   -3.6150   -4.8870 H   0  0  0  0  0  0  0  0  0  0  0  0
    2.4570   -2.1170   -6.3050 H   0  0  0  0  0  0  0  0  0  0  0  0
    3.9130   -0.4230   -5.1840 H   0  0  0  0  0  0  0  0  0  0  0  0
    3.9820   -0.2760   -2.7450 H   0  0  0  0  0  0  0  0  0  0  0  0
   -0.9710    4.3670    1.5420 C   0  0  0  0  0  0  0  0  0  0  0  0
   -0.4550    3.0410    1.0220 C   0  0  0  0  0  0  0  0  0  0  0  0
   -1.0570    1.8790    1.7820 C   0  0  2  0  0  0  0  0  0  0  0  0
   -0.7200    1.9510    3.2490 C   0  0  0  0  0  0  0  0  0  0  0  0
   -0.7960    0.5650    1.1390 C   0  0  2  0  0  0  0  0  0  0  0  0
    0.6080    0.2340    1.0060 N   0  0  0  0  0  0  0  0  0  0  0  0
   -1.4050    0.6060   -0.2280 C   0  0  0  0  0  0  0  0  0  0  0  0
   -0.6640    0.3540   -1.2040 O   0  0  0  0  0  0  0  0  0  0  0  0
   -1.1000    5.0900    0.6830 H   0  0  0  0  0  0  0  0  0  0  0  0
   -1.9670    4.1970    2.0410 H   0  0  0  0  0  0  0  0  0  0  0  0
   -0.2680    4.8240    2.2370 H   0  0  0  0  0  0  0  0  0  0  0  0
    0.6380    3.0180    1.2180 H   0  0  0  0  0  0  0  0  0  0  0  0
   -0.6650    3.0080   -0.0460 H   0  0  0  0  0  0  0  0  0  0  0  0
   -2.1760    2.0370    1.7240 H   0  0  0  0  0  0  0  0  0  0  0  0
   -1.0540    2.9820    3.5740 H   0  0  0  0  0  0  0  0  0  0  0  0
    0.3470    1.7890    3.4620 H   0  0  0  0  0  0  0  0  0  0  0  0
   -1.3300    1.2530    3.8540 H   0  0  0  0  0  0  0  0  0  0  0  0
   -1.2640   -0.2370    1.7510 H   0  0  0  0  0  0  0  0  0  0  0  0
    1.2990    0.8950    0.5520 H   0  0  0  0  0  0  0  0  0  0  0  0
   -5.0680   -0.0600   -3.3370 C   0  0  0  0  0  0  0  0  0  0  0  0
   -4.4450   -0.0480   -1.9620 C   0  0  0  0  0  0  0  0  0  0  0  0
   -3.9680   -1.4640   -1.6920 C   0  0  0  0  0  0  0  0  0  0  0  0
   -3.3310    0.9450   -1.8080 C   0  0  2  0  0  0  0  0  0  0  0  0
   -2.7610    0.9130   -0.4670 N   0  0  0  0  0  0  0  0  0  0  0  0
   -3.7140    2.3360   -2.1830 C   0  0  0  0  0  0  0  0  0  0  0  0
   -3.5490    3.3010   -1.3700 O   0  0  0  0  0  0  0  0  0  0  0  0
   -4.2610    2.6630   -3.4100 O   0  0  0  0  0  0  0  0  0  0  0  0
   -5.8290   -0.9000   -3.3020 H   0  0  0  0  0  0  0  0  0  0  0  0
   -4.3280   -0.3910   -4.0960 H   0  0  0  0  0  0  0  0  0  0  0  0
   -5.6370    0.8260   -3.6050 H   0  0  0  0  0  0  0  0  0  0  0  0
   -5.2630    0.1370   -1.2160 H   0  0  0  0  0  0  0  0  0  0  0  0
   -3.7180   -1.9550   -2.6740 H   0  0  0  0  0  0  0  0  0  0  0  0
   -3.0220   -1.4750   -1.1150 H   0  0  0  0  0  0  0  0  0  0  0  0
   -4.7680   -2.0500   -1.2350 H   0  0  0  0  0  0  0  0  0  0  0  0
   -2.5160    0.6570   -2.4980 H   0  0  0  0  0  0  0  0  0  0  0  0
   -3.3830    1.1260    0.3660 H   0  0  0  0  0  0  0  0  0  0  0  0
  1 15  1  0  0  0  0
  2 13  1  0  0  0  0
  2  1  1  0  0  0  0
  2 17  1  1  0  0  0
  3 18  1  0  0  0  0
  3  2  1  0  0  0  0
  4  5  2  0  0  0  0
  4  3  1  0  0  0  0
  5 20  1  0  0  0  0
  6  5  1  0  0  0  0
  7 12  1  0  0  0  0
  7  6  1  0  0  0  0
  8  7  2  0  0  0  0
  9 10  2  0  0  0  0
  9  8  1  0  0  0  0
 10 11  1  0  0  0  0
 11 25  1  0  0  0  0
 11 12  2  0  0  0  0
 12  4  1  0  0  0  0
 13 14  2  0  0  0  0
 16  1  1  0  0  0  0
 19  3  1  0  0  0  0
 21  6  1  0  0  0  0
 22  8  1  0  0  0  0
 23  9  1  0  0  0  0
 24 10  1  0  0  0  0
 26 35  1  0  0  0  0
 26 36  1  0  0  0  0
 27 37  1  0  0  0  0
 27 26  1  0  0  0  0
 27 28  1  0  0  0  0
 28 39  1  6  0  0  0
 28 29  1  0  0  0  0
 29 41  1  0  0  0  0
 29 40  1  0  0  0  0
 29 42  1  0  0  0  0
 30 43  1  1  0  0  0
 30 28  1  0  0  0  0
 31 30  1  0  0  0  0
 31 13  1  0  0  0  0
 32 30  1  0  0  0  0
 33 32  2  0  0  0  0
 34 26  1  0  0  0  0
 38 27  1  0  0  0  0
 44 31  1  0  0  0  0
 45 53  1  0  0  0  0
 45 46  1  0  0  0  0
 46 48  1  0  0  0  0
 46 47  1  0  0  0  0
 46 56  1  0  0  0  0
 47 59  1  0  0  0  0
 47 58  1  0  0  0  0
 48 60  1  6  0  0  0
 48 49  1  0  0  0  0
 49 32  1  0  0  0  0
 49 61  1  0  0  0  0
 50 48  1  0  0  0  0
 50 51  1  0  0  0  0
 52 50  2  0  0  0  0
 54 45  1  0  0  0  0
 55 45  1  0  0  0  0
 57 47  1  0  0  0  0
M  END
$$$$
