WIW.pdb
 OpenBabel07022419173D

 69 72  0  0  1  0  0  0  0  0999 V2000
    3.8190    0.5750    1.8310 N   0  0  0  0  0  0  0  0  0  0  0  0
    2.7010   -0.2060    2.2630 C   0  0  1  0  0  0  0  0  0  0  0  0
    1.7390    0.5640    3.1020 C   0  0  0  0  0  0  0  0  0  0  0  0
    1.1470    1.7400    2.4570 C   0  0  0  0  0  0  0  0  0  0  0  0
   -0.1090    1.8370    1.8570 C   0  0  0  0  0  0  0  0  0  0  0  0
   -0.2420    3.0770    1.3780 N   0  0  0  0  0  0  0  0  0  0  0  0
    0.8650    3.7980    1.6340 C   0  0  0  0  0  0  0  0  0  0  0  0
    1.2190    5.1060    1.3610 C   0  0  0  0  0  0  0  0  0  0  0  0
    2.4300    5.6450    1.7350 C   0  0  0  0  0  0  0  0  0  0  0  0
    3.2960    4.8140    2.4090 C   0  0  0  0  0  0  0  0  0  0  0  0
    2.9620    3.5100    2.6910 C   0  0  0  0  0  0  0  0  0  0  0  0
    1.7310    2.9650    2.3070 C   0  0  0  0  0  0  0  0  0  0  0  0
    2.0520   -0.9420    1.1250 C   0  0  0  0  0  0  0  0  0  0  0  0
    2.4760   -0.8520   -0.0530 O   0  0  0  0  0  0  0  0  0  0  0  0
    4.3570    0.0950    1.0840 H   0  0  0  0  0  0  0  0  0  0  0  0
    4.4600    0.7120    2.6430 H   0  0  0  0  0  0  0  0  0  0  0  0
    3.1470   -0.9820    2.9740 H   0  0  0  0  0  0  0  0  0  0  0  0
    2.3120    0.8650    4.0290 H   0  0  0  0  0  0  0  0  0  0  0  0
    0.9300   -0.1020    3.5290 H   0  0  0  0  0  0  0  0  0  0  0  0
   -0.8350    1.0400    1.8000 H   0  0  0  0  0  0  0  0  0  0  0  0
   -1.0950    3.4150    0.8770 H   0  0  0  0  0  0  0  0  0  0  0  0
    0.4730    5.7080    0.8180 H   0  0  0  0  0  0  0  0  0  0  0  0
    2.6920    6.6750    1.5120 H   0  0  0  0  0  0  0  0  0  0  0  0
    4.2520    5.1840    2.7240 H   0  0  0  0  0  0  0  0  0  0  0  0
    3.6870    2.9180    3.2320 H   0  0  0  0  0  0  0  0  0  0  0  0
    0.4310   -6.3540    0.3520 C   0  0  0  0  0  0  0  0  0  0  0  0
   -0.1440   -4.9980   -0.1160 C   0  0  0  0  0  0  0  0  0  0  0  0
    0.4780   -3.9620    0.7490 C   0  0  2  0  0  0  0  0  0  0  0  0
    0.1560   -4.1470    2.2120 C   0  0  0  0  0  0  0  0  0  0  0  0
    0.2270   -2.5270    0.3660 C   0  0  2  0  0  0  0  0  0  0  0  0
    0.9440   -1.7530    1.3810 N   0  0  0  0  0  0  0  0  0  0  0  0
   -1.1910   -2.2360    0.3440 C   0  0  0  0  0  0  0  0  0  0  0  0
   -1.6890   -1.4990    1.2680 O   0  0  0  0  0  0  0  0  0  0  0  0
    0.5320   -7.0310   -0.5060 H   0  0  0  0  0  0  0  0  0  0  0  0
   -0.3000   -6.7810    1.0610 H   0  0  0  0  0  0  0  0  0  0  0  0
    1.3920   -6.1980    0.8910 H   0  0  0  0  0  0  0  0  0  0  0  0
   -1.2550   -5.0450   -0.0020 H   0  0  0  0  0  0  0  0  0  0  0  0
    0.1290   -4.9060   -1.1780 H   0  0  0  0  0  0  0  0  0  0  0  0
    1.6140   -4.0760    0.6920 H   0  0  0  0  0  0  0  0  0  0  0  0
   -0.7290   -3.5070    2.4960 H   0  0  0  0  0  0  0  0  0  0  0  0
    0.0240   -5.2090    2.4970 H   0  0  0  0  0  0  0  0  0  0  0  0
    0.9820   -3.7710    2.8510 H   0  0  0  0  0  0  0  0  0  0  0  0
    0.7600   -2.3330   -0.5860 H   0  0  0  0  0  0  0  0  0  0  0  0
    0.5660   -1.8410    2.3480 H   0  0  0  0  0  0  0  0  0  0  0  0
   -2.1610   -2.6670   -0.6080 N   0  0  0  0  0  0  0  0  0  0  0  0
   -3.5420   -2.3170   -0.5460 C   0  0  1  0  0  0  0  0  0  0  0  0
   -4.0260   -1.4130   -1.6610 C   0  0  0  0  0  0  0  0  0  0  0  0
   -3.3160   -0.1130   -1.7190 C   0  0  0  0  0  0  0  0  0  0  0  0
   -3.6930    1.0920   -1.1840 C   0  0  0  0  0  0  0  0  0  0  0  0
   -2.7250    1.9700   -1.4580 N   0  0  0  0  0  0  0  0  0  0  0  0
   -1.7310    1.4040   -2.1450 C   0  0  0  0  0  0  0  0  0  0  0  0
   -0.5410    1.8970   -2.6540 C   0  0  0  0  0  0  0  0  0  0  0  0
    0.2810    1.0450   -3.3400 C   0  0  0  0  0  0  0  0  0  0  0  0
   -0.0740   -0.2700   -3.5170 C   0  0  0  0  0  0  0  0  0  0  0  0
   -1.2650   -0.7850   -3.0130 C   0  0  0  0  0  0  0  0  0  0  0  0
   -2.0890    0.0850   -2.3190 C   0  0  0  0  0  0  0  0  0  0  0  0
   -4.3630   -3.5490   -0.6090 C   0  0  0  0  0  0  0  0  0  0  0  0
   -5.6330   -3.4210   -0.5460 O   0  0  0  0  0  0  0  0  0  0  0  0
   -3.8490   -4.8310   -0.7310 O   0  0  0  0  0  0  0  0  0  0  0  0
   -1.8210   -3.2700   -1.3850 H   0  0  0  0  0  0  0  0  0  0  0  0
   -3.8210   -1.7820    0.3920 H   0  0  0  0  0  0  0  0  0  0  0  0
   -5.0950   -1.1850   -1.4850 H   0  0  0  0  0  0  0  0  0  0  0  0
   -3.9770   -1.9260   -2.6500 H   0  0  0  0  0  0  0  0  0  0  0  0
   -4.6160    1.2650   -0.6440 H   0  0  0  0  0  0  0  0  0  0  0  0
   -2.6970    2.9920   -1.1900 H   0  0  0  0  0  0  0  0  0  0  0  0
   -0.2780    2.9460   -2.5020 H   0  0  0  0  0  0  0  0  0  0  0  0
    1.2080    1.4190   -3.7400 H   0  0  0  0  0  0  0  0  0  0  0  0
    0.6040   -0.9050   -4.0650 H   0  0  0  0  0  0  0  0  0  0  0  0
   -1.5160   -1.8330   -3.1860 H   0  0  0  0  0  0  0  0  0  0  0  0
  1  2  1  0  0  0  0
  1 16  1  0  0  0  0
  2 17  1  1  0  0  0
  2  3  1  0  0  0  0
  3 19  1  0  0  0  0
  3 18  1  0  0  0  0
  4  3  1  0  0  0  0
  5  4  2  0  0  0  0
  6  7  1  0  0  0  0
  6  5  1  0  0  0  0
  7 12  1  0  0  0  0
  8  7  2  0  0  0  0
  8  9  1  0  0  0  0
  9 10  2  0  0  0  0
 10 11  1  0  0  0  0
 10 24  1  0  0  0  0
 11 25  1  0  0  0  0
 12  4  1  0  0  0  0
 12 11  2  0  0  0  0
 13 31  1  0  0  0  0
 13  2  1  0  0  0  0
 14 13  2  0  0  0  0
 15  1  1  0  0  0  0
 20  5  1  0  0  0  0
 21  6  1  0  0  0  0
 22  8  1  0  0  0  0
 23  9  1  0  0  0  0
 26 36  1  0  0  0  0
 26 35  1  0  0  0  0
 27 37  1  0  0  0  0
 27 26  1  0  0  0  0
 27 28  1  0  0  0  0
 28 39  1  6  0  0  0
 28 29  1  0  0  0  0
 29 40  1  0  0  0  0
 29 41  1  0  0  0  0
 29 42  1  0  0  0  0
 30 43  1  6  0  0  0
 30 28  1  0  0  0  0
 30 31  1  0  0  0  0
 31 44  1  0  0  0  0
 32 30  1  0  0  0  0
 32 33  2  0  0  0  0
 34 26  1  0  0  0  0
 38 27  1  0  0  0  0
 45 46  1  0  0  0  0
 45 32  1  0  0  0  0
 46 61  1  1  0  0  0
 47 62  1  0  0  0  0
 47 46  1  0  0  0  0
 48 47  1  0  0  0  0
 48 49  2  0  0  0  0
 49 64  1  0  0  0  0
 50 65  1  0  0  0  0
 50 49  1  0  0  0  0
 51 50  1  0  0  0  0
 52 66  1  0  0  0  0
 52 51  2  0  0  0  0
 53 52  1  0  0  0  0
 54 53  2  0  0  0  0
 54 55  1  0  0  0  0
 55 56  2  0  0  0  0
 56 51  1  0  0  0  0
 56 48  1  0  0  0  0
 57 46  1  0  0  0  0
 57 58  1  0  0  0  0
 59 57  2  0  0  0  0
 60 45  1  0  0  0  0
 63 47  1  0  0  0  0
 67 53  1  0  0  0  0
 68 54  1  0  0  0  0
 69 55  1  0  0  0  0
M  END
$$$$
