WIY.pdb
 OpenBabel07022419173D

 66 68  0  0  1  0  0  0  0  0999 V2000
   -0.9150   -5.1220    3.7140 N   0  0  0  0  0  0  0  0  0  0  0  0
   -0.4880   -3.7130    3.7380 C   0  0  1  0  0  0  0  0  0  0  0  0
    0.9800   -3.7610    4.0610 C   0  0  0  0  0  0  0  0  0  0  0  0
    1.6760   -2.4860    4.1140 C   0  0  0  0  0  0  0  0  0  0  0  0
    1.9260   -1.7110    5.2360 C   0  0  0  0  0  0  0  0  0  0  0  0
    2.5660   -0.5990    4.8810 N   0  0  0  0  0  0  0  0  0  0  0  0
    2.7520   -0.6080    3.5620 C   0  0  0  0  0  0  0  0  0  0  0  0
    3.3700    0.3060    2.7400 C   0  0  0  0  0  0  0  0  0  0  0  0
    3.4440    0.0490    1.4050 C   0  0  0  0  0  0  0  0  0  0  0  0
    2.9090   -1.1060    0.8790 C   0  0  0  0  0  0  0  0  0  0  0  0
    2.2880   -2.0230    1.6970 C   0  0  0  0  0  0  0  0  0  0  0  0
    2.2100   -1.7710    3.0430 C   0  0  0  0  0  0  0  0  0  0  0  0
   -0.7280   -3.1310    2.4350 C   0  0  0  0  0  0  0  0  0  0  0  0
   -0.7570   -3.8620    1.4190 O   0  0  0  0  0  0  0  0  0  0  0  0
   -0.6260   -5.4780    2.7790 H   0  0  0  0  0  0  0  0  0  0  0  0
   -1.9710   -5.1110    3.7200 H   0  0  0  0  0  0  0  0  0  0  0  0
   -1.0380   -3.2080    4.5690 H   0  0  0  0  0  0  0  0  0  0  0  0
    1.1520   -4.3850    4.9940 H   0  0  0  0  0  0  0  0  0  0  0  0
    1.4870   -4.3930    3.2660 H   0  0  0  0  0  0  0  0  0  0  0  0
    1.6240   -2.0100    6.2330 H   0  0  0  0  0  0  0  0  0  0  0  0
    2.8630    0.1430    5.5500 H   0  0  0  0  0  0  0  0  0  0  0  0
    3.7950    1.2150    3.1360 H   0  0  0  0  0  0  0  0  0  0  0  0
    3.9280    0.7660    0.7720 H   0  0  0  0  0  0  0  0  0  0  0  0
    2.9650   -1.3110   -0.1670 H   0  0  0  0  0  0  0  0  0  0  0  0
    1.8820   -2.9180    1.2640 H   0  0  0  0  0  0  0  0  0  0  0  0
   -4.8960   -2.0240    1.2040 C   0  0  0  0  0  0  0  0  0  0  0  0
   -3.3900   -2.1760    1.2180 C   0  0  0  0  0  0  0  0  0  0  0  0
   -2.6860   -0.8700    0.9310 C   0  0  2  0  0  0  0  0  0  0  0  0
   -3.1160   -0.3660   -0.4310 C   0  0  0  0  0  0  0  0  0  0  0  0
   -1.1890   -1.2090    0.9340 C   0  0  2  0  0  0  0  0  0  0  0  0
   -0.9430   -1.7310    2.2660 N   0  0  0  0  0  0  0  0  0  0  0  0
   -0.3790    0.0180    0.7790 C   0  0  0  0  0  0  0  0  0  0  0  0
    0.2450    0.4670    1.7710 O   0  0  0  0  0  0  0  0  0  0  0  0
   -5.2370   -1.0600    1.5830 H   0  0  0  0  0  0  0  0  0  0  0  0
   -5.2920   -2.3050    0.2110 H   0  0  0  0  0  0  0  0  0  0  0  0
   -5.2840   -2.8060    1.9210 H   0  0  0  0  0  0  0  0  0  0  0  0
   -3.1190   -2.8820    0.4130 H   0  0  0  0  0  0  0  0  0  0  0  0
   -3.0350   -2.5530    2.2010 H   0  0  0  0  0  0  0  0  0  0  0  0
   -2.9650   -0.1460    1.6910 H   0  0  0  0  0  0  0  0  0  0  0  0
   -4.2210   -0.5380   -0.4860 H   0  0  0  0  0  0  0  0  0  0  0  0
   -2.6550   -0.9590   -1.2210 H   0  0  0  0  0  0  0  0  0  0  0  0
   -2.9780    0.7030   -0.5840 H   0  0  0  0  0  0  0  0  0  0  0  0
   -1.0670   -1.9580    0.1530 H   0  0  0  0  0  0  0  0  0  0  0  0
   -0.9280   -1.0800    3.0740 H   0  0  0  0  0  0  0  0  0  0  0  0
   -0.3550    0.2100   -6.6530 O   0  0  0  0  0  0  0  0  0  0  0  0
    0.1350    0.5550   -5.4090 C   0  0  0  0  0  0  0  0  0  0  0  0
    0.3750   -0.4160   -4.4490 C   0  0  0  0  0  0  0  0  0  0  0  0
    0.8650   -0.0310   -3.2160 C   0  0  0  0  0  0  0  0  0  0  0  0
    1.1290    1.2750   -2.8910 C   0  0  0  0  0  0  0  0  0  0  0  0
    1.6510    1.6580   -1.5730 C   0  0  0  0  0  0  0  0  0  0  0  0
    0.5600    1.9580   -0.5600 C   0  0  2  0  0  0  0  0  0  0  0  0
   -0.2300    0.7620   -0.4190 N   0  0  0  0  0  0  0  0  0  0  0  0
   -0.2010    3.1140   -1.0250 C   0  0  0  0  0  0  0  0  0  0  0  0
   -1.4170    3.0300   -1.2700 O   0  0  0  0  0  0  0  0  0  0  0  0
    0.8900    2.2360   -3.8480 C   0  0  0  0  0  0  0  0  0  0  0  0
    0.3930    1.8630   -5.1030 C   0  0  0  0  0  0  0  0  0  0  0  0
    0.4390    4.3250   -1.1960 O   0  0  0  0  0  0  0  0  0  0  0  0
    0.1770   -0.3380   -7.3140 H   0  0  0  0  0  0  0  0  0  0  0  0
    0.1720   -1.4540   -4.6890 H   0  0  0  0  0  0  0  0  0  0  0  0
    1.0580   -0.7840   -2.4540 H   0  0  0  0  0  0  0  0  0  0  0  0
    2.3290    0.8870   -1.1370 H   0  0  0  0  0  0  0  0  0  0  0  0
    2.2760    2.5870   -1.6150 H   0  0  0  0  0  0  0  0  0  0  0  0
    1.0700    2.2520    0.3810 H   0  0  0  0  0  0  0  0  0  0  0  0
   -0.7220    0.4200   -1.2680 H   0  0  0  0  0  0  0  0  0  0  0  0
    1.0770    3.2780   -3.6530 H   0  0  0  0  0  0  0  0  0  0  0  0
    0.2080    2.6210   -5.8460 H   0  0  0  0  0  0  0  0  0  0  0  0
  1 16  1  0  0  0  0
  1  2  1  0  0  0  0
  2  3  1  0  0  0  0
  2 17  1  1  0  0  0
  3  4  1  0  0  0  0
  3 18  1  0  0  0  0
  4  5  2  0  0  0  0
  5 20  1  0  0  0  0
  6  5  1  0  0  0  0
  6 21  1  0  0  0  0
  7  6  1  0  0  0  0
  8 22  1  0  0  0  0
  8  7  2  0  0  0  0
  9  8  1  0  0  0  0
 10  9  2  0  0  0  0
 10 11  1  0  0  0  0
 11 12  2  0  0  0  0
 12  7  1  0  0  0  0
 12  4  1  0  0  0  0
 13  2  1  0  0  0  0
 14 13  2  0  0  0  0
 15  1  1  0  0  0  0
 19  3  1  0  0  0  0
 23  9  1  0  0  0  0
 24 10  1  0  0  0  0
 25 11  1  0  0  0  0
 26 27  1  0  0  0  0
 26 34  1  0  0  0  0
 26 36  1  0  0  0  0
 27 38  1  0  0  0  0
 28 30  1  0  0  0  0
 28 27  1  0  0  0  0
 28 39  1  1  0  0  0
 29 28  1  0  0  0  0
 30 43  1  6  0  0  0
 30 31  1  0  0  0  0
 31 13  1  0  0  0  0
 31 44  1  0  0  0  0
 32 30  1  0  0  0  0
 32 33  2  0  0  0  0
 35 26  1  0  0  0  0
 37 27  1  0  0  0  0
 40 29  1  0  0  0  0
 41 29  1  0  0  0  0
 42 29  1  0  0  0  0
 45 46  1  0  0  0  0
 46 56  2  0  0  0  0
 46 47  1  0  0  0  0
 47 48  2  0  0  0  0
 48 49  1  0  0  0  0
 48 60  1  0  0  0  0
 49 50  1  0  0  0  0
 50 61  1  0  0  0  0
 50 51  1  0  0  0  0
 51 52  1  0  0  0  0
 51 63  1  1  0  0  0
 52 32  1  0  0  0  0
 53 51  1  0  0  0  0
 54 53  2  0  0  0  0
 55 65  1  0  0  0  0
 55 49  2  0  0  0  0
 56 55  1  0  0  0  0
 57 53  1  0  0  0  0
 58 45  1  0  0  0  0
 59 47  1  0  0  0  0
 62 50  1  0  0  0  0
 64 52  1  0  0  0  0
 66 56  1  0  0  0  0
M  END
$$$$
