WKC.pdb
 OpenBabel07022419173D

 58 59  0  0  1  0  0  0  0  0999 V2000
    2.4280    0.7490   -1.5020 N   0  0  0  0  0  0  0  0  0  0  0  0
    3.1810    0.0260   -0.5340 C   0  0  1  0  0  0  0  0  0  0  0  0
    4.0490    0.8580    0.3740 C   0  0  0  0  0  0  0  0  0  0  0  0
    3.3180    1.8460    1.1780 C   0  0  0  0  0  0  0  0  0  0  0  0
    2.9120    1.7470    2.5100 C   0  0  0  0  0  0  0  0  0  0  0  0
    2.2530    2.8610    2.8490 N   0  0  0  0  0  0  0  0  0  0  0  0
    2.2090    3.7010    1.7810 C   0  0  0  0  0  0  0  0  0  0  0  0
    1.6630    4.9640    1.5960 C   0  0  0  0  0  0  0  0  0  0  0  0
    1.7420    5.6520    0.4050 C   0  0  0  0  0  0  0  0  0  0  0  0
    2.4020    5.0260   -0.6290 C   0  0  0  0  0  0  0  0  0  0  0  0
    2.9520    3.7650   -0.4620 C   0  0  0  0  0  0  0  0  0  0  0  0
    2.8680    3.0740    0.7470 C   0  0  0  0  0  0  0  0  0  0  0  0
    2.2660   -0.8590    0.2690 C   0  0  0  0  0  0  0  0  0  0  0  0
    2.7150   -1.5720    1.1970 O   0  0  0  0  0  0  0  0  0  0  0  0
    2.2920    0.2740   -2.4010 H   0  0  0  0  0  0  0  0  0  0  0  0
    1.6150    1.2710   -1.1450 H   0  0  0  0  0  0  0  0  0  0  0  0
    3.9070   -0.6270   -1.1120 H   0  0  0  0  0  0  0  0  0  0  0  0
    4.8430    1.3260   -0.2580 H   0  0  0  0  0  0  0  0  0  0  0  0
    4.5540    0.1210    1.0620 H   0  0  0  0  0  0  0  0  0  0  0  0
    3.1190    0.8750    3.1520 H   0  0  0  0  0  0  0  0  0  0  0  0
    1.8220    3.0970    3.7750 H   0  0  0  0  0  0  0  0  0  0  0  0
    1.1530    5.4050    2.4580 H   0  0  0  0  0  0  0  0  0  0  0  0
    1.3020    6.6360    0.3060 H   0  0  0  0  0  0  0  0  0  0  0  0
    2.4950    5.5240   -1.5940 H   0  0  0  0  0  0  0  0  0  0  0  0
    3.4820    3.2630   -1.2620 H   0  0  0  0  0  0  0  0  0  0  0  0
    0.8900   -0.9110    0.0010 N   0  0  0  0  0  0  0  0  0  0  0  0
   -0.0260   -1.8100    0.8180 C   0  0  1  0  0  0  0  0  0  0  0  0
   -0.9400   -0.8300    1.4350 C   0  0  0  0  0  0  0  0  0  0  0  0
   -2.0070   -1.1580    2.3520 C   0  0  0  0  0  0  0  0  0  0  0  0
   -3.1470   -2.0040    2.0090 C   0  0  0  0  0  0  0  0  0  0  0  0
   -3.9770   -1.5430    0.8410 C   0  0  0  0  0  0  0  0  0  0  0  0
   -4.5520   -0.2310    1.0510 N   0  0  0  0  0  0  0  0  0  0  0  0
   -0.4970   -2.7570   -0.1700 C   0  0  0  0  0  0  0  0  0  0  0  0
   -0.3790   -2.5250   -1.4010 O   0  0  0  0  0  0  0  0  0  0  0  0
    0.4460   -0.3600   -0.7410 H   0  0  0  0  0  0  0  0  0  0  0  0
    0.6620   -2.2920    1.5720 H   0  0  0  0  0  0  0  0  0  0  0  0
   -1.2780   -0.0640    0.6270 H   0  0  0  0  0  0  0  0  0  0  0  0
   -0.2340   -0.1200    2.0180 H   0  0  0  0  0  0  0  0  0  0  0  0
   -2.4440   -0.2070    2.8340 H   0  0  0  0  0  0  0  0  0  0  0  0
   -1.5260   -1.6280    3.2860 H   0  0  0  0  0  0  0  0  0  0  0  0
   -3.9100   -1.9570    2.8870 H   0  0  0  0  0  0  0  0  0  0  0  0
   -2.9680   -3.0750    1.9420 H   0  0  0  0  0  0  0  0  0  0  0  0
   -3.4660   -1.6380   -0.1220 H   0  0  0  0  0  0  0  0  0  0  0  0
   -4.8510   -2.2570    0.7840 H   0  0  0  0  0  0  0  0  0  0  0  0
   -4.3190    0.4440    0.2920 H   0  0  0  0  0  0  0  0  0  0  0  0
   -4.4030    0.1270    2.0150 H   0  0  0  0  0  0  0  0  0  0  0  0
   -1.1000   -3.9890    0.1530 N   0  0  0  0  0  0  0  0  0  0  0  0
   -1.5390   -4.9180   -0.8760 C   0  0  1  0  0  0  0  0  0  0  0  0
   -0.8630   -6.2650   -0.7270 C   0  0  0  0  0  0  0  0  0  0  0  0
   -1.4570   -7.3750   -2.0530 S   0  0  0  0  0  0  0  0  0  0  0  0
   -2.9760   -5.1470   -0.8260 C   0  0  0  0  0  0  0  0  0  0  0  0
   -3.7940   -4.6550   -0.0390 O   0  0  0  0  0  0  0  0  0  0  0  0
   -3.5030   -6.0350   -1.7900 O   0  0  0  0  0  0  0  0  0  0  0  0
   -1.2410   -4.3030    1.1340 H   0  0  0  0  0  0  0  0  0  0  0  0
   -1.2670   -4.4810   -1.8630 H   0  0  0  0  0  0  0  0  0  0  0  0
   -1.1020   -6.7570    0.2180 H   0  0  0  0  0  0  0  0  0  0  0  0
    0.2170   -6.1410   -0.8680 H   0  0  0  0  0  0  0  0  0  0  0  0
   -0.9290   -8.6590   -1.9080 H   0  0  0  0  0  0  0  0  0  0  0  0
  1 16  1  0  0  0  0
  1  2  1  0  0  0  0
  2 17  1  6  0  0  0
  2 13  1  0  0  0  0
  2  3  1  0  0  0  0
  3 19  1  0  0  0  0
  3  4  1  0  0  0  0
  4  5  2  0  0  0  0
  5  6  1  0  0  0  0
  5 20  1  0  0  0  0
  6 21  1  0  0  0  0
  7  6  1  0  0  0  0
  8  7  1  0  0  0  0
  8 22  1  0  0  0  0
  9  8  2  0  0  0  0
 10 11  2  0  0  0  0
 10  9  1  0  0  0  0
 11 12  1  0  0  0  0
 12  4  1  0  0  0  0
 12  7  2  0  0  0  0
 13 14  2  0  0  0  0
 15  1  1  0  0  0  0
 18  3  1  0  0  0  0
 23  9  1  0  0  0  0
 24 10  1  0  0  0  0
 25 11  1  0  0  0  0
 26 13  1  0  0  0  0
 26 27  1  0  0  0  0
 27 28  1  0  0  0  0
 27 36  1  1  0  0  0
 28 38  1  0  0  0  0
 28 29  1  0  0  0  0
 29 39  1  0  0  0  0
 29 40  1  0  0  0  0
 30 29  1  0  0  0  0
 30 41  1  0  0  0  0
 31 32  1  0  0  0  0
 31 30  1  0  0  0  0
 32 46  1  0  0  0  0
 33 47  1  0  0  0  0
 33 27  1  0  0  0  0
 34 33  2  0  0  0  0
 35 26  1  0  0  0  0
 37 28  1  0  0  0  0
 42 30  1  0  0  0  0
 43 31  1  0  0  0  0
 44 31  1  0  0  0  0
 45 32  1  0  0  0  0
 47 54  1  0  0  0  0
 48 55  1  6  0  0  0
 48 51  1  0  0  0  0
 48 49  1  0  0  0  0
 48 47  1  0  0  0  0
 49 56  1  0  0  0  0
 50 58  1  0  0  0  0
 50 49  1  0  0  0  0
 51 52  1  0  0  0  0
 53 51  2  0  0  0  0
 57 49  1  0  0  0  0
M  END
$$$$
