WKG.pdb
 OpenBabel07022419173D

 54 55  0  0  1  0  0  0  0  0999 V2000
   -0.2410    1.5640   -1.3320 N   0  0  0  0  0  0  0  0  0  0  0  0
    0.8790    1.0410   -0.5570 C   0  0  1  0  0  0  0  0  0  0  0  0
    1.4500    2.2070    0.2120 C   0  0  0  0  0  0  0  0  0  0  0  0
    2.5960    1.8700    1.0550 C   0  0  0  0  0  0  0  0  0  0  0  0
    2.6420    1.7120    2.4200 C   0  0  0  0  0  0  0  0  0  0  0  0
    3.8960    1.4050    2.7860 N   0  0  0  0  0  0  0  0  0  0  0  0
    4.6590    1.3620    1.6880 C   0  0  0  0  0  0  0  0  0  0  0  0
    6.0220    1.0880    1.5430 C   0  0  0  0  0  0  0  0  0  0  0  0
    6.5820    1.1050    0.2920 C   0  0  0  0  0  0  0  0  0  0  0  0
    5.8220    1.3880   -0.8180 C   0  0  0  0  0  0  0  0  0  0  0  0
    4.4800    1.6550   -0.6530 C   0  0  0  0  0  0  0  0  0  0  0  0
    3.8740    1.6480    0.5970 C   0  0  0  0  0  0  0  0  0  0  0  0
    0.4640   -0.0730    0.3180 C   0  0  0  0  0  0  0  0  0  0  0  0
    1.2810   -0.6330    1.0650 O   0  0  0  0  0  0  0  0  0  0  0  0
    0.1090    2.3190   -1.9620 H   0  0  0  0  0  0  0  0  0  0  0  0
   -0.9720    1.9740   -0.7330 H   0  0  0  0  0  0  0  0  0  0  0  0
    1.6530    0.6880   -1.2700 H   0  0  0  0  0  0  0  0  0  0  0  0
    0.6460    2.6900    0.8430 H   0  0  0  0  0  0  0  0  0  0  0  0
    1.7440    2.9990   -0.5090 H   0  0  0  0  0  0  0  0  0  0  0  0
    1.7830    1.8250    3.0670 H   0  0  0  0  0  0  0  0  0  0  0  0
    4.1820    1.2380    3.7700 H   0  0  0  0  0  0  0  0  0  0  0  0
    6.5870    0.8730    2.4250 H   0  0  0  0  0  0  0  0  0  0  0  0
    7.6250    0.8980    0.1580 H   0  0  0  0  0  0  0  0  0  0  0  0
    6.2800    1.3970   -1.7990 H   0  0  0  0  0  0  0  0  0  0  0  0
    3.8530    1.8810   -1.5070 H   0  0  0  0  0  0  0  0  0  0  0  0
   -0.8870   -0.5380    0.3290 N   0  0  0  0  0  0  0  0  0  0  0  0
   -1.3960   -1.6090    1.1370 C   0  0  1  0  0  0  0  0  0  0  0  0
   -2.3990   -1.2280    2.1480 C   0  0  0  0  0  0  0  0  0  0  0  0
   -3.6560   -0.5820    1.8230 C   0  0  0  0  0  0  0  0  0  0  0  0
   -4.7200   -1.1450    1.0040 C   0  0  0  0  0  0  0  0  0  0  0  0
   -4.5190   -1.4750   -0.4240 C   0  0  0  0  0  0  0  0  0  0  0  0
   -4.1130   -0.3240   -1.2240 N   0  0  0  0  0  0  0  0  0  0  0  0
   -1.6390   -2.8670    0.4010 C   0  0  0  0  0  0  0  0  0  0  0  0
   -1.3700   -2.9070   -0.8520 O   0  0  0  0  0  0  0  0  0  0  0  0
   -1.5240   -0.0280   -0.3190 H   0  0  0  0  0  0  0  0  0  0  0  0
   -0.4220   -1.9100    1.7390 H   0  0  0  0  0  0  0  0  0  0  0  0
   -1.8390   -0.5600    2.9070 H   0  0  0  0  0  0  0  0  0  0  0  0
   -2.6350   -2.1110    2.8440 H   0  0  0  0  0  0  0  0  0  0  0  0
   -3.5000    0.4950    1.4590 H   0  0  0  0  0  0  0  0  0  0  0  0
   -4.1560   -0.3460    2.8450 H   0  0  0  0  0  0  0  0  0  0  0  0
   -5.2520   -2.0180    1.4990 H   0  0  0  0  0  0  0  0  0  0  0  0
   -5.5750   -0.3710    1.0020 H   0  0  0  0  0  0  0  0  0  0  0  0
   -5.6080   -1.6370   -0.8230 H   0  0  0  0  0  0  0  0  0  0  0  0
   -4.0560   -2.4110   -0.6910 H   0  0  0  0  0  0  0  0  0  0  0  0
   -3.8300   -0.6110   -2.1660 H   0  0  0  0  0  0  0  0  0  0  0  0
   -4.8360    0.4080   -1.1690 H   0  0  0  0  0  0  0  0  0  0  0  0
   -2.1480   -4.0400    0.9700 N   0  0  0  0  0  0  0  0  0  0  0  0
   -2.3690   -5.2510    0.2080 C   0  0  0  0  0  0  0  0  0  0  0  0
   -1.0960   -5.7040   -0.3630 C   0  0  0  0  0  0  0  0  0  0  0  0
   -1.0870   -6.7530   -1.0710 O   0  0  0  0  0  0  0  0  0  0  0  0
    0.0670   -4.9900   -0.1250 O   0  0  0  0  0  0  0  0  0  0  0  0
   -2.3770   -4.0480    1.9700 H   0  0  0  0  0  0  0  0  0  0  0  0
   -2.8300   -6.0260    0.8690 H   0  0  0  0  0  0  0  0  0  0  0  0
   -3.1360   -5.0340   -0.5660 H   0  0  0  0  0  0  0  0  0  0  0  0
  1 16  1  0  0  0  0
  1  2  1  0  0  0  0
  2 17  1  6  0  0  0
  2  3  1  0  0  0  0
  2 13  1  0  0  0  0
  3 18  1  0  0  0  0
  3  4  1  0  0  0  0
  4  5  2  0  0  0  0
  5  6  1  0  0  0  0
  5 20  1  0  0  0  0
  6 21  1  0  0  0  0
  7  6  1  0  0  0  0
  8  7  1  0  0  0  0
  8 22  1  0  0  0  0
  9  8  2  0  0  0  0
 10 11  2  0  0  0  0
 10  9  1  0  0  0  0
 11 12  1  0  0  0  0
 12  4  1  0  0  0  0
 12  7  2  0  0  0  0
 13 26  1  0  0  0  0
 13 14  2  0  0  0  0
 15  1  1  0  0  0  0
 19  3  1  0  0  0  0
 23  9  1  0  0  0  0
 24 10  1  0  0  0  0
 25 11  1  0  0  0  0
 26 27  1  0  0  0  0
 27 36  1  1  0  0  0
 27 28  1  0  0  0  0
 28 38  1  0  0  0  0
 28 37  1  0  0  0  0
 29 28  1  0  0  0  0
 29 40  1  0  0  0  0
 30 41  1  0  0  0  0
 30 29  1  0  0  0  0
 31 30  1  0  0  0  0
 32 46  1  0  0  0  0
 32 31  1  0  0  0  0
 33 47  1  0  0  0  0
 33 27  1  0  0  0  0
 34 33  2  0  0  0  0
 35 26  1  0  0  0  0
 39 29  1  0  0  0  0
 42 30  1  0  0  0  0
 43 31  1  0  0  0  0
 44 31  1  0  0  0  0
 45 32  1  0  0  0  0
 47 52  1  0  0  0  0
 48 53  1  0  0  0  0
 48 47  1  0  0  0  0
 49 51  1  0  0  0  0
 49 48  1  0  0  0  0
 50 49  2  0  0  0  0
 54 48  1  0  0  0  0
M  END
$$$$
