WKK.pdb
 OpenBabel07022419173D

 68 69  0  0  1  0  0  0  0  0999 V2000
    3.1640   -0.8810    2.8920 N   0  0  0  0  0  0  0  0  0  0  0  0
    1.8840   -0.2590    3.0780 C   0  0  1  0  0  0  0  0  0  0  0  0
    1.8900    1.1850    2.7400 C   0  0  0  0  0  0  0  0  0  0  0  0
    2.8590    1.9300    3.5750 C   0  0  0  0  0  0  0  0  0  0  0  0
    2.5430    2.6520    4.7260 C   0  0  0  0  0  0  0  0  0  0  0  0
    3.6720    3.1800    5.2380 N   0  0  0  0  0  0  0  0  0  0  0  0
    4.7380    2.8470    4.4820 C   0  0  0  0  0  0  0  0  0  0  0  0
    6.0890    3.1350    4.5620 C   0  0  0  0  0  0  0  0  0  0  0  0
    6.9870    2.6710    3.6270 C   0  0  0  0  0  0  0  0  0  0  0  0
    6.4790    1.9040    2.6020 C   0  0  0  0  0  0  0  0  0  0  0  0
    5.1270    1.6110    2.5140 C   0  0  0  0  0  0  0  0  0  0  0  0
    4.2230    2.0700    3.4470 C   0  0  0  0  0  0  0  0  0  0  0  0
    0.9070   -1.0290    2.2190 C   0  0  0  0  0  0  0  0  0  0  0  0
    1.2300   -2.1180    1.7020 O   0  0  0  0  0  0  0  0  0  0  0  0
    3.3970   -1.6360    3.5550 H   0  0  0  0  0  0  0  0  0  0  0  0
    3.3690   -1.1290    1.8970 H   0  0  0  0  0  0  0  0  0  0  0  0
    1.6290   -0.3990    4.1550 H   0  0  0  0  0  0  0  0  0  0  0  0
    0.8680    1.5900    3.0160 H   0  0  0  0  0  0  0  0  0  0  0  0
    2.0650    1.3950    1.6650 H   0  0  0  0  0  0  0  0  0  0  0  0
    1.5350    2.7630    5.1370 H   0  0  0  0  0  0  0  0  0  0  0  0
    3.7650    3.7700    6.0940 H   0  0  0  0  0  0  0  0  0  0  0  0
    6.4850    3.7420    5.3690 H   0  0  0  0  0  0  0  0  0  0  0  0
    8.0480    2.9000    3.6930 H   0  0  0  0  0  0  0  0  0  0  0  0
    7.1230    1.5060    1.8260 H   0  0  0  0  0  0  0  0  0  0  0  0
    4.7400    1.0050    1.6850 H   0  0  0  0  0  0  0  0  0  0  0  0
   -0.3960   -0.5340    1.9800 N   0  0  0  0  0  0  0  0  0  0  0  0
   -1.3980   -1.2430    1.1510 C   0  0  1  0  0  0  0  0  0  0  0  0
   -2.6560   -1.4030    1.9230 C   0  0  0  0  0  0  0  0  0  0  0  0
   -3.7180   -2.0900    1.1430 C   0  0  0  0  0  0  0  0  0  0  0  0
   -4.9980   -2.3040    1.9450 C   0  0  0  0  0  0  0  0  0  0  0  0
   -5.9480   -3.0180    0.9680 C   0  0  0  0  0  0  0  0  0  0  0  0
   -6.1490   -2.1610   -0.1720 N   0  0  0  0  0  0  0  0  0  0  0  0
   -1.4720   -0.6490   -0.1830 C   0  0  0  0  0  0  0  0  0  0  0  0
   -0.8700    0.4840   -0.3170 O   0  0  0  0  0  0  0  0  0  0  0  0
   -0.6550    0.3730    2.4160 H   0  0  0  0  0  0  0  0  0  0  0  0
   -0.9400   -2.2580    1.0000 H   0  0  0  0  0  0  0  0  0  0  0  0
   -2.4310   -2.0010    2.8470 H   0  0  0  0  0  0  0  0  0  0  0  0
   -3.0170   -0.4200    2.3550 H   0  0  0  0  0  0  0  0  0  0  0  0
   -3.3350   -3.0240    0.7230 H   0  0  0  0  0  0  0  0  0  0  0  0
   -3.9850   -1.3990    0.2850 H   0  0  0  0  0  0  0  0  0  0  0  0
   -5.4340   -1.3680    2.2850 H   0  0  0  0  0  0  0  0  0  0  0  0
   -4.7840   -3.0410    2.7390 H   0  0  0  0  0  0  0  0  0  0  0  0
   -6.8690   -3.3510    1.4580 H   0  0  0  0  0  0  0  0  0  0  0  0
   -5.3980   -3.9250    0.6280 H   0  0  0  0  0  0  0  0  0  0  0  0
   -7.1330   -2.0540   -0.4710 H   0  0  0  0  0  0  0  0  0  0  0  0
   -5.4720   -2.3320   -0.9420 H   0  0  0  0  0  0  0  0  0  0  0  0
   -2.0930   -1.1310   -1.3300 N   0  0  0  0  0  0  0  0  0  0  0  0
   -2.0740   -0.4280   -2.6160 C   0  0  1  0  0  0  0  0  0  0  0  0
   -2.2530   -1.3170   -3.7840 C   0  0  0  0  0  0  0  0  0  0  0  0
   -1.2690   -2.4060   -3.9790 C   0  0  0  0  0  0  0  0  0  0  0  0
    0.1540   -2.0070   -4.1520 C   0  0  0  0  0  0  0  0  0  0  0  0
    0.9450   -3.3150   -4.3350 C   0  0  0  0  0  0  0  0  0  0  0  0
    0.3980   -3.9640   -5.5150 N   0  0  0  0  0  0  0  0  0  0  0  0
   -3.2980    0.4710   -2.5950 C   0  0  0  0  0  0  0  0  0  0  0  0
   -4.0840    0.5280   -1.6260 O   0  0  0  0  0  0  0  0  0  0  0  0
   -3.5920    1.2840   -3.6830 O   0  0  0  0  0  0  0  0  0  0  0  0
   -2.5700   -2.0560   -1.2930 H   0  0  0  0  0  0  0  0  0  0  0  0
   -1.2420    0.2800   -2.6260 H   0  0  0  0  0  0  0  0  0  0  0  0
   -3.2580   -1.8230   -3.6570 H   0  0  0  0  0  0  0  0  0  0  0  0
   -2.3120   -0.6780   -4.6920 H   0  0  0  0  0  0  0  0  0  0  0  0
   -1.5700   -2.9260   -4.9420 H   0  0  0  0  0  0  0  0  0  0  0  0
   -1.4000   -3.2210   -3.2140 H   0  0  0  0  0  0  0  0  0  0  0  0
    0.3340   -1.4280   -5.0800 H   0  0  0  0  0  0  0  0  0  0  0  0
    0.6330   -1.4960   -3.3180 H   0  0  0  0  0  0  0  0  0  0  0  0
    0.8970   -3.9500   -3.4440 H   0  0  0  0  0  0  0  0  0  0  0  0
    1.9890   -3.0040   -4.5390 H   0  0  0  0  0  0  0  0  0  0  0  0
    0.9940   -4.8070   -5.7230 H   0  0  0  0  0  0  0  0  0  0  0  0
    0.5350   -3.2860   -6.3120 H   0  0  0  0  0  0  0  0  0  0  0  0
  1  2  1  0  0  0  0
  1 15  1  0  0  0  0
  2 17  1  1  0  0  0
  3 18  1  0  0  0  0
  3  2  1  0  0  0  0
  3  4  1  0  0  0  0
  4  5  2  0  0  0  0
  5 20  1  0  0  0  0
  5  6  1  0  0  0  0
  6 21  1  0  0  0  0
  7  8  1  0  0  0  0
  7  6  1  0  0  0  0
  8 22  1  0  0  0  0
  9 23  1  0  0  0  0
  9  8  2  0  0  0  0
 10  9  1  0  0  0  0
 11 10  2  0  0  0  0
 11 12  1  0  0  0  0
 12  4  1  0  0  0  0
 12  7  2  0  0  0  0
 13  2  1  0  0  0  0
 14 13  2  0  0  0  0
 16  1  1  0  0  0  0
 19  3  1  0  0  0  0
 24 10  1  0  0  0  0
 25 11  1  0  0  0  0
 26 13  1  0  0  0  0
 26 35  1  0  0  0  0
 27 36  1  6  0  0  0
 27 28  1  0  0  0  0
 27 26  1  0  0  0  0
 28 38  1  0  0  0  0
 28 37  1  0  0  0  0
 29 28  1  0  0  0  0
 29 30  1  0  0  0  0
 30 41  1  0  0  0  0
 30 42  1  0  0  0  0
 31 43  1  0  0  0  0
 31 30  1  0  0  0  0
 32 31  1  0  0  0  0
 33 27  1  0  0  0  0
 34 33  2  0  0  0  0
 39 29  1  0  0  0  0
 40 29  1  0  0  0  0
 44 31  1  0  0  0  0
 45 32  1  0  0  0  0
 46 32  1  0  0  0  0
 47 57  1  0  0  0  0
 47 33  1  0  0  0  0
 48 58  1  6  0  0  0
 48 54  1  0  0  0  0
 48 47  1  0  0  0  0
 49 59  1  0  0  0  0
 49 48  1  0  0  0  0
 50 49  1  0  0  0  0
 50 62  1  0  0  0  0
 51 50  1  0  0  0  0
 51 64  1  0  0  0  0
 52 51  1  0  0  0  0
 52 65  1  0  0  0  0
 53 52  1  0  0  0  0
 54 55  1  0  0  0  0
 56 54  2  0  0  0  0
 60 49  1  0  0  0  0
 61 50  1  0  0  0  0
 63 51  1  0  0  0  0
 66 52  1  0  0  0  0
 67 53  1  0  0  0  0
 68 53  1  0  0  0  0
M  END
$$$$
