WKN.pdb
 OpenBabel07022419173D

 61 62  0  0  1  0  0  0  0  0999 V2000
    0.4580    2.0460    3.5170 N   0  0  0  0  0  0  0  0  0  0  0  0
    0.4410    1.3970    2.2420 C   0  0  1  0  0  0  0  0  0  0  0  0
    1.4530    0.2720    2.2430 C   0  0  0  0  0  0  0  0  0  0  0  0
    2.7900    0.8940    2.5110 C   0  0  0  0  0  0  0  0  0  0  0  0
    3.5040    0.8660    3.6980 C   0  0  0  0  0  0  0  0  0  0  0  0
    4.6680    1.5440    3.5310 N   0  0  0  0  0  0  0  0  0  0  0  0
    4.7440    2.0180    2.2750 C   0  0  0  0  0  0  0  0  0  0  0  0
    5.7230    2.7610    1.6360 C   0  0  0  0  0  0  0  0  0  0  0  0
    5.5140    3.1040    0.3160 C   0  0  0  0  0  0  0  0  0  0  0  0
    4.3650    2.7170   -0.3420 C   0  0  0  0  0  0  0  0  0  0  0  0
    3.4040    1.9750    0.3250 C   0  0  0  0  0  0  0  0  0  0  0  0
    3.5780    1.6140    1.6400 C   0  0  0  0  0  0  0  0  0  0  0  0
   -0.9150    0.9110    1.8740 C   0  0  0  0  0  0  0  0  0  0  0  0
   -1.8440    1.1330    2.6750 O   0  0  0  0  0  0  0  0  0  0  0  0
   -0.4000    1.9520    4.0720 H   0  0  0  0  0  0  0  0  0  0  0  0
    0.8220    3.0100    3.5000 H   0  0  0  0  0  0  0  0  0  0  0  0
    0.8000    2.1390    1.4890 H   0  0  0  0  0  0  0  0  0  0  0  0
    1.5300   -0.2240    1.2660 H   0  0  0  0  0  0  0  0  0  0  0  0
    1.2530   -0.4540    3.0690 H   0  0  0  0  0  0  0  0  0  0  0  0
    3.1690    0.3720    4.6130 H   0  0  0  0  0  0  0  0  0  0  0  0
    5.4170    1.7000    4.2400 H   0  0  0  0  0  0  0  0  0  0  0  0
    6.6280    3.0740    2.1270 H   0  0  0  0  0  0  0  0  0  0  0  0
    6.2490    3.6930   -0.2540 H   0  0  0  0  0  0  0  0  0  0  0  0
    4.1730    2.9710   -1.3740 H   0  0  0  0  0  0  0  0  0  0  0  0
    2.4860    1.6530   -0.1630 H   0  0  0  0  0  0  0  0  0  0  0  0
   -1.1820    0.2230    0.6820 N   0  0  0  0  0  0  0  0  0  0  0  0
   -2.5680   -0.2580    0.3370 C   0  0  1  0  0  0  0  0  0  0  0  0
   -2.9040    0.4780   -0.8690 C   0  0  0  0  0  0  0  0  0  0  0  0
   -4.1390    0.4010   -1.6190 C   0  0  0  0  0  0  0  0  0  0  0  0
   -4.5900   -0.8370   -2.2950 C   0  0  0  0  0  0  0  0  0  0  0  0
   -3.5970   -1.3090   -3.3360 C   0  0  0  0  0  0  0  0  0  0  0  0
   -2.2940   -1.6160   -2.8140 N   0  0  0  0  0  0  0  0  0  0  0  0
   -2.5410   -1.6890    0.4260 C   0  0  0  0  0  0  0  0  0  0  0  0
   -3.5490   -2.4100    0.3250 O   0  0  0  0  0  0  0  0  0  0  0  0
   -0.4020    0.0410    0.0180 H   0  0  0  0  0  0  0  0  0  0  0  0
   -3.1780    0.1130    1.2230 H   0  0  0  0  0  0  0  0  0  0  0  0
   -2.7760    1.6010   -0.6000 H   0  0  0  0  0  0  0  0  0  0  0  0
   -2.0510    0.4020   -1.6450 H   0  0  0  0  0  0  0  0  0  0  0  0
   -4.0230    1.1610   -2.4810 H   0  0  0  0  0  0  0  0  0  0  0  0
   -5.0200    0.9050   -1.0740 H   0  0  0  0  0  0  0  0  0  0  0  0
   -4.8990   -1.6830   -1.6990 H   0  0  0  0  0  0  0  0  0  0  0  0
   -5.5200   -0.5200   -2.9160 H   0  0  0  0  0  0  0  0  0  0  0  0
   -3.9860   -2.1820   -3.9040 H   0  0  0  0  0  0  0  0  0  0  0  0
   -3.4530   -0.5060   -4.1010 H   0  0  0  0  0  0  0  0  0  0  0  0
   -2.2400   -2.6370   -2.5540 H   0  0  0  0  0  0  0  0  0  0  0  0
   -1.5260   -1.4240   -3.4900 H   0  0  0  0  0  0  0  0  0  0  0  0
   -1.3410   -6.6520   -0.9410 N   0  0  0  0  0  0  0  0  0  0  0  0
   -0.3860   -5.8780   -0.2460 C   0  0  0  0  0  0  0  0  0  0  0  0
    0.4790   -6.4500    0.4430 O   0  0  0  0  0  0  0  0  0  0  0  0
   -0.4170   -4.4140   -0.3400 C   0  0  0  0  0  0  0  0  0  0  0  0
   -1.2740   -3.8470    0.7370 C   0  0  2  0  0  0  0  0  0  0  0  0
   -1.3120   -2.3820    0.6440 N   0  0  0  0  0  0  0  0  0  0  0  0
   -0.8740   -4.2640    2.1000 C   0  0  0  0  0  0  0  0  0  0  0  0
   -0.7890   -5.4560    2.4690 O   0  0  0  0  0  0  0  0  0  0  0  0
   -0.5620   -3.2920    3.0700 O   0  0  0  0  0  0  0  0  0  0  0  0
   -1.0250   -7.3300   -1.6620 H   0  0  0  0  0  0  0  0  0  0  0  0
   -2.3610   -6.5570   -0.7430 H   0  0  0  0  0  0  0  0  0  0  0  0
   -0.7310   -4.0520   -1.3410 H   0  0  0  0  0  0  0  0  0  0  0  0
    0.6540   -4.0690   -0.2250 H   0  0  0  0  0  0  0  0  0  0  0  0
   -2.3120   -4.1970    0.5880 H   0  0  0  0  0  0  0  0  0  0  0  0
   -0.4170   -1.8610    0.7410 H   0  0  0  0  0  0  0  0  0  0  0  0
  1 15  1  0  0  0  0
  2 17  1  6  0  0  0
  2  3  1  0  0  0  0
  2  1  1  0  0  0  0
  3  4  1  0  0  0  0
  3 19  1  0  0  0  0
  4  5  2  0  0  0  0
  5 20  1  0  0  0  0
  6  5  1  0  0  0  0
  6 21  1  0  0  0  0
  7  6  1  0  0  0  0
  8 22  1  0  0  0  0
  8  7  2  0  0  0  0
  9  8  1  0  0  0  0
 10  9  2  0  0  0  0
 10 11  1  0  0  0  0
 11 12  2  0  0  0  0
 12  7  1  0  0  0  0
 12  4  1  0  0  0  0
 13  2  1  0  0  0  0
 13 14  2  0  0  0  0
 16  1  1  0  0  0  0
 18  3  1  0  0  0  0
 23  9  1  0  0  0  0
 24 10  1  0  0  0  0
 25 11  1  0  0  0  0
 26 13  1  0  0  0  0
 27 33  1  0  0  0  0
 27 26  1  0  0  0  0
 27 36  1  1  0  0  0
 28 37  1  0  0  0  0
 28 27  1  0  0  0  0
 29 40  1  0  0  0  0
 29 28  1  0  0  0  0
 30 41  1  0  0  0  0
 30 29  1  0  0  0  0
 31 32  1  0  0  0  0
 31 30  1  0  0  0  0
 32 45  1  0  0  0  0
 33 52  1  0  0  0  0
 34 33  2  0  0  0  0
 35 26  1  0  0  0  0
 38 28  1  0  0  0  0
 39 29  1  0  0  0  0
 42 30  1  0  0  0  0
 43 31  1  0  0  0  0
 44 31  1  0  0  0  0
 46 32  1  0  0  0  0
 47 57  1  0  0  0  0
 47 48  1  0  0  0  0
 48 49  2  0  0  0  0
 50 48  1  0  0  0  0
 50 59  1  0  0  0  0
 50 51  1  0  0  0  0
 51 60  1  6  0  0  0
 51 53  1  0  0  0  0
 52 51  1  0  0  0  0
 52 61  1  0  0  0  0
 53 54  2  0  0  0  0
 53 55  1  0  0  0  0
 56 47  1  0  0  0  0
 58 50  1  0  0  0  0
M  END
$$$$
