WKP.pdb
 OpenBabel07022419173D

 61 63  0  0  1  0  0  0  0  0999 V2000
    0.7030    3.3850   -0.0220 N   0  0  0  0  0  0  0  0  0  0  0  0
    0.1170    2.2440   -0.6800 C   0  0  1  0  0  0  0  0  0  0  0  0
    0.9730    1.6380   -1.7520 C   0  0  0  0  0  0  0  0  0  0  0  0
    2.2910    1.1530   -1.2840 C   0  0  0  0  0  0  0  0  0  0  0  0
    2.6140   -0.1570   -0.9990 C   0  0  0  0  0  0  0  0  0  0  0  0
    3.8870   -0.1990   -0.5850 N   0  0  0  0  0  0  0  0  0  0  0  0
    4.4360    1.0270   -0.5790 C   0  0  0  0  0  0  0  0  0  0  0  0
    5.6720    1.5400   -0.2590 C   0  0  0  0  0  0  0  0  0  0  0  0
    5.9890    2.8730   -0.3480 C   0  0  0  0  0  0  0  0  0  0  0  0
    4.9810    3.7090   -0.7890 C   0  0  0  0  0  0  0  0  0  0  0  0
    3.7310    3.2420   -1.1200 C   0  0  0  0  0  0  0  0  0  0  0  0
    3.4310    1.8890   -1.0210 C   0  0  0  0  0  0  0  0  0  0  0  0
   -0.3790    1.2980    0.3320 C   0  0  0  0  0  0  0  0  0  0  0  0
   -0.1500    1.5470    1.5480 O   0  0  0  0  0  0  0  0  0  0  0  0
    0.0850    4.2120    0.0250 H   0  0  0  0  0  0  0  0  0  0  0  0
    1.1670    3.1170    0.8610 H   0  0  0  0  0  0  0  0  0  0  0  0
   -0.8090    2.6530   -1.1890 H   0  0  0  0  0  0  0  0  0  0  0  0
    0.4950    0.8380   -2.3090 H   0  0  0  0  0  0  0  0  0  0  0  0
    1.1950    2.4440   -2.5130 H   0  0  0  0  0  0  0  0  0  0  0  0
    1.9720   -1.0440   -1.0840 H   0  0  0  0  0  0  0  0  0  0  0  0
    4.4370   -1.0580   -0.2890 H   0  0  0  0  0  0  0  0  0  0  0  0
    6.4310    0.8390    0.0830 H   0  0  0  0  0  0  0  0  0  0  0  0
    6.9680    3.2660   -0.0920 H   0  0  0  0  0  0  0  0  0  0  0  0
    5.1500    4.7720   -0.8880 H   0  0  0  0  0  0  0  0  0  0  0  0
    2.9570    3.9310   -1.4750 H   0  0  0  0  0  0  0  0  0  0  0  0
   -1.0950    0.1290    0.0580 N   0  0  0  0  0  0  0  0  0  0  0  0
   -1.5680   -0.7850    1.1420 C   0  0  1  0  0  0  0  0  0  0  0  0
   -3.0460   -0.7250    1.2450 C   0  0  0  0  0  0  0  0  0  0  0  0
   -3.8850   -1.1010    0.1200 C   0  0  0  0  0  0  0  0  0  0  0  0
   -3.8060   -2.4730   -0.4400 C   0  0  0  0  0  0  0  0  0  0  0  0
   -4.8210   -2.5110   -1.5980 C   0  0  0  0  0  0  0  0  0  0  0  0
   -4.5020   -1.5350   -2.6140 N   0  0  0  0  0  0  0  0  0  0  0  0
   -0.9390   -2.0940    0.9830 C   0  0  0  0  0  0  0  0  0  0  0  0
   -0.2780   -2.2590   -0.1110 O   0  0  0  0  0  0  0  0  0  0  0  0
   -1.2960   -0.0950   -0.9420 H   0  0  0  0  0  0  0  0  0  0  0  0
   -1.1520   -0.3110    2.0430 H   0  0  0  0  0  0  0  0  0  0  0  0
   -3.4060   -1.1830    2.1660 H   0  0  0  0  0  0  0  0  0  0  0  0
   -3.2480    0.3830    1.4570 H   0  0  0  0  0  0  0  0  0  0  0  0
   -3.7040   -0.3970   -0.7530 H   0  0  0  0  0  0  0  0  0  0  0  0
   -4.9740   -0.9350    0.3340 H   0  0  0  0  0  0  0  0  0  0  0  0
   -4.2080   -3.2530    0.2720 H   0  0  0  0  0  0  0  0  0  0  0  0
   -2.8610   -2.7600   -0.8890 H   0  0  0  0  0  0  0  0  0  0  0  0
   -4.8130   -3.5050   -2.0920 H   0  0  0  0  0  0  0  0  0  0  0  0
   -5.8430   -2.3350   -1.2470 H   0  0  0  0  0  0  0  0  0  0  0  0
   -4.9730   -0.6470   -2.3650 H   0  0  0  0  0  0  0  0  0  0  0  0
   -3.4700   -1.4140   -2.6650 H   0  0  0  0  0  0  0  0  0  0  0  0
   -0.9180   -3.2190    1.8120 N   0  0  0  0  0  0  0  0  0  0  0  0
   -0.2790   -4.5150    1.5520 C   0  0  0  0  0  0  0  0  0  0  0  0
   -0.0650   -5.1350    2.9170 C   0  0  0  0  0  0  0  0  0  0  0  0
   -1.3600   -4.7430    3.5990 C   0  0  0  0  0  0  0  0  0  0  0  0
   -1.5080   -3.3000    3.1210 C   0  0  1  0  0  0  0  0  0  0  0  0
   -0.7550   -2.4390    4.1050 C   0  0  0  0  0  0  0  0  0  0  0  0
   -1.1710   -2.3390    5.2850 O   0  0  0  0  0  0  0  0  0  0  0  0
    0.3880   -1.7530    3.7470 O   0  0  0  0  0  0  0  0  0  0  0  0
    0.6720   -4.3960    1.0110 H   0  0  0  0  0  0  0  0  0  0  0  0
   -1.0390   -5.1220    1.0230 H   0  0  0  0  0  0  0  0  0  0  0  0
    0.0080   -6.2360    2.8600 H   0  0  0  0  0  0  0  0  0  0  0  0
    0.7620   -4.6530    3.4690 H   0  0  0  0  0  0  0  0  0  0  0  0
   -1.2060   -4.7230    4.6880 H   0  0  0  0  0  0  0  0  0  0  0  0
   -2.2300   -5.3170    3.2700 H   0  0  0  0  0  0  0  0  0  0  0  0
   -2.5530   -3.0200    3.1420 H   0  0  0  0  0  0  0  0  0  0  0  0
  1 15  1  0  0  0  0
  1 16  1  0  0  0  0
  2 17  1  6  0  0  0
  2  1  1  0  0  0  0
  2 13  1  0  0  0  0
  3  4  1  0  0  0  0
  3  2  1  0  0  0  0
  4 12  1  0  0  0  0
  4  5  2  0  0  0  0
  5  6  1  0  0  0  0
  6  7  1  0  0  0  0
  6 21  1  0  0  0  0
  7  8  1  0  0  0  0
  8 22  1  0  0  0  0
  9  8  2  0  0  0  0
  9 23  1  0  0  0  0
 10  9  1  0  0  0  0
 11 12  1  0  0  0  0
 11 10  2  0  0  0  0
 12  7  2  0  0  0  0
 13 14  2  0  0  0  0
 18  3  1  0  0  0  0
 19  3  1  0  0  0  0
 20  5  1  0  0  0  0
 24 10  1  0  0  0  0
 25 11  1  0  0  0  0
 26 13  1  0  0  0  0
 26 27  1  0  0  0  0
 27 28  1  0  0  0  0
 27 36  1  1  0  0  0
 28 38  1  0  0  0  0
 28 37  1  0  0  0  0
 29 40  1  0  0  0  0
 29 28  1  0  0  0  0
 30 29  1  0  0  0  0
 30 41  1  0  0  0  0
 31 44  1  0  0  0  0
 31 30  1  0  0  0  0
 32 45  1  0  0  0  0
 32 31  1  0  0  0  0
 33 27  1  0  0  0  0
 33 47  1  0  0  0  0
 34 33  2  0  0  0  0
 35 26  1  0  0  0  0
 39 29  1  0  0  0  0
 42 30  1  0  0  0  0
 43 31  1  0  0  0  0
 46 32  1  0  0  0  0
 47 51  1  0  0  0  0
 48 47  1  0  0  0  0
 48 49  1  0  0  0  0
 49 58  1  0  0  0  0
 49 50  1  0  0  0  0
 50 59  1  0  0  0  0
 51 61  1  6  0  0  0
 51 50  1  0  0  0  0
 51 52  1  0  0  0  0
 52 53  1  0  0  0  0
 54 52  2  0  0  0  0
 55 48  1  0  0  0  0
 56 48  1  0  0  0  0
 57 49  1  0  0  0  0
 60 50  1  0  0  0  0
M  END
$$$$
