WKR.pdb
 OpenBabel07022419173D

 70 71  0  0  1  0  0  0  0  0999 V2000
   -1.1600    0.7010    3.3290 N   0  0  0  0  0  0  0  0  0  0  0  0
    0.2720    0.5260    2.9850 C   0  0  1  0  0  0  0  0  0  0  0  0
    0.8310   -0.3140    4.0860 C   0  0  0  0  0  0  0  0  0  0  0  0
    2.2490   -0.6300    3.9450 C   0  0  0  0  0  0  0  0  0  0  0  0
    3.2750    0.1420    4.4760 C   0  0  0  0  0  0  0  0  0  0  0  0
    4.4710   -0.4100    4.1340 N   0  0  0  0  0  0  0  0  0  0  0  0
    4.2030   -1.5110    3.4000 C   0  0  0  0  0  0  0  0  0  0  0  0
    5.0370   -2.4620    2.8110 C   0  0  0  0  0  0  0  0  0  0  0  0
    4.5740   -3.5440    2.1120 C   0  0  0  0  0  0  0  0  0  0  0  0
    3.2060   -3.6820    1.9950 C   0  0  0  0  0  0  0  0  0  0  0  0
    2.3650   -2.7690    2.5570 C   0  0  0  0  0  0  0  0  0  0  0  0
    2.8310   -1.6720    3.2660 C   0  0  0  0  0  0  0  0  0  0  0  0
    0.3320   -0.1530    1.6840 C   0  0  0  0  0  0  0  0  0  0  0  0
    1.3780   -0.2850    0.9920 O   0  0  0  0  0  0  0  0  0  0  0  0
   -1.6720    1.1780    2.5780 H   0  0  0  0  0  0  0  0  0  0  0  0
   -1.1820    1.1670    4.2610 H   0  0  0  0  0  0  0  0  0  0  0  0
    0.7630    1.5290    2.9650 H   0  0  0  0  0  0  0  0  0  0  0  0
    0.6570    0.1460    5.0920 H   0  0  0  0  0  0  0  0  0  0  0  0
    0.2860   -1.3160    4.0520 H   0  0  0  0  0  0  0  0  0  0  0  0
    3.2140    1.0440    5.0740 H   0  0  0  0  0  0  0  0  0  0  0  0
    5.4170   -0.0640    4.3800 H   0  0  0  0  0  0  0  0  0  0  0  0
    6.0940   -2.2920    2.9410 H   0  0  0  0  0  0  0  0  0  0  0  0
    5.2420   -4.2610    1.6690 H   0  0  0  0  0  0  0  0  0  0  0  0
    2.8520   -4.5500    1.4340 H   0  0  0  0  0  0  0  0  0  0  0  0
    1.2970   -2.8600    2.4760 H   0  0  0  0  0  0  0  0  0  0  0  0
   -0.8440   -0.7340    1.0830 N   0  0  0  0  0  0  0  0  0  0  0  0
   -0.8430   -1.4060   -0.1930 C   0  0  1  0  0  0  0  0  0  0  0  0
   -1.3440   -2.8080   -0.0160 C   0  0  0  0  0  0  0  0  0  0  0  0
   -2.7610   -2.7920    0.5320 C   0  0  0  0  0  0  0  0  0  0  0  0
   -3.2750   -4.2190    0.7120 C   0  0  0  0  0  0  0  0  0  0  0  0
   -2.3850   -4.9780    1.6850 C   0  0  0  0  0  0  0  0  0  0  0  0
   -2.3640   -4.3310    2.9800 N   0  0  0  0  0  0  0  0  0  0  0  0
   -1.7260   -0.7120   -1.1780 C   0  0  0  0  0  0  0  0  0  0  0  0
   -1.8880   -1.2470   -2.2940 O   0  0  0  0  0  0  0  0  0  0  0  0
   -1.7150   -0.6330    1.6420 H   0  0  0  0  0  0  0  0  0  0  0  0
    0.2060   -1.4830   -0.6060 H   0  0  0  0  0  0  0  0  0  0  0  0
   -0.7240   -3.2550    0.8170 H   0  0  0  0  0  0  0  0  0  0  0  0
   -1.2780   -3.4190   -0.9320 H   0  0  0  0  0  0  0  0  0  0  0  0
   -3.4440   -2.2740   -0.1520 H   0  0  0  0  0  0  0  0  0  0  0  0
   -2.8050   -2.3450    1.5370 H   0  0  0  0  0  0  0  0  0  0  0  0
   -3.3950   -4.7380   -0.2390 H   0  0  0  0  0  0  0  0  0  0  0  0
   -4.2730   -4.1590    1.1800 H   0  0  0  0  0  0  0  0  0  0  0  0
   -1.3890   -5.1330    1.2500 H   0  0  0  0  0  0  0  0  0  0  0  0
   -2.8670   -5.9870    1.8300 H   0  0  0  0  0  0  0  0  0  0  0  0
   -2.9630   -4.8530    3.6860 H   0  0  0  0  0  0  0  0  0  0  0  0
   -1.4020   -4.3400    3.4120 H   0  0  0  0  0  0  0  0  0  0  0  0
    2.4160    1.7900   -4.9550 N   0  0  0  0  0  0  0  0  0  0  0  0
    1.5060    2.3890   -4.0490 C   0  0  0  0  0  0  0  0  0  0  0  0
    1.7470    2.3850   -2.7840 N   0  0  0  0  0  0  0  0  0  0  0  0
    0.3470    2.9840   -4.6080 N   0  0  0  0  0  0  0  0  0  0  0  0
   -0.7570    3.3190   -3.7180 C   0  0  0  0  0  0  0  0  0  0  0  0
   -1.3970    2.0580   -3.1770 C   0  0  0  0  0  0  0  0  0  0  0  0
   -2.5420    2.4750   -2.2710 C   0  0  0  0  0  0  0  0  0  0  0  0
   -3.2410    1.2940   -1.6810 C   0  0  2  0  0  0  0  0  0  0  0  0
   -2.3720    0.5100   -0.8970 N   0  0  0  0  0  0  0  0  0  0  0  0
   -4.1000    0.5920   -2.6620 C   0  0  0  0  0  0  0  0  0  0  0  0
   -4.8030    1.3130   -3.4620 O   0  0  0  0  0  0  0  0  0  0  0  0
   -4.2360   -0.7550   -2.8150 O   0  0  0  0  0  0  0  0  0  0  0  0
    3.2840    2.2980   -5.2120 H   0  0  0  0  0  0  0  0  0  0  0  0
    2.2620    0.8590   -5.3800 H   0  0  0  0  0  0  0  0  0  0  0  0
    2.6270    1.9320   -2.4380 H   0  0  0  0  0  0  0  0  0  0  0  0
    0.2410    3.1960   -5.6190 H   0  0  0  0  0  0  0  0  0  0  0  0
   -0.3120    3.9100   -2.8880 H   0  0  0  0  0  0  0  0  0  0  0  0
   -1.4880    3.9920   -4.2110 H   0  0  0  0  0  0  0  0  0  0  0  0
   -0.6100    1.5000   -2.6530 H   0  0  0  0  0  0  0  0  0  0  0  0
   -1.7660    1.4090   -4.0000 H   0  0  0  0  0  0  0  0  0  0  0  0
   -2.1070    3.1530   -1.5120 H   0  0  0  0  0  0  0  0  0  0  0  0
   -3.2580    3.0370   -2.9150 H   0  0  0  0  0  0  0  0  0  0  0  0
   -4.0330    1.6950   -0.9420 H   0  0  0  0  0  0  0  0  0  0  0  0
   -2.1480    0.8830    0.0800 H   0  0  0  0  0  0  0  0  0  0  0  0
  1 16  1  0  0  0  0
  2 17  1  6  0  0  0
  2  1  1  0  0  0  0
  2  3  1  0  0  0  0
  3 18  1  0  0  0  0
  4  3  1  0  0  0  0
  4  5  2  0  0  0  0
  5 20  1  0  0  0  0
  6 21  1  0  0  0  0
  6  5  1  0  0  0  0
  7  6  1  0  0  0  0
  8 22  1  0  0  0  0
  8  7  2  0  0  0  0
  9  8  1  0  0  0  0
 10  9  2  0  0  0  0
 10 11  1  0  0  0  0
 11 12  2  0  0  0  0
 12  7  1  0  0  0  0
 12  4  1  0  0  0  0
 13  2  1  0  0  0  0
 14 13  2  0  0  0  0
 15  1  1  0  0  0  0
 19  3  1  0  0  0  0
 23  9  1  0  0  0  0
 24 10  1  0  0  0  0
 25 11  1  0  0  0  0
 26 35  1  0  0  0  0
 26 13  1  0  0  0  0
 27 36  1  6  0  0  0
 27 28  1  0  0  0  0
 27 26  1  0  0  0  0
 28 29  1  0  0  0  0
 28 37  1  0  0  0  0
 29 30  1  0  0  0  0
 29 40  1  0  0  0  0
 30 42  1  0  0  0  0
 30 31  1  0  0  0  0
 31 44  1  0  0  0  0
 31 32  1  0  0  0  0
 32 46  1  0  0  0  0
 32 45  1  0  0  0  0
 33 55  1  0  0  0  0
 33 27  1  0  0  0  0
 34 33  2  0  0  0  0
 38 28  1  0  0  0  0
 39 29  1  0  0  0  0
 41 30  1  0  0  0  0
 43 31  1  0  0  0  0
 47 48  1  0  0  0  0
 48 49  2  0  0  0  0
 49 61  1  0  0  0  0
 50 48  1  0  0  0  0
 50 51  1  0  0  0  0
 51 52  1  0  0  0  0
 51 63  1  0  0  0  0
 52 65  1  0  0  0  0
 52 53  1  0  0  0  0
 53 54  1  0  0  0  0
 53 67  1  0  0  0  0
 54 69  1  1  0  0  0
 54 55  1  0  0  0  0
 55 70  1  0  0  0  0
 56 54  1  0  0  0  0
 57 56  2  0  0  0  0
 58 56  1  0  0  0  0
 59 47  1  0  0  0  0
 60 47  1  0  0  0  0
 62 50  1  0  0  0  0
 64 51  1  0  0  0  0
 66 52  1  0  0  0  0
 68 53  1  0  0  0  0
M  END
$$$$
