WKT.pdb
 OpenBabel07022419173D

 61 62  0  0  1  0  0  0  0  0999 V2000
    1.4040    0.8780    1.6500 N   0  0  0  0  0  0  0  0  0  0  0  0
    0.7280    1.1810    0.3920 C   0  0  1  0  0  0  0  0  0  0  0  0
    1.6990    0.7910   -0.7600 C   0  0  0  0  0  0  0  0  0  0  0  0
    2.8950    1.6460   -0.5590 C   0  0  0  0  0  0  0  0  0  0  0  0
    4.0750    1.2400    0.0440 C   0  0  0  0  0  0  0  0  0  0  0  0
    4.9110    2.3020    0.0620 N   0  0  0  0  0  0  0  0  0  0  0  0
    4.3440    3.3860   -0.4980 C   0  0  0  0  0  0  0  0  0  0  0  0
    4.7550    4.6820   -0.7220 C   0  0  0  0  0  0  0  0  0  0  0  0
    3.9340    5.6030   -1.3320 C   0  0  0  0  0  0  0  0  0  0  0  0
    2.6710    5.1860   -1.7150 C   0  0  0  0  0  0  0  0  0  0  0  0
    2.2370    3.8870   -1.5000 C   0  0  0  0  0  0  0  0  0  0  0  0
    3.0650    2.9620   -0.8880 C   0  0  0  0  0  0  0  0  0  0  0  0
   -0.5480    0.4840    0.2200 C   0  0  0  0  0  0  0  0  0  0  0  0
   -1.5500    1.0770   -0.2570 O   0  0  0  0  0  0  0  0  0  0  0  0
    2.0040    1.6710    1.9680 H   0  0  0  0  0  0  0  0  0  0  0  0
    0.7270    0.6010    2.3940 H   0  0  0  0  0  0  0  0  0  0  0  0
    0.6180    2.2650    0.3240 H   0  0  0  0  0  0  0  0  0  0  0  0
    1.9480   -0.2830   -0.6760 H   0  0  0  0  0  0  0  0  0  0  0  0
    1.2030    1.0840   -1.6960 H   0  0  0  0  0  0  0  0  0  0  0  0
    4.2270    0.2400    0.4110 H   0  0  0  0  0  0  0  0  0  0  0  0
    5.8850    2.3000    0.4620 H   0  0  0  0  0  0  0  0  0  0  0  0
    5.7410    4.9910   -0.4160 H   0  0  0  0  0  0  0  0  0  0  0  0
    4.2340    6.6330   -1.5150 H   0  0  0  0  0  0  0  0  0  0  0  0
    1.9800    5.8600   -2.1970 H   0  0  0  0  0  0  0  0  0  0  0  0
    1.2600    3.5660   -1.8020 H   0  0  0  0  0  0  0  0  0  0  0  0
   -0.7230   -0.8860    0.5760 N   0  0  0  0  0  0  0  0  0  0  0  0
   -2.0150   -1.5190    0.3900 C   0  0  1  0  0  0  0  0  0  0  0  0
   -1.9930   -2.4090   -0.8300 C   0  0  0  0  0  0  0  0  0  0  0  0
   -3.2830   -3.0730   -1.0780 C   0  0  0  0  0  0  0  0  0  0  0  0
   -3.3050   -3.9490   -2.3030 C   0  0  0  0  0  0  0  0  0  0  0  0
   -3.0280   -3.2800   -3.5940 C   0  0  0  0  0  0  0  0  0  0  0  0
   -1.7560   -2.6600   -3.7440 N   0  0  0  0  0  0  0  0  0  0  0  0
   -2.4560   -2.1400    1.6250 C   0  0  0  0  0  0  0  0  0  0  0  0
   -3.5870   -2.6780    1.7500 O   0  0  0  0  0  0  0  0  0  0  0  0
    0.0900   -1.3940    0.9480 H   0  0  0  0  0  0  0  0  0  0  0  0
   -2.7630   -0.7180    0.1230 H   0  0  0  0  0  0  0  0  0  0  0  0
   -1.1840   -3.1370   -0.8280 H   0  0  0  0  0  0  0  0  0  0  0  0
   -1.7980   -1.6990   -1.6850 H   0  0  0  0  0  0  0  0  0  0  0  0
   -3.6510   -3.6970   -0.2260 H   0  0  0  0  0  0  0  0  0  0  0  0
   -4.1180   -2.3130   -1.2170 H   0  0  0  0  0  0  0  0  0  0  0  0
   -4.2780   -4.4910   -2.3680 H   0  0  0  0  0  0  0  0  0  0  0  0
   -2.5080   -4.7400   -2.1520 H   0  0  0  0  0  0  0  0  0  0  0  0
   -3.8290   -2.5250   -3.8460 H   0  0  0  0  0  0  0  0  0  0  0  0
   -3.1130   -4.0250   -4.4390 H   0  0  0  0  0  0  0  0  0  0  0  0
   -1.7500   -1.7040   -4.1170 H   0  0  0  0  0  0  0  0  0  0  0  0
   -0.9830   -3.2820   -4.0530 H   0  0  0  0  0  0  0  0  0  0  0  0
   -1.1860   -5.0900    3.5400 C   0  0  0  0  0  0  0  0  0  0  0  0
   -1.1710   -3.9040    4.4960 C   0  0  1  0  0  0  0  0  0  0  0  0
    0.1420   -3.4470    4.7080 O   0  0  0  0  0  0  0  0  0  0  0  0
   -2.0630   -2.7950    4.0230 C   0  0  2  0  0  0  0  0  0  0  0  0
   -1.6480   -2.1920    2.7980 N   0  0  0  0  0  0  0  0  0  0  0  0
   -2.1310   -1.7700    5.0880 C   0  0  0  0  0  0  0  0  0  0  0  0
   -2.4750   -2.0790    6.2820 O   0  0  0  0  0  0  0  0  0  0  0  0
   -1.8320   -0.4410    4.8610 O   0  0  0  0  0  0  0  0  0  0  0  0
   -0.5450   -4.8400    2.6390 H   0  0  0  0  0  0  0  0  0  0  0  0
   -0.7190   -6.0040    3.9710 H   0  0  0  0  0  0  0  0  0  0  0  0
   -2.2150   -5.3670    3.2380 H   0  0  0  0  0  0  0  0  0  0  0  0
   -1.5230   -4.2810    5.4680 H   0  0  0  0  0  0  0  0  0  0  0  0
    0.6680   -3.7550    3.9210 H   0  0  0  0  0  0  0  0  0  0  0  0
   -3.1030   -3.2260    3.9370 H   0  0  0  0  0  0  0  0  0  0  0  0
   -0.7080   -1.7650    2.7420 H   0  0  0  0  0  0  0  0  0  0  0  0
  1 15  1  0  0  0  0
  1 16  1  0  0  0  0
  2 17  1  6  0  0  0
  2  1  1  0  0  0  0
  3 18  1  0  0  0  0
  3  4  1  0  0  0  0
  3  2  1  0  0  0  0
  4  5  2  0  0  0  0
  5  6  1  0  0  0  0
  5 20  1  0  0  0  0
  6 21  1  0  0  0  0
  7  6  1  0  0  0  0
  8  7  1  0  0  0  0
  8 22  1  0  0  0  0
  9  8  2  0  0  0  0
 10 11  2  0  0  0  0
 10  9  1  0  0  0  0
 11 12  1  0  0  0  0
 12  4  1  0  0  0  0
 12  7  2  0  0  0  0
 13  2  1  0  0  0  0
 13 26  1  0  0  0  0
 14 13  2  0  0  0  0
 19  3  1  0  0  0  0
 23  9  1  0  0  0  0
 24 10  1  0  0  0  0
 25 11  1  0  0  0  0
 26 35  1  0  0  0  0
 27 36  1  6  0  0  0
 27 26  1  0  0  0  0
 27 33  1  0  0  0  0
 28 37  1  0  0  0  0
 28 27  1  0  0  0  0
 29 28  1  0  0  0  0
 29 39  1  0  0  0  0
 30 42  1  0  0  0  0
 30 29  1  0  0  0  0
 31 30  1  0  0  0  0
 32 31  1  0  0  0  0
 33 34  2  0  0  0  0
 33 51  1  0  0  0  0
 38 28  1  0  0  0  0
 40 29  1  0  0  0  0
 41 30  1  0  0  0  0
 43 31  1  0  0  0  0
 44 31  1  0  0  0  0
 45 32  1  0  0  0  0
 46 32  1  0  0  0  0
 47 56  1  0  0  0  0
 47 48  1  0  0  0  0
 48 49  1  0  0  0  0
 48 58  1  1  0  0  0
 50 60  1  6  0  0  0
 50 48  1  0  0  0  0
 50 52  1  0  0  0  0
 51 50  1  0  0  0  0
 52 53  1  0  0  0  0
 54 52  2  0  0  0  0
 55 47  1  0  0  0  0
 57 47  1  0  0  0  0
 59 49  1  0  0  0  0
 61 51  1  0  0  0  0
M  END
$$$$
