WLD.pdb
 OpenBabel07022419173D

 58 59  0  0  1  0  0  0  0  0999 V2000
    1.3490    1.1100    1.8430 N   0  0  0  0  0  0  0  0  0  0  0  0
    0.7410    1.5000    0.5680 C   0  0  1  0  0  0  0  0  0  0  0  0
    1.5500    0.7180   -0.4920 C   0  0  0  0  0  0  0  0  0  0  0  0
    2.9870    1.0870   -0.4570 C   0  0  0  0  0  0  0  0  0  0  0  0
    3.9920    0.3950    0.1950 C   0  0  0  0  0  0  0  0  0  0  0  0
    5.1410    1.0520    0.0190 N   0  0  0  0  0  0  0  0  0  0  0  0
    4.9460    2.1720   -0.7380 C   0  0  0  0  0  0  0  0  0  0  0  0
    5.8050    3.1430   -1.1930 C   0  0  0  0  0  0  0  0  0  0  0  0
    5.3210    4.1810   -1.9740 C   0  0  0  0  0  0  0  0  0  0  0  0
    3.9860    4.2120   -2.2730 C   0  0  0  0  0  0  0  0  0  0  0  0
    3.1360    3.2280   -1.8080 C   0  0  0  0  0  0  0  0  0  0  0  0
    3.5910    2.1820   -1.0280 C   0  0  0  0  0  0  0  0  0  0  0  0
   -0.6250    0.8900    0.4770 C   0  0  0  0  0  0  0  0  0  0  0  0
   -1.6260    1.6280    0.2410 O   0  0  0  0  0  0  0  0  0  0  0  0
    2.1790    1.7090    1.9680 H   0  0  0  0  0  0  0  0  0  0  0  0
    1.6390    0.1120    1.7620 H   0  0  0  0  0  0  0  0  0  0  0  0
    0.7820    2.5460    0.3400 H   0  0  0  0  0  0  0  0  0  0  0  0
    1.5010   -0.3660   -0.2420 H   0  0  0  0  0  0  0  0  0  0  0  0
    1.1080    0.8500   -1.4830 H   0  0  0  0  0  0  0  0  0  0  0  0
    3.8190   -0.5290    0.7460 H   0  0  0  0  0  0  0  0  0  0  0  0
    6.0510    0.7530    0.4020 H   0  0  0  0  0  0  0  0  0  0  0  0
    6.8400    3.1190   -0.9560 H   0  0  0  0  0  0  0  0  0  0  0  0
    6.0070    4.9530   -2.3370 H   0  0  0  0  0  0  0  0  0  0  0  0
    3.5710    5.0200   -2.8860 H   0  0  0  0  0  0  0  0  0  0  0  0
    2.0750    3.2540   -2.0470 H   0  0  0  0  0  0  0  0  0  0  0  0
   -4.9200   -1.0600   -0.6920 C   0  0  0  0  0  0  0  0  0  0  0  0
   -3.8330   -1.9530   -1.1810 C   0  0  0  0  0  0  0  0  0  0  0  0
   -4.0470   -2.1140   -2.6860 C   0  0  0  0  0  0  0  0  0  0  0  0
   -2.4880   -1.3500   -0.9260 C   0  0  0  0  0  0  0  0  0  0  0  0
   -2.2070   -1.0770    0.5400 C   0  0  2  0  0  0  0  0  0  0  0  0
   -0.8440   -0.4940    0.6390 N   0  0  0  0  0  0  0  0  0  0  0  0
   -2.3970   -2.1960    1.4370 C   0  0  0  0  0  0  0  0  0  0  0  0
   -3.5550   -2.7420    1.4560 O   0  0  0  0  0  0  0  0  0  0  0  0
   -5.6100   -1.5980    0.0180 H   0  0  0  0  0  0  0  0  0  0  0  0
   -4.5810   -0.1250   -0.2080 H   0  0  0  0  0  0  0  0  0  0  0  0
   -5.5860   -0.7150   -1.5290 H   0  0  0  0  0  0  0  0  0  0  0  0
   -3.8760   -2.9830   -0.7760 H   0  0  0  0  0  0  0  0  0  0  0  0
   -3.1660   -2.5600   -3.1900 H   0  0  0  0  0  0  0  0  0  0  0  0
   -4.8820   -2.8470   -2.7780 H   0  0  0  0  0  0  0  0  0  0  0  0
   -4.3990   -1.1780   -3.1350 H   0  0  0  0  0  0  0  0  0  0  0  0
   -2.3670   -0.3880   -1.4760 H   0  0  0  0  0  0  0  0  0  0  0  0
   -1.7360   -2.0380   -1.3670 H   0  0  0  0  0  0  0  0  0  0  0  0
   -2.8780   -0.2350    0.7950 H   0  0  0  0  0  0  0  0  0  0  0  0
   -0.0310   -1.1160    0.8260 H   0  0  0  0  0  0  0  0  0  0  0  0
   -1.4440   -2.7780    2.3060 N   0  0  0  0  0  0  0  0  0  0  0  0
   -1.7770   -3.9080    3.1300 C   0  0  1  0  0  0  0  0  0  0  0  0
   -0.9060   -5.1140    2.8040 C   0  0  0  0  0  0  0  0  0  0  0  0
    0.5260   -4.8410    3.0220 C   0  0  0  0  0  0  0  0  0  0  0  0
    1.0090   -4.9230    4.1890 O   0  0  0  0  0  0  0  0  0  0  0  0
   -1.5930   -3.6520    4.5840 C   0  0  0  0  0  0  0  0  0  0  0  0
   -1.2170   -2.5420    4.9670 O   0  0  0  0  0  0  0  0  0  0  0  0
    1.3960   -4.4860    2.0050 O   0  0  0  0  0  0  0  0  0  0  0  0
   -1.8560   -4.6980    5.4830 O   0  0  0  0  0  0  0  0  0  0  0  0
   -0.5080   -2.3770    2.3390 H   0  0  0  0  0  0  0  0  0  0  0  0
   -2.8200   -4.2150    2.9070 H   0  0  0  0  0  0  0  0  0  0  0  0
   -1.1220   -5.4910    1.7850 H   0  0  0  0  0  0  0  0  0  0  0  0
   -1.2620   -5.9130    3.4920 H   0  0  0  0  0  0  0  0  0  0  0  0
    2.0930   -3.7490    2.2170 H   0  0  0  0  0  0  0  0  0  0  0  0
  1 15  1  0  0  0  0
  2 17  1  6  0  0  0
  2  1  1  0  0  0  0
  3  4  1  0  0  0  0
  3 18  1  0  0  0  0
  3  2  1  0  0  0  0
  4  5  2  0  0  0  0
  5 20  1  0  0  0  0
  6  5  1  0  0  0  0
  6 21  1  0  0  0  0
  7  6  1  0  0  0  0
  8 22  1  0  0  0  0
  8  7  2  0  0  0  0
  9  8  1  0  0  0  0
 10  9  2  0  0  0  0
 10 11  1  0  0  0  0
 11 12  2  0  0  0  0
 12  7  1  0  0  0  0
 12  4  1  0  0  0  0
 13  2  1  0  0  0  0
 13 31  1  0  0  0  0
 14 13  2  0  0  0  0
 16  1  1  0  0  0  0
 19  3  1  0  0  0  0
 23  9  1  0  0  0  0
 24 10  1  0  0  0  0
 25 11  1  0  0  0  0
 26 35  1  0  0  0  0
 26 34  1  0  0  0  0
 27 29  1  0  0  0  0
 27 37  1  0  0  0  0
 27 26  1  0  0  0  0
 28 27  1  0  0  0  0
 29 30  1  0  0  0  0
 30 31  1  0  0  0  0
 30 43  1  1  0  0  0
 30 32  1  0  0  0  0
 31 44  1  0  0  0  0
 32 33  2  0  0  0  0
 32 45  1  0  0  0  0
 36 26  1  0  0  0  0
 38 28  1  0  0  0  0
 39 28  1  0  0  0  0
 40 28  1  0  0  0  0
 41 29  1  0  0  0  0
 42 29  1  0  0  0  0
 45 54  1  0  0  0  0
 45 46  1  0  0  0  0
 46 55  1  6  0  0  0
 46 50  1  0  0  0  0
 47 48  1  0  0  0  0
 47 46  1  0  0  0  0
 47 57  1  0  0  0  0
 48 49  2  0  0  0  0
 50 51  2  0  0  0  0
 50 53  1  0  0  0  0
 52 58  1  0  0  0  0
 52 48  1  0  0  0  0
 56 47  1  0  0  0  0
M  END
$$$$
