WLE.pdb
 OpenBabel07022419173D

 61 62  0  0  1  0  0  0  0  0999 V2000
    2.2250   -0.7590    0.7350 N   0  0  0  0  0  0  0  0  0  0  0  0
    1.5600    0.3700    1.2650 C   0  0  1  0  0  0  0  0  0  0  0  0
    1.9540    1.7090    0.7050 C   0  0  0  0  0  0  0  0  0  0  0  0
    3.3720    2.0660    0.8850 C   0  0  0  0  0  0  0  0  0  0  0  0
    3.8870    2.8730    1.8870 C   0  0  0  0  0  0  0  0  0  0  0  0
    5.2090    2.9290    1.7140 N   0  0  0  0  0  0  0  0  0  0  0  0
    5.5880    2.2040    0.6520 C   0  0  0  0  0  0  0  0  0  0  0  0
    6.8290    1.9530    0.0630 C   0  0  0  0  0  0  0  0  0  0  0  0
    6.9560    1.1620   -1.0550 C   0  0  0  0  0  0  0  0  0  0  0  0
    5.8120    0.6140   -1.5880 C   0  0  0  0  0  0  0  0  0  0  0  0
    4.5940    0.8590   -1.0100 C   0  0  0  0  0  0  0  0  0  0  0  0
    4.4390    1.6590    0.1270 C   0  0  0  0  0  0  0  0  0  0  0  0
    0.0600    0.2640    1.1290 C   0  0  0  0  0  0  0  0  0  0  0  0
   -0.6270    1.2190    1.5010 O   0  0  0  0  0  0  0  0  0  0  0  0
    2.0560   -0.8410   -0.2790 H   0  0  0  0  0  0  0  0  0  0  0  0
    3.2380   -0.7440    0.9200 H   0  0  0  0  0  0  0  0  0  0  0  0
    1.7850    0.4210    2.3650 H   0  0  0  0  0  0  0  0  0  0  0  0
    1.6830    1.6900   -0.3820 H   0  0  0  0  0  0  0  0  0  0  0  0
    1.3520    2.5370    1.1340 H   0  0  0  0  0  0  0  0  0  0  0  0
    3.2960    3.3640    2.6680 H   0  0  0  0  0  0  0  0  0  0  0  0
    5.8750    3.4630    2.3160 H   0  0  0  0  0  0  0  0  0  0  0  0
    7.7070    2.3870    0.4900 H   0  0  0  0  0  0  0  0  0  0  0  0
    7.9310    0.9800   -1.4970 H   0  0  0  0  0  0  0  0  0  0  0  0
    5.8670   -0.0220   -2.4780 H   0  0  0  0  0  0  0  0  0  0  0  0
    3.6740    0.4430   -1.4150 H   0  0  0  0  0  0  0  0  0  0  0  0
   -2.7140    1.2930   -1.4340 C   0  0  0  0  0  0  0  0  0  0  0  0
   -2.1160   -0.0180   -1.8650 C   0  0  0  0  0  0  0  0  0  0  0  0
   -0.6470    0.1670   -2.1150 C   0  0  0  0  0  0  0  0  0  0  0  0
   -2.4470   -1.1600   -0.9560 C   0  0  0  0  0  0  0  0  0  0  0  0
   -2.0140   -1.0200    0.4540 C   0  0  2  0  0  0  0  0  0  0  0  0
   -0.5840   -0.8750    0.5990 N   0  0  0  0  0  0  0  0  0  0  0  0
   -2.5650   -2.0160    1.4120 C   0  0  0  0  0  0  0  0  0  0  0  0
   -1.7650   -2.5170    2.2460 O   0  0  0  0  0  0  0  0  0  0  0  0
   -2.0100    1.8800   -0.7780 H   0  0  0  0  0  0  0  0  0  0  0  0
   -2.8100    1.9200   -2.3590 H   0  0  0  0  0  0  0  0  0  0  0  0
   -3.7110    1.2160   -0.9970 H   0  0  0  0  0  0  0  0  0  0  0  0
   -2.5700   -0.2630   -2.8650 H   0  0  0  0  0  0  0  0  0  0  0  0
   -0.2540    1.0930   -1.6200 H   0  0  0  0  0  0  0  0  0  0  0  0
   -0.0100   -0.6680   -1.8390 H   0  0  0  0  0  0  0  0  0  0  0  0
   -0.4380    0.3520   -3.2110 H   0  0  0  0  0  0  0  0  0  0  0  0
   -3.5140   -1.4760   -1.0640 H   0  0  0  0  0  0  0  0  0  0  0  0
   -1.8770   -2.0460   -1.3780 H   0  0  0  0  0  0  0  0  0  0  0  0
   -2.5190   -0.0490    0.7970 H   0  0  0  0  0  0  0  0  0  0  0  0
    0.0460   -1.6630    0.3020 H   0  0  0  0  0  0  0  0  0  0  0  0
   -3.9200   -2.4290    1.4470 N   0  0  0  0  0  0  0  0  0  0  0  0
   -4.4980   -3.3620    2.3510 C   0  0  1  0  0  0  0  0  0  0  0  0
   -3.6810   -4.5880    2.5670 C   0  0  0  0  0  0  0  0  0  0  0  0
   -3.5140   -5.3900    1.3250 C   0  0  0  0  0  0  0  0  0  0  0  0
   -2.8550   -4.7550    0.1910 C   0  0  0  0  0  0  0  0  0  0  0  0
   -1.5890   -4.7320    0.1090 O   0  0  0  0  0  0  0  0  0  0  0  0
   -4.9570   -2.7450    3.6180 C   0  0  0  0  0  0  0  0  0  0  0  0
   -5.4840   -3.4840    4.4820 O   0  0  0  0  0  0  0  0  0  0  0  0
   -3.5910   -4.1600   -0.8350 O   0  0  0  0  0  0  0  0  0  0  0  0
   -4.8310   -1.3960    3.8910 O   0  0  0  0  0  0  0  0  0  0  0  0
   -4.5410   -1.9610    0.6920 H   0  0  0  0  0  0  0  0  0  0  0  0
   -5.4260   -3.7870    1.7900 H   0  0  0  0  0  0  0  0  0  0  0  0
   -2.6860   -4.3840    3.0520 H   0  0  0  0  0  0  0  0  0  0  0  0
   -4.2310   -5.2740    3.3120 H   0  0  0  0  0  0  0  0  0  0  0  0
   -2.9420   -6.3570    1.5450 H   0  0  0  0  0  0  0  0  0  0  0  0
   -4.5080   -5.8070    0.9700 H   0  0  0  0  0  0  0  0  0  0  0  0
   -3.2110   -4.1190   -1.7880 H   0  0  0  0  0  0  0  0  0  0  0  0
  1 16  1  0  0  0  0
  1  2  1  0  0  0  0
  2 17  1  1  0  0  0
  3  4  1  0  0  0  0
  3 19  1  0  0  0  0
  3  2  1  0  0  0  0
  4  5  2  0  0  0  0
  5 20  1  0  0  0  0
  6  5  1  0  0  0  0
  6 21  1  0  0  0  0
  7  6  1  0  0  0  0
  8 22  1  0  0  0  0
  8  7  2  0  0  0  0
  9  8  1  0  0  0  0
 10  9  2  0  0  0  0
 10 11  1  0  0  0  0
 11 12  2  0  0  0  0
 12  7  1  0  0  0  0
 12  4  1  0  0  0  0
 13  2  1  0  0  0  0
 13 14  2  0  0  0  0
 15  1  1  0  0  0  0
 18  3  1  0  0  0  0
 23  9  1  0  0  0  0
 24 10  1  0  0  0  0
 25 11  1  0  0  0  0
 26 36  1  0  0  0  0
 26 34  1  0  0  0  0
 27 26  1  0  0  0  0
 27 29  1  0  0  0  0
 28 27  1  0  0  0  0
 28 39  1  0  0  0  0
 28 38  1  0  0  0  0
 29 30  1  0  0  0  0
 30 31  1  0  0  0  0
 30 43  1  1  0  0  0
 30 32  1  0  0  0  0
 31 13  1  0  0  0  0
 32 45  1  0  0  0  0
 32 33  2  0  0  0  0
 35 26  1  0  0  0  0
 37 27  1  0  0  0  0
 40 28  1  0  0  0  0
 41 29  1  0  0  0  0
 42 29  1  0  0  0  0
 44 31  1  0  0  0  0
 45 46  1  0  0  0  0
 46 56  1  6  0  0  0
 46 47  1  0  0  0  0
 46 51  1  0  0  0  0
 47 57  1  0  0  0  0
 47 58  1  0  0  0  0
 48 59  1  0  0  0  0
 48 47  1  0  0  0  0
 49 48  1  0  0  0  0
 50 49  2  0  0  0  0
 51 54  2  0  0  0  0
 51 52  1  0  0  0  0
 53 49  1  0  0  0  0
 55 45  1  0  0  0  0
 60 48  1  0  0  0  0
 61 53  1  0  0  0  0
M  END
$$$$
