WLF.pdb
 OpenBabel07022419173D

 65 67  0  0  1  0  0  0  0  0999 V2000
    2.8810   -1.2000    1.8780 N   0  0  0  0  0  0  0  0  0  0  0  0
    2.2050    0.0620    2.1320 C   0  0  1  0  0  0  0  0  0  0  0  0
    3.0880    1.2320    1.9120 C   0  0  0  0  0  0  0  0  0  0  0  0
    3.6670    1.3610    0.5600 C   0  0  0  0  0  0  0  0  0  0  0  0
    4.9360    0.8820    0.1870 C   0  0  0  0  0  0  0  0  0  0  0  0
    5.1450    1.1170   -1.1050 N   0  0  0  0  0  0  0  0  0  0  0  0
    4.0620    1.7430   -1.6300 C   0  0  0  0  0  0  0  0  0  0  0  0
    3.7810    2.2050   -2.8900 C   0  0  0  0  0  0  0  0  0  0  0  0
    2.5750    2.8350   -3.1610 C   0  0  0  0  0  0  0  0  0  0  0  0
    1.6820    2.9780   -2.1230 C   0  0  0  0  0  0  0  0  0  0  0  0
    1.9610    2.5150   -0.8580 C   0  0  0  0  0  0  0  0  0  0  0  0
    3.1490    1.8930   -0.5940 C   0  0  0  0  0  0  0  0  0  0  0  0
    0.9220    0.1820    1.4230 C   0  0  0  0  0  0  0  0  0  0  0  0
    0.1110    1.1300    1.7120 O   0  0  0  0  0  0  0  0  0  0  0  0
    3.0580   -1.2820    0.8700 H   0  0  0  0  0  0  0  0  0  0  0  0
    2.2030   -1.9530    2.1680 H   0  0  0  0  0  0  0  0  0  0  0  0
    1.9100   -0.0140    3.2360 H   0  0  0  0  0  0  0  0  0  0  0  0
    2.5990    2.2030    2.2260 H   0  0  0  0  0  0  0  0  0  0  0  0
    3.9340    1.1380    2.6600 H   0  0  0  0  0  0  0  0  0  0  0  0
    5.6040    0.4050    0.8690 H   0  0  0  0  0  0  0  0  0  0  0  0
    5.9900    0.8860   -1.7020 H   0  0  0  0  0  0  0  0  0  0  0  0
    4.5250    2.0700   -3.6910 H   0  0  0  0  0  0  0  0  0  0  0  0
    2.3660    3.1960   -4.1650 H   0  0  0  0  0  0  0  0  0  0  0  0
    0.7250    3.4720   -2.3110 H   0  0  0  0  0  0  0  0  0  0  0  0
    1.2440    2.6600   -0.0810 H   0  0  0  0  0  0  0  0  0  0  0  0
   -2.6180   -1.2570   -2.8330 C   0  0  0  0  0  0  0  0  0  0  0  0
   -1.5670   -0.2270   -2.6830 C   0  0  0  0  0  0  0  0  0  0  0  0
   -2.2680    1.1290   -2.5030 C   0  0  0  0  0  0  0  0  0  0  0  0
   -0.4960   -0.4250   -1.6940 C   0  0  0  0  0  0  0  0  0  0  0  0
   -0.7910   -0.5320   -0.2520 C   0  0  2  0  0  0  0  0  0  0  0  0
    0.5160   -0.7110    0.4160 N   0  0  0  0  0  0  0  0  0  0  0  0
   -1.6430   -1.6290    0.2120 C   0  0  0  0  0  0  0  0  0  0  0  0
   -2.8800   -1.7380   -0.0420 O   0  0  0  0  0  0  0  0  0  0  0  0
   -2.2540   -2.2460   -2.5640 H   0  0  0  0  0  0  0  0  0  0  0  0
   -2.8150   -1.3480   -3.9590 H   0  0  0  0  0  0  0  0  0  0  0  0
   -3.6220   -0.9770   -2.4520 H   0  0  0  0  0  0  0  0  0  0  0  0
   -1.0500   -0.0990   -3.6900 H   0  0  0  0  0  0  0  0  0  0  0  0
   -2.6780    1.2350   -1.4810 H   0  0  0  0  0  0  0  0  0  0  0  0
   -1.4990    1.8950   -2.7350 H   0  0  0  0  0  0  0  0  0  0  0  0
   -3.0380    1.1860   -3.2860 H   0  0  0  0  0  0  0  0  0  0  0  0
    0.2350    0.4400   -1.8560 H   0  0  0  0  0  0  0  0  0  0  0  0
    0.1570   -1.3020   -2.0500 H   0  0  0  0  0  0  0  0  0  0  0  0
   -1.1910    0.4670    0.0910 H   0  0  0  0  0  0  0  0  0  0  0  0
    1.0860   -1.5090    0.0880 H   0  0  0  0  0  0  0  0  0  0  0  0
   -1.1320   -2.7040    1.0180 N   0  0  0  0  0  0  0  0  0  0  0  0
   -1.8880   -3.7990    1.5180 C   0  0  1  0  0  0  0  0  0  0  0  0
   -3.2140   -3.4360    2.1680 C   0  0  0  0  0  0  0  0  0  0  0  0
   -2.9740   -2.5760    3.3210 C   0  0  0  0  0  0  0  0  0  0  0  0
   -2.7030   -3.1900    4.5410 C   0  0  0  0  0  0  0  0  0  0  0  0
   -2.4770   -2.4570    5.6850 C   0  0  0  0  0  0  0  0  0  0  0  0
   -2.5110   -1.0910    5.6570 C   0  0  0  0  0  0  0  0  0  0  0  0
   -2.7780   -0.4910    4.4540 C   0  0  0  0  0  0  0  0  0  0  0  0
   -3.0080   -1.2120    3.2930 C   0  0  0  0  0  0  0  0  0  0  0  0
   -1.9820   -4.9660    0.6220 C   0  0  0  0  0  0  0  0  0  0  0  0
   -2.6200   -5.9660    0.9740 O   0  0  0  0  0  0  0  0  0  0  0  0
   -1.3560   -4.9420   -0.6150 O   0  0  0  0  0  0  0  0  0  0  0  0
   -0.0930   -2.6410    1.2390 H   0  0  0  0  0  0  0  0  0  0  0  0
   -1.2900   -4.1660    2.4350 H   0  0  0  0  0  0  0  0  0  0  0  0
   -3.6100   -4.4260    2.5490 H   0  0  0  0  0  0  0  0  0  0  0  0
   -3.9760   -3.0830    1.4740 H   0  0  0  0  0  0  0  0  0  0  0  0
   -2.6620   -4.2800    4.6260 H   0  0  0  0  0  0  0  0  0  0  0  0
   -2.2660   -2.9590    6.6350 H   0  0  0  0  0  0  0  0  0  0  0  0
   -2.3380   -0.4980    6.5340 H   0  0  0  0  0  0  0  0  0  0  0  0
   -2.8070    0.6110    4.4270 H   0  0  0  0  0  0  0  0  0  0  0  0
   -3.2210   -0.6430    2.3870 H   0  0  0  0  0  0  0  0  0  0  0  0
  1  2  1  0  0  0  0
  1 16  1  0  0  0  0
  2 17  1  1  0  0  0
  3  2  1  0  0  0  0
  3 18  1  0  0  0  0
  3 19  1  0  0  0  0
  4  3  1  0  0  0  0
  5  4  2  0  0  0  0
  5 20  1  0  0  0  0
  6  5  1  0  0  0  0
  7  6  1  0  0  0  0
  7 12  1  0  0  0  0
  8  7  2  0  0  0  0
  9  8  1  0  0  0  0
  9 10  2  0  0  0  0
 10 11  1  0  0  0  0
 11 12  2  0  0  0  0
 11 25  1  0  0  0  0
 12  4  1  0  0  0  0
 13 14  2  0  0  0  0
 13  2  1  0  0  0  0
 15  1  1  0  0  0  0
 21  6  1  0  0  0  0
 22  8  1  0  0  0  0
 23  9  1  0  0  0  0
 24 10  1  0  0  0  0
 26 27  1  0  0  0  0
 26 34  1  0  0  0  0
 26 36  1  0  0  0  0
 27 28  1  0  0  0  0
 27 29  1  0  0  0  0
 28 38  1  0  0  0  0
 29 30  1  0  0  0  0
 30 43  1  1  0  0  0
 30 32  1  0  0  0  0
 30 31  1  0  0  0  0
 31 13  1  0  0  0  0
 32 45  1  0  0  0  0
 33 32  2  0  0  0  0
 35 26  1  0  0  0  0
 37 27  1  0  0  0  0
 39 28  1  0  0  0  0
 40 28  1  0  0  0  0
 41 29  1  0  0  0  0
 42 29  1  0  0  0  0
 44 31  1  0  0  0  0
 45 57  1  0  0  0  0
 45 46  1  0  0  0  0
 46 47  1  0  0  0  0
 46 58  1  1  0  0  0
 47 59  1  0  0  0  0
 47 48  1  0  0  0  0
 48 49  1  0  0  0  0
 49 61  1  0  0  0  0
 49 50  2  0  0  0  0
 50 62  1  0  0  0  0
 51 50  1  0  0  0  0
 51 63  1  0  0  0  0
 52 51  2  0  0  0  0
 53 48  2  0  0  0  0
 53 52  1  0  0  0  0
 54 55  1  0  0  0  0
 54 46  1  0  0  0  0
 56 54  2  0  0  0  0
 60 47  1  0  0  0  0
 64 52  1  0  0  0  0
 65 53  1  0  0  0  0
M  END
$$$$
