WLG.pdb
 OpenBabel07022419173D

 52 53  0  0  1  0  0  0  0  0999 V2000
    1.5320   -0.1470   -1.2140 N   0  0  0  0  0  0  0  0  0  0  0  0
    1.2590   -0.8240    0.0210 C   0  0  1  0  0  0  0  0  0  0  0  0
    1.8030   -0.1240    1.2430 C   0  0  0  0  0  0  0  0  0  0  0  0
    3.2490    0.0630    1.2540 C   0  0  0  0  0  0  0  0  0  0  0  0
    4.1290   -0.7420    1.9550 C   0  0  0  0  0  0  0  0  0  0  0  0
    5.3670   -0.3240    1.7470 N   0  0  0  0  0  0  0  0  0  0  0  0
    5.3130    0.7440    0.9200 C   0  0  0  0  0  0  0  0  0  0  0  0
    6.3320    1.5240    0.4190 C   0  0  0  0  0  0  0  0  0  0  0  0
    6.0270    2.5770   -0.4130 C   0  0  0  0  0  0  0  0  0  0  0  0
    4.7100    2.8230   -0.7220 C   0  0  0  0  0  0  0  0  0  0  0  0
    3.6550    2.0660   -0.2410 C   0  0  0  0  0  0  0  0  0  0  0  0
    3.9850    1.0050    0.5980 C   0  0  0  0  0  0  0  0  0  0  0  0
   -0.2300   -1.0040    0.2000 C   0  0  0  0  0  0  0  0  0  0  0  0
   -0.9890   -0.5090   -0.6460 O   0  0  0  0  0  0  0  0  0  0  0  0
    0.9310   -0.5890   -1.9460 H   0  0  0  0  0  0  0  0  0  0  0  0
    2.5110   -0.3380   -1.4870 H   0  0  0  0  0  0  0  0  0  0  0  0
    1.7310   -1.8270   -0.0270 H   0  0  0  0  0  0  0  0  0  0  0  0
    1.3180    0.8900    1.3230 H   0  0  0  0  0  0  0  0  0  0  0  0
    1.4340   -0.6710    2.1330 H   0  0  0  0  0  0  0  0  0  0  0  0
    3.8810   -1.6010    2.5930 H   0  0  0  0  0  0  0  0  0  0  0  0
    6.2450   -0.7290    2.1400 H   0  0  0  0  0  0  0  0  0  0  0  0
    7.3720    1.3020    0.6850 H   0  0  0  0  0  0  0  0  0  0  0  0
    6.8130    3.2210   -0.8320 H   0  0  0  0  0  0  0  0  0  0  0  0
    4.4640    3.6630   -1.3850 H   0  0  0  0  0  0  0  0  0  0  0  0
    2.6320    2.2690   -0.4830 H   0  0  0  0  0  0  0  0  0  0  0  0
   -3.8640    1.3210    2.5030 C   0  0  0  0  0  0  0  0  0  0  0  0
   -3.0600    0.3720    1.5630 C   0  0  0  0  0  0  0  0  0  0  0  0
   -3.9780    0.2480    0.3480 C   0  0  0  0  0  0  0  0  0  0  0  0
   -2.8730   -0.8980    2.2950 C   0  0  0  0  0  0  0  0  0  0  0  0
   -2.0960   -1.9900    1.6310 C   0  0  2  0  0  0  0  0  0  0  0  0
   -0.7480   -1.7160    1.2980 N   0  0  0  0  0  0  0  0  0  0  0  0
   -2.9100   -2.6470    0.5700 C   0  0  0  0  0  0  0  0  0  0  0  0
   -4.1650   -2.7850    0.7550 O   0  0  0  0  0  0  0  0  0  0  0  0
   -4.9010    0.9410    2.4580 H   0  0  0  0  0  0  0  0  0  0  0  0
   -3.7780    2.3570    2.1360 H   0  0  0  0  0  0  0  0  0  0  0  0
   -3.4660    1.1850    3.5380 H   0  0  0  0  0  0  0  0  0  0  0  0
   -2.1870    0.9490    1.2950 H   0  0  0  0  0  0  0  0  0  0  0  0
   -3.6320   -0.4100   -0.4290 H   0  0  0  0  0  0  0  0  0  0  0  0
   -4.9610   -0.1050    0.7660 H   0  0  0  0  0  0  0  0  0  0  0  0
   -4.1510    1.2730   -0.0360 H   0  0  0  0  0  0  0  0  0  0  0  0
   -3.9170   -1.2910    2.5190 H   0  0  0  0  0  0  0  0  0  0  0  0
   -2.4790   -0.6760    3.3250 H   0  0  0  0  0  0  0  0  0  0  0  0
   -2.0090   -2.7810    2.4930 H   0  0  0  0  0  0  0  0  0  0  0  0
    0.0250   -2.0900    1.9540 H   0  0  0  0  0  0  0  0  0  0  0  0
   -2.4150   -3.1500   -0.6530 N   0  0  0  0  0  0  0  0  0  0  0  0
   -3.3230   -3.7780   -1.6320 C   0  0  0  0  0  0  0  0  0  0  0  0
   -3.9320   -4.9460   -0.9470 C   0  0  0  0  0  0  0  0  0  0  0  0
   -4.7810   -5.6920   -1.5430 O   0  0  0  0  0  0  0  0  0  0  0  0
   -3.6460   -5.3230    0.3580 O   0  0  0  0  0  0  0  0  0  0  0  0
   -1.4100   -3.0980   -0.8660 H   0  0  0  0  0  0  0  0  0  0  0  0
   -4.1620   -3.0450   -1.8080 H   0  0  0  0  0  0  0  0  0  0  0  0
   -2.8060   -4.0180   -2.5580 H   0  0  0  0  0  0  0  0  0  0  0  0
  1  2  1  0  0  0  0
  2 17  1  6  0  0  0
  2 13  1  0  0  0  0
  2  3  1  0  0  0  0
  3  4  1  0  0  0  0
  3 18  1  0  0  0  0
  3 19  1  0  0  0  0
  4  5  2  0  0  0  0
  5 20  1  0  0  0  0
  6  5  1  0  0  0  0
  6 21  1  0  0  0  0
  7  6  1  0  0  0  0
  8 22  1  0  0  0  0
  8  7  2  0  0  0  0
  9  8  1  0  0  0  0
 10  9  2  0  0  0  0
 10 11  1  0  0  0  0
 11 12  2  0  0  0  0
 12  7  1  0  0  0  0
 12  4  1  0  0  0  0
 13 31  1  0  0  0  0
 14 13  2  0  0  0  0
 15  1  1  0  0  0  0
 16  1  1  0  0  0  0
 23  9  1  0  0  0  0
 24 10  1  0  0  0  0
 25 11  1  0  0  0  0
 26 36  1  0  0  0  0
 27 29  1  0  0  0  0
 27 26  1  0  0  0  0
 28 39  1  0  0  0  0
 28 27  1  0  0  0  0
 29 41  1  0  0  0  0
 29 42  1  0  0  0  0
 30 29  1  0  0  0  0
 30 43  1  1  0  0  0
 31 30  1  0  0  0  0
 31 44  1  0  0  0  0
 32 33  2  0  0  0  0
 32 30  1  0  0  0  0
 34 26  1  0  0  0  0
 35 26  1  0  0  0  0
 37 27  1  0  0  0  0
 38 28  1  0  0  0  0
 40 28  1  0  0  0  0
 45 32  1  0  0  0  0
 46 47  1  0  0  0  0
 46 45  1  0  0  0  0
 47 49  1  0  0  0  0
 48 47  2  0  0  0  0
 50 45  1  0  0  0  0
 51 46  1  0  0  0  0
 52 46  1  0  0  0  0
M  END
$$$$
