WLH.pdb
 OpenBabel07022419173D

 62 64  0  0  1  0  0  0  0  0999 V2000
    1.7180    1.7560    3.9090 N   0  0  0  0  0  0  0  0  0  0  0  0
    1.1160    2.0620    2.6050 C   0  0  1  0  0  0  0  0  0  0  0  0
    2.1150    2.7690    1.8010 C   0  0  0  0  0  0  0  0  0  0  0  0
    3.3810    2.0610    1.5450 C   0  0  0  0  0  0  0  0  0  0  0  0
    4.5040    2.1560    2.3870 C   0  0  0  0  0  0  0  0  0  0  0  0
    5.4820    1.3550    1.9270 N   0  0  0  0  0  0  0  0  0  0  0  0
    5.0740    0.7220    0.8130 C   0  0  0  0  0  0  0  0  0  0  0  0
    5.7000   -0.1740   -0.0270 C   0  0  0  0  0  0  0  0  0  0  0  0
    5.0230   -0.6490   -1.1300 C   0  0  0  0  0  0  0  0  0  0  0  0
    3.7330   -0.2110   -1.3650 C   0  0  0  0  0  0  0  0  0  0  0  0
    3.1290    0.6850   -0.5100 C   0  0  0  0  0  0  0  0  0  0  0  0
    3.7820    1.1650    0.5880 C   0  0  0  0  0  0  0  0  0  0  0  0
    0.2570    1.0230    2.1200 C   0  0  0  0  0  0  0  0  0  0  0  0
    0.0540    0.0180    2.9210 O   0  0  0  0  0  0  0  0  0  0  0  0
    2.5570    1.1430    3.8030 H   0  0  0  0  0  0  0  0  0  0  0  0
    1.0260    1.4310    4.5940 H   0  0  0  0  0  0  0  0  0  0  0  0
    0.3590    2.9070    2.9370 H   0  0  0  0  0  0  0  0  0  0  0  0
    1.7340    3.0840    0.7880 H   0  0  0  0  0  0  0  0  0  0  0  0
    2.4160    3.7620    2.2690 H   0  0  0  0  0  0  0  0  0  0  0  0
    4.5540    2.7830    3.2640 H   0  0  0  0  0  0  0  0  0  0  0  0
    6.4190    1.2520    2.3840 H   0  0  0  0  0  0  0  0  0  0  0  0
    6.7060   -0.5350    0.1290 H   0  0  0  0  0  0  0  0  0  0  0  0
    5.4930   -1.3620   -1.8160 H   0  0  0  0  0  0  0  0  0  0  0  0
    3.1790   -0.5590   -2.2130 H   0  0  0  0  0  0  0  0  0  0  0  0
    2.1120    1.0590   -0.6880 H   0  0  0  0  0  0  0  0  0  0  0  0
   -4.8250    1.3010    0.7130 C   0  0  0  0  0  0  0  0  0  0  0  0
   -3.4020    0.9710    1.2230 C   0  0  0  0  0  0  0  0  0  0  0  0
   -2.8060    2.2960    1.5930 C   0  0  0  0  0  0  0  0  0  0  0  0
   -2.6680    0.1830    0.1950 C   0  0  0  0  0  0  0  0  0  0  0  0
   -1.3010   -0.2020    0.6210 C   0  0  2  0  0  0  0  0  0  0  0  0
   -0.4320    0.9060    0.8950 N   0  0  0  0  0  0  0  0  0  0  0  0
   -0.6800   -1.1830   -0.3050 C   0  0  0  0  0  0  0  0  0  0  0  0
    0.4480   -0.9980   -0.7490 O   0  0  0  0  0  0  0  0  0  0  0  0
   -4.8020    1.3780   -0.4000 H   0  0  0  0  0  0  0  0  0  0  0  0
   -5.5100    0.4670    0.9660 H   0  0  0  0  0  0  0  0  0  0  0  0
   -5.2050    2.2280    1.1880 H   0  0  0  0  0  0  0  0  0  0  0  0
   -3.5610    0.4100    2.1730 H   0  0  0  0  0  0  0  0  0  0  0  0
   -2.2480    2.7520    0.7600 H   0  0  0  0  0  0  0  0  0  0  0  0
   -2.2210    2.2650    2.5520 H   0  0  0  0  0  0  0  0  0  0  0  0
   -3.6640    3.0210    1.7800 H   0  0  0  0  0  0  0  0  0  0  0  0
   -3.2600   -0.7390   -0.0170 H   0  0  0  0  0  0  0  0  0  0  0  0
   -2.6240    0.8230   -0.7430 H   0  0  0  0  0  0  0  0  0  0  0  0
   -1.4340   -0.8040    1.5830 H   0  0  0  0  0  0  0  0  0  0  0  0
   -0.2870    1.6360    0.1880 H   0  0  0  0  0  0  0  0  0  0  0  0
   -1.3640   -2.3590   -0.7090 N   0  0  0  0  0  0  0  0  0  0  0  0
   -0.8370   -3.3470   -1.5940 C   0  0  1  0  0  0  0  0  0  0  0  0
   -0.8380   -4.7390   -1.0690 C   0  0  0  0  0  0  0  0  0  0  0  0
   -2.2060   -5.2260   -0.7360 C   0  0  0  0  0  0  0  0  0  0  0  0
   -2.4540   -6.4830   -0.2360 C   0  0  0  0  0  0  0  0  0  0  0  0
   -3.7740   -6.6350   -0.0340 N   0  0  0  0  0  0  0  0  0  0  0  0
   -4.3400   -5.4750   -0.4090 C   0  0  0  0  0  0  0  0  0  0  0  0
   -3.3880   -4.6110   -0.8390 N   0  0  0  0  0  0  0  0  0  0  0  0
   -1.6740   -3.3240   -2.8370 C   0  0  0  0  0  0  0  0  0  0  0  0
   -1.4490   -4.0930   -3.8100 O   0  0  0  0  0  0  0  0  0  0  0  0
   -2.7490   -2.4500   -2.9860 O   0  0  0  0  0  0  0  0  0  0  0  0
   -2.3230   -2.5120   -0.3280 H   0  0  0  0  0  0  0  0  0  0  0  0
    0.2010   -3.1060   -1.9220 H   0  0  0  0  0  0  0  0  0  0  0  0
   -0.1280   -4.9040   -0.2330 H   0  0  0  0  0  0  0  0  0  0  0  0
   -0.4750   -5.4030   -1.9000 H   0  0  0  0  0  0  0  0  0  0  0  0
   -1.7350   -7.2730   -0.0170 H   0  0  0  0  0  0  0  0  0  0  0  0
   -4.2970   -7.4770    0.3400 H   0  0  0  0  0  0  0  0  0  0  0  0
   -5.4140   -5.2880   -0.3620 H   0  0  0  0  0  0  0  0  0  0  0  0
  1 16  1  0  0  0  0
  2 17  1  1  0  0  0
  2  1  1  0  0  0  0
  3 19  1  0  0  0  0
  3  2  1  0  0  0  0
  4  3  1  0  0  0  0
  4  5  2  0  0  0  0
  5 20  1  0  0  0  0
  6 21  1  0  0  0  0
  6  5  1  0  0  0  0
  7  6  1  0  0  0  0
  8 22  1  0  0  0  0
  8  7  2  0  0  0  0
  9  8  1  0  0  0  0
 10  9  2  0  0  0  0
 10 11  1  0  0  0  0
 11 12  2  0  0  0  0
 12  7  1  0  0  0  0
 12  4  1  0  0  0  0
 13  2  1  0  0  0  0
 13 14  2  0  0  0  0
 15  1  1  0  0  0  0
 18  3  1  0  0  0  0
 23  9  1  0  0  0  0
 24 10  1  0  0  0  0
 25 11  1  0  0  0  0
 26 35  1  0  0  0  0
 26 36  1  0  0  0  0
 26 27  1  0  0  0  0
 27 28  1  0  0  0  0
 27 37  1  0  0  0  0
 28 40  1  0  0  0  0
 28 39  1  0  0  0  0
 29 30  1  0  0  0  0
 29 27  1  0  0  0  0
 30 31  1  0  0  0  0
 30 43  1  1  0  0  0
 31 13  1  0  0  0  0
 32 30  1  0  0  0  0
 33 32  2  0  0  0  0
 34 26  1  0  0  0  0
 38 28  1  0  0  0  0
 41 29  1  0  0  0  0
 42 29  1  0  0  0  0
 44 31  1  0  0  0  0
 45 56  1  0  0  0  0
 45 32  1  0  0  0  0
 46 57  1  6  0  0  0
 46 47  1  0  0  0  0
 46 45  1  0  0  0  0
 47 48  1  0  0  0  0
 47 58  1  0  0  0  0
 48 49  2  0  0  0  0
 49 50  1  0  0  0  0
 49 60  1  0  0  0  0
 50 61  1  0  0  0  0
 51 62  1  0  0  0  0
 51 50  1  0  0  0  0
 52 48  1  0  0  0  0
 52 51  2  0  0  0  0
 53 46  1  0  0  0  0
 54 53  2  0  0  0  0
 55 53  1  0  0  0  0
 59 47  1  0  0  0  0
M  END
$$$$
