WLK.pdb
 OpenBabel07022419173D

 66 67  0  0  1  0  0  0  0  0999 V2000
    0.6850    0.2200    1.5680 N   0  0  0  0  0  0  0  0  0  0  0  0
   -0.6000    0.8390    1.5620 C   0  0  1  0  0  0  0  0  0  0  0  0
   -0.6010    2.3310    1.5060 C   0  0  0  0  0  0  0  0  0  0  0  0
    0.0810    3.0050    2.6200 C   0  0  0  0  0  0  0  0  0  0  0  0
   -0.4910    3.5600    3.7660 C   0  0  0  0  0  0  0  0  0  0  0  0
    0.4680    4.0610    4.5570 N   0  0  0  0  0  0  0  0  0  0  0  0
    1.6420    3.8430    3.9490 C   0  0  0  0  0  0  0  0  0  0  0  0
    2.9470    4.1540    4.3060 C   0  0  0  0  0  0  0  0  0  0  0  0
    4.0260    3.8400    3.5160 C   0  0  0  0  0  0  0  0  0  0  0  0
    3.7920    3.1920    2.3240 C   0  0  0  0  0  0  0  0  0  0  0  0
    2.5170    2.8690    1.9390 C   0  0  0  0  0  0  0  0  0  0  0  0
    1.4370    3.1980    2.7590 C   0  0  0  0  0  0  0  0  0  0  0  0
   -1.4630    0.3420    0.4560 C   0  0  0  0  0  0  0  0  0  0  0  0
   -2.6080    0.8170    0.2570 O   0  0  0  0  0  0  0  0  0  0  0  0
    1.2240    0.2710    0.7040 H   0  0  0  0  0  0  0  0  0  0  0  0
    1.2420    0.3240    2.4210 H   0  0  0  0  0  0  0  0  0  0  0  0
   -1.0830    0.5690    2.5510 H   0  0  0  0  0  0  0  0  0  0  0  0
   -1.6500    2.7050    1.4930 H   0  0  0  0  0  0  0  0  0  0  0  0
   -0.1380    2.7250    0.5630 H   0  0  0  0  0  0  0  0  0  0  0  0
   -1.5470    3.5900    3.9990 H   0  0  0  0  0  0  0  0  0  0  0  0
    0.3180    4.5360    5.4800 H   0  0  0  0  0  0  0  0  0  0  0  0
    3.0560    4.6720    5.2720 H   0  0  0  0  0  0  0  0  0  0  0  0
    5.0340    4.0950    3.8210 H   0  0  0  0  0  0  0  0  0  0  0  0
    4.5930    2.9170    1.6540 H   0  0  0  0  0  0  0  0  0  0  0  0
    2.3390    2.3590    0.9840 H   0  0  0  0  0  0  0  0  0  0  0  0
   -1.7040    1.0020   -3.6860 C   0  0  0  0  0  0  0  0  0  0  0  0
   -0.6730   -0.0750   -3.4580 C   0  0  0  0  0  0  0  0  0  0  0  0
    0.5090    0.4830   -2.7490 C   0  0  0  0  0  0  0  0  0  0  0  0
   -1.2130   -1.3050   -2.8400 C   0  0  0  0  0  0  0  0  0  0  0  0
   -1.8660   -1.1930   -1.5180 C   0  0  2  0  0  0  0  0  0  0  0  0
   -1.0460   -0.7000   -0.4430 N   0  0  0  0  0  0  0  0  0  0  0  0
   -2.2690   -2.5920   -1.1150 C   0  0  0  0  0  0  0  0  0  0  0  0
   -2.9650   -3.2580   -1.8850 O   0  0  0  0  0  0  0  0  0  0  0  0
   -1.9020    1.6240   -2.7860 H   0  0  0  0  0  0  0  0  0  0  0  0
   -2.6160    0.6210   -4.1660 H   0  0  0  0  0  0  0  0  0  0  0  0
   -1.2480    1.7270   -4.4240 H   0  0  0  0  0  0  0  0  0  0  0  0
   -0.2940   -0.3100   -4.5160 H   0  0  0  0  0  0  0  0  0  0  0  0
    0.8100    1.4120   -3.3200 H   0  0  0  0  0  0  0  0  0  0  0  0
    0.3830    0.7180   -1.6980 H   0  0  0  0  0  0  0  0  0  0  0  0
    1.3740   -0.2290   -2.8910 H   0  0  0  0  0  0  0  0  0  0  0  0
   -1.8910   -1.7870   -3.6090 H   0  0  0  0  0  0  0  0  0  0  0  0
   -0.3800   -2.0580   -2.7370 H   0  0  0  0  0  0  0  0  0  0  0  0
   -2.8080   -0.5890   -1.5370 H   0  0  0  0  0  0  0  0  0  0  0  0
   -0.0870   -1.1210   -0.2890 H   0  0  0  0  0  0  0  0  0  0  0  0
   -1.8730   -3.1640    0.1230 N   0  0  0  0  0  0  0  0  0  0  0  0
   -2.2140   -4.4710    0.5720 C   0  0  1  0  0  0  0  0  0  0  0  0
   -1.1380   -5.4750    0.4720 C   0  0  0  0  0  0  0  0  0  0  0  0
    0.1270   -5.3200    1.1890 C   0  0  0  0  0  0  0  0  0  0  0  0
    1.0060   -4.1650    0.9210 C   0  0  0  0  0  0  0  0  0  0  0  0
    1.4350   -4.0470   -0.5260 C   0  0  0  0  0  0  0  0  0  0  0  0
    2.2910   -2.8900   -0.7030 N   0  0  0  0  0  0  0  0  0  0  0  0
   -2.9540   -4.4940    1.8410 C   0  0  0  0  0  0  0  0  0  0  0  0
   -3.2290   -3.4350    2.4170 O   0  0  0  0  0  0  0  0  0  0  0  0
   -3.3400   -5.6880    2.3850 O   0  0  0  0  0  0  0  0  0  0  0  0
   -1.3060   -2.5460    0.7360 H   0  0  0  0  0  0  0  0  0  0  0  0
   -3.0020   -4.8200   -0.1960 H   0  0  0  0  0  0  0  0  0  0  0  0
   -1.5740   -6.4790    0.7980 H   0  0  0  0  0  0  0  0  0  0  0  0
   -0.9900   -5.6640   -0.6410 H   0  0  0  0  0  0  0  0  0  0  0  0
    0.7640   -6.2460    0.9960 H   0  0  0  0  0  0  0  0  0  0  0  0
   -0.0370   -5.3620    2.2950 H   0  0  0  0  0  0  0  0  0  0  0  0
    0.7310   -3.2380    1.4110 H   0  0  0  0  0  0  0  0  0  0  0  0
    2.0020   -4.4340    1.4490 H   0  0  0  0  0  0  0  0  0  0  0  0
    0.5180   -3.8790   -1.1250 H   0  0  0  0  0  0  0  0  0  0  0  0
    2.0270   -4.9180   -0.8550 H   0  0  0  0  0  0  0  0  0  0  0  0
    2.2810   -2.2530    0.1140 H   0  0  0  0  0  0  0  0  0  0  0  0
    3.2700   -3.1430   -0.9620 H   0  0  0  0  0  0  0  0  0  0  0  0
  1 16  1  0  0  0  0
  2  1  1  0  0  0  0
  2 17  1  1  0  0  0
  3  2  1  0  0  0  0
  3  4  1  0  0  0  0
  4 12  1  0  0  0  0
  4  5  2  0  0  0  0
  5 20  1  0  0  0  0
  5  6  1  0  0  0  0
  6 21  1  0  0  0  0
  7  8  1  0  0  0  0
  7  6  1  0  0  0  0
  8 22  1  0  0  0  0
  9 23  1  0  0  0  0
  9  8  2  0  0  0  0
 10  9  1  0  0  0  0
 11 10  2  0  0  0  0
 11 12  1  0  0  0  0
 12  7  2  0  0  0  0
 13  2  1  0  0  0  0
 14 13  2  0  0  0  0
 15  1  1  0  0  0  0
 18  3  1  0  0  0  0
 19  3  1  0  0  0  0
 24 10  1  0  0  0  0
 25 11  1  0  0  0  0
 26 27  1  0  0  0  0
 26 34  1  0  0  0  0
 27 29  1  0  0  0  0
 27 28  1  0  0  0  0
 28 39  1  0  0  0  0
 29 42  1  0  0  0  0
 29 30  1  0  0  0  0
 30 43  1  6  0  0  0
 30 32  1  0  0  0  0
 30 31  1  0  0  0  0
 31 44  1  0  0  0  0
 31 13  1  0  0  0  0
 32 45  1  0  0  0  0
 33 32  2  0  0  0  0
 35 26  1  0  0  0  0
 36 26  1  0  0  0  0
 37 27  1  0  0  0  0
 38 28  1  0  0  0  0
 40 28  1  0  0  0  0
 41 29  1  0  0  0  0
 45 46  1  0  0  0  0
 45 55  1  0  0  0  0
 46 56  1  6  0  0  0
 46 52  1  0  0  0  0
 47 46  1  0  0  0  0
 47 57  1  0  0  0  0
 47 48  1  0  0  0  0
 48 60  1  0  0  0  0
 49 48  1  0  0  0  0
 49 61  1  0  0  0  0
 49 62  1  0  0  0  0
 50 49  1  0  0  0  0
 51 50  1  0  0  0  0
 51 65  1  0  0  0  0
 52 54  2  0  0  0  0
 52 53  1  0  0  0  0
 58 47  1  0  0  0  0
 59 48  1  0  0  0  0
 63 50  1  0  0  0  0
 64 50  1  0  0  0  0
 66 51  1  0  0  0  0
M  END
$$$$
