WLM.pdb
 OpenBabel07022419173D

 62 63  0  0  1  0  0  0  0  0999 V2000
    1.5740    2.5200    2.5750 N   0  0  0  0  0  0  0  0  0  0  0  0
    0.9480    1.7970    1.5290 C   0  0  1  0  0  0  0  0  0  0  0  0
    1.9230    0.7730    0.9710 C   0  0  0  0  0  0  0  0  0  0  0  0
    3.1140    1.5130    0.4550 C   0  0  0  0  0  0  0  0  0  0  0  0
    4.3510    1.6140    1.0550 C   0  0  0  0  0  0  0  0  0  0  0  0
    5.1480    2.3640    0.2800 N   0  0  0  0  0  0  0  0  0  0  0  0
    4.4720    2.7620   -0.8170 C   0  0  0  0  0  0  0  0  0  0  0  0
    4.8390    3.5420   -1.9130 C   0  0  0  0  0  0  0  0  0  0  0  0
    3.9520    3.8130   -2.9240 C   0  0  0  0  0  0  0  0  0  0  0  0
    2.6860    3.2790   -2.8070 C   0  0  0  0  0  0  0  0  0  0  0  0
    2.3060    2.5050   -1.7310 C   0  0  0  0  0  0  0  0  0  0  0  0
    3.2020    2.2360   -0.7160 C   0  0  0  0  0  0  0  0  0  0  0  0
   -0.3370    1.1700    1.9140 C   0  0  0  0  0  0  0  0  0  0  0  0
   -0.8090    1.3000    3.0860 O   0  0  0  0  0  0  0  0  0  0  0  0
    1.6330    3.5470    2.4460 H   0  0  0  0  0  0  0  0  0  0  0  0
    1.3710    2.2030    3.5300 H   0  0  0  0  0  0  0  0  0  0  0  0
    0.7250    2.5020    0.6990 H   0  0  0  0  0  0  0  0  0  0  0  0
    2.2010    0.0280    1.7180 H   0  0  0  0  0  0  0  0  0  0  0  0
    1.4080    0.2660    0.1440 H   0  0  0  0  0  0  0  0  0  0  0  0
    4.6320    1.1530    2.0120 H   0  0  0  0  0  0  0  0  0  0  0  0
    6.1480    2.6150    0.4770 H   0  0  0  0  0  0  0  0  0  0  0  0
    5.8340    3.9480   -1.9820 H   0  0  0  0  0  0  0  0  0  0  0  0
    4.1950    4.4170   -3.7990 H   0  0  0  0  0  0  0  0  0  0  0  0
    1.9510    3.4710   -3.5910 H   0  0  0  0  0  0  0  0  0  0  0  0
    1.3200    2.0930   -1.6470 H   0  0  0  0  0  0  0  0  0  0  0  0
   -5.2040    0.0610    2.3890 C   0  0  0  0  0  0  0  0  0  0  0  0
   -4.8540   -0.2960    0.9380 C   0  0  0  0  0  0  0  0  0  0  0  0
   -5.9550    0.3520    0.0940 C   0  0  0  0  0  0  0  0  0  0  0  0
   -3.5110    0.2650    0.5840 C   0  0  0  0  0  0  0  0  0  0  0  0
   -2.3840   -0.2120    1.4250 C   0  0  2  0  0  0  0  0  0  0  0  0
   -1.1170    0.3950    1.0140 N   0  0  0  0  0  0  0  0  0  0  0  0
   -2.2500   -1.7100    1.3450 C   0  0  0  0  0  0  0  0  0  0  0  0
   -3.1760   -2.4690    1.7120 O   0  0  0  0  0  0  0  0  0  0  0  0
   -4.4930   -0.4510    3.0460 H   0  0  0  0  0  0  0  0  0  0  0  0
   -5.1640    1.1590    2.4680 H   0  0  0  0  0  0  0  0  0  0  0  0
   -6.2450   -0.3250    2.5510 H   0  0  0  0  0  0  0  0  0  0  0  0
   -4.9070   -1.3740    0.8240 H   0  0  0  0  0  0  0  0  0  0  0  0
   -6.8050   -0.3390    0.0640 H   0  0  0  0  0  0  0  0  0  0  0  0
   -6.2990    1.2970    0.5500 H   0  0  0  0  0  0  0  0  0  0  0  0
   -5.6260    0.5320   -0.9360 H   0  0  0  0  0  0  0  0  0  0  0  0
   -3.5460    1.3800    0.5640 H   0  0  0  0  0  0  0  0  0  0  0  0
   -3.3120   -0.0700   -0.4800 H   0  0  0  0  0  0  0  0  0  0  0  0
   -2.5580    0.0490    2.4720 H   0  0  0  0  0  0  0  0  0  0  0  0
   -0.7580    0.2690    0.0430 H   0  0  0  0  0  0  0  0  0  0  0  0
    0.9600   -8.0420   -0.6440 C   0  0  0  0  0  0  0  0  0  0  0  0
    0.7900   -6.2770   -0.3400 S   0  0  0  0  0  0  0  0  0  0  0  0
   -0.7600   -5.6060   -0.9030 C   0  0  0  0  0  0  0  0  0  0  0  0
   -0.8840   -4.1600   -0.6430 C   0  0  0  0  0  0  0  0  0  0  0  0
   -0.9370   -3.7430    0.7740 C   0  0  2  0  0  0  0  0  0  0  0  0
   -1.0510   -2.2690    0.8450 N   0  0  0  0  0  0  0  0  0  0  0  0
    0.0920   -4.2000    1.7060 C   0  0  0  0  0  0  0  0  0  0  0  0
    0.3470   -5.3750    2.0510 O   0  0  0  0  0  0  0  0  0  0  0  0
    0.9510   -3.2520    2.3400 O   0  0  0  0  0  0  0  0  0  0  0  0
    1.7120   -8.5200    0.0020 H   0  0  0  0  0  0  0  0  0  0  0  0
    1.1400   -8.2390   -1.7080 H   0  0  0  0  0  0  0  0  0  0  0  0
   -0.0280   -8.5100   -0.3780 H   0  0  0  0  0  0  0  0  0  0  0  0
   -0.8070   -5.7450   -2.0340 H   0  0  0  0  0  0  0  0  0  0  0  0
   -1.6470   -6.1900   -0.5350 H   0  0  0  0  0  0  0  0  0  0  0  0
   -1.8780   -3.8310   -1.0970 H   0  0  0  0  0  0  0  0  0  0  0  0
   -0.0650   -3.6270   -1.2110 H   0  0  0  0  0  0  0  0  0  0  0  0
   -1.9140   -4.1370    1.1800 H   0  0  0  0  0  0  0  0  0  0  0  0
   -0.2450   -1.6740    0.5250 H   0  0  0  0  0  0  0  0  0  0  0  0
  1 16  1  0  0  0  0
  2 17  1  6  0  0  0
  2 13  1  0  0  0  0
  2  1  1  0  0  0  0
  3  2  1  0  0  0  0
  3 18  1  0  0  0  0
  4  3  1  0  0  0  0
  4  5  2  0  0  0  0
  5 20  1  0  0  0  0
  6 21  1  0  0  0  0
  6  5  1  0  0  0  0
  7 12  1  0  0  0  0
  7  6  1  0  0  0  0
  8  7  2  0  0  0  0
  9 10  2  0  0  0  0
  9  8  1  0  0  0  0
 10 11  1  0  0  0  0
 11 25  1  0  0  0  0
 11 12  2  0  0  0  0
 12  4  1  0  0  0  0
 13 14  2  0  0  0  0
 15  1  1  0  0  0  0
 19  3  1  0  0  0  0
 22  8  1  0  0  0  0
 23  9  1  0  0  0  0
 24 10  1  0  0  0  0
 26 35  1  0  0  0  0
 26 36  1  0  0  0  0
 26 34  1  0  0  0  0
 27 26  1  0  0  0  0
 28 39  1  0  0  0  0
 28 27  1  0  0  0  0
 29 27  1  0  0  0  0
 29 30  1  0  0  0  0
 30 43  1  1  0  0  0
 31 30  1  0  0  0  0
 31 13  1  0  0  0  0
 32 30  1  0  0  0  0
 32 33  2  0  0  0  0
 37 27  1  0  0  0  0
 38 28  1  0  0  0  0
 40 28  1  0  0  0  0
 41 29  1  0  0  0  0
 42 29  1  0  0  0  0
 44 31  1  0  0  0  0
 45 56  1  0  0  0  0
 45 46  1  0  0  0  0
 45 54  1  0  0  0  0
 47 48  1  0  0  0  0
 47 58  1  0  0  0  0
 47 46  1  0  0  0  0
 48 49  1  0  0  0  0
 49 50  1  0  0  0  0
 49 61  1  1  0  0  0
 49 51  1  0  0  0  0
 50 32  1  0  0  0  0
 51 52  2  0  0  0  0
 51 53  1  0  0  0  0
 55 45  1  0  0  0  0
 57 47  1  0  0  0  0
 59 48  1  0  0  0  0
 60 48  1  0  0  0  0
 62 50  1  0  0  0  0
M  END
$$$$
