WLN.pdb
 OpenBabel07022419173D

 59 60  0  0  1  0  0  0  0  0999 V2000
    1.0330    2.7970   -0.3340 N   0  0  0  0  0  0  0  0  0  0  0  0
    2.2390    1.9550   -0.5040 C   0  0  1  0  0  0  0  0  0  0  0  0
    3.2020    2.3000    0.5920 C   0  0  0  0  0  0  0  0  0  0  0  0
    2.7470    2.1130    1.9610 C   0  0  0  0  0  0  0  0  0  0  0  0
    2.1420    3.1000    2.7600 C   0  0  0  0  0  0  0  0  0  0  0  0
    1.8050    2.5980    3.9510 N   0  0  0  0  0  0  0  0  0  0  0  0
    2.1730    1.2980    3.9630 C   0  0  0  0  0  0  0  0  0  0  0  0
    2.0470    0.3620    4.9700 C   0  0  0  0  0  0  0  0  0  0  0  0
    2.5020   -0.9210    4.7930 C   0  0  0  0  0  0  0  0  0  0  0  0
    3.0850   -1.2290    3.5740 C   0  0  0  0  0  0  0  0  0  0  0  0
    3.2130   -0.3100    2.5710 C   0  0  0  0  0  0  0  0  0  0  0  0
    2.7600    0.9690    2.7440 C   0  0  0  0  0  0  0  0  0  0  0  0
    1.8260    0.5470   -0.4440 C   0  0  0  0  0  0  0  0  0  0  0  0
    2.6540   -0.3720   -0.7310 O   0  0  0  0  0  0  0  0  0  0  0  0
    0.3770    2.5500   -1.0930 H   0  0  0  0  0  0  0  0  0  0  0  0
    1.3270    3.7990   -0.3370 H   0  0  0  0  0  0  0  0  0  0  0  0
    2.7250    2.2130   -1.4780 H   0  0  0  0  0  0  0  0  0  0  0  0
    3.5130    3.3820    0.4720 H   0  0  0  0  0  0  0  0  0  0  0  0
    4.1670    1.7430    0.4850 H   0  0  0  0  0  0  0  0  0  0  0  0
    1.9890    4.1120    2.4220 H   0  0  0  0  0  0  0  0  0  0  0  0
    1.3430    3.0950    4.7400 H   0  0  0  0  0  0  0  0  0  0  0  0
    1.5950    0.5930    5.9240 H   0  0  0  0  0  0  0  0  0  0  0  0
    2.4140   -1.6710    5.5710 H   0  0  0  0  0  0  0  0  0  0  0  0
    3.4340   -2.2640    3.4770 H   0  0  0  0  0  0  0  0  0  0  0  0
    3.6850   -0.5790    1.6530 H   0  0  0  0  0  0  0  0  0  0  0  0
   -1.2390    0.3000    2.4470 C   0  0  0  0  0  0  0  0  0  0  0  0
   -1.3570   -1.1560    2.0880 C   0  0  0  0  0  0  0  0  0  0  0  0
   -2.7500   -1.4960    1.6240 C   0  0  0  0  0  0  0  0  0  0  0  0
   -0.2550   -1.7400    1.3130 C   0  0  0  0  0  0  0  0  0  0  0  0
    0.1080   -1.2180   -0.0130 C   0  0  2  0  0  0  0  0  0  0  0  0
    0.5020    0.1510   -0.0700 N   0  0  0  0  0  0  0  0  0  0  0  0
   -0.8390   -1.5840   -1.1030 C   0  0  0  0  0  0  0  0  0  0  0  0
   -1.2000   -0.7110   -1.9690 O   0  0  0  0  0  0  0  0  0  0  0  0
   -0.2160    0.6640    2.5000 H   0  0  0  0  0  0  0  0  0  0  0  0
   -1.8980    0.8950    1.7620 H   0  0  0  0  0  0  0  0  0  0  0  0
   -1.6770    0.5130    3.4700 H   0  0  0  0  0  0  0  0  0  0  0  0
   -1.3000   -1.6840    3.1020 H   0  0  0  0  0  0  0  0  0  0  0  0
   -3.5270   -1.0330    2.2950 H   0  0  0  0  0  0  0  0  0  0  0  0
   -2.9040   -1.0530    0.6270 H   0  0  0  0  0  0  0  0  0  0  0  0
   -2.9630   -2.5630    1.6120 H   0  0  0  0  0  0  0  0  0  0  0  0
    0.6440   -1.8120    2.0050 H   0  0  0  0  0  0  0  0  0  0  0  0
   -0.5090   -2.8370    1.1720 H   0  0  0  0  0  0  0  0  0  0  0  0
    1.0500   -1.8110   -0.2970 H   0  0  0  0  0  0  0  0  0  0  0  0
   -0.1320    0.9650    0.1460 H   0  0  0  0  0  0  0  0  0  0  0  0
   -2.6300   -3.7640   -5.6020 N   0  0  0  0  0  0  0  0  0  0  0  0
   -2.6940   -4.5140   -4.3790 C   0  0  0  0  0  0  0  0  0  0  0  0
   -3.6040   -5.4120   -4.3330 O   0  0  0  0  0  0  0  0  0  0  0  0
   -1.7670   -4.2570   -3.2580 C   0  0  0  0  0  0  0  0  0  0  0  0
   -2.3180   -3.1460   -2.3960 C   0  0  2  0  0  0  0  0  0  0  0  0
   -1.4060   -2.8740   -1.2820 N   0  0  0  0  0  0  0  0  0  0  0  0
   -3.6520   -3.5340   -1.9230 C   0  0  0  0  0  0  0  0  0  0  0  0
   -3.8570   -3.6660   -0.6810 O   0  0  0  0  0  0  0  0  0  0  0  0
   -4.7520   -3.7790   -2.7270 O   0  0  0  0  0  0  0  0  0  0  0  0
   -3.4250   -3.7550   -6.2730 H   0  0  0  0  0  0  0  0  0  0  0  0
   -1.7600   -3.2030   -5.8360 H   0  0  0  0  0  0  0  0  0  0  0  0
   -1.7120   -5.2090   -2.6830 H   0  0  0  0  0  0  0  0  0  0  0  0
   -0.7720   -3.9580   -3.6510 H   0  0  0  0  0  0  0  0  0  0  0  0
   -2.4040   -2.2470   -3.0040 H   0  0  0  0  0  0  0  0  0  0  0  0
   -1.1610   -3.6280   -0.6060 H   0  0  0  0  0  0  0  0  0  0  0  0
  2 17  1  6  0  0  0
  2 13  1  0  0  0  0
  2  1  1  0  0  0  0
  2  3  1  0  0  0  0
  3  4  1  0  0  0  0
  4 12  1  0  0  0  0
  4  5  2  0  0  0  0
  5  6  1  0  0  0  0
  6  7  1  0  0  0  0
  6 21  1  0  0  0  0
  7  8  1  0  0  0  0
  8 22  1  0  0  0  0
  9  8  2  0  0  0  0
  9 23  1  0  0  0  0
 10  9  1  0  0  0  0
 11 12  1  0  0  0  0
 11 10  2  0  0  0  0
 12  7  2  0  0  0  0
 13 31  1  0  0  0  0
 14 13  2  0  0  0  0
 15  1  1  0  0  0  0
 16  1  1  0  0  0  0
 18  3  1  0  0  0  0
 19  3  1  0  0  0  0
 20  5  1  0  0  0  0
 24 10  1  0  0  0  0
 25 11  1  0  0  0  0
 26 34  1  0  0  0  0
 26 36  1  0  0  0  0
 27 26  1  0  0  0  0
 27 37  1  0  0  0  0
 28 27  1  0  0  0  0
 28 38  1  0  0  0  0
 29 41  1  0  0  0  0
 29 27  1  0  0  0  0
 30 43  1  6  0  0  0
 30 29  1  0  0  0  0
 31 30  1  0  0  0  0
 31 44  1  0  0  0  0
 32 30  1  0  0  0  0
 33 32  2  0  0  0  0
 35 26  1  0  0  0  0
 39 28  1  0  0  0  0
 40 28  1  0  0  0  0
 42 29  1  0  0  0  0
 45 46  1  0  0  0  0
 46 47  2  0  0  0  0
 46 48  1  0  0  0  0
 48 56  1  0  0  0  0
 48 49  1  0  0  0  0
 49 58  1  6  0  0  0
 49 51  1  0  0  0  0
 49 50  1  0  0  0  0
 50 32  1  0  0  0  0
 50 59  1  0  0  0  0
 51 52  1  0  0  0  0
 53 51  2  0  0  0  0
 54 45  1  0  0  0  0
 55 45  1  0  0  0  0
 57 48  1  0  0  0  0
M  END
$$$$
