WLS.pdb
 OpenBabel07022419173D

 56 57  0  0  1  0  0  0  0  0999 V2000
    1.3030   -0.6820   -0.4500 N   0  0  0  0  0  0  0  0  0  0  0  0
    0.9160   -0.0470    0.7950 C   0  0  1  0  0  0  0  0  0  0  0  0
    1.2910    1.4240    0.7590 C   0  0  0  0  0  0  0  0  0  0  0  0
    2.7570    1.5610    0.5750 C   0  0  0  0  0  0  0  0  0  0  0  0
    3.4020    1.8940   -0.5990 C   0  0  0  0  0  0  0  0  0  0  0  0
    4.7290    1.9210   -0.3900 N   0  0  0  0  0  0  0  0  0  0  0  0
    5.0150    1.6160    0.8950 C   0  0  0  0  0  0  0  0  0  0  0  0
    6.1880    1.5100    1.6110 C   0  0  0  0  0  0  0  0  0  0  0  0
    6.1660    1.1770    2.9450 C   0  0  0  0  0  0  0  0  0  0  0  0
    4.9410    0.9560    3.5360 C   0  0  0  0  0  0  0  0  0  0  0  0
    3.7740    1.0610    2.8250 C   0  0  0  0  0  0  0  0  0  0  0  0
    3.7740    1.3920    1.4910 C   0  0  0  0  0  0  0  0  0  0  0  0
   -0.5150   -0.2510    1.0560 C   0  0  0  0  0  0  0  0  0  0  0  0
   -1.1160    0.1630    2.0790 O   0  0  0  0  0  0  0  0  0  0  0  0
    1.0860   -1.7010   -0.4070 H   0  0  0  0  0  0  0  0  0  0  0  0
    0.7630   -0.2390   -1.2220 H   0  0  0  0  0  0  0  0  0  0  0  0
    1.4830   -0.5670    1.5960 H   0  0  0  0  0  0  0  0  0  0  0  0
    0.7850    1.8760   -0.1430 H   0  0  0  0  0  0  0  0  0  0  0  0
    0.9610    1.9470    1.6740 H   0  0  0  0  0  0  0  0  0  0  0  0
    2.9730    2.1130   -1.5760 H   0  0  0  0  0  0  0  0  0  0  0  0
    5.4670    2.1420   -1.0980 H   0  0  0  0  0  0  0  0  0  0  0  0
    7.1500    1.6820    1.1530 H   0  0  0  0  0  0  0  0  0  0  0  0
    7.1010    1.0910    3.5220 H   0  0  0  0  0  0  0  0  0  0  0  0
    4.9220    0.6970    4.5820 H   0  0  0  0  0  0  0  0  0  0  0  0
    2.7920    0.8880    3.2840 H   0  0  0  0  0  0  0  0  0  0  0  0
   -3.9160    1.6090    0.3220 C   0  0  0  0  0  0  0  0  0  0  0  0
   -3.5420    0.8530   -0.9120 C   0  0  0  0  0  0  0  0  0  0  0  0
   -4.4670    1.3300   -2.0220 C   0  0  0  0  0  0  0  0  0  0  0  0
   -3.6100   -0.6550   -0.7550 C   0  0  0  0  0  0  0  0  0  0  0  0
   -2.7150   -1.1980    0.2960 C   0  0  2  0  0  0  0  0  0  0  0  0
   -1.3190   -0.9510    0.1310 N   0  0  0  0  0  0  0  0  0  0  0  0
   -2.9160   -2.6710    0.3500 C   0  0  0  0  0  0  0  0  0  0  0  0
   -4.0520   -3.1960    0.5120 O   0  0  0  0  0  0  0  0  0  0  0  0
   -4.9340    2.0940    0.2220 H   0  0  0  0  0  0  0  0  0  0  0  0
   -3.8070    1.0790    1.2660 H   0  0  0  0  0  0  0  0  0  0  0  0
   -3.2320    2.5040    0.3940 H   0  0  0  0  0  0  0  0  0  0  0  0
   -2.5210    1.1730   -1.2260 H   0  0  0  0  0  0  0  0  0  0  0  0
   -4.3320    0.6840   -2.9230 H   0  0  0  0  0  0  0  0  0  0  0  0
   -5.5290    1.2500   -1.7330 H   0  0  0  0  0  0  0  0  0  0  0  0
   -4.2550    2.3520   -2.3340 H   0  0  0  0  0  0  0  0  0  0  0  0
   -3.5680   -1.1720   -1.7290 H   0  0  0  0  0  0  0  0  0  0  0  0
   -4.6690   -0.8500   -0.3930 H   0  0  0  0  0  0  0  0  0  0  0  0
   -3.0260   -0.7840    1.2740 H   0  0  0  0  0  0  0  0  0  0  0  0
   -0.8820   -1.3240   -0.7410 H   0  0  0  0  0  0  0  0  0  0  0  0
   -0.4720   -5.4180   -1.5400 O   0  0  0  0  0  0  0  0  0  0  0  0
   -1.7550   -5.6420   -1.0990 C   0  0  0  0  0  0  0  0  0  0  0  0
   -2.0190   -5.0070    0.2720 C   0  0  2  0  0  0  0  0  0  0  0  0
   -1.8270   -3.5870    0.2210 N   0  0  0  0  0  0  0  0  0  0  0  0
   -1.1210   -5.6690    1.2340 C   0  0  0  0  0  0  0  0  0  0  0  0
   -1.1100   -6.8960    1.4530 O   0  0  0  0  0  0  0  0  0  0  0  0
   -0.2320   -4.8440    1.9370 O   0  0  0  0  0  0  0  0  0  0  0  0
   -0.3660   -5.4020   -2.5040 H   0  0  0  0  0  0  0  0  0  0  0  0
   -2.5380   -5.3310   -1.8120 H   0  0  0  0  0  0  0  0  0  0  0  0
   -1.8820   -6.7400   -0.9500 H   0  0  0  0  0  0  0  0  0  0  0  0
   -3.1010   -5.2370    0.4690 H   0  0  0  0  0  0  0  0  0  0  0  0
   -0.8710   -3.1920    0.0850 H   0  0  0  0  0  0  0  0  0  0  0  0
  1 15  1  0  0  0  0
  1  2  1  0  0  0  0
  2 13  1  0  0  0  0
  2 17  1  1  0  0  0
  3  2  1  0  0  0  0
  3 19  1  0  0  0  0
  4  3  1  0  0  0  0
  4 12  1  0  0  0  0
  5  6  1  0  0  0  0
  5  4  2  0  0  0  0
  6  7  1  0  0  0  0
  7 12  2  0  0  0  0
  7  8  1  0  0  0  0
  8  9  2  0  0  0  0
  9 23  1  0  0  0  0
  9 10  1  0  0  0  0
 10 24  1  0  0  0  0
 11 25  1  0  0  0  0
 11 10  2  0  0  0  0
 12 11  1  0  0  0  0
 13 14  2  0  0  0  0
 16  1  1  0  0  0  0
 18  3  1  0  0  0  0
 20  5  1  0  0  0  0
 21  6  1  0  0  0  0
 22  8  1  0  0  0  0
 26 36  1  0  0  0  0
 26 35  1  0  0  0  0
 27 29  1  0  0  0  0
 27 26  1  0  0  0  0
 28 39  1  0  0  0  0
 28 27  1  0  0  0  0
 29 42  1  0  0  0  0
 29 30  1  0  0  0  0
 30 32  1  0  0  0  0
 30 43  1  1  0  0  0
 31 30  1  0  0  0  0
 31 13  1  0  0  0  0
 32 33  2  0  0  0  0
 34 26  1  0  0  0  0
 37 27  1  0  0  0  0
 38 28  1  0  0  0  0
 40 28  1  0  0  0  0
 41 29  1  0  0  0  0
 44 31  1  0  0  0  0
 45 46  1  0  0  0  0
 46 54  1  0  0  0  0
 46 47  1  0  0  0  0
 47 55  1  1  0  0  0
 47 49  1  0  0  0  0
 48 47  1  0  0  0  0
 48 32  1  0  0  0  0
 49 50  2  0  0  0  0
 49 51  1  0  0  0  0
 52 45  1  0  0  0  0
 53 46  1  0  0  0  0
 56 48  1  0  0  0  0
M  END
$$$$
