WLT.pdb
 OpenBabel07022419173D

 59 60  0  0  1  0  0  0  0  0999 V2000
    2.3470   -1.2770   -0.4010 N   0  0  0  0  0  0  0  0  0  0  0  0
    2.4310   -1.7320    0.9540 C   0  0  1  0  0  0  0  0  0  0  0  0
    3.4730   -1.0760    1.7870 C   0  0  0  0  0  0  0  0  0  0  0  0
    3.3520    0.3780    1.9510 C   0  0  0  0  0  0  0  0  0  0  0  0
    2.8180    1.0710    3.0510 C   0  0  0  0  0  0  0  0  0  0  0  0
    2.8670    2.3930    2.8140 N   0  0  0  0  0  0  0  0  0  0  0  0
    3.4100    2.6270    1.6070 C   0  0  0  0  0  0  0  0  0  0  0  0
    3.6920    3.7660    0.8910 C   0  0  0  0  0  0  0  0  0  0  0  0
    4.2720    3.7480   -0.3600 C   0  0  0  0  0  0  0  0  0  0  0  0
    4.5780    2.5200   -0.9040 C   0  0  0  0  0  0  0  0  0  0  0  0
    4.2930    1.3690   -0.1830 C   0  0  0  0  0  0  0  0  0  0  0  0
    3.7120    1.3760    1.0690 C   0  0  0  0  0  0  0  0  0  0  0  0
    1.0680   -1.6460    1.5380 C   0  0  0  0  0  0  0  0  0  0  0  0
    0.8680   -1.9830    2.7520 O   0  0  0  0  0  0  0  0  0  0  0  0
    1.9670   -0.3300   -0.4630 H   0  0  0  0  0  0  0  0  0  0  0  0
    1.9390   -1.9740   -1.0370 H   0  0  0  0  0  0  0  0  0  0  0  0
    2.7210   -2.8230    0.8940 H   0  0  0  0  0  0  0  0  0  0  0  0
    3.4820   -1.5340    2.8040 H   0  0  0  0  0  0  0  0  0  0  0  0
    4.4690   -1.3640    1.3470 H   0  0  0  0  0  0  0  0  0  0  0  0
    2.4380    0.5560    3.9310 H   0  0  0  0  0  0  0  0  0  0  0  0
    2.5430    3.1600    3.4470 H   0  0  0  0  0  0  0  0  0  0  0  0
    3.4630    4.7590    1.2940 H   0  0  0  0  0  0  0  0  0  0  0  0
    4.4840    4.6720   -0.9050 H   0  0  0  0  0  0  0  0  0  0  0  0
    5.0350    2.4160   -1.8830 H   0  0  0  0  0  0  0  0  0  0  0  0
    4.5340    0.3780   -0.5910 H   0  0  0  0  0  0  0  0  0  0  0  0
   -3.3930    0.5460    3.1890 C   0  0  0  0  0  0  0  0  0  0  0  0
   -3.1610    0.7300    1.7060 C   0  0  0  0  0  0  0  0  0  0  0  0
   -4.3730    0.3650    0.9420 C   0  0  0  0  0  0  0  0  0  0  0  0
   -1.8460    0.2820    1.2280 C   0  0  0  0  0  0  0  0  0  0  0  0
   -1.4150   -1.1170    1.4110 C   0  0  2  0  0  0  0  0  0  0  0  0
   -0.0620   -1.2010    0.8210 N   0  0  0  0  0  0  0  0  0  0  0  0
   -2.3010   -2.0930    0.7480 C   0  0  0  0  0  0  0  0  0  0  0  0
   -3.4890   -2.3200    1.0920 O   0  0  0  0  0  0  0  0  0  0  0  0
   -4.4830    0.6620    3.3620 H   0  0  0  0  0  0  0  0  0  0  0  0
   -2.8650    1.2990    3.7780 H   0  0  0  0  0  0  0  0  0  0  0  0
   -3.1220   -0.4670    3.5450 H   0  0  0  0  0  0  0  0  0  0  0  0
   -3.1060    1.8870    1.6190 H   0  0  0  0  0  0  0  0  0  0  0  0
   -4.2080   -0.0160   -0.0870 H   0  0  0  0  0  0  0  0  0  0  0  0
   -5.1250   -0.2500    1.5210 H   0  0  0  0  0  0  0  0  0  0  0  0
   -4.9720    1.3170    0.7540 H   0  0  0  0  0  0  0  0  0  0  0  0
   -1.0750    1.0050    1.6560 H   0  0  0  0  0  0  0  0  0  0  0  0
   -1.8020    0.5480    0.1230 H   0  0  0  0  0  0  0  0  0  0  0  0
   -1.2760   -1.4250    2.4670 H   0  0  0  0  0  0  0  0  0  0  0  0
    0.0400   -0.9130   -0.1650 H   0  0  0  0  0  0  0  0  0  0  0  0
   -1.5160   -3.1990   -3.2430 C   0  0  0  0  0  0  0  0  0  0  0  0
   -2.8050   -3.4120   -2.5170 C   0  0  1  0  0  0  0  0  0  0  0  0
   -3.5940   -4.3730   -3.1290 O   0  0  0  0  0  0  0  0  0  0  0  0
   -2.6140   -3.8250   -1.0700 C   0  0  2  0  0  0  0  0  0  0  0  0
   -1.7890   -2.8490   -0.3740 N   0  0  0  0  0  0  0  0  0  0  0  0
   -1.9390   -5.1410   -1.0110 C   0  0  0  0  0  0  0  0  0  0  0  0
   -2.4900   -6.1300   -1.5570 O   0  0  0  0  0  0  0  0  0  0  0  0
   -0.7240   -5.3610   -0.3870 O   0  0  0  0  0  0  0  0  0  0  0  0
   -1.3440   -2.1110   -3.3970 H   0  0  0  0  0  0  0  0  0  0  0  0
   -1.5950   -3.6560   -4.2660 H   0  0  0  0  0  0  0  0  0  0  0  0
   -0.6480   -3.6030   -2.6900 H   0  0  0  0  0  0  0  0  0  0  0  0
   -3.4110   -2.4700   -2.5070 H   0  0  0  0  0  0  0  0  0  0  0  0
   -3.1110   -4.6750   -3.9450 H   0  0  0  0  0  0  0  0  0  0  0  0
   -3.6230   -3.8920   -0.6300 H   0  0  0  0  0  0  0  0  0  0  0  0
   -0.8120   -2.6740   -0.6690 H   0  0  0  0  0  0  0  0  0  0  0  0
  1  2  1  0  0  0  0
  2 17  1  6  0  0  0
  2 13  1  0  0  0  0
  2  3  1  0  0  0  0
  3  4  1  0  0  0  0
  3 18  1  0  0  0  0
  4  5  2  0  0  0  0
  5 20  1  0  0  0  0
  6  5  1  0  0  0  0
  6 21  1  0  0  0  0
  7  6  1  0  0  0  0
  8 22  1  0  0  0  0
  8  7  2  0  0  0  0
  9  8  1  0  0  0  0
 10  9  2  0  0  0  0
 10 11  1  0  0  0  0
 11 12  2  0  0  0  0
 12  7  1  0  0  0  0
 12  4  1  0  0  0  0
 13 14  2  0  0  0  0
 15  1  1  0  0  0  0
 16  1  1  0  0  0  0
 19  3  1  0  0  0  0
 23  9  1  0  0  0  0
 24 10  1  0  0  0  0
 25 11  1  0  0  0  0
 26 34  1  0  0  0  0
 26 36  1  0  0  0  0
 26 35  1  0  0  0  0
 27 26  1  0  0  0  0
 28 39  1  0  0  0  0
 28 27  1  0  0  0  0
 29 30  1  0  0  0  0
 29 41  1  0  0  0  0
 29 27  1  0  0  0  0
 30 43  1  1  0  0  0
 31 30  1  0  0  0  0
 31 13  1  0  0  0  0
 32 33  2  0  0  0  0
 32 30  1  0  0  0  0
 37 27  1  0  0  0  0
 38 28  1  0  0  0  0
 40 28  1  0  0  0  0
 42 29  1  0  0  0  0
 44 31  1  0  0  0  0
 45 55  1  0  0  0  0
 45 46  1  0  0  0  0
 46 56  1  6  0  0  0
 46 48  1  0  0  0  0
 47 46  1  0  0  0  0
 48 50  1  0  0  0  0
 48 58  1  1  0  0  0
 48 49  1  0  0  0  0
 49 32  1  0  0  0  0
 50 52  1  0  0  0  0
 51 50  2  0  0  0  0
 53 45  1  0  0  0  0
 54 45  1  0  0  0  0
 57 47  1  0  0  0  0
 59 49  1  0  0  0  0
M  END
$$$$
