WLW.pdb
 OpenBabel07022419173D

 69 72  0  0  1  0  0  0  0  0999 V2000
    3.0690    0.5920    0.9260 N   0  0  0  0  0  0  0  0  0  0  0  0
    3.2100   -0.4990    1.8640 C   0  0  1  0  0  0  0  0  0  0  0  0
    3.6160   -0.0820    3.2410 C   0  0  0  0  0  0  0  0  0  0  0  0
    2.7170    0.8250    3.9370 C   0  0  0  0  0  0  0  0  0  0  0  0
    1.7970    0.4700    4.9020 C   0  0  0  0  0  0  0  0  0  0  0  0
    1.1230    1.5630    5.3170 N   0  0  0  0  0  0  0  0  0  0  0  0
    1.5790    2.6410    4.6450 C   0  0  0  0  0  0  0  0  0  0  0  0
    1.2520    3.9740    4.6780 C   0  0  0  0  0  0  0  0  0  0  0  0
    1.8890    4.8950    3.8710 C   0  0  0  0  0  0  0  0  0  0  0  0
    2.8720    4.4370    3.0230 C   0  0  0  0  0  0  0  0  0  0  0  0
    3.1990    3.1030    2.9890 C   0  0  0  0  0  0  0  0  0  0  0  0
    2.5790    2.1840    3.7790 C   0  0  0  0  0  0  0  0  0  0  0  0
    2.0060   -1.3500    1.8470 C   0  0  0  0  0  0  0  0  0  0  0  0
    1.8620   -2.3850    2.5330 O   0  0  0  0  0  0  0  0  0  0  0  0
    4.0560    0.9730    0.8060 H   0  0  0  0  0  0  0  0  0  0  0  0
    2.8740    0.1350   -0.0110 H   0  0  0  0  0  0  0  0  0  0  0  0
    4.0690   -1.1190    1.4670 H   0  0  0  0  0  0  0  0  0  0  0  0
    4.6550    0.3540    3.1340 H   0  0  0  0  0  0  0  0  0  0  0  0
    3.8050   -1.0370    3.8110 H   0  0  0  0  0  0  0  0  0  0  0  0
    1.6170   -0.5220    5.2900 H   0  0  0  0  0  0  0  0  0  0  0  0
    0.3690    1.6080    6.0350 H   0  0  0  0  0  0  0  0  0  0  0  0
    0.4830    4.3500    5.3380 H   0  0  0  0  0  0  0  0  0  0  0  0
    1.6590    5.9380    3.8710 H   0  0  0  0  0  0  0  0  0  0  0  0
    3.3770    5.1520    2.3860 H   0  0  0  0  0  0  0  0  0  0  0  0
    3.9690    2.8070    2.3210 H   0  0  0  0  0  0  0  0  0  0  0  0
   -2.5640   -3.1230    2.2370 C   0  0  0  0  0  0  0  0  0  0  0  0
   -2.7210   -1.9200    1.3090 C   0  0  0  0  0  0  0  0  0  0  0  0
   -3.9330   -1.1660    1.8730 C   0  0  0  0  0  0  0  0  0  0  0  0
   -1.4940   -1.0580    1.3610 C   0  0  0  0  0  0  0  0  0  0  0  0
   -0.2950   -1.8110    0.9530 C   0  0  2  0  0  0  0  0  0  0  0  0
    0.9250   -1.0040    1.0110 N   0  0  0  0  0  0  0  0  0  0  0  0
   -0.4390   -2.4020   -0.4010 C   0  0  0  0  0  0  0  0  0  0  0  0
   -1.3400   -3.1890   -0.7500 O   0  0  0  0  0  0  0  0  0  0  0  0
   -2.1870   -2.6950    3.2010 H   0  0  0  0  0  0  0  0  0  0  0  0
   -3.5520   -3.5930    2.3760 H   0  0  0  0  0  0  0  0  0  0  0  0
   -1.7930   -3.8040    1.8790 H   0  0  0  0  0  0  0  0  0  0  0  0
   -3.0340   -2.2810    0.3420 H   0  0  0  0  0  0  0  0  0  0  0  0
   -4.7650   -1.8940    1.8480 H   0  0  0  0  0  0  0  0  0  0  0  0
   -3.6570   -0.8800    2.8940 H   0  0  0  0  0  0  0  0  0  0  0  0
   -4.1150   -0.3240    1.1910 H   0  0  0  0  0  0  0  0  0  0  0  0
   -1.6400   -0.1360    0.7190 H   0  0  0  0  0  0  0  0  0  0  0  0
   -1.4240   -0.7260    2.4400 H   0  0  0  0  0  0  0  0  0  0  0  0
   -0.1360   -2.6430    1.6640 H   0  0  0  0  0  0  0  0  0  0  0  0
    0.9140   -0.1670    0.3890 H   0  0  0  0  0  0  0  0  0  0  0  0
    0.5080   -2.0780   -1.4460 N   0  0  0  0  0  0  0  0  0  0  0  0
    0.3840   -2.6430   -2.7700 C   0  0  1  0  0  0  0  0  0  0  0  0
    0.1500   -1.5910   -3.8370 C   0  0  0  0  0  0  0  0  0  0  0  0
   -1.1020   -0.8860   -3.4990 C   0  0  0  0  0  0  0  0  0  0  0  0
   -1.2180    0.3870   -2.9420 C   0  0  0  0  0  0  0  0  0  0  0  0
   -2.5230    0.6760   -2.7840 N   0  0  0  0  0  0  0  0  0  0  0  0
   -3.2880   -0.3620   -3.2160 C   0  0  0  0  0  0  0  0  0  0  0  0
   -4.6550   -0.5380   -3.2580 C   0  0  0  0  0  0  0  0  0  0  0  0
   -5.1250   -1.7290   -3.7650 C   0  0  0  0  0  0  0  0  0  0  0  0
   -4.2570   -2.7070   -4.2130 C   0  0  0  0  0  0  0  0  0  0  0  0
   -2.8980   -2.5200   -4.1660 C   0  0  0  0  0  0  0  0  0  0  0  0
   -2.3950   -1.3310   -3.6610 C   0  0  0  0  0  0  0  0  0  0  0  0
    1.5410   -3.5110   -3.1110 C   0  0  0  0  0  0  0  0  0  0  0  0
    2.5040   -3.7180   -2.3310 O   0  0  0  0  0  0  0  0  0  0  0  0
    1.5760   -4.1330   -4.3500 O   0  0  0  0  0  0  0  0  0  0  0  0
    1.2980   -1.4150   -1.2180 H   0  0  0  0  0  0  0  0  0  0  0  0
   -0.5100   -3.2970   -2.7740 H   0  0  0  0  0  0  0  0  0  0  0  0
    0.9980   -0.9180   -3.9740 H   0  0  0  0  0  0  0  0  0  0  0  0
   -0.0040   -2.1300   -4.7890 H   0  0  0  0  0  0  0  0  0  0  0  0
   -0.3480    0.9850   -2.7030 H   0  0  0  0  0  0  0  0  0  0  0  0
   -2.9000    1.5610   -2.3880 H   0  0  0  0  0  0  0  0  0  0  0  0
   -5.3460    0.2180   -2.9120 H   0  0  0  0  0  0  0  0  0  0  0  0
   -6.1930   -1.9510   -3.8350 H   0  0  0  0  0  0  0  0  0  0  0  0
   -4.6240   -3.6540   -4.6160 H   0  0  0  0  0  0  0  0  0  0  0  0
   -2.1800   -3.2510   -4.5020 H   0  0  0  0  0  0  0  0  0  0  0  0
  1  2  1  0  0  0  0
  2 17  1  6  0  0  0
  2  3  1  0  0  0  0
  3 19  1  0  0  0  0
  3  4  1  0  0  0  0
  4  5  2  0  0  0  0
  5 20  1  0  0  0  0
  5  6  1  0  0  0  0
  6 21  1  0  0  0  0
  7  8  1  0  0  0  0
  7  6  1  0  0  0  0
  8 22  1  0  0  0  0
  9 23  1  0  0  0  0
  9  8  2  0  0  0  0
 10  9  1  0  0  0  0
 11 10  2  0  0  0  0
 11 12  1  0  0  0  0
 12  4  1  0  0  0  0
 12  7  2  0  0  0  0
 13  2  1  0  0  0  0
 13 14  2  0  0  0  0
 15  1  1  0  0  0  0
 16  1  1  0  0  0  0
 18  3  1  0  0  0  0
 24 10  1  0  0  0  0
 25 11  1  0  0  0  0
 26 35  1  0  0  0  0
 26 34  1  0  0  0  0
 27 29  1  0  0  0  0
 27 28  1  0  0  0  0
 27 26  1  0  0  0  0
 28 39  1  0  0  0  0
 29 42  1  0  0  0  0
 30 31  1  0  0  0  0
 30 29  1  0  0  0  0
 30 43  1  1  0  0  0
 31 13  1  0  0  0  0
 32 30  1  0  0  0  0
 33 32  2  0  0  0  0
 36 26  1  0  0  0  0
 37 27  1  0  0  0  0
 38 28  1  0  0  0  0
 40 28  1  0  0  0  0
 41 29  1  0  0  0  0
 44 31  1  0  0  0  0
 45 60  1  0  0  0  0
 45 32  1  0  0  0  0
 46 61  1  1  0  0  0
 46 45  1  0  0  0  0
 47 48  1  0  0  0  0
 47 46  1  0  0  0  0
 48 49  2  0  0  0  0
 49 50  1  0  0  0  0
 49 64  1  0  0  0  0
 50 65  1  0  0  0  0
 51 50  1  0  0  0  0
 52 51  1  0  0  0  0
 52 66  1  0  0  0  0
 53 52  2  0  0  0  0
 54 55  2  0  0  0  0
 54 53  1  0  0  0  0
 55 56  1  0  0  0  0
 56 48  1  0  0  0  0
 56 51  2  0  0  0  0
 57 46  1  0  0  0  0
 57 58  1  0  0  0  0
 59 57  2  0  0  0  0
 62 47  1  0  0  0  0
 63 47  1  0  0  0  0
 67 53  1  0  0  0  0
 68 54  1  0  0  0  0
 69 55  1  0  0  0  0
M  END
$$$$
