WMC.pdb
 OpenBabel07022419183D

 54 55  0  0  1  0  0  0  0  0999 V2000
    1.3680   -1.1260    0.0900 N   0  0  0  0  0  0  0  0  0  0  0  0
    0.9680    0.1590    0.6450 C   0  0  1  0  0  0  0  0  0  0  0  0
    1.3820    1.2390   -0.3040 C   0  0  0  0  0  0  0  0  0  0  0  0
    2.8650    1.2110   -0.4590 C   0  0  0  0  0  0  0  0  0  0  0  0
    3.6160    0.6320   -1.4650 C   0  0  0  0  0  0  0  0  0  0  0  0
    4.9420    0.8240   -1.2210 N   0  0  0  0  0  0  0  0  0  0  0  0
    5.0840    1.5130   -0.0790 C   0  0  0  0  0  0  0  0  0  0  0  0
    6.1820    1.9860    0.6230 C   0  0  0  0  0  0  0  0  0  0  0  0
    6.0780    2.6940    1.7880 C   0  0  0  0  0  0  0  0  0  0  0  0
    4.8110    2.9360    2.2690 C   0  0  0  0  0  0  0  0  0  0  0  0
    3.7040    2.4680    1.5730 C   0  0  0  0  0  0  0  0  0  0  0  0
    3.8100    1.7640    0.4120 C   0  0  0  0  0  0  0  0  0  0  0  0
   -0.4830    0.1120    0.9030 C   0  0  0  0  0  0  0  0  0  0  0  0
   -0.9190    0.9570    1.7020 O   0  0  0  0  0  0  0  0  0  0  0  0
    1.0890   -1.2410   -0.9090 H   0  0  0  0  0  0  0  0  0  0  0  0
    0.9360   -1.8900    0.6770 H   0  0  0  0  0  0  0  0  0  0  0  0
    1.4810    0.2960    1.6000 H   0  0  0  0  0  0  0  0  0  0  0  0
    0.9640    1.1380   -1.3100 H   0  0  0  0  0  0  0  0  0  0  0  0
    1.1080    2.2450    0.0750 H   0  0  0  0  0  0  0  0  0  0  0  0
    3.2320    0.1130   -2.3010 H   0  0  0  0  0  0  0  0  0  0  0  0
    5.7070    0.4620   -1.8540 H   0  0  0  0  0  0  0  0  0  0  0  0
    7.1740    1.7930    0.2370 H   0  0  0  0  0  0  0  0  0  0  0  0
    6.9510    3.0670    2.3410 H   0  0  0  0  0  0  0  0  0  0  0  0
    4.7160    3.4900    3.1830 H   0  0  0  0  0  0  0  0  0  0  0  0
    2.6830    2.6550    1.9420 H   0  0  0  0  0  0  0  0  0  0  0  0
   -4.1920    1.6980    2.3070 C   0  0  0  0  0  0  0  0  0  0  0  0
   -4.6330    1.9210    0.6170 S   0  0  0  0  0  0  0  0  0  0  0  0
   -3.6540    1.1480   -0.6170 C   0  0  0  0  0  0  0  0  0  0  0  0
   -3.6090   -0.3480   -0.5990 C   0  0  0  0  0  0  0  0  0  0  0  0
   -2.7660   -0.9890    0.4490 C   0  0  2  0  0  0  0  0  0  0  0  0
   -1.3750   -0.7730    0.3380 N   0  0  0  0  0  0  0  0  0  0  0  0
   -3.1700   -2.4060    0.5900 C   0  0  0  0  0  0  0  0  0  0  0  0
   -4.3790   -2.7410    0.7400 O   0  0  0  0  0  0  0  0  0  0  0  0
   -3.1380    1.7910    2.5800 H   0  0  0  0  0  0  0  0  0  0  0  0
   -4.5440    0.7000    2.7310 H   0  0  0  0  0  0  0  0  0  0  0  0
   -4.6880    2.4870    2.9800 H   0  0  0  0  0  0  0  0  0  0  0  0
   -2.6180    1.5870   -0.5970 H   0  0  0  0  0  0  0  0  0  0  0  0
   -4.0450    1.5050   -1.6350 H   0  0  0  0  0  0  0  0  0  0  0  0
   -3.4730   -0.7820   -1.6150 H   0  0  0  0  0  0  0  0  0  0  0  0
   -4.6780   -0.6520   -0.3450 H   0  0  0  0  0  0  0  0  0  0  0  0
   -3.0630   -0.4400    1.3930 H   0  0  0  0  0  0  0  0  0  0  0  0
   -0.9000   -1.4690   -0.3480 H   0  0  0  0  0  0  0  0  0  0  0  0
   -2.2530   -3.5020    0.5700 N   0  0  0  0  0  0  0  0  0  0  0  0
   -2.6970   -4.8800    0.7170 C   0  0  1  0  0  0  0  0  0  0  0  0
   -2.5070   -5.6580   -0.5740 C   0  0  0  0  0  0  0  0  0  0  0  0
   -0.7950   -5.7200   -1.1050 S   0  0  0  0  0  0  0  0  0  0  0  0
   -1.9060   -5.5150    1.7830 C   0  0  0  0  0  0  0  0  0  0  0  0
   -2.1340   -6.7040    2.0990 O   0  0  0  0  0  0  0  0  0  0  0  0
   -0.9110   -4.8230    2.4390 O   0  0  0  0  0  0  0  0  0  0  0  0
   -1.2560   -3.3000    0.4440 H   0  0  0  0  0  0  0  0  0  0  0  0
   -3.7970   -4.9200    0.9170 H   0  0  0  0  0  0  0  0  0  0  0  0
   -2.8390   -6.6850   -0.3540 H   0  0  0  0  0  0  0  0  0  0  0  0
   -3.1930   -5.2500   -1.3400 H   0  0  0  0  0  0  0  0  0  0  0  0
   -0.2540   -4.4420   -1.3600 H   0  0  0  0  0  0  0  0  0  0  0  0
  1  2  1  0  0  0  0
  1 16  1  0  0  0  0
  2 13  1  0  0  0  0
  2 17  1  1  0  0  0
  3 19  1  0  0  0  0
  3  2  1  0  0  0  0
  4  3  1  0  0  0  0
  4 12  1  0  0  0  0
  5  6  1  0  0  0  0
  5  4  2  0  0  0  0
  6  7  1  0  0  0  0
  7 12  2  0  0  0  0
  7  8  1  0  0  0  0
  8  9  2  0  0  0  0
  9 10  1  0  0  0  0
  9 23  1  0  0  0  0
 10 24  1  0  0  0  0
 11 25  1  0  0  0  0
 11 10  2  0  0  0  0
 12 11  1  0  0  0  0
 13 14  2  0  0  0  0
 15  1  1  0  0  0  0
 18  3  1  0  0  0  0
 20  5  1  0  0  0  0
 21  6  1  0  0  0  0
 22  8  1  0  0  0  0
 26 34  1  0  0  0  0
 26 35  1  0  0  0  0
 26 36  1  0  0  0  0
 27 26  1  0  0  0  0
 28 29  1  0  0  0  0
 28 37  1  0  0  0  0
 28 27  1  0  0  0  0
 29 40  1  0  0  0  0
 29 30  1  0  0  0  0
 30 32  1  0  0  0  0
 30 41  1  1  0  0  0
 31 30  1  0  0  0  0
 31 13  1  0  0  0  0
 32 33  2  0  0  0  0
 38 28  1  0  0  0  0
 39 29  1  0  0  0  0
 42 31  1  0  0  0  0
 43 32  1  0  0  0  0
 43 44  1  0  0  0  0
 44 51  1  1  0  0  0
 44 47  1  0  0  0  0
 45 52  1  0  0  0  0
 45 44  1  0  0  0  0
 46 45  1  0  0  0  0
 47 48  2  0  0  0  0
 47 49  1  0  0  0  0
 50 43  1  0  0  0  0
 53 45  1  0  0  0  0
 54 46  1  0  0  0  0
M  END
$$$$
