WMD.pdb
 OpenBabel07022419173D

 56 57  0  0  1  0  0  0  0  0999 V2000
    1.9710   -1.0390   -0.8040 N   0  0  0  0  0  0  0  0  0  0  0  0
    1.7610   -1.7320    0.4090 C   0  0  1  0  0  0  0  0  0  0  0  0
    2.8460   -1.5130    1.4230 C   0  0  0  0  0  0  0  0  0  0  0  0
    3.0550   -0.1190    1.8370 C   0  0  0  0  0  0  0  0  0  0  0  0
    2.5830    0.5310    2.9690 C   0  0  0  0  0  0  0  0  0  0  0  0
    2.9890    1.8020    2.9670 N   0  0  0  0  0  0  0  0  0  0  0  0
    3.7310    2.0540    1.8640 C   0  0  0  0  0  0  0  0  0  0  0  0
    4.3570    3.2130    1.4510 C   0  0  0  0  0  0  0  0  0  0  0  0
    5.0680    3.1980    0.2720 C   0  0  0  0  0  0  0  0  0  0  0  0
    5.1170    2.0160   -0.4360 C   0  0  0  0  0  0  0  0  0  0  0  0
    4.4850    0.8620   -0.0110 C   0  0  0  0  0  0  0  0  0  0  0  0
    3.7740    0.8650    1.1610 C   0  0  0  0  0  0  0  0  0  0  0  0
    0.4030   -1.4490    0.9790 C   0  0  0  0  0  0  0  0  0  0  0  0
    0.1400   -1.8000    2.1650 O   0  0  0  0  0  0  0  0  0  0  0  0
    1.7810   -0.0120   -0.7640 H   0  0  0  0  0  0  0  0  0  0  0  0
    1.5540   -1.4890   -1.6480 H   0  0  0  0  0  0  0  0  0  0  0  0
    1.8000   -2.8360    0.1580 H   0  0  0  0  0  0  0  0  0  0  0  0
    2.5140   -2.0880    2.3390 H   0  0  0  0  0  0  0  0  0  0  0  0
    3.7810   -2.0020    1.0660 H   0  0  0  0  0  0  0  0  0  0  0  0
    1.9750    0.0190    3.7180 H   0  0  0  0  0  0  0  0  0  0  0  0
    2.7460    2.4720    3.7240 H   0  0  0  0  0  0  0  0  0  0  0  0
    4.3200    4.1380    2.0030 H   0  0  0  0  0  0  0  0  0  0  0  0
    5.5850    4.1080   -0.0910 H   0  0  0  0  0  0  0  0  0  0  0  0
    5.6910    2.0290   -1.3670 H   0  0  0  0  0  0  0  0  0  0  0  0
    4.5320   -0.0620   -0.5710 H   0  0  0  0  0  0  0  0  0  0  0  0
   -3.5530    0.0790    3.8180 C   0  0  0  0  0  0  0  0  0  0  0  0
   -3.7880    1.5010    2.7840 S   0  0  0  0  0  0  0  0  0  0  0  0
   -3.7620    1.2000    1.0200 C   0  0  0  0  0  0  0  0  0  0  0  0
   -2.4610    0.7600    0.4500 C   0  0  0  0  0  0  0  0  0  0  0  0
   -1.9410   -0.5610    0.8910 C   0  0  2  0  0  0  0  0  0  0  0  0
   -0.6260   -0.8030    0.2570 N   0  0  0  0  0  0  0  0  0  0  0  0
   -2.8290   -1.6700    0.3400 C   0  0  0  0  0  0  0  0  0  0  0  0
   -3.9960   -1.7360    0.7580 O   0  0  0  0  0  0  0  0  0  0  0  0
   -2.4750    0.0560    4.1230 H   0  0  0  0  0  0  0  0  0  0  0  0
   -3.7780   -0.8500    3.2690 H   0  0  0  0  0  0  0  0  0  0  0  0
   -4.1780    0.1180    4.7610 H   0  0  0  0  0  0  0  0  0  0  0  0
   -4.0070    2.1830    0.5190 H   0  0  0  0  0  0  0  0  0  0  0  0
   -4.6120    0.5280    0.7170 H   0  0  0  0  0  0  0  0  0  0  0  0
   -1.7160    1.5820    0.6700 H   0  0  0  0  0  0  0  0  0  0  0  0
   -2.5520    0.8120   -0.6750 H   0  0  0  0  0  0  0  0  0  0  0  0
   -1.8250   -0.6700    1.9620 H   0  0  0  0  0  0  0  0  0  0  0  0
   -0.5140   -0.4810   -0.7150 H   0  0  0  0  0  0  0  0  0  0  0  0
   -2.3530   -2.5980   -0.6130 N   0  0  0  0  0  0  0  0  0  0  0  0
   -3.1350   -3.6750   -1.1660 C   0  0  1  0  0  0  0  0  0  0  0  0
   -3.4840   -3.3970   -2.6310 C   0  0  0  0  0  0  0  0  0  0  0  0
   -2.2850   -3.2470   -3.4740 C   0  0  0  0  0  0  0  0  0  0  0  0
   -1.9070   -4.1810   -4.2540 O   0  0  0  0  0  0  0  0  0  0  0  0
   -2.4120   -4.9690   -1.1250 C   0  0  0  0  0  0  0  0  0  0  0  0
   -2.8310   -6.0510   -1.5280 O   0  0  0  0  0  0  0  0  0  0  0  0
   -1.5000   -2.0870   -3.4670 O   0  0  0  0  0  0  0  0  0  0  0  0
   -1.1110   -4.9440   -0.5610 O   0  0  0  0  0  0  0  0  0  0  0  0
   -1.3490   -2.4780   -0.9330 H   0  0  0  0  0  0  0  0  0  0  0  0
   -4.0840   -3.7730   -0.5770 H   0  0  0  0  0  0  0  0  0  0  0  0
   -4.1000   -2.4780   -2.6880 H   0  0  0  0  0  0  0  0  0  0  0  0
   -4.0310   -4.3020   -2.9640 H   0  0  0  0  0  0  0  0  0  0  0  0
   -0.8800   -1.9020   -4.2600 H   0  0  0  0  0  0  0  0  0  0  0  0
  1 15  1  0  0  0  0
  1  2  1  0  0  0  0
  2 17  1  6  0  0  0
  2 13  1  0  0  0  0
  2  3  1  0  0  0  0
  3  4  1  0  0  0  0
  3 18  1  0  0  0  0
  4  5  2  0  0  0  0
  5 20  1  0  0  0  0
  6  5  1  0  0  0  0
  6 21  1  0  0  0  0
  7  6  1  0  0  0  0
  8  7  1  0  0  0  0
  8 22  1  0  0  0  0
  9  8  2  0  0  0  0
 10 11  2  0  0  0  0
 10  9  1  0  0  0  0
 11 12  1  0  0  0  0
 12  4  1  0  0  0  0
 12  7  2  0  0  0  0
 13 14  2  0  0  0  0
 16  1  1  0  0  0  0
 19  3  1  0  0  0  0
 23  9  1  0  0  0  0
 24 10  1  0  0  0  0
 25 11  1  0  0  0  0
 26 34  1  0  0  0  0
 26 36  1  0  0  0  0
 27 26  1  0  0  0  0
 28 27  1  0  0  0  0
 29 39  1  0  0  0  0
 29 30  1  0  0  0  0
 29 28  1  0  0  0  0
 30 41  1  1  0  0  0
 31 30  1  0  0  0  0
 31 13  1  0  0  0  0
 32 33  2  0  0  0  0
 32 30  1  0  0  0  0
 35 26  1  0  0  0  0
 37 28  1  0  0  0  0
 38 28  1  0  0  0  0
 40 29  1  0  0  0  0
 42 31  1  0  0  0  0
 43 32  1  0  0  0  0
 44 48  1  0  0  0  0
 44 43  1  0  0  0  0
 44 53  1  1  0  0  0
 45 44  1  0  0  0  0
 46 50  1  0  0  0  0
 46 45  1  0  0  0  0
 47 46  2  0  0  0  0
 48 51  1  0  0  0  0
 49 48  2  0  0  0  0
 52 43  1  0  0  0  0
 54 45  1  0  0  0  0
 55 45  1  0  0  0  0
 56 50  1  0  0  0  0
M  END
$$$$
