WMF.pdb
 OpenBabel07022419183D

 63 65  0  0  1  0  0  0  0  0999 V2000
    2.3500    1.0300    0.3830 N   0  0  0  0  0  0  0  0  0  0  0  0
    2.0130    0.0950    1.4260 C   0  0  1  0  0  0  0  0  0  0  0  0
    2.3910    0.5330    2.8090 C   0  0  0  0  0  0  0  0  0  0  0  0
    3.8440    0.7670    2.9480 C   0  0  0  0  0  0  0  0  0  0  0  0
    4.8010   -0.1020    3.4580 C   0  0  0  0  0  0  0  0  0  0  0  0
    5.9920    0.5000    3.3750 N   0  0  0  0  0  0  0  0  0  0  0  0
    5.8660    1.7250    2.8360 C   0  0  0  0  0  0  0  0  0  0  0  0
    6.7760    2.7290    2.5500 C   0  0  0  0  0  0  0  0  0  0  0  0
    6.3520    3.9140    1.9940 C   0  0  0  0  0  0  0  0  0  0  0  0
    5.0100    4.0910    1.7250 C   0  0  0  0  0  0  0  0  0  0  0  0
    4.1110    3.0990    2.0070 C   0  0  0  0  0  0  0  0  0  0  0  0
    4.5140    1.8940    2.5670 C   0  0  0  0  0  0  0  0  0  0  0  0
    0.5930   -0.3550    1.3650 C   0  0  0  0  0  0  0  0  0  0  0  0
    0.2160   -1.2380    2.1920 O   0  0  0  0  0  0  0  0  0  0  0  0
    3.3910    0.9600    0.2460 H   0  0  0  0  0  0  0  0  0  0  0  0
    1.8620    0.6550   -0.4910 H   0  0  0  0  0  0  0  0  0  0  0  0
    2.6130   -0.8350    1.1910 H   0  0  0  0  0  0  0  0  0  0  0  0
    1.8050    1.4230    3.1330 H   0  0  0  0  0  0  0  0  0  0  0  0
    2.1310   -0.2630    3.5430 H   0  0  0  0  0  0  0  0  0  0  0  0
    4.5690   -1.0860    3.8430 H   0  0  0  0  0  0  0  0  0  0  0  0
    6.9270    0.1150    3.6750 H   0  0  0  0  0  0  0  0  0  0  0  0
    7.8090    2.5990    2.7550 H   0  0  0  0  0  0  0  0  0  0  0  0
    7.0490    4.7200    1.7600 H   0  0  0  0  0  0  0  0  0  0  0  0
    4.6560    5.0320    1.2820 H   0  0  0  0  0  0  0  0  0  0  0  0
    3.0570    3.2920    1.7820 H   0  0  0  0  0  0  0  0  0  0  0  0
   -6.9040    1.1090    1.3310 C   0  0  0  0  0  0  0  0  0  0  0  0
   -5.1900    1.7570    1.3270 S   0  0  0  0  0  0  0  0  0  0  0  0
   -4.1230    0.3520    0.8560 C   0  0  0  0  0  0  0  0  0  0  0  0
   -2.6830    0.7530    0.8190 C   0  0  0  0  0  0  0  0  0  0  0  0
   -1.7740   -0.4010    0.4890 C   0  0  2  0  0  0  0  0  0  0  0  0
   -0.3740    0.1220    0.4620 N   0  0  0  0  0  0  0  0  0  0  0  0
   -2.0110   -1.0230   -0.8100 C   0  0  0  0  0  0  0  0  0  0  0  0
   -1.2090   -0.8490   -1.8040 O   0  0  0  0  0  0  0  0  0  0  0  0
   -7.5780    1.7240    1.9320 H   0  0  0  0  0  0  0  0  0  0  0  0
   -6.8960    0.0570    1.7140 H   0  0  0  0  0  0  0  0  0  0  0  0
   -7.1960    1.0370    0.2580 H   0  0  0  0  0  0  0  0  0  0  0  0
   -4.3780    0.0840   -0.2210 H   0  0  0  0  0  0  0  0  0  0  0  0
   -4.2820   -0.5420    1.4490 H   0  0  0  0  0  0  0  0  0  0  0  0
   -2.3720    1.2770    1.7470 H   0  0  0  0  0  0  0  0  0  0  0  0
   -2.6040    1.5440    0.0180 H   0  0  0  0  0  0  0  0  0  0  0  0
   -1.8360   -1.1670    1.2850 H   0  0  0  0  0  0  0  0  0  0  0  0
   -0.1090    0.8470   -0.2280 H   0  0  0  0  0  0  0  0  0  0  0  0
   -3.1060   -1.8570   -1.0920 N   0  0  0  0  0  0  0  0  0  0  0  0
   -3.3180   -2.4590   -2.4090 C   0  0  1  0  0  0  0  0  0  0  0  0
   -3.1840   -3.9690   -2.2200 C   0  0  0  0  0  0  0  0  0  0  0  0
   -1.8380   -4.3200   -1.7030 C   0  0  0  0  0  0  0  0  0  0  0  0
   -0.8080   -4.5830   -2.5910 C   0  0  0  0  0  0  0  0  0  0  0  0
    0.4590   -4.9130   -2.1730 C   0  0  0  0  0  0  0  0  0  0  0  0
    0.7280   -4.9880   -0.8180 C   0  0  0  0  0  0  0  0  0  0  0  0
   -0.2750   -4.7320    0.0920 C   0  0  0  0  0  0  0  0  0  0  0  0
   -1.5330   -4.4040   -0.3620 C   0  0  0  0  0  0  0  0  0  0  0  0
   -4.6270   -2.0970   -2.9650 C   0  0  0  0  0  0  0  0  0  0  0  0
   -5.4050   -1.3570   -2.3180 O   0  0  0  0  0  0  0  0  0  0  0  0
   -5.0320   -2.5570   -4.2050 O   0  0  0  0  0  0  0  0  0  0  0  0
   -3.8040   -2.1000   -0.3660 H   0  0  0  0  0  0  0  0  0  0  0  0
   -2.5110   -2.1490   -3.0750 H   0  0  0  0  0  0  0  0  0  0  0  0
   -3.9140   -4.2680   -1.4340 H   0  0  0  0  0  0  0  0  0  0  0  0
   -3.4220   -4.5210   -3.1340 H   0  0  0  0  0  0  0  0  0  0  0  0
   -1.0170   -4.5250   -3.6430 H   0  0  0  0  0  0  0  0  0  0  0  0
    1.2300   -5.1110   -2.9100 H   0  0  0  0  0  0  0  0  0  0  0  0
    1.7390   -5.2520   -0.5420 H   0  0  0  0  0  0  0  0  0  0  0  0
   -0.0380   -4.7970    1.1450 H   0  0  0  0  0  0  0  0  0  0  0  0
   -2.3000   -4.2080    0.3590 H   0  0  0  0  0  0  0  0  0  0  0  0
  1  2  1  0  0  0  0
  2 17  1  6  0  0  0
  2  3  1  0  0  0  0
  3  4  1  0  0  0  0
  3 18  1  0  0  0  0
  3 19  1  0  0  0  0
  4  5  2  0  0  0  0
  5 20  1  0  0  0  0
  6  5  1  0  0  0  0
  6 21  1  0  0  0  0
  7  6  1  0  0  0  0
  8 22  1  0  0  0  0
  8  7  2  0  0  0  0
  9  8  1  0  0  0  0
 10  9  2  0  0  0  0
 10 11  1  0  0  0  0
 11 12  2  0  0  0  0
 12  7  1  0  0  0  0
 12  4  1  0  0  0  0
 13  2  1  0  0  0  0
 13 14  2  0  0  0  0
 15  1  1  0  0  0  0
 16  1  1  0  0  0  0
 23  9  1  0  0  0  0
 24 10  1  0  0  0  0
 25 11  1  0  0  0  0
 26 35  1  0  0  0  0
 26 34  1  0  0  0  0
 27 26  1  0  0  0  0
 28 27  1  0  0  0  0
 28 38  1  0  0  0  0
 29 28  1  0  0  0  0
 29 39  1  0  0  0  0
 30 29  1  0  0  0  0
 30 41  1  1  0  0  0
 31 30  1  0  0  0  0
 31 13  1  0  0  0  0
 32 30  1  0  0  0  0
 33 32  2  0  0  0  0
 36 26  1  0  0  0  0
 37 28  1  0  0  0  0
 40 29  1  0  0  0  0
 42 31  1  0  0  0  0
 43 32  1  0  0  0  0
 43 55  1  0  0  0  0
 44 56  1  6  0  0  0
 44 45  1  0  0  0  0
 44 43  1  0  0  0  0
 45 46  1  0  0  0  0
 45 57  1  0  0  0  0
 46 51  1  0  0  0  0
 47 48  1  0  0  0  0
 47 46  2  0  0  0  0
 48 49  2  0  0  0  0
 49 61  1  0  0  0  0
 49 50  1  0  0  0  0
 50 62  1  0  0  0  0
 51 50  2  0  0  0  0
 51 63  1  0  0  0  0
 52 44  1  0  0  0  0
 52 53  1  0  0  0  0
 54 52  2  0  0  0  0
 58 45  1  0  0  0  0
 59 47  1  0  0  0  0
 60 48  1  0  0  0  0
M  END
$$$$
