WMK.pdb
 OpenBabel07022419183D

 64 65  0  0  1  0  0  0  0  0999 V2000
    2.6860   -0.7380   -0.1940 N   0  0  0  0  0  0  0  0  0  0  0  0
    2.2400   -0.6860    1.1600 C   0  0  1  0  0  0  0  0  0  0  0  0
    3.0760    0.1010    2.1040 C   0  0  0  0  0  0  0  0  0  0  0  0
    3.1580    1.4980    1.6740 C   0  0  0  0  0  0  0  0  0  0  0  0
    2.3960    2.5390    2.2030 C   0  0  0  0  0  0  0  0  0  0  0  0
    2.7030    3.6790    1.5700 N   0  0  0  0  0  0  0  0  0  0  0  0
    3.6470    3.4480    0.6300 C   0  0  0  0  0  0  0  0  0  0  0  0
    4.2740    4.2960   -0.2580 C   0  0  0  0  0  0  0  0  0  0  0  0
    5.2220    3.7910   -1.1210 C   0  0  0  0  0  0  0  0  0  0  0  0
    5.5140    2.4500   -1.0680 C   0  0  0  0  0  0  0  0  0  0  0  0
    4.8770    1.6010   -0.1700 C   0  0  0  0  0  0  0  0  0  0  0  0
    3.9290    2.0890    0.6960 C   0  0  0  0  0  0  0  0  0  0  0  0
    0.7860   -0.2870    1.2420 C   0  0  0  0  0  0  0  0  0  0  0  0
    0.2970   -0.2040    2.3910 O   0  0  0  0  0  0  0  0  0  0  0  0
    3.5880   -1.3030   -0.2000 H   0  0  0  0  0  0  0  0  0  0  0  0
    2.0120   -1.3340   -0.7230 H   0  0  0  0  0  0  0  0  0  0  0  0
    2.2440   -1.7530    1.5370 H   0  0  0  0  0  0  0  0  0  0  0  0
    4.0800   -0.3820    2.1440 H   0  0  0  0  0  0  0  0  0  0  0  0
    2.6010    0.0400    3.1050 H   0  0  0  0  0  0  0  0  0  0  0  0
    1.6820    2.3890    3.0010 H   0  0  0  0  0  0  0  0  0  0  0  0
    2.2550    4.5890    1.8020 H   0  0  0  0  0  0  0  0  0  0  0  0
    4.0540    5.3500   -0.3090 H   0  0  0  0  0  0  0  0  0  0  0  0
    5.7450    4.4320   -1.8440 H   0  0  0  0  0  0  0  0  0  0  0  0
    6.2500    2.0490   -1.7350 H   0  0  0  0  0  0  0  0  0  0  0  0
    5.1180    0.5430   -0.1280 H   0  0  0  0  0  0  0  0  0  0  0  0
   -3.8120    1.2560    2.4010 C   0  0  0  0  0  0  0  0  0  0  0  0
   -3.5860    2.6160    1.2820 S   0  0  0  0  0  0  0  0  0  0  0  0
   -3.0050    2.2230   -0.3680 C   0  0  0  0  0  0  0  0  0  0  0  0
   -1.6160    1.6760   -0.4450 C   0  0  0  0  0  0  0  0  0  0  0  0
   -1.4340    0.3790    0.2210 C   0  0  2  0  0  0  0  0  0  0  0  0
    0.0050   -0.0180    0.1220 N   0  0  0  0  0  0  0  0  0  0  0  0
   -2.2010   -0.7570   -0.4200 C   0  0  0  0  0  0  0  0  0  0  0  0
   -3.4210   -0.6180   -0.4800 O   0  0  0  0  0  0  0  0  0  0  0  0
   -4.7280    1.3960    3.0610 H   0  0  0  0  0  0  0  0  0  0  0  0
   -2.9420    1.1780    3.1160 H   0  0  0  0  0  0  0  0  0  0  0  0
   -3.9510    0.2820    1.9490 H   0  0  0  0  0  0  0  0  0  0  0  0
   -3.0670    3.2090   -0.9430 H   0  0  0  0  0  0  0  0  0  0  0  0
   -3.7850    1.5670   -0.8410 H   0  0  0  0  0  0  0  0  0  0  0  0
   -0.9660    2.4190    0.0990 H   0  0  0  0  0  0  0  0  0  0  0  0
   -1.2290    1.7180   -1.4900 H   0  0  0  0  0  0  0  0  0  0  0  0
   -1.6660    0.4200    1.2750 H   0  0  0  0  0  0  0  0  0  0  0  0
    0.4030   -0.0860   -0.8270 H   0  0  0  0  0  0  0  0  0  0  0  0
   -1.5930   -1.9180   -0.9270 N   0  0  0  0  0  0  0  0  0  0  0  0
   -2.1830   -3.0430   -1.5570 C   0  0  1  0  0  0  0  0  0  0  0  0
   -2.6630   -4.1190   -0.6360 C   0  0  0  0  0  0  0  0  0  0  0  0
   -1.4740   -4.6210    0.1580 C   0  0  0  0  0  0  0  0  0  0  0  0
   -1.8540   -5.7120    1.1210 C   0  0  0  0  0  0  0  0  0  0  0  0
   -2.8830   -5.2670    2.1350 C   0  0  0  0  0  0  0  0  0  0  0  0
   -2.4270   -4.1720    2.9390 N   0  0  0  0  0  0  0  0  0  0  0  0
   -3.2340   -2.6510   -2.5310 C   0  0  0  0  0  0  0  0  0  0  0  0
   -3.9210   -3.5440   -3.0860 O   0  0  0  0  0  0  0  0  0  0  0  0
   -3.4850   -1.3470   -2.8560 O   0  0  0  0  0  0  0  0  0  0  0  0
   -0.5300   -1.9370   -0.8080 H   0  0  0  0  0  0  0  0  0  0  0  0
   -1.3950   -3.4960   -2.2780 H   0  0  0  0  0  0  0  0  0  0  0  0
   -3.5200   -3.8460   -0.0250 H   0  0  0  0  0  0  0  0  0  0  0  0
   -2.9950   -5.0010   -1.2550 H   0  0  0  0  0  0  0  0  0  0  0  0
   -0.7560   -5.0570   -0.5620 H   0  0  0  0  0  0  0  0  0  0  0  0
   -0.9730   -3.8010    0.6760 H   0  0  0  0  0  0  0  0  0  0  0  0
   -0.9260   -5.9600    1.6980 H   0  0  0  0  0  0  0  0  0  0  0  0
   -2.1690   -6.6190    0.6120 H   0  0  0  0  0  0  0  0  0  0  0  0
   -3.8660   -5.0560    1.6430 H   0  0  0  0  0  0  0  0  0  0  0  0
   -3.0600   -6.1340    2.8040 H   0  0  0  0  0  0  0  0  0  0  0  0
   -2.9130   -4.2250    3.8660 H   0  0  0  0  0  0  0  0  0  0  0  0
   -1.4110   -4.0650    3.0010 H   0  0  0  0  0  0  0  0  0  0  0  0
  1  2  1  0  0  0  0
  2 13  1  0  0  0  0
  2 17  1  1  0  0  0
  2  3  1  0  0  0  0
  3 18  1  0  0  0  0
  3 19  1  0  0  0  0
  4  3  1  0  0  0  0
  4  5  2  0  0  0  0
  5 20  1  0  0  0  0
  6 21  1  0  0  0  0
  6  5  1  0  0  0  0
  7 12  1  0  0  0  0
  7  6  1  0  0  0  0
  8  7  2  0  0  0  0
  9 10  2  0  0  0  0
  9  8  1  0  0  0  0
 10 11  1  0  0  0  0
 11 25  1  0  0  0  0
 11 12  2  0  0  0  0
 12  4  1  0  0  0  0
 13 14  2  0  0  0  0
 15  1  1  0  0  0  0
 16  1  1  0  0  0  0
 22  8  1  0  0  0  0
 23  9  1  0  0  0  0
 24 10  1  0  0  0  0
 26 34  1  0  0  0  0
 26 35  1  0  0  0  0
 27 26  1  0  0  0  0
 28 27  1  0  0  0  0
 29 28  1  0  0  0  0
 29 39  1  0  0  0  0
 29 30  1  0  0  0  0
 30 41  1  1  0  0  0
 31 30  1  0  0  0  0
 31 13  1  0  0  0  0
 32 30  1  0  0  0  0
 33 32  2  0  0  0  0
 36 26  1  0  0  0  0
 37 28  1  0  0  0  0
 38 28  1  0  0  0  0
 40 29  1  0  0  0  0
 42 31  1  0  0  0  0
 43 53  1  0  0  0  0
 43 32  1  0  0  0  0
 44 54  1  6  0  0  0
 44 43  1  0  0  0  0
 44 45  1  0  0  0  0
 45 55  1  0  0  0  0
 45 46  1  0  0  0  0
 46 58  1  0  0  0  0
 46 47  1  0  0  0  0
 47 59  1  0  0  0  0
 47 48  1  0  0  0  0
 48 62  1  0  0  0  0
 48 49  1  0  0  0  0
 49 64  1  0  0  0  0
 49 63  1  0  0  0  0
 50 44  1  0  0  0  0
 51 50  2  0  0  0  0
 52 50  1  0  0  0  0
 56 45  1  0  0  0  0
 57 46  1  0  0  0  0
 60 47  1  0  0  0  0
 61 48  1  0  0  0  0
M  END
$$$$
