WMP.pdb
 OpenBabel07022419183D

 57 59  0  0  1  0  0  0  0  0999 V2000
    1.4180    1.7300   -1.8370 N   0  0  0  0  0  0  0  0  0  0  0  0
    1.5820    1.3960   -0.4590 C   0  0  1  0  0  0  0  0  0  0  0  0
    1.6300    2.6340    0.3750 C   0  0  0  0  0  0  0  0  0  0  0  0
    1.8050    2.2850    1.8260 C   0  0  0  0  0  0  0  0  0  0  0  0
    0.8370    2.3340    2.7970 C   0  0  0  0  0  0  0  0  0  0  0  0
    1.3960    1.9470    3.9710 N   0  0  0  0  0  0  0  0  0  0  0  0
    2.6980    1.6460    3.7940 C   0  0  0  0  0  0  0  0  0  0  0  0
    3.6600    1.2120    4.6870 C   0  0  0  0  0  0  0  0  0  0  0  0
    4.9450    0.9760    4.2130 C   0  0  0  0  0  0  0  0  0  0  0  0
    5.1890    1.1910    2.8660 C   0  0  0  0  0  0  0  0  0  0  0  0
    4.2310    1.6220    1.9860 C   0  0  0  0  0  0  0  0  0  0  0  0
    2.9530    1.8570    2.4540 C   0  0  0  0  0  0  0  0  0  0  0  0
    0.5770    0.3990   -0.0070 C   0  0  0  0  0  0  0  0  0  0  0  0
    0.4930    0.0230    1.1760 O   0  0  0  0  0  0  0  0  0  0  0  0
    1.2270    2.7390   -2.0130 H   0  0  0  0  0  0  0  0  0  0  0  0
    2.1440    1.3300   -2.4700 H   0  0  0  0  0  0  0  0  0  0  0  0
    2.6040    0.9060   -0.3910 H   0  0  0  0  0  0  0  0  0  0  0  0
    0.7210    3.2360    0.2180 H   0  0  0  0  0  0  0  0  0  0  0  0
    2.4890    3.2770    0.1040 H   0  0  0  0  0  0  0  0  0  0  0  0
   -0.1870    2.6190    2.7110 H   0  0  0  0  0  0  0  0  0  0  0  0
    0.8880    1.8910    4.8810 H   0  0  0  0  0  0  0  0  0  0  0  0
    3.4420    1.0520    5.7340 H   0  0  0  0  0  0  0  0  0  0  0  0
    5.7390    0.6340    4.8660 H   0  0  0  0  0  0  0  0  0  0  0  0
    6.1990    1.0100    2.4780 H   0  0  0  0  0  0  0  0  0  0  0  0
    4.4050    1.7940    0.9370 H   0  0  0  0  0  0  0  0  0  0  0  0
   -2.7360    1.0090    1.6010 C   0  0  0  0  0  0  0  0  0  0  0  0
   -3.8460    0.7940    0.2450 S   0  0  0  0  0  0  0  0  0  0  0  0
   -3.1680    0.5300   -1.3660 C   0  0  0  0  0  0  0  0  0  0  0  0
   -2.5200   -0.7840   -1.5080 C   0  0  0  0  0  0  0  0  0  0  0  0
   -1.3320   -1.1020   -0.6610 C   0  0  2  0  0  0  0  0  0  0  0  0
   -0.3020   -0.1260   -0.9760 N   0  0  0  0  0  0  0  0  0  0  0  0
   -0.8490   -2.4890   -0.9360 C   0  0  0  0  0  0  0  0  0  0  0  0
    0.2250   -2.5570   -1.5690 O   0  0  0  0  0  0  0  0  0  0  0  0
   -2.6140    0.0660    2.1650 H   0  0  0  0  0  0  0  0  0  0  0  0
   -3.1870    1.7340    2.3560 H   0  0  0  0  0  0  0  0  0  0  0  0
   -1.7620    1.4560    1.3460 H   0  0  0  0  0  0  0  0  0  0  0  0
   -4.0490    0.5090   -2.0900 H   0  0  0  0  0  0  0  0  0  0  0  0
   -2.5720    1.3860   -1.7620 H   0  0  0  0  0  0  0  0  0  0  0  0
   -2.2720   -0.9550   -2.6010 H   0  0  0  0  0  0  0  0  0  0  0  0
   -3.3310   -1.5230   -1.2180 H   0  0  0  0  0  0  0  0  0  0  0  0
   -1.5620   -1.0420    0.3930 H   0  0  0  0  0  0  0  0  0  0  0  0
   -0.2360    0.1780   -1.9730 H   0  0  0  0  0  0  0  0  0  0  0  0
   -1.4850   -3.6700   -0.5510 N   0  0  0  0  0  0  0  0  0  0  0  0
   -2.7370   -3.7940    0.2550 C   0  0  0  0  0  0  0  0  0  0  0  0
   -3.5570   -4.5650   -0.7520 C   0  0  0  0  0  0  0  0  0  0  0  0
   -2.5380   -5.4270   -1.5110 C   0  0  0  0  0  0  0  0  0  0  0  0
   -1.2600   -5.0650   -0.7560 C   0  0  1  0  0  0  0  0  0  0  0  0
   -0.0650   -5.5640   -1.3460 C   0  0  0  0  0  0  0  0  0  0  0  0
   -0.0160   -6.8520   -1.5120 O   0  0  0  0  0  0  0  0  0  0  0  0
    1.0350   -4.8840   -1.7610 O   0  0  0  0  0  0  0  0  0  0  0  0
   -3.1300   -2.8810    0.6220 H   0  0  0  0  0  0  0  0  0  0  0  0
   -2.5000   -4.5400    1.0670 H   0  0  0  0  0  0  0  0  0  0  0  0
   -4.0810   -3.9070   -1.4660 H   0  0  0  0  0  0  0  0  0  0  0  0
   -4.2550   -5.2770   -0.2650 H   0  0  0  0  0  0  0  0  0  0  0  0
   -2.4030   -5.0450   -2.5430 H   0  0  0  0  0  0  0  0  0  0  0  0
   -2.7650   -6.4910   -1.4410 H   0  0  0  0  0  0  0  0  0  0  0  0
   -1.4190   -5.5820    0.2600 H   0  0  0  0  0  0  0  0  0  0  0  0
  1  2  1  0  0  0  0
  2 17  1  1  0  0  0
  2 13  1  0  0  0  0
  2  3  1  0  0  0  0
  3  4  1  0  0  0  0
  4 12  1  0  0  0  0
  4  5  2  0  0  0  0
  5  6  1  0  0  0  0
  6 21  1  0  0  0  0
  7  6  1  0  0  0  0
  7  8  1  0  0  0  0
  8 22  1  0  0  0  0
  9  8  2  0  0  0  0
  9 23  1  0  0  0  0
 10  9  1  0  0  0  0
 11 12  1  0  0  0  0
 11 10  2  0  0  0  0
 12  7  2  0  0  0  0
 13 14  2  0  0  0  0
 15  1  1  0  0  0  0
 16  1  1  0  0  0  0
 18  3  1  0  0  0  0
 19  3  1  0  0  0  0
 20  5  1  0  0  0  0
 24 10  1  0  0  0  0
 25 11  1  0  0  0  0
 26 34  1  0  0  0  0
 26 35  1  0  0  0  0
 27 26  1  0  0  0  0
 28 27  1  0  0  0  0
 29 28  1  0  0  0  0
 29 40  1  0  0  0  0
 29 30  1  0  0  0  0
 30 41  1  1  0  0  0
 31 30  1  0  0  0  0
 31 13  1  0  0  0  0
 32 30  1  0  0  0  0
 32 43  1  0  0  0  0
 33 32  2  0  0  0  0
 36 26  1  0  0  0  0
 37 28  1  0  0  0  0
 38 28  1  0  0  0  0
 39 29  1  0  0  0  0
 42 31  1  0  0  0  0
 43 44  1  0  0  0  0
 44 51  1  0  0  0  0
 44 52  1  0  0  0  0
 45 54  1  0  0  0  0
 45 44  1  0  0  0  0
 46 56  1  0  0  0  0
 46 47  1  0  0  0  0
 46 45  1  0  0  0  0
 47 43  1  0  0  0  0
 47 57  1  1  0  0  0
 48 47  1  0  0  0  0
 49 48  1  0  0  0  0
 50 48  2  0  0  0  0
 53 45  1  0  0  0  0
 55 46  1  0  0  0  0
M  END
$$$$
