WMR.pdb
 OpenBabel07022419173D

 66 67  0  0  1  0  0  0  0  0999 V2000
    0.8170   -1.1740    4.8270 N   0  0  0  0  0  0  0  0  0  0  0  0
    0.0240    0.0200    4.5690 C   0  0  1  0  0  0  0  0  0  0  0  0
    0.9140    1.2000    4.5520 C   0  0  0  0  0  0  0  0  0  0  0  0
    2.0080    1.2180    3.5690 C   0  0  0  0  0  0  0  0  0  0  0  0
    3.2790    0.6720    3.8260 C   0  0  0  0  0  0  0  0  0  0  0  0
    4.0240    0.8030    2.7290 N   0  0  0  0  0  0  0  0  0  0  0  0
    3.3130    1.4100    1.7570 C   0  0  0  0  0  0  0  0  0  0  0  0
    3.6180    1.8000    0.4630 C   0  0  0  0  0  0  0  0  0  0  0  0
    2.6870    2.4490   -0.3200 C   0  0  0  0  0  0  0  0  0  0  0  0
    1.4350    2.7040    0.2150 C   0  0  0  0  0  0  0  0  0  0  0  0
    1.1250    2.3230    1.4890 C   0  0  0  0  0  0  0  0  0  0  0  0
    2.0530    1.6660    2.2930 C   0  0  0  0  0  0  0  0  0  0  0  0
   -0.9060   -0.1520    3.4510 C   0  0  0  0  0  0  0  0  0  0  0  0
   -1.6200    0.7780    3.0020 O   0  0  0  0  0  0  0  0  0  0  0  0
    1.3390   -1.4610    3.9760 H   0  0  0  0  0  0  0  0  0  0  0  0
    0.2720   -1.9580    5.1860 H   0  0  0  0  0  0  0  0  0  0  0  0
   -0.6510    0.0730    5.5090 H   0  0  0  0  0  0  0  0  0  0  0  0
    0.3010    2.1540    4.4180 H   0  0  0  0  0  0  0  0  0  0  0  0
    1.4120    1.3050    5.5620 H   0  0  0  0  0  0  0  0  0  0  0  0
    3.6060    0.2230    4.7470 H   0  0  0  0  0  0  0  0  0  0  0  0
    5.0240    0.5050    2.5640 H   0  0  0  0  0  0  0  0  0  0  0  0
    4.5940    1.5970    0.0500 H   0  0  0  0  0  0  0  0  0  0  0  0
    2.9180    2.7520   -1.3200 H   0  0  0  0  0  0  0  0  0  0  0  0
    0.7330    3.2200   -0.4440 H   0  0  0  0  0  0  0  0  0  0  0  0
    0.1310    2.5370    1.9000 H   0  0  0  0  0  0  0  0  0  0  0  0
   -6.3430    0.3830    1.7790 C   0  0  0  0  0  0  0  0  0  0  0  0
   -6.0560   -1.3730    1.4910 S   0  0  0  0  0  0  0  0  0  0  0  0
   -4.3240   -1.7100    0.9910 C   0  0  0  0  0  0  0  0  0  0  0  0
   -3.3810   -1.3840    2.1050 C   0  0  0  0  0  0  0  0  0  0  0  0
   -1.9560   -1.7560    1.7540 C   0  0  2  0  0  0  0  0  0  0  0  0
   -1.0560   -1.4370    2.8090 N   0  0  0  0  0  0  0  0  0  0  0  0
   -1.5790   -1.3970    0.4020 C   0  0  0  0  0  0  0  0  0  0  0  0
   -2.2430   -1.7840   -0.5860 O   0  0  0  0  0  0  0  0  0  0  0  0
   -6.1870    0.5610    2.8790 H   0  0  0  0  0  0  0  0  0  0  0  0
   -7.3950    0.6550    1.5050 H   0  0  0  0  0  0  0  0  0  0  0  0
   -5.6420    1.0260    1.2330 H   0  0  0  0  0  0  0  0  0  0  0  0
   -4.2650   -2.7450    0.6370 H   0  0  0  0  0  0  0  0  0  0  0  0
   -4.1410   -1.0450    0.0960 H   0  0  0  0  0  0  0  0  0  0  0  0
   -3.7210   -1.9510    3.0150 H   0  0  0  0  0  0  0  0  0  0  0  0
   -3.4950   -0.2830    2.3250 H   0  0  0  0  0  0  0  0  0  0  0  0
   -2.0180   -2.9220    1.7990 H   0  0  0  0  0  0  0  0  0  0  0  0
   -0.3950   -2.1890    3.2030 H   0  0  0  0  0  0  0  0  0  0  0  0
    1.9190   -4.1580   -5.9590 N   0  0  0  0  0  0  0  0  0  0  0  0
    1.7220   -4.4190   -4.5810 C   0  0  0  0  0  0  0  0  0  0  0  0
    1.6530   -5.6630   -4.2130 N   0  0  0  0  0  0  0  0  0  0  0  0
    1.6030   -3.3470   -3.6480 N   0  0  0  0  0  0  0  0  0  0  0  0
    1.0630   -3.6420   -2.3510 C   0  0  0  0  0  0  0  0  0  0  0  0
    0.9590   -2.4090   -1.4810 C   0  0  0  0  0  0  0  0  0  0  0  0
    0.0690   -1.3630   -2.0940 C   0  0  0  0  0  0  0  0  0  0  0  0
    0.0470   -0.1680   -1.1400 C   0  0  2  0  0  0  0  0  0  0  0  0
   -0.4400   -0.5870    0.1350 N   0  0  0  0  0  0  0  0  0  0  0  0
   -0.6720    0.9660   -1.7150 C   0  0  0  0  0  0  0  0  0  0  0  0
   -1.6480    1.4570   -1.1030 O   0  0  0  0  0  0  0  0  0  0  0  0
   -0.2950    1.5070   -2.9230 O   0  0  0  0  0  0  0  0  0  0  0  0
    2.6820   -3.5250   -6.2460 H   0  0  0  0  0  0  0  0  0  0  0  0
    1.2840   -4.6190   -6.6420 H   0  0  0  0  0  0  0  0  0  0  0  0
    1.5080   -5.8670   -3.1910 H   0  0  0  0  0  0  0  0  0  0  0  0
    1.9220   -2.4080   -3.9720 H   0  0  0  0  0  0  0  0  0  0  0  0
    0.0880   -4.1180   -2.4570 H   0  0  0  0  0  0  0  0  0  0  0  0
    1.7980   -4.3110   -1.8310 H   0  0  0  0  0  0  0  0  0  0  0  0
    0.4950   -2.7320   -0.5260 H   0  0  0  0  0  0  0  0  0  0  0  0
    1.9170   -1.9420   -1.2640 H   0  0  0  0  0  0  0  0  0  0  0  0
   -0.9420   -1.6560   -2.3270 H   0  0  0  0  0  0  0  0  0  0  0  0
    0.5880   -0.9400   -3.0220 H   0  0  0  0  0  0  0  0  0  0  0  0
    1.1330    0.1160   -1.0200 H   0  0  0  0  0  0  0  0  0  0  0  0
    0.0820   -0.2850    1.0160 H   0  0  0  0  0  0  0  0  0  0  0  0
  1 16  1  0  0  0  0
  2  1  1  0  0  0  0
  2 17  1  1  0  0  0
  3  2  1  0  0  0  0
  3 19  1  0  0  0  0
  4  5  2  0  0  0  0
  4  3  1  0  0  0  0
  5 20  1  0  0  0  0
  6  5  1  0  0  0  0
  7 12  1  0  0  0  0
  7  6  1  0  0  0  0
  8  7  2  0  0  0  0
  9 10  2  0  0  0  0
  9  8  1  0  0  0  0
 10 11  1  0  0  0  0
 11 25  1  0  0  0  0
 11 12  2  0  0  0  0
 12  4  1  0  0  0  0
 13  2  1  0  0  0  0
 14 13  2  0  0  0  0
 15  1  1  0  0  0  0
 18  3  1  0  0  0  0
 21  6  1  0  0  0  0
 22  8  1  0  0  0  0
 23  9  1  0  0  0  0
 24 10  1  0  0  0  0
 26 34  1  0  0  0  0
 27 26  1  0  0  0  0
 28 27  1  0  0  0  0
 28 29  1  0  0  0  0
 29 40  1  0  0  0  0
 29 39  1  0  0  0  0
 30 41  1  6  0  0  0
 30 29  1  0  0  0  0
 30 31  1  0  0  0  0
 31 42  1  0  0  0  0
 31 13  1  0  0  0  0
 32 30  1  0  0  0  0
 33 32  2  0  0  0  0
 35 26  1  0  0  0  0
 36 26  1  0  0  0  0
 37 28  1  0  0  0  0
 38 28  1  0  0  0  0
 43 44  1  0  0  0  0
 44 45  2  0  0  0  0
 44 46  1  0  0  0  0
 45 57  1  0  0  0  0
 46 47  1  0  0  0  0
 47 60  1  0  0  0  0
 47 48  1  0  0  0  0
 48 62  1  0  0  0  0
 48 61  1  0  0  0  0
 49 48  1  0  0  0  0
 49 50  1  0  0  0  0
 50 65  1  1  0  0  0
 50 51  1  0  0  0  0
 51 32  1  0  0  0  0
 51 66  1  0  0  0  0
 52 50  1  0  0  0  0
 52 53  1  0  0  0  0
 54 52  2  0  0  0  0
 55 43  1  0  0  0  0
 56 43  1  0  0  0  0
 58 46  1  0  0  0  0
 59 47  1  0  0  0  0
 63 49  1  0  0  0  0
 64 49  1  0  0  0  0
M  END
$$$$
