WMS.pdb
 OpenBabel07022419183D

 54 55  0  0  1  0  0  0  0  0999 V2000
    0.4060    1.7690   -1.2670 N   0  0  0  0  0  0  0  0  0  0  0  0
    0.4240    0.3770   -0.9690 C   0  0  1  0  0  0  0  0  0  0  0  0
    1.6770   -0.2530   -0.5620 C   0  0  0  0  0  0  0  0  0  0  0  0
    2.3810    0.1950    0.6250 C   0  0  0  0  0  0  0  0  0  0  0  0
    2.4070   -0.4900    1.8150 C   0  0  0  0  0  0  0  0  0  0  0  0
    3.1470    0.1840    2.6970 N   0  0  0  0  0  0  0  0  0  0  0  0
    3.5980    1.2870    2.1000 C   0  0  0  0  0  0  0  0  0  0  0  0
    4.4070    2.3070    2.5950 C   0  0  0  0  0  0  0  0  0  0  0  0
    4.7260    3.3360    1.7560 C   0  0  0  0  0  0  0  0  0  0  0  0
    4.2790    3.4030    0.4440 C   0  0  0  0  0  0  0  0  0  0  0  0
    3.4790    2.3960   -0.0470 C   0  0  0  0  0  0  0  0  0  0  0  0
    3.1410    1.3310    0.8030 C   0  0  0  0  0  0  0  0  0  0  0  0
   -0.8260   -0.0180   -0.2810 C   0  0  0  0  0  0  0  0  0  0  0  0
   -1.8270    0.7050   -0.5210 O   0  0  0  0  0  0  0  0  0  0  0  0
    0.4510    2.4070   -0.4650 H   0  0  0  0  0  0  0  0  0  0  0  0
   -0.4720    1.9660   -1.8210 H   0  0  0  0  0  0  0  0  0  0  0  0
    0.2330   -0.0910   -2.0350 H   0  0  0  0  0  0  0  0  0  0  0  0
    1.4840   -1.3720   -0.5210 H   0  0  0  0  0  0  0  0  0  0  0  0
    2.3980   -0.1900   -1.4430 H   0  0  0  0  0  0  0  0  0  0  0  0
    1.9090   -1.4480    2.0440 H   0  0  0  0  0  0  0  0  0  0  0  0
    3.3640   -0.0740    3.7040 H   0  0  0  0  0  0  0  0  0  0  0  0
    4.7740    2.2780    3.6270 H   0  0  0  0  0  0  0  0  0  0  0  0
    5.3550    4.1290    2.1400 H   0  0  0  0  0  0  0  0  0  0  0  0
    4.5420    4.2190   -0.1940 H   0  0  0  0  0  0  0  0  0  0  0  0
    3.1020    2.3940   -1.0640 H   0  0  0  0  0  0  0  0  0  0  0  0
   -0.2650    1.3660    2.6960 C   0  0  0  0  0  0  0  0  0  0  0  0
   -1.9810    1.7530    2.4190 S   0  0  0  0  0  0  0  0  0  0  0  0
   -3.1330    0.4430    2.5770 C   0  0  0  0  0  0  0  0  0  0  0  0
   -3.2440   -0.6540    1.6190 C   0  0  0  0  0  0  0  0  0  0  0  0
   -2.1340   -1.5510    1.2750 C   0  0  2  0  0  0  0  0  0  0  0  0
   -0.9800   -1.0960    0.5840 N   0  0  0  0  0  0  0  0  0  0  0  0
   -2.6620   -2.8020    0.6640 C   0  0  0  0  0  0  0  0  0  0  0  0
   -3.6650   -3.3480    1.1590 O   0  0  0  0  0  0  0  0  0  0  0  0
    0.0650    1.9440    3.6080 H   0  0  0  0  0  0  0  0  0  0  0  0
    0.3210    1.7470    1.8450 H   0  0  0  0  0  0  0  0  0  0  0  0
   -0.1480    0.2730    2.8760 H   0  0  0  0  0  0  0  0  0  0  0  0
   -4.2170    0.8460    2.6960 H   0  0  0  0  0  0  0  0  0  0  0  0
   -3.0050    0.0170    3.6510 H   0  0  0  0  0  0  0  0  0  0  0  0
   -3.7770   -0.3070    0.6490 H   0  0  0  0  0  0  0  0  0  0  0  0
   -4.0740   -1.3470    2.0260 H   0  0  0  0  0  0  0  0  0  0  0  0
   -1.7270   -1.8230    2.3600 H   0  0  0  0  0  0  0  0  0  0  0  0
   -0.0930   -1.6660    0.7460 H   0  0  0  0  0  0  0  0  0  0  0  0
   -3.8740   -3.3660   -2.6150 O   0  0  0  0  0  0  0  0  0  0  0  0
   -2.8990   -4.3540   -2.5270 C   0  0  0  0  0  0  0  0  0  0  0  0
   -2.5500   -4.6030   -1.0750 C   0  0  2  0  0  0  0  0  0  0  0  0
   -2.0440   -3.3850   -0.4730 N   0  0  0  0  0  0  0  0  0  0  0  0
   -1.4620   -5.6110   -0.9930 C   0  0  0  0  0  0  0  0  0  0  0  0
   -1.7060   -6.7480   -1.4670 O   0  0  0  0  0  0  0  0  0  0  0  0
   -0.2380   -5.3630   -0.4390 O   0  0  0  0  0  0  0  0  0  0  0  0
   -3.7110   -2.7950   -3.4040 H   0  0  0  0  0  0  0  0  0  0  0  0
   -1.9800   -3.9530   -3.0030 H   0  0  0  0  0  0  0  0  0  0  0  0
   -3.1730   -5.2790   -3.0390 H   0  0  0  0  0  0  0  0  0  0  0  0
   -3.4170   -5.0020   -0.5230 H   0  0  0  0  0  0  0  0  0  0  0  0
   -1.2190   -2.9260   -0.8740 H   0  0  0  0  0  0  0  0  0  0  0  0
  1  2  1  0  0  0  0
  1 15  1  0  0  0  0
  2 17  1  6  0  0  0
  2  3  1  0  0  0  0
  2 13  1  0  0  0  0
  3 18  1  0  0  0  0
  3  4  1  0  0  0  0
  4 12  1  0  0  0  0
  4  5  2  0  0  0  0
  5 20  1  0  0  0  0
  5  6  1  0  0  0  0
  6 21  1  0  0  0  0
  7  8  1  0  0  0  0
  7  6  1  0  0  0  0
  8 22  1  0  0  0  0
  9 23  1  0  0  0  0
  9  8  2  0  0  0  0
 10  9  1  0  0  0  0
 11 10  2  0  0  0  0
 11 12  1  0  0  0  0
 12  7  2  0  0  0  0
 13 31  1  0  0  0  0
 14 13  2  0  0  0  0
 16  1  1  0  0  0  0
 19  3  1  0  0  0  0
 24 10  1  0  0  0  0
 25 11  1  0  0  0  0
 26 36  1  0  0  0  0
 26 34  1  0  0  0  0
 27 28  1  0  0  0  0
 27 26  1  0  0  0  0
 28 37  1  0  0  0  0
 28 38  1  0  0  0  0
 29 40  1  0  0  0  0
 29 28  1  0  0  0  0
 30 29  1  0  0  0  0
 30 41  1  1  0  0  0
 31 42  1  0  0  0  0
 31 30  1  0  0  0  0
 32 33  2  0  0  0  0
 32 30  1  0  0  0  0
 35 26  1  0  0  0  0
 39 29  1  0  0  0  0
 43 44  1  0  0  0  0
 44 45  1  0  0  0  0
 45 47  1  0  0  0  0
 45 53  1  1  0  0  0
 45 46  1  0  0  0  0
 46 32  1  0  0  0  0
 47 49  1  0  0  0  0
 48 47  2  0  0  0  0
 50 43  1  0  0  0  0
 51 44  1  0  0  0  0
 52 44  1  0  0  0  0
 54 46  1  0  0  0  0
M  END
$$$$
