WMT.pdb
 OpenBabel07022419183D

 57 58  0  0  1  0  0  0  0  0999 V2000
    0.6640    0.8480   -1.9960 N   0  0  0  0  0  0  0  0  0  0  0  0
    1.0050    0.6130   -0.6220 C   0  0  1  0  0  0  0  0  0  0  0  0
    1.5000    1.9030    0.0060 C   0  0  0  0  0  0  0  0  0  0  0  0
    1.8630    1.6730    1.4470 C   0  0  0  0  0  0  0  0  0  0  0  0
    1.1300    2.0390    2.5560 C   0  0  0  0  0  0  0  0  0  0  0  0
    1.8200    1.6370    3.6660 N   0  0  0  0  0  0  0  0  0  0  0  0
    2.9540    1.0360    3.3010 C   0  0  0  0  0  0  0  0  0  0  0  0
    3.9700    0.4680    4.0470 C   0  0  0  0  0  0  0  0  0  0  0  0
    5.0620   -0.1030    3.3950 C   0  0  0  0  0  0  0  0  0  0  0  0
    5.0880   -0.0800    2.0270 C   0  0  0  0  0  0  0  0  0  0  0  0
    4.0750    0.4850    1.3020 C   0  0  0  0  0  0  0  0  0  0  0  0
    2.9940    1.0510    1.9300 C   0  0  0  0  0  0  0  0  0  0  0  0
   -0.1590    0.0640    0.1060 C   0  0  0  0  0  0  0  0  0  0  0  0
   -0.0460   -0.2180    1.3500 O   0  0  0  0  0  0  0  0  0  0  0  0
    1.0350    1.7400   -2.3820 H   0  0  0  0  0  0  0  0  0  0  0  0
    0.8440    0.0270   -2.6120 H   0  0  0  0  0  0  0  0  0  0  0  0
    1.8830   -0.0930   -0.5510 H   0  0  0  0  0  0  0  0  0  0  0  0
    0.7360    2.6910   -0.0780 H   0  0  0  0  0  0  0  0  0  0  0  0
    2.4320    2.2380   -0.5080 H   0  0  0  0  0  0  0  0  0  0  0  0
    0.1780    2.5510    2.5810 H   0  0  0  0  0  0  0  0  0  0  0  0
    1.4940    1.7860    4.6280 H   0  0  0  0  0  0  0  0  0  0  0  0
    3.9680    0.4400    5.1200 H   0  0  0  0  0  0  0  0  0  0  0  0
    5.8810   -0.5590    3.9530 H   0  0  0  0  0  0  0  0  0  0  0  0
    5.9120   -0.5100    1.4600 H   0  0  0  0  0  0  0  0  0  0  0  0
    4.0950    0.5030    0.2150 H   0  0  0  0  0  0  0  0  0  0  0  0
   -2.1100    2.7010   -0.4410 C   0  0  0  0  0  0  0  0  0  0  0  0
   -3.7040    2.1210   -0.9680 S   0  0  0  0  0  0  0  0  0  0  0  0
   -4.4280    0.9250    0.1270 C   0  0  0  0  0  0  0  0  0  0  0  0
   -3.8530   -0.4240    0.0520 C   0  0  0  0  0  0  0  0  0  0  0  0
   -2.4830   -0.7510    0.3370 C   0  0  2  0  0  0  0  0  0  0  0  0
   -1.4380   -0.1960   -0.4580 N   0  0  0  0  0  0  0  0  0  0  0  0
   -2.2720   -2.2590    0.4610 C   0  0  0  0  0  0  0  0  0  0  0  0
   -3.0980   -2.9300    1.1150 O   0  0  0  0  0  0  0  0  0  0  0  0
   -1.8360    2.3400    0.5770 H   0  0  0  0  0  0  0  0  0  0  0  0
   -2.2050    3.8380   -0.3470 H   0  0  0  0  0  0  0  0  0  0  0  0
   -1.3650    2.4810   -1.2060 H   0  0  0  0  0  0  0  0  0  0  0  0
   -4.2810    1.2520    1.2300 H   0  0  0  0  0  0  0  0  0  0  0  0
   -5.5600    0.8860    0.0120 H   0  0  0  0  0  0  0  0  0  0  0  0
   -4.0680   -0.7890   -1.0390 H   0  0  0  0  0  0  0  0  0  0  0  0
   -4.5990   -1.1000    0.5960 H   0  0  0  0  0  0  0  0  0  0  0  0
   -2.2390   -0.4380    1.4100 H   0  0  0  0  0  0  0  0  0  0  0  0
   -1.5960    0.0250   -1.4570 H   0  0  0  0  0  0  0  0  0  0  0  0
   -2.2600   -4.6160   -2.1260 C   0  0  0  0  0  0  0  0  0  0  0  0
   -0.9640   -4.9210   -1.4290 C   0  0  1  0  0  0  0  0  0  0  0  0
    0.0640   -4.2960   -2.1380 O   0  0  0  0  0  0  0  0  0  0  0  0
   -0.9610   -4.3510   -0.0280 C   0  0  2  0  0  0  0  0  0  0  0  0
   -1.1890   -2.9280   -0.1280 N   0  0  0  0  0  0  0  0  0  0  0  0
    0.3140   -4.6400    0.6740 C   0  0  0  0  0  0  0  0  0  0  0  0
    0.6940   -5.8070    0.8620 O   0  0  0  0  0  0  0  0  0  0  0  0
    1.0700   -3.5700    1.1160 O   0  0  0  0  0  0  0  0  0  0  0  0
   -3.1310   -4.6110   -1.4630 H   0  0  0  0  0  0  0  0  0  0  0  0
   -2.4500   -5.4410   -2.8700 H   0  0  0  0  0  0  0  0  0  0  0  0
   -2.1830   -3.6890   -2.7630 H   0  0  0  0  0  0  0  0  0  0  0  0
   -0.8040   -6.0160   -1.3530 H   0  0  0  0  0  0  0  0  0  0  0  0
    0.8800   -4.1890   -1.5590 H   0  0  0  0  0  0  0  0  0  0  0  0
   -1.8230   -4.7570    0.5640 H   0  0  0  0  0  0  0  0  0  0  0  0
   -0.4950   -2.3780   -0.6760 H   0  0  0  0  0  0  0  0  0  0  0  0
  1  2  1  0  0  0  0
  2 17  1  1  0  0  0
  2  3  1  0  0  0  0
  2 13  1  0  0  0  0
  3  4  1  0  0  0  0
  4 12  1  0  0  0  0
  4  5  2  0  0  0  0
  5 20  1  0  0  0  0
  5  6  1  0  0  0  0
  6 21  1  0  0  0  0
  7  6  1  0  0  0  0
  7  8  1  0  0  0  0
  8 22  1  0  0  0  0
  9 23  1  0  0  0  0
  9  8  2  0  0  0  0
 10  9  1  0  0  0  0
 11 12  1  0  0  0  0
 11 10  2  0  0  0  0
 12  7  2  0  0  0  0
 13 14  2  0  0  0  0
 15  1  1  0  0  0  0
 16  1  1  0  0  0  0
 18  3  1  0  0  0  0
 19  3  1  0  0  0  0
 24 10  1  0  0  0  0
 25 11  1  0  0  0  0
 26 35  1  0  0  0  0
 26 34  1  0  0  0  0
 27 26  1  0  0  0  0
 27 28  1  0  0  0  0
 28 37  1  0  0  0  0
 29 28  1  0  0  0  0
 29 30  1  0  0  0  0
 29 40  1  0  0  0  0
 30 32  1  0  0  0  0
 30 41  1  1  0  0  0
 31 13  1  0  0  0  0
 31 30  1  0  0  0  0
 32 33  2  0  0  0  0
 36 26  1  0  0  0  0
 38 28  1  0  0  0  0
 39 29  1  0  0  0  0
 42 31  1  0  0  0  0
 43 51  1  0  0  0  0
 43 44  1  0  0  0  0
 44 54  1  1  0  0  0
 44 46  1  0  0  0  0
 45 55  1  0  0  0  0
 45 44  1  0  0  0  0
 46 56  1  1  0  0  0
 46 48  1  0  0  0  0
 47 46  1  0  0  0  0
 47 32  1  0  0  0  0
 48 49  2  0  0  0  0
 48 50  1  0  0  0  0
 52 43  1  0  0  0  0
 53 43  1  0  0  0  0
 57 47  1  0  0  0  0
M  END
$$$$
