WNA.pdb
 OpenBabel07022419153D

 50 51  0  0  1  0  0  0  0  0999 V2000
    0.4910   -0.7760    4.0810 N   0  0  0  0  0  0  0  0  0  0  0  0
   -0.0610    0.4840    3.5580 C   0  0  1  0  0  0  0  0  0  0  0  0
    1.0070    1.4740    3.3220 C   0  0  0  0  0  0  0  0  0  0  0  0
    2.1030    1.0780    2.4150 C   0  0  0  0  0  0  0  0  0  0  0  0
    3.3300    0.5370    2.8540 C   0  0  0  0  0  0  0  0  0  0  0  0
    4.0570    0.2680    1.7880 N   0  0  0  0  0  0  0  0  0  0  0  0
    3.4030    0.5930    0.6560 C   0  0  0  0  0  0  0  0  0  0  0  0
    3.7640    0.5040   -0.6850 C   0  0  0  0  0  0  0  0  0  0  0  0
    2.8750    0.9360   -1.6580 C   0  0  0  0  0  0  0  0  0  0  0  0
    1.6520    1.4450   -1.2800 C   0  0  0  0  0  0  0  0  0  0  0  0
    1.3200    1.5220    0.0400 C   0  0  0  0  0  0  0  0  0  0  0  0
    2.1870    1.0970    1.0570 C   0  0  0  0  0  0  0  0  0  0  0  0
   -1.1020    0.2510    2.5650 C   0  0  0  0  0  0  0  0  0  0  0  0
   -2.2890    0.6830    2.7980 O   0  0  0  0  0  0  0  0  0  0  0  0
    1.1610   -0.4940    4.8190 H   0  0  0  0  0  0  0  0  0  0  0  0
    0.8680   -1.3860    3.3510 H   0  0  0  0  0  0  0  0  0  0  0  0
   -0.6170    0.8810    4.5000 H   0  0  0  0  0  0  0  0  0  0  0  0
    1.4850    1.7760    4.3030 H   0  0  0  0  0  0  0  0  0  0  0  0
    0.5890    2.4480    2.9430 H   0  0  0  0  0  0  0  0  0  0  0  0
    3.5630    0.3960    3.8980 H   0  0  0  0  0  0  0  0  0  0  0  0
    5.0270   -0.1470    1.7910 H   0  0  0  0  0  0  0  0  0  0  0  0
    4.7290    0.1020   -0.9670 H   0  0  0  0  0  0  0  0  0  0  0  0
    3.1060    0.8890   -2.7170 H   0  0  0  0  0  0  0  0  0  0  0  0
    0.9300    1.7930   -1.9960 H   0  0  0  0  0  0  0  0  0  0  0  0
    0.3850    1.9120    0.4080 H   0  0  0  0  0  0  0  0  0  0  0  0
   -4.2190    1.8080    0.6020 N   0  0  0  0  0  0  0  0  0  0  0  0
   -2.8270    1.7210    0.2030 C   0  0  0  0  0  0  0  0  0  0  0  0
   -2.0980    2.6750    0.4830 O   0  0  0  0  0  0  0  0  0  0  0  0
   -2.3970    0.5020   -0.5040 C   0  0  0  0  0  0  0  0  0  0  0  0
   -2.0540   -0.6370    0.4450 C   0  0  2  0  0  0  0  0  0  0  0  0
   -0.9730   -0.4190    1.3290 N   0  0  0  0  0  0  0  0  0  0  0  0
   -2.0140   -1.8620   -0.3500 C   0  0  0  0  0  0  0  0  0  0  0  0
   -2.9790   -2.0800   -1.1330 O   0  0  0  0  0  0  0  0  0  0  0  0
   -4.5020    2.5030    1.3200 H   0  0  0  0  0  0  0  0  0  0  0  0
   -4.9540    1.1960    0.1930 H   0  0  0  0  0  0  0  0  0  0  0  0
   -1.5350    0.7060   -1.1990 H   0  0  0  0  0  0  0  0  0  0  0  0
   -3.2270    0.2060   -1.1900 H   0  0  0  0  0  0  0  0  0  0  0  0
   -3.0400   -0.7100    1.0630 H   0  0  0  0  0  0  0  0  0  0  0  0
   -0.0250   -0.7690    1.0810 H   0  0  0  0  0  0  0  0  0  0  0  0
    0.2560   -4.0990   -2.0110 C   0  0  0  0  0  0  0  0  0  0  0  0
   -0.9540   -4.0320   -1.1040 C   0  0  2  0  0  0  0  0  0  0  0  0
   -0.9910   -2.8280   -0.3210 N   0  0  0  0  0  0  0  0  0  0  0  0
   -0.8650   -5.1980   -0.1900 C   0  0  0  0  0  0  0  0  0  0  0  0
   -0.8300   -5.0300    1.0740 O   0  0  0  0  0  0  0  0  0  0  0  0
   -0.8150   -6.5110   -0.6340 O   0  0  0  0  0  0  0  0  0  0  0  0
    0.4410   -5.1780   -2.2140 H   0  0  0  0  0  0  0  0  0  0  0  0
    0.0330   -3.6480   -3.0160 H   0  0  0  0  0  0  0  0  0  0  0  0
    1.1600   -3.7090   -1.5370 H   0  0  0  0  0  0  0  0  0  0  0  0
   -1.8520   -4.1410   -1.7210 H   0  0  0  0  0  0  0  0  0  0  0  0
   -0.1870   -2.6500    0.3310 H   0  0  0  0  0  0  0  0  0  0  0  0
  1 15  1  0  0  0  0
  2  1  1  0  0  0  0
  2 17  1  1  0  0  0
  3  2  1  0  0  0  0
  3 18  1  0  0  0  0
  4  5  2  0  0  0  0
  4  3  1  0  0  0  0
  5 20  1  0  0  0  0
  6 21  1  0  0  0  0
  6  5  1  0  0  0  0
  7 12  1  0  0  0  0
  7  6  1  0  0  0  0
  8  7  2  0  0  0  0
  9 10  2  0  0  0  0
  9  8  1  0  0  0  0
 10 11  1  0  0  0  0
 11 25  1  0  0  0  0
 11 12  2  0  0  0  0
 12  4  1  0  0  0  0
 13 14  2  0  0  0  0
 13  2  1  0  0  0  0
 16  1  1  0  0  0  0
 19  3  1  0  0  0  0
 22  8  1  0  0  0  0
 23  9  1  0  0  0  0
 24 10  1  0  0  0  0
 26 34  1  0  0  0  0
 27 28  2  0  0  0  0
 27 26  1  0  0  0  0
 29 27  1  0  0  0  0
 29 30  1  0  0  0  0
 30 38  1  1  0  0  0
 30 31  1  0  0  0  0
 31 13  1  0  0  0  0
 32 42  1  0  0  0  0
 32 30  1  0  0  0  0
 33 32  2  0  0  0  0
 35 26  1  0  0  0  0
 36 29  1  0  0  0  0
 37 29  1  0  0  0  0
 39 31  1  0  0  0  0
 40 48  1  0  0  0  0
 40 41  1  0  0  0  0
 41 49  1  6  0  0  0
 41 42  1  0  0  0  0
 41 43  1  0  0  0  0
 42 50  1  0  0  0  0
 43 44  1  0  0  0  0
 45 43  2  0  0  0  0
 46 40  1  0  0  0  0
 47 40  1  0  0  0  0
M  END
$$$$
