WNC.pdb
 OpenBabel07022419153D

 51 52  0  0  1  0  0  0  0  0999 V2000
   -1.4190    2.7010    0.0800 N   0  0  0  0  0  0  0  0  0  0  0  0
   -1.4190    1.3050   -0.2930 C   0  0  1  0  0  0  0  0  0  0  0  0
   -0.2890    1.0470   -1.2750 C   0  0  0  0  0  0  0  0  0  0  0  0
    1.0340    1.3780   -0.7550 C   0  0  0  0  0  0  0  0  0  0  0  0
    1.9050    0.4800   -0.1770 C   0  0  0  0  0  0  0  0  0  0  0  0
    3.0120    1.1300    0.2200 N   0  0  0  0  0  0  0  0  0  0  0  0
    2.8660    2.4480   -0.0970 C   0  0  0  0  0  0  0  0  0  0  0  0
    3.6880    3.5460    0.0760 C   0  0  0  0  0  0  0  0  0  0  0  0
    3.3230    4.8130   -0.3440 C   0  0  0  0  0  0  0  0  0  0  0  0
    2.0960    4.9290   -0.9430 C   0  0  0  0  0  0  0  0  0  0  0  0
    1.2330    3.8960   -1.1470 C   0  0  0  0  0  0  0  0  0  0  0  0
    1.6320    2.6270   -0.7100 C   0  0  0  0  0  0  0  0  0  0  0  0
   -1.2750    0.4850    0.9260 C   0  0  0  0  0  0  0  0  0  0  0  0
   -0.9080    1.0150    2.0040 O   0  0  0  0  0  0  0  0  0  0  0  0
   -1.8250    3.3200   -0.6530 H   0  0  0  0  0  0  0  0  0  0  0  0
   -1.8230    2.8810    1.0260 H   0  0  0  0  0  0  0  0  0  0  0  0
   -2.3640    1.1170   -0.8420 H   0  0  0  0  0  0  0  0  0  0  0  0
   -0.4780    1.7320   -2.1490 H   0  0  0  0  0  0  0  0  0  0  0  0
   -0.3990    0.0220   -1.6460 H   0  0  0  0  0  0  0  0  0  0  0  0
    1.7970   -0.5840   -0.0230 H   0  0  0  0  0  0  0  0  0  0  0  0
    3.8640    0.7740    0.6890 H   0  0  0  0  0  0  0  0  0  0  0  0
    4.6680    3.4290    0.5590 H   0  0  0  0  0  0  0  0  0  0  0  0
    3.9840    5.6640   -0.2010 H   0  0  0  0  0  0  0  0  0  0  0  0
    1.7790    5.9200   -1.2860 H   0  0  0  0  0  0  0  0  0  0  0  0
    0.2720    3.9970   -1.6290 H   0  0  0  0  0  0  0  0  0  0  0  0
   -3.6270   -3.6500    4.5290 N   0  0  0  0  0  0  0  0  0  0  0  0
   -2.5650   -2.8830    3.9600 C   0  0  0  0  0  0  0  0  0  0  0  0
   -1.4940   -2.8450    4.6180 O   0  0  0  0  0  0  0  0  0  0  0  0
   -2.7010   -2.1750    2.6810 C   0  0  0  0  0  0  0  0  0  0  0  0
   -1.3590   -1.6640    2.2150 C   0  0  2  0  0  0  0  0  0  0  0  0
   -1.5360   -0.9130    0.9620 N   0  0  0  0  0  0  0  0  0  0  0  0
   -0.4670   -2.8320    1.9260 C   0  0  0  0  0  0  0  0  0  0  0  0
    0.0140   -3.5880    2.8000 O   0  0  0  0  0  0  0  0  0  0  0  0
   -3.7490   -4.6520    4.3080 H   0  0  0  0  0  0  0  0  0  0  0  0
   -4.2880   -3.1930    5.1770 H   0  0  0  0  0  0  0  0  0  0  0  0
   -3.2200   -2.7670    1.8990 H   0  0  0  0  0  0  0  0  0  0  0  0
   -3.3770   -1.2990    2.8670 H   0  0  0  0  0  0  0  0  0  0  0  0
   -0.9150   -1.0780    3.0190 H   0  0  0  0  0  0  0  0  0  0  0  0
   -1.8570   -1.3700    0.0970 H   0  0  0  0  0  0  0  0  0  0  0  0
   -0.0860   -3.1860    0.5750 N   0  0  0  0  0  0  0  0  0  0  0  0
    0.7900   -4.3440    0.3670 C   0  0  1  0  0  0  0  0  0  0  0  0
   -0.1150   -5.5260    0.0030 C   0  0  0  0  0  0  0  0  0  0  0  0
   -1.2660   -5.8190    1.3650 S   0  0  0  0  0  0  0  0  0  0  0  0
    1.7080   -4.0580   -0.7470 C   0  0  0  0  0  0  0  0  0  0  0  0
    2.6120   -4.8680   -1.0970 O   0  0  0  0  0  0  0  0  0  0  0  0
    1.5910   -2.8710   -1.4440 O   0  0  0  0  0  0  0  0  0  0  0  0
   -0.4070   -2.6530   -0.2310 H   0  0  0  0  0  0  0  0  0  0  0  0
    1.2630   -4.6230    1.3170 H   0  0  0  0  0  0  0  0  0  0  0  0
    0.5410   -6.4190   -0.1880 H   0  0  0  0  0  0  0  0  0  0  0  0
   -0.6320   -5.2620   -0.9320 H   0  0  0  0  0  0  0  0  0  0  0  0
   -2.3070   -6.6680    0.9420 H   0  0  0  0  0  0  0  0  0  0  0  0
  1 16  1  0  0  0  0
  2 17  1  6  0  0  0
  2  1  1  0  0  0  0
  2 13  1  0  0  0  0
  3  4  1  0  0  0  0
  3  2  1  0  0  0  0
  4 12  1  0  0  0  0
  4  5  2  0  0  0  0
  5 20  1  0  0  0  0
  5  6  1  0  0  0  0
  6 21  1  0  0  0  0
  7  8  1  0  0  0  0
  7  6  1  0  0  0  0
  8 22  1  0  0  0  0
  9 23  1  0  0  0  0
  9  8  2  0  0  0  0
 10  9  1  0  0  0  0
 11 10  2  0  0  0  0
 11 12  1  0  0  0  0
 12  7  2  0  0  0  0
 13 31  1  0  0  0  0
 13 14  2  0  0  0  0
 15  1  1  0  0  0  0
 18  3  1  0  0  0  0
 19  3  1  0  0  0  0
 24 10  1  0  0  0  0
 25 11  1  0  0  0  0
 26 35  1  0  0  0  0
 27 26  1  0  0  0  0
 27 28  2  0  0  0  0
 29 37  1  0  0  0  0
 29 27  1  0  0  0  0
 30 29  1  0  0  0  0
 30 38  1  1  0  0  0
 31 30  1  0  0  0  0
 32 30  1  0  0  0  0
 32 33  2  0  0  0  0
 34 26  1  0  0  0  0
 36 29  1  0  0  0  0
 39 31  1  0  0  0  0
 40 32  1  0  0  0  0
 41 40  1  0  0  0  0
 41 48  1  1  0  0  0
 42 41  1  0  0  0  0
 42 43  1  0  0  0  0
 44 41  1  0  0  0  0
 45 44  1  0  0  0  0
 46 44  2  0  0  0  0
 47 40  1  0  0  0  0
 49 42  1  0  0  0  0
 50 42  1  0  0  0  0
 51 43  1  0  0  0  0
M  END
$$$$
