WND.pdb
 OpenBabel07022419153D

 53 54  0  0  1  0  0  0  0  0999 V2000
    1.7950    1.4080    2.6110 N   0  0  0  0  0  0  0  0  0  0  0  0
    1.0270    0.8670    1.5360 C   0  0  1  0  0  0  0  0  0  0  0  0
    1.5150   -0.4930    1.0850 C   0  0  0  0  0  0  0  0  0  0  0  0
    2.9230   -0.3700    0.6300 C   0  0  0  0  0  0  0  0  0  0  0  0
    4.0460   -0.7830    1.3430 C   0  0  0  0  0  0  0  0  0  0  0  0
    5.1420   -0.5100    0.6190 N   0  0  0  0  0  0  0  0  0  0  0  0
    4.8060    0.0680   -0.5500 C   0  0  0  0  0  0  0  0  0  0  0  0
    5.5680    0.5220   -1.6090 C   0  0  0  0  0  0  0  0  0  0  0  0
    4.9580    1.0860   -2.7100 C   0  0  0  0  0  0  0  0  0  0  0  0
    3.5810    1.1720   -2.7010 C   0  0  0  0  0  0  0  0  0  0  0  0
    2.8170    0.7140   -1.6340 C   0  0  0  0  0  0  0  0  0  0  0  0
    3.4250    0.1550   -0.5430 C   0  0  0  0  0  0  0  0  0  0  0  0
   -0.3930    0.8210    1.9000 C   0  0  0  0  0  0  0  0  0  0  0  0
   -0.7500    1.2410    3.0280 O   0  0  0  0  0  0  0  0  0  0  0  0
    2.0870    2.4000    2.4760 H   0  0  0  0  0  0  0  0  0  0  0  0
    1.4160    1.2100    3.5530 H   0  0  0  0  0  0  0  0  0  0  0  0
    1.1590    1.5460    0.6450 H   0  0  0  0  0  0  0  0  0  0  0  0
    1.4710   -1.2500    1.8840 H   0  0  0  0  0  0  0  0  0  0  0  0
    0.8300   -0.8090    0.2500 H   0  0  0  0  0  0  0  0  0  0  0  0
    3.9670   -1.2410    2.3180 H   0  0  0  0  0  0  0  0  0  0  0  0
    6.1200   -0.7160    0.9180 H   0  0  0  0  0  0  0  0  0  0  0  0
    6.6480    0.4600   -1.6280 H   0  0  0  0  0  0  0  0  0  0  0  0
    5.5400    1.4540   -3.5640 H   0  0  0  0  0  0  0  0  0  0  0  0
    3.0500    1.6140   -3.5560 H   0  0  0  0  0  0  0  0  0  0  0  0
    1.7390    0.7800   -1.6230 H   0  0  0  0  0  0  0  0  0  0  0  0
   -5.9630    1.7100   -0.2880 N   0  0  0  0  0  0  0  0  0  0  0  0
   -5.0610    1.0880    0.6520 C   0  0  0  0  0  0  0  0  0  0  0  0
   -5.6230    0.6210    1.6790 O   0  0  0  0  0  0  0  0  0  0  0  0
   -3.6110    1.0280    0.3870 C   0  0  0  0  0  0  0  0  0  0  0  0
   -2.8160    0.2820    1.4130 C   0  0  2  0  0  0  0  0  0  0  0  0
   -1.3920    0.3250    1.0410 N   0  0  0  0  0  0  0  0  0  0  0  0
   -3.1840   -1.1770    1.4670 C   0  0  0  0  0  0  0  0  0  0  0  0
   -4.3230   -1.5780    1.7710 O   0  0  0  0  0  0  0  0  0  0  0  0
   -6.5890    2.4720    0.0510 H   0  0  0  0  0  0  0  0  0  0  0  0
   -6.0140    1.4310   -1.2850 H   0  0  0  0  0  0  0  0  0  0  0  0
   -3.4710    0.4820   -0.5850 H   0  0  0  0  0  0  0  0  0  0  0  0
   -3.1920    2.0520    0.2010 H   0  0  0  0  0  0  0  0  0  0  0  0
   -3.0010    0.6870    2.4180 H   0  0  0  0  0  0  0  0  0  0  0  0
   -1.1130   -0.0260    0.1030 H   0  0  0  0  0  0  0  0  0  0  0  0
   -2.2110   -2.2020    1.1640 N   0  0  0  0  0  0  0  0  0  0  0  0
   -2.5780   -3.5990    1.2220 C   0  0  1  0  0  0  0  0  0  0  0  0
   -2.4370   -4.2950   -0.1160 C   0  0  0  0  0  0  0  0  0  0  0  0
   -1.0510   -4.2590   -0.6360 C   0  0  0  0  0  0  0  0  0  0  0  0
   -0.8120   -4.7830   -1.7400 O   0  0  0  0  0  0  0  0  0  0  0  0
   -1.7060   -4.2970    2.2000 C   0  0  0  0  0  0  0  0  0  0  0  0
   -1.8450   -5.5310    2.4210 O   0  0  0  0  0  0  0  0  0  0  0  0
   -0.0070   -3.6670    0.0560 O   0  0  0  0  0  0  0  0  0  0  0  0
   -0.7240   -3.5910    2.8820 O   0  0  0  0  0  0  0  0  0  0  0  0
   -1.2510   -1.8920    0.9080 H   0  0  0  0  0  0  0  0  0  0  0  0
   -3.6400   -3.7170    1.5280 H   0  0  0  0  0  0  0  0  0  0  0  0
   -2.7900   -5.3360    0.0260 H   0  0  0  0  0  0  0  0  0  0  0  0
   -3.0960   -3.7700   -0.8660 H   0  0  0  0  0  0  0  0  0  0  0  0
    0.7470   -3.2780   -0.5020 H   0  0  0  0  0  0  0  0  0  0  0  0
  1 16  1  0  0  0  0
  2 17  1  6  0  0  0
  2 13  1  0  0  0  0
  2  1  1  0  0  0  0
  3  2  1  0  0  0  0
  3 18  1  0  0  0  0
  4  3  1  0  0  0  0
  4  5  2  0  0  0  0
  5 20  1  0  0  0  0
  6 21  1  0  0  0  0
  6  5  1  0  0  0  0
  7 12  1  0  0  0  0
  7  6  1  0  0  0  0
  8  7  2  0  0  0  0
  9 10  2  0  0  0  0
  9  8  1  0  0  0  0
 10 11  1  0  0  0  0
 11 25  1  0  0  0  0
 11 12  2  0  0  0  0
 12  4  1  0  0  0  0
 13 14  2  0  0  0  0
 15  1  1  0  0  0  0
 19  3  1  0  0  0  0
 22  8  1  0  0  0  0
 23  9  1  0  0  0  0
 24 10  1  0  0  0  0
 26 34  1  0  0  0  0
 26 27  1  0  0  0  0
 27 28  2  0  0  0  0
 29 27  1  0  0  0  0
 29 30  1  0  0  0  0
 30 32  1  0  0  0  0
 30 38  1  1  0  0  0
 31 30  1  0  0  0  0
 31 13  1  0  0  0  0
 32 33  2  0  0  0  0
 35 26  1  0  0  0  0
 36 29  1  0  0  0  0
 37 29  1  0  0  0  0
 39 31  1  0  0  0  0
 40 41  1  0  0  0  0
 40 32  1  0  0  0  0
 41 50  1  1  0  0  0
 41 45  1  0  0  0  0
 42 51  1  0  0  0  0
 42 41  1  0  0  0  0
 43 42  1  0  0  0  0
 43 47  1  0  0  0  0
 44 43  2  0  0  0  0
 45 46  2  0  0  0  0
 45 48  1  0  0  0  0
 49 40  1  0  0  0  0
 52 42  1  0  0  0  0
 53 47  1  0  0  0  0
M  END
$$$$
