WNG.pdb
 OpenBabel07022419153D

 47 48  0  0  1  0  0  0  0  0999 V2000
   -0.3530   -0.5960   -1.6890 N   0  0  0  0  0  0  0  0  0  0  0  0
    0.6930   -0.7520   -0.6680 C   0  0  1  0  0  0  0  0  0  0  0  0
    1.8420    0.1580   -1.0450 C   0  0  0  0  0  0  0  0  0  0  0  0
    2.9230    0.0220   -0.0250 C   0  0  0  0  0  0  0  0  0  0  0  0
    3.2110    0.9270    0.9670 C   0  0  0  0  0  0  0  0  0  0  0  0
    4.2390    0.4640    1.6830 N   0  0  0  0  0  0  0  0  0  0  0  0
    4.6520   -0.7350    1.1960 C   0  0  0  0  0  0  0  0  0  0  0  0
    5.6490   -1.6000    1.5730 C   0  0  0  0  0  0  0  0  0  0  0  0
    5.8450   -2.7600    0.8900 C   0  0  0  0  0  0  0  0  0  0  0  0
    5.0180   -3.0560   -0.1960 C   0  0  0  0  0  0  0  0  0  0  0  0
    4.0140   -2.1940   -0.5820 C   0  0  0  0  0  0  0  0  0  0  0  0
    3.8170   -1.0150    0.1130 C   0  0  0  0  0  0  0  0  0  0  0  0
    0.1060   -0.3670    0.6420 C   0  0  0  0  0  0  0  0  0  0  0  0
    0.7750   -0.4100    1.6930 O   0  0  0  0  0  0  0  0  0  0  0  0
   -0.8000   -1.5330   -1.8740 H   0  0  0  0  0  0  0  0  0  0  0  0
    0.0590   -0.1820   -2.5380 H   0  0  0  0  0  0  0  0  0  0  0  0
    0.9950   -1.8120   -0.6820 H   0  0  0  0  0  0  0  0  0  0  0  0
    2.2440   -0.1690   -2.0250 H   0  0  0  0  0  0  0  0  0  0  0  0
    1.4430    1.1840   -1.0810 H   0  0  0  0  0  0  0  0  0  0  0  0
    2.6980    1.8820    1.1620 H   0  0  0  0  0  0  0  0  0  0  0  0
    4.6650    0.9500    2.4990 H   0  0  0  0  0  0  0  0  0  0  0  0
    6.2700   -1.3390    2.4200 H   0  0  0  0  0  0  0  0  0  0  0  0
    6.6090   -3.4690    1.1440 H   0  0  0  0  0  0  0  0  0  0  0  0
    5.1620   -3.9890   -0.7590 H   0  0  0  0  0  0  0  0  0  0  0  0
    3.3560   -2.3950   -1.4210 H   0  0  0  0  0  0  0  0  0  0  0  0
   -3.4760    3.7440    0.9970 N   0  0  0  0  0  0  0  0  0  0  0  0
   -3.1300    2.3530    1.0070 C   0  0  0  0  0  0  0  0  0  0  0  0
   -3.6480    1.6330    0.1380 O   0  0  0  0  0  0  0  0  0  0  0  0
   -2.1940    1.9190    2.0470 C   0  0  0  0  0  0  0  0  0  0  0  0
   -1.8650    0.4530    2.0070 C   0  0  2  0  0  0  0  0  0  0  0  0
   -1.2560    0.0690    0.7460 N   0  0  0  0  0  0  0  0  0  0  0  0
   -2.9780   -0.4180    2.3900 C   0  0  0  0  0  0  0  0  0  0  0  0
   -3.5970   -0.2120    3.4460 O   0  0  0  0  0  0  0  0  0  0  0  0
   -2.7790    4.4740    1.2600 H   0  0  0  0  0  0  0  0  0  0  0  0
   -4.4450    4.0090    0.7210 H   0  0  0  0  0  0  0  0  0  0  0  0
   -2.5940    2.2290    3.0320 H   0  0  0  0  0  0  0  0  0  0  0  0
   -1.2430    2.4810    1.9070 H   0  0  0  0  0  0  0  0  0  0  0  0
   -1.0590    0.3070    2.7890 H   0  0  0  0  0  0  0  0  0  0  0  0
   -1.7870    0.0920   -0.1540 H   0  0  0  0  0  0  0  0  0  0  0  0
   -3.3710   -1.5030    1.5740 N   0  0  0  0  0  0  0  0  0  0  0  0
   -4.4770   -2.3870    1.9340 C   0  0  0  0  0  0  0  0  0  0  0  0
   -4.6520   -3.4260    0.8910 C   0  0  0  0  0  0  0  0  0  0  0  0
   -5.5260   -4.3180    0.9550 O   0  0  0  0  0  0  0  0  0  0  0  0
   -3.8040   -3.4210   -0.2270 O   0  0  0  0  0  0  0  0  0  0  0  0
   -2.8680   -1.7030    0.6770 H   0  0  0  0  0  0  0  0  0  0  0  0
   -4.2610   -2.9360    2.8890 H   0  0  0  0  0  0  0  0  0  0  0  0
   -5.4160   -1.8380    2.1140 H   0  0  0  0  0  0  0  0  0  0  0  0
  1  2  1  0  0  0  0
  2 17  1  1  0  0  0
  2 13  1  0  0  0  0
  3  2  1  0  0  0  0
  3  4  1  0  0  0  0
  4 12  1  0  0  0  0
  4  5  2  0  0  0  0
  5 20  1  0  0  0  0
  5  6  1  0  0  0  0
  6 21  1  0  0  0  0
  7  8  1  0  0  0  0
  7  6  1  0  0  0  0
  8 22  1  0  0  0  0
  9 23  1  0  0  0  0
  9  8  2  0  0  0  0
 10  9  1  0  0  0  0
 11 10  2  0  0  0  0
 11 12  1  0  0  0  0
 12  7  2  0  0  0  0
 13 31  1  0  0  0  0
 13 14  2  0  0  0  0
 15  1  1  0  0  0  0
 16  1  1  0  0  0  0
 18  3  1  0  0  0  0
 19  3  1  0  0  0  0
 24 10  1  0  0  0  0
 25 11  1  0  0  0  0
 26 27  1  0  0  0  0
 26 34  1  0  0  0  0
 27 29  1  0  0  0  0
 28 27  2  0  0  0  0
 29 36  1  0  0  0  0
 30 29  1  0  0  0  0
 30 32  1  0  0  0  0
 30 38  1  1  0  0  0
 31 30  1  0  0  0  0
 32 33  2  0  0  0  0
 35 26  1  0  0  0  0
 37 29  1  0  0  0  0
 39 31  1  0  0  0  0
 40 41  1  0  0  0  0
 40 32  1  0  0  0  0
 41 47  1  0  0  0  0
 41 46  1  0  0  0  0
 42 43  1  0  0  0  0
 42 41  1  0  0  0  0
 44 42  2  0  0  0  0
 45 40  1  0  0  0  0
M  END
$$$$
