WNI.pdb
 OpenBabel07022419153D

 59 60  0  0  1  0  0  0  0  0999 V2000
    1.9980   -2.4740    1.5900 N   0  0  0  0  0  0  0  0  0  0  0  0
    1.4950   -1.3000    2.3150 C   0  0  1  0  0  0  0  0  0  0  0  0
    2.5700   -0.7790    3.1760 C   0  0  0  0  0  0  0  0  0  0  0  0
    2.2440    0.4170    3.9800 C   0  0  0  0  0  0  0  0  0  0  0  0
    1.7520    0.4110    5.2960 C   0  0  0  0  0  0  0  0  0  0  0  0
    1.5270    1.6680    5.7050 N   0  0  0  0  0  0  0  0  0  0  0  0
    1.8470    2.5380    4.7150 C   0  0  0  0  0  0  0  0  0  0  0  0
    1.8040    3.9180    4.6590 C   0  0  0  0  0  0  0  0  0  0  0  0
    2.2270    4.5100    3.4890 C   0  0  0  0  0  0  0  0  0  0  0  0
    2.6730    3.7660    2.4180 C   0  0  0  0  0  0  0  0  0  0  0  0
    2.7060    2.4020    2.4970 C   0  0  0  0  0  0  0  0  0  0  0  0
    2.2910    1.7550    3.6510 C   0  0  0  0  0  0  0  0  0  0  0  0
    0.7480   -0.4070    1.4490 C   0  0  0  0  0  0  0  0  0  0  0  0
    0.1840    0.6410    1.8520 O   0  0  0  0  0  0  0  0  0  0  0  0
    2.5920   -2.2070    0.7830 H   0  0  0  0  0  0  0  0  0  0  0  0
    1.2330   -3.1260    1.3610 H   0  0  0  0  0  0  0  0  0  0  0  0
    0.7160   -1.7650    3.0170 H   0  0  0  0  0  0  0  0  0  0  0  0
    2.8670   -1.5680    3.9360 H   0  0  0  0  0  0  0  0  0  0  0  0
    3.5330   -0.5930    2.6330 H   0  0  0  0  0  0  0  0  0  0  0  0
    1.6020   -0.5190    5.8450 H   0  0  0  0  0  0  0  0  0  0  0  0
    1.1610    1.9570    6.6360 H   0  0  0  0  0  0  0  0  0  0  0  0
    1.4550    4.5050    5.4980 H   0  0  0  0  0  0  0  0  0  0  0  0
    2.2110    5.5900    3.4000 H   0  0  0  0  0  0  0  0  0  0  0  0
    3.0010    4.2510    1.5090 H   0  0  0  0  0  0  0  0  0  0  0  0
    3.0500    1.7620    1.6950 H   0  0  0  0  0  0  0  0  0  0  0  0
    2.5780    1.4390   -3.1980 N   0  0  0  0  0  0  0  0  0  0  0  0
    1.8570    1.1470   -2.0080 C   0  0  0  0  0  0  0  0  0  0  0  0
    2.3160    1.4270   -0.8830 O   0  0  0  0  0  0  0  0  0  0  0  0
    0.5540    0.5050   -2.1400 C   0  0  0  0  0  0  0  0  0  0  0  0
   -0.1630    0.2270   -0.8420 C   0  0  2  0  0  0  0  0  0  0  0  0
    0.5810   -0.6440    0.0370 N   0  0  0  0  0  0  0  0  0  0  0  0
   -1.4170   -0.5220   -1.2790 C   0  0  0  0  0  0  0  0  0  0  0  0
   -2.2260    0.0400   -2.0410 O   0  0  0  0  0  0  0  0  0  0  0  0
    3.0120    2.4030   -3.2310 H   0  0  0  0  0  0  0  0  0  0  0  0
    2.6800    0.7640   -3.9860 H   0  0  0  0  0  0  0  0  0  0  0  0
   -0.1300    1.1960   -2.7160 H   0  0  0  0  0  0  0  0  0  0  0  0
    0.5900   -0.4240   -2.7820 H   0  0  0  0  0  0  0  0  0  0  0  0
   -0.4640    1.1800   -0.3820 H   0  0  0  0  0  0  0  0  0  0  0  0
    1.0210   -1.4870   -0.3610 H   0  0  0  0  0  0  0  0  0  0  0  0
   -4.5550   -3.8980   -3.2920 C   0  0  0  0  0  0  0  0  0  0  0  0
   -3.4790   -4.6470   -2.5520 C   0  0  0  0  0  0  0  0  0  0  0  0
   -2.3830   -3.7450   -2.0590 C   0  0  2  0  0  0  0  0  0  0  0  0
   -1.3060   -4.5370   -1.3290 C   0  0  0  0  0  0  0  0  0  0  0  0
   -2.8750   -2.6000   -1.2370 C   0  0  2  0  0  0  0  0  0  0  0  0
   -1.6890   -1.8270   -0.8500 N   0  0  0  0  0  0  0  0  0  0  0  0
   -3.7030   -2.9290   -0.0870 C   0  0  0  0  0  0  0  0  0  0  0  0
   -3.3420   -2.5610    1.0560 O   0  0  0  0  0  0  0  0  0  0  0  0
   -4.8780   -3.6330   -0.1900 O   0  0  0  0  0  0  0  0  0  0  0  0
   -4.6340   -4.2700   -4.3590 H   0  0  0  0  0  0  0  0  0  0  0  0
   -5.5540   -3.9590   -2.8030 H   0  0  0  0  0  0  0  0  0  0  0  0
   -4.3160   -2.8260   -3.4060 H   0  0  0  0  0  0  0  0  0  0  0  0
   -3.9670   -5.1350   -1.6770 H   0  0  0  0  0  0  0  0  0  0  0  0
   -3.0620   -5.4150   -3.2490 H   0  0  0  0  0  0  0  0  0  0  0  0
   -1.8760   -3.3280   -2.9670 H   0  0  0  0  0  0  0  0  0  0  0  0
   -1.6060   -4.7620   -0.2850 H   0  0  0  0  0  0  0  0  0  0  0  0
   -1.0600   -5.4380   -1.9190 H   0  0  0  0  0  0  0  0  0  0  0  0
   -0.3660   -3.9480   -1.2520 H   0  0  0  0  0  0  0  0  0  0  0  0
   -3.4400   -1.9060   -1.8910 H   0  0  0  0  0  0  0  0  0  0  0  0
   -1.0220   -2.3000   -0.2170 H   0  0  0  0  0  0  0  0  0  0  0  0
  1  2  1  0  0  0  0
  2 17  1  1  0  0  0
  2  3  1  0  0  0  0
  3 18  1  0  0  0  0
  3  4  1  0  0  0  0
  4  5  2  0  0  0  0
  5  6  1  0  0  0  0
  5 20  1  0  0  0  0
  6 21  1  0  0  0  0
  7  6  1  0  0  0  0
  8  7  1  0  0  0  0
  8 22  1  0  0  0  0
  9  8  2  0  0  0  0
 10 11  2  0  0  0  0
 10  9  1  0  0  0  0
 11 12  1  0  0  0  0
 12  4  1  0  0  0  0
 12  7  2  0  0  0  0
 13 14  2  0  0  0  0
 13  2  1  0  0  0  0
 15  1  1  0  0  0  0
 16  1  1  0  0  0  0
 19  3  1  0  0  0  0
 23  9  1  0  0  0  0
 24 10  1  0  0  0  0
 25 11  1  0  0  0  0
 26 27  1  0  0  0  0
 27 28  2  0  0  0  0
 29 27  1  0  0  0  0
 29 30  1  0  0  0  0
 30 38  1  1  0  0  0
 30 31  1  0  0  0  0
 31 13  1  0  0  0  0
 32 45  1  0  0  0  0
 32 30  1  0  0  0  0
 33 32  2  0  0  0  0
 34 26  1  0  0  0  0
 35 26  1  0  0  0  0
 36 29  1  0  0  0  0
 37 29  1  0  0  0  0
 39 31  1  0  0  0  0
 40 50  1  0  0  0  0
 40 41  1  0  0  0  0
 41 42  1  0  0  0  0
 41 52  1  0  0  0  0
 42 54  1  6  0  0  0
 42 43  1  0  0  0  0
 42 44  1  0  0  0  0
 43 57  1  0  0  0  0
 43 55  1  0  0  0  0
 44 58  1  6  0  0  0
 44 45  1  0  0  0  0
 44 46  1  0  0  0  0
 45 59  1  0  0  0  0
 46 47  1  0  0  0  0
 48 46  2  0  0  0  0
 49 40  1  0  0  0  0
 51 40  1  0  0  0  0
 53 41  1  0  0  0  0
 56 43  1  0  0  0  0
M  END
$$$$
