WNK.pdb
 OpenBabel07022419153D

 61 62  0  0  1  0  0  0  0  0999 V2000
    3.7660   -0.1800    0.1420 N   0  0  0  0  0  0  0  0  0  0  0  0
    2.8830   -1.0270    0.8600 C   0  0  1  0  0  0  0  0  0  0  0  0
    3.2080   -0.9940    2.3300 C   0  0  0  0  0  0  0  0  0  0  0  0
    3.1070    0.3450    2.9440 C   0  0  0  0  0  0  0  0  0  0  0  0
    2.0290    0.8590    3.6610 C   0  0  0  0  0  0  0  0  0  0  0  0
    2.2990    2.1160    4.0310 N   0  0  0  0  0  0  0  0  0  0  0  0
    3.5200    2.4390    3.5780 C   0  0  0  0  0  0  0  0  0  0  0  0
    4.2160    3.6430    3.7320 C   0  0  0  0  0  0  0  0  0  0  0  0
    5.4760    3.7500    3.1840 C   0  0  0  0  0  0  0  0  0  0  0  0
    6.0000    2.6680    2.5080 C   0  0  0  0  0  0  0  0  0  0  0  0
    5.3070    1.4840    2.3610 C   0  0  0  0  0  0  0  0  0  0  0  0
    4.0390    1.3630    2.9050 C   0  0  0  0  0  0  0  0  0  0  0  0
    1.4440   -0.6500    0.6880 C   0  0  0  0  0  0  0  0  0  0  0  0
    1.2230    0.3410   -0.0290 O   0  0  0  0  0  0  0  0  0  0  0  0
    4.4300   -0.6730   -0.4890 H   0  0  0  0  0  0  0  0  0  0  0  0
    3.3250    0.6600   -0.2940 H   0  0  0  0  0  0  0  0  0  0  0  0
    3.0480   -2.0880    0.5370 H   0  0  0  0  0  0  0  0  0  0  0  0
    4.2560   -1.3910    2.4680 H   0  0  0  0  0  0  0  0  0  0  0  0
    2.5180   -1.6720    2.9090 H   0  0  0  0  0  0  0  0  0  0  0  0
    1.1140    0.3030    3.8760 H   0  0  0  0  0  0  0  0  0  0  0  0
    1.6310    2.7100    4.5840 H   0  0  0  0  0  0  0  0  0  0  0  0
    3.7640    4.4700    4.2740 H   0  0  0  0  0  0  0  0  0  0  0  0
    6.0360    4.6830    3.2930 H   0  0  0  0  0  0  0  0  0  0  0  0
    6.9980    2.7410    2.0700 H   0  0  0  0  0  0  0  0  0  0  0  0
    5.7180    0.6360    1.8440 H   0  0  0  0  0  0  0  0  0  0  0  0
   -3.0620    1.8450    0.6380 N   0  0  0  0  0  0  0  0  0  0  0  0
   -2.6580    0.7690    1.4700 C   0  0  0  0  0  0  0  0  0  0  0  0
   -3.5410    0.1160    2.0800 O   0  0  0  0  0  0  0  0  0  0  0  0
   -1.2290    0.4310    1.6130 C   0  0  0  0  0  0  0  0  0  0  0  0
   -1.0160   -0.9880    1.1220 C   0  0  2  0  0  0  0  0  0  0  0  0
    0.3950   -1.3610    1.2920 N   0  0  0  0  0  0  0  0  0  0  0  0
   -1.2870   -1.1540   -0.3250 C   0  0  0  0  0  0  0  0  0  0  0  0
   -0.3230   -1.5000   -1.1040 O   0  0  0  0  0  0  0  0  0  0  0  0
   -2.4440    2.3270   -0.0370 H   0  0  0  0  0  0  0  0  0  0  0  0
   -4.0550    2.2190    0.6740 H   0  0  0  0  0  0  0  0  0  0  0  0
   -1.0200    0.4820    2.7230 H   0  0  0  0  0  0  0  0  0  0  0  0
   -0.5600    1.1710    1.1720 H   0  0  0  0  0  0  0  0  0  0  0  0
   -1.6490   -1.6230    1.7510 H   0  0  0  0  0  0  0  0  0  0  0  0
    0.6040   -2.1810    1.8810 H   0  0  0  0  0  0  0  0  0  0  0  0
   -2.5080   -0.9760   -0.9860 N   0  0  0  0  0  0  0  0  0  0  0  0
   -2.6700   -1.1660   -2.4270 C   0  0  1  0  0  0  0  0  0  0  0  0
   -3.6610   -2.2980   -2.6120 C   0  0  0  0  0  0  0  0  0  0  0  0
   -3.1440   -3.5790   -1.9690 C   0  0  0  0  0  0  0  0  0  0  0  0
   -4.1690   -4.6870   -2.1820 C   0  0  0  0  0  0  0  0  0  0  0  0
   -3.6920   -5.9840   -1.5590 C   0  0  0  0  0  0  0  0  0  0  0  0
   -3.4820   -5.8450   -0.1390 N   0  0  0  0  0  0  0  0  0  0  0  0
   -3.1690    0.0430   -3.1090 C   0  0  0  0  0  0  0  0  0  0  0  0
   -3.3680    0.0370   -4.3460 O   0  0  0  0  0  0  0  0  0  0  0  0
   -3.4300    1.2100   -2.4130 O   0  0  0  0  0  0  0  0  0  0  0  0
   -3.3460   -0.7030   -0.4470 H   0  0  0  0  0  0  0  0  0  0  0  0
   -1.7080   -1.4470   -2.9040 H   0  0  0  0  0  0  0  0  0  0  0  0
   -4.6320   -2.0810   -2.1370 H   0  0  0  0  0  0  0  0  0  0  0  0
   -3.8630   -2.4750   -3.6890 H   0  0  0  0  0  0  0  0  0  0  0  0
   -2.2190   -3.8570   -2.5270 H   0  0  0  0  0  0  0  0  0  0  0  0
   -2.8930   -3.4440   -0.9190 H   0  0  0  0  0  0  0  0  0  0  0  0
   -4.3950   -4.8070   -3.2560 H   0  0  0  0  0  0  0  0  0  0  0  0
   -5.1140   -4.3960   -1.6750 H   0  0  0  0  0  0  0  0  0  0  0  0
   -4.4400   -6.7640   -1.7870 H   0  0  0  0  0  0  0  0  0  0  0  0
   -2.7360   -6.3140   -2.0260 H   0  0  0  0  0  0  0  0  0  0  0  0
   -4.0350   -6.5110    0.4250 H   0  0  0  0  0  0  0  0  0  0  0  0
   -2.4990   -5.7440    0.1420 H   0  0  0  0  0  0  0  0  0  0  0  0
  1  2  1  0  0  0  0
  2 17  1  6  0  0  0
  2  3  1  0  0  0  0
  3 18  1  0  0  0  0
  3 19  1  0  0  0  0
  3  4  1  0  0  0  0
  4  5  2  0  0  0  0
  5 20  1  0  0  0  0
  5  6  1  0  0  0  0
  6 21  1  0  0  0  0
  7  8  1  0  0  0  0
  7  6  1  0  0  0  0
  8 22  1  0  0  0  0
  9 23  1  0  0  0  0
  9  8  2  0  0  0  0
 10  9  1  0  0  0  0
 11 10  2  0  0  0  0
 11 12  1  0  0  0  0
 12  4  1  0  0  0  0
 12  7  2  0  0  0  0
 13  2  1  0  0  0  0
 13 31  1  0  0  0  0
 14 13  2  0  0  0  0
 15  1  1  0  0  0  0
 16  1  1  0  0  0  0
 24 10  1  0  0  0  0
 25 11  1  0  0  0  0
 26 35  1  0  0  0  0
 26 27  1  0  0  0  0
 27 29  1  0  0  0  0
 27 28  2  0  0  0  0
 29 36  1  0  0  0  0
 30 31  1  0  0  0  0
 30 29  1  0  0  0  0
 30 38  1  1  0  0  0
 31 39  1  0  0  0  0
 32 30  1  0  0  0  0
 33 32  2  0  0  0  0
 34 26  1  0  0  0  0
 37 29  1  0  0  0  0
 40 50  1  0  0  0  0
 40 32  1  0  0  0  0
 41 51  1  6  0  0  0
 41 40  1  0  0  0  0
 42 41  1  0  0  0  0
 42 52  1  0  0  0  0
 42 43  1  0  0  0  0
 43 55  1  0  0  0  0
 44 43  1  0  0  0  0
 44 57  1  0  0  0  0
 44 45  1  0  0  0  0
 45 46  1  0  0  0  0
 46 61  1  0  0  0  0
 46 60  1  0  0  0  0
 47 41  1  0  0  0  0
 47 49  1  0  0  0  0
 48 47  2  0  0  0  0
 53 42  1  0  0  0  0
 54 43  1  0  0  0  0
 56 44  1  0  0  0  0
 58 45  1  0  0  0  0
 59 45  1  0  0  0  0
M  END
$$$$
