WNN.pdb
 OpenBabel07022419153D

 54 55  0  0  1  0  0  0  0  0999 V2000
    1.8080   -1.4130   -0.3520 N   0  0  0  0  0  0  0  0  0  0  0  0
    1.8600   -1.8580    0.9980 C   0  0  1  0  0  0  0  0  0  0  0  0
    3.1140   -1.5160    1.7480 C   0  0  0  0  0  0  0  0  0  0  0  0
    3.3750   -0.0700    1.8380 C   0  0  0  0  0  0  0  0  0  0  0  0
    3.1040    0.7820    2.9120 C   0  0  0  0  0  0  0  0  0  0  0  0
    3.4730    2.0170    2.5850 N   0  0  0  0  0  0  0  0  0  0  0  0
    3.9870    2.0530    1.3290 C   0  0  0  0  0  0  0  0  0  0  0  0
    4.5040    3.0930    0.5610 C   0  0  0  0  0  0  0  0  0  0  0  0
    4.9650    2.7900   -0.6970 C   0  0  0  0  0  0  0  0  0  0  0  0
    4.9100    1.5020   -1.1660 C   0  0  0  0  0  0  0  0  0  0  0  0
    4.3970    0.4810   -0.4010 C   0  0  0  0  0  0  0  0  0  0  0  0
    3.9260    0.7490    0.8660 C   0  0  0  0  0  0  0  0  0  0  0  0
    0.6140   -1.5210    1.7640 C   0  0  0  0  0  0  0  0  0  0  0  0
    0.5380   -1.8900    2.9460 O   0  0  0  0  0  0  0  0  0  0  0  0
    1.1550   -2.0390   -0.8910 H   0  0  0  0  0  0  0  0  0  0  0  0
    1.5240   -0.4310   -0.5070 H   0  0  0  0  0  0  0  0  0  0  0  0
    1.8330   -2.9910    0.9480 H   0  0  0  0  0  0  0  0  0  0  0  0
    3.9660   -2.0890    1.3020 H   0  0  0  0  0  0  0  0  0  0  0  0
    3.0100   -1.9080    2.8060 H   0  0  0  0  0  0  0  0  0  0  0  0
    2.6580    0.4240    3.8450 H   0  0  0  0  0  0  0  0  0  0  0  0
    3.3690    2.8310    3.2290 H   0  0  0  0  0  0  0  0  0  0  0  0
    4.5210    4.0820    0.9850 H   0  0  0  0  0  0  0  0  0  0  0  0
    5.3770    3.6110   -1.3050 H   0  0  0  0  0  0  0  0  0  0  0  0
    5.2760    1.2700   -2.1650 H   0  0  0  0  0  0  0  0  0  0  0  0
    4.3710   -0.5250   -0.7790 H   0  0  0  0  0  0  0  0  0  0  0  0
   -3.1640    3.0390    2.3630 N   0  0  0  0  0  0  0  0  0  0  0  0
   -2.9350    1.6430    2.5070 C   0  0  0  0  0  0  0  0  0  0  0  0
   -3.7230    0.9940    3.2090 O   0  0  0  0  0  0  0  0  0  0  0  0
   -1.7910    1.0380    1.8290 C   0  0  0  0  0  0  0  0  0  0  0  0
   -1.6940   -0.4590    1.8980 C   0  0  2  0  0  0  0  0  0  0  0  0
   -0.4510   -0.8120    1.1900 N   0  0  0  0  0  0  0  0  0  0  0  0
   -2.8490   -1.0410    1.1170 C   0  0  0  0  0  0  0  0  0  0  0  0
   -4.0050   -0.7690    1.4650 O   0  0  0  0  0  0  0  0  0  0  0  0
   -2.4200    3.7000    2.6550 H   0  0  0  0  0  0  0  0  0  0  0  0
   -4.0640    3.3540    1.9690 H   0  0  0  0  0  0  0  0  0  0  0  0
   -0.8170    1.5210    2.1640 H   0  0  0  0  0  0  0  0  0  0  0  0
   -1.8470    1.3890    0.7480 H   0  0  0  0  0  0  0  0  0  0  0  0
   -1.6580   -0.7880    2.9260 H   0  0  0  0  0  0  0  0  0  0  0  0
   -0.3870   -0.4960    0.2040 H   0  0  0  0  0  0  0  0  0  0  0  0
   -1.9800   -5.2550   -2.6730 N   0  0  0  0  0  0  0  0  0  0  0  0
   -2.1040   -4.4160   -1.5170 C   0  0  0  0  0  0  0  0  0  0  0  0
   -1.0570   -4.0630   -0.9420 O   0  0  0  0  0  0  0  0  0  0  0  0
   -3.4180   -3.9930   -1.0380 C   0  0  0  0  0  0  0  0  0  0  0  0
   -3.5190   -2.5110   -0.8850 C   0  0  2  0  0  0  0  0  0  0  0  0
   -2.6390   -1.8790    0.0080 N   0  0  0  0  0  0  0  0  0  0  0  0
   -4.9270   -2.0820   -0.9520 C   0  0  0  0  0  0  0  0  0  0  0  0
   -5.4210   -1.1380   -0.3740 O   0  0  0  0  0  0  0  0  0  0  0  0
   -5.7770   -2.8580   -1.7740 O   0  0  0  0  0  0  0  0  0  0  0  0
   -2.4460   -5.0620   -3.5710 H   0  0  0  0  0  0  0  0  0  0  0  0
   -1.3840   -6.1020   -2.5930 H   0  0  0  0  0  0  0  0  0  0  0  0
   -3.6640   -4.4870   -0.0610 H   0  0  0  0  0  0  0  0  0  0  0  0
   -4.2310   -4.2750   -1.7820 H   0  0  0  0  0  0  0  0  0  0  0  0
   -3.1500   -2.0870   -1.9330 H   0  0  0  0  0  0  0  0  0  0  0  0
   -1.5950   -2.0570   -0.1950 H   0  0  0  0  0  0  0  0  0  0  0  0
  1  2  1  0  0  0  0
  2 17  1  6  0  0  0
  2  3  1  0  0  0  0
  2 13  1  0  0  0  0
  3  4  1  0  0  0  0
  3 19  1  0  0  0  0
  4  5  2  0  0  0  0
  5 20  1  0  0  0  0
  6  5  1  0  0  0  0
  6 21  1  0  0  0  0
  7  6  1  0  0  0  0
  8 22  1  0  0  0  0
  8  7  2  0  0  0  0
  9  8  1  0  0  0  0
 10  9  2  0  0  0  0
 10 11  1  0  0  0  0
 11 12  2  0  0  0  0
 12  7  1  0  0  0  0
 12  4  1  0  0  0  0
 13 14  2  0  0  0  0
 15  1  1  0  0  0  0
 16  1  1  0  0  0  0
 18  3  1  0  0  0  0
 23  9  1  0  0  0  0
 24 10  1  0  0  0  0
 25 11  1  0  0  0  0
 26 27  1  0  0  0  0
 26 34  1  0  0  0  0
 27 28  2  0  0  0  0
 29 30  1  0  0  0  0
 29 36  1  0  0  0  0
 29 27  1  0  0  0  0
 30 38  1  1  0  0  0
 31 13  1  0  0  0  0
 31 30  1  0  0  0  0
 32 33  2  0  0  0  0
 32 30  1  0  0  0  0
 35 26  1  0  0  0  0
 37 29  1  0  0  0  0
 39 31  1  0  0  0  0
 40 50  1  0  0  0  0
 40 41  1  0  0  0  0
 41 43  1  0  0  0  0
 41 42  2  0  0  0  0
 43 44  1  0  0  0  0
 43 51  1  0  0  0  0
 44 53  1  6  0  0  0
 44 45  1  0  0  0  0
 45 32  1  0  0  0  0
 46 44  1  0  0  0  0
 46 47  1  0  0  0  0
 48 46  2  0  0  0  0
 49 40  1  0  0  0  0
 52 43  1  0  0  0  0
 54 45  1  0  0  0  0
M  END
$$$$
