WNP.pdb
 OpenBabel07022419153D

 54 56  0  0  1  0  0  0  0  0999 V2000
   -1.1270    2.5840    1.5910 N   0  0  0  0  0  0  0  0  0  0  0  0
    0.1440    2.1010    1.0450 C   0  0  1  0  0  0  0  0  0  0  0  0
    1.2360    2.4810    2.0080 C   0  0  0  0  0  0  0  0  0  0  0  0
    2.5780    2.0570    1.5810 C   0  0  0  0  0  0  0  0  0  0  0  0
    3.3520    0.9930    2.0410 C   0  0  0  0  0  0  0  0  0  0  0  0
    4.4980    1.0200    1.3390 N   0  0  0  0  0  0  0  0  0  0  0  0
    4.4740    2.0490    0.4660 C   0  0  0  0  0  0  0  0  0  0  0  0
    5.4200    2.4680   -0.4540 C   0  0  0  0  0  0  0  0  0  0  0  0
    5.1350    3.5710   -1.2350 C   0  0  0  0  0  0  0  0  0  0  0  0
    3.9490    4.2650   -1.1310 C   0  0  0  0  0  0  0  0  0  0  0  0
    3.0260    3.8260   -0.2080 C   0  0  0  0  0  0  0  0  0  0  0  0
    3.2830    2.7290    0.5850 C   0  0  0  0  0  0  0  0  0  0  0  0
    0.0700    0.6470    0.7940 C   0  0  0  0  0  0  0  0  0  0  0  0
    1.0960    0.0950    0.3180 O   0  0  0  0  0  0  0  0  0  0  0  0
   -1.0380    3.6260    1.6430 H   0  0  0  0  0  0  0  0  0  0  0  0
   -1.9200    2.3260    0.9590 H   0  0  0  0  0  0  0  0  0  0  0  0
    0.2760    2.6030    0.0690 H   0  0  0  0  0  0  0  0  0  0  0  0
    1.0520    2.1370    3.0310 H   0  0  0  0  0  0  0  0  0  0  0  0
    1.2390    3.5990    2.0550 H   0  0  0  0  0  0  0  0  0  0  0  0
    3.0330    0.3160    2.8120 H   0  0  0  0  0  0  0  0  0  0  0  0
    5.2940    0.3360    1.4590 H   0  0  0  0  0  0  0  0  0  0  0  0
    6.3410    1.9130   -0.5200 H   0  0  0  0  0  0  0  0  0  0  0  0
    5.8660    3.9090   -1.9570 H   0  0  0  0  0  0  0  0  0  0  0  0
    3.7100    5.1280   -1.7330 H   0  0  0  0  0  0  0  0  0  0  0  0
    2.0720    4.3610   -0.1040 H   0  0  0  0  0  0  0  0  0  0  0  0
   -2.6130   -2.2090    4.2550 N   0  0  0  0  0  0  0  0  0  0  0  0
   -2.4030   -1.8390    2.8930 C   0  0  0  0  0  0  0  0  0  0  0  0
   -3.2960   -1.1800    2.3470 O   0  0  0  0  0  0  0  0  0  0  0  0
   -1.1750   -2.2230    2.1640 C   0  0  0  0  0  0  0  0  0  0  0  0
   -1.0760   -1.6180    0.7800 C   0  0  2  0  0  0  0  0  0  0  0  0
   -1.0530   -0.1510    1.0490 N   0  0  0  0  0  0  0  0  0  0  0  0
   -2.2380   -1.9560   -0.0450 C   0  0  0  0  0  0  0  0  0  0  0  0
   -2.9750   -0.9150   -0.3430 O   0  0  0  0  0  0  0  0  0  0  0  0
   -3.5620   -2.2540    4.6840 H   0  0  0  0  0  0  0  0  0  0  0  0
   -1.8040   -2.4460    4.8600 H   0  0  0  0  0  0  0  0  0  0  0  0
   -0.3280   -1.8050    2.8020 H   0  0  0  0  0  0  0  0  0  0  0  0
   -0.9970   -3.3120    2.1990 H   0  0  0  0  0  0  0  0  0  0  0  0
   -0.1060   -1.8710    0.3000 H   0  0  0  0  0  0  0  0  0  0  0  0
   -1.9020    0.2610    1.4250 H   0  0  0  0  0  0  0  0  0  0  0  0
   -2.6880   -3.1850   -0.5550 N   0  0  0  0  0  0  0  0  0  0  0  0
   -3.9890   -3.2080   -1.3370 C   0  0  0  0  0  0  0  0  0  0  0  0
   -3.7360   -4.1950   -2.4310 C   0  0  0  0  0  0  0  0  0  0  0  0
   -2.4190   -4.8500   -2.1240 C   0  0  0  0  0  0  0  0  0  0  0  0
   -2.3250   -4.5500   -0.5790 C   0  0  1  0  0  0  0  0  0  0  0  0
   -1.0360   -5.0240   -0.1360 C   0  0  0  0  0  0  0  0  0  0  0  0
   -0.0070   -4.3660   -0.0200 O   0  0  0  0  0  0  0  0  0  0  0  0
   -0.9510   -6.3970    0.2030 O   0  0  0  0  0  0  0  0  0  0  0  0
   -4.7130   -3.6480   -0.6230 H   0  0  0  0  0  0  0  0  0  0  0  0
   -4.2480   -2.2100   -1.6780 H   0  0  0  0  0  0  0  0  0  0  0  0
   -4.4970   -5.0250   -2.4400 H   0  0  0  0  0  0  0  0  0  0  0  0
   -3.7500   -3.7200   -3.4480 H   0  0  0  0  0  0  0  0  0  0  0  0
   -2.4080   -5.9290   -2.2740 H   0  0  0  0  0  0  0  0  0  0  0  0
   -1.5790   -4.2950   -2.5600 H   0  0  0  0  0  0  0  0  0  0  0  0
   -3.1720   -5.2110   -0.1970 H   0  0  0  0  0  0  0  0  0  0  0  0
  1 15  1  0  0  0  0
  2 17  1  6  0  0  0
  2  1  1  0  0  0  0
  2  3  1  0  0  0  0
  3 19  1  0  0  0  0
  3 18  1  0  0  0  0
  4  3  1  0  0  0  0
  4  5  2  0  0  0  0
  5 20  1  0  0  0  0
  6 21  1  0  0  0  0
  6  5  1  0  0  0  0
  7 12  1  0  0  0  0
  7  6  1  0  0  0  0
  8  7  2  0  0  0  0
  9 10  2  0  0  0  0
  9  8  1  0  0  0  0
 10 11  1  0  0  0  0
 11 25  1  0  0  0  0
 11 12  2  0  0  0  0
 12  4  1  0  0  0  0
 13  2  1  0  0  0  0
 13 31  1  0  0  0  0
 14 13  2  0  0  0  0
 16  1  1  0  0  0  0
 22  8  1  0  0  0  0
 23  9  1  0  0  0  0
 24 10  1  0  0  0  0
 26 34  1  0  0  0  0
 26 35  1  0  0  0  0
 27 26  1  0  0  0  0
 28 27  2  0  0  0  0
 29 37  1  0  0  0  0
 29 36  1  0  0  0  0
 29 27  1  0  0  0  0
 30 38  1  6  0  0  0
 30 31  1  0  0  0  0
 30 29  1  0  0  0  0
 31 39  1  0  0  0  0
 32 30  1  0  0  0  0
 33 32  2  0  0  0  0
 40 32  1  0  0  0  0
 41 48  1  0  0  0  0
 41 40  1  0  0  0  0
 42 43  1  0  0  0  0
 42 41  1  0  0  0  0
 43 44  1  0  0  0  0
 44 40  1  0  0  0  0
 44 54  1  1  0  0  0
 44 45  1  0  0  0  0
 45 46  2  0  0  0  0
 45 47  1  0  0  0  0
 49 41  1  0  0  0  0
 50 42  1  0  0  0  0
 51 42  1  0  0  0  0
 52 43  1  0  0  0  0
 53 43  1  0  0  0  0
M  END
$$$$
