WNQ.pdb
 OpenBabel07022419153D

 57 58  0  0  1  0  0  0  0  0999 V2000
    2.5980   -0.3120   -0.2160 N   0  0  0  0  0  0  0  0  0  0  0  0
    2.4550   -1.6530    0.2280 C   0  0  1  0  0  0  0  0  0  0  0  0
    3.4120   -2.0250    1.3120 C   0  0  0  0  0  0  0  0  0  0  0  0
    3.2610   -1.1860    2.5100 C   0  0  0  0  0  0  0  0  0  0  0  0
    2.5510   -1.5540    3.6300 C   0  0  0  0  0  0  0  0  0  0  0  0
    2.6060   -0.5430    4.5020 N   0  0  0  0  0  0  0  0  0  0  0  0
    3.3330    0.4670    3.9730 C   0  0  0  0  0  0  0  0  0  0  0  0
    3.6970    1.7000    4.4320 C   0  0  0  0  0  0  0  0  0  0  0  0
    4.4650    2.5550    3.6850 C   0  0  0  0  0  0  0  0  0  0  0  0
    4.8810    2.1650    2.4410 C   0  0  0  0  0  0  0  0  0  0  0  0
    4.5180    0.9160    1.9630 C   0  0  0  0  0  0  0  0  0  0  0  0
    3.7510    0.0690    2.7140 C   0  0  0  0  0  0  0  0  0  0  0  0
    1.0680   -1.9910    0.6880 C   0  0  0  0  0  0  0  0  0  0  0  0
    0.8370   -3.1630    1.0840 O   0  0  0  0  0  0  0  0  0  0  0  0
    2.2500   -0.1650   -1.1930 H   0  0  0  0  0  0  0  0  0  0  0  0
    2.1560    0.4200    0.3730 H   0  0  0  0  0  0  0  0  0  0  0  0
    2.7250   -2.3150   -0.6540 H   0  0  0  0  0  0  0  0  0  0  0  0
    4.4880   -1.9380    0.9740 H   0  0  0  0  0  0  0  0  0  0  0  0
    3.3160   -3.1190    1.5610 H   0  0  0  0  0  0  0  0  0  0  0  0
    2.0500   -2.4890    3.7640 H   0  0  0  0  0  0  0  0  0  0  0  0
    2.1420   -0.5690    5.4410 H   0  0  0  0  0  0  0  0  0  0  0  0
    3.3640    2.0030    5.4200 H   0  0  0  0  0  0  0  0  0  0  0  0
    4.7640    3.5370    4.0320 H   0  0  0  0  0  0  0  0  0  0  0  0
    5.4870    2.8020    1.8160 H   0  0  0  0  0  0  0  0  0  0  0  0
    4.8770    0.6300    0.9650 H   0  0  0  0  0  0  0  0  0  0  0  0
   -3.0360    1.5000    1.9600 N   0  0  0  0  0  0  0  0  0  0  0  0
   -1.7820    0.8560    2.1150 C   0  0  0  0  0  0  0  0  0  0  0  0
   -0.7040    1.5260    2.0580 O   0  0  0  0  0  0  0  0  0  0  0  0
   -1.7640   -0.5960    2.3400 C   0  0  0  0  0  0  0  0  0  0  0  0
   -1.3340   -1.4010    1.1450 C   0  0  2  0  0  0  0  0  0  0  0  0
    0.0020   -1.0700    0.7030 N   0  0  0  0  0  0  0  0  0  0  0  0
   -2.2900   -1.2310   -0.0020 C   0  0  0  0  0  0  0  0  0  0  0  0
   -3.5150   -1.4190    0.1410 O   0  0  0  0  0  0  0  0  0  0  0  0
   -3.0440    2.4050    1.4330 H   0  0  0  0  0  0  0  0  0  0  0  0
   -3.9020    1.0760    2.3600 H   0  0  0  0  0  0  0  0  0  0  0  0
   -2.7360   -0.9770    2.7010 H   0  0  0  0  0  0  0  0  0  0  0  0
   -1.0340   -0.7900    3.1560 H   0  0  0  0  0  0  0  0  0  0  0  0
   -1.3890   -2.4660    1.4380 H   0  0  0  0  0  0  0  0  0  0  0  0
    0.1910   -0.0840    0.3750 H   0  0  0  0  0  0  0  0  0  0  0  0
   -2.9730   -4.8710   -3.7560 N   0  0  0  0  0  0  0  0  0  0  0  0
   -3.1520   -3.4690   -3.7130 C   0  0  0  0  0  0  0  0  0  0  0  0
   -2.6920   -2.7820   -4.6400 O   0  0  0  0  0  0  0  0  0  0  0  0
   -3.8700   -2.8120   -2.5960 C   0  0  0  0  0  0  0  0  0  0  0  0
   -3.8510   -1.3400   -2.6030 C   0  0  0  0  0  0  0  0  0  0  0  0
   -2.5270   -0.6530   -2.4800 C   0  0  2  0  0  0  0  0  0  0  0  0
   -1.8020   -0.8500   -1.2730 N   0  0  0  0  0  0  0  0  0  0  0  0
   -2.6290    0.7340   -2.9510 C   0  0  0  0  0  0  0  0  0  0  0  0
   -3.2600    0.9790   -4.0020 O   0  0  0  0  0  0  0  0  0  0  0  0
   -2.0540    1.7910   -2.2760 O   0  0  0  0  0  0  0  0  0  0  0  0
   -3.6480   -5.5550   -3.3490 H   0  0  0  0  0  0  0  0  0  0  0  0
   -2.1190   -5.2460   -4.2200 H   0  0  0  0  0  0  0  0  0  0  0  0
   -4.9290   -3.2200   -2.6670 H   0  0  0  0  0  0  0  0  0  0  0  0
   -3.4950   -3.2230   -1.6510 H   0  0  0  0  0  0  0  0  0  0  0  0
   -4.2680   -1.0090   -3.5980 H   0  0  0  0  0  0  0  0  0  0  0  0
   -4.5560   -0.8870   -1.8660 H   0  0  0  0  0  0  0  0  0  0  0  0
   -1.8500   -1.1860   -3.2730 H   0  0  0  0  0  0  0  0  0  0  0  0
   -0.7410   -0.6910   -1.3190 H   0  0  0  0  0  0  0  0  0  0  0  0
  1  2  1  0  0  0  0
  1 16  1  0  0  0  0
  2 17  1  6  0  0  0
  2 13  1  0  0  0  0
  2  3  1  0  0  0  0
  3 19  1  0  0  0  0
  3  4  1  0  0  0  0
  4 12  1  0  0  0  0
  4  5  2  0  0  0  0
  5 20  1  0  0  0  0
  5  6  1  0  0  0  0
  6 21  1  0  0  0  0
  7  8  1  0  0  0  0
  7  6  1  0  0  0  0
  8 22  1  0  0  0  0
  9 23  1  0  0  0  0
  9  8  2  0  0  0  0
 10  9  1  0  0  0  0
 11 10  2  0  0  0  0
 11 12  1  0  0  0  0
 12  7  2  0  0  0  0
 13 31  1  0  0  0  0
 13 14  2  0  0  0  0
 15  1  1  0  0  0  0
 18  3  1  0  0  0  0
 24 10  1  0  0  0  0
 25 11  1  0  0  0  0
 26 27  1  0  0  0  0
 26 35  1  0  0  0  0
 27 29  1  0  0  0  0
 28 27  2  0  0  0  0
 29 36  1  0  0  0  0
 29 37  1  0  0  0  0
 30 38  1  1  0  0  0
 30 29  1  0  0  0  0
 31 30  1  0  0  0  0
 32 33  2  0  0  0  0
 32 30  1  0  0  0  0
 34 26  1  0  0  0  0
 39 31  1  0  0  0  0
 40 41  1  0  0  0  0
 40 50  1  0  0  0  0
 41 43  1  0  0  0  0
 42 41  2  0  0  0  0
 43 53  1  0  0  0  0
 44 43  1  0  0  0  0
 44 45  1  0  0  0  0
 44 55  1  0  0  0  0
 45 56  1  6  0  0  0
 45 46  1  0  0  0  0
 46 32  1  0  0  0  0
 47 45  1  0  0  0  0
 47 49  1  0  0  0  0
 48 47  2  0  0  0  0
 51 40  1  0  0  0  0
 52 43  1  0  0  0  0
 54 44  1  0  0  0  0
 57 46  1  0  0  0  0
M  END
$$$$
