WNV.pdb
 OpenBabel07022419153D

 56 57  0  0  1  0  0  0  0  0999 V2000
    0.1190    4.2480    0.1830 N   0  0  0  0  0  0  0  0  0  0  0  0
    0.4600    2.8080    0.1550 C   0  0  1  0  0  0  0  0  0  0  0  0
    1.5170    2.6830    1.2230 C   0  0  0  0  0  0  0  0  0  0  0  0
    2.0720    1.3660    1.4580 C   0  0  0  0  0  0  0  0  0  0  0  0
    1.7930    0.6070    2.5850 C   0  0  0  0  0  0  0  0  0  0  0  0
    2.4890   -0.5210    2.5050 N   0  0  0  0  0  0  0  0  0  0  0  0
    3.2210   -0.5750    1.3950 C   0  0  0  0  0  0  0  0  0  0  0  0
    4.0960   -1.4700    0.8230 C   0  0  0  0  0  0  0  0  0  0  0  0
    4.7140   -1.2140   -0.3840 C   0  0  0  0  0  0  0  0  0  0  0  0
    4.4500   -0.0340   -1.0330 C   0  0  0  0  0  0  0  0  0  0  0  0
    3.5860    0.8720   -0.4880 C   0  0  0  0  0  0  0  0  0  0  0  0
    2.9620    0.6250    0.7200 C   0  0  0  0  0  0  0  0  0  0  0  0
   -0.7760    2.0460    0.4260 C   0  0  0  0  0  0  0  0  0  0  0  0
   -1.7060    2.6650    1.0600 O   0  0  0  0  0  0  0  0  0  0  0  0
   -0.7420    4.4410   -0.3750 H   0  0  0  0  0  0  0  0  0  0  0  0
    0.9530    4.7720   -0.1610 H   0  0  0  0  0  0  0  0  0  0  0  0
    0.9020    2.6190   -0.8280 H   0  0  0  0  0  0  0  0  0  0  0  0
    1.1190    3.1740    2.1490 H   0  0  0  0  0  0  0  0  0  0  0  0
    2.3530    3.3690    0.8760 H   0  0  0  0  0  0  0  0  0  0  0  0
    1.1270    0.8830    3.3860 H   0  0  0  0  0  0  0  0  0  0  0  0
    2.4610   -1.2640    3.2360 H   0  0  0  0  0  0  0  0  0  0  0  0
    4.3000   -2.3990    1.3430 H   0  0  0  0  0  0  0  0  0  0  0  0
    5.3990   -1.9640   -0.7890 H   0  0  0  0  0  0  0  0  0  0  0  0
    4.9350    0.1630   -1.9770 H   0  0  0  0  0  0  0  0  0  0  0  0
    3.3900    1.8030   -1.0220 H   0  0  0  0  0  0  0  0  0  0  0  0
   -5.4430    0.3270    0.3250 N   0  0  0  0  0  0  0  0  0  0  0  0
   -4.4940   -0.3800   -0.4990 C   0  0  0  0  0  0  0  0  0  0  0  0
   -4.8520   -1.5350   -0.8740 O   0  0  0  0  0  0  0  0  0  0  0  0
   -3.2170    0.2500   -0.8440 C   0  0  0  0  0  0  0  0  0  0  0  0
   -2.2520    0.0890    0.3560 C   0  0  2  0  0  0  0  0  0  0  0  0
   -1.0000    0.7000    0.0330 N   0  0  0  0  0  0  0  0  0  0  0  0
   -2.2280   -1.3200    0.6980 C   0  0  0  0  0  0  0  0  0  0  0  0
   -3.2830   -1.8650    1.1140 O   0  0  0  0  0  0  0  0  0  0  0  0
   -5.5250    1.3400    0.1990 H   0  0  0  0  0  0  0  0  0  0  0  0
   -6.0280   -0.1760    1.0270 H   0  0  0  0  0  0  0  0  0  0  0  0
   -3.3120    1.3090   -1.1330 H   0  0  0  0  0  0  0  0  0  0  0  0
   -2.8030   -0.2910   -1.7170 H   0  0  0  0  0  0  0  0  0  0  0  0
   -2.7120    0.6680    1.1970 H   0  0  0  0  0  0  0  0  0  0  0  0
   -0.2690    0.1940   -0.4720 H   0  0  0  0  0  0  0  0  0  0  0  0
    0.2070   -4.1810   -0.9900 C   0  0  0  0  0  0  0  0  0  0  0  0
   -1.0860   -4.4310   -0.2870 C   0  0  0  0  0  0  0  0  0  0  0  0
   -2.2750   -4.1300   -1.1540 C   0  0  0  0  0  0  0  0  0  0  0  0
   -1.1590   -3.5490    0.9500 C   0  0  2  0  0  0  0  0  0  0  0  0
   -1.0790   -2.1460    0.5920 N   0  0  0  0  0  0  0  0  0  0  0  0
   -0.1640   -3.9340    1.9650 C   0  0  0  0  0  0  0  0  0  0  0  0
    0.5960   -3.0380    2.3960 O   0  0  0  0  0  0  0  0  0  0  0  0
   -0.0290   -5.2190    2.4580 O   0  0  0  0  0  0  0  0  0  0  0  0
    0.0450   -3.3580   -1.7280 H   0  0  0  0  0  0  0  0  0  0  0  0
    0.5870   -5.0470   -1.5380 H   0  0  0  0  0  0  0  0  0  0  0  0
    1.0050   -3.8280   -0.2850 H   0  0  0  0  0  0  0  0  0  0  0  0
   -1.1220   -5.4850    0.0490 H   0  0  0  0  0  0  0  0  0  0  0  0
   -2.1890   -4.6450   -2.1190 H   0  0  0  0  0  0  0  0  0  0  0  0
   -3.1820   -4.5170   -0.6250 H   0  0  0  0  0  0  0  0  0  0  0  0
   -2.3640   -3.0320   -1.3130 H   0  0  0  0  0  0  0  0  0  0  0  0
   -2.1810   -3.7560    1.3720 H   0  0  0  0  0  0  0  0  0  0  0  0
   -0.2050   -1.7000    0.2530 H   0  0  0  0  0  0  0  0  0  0  0  0
  2 17  1  6  0  0  0
  2  1  1  0  0  0  0
  2 13  1  0  0  0  0
  2  3  1  0  0  0  0
  3  4  1  0  0  0  0
  3 18  1  0  0  0  0
  4  5  2  0  0  0  0
  5 20  1  0  0  0  0
  6  5  1  0  0  0  0
  6 21  1  0  0  0  0
  7  6  1  0  0  0  0
  8 22  1  0  0  0  0
  8  7  1  0  0  0  0
  9  8  2  0  0  0  0
 10 11  2  0  0  0  0
 10  9  1  0  0  0  0
 11 12  1  0  0  0  0
 12  7  2  0  0  0  0
 12  4  1  0  0  0  0
 13 14  2  0  0  0  0
 15  1  1  0  0  0  0
 16  1  1  0  0  0  0
 19  3  1  0  0  0  0
 23  9  1  0  0  0  0
 24 10  1  0  0  0  0
 25 11  1  0  0  0  0
 26 35  1  0  0  0  0
 27 26  1  0  0  0  0
 28 27  2  0  0  0  0
 29 27  1  0  0  0  0
 29 30  1  0  0  0  0
 30 32  1  0  0  0  0
 30 38  1  1  0  0  0
 31 30  1  0  0  0  0
 31 13  1  0  0  0  0
 32 33  2  0  0  0  0
 34 26  1  0  0  0  0
 36 29  1  0  0  0  0
 37 29  1  0  0  0  0
 39 31  1  0  0  0  0
 40 41  1  0  0  0  0
 40 50  1  0  0  0  0
 41 51  1  0  0  0  0
 41 43  1  0  0  0  0
 42 53  1  0  0  0  0
 42 41  1  0  0  0  0
 43 55  1  1  0  0  0
 43 45  1  0  0  0  0
 44 32  1  0  0  0  0
 44 43  1  0  0  0  0
 45 46  2  0  0  0  0
 45 47  1  0  0  0  0
 48 40  1  0  0  0  0
 49 40  1  0  0  0  0
 52 42  1  0  0  0  0
 54 42  1  0  0  0  0
 56 44  1  0  0  0  0
M  END
$$$$
