WNW.pdb
 OpenBabel07022419153D

 64 67  0  0  1  0  0  0  0  0999 V2000
   -1.1380    1.4440    3.4420 N   0  0  0  0  0  0  0  0  0  0  0  0
   -0.5270    1.4320    2.1360 C   0  0  1  0  0  0  0  0  0  0  0  0
    0.9770    1.3450    2.2370 C   0  0  0  0  0  0  0  0  0  0  0  0
    1.4920    2.5340    2.9980 C   0  0  0  0  0  0  0  0  0  0  0  0
    1.9330    2.5750    4.2950 C   0  0  0  0  0  0  0  0  0  0  0  0
    2.3000    3.8420    4.5610 N   0  0  0  0  0  0  0  0  0  0  0  0
    2.1070    4.6020    3.4800 C   0  0  0  0  0  0  0  0  0  0  0  0
    2.3430    5.9630    3.2900 C   0  0  0  0  0  0  0  0  0  0  0  0
    2.0500    6.4820    2.0660 C   0  0  0  0  0  0  0  0  0  0  0  0
    1.5400    5.6900    1.0590 C   0  0  0  0  0  0  0  0  0  0  0  0
    1.3080    4.3420    1.2540 C   0  0  0  0  0  0  0  0  0  0  0  0
    1.6040    3.8030    2.4970 C   0  0  0  0  0  0  0  0  0  0  0  0
   -1.1070    0.3850    1.2620 C   0  0  0  0  0  0  0  0  0  0  0  0
   -2.0500   -0.3690    1.6330 O   0  0  0  0  0  0  0  0  0  0  0  0
   -2.1750    1.4620    3.3080 H   0  0  0  0  0  0  0  0  0  0  0  0
   -0.9300    0.5900    4.0030 H   0  0  0  0  0  0  0  0  0  0  0  0
   -0.7400    2.4530    1.6990 H   0  0  0  0  0  0  0  0  0  0  0  0
    1.4730    1.3110    1.2670 H   0  0  0  0  0  0  0  0  0  0  0  0
    1.2370    0.4540    2.8410 H   0  0  0  0  0  0  0  0  0  0  0  0
    1.9700    1.7160    4.9710 H   0  0  0  0  0  0  0  0  0  0  0  0
    2.6780    4.1490    5.4900 H   0  0  0  0  0  0  0  0  0  0  0  0
    2.7420    6.5720    4.0870 H   0  0  0  0  0  0  0  0  0  0  0  0
    2.2020    7.5330    1.8250 H   0  0  0  0  0  0  0  0  0  0  0  0
    1.3030    6.0890    0.0850 H   0  0  0  0  0  0  0  0  0  0  0  0
    0.9120    3.7010    0.4870 H   0  0  0  0  0  0  0  0  0  0  0  0
   -0.7680    1.9890   -3.0000 N   0  0  0  0  0  0  0  0  0  0  0  0
   -0.7150    0.5870   -3.0120 C   0  0  0  0  0  0  0  0  0  0  0  0
    0.1520    0.0070   -3.7060 O   0  0  0  0  0  0  0  0  0  0  0  0
   -1.6570   -0.2010   -2.2250 C   0  0  0  0  0  0  0  0  0  0  0  0
   -1.0880   -0.7770   -0.9720 C   0  0  2  0  0  0  0  0  0  0  0  0
   -0.5890    0.2130   -0.0470 N   0  0  0  0  0  0  0  0  0  0  0  0
   -0.1030   -1.8660   -1.2060 C   0  0  0  0  0  0  0  0  0  0  0  0
    1.0120   -1.8550   -0.6230 O   0  0  0  0  0  0  0  0  0  0  0  0
   -1.4360    2.4890   -2.3890 H   0  0  0  0  0  0  0  0  0  0  0  0
   -0.1360    2.5380   -3.6050 H   0  0  0  0  0  0  0  0  0  0  0  0
   -2.1320   -1.0250   -2.7940 H   0  0  0  0  0  0  0  0  0  0  0  0
   -2.5130    0.4580   -1.9130 H   0  0  0  0  0  0  0  0  0  0  0  0
   -1.9410   -1.2940   -0.4370 H   0  0  0  0  0  0  0  0  0  0  0  0
    0.2010    0.8540   -0.3330 H   0  0  0  0  0  0  0  0  0  0  0  0
   -0.3950   -2.9380   -2.0860 N   0  0  0  0  0  0  0  0  0  0  0  0
    0.4840   -4.0220   -2.3680 C   0  0  1  0  0  0  0  0  0  0  0  0
   -0.1080   -5.3120   -1.8600 C   0  0  0  0  0  0  0  0  0  0  0  0
   -0.3480   -5.3350   -0.3960 C   0  0  0  0  0  0  0  0  0  0  0  0
    0.5200   -5.9070    0.5490 C   0  0  0  0  0  0  0  0  0  0  0  0
   -0.0000   -5.7220    1.7690 N   0  0  0  0  0  0  0  0  0  0  0  0
   -1.1640   -5.0590    1.6790 C   0  0  0  0  0  0  0  0  0  0  0  0
   -2.0800   -4.6370    2.6500 C   0  0  0  0  0  0  0  0  0  0  0  0
   -3.2310   -3.9680    2.3010 C   0  0  0  0  0  0  0  0  0  0  0  0
   -3.4540   -3.7280    0.9670 C   0  0  0  0  0  0  0  0  0  0  0  0
   -2.5390   -4.1500    0.0080 C   0  0  0  0  0  0  0  0  0  0  0  0
   -1.3870   -4.8170    0.3420 C   0  0  0  0  0  0  0  0  0  0  0  0
    0.7220   -4.2070   -3.8200 C   0  0  0  0  0  0  0  0  0  0  0  0
    1.4630   -5.1000   -4.2440 O   0  0  0  0  0  0  0  0  0  0  0  0
    0.0980   -3.3560   -4.7110 O   0  0  0  0  0  0  0  0  0  0  0  0
   -1.3380   -2.8850   -2.5580 H   0  0  0  0  0  0  0  0  0  0  0  0
    1.4790   -3.8340   -1.8910 H   0  0  0  0  0  0  0  0  0  0  0  0
   -1.1280   -5.4170   -2.3290 H   0  0  0  0  0  0  0  0  0  0  0  0
    0.4920   -6.1970   -2.1500 H   0  0  0  0  0  0  0  0  0  0  0  0
    1.4340   -6.3980    0.2770 H   0  0  0  0  0  0  0  0  0  0  0  0
    0.4230   -6.0380    2.6610 H   0  0  0  0  0  0  0  0  0  0  0  0
   -1.8980   -4.8300    3.6890 H   0  0  0  0  0  0  0  0  0  0  0  0
   -3.9350   -3.6460    3.0780 H   0  0  0  0  0  0  0  0  0  0  0  0
   -4.3530   -3.2040    0.6820 H   0  0  0  0  0  0  0  0  0  0  0  0
   -2.7350   -3.9670   -1.0400 H   0  0  0  0  0  0  0  0  0  0  0  0
  1 16  1  0  0  0  0
  2 17  1  6  0  0  0
  2  3  1  0  0  0  0
  2  1  1  0  0  0  0
  3 19  1  0  0  0  0
  3  4  1  0  0  0  0
  4  5  2  0  0  0  0
  5  6  1  0  0  0  0
  5 20  1  0  0  0  0
  6 21  1  0  0  0  0
  7  6  1  0  0  0  0
  8  7  1  0  0  0  0
  8 22  1  0  0  0  0
  9  8  2  0  0  0  0
 10 11  2  0  0  0  0
 10  9  1  0  0  0  0
 11 12  1  0  0  0  0
 12  4  1  0  0  0  0
 12  7  2  0  0  0  0
 13 14  2  0  0  0  0
 13  2  1  0  0  0  0
 15  1  1  0  0  0  0
 18  3  1  0  0  0  0
 23  9  1  0  0  0  0
 24 10  1  0  0  0  0
 25 11  1  0  0  0  0
 26 34  1  0  0  0  0
 27 26  1  0  0  0  0
 27 29  1  0  0  0  0
 28 27  2  0  0  0  0
 29 37  1  0  0  0  0
 29 30  1  0  0  0  0
 30 38  1  1  0  0  0
 30 31  1  0  0  0  0
 31 13  1  0  0  0  0
 32 30  1  0  0  0  0
 32 33  2  0  0  0  0
 35 26  1  0  0  0  0
 36 29  1  0  0  0  0
 39 31  1  0  0  0  0
 40 32  1  0  0  0  0
 41 40  1  0  0  0  0
 41 56  1  1  0  0  0
 41 42  1  0  0  0  0
 42 43  1  0  0  0  0
 43 51  1  0  0  0  0
 43 44  2  0  0  0  0
 44 45  1  0  0  0  0
 45 60  1  0  0  0  0
 46 45  1  0  0  0  0
 46 47  1  0  0  0  0
 47 61  1  0  0  0  0
 48 47  2  0  0  0  0
 48 62  1  0  0  0  0
 49 48  1  0  0  0  0
 50 51  1  0  0  0  0
 50 49  2  0  0  0  0
 51 46  2  0  0  0  0
 52 41  1  0  0  0  0
 53 52  1  0  0  0  0
 54 52  2  0  0  0  0
 55 40  1  0  0  0  0
 57 42  1  0  0  0  0
 58 42  1  0  0  0  0
 59 44  1  0  0  0  0
 63 49  1  0  0  0  0
 64 50  1  0  0  0  0
M  END
$$$$
