WPA.pdb
 OpenBabel07022419183D

 50 52  0  0  1  0  0  0  0  0999 V2000
    0.9840   -0.6010    2.2320 N   0  0  0  0  0  0  0  0  0  0  0  0
    0.1650    0.4360    2.7510 C   0  0  1  0  0  0  0  0  0  0  0  0
   -0.0440    1.6450    1.9150 C   0  0  0  0  0  0  0  0  0  0  0  0
    1.1550    2.4190    1.5400 C   0  0  0  0  0  0  0  0  0  0  0  0
    1.6740    3.5150    2.2310 C   0  0  0  0  0  0  0  0  0  0  0  0
    2.7810    3.9290    1.6130 N   0  0  0  0  0  0  0  0  0  0  0  0
    3.0310    3.1510    0.5240 C   0  0  0  0  0  0  0  0  0  0  0  0
    4.0210    3.1750   -0.4310 C   0  0  0  0  0  0  0  0  0  0  0  0
    4.0330    2.2690   -1.4580 C   0  0  0  0  0  0  0  0  0  0  0  0
    3.0390    1.3270   -1.5280 C   0  0  0  0  0  0  0  0  0  0  0  0
    2.0580    1.3110   -0.5720 C   0  0  0  0  0  0  0  0  0  0  0  0
    1.9970    2.2080    0.4950 C   0  0  0  0  0  0  0  0  0  0  0  0
   -1.1830   -0.0920    3.1080 C   0  0  0  0  0  0  0  0  0  0  0  0
   -1.8830    0.7400    3.7970 O   0  0  0  0  0  0  0  0  0  0  0  0
    1.7980   -0.2550    1.6590 H   0  0  0  0  0  0  0  0  0  0  0  0
    1.4070   -1.1870    3.0270 H   0  0  0  0  0  0  0  0  0  0  0  0
    0.6820    0.7880    3.7130 H   0  0  0  0  0  0  0  0  0  0  0  0
   -0.7340    2.3820    2.4160 H   0  0  0  0  0  0  0  0  0  0  0  0
   -0.5990    1.3160    1.0030 H   0  0  0  0  0  0  0  0  0  0  0  0
    1.2600    3.9640    3.1200 H   0  0  0  0  0  0  0  0  0  0  0  0
    3.4080    4.7170    1.8660 H   0  0  0  0  0  0  0  0  0  0  0  0
    4.8080    3.9230   -0.3760 H   0  0  0  0  0  0  0  0  0  0  0  0
    4.8250    2.2850   -2.2260 H   0  0  0  0  0  0  0  0  0  0  0  0
    3.0610    0.6190   -2.3440 H   0  0  0  0  0  0  0  0  0  0  0  0
    1.2540    0.5570   -0.6210 H   0  0  0  0  0  0  0  0  0  0  0  0
   -1.7070   -1.3550    2.7630 N   0  0  0  0  0  0  0  0  0  0  0  0
   -3.0560   -1.7490    3.2060 C   0  0  0  0  0  0  0  0  0  0  0  0
   -3.4060   -2.8230    2.2000 C   0  0  0  0  0  0  0  0  0  0  0  0
   -2.0820   -3.5870    2.1570 C   0  0  0  0  0  0  0  0  0  0  0  0
   -1.1280   -2.4020    1.9830 C   0  0  1  0  0  0  0  0  0  0  0  0
   -1.2000   -2.0870    0.5070 C   0  0  0  0  0  0  0  0  0  0  0  0
   -1.7260   -1.0280    0.1220 O   0  0  0  0  0  0  0  0  0  0  0  0
   -3.0690   -2.0950    4.2440 H   0  0  0  0  0  0  0  0  0  0  0  0
   -3.7240   -0.8600    3.0500 H   0  0  0  0  0  0  0  0  0  0  0  0
   -4.2170   -3.4760    2.5760 H   0  0  0  0  0  0  0  0  0  0  0  0
   -3.6320   -2.3850    1.2070 H   0  0  0  0  0  0  0  0  0  0  0  0
   -2.0680   -4.1660    1.2290 H   0  0  0  0  0  0  0  0  0  0  0  0
   -1.9030   -4.1420    3.0770 H   0  0  0  0  0  0  0  0  0  0  0  0
   -0.1190   -2.7160    2.2640 H   0  0  0  0  0  0  0  0  0  0  0  0
    0.6250   -2.8030   -2.5460 C   0  0  0  0  0  0  0  0  0  0  0  0
   -0.7070   -2.7620   -1.8850 C   0  0  2  0  0  0  0  0  0  0  0  0
   -0.6800   -2.9740   -0.4610 N   0  0  0  0  0  0  0  0  0  0  0  0
   -1.5760   -3.8370   -2.4720 C   0  0  0  0  0  0  0  0  0  0  0  0
   -1.8090   -3.9280   -3.7020 O   0  0  0  0  0  0  0  0  0  0  0  0
   -2.1790   -4.8140   -1.6550 O   0  0  0  0  0  0  0  0  0  0  0  0
    0.5110   -3.3130   -3.5310 H   0  0  0  0  0  0  0  0  0  0  0  0
    1.0320   -1.7980   -2.7960 H   0  0  0  0  0  0  0  0  0  0  0  0
    1.3560   -3.4110   -1.9670 H   0  0  0  0  0  0  0  0  0  0  0  0
   -1.2260   -1.7950   -2.1450 H   0  0  0  0  0  0  0  0  0  0  0  0
   -0.2340   -3.8630   -0.1260 H   0  0  0  0  0  0  0  0  0  0  0  0
  1  2  1  0  0  0  0
  1 16  1  0  0  0  0
  2 13  1  0  0  0  0
  2 17  1  1  0  0  0
  3 18  1  0  0  0  0
  3  2  1  0  0  0  0
  4  3  1  0  0  0  0
  4  5  2  0  0  0  0
  5 20  1  0  0  0  0
  6 21  1  0  0  0  0
  6  5  1  0  0  0  0
  7  6  1  0  0  0  0
  8 22  1  0  0  0  0
  8  7  2  0  0  0  0
  9  8  1  0  0  0  0
 10  9  2  0  0  0  0
 10 11  1  0  0  0  0
 11 12  2  0  0  0  0
 12  7  1  0  0  0  0
 12  4  1  0  0  0  0
 13 14  2  0  0  0  0
 15  1  1  0  0  0  0
 19  3  1  0  0  0  0
 23  9  1  0  0  0  0
 24 10  1  0  0  0  0
 25 11  1  0  0  0  0
 26 13  1  0  0  0  0
 26 27  1  0  0  0  0
 27 33  1  0  0  0  0
 28 35  1  0  0  0  0
 28 27  1  0  0  0  0
 29 28  1  0  0  0  0
 29 38  1  0  0  0  0
 30 29  1  0  0  0  0
 30 39  1  1  0  0  0
 30 26  1  0  0  0  0
 31 30  1  0  0  0  0
 32 31  2  0  0  0  0
 34 27  1  0  0  0  0
 36 28  1  0  0  0  0
 37 29  1  0  0  0  0
 40 48  1  0  0  0  0
 40 41  1  0  0  0  0
 41 49  1  6  0  0  0
 41 42  1  0  0  0  0
 42 50  1  0  0  0  0
 42 31  1  0  0  0  0
 43 41  1  0  0  0  0
 43 45  1  0  0  0  0
 44 43  2  0  0  0  0
 46 40  1  0  0  0  0
 47 40  1  0  0  0  0
M  END
$$$$
