WPC.pdb
 OpenBabel07022419183D

 51 53  0  0  1  0  0  0  0  0999 V2000
    1.6350    0.0510    1.8830 N   0  0  0  0  0  0  0  0  0  0  0  0
    1.1920    0.5020    0.6150 C   0  0  1  0  0  0  0  0  0  0  0  0
    2.3170    0.9840   -0.2900 C   0  0  0  0  0  0  0  0  0  0  0  0
    3.0730    2.1190    0.2680 C   0  0  0  0  0  0  0  0  0  0  0  0
    2.8510    3.4520   -0.1100 C   0  0  0  0  0  0  0  0  0  0  0  0
    3.6770    4.2500    0.5850 N   0  0  0  0  0  0  0  0  0  0  0  0
    4.4560    3.5210    1.4250 C   0  0  0  0  0  0  0  0  0  0  0  0
    5.4410    3.8580    2.3240 C   0  0  0  0  0  0  0  0  0  0  0  0
    6.0820    2.8870    3.0520 C   0  0  0  0  0  0  0  0  0  0  0  0
    5.7050    1.5780    2.8500 C   0  0  0  0  0  0  0  0  0  0  0  0
    4.7140    1.2470    1.9450 C   0  0  0  0  0  0  0  0  0  0  0  0
    4.0660    2.2010    1.2120 C   0  0  0  0  0  0  0  0  0  0  0  0
    0.2470   -0.3460   -0.1070 C   0  0  0  0  0  0  0  0  0  0  0  0
   -0.0170   -0.0580   -1.3380 O   0  0  0  0  0  0  0  0  0  0  0  0
    1.9090    0.8040    2.5300 H   0  0  0  0  0  0  0  0  0  0  0  0
    2.2970   -0.7570    1.8390 H   0  0  0  0  0  0  0  0  0  0  0  0
    0.6220    1.4740    0.8370 H   0  0  0  0  0  0  0  0  0  0  0  0
    1.8800    1.2280   -1.2670 H   0  0  0  0  0  0  0  0  0  0  0  0
    2.9670    0.1000   -0.4510 H   0  0  0  0  0  0  0  0  0  0  0  0
    2.1220    3.7680   -0.8510 H   0  0  0  0  0  0  0  0  0  0  0  0
    3.7720    5.2980    0.5470 H   0  0  0  0  0  0  0  0  0  0  0  0
    5.7260    4.8850    2.4720 H   0  0  0  0  0  0  0  0  0  0  0  0
    6.8710    3.1210    3.7770 H   0  0  0  0  0  0  0  0  0  0  0  0
    6.1980    0.7970    3.4140 H   0  0  0  0  0  0  0  0  0  0  0  0
    4.4230    0.2070    1.7790 H   0  0  0  0  0  0  0  0  0  0  0  0
   -0.4420   -1.4830    0.3880 N   0  0  0  0  0  0  0  0  0  0  0  0
   -0.4500   -2.1170    1.6890 C   0  0  0  0  0  0  0  0  0  0  0  0
   -0.1610   -3.5690    1.2590 C   0  0  0  0  0  0  0  0  0  0  0  0
   -0.8930   -3.7010   -0.0660 C   0  0  0  0  0  0  0  0  0  0  0  0
   -1.3690   -2.3340   -0.3890 C   0  0  1  0  0  0  0  0  0  0  0  0
   -2.7820   -2.0520   -0.0520 C   0  0  0  0  0  0  0  0  0  0  0  0
   -3.0460   -1.1160    0.7330 O   0  0  0  0  0  0  0  0  0  0  0  0
   -1.5010   -2.1380    2.0810 H   0  0  0  0  0  0  0  0  0  0  0  0
    0.2650   -1.7600    2.4100 H   0  0  0  0  0  0  0  0  0  0  0  0
   -0.4980   -4.2860    2.0070 H   0  0  0  0  0  0  0  0  0  0  0  0
    0.9400   -3.5990    1.0760 H   0  0  0  0  0  0  0  0  0  0  0  0
   -0.2130   -4.0350   -0.8880 H   0  0  0  0  0  0  0  0  0  0  0  0
   -1.6930   -4.4640   -0.0180 H   0  0  0  0  0  0  0  0  0  0  0  0
   -1.2760   -2.0800   -1.4750 H   0  0  0  0  0  0  0  0  0  0  0  0
   -3.8640   -2.8010   -0.5830 N   0  0  0  0  0  0  0  0  0  0  0  0
   -5.2610   -2.5090   -0.2390 C   0  0  1  0  0  0  0  0  0  0  0  0
   -5.9680   -2.2240   -1.5470 C   0  0  0  0  0  0  0  0  0  0  0  0
   -5.8040   -3.7330   -2.5690 S   0  0  0  0  0  0  0  0  0  0  0  0
   -5.9040   -3.6880    0.3780 C   0  0  0  0  0  0  0  0  0  0  0  0
   -7.1060   -3.5780    0.7240 O   0  0  0  0  0  0  0  0  0  0  0  0
   -5.2760   -4.9030    0.6010 O   0  0  0  0  0  0  0  0  0  0  0  0
   -3.6250   -3.5770   -1.2350 H   0  0  0  0  0  0  0  0  0  0  0  0
   -5.2540   -1.6500    0.4520 H   0  0  0  0  0  0  0  0  0  0  0  0
   -7.0380   -1.9710   -1.3930 H   0  0  0  0  0  0  0  0  0  0  0  0
   -5.4280   -1.4070   -2.0620 H   0  0  0  0  0  0  0  0  0  0  0  0
   -5.7450   -4.8410   -1.6900 H   0  0  0  0  0  0  0  0  0  0  0  0
  1 15  1  0  0  0  0
  2 17  1  1  0  0  0
  2  1  1  0  0  0  0
  3  4  1  0  0  0  0
  3  2  1  0  0  0  0
  4 12  1  0  0  0  0
  5  4  2  0  0  0  0
  5  6  1  0  0  0  0
  6  7  1  0  0  0  0
  7  8  1  0  0  0  0
  8 22  1  0  0  0  0
  8  9  2  0  0  0  0
  9 23  1  0  0  0  0
 10  9  1  0  0  0  0
 10 24  1  0  0  0  0
 11 10  2  0  0  0  0
 12  7  2  0  0  0  0
 12 11  1  0  0  0  0
 13 26  1  0  0  0  0
 13  2  1  0  0  0  0
 14 13  2  0  0  0  0
 16  1  1  0  0  0  0
 18  3  1  0  0  0  0
 19  3  1  0  0  0  0
 20  5  1  0  0  0  0
 21  6  1  0  0  0  0
 25 11  1  0  0  0  0
 26 27  1  0  0  0  0
 27 33  1  0  0  0  0
 27 34  1  0  0  0  0
 28 27  1  0  0  0  0
 28 35  1  0  0  0  0
 29 38  1  0  0  0  0
 29 28  1  0  0  0  0
 30 39  1  6  0  0  0
 30 29  1  0  0  0  0
 30 31  1  0  0  0  0
 30 26  1  0  0  0  0
 31 32  2  0  0  0  0
 36 28  1  0  0  0  0
 37 29  1  0  0  0  0
 40 41  1  0  0  0  0
 40 31  1  0  0  0  0
 41 44  1  0  0  0  0
 41 48  1  1  0  0  0
 42 49  1  0  0  0  0
 42 41  1  0  0  0  0
 43 51  1  0  0  0  0
 43 42  1  0  0  0  0
 44 46  2  0  0  0  0
 44 45  1  0  0  0  0
 47 40  1  0  0  0  0
 50 42  1  0  0  0  0
M  END
$$$$
