WPD.pdb
 OpenBabel07022419183D

 53 55  0  0  1  0  0  0  0  0999 V2000
    0.9720   -0.4830    0.1120 N   0  0  0  0  0  0  0  0  0  0  0  0
    0.4300    0.6860    0.7710 C   0  0  1  0  0  0  0  0  0  0  0  0
    1.5540    1.6760    0.9000 C   0  0  0  0  0  0  0  0  0  0  0  0
    2.7310    1.1910    1.6410 C   0  0  0  0  0  0  0  0  0  0  0  0
    3.2020   -0.0750    1.8040 C   0  0  0  0  0  0  0  0  0  0  0  0
    4.3560   -0.0770    2.5370 N   0  0  0  0  0  0  0  0  0  0  0  0
    4.6300    1.2030    2.8510 C   0  0  0  0  0  0  0  0  0  0  0  0
    5.6930    1.7510    3.5790 C   0  0  0  0  0  0  0  0  0  0  0  0
    5.7280    3.1090    3.7440 C   0  0  0  0  0  0  0  0  0  0  0  0
    4.7350    3.9190    3.2020 C   0  0  0  0  0  0  0  0  0  0  0  0
    3.7020    3.3520    2.4900 C   0  0  0  0  0  0  0  0  0  0  0  0
    3.6500    2.0040    2.3160 C   0  0  0  0  0  0  0  0  0  0  0  0
   -0.6820    1.2710   -0.0430 C   0  0  0  0  0  0  0  0  0  0  0  0
   -0.4750    2.4950   -0.3770 O   0  0  0  0  0  0  0  0  0  0  0  0
    1.0770   -0.4260   -0.8930 H   0  0  0  0  0  0  0  0  0  0  0  0
    0.5760   -1.3700    0.4240 H   0  0  0  0  0  0  0  0  0  0  0  0
    0.0490    0.3820    1.7420 H   0  0  0  0  0  0  0  0  0  0  0  0
    1.1590    2.6130    1.3890 H   0  0  0  0  0  0  0  0  0  0  0  0
    1.8880    2.0190   -0.1060 H   0  0  0  0  0  0  0  0  0  0  0  0
    2.8010   -1.0020    1.4450 H   0  0  0  0  0  0  0  0  0  0  0  0
    4.9220   -0.9010    2.8050 H   0  0  0  0  0  0  0  0  0  0  0  0
    6.4540    1.1330    3.9980 H   0  0  0  0  0  0  0  0  0  0  0  0
    6.5410    3.5850    4.3080 H   0  0  0  0  0  0  0  0  0  0  0  0
    4.7780    4.9860    3.3370 H   0  0  0  0  0  0  0  0  0  0  0  0
    2.9050    3.9410    2.0490 H   0  0  0  0  0  0  0  0  0  0  0  0
   -1.8580    0.6750   -0.4570 N   0  0  0  0  0  0  0  0  0  0  0  0
   -2.8460    1.3200   -1.3430 C   0  0  0  0  0  0  0  0  0  0  0  0
   -4.1580    0.9310   -0.6690 C   0  0  0  0  0  0  0  0  0  0  0  0
   -3.9330   -0.4860   -0.1950 C   0  0  0  0  0  0  0  0  0  0  0  0
   -2.4220   -0.5820   -0.1030 C   0  0  1  0  0  0  0  0  0  0  0  0
   -1.9030   -1.6850   -0.9240 C   0  0  0  0  0  0  0  0  0  0  0  0
   -1.1460   -1.5500   -1.9100 O   0  0  0  0  0  0  0  0  0  0  0  0
   -2.6630    2.4080   -1.2930 H   0  0  0  0  0  0  0  0  0  0  0  0
   -2.7670    0.9230   -2.3580 H   0  0  0  0  0  0  0  0  0  0  0  0
   -4.9960    1.0280   -1.3870 H   0  0  0  0  0  0  0  0  0  0  0  0
   -4.3190    1.6580    0.1540 H   0  0  0  0  0  0  0  0  0  0  0  0
   -4.4130   -0.6080    0.7890 H   0  0  0  0  0  0  0  0  0  0  0  0
   -4.3650   -1.1830   -0.9460 H   0  0  0  0  0  0  0  0  0  0  0  0
   -2.1640   -0.7420    0.9940 H   0  0  0  0  0  0  0  0  0  0  0  0
   -2.2510   -3.0600   -0.6160 N   0  0  0  0  0  0  0  0  0  0  0  0
   -1.7550   -4.1880   -1.3480 C   0  0  1  0  0  0  0  0  0  0  0  0
   -1.2510   -5.2230   -0.3660 C   0  0  0  0  0  0  0  0  0  0  0  0
   -2.3490   -5.6710    0.4790 C   0  0  0  0  0  0  0  0  0  0  0  0
   -3.5300   -5.3500    0.3220 O   0  0  0  0  0  0  0  0  0  0  0  0
   -2.8300   -4.8220   -2.1730 C   0  0  0  0  0  0  0  0  0  0  0  0
   -4.0130   -4.4510   -2.2130 O   0  0  0  0  0  0  0  0  0  0  0  0
   -2.0640   -6.5430    1.5650 O   0  0  0  0  0  0  0  0  0  0  0  0
   -2.4600   -5.9200   -2.9590 O   0  0  0  0  0  0  0  0  0  0  0  0
   -2.8980   -3.1520    0.1910 H   0  0  0  0  0  0  0  0  0  0  0  0
   -0.9510   -3.9510   -2.0500 H   0  0  0  0  0  0  0  0  0  0  0  0
   -0.8070   -6.1010   -0.8840 H   0  0  0  0  0  0  0  0  0  0  0  0
   -0.4240   -4.7440    0.2390 H   0  0  0  0  0  0  0  0  0  0  0  0
   -2.8200   -6.8530    2.1520 H   0  0  0  0  0  0  0  0  0  0  0  0
  1 16  1  0  0  0  0
  1  2  1  0  0  0  0
  2  3  1  0  0  0  0
  2 17  1  1  0  0  0
  3 18  1  0  0  0  0
  3  4  1  0  0  0  0
  4  5  2  0  0  0  0
  4 12  1  0  0  0  0
  5  6  1  0  0  0  0
  6 21  1  0  0  0  0
  6  7  1  0  0  0  0
  7  8  1  0  0  0  0
  8  9  2  0  0  0  0
  8 22  1  0  0  0  0
  9 23  1  0  0  0  0
 10 24  1  0  0  0  0
 10  9  1  0  0  0  0
 11 10  2  0  0  0  0
 12 11  1  0  0  0  0
 12  7  2  0  0  0  0
 13  2  1  0  0  0  0
 14 13  2  0  0  0  0
 15  1  1  0  0  0  0
 19  3  1  0  0  0  0
 20  5  1  0  0  0  0
 25 11  1  0  0  0  0
 26 30  1  0  0  0  0
 26 13  1  0  0  0  0
 27 33  1  0  0  0  0
 27 28  1  0  0  0  0
 27 26  1  0  0  0  0
 28 29  1  0  0  0  0
 28 36  1  0  0  0  0
 29 30  1  0  0  0  0
 29 37  1  0  0  0  0
 30 39  1  1  0  0  0
 31 40  1  0  0  0  0
 31 30  1  0  0  0  0
 32 31  2  0  0  0  0
 34 27  1  0  0  0  0
 35 28  1  0  0  0  0
 38 29  1  0  0  0  0
 40 49  1  0  0  0  0
 41 50  1  6  0  0  0
 41 40  1  0  0  0  0
 41 42  1  0  0  0  0
 42 52  1  0  0  0  0
 42 43  1  0  0  0  0
 43 47  1  0  0  0  0
 44 43  2  0  0  0  0
 45 41  1  0  0  0  0
 46 45  1  0  0  0  0
 47 53  1  0  0  0  0
 48 45  2  0  0  0  0
 51 42  1  0  0  0  0
M  END
$$$$
