WPE.pdb
 OpenBabel07022419183D

 56 58  0  0  1  0  0  0  0  0999 V2000
   -0.7390    1.4270    3.9740 N   0  0  0  0  0  0  0  0  0  0  0  0
    0.1660    1.7420    2.8710 C   0  0  1  0  0  0  0  0  0  0  0  0
    1.5530    1.9400    3.4430 C   0  0  0  0  0  0  0  0  0  0  0  0
    2.5980    2.2350    2.4560 C   0  0  0  0  0  0  0  0  0  0  0  0
    3.0420    3.4960    2.0990 C   0  0  0  0  0  0  0  0  0  0  0  0
    3.9860    3.3550    1.1410 N   0  0  0  0  0  0  0  0  0  0  0  0
    4.1760    2.0550    0.8580 C   0  0  0  0  0  0  0  0  0  0  0  0
    5.0140    1.3850   -0.0140 C   0  0  0  0  0  0  0  0  0  0  0  0
    5.0220    0.0110   -0.1010 C   0  0  0  0  0  0  0  0  0  0  0  0
    4.1390   -0.6590    0.7380 C   0  0  0  0  0  0  0  0  0  0  0  0
    3.3030   -0.0180    1.6070 C   0  0  0  0  0  0  0  0  0  0  0  0
    3.3130    1.3610    1.6750 C   0  0  0  0  0  0  0  0  0  0  0  0
    0.0860    0.8100    1.7450 C   0  0  0  0  0  0  0  0  0  0  0  0
    0.5760    1.1990    0.6300 O   0  0  0  0  0  0  0  0  0  0  0  0
   -0.1580    1.2160    4.8400 H   0  0  0  0  0  0  0  0  0  0  0  0
   -1.3090    2.2640    4.2770 H   0  0  0  0  0  0  0  0  0  0  0  0
   -0.1450    2.7940    2.5550 H   0  0  0  0  0  0  0  0  0  0  0  0
    1.4730    2.8270    4.1380 H   0  0  0  0  0  0  0  0  0  0  0  0
    1.8240    1.0660    4.0790 H   0  0  0  0  0  0  0  0  0  0  0  0
    2.7190    4.4540    2.4920 H   0  0  0  0  0  0  0  0  0  0  0  0
    4.4820    4.1580    0.6990 H   0  0  0  0  0  0  0  0  0  0  0  0
    5.6710    1.9520   -0.6360 H   0  0  0  0  0  0  0  0  0  0  0  0
    5.6460   -0.5510   -0.7550 H   0  0  0  0  0  0  0  0  0  0  0  0
    4.1190   -1.7470    0.6950 H   0  0  0  0  0  0  0  0  0  0  0  0
    2.6340   -0.5930    2.2380 H   0  0  0  0  0  0  0  0  0  0  0  0
   -0.4820   -0.4930    1.7540 N   0  0  0  0  0  0  0  0  0  0  0  0
   -1.0840   -1.1190    2.9090 C   0  0  0  0  0  0  0  0  0  0  0  0
   -1.1340   -2.6110    2.6180 C   0  0  0  0  0  0  0  0  0  0  0  0
   -0.3730   -2.7580    1.3110 C   0  0  0  0  0  0  0  0  0  0  0  0
   -0.5690   -1.4090    0.6630 C   0  0  1  0  0  0  0  0  0  0  0  0
   -1.8890   -1.4130   -0.0070 C   0  0  0  0  0  0  0  0  0  0  0  0
   -2.8040   -0.6540    0.4210 O   0  0  0  0  0  0  0  0  0  0  0  0
   -0.5310   -0.9190    3.8520 H   0  0  0  0  0  0  0  0  0  0  0  0
   -2.1140   -0.7000    3.0120 H   0  0  0  0  0  0  0  0  0  0  0  0
   -2.1580   -2.9940    2.5790 H   0  0  0  0  0  0  0  0  0  0  0  0
   -0.6010   -3.1910    3.4140 H   0  0  0  0  0  0  0  0  0  0  0  0
   -0.9300   -3.5220    0.7210 H   0  0  0  0  0  0  0  0  0  0  0  0
    0.6840   -3.0060    1.4730 H   0  0  0  0  0  0  0  0  0  0  0  0
    0.2560   -1.1660   -0.0440 H   0  0  0  0  0  0  0  0  0  0  0  0
   -2.2040   -2.2240   -1.1150 N   0  0  0  0  0  0  0  0  0  0  0  0
   -3.5030   -2.2300   -1.7820 C   0  0  1  0  0  0  0  0  0  0  0  0
   -3.4290   -1.7260   -3.1700 C   0  0  0  0  0  0  0  0  0  0  0  0
   -2.5230   -2.3750   -4.1300 C   0  0  0  0  0  0  0  0  0  0  0  0
   -2.7010   -3.7810   -4.4650 C   0  0  0  0  0  0  0  0  0  0  0  0
   -3.5480   -4.5960   -4.0760 O   0  0  0  0  0  0  0  0  0  0  0  0
   -4.1410   -3.5240   -1.5750 C   0  0  0  0  0  0  0  0  0  0  0  0
   -5.3540   -3.7420   -1.9330 O   0  0  0  0  0  0  0  0  0  0  0  0
   -1.7660   -4.3320   -5.3850 O   0  0  0  0  0  0  0  0  0  0  0  0
   -3.4930   -4.6000   -0.9830 O   0  0  0  0  0  0  0  0  0  0  0  0
   -1.4730   -2.8610   -1.4900 H   0  0  0  0  0  0  0  0  0  0  0  0
   -4.1720   -1.4600   -1.2370 H   0  0  0  0  0  0  0  0  0  0  0  0
   -4.4800   -1.8330   -3.5990 H   0  0  0  0  0  0  0  0  0  0  0  0
   -3.2770   -0.6150   -3.1540 H   0  0  0  0  0  0  0  0  0  0  0  0
   -1.4460   -2.1340   -3.8820 H   0  0  0  0  0  0  0  0  0  0  0  0
   -2.6480   -1.7990   -5.1160 H   0  0  0  0  0  0  0  0  0  0  0  0
   -1.5970   -5.3390   -5.3900 H   0  0  0  0  0  0  0  0  0  0  0  0
  1 16  1  0  0  0  0
  1 15  1  0  0  0  0
  2 17  1  6  0  0  0
  2  3  1  0  0  0  0
  2  1  1  0  0  0  0
  3 19  1  0  0  0  0
  3 18  1  0  0  0  0
  4  3  1  0  0  0  0
  5  4  2  0  0  0  0
  5 20  1  0  0  0  0
  6  5  1  0  0  0  0
  7  6  1  0  0  0  0
  7 12  1  0  0  0  0
  8  7  2  0  0  0  0
  9  8  1  0  0  0  0
  9 10  2  0  0  0  0
 10 11  1  0  0  0  0
 11 12  2  0  0  0  0
 11 25  1  0  0  0  0
 12  4  1  0  0  0  0
 13 26  1  0  0  0  0
 13  2  1  0  0  0  0
 14 13  2  0  0  0  0
 21  6  1  0  0  0  0
 22  8  1  0  0  0  0
 23  9  1  0  0  0  0
 24 10  1  0  0  0  0
 26 27  1  0  0  0  0
 27 34  1  0  0  0  0
 27 33  1  0  0  0  0
 28 27  1  0  0  0  0
 28 36  1  0  0  0  0
 29 38  1  0  0  0  0
 29 28  1  0  0  0  0
 30 39  1  6  0  0  0
 30 29  1  0  0  0  0
 30 26  1  0  0  0  0
 31 32  2  0  0  0  0
 31 30  1  0  0  0  0
 35 28  1  0  0  0  0
 37 29  1  0  0  0  0
 40 31  1  0  0  0  0
 41 46  1  0  0  0  0
 41 51  1  1  0  0  0
 41 40  1  0  0  0  0
 42 53  1  0  0  0  0
 42 41  1  0  0  0  0
 43 54  1  0  0  0  0
 43 42  1  0  0  0  0
 44 43  1  0  0  0  0
 44 45  2  0  0  0  0
 46 49  1  0  0  0  0
 47 46  2  0  0  0  0
 48 44  1  0  0  0  0
 50 40  1  0  0  0  0
 52 42  1  0  0  0  0
 55 43  1  0  0  0  0
 56 48  1  0  0  0  0
M  END
$$$$
