WPF.pdb
 OpenBabel07022419183D

 60 63  0  0  1  0  0  0  0  0999 V2000
    1.0640   -0.9190    3.1000 N   0  0  0  0  0  0  0  0  0  0  0  0
    1.2610    0.4590    3.4800 C   0  0  1  0  0  0  0  0  0  0  0  0
    2.5710    0.9890    2.9920 C   0  0  0  0  0  0  0  0  0  0  0  0
    2.7850    0.9330    1.5300 C   0  0  0  0  0  0  0  0  0  0  0  0
    3.4820   -0.0960    0.8630 C   0  0  0  0  0  0  0  0  0  0  0  0
    3.4840    0.1120   -0.4530 N   0  0  0  0  0  0  0  0  0  0  0  0
    2.8110    1.2490   -0.6960 C   0  0  0  0  0  0  0  0  0  0  0  0
    2.5220    1.9240   -1.8650 C   0  0  0  0  0  0  0  0  0  0  0  0
    1.8030    3.1090   -1.8200 C   0  0  0  0  0  0  0  0  0  0  0  0
    1.3590    3.6490   -0.6430 C   0  0  0  0  0  0  0  0  0  0  0  0
    1.6610    2.9510    0.5290 C   0  0  0  0  0  0  0  0  0  0  0  0
    2.3720    1.7710    0.5230 C   0  0  0  0  0  0  0  0  0  0  0  0
    0.1020    1.2840    3.1890 C   0  0  0  0  0  0  0  0  0  0  0  0
    0.1660    2.4930    3.6360 O   0  0  0  0  0  0  0  0  0  0  0  0
    1.9210   -1.2470    2.6070 H   0  0  0  0  0  0  0  0  0  0  0  0
    0.9930   -1.5070    3.9570 H   0  0  0  0  0  0  0  0  0  0  0  0
    1.3410    0.4900    4.6450 H   0  0  0  0  0  0  0  0  0  0  0  0
    3.3820    0.3690    3.4700 H   0  0  0  0  0  0  0  0  0  0  0  0
    2.7440    2.0400    3.3580 H   0  0  0  0  0  0  0  0  0  0  0  0
    3.9370   -0.9160    1.3820 H   0  0  0  0  0  0  0  0  0  0  0  0
    3.9220   -0.4840   -1.1960 H   0  0  0  0  0  0  0  0  0  0  0  0
    2.8700    1.5050   -2.8120 H   0  0  0  0  0  0  0  0  0  0  0  0
    1.5860    3.6230   -2.7480 H   0  0  0  0  0  0  0  0  0  0  0  0
    0.7920    4.5780   -0.5780 H   0  0  0  0  0  0  0  0  0  0  0  0
    1.3470    3.3440    1.4780 H   0  0  0  0  0  0  0  0  0  0  0  0
   -1.0550    0.8950    2.4840 N   0  0  0  0  0  0  0  0  0  0  0  0
   -2.1380    1.8860    2.2520 C   0  0  0  0  0  0  0  0  0  0  0  0
   -3.3160    1.1200    1.7580 C   0  0  0  0  0  0  0  0  0  0  0  0
   -2.9850   -0.3020    2.0650 C   0  0  0  0  0  0  0  0  0  0  0  0
   -1.4770   -0.3550    1.8920 C   0  0  1  0  0  0  0  0  0  0  0  0
   -1.0900   -0.5020    0.4740 C   0  0  0  0  0  0  0  0  0  0  0  0
   -0.5110    0.4710   -0.0760 O   0  0  0  0  0  0  0  0  0  0  0  0
   -2.3470    2.3110    3.2660 H   0  0  0  0  0  0  0  0  0  0  0  0
   -1.8070    2.6600    1.5590 H   0  0  0  0  0  0  0  0  0  0  0  0
   -4.2070    1.4010    2.3640 H   0  0  0  0  0  0  0  0  0  0  0  0
   -3.5250    1.3010    0.6840 H   0  0  0  0  0  0  0  0  0  0  0  0
   -3.2050   -0.5060    3.1340 H   0  0  0  0  0  0  0  0  0  0  0  0
   -3.5210   -1.0410    1.4740 H   0  0  0  0  0  0  0  0  0  0  0  0
   -1.0730   -1.1940    2.4620 H   0  0  0  0  0  0  0  0  0  0  0  0
   -1.3670   -1.7000   -0.2290 N   0  0  0  0  0  0  0  0  0  0  0  0
   -1.0050   -1.8660   -1.5980 C   0  0  1  0  0  0  0  0  0  0  0  0
    0.0060   -2.9550   -1.8310 C   0  0  0  0  0  0  0  0  0  0  0  0
   -0.4240   -4.2820   -1.4040 C   0  0  0  0  0  0  0  0  0  0  0  0
   -0.1390   -4.6630   -0.1000 C   0  0  0  0  0  0  0  0  0  0  0  0
   -0.5000   -5.8920    0.4030 C   0  0  0  0  0  0  0  0  0  0  0  0
   -1.1610   -6.7690   -0.4070 C   0  0  0  0  0  0  0  0  0  0  0  0
   -1.4580   -6.4150   -1.7100 C   0  0  0  0  0  0  0  0  0  0  0  0
   -1.0890   -5.1870   -2.1890 C   0  0  0  0  0  0  0  0  0  0  0  0
   -2.1970   -2.0810   -2.4770 C   0  0  0  0  0  0  0  0  0  0  0  0
   -2.0700   -2.2470   -3.7180 O   0  0  0  0  0  0  0  0  0  0  0  0
   -3.4970   -2.1090   -1.9890 O   0  0  0  0  0  0  0  0  0  0  0  0
   -1.8580   -2.4560    0.3330 H   0  0  0  0  0  0  0  0  0  0  0  0
   -0.5290   -0.9230   -1.9410 H   0  0  0  0  0  0  0  0  0  0  0  0
    0.2410   -2.9260   -2.9370 H   0  0  0  0  0  0  0  0  0  0  0  0
    0.9640   -2.7190   -1.3250 H   0  0  0  0  0  0  0  0  0  0  0  0
    0.3900   -3.9940    0.5880 H   0  0  0  0  0  0  0  0  0  0  0  0
   -0.2810   -6.1950    1.4190 H   0  0  0  0  0  0  0  0  0  0  0  0
   -1.4760   -7.7670   -0.0610 H   0  0  0  0  0  0  0  0  0  0  0  0
   -1.9850   -7.1070   -2.3660 H   0  0  0  0  0  0  0  0  0  0  0  0
   -1.3100   -4.8750   -3.2190 H   0  0  0  0  0  0  0  0  0  0  0  0
  1  2  1  0  0  0  0
  1 16  1  0  0  0  0
  2 17  1  1  0  0  0
  3 19  1  0  0  0  0
  3 18  1  0  0  0  0
  3  2  1  0  0  0  0
  4  3  1  0  0  0  0
  5 20  1  0  0  0  0
  5  4  2  0  0  0  0
  6  5  1  0  0  0  0
  7  6  1  0  0  0  0
  7 12  1  0  0  0  0
  8  9  1  0  0  0  0
  8  7  2  0  0  0  0
  9 10  2  0  0  0  0
 10 24  1  0  0  0  0
 10 11  1  0  0  0  0
 11 25  1  0  0  0  0
 12 11  2  0  0  0  0
 12  4  1  0  0  0  0
 13  2  1  0  0  0  0
 13 14  2  0  0  0  0
 15  1  1  0  0  0  0
 21  6  1  0  0  0  0
 22  8  1  0  0  0  0
 23  9  1  0  0  0  0
 26 13  1  0  0  0  0
 27 26  1  0  0  0  0
 27 33  1  0  0  0  0
 28 29  1  0  0  0  0
 28 27  1  0  0  0  0
 28 35  1  0  0  0  0
 29 37  1  0  0  0  0
 30 29  1  0  0  0  0
 30 39  1  1  0  0  0
 30 26  1  0  0  0  0
 31 30  1  0  0  0  0
 32 31  2  0  0  0  0
 34 27  1  0  0  0  0
 36 28  1  0  0  0  0
 38 29  1  0  0  0  0
 40 52  1  0  0  0  0
 40 31  1  0  0  0  0
 41 53  1  6  0  0  0
 41 40  1  0  0  0  0
 42 41  1  0  0  0  0
 42 43  1  0  0  0  0
 42 55  1  0  0  0  0
 43 44  1  0  0  0  0
 44 45  2  0  0  0  0
 44 56  1  0  0  0  0
 45 57  1  0  0  0  0
 46 58  1  0  0  0  0
 46 45  1  0  0  0  0
 47 46  2  0  0  0  0
 48 47  1  0  0  0  0
 48 43  2  0  0  0  0
 49 51  1  0  0  0  0
 49 41  1  0  0  0  0
 50 49  2  0  0  0  0
 54 42  1  0  0  0  0
 59 47  1  0  0  0  0
 60 48  1  0  0  0  0
M  END
$$$$
