WPG.pdb
 OpenBabel07022419183D

 47 49  0  0  1  0  0  0  0  0999 V2000
    2.6210   -1.5700   -0.5380 N   0  0  0  0  0  0  0  0  0  0  0  0
    1.2910   -1.5530    0.1300 C   0  0  1  0  0  0  0  0  0  0  0  0
    1.3920   -0.6070    1.3150 C   0  0  0  0  0  0  0  0  0  0  0  0
    1.7580    0.7640    0.9610 C   0  0  0  0  0  0  0  0  0  0  0  0
    0.8890    1.8330    0.7550 C   0  0  0  0  0  0  0  0  0  0  0  0
    1.5880    2.9170    0.4090 N   0  0  0  0  0  0  0  0  0  0  0  0
    2.9100    2.6140    0.3760 C   0  0  0  0  0  0  0  0  0  0  0  0
    4.0200    3.3650    0.0910 C   0  0  0  0  0  0  0  0  0  0  0  0
    5.2730    2.7870    0.1470 C   0  0  0  0  0  0  0  0  0  0  0  0
    5.4070    1.4610    0.4870 C   0  0  0  0  0  0  0  0  0  0  0  0
    4.2700    0.7140    0.7720 C   0  0  0  0  0  0  0  0  0  0  0  0
    3.0170    1.2590    0.7240 C   0  0  0  0  0  0  0  0  0  0  0  0
    0.2460   -1.1880   -0.8080 C   0  0  0  0  0  0  0  0  0  0  0  0
    0.7020   -0.7910   -1.9680 O   0  0  0  0  0  0  0  0  0  0  0  0
    2.5160   -1.9820   -1.4900 H   0  0  0  0  0  0  0  0  0  0  0  0
    3.2380   -2.1640    0.0560 H   0  0  0  0  0  0  0  0  0  0  0  0
    1.1760   -2.5680    0.4930 H   0  0  0  0  0  0  0  0  0  0  0  0
    2.1620   -1.0860    1.9920 H   0  0  0  0  0  0  0  0  0  0  0  0
    0.4750   -0.5860    1.9290 H   0  0  0  0  0  0  0  0  0  0  0  0
   -0.1850    1.8020    0.8560 H   0  0  0  0  0  0  0  0  0  0  0  0
    1.2450    3.8820    0.1850 H   0  0  0  0  0  0  0  0  0  0  0  0
    3.9580    4.4100   -0.1800 H   0  0  0  0  0  0  0  0  0  0  0  0
    6.1610    3.3640   -0.0750 H   0  0  0  0  0  0  0  0  0  0  0  0
    6.3870    0.9850    0.5370 H   0  0  0  0  0  0  0  0  0  0  0  0
    4.4040   -0.3250    1.0550 H   0  0  0  0  0  0  0  0  0  0  0  0
   -1.1380   -1.1860   -0.6830 N   0  0  0  0  0  0  0  0  0  0  0  0
   -1.9710   -0.6670   -1.8590 C   0  0  0  0  0  0  0  0  0  0  0  0
   -2.8930   -1.8480   -2.0170 C   0  0  0  0  0  0  0  0  0  0  0  0
   -3.1250   -2.3600   -0.6180 C   0  0  0  0  0  0  0  0  0  0  0  0
   -2.1510   -1.5110    0.2230 C   0  0  1  0  0  0  0  0  0  0  0  0
   -1.9320   -2.1220    1.5060 C   0  0  0  0  0  0  0  0  0  0  0  0
   -0.9440   -2.8060    1.8110 O   0  0  0  0  0  0  0  0  0  0  0  0
   -1.3380   -0.4820   -2.7160 H   0  0  0  0  0  0  0  0  0  0  0  0
   -2.5560    0.2000   -1.4910 H   0  0  0  0  0  0  0  0  0  0  0  0
   -2.4030   -2.6150   -2.6660 H   0  0  0  0  0  0  0  0  0  0  0  0
   -3.8600   -1.5720   -2.5080 H   0  0  0  0  0  0  0  0  0  0  0  0
   -4.1520   -2.1690   -0.2720 H   0  0  0  0  0  0  0  0  0  0  0  0
   -2.8930   -3.4250   -0.5490 H   0  0  0  0  0  0  0  0  0  0  0  0
   -2.7820   -0.5730    0.4260 H   0  0  0  0  0  0  0  0  0  0  0  0
   -2.8880   -1.9820    2.5940 N   0  0  0  0  0  0  0  0  0  0  0  0
   -2.6870   -2.5790    3.8700 C   0  0  0  0  0  0  0  0  0  0  0  0
   -3.8340   -2.2400    4.7390 C   0  0  0  0  0  0  0  0  0  0  0  0
   -3.8450   -2.6710    5.9140 O   0  0  0  0  0  0  0  0  0  0  0  0
   -4.8840   -1.4680    4.2890 O   0  0  0  0  0  0  0  0  0  0  0  0
   -3.7240   -1.4170    2.3680 H   0  0  0  0  0  0  0  0  0  0  0  0
   -2.6050   -3.7000    3.8030 H   0  0  0  0  0  0  0  0  0  0  0  0
   -1.7690   -2.2590    4.4020 H   0  0  0  0  0  0  0  0  0  0  0  0
  1 16  1  0  0  0  0
  1  2  1  0  0  0  0
  2 17  1  1  0  0  0
  2  3  1  0  0  0  0
  3 19  1  0  0  0  0
  3 18  1  0  0  0  0
  4  3  1  0  0  0  0
  5 20  1  0  0  0  0
  5  4  2  0  0  0  0
  6  5  1  0  0  0  0
  7  6  1  0  0  0  0
  7 12  1  0  0  0  0
  8  9  1  0  0  0  0
  8  7  2  0  0  0  0
  9 10  2  0  0  0  0
 10 24  1  0  0  0  0
 10 11  1  0  0  0  0
 11 25  1  0  0  0  0
 12 11  2  0  0  0  0
 12  4  1  0  0  0  0
 13 26  1  0  0  0  0
 13  2  1  0  0  0  0
 14 13  2  0  0  0  0
 15  1  1  0  0  0  0
 21  6  1  0  0  0  0
 22  8  1  0  0  0  0
 23  9  1  0  0  0  0
 26 30  1  0  0  0  0
 27 34  1  0  0  0  0
 27 26  1  0  0  0  0
 28 27  1  0  0  0  0
 28 29  1  0  0  0  0
 29 38  1  0  0  0  0
 29 37  1  0  0  0  0
 29 30  1  0  0  0  0
 30 39  1  1  0  0  0
 30 31  1  0  0  0  0
 31 32  2  0  0  0  0
 31 40  1  0  0  0  0
 33 27  1  0  0  0  0
 35 28  1  0  0  0  0
 36 28  1  0  0  0  0
 40 41  1  0  0  0  0
 41 47  1  0  0  0  0
 41 42  1  0  0  0  0
 42 43  1  0  0  0  0
 44 42  2  0  0  0  0
 45 40  1  0  0  0  0
 46 41  1  0  0  0  0
M  END
$$$$
