WPI.pdb
 OpenBabel07022419183D

 59 61  0  0  1  0  0  0  0  0999 V2000
    0.0400    2.3910   -0.5780 N   0  0  0  0  0  0  0  0  0  0  0  0
    0.7030    1.5610    0.4000 C   0  0  1  0  0  0  0  0  0  0  0  0
    1.3300    2.5220    1.4020 C   0  0  0  0  0  0  0  0  0  0  0  0
    2.0560    1.8090    2.4810 C   0  0  0  0  0  0  0  0  0  0  0  0
    1.6640    1.5970    3.7870 C   0  0  0  0  0  0  0  0  0  0  0  0
    2.6190    0.9070    4.4250 N   0  0  0  0  0  0  0  0  0  0  0  0
    3.6460    0.6430    3.5980 C   0  0  0  0  0  0  0  0  0  0  0  0
    4.8420   -0.0220    3.7710 C   0  0  0  0  0  0  0  0  0  0  0  0
    5.7250   -0.1410    2.7180 C   0  0  0  0  0  0  0  0  0  0  0  0
    5.3760    0.4210    1.5070 C   0  0  0  0  0  0  0  0  0  0  0  0
    4.1770    1.0870    1.3370 C   0  0  0  0  0  0  0  0  0  0  0  0
    3.2980    1.2060    2.3810 C   0  0  0  0  0  0  0  0  0  0  0  0
   -0.1600    0.5770    1.0510 C   0  0  0  0  0  0  0  0  0  0  0  0
    0.3720   -0.2740    1.8040 O   0  0  0  0  0  0  0  0  0  0  0  0
    0.2030    2.0670   -1.5360 H   0  0  0  0  0  0  0  0  0  0  0  0
    0.1000    3.3980   -0.4060 H   0  0  0  0  0  0  0  0  0  0  0  0
    1.5760    1.0930   -0.1200 H   0  0  0  0  0  0  0  0  0  0  0  0
    0.4790    3.0940    1.8390 H   0  0  0  0  0  0  0  0  0  0  0  0
    1.9630    3.2730    0.8890 H   0  0  0  0  0  0  0  0  0  0  0  0
    0.7490    1.9180    4.2490 H   0  0  0  0  0  0  0  0  0  0  0  0
    2.5700    0.6110    5.4390 H   0  0  0  0  0  0  0  0  0  0  0  0
    5.1360   -0.4700    4.7100 H   0  0  0  0  0  0  0  0  0  0  0  0
    6.6780   -0.6710    2.8530 H   0  0  0  0  0  0  0  0  0  0  0  0
    6.0680    0.3270    0.6830 H   0  0  0  0  0  0  0  0  0  0  0  0
    3.9270    1.5210    0.3670 H   0  0  0  0  0  0  0  0  0  0  0  0
   -1.5660    0.5420    0.8690 N   0  0  0  0  0  0  0  0  0  0  0  0
   -2.2940    1.4750    0.0780 C   0  0  0  0  0  0  0  0  0  0  0  0
   -3.7320    1.2710    0.3840 C   0  0  0  0  0  0  0  0  0  0  0  0
   -3.8340   -0.0760    1.0000 C   0  0  0  0  0  0  0  0  0  0  0  0
   -2.4410   -0.4330    1.4340 C   0  0  1  0  0  0  0  0  0  0  0  0
   -2.1860   -1.8180    0.9510 C   0  0  0  0  0  0  0  0  0  0  0  0
   -2.9100   -2.7180    1.4950 O   0  0  0  0  0  0  0  0  0  0  0  0
   -2.0410    1.3400   -0.9960 H   0  0  0  0  0  0  0  0  0  0  0  0
   -2.0460    2.5420    0.3180 H   0  0  0  0  0  0  0  0  0  0  0  0
   -4.0670    2.0390    1.1310 H   0  0  0  0  0  0  0  0  0  0  0  0
   -4.3810    1.3880   -0.5190 H   0  0  0  0  0  0  0  0  0  0  0  0
   -4.5270   -0.1170    1.8660 H   0  0  0  0  0  0  0  0  0  0  0  0
   -4.2420   -0.7850    0.2470 H   0  0  0  0  0  0  0  0  0  0  0  0
   -2.3860   -0.4660    2.5570 H   0  0  0  0  0  0  0  0  0  0  0  0
   -2.8180   -3.5670   -3.8500 C   0  0  0  0  0  0  0  0  0  0  0  0
   -2.6320   -3.3450   -2.3680 C   0  0  0  0  0  0  0  0  0  0  0  0
   -1.2430   -3.7340   -1.9130 C   0  0  2  0  0  0  0  0  0  0  0  0
   -1.0660   -5.2000   -2.2320 C   0  0  0  0  0  0  0  0  0  0  0  0
   -1.0420   -3.5360   -0.4470 C   0  0  2  0  0  0  0  0  0  0  0  0
   -1.2270   -2.1610   -0.0340 N   0  0  0  0  0  0  0  0  0  0  0  0
    0.3660   -3.9730   -0.1410 C   0  0  0  0  0  0  0  0  0  0  0  0
    0.7160   -5.1430   -0.4290 O   0  0  0  0  0  0  0  0  0  0  0  0
    1.2800   -3.1200    0.4470 O   0  0  0  0  0  0  0  0  0  0  0  0
   -3.2540   -2.6580   -4.3460 H   0  0  0  0  0  0  0  0  0  0  0  0
   -3.5400   -4.3870   -4.0180 H   0  0  0  0  0  0  0  0  0  0  0  0
   -1.8550   -3.8680   -4.3310 H   0  0  0  0  0  0  0  0  0  0  0  0
   -3.4330   -3.8820   -1.8400 H   0  0  0  0  0  0  0  0  0  0  0  0
   -2.7730   -2.2580   -2.1590 H   0  0  0  0  0  0  0  0  0  0  0  0
   -0.5140   -3.1800   -2.5280 H   0  0  0  0  0  0  0  0  0  0  0  0
   -1.7790   -5.5100   -3.0510 H   0  0  0  0  0  0  0  0  0  0  0  0
   -1.2850   -5.8650   -1.3860 H   0  0  0  0  0  0  0  0  0  0  0  0
   -0.0590   -5.4430   -2.6160 H   0  0  0  0  0  0  0  0  0  0  0  0
   -1.7170   -4.2270    0.0900 H   0  0  0  0  0  0  0  0  0  0  0  0
   -0.6600   -1.4010   -0.4580 H   0  0  0  0  0  0  0  0  0  0  0  0
  1 16  1  0  0  0  0
  1  2  1  0  0  0  0
  2 17  1  6  0  0  0
  2 13  1  0  0  0  0
  2  3  1  0  0  0  0
  3 18  1  0  0  0  0
  3  4  1  0  0  0  0
  4  5  2  0  0  0  0
  5 20  1  0  0  0  0
  5  6  1  0  0  0  0
  6 21  1  0  0  0  0
  7  8  1  0  0  0  0
  7  6  1  0  0  0  0
  8 22  1  0  0  0  0
  9 23  1  0  0  0  0
  9  8  2  0  0  0  0
 10  9  1  0  0  0  0
 11 10  2  0  0  0  0
 11 12  1  0  0  0  0
 12  4  1  0  0  0  0
 12  7  2  0  0  0  0
 13 14  2  0  0  0  0
 15  1  1  0  0  0  0
 19  3  1  0  0  0  0
 24 10  1  0  0  0  0
 25 11  1  0  0  0  0
 26 13  1  0  0  0  0
 26 30  1  0  0  0  0
 27 34  1  0  0  0  0
 27 28  1  0  0  0  0
 27 26  1  0  0  0  0
 28 29  1  0  0  0  0
 28 35  1  0  0  0  0
 29 30  1  0  0  0  0
 29 37  1  0  0  0  0
 30 39  1  1  0  0  0
 31 30  1  0  0  0  0
 31 32  2  0  0  0  0
 33 27  1  0  0  0  0
 36 28  1  0  0  0  0
 38 29  1  0  0  0  0
 40 41  1  0  0  0  0
 41 53  1  0  0  0  0
 41 42  1  0  0  0  0
 41 52  1  0  0  0  0
 42 54  1  6  0  0  0
 42 44  1  0  0  0  0
 43 42  1  0  0  0  0
 43 56  1  0  0  0  0
 44 46  1  0  0  0  0
 44 45  1  0  0  0  0
 44 58  1  1  0  0  0
 45 31  1  0  0  0  0
 46 48  1  0  0  0  0
 47 46  2  0  0  0  0
 49 40  1  0  0  0  0
 50 40  1  0  0  0  0
 51 40  1  0  0  0  0
 55 43  1  0  0  0  0
 57 43  1  0  0  0  0
 59 45  1  0  0  0  0
M  END
$$$$
