WPM.pdb
 OpenBabel07022419183D

 57 59  0  0  1  0  0  0  0  0999 V2000
    2.6520   -2.3570   -0.7830 N   0  0  0  0  0  0  0  0  0  0  0  0
    1.8730   -1.6180    0.2590 C   0  0  1  0  0  0  0  0  0  0  0  0
    2.8610   -1.3380    1.3660 C   0  0  0  0  0  0  0  0  0  0  0  0
    2.3920   -0.6210    2.5180 C   0  0  0  0  0  0  0  0  0  0  0  0
    2.0220   -1.1720    3.7220 C   0  0  0  0  0  0  0  0  0  0  0  0
    1.6220   -0.2220    4.5460 N   0  0  0  0  0  0  0  0  0  0  0  0
    1.7150    0.9700    3.9200 C   0  0  0  0  0  0  0  0  0  0  0  0
    1.4320    2.2480    4.3310 C   0  0  0  0  0  0  0  0  0  0  0  0
    1.6260    3.3060    3.4790 C   0  0  0  0  0  0  0  0  0  0  0  0
    2.1060    3.0830    2.2090 C   0  0  0  0  0  0  0  0  0  0  0  0
    2.3950    1.8120    1.7810 C   0  0  0  0  0  0  0  0  0  0  0  0
    2.1940    0.7590    2.6480 C   0  0  0  0  0  0  0  0  0  0  0  0
    1.2300   -0.4530   -0.3290 C   0  0  0  0  0  0  0  0  0  0  0  0
    1.8350    0.0630   -1.3340 O   0  0  0  0  0  0  0  0  0  0  0  0
    2.9960   -1.5930   -1.4250 H   0  0  0  0  0  0  0  0  0  0  0  0
    3.4380   -2.8420   -0.3360 H   0  0  0  0  0  0  0  0  0  0  0  0
    1.1200   -2.3390    0.6070 H   0  0  0  0  0  0  0  0  0  0  0  0
    3.3810   -2.3050    1.6290 H   0  0  0  0  0  0  0  0  0  0  0  0
    3.7000   -0.7370    0.8990 H   0  0  0  0  0  0  0  0  0  0  0  0
    2.0510   -2.2420    3.9710 H   0  0  0  0  0  0  0  0  0  0  0  0
    1.2850   -0.3900    5.5380 H   0  0  0  0  0  0  0  0  0  0  0  0
    1.0620    2.3850    5.3200 H   0  0  0  0  0  0  0  0  0  0  0  0
    1.4060    4.3420    3.7850 H   0  0  0  0  0  0  0  0  0  0  0  0
    2.2400    3.9590    1.5780 H   0  0  0  0  0  0  0  0  0  0  0  0
    2.7740    1.6540    0.7950 H   0  0  0  0  0  0  0  0  0  0  0  0
    0.0290    0.1560    0.0850 N   0  0  0  0  0  0  0  0  0  0  0  0
   -0.5100    1.3710   -0.5490 C   0  0  0  0  0  0  0  0  0  0  0  0
   -1.8360    1.6340    0.0520 C   0  0  0  0  0  0  0  0  0  0  0  0
   -1.8110    0.9080    1.3650 C   0  0  0  0  0  0  0  0  0  0  0  0
   -0.8950   -0.2560    1.1090 C   0  0  1  0  0  0  0  0  0  0  0  0
   -1.7190   -1.4300    0.7420 C   0  0  0  0  0  0  0  0  0  0  0  0
   -2.6930   -1.7280    1.4840 O   0  0  0  0  0  0  0  0  0  0  0  0
   -0.5100    1.2880   -1.6460 H   0  0  0  0  0  0  0  0  0  0  0  0
    0.1820    2.2210   -0.2720 H   0  0  0  0  0  0  0  0  0  0  0  0
   -2.7070    1.2720   -0.5360 H   0  0  0  0  0  0  0  0  0  0  0  0
   -2.0360    2.7290    0.1890 H   0  0  0  0  0  0  0  0  0  0  0  0
   -1.4320    1.5730    2.1720 H   0  0  0  0  0  0  0  0  0  0  0  0
   -2.8580    0.5630    1.6060 H   0  0  0  0  0  0  0  0  0  0  0  0
   -0.3550   -0.4850    2.0690 H   0  0  0  0  0  0  0  0  0  0  0  0
   -0.9490   -0.8150   -3.6470 C   0  0  0  0  0  0  0  0  0  0  0  0
   -2.4330   -0.7990   -2.6180 S   0  0  0  0  0  0  0  0  0  0  0  0
   -3.3590   -2.3240   -2.7120 C   0  0  0  0  0  0  0  0  0  0  0  0
   -2.6610   -3.5040   -2.1380 C   0  0  0  0  0  0  0  0  0  0  0  0
   -2.3450   -3.4020   -0.6810 C   0  0  2  0  0  0  0  0  0  0  0  0
   -1.4990   -2.2680   -0.3940 N   0  0  0  0  0  0  0  0  0  0  0  0
   -1.6420   -4.6830   -0.3210 C   0  0  0  0  0  0  0  0  0  0  0  0
   -2.1830   -5.7980   -0.4860 O   0  0  0  0  0  0  0  0  0  0  0  0
   -0.3660   -4.6340    0.2060 O   0  0  0  0  0  0  0  0  0  0  0  0
   -1.2420   -1.1750   -4.6770 H   0  0  0  0  0  0  0  0  0  0  0  0
   -0.1550   -1.4720   -3.2740 H   0  0  0  0  0  0  0  0  0  0  0  0
   -0.6330    0.2440   -3.7970 H   0  0  0  0  0  0  0  0  0  0  0  0
   -3.7020   -2.4710   -3.7510 H   0  0  0  0  0  0  0  0  0  0  0  0
   -4.3060   -2.1810   -2.1180 H   0  0  0  0  0  0  0  0  0  0  0  0
   -3.3320   -4.3930   -2.3400 H   0  0  0  0  0  0  0  0  0  0  0  0
   -1.7140   -3.7570   -2.6720 H   0  0  0  0  0  0  0  0  0  0  0  0
   -3.2810   -3.3930   -0.0980 H   0  0  0  0  0  0  0  0  0  0  0  0
   -0.6950   -2.0160   -1.0040 H   0  0  0  0  0  0  0  0  0  0  0  0
  1 16  1  0  0  0  0
  1  2  1  0  0  0  0
  2 17  1  1  0  0  0
  2  3  1  0  0  0  0
  3 18  1  0  0  0  0
  3  4  1  0  0  0  0
  4 12  1  0  0  0  0
  4  5  2  0  0  0  0
  5 20  1  0  0  0  0
  5  6  1  0  0  0  0
  6 21  1  0  0  0  0
  7  8  1  0  0  0  0
  7  6  1  0  0  0  0
  8 22  1  0  0  0  0
  9 23  1  0  0  0  0
  9  8  2  0  0  0  0
 10  9  1  0  0  0  0
 11 10  2  0  0  0  0
 11 12  1  0  0  0  0
 12  7  2  0  0  0  0
 13 26  1  0  0  0  0
 13  2  1  0  0  0  0
 14 13  2  0  0  0  0
 15  1  1  0  0  0  0
 19  3  1  0  0  0  0
 24 10  1  0  0  0  0
 25 11  1  0  0  0  0
 26 30  1  0  0  0  0
 27 34  1  0  0  0  0
 27 28  1  0  0  0  0
 27 26  1  0  0  0  0
 28 36  1  0  0  0  0
 28 29  1  0  0  0  0
 29 38  1  0  0  0  0
 29 37  1  0  0  0  0
 30 29  1  0  0  0  0
 30 39  1  1  0  0  0
 31 30  1  0  0  0  0
 31 32  2  0  0  0  0
 33 27  1  0  0  0  0
 35 28  1  0  0  0  0
 40 50  1  0  0  0  0
 40 41  1  0  0  0  0
 42 41  1  0  0  0  0
 42 43  1  0  0  0  0
 42 53  1  0  0  0  0
 43 44  1  0  0  0  0
 44 45  1  0  0  0  0
 44 46  1  0  0  0  0
 44 56  1  1  0  0  0
 45 31  1  0  0  0  0
 46 48  1  0  0  0  0
 47 46  2  0  0  0  0
 49 40  1  0  0  0  0
 51 40  1  0  0  0  0
 52 42  1  0  0  0  0
 54 43  1  0  0  0  0
 55 43  1  0  0  0  0
 57 45  1  0  0  0  0
M  END
$$$$
