WPN.pdb
 OpenBabel07022419183D

 54 56  0  0  1  0  0  0  0  0999 V2000
    2.1460   -0.0060   -0.0250 N   0  0  0  0  0  0  0  0  0  0  0  0
    0.8170    0.1600    0.5420 C   0  0  1  0  0  0  0  0  0  0  0  0
    0.8700    1.2930    1.5390 C   0  0  0  0  0  0  0  0  0  0  0  0
    1.8270    1.0550    2.6520 C   0  0  0  0  0  0  0  0  0  0  0  0
    1.4990    0.5500    3.9180 C   0  0  0  0  0  0  0  0  0  0  0  0
    2.6040    0.4300    4.6550 N   0  0  0  0  0  0  0  0  0  0  0  0
    3.6730    0.8340    3.9420 C   0  0  0  0  0  0  0  0  0  0  0  0
    5.0080    0.9020    4.2710 C   0  0  0  0  0  0  0  0  0  0  0  0
    5.8810    1.3770    3.3170 C   0  0  0  0  0  0  0  0  0  0  0  0
    5.4280    1.7700    2.0760 C   0  0  0  0  0  0  0  0  0  0  0  0
    4.0870    1.7000    1.7480 C   0  0  0  0  0  0  0  0  0  0  0  0
    3.1960    1.2260    2.6910 C   0  0  0  0  0  0  0  0  0  0  0  0
   -0.1420    0.4330   -0.5560 C   0  0  0  0  0  0  0  0  0  0  0  0
    0.3620    0.7430   -1.6970 O   0  0  0  0  0  0  0  0  0  0  0  0
    2.3320    0.6990   -0.7790 H   0  0  0  0  0  0  0  0  0  0  0  0
    2.2580   -0.9380   -0.4850 H   0  0  0  0  0  0  0  0  0  0  0  0
    0.5360   -0.8140    0.9900 H   0  0  0  0  0  0  0  0  0  0  0  0
    1.1510    2.1970    0.9500 H   0  0  0  0  0  0  0  0  0  0  0  0
   -0.1300    1.4030    1.9870 H   0  0  0  0  0  0  0  0  0  0  0  0
    0.5030    0.3000    4.2360 H   0  0  0  0  0  0  0  0  0  0  0  0
    2.6930    0.0790    5.6520 H   0  0  0  0  0  0  0  0  0  0  0  0
    5.3560    0.5860    5.2630 H   0  0  0  0  0  0  0  0  0  0  0  0
    6.9420    1.4410    3.5490 H   0  0  0  0  0  0  0  0  0  0  0  0
    6.0950    2.1480    1.3070 H   0  0  0  0  0  0  0  0  0  0  0  0
    3.7480    2.0250    0.7750 H   0  0  0  0  0  0  0  0  0  0  0  0
   -1.5470    0.3790   -0.4550 N   0  0  0  0  0  0  0  0  0  0  0  0
   -2.4390    0.6780   -1.5940 C   0  0  0  0  0  0  0  0  0  0  0  0
   -3.4330    1.6090   -0.8900 C   0  0  0  0  0  0  0  0  0  0  0  0
   -3.7960    0.7090    0.2860 C   0  0  0  0  0  0  0  0  0  0  0  0
   -2.4500    0.0460    0.6090 C   0  0  1  0  0  0  0  0  0  0  0  0
   -2.7030   -1.4330    0.6680 C   0  0  0  0  0  0  0  0  0  0  0  0
   -3.4650   -1.9390    1.5190 O   0  0  0  0  0  0  0  0  0  0  0  0
   -2.9890   -0.2170   -1.8840 H   0  0  0  0  0  0  0  0  0  0  0  0
   -1.9030    1.1870   -2.3980 H   0  0  0  0  0  0  0  0  0  0  0  0
   -4.2870    1.8600   -1.5180 H   0  0  0  0  0  0  0  0  0  0  0  0
   -2.8800    2.4570   -0.4760 H   0  0  0  0  0  0  0  0  0  0  0  0
   -4.5280   -0.0390   -0.0680 H   0  0  0  0  0  0  0  0  0  0  0  0
   -4.2120    1.2630    1.1270 H   0  0  0  0  0  0  0  0  0  0  0  0
   -2.1900    0.3960    1.6030 H   0  0  0  0  0  0  0  0  0  0  0  0
   -2.4240   -4.2850   -4.0020 N   0  0  0  0  0  0  0  0  0  0  0  0
   -2.0240   -3.9530   -2.6850 C   0  0  0  0  0  0  0  0  0  0  0  0
   -0.8730   -3.4300   -2.5220 O   0  0  0  0  0  0  0  0  0  0  0  0
   -2.8930   -4.1940   -1.5130 C   0  0  0  0  0  0  0  0  0  0  0  0
   -2.3070   -3.7400   -0.2100 C   0  0  2  0  0  0  0  0  0  0  0  0
   -2.0680   -2.3110   -0.2620 N   0  0  0  0  0  0  0  0  0  0  0  0
   -1.0260   -4.4770    0.0020 C   0  0  0  0  0  0  0  0  0  0  0  0
   -0.9600   -5.7140    0.0840 O   0  0  0  0  0  0  0  0  0  0  0  0
    0.1320   -3.7230    0.1100 O   0  0  0  0  0  0  0  0  0  0  0  0
   -2.9760   -5.1370   -4.2080 H   0  0  0  0  0  0  0  0  0  0  0  0
   -2.1620   -3.6620   -4.7850 H   0  0  0  0  0  0  0  0  0  0  0  0
   -3.0580   -5.3100   -1.4620 H   0  0  0  0  0  0  0  0  0  0  0  0
   -3.8770   -3.6970   -1.6470 H   0  0  0  0  0  0  0  0  0  0  0  0
   -3.0120   -3.9480    0.6360 H   0  0  0  0  0  0  0  0  0  0  0  0
   -1.4390   -1.8510   -0.9550 H   0  0  0  0  0  0  0  0  0  0  0  0
  1  2  1  0  0  0  0
  2 17  1  1  0  0  0
  2  3  1  0  0  0  0
  3 19  1  0  0  0  0
  3  4  1  0  0  0  0
  4 12  1  0  0  0  0
  4  5  2  0  0  0  0
  5 20  1  0  0  0  0
  5  6  1  0  0  0  0
  6 21  1  0  0  0  0
  7  8  1  0  0  0  0
  7  6  1  0  0  0  0
  8 22  1  0  0  0  0
  9 23  1  0  0  0  0
  9  8  2  0  0  0  0
 10  9  1  0  0  0  0
 11 10  2  0  0  0  0
 11 12  1  0  0  0  0
 12  7  2  0  0  0  0
 13 26  1  0  0  0  0
 13  2  1  0  0  0  0
 14 13  2  0  0  0  0
 15  1  1  0  0  0  0
 16  1  1  0  0  0  0
 18  3  1  0  0  0  0
 24 10  1  0  0  0  0
 25 11  1  0  0  0  0
 26 30  1  0  0  0  0
 27 28  1  0  0  0  0
 27 26  1  0  0  0  0
 28 36  1  0  0  0  0
 28 29  1  0  0  0  0
 29 30  1  0  0  0  0
 29 38  1  0  0  0  0
 30 31  1  0  0  0  0
 30 39  1  1  0  0  0
 31 32  2  0  0  0  0
 33 27  1  0  0  0  0
 34 27  1  0  0  0  0
 35 28  1  0  0  0  0
 37 29  1  0  0  0  0
 40 41  1  0  0  0  0
 41 42  2  0  0  0  0
 41 43  1  0  0  0  0
 43 51  1  0  0  0  0
 43 44  1  0  0  0  0
 44 46  1  0  0  0  0
 44 53  1  1  0  0  0
 45 44  1  0  0  0  0
 45 31  1  0  0  0  0
 46 47  2  0  0  0  0
 46 48  1  0  0  0  0
 49 40  1  0  0  0  0
 50 40  1  0  0  0  0
 52 43  1  0  0  0  0
 54 45  1  0  0  0  0
M  END
$$$$
