WPP.pdb
 OpenBabel07022419183D

 54 57  0  0  1  0  0  0  0  0999 V2000
   -1.6590    3.1850   -1.4970 N   0  0  0  0  0  0  0  0  0  0  0  0
   -0.8470    2.0210   -1.0430 C   0  0  1  0  0  0  0  0  0  0  0  0
    0.5210    2.3020   -1.5950 C   0  0  0  0  0  0  0  0  0  0  0  0
    1.5660    1.3120   -1.2920 C   0  0  0  0  0  0  0  0  0  0  0  0
    2.0150    0.2670   -2.0820 C   0  0  0  0  0  0  0  0  0  0  0  0
    2.9660   -0.4140   -1.4400 N   0  0  0  0  0  0  0  0  0  0  0  0
    3.1480    0.1730   -0.2320 C   0  0  0  0  0  0  0  0  0  0  0  0
    4.0080   -0.1090    0.8270 C   0  0  0  0  0  0  0  0  0  0  0  0
    4.0410    0.6350    1.9790 C   0  0  0  0  0  0  0  0  0  0  0  0
    3.1720    1.7010    2.0600 C   0  0  0  0  0  0  0  0  0  0  0  0
    2.3030    2.0190    1.0400 C   0  0  0  0  0  0  0  0  0  0  0  0
    2.2880    1.2430   -0.1250 C   0  0  0  0  0  0  0  0  0  0  0  0
   -0.9700    1.9230    0.3990 C   0  0  0  0  0  0  0  0  0  0  0  0
   -1.2240    3.0230    1.0150 O   0  0  0  0  0  0  0  0  0  0  0  0
   -2.1520    2.9640   -2.3810 H   0  0  0  0  0  0  0  0  0  0  0  0
   -1.0760    4.0310   -1.5310 H   0  0  0  0  0  0  0  0  0  0  0  0
   -1.2500    1.1530   -1.6010 H   0  0  0  0  0  0  0  0  0  0  0  0
    0.4180    2.2940   -2.7220 H   0  0  0  0  0  0  0  0  0  0  0  0
    0.8450    3.3420   -1.3170 H   0  0  0  0  0  0  0  0  0  0  0  0
    1.6400    0.0510   -3.0680 H   0  0  0  0  0  0  0  0  0  0  0  0
    3.5060   -1.2580   -1.7650 H   0  0  0  0  0  0  0  0  0  0  0  0
    4.6800   -0.9510    0.7390 H   0  0  0  0  0  0  0  0  0  0  0  0
    4.7120    0.4220    2.8150 H   0  0  0  0  0  0  0  0  0  0  0  0
    3.1250    2.3530    2.9400 H   0  0  0  0  0  0  0  0  0  0  0  0
    1.6250    2.8710    1.1170 H   0  0  0  0  0  0  0  0  0  0  0  0
   -0.8450    0.7410    1.1900 N   0  0  0  0  0  0  0  0  0  0  0  0
   -0.9730    0.7090    2.6240 C   0  0  0  0  0  0  0  0  0  0  0  0
    0.0610   -0.3040    3.0400 C   0  0  0  0  0  0  0  0  0  0  0  0
    0.2520   -1.1930    1.8220 C   0  0  0  0  0  0  0  0  0  0  0  0
   -0.6160   -0.6030    0.7510 C   0  0  1  0  0  0  0  0  0  0  0  0
   -1.8850   -1.4050    0.7560 C   0  0  0  0  0  0  0  0  0  0  0  0
   -2.9600   -0.9630    1.2190 O   0  0  0  0  0  0  0  0  0  0  0  0
   -0.7890    1.7070    3.0910 H   0  0  0  0  0  0  0  0  0  0  0  0
   -2.0080    0.3890    2.9250 H   0  0  0  0  0  0  0  0  0  0  0  0
    1.0100    0.2270    3.2460 H   0  0  0  0  0  0  0  0  0  0  0  0
   -0.2590   -0.8870    3.9320 H   0  0  0  0  0  0  0  0  0  0  0  0
   -0.0950   -2.2160    2.1320 H   0  0  0  0  0  0  0  0  0  0  0  0
    1.3090   -1.2150    1.4960 H   0  0  0  0  0  0  0  0  0  0  0  0
   -0.1890   -0.7010   -0.2610 H   0  0  0  0  0  0  0  0  0  0  0  0
   -1.8300   -2.7070    0.2100 N   0  0  0  0  0  0  0  0  0  0  0  0
   -0.6910   -3.3890   -0.3860 C   0  0  0  0  0  0  0  0  0  0  0  0
   -0.8870   -4.8050    0.1620 C   0  0  0  0  0  0  0  0  0  0  0  0
   -2.3690   -4.9810   -0.2090 C   0  0  0  0  0  0  0  0  0  0  0  0
   -2.9620   -3.6320    0.1510 C   0  0  1  0  0  0  0  0  0  0  0  0
   -3.5850   -3.7960    1.4890 C   0  0  0  0  0  0  0  0  0  0  0  0
   -4.5790   -4.5590    1.5870 O   0  0  0  0  0  0  0  0  0  0  0  0
   -3.1520   -3.1720    2.6400 O   0  0  0  0  0  0  0  0  0  0  0  0
    0.2800   -3.0310   -0.0640 H   0  0  0  0  0  0  0  0  0  0  0  0
   -0.7920   -3.3960   -1.4960 H   0  0  0  0  0  0  0  0  0  0  0  0
   -0.2590   -5.5420   -0.3490 H   0  0  0  0  0  0  0  0  0  0  0  0
   -0.7560   -4.7560    1.2540 H   0  0  0  0  0  0  0  0  0  0  0  0
   -2.7860   -5.8100    0.3640 H   0  0  0  0  0  0  0  0  0  0  0  0
   -2.3890   -5.1470   -1.3170 H   0  0  0  0  0  0  0  0  0  0  0  0
   -3.6550   -3.3440   -0.6430 H   0  0  0  0  0  0  0  0  0  0  0  0
  1  2  1  0  0  0  0
  2 17  1  6  0  0  0
  2 13  1  0  0  0  0
  3 19  1  0  0  0  0
  3  4  1  0  0  0  0
  3  2  1  0  0  0  0
  4 12  1  0  0  0  0
  5  6  1  0  0  0  0
  5  4  2  0  0  0  0
  6  7  1  0  0  0  0
  7 12  2  0  0  0  0
  7  8  1  0  0  0  0
  8  9  2  0  0  0  0
  9 10  1  0  0  0  0
  9 23  1  0  0  0  0
 10 24  1  0  0  0  0
 11 25  1  0  0  0  0
 11 10  2  0  0  0  0
 12 11  1  0  0  0  0
 13 14  2  0  0  0  0
 13 26  1  0  0  0  0
 15  1  1  0  0  0  0
 16  1  1  0  0  0  0
 18  3  1  0  0  0  0
 20  5  1  0  0  0  0
 21  6  1  0  0  0  0
 22  8  1  0  0  0  0
 26 27  1  0  0  0  0
 27 34  1  0  0  0  0
 27 28  1  0  0  0  0
 27 33  1  0  0  0  0
 28 35  1  0  0  0  0
 28 36  1  0  0  0  0
 29 37  1  0  0  0  0
 29 28  1  0  0  0  0
 30 39  1  6  0  0  0
 30 31  1  0  0  0  0
 30 26  1  0  0  0  0
 30 29  1  0  0  0  0
 31 32  2  0  0  0  0
 38 29  1  0  0  0  0
 40 31  1  0  0  0  0
 41 48  1  0  0  0  0
 41 42  1  0  0  0  0
 41 40  1  0  0  0  0
 42 51  1  0  0  0  0
 43 44  1  0  0  0  0
 43 42  1  0  0  0  0
 43 52  1  0  0  0  0
 44 54  1  6  0  0  0
 44 40  1  0  0  0  0
 44 45  1  0  0  0  0
 45 46  2  0  0  0  0
 45 47  1  0  0  0  0
 49 41  1  0  0  0  0
 50 42  1  0  0  0  0
 53 43  1  0  0  0  0
M  END
$$$$
