WPS.pdb
 OpenBabel07022419183D

 51 53  0  0  1  0  0  0  0  0999 V2000
    1.8310   -0.2370    0.8940 N   0  0  0  0  0  0  0  0  0  0  0  0
    0.9120    0.8540    0.6600 C   0  0  1  0  0  0  0  0  0  0  0  0
    1.3860    1.8890   -0.2960 C   0  0  0  0  0  0  0  0  0  0  0  0
    2.6420    2.5080    0.1740 C   0  0  0  0  0  0  0  0  0  0  0  0
    2.7370    3.7200    0.8690 C   0  0  0  0  0  0  0  0  0  0  0  0
    4.0260    3.9660    1.1580 N   0  0  0  0  0  0  0  0  0  0  0  0
    4.8180    2.9750    0.6900 C   0  0  0  0  0  0  0  0  0  0  0  0
    6.1800    2.7590    0.7170 C   0  0  0  0  0  0  0  0  0  0  0  0
    6.7330    1.6410    0.1380 C   0  0  0  0  0  0  0  0  0  0  0  0
    5.8790    0.7460   -0.4680 C   0  0  0  0  0  0  0  0  0  0  0  0
    4.5210    0.9620   -0.4940 C   0  0  0  0  0  0  0  0  0  0  0  0
    3.9480    2.0770    0.0820 C   0  0  0  0  0  0  0  0  0  0  0  0
   -0.4480    0.3560    0.3380 C   0  0  0  0  0  0  0  0  0  0  0  0
   -1.3510    1.2450    0.3060 O   0  0  0  0  0  0  0  0  0  0  0  0
    2.6500    0.1640    1.4620 H   0  0  0  0  0  0  0  0  0  0  0  0
    1.3490   -0.8280    1.6400 H   0  0  0  0  0  0  0  0  0  0  0  0
    0.8210    1.3660    1.6660 H   0  0  0  0  0  0  0  0  0  0  0  0
    0.5890    2.6880   -0.3250 H   0  0  0  0  0  0  0  0  0  0  0  0
    1.4700    1.5400   -1.3420 H   0  0  0  0  0  0  0  0  0  0  0  0
    1.9030    4.3510    1.1280 H   0  0  0  0  0  0  0  0  0  0  0  0
    4.4410    4.7900    1.6710 H   0  0  0  0  0  0  0  0  0  0  0  0
    6.8510    3.4600    1.1910 H   0  0  0  0  0  0  0  0  0  0  0  0
    7.8050    1.4300    0.1350 H   0  0  0  0  0  0  0  0  0  0  0  0
    6.3160   -0.1320   -0.9230 H   0  0  0  0  0  0  0  0  0  0  0  0
    3.8430    0.2670   -0.9690 H   0  0  0  0  0  0  0  0  0  0  0  0
   -0.8350   -0.9640    0.0700 N   0  0  0  0  0  0  0  0  0  0  0  0
   -0.0850   -2.1870    0.0040 C   0  0  0  0  0  0  0  0  0  0  0  0
   -0.8570   -3.0640   -0.9790 C   0  0  0  0  0  0  0  0  0  0  0  0
   -2.0150   -2.2080   -1.4400 C   0  0  0  0  0  0  0  0  0  0  0  0
   -2.2150   -1.3560   -0.2090 C   0  0  1  0  0  0  0  0  0  0  0  0
   -2.7170   -2.1000    0.9610 C   0  0  0  0  0  0  0  0  0  0  0  0
   -2.0380   -2.2210    2.0160 O   0  0  0  0  0  0  0  0  0  0  0  0
   -0.0260   -2.6370    0.9950 H   0  0  0  0  0  0  0  0  0  0  0  0
    0.9610   -2.0470   -0.3420 H   0  0  0  0  0  0  0  0  0  0  0  0
   -1.1820   -4.0050   -0.5220 H   0  0  0  0  0  0  0  0  0  0  0  0
   -0.2190   -3.3520   -1.8540 H   0  0  0  0  0  0  0  0  0  0  0  0
   -1.6750   -1.5390   -2.2420 H   0  0  0  0  0  0  0  0  0  0  0  0
   -2.9050   -2.8010   -1.7000 H   0  0  0  0  0  0  0  0  0  0  0  0
   -2.8410   -0.4580   -0.4330 H   0  0  0  0  0  0  0  0  0  0  0  0
   -5.8070   -1.6680    2.9000 O   0  0  0  0  0  0  0  0  0  0  0  0
   -5.8540   -3.0200    2.5690 C   0  0  0  0  0  0  0  0  0  0  0  0
   -4.4960   -3.4660    2.1410 C   0  0  2  0  0  0  0  0  0  0  0  0
   -4.0000   -2.7320    0.9830 N   0  0  0  0  0  0  0  0  0  0  0  0
   -4.5260   -4.9230    1.7520 C   0  0  0  0  0  0  0  0  0  0  0  0
   -4.9200   -5.7770    2.5770 O   0  0  0  0  0  0  0  0  0  0  0  0
   -4.1270   -5.3460    0.5010 O   0  0  0  0  0  0  0  0  0  0  0  0
   -5.0570   -1.4490    3.4860 H   0  0  0  0  0  0  0  0  0  0  0  0
   -6.6040   -3.1780    1.7700 H   0  0  0  0  0  0  0  0  0  0  0  0
   -6.1160   -3.5570    3.5050 H   0  0  0  0  0  0  0  0  0  0  0  0
   -3.7720   -3.4220    2.9790 H   0  0  0  0  0  0  0  0  0  0  0  0
   -4.5720   -2.6400    0.1170 H   0  0  0  0  0  0  0  0  0  0  0  0
  1 15  1  0  0  0  0
  1 16  1  0  0  0  0
  2  1  1  0  0  0  0
  2 17  1  1  0  0  0
  3  4  1  0  0  0  0
  3  2  1  0  0  0  0
  4  5  2  0  0  0  0
  5 20  1  0  0  0  0
  5  6  1  0  0  0  0
  6 21  1  0  0  0  0
  7  8  1  0  0  0  0
  7  6  1  0  0  0  0
  8 22  1  0  0  0  0
  9  8  2  0  0  0  0
 10  9  1  0  0  0  0
 11 10  2  0  0  0  0
 11 12  1  0  0  0  0
 12  4  1  0  0  0  0
 12  7  2  0  0  0  0
 13  2  1  0  0  0  0
 14 13  2  0  0  0  0
 18  3  1  0  0  0  0
 19  3  1  0  0  0  0
 23  9  1  0  0  0  0
 24 10  1  0  0  0  0
 25 11  1  0  0  0  0
 26 13  1  0  0  0  0
 27 26  1  0  0  0  0
 27 33  1  0  0  0  0
 28 35  1  0  0  0  0
 28 27  1  0  0  0  0
 29 28  1  0  0  0  0
 29 30  1  0  0  0  0
 30 39  1  6  0  0  0
 30 26  1  0  0  0  0
 30 31  1  0  0  0  0
 31 43  1  0  0  0  0
 31 32  2  0  0  0  0
 34 27  1  0  0  0  0
 36 28  1  0  0  0  0
 37 29  1  0  0  0  0
 38 29  1  0  0  0  0
 40 47  1  0  0  0  0
 41 40  1  0  0  0  0
 41 49  1  0  0  0  0
 42 41  1  0  0  0  0
 42 50  1  1  0  0  0
 43 42  1  0  0  0  0
 44 42  1  0  0  0  0
 44 45  1  0  0  0  0
 46 44  2  0  0  0  0
 48 41  1  0  0  0  0
 51 43  1  0  0  0  0
M  END
$$$$
