WPV.pdb
 OpenBabel07022419183D

 56 58  0  0  1  0  0  0  0  0999 V2000
    1.2830    0.8150    2.0750 N   0  0  0  0  0  0  0  0  0  0  0  0
    0.7800    1.4700    0.9010 C   0  0  1  0  0  0  0  0  0  0  0  0
    1.2910    0.8650   -0.3870 C   0  0  0  0  0  0  0  0  0  0  0  0
    2.7440    0.8860   -0.5320 C   0  0  0  0  0  0  0  0  0  0  0  0
    3.4460    1.8540   -1.2600 C   0  0  0  0  0  0  0  0  0  0  0  0
    4.7600    1.5960   -1.1800 N   0  0  0  0  0  0  0  0  0  0  0  0
    4.9590    0.4980   -0.4320 C   0  0  0  0  0  0  0  0  0  0  0  0
    6.1270   -0.1440   -0.0850 C   0  0  0  0  0  0  0  0  0  0  0  0
    6.0940   -1.2880    0.7010 C   0  0  0  0  0  0  0  0  0  0  0  0
    4.8400   -1.7270    1.1020 C   0  0  0  0  0  0  0  0  0  0  0  0
    3.6810   -1.0810    0.7510 C   0  0  0  0  0  0  0  0  0  0  0  0
    3.7230    0.0580   -0.0320 C   0  0  0  0  0  0  0  0  0  0  0  0
   -0.7020    1.5790    0.8520 C   0  0  0  0  0  0  0  0  0  0  0  0
   -1.1570    2.5090    0.0770 O   0  0  0  0  0  0  0  0  0  0  0  0
    0.9870    1.3590    2.9530 H   0  0  0  0  0  0  0  0  0  0  0  0
    2.3480    0.9540    2.1300 H   0  0  0  0  0  0  0  0  0  0  0  0
    1.1800    2.5200    0.9230 H   0  0  0  0  0  0  0  0  0  0  0  0
    0.8890   -0.1740   -0.4950 H   0  0  0  0  0  0  0  0  0  0  0  0
    0.8280    1.4260   -1.2530 H   0  0  0  0  0  0  0  0  0  0  0  0
    2.9930    2.6890   -1.8070 H   0  0  0  0  0  0  0  0  0  0  0  0
    5.5280    2.1730   -1.6400 H   0  0  0  0  0  0  0  0  0  0  0  0
    7.1040    0.2150   -0.4090 H   0  0  0  0  0  0  0  0  0  0  0  0
    7.0000   -1.8050    0.9850 H   0  0  0  0  0  0  0  0  0  0  0  0
    4.8070   -2.6220    1.7180 H   0  0  0  0  0  0  0  0  0  0  0  0
    2.6920   -1.4160    1.0610 H   0  0  0  0  0  0  0  0  0  0  0  0
   -1.6370    0.7950    1.5420 N   0  0  0  0  0  0  0  0  0  0  0  0
   -3.0890    1.0300    1.4500 C   0  0  0  0  0  0  0  0  0  0  0  0
   -3.5840    0.8180    2.8430 C   0  0  0  0  0  0  0  0  0  0  0  0
   -2.6360   -0.1790    3.4230 C   0  0  0  0  0  0  0  0  0  0  0  0
   -1.5030   -0.3250    2.3950 C   0  0  1  0  0  0  0  0  0  0  0  0
   -1.7470   -1.6450    1.7320 C   0  0  0  0  0  0  0  0  0  0  0  0
   -1.7520   -2.6620    2.4890 O   0  0  0  0  0  0  0  0  0  0  0  0
   -3.5800    0.3920    0.7140 H   0  0  0  0  0  0  0  0  0  0  0  0
   -3.2940    2.0780    1.1490 H   0  0  0  0  0  0  0  0  0  0  0  0
   -4.6300    0.4330    2.7760 H   0  0  0  0  0  0  0  0  0  0  0  0
   -3.5500    1.7490    3.4300 H   0  0  0  0  0  0  0  0  0  0  0  0
   -3.1790   -1.1320    3.5830 H   0  0  0  0  0  0  0  0  0  0  0  0
   -2.2340    0.1270    4.4140 H   0  0  0  0  0  0  0  0  0  0  0  0
   -0.5590   -0.3380    2.9630 H   0  0  0  0  0  0  0  0  0  0  0  0
   -3.6060   -2.1640   -2.0560 C   0  0  0  0  0  0  0  0  0  0  0  0
   -3.5390   -3.1900   -0.9620 C   0  0  0  0  0  0  0  0  0  0  0  0
   -3.6870   -4.5850   -1.5350 C   0  0  0  0  0  0  0  0  0  0  0  0
   -2.2060   -3.1380   -0.2460 C   0  0  2  0  0  0  0  0  0  0  0  0
   -1.9670   -1.8450    0.3630 N   0  0  0  0  0  0  0  0  0  0  0  0
   -1.1520   -3.4430   -1.2420 C   0  0  0  0  0  0  0  0  0  0  0  0
   -1.1210   -4.4960   -1.9200 O   0  0  0  0  0  0  0  0  0  0  0  0
   -0.1340   -2.5270   -1.4520 O   0  0  0  0  0  0  0  0  0  0  0  0
   -4.5240   -2.2990   -2.6370 H   0  0  0  0  0  0  0  0  0  0  0  0
   -2.7070   -2.2800   -2.6870 H   0  0  0  0  0  0  0  0  0  0  0  0
   -3.5930   -1.1460   -1.6390 H   0  0  0  0  0  0  0  0  0  0  0  0
   -4.3590   -3.0550   -0.2170 H   0  0  0  0  0  0  0  0  0  0  0  0
   -3.0980   -5.3420   -0.9830 H   0  0  0  0  0  0  0  0  0  0  0  0
   -4.7540   -4.9320   -1.4830 H   0  0  0  0  0  0  0  0  0  0  0  0
   -3.3550   -4.6300   -2.5960 H   0  0  0  0  0  0  0  0  0  0  0  0
   -2.2040   -3.9610    0.4920 H   0  0  0  0  0  0  0  0  0  0  0  0
   -1.9520   -1.0120   -0.2650 H   0  0  0  0  0  0  0  0  0  0  0  0
  1 16  1  0  0  0  0
  1 15  1  0  0  0  0
  2 17  1  1  0  0  0
  2  1  1  0  0  0  0
  3  2  1  0  0  0  0
  4  3  1  0  0  0  0
  4 12  1  0  0  0  0
  5  6  1  0  0  0  0
  5  4  2  0  0  0  0
  6  7  1  0  0  0  0
  7  8  2  0  0  0  0
  7 12  1  0  0  0  0
  8  9  1  0  0  0  0
  9 23  1  0  0  0  0
  9 10  2  0  0  0  0
 10 24  1  0  0  0  0
 11 25  1  0  0  0  0
 11 10  1  0  0  0  0
 12 11  2  0  0  0  0
 13  2  1  0  0  0  0
 13 26  1  0  0  0  0
 14 13  2  0  0  0  0
 18  3  1  0  0  0  0
 19  3  1  0  0  0  0
 20  5  1  0  0  0  0
 21  6  1  0  0  0  0
 22  8  1  0  0  0  0
 26 30  1  0  0  0  0
 27 26  1  0  0  0  0
 27 28  1  0  0  0  0
 28 29  1  0  0  0  0
 28 36  1  0  0  0  0
 29 37  1  0  0  0  0
 29 38  1  0  0  0  0
 30 39  1  1  0  0  0
 30 29  1  0  0  0  0
 31 30  1  0  0  0  0
 31 32  2  0  0  0  0
 33 27  1  0  0  0  0
 34 27  1  0  0  0  0
 35 28  1  0  0  0  0
 40 50  1  0  0  0  0
 40 41  1  0  0  0  0
 41 43  1  0  0  0  0
 41 51  1  0  0  0  0
 42 53  1  0  0  0  0
 42 52  1  0  0  0  0
 42 41  1  0  0  0  0
 43 44  1  0  0  0  0
 43 55  1  1  0  0  0
 44 31  1  0  0  0  0
 45 43  1  0  0  0  0
 46 45  2  0  0  0  0
 47 45  1  0  0  0  0
 48 40  1  0  0  0  0
 49 40  1  0  0  0  0
 54 42  1  0  0  0  0
 56 44  1  0  0  0  0
M  END
$$$$
