WPY.pdb
 OpenBabel07022419183D

 61 64  0  0  1  0  0  0  0  0999 V2000
    1.9410    3.1310    2.4420 N   0  0  0  0  0  0  0  0  0  0  0  0
    1.2450    1.8360    2.0200 C   0  0  1  0  0  0  0  0  0  0  0  0
    2.0560    0.7970    2.8010 C   0  0  0  0  0  0  0  0  0  0  0  0
    3.5050    0.8620    2.5100 C   0  0  0  0  0  0  0  0  0  0  0  0
    4.4880    1.4040    3.3580 C   0  0  0  0  0  0  0  0  0  0  0  0
    5.6990    1.3060    2.8010 N   0  0  0  0  0  0  0  0  0  0  0  0
    5.5670    0.7050    1.5840 C   0  0  0  0  0  0  0  0  0  0  0  0
    6.4760    0.3650    0.6090 C   0  0  0  0  0  0  0  0  0  0  0  0
    6.0570   -0.2480   -0.5550 C   0  0  0  0  0  0  0  0  0  0  0  0
    4.7280   -0.5330   -0.7670 C   0  0  0  0  0  0  0  0  0  0  0  0
    3.8340   -0.1820    0.2270 C   0  0  0  0  0  0  0  0  0  0  0  0
    4.2090    0.4370    1.4170 C   0  0  0  0  0  0  0  0  0  0  0  0
   -0.1330    1.9440    2.5050 C   0  0  0  0  0  0  0  0  0  0  0  0
   -0.3500    2.9300    3.3670 O   0  0  0  0  0  0  0  0  0  0  0  0
    1.3210    3.9160    2.0910 H   0  0  0  0  0  0  0  0  0  0  0  0
    1.8860    3.1840    3.4850 H   0  0  0  0  0  0  0  0  0  0  0  0
    1.3140    1.7300    0.9660 H   0  0  0  0  0  0  0  0  0  0  0  0
    1.9170    1.1180    3.8800 H   0  0  0  0  0  0  0  0  0  0  0  0
    1.6490   -0.2120    2.7410 H   0  0  0  0  0  0  0  0  0  0  0  0
    4.2430    1.8290    4.3140 H   0  0  0  0  0  0  0  0  0  0  0  0
    6.6290    1.6080    3.1640 H   0  0  0  0  0  0  0  0  0  0  0  0
    7.5200    0.5950    0.7860 H   0  0  0  0  0  0  0  0  0  0  0  0
    6.8040   -0.5040   -1.3140 H   0  0  0  0  0  0  0  0  0  0  0  0
    4.3530   -1.0120   -1.6620 H   0  0  0  0  0  0  0  0  0  0  0  0
    2.7820   -0.3710    0.1340 H   0  0  0  0  0  0  0  0  0  0  0  0
   -1.2830    1.2080    2.2390 N   0  0  0  0  0  0  0  0  0  0  0  0
   -2.6030    1.5920    2.9620 C   0  0  0  0  0  0  0  0  0  0  0  0
   -3.6210    1.5240    1.8670 C   0  0  0  0  0  0  0  0  0  0  0  0
   -2.9060    0.8840    0.6760 C   0  0  0  0  0  0  0  0  0  0  0  0
   -1.7920    0.1340    1.4720 C   0  0  1  0  0  0  0  0  0  0  0  0
   -0.9820   -0.6600    0.5870 C   0  0  0  0  0  0  0  0  0  0  0  0
    0.2470   -0.6160    0.5000 O   0  0  0  0  0  0  0  0  0  0  0  0
   -2.7540    0.8760    3.7720 H   0  0  0  0  0  0  0  0  0  0  0  0
   -2.5050    2.6080    3.3190 H   0  0  0  0  0  0  0  0  0  0  0  0
   -3.9880    2.5110    1.5370 H   0  0  0  0  0  0  0  0  0  0  0  0
   -4.4870    0.8890    2.1790 H   0  0  0  0  0  0  0  0  0  0  0  0
   -2.4650    1.6710    0.0650 H   0  0  0  0  0  0  0  0  0  0  0  0
   -3.5420    0.1600    0.1450 H   0  0  0  0  0  0  0  0  0  0  0  0
   -2.4380   -0.5300    2.1520 H   0  0  0  0  0  0  0  0  0  0  0  0
   -6.4850   -5.2210   -2.0700 O   0  0  0  0  0  0  0  0  0  0  0  0
   -5.1630   -4.8910   -1.8040 C   0  0  0  0  0  0  0  0  0  0  0  0
   -4.7210   -4.5220   -0.5400 C   0  0  0  0  0  0  0  0  0  0  0  0
   -3.4150   -4.1930   -0.2690 C   0  0  0  0  0  0  0  0  0  0  0  0
   -2.4930   -4.2330   -1.3060 C   0  0  0  0  0  0  0  0  0  0  0  0
   -1.0790   -3.8760   -1.0160 C   0  0  0  0  0  0  0  0  0  0  0  0
   -0.8180   -2.3920   -1.1750 C   0  0  2  0  0  0  0  0  0  0  0  0
   -1.6410   -1.6040   -0.2930 N   0  0  0  0  0  0  0  0  0  0  0  0
   -1.1140   -1.9460   -2.5790 C   0  0  0  0  0  0  0  0  0  0  0  0
   -0.4830   -2.4860   -3.5190 O   0  0  0  0  0  0  0  0  0  0  0  0
   -2.8960   -4.5940   -2.5680 C   0  0  0  0  0  0  0  0  0  0  0  0
   -4.2150   -4.9190   -2.8110 C   0  0  0  0  0  0  0  0  0  0  0  0
   -2.0630   -0.9590   -2.8520 O   0  0  0  0  0  0  0  0  0  0  0  0
   -6.9230   -4.7240   -2.8500 H   0  0  0  0  0  0  0  0  0  0  0  0
   -5.4720   -4.5040    0.2350 H   0  0  0  0  0  0  0  0  0  0  0  0
   -3.1030   -3.9060    0.7430 H   0  0  0  0  0  0  0  0  0  0  0  0
   -0.4650   -4.3780   -1.7900 H   0  0  0  0  0  0  0  0  0  0  0  0
   -0.7970   -4.2530   -0.0330 H   0  0  0  0  0  0  0  0  0  0  0  0
    0.2630   -2.2160   -1.0150 H   0  0  0  0  0  0  0  0  0  0  0  0
   -2.6780   -1.6840   -0.2610 H   0  0  0  0  0  0  0  0  0  0  0  0
   -2.1610   -4.6280   -3.3910 H   0  0  0  0  0  0  0  0  0  0  0  0
   -4.5090   -5.2060   -3.8340 H   0  0  0  0  0  0  0  0  0  0  0  0
  1 16  1  0  0  0  0
  2 17  1  6  0  0  0
  2  1  1  0  0  0  0
  2 13  1  0  0  0  0
  2  3  1  0  0  0  0
  3 18  1  0  0  0  0
  4  3  1  0  0  0  0
  4  5  2  0  0  0  0
  5 20  1  0  0  0  0
  6 21  1  0  0  0  0
  6  5  1  0  0  0  0
  7  6  1  0  0  0  0
  8 22  1  0  0  0  0
  8  7  2  0  0  0  0
  9  8  1  0  0  0  0
 10  9  2  0  0  0  0
 10 11  1  0  0  0  0
 11 12  2  0  0  0  0
 12  7  1  0  0  0  0
 12  4  1  0  0  0  0
 13 14  2  0  0  0  0
 15  1  1  0  0  0  0
 19  3  1  0  0  0  0
 23  9  1  0  0  0  0
 24 10  1  0  0  0  0
 25 11  1  0  0  0  0
 26 13  1  0  0  0  0
 26 27  1  0  0  0  0
 27 34  1  0  0  0  0
 27 33  1  0  0  0  0
 28 36  1  0  0  0  0
 28 27  1  0  0  0  0
 29 30  1  0  0  0  0
 29 28  1  0  0  0  0
 30 39  1  1  0  0  0
 30 26  1  0  0  0  0
 31 30  1  0  0  0  0
 32 31  2  0  0  0  0
 35 28  1  0  0  0  0
 37 29  1  0  0  0  0
 38 29  1  0  0  0  0
 40 41  1  0  0  0  0
 41 42  1  0  0  0  0
 42 43  2  0  0  0  0
 42 54  1  0  0  0  0
 43 55  1  0  0  0  0
 44 45  1  0  0  0  0
 44 43  1  0  0  0  0
 45 57  1  0  0  0  0
 46 45  1  0  0  0  0
 46 58  1  1  0  0  0
 46 47  1  0  0  0  0
 47 59  1  0  0  0  0
 47 31  1  0  0  0  0
 48 46  1  0  0  0  0
 49 48  2  0  0  0  0
 50 44  2  0  0  0  0
 51 50  1  0  0  0  0
 51 41  2  0  0  0  0
 52 48  1  0  0  0  0
 53 40  1  0  0  0  0
 56 45  1  0  0  0  0
 60 50  1  0  0  0  0
 61 51  1  0  0  0  0
M  END
$$$$
