WQA.pdb
 OpenBabel07022419163D

 53 54  0  0  1  0  0  0  0  0999 V2000
   -1.0220    2.3360   -0.5820 N   0  0  0  0  0  0  0  0  0  0  0  0
   -0.2810    1.8650   -1.6800 C   0  0  1  0  0  0  0  0  0  0  0  0
    1.1100    2.4310   -1.7280 C   0  0  0  0  0  0  0  0  0  0  0  0
    1.9390    2.1240   -0.5530 C   0  0  0  0  0  0  0  0  0  0  0  0
    2.8650    1.0760   -0.4420 C   0  0  0  0  0  0  0  0  0  0  0  0
    3.3960    1.1030    0.7770 N   0  0  0  0  0  0  0  0  0  0  0  0
    2.8560    2.1320    1.4820 C   0  0  0  0  0  0  0  0  0  0  0  0
    3.0870    2.5710    2.7700 C   0  0  0  0  0  0  0  0  0  0  0  0
    2.4270    3.6590    3.2880 C   0  0  0  0  0  0  0  0  0  0  0  0
    1.5230    4.3030    2.4750 C   0  0  0  0  0  0  0  0  0  0  0  0
    1.2950    3.8630    1.1920 C   0  0  0  0  0  0  0  0  0  0  0  0
    1.9520    2.7660    0.6570 C   0  0  0  0  0  0  0  0  0  0  0  0
   -0.0970    0.3660   -1.6100 C   0  0  0  0  0  0  0  0  0  0  0  0
    0.5690   -0.2020   -2.5090 O   0  0  0  0  0  0  0  0  0  0  0  0
   -0.6950    2.0430    0.3310 H   0  0  0  0  0  0  0  0  0  0  0  0
   -1.1700    3.3500   -0.6250 H   0  0  0  0  0  0  0  0  0  0  0  0
   -0.7800    2.1180   -2.6500 H   0  0  0  0  0  0  0  0  0  0  0  0
    1.6060    1.9390   -2.6150 H   0  0  0  0  0  0  0  0  0  0  0  0
    1.1140    3.5190   -1.9700 H   0  0  0  0  0  0  0  0  0  0  0  0
    3.1050    0.3740   -1.2080 H   0  0  0  0  0  0  0  0  0  0  0  0
    4.1230    0.4300    1.1400 H   0  0  0  0  0  0  0  0  0  0  0  0
    3.8080    2.0520    3.4080 H   0  0  0  0  0  0  0  0  0  0  0  0
    2.6030    4.0120    4.3030 H   0  0  0  0  0  0  0  0  0  0  0  0
    0.9910    5.1620    2.8610 H   0  0  0  0  0  0  0  0  0  0  0  0
    0.5730    4.3960    0.5590 H   0  0  0  0  0  0  0  0  0  0  0  0
    0.1570   -1.9860    4.4490 N   0  0  0  0  0  0  0  0  0  0  0  0
    0.5480   -2.2720    3.1200 C   0  0  0  0  0  0  0  0  0  0  0  0
    1.6300   -2.8870    2.9480 O   0  0  0  0  0  0  0  0  0  0  0  0
   -0.3380   -1.8310    2.0090 C   0  0  0  0  0  0  0  0  0  0  0  0
    0.3130   -2.2400    0.7210 C   0  0  0  0  0  0  0  0  0  0  0  0
   -0.4710   -1.8610   -0.5030 C   0  0  2  0  0  0  0  0  0  0  0  0
   -0.6500   -0.4220   -0.5660 N   0  0  0  0  0  0  0  0  0  0  0  0
   -1.7610   -2.5810   -0.6140 C   0  0  0  0  0  0  0  0  0  0  0  0
   -2.8020   -1.8930   -0.7430 O   0  0  0  0  0  0  0  0  0  0  0  0
   -0.3680   -1.1310    4.7120 H   0  0  0  0  0  0  0  0  0  0  0  0
    0.4050   -2.6600    5.1960 H   0  0  0  0  0  0  0  0  0  0  0  0
   -1.3230   -2.2900    2.1720 H   0  0  0  0  0  0  0  0  0  0  0  0
   -0.4570   -0.7380    2.1080 H   0  0  0  0  0  0  0  0  0  0  0  0
    1.2930   -1.7250    0.6550 H   0  0  0  0  0  0  0  0  0  0  0  0
    0.5050   -3.3140    0.7330 H   0  0  0  0  0  0  0  0  0  0  0  0
    0.1380   -2.1740   -1.3780 H   0  0  0  0  0  0  0  0  0  0  0  0
   -1.1980    0.0940    0.1600 H   0  0  0  0  0  0  0  0  0  0  0  0
   -3.0810   -5.6660   -1.8690 C   0  0  0  0  0  0  0  0  0  0  0  0
   -3.0860   -4.7230   -0.6860 C   0  0  2  0  0  0  0  0  0  0  0  0
   -1.8600   -3.9750   -0.5820 N   0  0  0  0  0  0  0  0  0  0  0  0
   -3.2910   -5.5430    0.5350 C   0  0  0  0  0  0  0  0  0  0  0  0
   -2.4390   -5.5000    1.4560 O   0  0  0  0  0  0  0  0  0  0  0  0
   -4.3950   -6.3660    0.7070 O   0  0  0  0  0  0  0  0  0  0  0  0
   -3.7920   -6.4840   -1.6330 H   0  0  0  0  0  0  0  0  0  0  0  0
   -3.3570   -5.1870   -2.8110 H   0  0  0  0  0  0  0  0  0  0  0  0
   -2.0540   -6.1090   -1.9040 H   0  0  0  0  0  0  0  0  0  0  0  0
   -3.9760   -4.0750   -0.7960 H   0  0  0  0  0  0  0  0  0  0  0  0
   -0.9790   -4.5270   -0.4740 H   0  0  0  0  0  0  0  0  0  0  0  0
  1 15  1  0  0  0  0
  2 17  1  6  0  0  0
  2 13  1  0  0  0  0
  2  1  1  0  0  0  0
  3  2  1  0  0  0  0
  3  4  1  0  0  0  0
  4  5  2  0  0  0  0
  4 12  1  0  0  0  0
  5  6  1  0  0  0  0
  6 21  1  0  0  0  0
  6  7  1  0  0  0  0
  7  8  1  0  0  0  0
  8  9  2  0  0  0  0
  8 22  1  0  0  0  0
  9 23  1  0  0  0  0
 10 24  1  0  0  0  0
 10  9  1  0  0  0  0
 11 10  2  0  0  0  0
 12 11  1  0  0  0  0
 12  7  2  0  0  0  0
 13 32  1  0  0  0  0
 14 13  2  0  0  0  0
 16  1  1  0  0  0  0
 18  3  1  0  0  0  0
 19  3  1  0  0  0  0
 20  5  1  0  0  0  0
 25 11  1  0  0  0  0
 26 35  1  0  0  0  0
 26 36  1  0  0  0  0
 27 26  1  0  0  0  0
 28 27  2  0  0  0  0
 29 38  1  0  0  0  0
 29 37  1  0  0  0  0
 29 27  1  0  0  0  0
 30 40  1  0  0  0  0
 30 29  1  0  0  0  0
 31 41  1  6  0  0  0
 31 30  1  0  0  0  0
 32 31  1  0  0  0  0
 32 42  1  0  0  0  0
 33 45  1  0  0  0  0
 33 31  1  0  0  0  0
 34 33  2  0  0  0  0
 39 30  1  0  0  0  0
 43 49  1  0  0  0  0
 43 44  1  0  0  0  0
 44 52  1  6  0  0  0
 44 45  1  0  0  0  0
 44 46  1  0  0  0  0
 45 53  1  0  0  0  0
 46 48  2  0  0  0  0
 46 47  1  0  0  0  0
 50 43  1  0  0  0  0
 51 43  1  0  0  0  0
M  END
$$$$
