WQC.pdb
 OpenBabel07022419163D

 54 55  0  0  1  0  0  0  0  0999 V2000
    1.2530    1.2080   -0.8250 N   0  0  0  0  0  0  0  0  0  0  0  0
    0.8460    0.0840   -0.0280 C   0  0  1  0  0  0  0  0  0  0  0  0
    1.2370    0.2600    1.3980 C   0  0  0  0  0  0  0  0  0  0  0  0
    2.6920    0.4110    1.6220 C   0  0  0  0  0  0  0  0  0  0  0  0
    3.5820   -0.5960    2.0160 C   0  0  0  0  0  0  0  0  0  0  0  0
    4.8180   -0.0860    2.0870 N   0  0  0  0  0  0  0  0  0  0  0  0
    4.8070    1.2200    1.7610 C   0  0  0  0  0  0  0  0  0  0  0  0
    5.8310    2.1610    1.6980 C   0  0  0  0  0  0  0  0  0  0  0  0
    5.5510    3.4570    1.3390 C   0  0  0  0  0  0  0  0  0  0  0  0
    4.2420    3.7760    1.0510 C   0  0  0  0  0  0  0  0  0  0  0  0
    3.2170    2.8420    1.1120 C   0  0  0  0  0  0  0  0  0  0  0  0
    3.4840    1.5300    1.4720 C   0  0  0  0  0  0  0  0  0  0  0  0
   -0.6580   -0.0490   -0.0350 C   0  0  0  0  0  0  0  0  0  0  0  0
   -1.3150    0.7720   -0.7000 O   0  0  0  0  0  0  0  0  0  0  0  0
    1.9510    0.9560   -1.5530 H   0  0  0  0  0  0  0  0  0  0  0  0
    0.4020    1.6750   -1.2260 H   0  0  0  0  0  0  0  0  0  0  0  0
    1.2230   -0.8800   -0.4580 H   0  0  0  0  0  0  0  0  0  0  0  0
    0.6790    1.1230    1.8580 H   0  0  0  0  0  0  0  0  0  0  0  0
    0.9200   -0.6170    2.0350 H   0  0  0  0  0  0  0  0  0  0  0  0
    3.2450   -1.5950    2.2100 H   0  0  0  0  0  0  0  0  0  0  0  0
    5.6770   -0.6010    2.3530 H   0  0  0  0  0  0  0  0  0  0  0  0
    6.8510    1.8940    1.9280 H   0  0  0  0  0  0  0  0  0  0  0  0
    6.3400    4.2220    1.2810 H   0  0  0  0  0  0  0  0  0  0  0  0
    4.0340    4.7960    0.7710 H   0  0  0  0  0  0  0  0  0  0  0  0
    2.1940    3.1040    0.8950 H   0  0  0  0  0  0  0  0  0  0  0  0
   -3.3480    1.4940    3.9910 N   0  0  0  0  0  0  0  0  0  0  0  0
   -3.7010    0.6430    2.9180 C   0  0  0  0  0  0  0  0  0  0  0  0
   -4.3160   -0.4120    3.1660 O   0  0  0  0  0  0  0  0  0  0  0  0
   -3.3620    0.9680    1.4990 C   0  0  0  0  0  0  0  0  0  0  0  0
   -3.5410   -0.1540    0.5510 C   0  0  0  0  0  0  0  0  0  0  0  0
   -2.6360   -1.3400    0.8180 C   0  0  2  0  0  0  0  0  0  0  0  0
   -1.2340   -1.0790    0.7000 N   0  0  0  0  0  0  0  0  0  0  0  0
   -2.9800   -2.5430    0.0490 C   0  0  0  0  0  0  0  0  0  0  0  0
   -4.1610   -3.0090   -0.0160 O   0  0  0  0  0  0  0  0  0  0  0  0
   -3.2290    2.5100    3.8140 H   0  0  0  0  0  0  0  0  0  0  0  0
   -3.2140    1.0900    4.9410 H   0  0  0  0  0  0  0  0  0  0  0  0
   -4.1370    1.7500    1.2050 H   0  0  0  0  0  0  0  0  0  0  0  0
   -2.3960    1.4670    1.5320 H   0  0  0  0  0  0  0  0  0  0  0  0
   -4.5850   -0.5560    0.7300 H   0  0  0  0  0  0  0  0  0  0  0  0
   -3.5200    0.2100   -0.4800 H   0  0  0  0  0  0  0  0  0  0  0  0
   -2.8740   -1.5830    1.9190 H   0  0  0  0  0  0  0  0  0  0  0  0
   -0.5980   -1.7400    1.2250 H   0  0  0  0  0  0  0  0  0  0  0  0
   -1.9750   -3.2600   -0.6780 N   0  0  0  0  0  0  0  0  0  0  0  0
   -2.2540   -4.4450   -1.4480 C   0  0  1  0  0  0  0  0  0  0  0  0
   -1.9980   -4.2350   -2.9270 C   0  0  0  0  0  0  0  0  0  0  0  0
   -2.3880   -5.7960   -3.7700 S   0  0  0  0  0  0  0  0  0  0  0  0
   -1.4890   -5.6210   -0.9590 C   0  0  0  0  0  0  0  0  0  0  0  0
   -0.7040   -5.5180    0.0230 O   0  0  0  0  0  0  0  0  0  0  0  0
   -1.5930   -6.8740   -1.5430 O   0  0  0  0  0  0  0  0  0  0  0  0
   -0.9940   -2.8540   -0.6110 H   0  0  0  0  0  0  0  0  0  0  0  0
   -3.3360   -4.6620   -1.3460 H   0  0  0  0  0  0  0  0  0  0  0  0
   -2.7240   -3.4710   -3.2700 H   0  0  0  0  0  0  0  0  0  0  0  0
   -0.9700   -3.9320   -3.1230 H   0  0  0  0  0  0  0  0  0  0  0  0
   -2.1550   -5.6190   -5.1470 H   0  0  0  0  0  0  0  0  0  0  0  0
  1  2  1  0  0  0  0
  2 17  1  6  0  0  0
  2  3  1  0  0  0  0
  3  4  1  0  0  0  0
  3 18  1  0  0  0  0
  3 19  1  0  0  0  0
  4  5  2  0  0  0  0
  5  6  1  0  0  0  0
  5 20  1  0  0  0  0
  6 21  1  0  0  0  0
  7  6  1  0  0  0  0
  8  7  1  0  0  0  0
  8 22  1  0  0  0  0
  9  8  2  0  0  0  0
 10 11  2  0  0  0  0
 10  9  1  0  0  0  0
 11 12  1  0  0  0  0
 12  4  1  0  0  0  0
 12  7  2  0  0  0  0
 13  2  1  0  0  0  0
 13 32  1  0  0  0  0
 14 13  2  0  0  0  0
 15  1  1  0  0  0  0
 16  1  1  0  0  0  0
 23  9  1  0  0  0  0
 24 10  1  0  0  0  0
 25 11  1  0  0  0  0
 26 36  1  0  0  0  0
 27 28  2  0  0  0  0
 27 26  1  0  0  0  0
 29 38  1  0  0  0  0
 29 27  1  0  0  0  0
 30 39  1  0  0  0  0
 30 31  1  0  0  0  0
 30 29  1  0  0  0  0
 31 41  1  1  0  0  0
 32 31  1  0  0  0  0
 32 42  1  0  0  0  0
 33 31  1  0  0  0  0
 34 33  2  0  0  0  0
 35 26  1  0  0  0  0
 37 29  1  0  0  0  0
 40 30  1  0  0  0  0
 43 50  1  0  0  0  0
 43 33  1  0  0  0  0
 44 51  1  1  0  0  0
 44 47  1  0  0  0  0
 44 43  1  0  0  0  0
 45 44  1  0  0  0  0
 46 45  1  0  0  0  0
 47 48  1  0  0  0  0
 49 47  2  0  0  0  0
 52 45  1  0  0  0  0
 53 45  1  0  0  0  0
 54 46  1  0  0  0  0
M  END
$$$$
