WQE.pdb
 OpenBabel07022419163D

 59 60  0  0  1  0  0  0  0  0999 V2000
    1.5620    0.4850    4.2120 N   0  0  0  0  0  0  0  0  0  0  0  0
    0.9800    1.3530    3.1430 C   0  0  1  0  0  0  0  0  0  0  0  0
    2.0840    2.0790    2.5240 C   0  0  0  0  0  0  0  0  0  0  0  0
    3.1430    1.2800    1.8840 C   0  0  0  0  0  0  0  0  0  0  0  0
    4.2510    0.7330    2.5460 C   0  0  0  0  0  0  0  0  0  0  0  0
    4.9790    0.0110    1.6810 N   0  0  0  0  0  0  0  0  0  0  0  0
    4.4130    0.0390    0.4410 C   0  0  0  0  0  0  0  0  0  0  0  0
    4.7730   -0.5080   -0.7680 C   0  0  0  0  0  0  0  0  0  0  0  0
    3.9740   -0.2510   -1.8570 C   0  0  0  0  0  0  0  0  0  0  0  0
    2.8390    0.5360   -1.7380 C   0  0  0  0  0  0  0  0  0  0  0  0
    2.4910    1.0750   -0.5220 C   0  0  0  0  0  0  0  0  0  0  0  0
    3.2750    0.8340    0.5920 C   0  0  0  0  0  0  0  0  0  0  0  0
   -0.0690    0.6780    2.4430 C   0  0  0  0  0  0  0  0  0  0  0  0
   -0.5210   -0.4390    2.9880 O   0  0  0  0  0  0  0  0  0  0  0  0
    1.8610   -0.3730    3.6730 H   0  0  0  0  0  0  0  0  0  0  0  0
    0.7910    0.2450    4.8830 H   0  0  0  0  0  0  0  0  0  0  0  0
    0.4520    2.1420    3.8300 H   0  0  0  0  0  0  0  0  0  0  0  0
    2.6410    2.7140    3.2940 H   0  0  0  0  0  0  0  0  0  0  0  0
    1.7520    2.8710    1.7910 H   0  0  0  0  0  0  0  0  0  0  0  0
    4.4620    0.8870    3.5940 H   0  0  0  0  0  0  0  0  0  0  0  0
    5.8680   -0.5280    1.8590 H   0  0  0  0  0  0  0  0  0  0  0  0
    5.6460   -1.1140   -0.8690 H   0  0  0  0  0  0  0  0  0  0  0  0
    4.2440   -0.6740   -2.8240 H   0  0  0  0  0  0  0  0  0  0  0  0
    2.2600    0.6960   -2.6360 H   0  0  0  0  0  0  0  0  0  0  0  0
    1.6170    1.6930   -0.4070 H   0  0  0  0  0  0  0  0  0  0  0  0
   -5.8790   -1.4090    0.4230 N   0  0  0  0  0  0  0  0  0  0  0  0
   -4.8210   -0.5220    0.6730 C   0  0  0  0  0  0  0  0  0  0  0  0
   -4.4670   -0.3480    1.8890 O   0  0  0  0  0  0  0  0  0  0  0  0
   -4.0760    0.2320   -0.3660 C   0  0  0  0  0  0  0  0  0  0  0  0
   -2.8910    0.9750    0.1470 C   0  0  0  0  0  0  0  0  0  0  0  0
   -1.8550    0.1160    0.7570 C   0  0  2  0  0  0  0  0  0  0  0  0
   -0.7470    0.9790    1.2490 N   0  0  0  0  0  0  0  0  0  0  0  0
   -1.2630   -0.8040   -0.2330 C   0  0  0  0  0  0  0  0  0  0  0  0
   -0.1200   -0.5440   -0.7040 O   0  0  0  0  0  0  0  0  0  0  0  0
   -6.2650   -1.9790    1.2030 H   0  0  0  0  0  0  0  0  0  0  0  0
   -6.3280   -1.5500   -0.5060 H   0  0  0  0  0  0  0  0  0  0  0  0
   -3.8720   -0.4170   -1.2320 H   0  0  0  0  0  0  0  0  0  0  0  0
   -4.8540    0.9570   -0.7760 H   0  0  0  0  0  0  0  0  0  0  0  0
   -3.2630    1.7780    0.8380 H   0  0  0  0  0  0  0  0  0  0  0  0
   -2.4640    1.5190   -0.7610 H   0  0  0  0  0  0  0  0  0  0  0  0
   -2.2310   -0.5110    1.5680 H   0  0  0  0  0  0  0  0  0  0  0  0
   -0.4630    1.8140    0.7270 H   0  0  0  0  0  0  0  0  0  0  0  0
   -1.8650   -2.0080   -0.7250 N   0  0  0  0  0  0  0  0  0  0  0  0
   -1.2000   -2.8450   -1.6800 C   0  0  1  0  0  0  0  0  0  0  0  0
   -0.7620   -4.1930   -1.2350 C   0  0  0  0  0  0  0  0  0  0  0  0
    0.2220   -4.2500   -0.1360 C   0  0  0  0  0  0  0  0  0  0  0  0
   -0.2260   -3.7670    1.1630 C   0  0  0  0  0  0  0  0  0  0  0  0
   -1.3960   -3.4990    1.4320 O   0  0  0  0  0  0  0  0  0  0  0  0
   -2.0220   -2.9440   -2.9400 C   0  0  0  0  0  0  0  0  0  0  0  0
   -1.5890   -3.6230   -3.8940 O   0  0  0  0  0  0  0  0  0  0  0  0
    0.7040   -3.5800    2.2140 O   0  0  0  0  0  0  0  0  0  0  0  0
   -3.2250   -2.3030   -3.0470 O   0  0  0  0  0  0  0  0  0  0  0  0
   -2.8170   -2.2430   -0.3520 H   0  0  0  0  0  0  0  0  0  0  0  0
   -0.2390   -2.2780   -1.9610 H   0  0  0  0  0  0  0  0  0  0  0  0
   -1.6300   -4.8510   -0.9470 H   0  0  0  0  0  0  0  0  0  0  0  0
   -0.2720   -4.6890   -2.1290 H   0  0  0  0  0  0  0  0  0  0  0  0
    1.1400   -3.6220   -0.3940 H   0  0  0  0  0  0  0  0  0  0  0  0
    0.6540   -5.2920   -0.0280 H   0  0  0  0  0  0  0  0  0  0  0  0
    0.3740   -3.8230    3.1500 H   0  0  0  0  0  0  0  0  0  0  0  0
  1 16  1  0  0  0  0
  2 17  1  1  0  0  0
  2  1  1  0  0  0  0
  3  2  1  0  0  0  0
  3 18  1  0  0  0  0
  4  3  1  0  0  0  0
  4  5  2  0  0  0  0
  5 20  1  0  0  0  0
  6 21  1  0  0  0  0
  6  5  1  0  0  0  0
  7 12  1  0  0  0  0
  7  6  1  0  0  0  0
  8  7  2  0  0  0  0
  9 10  2  0  0  0  0
  9  8  1  0  0  0  0
 10 11  1  0  0  0  0
 11 25  1  0  0  0  0
 11 12  2  0  0  0  0
 12  4  1  0  0  0  0
 13 14  2  0  0  0  0
 13  2  1  0  0  0  0
 15  1  1  0  0  0  0
 19  3  1  0  0  0  0
 22  8  1  0  0  0  0
 23  9  1  0  0  0  0
 24 10  1  0  0  0  0
 26 27  1  0  0  0  0
 26 35  1  0  0  0  0
 27 28  2  0  0  0  0
 29 30  1  0  0  0  0
 29 27  1  0  0  0  0
 30 31  1  0  0  0  0
 30 39  1  0  0  0  0
 31 32  1  0  0  0  0
 31 41  1  1  0  0  0
 32 13  1  0  0  0  0
 33 31  1  0  0  0  0
 34 33  2  0  0  0  0
 36 26  1  0  0  0  0
 37 29  1  0  0  0  0
 38 29  1  0  0  0  0
 40 30  1  0  0  0  0
 42 32  1  0  0  0  0
 43 53  1  0  0  0  0
 43 33  1  0  0  0  0
 44 54  1  6  0  0  0
 44 45  1  0  0  0  0
 44 43  1  0  0  0  0
 45 55  1  0  0  0  0
 45 46  1  0  0  0  0
 46 58  1  0  0  0  0
 46 47  1  0  0  0  0
 47 48  2  0  0  0  0
 47 51  1  0  0  0  0
 49 44  1  0  0  0  0
 50 49  2  0  0  0  0
 51 59  1  0  0  0  0
 52 49  1  0  0  0  0
 56 45  1  0  0  0  0
 57 46  1  0  0  0  0
M  END
$$$$
