WQG.pdb
 OpenBabel07022419163D

 50 51  0  0  1  0  0  0  0  0999 V2000
   -1.3300    1.7440    2.4430 N   0  0  0  0  0  0  0  0  0  0  0  0
   -1.4640    1.9710    1.0090 C   0  0  1  0  0  0  0  0  0  0  0  0
   -0.5210    3.0330    0.5300 C   0  0  0  0  0  0  0  0  0  0  0  0
    0.9050    2.8040    0.7640 C   0  0  0  0  0  0  0  0  0  0  0  0
    1.5860    3.2840    1.9040 C   0  0  0  0  0  0  0  0  0  0  0  0
    2.8550    2.8760    1.8490 N   0  0  0  0  0  0  0  0  0  0  0  0
    3.0550    2.1490    0.7310 C   0  0  0  0  0  0  0  0  0  0  0  0
    4.2160    1.5390    0.2670 C   0  0  0  0  0  0  0  0  0  0  0  0
    4.1270    0.8610   -0.9320 C   0  0  0  0  0  0  0  0  0  0  0  0
    2.9440    0.7940   -1.6370 C   0  0  0  0  0  0  0  0  0  0  0  0
    1.8160    1.4070   -1.1510 C   0  0  0  0  0  0  0  0  0  0  0  0
    1.8510    2.1030    0.0580 C   0  0  0  0  0  0  0  0  0  0  0  0
   -1.4050    0.7660    0.1920 C   0  0  0  0  0  0  0  0  0  0  0  0
   -1.5790    0.8830   -1.0470 O   0  0  0  0  0  0  0  0  0  0  0  0
   -1.4790    2.6730    2.9050 H   0  0  0  0  0  0  0  0  0  0  0  0
   -0.4000    1.3830    2.7100 H   0  0  0  0  0  0  0  0  0  0  0  0
   -2.5010    2.4520    0.9350 H   0  0  0  0  0  0  0  0  0  0  0  0
   -0.7750    4.0380    0.9950 H   0  0  0  0  0  0  0  0  0  0  0  0
   -0.6580    3.2370   -0.5680 H   0  0  0  0  0  0  0  0  0  0  0  0
    1.1390    3.8870    2.6910 H   0  0  0  0  0  0  0  0  0  0  0  0
    3.6270    3.0630    2.5460 H   0  0  0  0  0  0  0  0  0  0  0  0
    5.1560    1.5880    0.8200 H   0  0  0  0  0  0  0  0  0  0  0  0
    5.0270    0.3750   -1.3140 H   0  0  0  0  0  0  0  0  0  0  0  0
    2.8530    0.2670   -2.5810 H   0  0  0  0  0  0  0  0  0  0  0  0
    0.8760    1.4030   -1.6610 H   0  0  0  0  0  0  0  0  0  0  0  0
    1.1980   -2.1250    3.3420 N   0  0  0  0  0  0  0  0  0  0  0  0
    1.1900   -1.8370    1.9460 C   0  0  0  0  0  0  0  0  0  0  0  0
    1.5000   -0.6730    1.5990 O   0  0  0  0  0  0  0  0  0  0  0  0
    0.8430   -2.8500    0.9420 C   0  0  0  0  0  0  0  0  0  0  0  0
    0.2160   -2.3250   -0.2900 C   0  0  0  0  0  0  0  0  0  0  0  0
   -1.1220   -1.7010   -0.2080 C   0  0  2  0  0  0  0  0  0  0  0  0
   -1.1680   -0.5630    0.6560 N   0  0  0  0  0  0  0  0  0  0  0  0
   -2.1940   -2.6880    0.1370 C   0  0  0  0  0  0  0  0  0  0  0  0
   -3.0020   -2.4750    1.0900 O   0  0  0  0  0  0  0  0  0  0  0  0
    1.7700   -1.5920    4.0360 H   0  0  0  0  0  0  0  0  0  0  0  0
    0.5870   -2.9230    3.6650 H   0  0  0  0  0  0  0  0  0  0  0  0
    1.8150   -3.3490    0.6220 H   0  0  0  0  0  0  0  0  0  0  0  0
    0.2630   -3.6990    1.3830 H   0  0  0  0  0  0  0  0  0  0  0  0
    0.9100   -1.5470   -0.7550 H   0  0  0  0  0  0  0  0  0  0  0  0
    0.2130   -3.1210   -1.1040 H   0  0  0  0  0  0  0  0  0  0  0  0
   -1.3730   -1.4000   -1.2830 H   0  0  0  0  0  0  0  0  0  0  0  0
   -1.0600   -0.6890    1.6790 H   0  0  0  0  0  0  0  0  0  0  0  0
   -2.3010   -3.8830   -0.6260 N   0  0  0  0  0  0  0  0  0  0  0  0
   -3.2960   -4.8790   -0.3650 C   0  0  0  0  0  0  0  0  0  0  0  0
   -3.1540   -5.4090    1.0110 C   0  0  0  0  0  0  0  0  0  0  0  0
   -2.2390   -4.9500    1.7350 O   0  0  0  0  0  0  0  0  0  0  0  0
   -3.9700   -6.3800    1.5460 O   0  0  0  0  0  0  0  0  0  0  0  0
   -1.5960   -4.0060   -1.4140 H   0  0  0  0  0  0  0  0  0  0  0  0
   -3.1240   -5.7440   -1.0520 H   0  0  0  0  0  0  0  0  0  0  0  0
   -4.3300   -4.5170   -0.5610 H   0  0  0  0  0  0  0  0  0  0  0  0
  1 16  1  0  0  0  0
  1 15  1  0  0  0  0
  2 17  1  6  0  0  0
  2  1  1  0  0  0  0
  3  4  1  0  0  0  0
  3 18  1  0  0  0  0
  3  2  1  0  0  0  0
  4  5  2  0  0  0  0
  5 20  1  0  0  0  0
  6  5  1  0  0  0  0
  6 21  1  0  0  0  0
  7  6  1  0  0  0  0
  8  7  1  0  0  0  0
  8 22  1  0  0  0  0
  9  8  2  0  0  0  0
 10 11  2  0  0  0  0
 10  9  1  0  0  0  0
 11 12  1  0  0  0  0
 12  7  2  0  0  0  0
 12  4  1  0  0  0  0
 13 32  1  0  0  0  0
 13  2  1  0  0  0  0
 14 13  2  0  0  0  0
 19  3  1  0  0  0  0
 23  9  1  0  0  0  0
 24 10  1  0  0  0  0
 25 11  1  0  0  0  0
 26 36  1  0  0  0  0
 26 35  1  0  0  0  0
 27 26  1  0  0  0  0
 28 27  2  0  0  0  0
 29 38  1  0  0  0  0
 29 27  1  0  0  0  0
 30 31  1  0  0  0  0
 30 29  1  0  0  0  0
 31 41  1  6  0  0  0
 31 33  1  0  0  0  0
 31 32  1  0  0  0  0
 32 42  1  0  0  0  0
 33 34  2  0  0  0  0
 37 29  1  0  0  0  0
 39 30  1  0  0  0  0
 40 30  1  0  0  0  0
 43 44  1  0  0  0  0
 43 33  1  0  0  0  0
 44 45  1  0  0  0  0
 45 47  2  0  0  0  0
 45 46  1  0  0  0  0
 48 43  1  0  0  0  0
 49 44  1  0  0  0  0
 50 44  1  0  0  0  0
M  END
$$$$
