WQH.pdb
 OpenBabel07022419163D

 60 62  0  0  1  0  0  0  0  0999 V2000
   -0.3630    2.7920    2.5990 N   0  0  0  0  0  0  0  0  0  0  0  0
    0.2370    2.8560    1.2780 C   0  0  1  0  0  0  0  0  0  0  0  0
    1.6390    3.3430    1.4010 C   0  0  0  0  0  0  0  0  0  0  0  0
    2.5290    2.5550    2.2540 C   0  0  0  0  0  0  0  0  0  0  0  0
    2.7900    2.8460    3.6110 C   0  0  0  0  0  0  0  0  0  0  0  0
    3.6190    1.9260    4.1220 N   0  0  0  0  0  0  0  0  0  0  0  0
    3.9360    1.0160    3.1570 C   0  0  0  0  0  0  0  0  0  0  0  0
    4.7460   -0.0890    3.1940 C   0  0  0  0  0  0  0  0  0  0  0  0
    4.9090   -0.8440    2.0690 C   0  0  0  0  0  0  0  0  0  0  0  0
    4.2590   -0.4850    0.9140 C   0  0  0  0  0  0  0  0  0  0  0  0
    3.4460    0.6250    0.8810 C   0  0  0  0  0  0  0  0  0  0  0  0
    3.2480    1.4250    2.0030 C   0  0  0  0  0  0  0  0  0  0  0  0
    0.0580    1.6790    0.4490 C   0  0  0  0  0  0  0  0  0  0  0  0
    0.5310    1.6530   -0.7280 O   0  0  0  0  0  0  0  0  0  0  0  0
    0.0340    2.0220    3.1740 H   0  0  0  0  0  0  0  0  0  0  0  0
   -1.3870    2.6250    2.5430 H   0  0  0  0  0  0  0  0  0  0  0  0
   -0.3370    3.7460    0.8040 H   0  0  0  0  0  0  0  0  0  0  0  0
    2.0600    3.4230    0.3550 H   0  0  0  0  0  0  0  0  0  0  0  0
    1.6090    4.4240    1.7640 H   0  0  0  0  0  0  0  0  0  0  0  0
    2.3590    3.7020    4.1250 H   0  0  0  0  0  0  0  0  0  0  0  0
    4.0030    1.8590    5.0970 H   0  0  0  0  0  0  0  0  0  0  0  0
    5.2480   -0.3600    4.0970 H   0  0  0  0  0  0  0  0  0  0  0  0
    5.5340   -1.7310    2.0200 H   0  0  0  0  0  0  0  0  0  0  0  0
    4.3620   -1.0570    0.0030 H   0  0  0  0  0  0  0  0  0  0  0  0
    2.9360    0.9420   -0.0010 H   0  0  0  0  0  0  0  0  0  0  0  0
   -0.5460   -1.7050    4.0960 N   0  0  0  0  0  0  0  0  0  0  0  0
    0.0870   -1.5700    2.8030 C   0  0  0  0  0  0  0  0  0  0  0  0
    0.9740   -0.6960    2.7230 O   0  0  0  0  0  0  0  0  0  0  0  0
   -0.3210   -2.4350    1.6950 C   0  0  0  0  0  0  0  0  0  0  0  0
   -0.0210   -1.8190    0.3720 C   0  0  0  0  0  0  0  0  0  0  0  0
   -0.7820   -0.6010   -0.0170 C   0  0  2  0  0  0  0  0  0  0  0  0
   -0.6430    0.4930    0.8600 N   0  0  0  0  0  0  0  0  0  0  0  0
   -2.2240   -0.9110   -0.3160 C   0  0  0  0  0  0  0  0  0  0  0  0
   -3.1780   -0.2360    0.1590 O   0  0  0  0  0  0  0  0  0  0  0  0
   -1.5760   -1.8020    4.1840 H   0  0  0  0  0  0  0  0  0  0  0  0
    0.0210   -1.7100    4.9690 H   0  0  0  0  0  0  0  0  0  0  0  0
    0.2570   -3.3900    1.7410 H   0  0  0  0  0  0  0  0  0  0  0  0
   -1.4220   -2.6550    1.8050 H   0  0  0  0  0  0  0  0  0  0  0  0
   -0.0650   -2.6070   -0.4490 H   0  0  0  0  0  0  0  0  0  0  0  0
    1.0960   -1.5860    0.3850 H   0  0  0  0  0  0  0  0  0  0  0  0
   -0.3630   -0.3390   -1.0590 H   0  0  0  0  0  0  0  0  0  0  0  0
   -1.0530    0.5430    1.8190 H   0  0  0  0  0  0  0  0  0  0  0  0
   -2.5030   -2.0100   -1.1680 N   0  0  0  0  0  0  0  0  0  0  0  0
   -3.8630   -2.3850   -1.5210 C   0  0  1  0  0  0  0  0  0  0  0  0
   -3.9820   -2.3610   -3.0180 C   0  0  0  0  0  0  0  0  0  0  0  0
   -3.0470   -3.3050   -3.6870 C   0  0  0  0  0  0  0  0  0  0  0  0
   -1.7590   -3.0890   -4.1390 C   0  0  0  0  0  0  0  0  0  0  0  0
   -1.2850   -4.2080   -4.6860 N   0  0  0  0  0  0  0  0  0  0  0  0
   -2.2550   -5.1270   -4.5850 C   0  0  0  0  0  0  0  0  0  0  0  0
   -3.3280   -4.5920   -3.9810 N   0  0  0  0  0  0  0  0  0  0  0  0
   -4.2310   -3.6880   -0.9470 C   0  0  0  0  0  0  0  0  0  0  0  0
   -5.3760   -4.1750   -1.1250 O   0  0  0  0  0  0  0  0  0  0  0  0
   -3.3310   -4.4390   -0.1820 O   0  0  0  0  0  0  0  0  0  0  0  0
   -1.7490   -2.6000   -1.5810 H   0  0  0  0  0  0  0  0  0  0  0  0
   -4.5360   -1.6290   -1.0740 H   0  0  0  0  0  0  0  0  0  0  0  0
   -3.7630   -1.3630   -3.4460 H   0  0  0  0  0  0  0  0  0  0  0  0
   -5.0250   -2.5970   -3.3580 H   0  0  0  0  0  0  0  0  0  0  0  0
   -1.2220   -2.1310   -4.0520 H   0  0  0  0  0  0  0  0  0  0  0  0
   -0.3230   -4.2860   -5.0990 H   0  0  0  0  0  0  0  0  0  0  0  0
   -2.1110   -6.1440   -4.9660 H   0  0  0  0  0  0  0  0  0  0  0  0
  1 15  1  0  0  0  0
  2 17  1  6  0  0  0
  2  3  1  0  0  0  0
  2  1  1  0  0  0  0
  3 19  1  0  0  0  0
  3  4  1  0  0  0  0
  4  5  2  0  0  0  0
  5  6  1  0  0  0  0
  5 20  1  0  0  0  0
  6 21  1  0  0  0  0
  7  8  1  0  0  0  0
  7  6  1  0  0  0  0
  8 22  1  0  0  0  0
  9  8  2  0  0  0  0
 10  9  1  0  0  0  0
 11 10  2  0  0  0  0
 11 12  1  0  0  0  0
 12  4  1  0  0  0  0
 12  7  2  0  0  0  0
 13 32  1  0  0  0  0
 13  2  1  0  0  0  0
 14 13  2  0  0  0  0
 16  1  1  0  0  0  0
 18  3  1  0  0  0  0
 23  9  1  0  0  0  0
 24 10  1  0  0  0  0
 25 11  1  0  0  0  0
 26 35  1  0  0  0  0
 26 36  1  0  0  0  0
 27 26  1  0  0  0  0
 28 27  2  0  0  0  0
 29 37  1  0  0  0  0
 29 38  1  0  0  0  0
 29 27  1  0  0  0  0
 30 40  1  0  0  0  0
 30 29  1  0  0  0  0
 31 41  1  6  0  0  0
 31 30  1  0  0  0  0
 31 32  1  0  0  0  0
 32 42  1  0  0  0  0
 33 31  1  0  0  0  0
 33 34  2  0  0  0  0
 39 30  1  0  0  0  0
 43 33  1  0  0  0  0
 44 43  1  0  0  0  0
 44 55  1  1  0  0  0
 44 51  1  0  0  0  0
 45 44  1  0  0  0  0
 46 45  1  0  0  0  0
 47 58  1  0  0  0  0
 47 46  2  0  0  0  0
 48 49  1  0  0  0  0
 48 47  1  0  0  0  0
 49 50  2  0  0  0  0
 50 46  1  0  0  0  0
 51 53  1  0  0  0  0
 52 51  2  0  0  0  0
 54 43  1  0  0  0  0
 56 45  1  0  0  0  0
 57 45  1  0  0  0  0
 59 48  1  0  0  0  0
 60 49  1  0  0  0  0
M  END
$$$$
