WQP.pdb
 OpenBabel07022419163D

 57 59  0  0  1  0  0  0  0  0999 V2000
    1.5300    2.0930    1.7960 N   0  0  0  0  0  0  0  0  0  0  0  0
    1.0590    1.2430    0.6990 C   0  0  1  0  0  0  0  0  0  0  0  0
    2.0820    0.1770    0.4520 C   0  0  0  0  0  0  0  0  0  0  0  0
    3.4020    0.7180    0.0810 C   0  0  0  0  0  0  0  0  0  0  0  0
    4.5400    0.8160    0.8370 C   0  0  0  0  0  0  0  0  0  0  0  0
    5.5040    1.3690    0.0880 N   0  0  0  0  0  0  0  0  0  0  0  0
    5.0120    1.6270   -1.1280 C   0  0  0  0  0  0  0  0  0  0  0  0
    5.6310    2.1980   -2.2480 C   0  0  0  0  0  0  0  0  0  0  0  0
    4.8790    2.3510   -3.3910 C   0  0  0  0  0  0  0  0  0  0  0  0
    3.5610    1.9490   -3.4150 C   0  0  0  0  0  0  0  0  0  0  0  0
    2.9380    1.3870   -2.3260 C   0  0  0  0  0  0  0  0  0  0  0  0
    3.6950    1.2300   -1.1670 C   0  0  0  0  0  0  0  0  0  0  0  0
   -0.2810    0.7490    1.0620 C   0  0  0  0  0  0  0  0  0  0  0  0
   -0.8560    1.1760    2.1210 O   0  0  0  0  0  0  0  0  0  0  0  0
    1.3510    3.0920    1.6440 H   0  0  0  0  0  0  0  0  0  0  0  0
    1.0260    1.8330    2.6950 H   0  0  0  0  0  0  0  0  0  0  0  0
    1.0140    1.9470   -0.1770 H   0  0  0  0  0  0  0  0  0  0  0  0
    2.1880   -0.4100    1.4040 H   0  0  0  0  0  0  0  0  0  0  0  0
    1.7270   -0.5570   -0.3120 H   0  0  0  0  0  0  0  0  0  0  0  0
    4.6400    0.5020    1.8600 H   0  0  0  0  0  0  0  0  0  0  0  0
    6.4920    1.5630    0.4240 H   0  0  0  0  0  0  0  0  0  0  0  0
    6.6570    2.5170   -2.2510 H   0  0  0  0  0  0  0  0  0  0  0  0
    5.2930    2.7840   -4.2900 H   0  0  0  0  0  0  0  0  0  0  0  0
    2.9640    2.0680   -4.3160 H   0  0  0  0  0  0  0  0  0  0  0  0
    1.9050    1.0620   -2.3170 H   0  0  0  0  0  0  0  0  0  0  0  0
   -6.4990   -0.4420    1.8300 N   0  0  0  0  0  0  0  0  0  0  0  0
   -5.2290    0.0470    1.3270 C   0  0  0  0  0  0  0  0  0  0  0  0
   -4.6340    0.8880    2.0250 O   0  0  0  0  0  0  0  0  0  0  0  0
   -4.7700   -0.5020    0.0320 C   0  0  0  0  0  0  0  0  0  0  0  0
   -3.3720   -0.1250   -0.2980 C   0  0  0  0  0  0  0  0  0  0  0  0
   -2.3790   -0.6220    0.7320 C   0  0  2  0  0  0  0  0  0  0  0  0
   -1.0360   -0.2020    0.3080 N   0  0  0  0  0  0  0  0  0  0  0  0
   -2.4650   -2.0230    1.0740 C   0  0  0  0  0  0  0  0  0  0  0  0
   -3.5820   -2.5050    1.5320 O   0  0  0  0  0  0  0  0  0  0  0  0
   -7.2840    0.1960    2.0590 H   0  0  0  0  0  0  0  0  0  0  0  0
   -6.5720   -1.4630    1.9460 H   0  0  0  0  0  0  0  0  0  0  0  0
   -5.4840   -0.0900   -0.7670 H   0  0  0  0  0  0  0  0  0  0  0  0
   -4.9080   -1.6010    0.0500 H   0  0  0  0  0  0  0  0  0  0  0  0
   -3.0930   -0.4500   -1.3240 H   0  0  0  0  0  0  0  0  0  0  0  0
   -3.2510    0.9850   -0.3240 H   0  0  0  0  0  0  0  0  0  0  0  0
   -2.6340   -0.0240    1.6740 H   0  0  0  0  0  0  0  0  0  0  0  0
   -0.5880   -0.5570   -0.5560 H   0  0  0  0  0  0  0  0  0  0  0  0
   -1.4620   -3.0630    0.9910 N   0  0  0  0  0  0  0  0  0  0  0  0
   -0.1260   -2.8760    0.5580 C   0  0  0  0  0  0  0  0  0  0  0  0
    0.6040   -4.1530    0.9340 C   0  0  0  0  0  0  0  0  0  0  0  0
   -0.4840   -5.2000    0.9410 C   0  0  0  0  0  0  0  0  0  0  0  0
   -1.6880   -4.4470    1.3320 C   0  0  1  0  0  0  0  0  0  0  0  0
   -2.0830   -4.6260    2.7420 C   0  0  0  0  0  0  0  0  0  0  0  0
   -2.2860   -5.7740    3.1790 O   0  0  0  0  0  0  0  0  0  0  0  0
   -2.2230   -3.5390    3.5600 O   0  0  0  0  0  0  0  0  0  0  0  0
   -0.0700   -2.8320   -0.5660 H   0  0  0  0  0  0  0  0  0  0  0  0
    0.3770   -2.0030    1.0310 H   0  0  0  0  0  0  0  0  0  0  0  0
    1.0530   -3.9880    1.9250 H   0  0  0  0  0  0  0  0  0  0  0  0
    1.3920   -4.4180    0.1840 H   0  0  0  0  0  0  0  0  0  0  0  0
   -0.1780   -5.9780    1.7040 H   0  0  0  0  0  0  0  0  0  0  0  0
   -0.5200   -5.6910   -0.0550 H   0  0  0  0  0  0  0  0  0  0  0  0
   -2.5460   -4.8520    0.7080 H   0  0  0  0  0  0  0  0  0  0  0  0
  1 16  1  0  0  0  0
  2 17  1  6  0  0  0
  2 13  1  0  0  0  0
  2  1  1  0  0  0  0
  3  2  1  0  0  0  0
  3 18  1  0  0  0  0
  4  3  1  0  0  0  0
  4  5  2  0  0  0  0
  5 20  1  0  0  0  0
  6 21  1  0  0  0  0
  6  5  1  0  0  0  0
  7  6  1  0  0  0  0
  8  7  2  0  0  0  0
  9  8  1  0  0  0  0
 10  9  2  0  0  0  0
 10 11  1  0  0  0  0
 11 25  1  0  0  0  0
 11 12  2  0  0  0  0
 12  7  1  0  0  0  0
 12  4  1  0  0  0  0
 13 14  2  0  0  0  0
 15  1  1  0  0  0  0
 19  3  1  0  0  0  0
 22  8  1  0  0  0  0
 23  9  1  0  0  0  0
 24 10  1  0  0  0  0
 26 36  1  0  0  0  0
 26 35  1  0  0  0  0
 27 26  1  0  0  0  0
 27 28  2  0  0  0  0
 29 38  1  0  0  0  0
 29 27  1  0  0  0  0
 30 29  1  0  0  0  0
 30 31  1  0  0  0  0
 31 33  1  0  0  0  0
 31 41  1  1  0  0  0
 32 31  1  0  0  0  0
 32 13  1  0  0  0  0
 33 34  2  0  0  0  0
 37 29  1  0  0  0  0
 39 30  1  0  0  0  0
 40 30  1  0  0  0  0
 42 32  1  0  0  0  0
 43 33  1  0  0  0  0
 43 47  1  0  0  0  0
 44 45  1  0  0  0  0
 44 43  1  0  0  0  0
 44 52  1  0  0  0  0
 45 46  1  0  0  0  0
 45 53  1  0  0  0  0
 46 47  1  0  0  0  0
 46 55  1  0  0  0  0
 47 57  1  6  0  0  0
 47 48  1  0  0  0  0
 48 49  2  0  0  0  0
 48 50  1  0  0  0  0
 51 44  1  0  0  0  0
 54 45  1  0  0  0  0
 56 46  1  0  0  0  0
M  END
$$$$
