WQR.pdb
 OpenBabel07022419163D

 66 67  0  0  1  0  0  0  0  0999 V2000
    2.4920   -1.2940    0.1030 N   0  0  0  0  0  0  0  0  0  0  0  0
    1.7830   -0.3850   -0.7410 C   0  0  1  0  0  0  0  0  0  0  0  0
    2.3080   -0.5900   -2.1550 C   0  0  0  0  0  0  0  0  0  0  0  0
    3.7650   -0.3020   -2.1810 C   0  0  0  0  0  0  0  0  0  0  0  0
    4.8410   -1.1570   -2.2110 C   0  0  0  0  0  0  0  0  0  0  0  0
    5.9840   -0.4380   -2.2240 N   0  0  0  0  0  0  0  0  0  0  0  0
    5.7060    0.8860   -2.2040 C   0  0  0  0  0  0  0  0  0  0  0  0
    6.4590    2.0340   -2.2060 C   0  0  0  0  0  0  0  0  0  0  0  0
    5.9120    3.2950   -2.1830 C   0  0  0  0  0  0  0  0  0  0  0  0
    4.5300    3.3860   -2.1560 C   0  0  0  0  0  0  0  0  0  0  0  0
    3.7560    2.2470   -2.1540 C   0  0  0  0  0  0  0  0  0  0  0  0
    4.3110    0.9780   -2.1770 C   0  0  0  0  0  0  0  0  0  0  0  0
    0.3160   -0.6080   -0.6720 C   0  0  0  0  0  0  0  0  0  0  0  0
   -0.1400   -1.5170    0.0410 O   0  0  0  0  0  0  0  0  0  0  0  0
    3.3370   -0.8710    0.5680 H   0  0  0  0  0  0  0  0  0  0  0  0
    2.7780   -2.1870   -0.3810 H   0  0  0  0  0  0  0  0  0  0  0  0
    2.0670    0.6560   -0.4600 H   0  0  0  0  0  0  0  0  0  0  0  0
    2.1760   -1.6670   -2.4570 H   0  0  0  0  0  0  0  0  0  0  0  0
    1.7990    0.0240   -2.9000 H   0  0  0  0  0  0  0  0  0  0  0  0
    4.7850   -2.2310   -2.2210 H   0  0  0  0  0  0  0  0  0  0  0  0
    6.9600   -0.8230   -2.2460 H   0  0  0  0  0  0  0  0  0  0  0  0
    7.5320    1.9450   -2.2270 H   0  0  0  0  0  0  0  0  0  0  0  0
    6.5130    4.2040   -2.1840 H   0  0  0  0  0  0  0  0  0  0  0  0
    4.0540    4.3560   -2.1380 H   0  0  0  0  0  0  0  0  0  0  0  0
    2.6690    2.2930   -2.1330 H   0  0  0  0  0  0  0  0  0  0  0  0
   -2.3000   -4.4910   -1.4710 N   0  0  0  0  0  0  0  0  0  0  0  0
   -2.5360   -3.0660   -1.3850 C   0  0  0  0  0  0  0  0  0  0  0  0
   -2.9910   -2.6710   -0.3090 O   0  0  0  0  0  0  0  0  0  0  0  0
   -2.2440   -2.1930   -2.5090 C   0  0  0  0  0  0  0  0  0  0  0  0
   -2.5830   -0.7720   -2.4660 C   0  0  0  0  0  0  0  0  0  0  0  0
   -2.0020    0.1190   -1.4380 C   0  0  2  0  0  0  0  0  0  0  0  0
   -0.5950    0.1930   -1.4030 N   0  0  0  0  0  0  0  0  0  0  0  0
   -2.7690    0.1990   -0.1960 C   0  0  0  0  0  0  0  0  0  0  0  0
   -4.0220    0.0900   -0.3200 O   0  0  0  0  0  0  0  0  0  0  0  0
   -1.3740   -4.9150   -1.3480 H   0  0  0  0  0  0  0  0  0  0  0  0
   -3.1540   -5.0700   -1.6730 H   0  0  0  0  0  0  0  0  0  0  0  0
   -1.1860   -2.3940   -2.8490 H   0  0  0  0  0  0  0  0  0  0  0  0
   -2.8370   -2.6420   -3.3830 H   0  0  0  0  0  0  0  0  0  0  0  0
   -3.7100   -0.6630   -2.4920 H   0  0  0  0  0  0  0  0  0  0  0  0
   -2.2780   -0.3280   -3.4740 H   0  0  0  0  0  0  0  0  0  0  0  0
   -2.2810    1.1970   -1.8840 H   0  0  0  0  0  0  0  0  0  0  0  0
   -0.1000    0.9400   -2.0000 H   0  0  0  0  0  0  0  0  0  0  0  0
   -0.0780   -3.5440    5.9880 N   0  0  0  0  0  0  0  0  0  0  0  0
   -1.4810   -3.4830    5.7950 C   0  0  0  0  0  0  0  0  0  0  0  0
   -2.2470   -4.4580    6.1530 N   0  0  0  0  0  0  0  0  0  0  0  0
   -2.0930   -2.3370    5.1960 N   0  0  0  0  0  0  0  0  0  0  0  0
   -3.4920   -2.3560    4.8260 C   0  0  0  0  0  0  0  0  0  0  0  0
   -3.8230   -1.0000    4.1910 C   0  0  0  0  0  0  0  0  0  0  0  0
   -2.9650   -0.8460    2.9900 C   0  0  0  0  0  0  0  0  0  0  0  0
   -3.1910    0.4330    2.2230 C   0  0  2  0  0  0  0  0  0  0  0  0
   -2.2630    0.3850    1.0980 N   0  0  0  0  0  0  0  0  0  0  0  0
   -3.0850    1.6600    2.9930 C   0  0  0  0  0  0  0  0  0  0  0  0
   -3.8580    1.8580    3.9620 O   0  0  0  0  0  0  0  0  0  0  0  0
   -2.1670    2.6760    2.7410 O   0  0  0  0  0  0  0  0  0  0  0  0
    0.3660   -3.4750    6.9360 H   0  0  0  0  0  0  0  0  0  0  0  0
    0.5730   -3.6600    5.1810 H   0  0  0  0  0  0  0  0  0  0  0  0
   -1.8520   -5.3190    6.5940 H   0  0  0  0  0  0  0  0  0  0  0  0
   -1.4940   -1.4970    5.0450 H   0  0  0  0  0  0  0  0  0  0  0  0
   -4.0890   -2.4580    5.7530 H   0  0  0  0  0  0  0  0  0  0  0  0
   -3.7030   -3.1420    4.0740 H   0  0  0  0  0  0  0  0  0  0  0  0
   -3.5790   -0.1860    4.9130 H   0  0  0  0  0  0  0  0  0  0  0  0
   -4.8770   -0.9390    3.8820 H   0  0  0  0  0  0  0  0  0  0  0  0
   -3.2220   -1.6710    2.2590 H   0  0  0  0  0  0  0  0  0  0  0  0
   -1.8830   -0.9500    3.1540 H   0  0  0  0  0  0  0  0  0  0  0  0
   -4.2160    0.3690    1.8180 H   0  0  0  0  0  0  0  0  0  0  0  0
   -1.2220    0.5110    1.2770 H   0  0  0  0  0  0  0  0  0  0  0  0
  1 15  1  0  0  0  0
  2 13  1  0  0  0  0
  2 17  1  1  0  0  0
  2  1  1  0  0  0  0
  3  2  1  0  0  0  0
  4 12  1  0  0  0  0
  4  3  1  0  0  0  0
  5  4  2  0  0  0  0
  6  5  1  0  0  0  0
  6  7  1  0  0  0  0
  7 12  1  0  0  0  0
  8  7  2  0  0  0  0
  8  9  1  0  0  0  0
  9 10  2  0  0  0  0
 10 11  1  0  0  0  0
 10 24  1  0  0  0  0
 11 25  1  0  0  0  0
 12 11  2  0  0  0  0
 13 14  2  0  0  0  0
 16  1  1  0  0  0  0
 18  3  1  0  0  0  0
 19  3  1  0  0  0  0
 20  5  1  0  0  0  0
 21  6  1  0  0  0  0
 22  8  1  0  0  0  0
 23  9  1  0  0  0  0
 26 27  1  0  0  0  0
 26 35  1  0  0  0  0
 27 28  2  0  0  0  0
 29 30  1  0  0  0  0
 29 27  1  0  0  0  0
 30 31  1  0  0  0  0
 31 41  1  6  0  0  0
 31 32  1  0  0  0  0
 31 33  1  0  0  0  0
 32 13  1  0  0  0  0
 33 51  1  0  0  0  0
 34 33  2  0  0  0  0
 36 26  1  0  0  0  0
 37 29  1  0  0  0  0
 38 29  1  0  0  0  0
 39 30  1  0  0  0  0
 40 30  1  0  0  0  0
 42 32  1  0  0  0  0
 43 55  1  0  0  0  0
 44 43  1  0  0  0  0
 44 45  2  0  0  0  0
 45 57  1  0  0  0  0
 46 44  1  0  0  0  0
 47 46  1  0  0  0  0
 47 59  1  0  0  0  0
 48 47  1  0  0  0  0
 48 61  1  0  0  0  0
 49 64  1  0  0  0  0
 49 48  1  0  0  0  0
 50 65  1  6  0  0  0
 50 49  1  0  0  0  0
 50 52  1  0  0  0  0
 51 66  1  0  0  0  0
 51 50  1  0  0  0  0
 52 53  1  0  0  0  0
 54 52  2  0  0  0  0
 56 43  1  0  0  0  0
 58 46  1  0  0  0  0
 60 47  1  0  0  0  0
 62 48  1  0  0  0  0
 63 49  1  0  0  0  0
M  END
$$$$
