WQT.pdb
 OpenBabel07022419173D

 57 58  0  0  1  0  0  0  0  0999 V2000
    1.6880    1.8070    0.1470 N   0  0  0  0  0  0  0  0  0  0  0  0
    1.6460    0.4500    0.6370 C   0  0  1  0  0  0  0  0  0  0  0  0
    1.8870    0.4840    2.1220 C   0  0  0  0  0  0  0  0  0  0  0  0
    3.2120    1.0850    2.4220 C   0  0  0  0  0  0  0  0  0  0  0  0
    3.5060    2.3300    2.8930 C   0  0  0  0  0  0  0  0  0  0  0  0
    4.8420    2.4130    3.0060 N   0  0  0  0  0  0  0  0  0  0  0  0
    5.4210    1.2670    2.6260 C   0  0  0  0  0  0  0  0  0  0  0  0
    6.7470    0.8350    2.5510 C   0  0  0  0  0  0  0  0  0  0  0  0
    7.0780   -0.4230    2.1160 C   0  0  0  0  0  0  0  0  0  0  0  0
    6.0410   -1.2490    1.7520 C   0  0  0  0  0  0  0  0  0  0  0  0
    4.7260   -0.8540    1.8130 C   0  0  0  0  0  0  0  0  0  0  0  0
    4.4000    0.4210    2.2550 C   0  0  0  0  0  0  0  0  0  0  0  0
    0.2830   -0.0990    0.2980 C   0  0  0  0  0  0  0  0  0  0  0  0
   -0.5310    0.6490   -0.2860 O   0  0  0  0  0  0  0  0  0  0  0  0
    0.8330    2.1240   -0.3180 H   0  0  0  0  0  0  0  0  0  0  0  0
    1.9970    2.4650    0.8850 H   0  0  0  0  0  0  0  0  0  0  0  0
    2.4230   -0.1270    0.0960 H   0  0  0  0  0  0  0  0  0  0  0  0
    1.9200   -0.5490    2.5610 H   0  0  0  0  0  0  0  0  0  0  0  0
    1.1140    1.0220    2.6680 H   0  0  0  0  0  0  0  0  0  0  0  0
    2.7690    3.0970    3.1250 H   0  0  0  0  0  0  0  0  0  0  0  0
    5.3520    3.2580    3.3440 H   0  0  0  0  0  0  0  0  0  0  0  0
    7.5430    1.5120    2.8470 H   0  0  0  0  0  0  0  0  0  0  0  0
    8.0890   -0.8000    2.0420 H   0  0  0  0  0  0  0  0  0  0  0  0
    6.2180   -2.2640    1.3950 H   0  0  0  0  0  0  0  0  0  0  0  0
    3.9100   -1.5110    1.5240 H   0  0  0  0  0  0  0  0  0  0  0  0
   -1.9330    1.0640    3.2280 N   0  0  0  0  0  0  0  0  0  0  0  0
   -1.8040   -0.2870    2.8650 C   0  0  0  0  0  0  0  0  0  0  0  0
   -0.7690   -0.9660    3.1800 O   0  0  0  0  0  0  0  0  0  0  0  0
   -2.8270   -1.0380    2.1080 C   0  0  0  0  0  0  0  0  0  0  0  0
   -2.3080   -2.2340    1.4090 C   0  0  0  0  0  0  0  0  0  0  0  0
   -1.3220   -2.0510    0.3260 C   0  0  2  0  0  0  0  0  0  0  0  0
   -0.0810   -1.4220    0.6220 N   0  0  0  0  0  0  0  0  0  0  0  0
   -1.9110   -1.6910   -1.0050 C   0  0  0  0  0  0  0  0  0  0  0  0
   -1.2990   -1.0120   -1.8600 O   0  0  0  0  0  0  0  0  0  0  0  0
   -2.1980    1.3230    4.1890 H   0  0  0  0  0  0  0  0  0  0  0  0
   -1.7640    1.8240    2.5390 H   0  0  0  0  0  0  0  0  0  0  0  0
   -3.4490   -0.3740    1.4690 H   0  0  0  0  0  0  0  0  0  0  0  0
   -3.5500   -1.4090    2.8960 H   0  0  0  0  0  0  0  0  0  0  0  0
   -1.7660   -2.8530    2.2090 H   0  0  0  0  0  0  0  0  0  0  0  0
   -3.1480   -2.9380    1.1280 H   0  0  0  0  0  0  0  0  0  0  0  0
   -0.9800   -3.1600    0.0900 H   0  0  0  0  0  0  0  0  0  0  0  0
    0.7080   -1.9580    1.1380 H   0  0  0  0  0  0  0  0  0  0  0  0
   -2.6290   -3.6490   -3.7090 C   0  0  0  0  0  0  0  0  0  0  0  0
   -3.9980   -3.0260   -3.5130 C   0  0  1  0  0  0  0  0  0  0  0  0
   -4.8380   -3.9250   -2.8770 O   0  0  0  0  0  0  0  0  0  0  0  0
   -3.8040   -1.7630   -2.6670 C   0  0  2  0  0  0  0  0  0  0  0  0
   -3.2180   -2.1030   -1.3840 N   0  0  0  0  0  0  0  0  0  0  0  0
   -5.0390   -0.9960   -2.5480 C   0  0  0  0  0  0  0  0  0  0  0  0
   -5.5100   -0.6860   -1.4300 O   0  0  0  0  0  0  0  0  0  0  0  0
   -5.7190   -0.5940   -3.6810 O   0  0  0  0  0  0  0  0  0  0  0  0
   -2.7230   -4.6060   -4.2770 H   0  0  0  0  0  0  0  0  0  0  0  0
   -1.9560   -3.0050   -4.2730 H   0  0  0  0  0  0  0  0  0  0  0  0
   -2.1720   -3.9370   -2.7330 H   0  0  0  0  0  0  0  0  0  0  0  0
   -4.3570   -2.7120   -4.5130 H   0  0  0  0  0  0  0  0  0  0  0  0
   -5.7640   -3.5330   -2.9430 H   0  0  0  0  0  0  0  0  0  0  0  0
   -3.0340   -1.1610   -3.2160 H   0  0  0  0  0  0  0  0  0  0  0  0
   -3.7860   -2.6640   -0.7400 H   0  0  0  0  0  0  0  0  0  0  0  0
  1  2  1  0  0  0  0
  1 16  1  0  0  0  0
  2 17  1  6  0  0  0
  2  3  1  0  0  0  0
  3  4  1  0  0  0  0
  3 18  1  0  0  0  0
  3 19  1  0  0  0  0
  4  5  2  0  0  0  0
  5  6  1  0  0  0  0
  5 20  1  0  0  0  0
  6 21  1  0  0  0  0
  7  6  1  0  0  0  0
  8  7  1  0  0  0  0
  8 22  1  0  0  0  0
  9  8  2  0  0  0  0
 10 11  2  0  0  0  0
 10  9  1  0  0  0  0
 11 12  1  0  0  0  0
 12  4  1  0  0  0  0
 12  7  2  0  0  0  0
 13 32  1  0  0  0  0
 13  2  1  0  0  0  0
 14 13  2  0  0  0  0
 15  1  1  0  0  0  0
 23  9  1  0  0  0  0
 24 10  1  0  0  0  0
 25 11  1  0  0  0  0
 26 35  1  0  0  0  0
 27 28  2  0  0  0  0
 27 26  1  0  0  0  0
 29 27  1  0  0  0  0
 29 38  1  0  0  0  0
 30 29  1  0  0  0  0
 30 39  1  0  0  0  0
 31 41  1  6  0  0  0
 31 32  1  0  0  0  0
 31 30  1  0  0  0  0
 32 42  1  0  0  0  0
 33 31  1  0  0  0  0
 34 33  2  0  0  0  0
 36 26  1  0  0  0  0
 37 29  1  0  0  0  0
 40 30  1  0  0  0  0
 43 44  1  0  0  0  0
 43 53  1  0  0  0  0
 44 54  1  6  0  0  0
 44 45  1  0  0  0  0
 44 46  1  0  0  0  0
 46 56  1  6  0  0  0
 46 48  1  0  0  0  0
 46 47  1  0  0  0  0
 47 33  1  0  0  0  0
 47 57  1  0  0  0  0
 48 49  1  0  0  0  0
 50 48  2  0  0  0  0
 51 43  1  0  0  0  0
 52 43  1  0  0  0  0
 55 45  1  0  0  0  0
M  END
$$$$
