WQY.pdb
 OpenBabel07022419173D

 64 66  0  0  1  0  0  0  0  0999 V2000
    0.6010   -0.2060    3.0820 N   0  0  0  0  0  0  0  0  0  0  0  0
    0.7670    1.0720    2.3690 C   0  0  1  0  0  0  0  0  0  0  0  0
    2.0650    1.6910    2.8290 C   0  0  0  0  0  0  0  0  0  0  0  0
    2.3650    2.9750    2.2040 C   0  0  0  0  0  0  0  0  0  0  0  0
    3.2690    3.2400    1.2020 C   0  0  0  0  0  0  0  0  0  0  0  0
    3.2380    4.5520    0.9140 N   0  0  0  0  0  0  0  0  0  0  0  0
    2.3260    5.1620    1.7110 C   0  0  0  0  0  0  0  0  0  0  0  0
    1.9270    6.5000    1.7980 C   0  0  0  0  0  0  0  0  0  0  0  0
    0.9640    6.8850    2.7050 C   0  0  0  0  0  0  0  0  0  0  0  0
    0.4330    5.8920    3.4990 C   0  0  0  0  0  0  0  0  0  0  0  0
    0.8090    4.5710    3.4300 C   0  0  0  0  0  0  0  0  0  0  0  0
    1.7800    4.1910    2.5150 C   0  0  0  0  0  0  0  0  0  0  0  0
    0.7170    0.8380    0.9230 C   0  0  0  0  0  0  0  0  0  0  0  0
    0.8450    1.8120    0.1400 O   0  0  0  0  0  0  0  0  0  0  0  0
    1.4360   -0.8070    2.9710 H   0  0  0  0  0  0  0  0  0  0  0  0
   -0.2850   -0.6780    2.7790 H   0  0  0  0  0  0  0  0  0  0  0  0
   -0.0450    1.7200    2.7600 H   0  0  0  0  0  0  0  0  0  0  0  0
    2.8710    0.9500    2.5920 H   0  0  0  0  0  0  0  0  0  0  0  0
    2.0920    1.8120    3.9300 H   0  0  0  0  0  0  0  0  0  0  0  0
    3.9320    2.5210    0.6900 H   0  0  0  0  0  0  0  0  0  0  0  0
    3.7930    5.0950    0.2050 H   0  0  0  0  0  0  0  0  0  0  0  0
    2.3750    7.2500    1.1510 H   0  0  0  0  0  0  0  0  0  0  0  0
    0.6440    7.9240    2.7840 H   0  0  0  0  0  0  0  0  0  0  0  0
   -0.3300    6.1910    4.2190 H   0  0  0  0  0  0  0  0  0  0  0  0
    0.3950    3.7870    4.0510 H   0  0  0  0  0  0  0  0  0  0  0  0
    1.4160   -5.1320   -0.5120 N   0  0  0  0  0  0  0  0  0  0  0  0
    1.0860   -3.8410   -1.0950 C   0  0  0  0  0  0  0  0  0  0  0  0
   -0.0400   -3.8130   -1.6380 O   0  0  0  0  0  0  0  0  0  0  0  0
    2.0140   -2.7300   -1.0210 C   0  0  0  0  0  0  0  0  0  0  0  0
    1.6640   -1.4260   -1.5920 C   0  0  0  0  0  0  0  0  0  0  0  0
    0.4770   -0.6990   -1.0660 C   0  0  2  0  0  0  0  0  0  0  0  0
    0.5290   -0.4400    0.3410 N   0  0  0  0  0  0  0  0  0  0  0  0
   -0.8380   -1.0810   -1.6000 C   0  0  0  0  0  0  0  0  0  0  0  0
   -1.0300   -1.2950   -2.8240 O   0  0  0  0  0  0  0  0  0  0  0  0
    1.7610   -5.9140   -1.0930 H   0  0  0  0  0  0  0  0  0  0  0  0
    1.2900   -5.2280    0.4950 H   0  0  0  0  0  0  0  0  0  0  0  0
    2.3050   -2.5800    0.0530 H   0  0  0  0  0  0  0  0  0  0  0  0
    2.9600   -3.0740   -1.5580 H   0  0  0  0  0  0  0  0  0  0  0  0
    2.5810   -0.7720   -1.6250 H   0  0  0  0  0  0  0  0  0  0  0  0
    1.4520   -1.5810   -2.7040 H   0  0  0  0  0  0  0  0  0  0  0  0
    0.6310    0.3770   -1.5190 H   0  0  0  0  0  0  0  0  0  0  0  0
    0.4150   -1.2960    0.9660 H   0  0  0  0  0  0  0  0  0  0  0  0
   -1.0610   -7.5410   -0.0480 O   0  0  0  0  0  0  0  0  0  0  0  0
   -1.7700   -6.3610   -0.1760 C   0  0  0  0  0  0  0  0  0  0  0  0
   -1.6020   -5.3440    0.7610 C   0  0  0  0  0  0  0  0  0  0  0  0
   -2.2890   -4.1540    0.6700 C   0  0  0  0  0  0  0  0  0  0  0  0
   -3.1830   -3.9280   -0.3740 C   0  0  0  0  0  0  0  0  0  0  0  0
   -3.9290   -2.6620   -0.4730 C   0  0  0  0  0  0  0  0  0  0  0  0
   -3.2750   -1.5960   -1.2670 C   0  0  2  0  0  0  0  0  0  0  0  0
   -1.9810   -1.2230   -0.7280 N   0  0  0  0  0  0  0  0  0  0  0  0
   -4.1360   -0.3760   -1.3830 C   0  0  0  0  0  0  0  0  0  0  0  0
   -3.6700    0.7280   -1.0280 O   0  0  0  0  0  0  0  0  0  0  0  0
   -3.3460   -4.9420   -1.3010 C   0  0  0  0  0  0  0  0  0  0  0  0
   -2.6570   -6.1280   -1.2050 C   0  0  0  0  0  0  0  0  0  0  0  0
   -5.4300   -0.4250   -1.8670 O   0  0  0  0  0  0  0  0  0  0  0  0
   -0.0510   -7.5970   -0.0170 H   0  0  0  0  0  0  0  0  0  0  0  0
   -0.8960   -5.5490    1.5660 H   0  0  0  0  0  0  0  0  0  0  0  0
   -2.1430   -3.3740    1.4100 H   0  0  0  0  0  0  0  0  0  0  0  0
   -4.2080   -2.3250    0.5570 H   0  0  0  0  0  0  0  0  0  0  0  0
   -4.9030   -2.9090   -0.9870 H   0  0  0  0  0  0  0  0  0  0  0  0
   -3.1340   -1.9390   -2.3130 H   0  0  0  0  0  0  0  0  0  0  0  0
   -1.7990   -1.0420    0.2790 H   0  0  0  0  0  0  0  0  0  0  0  0
   -4.0390   -4.7780   -2.1180 H   0  0  0  0  0  0  0  0  0  0  0  0
   -2.7860   -6.9280   -1.9370 H   0  0  0  0  0  0  0  0  0  0  0  0
  2 17  1  1  0  0  0
  2  3  1  0  0  0  0
  2  1  1  0  0  0  0
  3 19  1  0  0  0  0
  4 12  1  0  0  0  0
  4  3  1  0  0  0  0
  5  4  2  0  0  0  0
  6  5  1  0  0  0  0
  6  7  1  0  0  0  0
  7  8  2  0  0  0  0
  7 12  1  0  0  0  0
  8  9  1  0  0  0  0
  9 23  1  0  0  0  0
  9 10  2  0  0  0  0
 10 24  1  0  0  0  0
 11 10  1  0  0  0  0
 11 25  1  0  0  0  0
 12 11  2  0  0  0  0
 13  2  1  0  0  0  0
 14 13  2  0  0  0  0
 15  1  1  0  0  0  0
 16  1  1  0  0  0  0
 18  3  1  0  0  0  0
 20  5  1  0  0  0  0
 21  6  1  0  0  0  0
 22  8  1  0  0  0  0
 26 36  1  0  0  0  0
 27 29  1  0  0  0  0
 27 26  1  0  0  0  0
 28 27  2  0  0  0  0
 29 37  1  0  0  0  0
 30 31  1  0  0  0  0
 30 29  1  0  0  0  0
 31 41  1  6  0  0  0
 31 32  1  0  0  0  0
 32 13  1  0  0  0  0
 32 42  1  0  0  0  0
 33 31  1  0  0  0  0
 33 50  1  0  0  0  0
 34 33  2  0  0  0  0
 35 26  1  0  0  0  0
 38 29  1  0  0  0  0
 39 30  1  0  0  0  0
 40 30  1  0  0  0  0
 43 56  1  0  0  0  0
 44 43  1  0  0  0  0
 44 45  1  0  0  0  0
 45 57  1  0  0  0  0
 46 45  2  0  0  0  0
 46 58  1  0  0  0  0
 47 46  1  0  0  0  0
 48 47  1  0  0  0  0
 48 59  1  0  0  0  0
 49 61  1  6  0  0  0
 49 50  1  0  0  0  0
 49 48  1  0  0  0  0
 50 62  1  0  0  0  0
 51 49  1  0  0  0  0
 51 52  1  0  0  0  0
 53 54  1  0  0  0  0
 53 47  2  0  0  0  0
 54 44  2  0  0  0  0
 55 51  2  0  0  0  0
 60 48  1  0  0  0  0
 63 53  1  0  0  0  0
 64 54  1  0  0  0  0
M  END
$$$$
