WRA.pdb
 OpenBabel07022419153D

 59 60  0  0  1  0  0  0  0  0999 V2000
    1.7170    1.2380    3.0600 N   0  0  0  0  0  0  0  0  0  0  0  0
    1.1460    0.6200    1.8700 C   0  0  1  0  0  0  0  0  0  0  0  0
    2.2170   -0.0850    1.0610 C   0  0  0  0  0  0  0  0  0  0  0  0
    3.2400    0.8760    0.6390 C   0  0  0  0  0  0  0  0  0  0  0  0
    4.5090    1.0630    1.1860 C   0  0  0  0  0  0  0  0  0  0  0  0
    5.1320    2.0540    0.5090 N   0  0  0  0  0  0  0  0  0  0  0  0
    4.3270    2.5260   -0.4590 C   0  0  0  0  0  0  0  0  0  0  0  0
    4.4990    3.5140   -1.4020 C   0  0  0  0  0  0  0  0  0  0  0  0
    3.4720    3.7700   -2.2790 C   0  0  0  0  0  0  0  0  0  0  0  0
    2.2960    3.0400   -2.2010 C   0  0  0  0  0  0  0  0  0  0  0  0
    2.1120    2.0500   -1.2620 C   0  0  0  0  0  0  0  0  0  0  0  0
    3.1520    1.7970   -0.3810 C   0  0  0  0  0  0  0  0  0  0  0  0
    0.1830   -0.4270    2.3110 C   0  0  0  0  0  0  0  0  0  0  0  0
   -0.0130   -0.7340    3.5040 O   0  0  0  0  0  0  0  0  0  0  0  0
    2.2840    2.0850    2.8320 H   0  0  0  0  0  0  0  0  0  0  0  0
    0.9450    1.5560    3.6860 H   0  0  0  0  0  0  0  0  0  0  0  0
    0.6690    1.4210    1.2780 H   0  0  0  0  0  0  0  0  0  0  0  0
    2.6870   -0.8570    1.7060 H   0  0  0  0  0  0  0  0  0  0  0  0
    1.7280   -0.5880    0.2210 H   0  0  0  0  0  0  0  0  0  0  0  0
    4.8610    0.4700    2.0170 H   0  0  0  0  0  0  0  0  0  0  0  0
    6.1060    2.3720    0.7480 H   0  0  0  0  0  0  0  0  0  0  0  0
    5.4040    4.0980   -1.4850 H   0  0  0  0  0  0  0  0  0  0  0  0
    3.5580    4.5500   -3.0510 H   0  0  0  0  0  0  0  0  0  0  0  0
    1.4680    3.2190   -2.8800 H   0  0  0  0  0  0  0  0  0  0  0  0
    1.1760    1.4980   -1.2330 H   0  0  0  0  0  0  0  0  0  0  0  0
   -5.3410    1.0400    2.1990 N   0  0  0  0  0  0  0  0  0  0  0  0
   -5.5450   -0.1330    1.4410 C   0  0  0  0  0  0  0  0  0  0  0  0
   -6.0860   -1.1750    1.9800 N   0  0  0  0  0  0  0  0  0  0  0  0
   -5.1840   -0.2530    0.0650 N   0  0  0  0  0  0  0  0  0  0  0  0
   -4.5520   -1.3960   -0.4930 C   0  0  0  0  0  0  0  0  0  0  0  0
   -3.1430   -1.6570   -0.1140 C   0  0  0  0  0  0  0  0  0  0  0  0
   -2.9260   -1.8490    1.3590 C   0  0  0  0  0  0  0  0  0  0  0  0
   -1.4960   -2.1320    1.7050 C   0  0  2  0  0  0  0  0  0  0  0  0
   -0.5650   -1.1270    1.3420 N   0  0  0  0  0  0  0  0  0  0  0  0
   -1.1300   -3.4050    1.0460 C   0  0  0  0  0  0  0  0  0  0  0  0
   -1.8460   -4.4110    1.2500 O   0  0  0  0  0  0  0  0  0  0  0  0
   -4.5030    1.1380    2.8110 H   0  0  0  0  0  0  0  0  0  0  0  0
   -6.0120    1.8290    2.1680 H   0  0  0  0  0  0  0  0  0  0  0  0
   -6.3700   -1.1430    2.9790 H   0  0  0  0  0  0  0  0  0  0  0  0
   -5.4110    0.5860   -0.5410 H   0  0  0  0  0  0  0  0  0  0  0  0
   -4.5770   -1.2890   -1.6180 H   0  0  0  0  0  0  0  0  0  0  0  0
   -5.1450   -2.3230   -0.2990 H   0  0  0  0  0  0  0  0  0  0  0  0
   -2.8670   -2.6430   -0.6000 H   0  0  0  0  0  0  0  0  0  0  0  0
   -2.4170   -0.9470   -0.5670 H   0  0  0  0  0  0  0  0  0  0  0  0
   -3.5130   -2.7350    1.6650 H   0  0  0  0  0  0  0  0  0  0  0  0
   -3.3400   -1.0070    1.9740 H   0  0  0  0  0  0  0  0  0  0  0  0
   -1.4610   -2.2930    2.8010 H   0  0  0  0  0  0  0  0  0  0  0  0
   -0.4620   -0.9300    0.3000 H   0  0  0  0  0  0  0  0  0  0  0  0
    0.2830   -4.6630   -1.9560 C   0  0  0  0  0  0  0  0  0  0  0  0
    0.3420   -4.7710   -0.4450 C   0  0  2  0  0  0  0  0  0  0  0  0
   -0.0080   -3.5300    0.1980 N   0  0  0  0  0  0  0  0  0  0  0  0
    1.6530   -5.2870    0.0090 C   0  0  0  0  0  0  0  0  0  0  0  0
    2.3090   -4.6540    0.8650 O   0  0  0  0  0  0  0  0  0  0  0  0
    2.1770   -6.4630   -0.4920 O   0  0  0  0  0  0  0  0  0  0  0  0
    0.8980   -5.5010   -2.3620 H   0  0  0  0  0  0  0  0  0  0  0  0
    0.7260   -3.7210   -2.3300 H   0  0  0  0  0  0  0  0  0  0  0  0
   -0.7510   -4.8330   -2.2760 H   0  0  0  0  0  0  0  0  0  0  0  0
   -0.4200   -5.5560   -0.1630 H   0  0  0  0  0  0  0  0  0  0  0  0
    0.5800   -2.6860    0.0390 H   0  0  0  0  0  0  0  0  0  0  0  0
  1 16  1  0  0  0  0
  2 17  1  6  0  0  0
  2 13  1  0  0  0  0
  2  1  1  0  0  0  0
  3 18  1  0  0  0  0
  3  2  1  0  0  0  0
  4  3  1  0  0  0  0
  4  5  2  0  0  0  0
  5 20  1  0  0  0  0
  6 21  1  0  0  0  0
  6  5  1  0  0  0  0
  7 12  1  0  0  0  0
  7  6  1  0  0  0  0
  8  7  2  0  0  0  0
  9 10  2  0  0  0  0
  9  8  1  0  0  0  0
 10 11  1  0  0  0  0
 11 25  1  0  0  0  0
 11 12  2  0  0  0  0
 12  4  1  0  0  0  0
 13 14  2  0  0  0  0
 15  1  1  0  0  0  0
 19  3  1  0  0  0  0
 22  8  1  0  0  0  0
 23  9  1  0  0  0  0
 24 10  1  0  0  0  0
 26 37  1  0  0  0  0
 27 28  2  0  0  0  0
 27 26  1  0  0  0  0
 28 39  1  0  0  0  0
 29 27  1  0  0  0  0
 30 42  1  0  0  0  0
 30 31  1  0  0  0  0
 30 29  1  0  0  0  0
 31 32  1  0  0  0  0
 32 45  1  0  0  0  0
 32 33  1  0  0  0  0
 32 46  1  0  0  0  0
 33 47  1  1  0  0  0
 34 33  1  0  0  0  0
 34 13  1  0  0  0  0
 35 36  2  0  0  0  0
 35 33  1  0  0  0  0
 38 26  1  0  0  0  0
 40 29  1  0  0  0  0
 41 30  1  0  0  0  0
 43 31  1  0  0  0  0
 44 31  1  0  0  0  0
 48 34  1  0  0  0  0
 49 50  1  0  0  0  0
 50 58  1  1  0  0  0
 50 52  1  0  0  0  0
 50 51  1  0  0  0  0
 51 35  1  0  0  0  0
 52 53  1  0  0  0  0
 54 52  2  0  0  0  0
 55 49  1  0  0  0  0
 56 49  1  0  0  0  0
 57 49  1  0  0  0  0
 59 51  1  0  0  0  0
M  END
$$$$
