WRC.pdb
 OpenBabel07022419153D

 60 61  0  0  1  0  0  0  0  0999 V2000
    1.5870   -1.6140    2.6000 N   0  0  0  0  0  0  0  0  0  0  0  0
    0.4850   -0.8540    3.0590 C   0  0  1  0  0  0  0  0  0  0  0  0
    0.7650    0.4890    3.6300 C   0  0  0  0  0  0  0  0  0  0  0  0
    1.4220    1.4450    2.7250 C   0  0  0  0  0  0  0  0  0  0  0  0
    0.8200    2.4830    2.0010 C   0  0  0  0  0  0  0  0  0  0  0  0
    1.7730    3.0980    1.2900 N   0  0  0  0  0  0  0  0  0  0  0  0
    2.9790    2.5080    1.5170 C   0  0  0  0  0  0  0  0  0  0  0  0
    4.2520    2.7840    1.0220 C   0  0  0  0  0  0  0  0  0  0  0  0
    5.3440    2.0400    1.4050 C   0  0  0  0  0  0  0  0  0  0  0  0
    5.1180    1.0160    2.2990 C   0  0  0  0  0  0  0  0  0  0  0  0
    3.8690    0.7270    2.7990 C   0  0  0  0  0  0  0  0  0  0  0  0
    2.7750    1.4800    2.4070 C   0  0  0  0  0  0  0  0  0  0  0  0
   -0.5570   -0.7960    1.9730 C   0  0  0  0  0  0  0  0  0  0  0  0
   -1.6330   -0.1630    2.1330 O   0  0  0  0  0  0  0  0  0  0  0  0
    2.0720   -1.2880    1.7620 H   0  0  0  0  0  0  0  0  0  0  0  0
    1.5240   -2.6310    2.7230 H   0  0  0  0  0  0  0  0  0  0  0  0
   -0.0030   -1.4540    3.8830 H   0  0  0  0  0  0  0  0  0  0  0  0
   -0.2420    0.9340    3.8870 H   0  0  0  0  0  0  0  0  0  0  0  0
    1.3050    0.4630    4.5880 H   0  0  0  0  0  0  0  0  0  0  0  0
   -0.2400    2.6950    2.0540 H   0  0  0  0  0  0  0  0  0  0  0  0
    1.6440    3.9220    0.6390 H   0  0  0  0  0  0  0  0  0  0  0  0
    4.3470    3.6060    0.3220 H   0  0  0  0  0  0  0  0  0  0  0  0
    6.3440    2.2640    1.0100 H   0  0  0  0  0  0  0  0  0  0  0  0
    5.9810    0.4220    2.6080 H   0  0  0  0  0  0  0  0  0  0  0  0
    3.6820   -0.0690    3.5040 H   0  0  0  0  0  0  0  0  0  0  0  0
   -2.9630    3.5080   -1.1450 N   0  0  0  0  0  0  0  0  0  0  0  0
   -3.1900    2.4510   -2.0650 C   0  0  0  0  0  0  0  0  0  0  0  0
   -4.2820    2.4010   -2.7370 N   0  0  0  0  0  0  0  0  0  0  0  0
   -2.2300    1.4250   -2.2700 N   0  0  0  0  0  0  0  0  0  0  0  0
   -2.6130    0.0760   -2.6480 C   0  0  0  0  0  0  0  0  0  0  0  0
   -1.3710   -0.7610   -2.7910 C   0  0  0  0  0  0  0  0  0  0  0  0
   -0.5610   -0.8540   -1.5410 C   0  0  0  0  0  0  0  0  0  0  0  0
   -1.2890   -1.4580   -0.3670 C   0  0  2  0  0  0  0  0  0  0  0  0
   -0.3400   -1.4600    0.7400 N   0  0  0  0  0  0  0  0  0  0  0  0
   -1.7510   -2.8340   -0.6750 C   0  0  0  0  0  0  0  0  0  0  0  0
   -2.5710   -3.0890   -1.5880 O   0  0  0  0  0  0  0  0  0  0  0  0
   -2.9300    4.5150   -1.4190 H   0  0  0  0  0  0  0  0  0  0  0  0
   -2.8120    3.3180   -0.1100 H   0  0  0  0  0  0  0  0  0  0  0  0
   -5.0070    3.1330   -2.6140 H   0  0  0  0  0  0  0  0  0  0  0  0
   -1.2140    1.7060   -2.1280 H   0  0  0  0  0  0  0  0  0  0  0  0
   -3.1460    0.0880   -3.6070 H   0  0  0  0  0  0  0  0  0  0  0  0
   -3.3100   -0.3030   -1.8760 H   0  0  0  0  0  0  0  0  0  0  0  0
   -1.5610   -1.7540   -3.2110 H   0  0  0  0  0  0  0  0  0  0  0  0
   -0.7260   -0.2160   -3.5410 H   0  0  0  0  0  0  0  0  0  0  0  0
    0.2860   -1.5640   -1.7680 H   0  0  0  0  0  0  0  0  0  0  0  0
   -0.1080    0.1070   -1.2640 H   0  0  0  0  0  0  0  0  0  0  0  0
   -2.1920   -0.8660   -0.1260 H   0  0  0  0  0  0  0  0  0  0  0  0
    0.5480   -1.9830    0.6110 H   0  0  0  0  0  0  0  0  0  0  0  0
   -1.2490   -3.9170    0.0910 N   0  0  0  0  0  0  0  0  0  0  0  0
   -1.6280   -5.2820   -0.1220 C   0  0  1  0  0  0  0  0  0  0  0  0
   -0.4560   -6.1470   -0.5450 C   0  0  0  0  0  0  0  0  0  0  0  0
    0.8450   -6.1410    0.7250 S   0  0  0  0  0  0  0  0  0  0  0  0
   -2.2870   -5.8790    1.0650 C   0  0  0  0  0  0  0  0  0  0  0  0
   -2.4660   -5.2080    2.1210 O   0  0  0  0  0  0  0  0  0  0  0  0
   -2.7340   -7.1910    1.0720 O   0  0  0  0  0  0  0  0  0  0  0  0
   -0.5690   -3.6980    0.8490 H   0  0  0  0  0  0  0  0  0  0  0  0
   -2.3560   -5.3130   -0.9670 H   0  0  0  0  0  0  0  0  0  0  0  0
   -0.0580   -5.8480   -1.5230 H   0  0  0  0  0  0  0  0  0  0  0  0
   -0.8220   -7.1950   -0.6190 H   0  0  0  0  0  0  0  0  0  0  0  0
    1.6560   -7.2850    0.6310 H   0  0  0  0  0  0  0  0  0  0  0  0
  1 16  1  0  0  0  0
  1  2  1  0  0  0  0
  2  3  1  0  0  0  0
  2 17  1  1  0  0  0
  3 18  1  0  0  0  0
  3 19  1  0  0  0  0
  4  3  1  0  0  0  0
  5 20  1  0  0  0  0
  5  4  2  0  0  0  0
  6  7  1  0  0  0  0
  6  5  1  0  0  0  0
  7 12  1  0  0  0  0
  8  9  1  0  0  0  0
  8  7  2  0  0  0  0
  9 10  2  0  0  0  0
 10 24  1  0  0  0  0
 10 11  1  0  0  0  0
 11 25  1  0  0  0  0
 12  4  1  0  0  0  0
 12 11  2  0  0  0  0
 13 14  2  0  0  0  0
 13  2  1  0  0  0  0
 15  1  1  0  0  0  0
 21  6  1  0  0  0  0
 22  8  1  0  0  0  0
 23  9  1  0  0  0  0
 26 38  1  0  0  0  0
 27 26  1  0  0  0  0
 28 39  1  0  0  0  0
 28 27  2  0  0  0  0
 29 40  1  0  0  0  0
 29 27  1  0  0  0  0
 30 29  1  0  0  0  0
 30 42  1  0  0  0  0
 31 30  1  0  0  0  0
 31 32  1  0  0  0  0
 32 46  1  0  0  0  0
 32 33  1  0  0  0  0
 33 47  1  1  0  0  0
 33 34  1  0  0  0  0
 34 13  1  0  0  0  0
 35 33  1  0  0  0  0
 35 49  1  0  0  0  0
 36 35  2  0  0  0  0
 37 26  1  0  0  0  0
 41 30  1  0  0  0  0
 43 31  1  0  0  0  0
 44 31  1  0  0  0  0
 45 32  1  0  0  0  0
 48 34  1  0  0  0  0
 49 56  1  0  0  0  0
 50 57  1  6  0  0  0
 50 49  1  0  0  0  0
 50 53  1  0  0  0  0
 51 50  1  0  0  0  0
 51 52  1  0  0  0  0
 53 55  2  0  0  0  0
 53 54  1  0  0  0  0
 58 51  1  0  0  0  0
 59 51  1  0  0  0  0
 60 52  1  0  0  0  0
M  END
$$$$
