WRD.pdb
 OpenBabel07022419153D

 62 63  0  0  1  0  0  0  0  0999 V2000
    1.4180   -3.0020    3.4720 N   0  0  0  0  0  0  0  0  0  0  0  0
    1.7040   -1.6020    3.7670 C   0  0  1  0  0  0  0  0  0  0  0  0
    3.1730   -1.3870    3.7390 C   0  0  0  0  0  0  0  0  0  0  0  0
    3.8560   -1.7140    2.4790 C   0  0  0  0  0  0  0  0  0  0  0  0
    4.4940   -2.9400    2.2220 C   0  0  0  0  0  0  0  0  0  0  0  0
    4.9830   -2.9230    0.9800 N   0  0  0  0  0  0  0  0  0  0  0  0
    4.7080   -1.7520    0.3870 C   0  0  0  0  0  0  0  0  0  0  0  0
    4.9830   -1.2280   -0.8510 C   0  0  0  0  0  0  0  0  0  0  0  0
    4.5990    0.0360   -1.2380 C   0  0  0  0  0  0  0  0  0  0  0  0
    3.9060    0.7870   -0.3190 C   0  0  0  0  0  0  0  0  0  0  0  0
    3.6230    0.2590    0.9410 C   0  0  0  0  0  0  0  0  0  0  0  0
    4.0060   -1.0000    1.3250 C   0  0  0  0  0  0  0  0  0  0  0  0
    0.9470   -0.6550    2.9400 C   0  0  0  0  0  0  0  0  0  0  0  0
    1.0000    0.5950    3.2160 O   0  0  0  0  0  0  0  0  0  0  0  0
    1.6510   -3.2340    2.4930 H   0  0  0  0  0  0  0  0  0  0  0  0
    0.4870   -3.3110    3.7910 H   0  0  0  0  0  0  0  0  0  0  0  0
    1.3100   -1.4880    4.8380 H   0  0  0  0  0  0  0  0  0  0  0  0
    3.4190   -0.3400    4.0820 H   0  0  0  0  0  0  0  0  0  0  0  0
    3.6040   -2.0290    4.5700 H   0  0  0  0  0  0  0  0  0  0  0  0
    4.5730   -3.7500    2.9140 H   0  0  0  0  0  0  0  0  0  0  0  0
    5.5130   -3.6880    0.4870 H   0  0  0  0  0  0  0  0  0  0  0  0
    5.5300   -1.8490   -1.5470 H   0  0  0  0  0  0  0  0  0  0  0  0
    4.8460    0.3930   -2.2310 H   0  0  0  0  0  0  0  0  0  0  0  0
    3.5830    1.7850   -0.5770 H   0  0  0  0  0  0  0  0  0  0  0  0
    3.0990    0.8540    1.6470 H   0  0  0  0  0  0  0  0  0  0  0  0
   -1.5980   -2.9340   -3.2610 N   0  0  0  0  0  0  0  0  0  0  0  0
   -1.3010   -1.5460   -3.4410 C   0  0  0  0  0  0  0  0  0  0  0  0
   -2.1750   -0.7690   -3.9620 N   0  0  0  0  0  0  0  0  0  0  0  0
   -0.0250   -1.0640   -3.0330 N   0  0  0  0  0  0  0  0  0  0  0  0
    0.1330    0.3220   -2.7100 C   0  0  0  0  0  0  0  0  0  0  0  0
   -0.6380    0.6670   -1.4160 C   0  0  0  0  0  0  0  0  0  0  0  0
   -0.0620   -0.1840   -0.3470 C   0  0  0  0  0  0  0  0  0  0  0  0
   -0.6100   -0.0280    1.0280 C   0  0  2  0  0  0  0  0  0  0  0  0
    0.1480   -0.9980    1.8460 N   0  0  0  0  0  0  0  0  0  0  0  0
   -2.0530   -0.2550    1.1820 C   0  0  0  0  0  0  0  0  0  0  0  0
   -2.4440   -1.2880    1.8200 O   0  0  0  0  0  0  0  0  0  0  0  0
   -1.0120   -3.5560   -2.6640 H   0  0  0  0  0  0  0  0  0  0  0  0
   -2.4340   -3.3680   -3.7370 H   0  0  0  0  0  0  0  0  0  0  0  0
   -3.0960   -1.1480   -4.2500 H   0  0  0  0  0  0  0  0  0  0  0  0
    0.7730   -1.7320   -2.9770 H   0  0  0  0  0  0  0  0  0  0  0  0
    1.2020    0.5860   -2.5840 H   0  0  0  0  0  0  0  0  0  0  0  0
   -0.2350    0.9360   -3.5570 H   0  0  0  0  0  0  0  0  0  0  0  0
   -0.5150    1.7490   -1.2480 H   0  0  0  0  0  0  0  0  0  0  0  0
   -1.7220    0.4810   -1.6010 H   0  0  0  0  0  0  0  0  0  0  0  0
   -0.0840   -1.2790   -0.6400 H   0  0  0  0  0  0  0  0  0  0  0  0
    1.0490    0.0240   -0.3150 H   0  0  0  0  0  0  0  0  0  0  0  0
   -0.3230    0.9650    1.4240 H   0  0  0  0  0  0  0  0  0  0  0  0
    0.0570   -1.9870    1.5600 H   0  0  0  0  0  0  0  0  0  0  0  0
   -3.0950    0.5680    0.6950 N   0  0  0  0  0  0  0  0  0  0  0  0
   -4.4950    0.2350    0.9130 C   0  0  1  0  0  0  0  0  0  0  0  0
   -5.1850    1.2580    1.7610 C   0  0  0  0  0  0  0  0  0  0  0  0
   -6.5890    0.8810    1.9600 C   0  0  0  0  0  0  0  0  0  0  0  0
   -7.4760    1.2980    1.1910 O   0  0  0  0  0  0  0  0  0  0  0  0
   -5.1840    0.0860   -0.3820 C   0  0  0  0  0  0  0  0  0  0  0  0
   -6.3680   -0.2320   -0.5660 O   0  0  0  0  0  0  0  0  0  0  0  0
   -6.9400    0.0570    3.0090 O   0  0  0  0  0  0  0  0  0  0  0  0
   -4.4460    0.3240   -1.5570 O   0  0  0  0  0  0  0  0  0  0  0  0
   -2.8550    1.4380    0.1800 H   0  0  0  0  0  0  0  0  0  0  0  0
   -4.5950   -0.7360    1.4560 H   0  0  0  0  0  0  0  0  0  0  0  0
   -4.7110    1.2870    2.7730 H   0  0  0  0  0  0  0  0  0  0  0  0
   -5.0740    2.2920    1.3670 H   0  0  0  0  0  0  0  0  0  0  0  0
   -7.8150   -0.4580    3.0490 H   0  0  0  0  0  0  0  0  0  0  0  0
  1  2  1  0  0  0  0
  1 16  1  0  0  0  0
  2 17  1  1  0  0  0
  3  2  1  0  0  0  0
  3 18  1  0  0  0  0
  3 19  1  0  0  0  0
  4  3  1  0  0  0  0
  5  4  2  0  0  0  0
  5 20  1  0  0  0  0
  6  5  1  0  0  0  0
  7  6  1  0  0  0  0
  7 12  1  0  0  0  0
  8  7  2  0  0  0  0
  9  8  1  0  0  0  0
  9 10  2  0  0  0  0
 10 11  1  0  0  0  0
 11 12  2  0  0  0  0
 11 25  1  0  0  0  0
 12  4  1  0  0  0  0
 13 14  2  0  0  0  0
 13  2  1  0  0  0  0
 15  1  1  0  0  0  0
 21  6  1  0  0  0  0
 22  8  1  0  0  0  0
 23  9  1  0  0  0  0
 24 10  1  0  0  0  0
 26 37  1  0  0  0  0
 27 26  1  0  0  0  0
 27 29  1  0  0  0  0
 28 27  2  0  0  0  0
 29 40  1  0  0  0  0
 29 30  1  0  0  0  0
 30 41  1  0  0  0  0
 30 31  1  0  0  0  0
 31 43  1  0  0  0  0
 31 32  1  0  0  0  0
 32 46  1  0  0  0  0
 32 33  1  0  0  0  0
 33 35  1  0  0  0  0
 33 47  1  1  0  0  0
 33 34  1  0  0  0  0
 34 13  1  0  0  0  0
 35 36  2  0  0  0  0
 38 26  1  0  0  0  0
 39 28  1  0  0  0  0
 42 30  1  0  0  0  0
 44 31  1  0  0  0  0
 45 32  1  0  0  0  0
 48 34  1  0  0  0  0
 49 50  1  0  0  0  0
 49 35  1  0  0  0  0
 50 59  1  1  0  0  0
 50 51  1  0  0  0  0
 51 52  1  0  0  0  0
 51 60  1  0  0  0  0
 52 56  1  0  0  0  0
 53 52  2  0  0  0  0
 54 50  1  0  0  0  0
 55 54  1  0  0  0  0
 56 62  1  0  0  0  0
 57 54  2  0  0  0  0
 58 49  1  0  0  0  0
 61 51  1  0  0  0  0
M  END
$$$$
