WRE.pdb
 OpenBabel07022419153D

 65 66  0  0  1  0  0  0  0  0999 V2000
    1.9990   -0.5020    4.3120 N   0  0  0  0  0  0  0  0  0  0  0  0
    1.4620   -0.0820    3.0060 C   0  0  1  0  0  0  0  0  0  0  0  0
    2.5750   -0.2950    1.9990 C   0  0  0  0  0  0  0  0  0  0  0  0
    3.7740    0.5010    2.3280 C   0  0  0  0  0  0  0  0  0  0  0  0
    4.9690    0.0820    2.9010 C   0  0  0  0  0  0  0  0  0  0  0  0
    5.7800    1.1470    3.0200 N   0  0  0  0  0  0  0  0  0  0  0  0
    5.1590    2.2500    2.5450 C   0  0  0  0  0  0  0  0  0  0  0  0
    5.5150    3.5790    2.4230 C   0  0  0  0  0  0  0  0  0  0  0  0
    4.6700    4.5250    1.8870 C   0  0  0  0  0  0  0  0  0  0  0  0
    3.4180    4.1510    1.4490 C   0  0  0  0  0  0  0  0  0  0  0  0
    3.0670    2.8270    1.5710 C   0  0  0  0  0  0  0  0  0  0  0  0
    3.9110    1.8540    2.1130 C   0  0  0  0  0  0  0  0  0  0  0  0
    0.3050   -0.9740    2.7250 C   0  0  0  0  0  0  0  0  0  0  0  0
   -0.0390   -1.9090    3.5030 O   0  0  0  0  0  0  0  0  0  0  0  0
    2.4600   -1.4370    4.1070 H   0  0  0  0  0  0  0  0  0  0  0  0
    1.1790   -0.7440    4.9070 H   0  0  0  0  0  0  0  0  0  0  0  0
    1.1540    0.9810    3.0540 H   0  0  0  0  0  0  0  0  0  0  0  0
    2.8630   -1.3770    2.0510 H   0  0  0  0  0  0  0  0  0  0  0  0
    2.2890   -0.0910    0.9680 H   0  0  0  0  0  0  0  0  0  0  0  0
    5.2100   -0.9400    3.2040 H   0  0  0  0  0  0  0  0  0  0  0  0
    6.7500    1.1790    3.4120 H   0  0  0  0  0  0  0  0  0  0  0  0
    6.5100    3.8530    2.7770 H   0  0  0  0  0  0  0  0  0  0  0  0
    5.0320    5.5480    1.8300 H   0  0  0  0  0  0  0  0  0  0  0  0
    2.7580    4.8990    1.0280 H   0  0  0  0  0  0  0  0  0  0  0  0
    2.0970    2.4930    1.2400 H   0  0  0  0  0  0  0  0  0  0  0  0
   -8.0720   -2.4930    0.8270 N   0  0  0  0  0  0  0  0  0  0  0  0
   -6.8560   -2.1240    1.4690 C   0  0  0  0  0  0  0  0  0  0  0  0
   -6.7780   -1.0370    2.1950 N   0  0  0  0  0  0  0  0  0  0  0  0
   -5.6730   -2.9060    1.3600 N   0  0  0  0  0  0  0  0  0  0  0  0
   -4.4070   -2.3000    1.7260 C   0  0  0  0  0  0  0  0  0  0  0  0
   -4.0520   -1.2100    0.7230 C   0  0  0  0  0  0  0  0  0  0  0  0
   -2.7470   -0.5990    1.1180 C   0  0  0  0  0  0  0  0  0  0  0  0
   -1.5950   -1.5720    1.1520 C   0  0  2  0  0  0  0  0  0  0  0  0
   -0.4330   -0.7680    1.5530 N   0  0  0  0  0  0  0  0  0  0  0  0
   -1.3390   -2.1820   -0.1730 C   0  0  0  0  0  0  0  0  0  0  0  0
   -2.1930   -2.9430   -0.6900 O   0  0  0  0  0  0  0  0  0  0  0  0
   -8.0840   -2.8900   -0.1350 H   0  0  0  0  0  0  0  0  0  0  0  0
   -8.9730   -2.3670    1.3200 H   0  0  0  0  0  0  0  0  0  0  0  0
   -7.6530   -0.4520    2.2800 H   0  0  0  0  0  0  0  0  0  0  0  0
   -5.7170   -3.8860    1.0290 H   0  0  0  0  0  0  0  0  0  0  0  0
   -4.5600   -1.8700    2.7410 H   0  0  0  0  0  0  0  0  0  0  0  0
   -3.6090   -3.0490    1.8240 H   0  0  0  0  0  0  0  0  0  0  0  0
   -4.0620   -1.5970   -0.3110 H   0  0  0  0  0  0  0  0  0  0  0  0
   -4.8850   -0.4520    0.7600 H   0  0  0  0  0  0  0  0  0  0  0  0
   -2.5580    0.2410    0.4100 H   0  0  0  0  0  0  0  0  0  0  0  0
   -2.8090   -0.1240    2.1190 H   0  0  0  0  0  0  0  0  0  0  0  0
   -1.7150   -2.3410    1.9240 H   0  0  0  0  0  0  0  0  0  0  0  0
   -0.1680   -0.0040    0.9010 H   0  0  0  0  0  0  0  0  0  0  0  0
   -0.1520   -1.9460   -0.9090 N   0  0  0  0  0  0  0  0  0  0  0  0
    0.0030   -2.5910   -2.1950 C   0  0  1  0  0  0  0  0  0  0  0  0
   -0.0100   -1.4410   -3.2140 C   0  0  0  0  0  0  0  0  0  0  0  0
    0.1370   -1.9140   -4.6210 C   0  0  0  0  0  0  0  0  0  0  0  0
    0.0960   -0.7070   -5.5020 C   0  0  0  0  0  0  0  0  0  0  0  0
    0.1940   -0.8270   -6.7490 O   0  0  0  0  0  0  0  0  0  0  0  0
    1.3060   -3.2890   -2.2160 C   0  0  0  0  0  0  0  0  0  0  0  0
    2.0490   -3.2300   -1.2020 O   0  0  0  0  0  0  0  0  0  0  0  0
   -0.0490    0.5720   -5.0060 O   0  0  0  0  0  0  0  0  0  0  0  0
    1.7860   -4.0250   -3.2900 O   0  0  0  0  0  0  0  0  0  0  0  0
    0.5990   -1.3270   -0.5440 H   0  0  0  0  0  0  0  0  0  0  0  0
   -0.8530   -3.2630   -2.4130 H   0  0  0  0  0  0  0  0  0  0  0  0
   -1.0020   -0.9290   -3.0680 H   0  0  0  0  0  0  0  0  0  0  0  0
    0.7460   -0.6890   -2.9050 H   0  0  0  0  0  0  0  0  0  0  0  0
    1.1620   -2.3490   -4.7580 H   0  0  0  0  0  0  0  0  0  0  0  0
   -0.6580   -2.6340   -4.8310 H   0  0  0  0  0  0  0  0  0  0  0  0
   -0.4810    1.3300   -5.5400 H   0  0  0  0  0  0  0  0  0  0  0  0
  1 16  1  0  0  0  0
  2 17  1  1  0  0  0
  2  1  1  0  0  0  0
  3 18  1  0  0  0  0
  3  4  1  0  0  0  0
  3  2  1  0  0  0  0
  4  5  2  0  0  0  0
  5  6  1  0  0  0  0
  5 20  1  0  0  0  0
  6 21  1  0  0  0  0
  7  6  1  0  0  0  0
  8  7  1  0  0  0  0
  8 22  1  0  0  0  0
  9  8  2  0  0  0  0
 10 11  2  0  0  0  0
 10  9  1  0  0  0  0
 11 12  1  0  0  0  0
 12  4  1  0  0  0  0
 12  7  2  0  0  0  0
 13  2  1  0  0  0  0
 13 14  2  0  0  0  0
 15  1  1  0  0  0  0
 19  3  1  0  0  0  0
 23  9  1  0  0  0  0
 24 10  1  0  0  0  0
 25 11  1  0  0  0  0
 26 38  1  0  0  0  0
 26 27  1  0  0  0  0
 27 28  2  0  0  0  0
 28 39  1  0  0  0  0
 29 27  1  0  0  0  0
 29 30  1  0  0  0  0
 30 42  1  0  0  0  0
 30 41  1  0  0  0  0
 31 44  1  0  0  0  0
 31 32  1  0  0  0  0
 31 30  1  0  0  0  0
 32 33  1  0  0  0  0
 32 46  1  0  0  0  0
 33 34  1  0  0  0  0
 33 47  1  1  0  0  0
 34 13  1  0  0  0  0
 35 33  1  0  0  0  0
 36 35  2  0  0  0  0
 37 26  1  0  0  0  0
 40 29  1  0  0  0  0
 43 31  1  0  0  0  0
 45 32  1  0  0  0  0
 48 34  1  0  0  0  0
 49 59  1  0  0  0  0
 49 35  1  0  0  0  0
 50 60  1  6  0  0  0
 50 49  1  0  0  0  0
 51 61  1  0  0  0  0
 51 62  1  0  0  0  0
 51 50  1  0  0  0  0
 52 51  1  0  0  0  0
 53 57  1  0  0  0  0
 53 52  1  0  0  0  0
 54 53  2  0  0  0  0
 55 50  1  0  0  0  0
 55 56  1  0  0  0  0
 58 55  2  0  0  0  0
 63 52  1  0  0  0  0
 64 52  1  0  0  0  0
 65 57  1  0  0  0  0
M  END
$$$$
