WRF.pdb
 OpenBabel07022419153D

 69 71  0  0  1  0  0  0  0  0999 V2000
   -0.2760    2.9080    3.6780 N   0  0  0  0  0  0  0  0  0  0  0  0
   -0.6930    2.2380    2.4750 C   0  0  1  0  0  0  0  0  0  0  0  0
    0.4240    2.4290    1.4400 C   0  0  0  0  0  0  0  0  0  0  0  0
    0.6510    3.8580    1.1680 C   0  0  0  0  0  0  0  0  0  0  0  0
    1.6890    4.6400    1.6170 C   0  0  0  0  0  0  0  0  0  0  0  0
    1.5160    5.8860    1.1370 N   0  0  0  0  0  0  0  0  0  0  0  0
    0.4060    5.9480    0.3910 C   0  0  0  0  0  0  0  0  0  0  0  0
   -0.1720    6.9980   -0.2960 C   0  0  0  0  0  0  0  0  0  0  0  0
   -1.3460    6.7880   -1.0020 C   0  0  0  0  0  0  0  0  0  0  0  0
   -1.9070    5.5250   -0.9970 C   0  0  0  0  0  0  0  0  0  0  0  0
   -1.3160    4.4690   -0.3000 C   0  0  0  0  0  0  0  0  0  0  0  0
   -0.1470    4.6850    0.4020 C   0  0  0  0  0  0  0  0  0  0  0  0
   -0.8840    0.7920    2.7610 C   0  0  0  0  0  0  0  0  0  0  0  0
   -0.7090    0.3090    3.9180 O   0  0  0  0  0  0  0  0  0  0  0  0
    0.1690    3.8210    3.4880 H   0  0  0  0  0  0  0  0  0  0  0  0
    0.4210    2.3310    4.2000 H   0  0  0  0  0  0  0  0  0  0  0  0
   -1.6290    2.6670    2.0930 H   0  0  0  0  0  0  0  0  0  0  0  0
    0.1460    1.9530    0.4710 H   0  0  0  0  0  0  0  0  0  0  0  0
    1.3490    1.9200    1.7770 H   0  0  0  0  0  0  0  0  0  0  0  0
    2.5230    4.3650    2.2440 H   0  0  0  0  0  0  0  0  0  0  0  0
    2.1400    6.7050    1.3040 H   0  0  0  0  0  0  0  0  0  0  0  0
    0.2540    7.9920   -0.3100 H   0  0  0  0  0  0  0  0  0  0  0  0
   -1.8190    7.5960   -1.5500 H   0  0  0  0  0  0  0  0  0  0  0  0
   -2.8190    5.3420   -1.5400 H   0  0  0  0  0  0  0  0  0  0  0  0
   -1.7340    3.4760   -0.2810 H   0  0  0  0  0  0  0  0  0  0  0  0
   -5.0290   -7.6250    1.0690 N   0  0  0  0  0  0  0  0  0  0  0  0
   -3.9410   -6.7100    0.8530 C   0  0  0  0  0  0  0  0  0  0  0  0
   -2.8650   -7.0750    0.2870 N   0  0  0  0  0  0  0  0  0  0  0  0
   -4.0990   -5.3810    1.2900 N   0  0  0  0  0  0  0  0  0  0  0  0
   -3.0280   -4.3710    1.0480 C   0  0  0  0  0  0  0  0  0  0  0  0
   -3.5090   -3.1140    1.6240 C   0  0  0  0  0  0  0  0  0  0  0  0
   -2.8050   -1.8570    1.5450 C   0  0  0  0  0  0  0  0  0  0  0  0
   -1.4610   -1.5850    2.0670 C   0  0  2  0  0  0  0  0  0  0  0  0
   -1.2710   -0.1250    1.7600 N   0  0  0  0  0  0  0  0  0  0  0  0
   -0.3110   -2.1840    1.3210 C   0  0  0  0  0  0  0  0  0  0  0  0
   -0.0990   -3.4090    1.4650 O   0  0  0  0  0  0  0  0  0  0  0  0
   -4.8970   -8.6700    0.9920 H   0  0  0  0  0  0  0  0  0  0  0  0
   -5.9660   -7.2900    1.3050 H   0  0  0  0  0  0  0  0  0  0  0  0
   -2.0970   -6.4070    0.1400 H   0  0  0  0  0  0  0  0  0  0  0  0
   -4.9720   -5.1140    1.7830 H   0  0  0  0  0  0  0  0  0  0  0  0
   -2.6940   -4.3980    0.0200 H   0  0  0  0  0  0  0  0  0  0  0  0
   -2.1920   -4.8340    1.6680 H   0  0  0  0  0  0  0  0  0  0  0  0
   -3.7220   -3.3430    2.7330 H   0  0  0  0  0  0  0  0  0  0  0  0
   -4.5870   -2.9030    1.2790 H   0  0  0  0  0  0  0  0  0  0  0  0
   -3.4680   -1.0350    2.0100 H   0  0  0  0  0  0  0  0  0  0  0  0
   -2.7860   -1.4570    0.4590 H   0  0  0  0  0  0  0  0  0  0  0  0
   -1.3170   -1.6860    3.1570 H   0  0  0  0  0  0  0  0  0  0  0  0
   -1.4310    0.2150    0.8020 H   0  0  0  0  0  0  0  0  0  0  0  0
    0.5500   -1.4470    0.4630 N   0  0  0  0  0  0  0  0  0  0  0  0
    1.6320   -2.1490   -0.2020 C   0  0  1  0  0  0  0  0  0  0  0  0
    1.3660   -2.1260   -1.6830 C   0  0  0  0  0  0  0  0  0  0  0  0
    2.4370   -2.8220   -2.4190 C   0  0  0  0  0  0  0  0  0  0  0  0
    3.5170   -2.1020   -2.9000 C   0  0  0  0  0  0  0  0  0  0  0  0
    4.5110   -2.7650   -3.5780 C   0  0  0  0  0  0  0  0  0  0  0  0
    4.4620   -4.1370   -3.7950 C   0  0  0  0  0  0  0  0  0  0  0  0
    3.3920   -4.8420   -3.3170 C   0  0  0  0  0  0  0  0  0  0  0  0
    2.3930   -4.1950   -2.6390 C   0  0  0  0  0  0  0  0  0  0  0  0
    2.8860   -1.5150    0.2090 C   0  0  0  0  0  0  0  0  0  0  0  0
    3.9840   -1.9550   -0.1990 O   0  0  0  0  0  0  0  0  0  0  0  0
    2.9360   -0.4120    1.0590 O   0  0  0  0  0  0  0  0  0  0  0  0
    0.4050   -0.4510    0.3250 H   0  0  0  0  0  0  0  0  0  0  0  0
    1.6670   -3.2240    0.1030 H   0  0  0  0  0  0  0  0  0  0  0  0
    1.3440   -1.0680   -2.0600 H   0  0  0  0  0  0  0  0  0  0  0  0
    0.3800   -2.5580   -1.9300 H   0  0  0  0  0  0  0  0  0  0  0  0
    3.5490   -1.0280   -2.7310 H   0  0  0  0  0  0  0  0  0  0  0  0
    5.3620   -2.1790   -3.9540 H   0  0  0  0  0  0  0  0  0  0  0  0
    5.2950   -4.5930   -4.3460 H   0  0  0  0  0  0  0  0  0  0  0  0
    3.3410   -5.8980   -3.4770 H   0  0  0  0  0  0  0  0  0  0  0  0
    1.5480   -4.7660   -2.2630 H   0  0  0  0  0  0  0  0  0  0  0  0
  1 16  1  0  0  0  0
  2 17  1  6  0  0  0
  2 13  1  0  0  0  0
  2  1  1  0  0  0  0
  3 19  1  0  0  0  0
  3  2  1  0  0  0  0
  4  3  1  0  0  0  0
  4  5  2  0  0  0  0
  5 20  1  0  0  0  0
  6 21  1  0  0  0  0
  6  5  1  0  0  0  0
  7 12  1  0  0  0  0
  7  6  1  0  0  0  0
  8  7  2  0  0  0  0
  9 10  2  0  0  0  0
  9  8  1  0  0  0  0
 10 11  1  0  0  0  0
 11 25  1  0  0  0  0
 11 12  2  0  0  0  0
 12  4  1  0  0  0  0
 13 14  2  0  0  0  0
 15  1  1  0  0  0  0
 18  3  1  0  0  0  0
 22  8  1  0  0  0  0
 23  9  1  0  0  0  0
 24 10  1  0  0  0  0
 26 38  1  0  0  0  0
 27 26  1  0  0  0  0
 27 29  1  0  0  0  0
 28 27  2  0  0  0  0
 29 40  1  0  0  0  0
 30 29  1  0  0  0  0
 30 31  1  0  0  0  0
 30 42  1  0  0  0  0
 31 43  1  0  0  0  0
 32 31  1  0  0  0  0
 32 45  1  0  0  0  0
 32 33  1  0  0  0  0
 33 47  1  1  0  0  0
 34 33  1  0  0  0  0
 34 13  1  0  0  0  0
 35 36  2  0  0  0  0
 35 33  1  0  0  0  0
 37 26  1  0  0  0  0
 39 28  1  0  0  0  0
 41 30  1  0  0  0  0
 44 31  1  0  0  0  0
 46 32  1  0  0  0  0
 48 34  1  0  0  0  0
 49 35  1  0  0  0  0
 50 62  1  1  0  0  0
 50 58  1  0  0  0  0
 50 49  1  0  0  0  0
 51 50  1  0  0  0  0
 52 51  1  0  0  0  0
 53 65  1  0  0  0  0
 53 52  2  0  0  0  0
 54 53  1  0  0  0  0
 55 54  2  0  0  0  0
 55 56  1  0  0  0  0
 56 57  2  0  0  0  0
 57 52  1  0  0  0  0
 57 69  1  0  0  0  0
 58 60  1  0  0  0  0
 59 58  2  0  0  0  0
 61 49  1  0  0  0  0
 63 51  1  0  0  0  0
 64 51  1  0  0  0  0
 66 54  1  0  0  0  0
 67 55  1  0  0  0  0
 68 56  1  0  0  0  0
M  END
$$$$
