WRI.pdb
 OpenBabel07022419153D

 68 69  0  0  1  0  0  0  0  0999 V2000
    3.2800   -2.8790    1.9620 N   0  0  0  0  0  0  0  0  0  0  0  0
    3.3720   -1.4480    2.2140 C   0  0  1  0  0  0  0  0  0  0  0  0
    4.6820   -0.8770    1.8450 C   0  0  0  0  0  0  0  0  0  0  0  0
    5.1230   -1.0260    0.4560 C   0  0  0  0  0  0  0  0  0  0  0  0
    6.0000   -2.0240   -0.0220 C   0  0  0  0  0  0  0  0  0  0  0  0
    6.1550   -1.8690   -1.3300 N   0  0  0  0  0  0  0  0  0  0  0  0
    5.4360   -0.8240   -1.7790 C   0  0  0  0  0  0  0  0  0  0  0  0
    5.2610   -0.2520   -3.0150 C   0  0  0  0  0  0  0  0  0  0  0  0
    4.4470    0.8530   -3.1740 C   0  0  0  0  0  0  0  0  0  0  0  0
    3.7940    1.4050   -2.0960 C   0  0  0  0  0  0  0  0  0  0  0  0
    3.9840    0.8110   -0.8580 C   0  0  0  0  0  0  0  0  0  0  0  0
    4.7930   -0.3000   -0.6580 C   0  0  0  0  0  0  0  0  0  0  0  0
    2.1930   -0.6860    1.7710 C   0  0  0  0  0  0  0  0  0  0  0  0
    2.0930    0.5340    2.1400 O   0  0  0  0  0  0  0  0  0  0  0  0
    4.0310   -3.3230    2.5340 H   0  0  0  0  0  0  0  0  0  0  0  0
    2.3710   -3.2410    2.3200 H   0  0  0  0  0  0  0  0  0  0  0  0
    3.3030   -1.3950    3.3600 H   0  0  0  0  0  0  0  0  0  0  0  0
    4.6950    0.2070    2.1770 H   0  0  0  0  0  0  0  0  0  0  0  0
    5.4940   -1.3220    2.5000 H   0  0  0  0  0  0  0  0  0  0  0  0
    6.4360   -2.7590    0.6250 H   0  0  0  0  0  0  0  0  0  0  0  0
    6.7490   -2.4520   -1.9930 H   0  0  0  0  0  0  0  0  0  0  0  0
    5.7770   -0.6770   -3.8870 H   0  0  0  0  0  0  0  0  0  0  0  0
    4.3020    1.3090   -4.1400 H   0  0  0  0  0  0  0  0  0  0  0  0
    3.1470    2.2650   -2.1530 H   0  0  0  0  0  0  0  0  0  0  0  0
    3.5110    1.2030    0.0300 H   0  0  0  0  0  0  0  0  0  0  0  0
   -2.6130   -2.8360   -3.1280 N   0  0  0  0  0  0  0  0  0  0  0  0
   -2.5940   -1.4340   -3.2730 C   0  0  0  0  0  0  0  0  0  0  0  0
   -3.7020   -0.7590   -3.2610 N   0  0  0  0  0  0  0  0  0  0  0  0
   -1.3530   -0.7500   -3.4350 N   0  0  0  0  0  0  0  0  0  0  0  0
   -1.1870    0.5830   -2.8990 C   0  0  0  0  0  0  0  0  0  0  0  0
   -1.1900    0.5460   -1.3480 C   0  0  0  0  0  0  0  0  0  0  0  0
   -0.0610   -0.3230   -0.8860 C   0  0  0  0  0  0  0  0  0  0  0  0
    0.0460   -0.3510    0.5980 C   0  0  2  0  0  0  0  0  0  0  0  0
    1.1830   -1.2420    0.9680 N   0  0  0  0  0  0  0  0  0  0  0  0
   -1.1470   -0.9280    1.2230 C   0  0  0  0  0  0  0  0  0  0  0  0
   -1.0450   -2.1230    1.6980 O   0  0  0  0  0  0  0  0  0  0  0  0
   -2.5070   -3.4730   -3.9410 H   0  0  0  0  0  0  0  0  0  0  0  0
   -2.7350   -3.2670   -2.1880 H   0  0  0  0  0  0  0  0  0  0  0  0
   -4.6110   -1.2510   -3.1430 H   0  0  0  0  0  0  0  0  0  0  0  0
   -0.5850   -1.2420   -3.9450 H   0  0  0  0  0  0  0  0  0  0  0  0
   -0.2340    0.9950   -3.2330 H   0  0  0  0  0  0  0  0  0  0  0  0
   -2.0430    1.2540   -3.1720 H   0  0  0  0  0  0  0  0  0  0  0  0
   -1.2420    1.5410   -0.9120 H   0  0  0  0  0  0  0  0  0  0  0  0
   -2.1910    0.0450   -1.1390 H   0  0  0  0  0  0  0  0  0  0  0  0
    0.8740    0.1310   -1.3350 H   0  0  0  0  0  0  0  0  0  0  0  0
   -0.1630   -1.3540   -1.3000 H   0  0  0  0  0  0  0  0  0  0  0  0
    0.2230    0.6780    0.9900 H   0  0  0  0  0  0  0  0  0  0  0  0
    1.2060   -2.2200    0.6380 H   0  0  0  0  0  0  0  0  0  0  0  0
   -5.2920   -0.1350    5.3270 C   0  0  0  0  0  0  0  0  0  0  0  0
   -5.0280   -0.8530    4.0050 C   0  0  0  0  0  0  0  0  0  0  0  0
   -3.8890   -0.2110    3.2700 C   0  0  2  0  0  0  0  0  0  0  0  0
   -4.2850    1.2250    3.0050 C   0  0  0  0  0  0  0  0  0  0  0  0
   -3.5270   -0.9590    2.0160 C   0  0  2  0  0  0  0  0  0  0  0  0
   -2.3880   -0.2770    1.3520 N   0  0  0  0  0  0  0  0  0  0  0  0
   -4.6120   -1.1800    1.0740 C   0  0  0  0  0  0  0  0  0  0  0  0
   -5.6420   -1.8040    1.4230 O   0  0  0  0  0  0  0  0  0  0  0  0
   -4.6300   -0.7440   -0.2640 O   0  0  0  0  0  0  0  0  0  0  0  0
   -4.3220    0.3250    5.6280 H   0  0  0  0  0  0  0  0  0  0  0  0
   -5.6110   -0.8970    6.0510 H   0  0  0  0  0  0  0  0  0  0  0  0
   -6.1040    0.6090    5.2030 H   0  0  0  0  0  0  0  0  0  0  0  0
   -4.7660   -1.9230    4.1930 H   0  0  0  0  0  0  0  0  0  0  0  0
   -5.9610   -0.8310    3.4310 H   0  0  0  0  0  0  0  0  0  0  0  0
   -3.0310   -0.1620    3.9800 H   0  0  0  0  0  0  0  0  0  0  0  0
   -4.9270    1.3070    2.0950 H   0  0  0  0  0  0  0  0  0  0  0  0
   -4.7410    1.7010    3.8840 H   0  0  0  0  0  0  0  0  0  0  0  0
   -3.3560    1.7840    2.7760 H   0  0  0  0  0  0  0  0  0  0  0  0
   -3.1400   -1.9460    2.3310 H   0  0  0  0  0  0  0  0  0  0  0  0
   -2.5120    0.6890    1.0070 H   0  0  0  0  0  0  0  0  0  0  0  0
  1  2  1  0  0  0  0
  1 16  1  0  0  0  0
  1 15  1  0  0  0  0
  2 17  1  1  0  0  0
  3 18  1  0  0  0  0
  3  2  1  0  0  0  0
  3 19  1  0  0  0  0
  4  3  1  0  0  0  0
  5  4  2  0  0  0  0
  5 20  1  0  0  0  0
  6  5  1  0  0  0  0
  7  6  1  0  0  0  0
  7 12  1  0  0  0  0
  8  7  2  0  0  0  0
  9  8  1  0  0  0  0
  9 10  2  0  0  0  0
 10 11  1  0  0  0  0
 11 12  2  0  0  0  0
 11 25  1  0  0  0  0
 12  4  1  0  0  0  0
 13 14  2  0  0  0  0
 13  2  1  0  0  0  0
 21  6  1  0  0  0  0
 22  8  1  0  0  0  0
 23  9  1  0  0  0  0
 24 10  1  0  0  0  0
 26 38  1  0  0  0  0
 27 28  2  0  0  0  0
 27 26  1  0  0  0  0
 28 39  1  0  0  0  0
 29 27  1  0  0  0  0
 29 30  1  0  0  0  0
 30 31  1  0  0  0  0
 31 44  1  0  0  0  0
 31 43  1  0  0  0  0
 31 32  1  0  0  0  0
 32 33  1  0  0  0  0
 33 34  1  0  0  0  0
 33 47  1  1  0  0  0
 33 35  1  0  0  0  0
 34 13  1  0  0  0  0
 35 54  1  0  0  0  0
 35 36  2  0  0  0  0
 37 26  1  0  0  0  0
 40 29  1  0  0  0  0
 41 30  1  0  0  0  0
 42 30  1  0  0  0  0
 45 32  1  0  0  0  0
 46 32  1  0  0  0  0
 48 34  1  0  0  0  0
 49 58  1  0  0  0  0
 49 59  1  0  0  0  0
 50 61  1  0  0  0  0
 50 49  1  0  0  0  0
 51 63  1  1  0  0  0
 51 50  1  0  0  0  0
 52 51  1  0  0  0  0
 52 65  1  0  0  0  0
 53 67  1  1  0  0  0
 53 51  1  0  0  0  0
 54 53  1  0  0  0  0
 55 56  1  0  0  0  0
 55 53  1  0  0  0  0
 57 55  2  0  0  0  0
 60 49  1  0  0  0  0
 62 50  1  0  0  0  0
 64 52  1  0  0  0  0
 66 52  1  0  0  0  0
 68 54  1  0  0  0  0
M  END
$$$$
