WRK.pdb
 OpenBabel07022419153D

 70 71  0  0  1  0  0  0  0  0999 V2000
    2.5950   -3.9990    2.4100 N   0  0  0  0  0  0  0  0  0  0  0  0
    3.1370   -2.6950    1.9740 C   0  0  1  0  0  0  0  0  0  0  0  0
    4.4500   -2.8950    1.3290 C   0  0  0  0  0  0  0  0  0  0  0  0
    5.1180   -1.6860    0.8170 C   0  0  0  0  0  0  0  0  0  0  0  0
    6.0870   -0.9250    1.4770 C   0  0  0  0  0  0  0  0  0  0  0  0
    6.4530    0.1230    0.7190 N   0  0  0  0  0  0  0  0  0  0  0  0
    5.7500    0.0750   -0.4290 C   0  0  0  0  0  0  0  0  0  0  0  0
    5.7570    0.8940   -1.5310 C   0  0  0  0  0  0  0  0  0  0  0  0
    4.9510    0.6570   -2.6360 C   0  0  0  0  0  0  0  0  0  0  0  0
    4.1320   -0.4550   -2.5740 C   0  0  0  0  0  0  0  0  0  0  0  0
    4.1180   -1.2740   -1.4850 C   0  0  0  0  0  0  0  0  0  0  0  0
    4.9240   -1.0250   -0.3950 C   0  0  0  0  0  0  0  0  0  0  0  0
    2.1320   -1.8720    1.3330 C   0  0  0  0  0  0  0  0  0  0  0  0
    2.4350   -0.6470    1.0970 O   0  0  0  0  0  0  0  0  0  0  0  0
    1.8740   -3.7750    3.1410 H   0  0  0  0  0  0  0  0  0  0  0  0
    3.4070   -4.4750    2.8750 H   0  0  0  0  0  0  0  0  0  0  0  0
    3.3570   -2.1910    2.9710 H   0  0  0  0  0  0  0  0  0  0  0  0
    5.1340   -3.3030    2.1400 H   0  0  0  0  0  0  0  0  0  0  0  0
    4.4620   -3.7240    0.5780 H   0  0  0  0  0  0  0  0  0  0  0  0
    6.4990   -1.1350    2.4670 H   0  0  0  0  0  0  0  0  0  0  0  0
    7.1510    0.8640    0.9380 H   0  0  0  0  0  0  0  0  0  0  0  0
    6.4100    1.7740   -1.5720 H   0  0  0  0  0  0  0  0  0  0  0  0
    4.9460    1.2870   -3.5030 H   0  0  0  0  0  0  0  0  0  0  0  0
    3.4780   -0.6970   -3.4070 H   0  0  0  0  0  0  0  0  0  0  0  0
    3.4580   -2.1510   -1.4640 H   0  0  0  0  0  0  0  0  0  0  0  0
   -5.7580   -2.1800   -1.3810 N   0  0  0  0  0  0  0  0  0  0  0  0
   -4.6820   -3.1310   -1.3580 C   0  0  0  0  0  0  0  0  0  0  0  0
   -4.9650   -4.3830   -1.1340 N   0  0  0  0  0  0  0  0  0  0  0  0
   -3.3300   -2.7640   -1.5690 N   0  0  0  0  0  0  0  0  0  0  0  0
   -2.2470   -3.5650   -1.0320 C   0  0  0  0  0  0  0  0  0  0  0  0
   -0.9130   -3.1090   -1.4640 C   0  0  0  0  0  0  0  0  0  0  0  0
   -0.4260   -1.7720   -1.1010 C   0  0  0  0  0  0  0  0  0  0  0  0
   -0.1590   -1.4180    0.2910 C   0  0  2  0  0  0  0  0  0  0  0  0
    0.8470   -2.2670    0.9390 N   0  0  0  0  0  0  0  0  0  0  0  0
   -1.2130   -1.0120    1.2040 C   0  0  0  0  0  0  0  0  0  0  0  0
   -1.1650   -1.2510    2.4570 O   0  0  0  0  0  0  0  0  0  0  0  0
   -5.9750   -1.6630   -0.5000 H   0  0  0  0  0  0  0  0  0  0  0  0
   -6.3180   -1.9990   -2.2400 H   0  0  0  0  0  0  0  0  0  0  0  0
   -5.9400   -4.7080   -0.9740 H   0  0  0  0  0  0  0  0  0  0  0  0
   -3.1530   -1.8950   -2.1240 H   0  0  0  0  0  0  0  0  0  0  0  0
   -2.3970   -4.5910   -1.4850 H   0  0  0  0  0  0  0  0  0  0  0  0
   -2.2820   -3.7230    0.0470 H   0  0  0  0  0  0  0  0  0  0  0  0
   -0.8610   -3.2660   -2.5850 H   0  0  0  0  0  0  0  0  0  0  0  0
   -0.1700   -3.8700   -1.0820 H   0  0  0  0  0  0  0  0  0  0  0  0
    0.5570   -1.6370   -1.6770 H   0  0  0  0  0  0  0  0  0  0  0  0
   -1.0470   -0.9410   -1.5460 H   0  0  0  0  0  0  0  0  0  0  0  0
    0.4710   -0.4160    0.1920 H   0  0  0  0  0  0  0  0  0  0  0  0
    0.5590   -3.2500    1.1110 H   0  0  0  0  0  0  0  0  0  0  0  0
   -2.3610   -0.3210    0.7720 N   0  0  0  0  0  0  0  0  0  0  0  0
   -3.3780    0.1190    1.7410 C   0  0  1  0  0  0  0  0  0  0  0  0
   -4.1010    1.3420    1.2550 C   0  0  0  0  0  0  0  0  0  0  0  0
   -3.1410    2.4950    1.0390 C   0  0  0  0  0  0  0  0  0  0  0  0
   -3.8570    3.7280    0.5450 C   0  0  0  0  0  0  0  0  0  0  0  0
   -2.8090    4.8230    0.3560 C   0  0  0  0  0  0  0  0  0  0  0  0
   -2.1760    5.0700    1.6340 N   0  0  0  0  0  0  0  0  0  0  0  0
   -4.2550   -1.0150    2.0390 C   0  0  0  0  0  0  0  0  0  0  0  0
   -5.2780   -0.8400    2.7620 O   0  0  0  0  0  0  0  0  0  0  0  0
   -4.0210   -2.2830    1.5720 O   0  0  0  0  0  0  0  0  0  0  0  0
   -2.5230   -0.1010   -0.2350 H   0  0  0  0  0  0  0  0  0  0  0  0
   -2.8080    0.3000    2.6990 H   0  0  0  0  0  0  0  0  0  0  0  0
   -4.8490    1.5950    2.0470 H   0  0  0  0  0  0  0  0  0  0  0  0
   -4.6810    1.0880    0.3580 H   0  0  0  0  0  0  0  0  0  0  0  0
   -2.7140    2.7470    2.0320 H   0  0  0  0  0  0  0  0  0  0  0  0
   -2.3320    2.2130    0.3380 H   0  0  0  0  0  0  0  0  0  0  0  0
   -4.6070    4.0480    1.2810 H   0  0  0  0  0  0  0  0  0  0  0  0
   -4.3610    3.5700   -0.4330 H   0  0  0  0  0  0  0  0  0  0  0  0
   -2.0570    4.5020   -0.4070 H   0  0  0  0  0  0  0  0  0  0  0  0
   -3.2550    5.7560   -0.0270 H   0  0  0  0  0  0  0  0  0  0  0  0
   -2.7250    5.7770    2.1880 H   0  0  0  0  0  0  0  0  0  0  0  0
   -1.2040    5.4330    1.5240 H   0  0  0  0  0  0  0  0  0  0  0  0
  1 16  1  0  0  0  0
  1 15  1  0  0  0  0
  2  1  1  0  0  0  0
  2 17  1  1  0  0  0
  3  2  1  0  0  0  0
  3 18  1  0  0  0  0
  4  3  1  0  0  0  0
  4  5  2  0  0  0  0
  5 20  1  0  0  0  0
  6 21  1  0  0  0  0
  6  5  1  0  0  0  0
  7 12  1  0  0  0  0
  7  6  1  0  0  0  0
  8  7  2  0  0  0  0
  9 10  2  0  0  0  0
  9  8  1  0  0  0  0
 10 11  1  0  0  0  0
 11 25  1  0  0  0  0
 11 12  2  0  0  0  0
 12  4  1  0  0  0  0
 13  2  1  0  0  0  0
 14 13  2  0  0  0  0
 19  3  1  0  0  0  0
 22  8  1  0  0  0  0
 23  9  1  0  0  0  0
 24 10  1  0  0  0  0
 26 27  1  0  0  0  0
 26 37  1  0  0  0  0
 27 28  2  0  0  0  0
 28 39  1  0  0  0  0
 29 27  1  0  0  0  0
 29 30  1  0  0  0  0
 30 42  1  0  0  0  0
 31 32  1  0  0  0  0
 31 44  1  0  0  0  0
 31 30  1  0  0  0  0
 32 33  1  0  0  0  0
 33 47  1  6  0  0  0
 33 34  1  0  0  0  0
 33 35  1  0  0  0  0
 34 48  1  0  0  0  0
 34 13  1  0  0  0  0
 35 36  2  0  0  0  0
 38 26  1  0  0  0  0
 40 29  1  0  0  0  0
 41 30  1  0  0  0  0
 43 31  1  0  0  0  0
 45 32  1  0  0  0  0
 46 32  1  0  0  0  0
 49 35  1  0  0  0  0
 49 50  1  0  0  0  0
 50 56  1  0  0  0  0
 50 60  1  1  0  0  0
 51 50  1  0  0  0  0
 51 61  1  0  0  0  0
 52 51  1  0  0  0  0
 52 63  1  0  0  0  0
 53 52  1  0  0  0  0
 53 65  1  0  0  0  0
 54 53  1  0  0  0  0
 54 55  1  0  0  0  0
 55 69  1  0  0  0  0
 56 57  1  0  0  0  0
 58 56  2  0  0  0  0
 59 49  1  0  0  0  0
 62 51  1  0  0  0  0
 64 52  1  0  0  0  0
 66 53  1  0  0  0  0
 67 54  1  0  0  0  0
 68 54  1  0  0  0  0
 70 55  1  0  0  0  0
M  END
$$$$
