WRL.pdb
 OpenBabel07022419153D

 68 69  0  0  1  0  0  0  0  0999 V2000
    4.3260   -2.6480   -0.8240 N   0  0  0  0  0  0  0  0  0  0  0  0
    3.1040   -2.2340   -0.1160 C   0  0  1  0  0  0  0  0  0  0  0  0
    3.4990   -1.2750    0.9880 C   0  0  0  0  0  0  0  0  0  0  0  0
    4.2070   -0.0790    0.5360 C   0  0  0  0  0  0  0  0  0  0  0  0
    5.6050    0.0820    0.5780 C   0  0  0  0  0  0  0  0  0  0  0  0
    5.9490    1.2620    0.0720 N   0  0  0  0  0  0  0  0  0  0  0  0
    4.8360    1.8850   -0.3000 C   0  0  0  0  0  0  0  0  0  0  0  0
    4.5960    3.1250   -0.8770 C   0  0  0  0  0  0  0  0  0  0  0  0
    3.3330    3.5510   -1.1680 C   0  0  0  0  0  0  0  0  0  0  0  0
    2.2530    2.7430   -0.8890 C   0  0  0  0  0  0  0  0  0  0  0  0
    2.4500    1.5180   -0.3230 C   0  0  0  0  0  0  0  0  0  0  0  0
    3.7460    1.0830   -0.0260 C   0  0  0  0  0  0  0  0  0  0  0  0
    2.0480   -1.7460   -1.0100 C   0  0  0  0  0  0  0  0  0  0  0  0
    2.2130   -1.3470   -2.1910 O   0  0  0  0  0  0  0  0  0  0  0  0
    5.1560   -2.5640   -0.2110 H   0  0  0  0  0  0  0  0  0  0  0  0
    4.2630   -3.6710   -1.0860 H   0  0  0  0  0  0  0  0  0  0  0  0
    2.7890   -3.1760    0.4290 H   0  0  0  0  0  0  0  0  0  0  0  0
    2.5700   -0.9520    1.5090 H   0  0  0  0  0  0  0  0  0  0  0  0
    4.0980   -1.8030    1.7580 H   0  0  0  0  0  0  0  0  0  0  0  0
    6.3230   -0.6380    0.9630 H   0  0  0  0  0  0  0  0  0  0  0  0
    6.9250    1.6450   -0.0210 H   0  0  0  0  0  0  0  0  0  0  0  0
    5.4580    3.7310   -1.0820 H   0  0  0  0  0  0  0  0  0  0  0  0
    3.1670    4.5330   -1.6220 H   0  0  0  0  0  0  0  0  0  0  0  0
    1.2400    3.0560   -1.1090 H   0  0  0  0  0  0  0  0  0  0  0  0
    1.6090    0.8690   -0.0830 H   0  0  0  0  0  0  0  0  0  0  0  0
   -4.6250   -4.6710    0.0690 N   0  0  0  0  0  0  0  0  0  0  0  0
   -4.3660   -4.0900   -1.1980 C   0  0  0  0  0  0  0  0  0  0  0  0
   -5.1890   -3.1850   -1.6350 N   0  0  0  0  0  0  0  0  0  0  0  0
   -3.2490   -4.4600   -2.0020 N   0  0  0  0  0  0  0  0  0  0  0  0
   -2.8470   -3.6320   -3.0910 C   0  0  0  0  0  0  0  0  0  0  0  0
   -2.2790   -2.2960   -2.6530 C   0  0  0  0  0  0  0  0  0  0  0  0
   -1.0780   -2.4900   -1.7990 C   0  0  0  0  0  0  0  0  0  0  0  0
   -0.4090   -1.2550   -1.2920 C   0  0  2  0  0  0  0  0  0  0  0  0
    0.7130   -1.7210   -0.5020 N   0  0  0  0  0  0  0  0  0  0  0  0
   -1.2150   -0.3220   -0.5500 C   0  0  0  0  0  0  0  0  0  0  0  0
   -2.2420    0.2780   -0.9870 O   0  0  0  0  0  0  0  0  0  0  0  0
   -4.5000   -5.7070    0.2420 H   0  0  0  0  0  0  0  0  0  0  0  0
   -4.9470   -4.1250    0.8950 H   0  0  0  0  0  0  0  0  0  0  0  0
   -6.0110   -2.8750   -1.1050 H   0  0  0  0  0  0  0  0  0  0  0  0
   -2.7530   -5.3370   -1.7640 H   0  0  0  0  0  0  0  0  0  0  0  0
   -2.0470   -4.1400   -3.6890 H   0  0  0  0  0  0  0  0  0  0  0  0
   -3.6900   -3.4410   -3.7940 H   0  0  0  0  0  0  0  0  0  0  0  0
   -1.9180   -1.8350   -3.6240 H   0  0  0  0  0  0  0  0  0  0  0  0
   -3.0250   -1.6050   -2.2780 H   0  0  0  0  0  0  0  0  0  0  0  0
   -1.3750   -3.1350   -0.9470 H   0  0  0  0  0  0  0  0  0  0  0  0
   -0.3070   -3.0670   -2.3510 H   0  0  0  0  0  0  0  0  0  0  0  0
    0.0370   -0.7310   -2.1840 H   0  0  0  0  0  0  0  0  0  0  0  0
    0.5410   -2.0580    0.4720 H   0  0  0  0  0  0  0  0  0  0  0  0
   -4.0280   -0.5190    4.3440 C   0  0  0  0  0  0  0  0  0  0  0  0
   -3.3730    0.6390    3.5220 C   0  0  0  0  0  0  0  0  0  0  0  0
   -2.6140    1.4110    4.5890 C   0  0  0  0  0  0  0  0  0  0  0  0
   -2.4350    0.0500    2.5310 C   0  0  0  0  0  0  0  0  0  0  0  0
   -1.7320    0.9630    1.5720 C   0  0  2  0  0  0  0  0  0  0  0  0
   -0.8930   -0.0010    0.7850 N   0  0  0  0  0  0  0  0  0  0  0  0
   -0.9230    2.0350    2.0940 C   0  0  0  0  0  0  0  0  0  0  0  0
    0.3560    1.9630    2.0910 O   0  0  0  0  0  0  0  0  0  0  0  0
   -1.4330    3.2020    2.6200 O   0  0  0  0  0  0  0  0  0  0  0  0
   -4.3150   -1.3180    3.6250 H   0  0  0  0  0  0  0  0  0  0  0  0
   -3.2230   -0.8940    5.0010 H   0  0  0  0  0  0  0  0  0  0  0  0
   -4.8680   -0.1220    4.9090 H   0  0  0  0  0  0  0  0  0  0  0  0
   -4.1620    1.2170    3.0280 H   0  0  0  0  0  0  0  0  0  0  0  0
   -2.9980    2.4380    4.5920 H   0  0  0  0  0  0  0  0  0  0  0  0
   -1.5250    1.3310    4.4710 H   0  0  0  0  0  0  0  0  0  0  0  0
   -2.9010    1.0090    5.6160 H   0  0  0  0  0  0  0  0  0  0  0  0
   -1.6680   -0.6260    3.0380 H   0  0  0  0  0  0  0  0  0  0  0  0
   -3.0550   -0.7160    1.9550 H   0  0  0  0  0  0  0  0  0  0  0  0
   -2.5080    1.3490    0.8700 H   0  0  0  0  0  0  0  0  0  0  0  0
   -0.0920   -0.3710    1.3370 H   0  0  0  0  0  0  0  0  0  0  0  0
  1 15  1  0  0  0  0
  1  2  1  0  0  0  0
  2 17  1  1  0  0  0
  2  3  1  0  0  0  0
  3 18  1  0  0  0  0
  3 19  1  0  0  0  0
  4  5  2  0  0  0  0
  4  3  1  0  0  0  0
  5 20  1  0  0  0  0
  6  5  1  0  0  0  0
  7 12  1  0  0  0  0
  7  6  1  0  0  0  0
  8  7  2  0  0  0  0
  9 10  2  0  0  0  0
  9  8  1  0  0  0  0
 10 11  1  0  0  0  0
 11 25  1  0  0  0  0
 11 12  2  0  0  0  0
 12  4  1  0  0  0  0
 13 34  1  0  0  0  0
 13  2  1  0  0  0  0
 14 13  2  0  0  0  0
 16  1  1  0  0  0  0
 21  6  1  0  0  0  0
 22  8  1  0  0  0  0
 23  9  1  0  0  0  0
 24 10  1  0  0  0  0
 26 37  1  0  0  0  0
 26 38  1  0  0  0  0
 27 26  1  0  0  0  0
 28 27  2  0  0  0  0
 28 39  1  0  0  0  0
 29 40  1  0  0  0  0
 29 27  1  0  0  0  0
 30 31  1  0  0  0  0
 30 29  1  0  0  0  0
 31 44  1  0  0  0  0
 31 32  1  0  0  0  0
 32 33  1  0  0  0  0
 32 45  1  0  0  0  0
 33 47  1  6  0  0  0
 33 35  1  0  0  0  0
 33 34  1  0  0  0  0
 34 48  1  0  0  0  0
 35 54  1  0  0  0  0
 36 35  2  0  0  0  0
 41 30  1  0  0  0  0
 42 30  1  0  0  0  0
 43 31  1  0  0  0  0
 46 32  1  0  0  0  0
 49 60  1  0  0  0  0
 49 59  1  0  0  0  0
 50 49  1  0  0  0  0
 50 51  1  0  0  0  0
 51 62  1  0  0  0  0
 51 64  1  0  0  0  0
 52 65  1  0  0  0  0
 52 50  1  0  0  0  0
 53 67  1  6  0  0  0
 53 55  1  0  0  0  0
 53 52  1  0  0  0  0
 54 68  1  0  0  0  0
 54 53  1  0  0  0  0
 55 57  1  0  0  0  0
 56 55  2  0  0  0  0
 58 49  1  0  0  0  0
 61 50  1  0  0  0  0
 63 51  1  0  0  0  0
 66 52  1  0  0  0  0
M  END
$$$$
