WRN.pdb
 OpenBabel07022419153D

 63 64  0  0  1  0  0  0  0  0999 V2000
    2.4160   -3.4450    1.1650 N   0  0  0  0  0  0  0  0  0  0  0  0
    2.7350   -2.2230    1.8390 C   0  0  1  0  0  0  0  0  0  0  0  0
    4.0830   -1.7600    1.9020 C   0  0  0  0  0  0  0  0  0  0  0  0
    4.9660   -1.4160    0.8540 C   0  0  0  0  0  0  0  0  0  0  0  0
    6.3160   -1.1360    1.1420 C   0  0  0  0  0  0  0  0  0  0  0  0
    6.9430   -0.8440    0.0220 N   0  0  0  0  0  0  0  0  0  0  0  0
    6.0760   -0.9110   -1.0270 C   0  0  0  0  0  0  0  0  0  0  0  0
    6.2170   -0.7010   -2.3730 C   0  0  0  0  0  0  0  0  0  0  0  0
    5.1160   -0.8510   -3.1850 C   0  0  0  0  0  0  0  0  0  0  0  0
    3.8840   -1.2080   -2.6630 C   0  0  0  0  0  0  0  0  0  0  0  0
    3.7530   -1.4160   -1.3120 C   0  0  0  0  0  0  0  0  0  0  0  0
    4.8450   -1.2700   -0.4890 C   0  0  0  0  0  0  0  0  0  0  0  0
    1.6710   -1.1560    1.6730 C   0  0  0  0  0  0  0  0  0  0  0  0
    1.9440   -0.0540    2.2100 O   0  0  0  0  0  0  0  0  0  0  0  0
    3.2320   -3.9440    0.7830 H   0  0  0  0  0  0  0  0  0  0  0  0
    1.8030   -4.1050    1.6410 H   0  0  0  0  0  0  0  0  0  0  0  0
    2.4800   -2.5100    2.9310 H   0  0  0  0  0  0  0  0  0  0  0  0
    4.0770   -0.8720    2.6290 H   0  0  0  0  0  0  0  0  0  0  0  0
    4.6360   -2.5190    2.5710 H   0  0  0  0  0  0  0  0  0  0  0  0
    6.8170   -1.1440    2.1090 H   0  0  0  0  0  0  0  0  0  0  0  0
    7.9380   -0.5930   -0.1120 H   0  0  0  0  0  0  0  0  0  0  0  0
    7.1550   -0.4260   -2.7900 H   0  0  0  0  0  0  0  0  0  0  0  0
    5.1920   -0.6930   -4.2620 H   0  0  0  0  0  0  0  0  0  0  0  0
    3.0020   -1.3320   -3.2880 H   0  0  0  0  0  0  0  0  0  0  0  0
    2.8030   -1.6930   -0.8690 H   0  0  0  0  0  0  0  0  0  0  0  0
   -4.0040   -1.9670   -2.7420 N   0  0  0  0  0  0  0  0  0  0  0  0
   -3.7470   -0.5640   -2.7750 C   0  0  0  0  0  0  0  0  0  0  0  0
   -4.6990    0.2670   -2.5890 N   0  0  0  0  0  0  0  0  0  0  0  0
   -2.4450   -0.0480   -3.0130 N   0  0  0  0  0  0  0  0  0  0  0  0
   -1.9730    1.1470   -2.3850 C   0  0  0  0  0  0  0  0  0  0  0  0
   -1.7830    0.9570   -0.8730 C   0  0  0  0  0  0  0  0  0  0  0  0
   -0.7850   -0.1270   -0.6060 C   0  0  0  0  0  0  0  0  0  0  0  0
   -0.5170   -0.3140    0.8460 C   0  0  2  0  0  0  0  0  0  0  0  0
    0.4950   -1.4190    0.9730 N   0  0  0  0  0  0  0  0  0  0  0  0
   -1.7000   -0.8320    1.5490 C   0  0  0  0  0  0  0  0  0  0  0  0
   -1.7580   -2.0680    1.8350 O   0  0  0  0  0  0  0  0  0  0  0  0
   -4.0990   -2.5490   -3.5950 H   0  0  0  0  0  0  0  0  0  0  0  0
   -4.0970   -2.4220   -1.8130 H   0  0  0  0  0  0  0  0  0  0  0  0
   -5.6600   -0.0930   -2.4130 H   0  0  0  0  0  0  0  0  0  0  0  0
   -1.8260   -0.5710   -3.6660 H   0  0  0  0  0  0  0  0  0  0  0  0
   -0.9910    1.4830   -2.7730 H   0  0  0  0  0  0  0  0  0  0  0  0
   -2.7010    1.9590   -2.5820 H   0  0  0  0  0  0  0  0  0  0  0  0
   -1.4460    1.9160   -0.4630 H   0  0  0  0  0  0  0  0  0  0  0  0
   -2.7870    0.7170   -0.4530 H   0  0  0  0  0  0  0  0  0  0  0  0
    0.1820    0.0820   -1.1570 H   0  0  0  0  0  0  0  0  0  0  0  0
   -1.1470   -1.1200   -1.0190 H   0  0  0  0  0  0  0  0  0  0  0  0
   -0.1020    0.5990    1.3150 H   0  0  0  0  0  0  0  0  0  0  0  0
    0.3040   -2.3410    0.5440 H   0  0  0  0  0  0  0  0  0  0  0  0
   -4.6700    1.9850    5.3310 N   0  0  0  0  0  0  0  0  0  0  0  0
   -4.4340    1.3980    4.0510 C   0  0  0  0  0  0  0  0  0  0  0  0
   -4.4560    2.1710    3.0820 O   0  0  0  0  0  0  0  0  0  0  0  0
   -4.1920   -0.0480    4.0170 C   0  0  0  0  0  0  0  0  0  0  0  0
   -3.9500   -0.6060    2.6530 C   0  0  2  0  0  0  0  0  0  0  0  0
   -2.8300   -0.0660    1.9690 N   0  0  0  0  0  0  0  0  0  0  0  0
   -5.1470   -0.5680    1.7870 C   0  0  0  0  0  0  0  0  0  0  0  0
   -6.2640   -1.0170    2.2260 O   0  0  0  0  0  0  0  0  0  0  0  0
   -5.1950   -0.0800    0.4990 O   0  0  0  0  0  0  0  0  0  0  0  0
   -5.6070    2.1490    5.7510 H   0  0  0  0  0  0  0  0  0  0  0  0
   -3.8420    2.2730    5.8930 H   0  0  0  0  0  0  0  0  0  0  0  0
   -3.3430   -0.3050    4.6670 H   0  0  0  0  0  0  0  0  0  0  0  0
   -5.0890   -0.5510    4.4330 H   0  0  0  0  0  0  0  0  0  0  0  0
   -3.7330   -1.7070    2.7990 H   0  0  0  0  0  0  0  0  0  0  0  0
   -2.8120    0.9490    1.7820 H   0  0  0  0  0  0  0  0  0  0  0  0
  1 16  1  0  0  0  0
  1  2  1  0  0  0  0
  2  3  1  0  0  0  0
  2 17  1  1  0  0  0
  3 19  1  0  0  0  0
  3 18  1  0  0  0  0
  4  5  2  0  0  0  0
  4  3  1  0  0  0  0
  5 20  1  0  0  0  0
  6  5  1  0  0  0  0
  7 12  1  0  0  0  0
  7  6  1  0  0  0  0
  8  7  2  0  0  0  0
  9 10  2  0  0  0  0
  9  8  1  0  0  0  0
 10 11  1  0  0  0  0
 11 25  1  0  0  0  0
 11 12  2  0  0  0  0
 12  4  1  0  0  0  0
 13  2  1  0  0  0  0
 13 14  2  0  0  0  0
 15  1  1  0  0  0  0
 21  6  1  0  0  0  0
 22  8  1  0  0  0  0
 23  9  1  0  0  0  0
 24 10  1  0  0  0  0
 26 38  1  0  0  0  0
 27 26  1  0  0  0  0
 27 28  2  0  0  0  0
 28 39  1  0  0  0  0
 29 27  1  0  0  0  0
 29 30  1  0  0  0  0
 30 31  1  0  0  0  0
 31 32  1  0  0  0  0
 31 43  1  0  0  0  0
 31 44  1  0  0  0  0
 32 33  1  0  0  0  0
 33 34  1  0  0  0  0
 33 47  1  1  0  0  0
 33 35  1  0  0  0  0
 34 13  1  0  0  0  0
 35 36  2  0  0  0  0
 35 54  1  0  0  0  0
 37 26  1  0  0  0  0
 40 29  1  0  0  0  0
 41 30  1  0  0  0  0
 42 30  1  0  0  0  0
 45 32  1  0  0  0  0
 46 32  1  0  0  0  0
 48 34  1  0  0  0  0
 49 58  1  0  0  0  0
 49 59  1  0  0  0  0
 50 49  1  0  0  0  0
 51 50  2  0  0  0  0
 52 50  1  0  0  0  0
 52 61  1  0  0  0  0
 52 60  1  0  0  0  0
 53 62  1  1  0  0  0
 53 52  1  0  0  0  0
 54 53  1  0  0  0  0
 55 56  1  0  0  0  0
 55 53  1  0  0  0  0
 57 55  2  0  0  0  0
 63 54  1  0  0  0  0
M  END
$$$$
