WRR.pdb
 OpenBabel07022419153D

 72 73  0  0  1  0  0  0  0  0999 V2000
    2.2040    3.0110    0.1060 N   0  0  0  0  0  0  0  0  0  0  0  0
    2.3300    1.5510    0.0770 C   0  0  1  0  0  0  0  0  0  0  0  0
    2.9430    0.9370    1.2080 C   0  0  0  0  0  0  0  0  0  0  0  0
    2.5250    0.9850    2.5670 C   0  0  0  0  0  0  0  0  0  0  0  0
    3.3580    0.4590    3.5750 C   0  0  0  0  0  0  0  0  0  0  0  0
    2.7820    0.6280    4.7430 N   0  0  0  0  0  0  0  0  0  0  0  0
    1.6100    1.2360    4.5990 C   0  0  0  0  0  0  0  0  0  0  0  0
    0.6430    1.6380    5.4930 C   0  0  0  0  0  0  0  0  0  0  0  0
   -0.4840    2.2590    5.0310 C   0  0  0  0  0  0  0  0  0  0  0  0
   -0.6570    2.4870    3.6680 C   0  0  0  0  0  0  0  0  0  0  0  0
    0.3050    2.0890    2.7610 C   0  0  0  0  0  0  0  0  0  0  0  0
    1.4340    1.4670    3.2410 C   0  0  0  0  0  0  0  0  0  0  0  0
    1.2430    0.8740   -0.6530 C   0  0  0  0  0  0  0  0  0  0  0  0
    0.2150    1.4990   -0.9310 O   0  0  0  0  0  0  0  0  0  0  0  0
    2.3810    3.3510    1.0880 H   0  0  0  0  0  0  0  0  0  0  0  0
    1.2500    3.2790   -0.2380 H   0  0  0  0  0  0  0  0  0  0  0  0
    3.1510    1.4950   -0.7550 H   0  0  0  0  0  0  0  0  0  0  0  0
    4.0530    1.2250    1.1840 H   0  0  0  0  0  0  0  0  0  0  0  0
    3.0320   -0.1790    0.9500 H   0  0  0  0  0  0  0  0  0  0  0  0
    4.3330   -0.0210    3.4540 H   0  0  0  0  0  0  0  0  0  0  0  0
    3.1590    0.3400    5.6680 H   0  0  0  0  0  0  0  0  0  0  0  0
    0.7720    1.4630    6.5630 H   0  0  0  0  0  0  0  0  0  0  0  0
   -1.2700    2.5940    5.6840 H   0  0  0  0  0  0  0  0  0  0  0  0
   -1.5380    2.9730    3.2820 H   0  0  0  0  0  0  0  0  0  0  0  0
    0.2040    2.2340    1.7050 H   0  0  0  0  0  0  0  0  0  0  0  0
   -3.3800    1.7130   -4.6520 N   0  0  0  0  0  0  0  0  0  0  0  0
   -3.0820    0.3390   -4.6400 C   0  0  0  0  0  0  0  0  0  0  0  0
   -4.0640   -0.5140   -4.6860 N   0  0  0  0  0  0  0  0  0  0  0  0
   -1.7290   -0.1530   -4.5780 N   0  0  0  0  0  0  0  0  0  0  0  0
   -1.5660   -1.5250   -4.1620 C   0  0  0  0  0  0  0  0  0  0  0  0
   -0.1450   -1.9720   -4.1390 C   0  0  0  0  0  0  0  0  0  0  0  0
    0.7610   -1.2350   -3.2440 C   0  0  0  0  0  0  0  0  0  0  0  0
    0.3900   -1.2360   -1.7710 C   0  0  2  0  0  0  0  0  0  0  0  0
    1.3890   -0.4730   -1.0310 N   0  0  0  0  0  0  0  0  0  0  0  0
    0.2150   -2.5630   -1.2000 C   0  0  0  0  0  0  0  0  0  0  0  0
   -0.5150   -3.4610   -1.7400 O   0  0  0  0  0  0  0  0  0  0  0  0
   -3.4240    2.2400   -3.7670 H   0  0  0  0  0  0  0  0  0  0  0  0
   -3.5540    2.1920   -5.5450 H   0  0  0  0  0  0  0  0  0  0  0  0
   -5.0470   -0.1800   -4.7320 H   0  0  0  0  0  0  0  0  0  0  0  0
   -0.9460    0.4790   -4.8300 H   0  0  0  0  0  0  0  0  0  0  0  0
   -2.0930   -2.1510   -4.9130 H   0  0  0  0  0  0  0  0  0  0  0  0
   -2.1220   -1.6560   -3.2220 H   0  0  0  0  0  0  0  0  0  0  0  0
    0.1970   -1.9090   -5.2270 H   0  0  0  0  0  0  0  0  0  0  0  0
   -0.1030   -3.0550   -3.9290 H   0  0  0  0  0  0  0  0  0  0  0  0
    1.8090   -1.5760   -3.2960 H   0  0  0  0  0  0  0  0  0  0  0  0
    0.7270   -0.1470   -3.5490 H   0  0  0  0  0  0  0  0  0  0  0  0
   -0.5430   -0.6010   -1.7440 H   0  0  0  0  0  0  0  0  0  0  0  0
    2.2630   -1.0330   -0.8050 H   0  0  0  0  0  0  0  0  0  0  0  0
   -3.1890    0.4370    3.3150 N   0  0  0  0  0  0  0  0  0  0  0  0
   -2.8670   -0.4350    2.2600 C   0  0  0  0  0  0  0  0  0  0  0  0
   -2.8740    0.0910    1.0570 N   0  0  0  0  0  0  0  0  0  0  0  0
   -2.5530   -1.8050    2.4470 N   0  0  0  0  0  0  0  0  0  0  0  0
   -1.7340   -2.4620    1.4400 C   0  0  0  0  0  0  0  0  0  0  0  0
   -1.5230   -3.9010    1.7450 C   0  0  0  0  0  0  0  0  0  0  0  0
   -0.7250   -4.6950    0.7800 C   0  0  0  0  0  0  0  0  0  0  0  0
    0.6880   -4.2870    0.5340 C   0  0  2  0  0  0  0  0  0  0  0  0
    0.8520   -2.9560    0.0070 N   0  0  0  0  0  0  0  0  0  0  0  0
    1.2890   -5.3030   -0.3970 C   0  0  0  0  0  0  0  0  0  0  0  0
    1.2650   -6.5340   -0.1470 O   0  0  0  0  0  0  0  0  0  0  0  0
    1.8940   -4.8910   -1.5730 O   0  0  0  0  0  0  0  0  0  0  0  0
   -2.7310    0.3230    4.2320 H   0  0  0  0  0  0  0  0  0  0  0  0
   -3.8790    1.1880    3.1760 H   0  0  0  0  0  0  0  0  0  0  0  0
   -3.0960    1.0700    0.8580 H   0  0  0  0  0  0  0  0  0  0  0  0
   -2.9130   -2.2890    3.2820 H   0  0  0  0  0  0  0  0  0  0  0  0
   -2.2840   -2.3740    0.4860 H   0  0  0  0  0  0  0  0  0  0  0  0
   -0.7410   -1.9530    1.4450 H   0  0  0  0  0  0  0  0  0  0  0  0
   -1.0880   -4.0630    2.7750 H   0  0  0  0  0  0  0  0  0  0  0  0
   -2.5460   -4.3720    1.7900 H   0  0  0  0  0  0  0  0  0  0  0  0
   -0.7080   -5.7580    1.2180 H   0  0  0  0  0  0  0  0  0  0  0  0
   -1.3430   -4.8000   -0.1470 H   0  0  0  0  0  0  0  0  0  0  0  0
    1.2430   -4.3490    1.5220 H   0  0  0  0  0  0  0  0  0  0  0  0
    1.4610   -2.2400    0.5330 H   0  0  0  0  0  0  0  0  0  0  0  0
  1 15  1  0  0  0  0
  2 17  1  6  0  0  0
  2  1  1  0  0  0  0
  2  3  1  0  0  0  0
  3  4  1  0  0  0  0
  4 12  1  0  0  0  0
  4  5  2  0  0  0  0
  5  6  1  0  0  0  0
  6 21  1  0  0  0  0
  7  6  1  0  0  0  0
  7  8  1  0  0  0  0
  8 22  1  0  0  0  0
  9  8  2  0  0  0  0
  9 23  1  0  0  0  0
 10  9  1  0  0  0  0
 11 12  1  0  0  0  0
 11 10  2  0  0  0  0
 12  7  2  0  0  0  0
 13  2  1  0  0  0  0
 14 13  2  0  0  0  0
 16  1  1  0  0  0  0
 18  3  1  0  0  0  0
 19  3  1  0  0  0  0
 20  5  1  0  0  0  0
 24 10  1  0  0  0  0
 25 11  1  0  0  0  0
 26 27  1  0  0  0  0
 26 37  1  0  0  0  0
 27 29  1  0  0  0  0
 28 27  2  0  0  0  0
 29 30  1  0  0  0  0
 30 31  1  0  0  0  0
 30 42  1  0  0  0  0
 31 44  1  0  0  0  0
 31 32  1  0  0  0  0
 32 33  1  0  0  0  0
 33 47  1  1  0  0  0
 33 35  1  0  0  0  0
 33 34  1  0  0  0  0
 34 48  1  0  0  0  0
 34 13  1  0  0  0  0
 35 57  1  0  0  0  0
 36 35  2  0  0  0  0
 38 26  1  0  0  0  0
 39 28  1  0  0  0  0
 40 29  1  0  0  0  0
 41 30  1  0  0  0  0
 43 31  1  0  0  0  0
 45 32  1  0  0  0  0
 46 32  1  0  0  0  0
 49 61  1  0  0  0  0
 50 52  1  0  0  0  0
 50 49  1  0  0  0  0
 51 50  2  0  0  0  0
 52 64  1  0  0  0  0
 53 66  1  0  0  0  0
 53 54  1  0  0  0  0
 53 52  1  0  0  0  0
 54 68  1  0  0  0  0
 54 67  1  0  0  0  0
 55 69  1  0  0  0  0
 55 54  1  0  0  0  0
 56 55  1  0  0  0  0
 56 71  1  1  0  0  0
 57 72  1  0  0  0  0
 57 56  1  0  0  0  0
 58 59  1  0  0  0  0
 58 56  1  0  0  0  0
 60 58  2  0  0  0  0
 62 49  1  0  0  0  0
 63 51  1  0  0  0  0
 65 53  1  0  0  0  0
 70 55  1  0  0  0  0
M  END
$$$$
