WRW.pdb
 OpenBabel07022419153D

 73 76  0  0  1  0  0  0  0  0999 V2000
   -1.0150   -4.3540    0.3150 N   0  0  0  0  0  0  0  0  0  0  0  0
   -1.5650   -3.7690    1.5130 C   0  0  1  0  0  0  0  0  0  0  0  0
   -0.5220   -3.8900    2.6320 C   0  0  0  0  0  0  0  0  0  0  0  0
   -0.0850   -5.2510    2.9280 C   0  0  0  0  0  0  0  0  0  0  0  0
   -0.5080   -6.0870    3.9610 C   0  0  0  0  0  0  0  0  0  0  0  0
    0.1420   -7.2520    3.8610 N   0  0  0  0  0  0  0  0  0  0  0  0
    0.9830   -7.2150    2.7900 C   0  0  0  0  0  0  0  0  0  0  0  0
    1.8550   -8.1600    2.2860 C   0  0  0  0  0  0  0  0  0  0  0  0
    2.6450   -7.9210    1.1680 C   0  0  0  0  0  0  0  0  0  0  0  0
    2.5050   -6.6820    0.5930 C   0  0  0  0  0  0  0  0  0  0  0  0
    1.6340   -5.7210    1.0870 C   0  0  0  0  0  0  0  0  0  0  0  0
    0.8620   -5.9930    2.1990 C   0  0  0  0  0  0  0  0  0  0  0  0
   -1.7420   -2.2620    1.2640 C   0  0  0  0  0  0  0  0  0  0  0  0
   -2.6280   -1.6040    1.8370 O   0  0  0  0  0  0  0  0  0  0  0  0
   -1.4270   -3.9270   -0.5690 H   0  0  0  0  0  0  0  0  0  0  0  0
   -1.1610   -5.3930    0.3220 H   0  0  0  0  0  0  0  0  0  0  0  0
   -2.4950   -4.1830    1.7900 H   0  0  0  0  0  0  0  0  0  0  0  0
   -0.9840   -3.4440    3.5700 H   0  0  0  0  0  0  0  0  0  0  0  0
    0.3370   -3.2600    2.3290 H   0  0  0  0  0  0  0  0  0  0  0  0
   -1.2530   -5.7840    4.7080 H   0  0  0  0  0  0  0  0  0  0  0  0
    0.0480   -8.0920    4.4890 H   0  0  0  0  0  0  0  0  0  0  0  0
    1.9300   -9.1030    2.7680 H   0  0  0  0  0  0  0  0  0  0  0  0
    3.3080   -8.6830    0.8050 H   0  0  0  0  0  0  0  0  0  0  0  0
    3.1250   -6.4910   -0.2810 H   0  0  0  0  0  0  0  0  0  0  0  0
    1.5860   -4.7570    0.6050 H   0  0  0  0  0  0  0  0  0  0  0  0
   -5.7720    3.2340   -2.8830 N   0  0  0  0  0  0  0  0  0  0  0  0
   -5.4910    1.8430   -2.7890 C   0  0  0  0  0  0  0  0  0  0  0  0
   -6.4710    1.0520   -3.1440 N   0  0  0  0  0  0  0  0  0  0  0  0
   -4.2440    1.3380   -2.3440 N   0  0  0  0  0  0  0  0  0  0  0  0
   -4.1860   -0.0130   -1.8650 C   0  0  0  0  0  0  0  0  0  0  0  0
   -2.8220   -0.4460   -1.4370 C   0  0  0  0  0  0  0  0  0  0  0  0
   -2.2000    0.3210   -0.3330 C   0  0  0  0  0  0  0  0  0  0  0  0
   -0.8010   -0.2580   -0.0240 C   0  0  2  0  0  0  0  0  0  0  0  0
   -0.8470   -1.6390    0.3580 N   0  0  0  0  0  0  0  0  0  0  0  0
   -0.1060    0.5760    0.9600 C   0  0  0  0  0  0  0  0  0  0  0  0
    0.1510    0.0520    2.1100 O   0  0  0  0  0  0  0  0  0  0  0  0
   -6.0670    3.6920   -3.7850 H   0  0  0  0  0  0  0  0  0  0  0  0
   -5.6930    3.8480   -2.0510 H   0  0  0  0  0  0  0  0  0  0  0  0
   -7.3850    1.3590   -3.4730 H   0  0  0  0  0  0  0  0  0  0  0  0
   -3.4280    1.9910   -2.3920 H   0  0  0  0  0  0  0  0  0  0  0  0
   -4.9460   -0.1490   -1.0580 H   0  0  0  0  0  0  0  0  0  0  0  0
   -4.5220   -0.6750   -2.6860 H   0  0  0  0  0  0  0  0  0  0  0  0
   -2.1410   -0.3750   -2.3420 H   0  0  0  0  0  0  0  0  0  0  0  0
   -2.8660   -1.5420   -1.1910 H   0  0  0  0  0  0  0  0  0  0  0  0
   -2.7890    0.2610    0.5790 H   0  0  0  0  0  0  0  0  0  0  0  0
   -2.0890    1.4070   -0.5540 H   0  0  0  0  0  0  0  0  0  0  0  0
   -0.3060   -0.2130   -1.0270 H   0  0  0  0  0  0  0  0  0  0  0  0
   -0.1340   -2.3390   -0.0690 H   0  0  0  0  0  0  0  0  0  0  0  0
    0.3290    1.9160    0.7880 N   0  0  0  0  0  0  0  0  0  0  0  0
    0.9860    2.5730    1.8920 C   0  0  1  0  0  0  0  0  0  0  0  0
    2.4970    2.4670    1.6590 C   0  0  0  0  0  0  0  0  0  0  0  0
    2.8970    3.1010    0.4110 C   0  0  0  0  0  0  0  0  0  0  0  0
    3.3530    4.4230    0.2880 C   0  0  0  0  0  0  0  0  0  0  0  0
    3.5870    4.6620   -0.9950 N   0  0  0  0  0  0  0  0  0  0  0  0
    3.3080    3.5580   -1.7210 C   0  0  0  0  0  0  0  0  0  0  0  0
    3.4230    3.3600   -3.0880 C   0  0  0  0  0  0  0  0  0  0  0  0
    3.0770    2.1020   -3.5630 C   0  0  0  0  0  0  0  0  0  0  0  0
    2.6460    1.1120   -2.7220 C   0  0  0  0  0  0  0  0  0  0  0  0
    2.5340    1.3110   -1.3680 C   0  0  0  0  0  0  0  0  0  0  0  0
    2.8800    2.5750   -0.8800 C   0  0  0  0  0  0  0  0  0  0  0  0
    0.5850    3.9640    2.0840 C   0  0  0  0  0  0  0  0  0  0  0  0
   -0.1750    4.5130    1.2530 O   0  0  0  0  0  0  0  0  0  0  0  0
    1.0180    4.7110    3.1720 O   0  0  0  0  0  0  0  0  0  0  0  0
    0.1610    2.3830   -0.1260 H   0  0  0  0  0  0  0  0  0  0  0  0
    0.7540    2.0160    2.8570 H   0  0  0  0  0  0  0  0  0  0  0  0
    3.0580    2.8320    2.5410 H   0  0  0  0  0  0  0  0  0  0  0  0
    2.6620    1.3520    1.5140 H   0  0  0  0  0  0  0  0  0  0  0  0
    3.4820    5.1000    1.1010 H   0  0  0  0  0  0  0  0  0  0  0  0
    3.9360    5.5690   -1.3670 H   0  0  0  0  0  0  0  0  0  0  0  0
    3.7650    4.1670   -3.7170 H   0  0  0  0  0  0  0  0  0  0  0  0
    3.1740    1.9620   -4.6450 H   0  0  0  0  0  0  0  0  0  0  0  0
    2.3780    0.1320   -3.0950 H   0  0  0  0  0  0  0  0  0  0  0  0
    2.2180    0.5740   -0.6730 H   0  0  0  0  0  0  0  0  0  0  0  0
  1 16  1  0  0  0  0
  1  2  1  0  0  0  0
  2 17  1  1  0  0  0
  2  3  1  0  0  0  0
  3  4  1  0  0  0  0
  3 18  1  0  0  0  0
  4  5  2  0  0  0  0
  5 20  1  0  0  0  0
  6  5  1  0  0  0  0
  6 21  1  0  0  0  0
  7  6  1  0  0  0  0
  8 22  1  0  0  0  0
  8  7  1  0  0  0  0
  9  8  2  0  0  0  0
 10 11  2  0  0  0  0
 10  9  1  0  0  0  0
 11 12  1  0  0  0  0
 12  7  2  0  0  0  0
 12  4  1  0  0  0  0
 13  2  1  0  0  0  0
 13 14  2  0  0  0  0
 15  1  1  0  0  0  0
 19  3  1  0  0  0  0
 23  9  1  0  0  0  0
 24 10  1  0  0  0  0
 25 11  1  0  0  0  0
 26 27  1  0  0  0  0
 26 38  1  0  0  0  0
 27 29  1  0  0  0  0
 28 27  2  0  0  0  0
 29 30  1  0  0  0  0
 30 31  1  0  0  0  0
 30 41  1  0  0  0  0
 31 44  1  0  0  0  0
 31 32  1  0  0  0  0
 32 33  1  0  0  0  0
 32 45  1  0  0  0  0
 33 47  1  6  0  0  0
 33 34  1  0  0  0  0
 33 35  1  0  0  0  0
 34 13  1  0  0  0  0
 35 36  2  0  0  0  0
 37 26  1  0  0  0  0
 39 28  1  0  0  0  0
 40 29  1  0  0  0  0
 42 30  1  0  0  0  0
 43 31  1  0  0  0  0
 46 32  1  0  0  0  0
 48 34  1  0  0  0  0
 49 35  1  0  0  0  0
 49 50  1  0  0  0  0
 50 61  1  0  0  0  0
 50 65  1  1  0  0  0
 51 50  1  0  0  0  0
 51 66  1  0  0  0  0
 52 51  1  0  0  0  0
 53 52  2  0  0  0  0
 53 68  1  0  0  0  0
 54 53  1  0  0  0  0
 55 54  1  0  0  0  0
 55 60  1  0  0  0  0
 56 55  2  0  0  0  0
 57 56  1  0  0  0  0
 57 58  2  0  0  0  0
 58 59  1  0  0  0  0
 59 60  2  0  0  0  0
 59 73  1  0  0  0  0
 60 52  1  0  0  0  0
 61 63  1  0  0  0  0
 62 61  2  0  0  0  0
 64 49  1  0  0  0  0
 67 51  1  0  0  0  0
 69 54  1  0  0  0  0
 70 56  1  0  0  0  0
 71 57  1  0  0  0  0
 72 58  1  0  0  0  0
M  END
$$$$
