WRY.pdb
 OpenBabel07022419153D

 70 72  0  0  1  0  0  0  0  0999 V2000
    2.4000   -1.1090    2.8780 N   0  0  0  0  0  0  0  0  0  0  0  0
    2.7450   -0.2220    1.7670 C   0  0  1  0  0  0  0  0  0  0  0  0
    4.0170   -0.7680    1.1780 C   0  0  0  0  0  0  0  0  0  0  0  0
    4.4460    0.0300    0.0270 C   0  0  0  0  0  0  0  0  0  0  0  0
    5.3310    1.0910    0.0500 C   0  0  0  0  0  0  0  0  0  0  0  0
    5.4640    1.6050   -1.1820 N   0  0  0  0  0  0  0  0  0  0  0  0
    4.6820    0.8960   -2.0100 C   0  0  0  0  0  0  0  0  0  0  0  0
    4.4230    0.9480   -3.3630 C   0  0  0  0  0  0  0  0  0  0  0  0
    3.5680    0.0590   -3.9490 C   0  0  0  0  0  0  0  0  0  0  0  0
    2.9400   -0.9080   -3.2280 C   0  0  0  0  0  0  0  0  0  0  0  0
    3.1730   -0.9870   -1.8850 C   0  0  0  0  0  0  0  0  0  0  0  0
    4.0310   -0.1010   -1.2730 C   0  0  0  0  0  0  0  0  0  0  0  0
    1.6500    0.0230    0.8450 C   0  0  0  0  0  0  0  0  0  0  0  0
    1.7200    0.9810    0.0340 O   0  0  0  0  0  0  0  0  0  0  0  0
    3.0330   -0.9480    3.6930 H   0  0  0  0  0  0  0  0  0  0  0  0
    2.3250   -2.1000    2.5860 H   0  0  0  0  0  0  0  0  0  0  0  0
    3.0700    0.7350    2.2990 H   0  0  0  0  0  0  0  0  0  0  0  0
    3.8410   -1.8310    0.8610 H   0  0  0  0  0  0  0  0  0  0  0  0
    4.8300   -0.7750    1.9530 H   0  0  0  0  0  0  0  0  0  0  0  0
    5.8380    1.4450    0.9500 H   0  0  0  0  0  0  0  0  0  0  0  0
    6.0690    2.4070   -1.4360 H   0  0  0  0  0  0  0  0  0  0  0  0
    4.9240    1.7180   -3.9340 H   0  0  0  0  0  0  0  0  0  0  0  0
    3.3820    0.1220   -5.0180 H   0  0  0  0  0  0  0  0  0  0  0  0
    2.2630   -1.6110   -3.6980 H   0  0  0  0  0  0  0  0  0  0  0  0
    2.6740   -1.7590   -1.2980 H   0  0  0  0  0  0  0  0  0  0  0  0
   -2.1400    2.8260   -2.0930 N   0  0  0  0  0  0  0  0  0  0  0  0
   -2.3990    1.5540   -2.6340 C   0  0  0  0  0  0  0  0  0  0  0  0
   -3.6410    1.1790   -2.8180 N   0  0  0  0  0  0  0  0  0  0  0  0
   -1.3260    0.6900   -2.9730 N   0  0  0  0  0  0  0  0  0  0  0  0
   -1.4800   -0.6910   -3.2230 C   0  0  0  0  0  0  0  0  0  0  0  0
   -1.7990   -1.6070   -2.0960 C   0  0  0  0  0  0  0  0  0  0  0  0
   -0.8150   -1.6740   -0.9920 C   0  0  0  0  0  0  0  0  0  0  0  0
   -0.6060   -0.4570   -0.1730 C   0  0  2  0  0  0  0  0  0  0  0  0
    0.4700   -0.7670    0.7950 N   0  0  0  0  0  0  0  0  0  0  0  0
   -1.8490   -0.1530    0.6180 C   0  0  0  0  0  0  0  0  0  0  0  0
   -2.9350    0.0720    0.0460 O   0  0  0  0  0  0  0  0  0  0  0  0
   -1.7650    3.5660   -2.7120 H   0  0  0  0  0  0  0  0  0  0  0  0
   -2.3250    3.0140   -1.0850 H   0  0  0  0  0  0  0  0  0  0  0  0
   -3.8360    0.2310   -3.2210 H   0  0  0  0  0  0  0  0  0  0  0  0
   -0.3560    1.1240   -3.0390 H   0  0  0  0  0  0  0  0  0  0  0  0
   -0.5420   -1.0590   -3.7600 H   0  0  0  0  0  0  0  0  0  0  0  0
   -2.2630   -0.8510   -4.0430 H   0  0  0  0  0  0  0  0  0  0  0  0
   -2.8360   -1.3890   -1.7640 H   0  0  0  0  0  0  0  0  0  0  0  0
   -1.8650   -2.6460   -2.5410 H   0  0  0  0  0  0  0  0  0  0  0  0
    0.1530   -2.0180   -1.4290 H   0  0  0  0  0  0  0  0  0  0  0  0
   -1.1420   -2.5220   -0.3150 H   0  0  0  0  0  0  0  0  0  0  0  0
   -0.2700    0.3970   -0.7610 H   0  0  0  0  0  0  0  0  0  0  0  0
    0.4030   -1.5630    1.4630 H   0  0  0  0  0  0  0  0  0  0  0  0
   -4.0150   -6.0180    1.6780 O   0  0  0  0  0  0  0  0  0  0  0  0
   -3.7670   -4.7600    2.2360 C   0  0  0  0  0  0  0  0  0  0  0  0
   -4.8390   -3.9310    2.4990 C   0  0  0  0  0  0  0  0  0  0  0  0
   -4.5950   -2.6930    3.0480 C   0  0  0  0  0  0  0  0  0  0  0  0
   -3.3170   -2.2590    3.3420 C   0  0  0  0  0  0  0  0  0  0  0  0
   -3.1030   -0.9120    3.9350 C   0  0  0  0  0  0  0  0  0  0  0  0
   -2.9080    0.1560    2.8790 C   0  0  2  0  0  0  0  0  0  0  0  0
   -1.7520   -0.1290    2.0450 N   0  0  0  0  0  0  0  0  0  0  0  0
   -2.6520    1.4330    3.6330 C   0  0  0  0  0  0  0  0  0  0  0  0
   -1.5610    2.0510    3.4680 O   0  0  0  0  0  0  0  0  0  0  0  0
   -2.2800   -3.1230    3.0610 C   0  0  0  0  0  0  0  0  0  0  0  0
   -2.4750   -4.3640    2.5150 C   0  0  0  0  0  0  0  0  0  0  0  0
   -3.5580    1.9680    4.5060 O   0  0  0  0  0  0  0  0  0  0  0  0
   -4.4990   -6.0310    0.7820 H   0  0  0  0  0  0  0  0  0  0  0  0
   -5.8610   -4.2700    2.2670 H   0  0  0  0  0  0  0  0  0  0  0  0
   -5.4450   -2.0270    3.2600 H   0  0  0  0  0  0  0  0  0  0  0  0
   -2.1790   -0.9330    4.5480 H   0  0  0  0  0  0  0  0  0  0  0  0
   -3.9480   -0.6210    4.5640 H   0  0  0  0  0  0  0  0  0  0  0  0
   -3.8100    0.3380    2.2810 H   0  0  0  0  0  0  0  0  0  0  0  0
   -0.8350   -0.3190    2.4970 H   0  0  0  0  0  0  0  0  0  0  0  0
   -1.2730   -2.7990    3.2850 H   0  0  0  0  0  0  0  0  0  0  0  0
   -1.6760   -5.0620    2.2850 H   0  0  0  0  0  0  0  0  0  0  0  0
  1 15  1  0  0  0  0
  2 17  1  1  0  0  0
  2  1  1  0  0  0  0
  3  2  1  0  0  0  0
  3 19  1  0  0  0  0
  4  5  2  0  0  0  0
  4  3  1  0  0  0  0
  5 20  1  0  0  0  0
  6  5  1  0  0  0  0
  7 12  1  0  0  0  0
  7  6  1  0  0  0  0
  8  7  2  0  0  0  0
  9  8  1  0  0  0  0
  9 10  2  0  0  0  0
 10 11  1  0  0  0  0
 11 25  1  0  0  0  0
 11 12  2  0  0  0  0
 12  4  1  0  0  0  0
 13  2  1  0  0  0  0
 14 13  2  0  0  0  0
 16  1  1  0  0  0  0
 18  3  1  0  0  0  0
 21  6  1  0  0  0  0
 22  8  1  0  0  0  0
 23  9  1  0  0  0  0
 24 10  1  0  0  0  0
 26 38  1  0  0  0  0
 27 26  1  0  0  0  0
 28 27  2  0  0  0  0
 29 27  1  0  0  0  0
 30 29  1  0  0  0  0
 30 31  1  0  0  0  0
 31 43  1  0  0  0  0
 31 32  1  0  0  0  0
 32 46  1  0  0  0  0
 32 33  1  0  0  0  0
 33 47  1  6  0  0  0
 33 35  1  0  0  0  0
 33 34  1  0  0  0  0
 34 13  1  0  0  0  0
 34 48  1  0  0  0  0
 35 56  1  0  0  0  0
 36 35  2  0  0  0  0
 37 26  1  0  0  0  0
 39 28  1  0  0  0  0
 40 29  1  0  0  0  0
 41 30  1  0  0  0  0
 42 30  1  0  0  0  0
 44 31  1  0  0  0  0
 45 32  1  0  0  0  0
 49 50  1  0  0  0  0
 50 51  2  0  0  0  0
 50 60  1  0  0  0  0
 51 52  1  0  0  0  0
 52 64  1  0  0  0  0
 52 53  2  0  0  0  0
 53 54  1  0  0  0  0
 54 65  1  0  0  0  0
 54 66  1  0  0  0  0
 55 67  1  6  0  0  0
 55 57  1  0  0  0  0
 55 54  1  0  0  0  0
 56 68  1  0  0  0  0
 56 55  1  0  0  0  0
 57 61  1  0  0  0  0
 58 57  2  0  0  0  0
 59 69  1  0  0  0  0
 59 53  1  0  0  0  0
 60 59  2  0  0  0  0
 62 49  1  0  0  0  0
 63 51  1  0  0  0  0
 70 60  1  0  0  0  0
M  END
$$$$
