WSA.pdb
 OpenBabel07022419183D

 47 48  0  0  1  0  0  0  0  0999 V2000
    1.8080   -2.5670   -1.1710 N   0  0  0  0  0  0  0  0  0  0  0  0
    2.0350   -1.5540   -0.1570 C   0  0  1  0  0  0  0  0  0  0  0  0
    3.1100   -0.6220   -0.6960 C   0  0  0  0  0  0  0  0  0  0  0  0
    3.3790    0.4330    0.3040 C   0  0  0  0  0  0  0  0  0  0  0  0
    2.9250    1.7270    0.2050 C   0  0  0  0  0  0  0  0  0  0  0  0
    3.3680    2.3760    1.2900 N   0  0  0  0  0  0  0  0  0  0  0  0
    4.0860    1.5710    2.0880 C   0  0  0  0  0  0  0  0  0  0  0  0
    4.7510    1.7350    3.2920 C   0  0  0  0  0  0  0  0  0  0  0  0
    5.4360    0.7180    3.9210 C   0  0  0  0  0  0  0  0  0  0  0  0
    5.4420   -0.5120    3.2980 C   0  0  0  0  0  0  0  0  0  0  0  0
    4.7810   -0.7060    2.0840 C   0  0  0  0  0  0  0  0  0  0  0  0
    4.1050    0.3360    1.4840 C   0  0  0  0  0  0  0  0  0  0  0  0
    0.7870   -0.8060    0.1410 C   0  0  0  0  0  0  0  0  0  0  0  0
    0.7300    0.1130    0.9930 O   0  0  0  0  0  0  0  0  0  0  0  0
    2.7280   -2.8150   -1.6200 H   0  0  0  0  0  0  0  0  0  0  0  0
    1.3740   -3.4200   -0.7220 H   0  0  0  0  0  0  0  0  0  0  0  0
    2.4390   -2.0160    0.7630 H   0  0  0  0  0  0  0  0  0  0  0  0
    2.7470   -0.1520   -1.6220 H   0  0  0  0  0  0  0  0  0  0  0  0
    4.0140   -1.2300   -0.9070 H   0  0  0  0  0  0  0  0  0  0  0  0
    2.3380    2.1450   -0.5730 H   0  0  0  0  0  0  0  0  0  0  0  0
    3.1980    3.3970    1.5290 H   0  0  0  0  0  0  0  0  0  0  0  0
    4.7200    2.7170    3.7470 H   0  0  0  0  0  0  0  0  0  0  0  0
    5.9540    0.8750    4.8740 H   0  0  0  0  0  0  0  0  0  0  0  0
    5.9740   -1.3220    3.7760 H   0  0  0  0  0  0  0  0  0  0  0  0
    4.7810   -1.6770    1.5850 H   0  0  0  0  0  0  0  0  0  0  0  0
   -3.3080    1.0100   -1.1820 O   0  0  0  0  0  0  0  0  0  0  0  0
   -2.1310    0.3530   -1.4970 C   0  0  0  0  0  0  0  0  0  0  0  0
   -1.6580   -0.4040   -0.2820 C   0  0  2  0  0  0  0  0  0  0  0  0
   -0.4190   -1.1130   -0.5470 N   0  0  0  0  0  0  0  0  0  0  0  0
   -2.6380   -1.3570    0.2440 C   0  0  0  0  0  0  0  0  0  0  0  0
   -2.3030   -2.5780    0.3410 O   0  0  0  0  0  0  0  0  0  0  0  0
   -3.1280    1.8940   -0.7290 H   0  0  0  0  0  0  0  0  0  0  0  0
   -1.3770    1.0890   -1.7660 H   0  0  0  0  0  0  0  0  0  0  0  0
   -2.3600   -0.3180   -2.3500 H   0  0  0  0  0  0  0  0  0  0  0  0
   -1.4380    0.3440    0.5060 H   0  0  0  0  0  0  0  0  0  0  0  0
   -0.4550   -1.8620   -1.2690 H   0  0  0  0  0  0  0  0  0  0  0  0
   -5.2070   -1.8450    2.6230 C   0  0  0  0  0  0  0  0  0  0  0  0
   -4.8410   -2.0670    1.1650 C   0  0  2  0  0  0  0  0  0  0  0  0
   -3.9550   -1.0450    0.6660 N   0  0  0  0  0  0  0  0  0  0  0  0
   -6.0540   -2.1030    0.3240 C   0  0  0  0  0  0  0  0  0  0  0  0
   -6.9430   -2.9370    0.5850 O   0  0  0  0  0  0  0  0  0  0  0  0
   -6.2080   -1.2330   -0.7320 O   0  0  0  0  0  0  0  0  0  0  0  0
   -5.3590   -0.7930    2.8870 H   0  0  0  0  0  0  0  0  0  0  0  0
   -6.2080   -2.3530    2.7480 H   0  0  0  0  0  0  0  0  0  0  0  0
   -4.5180   -2.3990    3.2820 H   0  0  0  0  0  0  0  0  0  0  0  0
   -4.3770   -3.0750    1.1350 H   0  0  0  0  0  0  0  0  0  0  0  0
   -4.2730   -0.0730    0.6140 H   0  0  0  0  0  0  0  0  0  0  0  0
  1 16  1  0  0  0  0
  1  2  1  0  0  0  0
  2 13  1  0  0  0  0
  2 17  1  1  0  0  0
  3  2  1  0  0  0  0
  3  4  1  0  0  0  0
  4 12  1  0  0  0  0
  5  4  2  0  0  0  0
  5  6  1  0  0  0  0
  6 21  1  0  0  0  0
  6  7  1  0  0  0  0
  7  8  1  0  0  0  0
  8 22  1  0  0  0  0
  8  9  2  0  0  0  0
  9 23  1  0  0  0  0
 10 24  1  0  0  0  0
 10  9  1  0  0  0  0
 11 10  2  0  0  0  0
 12 11  1  0  0  0  0
 12  7  2  0  0  0  0
 13 14  2  0  0  0  0
 15  1  1  0  0  0  0
 18  3  1  0  0  0  0
 19  3  1  0  0  0  0
 20  5  1  0  0  0  0
 25 11  1  0  0  0  0
 26 32  1  0  0  0  0
 27 26  1  0  0  0  0
 27 28  1  0  0  0  0
 28 30  1  0  0  0  0
 28 35  1  1  0  0  0
 29 28  1  0  0  0  0
 29 13  1  0  0  0  0
 30 31  2  0  0  0  0
 30 39  1  0  0  0  0
 33 27  1  0  0  0  0
 34 27  1  0  0  0  0
 36 29  1  0  0  0  0
 37 44  1  0  0  0  0
 37 43  1  0  0  0  0
 37 45  1  0  0  0  0
 38 46  1  6  0  0  0
 38 37  1  0  0  0  0
 39 38  1  0  0  0  0
 40 41  1  0  0  0  0
 40 38  1  0  0  0  0
 42 40  2  0  0  0  0
 47 39  1  0  0  0  0
M  END
$$$$
