WSC.pdb
 OpenBabel07022419183D

 48 49  0  0  1  0  0  0  0  0999 V2000
    0.6870   -3.1550    3.0720 N   0  0  0  0  0  0  0  0  0  0  0  0
    1.2390   -1.7830    2.8550 C   0  0  1  0  0  0  0  0  0  0  0  0
    1.5310   -1.7070    1.4010 C   0  0  0  0  0  0  0  0  0  0  0  0
    2.1800   -0.4790    0.9160 C   0  0  0  0  0  0  0  0  0  0  0  0
    2.0720    0.8390    1.1840 C   0  0  0  0  0  0  0  0  0  0  0  0
    2.9510    1.5490    0.4680 N   0  0  0  0  0  0  0  0  0  0  0  0
    3.6610    0.7140   -0.2900 C   0  0  0  0  0  0  0  0  0  0  0  0
    4.6770    0.9550   -1.2250 C   0  0  0  0  0  0  0  0  0  0  0  0
    5.2460   -0.0830   -1.9120 C   0  0  0  0  0  0  0  0  0  0  0  0
    4.8160   -1.3640   -1.6770 C   0  0  0  0  0  0  0  0  0  0  0  0
    3.8070   -1.5760   -0.7450 C   0  0  0  0  0  0  0  0  0  0  0  0
    3.2120   -0.5580   -0.0400 C   0  0  0  0  0  0  0  0  0  0  0  0
    0.0710   -0.9340    3.2780 C   0  0  0  0  0  0  0  0  0  0  0  0
   -0.2610   -0.7620    4.4720 O   0  0  0  0  0  0  0  0  0  0  0  0
    1.4660   -3.8380    3.1670 H   0  0  0  0  0  0  0  0  0  0  0  0
    0.0320   -3.1590    3.8720 H   0  0  0  0  0  0  0  0  0  0  0  0
    2.1030   -1.6920    3.4940 H   0  0  0  0  0  0  0  0  0  0  0  0
    2.2530   -2.5680    1.2070 H   0  0  0  0  0  0  0  0  0  0  0  0
    0.6290   -2.0130    0.7920 H   0  0  0  0  0  0  0  0  0  0  0  0
    1.4020    1.2760    1.8760 H   0  0  0  0  0  0  0  0  0  0  0  0
    3.1010    2.5960    0.4640 H   0  0  0  0  0  0  0  0  0  0  0  0
    5.0290    1.9750   -1.4200 H   0  0  0  0  0  0  0  0  0  0  0  0
    6.0350    0.1590   -2.6370 H   0  0  0  0  0  0  0  0  0  0  0  0
    5.2620   -2.1690   -2.2180 H   0  0  0  0  0  0  0  0  0  0  0  0
    3.4730   -2.5820   -0.5620 H   0  0  0  0  0  0  0  0  0  0  0  0
   -0.6680    2.6090    2.9670 O   0  0  0  0  0  0  0  0  0  0  0  0
   -1.6270    2.0020    2.2150 C   0  0  0  0  0  0  0  0  0  0  0  0
   -1.8330    0.5170    2.5060 C   0  0  2  0  0  0  0  0  0  0  0  0
   -0.6960   -0.3030    2.2760 N   0  0  0  0  0  0  0  0  0  0  0  0
   -2.8920    0.1460    1.5410 C   0  0  0  0  0  0  0  0  0  0  0  0
   -3.9630    0.8380    1.6490 O   0  0  0  0  0  0  0  0  0  0  0  0
   -0.1370    3.2230    2.3770 H   0  0  0  0  0  0  0  0  0  0  0  0
   -2.6060    2.4700    2.4600 H   0  0  0  0  0  0  0  0  0  0  0  0
   -1.5190    2.1620    1.1140 H   0  0  0  0  0  0  0  0  0  0  0  0
   -2.2050    0.4880    3.5530 H   0  0  0  0  0  0  0  0  0  0  0  0
   -0.4350   -0.4190    1.2420 H   0  0  0  0  0  0  0  0  0  0  0  0
   -2.8380   -0.8570    0.5510 N   0  0  0  0  0  0  0  0  0  0  0  0
   -3.9370   -1.1340   -0.3490 C   0  0  1  0  0  0  0  0  0  0  0  0
   -3.6140   -0.7850   -1.7800 C   0  0  0  0  0  0  0  0  0  0  0  0
   -2.1920   -1.7080   -2.4180 S   0  0  0  0  0  0  0  0  0  0  0  0
   -4.4670   -2.5040   -0.2550 C   0  0  0  0  0  0  0  0  0  0  0  0
   -5.4390   -2.8260   -1.0210 O   0  0  0  0  0  0  0  0  0  0  0  0
   -4.0210   -3.4960    0.5850 O   0  0  0  0  0  0  0  0  0  0  0  0
   -1.9590   -1.4080    0.4850 H   0  0  0  0  0  0  0  0  0  0  0  0
   -4.7650   -0.4430   -0.0580 H   0  0  0  0  0  0  0  0  0  0  0  0
   -4.4840   -1.0880   -2.4120 H   0  0  0  0  0  0  0  0  0  0  0  0
   -3.4980    0.2950   -1.9580 H   0  0  0  0  0  0  0  0  0  0  0  0
   -2.2770   -3.0490   -2.0830 H   0  0  0  0  0  0  0  0  0  0  0  0
  1 15  1  0  0  0  0
  1 16  1  0  0  0  0
  2  1  1  0  0  0  0
  2 13  1  0  0  0  0
  2 17  1  1  0  0  0
  3  2  1  0  0  0  0
  4  5  2  0  0  0  0
  4  3  1  0  0  0  0
  5 20  1  0  0  0  0
  6  5  1  0  0  0  0
  7 12  1  0  0  0  0
  7  6  1  0  0  0  0
  8  7  2  0  0  0  0
  9 10  2  0  0  0  0
  9  8  1  0  0  0  0
 10 11  1  0  0  0  0
 11 25  1  0  0  0  0
 11 12  2  0  0  0  0
 12  4  1  0  0  0  0
 13 14  2  0  0  0  0
 18  3  1  0  0  0  0
 19  3  1  0  0  0  0
 21  6  1  0  0  0  0
 22  8  1  0  0  0  0
 23  9  1  0  0  0  0
 24 10  1  0  0  0  0
 27 33  1  0  0  0  0
 27 28  1  0  0  0  0
 27 26  1  0  0  0  0
 28 35  1  1  0  0  0
 29 28  1  0  0  0  0
 29 13  1  0  0  0  0
 30 31  2  0  0  0  0
 30 28  1  0  0  0  0
 32 26  1  0  0  0  0
 34 27  1  0  0  0  0
 36 29  1  0  0  0  0
 37 30  1  0  0  0  0
 38 41  1  0  0  0  0
 38 45  1  1  0  0  0
 38 37  1  0  0  0  0
 39 38  1  0  0  0  0
 40 48  1  0  0  0  0
 40 39  1  0  0  0  0
 41 43  1  0  0  0  0
 42 41  2  0  0  0  0
 44 37  1  0  0  0  0
 46 39  1  0  0  0  0
 47 39  1  0  0  0  0
M  END
$$$$
