WSE.pdb
 OpenBabel07022419183D

 53 54  0  0  1  0  0  0  0  0999 V2000
    2.0050   -1.7180   -1.3460 N   0  0  0  0  0  0  0  0  0  0  0  0
    2.3110   -1.2400    0.0210 C   0  0  1  0  0  0  0  0  0  0  0  0
    3.5360   -0.3850   -0.0920 C   0  0  0  0  0  0  0  0  0  0  0  0
    4.0040    0.2260    1.1640 C   0  0  0  0  0  0  0  0  0  0  0  0
    4.9660   -0.2580    2.0260 C   0  0  0  0  0  0  0  0  0  0  0  0
    5.1150    0.5400    3.0900 N   0  0  0  0  0  0  0  0  0  0  0  0
    4.2450    1.5800    2.9490 C   0  0  0  0  0  0  0  0  0  0  0  0
    3.9980    2.6800    3.7420 C   0  0  0  0  0  0  0  0  0  0  0  0
    3.0610    3.6500    3.4050 C   0  0  0  0  0  0  0  0  0  0  0  0
    2.3810    3.4490    2.2140 C   0  0  0  0  0  0  0  0  0  0  0  0
    2.6120    2.3570    1.4080 C   0  0  0  0  0  0  0  0  0  0  0  0
    3.5460    1.4060    1.7620 C   0  0  0  0  0  0  0  0  0  0  0  0
    1.1270   -0.6490    0.5950 C   0  0  0  0  0  0  0  0  0  0  0  0
    1.1370   -0.3960    1.8510 O   0  0  0  0  0  0  0  0  0  0  0  0
    2.8770   -2.1010   -1.7860 H   0  0  0  0  0  0  0  0  0  0  0  0
    1.6590   -0.9280   -1.9330 H   0  0  0  0  0  0  0  0  0  0  0  0
    2.6370   -2.1860    0.5370 H   0  0  0  0  0  0  0  0  0  0  0  0
    3.3670    0.4380   -0.8520 H   0  0  0  0  0  0  0  0  0  0  0  0
    4.3760   -0.9770   -0.5700 H   0  0  0  0  0  0  0  0  0  0  0  0
    5.5440   -1.1730    1.8800 H   0  0  0  0  0  0  0  0  0  0  0  0
    5.7700    0.4150    3.8980 H   0  0  0  0  0  0  0  0  0  0  0  0
    4.5360    2.8360    4.6820 H   0  0  0  0  0  0  0  0  0  0  0  0
    2.8680    4.5160    4.0300 H   0  0  0  0  0  0  0  0  0  0  0  0
    1.6450    4.1870    1.9230 H   0  0  0  0  0  0  0  0  0  0  0  0
    2.0670    2.2090    0.4660 H   0  0  0  0  0  0  0  0  0  0  0  0
   -0.6460    2.5370    0.1690 O   0  0  0  0  0  0  0  0  0  0  0  0
   -1.6620    1.5960    0.0590 C   0  0  0  0  0  0  0  0  0  0  0  0
   -1.2140    0.2800    0.5950 C   0  0  2  0  0  0  0  0  0  0  0  0
   -0.0830   -0.2980   -0.0500 N   0  0  0  0  0  0  0  0  0  0  0  0
   -2.3360   -0.7230    0.4880 C   0  0  0  0  0  0  0  0  0  0  0  0
   -3.4670   -0.4940    0.9960 O   0  0  0  0  0  0  0  0  0  0  0  0
   -0.5650    2.7960    1.1200 H   0  0  0  0  0  0  0  0  0  0  0  0
   -2.1350    1.5680   -0.9320 H   0  0  0  0  0  0  0  0  0  0  0  0
   -2.4720    1.9610    0.7600 H   0  0  0  0  0  0  0  0  0  0  0  0
   -1.0440    0.4190    1.6960 H   0  0  0  0  0  0  0  0  0  0  0  0
   -0.1400   -0.4800   -1.0730 H   0  0  0  0  0  0  0  0  0  0  0  0
   -2.1670   -1.9540   -0.1830 N   0  0  0  0  0  0  0  0  0  0  0  0
   -3.2190   -2.9680   -0.3170 C   0  0  1  0  0  0  0  0  0  0  0  0
   -3.6570   -3.1070   -1.7370 C   0  0  0  0  0  0  0  0  0  0  0  0
   -4.7250   -4.1370   -1.9360 C   0  0  0  0  0  0  0  0  0  0  0  0
   -5.9720   -3.9140   -1.2140 C   0  0  0  0  0  0  0  0  0  0  0  0
   -6.9160   -4.7810   -1.2050 O   0  0  0  0  0  0  0  0  0  0  0  0
   -2.7550   -4.2150    0.3100 C   0  0  0  0  0  0  0  0  0  0  0  0
   -3.4000   -5.2870    0.3950 O   0  0  0  0  0  0  0  0  0  0  0  0
   -6.2610   -2.7610   -0.4770 O   0  0  0  0  0  0  0  0  0  0  0  0
   -1.4690   -4.2730    0.8920 O   0  0  0  0  0  0  0  0  0  0  0  0
   -1.2370   -2.1550   -0.6070 H   0  0  0  0  0  0  0  0  0  0  0  0
   -4.1230   -2.6190    0.2660 H   0  0  0  0  0  0  0  0  0  0  0  0
   -4.0150   -2.1060   -2.0980 H   0  0  0  0  0  0  0  0  0  0  0  0
   -2.7770   -3.4350   -2.3470 H   0  0  0  0  0  0  0  0  0  0  0  0
   -4.3490   -5.1700   -1.6880 H   0  0  0  0  0  0  0  0  0  0  0  0
   -4.9780   -4.2360   -3.0370 H   0  0  0  0  0  0  0  0  0  0  0  0
   -6.6920   -2.8580    0.4540 H   0  0  0  0  0  0  0  0  0  0  0  0
  1  2  1  0  0  0  0
  2 17  1  1  0  0  0
  2 13  1  0  0  0  0
  3  2  1  0  0  0  0
  3  4  1  0  0  0  0
  4 12  1  0  0  0  0
  4  5  2  0  0  0  0
  5  6  1  0  0  0  0
  6 21  1  0  0  0  0
  7  6  1  0  0  0  0
  7  8  1  0  0  0  0
  8 22  1  0  0  0  0
  9  8  2  0  0  0  0
  9 23  1  0  0  0  0
 10  9  1  0  0  0  0
 11 12  1  0  0  0  0
 11 10  2  0  0  0  0
 12  7  2  0  0  0  0
 13 14  2  0  0  0  0
 15  1  1  0  0  0  0
 16  1  1  0  0  0  0
 18  3  1  0  0  0  0
 19  3  1  0  0  0  0
 20  5  1  0  0  0  0
 24 10  1  0  0  0  0
 25 11  1  0  0  0  0
 26 32  1  0  0  0  0
 27 26  1  0  0  0  0
 27 28  1  0  0  0  0
 27 34  1  0  0  0  0
 28 35  1  1  0  0  0
 29 13  1  0  0  0  0
 29 28  1  0  0  0  0
 30 28  1  0  0  0  0
 30 31  2  0  0  0  0
 33 27  1  0  0  0  0
 36 29  1  0  0  0  0
 37 30  1  0  0  0  0
 38 37  1  0  0  0  0
 38 48  1  1  0  0  0
 38 43  1  0  0  0  0
 39 38  1  0  0  0  0
 40 39  1  0  0  0  0
 40 51  1  0  0  0  0
 40 41  1  0  0  0  0
 41 42  2  0  0  0  0
 41 45  1  0  0  0  0
 43 44  2  0  0  0  0
 43 46  1  0  0  0  0
 45 53  1  0  0  0  0
 47 37  1  0  0  0  0
 49 39  1  0  0  0  0
 50 39  1  0  0  0  0
 52 40  1  0  0  0  0
M  END
$$$$
