WSF.pdb
 OpenBabel07022419183D

 57 59  0  0  1  0  0  0  0  0999 V2000
    1.9720   -0.8240   -0.2300 N   0  0  0  0  0  0  0  0  0  0  0  0
    1.5510   -1.8390    0.7030 C   0  0  1  0  0  0  0  0  0  0  0  0
    2.6330   -2.1450    1.6730 C   0  0  0  0  0  0  0  0  0  0  0  0
    3.0840   -1.0180    2.4800 C   0  0  0  0  0  0  0  0  0  0  0  0
    2.6650   -0.7550    3.7580 C   0  0  0  0  0  0  0  0  0  0  0  0
    3.2650    0.3680    4.1800 N   0  0  0  0  0  0  0  0  0  0  0  0
    4.0790    0.8720    3.2220 C   0  0  0  0  0  0  0  0  0  0  0  0
    4.9010    1.9890    3.1900 C   0  0  0  0  0  0  0  0  0  0  0  0
    5.6330    2.2420    2.0550 C   0  0  0  0  0  0  0  0  0  0  0  0
    5.5280    1.3820    0.9850 C   0  0  0  0  0  0  0  0  0  0  0  0
    4.7050    0.2790    1.0400 C   0  0  0  0  0  0  0  0  0  0  0  0
    3.9650   -0.0020    2.1500 C   0  0  0  0  0  0  0  0  0  0  0  0
    0.2750   -1.4540    1.3220 C   0  0  0  0  0  0  0  0  0  0  0  0
   -0.2920   -2.1290    2.2270 O   0  0  0  0  0  0  0  0  0  0  0  0
    1.9790    0.1270    0.1570 H   0  0  0  0  0  0  0  0  0  0  0  0
    1.5660   -0.9340   -1.1700 H   0  0  0  0  0  0  0  0  0  0  0  0
    1.3220   -2.7870    0.1270 H   0  0  0  0  0  0  0  0  0  0  0  0
    3.5250   -2.4810    1.0660 H   0  0  0  0  0  0  0  0  0  0  0  0
    2.4040   -3.0110    2.3350 H   0  0  0  0  0  0  0  0  0  0  0  0
    1.9600   -1.3870    4.2950 H   0  0  0  0  0  0  0  0  0  0  0  0
    3.1290    0.8080    5.1270 H   0  0  0  0  0  0  0  0  0  0  0  0
    4.9810    2.6620    4.0300 H   0  0  0  0  0  0  0  0  0  0  0  0
    6.2880    3.1260    2.0220 H   0  0  0  0  0  0  0  0  0  0  0  0
    6.1320    1.6320    0.1110 H   0  0  0  0  0  0  0  0  0  0  0  0
    4.6530   -0.3720    0.1920 H   0  0  0  0  0  0  0  0  0  0  0  0
   -2.8230    1.9450    2.5610 O   0  0  0  0  0  0  0  0  0  0  0  0
   -1.6040    1.5640    2.0070 C   0  0  0  0  0  0  0  0  0  0  0  0
   -1.6620    0.1410    1.5060 C   0  0  2  0  0  0  0  0  0  0  0  0
   -0.3980   -0.2800    0.9240 N   0  0  0  0  0  0  0  0  0  0  0  0
   -2.6690    0.1050    0.4090 C   0  0  0  0  0  0  0  0  0  0  0  0
   -3.8780    0.4280    0.6420 O   0  0  0  0  0  0  0  0  0  0  0  0
   -2.9090    1.6930    3.5160 H   0  0  0  0  0  0  0  0  0  0  0  0
   -1.3810    2.2800    1.2100 H   0  0  0  0  0  0  0  0  0  0  0  0
   -0.8560    1.5960    2.8370 H   0  0  0  0  0  0  0  0  0  0  0  0
   -1.9720   -0.5590    2.2920 H   0  0  0  0  0  0  0  0  0  0  0  0
   -0.0160    0.3550    0.1800 H   0  0  0  0  0  0  0  0  0  0  0  0
   -2.3340   -0.2810   -0.9190 N   0  0  0  0  0  0  0  0  0  0  0  0
   -3.2210   -0.3390   -2.0310 C   0  0  1  0  0  0  0  0  0  0  0  0
   -4.1170   -1.5400   -1.9450 C   0  0  0  0  0  0  0  0  0  0  0  0
   -3.2040   -2.7370   -1.9400 C   0  0  0  0  0  0  0  0  0  0  0  0
   -2.8400   -3.3250   -3.1300 C   0  0  0  0  0  0  0  0  0  0  0  0
   -2.0090   -4.4150   -3.1560 C   0  0  0  0  0  0  0  0  0  0  0  0
   -1.5190   -4.9450   -1.9610 C   0  0  0  0  0  0  0  0  0  0  0  0
   -1.8740   -4.3690   -0.7570 C   0  0  0  0  0  0  0  0  0  0  0  0
   -2.7240   -3.2580   -0.7750 C   0  0  0  0  0  0  0  0  0  0  0  0
   -3.9390    0.9430   -2.1990 C   0  0  0  0  0  0  0  0  0  0  0  0
   -4.8250    1.1250   -3.0730 O   0  0  0  0  0  0  0  0  0  0  0  0
   -3.6290    1.9950   -1.3650 O   0  0  0  0  0  0  0  0  0  0  0  0
   -1.3220   -0.5490   -1.0660 H   0  0  0  0  0  0  0  0  0  0  0  0
   -2.5690   -0.4730   -2.9600 H   0  0  0  0  0  0  0  0  0  0  0  0
   -4.7860   -1.5760   -2.8210 H   0  0  0  0  0  0  0  0  0  0  0  0
   -4.6520   -1.5730   -0.9740 H   0  0  0  0  0  0  0  0  0  0  0  0
   -3.2340   -2.8950   -4.0550 H   0  0  0  0  0  0  0  0  0  0  0  0
   -1.7030   -4.9010   -4.0780 H   0  0  0  0  0  0  0  0  0  0  0  0
   -0.8550   -5.8180   -1.9900 H   0  0  0  0  0  0  0  0  0  0  0  0
   -1.4870   -4.7910    0.1480 H   0  0  0  0  0  0  0  0  0  0  0  0
   -2.9950   -2.8140    0.1800 H   0  0  0  0  0  0  0  0  0  0  0  0
  1 15  1  0  0  0  0
  1  2  1  0  0  0  0
  2 17  1  6  0  0  0
  2 13  1  0  0  0  0
  2  3  1  0  0  0  0
  3 19  1  0  0  0  0
  3  4  1  0  0  0  0
  4  5  2  0  0  0  0
  5  6  1  0  0  0  0
  5 20  1  0  0  0  0
  6 21  1  0  0  0  0
  7  6  1  0  0  0  0
  8  7  1  0  0  0  0
  8 22  1  0  0  0  0
  9  8  2  0  0  0  0
 10 11  2  0  0  0  0
 10  9  1  0  0  0  0
 11 12  1  0  0  0  0
 12  4  1  0  0  0  0
 12  7  2  0  0  0  0
 13 14  2  0  0  0  0
 16  1  1  0  0  0  0
 18  3  1  0  0  0  0
 23  9  1  0  0  0  0
 24 10  1  0  0  0  0
 25 11  1  0  0  0  0
 26 32  1  0  0  0  0
 27 26  1  0  0  0  0
 27 34  1  0  0  0  0
 28 27  1  0  0  0  0
 28 35  1  1  0  0  0
 29 13  1  0  0  0  0
 29 28  1  0  0  0  0
 30 31  2  0  0  0  0
 30 28  1  0  0  0  0
 33 27  1  0  0  0  0
 36 29  1  0  0  0  0
 37 30  1  0  0  0  0
 38 50  1  6  0  0  0
 38 39  1  0  0  0  0
 38 37  1  0  0  0  0
 39 40  1  0  0  0  0
 39 52  1  0  0  0  0
 40 45  1  0  0  0  0
 41 40  2  0  0  0  0
 42 41  1  0  0  0  0
 42 43  2  0  0  0  0
 43 44  1  0  0  0  0
 44 56  1  0  0  0  0
 45 44  2  0  0  0  0
 45 57  1  0  0  0  0
 46 38  1  0  0  0  0
 46 48  1  0  0  0  0
 47 46  2  0  0  0  0
 49 37  1  0  0  0  0
 51 39  1  0  0  0  0
 53 41  1  0  0  0  0
 54 42  1  0  0  0  0
 55 43  1  0  0  0  0
M  END
$$$$
