WSG.pdb
 OpenBabel07022419183D

 44 45  0  0  1  0  0  0  0  0999 V2000
    1.1360   -1.6770   -0.8800 N   0  0  0  0  0  0  0  0  0  0  0  0
    1.5860   -2.1320    0.4160 C   0  0  1  0  0  0  0  0  0  0  0  0
    2.9970   -1.6740    0.7110 C   0  0  0  0  0  0  0  0  0  0  0  0
    3.1320   -0.2040    0.7150 C   0  0  0  0  0  0  0  0  0  0  0  0
    3.1130    0.5620    1.8880 C   0  0  0  0  0  0  0  0  0  0  0  0
    3.2290    1.8310    1.4830 N   0  0  0  0  0  0  0  0  0  0  0  0
    3.3190    1.9110    0.1450 C   0  0  0  0  0  0  0  0  0  0  0  0
    3.4560    2.9420   -0.7600 C   0  0  0  0  0  0  0  0  0  0  0  0
    3.5350    2.7480   -2.1190 C   0  0  0  0  0  0  0  0  0  0  0  0
    3.4780    1.4690   -2.6340 C   0  0  0  0  0  0  0  0  0  0  0  0
    3.3410    0.4250   -1.7480 C   0  0  0  0  0  0  0  0  0  0  0  0
    3.2600    0.6200   -0.3820 C   0  0  0  0  0  0  0  0  0  0  0  0
    0.6450   -1.6880    1.4750 C   0  0  0  0  0  0  0  0  0  0  0  0
    0.8920   -2.0900    2.6490 O   0  0  0  0  0  0  0  0  0  0  0  0
    0.1040   -1.8480   -1.0100 H   0  0  0  0  0  0  0  0  0  0  0  0
    1.6660   -2.1940   -1.6540 H   0  0  0  0  0  0  0  0  0  0  0  0
    1.6170   -3.2460    0.3490 H   0  0  0  0  0  0  0  0  0  0  0  0
    3.3540   -2.0860    1.6740 H   0  0  0  0  0  0  0  0  0  0  0  0
    3.6340   -2.1000   -0.1010 H   0  0  0  0  0  0  0  0  0  0  0  0
    3.0210    0.1560    2.8920 H   0  0  0  0  0  0  0  0  0  0  0  0
    3.2480    2.6650    2.1330 H   0  0  0  0  0  0  0  0  0  0  0  0
    3.5010    3.9450   -0.3410 H   0  0  0  0  0  0  0  0  0  0  0  0
    3.6440    3.5920   -2.8080 H   0  0  0  0  0  0  0  0  0  0  0  0
    3.5430    1.3600   -3.7040 H   0  0  0  0  0  0  0  0  0  0  0  0
    3.3080   -0.5590   -2.1390 H   0  0  0  0  0  0  0  0  0  0  0  0
   -2.1890    1.3600    3.6000 O   0  0  0  0  0  0  0  0  0  0  0  0
   -1.3270    1.0280    2.5610 C   0  0  0  0  0  0  0  0  0  0  0  0
   -1.3760   -0.4600    2.3450 C   0  0  2  0  0  0  0  0  0  0  0  0
   -0.4800   -0.8650    1.2550 N   0  0  0  0  0  0  0  0  0  0  0  0
   -2.7190   -0.9790    2.1140 C   0  0  0  0  0  0  0  0  0  0  0  0
   -3.6240   -0.7350    2.9450 O   0  0  0  0  0  0  0  0  0  0  0  0
   -1.9620    0.7370    4.3530 H   0  0  0  0  0  0  0  0  0  0  0  0
   -0.2990    1.2710    2.9060 H   0  0  0  0  0  0  0  0  0  0  0  0
   -1.5110    1.6100    1.6530 H   0  0  0  0  0  0  0  0  0  0  0  0
   -0.9690   -0.9300    3.2640 H   0  0  0  0  0  0  0  0  0  0  0  0
   -0.6700   -0.5360    0.2850 H   0  0  0  0  0  0  0  0  0  0  0  0
   -2.9920   -1.7520    0.9610 N   0  0  0  0  0  0  0  0  0  0  0  0
   -4.2870   -2.3010    0.6570 C   0  0  0  0  0  0  0  0  0  0  0  0
   -4.7520   -3.2220    1.7130 C   0  0  0  0  0  0  0  0  0  0  0  0
   -4.0710   -3.4700    2.7420 O   0  0  0  0  0  0  0  0  0  0  0  0
   -5.9800   -3.8570    1.6070 O   0  0  0  0  0  0  0  0  0  0  0  0
   -2.2110   -1.9290    0.3000 H   0  0  0  0  0  0  0  0  0  0  0  0
   -5.0380   -1.4690    0.5170 H   0  0  0  0  0  0  0  0  0  0  0  0
   -4.2810   -2.8430   -0.3040 H   0  0  0  0  0  0  0  0  0  0  0  0
  1  2  1  0  0  0  0
  2 17  1  6  0  0  0
  2  3  1  0  0  0  0
  2 13  1  0  0  0  0
  3  4  1  0  0  0  0
  3 18  1  0  0  0  0
  4  5  2  0  0  0  0
  5 20  1  0  0  0  0
  6  5  1  0  0  0  0
  6 21  1  0  0  0  0
  7  6  1  0  0  0  0
  8 22  1  0  0  0  0
  8  7  2  0  0  0  0
  9  8  1  0  0  0  0
 10  9  2  0  0  0  0
 10 11  1  0  0  0  0
 11 12  2  0  0  0  0
 12  7  1  0  0  0  0
 12  4  1  0  0  0  0
 13 14  2  0  0  0  0
 15  1  1  0  0  0  0
 16  1  1  0  0  0  0
 19  3  1  0  0  0  0
 23  9  1  0  0  0  0
 24 10  1  0  0  0  0
 25 11  1  0  0  0  0
 26 32  1  0  0  0  0
 27 33  1  0  0  0  0
 27 26  1  0  0  0  0
 28 27  1  0  0  0  0
 28 35  1  1  0  0  0
 29 13  1  0  0  0  0
 29 28  1  0  0  0  0
 30 28  1  0  0  0  0
 30 31  2  0  0  0  0
 34 27  1  0  0  0  0
 36 29  1  0  0  0  0
 37 30  1  0  0  0  0
 38 37  1  0  0  0  0
 38 39  1  0  0  0  0
 39 40  1  0  0  0  0
 41 39  2  0  0  0  0
 42 37  1  0  0  0  0
 43 38  1  0  0  0  0
 44 38  1  0  0  0  0
M  END
$$$$
