WSK.pdb
 OpenBabel07022419183D

 58 59  0  0  1  0  0  0  0  0999 V2000
    2.0910   -0.5510    0.5380 N   0  0  0  0  0  0  0  0  0  0  0  0
    2.2510   -0.8920    1.9110 C   0  0  1  0  0  0  0  0  0  0  0  0
    3.3940   -0.2310    2.6200 C   0  0  0  0  0  0  0  0  0  0  0  0
    3.3690    1.2230    2.6650 C   0  0  0  0  0  0  0  0  0  0  0  0
    2.9550    1.9860    3.7440 C   0  0  0  0  0  0  0  0  0  0  0  0
    3.0410    3.2890    3.4450 N   0  0  0  0  0  0  0  0  0  0  0  0
    3.5100    3.3810    2.1770 C   0  0  0  0  0  0  0  0  0  0  0  0
    3.8010    4.4470    1.3480 C   0  0  0  0  0  0  0  0  0  0  0  0
    4.2840    4.3120    0.0650 C   0  0  0  0  0  0  0  0  0  0  0  0
    4.4820    3.0300   -0.4010 C   0  0  0  0  0  0  0  0  0  0  0  0
    4.2130    1.9200    0.3690 C   0  0  0  0  0  0  0  0  0  0  0  0
    3.7250    2.0950    1.6630 C   0  0  0  0  0  0  0  0  0  0  0  0
    0.9720   -0.7660    2.6130 C   0  0  0  0  0  0  0  0  0  0  0  0
    0.8060   -0.9930    3.8460 O   0  0  0  0  0  0  0  0  0  0  0  0
    1.7540    0.3940    0.3350 H   0  0  0  0  0  0  0  0  0  0  0  0
    1.7130   -1.2990   -0.0570 H   0  0  0  0  0  0  0  0  0  0  0  0
    2.4960   -1.9980    1.9270 H   0  0  0  0  0  0  0  0  0  0  0  0
    4.3300   -0.5650    2.0900 H   0  0  0  0  0  0  0  0  0  0  0  0
    3.4510   -0.7020    3.6380 H   0  0  0  0  0  0  0  0  0  0  0  0
    2.6010    1.6450    4.7170 H   0  0  0  0  0  0  0  0  0  0  0  0
    2.8140    4.1280    4.0150 H   0  0  0  0  0  0  0  0  0  0  0  0
    3.6320    5.4530    1.7520 H   0  0  0  0  0  0  0  0  0  0  0  0
    4.5030    5.1900   -0.5600 H   0  0  0  0  0  0  0  0  0  0  0  0
    4.8630    2.8430   -1.4080 H   0  0  0  0  0  0  0  0  0  0  0  0
    4.3660    0.9130    0.0280 H   0  0  0  0  0  0  0  0  0  0  0  0
   -1.1680    2.1430    2.8080 O   0  0  0  0  0  0  0  0  0  0  0  0
   -2.0060    1.1950    2.2610 C   0  0  0  0  0  0  0  0  0  0  0  0
   -1.4790   -0.2110    2.4900 C   0  0  2  0  0  0  0  0  0  0  0  0
   -0.1750   -0.3630    1.8830 N   0  0  0  0  0  0  0  0  0  0  0  0
   -2.3940   -1.1940    1.8560 C   0  0  0  0  0  0  0  0  0  0  0  0
   -3.6180   -1.2790    2.2040 O   0  0  0  0  0  0  0  0  0  0  0  0
   -1.2070    3.0180    2.3060 H   0  0  0  0  0  0  0  0  0  0  0  0
   -2.1920    1.3920    1.2030 H   0  0  0  0  0  0  0  0  0  0  0  0
   -2.9920    1.2700    2.7960 H   0  0  0  0  0  0  0  0  0  0  0  0
   -1.4670   -0.4390    3.5690 H   0  0  0  0  0  0  0  0  0  0  0  0
   -0.1410   -0.1490    0.8430 H   0  0  0  0  0  0  0  0  0  0  0  0
   -1.9410   -2.0770    0.8400 N   0  0  0  0  0  0  0  0  0  0  0  0
   -2.8290   -3.0560    0.2000 C   0  0  1  0  0  0  0  0  0  0  0  0
   -2.8250   -2.8730   -1.2890 C   0  0  0  0  0  0  0  0  0  0  0  0
   -3.6980   -3.8040   -2.0570 C   0  0  0  0  0  0  0  0  0  0  0  0
   -3.6180   -3.5080   -3.5590 C   0  0  0  0  0  0  0  0  0  0  0  0
   -2.1920   -3.6720   -4.0490 C   0  0  0  0  0  0  0  0  0  0  0  0
   -1.7090   -5.0180   -3.8270 N   0  0  0  0  0  0  0  0  0  0  0  0
   -2.3090   -4.3950    0.5350 C   0  0  0  0  0  0  0  0  0  0  0  0
   -1.2530   -4.4870    1.2120 O   0  0  0  0  0  0  0  0  0  0  0  0
   -2.8910   -5.5950    0.1630 O   0  0  0  0  0  0  0  0  0  0  0  0
   -0.9410   -2.0100    0.5550 H   0  0  0  0  0  0  0  0  0  0  0  0
   -3.8500   -2.9910    0.6150 H   0  0  0  0  0  0  0  0  0  0  0  0
   -3.1580   -1.8150   -1.5040 H   0  0  0  0  0  0  0  0  0  0  0  0
   -1.7680   -2.9220   -1.6330 H   0  0  0  0  0  0  0  0  0  0  0  0
   -4.7550   -3.6310   -1.7660 H   0  0  0  0  0  0  0  0  0  0  0  0
   -3.4650   -4.8750   -1.9090 H   0  0  0  0  0  0  0  0  0  0  0  0
   -3.9240   -2.4670   -3.6900 H   0  0  0  0  0  0  0  0  0  0  0  0
   -4.2430   -4.2530   -4.0610 H   0  0  0  0  0  0  0  0  0  0  0  0
   -1.5220   -2.8940   -3.6550 H   0  0  0  0  0  0  0  0  0  0  0  0
   -2.2330   -3.4960   -5.1590 H   0  0  0  0  0  0  0  0  0  0  0  0
   -1.2350   -5.3650   -4.6920 H   0  0  0  0  0  0  0  0  0  0  0  0
   -0.9530   -4.9500   -3.0860 H   0  0  0  0  0  0  0  0  0  0  0  0
  1  2  1  0  0  0  0
  2 17  1  1  0  0  0
  2 13  1  0  0  0  0
  2  3  1  0  0  0  0
  3  4  1  0  0  0  0
  3 19  1  0  0  0  0
  4  5  2  0  0  0  0
  5 20  1  0  0  0  0
  6  5  1  0  0  0  0
  6 21  1  0  0  0  0
  7  6  1  0  0  0  0
  8 22  1  0  0  0  0
  8  7  2  0  0  0  0
  9  8  1  0  0  0  0
 10  9  2  0  0  0  0
 10 11  1  0  0  0  0
 11 12  2  0  0  0  0
 12  7  1  0  0  0  0
 12  4  1  0  0  0  0
 13 14  2  0  0  0  0
 15  1  1  0  0  0  0
 16  1  1  0  0  0  0
 18  3  1  0  0  0  0
 23  9  1  0  0  0  0
 24 10  1  0  0  0  0
 25 11  1  0  0  0  0
 27 28  1  0  0  0  0
 27 34  1  0  0  0  0
 27 26  1  0  0  0  0
 28 35  1  1  0  0  0
 29 28  1  0  0  0  0
 29 13  1  0  0  0  0
 30 31  2  0  0  0  0
 30 28  1  0  0  0  0
 32 26  1  0  0  0  0
 33 27  1  0  0  0  0
 36 29  1  0  0  0  0
 37 30  1  0  0  0  0
 38 44  1  0  0  0  0
 38 48  1  1  0  0  0
 38 37  1  0  0  0  0
 39 38  1  0  0  0  0
 40 52  1  0  0  0  0
 40 51  1  0  0  0  0
 40 39  1  0  0  0  0
 41 40  1  0  0  0  0
 42 43  1  0  0  0  0
 42 55  1  0  0  0  0
 42 41  1  0  0  0  0
 43 58  1  0  0  0  0
 44 45  1  0  0  0  0
 46 44  2  0  0  0  0
 47 37  1  0  0  0  0
 49 39  1  0  0  0  0
 50 39  1  0  0  0  0
 53 41  1  0  0  0  0
 54 41  1  0  0  0  0
 56 42  1  0  0  0  0
 57 43  1  0  0  0  0
M  END
$$$$
