WSN.pdb
 OpenBabel07022419183D

 51 52  0  0  1  0  0  0  0  0999 V2000
    0.5420    1.7360   -2.5630 N   0  0  0  0  0  0  0  0  0  0  0  0
    1.5330    1.1220   -1.6720 C   0  0  1  0  0  0  0  0  0  0  0  0
    2.5090    2.1420   -1.2390 C   0  0  0  0  0  0  0  0  0  0  0  0
    3.5610    1.6680   -0.3290 C   0  0  0  0  0  0  0  0  0  0  0  0
    4.8330    1.2330   -0.7350 C   0  0  0  0  0  0  0  0  0  0  0  0
    5.4800    0.8590    0.3720 N   0  0  0  0  0  0  0  0  0  0  0  0
    4.7410    1.0120    1.4760 C   0  0  0  0  0  0  0  0  0  0  0  0
    4.9790    0.7830    2.8110 C   0  0  0  0  0  0  0  0  0  0  0  0
    3.9860    1.0700    3.7450 C   0  0  0  0  0  0  0  0  0  0  0  0
    2.7730    1.5800    3.3310 C   0  0  0  0  0  0  0  0  0  0  0  0
    2.5770    1.7930    1.9850 C   0  0  0  0  0  0  0  0  0  0  0  0
    3.5390    1.5190    1.0330 C   0  0  0  0  0  0  0  0  0  0  0  0
    0.8950    0.2880   -0.6550 C   0  0  0  0  0  0  0  0  0  0  0  0
    1.5610   -0.4580    0.0950 O   0  0  0  0  0  0  0  0  0  0  0  0
    0.1020    2.5720   -2.1300 H   0  0  0  0  0  0  0  0  0  0  0  0
    1.0940    2.0200   -3.4200 H   0  0  0  0  0  0  0  0  0  0  0  0
    2.1000    0.4020   -2.3430 H   0  0  0  0  0  0  0  0  0  0  0  0
    3.0020    2.5500   -2.1530 H   0  0  0  0  0  0  0  0  0  0  0  0
    2.0070    3.0180   -0.7530 H   0  0  0  0  0  0  0  0  0  0  0  0
    5.1720    1.2260   -1.7690 H   0  0  0  0  0  0  0  0  0  0  0  0
    6.4700    0.4850    0.3590 H   0  0  0  0  0  0  0  0  0  0  0  0
    5.9170    0.3850    3.1730 H   0  0  0  0  0  0  0  0  0  0  0  0
    4.1610    0.8960    4.7820 H   0  0  0  0  0  0  0  0  0  0  0  0
    2.0070    1.7990    4.0790 H   0  0  0  0  0  0  0  0  0  0  0  0
    1.6270    2.1950    1.6410 H   0  0  0  0  0  0  0  0  0  0  0  0
   -3.0280    1.0880    0.5810 O   0  0  0  0  0  0  0  0  0  0  0  0
   -2.0870    0.4110    1.3530 C   0  0  0  0  0  0  0  0  0  0  0  0
   -1.2230   -0.5030    0.5160 C   0  0  2  0  0  0  0  0  0  0  0  0
   -0.5350    0.2810   -0.4600 N   0  0  0  0  0  0  0  0  0  0  0  0
   -2.0020   -1.6090   -0.1090 C   0  0  0  0  0  0  0  0  0  0  0  0
   -1.9420   -1.7170   -1.3650 O   0  0  0  0  0  0  0  0  0  0  0  0
   -3.8470    1.2800    1.1070 H   0  0  0  0  0  0  0  0  0  0  0  0
   -2.6750   -0.1940    2.0850 H   0  0  0  0  0  0  0  0  0  0  0  0
   -1.4230    1.0920    1.8950 H   0  0  0  0  0  0  0  0  0  0  0  0
   -0.5280   -1.0180    1.2240 H   0  0  0  0  0  0  0  0  0  0  0  0
   -1.0590    0.9230   -1.1170 H   0  0  0  0  0  0  0  0  0  0  0  0
   -2.1420   -5.0860    2.7980 N   0  0  0  0  0  0  0  0  0  0  0  0
   -3.2540   -5.1040    1.9210 C   0  0  0  0  0  0  0  0  0  0  0  0
   -4.4070   -5.2440    2.3920 O   0  0  0  0  0  0  0  0  0  0  0  0
   -3.0740   -4.9600    0.4760 C   0  0  0  0  0  0  0  0  0  0  0  0
   -3.5380   -3.6090   -0.0350 C   0  0  2  0  0  0  0  0  0  0  0  0
   -2.7890   -2.5280    0.6040 N   0  0  0  0  0  0  0  0  0  0  0  0
   -4.9890   -3.4350    0.1880 C   0  0  0  0  0  0  0  0  0  0  0  0
   -5.4380   -2.4810    0.8530 O   0  0  0  0  0  0  0  0  0  0  0  0
   -5.8580   -4.3580   -0.3590 O   0  0  0  0  0  0  0  0  0  0  0  0
   -2.2060   -4.7060    3.7840 H   0  0  0  0  0  0  0  0  0  0  0  0
   -1.1890   -5.4410    2.5440 H   0  0  0  0  0  0  0  0  0  0  0  0
   -2.0040   -5.1220    0.2310 H   0  0  0  0  0  0  0  0  0  0  0  0
   -3.6280   -5.7240   -0.1250 H   0  0  0  0  0  0  0  0  0  0  0  0
   -3.2980   -3.5560   -1.1150 H   0  0  0  0  0  0  0  0  0  0  0  0
   -2.8530   -2.4480    1.6350 H   0  0  0  0  0  0  0  0  0  0  0  0
  1 15  1  0  0  0  0
  1  2  1  0  0  0  0
  2 17  1  6  0  0  0
  2  3  1  0  0  0  0
  2 13  1  0  0  0  0
  3 19  1  0  0  0  0
  3  4  1  0  0  0  0
  4 12  1  0  0  0  0
  5  4  2  0  0  0  0
  5  6  1  0  0  0  0
  6  7  1  0  0  0  0
  7  8  1  0  0  0  0
  8 22  1  0  0  0  0
  8  9  2  0  0  0  0
  9 23  1  0  0  0  0
 10  9  1  0  0  0  0
 10 24  1  0  0  0  0
 11 10  2  0  0  0  0
 12  7  2  0  0  0  0
 12 11  1  0  0  0  0
 13 29  1  0  0  0  0
 13 14  2  0  0  0  0
 16  1  1  0  0  0  0
 18  3  1  0  0  0  0
 20  5  1  0  0  0  0
 21  6  1  0  0  0  0
 25 11  1  0  0  0  0
 26 32  1  0  0  0  0
 26 27  1  0  0  0  0
 27 34  1  0  0  0  0
 27 33  1  0  0  0  0
 28 35  1  1  0  0  0
 28 27  1  0  0  0  0
 29 28  1  0  0  0  0
 30 28  1  0  0  0  0
 30 42  1  0  0  0  0
 31 30  2  0  0  0  0
 36 29  1  0  0  0  0
 37 46  1  0  0  0  0
 38 39  2  0  0  0  0
 38 37  1  0  0  0  0
 40 38  1  0  0  0  0
 41 50  1  6  0  0  0
 41 43  1  0  0  0  0
 41 40  1  0  0  0  0
 41 42  1  0  0  0  0
 42 51  1  0  0  0  0
 43 44  1  0  0  0  0
 45 43  2  0  0  0  0
 47 37  1  0  0  0  0
 48 40  1  0  0  0  0
 49 40  1  0  0  0  0
M  END
$$$$
