WSR.pdb
 OpenBabel07022419183D

 60 61  0  0  1  0  0  0  0  0999 V2000
    0.8120    0.7830    3.8250 N   0  0  0  0  0  0  0  0  0  0  0  0
    0.6160    0.5670    2.3790 C   0  0  1  0  0  0  0  0  0  0  0  0
    1.5310   -0.6020    2.0560 C   0  0  0  0  0  0  0  0  0  0  0  0
    2.9250   -0.1990    2.3710 C   0  0  0  0  0  0  0  0  0  0  0  0
    3.6820   -0.5670    3.4630 C   0  0  0  0  0  0  0  0  0  0  0  0
    4.9120    0.0150    3.3820 N   0  0  0  0  0  0  0  0  0  0  0  0
    4.9730    0.7510    2.2680 C   0  0  0  0  0  0  0  0  0  0  0  0
    5.9790    1.5190    1.7380 C   0  0  0  0  0  0  0  0  0  0  0  0
    5.7520    2.1760    0.5470 C   0  0  0  0  0  0  0  0  0  0  0  0
    4.5460    2.0670   -0.0990 C   0  0  0  0  0  0  0  0  0  0  0  0
    3.5510    1.3000    0.4370 C   0  0  0  0  0  0  0  0  0  0  0  0
    3.7640    0.6340    1.6310 C   0  0  0  0  0  0  0  0  0  0  0  0
   -0.7970    0.3190    2.1500 C   0  0  0  0  0  0  0  0  0  0  0  0
   -1.5820    0.0600    3.1300 O   0  0  0  0  0  0  0  0  0  0  0  0
    1.0640    1.7560    4.0260 H   0  0  0  0  0  0  0  0  0  0  0  0
   -0.0430    0.4740    4.3560 H   0  0  0  0  0  0  0  0  0  0  0  0
    1.0320    1.4470    1.8820 H   0  0  0  0  0  0  0  0  0  0  0  0
    1.2800   -1.4800    2.7040 H   0  0  0  0  0  0  0  0  0  0  0  0
    1.4600   -0.8590    0.9940 H   0  0  0  0  0  0  0  0  0  0  0  0
    3.3390   -1.2230    4.2590 H   0  0  0  0  0  0  0  0  0  0  0  0
    5.6530   -0.1260    4.1040 H   0  0  0  0  0  0  0  0  0  0  0  0
    6.9460    1.6410    2.2040 H   0  0  0  0  0  0  0  0  0  0  0  0
    6.5440    2.7980    0.1000 H   0  0  0  0  0  0  0  0  0  0  0  0
    4.3570    2.5830   -1.0430 H   0  0  0  0  0  0  0  0  0  0  0  0
    2.5810    1.1740   -0.0230 H   0  0  0  0  0  0  0  0  0  0  0  0
   -3.1510    2.1560   -0.5780 O   0  0  0  0  0  0  0  0  0  0  0  0
   -3.6240    1.4040    0.4810 C   0  0  0  0  0  0  0  0  0  0  0  0
   -2.8370    0.1020    0.6490 C   0  0  2  0  0  0  0  0  0  0  0  0
   -1.4550    0.3340    0.8930 N   0  0  0  0  0  0  0  0  0  0  0  0
   -3.0320   -0.6420   -0.6010 C   0  0  0  0  0  0  0  0  0  0  0  0
   -4.2100   -0.8420   -1.0770 O   0  0  0  0  0  0  0  0  0  0  0  0
   -2.9410    3.0950   -0.3510 H   0  0  0  0  0  0  0  0  0  0  0  0
   -4.6580    1.0560    0.1830 H   0  0  0  0  0  0  0  0  0  0  0  0
   -3.7590    1.9420    1.4230 H   0  0  0  0  0  0  0  0  0  0  0  0
   -3.2690   -0.3740    1.5570 H   0  0  0  0  0  0  0  0  0  0  0  0
   -0.8430    0.5480    0.0660 H   0  0  0  0  0  0  0  0  0  0  0  0
    0.9410   -3.7360    1.1680 N   0  0  0  0  0  0  0  0  0  0  0  0
   -0.4590   -3.6280    1.0030 C   0  0  0  0  0  0  0  0  0  0  0  0
   -1.2650   -3.4030    1.9800 N   0  0  0  0  0  0  0  0  0  0  0  0
   -1.0150   -3.7720   -0.2860 N   0  0  0  0  0  0  0  0  0  0  0  0
   -2.2580   -4.4530   -0.5520 C   0  0  0  0  0  0  0  0  0  0  0  0
   -2.6810   -4.3610   -1.9510 C   0  0  0  0  0  0  0  0  0  0  0  0
   -3.1020   -3.1260   -2.5870 C   0  0  0  0  0  0  0  0  0  0  0  0
   -2.3320   -1.9020   -2.6590 C   0  0  2  0  0  0  0  0  0  0  0  0
   -1.9960   -1.2140   -1.4210 N   0  0  0  0  0  0  0  0  0  0  0  0
   -3.0310   -0.8800   -3.5390 C   0  0  0  0  0  0  0  0  0  0  0  0
   -3.4480   -1.2380   -4.6640 O   0  0  0  0  0  0  0  0  0  0  0  0
   -3.2200    0.4180   -3.1420 O   0  0  0  0  0  0  0  0  0  0  0  0
    1.6390   -3.5140    0.4420 H   0  0  0  0  0  0  0  0  0  0  0  0
    1.3490   -4.0690    2.0930 H   0  0  0  0  0  0  0  0  0  0  0  0
   -0.9640   -3.2840    2.9630 H   0  0  0  0  0  0  0  0  0  0  0  0
   -0.4810   -3.3920   -1.1000 H   0  0  0  0  0  0  0  0  0  0  0  0
   -3.0410   -4.1950    0.1960 H   0  0  0  0  0  0  0  0  0  0  0  0
   -2.0680   -5.5520   -0.3400 H   0  0  0  0  0  0  0  0  0  0  0  0
   -1.8680   -4.8880   -2.5730 H   0  0  0  0  0  0  0  0  0  0  0  0
   -3.5430   -5.1100   -2.0950 H   0  0  0  0  0  0  0  0  0  0  0  0
   -3.3310   -3.4170   -3.6870 H   0  0  0  0  0  0  0  0  0  0  0  0
   -4.1820   -2.8370   -2.2750 H   0  0  0  0  0  0  0  0  0  0  0  0
   -1.3310   -1.9940   -3.1910 H   0  0  0  0  0  0  0  0  0  0  0  0
   -1.0270   -1.0910   -1.0600 H   0  0  0  0  0  0  0  0  0  0  0  0
  1 15  1  0  0  0  0
  1 16  1  0  0  0  0
  2 17  1  6  0  0  0
  2  1  1  0  0  0  0
  3  4  1  0  0  0  0
  3  2  1  0  0  0  0
  3 18  1  0  0  0  0
  4  5  2  0  0  0  0
  5 20  1  0  0  0  0
  6  5  1  0  0  0  0
  6 21  1  0  0  0  0
  7  6  1  0  0  0  0
  8 22  1  0  0  0  0
  8  7  1  0  0  0  0
  9  8  2  0  0  0  0
 10 11  2  0  0  0  0
 10  9  1  0  0  0  0
 11 12  1  0  0  0  0
 12  7  2  0  0  0  0
 12  4  1  0  0  0  0
 13  2  1  0  0  0  0
 13 14  2  0  0  0  0
 19  3  1  0  0  0  0
 23  9  1  0  0  0  0
 24 10  1  0  0  0  0
 25 11  1  0  0  0  0
 26 32  1  0  0  0  0
 26 27  1  0  0  0  0
 27 28  1  0  0  0  0
 27 34  1  0  0  0  0
 28 29  1  0  0  0  0
 28 35  1  1  0  0  0
 29 13  1  0  0  0  0
 30 28  1  0  0  0  0
 31 30  2  0  0  0  0
 33 27  1  0  0  0  0
 36 29  1  0  0  0  0
 37 50  1  0  0  0  0
 38 37  1  0  0  0  0
 38 39  2  0  0  0  0
 39 51  1  0  0  0  0
 40 38  1  0  0  0  0
 41 54  1  0  0  0  0
 41 40  1  0  0  0  0
 41 53  1  0  0  0  0
 42 41  1  0  0  0  0
 43 58  1  0  0  0  0
 43 42  1  0  0  0  0
 44 59  1  6  0  0  0
 44 43  1  0  0  0  0
 44 45  1  0  0  0  0
 45 60  1  0  0  0  0
 45 30  1  0  0  0  0
 46 48  1  0  0  0  0
 46 44  1  0  0  0  0
 47 46  2  0  0  0  0
 49 37  1  0  0  0  0
 52 40  1  0  0  0  0
 55 42  1  0  0  0  0
 56 42  1  0  0  0  0
 57 43  1  0  0  0  0
M  END
$$$$
