WSS.pdb
 OpenBabel07022419183D

 48 49  0  0  1  0  0  0  0  0999 V2000
    1.5620    1.8550    3.5880 N   0  0  0  0  0  0  0  0  0  0  0  0
    0.4080    1.1880    2.9640 C   0  0  1  0  0  0  0  0  0  0  0  0
    0.0790    1.9680    1.7010 C   0  0  0  0  0  0  0  0  0  0  0  0
    1.1760    2.0480    0.7390 C   0  0  0  0  0  0  0  0  0  0  0  0
    2.0080    3.1750    0.6450 C   0  0  0  0  0  0  0  0  0  0  0  0
    2.9150    2.9390   -0.2900 N   0  0  0  0  0  0  0  0  0  0  0  0
    2.7560    1.7260   -0.8400 C   0  0  0  0  0  0  0  0  0  0  0  0
    3.4530    1.0730   -1.8330 C   0  0  0  0  0  0  0  0  0  0  0  0
    3.0610   -0.2120   -2.2250 C   0  0  0  0  0  0  0  0  0  0  0  0
    1.9750   -0.7550   -1.5780 C   0  0  0  0  0  0  0  0  0  0  0  0
    1.2860   -0.0750   -0.5750 C   0  0  0  0  0  0  0  0  0  0  0  0
    1.6680    1.1710   -0.1960 C   0  0  0  0  0  0  0  0  0  0  0  0
    0.6020   -0.2300    2.7340 C   0  0  0  0  0  0  0  0  0  0  0  0
    1.7800   -0.7160    2.7820 O   0  0  0  0  0  0  0  0  0  0  0  0
    1.7210    1.3330    4.4970 H   0  0  0  0  0  0  0  0  0  0  0  0
    1.2460    2.8060    3.8790 H   0  0  0  0  0  0  0  0  0  0  0  0
   -0.4380    1.4180    3.6630 H   0  0  0  0  0  0  0  0  0  0  0  0
   -0.8130    1.5450    1.1890 H   0  0  0  0  0  0  0  0  0  0  0  0
   -0.2280    2.9800    2.0460 H   0  0  0  0  0  0  0  0  0  0  0  0
    1.9350    4.0890    1.2290 H   0  0  0  0  0  0  0  0  0  0  0  0
    3.6680    3.6090   -0.5740 H   0  0  0  0  0  0  0  0  0  0  0  0
    4.3080    1.4900   -2.3490 H   0  0  0  0  0  0  0  0  0  0  0  0
    3.5660   -0.7730   -2.9940 H   0  0  0  0  0  0  0  0  0  0  0  0
    1.6440   -1.7590   -1.8640 H   0  0  0  0  0  0  0  0  0  0  0  0
    0.4300   -0.5140   -0.0890 H   0  0  0  0  0  0  0  0  0  0  0  0
    0.0650   -3.0300    4.5740 O   0  0  0  0  0  0  0  0  0  0  0  0
   -0.6110   -3.4020    3.4370 C   0  0  0  0  0  0  0  0  0  0  0  0
   -0.1770   -2.5680    2.2320 C   0  0  2  0  0  0  0  0  0  0  0  0
   -0.4310   -1.1680    2.4530 N   0  0  0  0  0  0  0  0  0  0  0  0
   -0.9220   -3.0240    1.0430 C   0  0  0  0  0  0  0  0  0  0  0  0
   -0.8030   -4.2510    0.6970 O   0  0  0  0  0  0  0  0  0  0  0  0
    0.6100   -3.7560    4.9700 H   0  0  0  0  0  0  0  0  0  0  0  0
   -1.7080   -3.4560    3.5370 H   0  0  0  0  0  0  0  0  0  0  0  0
   -0.2770   -4.4530    3.1870 H   0  0  0  0  0  0  0  0  0  0  0  0
    0.9160   -2.7880    2.1390 H   0  0  0  0  0  0  0  0  0  0  0  0
   -1.4040   -0.8160    2.4150 H   0  0  0  0  0  0  0  0  0  0  0  0
   -4.5260   -1.6160   -0.3680 O   0  0  0  0  0  0  0  0  0  0  0  0
   -3.9660   -2.8430   -0.6340 C   0  0  0  0  0  0  0  0  0  0  0  0
   -2.4750   -2.7680   -0.9150 C   0  0  2  0  0  0  0  0  0  0  0  0
   -1.7720   -2.2100    0.2420 N   0  0  0  0  0  0  0  0  0  0  0  0
   -2.1990   -2.0580   -2.1590 C   0  0  0  0  0  0  0  0  0  0  0  0
   -2.7280   -2.4360   -3.2260 O   0  0  0  0  0  0  0  0  0  0  0  0
   -1.3560   -0.9670   -2.1810 O   0  0  0  0  0  0  0  0  0  0  0  0
   -4.0790   -1.2550    0.4470 H   0  0  0  0  0  0  0  0  0  0  0  0
   -4.1350   -3.5910    0.1540 H   0  0  0  0  0  0  0  0  0  0  0  0
   -4.4360   -3.2230   -1.5800 H   0  0  0  0  0  0  0  0  0  0  0  0
   -2.1480   -3.8280   -1.0030 H   0  0  0  0  0  0  0  0  0  0  0  0
   -1.8710   -1.2100    0.5090 H   0  0  0  0  0  0  0  0  0  0  0  0
  1 16  1  0  0  0  0
  1 15  1  0  0  0  0
  2  1  1  0  0  0  0
  2 17  1  1  0  0  0
  3 19  1  0  0  0  0
  3  2  1  0  0  0  0
  4  3  1  0  0  0  0
  5  4  2  0  0  0  0
  5 20  1  0  0  0  0
  6  5  1  0  0  0  0
  7  6  1  0  0  0  0
  7 12  1  0  0  0  0
  8  7  2  0  0  0  0
  9  8  1  0  0  0  0
  9 10  2  0  0  0  0
 10 11  1  0  0  0  0
 11 12  2  0  0  0  0
 11 25  1  0  0  0  0
 12  4  1  0  0  0  0
 13 14  2  0  0  0  0
 13  2  1  0  0  0  0
 18  3  1  0  0  0  0
 21  6  1  0  0  0  0
 22  8  1  0  0  0  0
 23  9  1  0  0  0  0
 24 10  1  0  0  0  0
 26 32  1  0  0  0  0
 27 33  1  0  0  0  0
 27 26  1  0  0  0  0
 28 35  1  6  0  0  0
 28 29  1  0  0  0  0
 28 27  1  0  0  0  0
 29 13  1  0  0  0  0
 30 28  1  0  0  0  0
 31 30  2  0  0  0  0
 34 27  1  0  0  0  0
 36 29  1  0  0  0  0
 37 44  1  0  0  0  0
 38 37  1  0  0  0  0
 38 45  1  0  0  0  0
 39 47  1  6  0  0  0
 39 38  1  0  0  0  0
 39 40  1  0  0  0  0
 40 48  1  0  0  0  0
 40 30  1  0  0  0  0
 41 39  1  0  0  0  0
 42 41  2  0  0  0  0
 43 41  1  0  0  0  0
 46 38  1  0  0  0  0
M  END
$$$$
