WST.pdb
 OpenBabel07022419183D

 51 52  0  0  1  0  0  0  0  0999 V2000
    1.6840   -1.2410    0.6900 N   0  0  0  0  0  0  0  0  0  0  0  0
    0.7010   -0.2320    0.9450 C   0  0  1  0  0  0  0  0  0  0  0  0
    1.2720    1.1390    1.1830 C   0  0  0  0  0  0  0  0  0  0  0  0
    2.1870    1.2380    2.3210 C   0  0  0  0  0  0  0  0  0  0  0  0
    1.8870    1.7010    3.6070 C   0  0  0  0  0  0  0  0  0  0  0  0
    2.9530    1.6280    4.3940 N   0  0  0  0  0  0  0  0  0  0  0  0
    3.9740    1.1180    3.6470 C   0  0  0  0  0  0  0  0  0  0  0  0
    5.2920    0.8310    3.9320 C   0  0  0  0  0  0  0  0  0  0  0  0
    6.1790    0.3170    3.0220 C   0  0  0  0  0  0  0  0  0  0  0  0
    5.6980    0.0840    1.7550 C   0  0  0  0  0  0  0  0  0  0  0  0
    4.3900    0.3520    1.4170 C   0  0  0  0  0  0  0  0  0  0  0  0
    3.5120    0.8730    2.3640 C   0  0  0  0  0  0  0  0  0  0  0  0
   -0.2570   -0.1220   -0.2110 C   0  0  0  0  0  0  0  0  0  0  0  0
   -0.0480   -0.8800   -1.1880 O   0  0  0  0  0  0  0  0  0  0  0  0
    1.6570   -2.0540    1.3140 H   0  0  0  0  0  0  0  0  0  0  0  0
    1.7650   -1.4940   -0.3310 H   0  0  0  0  0  0  0  0  0  0  0  0
    0.0860   -0.5330    1.8430 H   0  0  0  0  0  0  0  0  0  0  0  0
    0.4050    1.8250    1.3860 H   0  0  0  0  0  0  0  0  0  0  0  0
    1.7340    1.4990    0.2310 H   0  0  0  0  0  0  0  0  0  0  0  0
    0.9140    2.0740    3.9310 H   0  0  0  0  0  0  0  0  0  0  0  0
    3.0870    1.8860    5.4030 H   0  0  0  0  0  0  0  0  0  0  0  0
    5.6500    1.0270    4.9520 H   0  0  0  0  0  0  0  0  0  0  0  0
    7.2210    0.1060    3.2990 H   0  0  0  0  0  0  0  0  0  0  0  0
    6.3410   -0.3200    0.9860 H   0  0  0  0  0  0  0  0  0  0  0  0
    4.0120    0.1750    0.4080 H   0  0  0  0  0  0  0  0  0  0  0  0
   -0.6860    0.7050   -3.1170 O   0  0  0  0  0  0  0  0  0  0  0  0
   -1.7010    1.4450   -2.5540 C   0  0  0  0  0  0  0  0  0  0  0  0
   -2.2640    0.9160   -1.2780 C   0  0  2  0  0  0  0  0  0  0  0  0
   -1.3390    0.7920   -0.1910 N   0  0  0  0  0  0  0  0  0  0  0  0
   -3.0230   -0.3560   -1.4280 C   0  0  0  0  0  0  0  0  0  0  0  0
   -3.8420   -0.5070   -2.3980 O   0  0  0  0  0  0  0  0  0  0  0  0
   -0.0860    1.3080   -3.6390 H   0  0  0  0  0  0  0  0  0  0  0  0
   -2.5470    1.4190   -3.3030 H   0  0  0  0  0  0  0  0  0  0  0  0
   -1.4480    2.5220   -2.4490 H   0  0  0  0  0  0  0  0  0  0  0  0
   -3.0640    1.6700   -0.9410 H   0  0  0  0  0  0  0  0  0  0  0  0
   -1.4290    1.3780    0.6680 H   0  0  0  0  0  0  0  0  0  0  0  0
   -1.8370   -3.9810    0.3560 C   0  0  0  0  0  0  0  0  0  0  0  0
   -2.7110   -3.8330   -0.8820 C   0  0  1  0  0  0  0  0  0  0  0  0
   -3.3550   -5.0490   -1.0670 O   0  0  0  0  0  0  0  0  0  0  0  0
   -3.6770   -2.6870   -0.7430 C   0  0  2  0  0  0  0  0  0  0  0  0
   -2.9180   -1.4640   -0.5550 N   0  0  0  0  0  0  0  0  0  0  0  0
   -4.5260   -2.9760    0.4510 C   0  0  0  0  0  0  0  0  0  0  0  0
   -4.5230   -2.2060    1.4450 O   0  0  0  0  0  0  0  0  0  0  0  0
   -5.3400   -4.0940    0.5010 O   0  0  0  0  0  0  0  0  0  0  0  0
   -1.3210   -4.9590    0.2580 H   0  0  0  0  0  0  0  0  0  0  0  0
   -2.4390   -4.0300    1.2850 H   0  0  0  0  0  0  0  0  0  0  0  0
   -1.0560   -3.2000    0.3950 H   0  0  0  0  0  0  0  0  0  0  0  0
   -2.0030   -3.7010   -1.7310 H   0  0  0  0  0  0  0  0  0  0  0  0
   -3.2310   -5.6560   -0.3180 H   0  0  0  0  0  0  0  0  0  0  0  0
   -4.3290   -2.6610   -1.6270 H   0  0  0  0  0  0  0  0  0  0  0  0
   -2.2770   -1.4020    0.2630 H   0  0  0  0  0  0  0  0  0  0  0  0
  1  2  1  0  0  0  0
  1 15  1  0  0  0  0
  2  3  1  0  0  0  0
  2 17  1  1  0  0  0
  3 18  1  0  0  0  0
  3  4  1  0  0  0  0
  4 12  1  0  0  0  0
  4  5  2  0  0  0  0
  5 20  1  0  0  0  0
  5  6  1  0  0  0  0
  6 21  1  0  0  0  0
  7  8  1  0  0  0  0
  7  6  1  0  0  0  0
  8 22  1  0  0  0  0
  9 23  1  0  0  0  0
  9  8  2  0  0  0  0
 10  9  1  0  0  0  0
 11 10  2  0  0  0  0
 11 12  1  0  0  0  0
 12  7  2  0  0  0  0
 13 29  1  0  0  0  0
 13  2  1  0  0  0  0
 14 13  2  0  0  0  0
 16  1  1  0  0  0  0
 19  3  1  0  0  0  0
 24 10  1  0  0  0  0
 25 11  1  0  0  0  0
 26 27  1  0  0  0  0
 27 34  1  0  0  0  0
 27 28  1  0  0  0  0
 28 35  1  1  0  0  0
 28 29  1  0  0  0  0
 29 36  1  0  0  0  0
 30 28  1  0  0  0  0
 30 41  1  0  0  0  0
 31 30  2  0  0  0  0
 32 26  1  0  0  0  0
 33 27  1  0  0  0  0
 37 47  1  0  0  0  0
 37 46  1  0  0  0  0
 38 48  1  6  0  0  0
 38 40  1  0  0  0  0
 38 37  1  0  0  0  0
 39 38  1  0  0  0  0
 39 49  1  0  0  0  0
 40 50  1  6  0  0  0
 40 41  1  0  0  0  0
 40 42  1  0  0  0  0
 41 51  1  0  0  0  0
 42 44  2  0  0  0  0
 42 43  1  0  0  0  0
 45 37  1  0  0  0  0
M  END
$$$$
