WSV.pdb
 OpenBabel07022419183D

 53 54  0  0  1  0  0  0  0  0999 V2000
    1.9620    1.7030    4.3070 N   0  0  0  0  0  0  0  0  0  0  0  0
    0.7200    1.2310    3.6770 C   0  0  1  0  0  0  0  0  0  0  0  0
    0.0990    2.3410    2.8840 C   0  0  0  0  0  0  0  0  0  0  0  0
    1.0220    2.8480    1.8400 C   0  0  0  0  0  0  0  0  0  0  0  0
    1.8430    3.9890    1.9840 C   0  0  0  0  0  0  0  0  0  0  0  0
    2.5750    4.1490    0.8690 N   0  0  0  0  0  0  0  0  0  0  0  0
    2.2870    3.1820   -0.0080 C   0  0  0  0  0  0  0  0  0  0  0  0
    2.7380    2.8980   -1.2680 C   0  0  0  0  0  0  0  0  0  0  0  0
    2.2700    1.8180   -1.9970 C   0  0  0  0  0  0  0  0  0  0  0  0
    1.3180    1.0060   -1.4270 C   0  0  0  0  0  0  0  0  0  0  0  0
    0.8630    1.3000   -0.1430 C   0  0  0  0  0  0  0  0  0  0  0  0
    1.3270    2.3750    0.5880 C   0  0  0  0  0  0  0  0  0  0  0  0
    0.8700   -0.0330    2.9670 C   0  0  0  0  0  0  0  0  0  0  0  0
    1.9660   -0.5540    2.6480 O   0  0  0  0  0  0  0  0  0  0  0  0
    1.7010    2.4350    4.9960 H   0  0  0  0  0  0  0  0  0  0  0  0
    2.4980    0.9110    4.7120 H   0  0  0  0  0  0  0  0  0  0  0  0
   -0.0130    1.0410    4.5300 H   0  0  0  0  0  0  0  0  0  0  0  0
   -0.2370    3.1500    3.5570 H   0  0  0  0  0  0  0  0  0  0  0  0
   -0.7800    1.9070    2.3520 H   0  0  0  0  0  0  0  0  0  0  0  0
    1.8290    4.5830    2.8740 H   0  0  0  0  0  0  0  0  0  0  0  0
    3.2670    4.9430    0.7480 H   0  0  0  0  0  0  0  0  0  0  0  0
    3.4930    3.5120   -1.7650 H   0  0  0  0  0  0  0  0  0  0  0  0
    2.6240    1.5850   -3.0000 H   0  0  0  0  0  0  0  0  0  0  0  0
    0.9180    0.1490   -1.9550 H   0  0  0  0  0  0  0  0  0  0  0  0
    0.1100    0.6860    0.3130 H   0  0  0  0  0  0  0  0  0  0  0  0
   -1.9580   -2.7910    3.2880 O   0  0  0  0  0  0  0  0  0  0  0  0
   -0.6520   -3.1170    2.9030 C   0  0  0  0  0  0  0  0  0  0  0  0
   -0.2340   -2.0250    1.8940 C   0  0  2  0  0  0  0  0  0  0  0  0
   -0.3090   -0.7640    2.5940 N   0  0  0  0  0  0  0  0  0  0  0  0
   -1.2020   -2.0360    0.7740 C   0  0  0  0  0  0  0  0  0  0  0  0
   -1.9660   -1.0720    0.5330 O   0  0  0  0  0  0  0  0  0  0  0  0
   -2.3780   -2.1520    2.6700 H   0  0  0  0  0  0  0  0  0  0  0  0
    0.0250   -3.0450    3.7740 H   0  0  0  0  0  0  0  0  0  0  0  0
   -0.6410   -4.1040    2.4140 H   0  0  0  0  0  0  0  0  0  0  0  0
    0.7950   -2.2970    1.6180 H   0  0  0  0  0  0  0  0  0  0  0  0
   -1.2220   -0.3600    2.8420 H   0  0  0  0  0  0  0  0  0  0  0  0
   -0.8230   -2.1830   -2.9190 C   0  0  0  0  0  0  0  0  0  0  0  0
   -1.6670   -3.3950   -2.5690 C   0  0  0  0  0  0  0  0  0  0  0  0
   -0.9830   -4.6850   -2.8700 C   0  0  0  0  0  0  0  0  0  0  0  0
   -2.2210   -3.2540   -1.2050 C   0  0  2  0  0  0  0  0  0  0  0  0
   -1.3440   -3.1290   -0.1140 N   0  0  0  0  0  0  0  0  0  0  0  0
   -3.2240   -4.3130   -0.9100 C   0  0  0  0  0  0  0  0  0  0  0  0
   -4.1240   -4.6120   -1.7400 O   0  0  0  0  0  0  0  0  0  0  0  0
   -3.2480   -5.0380    0.2740 O   0  0  0  0  0  0  0  0  0  0  0  0
   -1.3600   -1.2370   -2.7050 H   0  0  0  0  0  0  0  0  0  0  0  0
   -0.6050   -2.1430   -4.0220 H   0  0  0  0  0  0  0  0  0  0  0  0
    0.1780   -2.2230   -2.4370 H   0  0  0  0  0  0  0  0  0  0  0  0
   -2.5510   -3.3420   -3.2460 H   0  0  0  0  0  0  0  0  0  0  0  0
   -1.6840   -5.5200   -3.0900 H   0  0  0  0  0  0  0  0  0  0  0  0
   -0.3560   -4.5900   -3.7890 H   0  0  0  0  0  0  0  0  0  0  0  0
   -0.3630   -5.0640   -2.0120 H   0  0  0  0  0  0  0  0  0  0  0  0
   -2.8220   -2.2900   -1.2380 H   0  0  0  0  0  0  0  0  0  0  0  0
   -0.7070   -3.9630    0.0650 H   0  0  0  0  0  0  0  0  0  0  0  0
  1 16  1  0  0  0  0
  1 15  1  0  0  0  0
  2  1  1  0  0  0  0
  2 17  1  1  0  0  0
  3 18  1  0  0  0  0
  3  2  1  0  0  0  0
  4  5  2  0  0  0  0
  4  3  1  0  0  0  0
  5 20  1  0  0  0  0
  6  5  1  0  0  0  0
  7 12  1  0  0  0  0
  7  6  1  0  0  0  0
  8  7  2  0  0  0  0
  9 10  2  0  0  0  0
  9  8  1  0  0  0  0
 10 11  1  0  0  0  0
 11 25  1  0  0  0  0
 11 12  2  0  0  0  0
 12  4  1  0  0  0  0
 13  2  1  0  0  0  0
 14 13  2  0  0  0  0
 19  3  1  0  0  0  0
 21  6  1  0  0  0  0
 22  8  1  0  0  0  0
 23  9  1  0  0  0  0
 24 10  1  0  0  0  0
 27 26  1  0  0  0  0
 27 33  1  0  0  0  0
 28 35  1  6  0  0  0
 28 29  1  0  0  0  0
 28 27  1  0  0  0  0
 29 36  1  0  0  0  0
 29 13  1  0  0  0  0
 30 28  1  0  0  0  0
 31 30  2  0  0  0  0
 32 26  1  0  0  0  0
 34 27  1  0  0  0  0
 37 45  1  0  0  0  0
 37 38  1  0  0  0  0
 37 47  1  0  0  0  0
 38 40  1  0  0  0  0
 39 38  1  0  0  0  0
 39 51  1  0  0  0  0
 40 52  1  6  0  0  0
 40 42  1  0  0  0  0
 40 41  1  0  0  0  0
 41 53  1  0  0  0  0
 41 30  1  0  0  0  0
 42 44  1  0  0  0  0
 43 42  2  0  0  0  0
 46 37  1  0  0  0  0
 48 38  1  0  0  0  0
 49 39  1  0  0  0  0
 50 39  1  0  0  0  0
M  END
$$$$
