WSW.pdb
 OpenBabel07022419183D

 61 64  0  0  1  0  0  0  0  0999 V2000
   -0.0060   -0.3560    3.7990 N   0  0  0  0  0  0  0  0  0  0  0  0
    0.8970    0.4550    3.0510 C   0  0  1  0  0  0  0  0  0  0  0  0
    2.2790    0.1690    3.5670 C   0  0  0  0  0  0  0  0  0  0  0  0
    3.3790    0.8780    2.9110 C   0  0  0  0  0  0  0  0  0  0  0  0
    3.9710    2.0840    3.3100 C   0  0  0  0  0  0  0  0  0  0  0  0
    4.9180    2.4080    2.4220 N   0  0  0  0  0  0  0  0  0  0  0  0
    4.9880    1.4760    1.4510 C   0  0  0  0  0  0  0  0  0  0  0  0
    5.8110    1.3560    0.3240 C   0  0  0  0  0  0  0  0  0  0  0  0
    5.6960    0.2800   -0.5250 C   0  0  0  0  0  0  0  0  0  0  0  0
    4.7450   -0.6700   -0.2240 C   0  0  0  0  0  0  0  0  0  0  0  0
    3.9340   -0.5610    0.8790 C   0  0  0  0  0  0  0  0  0  0  0  0
    4.0420    0.5290    1.7470 C   0  0  0  0  0  0  0  0  0  0  0  0
    0.8330    0.4500    1.6230 C   0  0  0  0  0  0  0  0  0  0  0  0
    1.4790    1.3670    1.0060 O   0  0  0  0  0  0  0  0  0  0  0  0
    0.4100   -1.2650    4.1190 H   0  0  0  0  0  0  0  0  0  0  0  0
   -0.9310   -0.4980    3.3970 H   0  0  0  0  0  0  0  0  0  0  0  0
    0.6960    1.5320    3.3830 H   0  0  0  0  0  0  0  0  0  0  0  0
    2.2990    0.3130    4.6900 H   0  0  0  0  0  0  0  0  0  0  0  0
    2.4410   -0.9370    3.4460 H   0  0  0  0  0  0  0  0  0  0  0  0
    3.6800    2.6460    4.2090 H   0  0  0  0  0  0  0  0  0  0  0  0
    5.5530    3.2560    2.4270 H   0  0  0  0  0  0  0  0  0  0  0  0
    6.5310    2.1170    0.1340 H   0  0  0  0  0  0  0  0  0  0  0  0
    6.3370    0.1840   -1.4070 H   0  0  0  0  0  0  0  0  0  0  0  0
    4.6640   -1.5250   -0.9080 H   0  0  0  0  0  0  0  0  0  0  0  0
    3.1880   -1.2910    1.1330 H   0  0  0  0  0  0  0  0  0  0  0  0
    0.1090   -2.7760   -0.8720 O   0  0  0  0  0  0  0  0  0  0  0  0
    0.7660   -1.6020   -1.2130 C   0  0  0  0  0  0  0  0  0  0  0  0
    0.1370   -0.3620   -0.6530 C   0  0  2  0  0  0  0  0  0  0  0  0
    0.1320   -0.4570    0.7870 N   0  0  0  0  0  0  0  0  0  0  0  0
   -1.1820   -0.0240   -1.2120 C   0  0  0  0  0  0  0  0  0  0  0  0
   -1.3430    0.0540   -2.4570 O   0  0  0  0  0  0  0  0  0  0  0  0
    0.5010   -3.2110   -0.0620 H   0  0  0  0  0  0  0  0  0  0  0  0
    0.8740   -1.5540   -2.3210 H   0  0  0  0  0  0  0  0  0  0  0  0
    1.7840   -1.6750   -0.7540 H   0  0  0  0  0  0  0  0  0  0  0  0
    0.8180    0.4830   -0.9920 H   0  0  0  0  0  0  0  0  0  0  0  0
   -0.3960   -1.2070    1.2380 H   0  0  0  0  0  0  0  0  0  0  0  0
   -2.3550    0.2390   -0.4190 N   0  0  0  0  0  0  0  0  0  0  0  0
   -3.6170    0.5700   -1.0010 C   0  0  1  0  0  0  0  0  0  0  0  0
   -4.6640   -0.4270   -0.6150 C   0  0  0  0  0  0  0  0  0  0  0  0
   -4.3950   -1.8130   -1.0210 C   0  0  0  0  0  0  0  0  0  0  0  0
   -4.9080   -2.4170   -2.1820 C   0  0  0  0  0  0  0  0  0  0  0  0
   -4.4470   -3.6720   -2.2630 N   0  0  0  0  0  0  0  0  0  0  0  0
   -3.6490   -3.9480   -1.2180 C   0  0  0  0  0  0  0  0  0  0  0  0
   -2.9550   -5.0800   -0.8450 C   0  0  0  0  0  0  0  0  0  0  0  0
   -2.2030   -5.1040    0.3110 C   0  0  0  0  0  0  0  0  0  0  0  0
   -2.1720   -3.9620    1.0770 C   0  0  0  0  0  0  0  0  0  0  0  0
   -2.8700   -2.8300    0.6970 C   0  0  0  0  0  0  0  0  0  0  0  0
   -3.6240   -2.8030   -0.4610 C   0  0  0  0  0  0  0  0  0  0  0  0
   -4.0870    1.9280   -0.5940 C   0  0  0  0  0  0  0  0  0  0  0  0
   -5.1890    2.3170   -1.0560 O   0  0  0  0  0  0  0  0  0  0  0  0
   -3.3450    2.7280    0.2550 O   0  0  0  0  0  0  0  0  0  0  0  0
   -2.2190    0.1830    0.6100 H   0  0  0  0  0  0  0  0  0  0  0  0
   -3.5910    0.5840   -2.1140 H   0  0  0  0  0  0  0  0  0  0  0  0
   -5.6920   -0.0940   -0.8910 H   0  0  0  0  0  0  0  0  0  0  0  0
   -4.6960   -0.4360    0.5190 H   0  0  0  0  0  0  0  0  0  0  0  0
   -5.5620   -1.9260   -2.8750 H   0  0  0  0  0  0  0  0  0  0  0  0
   -4.6910   -4.3300   -3.0500 H   0  0  0  0  0  0  0  0  0  0  0  0
   -2.9850   -5.9840   -1.4600 H   0  0  0  0  0  0  0  0  0  0  0  0
   -1.6530   -6.0030    0.6050 H   0  0  0  0  0  0  0  0  0  0  0  0
   -1.5720   -3.9880    1.9960 H   0  0  0  0  0  0  0  0  0  0  0  0
   -2.8340   -1.9580    1.3180 H   0  0  0  0  0  0  0  0  0  0  0  0
  1 15  1  0  0  0  0
  2 17  1  1  0  0  0
  2  3  1  0  0  0  0
  2  1  1  0  0  0  0
  3 18  1  0  0  0  0
  4  5  2  0  0  0  0
  4  3  1  0  0  0  0
  5 20  1  0  0  0  0
  6 21  1  0  0  0  0
  6  5  1  0  0  0  0
  7 12  1  0  0  0  0
  7  6  1  0  0  0  0
  8  7  2  0  0  0  0
  9 10  2  0  0  0  0
  9  8  1  0  0  0  0
 10 11  1  0  0  0  0
 11 25  1  0  0  0  0
 11 12  2  0  0  0  0
 12  4  1  0  0  0  0
 13  2  1  0  0  0  0
 14 13  2  0  0  0  0
 16  1  1  0  0  0  0
 19  3  1  0  0  0  0
 22  8  1  0  0  0  0
 23  9  1  0  0  0  0
 24 10  1  0  0  0  0
 26 32  1  0  0  0  0
 27 26  1  0  0  0  0
 27 34  1  0  0  0  0
 27 28  1  0  0  0  0
 28 35  1  6  0  0  0
 28 29  1  0  0  0  0
 29 36  1  0  0  0  0
 29 13  1  0  0  0  0
 30 28  1  0  0  0  0
 30 37  1  0  0  0  0
 31 30  2  0  0  0  0
 33 27  1  0  0  0  0
 37 52  1  0  0  0  0
 38 53  1  6  0  0  0
 38 39  1  0  0  0  0
 38 49  1  0  0  0  0
 38 37  1  0  0  0  0
 39 55  1  0  0  0  0
 40 39  1  0  0  0  0
 40 48  1  0  0  0  0
 41 40  2  0  0  0  0
 42 41  1  0  0  0  0
 42 43  1  0  0  0  0
 43 44  2  0  0  0  0
 43 48  1  0  0  0  0
 44 45  1  0  0  0  0
 45 59  1  0  0  0  0
 45 46  2  0  0  0  0
 46 60  1  0  0  0  0
 47 46  1  0  0  0  0
 47 61  1  0  0  0  0
 48 47  2  0  0  0  0
 49 51  1  0  0  0  0
 50 49  2  0  0  0  0
 54 39  1  0  0  0  0
 56 41  1  0  0  0  0
 57 42  1  0  0  0  0
 58 44  1  0  0  0  0
M  END
$$$$
