WSY.pdb
 OpenBabel07022419183D

 58 60  0  0  1  0  0  0  0  0999 V2000
    0.9140   -0.2550    1.1020 N   0  0  0  0  0  0  0  0  0  0  0  0
    1.1140   -1.2410    2.1140 C   0  0  1  0  0  0  0  0  0  0  0  0
    1.7850   -0.6030    3.3100 C   0  0  0  0  0  0  0  0  0  0  0  0
    3.0780   -0.0230    2.9350 C   0  0  0  0  0  0  0  0  0  0  0  0
    4.3290   -0.6500    3.0410 C   0  0  0  0  0  0  0  0  0  0  0  0
    5.2780    0.1730    2.5680 N   0  0  0  0  0  0  0  0  0  0  0  0
    4.7090    1.3260    2.1500 C   0  0  0  0  0  0  0  0  0  0  0  0
    5.2530    2.4620    1.6090 C   0  0  0  0  0  0  0  0  0  0  0  0
    4.4440    3.5290    1.2740 C   0  0  0  0  0  0  0  0  0  0  0  0
    3.0870    3.4240    1.4960 C   0  0  0  0  0  0  0  0  0  0  0  0
    2.5490    2.2880    2.0360 C   0  0  0  0  0  0  0  0  0  0  0  0
    3.3400    1.2050    2.3790 C   0  0  0  0  0  0  0  0  0  0  0  0
   -0.1400   -1.9170    2.5000 C   0  0  0  0  0  0  0  0  0  0  0  0
   -0.1560   -2.9100    3.2650 O   0  0  0  0  0  0  0  0  0  0  0  0
    0.1820   -0.5330    0.3950 H   0  0  0  0  0  0  0  0  0  0  0  0
    1.8140   -0.0240    0.5910 H   0  0  0  0  0  0  0  0  0  0  0  0
    1.8420   -1.9940    1.7070 H   0  0  0  0  0  0  0  0  0  0  0  0
    1.9860   -1.3680    4.1020 H   0  0  0  0  0  0  0  0  0  0  0  0
    1.1490    0.2270    3.7210 H   0  0  0  0  0  0  0  0  0  0  0  0
    4.4450   -1.6380    3.4480 H   0  0  0  0  0  0  0  0  0  0  0  0
    6.3050   -0.0200    2.5180 H   0  0  0  0  0  0  0  0  0  0  0  0
    6.3250    2.5830    1.4180 H   0  0  0  0  0  0  0  0  0  0  0  0
    4.8450    4.4380    0.8460 H   0  0  0  0  0  0  0  0  0  0  0  0
    2.4120    4.2440    1.2460 H   0  0  0  0  0  0  0  0  0  0  0  0
    1.4820    2.1900    2.2250 H   0  0  0  0  0  0  0  0  0  0  0  0
   -3.0450   -0.6810    4.2530 O   0  0  0  0  0  0  0  0  0  0  0  0
   -3.5830   -1.1730    3.0660 C   0  0  0  0  0  0  0  0  0  0  0  0
   -2.6270   -2.0870    2.3660 C   0  0  2  0  0  0  0  0  0  0  0  0
   -1.3740   -1.4500    2.0110 N   0  0  0  0  0  0  0  0  0  0  0  0
   -3.2340   -2.7030    1.1590 C   0  0  0  0  0  0  0  0  0  0  0  0
   -4.3450   -3.3260    1.2480 O   0  0  0  0  0  0  0  0  0  0  0  0
   -3.7560   -0.0920    4.6500 H   0  0  0  0  0  0  0  0  0  0  0  0
   -4.4640   -1.7860    3.3580 H   0  0  0  0  0  0  0  0  0  0  0  0
   -3.9770   -0.3660    2.4200 H   0  0  0  0  0  0  0  0  0  0  0  0
   -2.3830   -2.9230    3.0510 H   0  0  0  0  0  0  0  0  0  0  0  0
   -1.5050   -0.6210    1.3710 H   0  0  0  0  0  0  0  0  0  0  0  0
    1.0780    0.8870   -3.8910 O   0  0  0  0  0  0  0  0  0  0  0  0
   -0.0260    0.1000   -3.5490 C   0  0  0  0  0  0  0  0  0  0  0  0
   -0.8460    0.4960   -2.5070 C   0  0  0  0  0  0  0  0  0  0  0  0
   -1.9430   -0.2490   -2.1380 C   0  0  0  0  0  0  0  0  0  0  0  0
   -2.2250   -1.4120   -2.8220 C   0  0  0  0  0  0  0  0  0  0  0  0
   -3.4210   -2.1780   -2.3880 C   0  0  0  0  0  0  0  0  0  0  0  0
   -3.1360   -3.1890   -1.3130 C   0  0  2  0  0  0  0  0  0  0  0  0
   -2.6080   -2.6200   -0.1150 N   0  0  0  0  0  0  0  0  0  0  0  0
   -2.1930   -4.1990   -1.8350 C   0  0  0  0  0  0  0  0  0  0  0  0
   -2.4130   -4.8590   -2.8600 O   0  0  0  0  0  0  0  0  0  0  0  0
   -1.4130   -1.8200   -3.8650 C   0  0  0  0  0  0  0  0  0  0  0  0
   -0.3160   -1.0680   -4.2300 C   0  0  0  0  0  0  0  0  0  0  0  0
   -0.9850   -4.4450   -1.1620 O   0  0  0  0  0  0  0  0  0  0  0  0
    1.6300    1.3780   -3.1830 H   0  0  0  0  0  0  0  0  0  0  0  0
   -0.6380    1.4230   -1.9490 H   0  0  0  0  0  0  0  0  0  0  0  0
   -2.5760    0.0950   -1.3040 H   0  0  0  0  0  0  0  0  0  0  0  0
   -4.2820   -1.5160   -2.1320 H   0  0  0  0  0  0  0  0  0  0  0  0
   -3.7690   -2.7630   -3.2870 H   0  0  0  0  0  0  0  0  0  0  0  0
   -4.0950   -3.7190   -1.1210 H   0  0  0  0  0  0  0  0  0  0  0  0
   -1.7030   -2.1060   -0.1650 H   0  0  0  0  0  0  0  0  0  0  0  0
   -1.6420   -2.7460   -4.4100 H   0  0  0  0  0  0  0  0  0  0  0  0
    0.3440   -1.3480   -5.0370 H   0  0  0  0  0  0  0  0  0  0  0  0
  1  2  1  0  0  0  0
  2 17  1  6  0  0  0
  2 13  1  0  0  0  0
  2  3  1  0  0  0  0
  3 19  1  0  0  0  0
  3 18  1  0  0  0  0
  4  5  2  0  0  0  0
  4  3  1  0  0  0  0
  5 20  1  0  0  0  0
  6  5  1  0  0  0  0
  7 12  1  0  0  0  0
  7  6  1  0  0  0  0
  8  7  2  0  0  0  0
  9 10  2  0  0  0  0
  9  8  1  0  0  0  0
 10 11  1  0  0  0  0
 11 25  1  0  0  0  0
 11 12  2  0  0  0  0
 12  4  1  0  0  0  0
 13 14  2  0  0  0  0
 15  1  1  0  0  0  0
 16  1  1  0  0  0  0
 21  6  1  0  0  0  0
 22  8  1  0  0  0  0
 23  9  1  0  0  0  0
 24 10  1  0  0  0  0
 26 32  1  0  0  0  0
 27 33  1  0  0  0  0
 27 26  1  0  0  0  0
 28 35  1  1  0  0  0
 28 27  1  0  0  0  0
 29 28  1  0  0  0  0
 29 13  1  0  0  0  0
 30 31  2  0  0  0  0
 30 28  1  0  0  0  0
 34 27  1  0  0  0  0
 36 29  1  0  0  0  0
 37 38  1  0  0  0  0
 37 50  1  0  0  0  0
 38 39  1  0  0  0  0
 39 40  2  0  0  0  0
 39 51  1  0  0  0  0
 40 52  1  0  0  0  0
 41 42  1  0  0  0  0
 41 40  1  0  0  0  0
 42 53  1  0  0  0  0
 42 43  1  0  0  0  0
 43 55  1  1  0  0  0
 43 44  1  0  0  0  0
 44 30  1  0  0  0  0
 45 43  1  0  0  0  0
 45 49  1  0  0  0  0
 46 45  2  0  0  0  0
 47 41  2  0  0  0  0
 48 47  1  0  0  0  0
 48 38  2  0  0  0  0
 54 42  1  0  0  0  0
 56 44  1  0  0  0  0
 57 47  1  0  0  0  0
 58 48  1  0  0  0  0
M  END
$$$$
