WTA.pdb
 OpenBabel07022419183D

 50 51  0  0  1  0  0  0  0  0999 V2000
   -2.2330    0.7400    0.5200 N   0  0  0  0  0  0  0  0  0  0  0  0
   -0.8370    0.8630    0.1560 C   0  0  1  0  0  0  0  0  0  0  0  0
   -0.3240    2.2420    0.4810 C   0  0  0  0  0  0  0  0  0  0  0  0
    1.0860    2.4340    0.1380 C   0  0  0  0  0  0  0  0  0  0  0  0
    2.1470    2.4540    1.0190 C   0  0  0  0  0  0  0  0  0  0  0  0
    3.2950    2.6550    0.3210 N   0  0  0  0  0  0  0  0  0  0  0  0
    3.0110    2.7660   -0.9870 C   0  0  0  0  0  0  0  0  0  0  0  0
    3.8410    2.9740   -2.0680 C   0  0  0  0  0  0  0  0  0  0  0  0
    3.3010    3.0550   -3.3570 C   0  0  0  0  0  0  0  0  0  0  0  0
    1.9330    2.9180   -3.4740 C   0  0  0  0  0  0  0  0  0  0  0  0
    1.1210    2.7100   -2.3780 C   0  0  0  0  0  0  0  0  0  0  0  0
    1.6440    2.6300   -1.1080 C   0  0  0  0  0  0  0  0  0  0  0  0
   -0.0030   -0.1580    0.8620 C   0  0  0  0  0  0  0  0  0  0  0  0
    1.2390   -0.2330    0.6960 O   0  0  0  0  0  0  0  0  0  0  0  0
   -2.7490    0.1220   -0.1750 H   0  0  0  0  0  0  0  0  0  0  0  0
   -2.6500    1.7030    0.3670 H   0  0  0  0  0  0  0  0  0  0  0  0
   -0.7900    0.7420   -0.9510 H   0  0  0  0  0  0  0  0  0  0  0  0
   -0.5080    2.4180    1.5590 H   0  0  0  0  0  0  0  0  0  0  0  0
   -0.9100    3.0130   -0.0620 H   0  0  0  0  0  0  0  0  0  0  0  0
    2.0380    2.3240    2.1000 H   0  0  0  0  0  0  0  0  0  0  0  0
    4.2200    2.7040    0.7970 H   0  0  0  0  0  0  0  0  0  0  0  0
    4.9120    3.0820   -1.9930 H   0  0  0  0  0  0  0  0  0  0  0  0
    3.9400    3.2170   -4.2170 H   0  0  0  0  0  0  0  0  0  0  0  0
    1.4830    2.9750   -4.4550 H   0  0  0  0  0  0  0  0  0  0  0  0
    0.0740    2.6110   -2.5180 H   0  0  0  0  0  0  0  0  0  0  0  0
    0.6880   -0.6920    4.4430 C   0  0  0  0  0  0  0  0  0  0  0  0
    0.1440   -2.0170    3.9240 C   0  0  1  0  0  0  0  0  0  0  0  0
   -1.1430   -2.2500    4.3820 O   0  0  0  0  0  0  0  0  0  0  0  0
    0.2440   -2.0650    2.4220 C   0  0  2  0  0  0  0  0  0  0  0  0
   -0.5820   -1.0940    1.7580 N   0  0  0  0  0  0  0  0  0  0  0  0
   -0.2400   -3.4250    1.9940 C   0  0  0  0  0  0  0  0  0  0  0  0
    0.3060   -4.4800    2.4200 O   0  0  0  0  0  0  0  0  0  0  0  0
   -0.1020    0.0960    4.4230 H   0  0  0  0  0  0  0  0  0  0  0  0
    1.0520   -0.7650    5.4820 H   0  0  0  0  0  0  0  0  0  0  0  0
    1.4970   -0.3510    3.7960 H   0  0  0  0  0  0  0  0  0  0  0  0
    0.8190   -2.8140    4.3130 H   0  0  0  0  0  0  0  0  0  0  0  0
   -1.3020   -1.6880    5.1820 H   0  0  0  0  0  0  0  0  0  0  0  0
    1.3150   -1.9770    2.1560 H   0  0  0  0  0  0  0  0  0  0  0  0
   -1.6060   -1.1030    1.9560 H   0  0  0  0  0  0  0  0  0  0  0  0
   -3.2230   -5.0940    1.1770 C   0  0  0  0  0  0  0  0  0  0  0  0
   -1.8070   -4.8890    0.6740 C   0  0  2  0  0  0  0  0  0  0  0  0
   -1.3300   -3.5850    1.0950 N   0  0  0  0  0  0  0  0  0  0  0  0
   -1.6890   -5.0850   -0.7810 C   0  0  0  0  0  0  0  0  0  0  0  0
   -1.2260   -4.2090   -1.5560 O   0  0  0  0  0  0  0  0  0  0  0  0
   -2.1030   -6.2810   -1.3450 O   0  0  0  0  0  0  0  0  0  0  0  0
   -3.2540   -5.8110    2.0350 H   0  0  0  0  0  0  0  0  0  0  0  0
   -3.6260   -4.1370    1.5790 H   0  0  0  0  0  0  0  0  0  0  0  0
   -3.9140   -5.4180    0.3550 H   0  0  0  0  0  0  0  0  0  0  0  0
   -1.1850   -5.6830    1.1590 H   0  0  0  0  0  0  0  0  0  0  0  0
   -1.8150   -2.7300    0.7170 H   0  0  0  0  0  0  0  0  0  0  0  0
  2 17  1  6  0  0  0
  2  3  1  0  0  0  0
  2  1  1  0  0  0  0
  2 13  1  0  0  0  0
  3 18  1  0  0  0  0
  4  3  1  0  0  0  0
  4  5  2  0  0  0  0
  5 20  1  0  0  0  0
  6 21  1  0  0  0  0
  6  5  1  0  0  0  0
  7  6  1  0  0  0  0
  8 22  1  0  0  0  0
  8  7  2  0  0  0  0
  9  8  1  0  0  0  0
 10  9  2  0  0  0  0
 10 11  1  0  0  0  0
 11 12  2  0  0  0  0
 12  7  1  0  0  0  0
 12  4  1  0  0  0  0
 13 30  1  0  0  0  0
 14 13  2  0  0  0  0
 15  1  1  0  0  0  0
 16  1  1  0  0  0  0
 19  3  1  0  0  0  0
 23  9  1  0  0  0  0
 24 10  1  0  0  0  0
 25 11  1  0  0  0  0
 26 34  1  0  0  0  0
 27 36  1  1  0  0  0
 27 28  1  0  0  0  0
 27 26  1  0  0  0  0
 28 37  1  0  0  0  0
 29 38  1  6  0  0  0
 29 27  1  0  0  0  0
 30 39  1  0  0  0  0
 30 29  1  0  0  0  0
 31 32  2  0  0  0  0
 31 29  1  0  0  0  0
 33 26  1  0  0  0  0
 35 26  1  0  0  0  0
 40 47  1  0  0  0  0
 40 46  1  0  0  0  0
 41 42  1  0  0  0  0
 41 49  1  1  0  0  0
 41 40  1  0  0  0  0
 42 31  1  0  0  0  0
 43 41  1  0  0  0  0
 44 43  2  0  0  0  0
 45 43  1  0  0  0  0
 48 40  1  0  0  0  0
 50 42  1  0  0  0  0
M  END
$$$$
