WTD.pdb
 OpenBabel07022419183D

 53 54  0  0  1  0  0  0  0  0999 V2000
    0.7400   -4.6530   -2.9480 N   0  0  0  0  0  0  0  0  0  0  0  0
   -0.1330   -3.7470   -2.1920 C   0  0  1  0  0  0  0  0  0  0  0  0
   -0.3200   -4.3460   -0.8470 C   0  0  0  0  0  0  0  0  0  0  0  0
   -1.1490   -3.5630    0.0770 C   0  0  0  0  0  0  0  0  0  0  0  0
   -2.4900   -3.7330    0.3560 C   0  0  0  0  0  0  0  0  0  0  0  0
   -2.8780   -2.8120    1.2540 N   0  0  0  0  0  0  0  0  0  0  0  0
   -1.8450   -2.0400    1.5770 C   0  0  0  0  0  0  0  0  0  0  0  0
   -1.7610   -0.9750    2.4680 C   0  0  0  0  0  0  0  0  0  0  0  0
   -0.5360   -0.3650    2.6150 C   0  0  0  0  0  0  0  0  0  0  0  0
    0.5810   -0.7840    1.9100 C   0  0  0  0  0  0  0  0  0  0  0  0
    0.4390   -1.8450    1.0410 C   0  0  0  0  0  0  0  0  0  0  0  0
   -0.7580   -2.4750    0.8690 C   0  0  0  0  0  0  0  0  0  0  0  0
    0.4000   -2.3830   -2.2540 C   0  0  0  0  0  0  0  0  0  0  0  0
    1.6410   -2.2150   -2.4980 O   0  0  0  0  0  0  0  0  0  0  0  0
    0.4330   -5.6310   -2.7350 H   0  0  0  0  0  0  0  0  0  0  0  0
    0.6140   -4.5360   -3.9840 H   0  0  0  0  0  0  0  0  0  0  0  0
   -1.1220   -3.8240   -2.7430 H   0  0  0  0  0  0  0  0  0  0  0  0
   -0.8360   -5.3450   -0.9570 H   0  0  0  0  0  0  0  0  0  0  0  0
    0.6470   -4.6090   -0.3490 H   0  0  0  0  0  0  0  0  0  0  0  0
   -3.1310   -4.5030   -0.0900 H   0  0  0  0  0  0  0  0  0  0  0  0
   -3.8460   -2.7250    1.6320 H   0  0  0  0  0  0  0  0  0  0  0  0
   -2.6150   -0.6330    3.0250 H   0  0  0  0  0  0  0  0  0  0  0  0
   -0.4410    0.4570    3.2930 H   0  0  0  0  0  0  0  0  0  0  0  0
    1.5390   -0.2800    2.0480 H   0  0  0  0  0  0  0  0  0  0  0  0
    1.3090   -2.1700    0.4930 H   0  0  0  0  0  0  0  0  0  0  0  0
   -1.7070    0.7360   -3.4750 C   0  0  0  0  0  0  0  0  0  0  0  0
   -0.1880    0.7020   -3.5320 C   0  0  1  0  0  0  0  0  0  0  0  0
    0.3670    1.9570   -3.6440 O   0  0  0  0  0  0  0  0  0  0  0  0
    0.2520    0.1360   -2.1550 C   0  0  2  0  0  0  0  0  0  0  0  0
   -0.3500   -1.1960   -2.0700 N   0  0  0  0  0  0  0  0  0  0  0  0
   -0.3320    1.0140   -1.1210 C   0  0  0  0  0  0  0  0  0  0  0  0
   -1.2660    0.6120   -0.3520 O   0  0  0  0  0  0  0  0  0  0  0  0
   -2.0430   -0.3090   -3.6260 H   0  0  0  0  0  0  0  0  0  0  0  0
   -2.1220    1.4130   -4.2740 H   0  0  0  0  0  0  0  0  0  0  0  0
   -2.0840    1.1340   -2.5220 H   0  0  0  0  0  0  0  0  0  0  0  0
    0.1300   -0.0120   -4.2900 H   0  0  0  0  0  0  0  0  0  0  0  0
   -0.3630    2.6110   -3.7730 H   0  0  0  0  0  0  0  0  0  0  0  0
    1.3340    0.1370   -2.1440 H   0  0  0  0  0  0  0  0  0  0  0  0
   -1.3650   -1.2840   -1.8680 H   0  0  0  0  0  0  0  0  0  0  0  0
    0.0920    2.3480   -0.9050 N   0  0  0  0  0  0  0  0  0  0  0  0
   -0.4690    3.2210    0.1030 C   0  0  1  0  0  0  0  0  0  0  0  0
    0.5820    3.7450    1.0490 C   0  0  0  0  0  0  0  0  0  0  0  0
    1.6110    4.5180    0.3240 C   0  0  0  0  0  0  0  0  0  0  0  0
    1.4310    5.7030   -0.0380 O   0  0  0  0  0  0  0  0  0  0  0  0
   -1.1010    4.3880   -0.5600 C   0  0  0  0  0  0  0  0  0  0  0  0
   -1.6610    5.2890    0.1150 O   0  0  0  0  0  0  0  0  0  0  0  0
    2.8220    3.9120    0.0310 O   0  0  0  0  0  0  0  0  0  0  0  0
   -1.1000    4.5310   -1.9380 O   0  0  0  0  0  0  0  0  0  0  0  0
    0.8590    2.7230   -1.5120 H   0  0  0  0  0  0  0  0  0  0  0  0
   -1.2570    2.7290    0.7020 H   0  0  0  0  0  0  0  0  0  0  0  0
    1.0030    2.8750    1.5860 H   0  0  0  0  0  0  0  0  0  0  0  0
    0.0590    4.3550    1.8120 H   0  0  0  0  0  0  0  0  0  0  0  0
    3.6540    4.4070   -0.2590 H   0  0  0  0  0  0  0  0  0  0  0  0
  1 15  1  0  0  0  0
  1  2  1  0  0  0  0
  2 17  1  6  0  0  0
  2  3  1  0  0  0  0
  3 19  1  0  0  0  0
  3  4  1  0  0  0  0
  4  5  2  0  0  0  0
  4 12  1  0  0  0  0
  5  6  1  0  0  0  0
  6  7  1  0  0  0  0
  6 21  1  0  0  0  0
  7  8  1  0  0  0  0
  8  9  2  0  0  0  0
  8 22  1  0  0  0  0
  9 23  1  0  0  0  0
 10 24  1  0  0  0  0
 10  9  1  0  0  0  0
 11 10  2  0  0  0  0
 12 11  1  0  0  0  0
 12  7  2  0  0  0  0
 13  2  1  0  0  0  0
 13 30  1  0  0  0  0
 14 13  2  0  0  0  0
 16  1  1  0  0  0  0
 18  3  1  0  0  0  0
 20  5  1  0  0  0  0
 25 11  1  0  0  0  0
 26 35  1  0  0  0  0
 27 36  1  6  0  0  0
 27 26  1  0  0  0  0
 27 29  1  0  0  0  0
 28 27  1  0  0  0  0
 29 38  1  1  0  0  0
 29 30  1  0  0  0  0
 29 31  1  0  0  0  0
 30 39  1  0  0  0  0
 31 40  1  0  0  0  0
 31 32  2  0  0  0  0
 33 26  1  0  0  0  0
 34 26  1  0  0  0  0
 37 28  1  0  0  0  0
 40 41  1  0  0  0  0
 41 50  1  1  0  0  0
 41 42  1  0  0  0  0
 42 51  1  0  0  0  0
 42 52  1  0  0  0  0
 43 42  1  0  0  0  0
 44 43  2  0  0  0  0
 45 41  1  0  0  0  0
 45 46  1  0  0  0  0
 47 43  1  0  0  0  0
 48 45  2  0  0  0  0
 49 40  1  0  0  0  0
 53 47  1  0  0  0  0
M  END
$$$$
