WTE.pdb
 OpenBabel07022419183D

 56 57  0  0  1  0  0  0  0  0999 V2000
    0.9670    0.4740    2.6080 N   0  0  0  0  0  0  0  0  0  0  0  0
    0.3740    0.5600    1.3110 C   0  0  1  0  0  0  0  0  0  0  0  0
    1.1890   -0.1180    0.2410 C   0  0  0  0  0  0  0  0  0  0  0  0
    2.5510    0.5110    0.1510 C   0  0  0  0  0  0  0  0  0  0  0  0
    3.7210   -0.0150    0.6290 C   0  0  0  0  0  0  0  0  0  0  0  0
    4.7180    0.8320    0.3610 N   0  0  0  0  0  0  0  0  0  0  0  0
    4.2360    1.9040   -0.2810 C   0  0  0  0  0  0  0  0  0  0  0  0
    4.7870    3.0580   -0.7860 C   0  0  0  0  0  0  0  0  0  0  0  0
    4.0340    4.0160   -1.4160 C   0  0  0  0  0  0  0  0  0  0  0  0
    2.6550    3.8430   -1.5650 C   0  0  0  0  0  0  0  0  0  0  0  0
    2.1080    2.6830   -1.0560 C   0  0  0  0  0  0  0  0  0  0  0  0
    2.8800    1.7190   -0.4210 C   0  0  0  0  0  0  0  0  0  0  0  0
   -0.9960   -0.0550    1.2710 C   0  0  0  0  0  0  0  0  0  0  0  0
   -1.5780   -0.0210    0.1590 O   0  0  0  0  0  0  0  0  0  0  0  0
    1.8540   -0.0400    2.6590 H   0  0  0  0  0  0  0  0  0  0  0  0
    1.1090    1.4010    3.0700 H   0  0  0  0  0  0  0  0  0  0  0  0
    0.2670    1.6420    1.0590 H   0  0  0  0  0  0  0  0  0  0  0  0
    1.2490   -1.1840    0.4610 H   0  0  0  0  0  0  0  0  0  0  0  0
    0.7460    0.0040   -0.7670 H   0  0  0  0  0  0  0  0  0  0  0  0
    3.7940   -0.9670    1.1370 H   0  0  0  0  0  0  0  0  0  0  0  0
    5.7390    0.6950    0.6090 H   0  0  0  0  0  0  0  0  0  0  0  0
    5.8470    3.2120   -0.6820 H   0  0  0  0  0  0  0  0  0  0  0  0
    4.4550    4.9300   -1.8180 H   0  0  0  0  0  0  0  0  0  0  0  0
    2.0620    4.5790   -2.0520 H   0  0  0  0  0  0  0  0  0  0  0  0
    1.0590    2.4960   -1.1420 H   0  0  0  0  0  0  0  0  0  0  0  0
   -4.1360    0.7190    1.4020 C   0  0  0  0  0  0  0  0  0  0  0  0
   -4.0330   -0.2970    2.4810 C   0  0  1  0  0  0  0  0  0  0  0  0
   -5.2140   -1.0450    2.4720 O   0  0  0  0  0  0  0  0  0  0  0  0
   -2.8770   -1.2300    2.4280 C   0  0  2  0  0  0  0  0  0  0  0  0
   -1.5780   -0.6330    2.4310 N   0  0  0  0  0  0  0  0  0  0  0  0
   -3.0390   -2.3580    1.4750 C   0  0  0  0  0  0  0  0  0  0  0  0
   -4.1990   -2.8210    1.3330 O   0  0  0  0  0  0  0  0  0  0  0  0
   -3.3900    1.5410    1.4590 H   0  0  0  0  0  0  0  0  0  0  0  0
   -5.1190    1.2590    1.5880 H   0  0  0  0  0  0  0  0  0  0  0  0
   -4.2720    0.3010    0.3820 H   0  0  0  0  0  0  0  0  0  0  0  0
   -3.9420    0.2780    3.4490 H   0  0  0  0  0  0  0  0  0  0  0  0
   -5.9630   -0.5050    2.1200 H   0  0  0  0  0  0  0  0  0  0  0  0
   -2.9410   -1.7800    3.4530 H   0  0  0  0  0  0  0  0  0  0  0  0
   -0.9670   -0.5810    3.2930 H   0  0  0  0  0  0  0  0  0  0  0  0
   -1.9890   -2.9120    0.7570 N   0  0  0  0  0  0  0  0  0  0  0  0
   -2.1040   -4.0120   -0.1810 C   0  0  1  0  0  0  0  0  0  0  0  0
   -1.8370   -3.6250   -1.5820 C   0  0  0  0  0  0  0  0  0  0  0  0
   -0.5150   -3.0100   -1.8460 C   0  0  0  0  0  0  0  0  0  0  0  0
    0.7010   -3.7750   -1.5940 C   0  0  0  0  0  0  0  0  0  0  0  0
    0.8040   -4.9510   -1.2160 O   0  0  0  0  0  0  0  0  0  0  0  0
   -1.5210   -5.2690    0.2170 C   0  0  0  0  0  0  0  0  0  0  0  0
   -1.7270   -6.2780   -0.5480 O   0  0  0  0  0  0  0  0  0  0  0  0
    1.9650   -3.1380   -1.7900 O   0  0  0  0  0  0  0  0  0  0  0  0
   -0.7550   -5.5110    1.3500 O   0  0  0  0  0  0  0  0  0  0  0  0
   -1.0170   -2.5390    0.8840 H   0  0  0  0  0  0  0  0  0  0  0  0
   -3.2570   -4.2180   -0.1750 H   0  0  0  0  0  0  0  0  0  0  0  0
   -1.8930   -4.5400   -2.2640 H   0  0  0  0  0  0  0  0  0  0  0  0
   -2.6830   -2.9930   -2.0070 H   0  0  0  0  0  0  0  0  0  0  0  0
   -0.3920   -2.0540   -1.2220 H   0  0  0  0  0  0  0  0  0  0  0  0
   -0.4500   -2.6580   -2.9380 H   0  0  0  0  0  0  0  0  0  0  0  0
    2.7580   -3.7150   -2.0880 H   0  0  0  0  0  0  0  0  0  0  0  0
  1 15  1  0  0  0  0
  1 16  1  0  0  0  0
  2 17  1  6  0  0  0
  2  1  1  0  0  0  0
  3 18  1  0  0  0  0
  3  2  1  0  0  0  0
  4  3  1  0  0  0  0
  4  5  2  0  0  0  0
  5 20  1  0  0  0  0
  6 21  1  0  0  0  0
  6  5  1  0  0  0  0
  7  6  1  0  0  0  0
  8 22  1  0  0  0  0
  8  7  2  0  0  0  0
  9  8  1  0  0  0  0
 10  9  2  0  0  0  0
 10 11  1  0  0  0  0
 11 12  2  0  0  0  0
 12  7  1  0  0  0  0
 12  4  1  0  0  0  0
 13  2  1  0  0  0  0
 13 30  1  0  0  0  0
 14 13  2  0  0  0  0
 19  3  1  0  0  0  0
 23  9  1  0  0  0  0
 24 10  1  0  0  0  0
 25 11  1  0  0  0  0
 26 33  1  0  0  0  0
 26 34  1  0  0  0  0
 26 27  1  0  0  0  0
 27 36  1  1  0  0  0
 28 27  1  0  0  0  0
 29 30  1  0  0  0  0
 29 27  1  0  0  0  0
 29 38  1  1  0  0  0
 30 39  1  0  0  0  0
 31 29  1  0  0  0  0
 32 31  2  0  0  0  0
 35 26  1  0  0  0  0
 37 28  1  0  0  0  0
 40 50  1  0  0  0  0
 40 31  1  0  0  0  0
 41 51  1  6  0  0  0
 41 46  1  0  0  0  0
 41 40  1  0  0  0  0
 42 41  1  0  0  0  0
 43 44  1  0  0  0  0
 43 42  1  0  0  0  0
 43 54  1  0  0  0  0
 44 45  2  0  0  0  0
 46 49  1  0  0  0  0
 47 46  2  0  0  0  0
 48 44  1  0  0  0  0
 52 42  1  0  0  0  0
 53 42  1  0  0  0  0
 55 43  1  0  0  0  0
 56 48  1  0  0  0  0
M  END
$$$$
