WTF.pdb
 OpenBabel07022419183D

 60 62  0  0  1  0  0  0  0  0999 V2000
    3.5360    0.4260    1.8000 N   0  0  0  0  0  0  0  0  0  0  0  0
    2.4820    0.7750    2.7700 C   0  0  1  0  0  0  0  0  0  0  0  0
    2.6280    2.1610    3.2310 C   0  0  0  0  0  0  0  0  0  0  0  0
    2.5730    3.2060    2.2060 C   0  0  0  0  0  0  0  0  0  0  0  0
    3.6770    3.8040    1.5620 C   0  0  0  0  0  0  0  0  0  0  0  0
    3.2280    4.7070    0.6800 N   0  0  0  0  0  0  0  0  0  0  0  0
    1.8790    4.7460    0.7020 C   0  0  0  0  0  0  0  0  0  0  0  0
    0.9980    5.5230   -0.0110 C   0  0  0  0  0  0  0  0  0  0  0  0
   -0.3450    5.3700    0.2300 C   0  0  0  0  0  0  0  0  0  0  0  0
   -0.7830    4.4420    1.1790 C   0  0  0  0  0  0  0  0  0  0  0  0
    0.1310    3.6950    1.8550 C   0  0  0  0  0  0  0  0  0  0  0  0
    1.4870    3.8240    1.6390 C   0  0  0  0  0  0  0  0  0  0  0  0
    1.2180    0.2540    2.3010 C   0  0  0  0  0  0  0  0  0  0  0  0
    0.1320    0.3030    2.9560 O   0  0  0  0  0  0  0  0  0  0  0  0
    3.5240    1.0860    1.0190 H   0  0  0  0  0  0  0  0  0  0  0  0
    4.4390    0.5630    2.3310 H   0  0  0  0  0  0  0  0  0  0  0  0
    2.7770    0.0820    3.6540 H   0  0  0  0  0  0  0  0  0  0  0  0
    3.6410    2.2920    3.7390 H   0  0  0  0  0  0  0  0  0  0  0  0
    1.9230    2.4220    4.0710 H   0  0  0  0  0  0  0  0  0  0  0  0
    4.6890    3.5220    1.7980 H   0  0  0  0  0  0  0  0  0  0  0  0
    3.8130    5.3100    0.0490 H   0  0  0  0  0  0  0  0  0  0  0  0
    1.3060    6.2510   -0.7470 H   0  0  0  0  0  0  0  0  0  0  0  0
   -1.1000    5.9470   -0.2920 H   0  0  0  0  0  0  0  0  0  0  0  0
   -1.8310    4.3360    1.3520 H   0  0  0  0  0  0  0  0  0  0  0  0
   -0.1610    2.9560    2.6160 H   0  0  0  0  0  0  0  0  0  0  0  0
   -2.0460   -0.4870   -0.9450 C   0  0  0  0  0  0  0  0  0  0  0  0
   -0.6850    0.0160   -0.5210 C   0  0  1  0  0  0  0  0  0  0  0  0
   -0.9260    1.1870    0.2410 O   0  0  0  0  0  0  0  0  0  0  0  0
   -0.0660   -0.9700    0.4660 C   0  0  2  0  0  0  0  0  0  0  0  0
    1.1580   -0.3780    1.0080 N   0  0  0  0  0  0  0  0  0  0  0  0
    0.3360   -2.2210   -0.1820 C   0  0  0  0  0  0  0  0  0  0  0  0
    1.5900   -2.4630   -0.3420 O   0  0  0  0  0  0  0  0  0  0  0  0
   -2.5790   -1.0070   -0.1200 H   0  0  0  0  0  0  0  0  0  0  0  0
   -2.7240    0.3840   -1.1840 H   0  0  0  0  0  0  0  0  0  0  0  0
   -1.9920   -1.1580   -1.8190 H   0  0  0  0  0  0  0  0  0  0  0  0
   -0.0580    0.2160   -1.3900 H   0  0  0  0  0  0  0  0  0  0  0  0
   -1.6620    0.9410    0.8850 H   0  0  0  0  0  0  0  0  0  0  0  0
   -0.7880   -1.0420    1.2860 H   0  0  0  0  0  0  0  0  0  0  0  0
    2.0040   -0.4310    0.4150 H   0  0  0  0  0  0  0  0  0  0  0  0
   -0.5480   -3.2060   -0.6580 N   0  0  0  0  0  0  0  0  0  0  0  0
   -0.1140   -4.4250   -1.3150 C   0  0  1  0  0  0  0  0  0  0  0  0
   -0.3840   -5.6730   -0.5450 C   0  0  0  0  0  0  0  0  0  0  0  0
   -1.7740   -5.9470   -0.2230 C   0  0  0  0  0  0  0  0  0  0  0  0
   -2.2260   -5.4770    1.0250 C   0  0  0  0  0  0  0  0  0  0  0  0
   -3.5430   -5.7230    1.3510 C   0  0  0  0  0  0  0  0  0  0  0  0
   -4.4140   -6.3960    0.5220 C   0  0  0  0  0  0  0  0  0  0  0  0
   -3.9410   -6.8500   -0.7060 C   0  0  0  0  0  0  0  0  0  0  0  0
   -2.6140   -6.6200   -1.0690 C   0  0  0  0  0  0  0  0  0  0  0  0
   -0.6660   -4.4630   -2.6830 C   0  0  0  0  0  0  0  0  0  0  0  0
   -0.3930   -5.4430   -3.4130 O   0  0  0  0  0  0  0  0  0  0  0  0
   -1.4770   -3.4700   -3.2260 O   0  0  0  0  0  0  0  0  0  0  0  0
   -1.5720   -3.0630   -0.5220 H   0  0  0  0  0  0  0  0  0  0  0  0
    0.9890   -4.3510   -1.4000 H   0  0  0  0  0  0  0  0  0  0  0  0
    0.0080   -6.5250   -1.1570 H   0  0  0  0  0  0  0  0  0  0  0  0
    0.2210   -5.6730    0.3850 H   0  0  0  0  0  0  0  0  0  0  0  0
   -1.5890   -4.9480    1.7160 H   0  0  0  0  0  0  0  0  0  0  0  0
   -3.9710   -5.3850    2.3080 H   0  0  0  0  0  0  0  0  0  0  0  0
   -5.4340   -6.5690    0.8230 H   0  0  0  0  0  0  0  0  0  0  0  0
   -4.5720   -7.3780   -1.3900 H   0  0  0  0  0  0  0  0  0  0  0  0
   -2.2020   -6.9550   -2.0100 H   0  0  0  0  0  0  0  0  0  0  0  0
  1 16  1  0  0  0  0
  1  2  1  0  0  0  0
  2  3  1  0  0  0  0
  2 17  1  1  0  0  0
  3 18  1  0  0  0  0
  3 19  1  0  0  0  0
  4  3  1  0  0  0  0
  5 20  1  0  0  0  0
  5  4  2  0  0  0  0
  6  7  1  0  0  0  0
  6  5  1  0  0  0  0
  7 12  1  0  0  0  0
  8  9  1  0  0  0  0
  8  7  2  0  0  0  0
  9 10  2  0  0  0  0
 10 24  1  0  0  0  0
 10 11  1  0  0  0  0
 11 25  1  0  0  0  0
 12 11  2  0  0  0  0
 12  4  1  0  0  0  0
 13  2  1  0  0  0  0
 13 14  2  0  0  0  0
 15  1  1  0  0  0  0
 21  6  1  0  0  0  0
 22  8  1  0  0  0  0
 23  9  1  0  0  0  0
 26 27  1  0  0  0  0
 26 33  1  0  0  0  0
 27 36  1  6  0  0  0
 27 28  1  0  0  0  0
 27 29  1  0  0  0  0
 28 37  1  0  0  0  0
 29 30  1  0  0  0  0
 29 38  1  1  0  0  0
 30 13  1  0  0  0  0
 31 29  1  0  0  0  0
 32 31  2  0  0  0  0
 34 26  1  0  0  0  0
 35 26  1  0  0  0  0
 39 30  1  0  0  0  0
 40 52  1  0  0  0  0
 40 31  1  0  0  0  0
 41 53  1  6  0  0  0
 41 40  1  0  0  0  0
 41 42  1  0  0  0  0
 42 43  1  0  0  0  0
 42 55  1  0  0  0  0
 43 44  1  0  0  0  0
 44 45  2  0  0  0  0
 44 56  1  0  0  0  0
 45 57  1  0  0  0  0
 46 58  1  0  0  0  0
 46 45  1  0  0  0  0
 47 46  2  0  0  0  0
 48 47  1  0  0  0  0
 48 43  2  0  0  0  0
 49 41  1  0  0  0  0
 50 49  2  0  0  0  0
 51 49  1  0  0  0  0
 54 42  1  0  0  0  0
 59 47  1  0  0  0  0
 60 48  1  0  0  0  0
M  END
$$$$
