WTG.pdb
 OpenBabel07022419183D

 47 48  0  0  1  0  0  0  0  0999 V2000
    1.7570   -4.0740    1.4390 N   0  0  0  0  0  0  0  0  0  0  0  0
    1.5960   -2.6280    1.1170 C   0  0  1  0  0  0  0  0  0  0  0  0
    1.5110   -2.4520   -0.3380 C   0  0  0  0  0  0  0  0  0  0  0  0
    1.3720   -1.0780   -0.8480 C   0  0  0  0  0  0  0  0  0  0  0  0
    0.3030   -0.4250   -1.4350 C   0  0  0  0  0  0  0  0  0  0  0  0
    0.6560    0.8310   -1.7770 N   0  0  0  0  0  0  0  0  0  0  0  0
    1.9410    1.0540   -1.4390 C   0  0  0  0  0  0  0  0  0  0  0  0
    2.7330    2.1750   -1.5910 C   0  0  0  0  0  0  0  0  0  0  0  0
    4.0410    2.1600   -1.1610 C   0  0  0  0  0  0  0  0  0  0  0  0
    4.5130    1.0010   -0.5850 C   0  0  0  0  0  0  0  0  0  0  0  0
    3.7100   -0.1220   -0.4360 C   0  0  0  0  0  0  0  0  0  0  0  0
    2.3930   -0.1140   -0.8660 C   0  0  0  0  0  0  0  0  0  0  0  0
    0.5560   -2.1350    1.9880 C   0  0  0  0  0  0  0  0  0  0  0  0
    0.0700   -2.9450    2.8680 O   0  0  0  0  0  0  0  0  0  0  0  0
    1.0160   -4.5770    0.9030 H   0  0  0  0  0  0  0  0  0  0  0  0
    1.5870   -4.2160    2.4650 H   0  0  0  0  0  0  0  0  0  0  0  0
    2.5740   -2.1700    1.4590 H   0  0  0  0  0  0  0  0  0  0  0  0
    2.4880   -2.8310   -0.7800 H   0  0  0  0  0  0  0  0  0  0  0  0
    0.7500   -3.0980   -0.8380 H   0  0  0  0  0  0  0  0  0  0  0  0
   -0.6530   -0.9040   -1.5740 H   0  0  0  0  0  0  0  0  0  0  0  0
    0.0170    1.5160   -2.2350 H   0  0  0  0  0  0  0  0  0  0  0  0
    2.3670    3.0860   -2.0420 H   0  0  0  0  0  0  0  0  0  0  0  0
    4.7010    3.0180   -1.2590 H   0  0  0  0  0  0  0  0  0  0  0  0
    5.5310    0.9000   -0.2180 H   0  0  0  0  0  0  0  0  0  0  0  0
    4.0840   -1.0340    0.0150 H   0  0  0  0  0  0  0  0  0  0  0  0
   -0.8910    1.9950    2.6060 C   0  0  0  0  0  0  0  0  0  0  0  0
   -0.8870    0.8700    3.5870 C   0  0  1  0  0  0  0  0  0  0  0  0
   -1.9490    1.0700    4.4740 O   0  0  0  0  0  0  0  0  0  0  0  0
   -1.0620   -0.4760    2.9760 C   0  0  2  0  0  0  0  0  0  0  0  0
   -0.0310   -0.8380    2.0220 N   0  0  0  0  0  0  0  0  0  0  0  0
   -2.3890   -0.6070    2.3670 C   0  0  0  0  0  0  0  0  0  0  0  0
   -3.4040   -0.2110    3.0280 O   0  0  0  0  0  0  0  0  0  0  0  0
   -0.3270    1.7640    1.6800 H   0  0  0  0  0  0  0  0  0  0  0  0
   -0.3870    2.8940    3.0430 H   0  0  0  0  0  0  0  0  0  0  0  0
   -1.9400    2.3390    2.3820 H   0  0  0  0  0  0  0  0  0  0  0  0
    0.0380    0.9550    4.1950 H   0  0  0  0  0  0  0  0  0  0  0  0
   -1.9490    0.2640    5.0800 H   0  0  0  0  0  0  0  0  0  0  0  0
   -1.0770   -1.2340    3.8240 H   0  0  0  0  0  0  0  0  0  0  0  0
    0.3300   -0.1520    1.3320 H   0  0  0  0  0  0  0  0  0  0  0  0
   -2.6670   -1.1450    1.0940 N   0  0  0  0  0  0  0  0  0  0  0  0
   -4.0260   -1.2340    0.5790 C   0  0  0  0  0  0  0  0  0  0  0  0
   -4.0210   -1.8650   -0.7530 C   0  0  0  0  0  0  0  0  0  0  0  0
   -2.9460   -2.2660   -1.2510 O   0  0  0  0  0  0  0  0  0  0  0  0
   -5.1610   -2.0500   -1.5140 O   0  0  0  0  0  0  0  0  0  0  0  0
   -1.8680   -1.4840    0.5180 H   0  0  0  0  0  0  0  0  0  0  0  0
   -4.4940   -0.2360    0.4710 H   0  0  0  0  0  0  0  0  0  0  0  0
   -4.6270   -1.8380    1.2810 H   0  0  0  0  0  0  0  0  0  0  0  0
  1 16  1  0  0  0  0
  2  1  1  0  0  0  0
  2 17  1  1  0  0  0
  2 13  1  0  0  0  0
  3  2  1  0  0  0  0
  4  3  1  0  0  0  0
  5  4  2  0  0  0  0
  6  7  1  0  0  0  0
  6  5  1  0  0  0  0
  7 12  1  0  0  0  0
  8  7  2  0  0  0  0
  8  9  1  0  0  0  0
  9 10  2  0  0  0  0
 10 11  1  0  0  0  0
 10 24  1  0  0  0  0
 11 25  1  0  0  0  0
 12  4  1  0  0  0  0
 12 11  2  0  0  0  0
 13 30  1  0  0  0  0
 13 14  2  0  0  0  0
 15  1  1  0  0  0  0
 18  3  1  0  0  0  0
 19  3  1  0  0  0  0
 20  5  1  0  0  0  0
 21  6  1  0  0  0  0
 22  8  1  0  0  0  0
 23  9  1  0  0  0  0
 26 34  1  0  0  0  0
 26 27  1  0  0  0  0
 27 36  1  1  0  0  0
 27 28  1  0  0  0  0
 28 37  1  0  0  0  0
 29 27  1  0  0  0  0
 29 38  1  1  0  0  0
 30 29  1  0  0  0  0
 31 29  1  0  0  0  0
 31 32  2  0  0  0  0
 33 26  1  0  0  0  0
 35 26  1  0  0  0  0
 39 30  1  0  0  0  0
 40 31  1  0  0  0  0
 41 40  1  0  0  0  0
 41 47  1  0  0  0  0
 42 41  1  0  0  0  0
 43 42  1  0  0  0  0
 44 42  2  0  0  0  0
 45 40  1  0  0  0  0
 46 41  1  0  0  0  0
M  END
$$$$
