WTI.pdb
 OpenBabel07022419183D

 59 60  0  0  1  0  0  0  0  0999 V2000
    1.5030    3.1580    0.6480 N   0  0  0  0  0  0  0  0  0  0  0  0
    0.7330    2.1680   -0.0730 C   0  0  1  0  0  0  0  0  0  0  0  0
    1.6330    1.1380   -0.7390 C   0  0  0  0  0  0  0  0  0  0  0  0
    2.4900    0.4070    0.2190 C   0  0  0  0  0  0  0  0  0  0  0  0
    2.2560   -0.8570    0.7500 C   0  0  0  0  0  0  0  0  0  0  0  0
    3.2490   -1.1660    1.6030 N   0  0  0  0  0  0  0  0  0  0  0  0
    4.1370   -0.1640    1.6650 C   0  0  0  0  0  0  0  0  0  0  0  0
    5.3020   -0.0130    2.3750 C   0  0  0  0  0  0  0  0  0  0  0  0
    6.0800    1.1340    2.2720 C   0  0  0  0  0  0  0  0  0  0  0  0
    5.6220    2.1150    1.4180 C   0  0  0  0  0  0  0  0  0  0  0  0
    4.4400    1.9520    0.7030 C   0  0  0  0  0  0  0  0  0  0  0  0
    3.6880    0.8150    0.8200 C   0  0  0  0  0  0  0  0  0  0  0  0
   -0.2910    1.5590    0.7990 C   0  0  0  0  0  0  0  0  0  0  0  0
   -0.3070    1.8210    2.0430 O   0  0  0  0  0  0  0  0  0  0  0  0
    0.9590    3.6120    1.4060 H   0  0  0  0  0  0  0  0  0  0  0  0
    1.8230    3.9120    0.0000 H   0  0  0  0  0  0  0  0  0  0  0  0
    0.1630    2.7370   -0.8590 H   0  0  0  0  0  0  0  0  0  0  0  0
    2.2380    1.6830   -1.5050 H   0  0  0  0  0  0  0  0  0  0  0  0
    1.0280    0.4000   -1.2730 H   0  0  0  0  0  0  0  0  0  0  0  0
    1.4220   -1.4820    0.5160 H   0  0  0  0  0  0  0  0  0  0  0  0
    3.2870   -2.0710    2.1240 H   0  0  0  0  0  0  0  0  0  0  0  0
    5.6910   -0.7760    3.0610 H   0  0  0  0  0  0  0  0  0  0  0  0
    7.0040    1.2620    2.8300 H   0  0  0  0  0  0  0  0  0  0  0  0
    6.2280    3.0060    1.3380 H   0  0  0  0  0  0  0  0  0  0  0  0
    4.1320    2.7320    0.0480 H   0  0  0  0  0  0  0  0  0  0  0  0
   -3.6830    2.1890    1.1970 C   0  0  0  0  0  0  0  0  0  0  0  0
   -3.6730    0.6850    1.0380 C   0  0  1  0  0  0  0  0  0  0  0  0
   -4.0530    0.4040   -0.2610 O   0  0  0  0  0  0  0  0  0  0  0  0
   -2.2730    0.1180    1.2450 C   0  0  2  0  0  0  0  0  0  0  0  0
   -1.3050    0.6720    0.3440 N   0  0  0  0  0  0  0  0  0  0  0  0
   -2.3680   -1.3500    1.2410 C   0  0  0  0  0  0  0  0  0  0  0  0
   -3.2130   -1.9730    1.9620 O   0  0  0  0  0  0  0  0  0  0  0  0
   -3.1670    2.4950    2.1180 H   0  0  0  0  0  0  0  0  0  0  0  0
   -4.7500    2.4890    1.3170 H   0  0  0  0  0  0  0  0  0  0  0  0
   -3.3180    2.7160    0.2940 H   0  0  0  0  0  0  0  0  0  0  0  0
   -4.3470    0.2660    1.7930 H   0  0  0  0  0  0  0  0  0  0  0  0
   -5.0190    0.5640   -0.4240 H   0  0  0  0  0  0  0  0  0  0  0  0
   -2.0120    0.3970    2.3250 H   0  0  0  0  0  0  0  0  0  0  0  0
   -1.3420    0.4200   -0.6650 H   0  0  0  0  0  0  0  0  0  0  0  0
   -2.5710   -2.3870   -2.1820 C   0  0  0  0  0  0  0  0  0  0  0  0
   -2.4320   -3.8380   -1.9140 C   0  0  0  0  0  0  0  0  0  0  0  0
   -1.4890   -4.2550   -0.8490 C   0  0  2  0  0  0  0  0  0  0  0  0
   -1.5090   -5.7930   -0.7610 C   0  0  0  0  0  0  0  0  0  0  0  0
   -1.6740   -3.6620    0.4970 C   0  0  2  0  0  0  0  0  0  0  0  0
   -1.5380   -2.2200    0.4480 N   0  0  0  0  0  0  0  0  0  0  0  0
   -0.5770   -4.2380    1.3740 C   0  0  0  0  0  0  0  0  0  0  0  0
    0.2890   -3.5510    1.9220 O   0  0  0  0  0  0  0  0  0  0  0  0
   -0.5890   -5.6040    1.5400 O   0  0  0  0  0  0  0  0  0  0  0  0
   -3.2020   -1.8500   -1.4660 H   0  0  0  0  0  0  0  0  0  0  0  0
   -1.6320   -1.8500   -2.3960 H   0  0  0  0  0  0  0  0  0  0  0  0
   -3.1410   -2.3080   -3.1640 H   0  0  0  0  0  0  0  0  0  0  0  0
   -3.4680   -4.2210   -1.6750 H   0  0  0  0  0  0  0  0  0  0  0  0
   -2.2090   -4.3350   -2.9020 H   0  0  0  0  0  0  0  0  0  0  0  0
   -0.4510   -4.0270   -1.2430 H   0  0  0  0  0  0  0  0  0  0  0  0
   -2.2210   -6.1550   -0.0230 H   0  0  0  0  0  0  0  0  0  0  0  0
   -1.8890   -6.1480   -1.7630 H   0  0  0  0  0  0  0  0  0  0  0  0
   -0.4850   -6.1950   -0.6950 H   0  0  0  0  0  0  0  0  0  0  0  0
   -2.5960   -3.9720    1.0300 H   0  0  0  0  0  0  0  0  0  0  0  0
   -0.8330   -1.7690   -0.1650 H   0  0  0  0  0  0  0  0  0  0  0  0
  1 15  1  0  0  0  0
  2 17  1  6  0  0  0
  2  1  1  0  0  0  0
  2 13  1  0  0  0  0
  3  2  1  0  0  0  0
  3  4  1  0  0  0  0
  4  5  2  0  0  0  0
  4 12  1  0  0  0  0
  5  6  1  0  0  0  0
  6  7  1  0  0  0  0
  6 21  1  0  0  0  0
  7  8  1  0  0  0  0
  8 22  1  0  0  0  0
  9  8  2  0  0  0  0
  9 23  1  0  0  0  0
 10  9  1  0  0  0  0
 11 12  1  0  0  0  0
 11 10  2  0  0  0  0
 12  7  2  0  0  0  0
 13 14  2  0  0  0  0
 16  1  1  0  0  0  0
 18  3  1  0  0  0  0
 19  3  1  0  0  0  0
 20  5  1  0  0  0  0
 24 10  1  0  0  0  0
 25 11  1  0  0  0  0
 26 34  1  0  0  0  0
 26 33  1  0  0  0  0
 27 26  1  0  0  0  0
 27 29  1  0  0  0  0
 27 36  1  1  0  0  0
 28 27  1  0  0  0  0
 29 38  1  1  0  0  0
 30 13  1  0  0  0  0
 30 29  1  0  0  0  0
 31 29  1  0  0  0  0
 31 32  2  0  0  0  0
 35 26  1  0  0  0  0
 37 28  1  0  0  0  0
 39 30  1  0  0  0  0
 40 41  1  0  0  0  0
 40 49  1  0  0  0  0
 41 52  1  0  0  0  0
 41 42  1  0  0  0  0
 42 54  1  6  0  0  0
 42 43  1  0  0  0  0
 42 44  1  0  0  0  0
 43 57  1  0  0  0  0
 43 55  1  0  0  0  0
 44 58  1  1  0  0  0
 44 46  1  0  0  0  0
 45 44  1  0  0  0  0
 45 31  1  0  0  0  0
 46 48  2  0  0  0  0
 46 47  1  0  0  0  0
 50 40  1  0  0  0  0
 51 40  1  0  0  0  0
 53 41  1  0  0  0  0
 56 43  1  0  0  0  0
 59 45  1  0  0  0  0
M  END
$$$$
