WTK.pdb
 OpenBabel07022419183D

 61 62  0  0  1  0  0  0  0  0999 V2000
   -0.6380   -1.4610    4.7160 N   0  0  0  0  0  0  0  0  0  0  0  0
    0.0980   -0.4130    3.8790 C   0  0  1  0  0  0  0  0  0  0  0  0
    1.3120   -1.1080    3.4860 C   0  0  0  0  0  0  0  0  0  0  0  0
    2.2770   -0.3090    2.7120 C   0  0  0  0  0  0  0  0  0  0  0  0
    3.2990    0.4420    3.3510 C   0  0  0  0  0  0  0  0  0  0  0  0
    4.0090    1.1000    2.4370 N   0  0  0  0  0  0  0  0  0  0  0  0
    3.5090    0.8220    1.2240 C   0  0  0  0  0  0  0  0  0  0  0  0
    3.9340    1.2700   -0.0350 C   0  0  0  0  0  0  0  0  0  0  0  0
    3.2500    0.8160   -1.1250 C   0  0  0  0  0  0  0  0  0  0  0  0
    2.1720   -0.0620   -0.9570 C   0  0  0  0  0  0  0  0  0  0  0  0
    1.7710   -0.4900    0.2840 C   0  0  0  0  0  0  0  0  0  0  0  0
    2.4550   -0.0360    1.3940 C   0  0  0  0  0  0  0  0  0  0  0  0
   -0.9260    0.0720    3.0110 C   0  0  0  0  0  0  0  0  0  0  0  0
   -2.1490   -0.3260    3.2820 O   0  0  0  0  0  0  0  0  0  0  0  0
   -0.8340   -2.1930    3.9950 H   0  0  0  0  0  0  0  0  0  0  0  0
   -1.5610   -1.0520    4.9810 H   0  0  0  0  0  0  0  0  0  0  0  0
    0.2940    0.3540    4.7160 H   0  0  0  0  0  0  0  0  0  0  0  0
    1.8920   -1.5050    4.3870 H   0  0  0  0  0  0  0  0  0  0  0  0
    1.1250   -2.0730    2.9250 H   0  0  0  0  0  0  0  0  0  0  0  0
    3.4240    0.4350    4.4290 H   0  0  0  0  0  0  0  0  0  0  0  0
    4.8150    1.7240    2.6270 H   0  0  0  0  0  0  0  0  0  0  0  0
    4.7700    1.9480   -0.1260 H   0  0  0  0  0  0  0  0  0  0  0  0
    3.4930    1.0980   -2.1350 H   0  0  0  0  0  0  0  0  0  0  0  0
    1.6340   -0.4210   -1.8310 H   0  0  0  0  0  0  0  0  0  0  0  0
    0.9570   -1.1590    0.4410 H   0  0  0  0  0  0  0  0  0  0  0  0
   -0.9520    2.5570   -0.6430 C   0  0  0  0  0  0  0  0  0  0  0  0
   -2.0040    2.5680    0.4240 C   0  0  1  0  0  0  0  0  0  0  0  0
   -3.2490    2.7840   -0.1970 O   0  0  0  0  0  0  0  0  0  0  0  0
   -2.0900    1.2870    1.1860 C   0  0  2  0  0  0  0  0  0  0  0  0
   -0.8720    0.9250    1.8870 N   0  0  0  0  0  0  0  0  0  0  0  0
   -2.6460    0.1970    0.3730 C   0  0  0  0  0  0  0  0  0  0  0  0
   -3.6630    0.4410   -0.3730 O   0  0  0  0  0  0  0  0  0  0  0  0
   -0.2250    3.3730   -0.4120 H   0  0  0  0  0  0  0  0  0  0  0  0
   -1.3810    2.8140   -1.6470 H   0  0  0  0  0  0  0  0  0  0  0  0
   -0.4330    1.5840   -0.7490 H   0  0  0  0  0  0  0  0  0  0  0  0
   -1.8860    3.4190    1.1340 H   0  0  0  0  0  0  0  0  0  0  0  0
   -3.9450    2.7710    0.5310 H   0  0  0  0  0  0  0  0  0  0  0  0
   -2.9180    1.4500    1.9830 H   0  0  0  0  0  0  0  0  0  0  0  0
    0.0580    1.2860    1.6240 H   0  0  0  0  0  0  0  0  0  0  0  0
   -2.1930   -1.1410    0.3060 N   0  0  0  0  0  0  0  0  0  0  0  0
   -2.8700   -2.1320   -0.5450 C   0  0  1  0  0  0  0  0  0  0  0  0
   -1.8120   -2.8790   -1.3600 C   0  0  0  0  0  0  0  0  0  0  0  0
   -1.0310   -1.9570   -2.2240 C   0  0  0  0  0  0  0  0  0  0  0  0
   -0.0270   -2.6660   -3.0650 C   0  0  0  0  0  0  0  0  0  0  0  0
    1.0110   -3.4580   -2.3490 C   0  0  0  0  0  0  0  0  0  0  0  0
    0.4690   -4.5290   -1.5710 N   0  0  0  0  0  0  0  0  0  0  0  0
   -3.5060   -3.1720    0.3000 C   0  0  0  0  0  0  0  0  0  0  0  0
   -4.1300   -4.0980   -0.2510 O   0  0  0  0  0  0  0  0  0  0  0  0
   -3.4160   -3.1290    1.6700 O   0  0  0  0  0  0  0  0  0  0  0  0
   -1.3690   -1.3950    0.8810 H   0  0  0  0  0  0  0  0  0  0  0  0
   -3.6450   -1.6720   -1.1580 H   0  0  0  0  0  0  0  0  0  0  0  0
   -2.3020   -3.6690   -1.9520 H   0  0  0  0  0  0  0  0  0  0  0  0
   -1.1950   -3.3850   -0.5640 H   0  0  0  0  0  0  0  0  0  0  0  0
   -0.6020   -1.1010   -1.6570 H   0  0  0  0  0  0  0  0  0  0  0  0
   -1.7840   -1.5010   -2.9440 H   0  0  0  0  0  0  0  0  0  0  0  0
    0.4550   -1.9660   -3.8130 H   0  0  0  0  0  0  0  0  0  0  0  0
   -0.5870   -3.3840   -3.7510 H   0  0  0  0  0  0  0  0  0  0  0  0
    1.7990   -3.8490   -3.0500 H   0  0  0  0  0  0  0  0  0  0  0  0
    1.5620   -2.7970   -1.6300 H   0  0  0  0  0  0  0  0  0  0  0  0
   -0.0280   -5.2510   -2.1220 H   0  0  0  0  0  0  0  0  0  0  0  0
    1.1950   -4.9150   -0.9560 H   0  0  0  0  0  0  0  0  0  0  0  0
  1 16  1  0  0  0  0
  2 17  1  1  0  0  0
  2  1  1  0  0  0  0
  3  2  1  0  0  0  0
  3 18  1  0  0  0  0
  4  5  2  0  0  0  0
  4  3  1  0  0  0  0
  5 20  1  0  0  0  0
  6 21  1  0  0  0  0
  6  5  1  0  0  0  0
  7 12  1  0  0  0  0
  7  6  1  0  0  0  0
  8  7  2  0  0  0  0
  9 10  2  0  0  0  0
  9  8  1  0  0  0  0
 10 11  1  0  0  0  0
 11 25  1  0  0  0  0
 11 12  2  0  0  0  0
 12  4  1  0  0  0  0
 13 14  2  0  0  0  0
 13  2  1  0  0  0  0
 15  1  1  0  0  0  0
 19  3  1  0  0  0  0
 22  8  1  0  0  0  0
 23  9  1  0  0  0  0
 24 10  1  0  0  0  0
 26 33  1  0  0  0  0
 26 27  1  0  0  0  0
 27 36  1  1  0  0  0
 27 29  1  0  0  0  0
 28 27  1  0  0  0  0
 28 37  1  0  0  0  0
 29 30  1  0  0  0  0
 29 38  1  1  0  0  0
 30 13  1  0  0  0  0
 31 29  1  0  0  0  0
 32 31  2  0  0  0  0
 34 26  1  0  0  0  0
 35 26  1  0  0  0  0
 39 30  1  0  0  0  0
 40 31  1  0  0  0  0
 40 50  1  0  0  0  0
 41 51  1  6  0  0  0
 41 47  1  0  0  0  0
 41 40  1  0  0  0  0
 42 53  1  0  0  0  0
 42 41  1  0  0  0  0
 43 54  1  0  0  0  0
 43 42  1  0  0  0  0
 44 45  1  0  0  0  0
 44 43  1  0  0  0  0
 45 59  1  0  0  0  0
 45 46  1  0  0  0  0
 46 61  1  0  0  0  0
 47 49  1  0  0  0  0
 48 47  2  0  0  0  0
 52 42  1  0  0  0  0
 55 43  1  0  0  0  0
 56 44  1  0  0  0  0
 57 44  1  0  0  0  0
 58 45  1  0  0  0  0
 60 46  1  0  0  0  0
M  END
$$$$
