WTL.pdb
 OpenBabel07022419183D

 59 60  0  0  1  0  0  0  0  0999 V2000
    1.4500    2.9300    0.2010 N   0  0  0  0  0  0  0  0  0  0  0  0
    0.6670    1.8070   -0.2490 C   0  0  1  0  0  0  0  0  0  0  0  0
    1.6060    0.6680   -0.7080 C   0  0  0  0  0  0  0  0  0  0  0  0
    2.4950    0.2660    0.4140 C   0  0  0  0  0  0  0  0  0  0  0  0
    2.3110   -0.7710    1.3250 C   0  0  0  0  0  0  0  0  0  0  0  0
    3.3310   -0.7740    2.2150 N   0  0  0  0  0  0  0  0  0  0  0  0
    4.1820    0.2210    1.9260 C   0  0  0  0  0  0  0  0  0  0  0  0
    5.3570    0.6390    2.5040 C   0  0  0  0  0  0  0  0  0  0  0  0
    6.0860    1.7080    2.0190 C   0  0  0  0  0  0  0  0  0  0  0  0
    5.5850    2.3520    0.9140 C   0  0  0  0  0  0  0  0  0  0  0  0
    4.3880    1.9350    0.3170 C   0  0  0  0  0  0  0  0  0  0  0  0
    3.6690    0.8720    0.8070 C   0  0  0  0  0  0  0  0  0  0  0  0
   -0.2700    1.2650    0.7400 C   0  0  0  0  0  0  0  0  0  0  0  0
   -0.1150    1.5050    1.9610 O   0  0  0  0  0  0  0  0  0  0  0  0
    1.7750    3.4500   -0.6440 H   0  0  0  0  0  0  0  0  0  0  0  0
    0.8300    3.5760    0.7390 H   0  0  0  0  0  0  0  0  0  0  0  0
    0.1530    2.1310   -1.1960 H   0  0  0  0  0  0  0  0  0  0  0  0
    2.2610    1.0160   -1.5310 H   0  0  0  0  0  0  0  0  0  0  0  0
    0.9850   -0.1870   -1.0360 H   0  0  0  0  0  0  0  0  0  0  0  0
    1.4940   -1.4630    1.3390 H   0  0  0  0  0  0  0  0  0  0  0  0
    3.3960   -1.4670    2.9890 H   0  0  0  0  0  0  0  0  0  0  0  0
    5.7780    0.1390    3.3890 H   0  0  0  0  0  0  0  0  0  0  0  0
    7.0100    2.0450    2.4650 H   0  0  0  0  0  0  0  0  0  0  0  0
    6.1010    3.1990    0.4760 H   0  0  0  0  0  0  0  0  0  0  0  0
    4.0230    2.4590   -0.5650 H   0  0  0  0  0  0  0  0  0  0  0  0
   -3.1970    2.1600    1.9310 C   0  0  0  0  0  0  0  0  0  0  0  0
   -3.5790    0.8060    1.4300 C   0  0  1  0  0  0  0  0  0  0  0  0
   -4.1520    0.7960    0.1800 O   0  0  0  0  0  0  0  0  0  0  0  0
   -2.3130   -0.0770    1.3700 C   0  0  2  0  0  0  0  0  0  0  0  0
   -1.3980    0.4540    0.3970 N   0  0  0  0  0  0  0  0  0  0  0  0
   -2.7170   -1.4470    1.0040 C   0  0  0  0  0  0  0  0  0  0  0  0
   -3.5170   -2.0130    1.8370 O   0  0  0  0  0  0  0  0  0  0  0  0
   -2.6490    2.0090    2.8960 H   0  0  0  0  0  0  0  0  0  0  0  0
   -4.1010    2.7560    2.2150 H   0  0  0  0  0  0  0  0  0  0  0  0
   -2.5420    2.7340    1.2710 H   0  0  0  0  0  0  0  0  0  0  0  0
   -4.2970    0.3590    2.1470 H   0  0  0  0  0  0  0  0  0  0  0  0
   -4.7510    1.5930    0.0690 H   0  0  0  0  0  0  0  0  0  0  0  0
   -1.9320   -0.0470    2.3980 H   0  0  0  0  0  0  0  0  0  0  0  0
   -1.5310    0.2710   -0.6160 H   0  0  0  0  0  0  0  0  0  0  0  0
    0.2480   -3.4570   -0.2690 C   0  0  0  0  0  0  0  0  0  0  0  0
   -0.5220   -4.6480   -0.7220 C   0  0  0  0  0  0  0  0  0  0  0  0
   -0.5050   -4.7340   -2.2280 C   0  0  0  0  0  0  0  0  0  0  0  0
   -1.8970   -4.6440   -0.1520 C   0  0  0  0  0  0  0  0  0  0  0  0
   -2.7540   -3.5030   -0.4990 C   0  0  2  0  0  0  0  0  0  0  0  0
   -2.3440   -2.1890   -0.1200 N   0  0  0  0  0  0  0  0  0  0  0  0
   -4.2130   -3.7910   -0.2520 C   0  0  0  0  0  0  0  0  0  0  0  0
   -5.0170   -2.9390    0.1290 O   0  0  0  0  0  0  0  0  0  0  0  0
   -4.6450   -5.0870   -0.4720 O   0  0  0  0  0  0  0  0  0  0  0  0
   -0.2250   -2.9630    0.6050 H   0  0  0  0  0  0  0  0  0  0  0  0
    0.3940   -2.7770   -1.1440 H   0  0  0  0  0  0  0  0  0  0  0  0
    1.2800   -3.7910    0.0060 H   0  0  0  0  0  0  0  0  0  0  0  0
   -0.0090   -5.5730   -0.3220 H   0  0  0  0  0  0  0  0  0  0  0  0
    0.2390   -4.0130   -2.6710 H   0  0  0  0  0  0  0  0  0  0  0  0
   -0.1290   -5.7360   -2.5170 H   0  0  0  0  0  0  0  0  0  0  0  0
   -1.4950   -4.6290   -2.6790 H   0  0  0  0  0  0  0  0  0  0  0  0
   -1.8660   -4.7200    0.9810 H   0  0  0  0  0  0  0  0  0  0  0  0
   -2.4090   -5.5840   -0.5390 H   0  0  0  0  0  0  0  0  0  0  0  0
   -2.7830   -3.4420   -1.6660 H   0  0  0  0  0  0  0  0  0  0  0  0
   -1.6640   -1.6950   -0.7820 H   0  0  0  0  0  0  0  0  0  0  0  0
  1 16  1  0  0  0  0
  2 17  1  6  0  0  0
  2  1  1  0  0  0  0
  2 13  1  0  0  0  0
  3  2  1  0  0  0  0
  3  4  1  0  0  0  0
  4 12  1  0  0  0  0
  4  5  2  0  0  0  0
  5 20  1  0  0  0  0
  5  6  1  0  0  0  0
  6 21  1  0  0  0  0
  7  6  1  0  0  0  0
  7  8  1  0  0  0  0
  8 22  1  0  0  0  0
  9 23  1  0  0  0  0
  9  8  2  0  0  0  0
 10  9  1  0  0  0  0
 11 12  1  0  0  0  0
 11 10  2  0  0  0  0
 12  7  2  0  0  0  0
 13 14  2  0  0  0  0
 15  1  1  0  0  0  0
 18  3  1  0  0  0  0
 19  3  1  0  0  0  0
 24 10  1  0  0  0  0
 25 11  1  0  0  0  0
 26 34  1  0  0  0  0
 26 33  1  0  0  0  0
 27 26  1  0  0  0  0
 27 36  1  1  0  0  0
 28 27  1  0  0  0  0
 29 27  1  0  0  0  0
 29 38  1  1  0  0  0
 30 13  1  0  0  0  0
 30 29  1  0  0  0  0
 31 29  1  0  0  0  0
 31 32  2  0  0  0  0
 35 26  1  0  0  0  0
 37 28  1  0  0  0  0
 39 30  1  0  0  0  0
 40 51  1  0  0  0  0
 40 49  1  0  0  0  0
 41 52  1  0  0  0  0
 41 40  1  0  0  0  0
 41 43  1  0  0  0  0
 42 41  1  0  0  0  0
 43 56  1  0  0  0  0
 44 58  1  6  0  0  0
 44 46  1  0  0  0  0
 44 43  1  0  0  0  0
 44 45  1  0  0  0  0
 45 31  1  0  0  0  0
 46 47  1  0  0  0  0
 48 46  2  0  0  0  0
 50 40  1  0  0  0  0
 53 42  1  0  0  0  0
 54 42  1  0  0  0  0
 55 42  1  0  0  0  0
 57 43  1  0  0  0  0
 59 45  1  0  0  0  0
M  END
$$$$
