WTN.pdb
 OpenBabel07022419183D

 54 55  0  0  1  0  0  0  0  0999 V2000
    1.5820    1.6640   -0.9710 N   0  0  0  0  0  0  0  0  0  0  0  0
    1.2350    0.2710   -1.2250 C   0  0  1  0  0  0  0  0  0  0  0  0
    2.2570   -0.6270   -0.7600 C   0  0  0  0  0  0  0  0  0  0  0  0
    2.6940   -0.6970    0.6170 C   0  0  0  0  0  0  0  0  0  0  0  0
    2.2610   -1.6420    1.5600 C   0  0  0  0  0  0  0  0  0  0  0  0
    2.8400   -1.4070    2.7370 N   0  0  0  0  0  0  0  0  0  0  0  0
    3.6350   -0.3370    2.5840 C   0  0  0  0  0  0  0  0  0  0  0  0
    4.4690    0.3320    3.4670 C   0  0  0  0  0  0  0  0  0  0  0  0
    5.2050    1.4220    3.0590 C   0  0  0  0  0  0  0  0  0  0  0  0
    5.1140    1.8540    1.7530 C   0  0  0  0  0  0  0  0  0  0  0  0
    4.3020    1.2180    0.8580 C   0  0  0  0  0  0  0  0  0  0  0  0
    3.5640    0.1200    1.2860 C   0  0  0  0  0  0  0  0  0  0  0  0
   -0.1810    0.0990   -0.9030 C   0  0  0  0  0  0  0  0  0  0  0  0
   -0.6980   -0.9440   -1.3800 O   0  0  0  0  0  0  0  0  0  0  0  0
    2.3780    1.9710   -1.5870 H   0  0  0  0  0  0  0  0  0  0  0  0
    0.7940    2.3050   -1.2590 H   0  0  0  0  0  0  0  0  0  0  0  0
    1.2530    0.2290   -2.3690 H   0  0  0  0  0  0  0  0  0  0  0  0
    3.1900   -0.4410   -1.3780 H   0  0  0  0  0  0  0  0  0  0  0  0
    1.9860   -1.6810   -1.0820 H   0  0  0  0  0  0  0  0  0  0  0  0
    1.5640   -2.4260    1.3220 H   0  0  0  0  0  0  0  0  0  0  0  0
    2.6820   -1.9680    3.5970 H   0  0  0  0  0  0  0  0  0  0  0  0
    4.5220   -0.0340    4.4990 H   0  0  0  0  0  0  0  0  0  0  0  0
    5.8490    1.9370    3.7470 H   0  0  0  0  0  0  0  0  0  0  0  0
    5.6740    2.7060    1.3850 H   0  0  0  0  0  0  0  0  0  0  0  0
    4.2060    1.5110   -0.1770 H   0  0  0  0  0  0  0  0  0  0  0  0
   -3.2280    1.5700   -2.0530 C   0  0  0  0  0  0  0  0  0  0  0  0
   -3.2580    1.7840   -0.5720 C   0  0  1  0  0  0  0  0  0  0  0  0
   -4.5620    1.6180   -0.1260 O   0  0  0  0  0  0  0  0  0  0  0  0
   -2.3560    0.8680    0.2110 C   0  0  2  0  0  0  0  0  0  0  0  0
   -0.9920    0.9460   -0.1470 N   0  0  0  0  0  0  0  0  0  0  0  0
   -2.9670   -0.4190    0.5300 C   0  0  0  0  0  0  0  0  0  0  0  0
   -4.2620   -0.4150    0.5230 O   0  0  0  0  0  0  0  0  0  0  0  0
   -3.7810    0.6960   -2.4010 H   0  0  0  0  0  0  0  0  0  0  0  0
   -3.7550    2.4620   -2.5050 H   0  0  0  0  0  0  0  0  0  0  0  0
   -2.1870    1.6460   -2.4600 H   0  0  0  0  0  0  0  0  0  0  0  0
   -2.9350    2.8120   -0.3650 H   0  0  0  0  0  0  0  0  0  0  0  0
   -4.6790    1.9530    0.8020 H   0  0  0  0  0  0  0  0  0  0  0  0
   -2.4100    1.3770    1.2790 H   0  0  0  0  0  0  0  0  0  0  0  0
   -0.4500    1.8040    0.2130 H   0  0  0  0  0  0  0  0  0  0  0  0
   -0.9950   -5.2190   -0.8570 N   0  0  0  0  0  0  0  0  0  0  0  0
   -1.4990   -4.2950    0.1360 C   0  0  0  0  0  0  0  0  0  0  0  0
   -0.6760   -3.8890    0.9860 O   0  0  0  0  0  0  0  0  0  0  0  0
   -2.9110   -3.8940    0.0950 C   0  0  0  0  0  0  0  0  0  0  0  0
   -3.2000   -2.8440    1.1270 C   0  0  2  0  0  0  0  0  0  0  0  0
   -2.3900   -1.6410    0.8440 N   0  0  0  0  0  0  0  0  0  0  0  0
   -2.7540   -3.3600    2.4470 C   0  0  0  0  0  0  0  0  0  0  0  0
   -3.2660   -4.4000    2.9640 O   0  0  0  0  0  0  0  0  0  0  0  0
   -1.7590   -2.7450    3.1930 O   0  0  0  0  0  0  0  0  0  0  0  0
   -0.8870   -6.2050   -0.5300 H   0  0  0  0  0  0  0  0  0  0  0  0
   -0.7610   -4.9170   -1.8190 H   0  0  0  0  0  0  0  0  0  0  0  0
   -3.6060   -4.7560    0.1890 H   0  0  0  0  0  0  0  0  0  0  0  0
   -3.0670   -3.3970   -0.9000 H   0  0  0  0  0  0  0  0  0  0  0  0
   -4.2840   -2.5550    1.1250 H   0  0  0  0  0  0  0  0  0  0  0  0
   -1.3730   -1.7420    0.9250 H   0  0  0  0  0  0  0  0  0  0  0  0
  2 17  1  6  0  0  0
  2  1  1  0  0  0  0
  2 13  1  0  0  0  0
  2  3  1  0  0  0  0
  3  4  1  0  0  0  0
  4 12  1  0  0  0  0
  4  5  2  0  0  0  0
  5  6  1  0  0  0  0
  6 21  1  0  0  0  0
  7  6  1  0  0  0  0
  7  8  1  0  0  0  0
  8 22  1  0  0  0  0
  9  8  2  0  0  0  0
  9 23  1  0  0  0  0
 10  9  1  0  0  0  0
 11 12  1  0  0  0  0
 11 10  2  0  0  0  0
 12  7  2  0  0  0  0
 13 30  1  0  0  0  0
 14 13  2  0  0  0  0
 15  1  1  0  0  0  0
 16  1  1  0  0  0  0
 18  3  1  0  0  0  0
 19  3  1  0  0  0  0
 20  5  1  0  0  0  0
 24 10  1  0  0  0  0
 25 11  1  0  0  0  0
 26 27  1  0  0  0  0
 27 36  1  1  0  0  0
 27 28  1  0  0  0  0
 27 29  1  0  0  0  0
 28 37  1  0  0  0  0
 29 31  1  0  0  0  0
 29 38  1  1  0  0  0
 30 29  1  0  0  0  0
 30 39  1  0  0  0  0
 31 45  1  0  0  0  0
 32 31  2  0  0  0  0
 33 26  1  0  0  0  0
 34 26  1  0  0  0  0
 35 26  1  0  0  0  0
 40 49  1  0  0  0  0
 40 41  1  0  0  0  0
 41 42  2  0  0  0  0
 43 41  1  0  0  0  0
 43 51  1  0  0  0  0
 43 44  1  0  0  0  0
 44 53  1  1  0  0  0
 44 46  1  0  0  0  0
 45 54  1  0  0  0  0
 45 44  1  0  0  0  0
 46 47  2  0  0  0  0
 46 48  1  0  0  0  0
 50 40  1  0  0  0  0
 52 43  1  0  0  0  0
M  END
$$$$
