WTS.pdb
 OpenBabel07022419193D

 51 52  0  0  1  0  0  0  0  0999 V2000
    1.4190    0.0260   -1.0710 N   0  0  0  0  0  0  0  0  0  0  0  0
    1.6610    0.0500    0.3610 C   0  0  1  0  0  0  0  0  0  0  0  0
    2.1430    1.4490    0.6900 C   0  0  0  0  0  0  0  0  0  0  0  0
    3.3860    1.7000   -0.0790 C   0  0  0  0  0  0  0  0  0  0  0  0
    3.5760    2.4430   -1.2330 C   0  0  0  0  0  0  0  0  0  0  0  0
    4.8840    2.3990   -1.5980 N   0  0  0  0  0  0  0  0  0  0  0  0
    5.5570    1.6450   -0.7110 C   0  0  0  0  0  0  0  0  0  0  0  0
    6.8690    1.2530   -0.5630 C   0  0  0  0  0  0  0  0  0  0  0  0
    7.2740    0.4520    0.4860 C   0  0  0  0  0  0  0  0  0  0  0  0
    6.3730    0.0090    1.4310 C   0  0  0  0  0  0  0  0  0  0  0  0
    5.0500    0.3950    1.2940 C   0  0  0  0  0  0  0  0  0  0  0  0
    4.6470    1.2000    0.2400 C   0  0  0  0  0  0  0  0  0  0  0  0
    0.4610   -0.3210    1.1320 C   0  0  0  0  0  0  0  0  0  0  0  0
    0.5480   -0.4180    2.3710 O   0  0  0  0  0  0  0  0  0  0  0  0
    1.2220   -0.9580   -1.3950 H   0  0  0  0  0  0  0  0  0  0  0  0
    0.6300    0.6530   -1.3160 H   0  0  0  0  0  0  0  0  0  0  0  0
    2.4580   -0.6810    0.5750 H   0  0  0  0  0  0  0  0  0  0  0  0
    2.4290    1.4650    1.7750 H   0  0  0  0  0  0  0  0  0  0  0  0
    1.3720    2.2040    0.4640 H   0  0  0  0  0  0  0  0  0  0  0  0
    2.7910    2.9770   -1.7580 H   0  0  0  0  0  0  0  0  0  0  0  0
    5.3470    2.8530   -2.4150 H   0  0  0  0  0  0  0  0  0  0  0  0
    7.5670    1.6050   -1.3090 H   0  0  0  0  0  0  0  0  0  0  0  0
    8.2980    0.1400    0.6120 H   0  0  0  0  0  0  0  0  0  0  0  0
    6.6200   -0.6150    2.2710 H   0  0  0  0  0  0  0  0  0  0  0  0
    4.2910    0.0730    2.0170 H   0  0  0  0  0  0  0  0  0  0  0  0
   -2.6660    1.3550    1.9790 C   0  0  0  0  0  0  0  0  0  0  0  0
   -3.0750    0.1210    1.1880 C   0  0  1  0  0  0  0  0  0  0  0  0
   -3.4830    0.4080   -0.0980 O   0  0  0  0  0  0  0  0  0  0  0  0
   -1.9920   -0.9410    1.2440 C   0  0  2  0  0  0  0  0  0  0  0  0
   -0.8070   -0.5790    0.5390 N   0  0  0  0  0  0  0  0  0  0  0  0
   -2.5600   -2.1660    0.6270 C   0  0  0  0  0  0  0  0  0  0  0  0
   -2.0040   -2.6900   -0.3420 O   0  0  0  0  0  0  0  0  0  0  0  0
   -2.4510    2.2240    1.3180 H   0  0  0  0  0  0  0  0  0  0  0  0
   -1.7910    1.1350    2.6510 H   0  0  0  0  0  0  0  0  0  0  0  0
   -3.4720    1.6950    2.6670 H   0  0  0  0  0  0  0  0  0  0  0  0
   -3.9630   -0.3060    1.7170 H   0  0  0  0  0  0  0  0  0  0  0  0
   -3.8250    1.3430   -0.1170 H   0  0  0  0  0  0  0  0  0  0  0  0
   -1.8160   -1.0980    2.3360 H   0  0  0  0  0  0  0  0  0  0  0  0
   -0.8510   -0.4890   -0.5000 H   0  0  0  0  0  0  0  0  0  0  0  0
   -4.8220   -4.7760    2.6550 O   0  0  0  0  0  0  0  0  0  0  0  0
   -4.1380   -5.1380    1.5000 C   0  0  0  0  0  0  0  0  0  0  0  0
   -4.3120   -3.9760    0.5120 C   0  0  2  0  0  0  0  0  0  0  0  0
   -3.7490   -2.7810    1.1130 N   0  0  0  0  0  0  0  0  0  0  0  0
   -5.7120   -3.8070    0.1240 C   0  0  0  0  0  0  0  0  0  0  0  0
   -6.2890   -2.7170    0.3270 O   0  0  0  0  0  0  0  0  0  0  0  0
   -6.4220   -4.8300   -0.4660 O   0  0  0  0  0  0  0  0  0  0  0  0
   -4.4890   -5.3330    3.4190 H   0  0  0  0  0  0  0  0  0  0  0  0
   -4.6460   -6.0260    1.0740 H   0  0  0  0  0  0  0  0  0  0  0  0
   -3.0700   -5.2800    1.7040 H   0  0  0  0  0  0  0  0  0  0  0  0
   -3.6440   -4.2590   -0.3530 H   0  0  0  0  0  0  0  0  0  0  0  0
   -4.2060   -2.3250    1.9390 H   0  0  0  0  0  0  0  0  0  0  0  0
  1  2  1  0  0  0  0
  2 17  1  1  0  0  0
  2  3  1  0  0  0  0
  2 13  1  0  0  0  0
  3 18  1  0  0  0  0
  4 12  1  0  0  0  0
  4  3  1  0  0  0  0
  5  4  2  0  0  0  0
  6  5  1  0  0  0  0
  6  7  1  0  0  0  0
  7  8  2  0  0  0  0
  7 12  1  0  0  0  0
  8  9  1  0  0  0  0
  9 23  1  0  0  0  0
  9 10  2  0  0  0  0
 10 24  1  0  0  0  0
 11 10  1  0  0  0  0
 11 25  1  0  0  0  0
 12 11  2  0  0  0  0
 13 14  2  0  0  0  0
 15  1  1  0  0  0  0
 16  1  1  0  0  0  0
 19  3  1  0  0  0  0
 20  5  1  0  0  0  0
 21  6  1  0  0  0  0
 22  8  1  0  0  0  0
 26 34  1  0  0  0  0
 26 35  1  0  0  0  0
 27 29  1  0  0  0  0
 27 36  1  1  0  0  0
 27 26  1  0  0  0  0
 28 27  1  0  0  0  0
 29 38  1  1  0  0  0
 30 13  1  0  0  0  0
 30 29  1  0  0  0  0
 31 43  1  0  0  0  0
 31 29  1  0  0  0  0
 32 31  2  0  0  0  0
 33 26  1  0  0  0  0
 37 28  1  0  0  0  0
 39 30  1  0  0  0  0
 40 47  1  0  0  0  0
 41 49  1  0  0  0  0
 41 40  1  0  0  0  0
 42 50  1  6  0  0  0
 42 43  1  0  0  0  0
 42 41  1  0  0  0  0
 43 51  1  0  0  0  0
 44 45  1  0  0  0  0
 44 42  1  0  0  0  0
 46 44  2  0  0  0  0
 48 41  1  0  0  0  0
M  END
$$$$
