WTT.pdb
 OpenBabel07022419193D

 54 55  0  0  1  0  0  0  0  0999 V2000
    0.0200    2.9010    0.0710 N   0  0  0  0  0  0  0  0  0  0  0  0
    0.5720    2.3020   -1.1140 C   0  0  1  0  0  0  0  0  0  0  0  0
    2.0510    2.5670   -1.1730 C   0  0  0  0  0  0  0  0  0  0  0  0
    2.8030    2.0390   -0.0320 C   0  0  0  0  0  0  0  0  0  0  0  0
    3.4910    0.8170   -0.0060 C   0  0  0  0  0  0  0  0  0  0  0  0
    4.0220    0.6700    1.2000 N   0  0  0  0  0  0  0  0  0  0  0  0
    3.7310    1.7250    1.9910 C   0  0  0  0  0  0  0  0  0  0  0  0
    4.0860    1.9850    3.3100 C   0  0  0  0  0  0  0  0  0  0  0  0
    3.6580    3.1670    3.8940 C   0  0  0  0  0  0  0  0  0  0  0  0
    2.8980    4.0280    3.1300 C   0  0  0  0  0  0  0  0  0  0  0  0
    2.5440    3.7700    1.8190 C   0  0  0  0  0  0  0  0  0  0  0  0
    2.9690    2.5920    1.2370 C   0  0  0  0  0  0  0  0  0  0  0  0
    0.3860    0.8170   -1.1100 C   0  0  0  0  0  0  0  0  0  0  0  0
    0.8670    0.1070   -2.0580 O   0  0  0  0  0  0  0  0  0  0  0  0
   -0.9550    3.2460   -0.0620 H   0  0  0  0  0  0  0  0  0  0  0  0
    0.1760    2.3990    0.9470 H   0  0  0  0  0  0  0  0  0  0  0  0
    0.0620    2.7390   -2.0240 H   0  0  0  0  0  0  0  0  0  0  0  0
    2.4500    2.1190   -2.1290 H   0  0  0  0  0  0  0  0  0  0  0  0
    2.2380    3.6780   -1.2520 H   0  0  0  0  0  0  0  0  0  0  0  0
    3.5440    0.1480   -0.8650 H   0  0  0  0  0  0  0  0  0  0  0  0
    4.6020   -0.1570    1.5250 H   0  0  0  0  0  0  0  0  0  0  0  0
    4.6830    1.2950    3.8900 H   0  0  0  0  0  0  0  0  0  0  0  0
    3.9180    3.3950    4.9140 H   0  0  0  0  0  0  0  0  0  0  0  0
    2.5530    4.9560    3.5620 H   0  0  0  0  0  0  0  0  0  0  0  0
    1.9610    4.4440    1.2260 H   0  0  0  0  0  0  0  0  0  0  0  0
   -0.2330   -1.3670    2.3220 C   0  0  0  0  0  0  0  0  0  0  0  0
    0.2940   -1.9180    1.0170 C   0  0  1  0  0  0  0  0  0  0  0  0
    0.2460   -3.3010    1.0870 O   0  0  0  0  0  0  0  0  0  0  0  0
   -0.4450   -1.3660   -0.1750 C   0  0  2  0  0  0  0  0  0  0  0  0
   -0.3040    0.0970   -0.1110 N   0  0  0  0  0  0  0  0  0  0  0  0
   -1.8610   -1.7610   -0.2030 C   0  0  0  0  0  0  0  0  0  0  0  0
   -2.7880   -0.8830   -0.1760 O   0  0  0  0  0  0  0  0  0  0  0  0
   -1.3330   -1.5200    2.3940 H   0  0  0  0  0  0  0  0  0  0  0  0
    0.2060   -1.9940    3.1300 H   0  0  0  0  0  0  0  0  0  0  0  0
    0.0890   -0.3400    2.5070 H   0  0  0  0  0  0  0  0  0  0  0  0
    1.3670   -1.6420    0.9640 H   0  0  0  0  0  0  0  0  0  0  0  0
    0.3490   -3.5750    2.0310 H   0  0  0  0  0  0  0  0  0  0  0  0
    0.0590   -1.7630   -1.0800 H   0  0  0  0  0  0  0  0  0  0  0  0
   -0.7200    0.6260    0.6820 H   0  0  0  0  0  0  0  0  0  0  0  0
   -3.2060   -5.5190   -1.5800 C   0  0  0  0  0  0  0  0  0  0  0  0
   -4.0050   -4.2390   -1.5370 C   0  0  1  0  0  0  0  0  0  0  0  0
   -5.3580   -4.5690   -1.5820 O   0  0  0  0  0  0  0  0  0  0  0  0
   -3.7220   -3.4450   -0.2860 C   0  0  2  0  0  0  0  0  0  0  0  0
   -2.2940   -3.1110   -0.2600 N   0  0  0  0  0  0  0  0  0  0  0  0
   -4.0000   -4.3200    0.8760 C   0  0  0  0  0  0  0  0  0  0  0  0
   -5.1520   -4.7760    1.1240 O   0  0  0  0  0  0  0  0  0  0  0  0
   -2.9960   -4.6840    1.7590 O   0  0  0  0  0  0  0  0  0  0  0  0
   -3.5420   -6.0990   -2.4660 H   0  0  0  0  0  0  0  0  0  0  0  0
   -3.3870   -6.1740   -0.7030 H   0  0  0  0  0  0  0  0  0  0  0  0
   -2.1180   -5.3270   -1.7470 H   0  0  0  0  0  0  0  0  0  0  0  0
   -3.7710   -3.6750   -2.4520 H   0  0  0  0  0  0  0  0  0  0  0  0
   -5.6670   -4.7680   -2.4950 H   0  0  0  0  0  0  0  0  0  0  0  0
   -4.3420   -2.5350   -0.2720 H   0  0  0  0  0  0  0  0  0  0  0  0
   -1.5620   -3.8550   -0.2830 H   0  0  0  0  0  0  0  0  0  0  0  0
  1 16  1  0  0  0  0
  2 17  1  6  0  0  0
  2 13  1  0  0  0  0
  2  1  1  0  0  0  0
  3  2  1  0  0  0  0
  3  4  1  0  0  0  0
  4  5  2  0  0  0  0
  4 12  1  0  0  0  0
  5  6  1  0  0  0  0
  6 21  1  0  0  0  0
  6  7  1  0  0  0  0
  7  8  1  0  0  0  0
  8 22  1  0  0  0  0
  8  9  2  0  0  0  0
  9 23  1  0  0  0  0
 10 24  1  0  0  0  0
 10  9  1  0  0  0  0
 11 10  2  0  0  0  0
 12 11  1  0  0  0  0
 12  7  2  0  0  0  0
 13 30  1  0  0  0  0
 14 13  2  0  0  0  0
 15  1  1  0  0  0  0
 18  3  1  0  0  0  0
 19  3  1  0  0  0  0
 20  5  1  0  0  0  0
 25 11  1  0  0  0  0
 26 33  1  0  0  0  0
 26 35  1  0  0  0  0
 26 34  1  0  0  0  0
 27 36  1  6  0  0  0
 27 28  1  0  0  0  0
 27 26  1  0  0  0  0
 28 37  1  0  0  0  0
 29 38  1  6  0  0  0
 29 30  1  0  0  0  0
 29 27  1  0  0  0  0
 30 39  1  0  0  0  0
 31 32  2  0  0  0  0
 31 29  1  0  0  0  0
 40 41  1  0  0  0  0
 40 49  1  0  0  0  0
 41 51  1  6  0  0  0
 41 43  1  0  0  0  0
 42 41  1  0  0  0  0
 43 53  1  1  0  0  0
 43 44  1  0  0  0  0
 43 45  1  0  0  0  0
 44 31  1  0  0  0  0
 45 46  2  0  0  0  0
 45 47  1  0  0  0  0
 48 40  1  0  0  0  0
 50 40  1  0  0  0  0
 52 42  1  0  0  0  0
 54 44  1  0  0  0  0
M  END
$$$$
