WTY.pdb
 OpenBabel07022419193D

 61 63  0  0  1  0  0  0  0  0999 V2000
    2.9390   -1.7070    1.0330 N   0  0  0  0  0  0  0  0  0  0  0  0
    2.6400   -0.7860    2.1200 C   0  0  1  0  0  0  0  0  0  0  0  0
    3.6070    0.3370    2.1890 C   0  0  0  0  0  0  0  0  0  0  0  0
    3.7350    1.1890    1.0190 C   0  0  0  0  0  0  0  0  0  0  0  0
    4.7100    0.9680    0.0360 C   0  0  0  0  0  0  0  0  0  0  0  0
    4.5620    1.8640   -0.9230 N   0  0  0  0  0  0  0  0  0  0  0  0
    3.5370    2.6930   -0.6550 C   0  0  0  0  0  0  0  0  0  0  0  0
    3.0350    3.7600   -1.3490 C   0  0  0  0  0  0  0  0  0  0  0  0
    1.9660    4.4430   -0.8090 C   0  0  0  0  0  0  0  0  0  0  0  0
    1.4500    4.0270    0.4000 C   0  0  0  0  0  0  0  0  0  0  0  0
    1.9430    2.9550    1.1130 C   0  0  0  0  0  0  0  0  0  0  0  0
    3.0190    2.2620    0.5740 C   0  0  0  0  0  0  0  0  0  0  0  0
    1.2480   -0.3400    2.1650 C   0  0  0  0  0  0  0  0  0  0  0  0
    0.8200    0.3530    3.1280 O   0  0  0  0  0  0  0  0  0  0  0  0
    3.8790   -2.1210    1.2650 H   0  0  0  0  0  0  0  0  0  0  0  0
    2.2620   -2.5100    1.1470 H   0  0  0  0  0  0  0  0  0  0  0  0
    2.7570   -1.4490    3.0480 H   0  0  0  0  0  0  0  0  0  0  0  0
    3.4190    0.9840    3.1070 H   0  0  0  0  0  0  0  0  0  0  0  0
    4.6200   -0.1130    2.4420 H   0  0  0  0  0  0  0  0  0  0  0  0
    5.4730    0.1830    0.0520 H   0  0  0  0  0  0  0  0  0  0  0  0
    5.1460    1.9410   -1.7830 H   0  0  0  0  0  0  0  0  0  0  0  0
    3.4810    4.0520   -2.3100 H   0  0  0  0  0  0  0  0  0  0  0  0
    1.5760    5.2820   -1.3620 H   0  0  0  0  0  0  0  0  0  0  0  0
    0.6110    4.5950    0.7850 H   0  0  0  0  0  0  0  0  0  0  0  0
    1.5370    2.6480    2.0640 H   0  0  0  0  0  0  0  0  0  0  0  0
   -2.8900    1.0320    0.0940 C   0  0  0  0  0  0  0  0  0  0  0  0
   -1.4610    0.5420    0.0400 C   0  0  1  0  0  0  0  0  0  0  0  0
   -0.6540    1.6310   -0.2530 O   0  0  0  0  0  0  0  0  0  0  0  0
   -1.0500   -0.1720    1.2860 C   0  0  2  0  0  0  0  0  0  0  0  0
    0.2970   -0.6550    1.1430 N   0  0  0  0  0  0  0  0  0  0  0  0
   -1.9870   -1.3170    1.5830 C   0  0  0  0  0  0  0  0  0  0  0  0
   -3.2050   -1.0590    1.7380 O   0  0  0  0  0  0  0  0  0  0  0  0
   -3.6110    0.2410   -0.1950 H   0  0  0  0  0  0  0  0  0  0  0  0
   -3.0800    1.4760    1.0790 H   0  0  0  0  0  0  0  0  0  0  0  0
   -2.9810    1.8550   -0.6610 H   0  0  0  0  0  0  0  0  0  0  0  0
   -1.4120   -0.1440   -0.8550 H   0  0  0  0  0  0  0  0  0  0  0  0
   -0.9450    2.3840    0.3130 H   0  0  0  0  0  0  0  0  0  0  0  0
   -1.1680    0.5050    2.1460 H   0  0  0  0  0  0  0  0  0  0  0  0
    0.5800   -1.2110    0.3340 H   0  0  0  0  0  0  0  0  0  0  0  0
   -3.9340   -1.9080   -3.8590 O   0  0  0  0  0  0  0  0  0  0  0  0
   -3.5460   -2.5970   -2.7230 C   0  0  0  0  0  0  0  0  0  0  0  0
   -4.4600   -3.3070   -1.9540 C   0  0  0  0  0  0  0  0  0  0  0  0
   -4.0800   -3.9960   -0.8220 C   0  0  0  0  0  0  0  0  0  0  0  0
   -2.7470   -3.9910   -0.4210 C   0  0  0  0  0  0  0  0  0  0  0  0
   -2.3230   -4.7270    0.7970 C   0  0  0  0  0  0  0  0  0  0  0  0
   -2.4360   -3.7730    1.9770 C   0  0  2  0  0  0  0  0  0  0  0  0
   -1.5580   -2.6580    1.6930 N   0  0  0  0  0  0  0  0  0  0  0  0
   -1.9030   -4.4880    3.1660 C   0  0  0  0  0  0  0  0  0  0  0  0
   -2.5080   -5.5070    3.6070 O   0  0  0  0  0  0  0  0  0  0  0  0
   -1.8260   -3.2940   -1.1680 C   0  0  0  0  0  0  0  0  0  0  0  0
   -2.2310   -2.6010   -2.3150 C   0  0  0  0  0  0  0  0  0  0  0  0
   -0.7630   -4.1100    3.8440 O   0  0  0  0  0  0  0  0  0  0  0  0
   -4.9210   -1.6410   -3.9270 H   0  0  0  0  0  0  0  0  0  0  0  0
   -5.4920   -3.3170   -2.2560 H   0  0  0  0  0  0  0  0  0  0  0  0
   -4.7840   -4.5570   -0.2070 H   0  0  0  0  0  0  0  0  0  0  0  0
   -1.2230   -4.9360    0.6860 H   0  0  0  0  0  0  0  0  0  0  0  0
   -2.8970   -5.6450    0.9770 H   0  0  0  0  0  0  0  0  0  0  0  0
   -3.4820   -3.4260    2.1070 H   0  0  0  0  0  0  0  0  0  0  0  0
   -0.5420   -2.8450    1.5600 H   0  0  0  0  0  0  0  0  0  0  0  0
   -0.7870   -3.2810   -0.8700 H   0  0  0  0  0  0  0  0  0  0  0  0
   -1.5090   -2.0490   -2.9090 H   0  0  0  0  0  0  0  0  0  0  0  0
  1 16  1  0  0  0  0
  1 15  1  0  0  0  0
  1  2  1  0  0  0  0
  2 13  1  0  0  0  0
  2  3  1  0  0  0  0
  2 17  1  1  0  0  0
  3 19  1  0  0  0  0
  3 18  1  0  0  0  0
  4  3  1  0  0  0  0
  5 20  1  0  0  0  0
  5  4  2  0  0  0  0
  6  7  1  0  0  0  0
  6  5  1  0  0  0  0
  7 12  1  0  0  0  0
  8  9  1  0  0  0  0
  8  7  2  0  0  0  0
  9 10  2  0  0  0  0
 10 24  1  0  0  0  0
 10 11  1  0  0  0  0
 11 25  1  0  0  0  0
 12  4  1  0  0  0  0
 12 11  2  0  0  0  0
 13 14  2  0  0  0  0
 21  6  1  0  0  0  0
 22  8  1  0  0  0  0
 23  9  1  0  0  0  0
 26 34  1  0  0  0  0
 27 36  1  6  0  0  0
 27 26  1  0  0  0  0
 27 29  1  0  0  0  0
 28 27  1  0  0  0  0
 28 37  1  0  0  0  0
 29 31  1  0  0  0  0
 29 38  1  1  0  0  0
 30 29  1  0  0  0  0
 30 13  1  0  0  0  0
 31 47  1  0  0  0  0
 31 32  2  0  0  0  0
 33 26  1  0  0  0  0
 35 26  1  0  0  0  0
 39 30  1  0  0  0  0
 40 41  1  0  0  0  0
 41 51  2  0  0  0  0
 41 42  1  0  0  0  0
 42 43  2  0  0  0  0
 43 44  1  0  0  0  0
 43 55  1  0  0  0  0
 44 45  1  0  0  0  0
 45 57  1  0  0  0  0
 45 46  1  0  0  0  0
 46 58  1  1  0  0  0
 46 48  1  0  0  0  0
 47 46  1  0  0  0  0
 48 49  2  0  0  0  0
 48 52  1  0  0  0  0
 50 60  1  0  0  0  0
 50 44  2  0  0  0  0
 51 50  1  0  0  0  0
 53 40  1  0  0  0  0
 54 42  1  0  0  0  0
 56 45  1  0  0  0  0
 59 47  1  0  0  0  0
 61 51  1  0  0  0  0
M  END
$$$$
