WVA.pdb
 OpenBabel07022419193D

 52 53  0  0  1  0  0  0  0  0999 V2000
    0.8240   -2.8330    2.1840 N   0  0  0  0  0  0  0  0  0  0  0  0
    1.1270   -1.4230    2.5370 C   0  0  1  0  0  0  0  0  0  0  0  0
    2.3300   -1.0960    1.6820 C   0  0  0  0  0  0  0  0  0  0  0  0
    2.8580    0.2530    1.8110 C   0  0  0  0  0  0  0  0  0  0  0  0
    2.7620    1.2130    2.7650 C   0  0  0  0  0  0  0  0  0  0  0  0
    3.4430    2.3190    2.4160 N   0  0  0  0  0  0  0  0  0  0  0  0
    4.0050    2.0850    1.1990 C   0  0  0  0  0  0  0  0  0  0  0  0
    4.8030    2.8420    0.3640 C   0  0  0  0  0  0  0  0  0  0  0  0
    5.2420    2.3290   -0.8450 C   0  0  0  0  0  0  0  0  0  0  0  0
    4.9070    1.0700   -1.2520 C   0  0  0  0  0  0  0  0  0  0  0  0
    4.1040    0.2960   -0.4180 C   0  0  0  0  0  0  0  0  0  0  0  0
    3.6620    0.8200    0.8040 C   0  0  0  0  0  0  0  0  0  0  0  0
   -0.0700   -0.6560    2.1110 C   0  0  0  0  0  0  0  0  0  0  0  0
   -0.2630    0.4700    2.6940 O   0  0  0  0  0  0  0  0  0  0  0  0
    1.5220   -3.4430    2.6930 H   0  0  0  0  0  0  0  0  0  0  0  0
    0.9680   -3.0000    1.1660 H   0  0  0  0  0  0  0  0  0  0  0  0
    1.2970   -1.3740    3.6080 H   0  0  0  0  0  0  0  0  0  0  0  0
    2.0160   -1.2480    0.6110 H   0  0  0  0  0  0  0  0  0  0  0  0
    3.1740   -1.8180    1.8240 H   0  0  0  0  0  0  0  0  0  0  0  0
    2.2080    1.1050    3.6900 H   0  0  0  0  0  0  0  0  0  0  0  0
    3.5610    3.2280    2.9330 H   0  0  0  0  0  0  0  0  0  0  0  0
    5.0930    3.8550    0.6520 H   0  0  0  0  0  0  0  0  0  0  0  0
    5.8770    2.9290   -1.5100 H   0  0  0  0  0  0  0  0  0  0  0  0
    5.2150    0.6180   -2.1750 H   0  0  0  0  0  0  0  0  0  0  0  0
    3.8280   -0.6940   -0.7110 H   0  0  0  0  0  0  0  0  0  0  0  0
   -1.4720   -0.1540   -1.6730 C   0  0  0  0  0  0  0  0  0  0  0  0
   -1.8270    0.5770   -0.4290 C   0  0  0  0  0  0  0  0  0  0  0  0
   -0.8500    1.6890   -0.0670 C   0  0  0  0  0  0  0  0  0  0  0  0
   -2.0990   -0.3230    0.7730 C   0  0  2  0  0  0  0  0  0  0  0  0
   -0.9670   -1.1240    1.1110 N   0  0  0  0  0  0  0  0  0  0  0  0
   -3.3260   -1.0590    0.4590 C   0  0  0  0  0  0  0  0  0  0  0  0
   -4.3680   -0.4090    0.1910 O   0  0  0  0  0  0  0  0  0  0  0  0
   -0.9730   -1.1130   -1.5470 H   0  0  0  0  0  0  0  0  0  0  0  0
   -0.8130    0.4720   -2.3480 H   0  0  0  0  0  0  0  0  0  0  0  0
   -2.3700   -0.3730   -2.3160 H   0  0  0  0  0  0  0  0  0  0  0  0
   -2.8010    1.1170   -0.5960 H   0  0  0  0  0  0  0  0  0  0  0  0
   -0.8090    2.4190   -0.9230 H   0  0  0  0  0  0  0  0  0  0  0  0
   -1.2990    2.1950    0.8270 H   0  0  0  0  0  0  0  0  0  0  0  0
    0.1520    1.2710    0.1220 H   0  0  0  0  0  0  0  0  0  0  0  0
   -2.3270    0.4240    1.5950 H   0  0  0  0  0  0  0  0  0  0  0  0
   -0.7610   -2.0400    0.6640 H   0  0  0  0  0  0  0  0  0  0  0  0
   -4.2900   -4.0330   -1.1210 C   0  0  0  0  0  0  0  0  0  0  0  0
   -4.5910   -3.2040    0.1270 C   0  0  2  0  0  0  0  0  0  0  0  0
   -3.3840   -2.4660    0.4420 N   0  0  0  0  0  0  0  0  0  0  0  0
   -4.8800   -4.1570    1.2250 C   0  0  0  0  0  0  0  0  0  0  0  0
   -5.8980   -4.8710    1.1030 O   0  0  0  0  0  0  0  0  0  0  0  0
   -4.1020   -4.3020    2.3570 O   0  0  0  0  0  0  0  0  0  0  0  0
   -4.7420   -5.0220   -1.0320 H   0  0  0  0  0  0  0  0  0  0  0  0
   -4.6970   -3.5730   -2.0370 H   0  0  0  0  0  0  0  0  0  0  0  0
   -3.1760   -4.1450   -1.2570 H   0  0  0  0  0  0  0  0  0  0  0  0
   -5.4490   -2.5530   -0.1160 H   0  0  0  0  0  0  0  0  0  0  0  0
   -2.5390   -3.0370    0.6590 H   0  0  0  0  0  0  0  0  0  0  0  0
  1  2  1  0  0  0  0
  1 15  1  0  0  0  0
  2 17  1  1  0  0  0
  3  4  1  0  0  0  0
  3 19  1  0  0  0  0
  3  2  1  0  0  0  0
  4  5  2  0  0  0  0
  5 20  1  0  0  0  0
  6  5  1  0  0  0  0
  6 21  1  0  0  0  0
  7  6  1  0  0  0  0
  8 22  1  0  0  0  0
  8  7  2  0  0  0  0
  9  8  1  0  0  0  0
 10  9  2  0  0  0  0
 10 11  1  0  0  0  0
 11 12  2  0  0  0  0
 12  7  1  0  0  0  0
 12  4  1  0  0  0  0
 13  2  1  0  0  0  0
 13 14  2  0  0  0  0
 16  1  1  0  0  0  0
 18  3  1  0  0  0  0
 23  9  1  0  0  0  0
 24 10  1  0  0  0  0
 25 11  1  0  0  0  0
 26 33  1  0  0  0  0
 26 27  1  0  0  0  0
 27 28  1  0  0  0  0
 27 29  1  0  0  0  0
 28 39  1  0  0  0  0
 28 38  1  0  0  0  0
 29 30  1  0  0  0  0
 29 40  1  1  0  0  0
 30 13  1  0  0  0  0
 31 29  1  0  0  0  0
 32 31  2  0  0  0  0
 34 26  1  0  0  0  0
 35 26  1  0  0  0  0
 36 27  1  0  0  0  0
 37 28  1  0  0  0  0
 41 30  1  0  0  0  0
 42 48  1  0  0  0  0
 42 43  1  0  0  0  0
 43 51  1  6  0  0  0
 43 44  1  0  0  0  0
 43 45  1  0  0  0  0
 44 31  1  0  0  0  0
 44 52  1  0  0  0  0
 45 47  1  0  0  0  0
 46 45  2  0  0  0  0
 49 42  1  0  0  0  0
 50 42  1  0  0  0  0
M  END
$$$$
