WVG.pdb
 OpenBabel07022419193D

 49 50  0  0  1  0  0  0  0  0999 V2000
    2.0140   -3.2750    2.8340 N   0  0  0  0  0  0  0  0  0  0  0  0
    1.7860   -2.1030    1.9550 C   0  0  1  0  0  0  0  0  0  0  0  0
    1.8760   -2.6100    0.5710 C   0  0  0  0  0  0  0  0  0  0  0  0
    1.7130   -1.6370   -0.5170 C   0  0  0  0  0  0  0  0  0  0  0  0
    0.6750   -1.4130   -1.4050 C   0  0  0  0  0  0  0  0  0  0  0  0
    1.0060   -0.4200   -2.2380 N   0  0  0  0  0  0  0  0  0  0  0  0
    2.2380    0.0430   -1.9500 C   0  0  0  0  0  0  0  0  0  0  0  0
    3.0180    1.0540   -2.5260 C   0  0  0  0  0  0  0  0  0  0  0  0
    4.2620    1.2740   -1.9830 C   0  0  0  0  0  0  0  0  0  0  0  0
    4.7340    0.5430   -0.9200 C   0  0  0  0  0  0  0  0  0  0  0  0
    3.9480   -0.4600   -0.3550 C   0  0  0  0  0  0  0  0  0  0  0  0
    2.6910   -0.7020   -0.8830 C   0  0  0  0  0  0  0  0  0  0  0  0
    0.5650   -1.4780    2.4090 C   0  0  0  0  0  0  0  0  0  0  0  0
   -0.0230   -1.9570    3.4490 O   0  0  0  0  0  0  0  0  0  0  0  0
    1.2040   -3.8980    2.6560 H   0  0  0  0  0  0  0  0  0  0  0  0
    1.9090   -2.9090    3.8240 H   0  0  0  0  0  0  0  0  0  0  0  0
    2.6570   -1.4180    2.1260 H   0  0  0  0  0  0  0  0  0  0  0  0
    2.9340   -3.0120    0.4510 H   0  0  0  0  0  0  0  0  0  0  0  0
    1.2580   -3.5350    0.3970 H   0  0  0  0  0  0  0  0  0  0  0  0
   -0.2350   -1.9920   -1.3720 H   0  0  0  0  0  0  0  0  0  0  0  0
    0.4190   -0.0310   -3.0160 H   0  0  0  0  0  0  0  0  0  0  0  0
    2.6260    1.6100   -3.3560 H   0  0  0  0  0  0  0  0  0  0  0  0
    4.9240    2.0480   -2.3820 H   0  0  0  0  0  0  0  0  0  0  0  0
    5.7070    0.6960   -0.4740 H   0  0  0  0  0  0  0  0  0  0  0  0
    4.2930   -1.0510    0.4730 H   0  0  0  0  0  0  0  0  0  0  0  0
   -2.4600    2.3050    2.8640 C   0  0  0  0  0  0  0  0  0  0  0  0
   -1.1750    1.7040    2.3260 C   0  0  0  0  0  0  0  0  0  0  0  0
   -0.7700    2.3230    1.0210 C   0  0  0  0  0  0  0  0  0  0  0  0
   -1.2460    0.2240    2.3080 C   0  0  2  0  0  0  0  0  0  0  0  0
   -0.0400   -0.3730    1.8020 N   0  0  0  0  0  0  0  0  0  0  0  0
   -2.4490   -0.3570    1.7190 C   0  0  0  0  0  0  0  0  0  0  0  0
   -3.6130    0.1290    1.9260 O   0  0  0  0  0  0  0  0  0  0  0  0
   -3.2300    2.4330    2.0980 H   0  0  0  0  0  0  0  0  0  0  0  0
   -2.8340    1.5700    3.6310 H   0  0  0  0  0  0  0  0  0  0  0  0
   -2.2440    3.2540    3.4170 H   0  0  0  0  0  0  0  0  0  0  0  0
   -0.3820    1.9940    3.0770 H   0  0  0  0  0  0  0  0  0  0  0  0
    0.3420    2.2810    0.8760 H   0  0  0  0  0  0  0  0  0  0  0  0
   -1.2210    1.8600    0.1410 H   0  0  0  0  0  0  0  0  0  0  0  0
   -1.0150    3.4110    1.0790 H   0  0  0  0  0  0  0  0  0  0  0  0
   -1.2860   -0.1180    3.4060 H   0  0  0  0  0  0  0  0  0  0  0  0
    0.3980    0.0720    0.9400 H   0  0  0  0  0  0  0  0  0  0  0  0
   -2.4160   -1.5030    0.8810 N   0  0  0  0  0  0  0  0  0  0  0  0
   -3.6550   -2.0240    0.3340 C   0  0  0  0  0  0  0  0  0  0  0  0
   -3.3500   -3.2230   -0.4650 C   0  0  0  0  0  0  0  0  0  0  0  0
   -2.1830   -3.6670   -0.5580 O   0  0  0  0  0  0  0  0  0  0  0  0
   -4.3330   -3.9280   -1.1600 O   0  0  0  0  0  0  0  0  0  0  0  0
   -1.5060   -1.9940    0.6440 H   0  0  0  0  0  0  0  0  0  0  0  0
   -4.1500   -1.2860   -0.3330 H   0  0  0  0  0  0  0  0  0  0  0  0
   -4.3520   -2.3480    1.1460 H   0  0  0  0  0  0  0  0  0  0  0  0
  1 16  1  0  0  0  0
  2 17  1  1  0  0  0
  2 13  1  0  0  0  0
  2  1  1  0  0  0  0
  3  2  1  0  0  0  0
  4  3  1  0  0  0  0
  5 20  1  0  0  0  0
  5  4  2  0  0  0  0
  6  7  1  0  0  0  0
  6  5  1  0  0  0  0
  7 12  1  0  0  0  0
  8  9  1  0  0  0  0
  8  7  2  0  0  0  0
  9 10  2  0  0  0  0
 10 24  1  0  0  0  0
 10 11  1  0  0  0  0
 11 25  1  0  0  0  0
 12  4  1  0  0  0  0
 12 11  2  0  0  0  0
 13 14  2  0  0  0  0
 15  1  1  0  0  0  0
 18  3  1  0  0  0  0
 19  3  1  0  0  0  0
 21  6  1  0  0  0  0
 22  8  1  0  0  0  0
 23  9  1  0  0  0  0
 26 35  1  0  0  0  0
 26 34  1  0  0  0  0
 27 26  1  0  0  0  0
 27 36  1  0  0  0  0
 28 39  1  0  0  0  0
 28 27  1  0  0  0  0
 29 27  1  0  0  0  0
 29 40  1  1  0  0  0
 30 29  1  0  0  0  0
 30 13  1  0  0  0  0
 31 32  2  0  0  0  0
 31 29  1  0  0  0  0
 33 26  1  0  0  0  0
 37 28  1  0  0  0  0
 38 28  1  0  0  0  0
 41 30  1  0  0  0  0
 42 31  1  0  0  0  0
 43 42  1  0  0  0  0
 43 49  1  0  0  0  0
 44 43  1  0  0  0  0
 45 44  1  0  0  0  0
 46 44  2  0  0  0  0
 47 42  1  0  0  0  0
 48 43  1  0  0  0  0
M  END
$$$$
