WVK.pdb
 OpenBabel07022419193D

 63 64  0  0  1  0  0  0  0  0999 V2000
    2.4830   -0.7830   -0.4000 N   0  0  0  0  0  0  0  0  0  0  0  0
    1.6430   -1.1300    0.7110 C   0  0  1  0  0  0  0  0  0  0  0  0
    2.2170   -0.8890    2.0630 C   0  0  0  0  0  0  0  0  0  0  0  0
    2.5850    0.4780    2.3910 C   0  0  0  0  0  0  0  0  0  0  0  0
    1.8230    1.3560    3.1460 C   0  0  0  0  0  0  0  0  0  0  0  0
    2.4600    2.5330    3.2280 N   0  0  0  0  0  0  0  0  0  0  0  0
    3.6220    2.4220    2.5370 C   0  0  0  0  0  0  0  0  0  0  0  0
    4.6620    3.3140    2.2930 C   0  0  0  0  0  0  0  0  0  0  0  0
    5.7700    2.9660    1.5480 C   0  0  0  0  0  0  0  0  0  0  0  0
    5.8320    1.6860    1.0370 C   0  0  0  0  0  0  0  0  0  0  0  0
    4.8410    0.7750    1.2460 C   0  0  0  0  0  0  0  0  0  0  0  0
    3.7240    1.1480    2.0040 C   0  0  0  0  0  0  0  0  0  0  0  0
    0.3090   -0.4520    0.5390 C   0  0  0  0  0  0  0  0  0  0  0  0
    0.1020    0.2720   -0.4610 O   0  0  0  0  0  0  0  0  0  0  0  0
    2.2980    0.2060   -0.7280 H   0  0  0  0  0  0  0  0  0  0  0  0
    2.3600   -1.4040   -1.2260 H   0  0  0  0  0  0  0  0  0  0  0  0
    1.5000   -2.2510    0.6370 H   0  0  0  0  0  0  0  0  0  0  0  0
    1.5130   -1.3420    2.8010 H   0  0  0  0  0  0  0  0  0  0  0  0
    3.1410   -1.5140    2.1370 H   0  0  0  0  0  0  0  0  0  0  0  0
    0.8490    1.1540    3.6170 H   0  0  0  0  0  0  0  0  0  0  0  0
    2.1840    3.4120    3.7110 H   0  0  0  0  0  0  0  0  0  0  0  0
    4.5790    4.3140    2.7110 H   0  0  0  0  0  0  0  0  0  0  0  0
    6.5890    3.6710    1.3560 H   0  0  0  0  0  0  0  0  0  0  0  0
    6.6880    1.3480    0.4360 H   0  0  0  0  0  0  0  0  0  0  0  0
    4.8490   -0.2340    0.8750 H   0  0  0  0  0  0  0  0  0  0  0  0
   -1.3190    2.3750    0.9900 C   0  0  0  0  0  0  0  0  0  0  0  0
   -2.1180    1.4140    1.8010 C   0  0  0  0  0  0  0  0  0  0  0  0
   -3.5700    1.8730    1.7960 C   0  0  0  0  0  0  0  0  0  0  0  0
   -2.0420   -0.0160    1.4200 C   0  0  2  0  0  0  0  0  0  0  0  0
   -0.7320   -0.6120    1.4890 N   0  0  0  0  0  0  0  0  0  0  0  0
   -2.8050   -0.3830    0.2150 C   0  0  0  0  0  0  0  0  0  0  0  0
   -3.8700    0.2100   -0.0510 O   0  0  0  0  0  0  0  0  0  0  0  0
   -0.2210    2.3710    1.2300 H   0  0  0  0  0  0  0  0  0  0  0  0
   -1.5460    2.3920   -0.0820 H   0  0  0  0  0  0  0  0  0  0  0  0
   -1.6350    3.4090    1.3490 H   0  0  0  0  0  0  0  0  0  0  0  0
   -1.7250    1.4970    2.8610 H   0  0  0  0  0  0  0  0  0  0  0  0
   -4.2800    1.0640    2.0470 H   0  0  0  0  0  0  0  0  0  0  0  0
   -3.7320    2.6490    2.5920 H   0  0  0  0  0  0  0  0  0  0  0  0
   -3.8740    2.3340    0.8360 H   0  0  0  0  0  0  0  0  0  0  0  0
   -2.6290   -0.5640    2.2570 H   0  0  0  0  0  0  0  0  0  0  0  0
   -0.4620   -1.2440    2.3120 H   0  0  0  0  0  0  0  0  0  0  0  0
   -2.3670   -1.4170   -0.6790 N   0  0  0  0  0  0  0  0  0  0  0  0
   -3.1120   -1.7610   -1.8500 C   0  0  1  0  0  0  0  0  0  0  0  0
   -2.3960   -2.3970   -2.9300 C   0  0  0  0  0  0  0  0  0  0  0  0
   -1.7750   -3.6890   -3.0100 C   0  0  0  0  0  0  0  0  0  0  0  0
   -0.8100   -4.3820   -2.2010 C   0  0  0  0  0  0  0  0  0  0  0  0
   -1.1170   -4.9860   -0.8850 C   0  0  0  0  0  0  0  0  0  0  0  0
   -1.5700   -4.2430    0.1980 N   0  0  0  0  0  0  0  0  0  0  0  0
   -4.2330   -2.7380   -1.4370 C   0  0  0  0  0  0  0  0  0  0  0  0
   -4.9420   -3.1790   -2.3480 O   0  0  0  0  0  0  0  0  0  0  0  0
   -4.4170   -3.0810   -0.1330 O   0  0  0  0  0  0  0  0  0  0  0  0
   -1.4700   -1.8510   -0.4140 H   0  0  0  0  0  0  0  0  0  0  0  0
   -3.7020   -0.8640   -2.2330 H   0  0  0  0  0  0  0  0  0  0  0  0
   -3.0000   -2.2090   -3.9430 H   0  0  0  0  0  0  0  0  0  0  0  0
   -1.5280   -1.6260   -3.1900 H   0  0  0  0  0  0  0  0  0  0  0  0
   -2.6140   -4.5060   -3.2140 H   0  0  0  0  0  0  0  0  0  0  0  0
   -1.2950   -3.7000   -4.1040 H   0  0  0  0  0  0  0  0  0  0  0  0
    0.1450   -3.7240   -2.0510 H   0  0  0  0  0  0  0  0  0  0  0  0
   -0.3180   -5.2540   -2.8010 H   0  0  0  0  0  0  0  0  0  0  0  0
   -1.7950   -5.8920   -1.0940 H   0  0  0  0  0  0  0  0  0  0  0  0
   -0.1790   -5.5530   -0.4980 H   0  0  0  0  0  0  0  0  0  0  0  0
   -0.8690   -3.8900    0.8700 H   0  0  0  0  0  0  0  0  0  0  0  0
   -2.3510   -4.6980    0.7210 H   0  0  0  0  0  0  0  0  0  0  0  0
  1  2  1  0  0  0  0
  2 17  1  6  0  0  0
  2  3  1  0  0  0  0
  3 19  1  0  0  0  0
  3  4  1  0  0  0  0
  3 18  1  0  0  0  0
  4  5  2  0  0  0  0
  5  6  1  0  0  0  0
  5 20  1  0  0  0  0
  6 21  1  0  0  0  0
  7  6  1  0  0  0  0
  8  7  1  0  0  0  0
  8 22  1  0  0  0  0
  9  8  2  0  0  0  0
 10 11  2  0  0  0  0
 10  9  1  0  0  0  0
 11 12  1  0  0  0  0
 12  4  1  0  0  0  0
 12  7  2  0  0  0  0
 13  2  1  0  0  0  0
 13 30  1  0  0  0  0
 14 13  2  0  0  0  0
 15  1  1  0  0  0  0
 16  1  1  0  0  0  0
 23  9  1  0  0  0  0
 24 10  1  0  0  0  0
 25 11  1  0  0  0  0
 26 33  1  0  0  0  0
 26 35  1  0  0  0  0
 26 27  1  0  0  0  0
 27 36  1  0  0  0  0
 28 27  1  0  0  0  0
 28 37  1  0  0  0  0
 28 38  1  0  0  0  0
 29 30  1  0  0  0  0
 29 27  1  0  0  0  0
 29 40  1  1  0  0  0
 30 41  1  0  0  0  0
 31 29  1  0  0  0  0
 32 31  2  0  0  0  0
 34 26  1  0  0  0  0
 39 28  1  0  0  0  0
 42 52  1  0  0  0  0
 42 31  1  0  0  0  0
 43 53  1  6  0  0  0
 43 49  1  0  0  0  0
 43 42  1  0  0  0  0
 44 43  1  0  0  0  0
 45 44  1  0  0  0  0
 45 46  1  0  0  0  0
 46 58  1  0  0  0  0
 46 47  1  0  0  0  0
 47 61  1  0  0  0  0
 47 48  1  0  0  0  0
 48 63  1  0  0  0  0
 48 62  1  0  0  0  0
 49 51  1  0  0  0  0
 50 49  2  0  0  0  0
 54 44  1  0  0  0  0
 55 44  1  0  0  0  0
 56 45  1  0  0  0  0
 57 45  1  0  0  0  0
 59 46  1  0  0  0  0
 60 47  1  0  0  0  0
M  END
$$$$
