WVL.pdb
 OpenBabel07022419193D

 61 62  0  0  1  0  0  0  0  0999 V2000
    2.0510    0.1740   -3.4980 N   0  0  0  0  0  0  0  0  0  0  0  0
    2.2440   -0.3280   -2.1050 C   0  0  1  0  0  0  0  0  0  0  0  0
    3.5730    0.1300   -1.7010 C   0  0  0  0  0  0  0  0  0  0  0  0
    4.0710   -0.1880   -0.3540 C   0  0  0  0  0  0  0  0  0  0  0  0
    4.8120   -1.2640    0.0620 C   0  0  0  0  0  0  0  0  0  0  0  0
    5.0210   -1.1900    1.3660 N   0  0  0  0  0  0  0  0  0  0  0  0
    4.4290   -0.0770    1.8190 C   0  0  0  0  0  0  0  0  0  0  0  0
    4.3720    0.4500    3.0900 C   0  0  0  0  0  0  0  0  0  0  0  0
    3.7010    1.6450    3.2980 C   0  0  0  0  0  0  0  0  0  0  0  0
    3.0970    2.2940    2.2350 C   0  0  0  0  0  0  0  0  0  0  0  0
    3.1500    1.7750    0.9710 C   0  0  0  0  0  0  0  0  0  0  0  0
    3.8280    0.5700    0.7710 C   0  0  0  0  0  0  0  0  0  0  0  0
    1.0620   -0.1080   -1.3050 C   0  0  0  0  0  0  0  0  0  0  0  0
    0.1400    0.6140   -1.8340 O   0  0  0  0  0  0  0  0  0  0  0  0
    2.8380   -0.1150   -4.0880 H   0  0  0  0  0  0  0  0  0  0  0  0
    1.1260   -0.1650   -3.7860 H   0  0  0  0  0  0  0  0  0  0  0  0
    2.2890   -1.4700   -2.2620 H   0  0  0  0  0  0  0  0  0  0  0  0
    3.7560    1.2260   -1.9030 H   0  0  0  0  0  0  0  0  0  0  0  0
    4.3220   -0.3600   -2.4070 H   0  0  0  0  0  0  0  0  0  0  0  0
    5.1640   -2.0470   -0.5880 H   0  0  0  0  0  0  0  0  0  0  0  0
    5.5680   -1.8850    1.9840 H   0  0  0  0  0  0  0  0  0  0  0  0
    4.8220   -0.0090    3.9540 H   0  0  0  0  0  0  0  0  0  0  0  0
    3.6370    2.0840    4.2740 H   0  0  0  0  0  0  0  0  0  0  0  0
    2.5810    3.2160    2.4010 H   0  0  0  0  0  0  0  0  0  0  0  0
    2.7090    2.2380    0.1050 H   0  0  0  0  0  0  0  0  0  0  0  0
   -0.5820    2.0810    0.5320 C   0  0  0  0  0  0  0  0  0  0  0  0
   -0.4620    0.8750    1.3750 C   0  0  0  0  0  0  0  0  0  0  0  0
   -1.4690    0.9200    2.4920 C   0  0  0  0  0  0  0  0  0  0  0  0
   -0.3310   -0.4530    0.7800 C   0  0  2  0  0  0  0  0  0  0  0  0
    0.8830   -0.6420   -0.0210 N   0  0  0  0  0  0  0  0  0  0  0  0
   -1.4880   -0.9750   -0.0030 C   0  0  0  0  0  0  0  0  0  0  0  0
   -1.3160   -1.3890   -1.2120 O   0  0  0  0  0  0  0  0  0  0  0  0
    0.3830    2.4370    0.1440 H   0  0  0  0  0  0  0  0  0  0  0  0
   -0.8830    2.9170    1.2510 H   0  0  0  0  0  0  0  0  0  0  0  0
   -1.4180    2.0880   -0.1940 H   0  0  0  0  0  0  0  0  0  0  0  0
    0.5390    1.0280    1.9430 H   0  0  0  0  0  0  0  0  0  0  0  0
   -1.1250    1.6490    3.3000 H   0  0  0  0  0  0  0  0  0  0  0  0
   -2.4290    1.2640    2.0870 H   0  0  0  0  0  0  0  0  0  0  0  0
   -1.5760   -0.0710    2.9310 H   0  0  0  0  0  0  0  0  0  0  0  0
   -0.2380   -1.1770    1.6170 H   0  0  0  0  0  0  0  0  0  0  0  0
    1.6850   -1.2280    0.3760 H   0  0  0  0  0  0  0  0  0  0  0  0
   -4.4110   -5.0610    1.1170 C   0  0  0  0  0  0  0  0  0  0  0  0
   -3.5580   -3.9590    0.4490 C   0  0  0  0  0  0  0  0  0  0  0  0
   -2.3820   -3.7580    1.3250 C   0  0  0  0  0  0  0  0  0  0  0  0
   -4.4870   -2.8060    0.2590 C   0  0  0  0  0  0  0  0  0  0  0  0
   -3.8910   -1.5970   -0.3950 C   0  0  2  0  0  0  0  0  0  0  0  0
   -2.8190   -1.0860    0.4240 N   0  0  0  0  0  0  0  0  0  0  0  0
   -4.9620   -0.5670   -0.4620 C   0  0  0  0  0  0  0  0  0  0  0  0
   -4.7940    0.5140    0.1440 O   0  0  0  0  0  0  0  0  0  0  0  0
   -6.1350   -0.7880   -1.1810 O   0  0  0  0  0  0  0  0  0  0  0  0
   -4.3470   -4.8940    2.2000 H   0  0  0  0  0  0  0  0  0  0  0  0
   -3.8920   -6.0050    0.8840 H   0  0  0  0  0  0  0  0  0  0  0  0
   -5.4310   -5.0660    0.7210 H   0  0  0  0  0  0  0  0  0  0  0  0
   -3.2500   -4.3720   -0.5470 H   0  0  0  0  0  0  0  0  0  0  0  0
   -2.3810   -2.9110    2.0000 H   0  0  0  0  0  0  0  0  0  0  0  0
   -1.4460   -3.7320    0.7080 H   0  0  0  0  0  0  0  0  0  0  0  0
   -2.2540   -4.6650    1.9860 H   0  0  0  0  0  0  0  0  0  0  0  0
   -4.8630   -2.4330    1.2660 H   0  0  0  0  0  0  0  0  0  0  0  0
   -5.4330   -3.1300   -0.2630 H   0  0  0  0  0  0  0  0  0  0  0  0
   -3.5030   -1.8320   -1.4220 H   0  0  0  0  0  0  0  0  0  0  0  0
   -3.0930   -0.7930    1.3800 H   0  0  0  0  0  0  0  0  0  0  0  0
  1  2  1  0  0  0  0
  2 17  1  6  0  0  0
  2  3  1  0  0  0  0
  2 13  1  0  0  0  0
  3  4  1  0  0  0  0
  4  5  2  0  0  0  0
  4 12  1  0  0  0  0
  5  6  1  0  0  0  0
  6  7  1  0  0  0  0
  6 21  1  0  0  0  0
  7  8  1  0  0  0  0
  8  9  2  0  0  0  0
  8 22  1  0  0  0  0
  9 23  1  0  0  0  0
 10 24  1  0  0  0  0
 10  9  1  0  0  0  0
 11 10  2  0  0  0  0
 12 11  1  0  0  0  0
 12  7  2  0  0  0  0
 13 30  1  0  0  0  0
 14 13  2  0  0  0  0
 15  1  1  0  0  0  0
 16  1  1  0  0  0  0
 18  3  1  0  0  0  0
 19  3  1  0  0  0  0
 20  5  1  0  0  0  0
 25 11  1  0  0  0  0
 26 34  1  0  0  0  0
 26 27  1  0  0  0  0
 27 36  1  0  0  0  0
 27 28  1  0  0  0  0
 28 39  1  0  0  0  0
 28 37  1  0  0  0  0
 29 27  1  0  0  0  0
 29 40  1  1  0  0  0
 30 41  1  0  0  0  0
 30 29  1  0  0  0  0
 31 47  1  0  0  0  0
 31 29  1  0  0  0  0
 32 31  2  0  0  0  0
 33 26  1  0  0  0  0
 35 26  1  0  0  0  0
 38 28  1  0  0  0  0
 42 51  1  0  0  0  0
 43 42  1  0  0  0  0
 43 44  1  0  0  0  0
 44 57  1  0  0  0  0
 44 55  1  0  0  0  0
 45 43  1  0  0  0  0
 45 58  1  0  0  0  0
 46 60  1  6  0  0  0
 46 45  1  0  0  0  0
 46 47  1  0  0  0  0
 47 61  1  0  0  0  0
 48 46  1  0  0  0  0
 48 49  1  0  0  0  0
 50 48  2  0  0  0  0
 52 42  1  0  0  0  0
 53 42  1  0  0  0  0
 54 43  1  0  0  0  0
 56 44  1  0  0  0  0
 59 45  1  0  0  0  0
M  END
$$$$
