WVM.pdb
 OpenBabel07022419193D

 59 60  0  0  1  0  0  0  0  0999 V2000
    1.2620   -1.4670   -2.2140 N   0  0  0  0  0  0  0  0  0  0  0  0
    2.0370   -0.9020   -1.1130 C   0  0  1  0  0  0  0  0  0  0  0  0
    2.7650    0.3300   -1.5520 C   0  0  0  0  0  0  0  0  0  0  0  0
    3.5200    0.9190   -0.4370 C   0  0  0  0  0  0  0  0  0  0  0  0
    4.8500    0.6200   -0.1020 C   0  0  0  0  0  0  0  0  0  0  0  0
    5.1990    1.3160    1.0050 N   0  0  0  0  0  0  0  0  0  0  0  0
    4.1600    2.0610    1.4170 C   0  0  0  0  0  0  0  0  0  0  0  0
    3.9920    2.9450    2.4560 C   0  0  0  0  0  0  0  0  0  0  0  0
    2.8120    3.6340    2.6800 C   0  0  0  0  0  0  0  0  0  0  0  0
    1.7820    3.3910    1.7940 C   0  0  0  0  0  0  0  0  0  0  0  0
    1.9410    2.5080    0.7530 C   0  0  0  0  0  0  0  0  0  0  0  0
    3.1270    1.8260    0.5420 C   0  0  0  0  0  0  0  0  0  0  0  0
    1.2530   -0.6880    0.0870 C   0  0  0  0  0  0  0  0  0  0  0  0
    1.7940   -0.5390    1.2360 O   0  0  0  0  0  0  0  0  0  0  0  0
    1.0680   -2.4780   -2.0170 H   0  0  0  0  0  0  0  0  0  0  0  0
    1.8240   -1.4180   -3.0870 H   0  0  0  0  0  0  0  0  0  0  0  0
    2.8490   -1.6780   -0.9350 H   0  0  0  0  0  0  0  0  0  0  0  0
    2.0730    1.0820   -2.0090 H   0  0  0  0  0  0  0  0  0  0  0  0
    3.5190   -0.0060   -2.3150 H   0  0  0  0  0  0  0  0  0  0  0  0
    5.4710   -0.0600   -0.6580 H   0  0  0  0  0  0  0  0  0  0  0  0
    6.1520    1.2590    1.4530 H   0  0  0  0  0  0  0  0  0  0  0  0
    4.7950    3.1510    3.1710 H   0  0  0  0  0  0  0  0  0  0  0  0
    2.7030    4.3330    3.5130 H   0  0  0  0  0  0  0  0  0  0  0  0
    0.8570    3.9230    1.9580 H   0  0  0  0  0  0  0  0  0  0  0  0
    1.1320    2.3060    0.0410 H   0  0  0  0  0  0  0  0  0  0  0  0
   -2.4850    1.0740    2.5960 C   0  0  0  0  0  0  0  0  0  0  0  0
   -1.7140    0.8600    1.3110 C   0  0  0  0  0  0  0  0  0  0  0  0
   -2.6860    0.9240    0.1650 C   0  0  0  0  0  0  0  0  0  0  0  0
   -0.9190   -0.4030    1.3400 C   0  0  2  0  0  0  0  0  0  0  0  0
   -0.1760   -0.6200    0.1210 N   0  0  0  0  0  0  0  0  0  0  0  0
   -1.7210   -1.6060    1.7150 C   0  0  0  0  0  0  0  0  0  0  0  0
   -2.4680   -1.6470    2.7230 O   0  0  0  0  0  0  0  0  0  0  0  0
   -2.7650    2.1410    2.6700 H   0  0  0  0  0  0  0  0  0  0  0  0
   -3.4240    0.4930    2.6310 H   0  0  0  0  0  0  0  0  0  0  0  0
   -1.8320    0.8230    3.4770 H   0  0  0  0  0  0  0  0  0  0  0  0
   -0.9690    1.6990    1.2460 H   0  0  0  0  0  0  0  0  0  0  0  0
   -2.6520    0.0230   -0.4800 H   0  0  0  0  0  0  0  0  0  0  0  0
   -3.7220    1.1210    0.5000 H   0  0  0  0  0  0  0  0  0  0  0  0
   -2.4040    1.7840   -0.4900 H   0  0  0  0  0  0  0  0  0  0  0  0
   -0.1790   -0.2920    2.1820 H   0  0  0  0  0  0  0  0  0  0  0  0
   -0.6980   -0.7330   -0.7730 H   0  0  0  0  0  0  0  0  0  0  0  0
   -3.0700   -2.4190   -2.5780 C   0  0  0  0  0  0  0  0  0  0  0  0
   -1.9640   -3.6900   -1.9630 S   0  0  0  0  0  0  0  0  0  0  0  0
   -2.8110   -4.9360   -1.0110 C   0  0  0  0  0  0  0  0  0  0  0  0
   -3.4090   -4.4940    0.2790 C   0  0  0  0  0  0  0  0  0  0  0  0
   -2.4580   -3.9740    1.2880 C   0  0  2  0  0  0  0  0  0  0  0  0
   -1.6850   -2.8170    0.9280 N   0  0  0  0  0  0  0  0  0  0  0  0
   -1.4680   -5.0630    1.6070 C   0  0  0  0  0  0  0  0  0  0  0  0
   -1.8660   -6.2160    1.9600 O   0  0  0  0  0  0  0  0  0  0  0  0
   -0.1060   -4.8600    1.5310 O   0  0  0  0  0  0  0  0  0  0  0  0
   -3.5630   -1.8210   -1.7910 H   0  0  0  0  0  0  0  0  0  0  0  0
   -3.9090   -2.8780   -3.1810 H   0  0  0  0  0  0  0  0  0  0  0  0
   -2.4860   -1.7000   -3.1960 H   0  0  0  0  0  0  0  0  0  0  0  0
   -3.6260   -5.4280   -1.6210 H   0  0  0  0  0  0  0  0  0  0  0  0
   -2.1150   -5.7830   -0.7670 H   0  0  0  0  0  0  0  0  0  0  0  0
   -4.2860   -3.8110    0.1340 H   0  0  0  0  0  0  0  0  0  0  0  0
   -3.8920   -5.4210    0.7220 H   0  0  0  0  0  0  0  0  0  0  0  0
   -2.9940   -3.8190    2.2630 H   0  0  0  0  0  0  0  0  0  0  0  0
   -1.0550   -2.7780    0.1060 H   0  0  0  0  0  0  0  0  0  0  0  0
  1 15  1  0  0  0  0
  1  2  1  0  0  0  0
  2 17  1  1  0  0  0
  2 13  1  0  0  0  0
  3  2  1  0  0  0  0
  3  4  1  0  0  0  0
  4  5  2  0  0  0  0
  4 12  1  0  0  0  0
  5  6  1  0  0  0  0
  6  7  1  0  0  0  0
  6 21  1  0  0  0  0
  7  8  1  0  0  0  0
  8  9  2  0  0  0  0
  8 22  1  0  0  0  0
  9 23  1  0  0  0  0
 10 24  1  0  0  0  0
 10  9  1  0  0  0  0
 11 10  2  0  0  0  0
 12 11  1  0  0  0  0
 12  7  2  0  0  0  0
 13 30  1  0  0  0  0
 13 14  2  0  0  0  0
 16  1  1  0  0  0  0
 18  3  1  0  0  0  0
 19  3  1  0  0  0  0
 20  5  1  0  0  0  0
 25 11  1  0  0  0  0
 26 34  1  0  0  0  0
 26 33  1  0  0  0  0
 26 35  1  0  0  0  0
 27 29  1  0  0  0  0
 27 26  1  0  0  0  0
 28 38  1  0  0  0  0
 28 27  1  0  0  0  0
 29 31  1  0  0  0  0
 29 40  1  1  0  0  0
 30 29  1  0  0  0  0
 31 32  2  0  0  0  0
 36 27  1  0  0  0  0
 37 28  1  0  0  0  0
 39 28  1  0  0  0  0
 41 30  1  0  0  0  0
 42 43  1  0  0  0  0
 42 51  1  0  0  0  0
 43 44  1  0  0  0  0
 44 55  1  0  0  0  0
 44 45  1  0  0  0  0
 45 57  1  0  0  0  0
 45 46  1  0  0  0  0
 46 48  1  0  0  0  0
 46 58  1  1  0  0  0
 47 46  1  0  0  0  0
 47 31  1  0  0  0  0
 48 49  1  0  0  0  0
 50 48  2  0  0  0  0
 52 42  1  0  0  0  0
 53 42  1  0  0  0  0
 54 44  1  0  0  0  0
 56 45  1  0  0  0  0
 59 47  1  0  0  0  0
M  END
$$$$
