WVN.pdb
 OpenBabel07022419193D

 56 57  0  0  1  0  0  0  0  0999 V2000
    3.5210   -2.2540   -0.5720 N   0  0  0  0  0  0  0  0  0  0  0  0
    3.0630   -1.7380    0.7110 C   0  0  1  0  0  0  0  0  0  0  0  0
    4.0070   -0.6430    1.1040 C   0  0  0  0  0  0  0  0  0  0  0  0
    3.7220    0.0470    2.3730 C   0  0  0  0  0  0  0  0  0  0  0  0
    4.2660   -0.2820    3.6200 C   0  0  0  0  0  0  0  0  0  0  0  0
    3.7590    0.5380    4.5460 N   0  0  0  0  0  0  0  0  0  0  0  0
    2.9000    1.4030    3.9840 C   0  0  0  0  0  0  0  0  0  0  0  0
    2.1370    2.4350    4.4720 C   0  0  0  0  0  0  0  0  0  0  0  0
    1.3500    3.1700    3.6240 C   0  0  0  0  0  0  0  0  0  0  0  0
    1.3000    2.9020    2.2810 C   0  0  0  0  0  0  0  0  0  0  0  0
    2.0630    1.8710    1.8060 C   0  0  0  0  0  0  0  0  0  0  0  0
    2.8640    1.1160    2.6430 C   0  0  0  0  0  0  0  0  0  0  0  0
    1.6820   -1.3090    0.7080 C   0  0  0  0  0  0  0  0  0  0  0  0
    1.1240   -1.1020    1.8390 O   0  0  0  0  0  0  0  0  0  0  0  0
    4.3580   -2.8470   -0.3560 H   0  0  0  0  0  0  0  0  0  0  0  0
    2.8300   -2.8780   -1.0300 H   0  0  0  0  0  0  0  0  0  0  0  0
    3.1520   -2.5900    1.4550 H   0  0  0  0  0  0  0  0  0  0  0  0
    4.0090    0.1730    0.3200 H   0  0  0  0  0  0  0  0  0  0  0  0
    5.0380   -1.0750    1.1890 H   0  0  0  0  0  0  0  0  0  0  0  0
    4.9770   -1.0850    3.7310 H   0  0  0  0  0  0  0  0  0  0  0  0
    4.0220    0.4780    5.5600 H   0  0  0  0  0  0  0  0  0  0  0  0
    2.1450    2.6880    5.5450 H   0  0  0  0  0  0  0  0  0  0  0  0
    0.7470    3.9870    4.0150 H   0  0  0  0  0  0  0  0  0  0  0  0
    0.6780    3.4760    1.5830 H   0  0  0  0  0  0  0  0  0  0  0  0
    2.0520    1.6280    0.7490 H   0  0  0  0  0  0  0  0  0  0  0  0
   -0.3420    0.6510   -2.4250 C   0  0  0  0  0  0  0  0  0  0  0  0
   -0.6890    0.6940   -0.9690 C   0  0  0  0  0  0  0  0  0  0  0  0
   -2.0600    1.2830   -0.8090 C   0  0  0  0  0  0  0  0  0  0  0  0
   -0.5280   -0.6600   -0.3030 C   0  0  2  0  0  0  0  0  0  0  0  0
    0.8750   -1.0940   -0.4240 N   0  0  0  0  0  0  0  0  0  0  0  0
   -1.3230   -1.7190   -0.9720 C   0  0  0  0  0  0  0  0  0  0  0  0
   -0.7270   -2.7010   -1.5440 O   0  0  0  0  0  0  0  0  0  0  0  0
   -0.9890   -0.0640   -2.9970 H   0  0  0  0  0  0  0  0  0  0  0  0
   -0.4910    1.6310   -2.9190 H   0  0  0  0  0  0  0  0  0  0  0  0
    0.6970    0.3410   -2.6230 H   0  0  0  0  0  0  0  0  0  0  0  0
    0.0270    1.4360   -0.5020 H   0  0  0  0  0  0  0  0  0  0  0  0
   -2.5220    1.1130    0.1800 H   0  0  0  0  0  0  0  0  0  0  0  0
   -1.9370    2.4080   -0.9020 H   0  0  0  0  0  0  0  0  0  0  0  0
   -2.7370    1.0380   -1.6690 H   0  0  0  0  0  0  0  0  0  0  0  0
   -0.8000   -0.5260    0.7620 H   0  0  0  0  0  0  0  0  0  0  0  0
    1.2520   -1.2380   -1.3590 H   0  0  0  0  0  0  0  0  0  0  0  0
   -4.5760   -4.8820    1.2580 N   0  0  0  0  0  0  0  0  0  0  0  0
   -3.7900   -4.1690    0.3240 C   0  0  0  0  0  0  0  0  0  0  0  0
   -2.5550   -4.0850    0.5230 O   0  0  0  0  0  0  0  0  0  0  0  0
   -4.4370   -3.5430   -0.8550 C   0  0  0  0  0  0  0  0  0  0  0  0
   -3.4500   -2.8380   -1.7220 C   0  0  2  0  0  0  0  0  0  0  0  0
   -2.7320   -1.7680   -1.0500 N   0  0  0  0  0  0  0  0  0  0  0  0
   -4.1100   -2.3510   -2.9650 C   0  0  0  0  0  0  0  0  0  0  0  0
   -4.0260   -1.1600   -3.3410 O   0  0  0  0  0  0  0  0  0  0  0  0
   -4.8360   -3.2470   -3.7220 O   0  0  0  0  0  0  0  0  0  0  0  0
   -4.1360   -5.4280    2.0290 H   0  0  0  0  0  0  0  0  0  0  0  0
   -5.6120   -4.8550    1.1640 H   0  0  0  0  0  0  0  0  0  0  0  0
   -5.3090   -2.9130   -0.5770 H   0  0  0  0  0  0  0  0  0  0  0  0
   -4.8700   -4.3880   -1.4500 H   0  0  0  0  0  0  0  0  0  0  0  0
   -2.6880   -3.5660   -2.0660 H   0  0  0  0  0  0  0  0  0  0  0  0
   -3.2690   -1.0010   -0.5960 H   0  0  0  0  0  0  0  0  0  0  0  0
  1 15  1  0  0  0  0
  1  2  1  0  0  0  0
  2  3  1  0  0  0  0
  2 17  1  1  0  0  0
  3 19  1  0  0  0  0
  3  4  1  0  0  0  0
  4 12  1  0  0  0  0
  4  5  2  0  0  0  0
  5 20  1  0  0  0  0
  5  6  1  0  0  0  0
  6 21  1  0  0  0  0
  7  8  1  0  0  0  0
  7  6  1  0  0  0  0
  8 22  1  0  0  0  0
  9 23  1  0  0  0  0
  9  8  2  0  0  0  0
 10  9  1  0  0  0  0
 11 10  2  0  0  0  0
 11 12  1  0  0  0  0
 12  7  2  0  0  0  0
 13  2  1  0  0  0  0
 13 14  2  0  0  0  0
 16  1  1  0  0  0  0
 18  3  1  0  0  0  0
 24 10  1  0  0  0  0
 25 11  1  0  0  0  0
 26 27  1  0  0  0  0
 27 28  1  0  0  0  0
 27 36  1  0  0  0  0
 27 29  1  0  0  0  0
 28 37  1  0  0  0  0
 29 40  1  1  0  0  0
 30 29  1  0  0  0  0
 30 13  1  0  0  0  0
 31 29  1  0  0  0  0
 32 31  2  0  0  0  0
 33 26  1  0  0  0  0
 34 26  1  0  0  0  0
 35 26  1  0  0  0  0
 38 28  1  0  0  0  0
 39 28  1  0  0  0  0
 41 30  1  0  0  0  0
 42 51  1  0  0  0  0
 43 44  2  0  0  0  0
 43 42  1  0  0  0  0
 45 53  1  0  0  0  0
 45 43  1  0  0  0  0
 46 55  1  6  0  0  0
 46 47  1  0  0  0  0
 46 45  1  0  0  0  0
 47 31  1  0  0  0  0
 47 56  1  0  0  0  0
 48 46  1  0  0  0  0
 49 48  1  0  0  0  0
 50 48  2  0  0  0  0
 52 42  1  0  0  0  0
 54 45  1  0  0  0  0
M  END
$$$$
