WVP.pdb
 OpenBabel07022419193D

 56 58  0  0  1  0  0  0  0  0999 V2000
    0.4520    0.8400   -1.2130 N   0  0  0  0  0  0  0  0  0  0  0  0
    0.6010    0.9170    0.2070 C   0  0  1  0  0  0  0  0  0  0  0  0
    0.7960    2.3680    0.5830 C   0  0  0  0  0  0  0  0  0  0  0  0
    2.0260    2.8320   -0.1180 C   0  0  0  0  0  0  0  0  0  0  0  0
    2.1500    3.6210   -1.2400 C   0  0  0  0  0  0  0  0  0  0  0  0
    3.4540    3.7860   -1.5230 N   0  0  0  0  0  0  0  0  0  0  0  0
    4.2230    3.1370   -0.6340 C   0  0  0  0  0  0  0  0  0  0  0  0
    5.5930    3.0000   -0.4910 C   0  0  0  0  0  0  0  0  0  0  0  0
    6.1270    2.2570    0.5410 C   0  0  0  0  0  0  0  0  0  0  0  0
    5.2420    1.6580    1.4230 C   0  0  0  0  0  0  0  0  0  0  0  0
    3.8750    1.7890    1.2900 C   0  0  0  0  0  0  0  0  0  0  0  0
    3.3400    2.5320    0.2580 C   0  0  0  0  0  0  0  0  0  0  0  0
   -0.4320    0.2340    0.9730 C   0  0  0  0  0  0  0  0  0  0  0  0
   -0.3660    0.2650    2.2290 O   0  0  0  0  0  0  0  0  0  0  0  0
   -0.5400    0.9240   -1.5340 H   0  0  0  0  0  0  0  0  0  0  0  0
    0.8000   -0.0910   -1.5320 H   0  0  0  0  0  0  0  0  0  0  0  0
    1.5800    0.4060    0.4470 H   0  0  0  0  0  0  0  0  0  0  0  0
   -0.0400    3.0060    0.2220 H   0  0  0  0  0  0  0  0  0  0  0  0
    0.9770    2.4420    1.6590 H   0  0  0  0  0  0  0  0  0  0  0  0
    1.3150    4.0360   -1.7950 H   0  0  0  0  0  0  0  0  0  0  0  0
    3.7960    4.3470   -2.3310 H   0  0  0  0  0  0  0  0  0  0  0  0
    6.2800    3.4800   -1.1970 H   0  0  0  0  0  0  0  0  0  0  0  0
    7.2040    2.1340    0.6750 H   0  0  0  0  0  0  0  0  0  0  0  0
    5.6050    1.0730    2.2380 H   0  0  0  0  0  0  0  0  0  0  0  0
    3.1780    1.3180    1.9850 H   0  0  0  0  0  0  0  0  0  0  0  0
   -4.8460   -1.4440    1.9150 C   0  0  0  0  0  0  0  0  0  0  0  0
   -3.9170   -0.6980    0.9930 C   0  0  0  0  0  0  0  0  0  0  0  0
   -4.3860   -1.0580   -0.4230 C   0  0  0  0  0  0  0  0  0  0  0  0
   -2.5250   -1.1380    1.2490 C   0  0  2  0  0  0  0  0  0  0  0  0
   -1.5350   -0.4820    0.4490 N   0  0  0  0  0  0  0  0  0  0  0  0
   -2.4470   -2.6090    1.2120 C   0  0  0  0  0  0  0  0  0  0  0  0
   -3.2070   -3.2400    2.0340 O   0  0  0  0  0  0  0  0  0  0  0  0
   -5.7910   -0.8460    2.0930 H   0  0  0  0  0  0  0  0  0  0  0  0
   -5.2290   -2.3980    1.5030 H   0  0  0  0  0  0  0  0  0  0  0  0
   -4.4430   -1.5840    2.9390 H   0  0  0  0  0  0  0  0  0  0  0  0
   -4.1000    0.3810    1.1990 H   0  0  0  0  0  0  0  0  0  0  0  0
   -5.3830   -0.5390   -0.5280 H   0  0  0  0  0  0  0  0  0  0  0  0
   -4.5540   -2.1380   -0.4480 H   0  0  0  0  0  0  0  0  0  0  0  0
   -3.7170   -0.6660   -1.1920 H   0  0  0  0  0  0  0  0  0  0  0  0
   -2.2820   -0.8730    2.3220 H   0  0  0  0  0  0  0  0  0  0  0  0
   -1.6370   -0.5140   -0.5760 H   0  0  0  0  0  0  0  0  0  0  0  0
   -1.6470   -3.4330    0.3960 N   0  0  0  0  0  0  0  0  0  0  0  0
   -0.7660   -2.9930   -0.6390 C   0  0  0  0  0  0  0  0  0  0  0  0
   -0.1060   -4.2210   -1.2280 C   0  0  0  0  0  0  0  0  0  0  0  0
   -0.4550   -5.3700   -0.3340 C   0  0  0  0  0  0  0  0  0  0  0  0
   -1.5850   -4.8650    0.4910 C   0  0  1  0  0  0  0  0  0  0  0  0
   -1.3330   -5.3280    1.8860 C   0  0  0  0  0  0  0  0  0  0  0  0
   -1.0940   -4.4940    2.7840 O   0  0  0  0  0  0  0  0  0  0  0  0
   -1.3570   -6.6700    2.2180 O   0  0  0  0  0  0  0  0  0  0  0  0
   -1.3990   -2.5870   -1.4950 H   0  0  0  0  0  0  0  0  0  0  0  0
   -0.0100   -2.2480   -0.3370 H   0  0  0  0  0  0  0  0  0  0  0  0
   -0.4880   -4.4690   -2.2400 H   0  0  0  0  0  0  0  0  0  0  0  0
    1.0140   -4.0800   -1.2700 H   0  0  0  0  0  0  0  0  0  0  0  0
   -0.7850   -6.2730   -0.9270 H   0  0  0  0  0  0  0  0  0  0  0  0
    0.4210   -5.6460    0.2970 H   0  0  0  0  0  0  0  0  0  0  0  0
   -2.5550   -5.2660    0.1140 H   0  0  0  0  0  0  0  0  0  0  0  0
  1  2  1  0  0  0  0
  2 17  1  1  0  0  0
  2  3  1  0  0  0  0
  2 13  1  0  0  0  0
  3 19  1  0  0  0  0
  4 12  1  0  0  0  0
  4  3  1  0  0  0  0
  5  4  2  0  0  0  0
  6  5  1  0  0  0  0
  6  7  1  0  0  0  0
  7  8  2  0  0  0  0
  7 12  1  0  0  0  0
  8  9  1  0  0  0  0
  9 23  1  0  0  0  0
  9 10  2  0  0  0  0
 10 24  1  0  0  0  0
 11 10  1  0  0  0  0
 11 25  1  0  0  0  0
 12 11  2  0  0  0  0
 13 14  2  0  0  0  0
 15  1  1  0  0  0  0
 16  1  1  0  0  0  0
 18  3  1  0  0  0  0
 20  5  1  0  0  0  0
 21  6  1  0  0  0  0
 22  8  1  0  0  0  0
 26 33  1  0  0  0  0
 26 35  1  0  0  0  0
 27 36  1  0  0  0  0
 27 29  1  0  0  0  0
 27 26  1  0  0  0  0
 28 27  1  0  0  0  0
 29 40  1  1  0  0  0
 30 13  1  0  0  0  0
 30 29  1  0  0  0  0
 31 29  1  0  0  0  0
 31 32  2  0  0  0  0
 34 26  1  0  0  0  0
 37 28  1  0  0  0  0
 38 28  1  0  0  0  0
 39 28  1  0  0  0  0
 41 30  1  0  0  0  0
 42 46  1  0  0  0  0
 42 31  1  0  0  0  0
 43 51  1  0  0  0  0
 43 42  1  0  0  0  0
 44 43  1  0  0  0  0
 44 45  1  0  0  0  0
 45 55  1  0  0  0  0
 45 46  1  0  0  0  0
 46 56  1  6  0  0  0
 46 47  1  0  0  0  0
 47 49  2  0  0  0  0
 47 48  1  0  0  0  0
 50 43  1  0  0  0  0
 52 44  1  0  0  0  0
 53 44  1  0  0  0  0
 54 45  1  0  0  0  0
M  END
$$$$
