WVQ.pdb
 OpenBabel07022419193D

 59 60  0  0  1  0  0  0  0  0999 V2000
    1.9030    1.7880    2.5290 N   0  0  0  0  0  0  0  0  0  0  0  0
    0.9190    1.1170    1.7320 C   0  0  1  0  0  0  0  0  0  0  0  0
    1.6140    0.1930    0.7440 C   0  0  0  0  0  0  0  0  0  0  0  0
    2.4930    1.0040   -0.1190 C   0  0  0  0  0  0  0  0  0  0  0  0
    3.8750    1.0740   -0.0060 C   0  0  0  0  0  0  0  0  0  0  0  0
    4.3190    1.9040   -0.9560 N   0  0  0  0  0  0  0  0  0  0  0  0
    3.2930    2.3860   -1.6940 C   0  0  0  0  0  0  0  0  0  0  0  0
    3.2490    3.2640   -2.7740 C   0  0  0  0  0  0  0  0  0  0  0  0
    2.0290    3.5770   -3.3330 C   0  0  0  0  0  0  0  0  0  0  0  0
    0.9020    3.0080   -2.8000 C   0  0  0  0  0  0  0  0  0  0  0  0
    0.9480    2.1500   -1.7430 C   0  0  0  0  0  0  0  0  0  0  0  0
    2.1540    1.8230   -1.1690 C   0  0  0  0  0  0  0  0  0  0  0  0
    0.0190    0.2910    2.5990 C   0  0  0  0  0  0  0  0  0  0  0  0
    0.1780    0.2520    3.8440 O   0  0  0  0  0  0  0  0  0  0  0  0
    1.7240    1.6990    3.5650 H   0  0  0  0  0  0  0  0  0  0  0  0
    2.0260    2.7980    2.2570 H   0  0  0  0  0  0  0  0  0  0  0  0
    0.2890    1.8740    1.2360 H   0  0  0  0  0  0  0  0  0  0  0  0
    2.2090   -0.5220    1.3190 H   0  0  0  0  0  0  0  0  0  0  0  0
    0.8440   -0.3380    0.1180 H   0  0  0  0  0  0  0  0  0  0  0  0
    4.4630    0.5430    0.7290 H   0  0  0  0  0  0  0  0  0  0  0  0
    5.3130    2.1600   -1.1270 H   0  0  0  0  0  0  0  0  0  0  0  0
    4.1700    3.6670   -3.1360 H   0  0  0  0  0  0  0  0  0  0  0  0
    1.9620    4.2680   -4.1880 H   0  0  0  0  0  0  0  0  0  0  0  0
   -0.0560    3.2650   -3.2520 H   0  0  0  0  0  0  0  0  0  0  0  0
    0.0540    1.6930   -1.3130 H   0  0  0  0  0  0  0  0  0  0  0  0
   -3.2980    0.7210    3.1760 C   0  0  0  0  0  0  0  0  0  0  0  0
   -3.3260   -0.7110    2.6770 C   0  0  0  0  0  0  0  0  0  0  0  0
   -4.3290   -1.4770    3.4990 C   0  0  0  0  0  0  0  0  0  0  0  0
   -1.9370   -1.2880    2.8320 C   0  0  2  0  0  0  0  0  0  0  0  0
   -1.0310   -0.4660    2.0290 N   0  0  0  0  0  0  0  0  0  0  0  0
   -1.8960   -2.6970    2.3660 C   0  0  0  0  0  0  0  0  0  0  0  0
   -2.6230   -3.5320    2.9570 O   0  0  0  0  0  0  0  0  0  0  0  0
   -3.7060    0.7510    4.2080 H   0  0  0  0  0  0  0  0  0  0  0  0
   -2.3060    1.1720    3.1090 H   0  0  0  0  0  0  0  0  0  0  0  0
   -3.9930    1.3520    2.5550 H   0  0  0  0  0  0  0  0  0  0  0  0
   -3.5760   -0.6750    1.6110 H   0  0  0  0  0  0  0  0  0  0  0  0
   -4.7360   -2.3530    2.9590 H   0  0  0  0  0  0  0  0  0  0  0  0
   -3.8390   -1.7440    4.4460 H   0  0  0  0  0  0  0  0  0  0  0  0
   -5.1600   -0.7660    3.7520 H   0  0  0  0  0  0  0  0  0  0  0  0
   -1.6170   -1.1730    3.8810 H   0  0  0  0  0  0  0  0  0  0  0  0
   -1.1560   -0.4270    0.9860 H   0  0  0  0  0  0  0  0  0  0  0  0
   -0.0600   -3.1920   -3.9680 N   0  0  0  0  0  0  0  0  0  0  0  0
   -0.7530   -3.8870   -2.9530 C   0  0  0  0  0  0  0  0  0  0  0  0
   -1.7170   -4.6630   -3.2540 O   0  0  0  0  0  0  0  0  0  0  0  0
   -0.3970   -3.7480   -1.5140 C   0  0  0  0  0  0  0  0  0  0  0  0
   -1.3250   -4.5770   -0.6450 C   0  0  0  0  0  0  0  0  0  0  0  0
   -0.9930   -4.4570    0.8050 C   0  0  2  0  0  0  0  0  0  0  0  0
   -1.0800   -3.1040    1.3060 N   0  0  0  0  0  0  0  0  0  0  0  0
    0.4180   -4.8920    0.9800 C   0  0  0  0  0  0  0  0  0  0  0  0
    0.7620   -6.0490    0.6200 O   0  0  0  0  0  0  0  0  0  0  0  0
    1.3980   -4.0760    1.5300 O   0  0  0  0  0  0  0  0  0  0  0  0
    0.9720   -3.2030   -3.9930 H   0  0  0  0  0  0  0  0  0  0  0  0
   -0.5950   -2.6740   -4.6840 H   0  0  0  0  0  0  0  0  0  0  0  0
    0.6520   -4.0930   -1.4090 H   0  0  0  0  0  0  0  0  0  0  0  0
   -0.4080   -2.6830   -1.2440 H   0  0  0  0  0  0  0  0  0  0  0  0
   -1.1340   -5.6420   -0.9380 H   0  0  0  0  0  0  0  0  0  0  0  0
   -2.3880   -4.3930   -0.8910 H   0  0  0  0  0  0  0  0  0  0  0  0
   -1.6490   -5.1300    1.3660 H   0  0  0  0  0  0  0  0  0  0  0  0
   -0.4840   -2.3880    0.8320 H   0  0  0  0  0  0  0  0  0  0  0  0
  1 15  1  0  0  0  0
  2 17  1  6  0  0  0
  2  1  1  0  0  0  0
  2 13  1  0  0  0  0
  3 18  1  0  0  0  0
  3  2  1  0  0  0  0
  4  5  2  0  0  0  0
  4  3  1  0  0  0  0
  5 20  1  0  0  0  0
  6  5  1  0  0  0  0
  7 12  1  0  0  0  0
  7  6  1  0  0  0  0
  8  7  2  0  0  0  0
  9 10  2  0  0  0  0
  9  8  1  0  0  0  0
 10 11  1  0  0  0  0
 11 25  1  0  0  0  0
 11 12  2  0  0  0  0
 12  4  1  0  0  0  0
 13 14  2  0  0  0  0
 16  1  1  0  0  0  0
 19  3  1  0  0  0  0
 21  6  1  0  0  0  0
 22  8  1  0  0  0  0
 23  9  1  0  0  0  0
 24 10  1  0  0  0  0
 26 33  1  0  0  0  0
 27 29  1  0  0  0  0
 27 26  1  0  0  0  0
 27 28  1  0  0  0  0
 28 39  1  0  0  0  0
 28 38  1  0  0  0  0
 29 40  1  1  0  0  0
 30 13  1  0  0  0  0
 30 29  1  0  0  0  0
 31 29  1  0  0  0  0
 31 32  2  0  0  0  0
 34 26  1  0  0  0  0
 35 26  1  0  0  0  0
 36 27  1  0  0  0  0
 37 28  1  0  0  0  0
 41 30  1  0  0  0  0
 42 43  1  0  0  0  0
 43 45  1  0  0  0  0
 44 43  2  0  0  0  0
 45 54  1  0  0  0  0
 45 55  1  0  0  0  0
 45 46  1  0  0  0  0
 46 47  1  0  0  0  0
 47 49  1  0  0  0  0
 47 48  1  0  0  0  0
 47 58  1  1  0  0  0
 48 31  1  0  0  0  0
 49 51  1  0  0  0  0
 50 49  2  0  0  0  0
 52 42  1  0  0  0  0
 53 42  1  0  0  0  0
 56 46  1  0  0  0  0
 57 46  1  0  0  0  0
 59 48  1  0  0  0  0
M  END
$$$$
