WVS.pdb
 OpenBabel07022419193D

 53 54  0  0  1  0  0  0  0  0999 V2000
    1.4390    2.6630    1.5130 N   0  0  0  0  0  0  0  0  0  0  0  0
    0.6640    1.9590    0.5170 C   0  0  1  0  0  0  0  0  0  0  0  0
    1.5470    1.2260   -0.4260 C   0  0  0  0  0  0  0  0  0  0  0  0
    2.4350    0.2150    0.1820 C   0  0  0  0  0  0  0  0  0  0  0  0
    2.1860   -1.1400    0.1990 C   0  0  0  0  0  0  0  0  0  0  0  0
    3.1720   -1.7890    0.8440 N   0  0  0  0  0  0  0  0  0  0  0  0
    4.0870   -0.8950    1.2650 C   0  0  0  0  0  0  0  0  0  0  0  0
    5.2620   -1.0540    1.9530 C   0  0  0  0  0  0  0  0  0  0  0  0
    6.0390    0.0360    2.2620 C   0  0  0  0  0  0  0  0  0  0  0  0
    5.5860    1.2900    1.8510 C   0  0  0  0  0  0  0  0  0  0  0  0
    4.4000    1.4580    1.1560 C   0  0  0  0  0  0  0  0  0  0  0  0
    3.6360    0.3520    0.8570 C   0  0  0  0  0  0  0  0  0  0  0  0
   -0.4050    1.1880    1.1530 C   0  0  0  0  0  0  0  0  0  0  0  0
   -0.4550    1.1390    2.4170 O   0  0  0  0  0  0  0  0  0  0  0  0
    0.9090    3.4440    1.9430 H   0  0  0  0  0  0  0  0  0  0  0  0
    1.7740    2.0200    2.2700 H   0  0  0  0  0  0  0  0  0  0  0  0
    0.1290    2.7820   -0.0650 H   0  0  0  0  0  0  0  0  0  0  0  0
    1.0080    0.8270   -1.3190 H   0  0  0  0  0  0  0  0  0  0  0  0
    2.2330    2.0100   -0.8700 H   0  0  0  0  0  0  0  0  0  0  0  0
    1.3390   -1.6490   -0.2310 H   0  0  0  0  0  0  0  0  0  0  0  0
    3.2530   -2.8340    1.0140 H   0  0  0  0  0  0  0  0  0  0  0  0
    5.5720   -2.0370    2.2490 H   0  0  0  0  0  0  0  0  0  0  0  0
    6.9750   -0.0550    2.8060 H   0  0  0  0  0  0  0  0  0  0  0  0
    6.1930    2.1480    2.0910 H   0  0  0  0  0  0  0  0  0  0  0  0
    4.0730    2.4470    0.8370 H   0  0  0  0  0  0  0  0  0  0  0  0
   -4.7790   -0.4790    1.8690 C   0  0  0  0  0  0  0  0  0  0  0  0
   -3.8080    0.3750    1.0810 C   0  0  0  0  0  0  0  0  0  0  0  0
   -4.3070    0.4680   -0.3290 C   0  0  0  0  0  0  0  0  0  0  0  0
   -2.4430   -0.2530    1.1960 C   0  0  2  0  0  0  0  0  0  0  0  0
   -1.4250    0.4700    0.4940 N   0  0  0  0  0  0  0  0  0  0  0  0
   -2.5090   -1.6670    0.7710 C   0  0  0  0  0  0  0  0  0  0  0  0
   -3.3400   -2.4560    1.3030 O   0  0  0  0  0  0  0  0  0  0  0  0
   -5.5800    0.1770    2.3330 H   0  0  0  0  0  0  0  0  0  0  0  0
   -5.3070   -1.2270    1.2590 H   0  0  0  0  0  0  0  0  0  0  0  0
   -4.2500   -0.8940    2.7560 H   0  0  0  0  0  0  0  0  0  0  0  0
   -3.8130    1.3720    1.6040 H   0  0  0  0  0  0  0  0  0  0  0  0
   -4.5490    1.5170   -0.6380 H   0  0  0  0  0  0  0  0  0  0  0  0
   -5.2600   -0.1030   -0.4900 H   0  0  0  0  0  0  0  0  0  0  0  0
   -3.5600    0.0080   -1.0090 H   0  0  0  0  0  0  0  0  0  0  0  0
   -2.2030   -0.2380    2.2790 H   0  0  0  0  0  0  0  0  0  0  0  0
   -1.4400    0.4640   -0.5440 H   0  0  0  0  0  0  0  0  0  0  0  0
   -1.2290   -3.3030   -2.9290 O   0  0  0  0  0  0  0  0  0  0  0  0
   -2.1550   -3.8460   -2.0570 C   0  0  0  0  0  0  0  0  0  0  0  0
   -1.7950   -3.6490   -0.6150 C   0  0  2  0  0  0  0  0  0  0  0  0
   -1.6820   -2.2560   -0.2370 N   0  0  0  0  0  0  0  0  0  0  0  0
   -0.6440   -4.4820   -0.1970 C   0  0  0  0  0  0  0  0  0  0  0  0
    0.3570   -4.1110    0.4210 O   0  0  0  0  0  0  0  0  0  0  0  0
   -0.7140   -5.8300   -0.5460 O   0  0  0  0  0  0  0  0  0  0  0  0
   -1.6670   -2.6490   -3.4910 H   0  0  0  0  0  0  0  0  0  0  0  0
   -2.1380   -4.9540   -2.2350 H   0  0  0  0  0  0  0  0  0  0  0  0
   -3.1830   -3.5190   -2.2280 H   0  0  0  0  0  0  0  0  0  0  0  0
   -2.6600   -4.0750   -0.0200 H   0  0  0  0  0  0  0  0  0  0  0  0
   -0.9940   -1.6080   -0.6810 H   0  0  0  0  0  0  0  0  0  0  0  0
  1 15  1  0  0  0  0
  1 16  1  0  0  0  0
  2 17  1  6  0  0  0
  2 13  1  0  0  0  0
  2  1  1  0  0  0  0
  3  4  1  0  0  0  0
  3  2  1  0  0  0  0
  4  5  2  0  0  0  0
  4 12  1  0  0  0  0
  5  6  1  0  0  0  0
  6 21  1  0  0  0  0
  6  7  1  0  0  0  0
  7  8  1  0  0  0  0
  8 22  1  0  0  0  0
  8  9  2  0  0  0  0
  9 23  1  0  0  0  0
 10 24  1  0  0  0  0
 10  9  1  0  0  0  0
 11 10  2  0  0  0  0
 12 11  1  0  0  0  0
 12  7  2  0  0  0  0
 13 14  2  0  0  0  0
 18  3  1  0  0  0  0
 19  3  1  0  0  0  0
 20  5  1  0  0  0  0
 25 11  1  0  0  0  0
 26 33  1  0  0  0  0
 26 35  1  0  0  0  0
 27 29  1  0  0  0  0
 27 36  1  0  0  0  0
 27 26  1  0  0  0  0
 28 27  1  0  0  0  0
 29 40  1  1  0  0  0
 30 13  1  0  0  0  0
 30 29  1  0  0  0  0
 31 29  1  0  0  0  0
 31 32  2  0  0  0  0
 34 26  1  0  0  0  0
 37 28  1  0  0  0  0
 38 28  1  0  0  0  0
 39 28  1  0  0  0  0
 41 30  1  0  0  0  0
 42 43  1  0  0  0  0
 43 44  1  0  0  0  0
 44 45  1  0  0  0  0
 44 46  1  0  0  0  0
 44 52  1  1  0  0  0
 45 31  1  0  0  0  0
 46 47  1  0  0  0  0
 48 46  2  0  0  0  0
 49 42  1  0  0  0  0
 50 43  1  0  0  0  0
 51 43  1  0  0  0  0
 53 45  1  0  0  0  0
M  END
$$$$
