WVT.pdb
 OpenBabel07022419193D

 56 57  0  0  1  0  0  0  0  0999 V2000
   -0.1610    3.5970   -1.5090 N   0  0  0  0  0  0  0  0  0  0  0  0
    0.3230    2.2090   -1.2460 C   0  0  1  0  0  0  0  0  0  0  0  0
    1.7980    2.2160   -1.2930 C   0  0  0  0  0  0  0  0  0  0  0  0
    2.4630    0.9470   -1.0260 C   0  0  0  0  0  0  0  0  0  0  0  0
    2.9240    0.0180   -1.9560 C   0  0  0  0  0  0  0  0  0  0  0  0
    3.4810   -1.0290   -1.3290 N   0  0  0  0  0  0  0  0  0  0  0  0
    3.3870   -0.7900    0.0050 C   0  0  0  0  0  0  0  0  0  0  0  0
    3.8290   -1.5630    1.0710 C   0  0  0  0  0  0  0  0  0  0  0  0
    3.6340   -1.1010    2.3520 C   0  0  0  0  0  0  0  0  0  0  0  0
    3.0140    0.1020    2.5730 C   0  0  0  0  0  0  0  0  0  0  0  0
    2.5810    0.8580    1.4940 C   0  0  0  0  0  0  0  0  0  0  0  0
    2.7700    0.4070    0.2110 C   0  0  0  0  0  0  0  0  0  0  0  0
   -0.3500    1.7470   -0.0400 C   0  0  0  0  0  0  0  0  0  0  0  0
   -0.3970    2.4530    0.9910 O   0  0  0  0  0  0  0  0  0  0  0  0
   -1.2110    3.5140   -1.6460 H   0  0  0  0  0  0  0  0  0  0  0  0
   -0.0880    4.0730   -0.5640 H   0  0  0  0  0  0  0  0  0  0  0  0
   -0.0360    1.6590   -2.1710 H   0  0  0  0  0  0  0  0  0  0  0  0
    2.0780    2.4940   -2.3610 H   0  0  0  0  0  0  0  0  0  0  0  0
    2.2550    3.0130   -0.6440 H   0  0  0  0  0  0  0  0  0  0  0  0
    2.8650    0.0860   -3.0480 H   0  0  0  0  0  0  0  0  0  0  0  0
    3.9250   -1.8990   -1.7230 H   0  0  0  0  0  0  0  0  0  0  0  0
    4.3230   -2.5220    0.9300 H   0  0  0  0  0  0  0  0  0  0  0  0
    3.9650   -1.6780    3.2040 H   0  0  0  0  0  0  0  0  0  0  0  0
    2.8300    0.5230    3.5620 H   0  0  0  0  0  0  0  0  0  0  0  0
    2.1030    1.8150    1.6630 H   0  0  0  0  0  0  0  0  0  0  0  0
   -3.3560    1.8590    1.0250 C   0  0  0  0  0  0  0  0  0  0  0  0
   -3.1830    0.3680    1.1100 C   0  0  0  0  0  0  0  0  0  0  0  0
   -3.8290   -0.0620    2.4130 C   0  0  0  0  0  0  0  0  0  0  0  0
   -1.6860   -0.0300    1.1940 C   0  0  2  0  0  0  0  0  0  0  0  0
   -1.0050    0.4470    0.0130 N   0  0  0  0  0  0  0  0  0  0  0  0
   -1.6000   -1.4790    1.4080 C   0  0  0  0  0  0  0  0  0  0  0  0
   -2.1100   -1.9730    2.4410 O   0  0  0  0  0  0  0  0  0  0  0  0
   -2.9610    2.2810    0.1000 H   0  0  0  0  0  0  0  0  0  0  0  0
   -2.9370    2.2970    1.9560 H   0  0  0  0  0  0  0  0  0  0  0  0
   -4.4640    2.0550    1.0920 H   0  0  0  0  0  0  0  0  0  0  0  0
   -3.6880   -0.1260    0.2870 H   0  0  0  0  0  0  0  0  0  0  0  0
   -3.1380   -0.0550    3.2710 H   0  0  0  0  0  0  0  0  0  0  0  0
   -4.3110   -1.0470    2.3360 H   0  0  0  0  0  0  0  0  0  0  0  0
   -4.6460    0.6630    2.6780 H   0  0  0  0  0  0  0  0  0  0  0  0
   -1.3320    0.5040    2.0800 H   0  0  0  0  0  0  0  0  0  0  0  0
   -0.9350   -0.0860   -0.8790 H   0  0  0  0  0  0  0  0  0  0  0  0
   -1.4300   -4.2490   -1.6750 C   0  0  0  0  0  0  0  0  0  0  0  0
   -1.8080   -4.5290   -0.2550 C   0  0  1  0  0  0  0  0  0  0  0  0
   -1.7250   -5.8800    0.0240 O   0  0  0  0  0  0  0  0  0  0  0  0
   -0.9280   -3.8060    0.7430 C   0  0  2  0  0  0  0  0  0  0  0  0
   -0.9740   -2.3580    0.5050 N   0  0  0  0  0  0  0  0  0  0  0  0
    0.4350   -4.3450    0.7820 C   0  0  0  0  0  0  0  0  0  0  0  0
    1.4250   -3.5970    0.6040 O   0  0  0  0  0  0  0  0  0  0  0  0
    0.7270   -5.6840    1.0120 O   0  0  0  0  0  0  0  0  0  0  0  0
   -2.2520   -3.7940   -2.2530 H   0  0  0  0  0  0  0  0  0  0  0  0
   -0.5110   -3.6290   -1.7720 H   0  0  0  0  0  0  0  0  0  0  0  0
   -1.1960   -5.2180   -2.1610 H   0  0  0  0  0  0  0  0  0  0  0  0
   -2.8420   -4.1720   -0.1030 H   0  0  0  0  0  0  0  0  0  0  0  0
   -1.6750   -5.9690    1.0220 H   0  0  0  0  0  0  0  0  0  0  0  0
   -1.3960   -3.9750    1.7330 H   0  0  0  0  0  0  0  0  0  0  0  0
   -0.5330   -1.9690   -0.3510 H   0  0  0  0  0  0  0  0  0  0  0  0
  1  2  1  0  0  0  0
  1 16  1  0  0  0  0
  2 17  1  6  0  0  0
  2 13  1  0  0  0  0
  3  2  1  0  0  0  0
  3  4  1  0  0  0  0
  3 19  1  0  0  0  0
  4 12  1  0  0  0  0
  5  6  1  0  0  0  0
  5  4  2  0  0  0  0
  6  7  1  0  0  0  0
  7 12  2  0  0  0  0
  7  8  1  0  0  0  0
  8  9  2  0  0  0  0
  9 10  1  0  0  0  0
  9 23  1  0  0  0  0
 10 24  1  0  0  0  0
 11 25  1  0  0  0  0
 11 10  2  0  0  0  0
 12 11  1  0  0  0  0
 13 30  1  0  0  0  0
 13 14  2  0  0  0  0
 15  1  1  0  0  0  0
 18  3  1  0  0  0  0
 20  5  1  0  0  0  0
 21  6  1  0  0  0  0
 22  8  1  0  0  0  0
 26 35  1  0  0  0  0
 26 27  1  0  0  0  0
 26 34  1  0  0  0  0
 27 29  1  0  0  0  0
 27 28  1  0  0  0  0
 28 39  1  0  0  0  0
 28 37  1  0  0  0  0
 29 31  1  0  0  0  0
 29 40  1  1  0  0  0
 30 29  1  0  0  0  0
 31 32  2  0  0  0  0
 33 26  1  0  0  0  0
 36 27  1  0  0  0  0
 38 28  1  0  0  0  0
 41 30  1  0  0  0  0
 42 43  1  0  0  0  0
 43 53  1  1  0  0  0
 43 44  1  0  0  0  0
 43 45  1  0  0  0  0
 44 54  1  0  0  0  0
 45 47  1  0  0  0  0
 45 55  1  1  0  0  0
 46 45  1  0  0  0  0
 46 31  1  0  0  0  0
 47 49  1  0  0  0  0
 48 47  2  0  0  0  0
 50 42  1  0  0  0  0
 51 42  1  0  0  0  0
 52 42  1  0  0  0  0
 56 46  1  0  0  0  0
M  END
$$$$
