WVV.pdb
 OpenBabel07022419193D

 58 59  0  0  1  0  0  0  0  0999 V2000
    1.8040   -0.7760    0.4110 N   0  0  0  0  0  0  0  0  0  0  0  0
    1.2680    0.0880    1.4470 C   0  0  1  0  0  0  0  0  0  0  0  0
    1.5480    1.5170    0.9440 C   0  0  0  0  0  0  0  0  0  0  0  0
    3.0130    1.7110    0.7820 C   0  0  0  0  0  0  0  0  0  0  0  0
    3.7320    1.6420   -0.3920 C   0  0  0  0  0  0  0  0  0  0  0  0
    5.0370    1.8620   -0.1240 N   0  0  0  0  0  0  0  0  0  0  0  0
    5.2260    2.0790    1.2000 C   0  0  0  0  0  0  0  0  0  0  0  0
    6.3380    2.3510    1.9700 C   0  0  0  0  0  0  0  0  0  0  0  0
    6.2320    2.5390    3.3270 C   0  0  0  0  0  0  0  0  0  0  0  0
    4.9750    2.4430    3.8810 C   0  0  0  0  0  0  0  0  0  0  0  0
    3.8550    2.1720    3.1280 C   0  0  0  0  0  0  0  0  0  0  0  0
    3.9550    1.9830    1.7620 C   0  0  0  0  0  0  0  0  0  0  0  0
   -0.2050   -0.0280    1.5990 C   0  0  0  0  0  0  0  0  0  0  0  0
   -0.7570    0.3520    2.6630 O   0  0  0  0  0  0  0  0  0  0  0  0
    1.7680   -1.7820    0.6740 H   0  0  0  0  0  0  0  0  0  0  0  0
    1.4300   -0.5800   -0.5400 H   0  0  0  0  0  0  0  0  0  0  0  0
    1.8430   -0.0680    2.3580 H   0  0  0  0  0  0  0  0  0  0  0  0
    1.0600    1.6120   -0.0620 H   0  0  0  0  0  0  0  0  0  0  0  0
    1.1860    2.2730    1.6590 H   0  0  0  0  0  0  0  0  0  0  0  0
    3.3340    1.4440   -1.3790 H   0  0  0  0  0  0  0  0  0  0  0  0
    5.7860    1.8600   -0.8500 H   0  0  0  0  0  0  0  0  0  0  0  0
    7.3190    2.4220    1.5260 H   0  0  0  0  0  0  0  0  0  0  0  0
    7.1070    2.7590    3.9580 H   0  0  0  0  0  0  0  0  0  0  0  0
    4.8920    2.5960    4.9590 H   0  0  0  0  0  0  0  0  0  0  0  0
    2.8700    2.0930    3.5470 H   0  0  0  0  0  0  0  0  0  0  0  0
   -2.6370    1.7610    0.4400 C   0  0  0  0  0  0  0  0  0  0  0  0
   -3.1570    0.4050   -0.0690 C   0  0  0  0  0  0  0  0  0  0  0  0
   -4.6410    0.4190    0.1350 C   0  0  0  0  0  0  0  0  0  0  0  0
   -2.4640   -0.6540    0.7620 C   0  0  2  0  0  0  0  0  0  0  0  0
   -1.0400   -0.5510    0.5830 N   0  0  0  0  0  0  0  0  0  0  0  0
   -2.9570   -2.0010    0.4940 C   0  0  0  0  0  0  0  0  0  0  0  0
   -4.1650   -2.3200    0.6160 O   0  0  0  0  0  0  0  0  0  0  0  0
   -1.6520    2.0080    0.0490 H   0  0  0  0  0  0  0  0  0  0  0  0
   -2.7560    1.8340    1.5240 H   0  0  0  0  0  0  0  0  0  0  0  0
   -3.3400    2.5320   -0.0010 H   0  0  0  0  0  0  0  0  0  0  0  0
   -2.8990    0.3700   -1.1400 H   0  0  0  0  0  0  0  0  0  0  0  0
   -4.8840    0.1820    1.2020 H   0  0  0  0  0  0  0  0  0  0  0  0
   -5.2090   -0.1750   -0.5850 H   0  0  0  0  0  0  0  0  0  0  0  0
   -4.9890    1.4810   -0.0130 H   0  0  0  0  0  0  0  0  0  0  0  0
   -2.7220   -0.3880    1.8230 H   0  0  0  0  0  0  0  0  0  0  0  0
   -0.5790   -0.8500   -0.2990 H   0  0  0  0  0  0  0  0  0  0  0  0
   -2.9870   -3.8690   -2.6090 C   0  0  0  0  0  0  0  0  0  0  0  0
   -2.2710   -4.7770   -1.6340 C   0  0  0  0  0  0  0  0  0  0  0  0
   -0.7990   -4.7830   -1.9630 C   0  0  0  0  0  0  0  0  0  0  0  0
   -2.5120   -4.3590   -0.1990 C   0  0  2  0  0  0  0  0  0  0  0  0
   -2.0530   -3.0240    0.0730 N   0  0  0  0  0  0  0  0  0  0  0  0
   -1.8730   -5.3710    0.6780 C   0  0  0  0  0  0  0  0  0  0  0  0
   -2.1370   -6.5850    0.5800 O   0  0  0  0  0  0  0  0  0  0  0  0
   -0.9500   -4.9720    1.6460 O   0  0  0  0  0  0  0  0  0  0  0  0
   -2.4730   -3.9470   -3.5920 H   0  0  0  0  0  0  0  0  0  0  0  0
   -2.9440   -2.8040   -2.3090 H   0  0  0  0  0  0  0  0  0  0  0  0
   -4.0020   -4.2670   -2.7660 H   0  0  0  0  0  0  0  0  0  0  0  0
   -2.6850   -5.7950   -1.7810 H   0  0  0  0  0  0  0  0  0  0  0  0
   -0.4530   -3.7410   -2.1960 H   0  0  0  0  0  0  0  0  0  0  0  0
   -0.2160   -5.1290   -1.0700 H   0  0  0  0  0  0  0  0  0  0  0  0
   -0.5890   -5.4270   -2.8490 H   0  0  0  0  0  0  0  0  0  0  0  0
   -3.6170   -4.4070    0.0190 H   0  0  0  0  0  0  0  0  0  0  0  0
   -1.0380   -2.8090   -0.0410 H   0  0  0  0  0  0  0  0  0  0  0  0
  1 15  1  0  0  0  0
  1  2  1  0  0  0  0
  2 13  1  0  0  0  0
  2 17  1  1  0  0  0
  3  2  1  0  0  0  0
  3 19  1  0  0  0  0
  4  3  1  0  0  0  0
  4 12  1  0  0  0  0
  5  6  1  0  0  0  0
  5  4  2  0  0  0  0
  6  7  1  0  0  0  0
  7 12  2  0  0  0  0
  7  8  1  0  0  0  0
  8  9  2  0  0  0  0
  9 10  1  0  0  0  0
  9 23  1  0  0  0  0
 10 24  1  0  0  0  0
 11 25  1  0  0  0  0
 11 10  2  0  0  0  0
 12 11  1  0  0  0  0
 13 14  2  0  0  0  0
 16  1  1  0  0  0  0
 18  3  1  0  0  0  0
 20  5  1  0  0  0  0
 21  6  1  0  0  0  0
 22  8  1  0  0  0  0
 26 34  1  0  0  0  0
 27 28  1  0  0  0  0
 27 26  1  0  0  0  0
 27 29  1  0  0  0  0
 28 37  1  0  0  0  0
 29 40  1  1  0  0  0
 30 29  1  0  0  0  0
 30 13  1  0  0  0  0
 31 32  2  0  0  0  0
 31 29  1  0  0  0  0
 33 26  1  0  0  0  0
 35 26  1  0  0  0  0
 36 27  1  0  0  0  0
 38 28  1  0  0  0  0
 39 28  1  0  0  0  0
 41 30  1  0  0  0  0
 42 51  1  0  0  0  0
 42 43  1  0  0  0  0
 43 45  1  0  0  0  0
 44 43  1  0  0  0  0
 44 55  1  0  0  0  0
 45 57  1  1  0  0  0
 45 46  1  0  0  0  0
 45 47  1  0  0  0  0
 46 31  1  0  0  0  0
 47 49  1  0  0  0  0
 48 47  2  0  0  0  0
 50 42  1  0  0  0  0
 52 42  1  0  0  0  0
 53 43  1  0  0  0  0
 54 44  1  0  0  0  0
 56 44  1  0  0  0  0
 58 46  1  0  0  0  0
M  END
$$$$
