WVW.pdb
 OpenBabel07022419193D

 66 69  0  0  1  0  0  0  0  0999 V2000
    3.0960    0.1780    2.7230 N   0  0  0  0  0  0  0  0  0  0  0  0
    2.1720    1.2060    2.2070 C   0  0  1  0  0  0  0  0  0  0  0  0
    2.8820    2.4700    1.9510 C   0  0  0  0  0  0  0  0  0  0  0  0
    2.0230    3.5350    1.4110 C   0  0  0  0  0  0  0  0  0  0  0  0
    1.3950    4.5210    2.1600 C   0  0  0  0  0  0  0  0  0  0  0  0
    0.6720    5.3000    1.3440 N   0  0  0  0  0  0  0  0  0  0  0  0
    0.7810    4.8850    0.0540 C   0  0  0  0  0  0  0  0  0  0  0  0
    0.2660    5.3300   -1.1400 C   0  0  0  0  0  0  0  0  0  0  0  0
    0.5690    4.7030   -2.3220 C   0  0  0  0  0  0  0  0  0  0  0  0
    1.4070    3.6060   -2.3090 C   0  0  0  0  0  0  0  0  0  0  0  0
    1.9200    3.1620   -1.1100 C   0  0  0  0  0  0  0  0  0  0  0  0
    1.6260    3.7830    0.1080 C   0  0  0  0  0  0  0  0  0  0  0  0
    1.3630    0.6030    1.1680 C   0  0  0  0  0  0  0  0  0  0  0  0
    0.3300    1.2450    0.7690 O   0  0  0  0  0  0  0  0  0  0  0  0
    3.8960    0.7030    3.1720 H   0  0  0  0  0  0  0  0  0  0  0  0
    2.6000   -0.4400    3.3790 H   0  0  0  0  0  0  0  0  0  0  0  0
    1.4730    1.3940    3.0850 H   0  0  0  0  0  0  0  0  0  0  0  0
    3.8230    2.3570    1.3600 H   0  0  0  0  0  0  0  0  0  0  0  0
    3.2700    2.8340    2.9540 H   0  0  0  0  0  0  0  0  0  0  0  0
    1.5070    4.6010    3.2400 H   0  0  0  0  0  0  0  0  0  0  0  0
    0.0910    6.1290    1.6420 H   0  0  0  0  0  0  0  0  0  0  0  0
   -0.3880    6.1830   -1.1650 H   0  0  0  0  0  0  0  0  0  0  0  0
    0.1670    5.0440   -3.2880 H   0  0  0  0  0  0  0  0  0  0  0  0
    1.6730    3.0800   -3.2190 H   0  0  0  0  0  0  0  0  0  0  0  0
    2.5820    2.3080   -1.0320 H   0  0  0  0  0  0  0  0  0  0  0  0
    2.7400   -2.2760   -1.5940 C   0  0  0  0  0  0  0  0  0  0  0  0
    1.5690   -1.3620   -1.7680 C   0  0  0  0  0  0  0  0  0  0  0  0
    0.7430   -1.6340   -2.9970 C   0  0  0  0  0  0  0  0  0  0  0  0
    0.7300   -1.1940   -0.5200 C   0  0  2  0  0  0  0  0  0  0  0  0
    1.5860   -0.6260    0.5370 N   0  0  0  0  0  0  0  0  0  0  0  0
    0.2220   -2.4640    0.0370 C   0  0  0  0  0  0  0  0  0  0  0  0
    0.5710   -2.8870    1.2000 O   0  0  0  0  0  0  0  0  0  0  0  0
    2.8960   -2.8480   -2.5420 H   0  0  0  0  0  0  0  0  0  0  0  0
    2.5940   -2.9590   -0.7290 H   0  0  0  0  0  0  0  0  0  0  0  0
    3.6910   -1.7400   -1.3960 H   0  0  0  0  0  0  0  0  0  0  0  0
    2.0230   -0.3310   -1.9440 H   0  0  0  0  0  0  0  0  0  0  0  0
    0.6580   -2.7220   -3.2390 H   0  0  0  0  0  0  0  0  0  0  0  0
   -0.2450   -1.1900   -2.8730 H   0  0  0  0  0  0  0  0  0  0  0  0
    1.2730   -1.1700   -3.8740 H   0  0  0  0  0  0  0  0  0  0  0  0
   -0.0780   -0.4770   -0.7590 H   0  0  0  0  0  0  0  0  0  0  0  0
    2.4050   -1.2000    0.8130 H   0  0  0  0  0  0  0  0  0  0  0  0
   -0.6850   -3.3200   -0.6460 N   0  0  0  0  0  0  0  0  0  0  0  0
   -1.1490   -4.5660   -0.0280 C   0  0  1  0  0  0  0  0  0  0  0  0
   -2.6490   -4.5450    0.0100 C   0  0  0  0  0  0  0  0  0  0  0  0
   -3.2000   -3.4230    0.7740 C   0  0  0  0  0  0  0  0  0  0  0  0
   -3.7490   -2.2940    0.2050 C   0  0  0  0  0  0  0  0  0  0  0  0
   -4.1420   -1.4880    1.2030 N   0  0  0  0  0  0  0  0  0  0  0  0
   -3.8510   -2.0900    2.3900 C   0  0  0  0  0  0  0  0  0  0  0  0
   -4.0330   -1.7210    3.7060 C   0  0  0  0  0  0  0  0  0  0  0  0
   -3.6360   -2.5410    4.7450 C   0  0  0  0  0  0  0  0  0  0  0  0
   -3.0450   -3.7570    4.4690 C   0  0  0  0  0  0  0  0  0  0  0  0
   -2.8470   -4.1580    3.1810 C   0  0  0  0  0  0  0  0  0  0  0  0
   -3.2540   -3.3170    2.1530 C   0  0  0  0  0  0  0  0  0  0  0  0
   -0.6990   -5.7030   -0.8680 C   0  0  0  0  0  0  0  0  0  0  0  0
   -0.0350   -5.5260   -1.9170 O   0  0  0  0  0  0  0  0  0  0  0  0
   -0.9940   -7.0150   -0.5300 O   0  0  0  0  0  0  0  0  0  0  0  0
   -1.0160   -3.0410   -1.5960 H   0  0  0  0  0  0  0  0  0  0  0  0
   -0.7300   -4.6780    0.9890 H   0  0  0  0  0  0  0  0  0  0  0  0
   -3.0190   -5.5120    0.4540 H   0  0  0  0  0  0  0  0  0  0  0  0
   -3.0140   -4.5310   -1.0410 H   0  0  0  0  0  0  0  0  0  0  0  0
   -3.8670   -2.0470   -0.8460 H   0  0  0  0  0  0  0  0  0  0  0  0
   -4.5990   -0.5480    1.1490 H   0  0  0  0  0  0  0  0  0  0  0  0
   -4.5030   -0.7550    3.9070 H   0  0  0  0  0  0  0  0  0  0  0  0
   -3.7910   -2.2290    5.7720 H   0  0  0  0  0  0  0  0  0  0  0  0
   -2.7170   -4.4360    5.2560 H   0  0  0  0  0  0  0  0  0  0  0  0
   -2.3880   -5.1030    2.8970 H   0  0  0  0  0  0  0  0  0  0  0  0
  1 15  1  0  0  0  0
  1 16  1  0  0  0  0
  2  1  1  0  0  0  0
  2 17  1  1  0  0  0
  3  2  1  0  0  0  0
  3 19  1  0  0  0  0
  4  3  1  0  0  0  0
  4  5  2  0  0  0  0
  5 20  1  0  0  0  0
  6 21  1  0  0  0  0
  6  5  1  0  0  0  0
  7 12  1  0  0  0  0
  7  6  1  0  0  0  0
  8  7  2  0  0  0  0
  9 10  2  0  0  0  0
  9  8  1  0  0  0  0
 10 11  1  0  0  0  0
 11 25  1  0  0  0  0
 11 12  2  0  0  0  0
 12  4  1  0  0  0  0
 13  2  1  0  0  0  0
 14 13  2  0  0  0  0
 18  3  1  0  0  0  0
 22  8  1  0  0  0  0
 23  9  1  0  0  0  0
 24 10  1  0  0  0  0
 26 35  1  0  0  0  0
 26 34  1  0  0  0  0
 27 26  1  0  0  0  0
 27 29  1  0  0  0  0
 28 38  1  0  0  0  0
 28 27  1  0  0  0  0
 29 40  1  6  0  0  0
 29 31  1  0  0  0  0
 29 30  1  0  0  0  0
 30 41  1  0  0  0  0
 30 13  1  0  0  0  0
 31 32  2  0  0  0  0
 33 26  1  0  0  0  0
 36 27  1  0  0  0  0
 37 28  1  0  0  0  0
 39 28  1  0  0  0  0
 42 43  1  0  0  0  0
 42 31  1  0  0  0  0
 43 44  1  0  0  0  0
 43 58  1  1  0  0  0
 44 59  1  0  0  0  0
 44 45  1  0  0  0  0
 45 53  1  0  0  0  0
 46 45  2  0  0  0  0
 46 47  1  0  0  0  0
 47 48  1  0  0  0  0
 48 49  1  0  0  0  0
 49 63  1  0  0  0  0
 49 50  2  0  0  0  0
 50 64  1  0  0  0  0
 51 50  1  0  0  0  0
 51 65  1  0  0  0  0
 52 51  2  0  0  0  0
 53 48  2  0  0  0  0
 53 52  1  0  0  0  0
 54 56  1  0  0  0  0
 54 43  1  0  0  0  0
 55 54  2  0  0  0  0
 57 42  1  0  0  0  0
 60 44  1  0  0  0  0
 61 46  1  0  0  0  0
 62 47  1  0  0  0  0
 66 52  1  0  0  0  0
M  END
$$$$
