WVY.pdb
 OpenBabel07022419193D

 63 65  0  0  1  0  0  0  0  0999 V2000
    2.0310    0.8550   -0.0740 N   0  0  0  0  0  0  0  0  0  0  0  0
    1.8540    0.0850    1.1060 C   0  0  1  0  0  0  0  0  0  0  0  0
    2.5180    0.6630    2.3080 C   0  0  0  0  0  0  0  0  0  0  0  0
    3.9870    0.8240    2.1980 C   0  0  0  0  0  0  0  0  0  0  0  0
    4.9520   -0.0700    2.6990 C   0  0  0  0  0  0  0  0  0  0  0  0
    6.1790    0.3700    2.3990 N   0  0  0  0  0  0  0  0  0  0  0  0
    6.0850    1.5200    1.7190 C   0  0  0  0  0  0  0  0  0  0  0  0
    7.0300    2.3930    1.1780 C   0  0  0  0  0  0  0  0  0  0  0  0
    6.5770    3.5210    0.5320 C   0  0  0  0  0  0  0  0  0  0  0  0
    5.2360    3.8050    0.4060 C   0  0  0  0  0  0  0  0  0  0  0  0
    4.3130    2.9540    0.9330 C   0  0  0  0  0  0  0  0  0  0  0  0
    4.7240    1.8140    1.5870 C   0  0  0  0  0  0  0  0  0  0  0  0
    0.3810   -0.1030    1.3620 C   0  0  0  0  0  0  0  0  0  0  0  0
   -0.4380    0.4220    0.5990 O   0  0  0  0  0  0  0  0  0  0  0  0
    2.9820    0.8070   -0.4360 H   0  0  0  0  0  0  0  0  0  0  0  0
    1.5740    1.7600   -0.0700 H   0  0  0  0  0  0  0  0  0  0  0  0
    2.2450   -0.9510    0.8710 H   0  0  0  0  0  0  0  0  0  0  0  0
    2.0280    1.6100    2.6520 H   0  0  0  0  0  0  0  0  0  0  0  0
    2.3420   -0.0450    3.1700 H   0  0  0  0  0  0  0  0  0  0  0  0
    4.6900   -0.9710    3.2430 H   0  0  0  0  0  0  0  0  0  0  0  0
    7.0830   -0.1130    2.6580 H   0  0  0  0  0  0  0  0  0  0  0  0
    8.0700    2.1800    1.2720 H   0  0  0  0  0  0  0  0  0  0  0  0
    7.3060    4.2100    0.1060 H   0  0  0  0  0  0  0  0  0  0  0  0
    4.8760    4.6900   -0.1000 H   0  0  0  0  0  0  0  0  0  0  0  0
    3.2590    3.1500    0.8600 H   0  0  0  0  0  0  0  0  0  0  0  0
   -3.4910   -0.2640    3.9200 C   0  0  0  0  0  0  0  0  0  0  0  0
   -2.0440   -0.0180    3.5490 C   0  0  0  0  0  0  0  0  0  0  0  0
   -1.9640    1.3390    2.9460 C   0  0  0  0  0  0  0  0  0  0  0  0
   -1.4200   -1.1320    2.8140 C   0  0  2  0  0  0  0  0  0  0  0  0
   -0.0640   -0.8810    2.4770 N   0  0  0  0  0  0  0  0  0  0  0  0
   -2.2550   -1.7240    1.7430 C   0  0  0  0  0  0  0  0  0  0  0  0
   -3.4900   -1.8040    1.9750 O   0  0  0  0  0  0  0  0  0  0  0  0
   -3.7100    0.4020    4.8040 H   0  0  0  0  0  0  0  0  0  0  0  0
   -3.6900   -1.2850    4.2470 H   0  0  0  0  0  0  0  0  0  0  0  0
   -4.1820    0.1060    3.1250 H   0  0  0  0  0  0  0  0  0  0  0  0
   -1.5030    0.0570    4.5420 H   0  0  0  0  0  0  0  0  0  0  0  0
   -2.5290    2.0190    3.6580 H   0  0  0  0  0  0  0  0  0  0  0  0
   -0.9560    1.7800    2.9100 H   0  0  0  0  0  0  0  0  0  0  0  0
   -2.5470    1.4470    1.9990 H   0  0  0  0  0  0  0  0  0  0  0  0
   -1.3700   -1.9970    3.5800 H   0  0  0  0  0  0  0  0  0  0  0  0
    0.7400   -1.2740    3.0580 H   0  0  0  0  0  0  0  0  0  0  0  0
   -5.6740   -3.9140   -6.1050 O   0  0  0  0  0  0  0  0  0  0  0  0
   -4.9120   -3.4550   -5.0630 C   0  0  0  0  0  0  0  0  0  0  0  0
   -3.6280   -3.9270   -4.8530 C   0  0  0  0  0  0  0  0  0  0  0  0
   -2.8460   -3.4700   -3.8020 C   0  0  0  0  0  0  0  0  0  0  0  0
   -3.3240   -2.5230   -2.9210 C   0  0  0  0  0  0  0  0  0  0  0  0
   -2.5040   -2.0530   -1.8140 C   0  0  0  0  0  0  0  0  0  0  0  0
   -2.6770   -2.7700   -0.5110 C   0  0  2  0  0  0  0  0  0  0  0  0
   -1.7900   -2.1980    0.5120 N   0  0  0  0  0  0  0  0  0  0  0  0
   -2.3030   -4.1820   -0.6690 C   0  0  0  0  0  0  0  0  0  0  0  0
   -2.9430   -4.9130   -1.4580 O   0  0  0  0  0  0  0  0  0  0  0  0
   -4.6120   -2.0690   -3.1560 C   0  0  0  0  0  0  0  0  0  0  0  0
   -5.4010   -2.5110   -4.1950 C   0  0  0  0  0  0  0  0  0  0  0  0
   -1.2530   -4.7220    0.0370 O   0  0  0  0  0  0  0  0  0  0  0  0
   -6.4140   -3.3740   -6.5540 H   0  0  0  0  0  0  0  0  0  0  0  0
   -3.2240   -4.6760   -5.5310 H   0  0  0  0  0  0  0  0  0  0  0  0
   -1.8530   -3.8920   -3.7230 H   0  0  0  0  0  0  0  0  0  0  0  0
   -2.6560   -0.9520   -1.6190 H   0  0  0  0  0  0  0  0  0  0  0  0
   -1.4310   -2.1190   -2.1390 H   0  0  0  0  0  0  0  0  0  0  0  0
   -3.7300   -2.7610   -0.1560 H   0  0  0  0  0  0  0  0  0  0  0  0
   -0.7820   -2.1860    0.2560 H   0  0  0  0  0  0  0  0  0  0  0  0
   -5.0000   -1.3310   -2.4800 H   0  0  0  0  0  0  0  0  0  0  0  0
   -6.3910   -2.1170   -4.3190 H   0  0  0  0  0  0  0  0  0  0  0  0
  1 16  1  0  0  0  0
  1  2  1  0  0  0  0
  2 17  1  6  0  0  0
  2 13  1  0  0  0  0
  2  3  1  0  0  0  0
  3 18  1  0  0  0  0
  3 19  1  0  0  0  0
  4  3  1  0  0  0  0
  4  5  2  0  0  0  0
  5 20  1  0  0  0  0
  6 21  1  0  0  0  0
  6  5  1  0  0  0  0
  7  6  1  0  0  0  0
  8 22  1  0  0  0  0
  8  7  2  0  0  0  0
  9  8  1  0  0  0  0
 10  9  2  0  0  0  0
 10 11  1  0  0  0  0
 11 12  2  0  0  0  0
 12  7  1  0  0  0  0
 12  4  1  0  0  0  0
 13 30  1  0  0  0  0
 14 13  2  0  0  0  0
 15  1  1  0  0  0  0
 23  9  1  0  0  0  0
 24 10  1  0  0  0  0
 25 11  1  0  0  0  0
 26 34  1  0  0  0  0
 26 33  1  0  0  0  0
 27 26  1  0  0  0  0
 27 36  1  0  0  0  0
 28 27  1  0  0  0  0
 28 37  1  0  0  0  0
 29 27  1  0  0  0  0
 29 40  1  1  0  0  0
 30 29  1  0  0  0  0
 30 41  1  0  0  0  0
 31 32  2  0  0  0  0
 31 29  1  0  0  0  0
 35 26  1  0  0  0  0
 38 28  1  0  0  0  0
 39 28  1  0  0  0  0
 42 43  1  0  0  0  0
 43 44  2  0  0  0  0
 43 53  1  0  0  0  0
 44 45  1  0  0  0  0
 45 57  1  0  0  0  0
 45 46  2  0  0  0  0
 46 47  1  0  0  0  0
 47 58  1  0  0  0  0
 47 48  1  0  0  0  0
 48 60  1  1  0  0  0
 48 49  1  0  0  0  0
 49 31  1  0  0  0  0
 50 48  1  0  0  0  0
 50 54  1  0  0  0  0
 51 50  2  0  0  0  0
 52 46  1  0  0  0  0
 52 62  1  0  0  0  0
 53 52  2  0  0  0  0
 55 42  1  0  0  0  0
 56 44  1  0  0  0  0
 59 47  1  0  0  0  0
 61 49  1  0  0  0  0
 63 53  1  0  0  0  0
M  END
$$$$
