WWA.pdb
 OpenBabel07022419193D

 60 63  0  0  1  0  0  0  0  0999 V2000
    0.4000    0.9090    3.7460 N   0  0  0  0  0  0  0  0  0  0  0  0
    0.7010    1.7360    2.5870 C   0  0  1  0  0  0  0  0  0  0  0  0
    2.1260    2.1450    2.7340 C   0  0  0  0  0  0  0  0  0  0  0  0
    3.1130    1.0730    2.7900 C   0  0  0  0  0  0  0  0  0  0  0  0
    3.5780    0.4980    3.9950 C   0  0  0  0  0  0  0  0  0  0  0  0
    4.4400   -0.4640    3.7270 N   0  0  0  0  0  0  0  0  0  0  0  0
    4.5820   -0.5590    2.3670 C   0  0  0  0  0  0  0  0  0  0  0  0
    5.3930   -1.4310    1.6500 C   0  0  0  0  0  0  0  0  0  0  0  0
    5.3550   -1.3150    0.2590 C   0  0  0  0  0  0  0  0  0  0  0  0
    4.5470   -0.3720   -0.3290 C   0  0  0  0  0  0  0  0  0  0  0  0
    3.7570    0.4730    0.4020 C   0  0  0  0  0  0  0  0  0  0  0  0
    3.7650    0.3850    1.8050 C   0  0  0  0  0  0  0  0  0  0  0  0
    0.4420    0.9320    1.3780 C   0  0  0  0  0  0  0  0  0  0  0  0
    0.7010    1.4580    0.2820 O   0  0  0  0  0  0  0  0  0  0  0  0
    0.9950    0.0600    3.7130 H   0  0  0  0  0  0  0  0  0  0  0  0
   -0.5850    0.6110    3.8180 H   0  0  0  0  0  0  0  0  0  0  0  0
    0.0160    2.6440    2.6090 H   0  0  0  0  0  0  0  0  0  0  0  0
    2.3340    2.8750    1.9040 H   0  0  0  0  0  0  0  0  0  0  0  0
    2.2450    2.7410    3.7110 H   0  0  0  0  0  0  0  0  0  0  0  0
    3.2720    0.7890    5.0190 H   0  0  0  0  0  0  0  0  0  0  0  0
    4.9420   -1.0670    4.4470 H   0  0  0  0  0  0  0  0  0  0  0  0
    6.0010   -2.1370    2.1460 H   0  0  0  0  0  0  0  0  0  0  0  0
    5.9910   -1.9950   -0.3010 H   0  0  0  0  0  0  0  0  0  0  0  0
    4.5480   -0.3220   -1.4110 H   0  0  0  0  0  0  0  0  0  0  0  0
    3.1460    1.2310   -0.0430 H   0  0  0  0  0  0  0  0  0  0  0  0
   -0.0700   -0.3630    1.3880 N   0  0  0  0  0  0  0  0  0  0  0  0
   -0.3240   -1.2920    0.3560 C   0  0  1  0  0  0  0  0  0  0  0  0
   -1.1990   -2.4290    0.7880 C   0  0  0  0  0  0  0  0  0  0  0  0
   -2.5090   -2.0500    1.3410 C   0  0  0  0  0  0  0  0  0  0  0  0
   -2.8720   -2.0000    2.6860 C   0  0  0  0  0  0  0  0  0  0  0  0
   -4.1330   -1.6050    2.7990 N   0  0  0  0  0  0  0  0  0  0  0  0
   -4.6420   -1.3790    1.5530 C   0  0  0  0  0  0  0  0  0  0  0  0
   -5.8930   -0.9710    1.1300 C   0  0  0  0  0  0  0  0  0  0  0  0
   -6.1420   -0.8380   -0.2690 C   0  0  0  0  0  0  0  0  0  0  0  0
   -5.1500   -1.1140   -1.1640 C   0  0  0  0  0  0  0  0  0  0  0  0
   -3.9450   -1.5100   -0.6690 C   0  0  0  0  0  0  0  0  0  0  0  0
   -3.6270   -1.6600    0.6680 C   0  0  0  0  0  0  0  0  0  0  0  0
   -0.5870   -0.7850   -1.0080 C   0  0  0  0  0  0  0  0  0  0  0  0
   -0.8770    0.3280   -1.3250 O   0  0  0  0  0  0  0  0  0  0  0  0
   -0.3230   -0.7290    2.3750 H   0  0  0  0  0  0  0  0  0  0  0  0
    0.7140   -1.7700    0.1850 H   0  0  0  0  0  0  0  0  0  0  0  0
   -0.6630   -3.1260    1.4520 H   0  0  0  0  0  0  0  0  0  0  0  0
   -1.4220   -3.0190   -0.1490 H   0  0  0  0  0  0  0  0  0  0  0  0
   -2.2130   -2.2510    3.4720 H   0  0  0  0  0  0  0  0  0  0  0  0
   -4.7110   -1.4650    3.6520 H   0  0  0  0  0  0  0  0  0  0  0  0
   -6.6990   -0.7300    1.7570 H   0  0  0  0  0  0  0  0  0  0  0  0
   -7.1260   -0.5220   -0.6280 H   0  0  0  0  0  0  0  0  0  0  0  0
   -5.2700   -1.0150   -2.2450 H   0  0  0  0  0  0  0  0  0  0  0  0
   -3.1280   -1.7410   -1.3780 H   0  0  0  0  0  0  0  0  0  0  0  0
    0.6560   -1.7240   -4.2530 C   0  0  0  0  0  0  0  0  0  0  0  0
   -0.6130   -1.4380   -3.4690 C   0  0  2  0  0  0  0  0  0  0  0  0
   -0.4470   -1.7740   -2.0920 N   0  0  0  0  0  0  0  0  0  0  0  0
   -1.6660   -2.2620   -4.1260 C   0  0  0  0  0  0  0  0  0  0  0  0
   -1.8720   -2.1430   -5.3780 O   0  0  0  0  0  0  0  0  0  0  0  0
   -2.4360   -3.1600   -3.4400 O   0  0  0  0  0  0  0  0  0  0  0  0
    0.7810   -0.9350   -4.9820 H   0  0  0  0  0  0  0  0  0  0  0  0
    1.5310   -1.8850   -3.6300 H   0  0  0  0  0  0  0  0  0  0  0  0
    0.4660   -2.6530   -4.8340 H   0  0  0  0  0  0  0  0  0  0  0  0
   -0.8570   -0.3960   -3.5960 H   0  0  0  0  0  0  0  0  0  0  0  0
   -0.2190   -2.7250   -1.7580 H   0  0  0  0  0  0  0  0  0  0  0  0
  1 16  1  0  0  0  0
  2 17  1  1  0  0  0
  2  3  1  0  0  0  0
  2  1  1  0  0  0  0
  3  4  1  0  0  0  0
  3 19  1  0  0  0  0
  4  5  2  0  0  0  0
  5 20  1  0  0  0  0
  6  5  1  0  0  0  0
  6 21  1  0  0  0  0
  7  6  1  0  0  0  0
  8 22  1  0  0  0  0
  8  7  2  0  0  0  0
  9  8  1  0  0  0  0
 10  9  2  0  0  0  0
 10 11  1  0  0  0  0
 11 12  2  0  0  0  0
 12  7  1  0  0  0  0
 12  4  1  0  0  0  0
 13 26  1  0  0  0  0
 13  2  1  0  0  0  0
 14 13  2  0  0  0  0
 15  1  1  0  0  0  0
 18  3  1  0  0  0  0
 23  9  1  0  0  0  0
 24 10  1  0  0  0  0
 25 11  1  0  0  0  0
 26 40  1  0  0  0  0
 27 41  1  6  0  0  0
 27 28  1  0  0  0  0
 27 26  1  0  0  0  0
 28 29  1  0  0  0  0
 28 42  1  0  0  0  0
 29 30  2  0  0  0  0
 30 31  1  0  0  0  0
 30 44  1  0  0  0  0
 31 45  1  0  0  0  0
 32 31  1  0  0  0  0
 33 32  1  0  0  0  0
 33 46  1  0  0  0  0
 34 33  2  0  0  0  0
 35 36  2  0  0  0  0
 35 34  1  0  0  0  0
 36 37  1  0  0  0  0
 37 29  1  0  0  0  0
 37 32  2  0  0  0  0
 38 27  1  0  0  0  0
 39 38  2  0  0  0  0
 43 28  1  0  0  0  0
 47 34  1  0  0  0  0
 48 35  1  0  0  0  0
 49 36  1  0  0  0  0
 50 57  1  0  0  0  0
 50 51  1  0  0  0  0
 51 59  1  6  0  0  0
 51 52  1  0  0  0  0
 52 60  1  0  0  0  0
 52 38  1  0  0  0  0
 53 51  1  0  0  0  0
 53 55  1  0  0  0  0
 54 53  2  0  0  0  0
 56 50  1  0  0  0  0
 58 50  1  0  0  0  0
M  END
$$$$
