WWD.pdb
 OpenBabel07022419193D

 63 66  0  0  1  0  0  0  0  0999 V2000
    3.7170   -0.4100    2.0220 N   0  0  0  0  0  0  0  0  0  0  0  0
    2.5850    0.0150    2.9090 C   0  0  1  0  0  0  0  0  0  0  0  0
    2.5070    1.4940    2.8450 C   0  0  0  0  0  0  0  0  0  0  0  0
    1.4840    2.1510    3.6610 C   0  0  0  0  0  0  0  0  0  0  0  0
    1.6250    2.7260    4.9210 C   0  0  0  0  0  0  0  0  0  0  0  0
    0.4420    3.1860    5.3310 N   0  0  0  0  0  0  0  0  0  0  0  0
   -0.5040    2.9490    4.4010 C   0  0  0  0  0  0  0  0  0  0  0  0
   -1.8590    3.2250    4.3260 C   0  0  0  0  0  0  0  0  0  0  0  0
   -2.6440    2.8860    3.2330 C   0  0  0  0  0  0  0  0  0  0  0  0
   -1.9820    2.2380    2.1990 C   0  0  0  0  0  0  0  0  0  0  0  0
   -0.6360    1.9620    2.2660 C   0  0  0  0  0  0  0  0  0  0  0  0
    0.1370    2.3090    3.3660 C   0  0  0  0  0  0  0  0  0  0  0  0
    1.4600   -0.7660    2.3750 C   0  0  0  0  0  0  0  0  0  0  0  0
    0.6590   -1.3250    3.1400 O   0  0  0  0  0  0  0  0  0  0  0  0
    4.5980   -0.3930    2.5500 H   0  0  0  0  0  0  0  0  0  0  0  0
    3.6670    0.2590    1.2190 H   0  0  0  0  0  0  0  0  0  0  0  0
    2.8780   -0.2660    3.9320 H   0  0  0  0  0  0  0  0  0  0  0  0
    2.4280    1.8920    1.8050 H   0  0  0  0  0  0  0  0  0  0  0  0
    3.5210    1.8800    3.1800 H   0  0  0  0  0  0  0  0  0  0  0  0
    2.5840    2.7630    5.4270 H   0  0  0  0  0  0  0  0  0  0  0  0
    0.2380    3.6700    6.2440 H   0  0  0  0  0  0  0  0  0  0  0  0
   -2.3710    3.7270    5.1340 H   0  0  0  0  0  0  0  0  0  0  0  0
   -3.7080    3.1220    3.1990 H   0  0  0  0  0  0  0  0  0  0  0  0
   -2.5680    1.9470    1.3020 H   0  0  0  0  0  0  0  0  0  0  0  0
   -0.1160    1.4750    1.4630 H   0  0  0  0  0  0  0  0  0  0  0  0
    1.2650   -0.8980    0.9490 N   0  0  0  0  0  0  0  0  0  0  0  0
    0.2290   -1.6830    0.3870 C   0  0  1  0  0  0  0  0  0  0  0  0
   -1.1500   -1.0110    0.5570 C   0  0  0  0  0  0  0  0  0  0  0  0
   -2.1620   -1.9040   -0.0510 C   0  0  0  0  0  0  0  0  0  0  0  0
   -2.8470   -1.7240   -1.2630 C   0  0  0  0  0  0  0  0  0  0  0  0
   -3.6940   -2.7460   -1.4670 N   0  0  0  0  0  0  0  0  0  0  0  0
   -3.6070   -3.6260   -0.4270 C   0  0  0  0  0  0  0  0  0  0  0  0
   -4.2180   -4.8150   -0.1140 C   0  0  0  0  0  0  0  0  0  0  0  0
   -3.9270   -5.5120    1.0450 C   0  0  0  0  0  0  0  0  0  0  0  0
   -2.9880   -4.9800    1.9040 C   0  0  0  0  0  0  0  0  0  0  0  0
   -2.3610   -3.7790    1.5990 C   0  0  0  0  0  0  0  0  0  0  0  0
   -2.6650   -3.1070    0.4460 C   0  0  0  0  0  0  0  0  0  0  0  0
    0.3760   -1.8500   -1.0700 C   0  0  0  0  0  0  0  0  0  0  0  0
   -0.3820   -2.7750   -1.5610 O   0  0  0  0  0  0  0  0  0  0  0  0
    1.9160   -0.3960    0.2910 H   0  0  0  0  0  0  0  0  0  0  0  0
    0.1510   -2.6150    0.9410 H   0  0  0  0  0  0  0  0  0  0  0  0
   -1.3290   -0.9290    1.6350 H   0  0  0  0  0  0  0  0  0  0  0  0
   -1.2060   -0.0590   -0.0080 H   0  0  0  0  0  0  0  0  0  0  0  0
   -2.6660   -0.8540   -1.9000 H   0  0  0  0  0  0  0  0  0  0  0  0
   -4.3300   -2.8860   -2.2800 H   0  0  0  0  0  0  0  0  0  0  0  0
   -4.9620   -5.2280   -0.7880 H   0  0  0  0  0  0  0  0  0  0  0  0
   -4.4330   -6.4620    1.2700 H   0  0  0  0  0  0  0  0  0  0  0  0
   -2.7170   -5.4730    2.8270 H   0  0  0  0  0  0  0  0  0  0  0  0
   -1.6200   -3.3400    2.2650 H   0  0  0  0  0  0  0  0  0  0  0  0
    1.2250   -1.1130   -1.9020 N   0  0  0  0  0  0  0  0  0  0  0  0
    1.2400   -1.3870   -3.3530 C   0  0  1  0  0  0  0  0  0  0  0  0
    0.6950   -0.1340   -4.0240 C   0  0  0  0  0  0  0  0  0  0  0  0
    0.6240   -0.2470   -5.4710 C   0  0  0  0  0  0  0  0  0  0  0  0
    0.3180    0.8080   -6.1300 O   0  0  0  0  0  0  0  0  0  0  0  0
    2.6490   -1.6250   -3.7260 C   0  0  0  0  0  0  0  0  0  0  0  0
    3.5270   -1.5680   -2.8130 O   0  0  0  0  0  0  0  0  0  0  0  0
    0.8570   -1.3860   -6.1650 O   0  0  0  0  0  0  0  0  0  0  0  0
    3.0970   -1.9070   -4.9950 O   0  0  0  0  0  0  0  0  0  0  0  0
    1.8550   -0.3720   -1.5930 H   0  0  0  0  0  0  0  0  0  0  0  0
    0.6200   -2.2630   -3.5600 H   0  0  0  0  0  0  0  0  0  0  0  0
   -0.3230    0.0400   -3.5680 H   0  0  0  0  0  0  0  0  0  0  0  0
    1.3470    0.7120   -3.7330 H   0  0  0  0  0  0  0  0  0  0  0  0
    0.6360   -1.5050   -7.1420 H   0  0  0  0  0  0  0  0  0  0  0  0
  1 15  1  0  0  0  0
  1  2  1  0  0  0  0
  2 17  1  1  0  0  0
  3  2  1  0  0  0  0
  3 19  1  0  0  0  0
  3  4  1  0  0  0  0
  4  5  2  0  0  0  0
  5  6  1  0  0  0  0
  5 20  1  0  0  0  0
  6 21  1  0  0  0  0
  7  6  1  0  0  0  0
  8  7  1  0  0  0  0
  8 22  1  0  0  0  0
  9  8  2  0  0  0  0
 10 11  2  0  0  0  0
 10  9  1  0  0  0  0
 11 12  1  0  0  0  0
 12  4  1  0  0  0  0
 12  7  2  0  0  0  0
 13  2  1  0  0  0  0
 13 14  2  0  0  0  0
 16  1  1  0  0  0  0
 18  3  1  0  0  0  0
 23  9  1  0  0  0  0
 24 10  1  0  0  0  0
 25 11  1  0  0  0  0
 26 13  1  0  0  0  0
 27 28  1  0  0  0  0
 27 41  1  1  0  0  0
 27 26  1  0  0  0  0
 28 42  1  0  0  0  0
 29 37  1  0  0  0  0
 29 28  1  0  0  0  0
 30 29  2  0  0  0  0
 31 30  1  0  0  0  0
 31 32  1  0  0  0  0
 32 33  2  0  0  0  0
 32 37  1  0  0  0  0
 33 34  1  0  0  0  0
 34 47  1  0  0  0  0
 34 35  2  0  0  0  0
 35 48  1  0  0  0  0
 36 35  1  0  0  0  0
 36 49  1  0  0  0  0
 37 36  2  0  0  0  0
 38 27  1  0  0  0  0
 39 38  2  0  0  0  0
 40 26  1  0  0  0  0
 43 28  1  0  0  0  0
 44 30  1  0  0  0  0
 45 31  1  0  0  0  0
 46 33  1  0  0  0  0
 50 59  1  0  0  0  0
 50 38  1  0  0  0  0
 51 60  1  6  0  0  0
 51 50  1  0  0  0  0
 52 62  1  0  0  0  0
 52 61  1  0  0  0  0
 52 51  1  0  0  0  0
 53 52  1  0  0  0  0
 54 53  2  0  0  0  0
 55 51  1  0  0  0  0
 55 56  1  0  0  0  0
 57 53  1  0  0  0  0
 58 55  2  0  0  0  0
 63 57  1  0  0  0  0
M  END
$$$$
