WWE.pdb
 OpenBabel07022419193D

 66 69  0  0  1  0  0  0  0  0999 V2000
    3.6170   -2.9520    3.2430 N   0  0  0  0  0  0  0  0  0  0  0  0
    3.0990   -1.7260    2.5780 C   0  0  1  0  0  0  0  0  0  0  0  0
    4.2600   -1.2340    1.7810 C   0  0  0  0  0  0  0  0  0  0  0  0
    4.0870   -0.0470    0.9710 C   0  0  0  0  0  0  0  0  0  0  0  0
    4.4500    1.2450    1.2920 C   0  0  0  0  0  0  0  0  0  0  0  0
    4.1290    2.0790    0.3000 N   0  0  0  0  0  0  0  0  0  0  0  0
    3.5560    1.3840   -0.6900 C   0  0  0  0  0  0  0  0  0  0  0  0
    3.0540    1.7320   -1.9280 C   0  0  0  0  0  0  0  0  0  0  0  0
    2.5210    0.7830   -2.7680 C   0  0  0  0  0  0  0  0  0  0  0  0
    2.4920   -0.5270   -2.3600 C   0  0  0  0  0  0  0  0  0  0  0  0
    2.9810   -0.9160   -1.1380 C   0  0  0  0  0  0  0  0  0  0  0  0
    3.5140    0.0410   -0.3000 C   0  0  0  0  0  0  0  0  0  0  0  0
    1.9130   -2.0850    1.8310 C   0  0  0  0  0  0  0  0  0  0  0  0
    1.7840   -3.2280    1.2900 O   0  0  0  0  0  0  0  0  0  0  0  0
    4.6050   -2.7400    3.5450 H   0  0  0  0  0  0  0  0  0  0  0  0
    3.6980   -3.7210    2.5490 H   0  0  0  0  0  0  0  0  0  0  0  0
    2.8250   -1.0550    3.4180 H   0  0  0  0  0  0  0  0  0  0  0  0
    5.1180   -1.1320    2.5160 H   0  0  0  0  0  0  0  0  0  0  0  0
    4.5680   -2.1000    1.1120 H   0  0  0  0  0  0  0  0  0  0  0  0
    4.9270    1.5250    2.2240 H   0  0  0  0  0  0  0  0  0  0  0  0
    4.2950    3.0970    0.2950 H   0  0  0  0  0  0  0  0  0  0  0  0
    3.0740    2.7770   -2.2600 H   0  0  0  0  0  0  0  0  0  0  0  0
    2.1130    1.0300   -3.7600 H   0  0  0  0  0  0  0  0  0  0  0  0
    2.0770   -1.3130   -2.9980 H   0  0  0  0  0  0  0  0  0  0  0  0
    2.9560   -1.9630   -0.8340 H   0  0  0  0  0  0  0  0  0  0  0  0
    0.7860   -1.1960    1.6400 N   0  0  0  0  0  0  0  0  0  0  0  0
   -0.3640   -1.6160    0.8780 C   0  0  1  0  0  0  0  0  0  0  0  0
   -1.2970   -2.4490    1.8250 C   0  0  0  0  0  0  0  0  0  0  0  0
   -2.4690   -2.8490    1.0110 C   0  0  0  0  0  0  0  0  0  0  0  0
   -3.7450   -2.2800    1.0930 C   0  0  0  0  0  0  0  0  0  0  0  0
   -4.5440   -2.8960    0.2070 N   0  0  0  0  0  0  0  0  0  0  0  0
   -3.8760   -3.8490   -0.4650 C   0  0  0  0  0  0  0  0  0  0  0  0
   -4.2530   -4.7340   -1.4550 C   0  0  0  0  0  0  0  0  0  0  0  0
   -3.3440   -5.6270   -1.9830 C   0  0  0  0  0  0  0  0  0  0  0  0
   -2.0590   -5.5980   -1.4850 C   0  0  0  0  0  0  0  0  0  0  0  0
   -1.6820   -4.7150   -0.4970 C   0  0  0  0  0  0  0  0  0  0  0  0
   -2.5760   -3.8160    0.0420 C   0  0  0  0  0  0  0  0  0  0  0  0
   -1.1370   -0.5620    0.2450 C   0  0  0  0  0  0  0  0  0  0  0  0
   -2.0700   -0.8890   -0.5730 O   0  0  0  0  0  0  0  0  0  0  0  0
    0.8750   -0.2570    2.0880 H   0  0  0  0  0  0  0  0  0  0  0  0
   -0.0570   -2.3930    0.1580 H   0  0  0  0  0  0  0  0  0  0  0  0
   -1.5960   -1.8510    2.6860 H   0  0  0  0  0  0  0  0  0  0  0  0
   -0.7160   -3.3590    2.0580 H   0  0  0  0  0  0  0  0  0  0  0  0
   -3.9910   -1.4730    1.7780 H   0  0  0  0  0  0  0  0  0  0  0  0
   -5.5430   -2.6460    0.0840 H   0  0  0  0  0  0  0  0  0  0  0  0
   -5.2580   -4.7640   -1.8520 H   0  0  0  0  0  0  0  0  0  0  0  0
   -3.6290   -6.3350   -2.7700 H   0  0  0  0  0  0  0  0  0  0  0  0
   -1.3170   -6.2870   -1.8770 H   0  0  0  0  0  0  0  0  0  0  0  0
   -0.6680   -4.6920   -0.1020 H   0  0  0  0  0  0  0  0  0  0  0  0
   -0.9670    0.8480    0.4480 N   0  0  0  0  0  0  0  0  0  0  0  0
   -1.8160    1.7750   -0.2460 C   0  0  1  0  0  0  0  0  0  0  0  0
   -3.0240    2.2580    0.4520 C   0  0  0  0  0  0  0  0  0  0  0  0
   -2.9320    2.9850    1.7160 C   0  0  0  0  0  0  0  0  0  0  0  0
   -2.3950    2.2560    2.8680 C   0  0  0  0  0  0  0  0  0  0  0  0
   -2.1820    1.0310    2.8170 O   0  0  0  0  0  0  0  0  0  0  0  0
   -0.9840    2.8600   -0.8160 C   0  0  0  0  0  0  0  0  0  0  0  0
   -1.5540    3.7530   -1.4920 O   0  0  0  0  0  0  0  0  0  0  0  0
   -2.0930    2.8800    4.0770 O   0  0  0  0  0  0  0  0  0  0  0  0
    0.3800    2.9720   -0.6610 O   0  0  0  0  0  0  0  0  0  0  0  0
   -0.1890    1.1530    1.1010 H   0  0  0  0  0  0  0  0  0  0  0  0
   -2.2400    1.2000   -1.1410 H   0  0  0  0  0  0  0  0  0  0  0  0
   -3.6870    1.3620    0.6180 H   0  0  0  0  0  0  0  0  0  0  0  0
   -3.5840    2.9070   -0.2860 H   0  0  0  0  0  0  0  0  0  0  0  0
   -2.4830    4.0120    1.6220 H   0  0  0  0  0  0  0  0  0  0  0  0
   -4.0070    3.2380    2.0120 H   0  0  0  0  0  0  0  0  0  0  0  0
   -2.2770    2.3360    4.9220 H   0  0  0  0  0  0  0  0  0  0  0  0
  1 15  1  0  0  0  0
  2  1  1  0  0  0  0
  2 17  1  1  0  0  0
  3 18  1  0  0  0  0
  3  2  1  0  0  0  0
  4  5  2  0  0  0  0
  4  3  1  0  0  0  0
  5 20  1  0  0  0  0
  6  5  1  0  0  0  0
  7 12  1  0  0  0  0
  7  6  1  0  0  0  0
  8  7  2  0  0  0  0
  9 10  2  0  0  0  0
  9  8  1  0  0  0  0
 10 11  1  0  0  0  0
 11 25  1  0  0  0  0
 11 12  2  0  0  0  0
 12  4  1  0  0  0  0
 13  2  1  0  0  0  0
 14 13  2  0  0  0  0
 16  1  1  0  0  0  0
 19  3  1  0  0  0  0
 21  6  1  0  0  0  0
 22  8  1  0  0  0  0
 23  9  1  0  0  0  0
 24 10  1  0  0  0  0
 26 13  1  0  0  0  0
 26 40  1  0  0  0  0
 27 41  1  6  0  0  0
 27 26  1  0  0  0  0
 27 28  1  0  0  0  0
 28 43  1  0  0  0  0
 28 42  1  0  0  0  0
 29 30  2  0  0  0  0
 29 28  1  0  0  0  0
 30 44  1  0  0  0  0
 31 30  1  0  0  0  0
 32 37  1  0  0  0  0
 32 31  1  0  0  0  0
 33 32  2  0  0  0  0
 34 35  2  0  0  0  0
 34 33  1  0  0  0  0
 35 36  1  0  0  0  0
 36 49  1  0  0  0  0
 36 37  2  0  0  0  0
 37 29  1  0  0  0  0
 38 50  1  0  0  0  0
 38 27  1  0  0  0  0
 39 38  2  0  0  0  0
 45 31  1  0  0  0  0
 46 33  1  0  0  0  0
 47 34  1  0  0  0  0
 48 35  1  0  0  0  0
 50 60  1  0  0  0  0
 51 61  1  6  0  0  0
 51 50  1  0  0  0  0
 51 52  1  0  0  0  0
 52 62  1  0  0  0  0
 52 53  1  0  0  0  0
 53 65  1  0  0  0  0
 53 54  1  0  0  0  0
 54 58  1  0  0  0  0
 55 54  2  0  0  0  0
 56 59  1  0  0  0  0
 56 51  1  0  0  0  0
 57 56  2  0  0  0  0
 58 66  1  0  0  0  0
 63 52  1  0  0  0  0
 64 53  1  0  0  0  0
M  END
$$$$
