WWG.pdb
 OpenBabel07022419193D

 57 60  0  0  1  0  0  0  0  0999 V2000
    0.4580    2.1930    4.5090 N   0  0  0  0  0  0  0  0  0  0  0  0
    0.6370    1.4830    3.2250 C   0  0  1  0  0  0  0  0  0  0  0  0
    2.1090    1.3400    3.0500 C   0  0  0  0  0  0  0  0  0  0  0  0
    2.5530    0.6710    1.8160 C   0  0  0  0  0  0  0  0  0  0  0  0
    3.0500   -0.6070    1.6400 C   0  0  0  0  0  0  0  0  0  0  0  0
    3.3540   -0.7870    0.3450 N   0  0  0  0  0  0  0  0  0  0  0  0
    3.0760    0.3310   -0.3580 C   0  0  0  0  0  0  0  0  0  0  0  0
    3.2110    0.6500   -1.7130 C   0  0  0  0  0  0  0  0  0  0  0  0
    2.8390    1.9010   -2.1540 C   0  0  0  0  0  0  0  0  0  0  0  0
    2.3430    2.7960   -1.2290 C   0  0  0  0  0  0  0  0  0  0  0  0
    2.2060    2.4940    0.1050 C   0  0  0  0  0  0  0  0  0  0  0  0
    2.5790    1.2450    0.5380 C   0  0  0  0  0  0  0  0  0  0  0  0
   -0.1070    0.1970    3.2910 C   0  0  0  0  0  0  0  0  0  0  0  0
   -0.4880   -0.2650    4.4240 O   0  0  0  0  0  0  0  0  0  0  0  0
   -0.3250    2.8750    4.4470 H   0  0  0  0  0  0  0  0  0  0  0  0
    1.3300    2.5780    4.8730 H   0  0  0  0  0  0  0  0  0  0  0  0
    0.2180    2.1220    2.4560 H   0  0  0  0  0  0  0  0  0  0  0  0
    2.4520    0.6700    3.8980 H   0  0  0  0  0  0  0  0  0  0  0  0
    2.6000    2.3290    3.1980 H   0  0  0  0  0  0  0  0  0  0  0  0
    3.1560   -1.3190    2.4700 H   0  0  0  0  0  0  0  0  0  0  0  0
    3.7540   -1.6740   -0.0810 H   0  0  0  0  0  0  0  0  0  0  0  0
    3.6030   -0.0750   -2.4100 H   0  0  0  0  0  0  0  0  0  0  0  0
    2.9420    2.1620   -3.2190 H   0  0  0  0  0  0  0  0  0  0  0  0
    2.0480    3.7920   -1.5880 H   0  0  0  0  0  0  0  0  0  0  0  0
    1.8190    3.1830    0.8390 H   0  0  0  0  0  0  0  0  0  0  0  0
   -0.4520   -0.5990    2.1600 N   0  0  0  0  0  0  0  0  0  0  0  0
   -1.1920   -1.8300    2.4050 C   0  0  1  0  0  0  0  0  0  0  0  0
   -2.6780   -1.5750    2.1140 C   0  0  0  0  0  0  0  0  0  0  0  0
   -2.9250   -1.1260    0.7230 C   0  0  0  0  0  0  0  0  0  0  0  0
   -3.0080    0.2220    0.3300 C   0  0  0  0  0  0  0  0  0  0  0  0
   -3.1890    0.2720   -0.9760 N   0  0  0  0  0  0  0  0  0  0  0  0
   -3.2360   -0.9610   -1.5050 C   0  0  0  0  0  0  0  0  0  0  0  0
   -3.4160   -1.4000   -2.8050 C   0  0  0  0  0  0  0  0  0  0  0  0
   -3.4390   -2.7490   -3.0880 C   0  0  0  0  0  0  0  0  0  0  0  0
   -3.2780   -3.6050   -2.0300 C   0  0  0  0  0  0  0  0  0  0  0  0
   -3.0980   -3.1860   -0.7290 C   0  0  0  0  0  0  0  0  0  0  0  0
   -3.0710   -1.8440   -0.4340 C   0  0  0  0  0  0  0  0  0  0  0  0
   -0.7300   -2.9150    1.5690 C   0  0  0  0  0  0  0  0  0  0  0  0
   -1.0560   -4.1380    1.8310 O   0  0  0  0  0  0  0  0  0  0  0  0
   -0.1720   -0.2720    1.2100 H   0  0  0  0  0  0  0  0  0  0  0  0
   -1.1380   -2.1080    3.4900 H   0  0  0  0  0  0  0  0  0  0  0  0
   -3.0880   -0.8000    2.7860 H   0  0  0  0  0  0  0  0  0  0  0  0
   -3.2500   -2.5030    2.2930 H   0  0  0  0  0  0  0  0  0  0  0  0
   -2.9250    1.0310    1.0650 H   0  0  0  0  0  0  0  0  0  0  0  0
   -3.2790    1.1910   -1.4990 H   0  0  0  0  0  0  0  0  0  0  0  0
   -3.5340   -0.6370   -3.5650 H   0  0  0  0  0  0  0  0  0  0  0  0
   -3.5800   -3.0810   -4.1090 H   0  0  0  0  0  0  0  0  0  0  0  0
   -3.2960   -4.6790   -2.2420 H   0  0  0  0  0  0  0  0  0  0  0  0
   -2.9940   -3.8840    0.0760 H   0  0  0  0  0  0  0  0  0  0  0  0
    0.0890   -2.7390    0.4230 N   0  0  0  0  0  0  0  0  0  0  0  0
    0.5090   -3.9010   -0.3730 C   0  0  0  0  0  0  0  0  0  0  0  0
    1.3110   -3.4560   -1.5230 C   0  0  0  0  0  0  0  0  0  0  0  0
    1.8090   -4.3200   -2.3040 O   0  0  0  0  0  0  0  0  0  0  0  0
    1.5660   -2.1310   -1.8200 O   0  0  0  0  0  0  0  0  0  0  0  0
    0.4100   -1.8140    0.1160 H   0  0  0  0  0  0  0  0  0  0  0  0
   -0.3690   -4.5160   -0.6580 H   0  0  0  0  0  0  0  0  0  0  0  0
    1.1860   -4.5010    0.2980 H   0  0  0  0  0  0  0  0  0  0  0  0
  1 16  1  0  0  0  0
  2 17  1  6  0  0  0
  2 13  1  0  0  0  0
  2  1  1  0  0  0  0
  3 19  1  0  0  0  0
  3  2  1  0  0  0  0
  3 18  1  0  0  0  0
  4  3  1  0  0  0  0
  5  4  2  0  0  0  0
  5 20  1  0  0  0  0
  6  5  1  0  0  0  0
  7  6  1  0  0  0  0
  7 12  1  0  0  0  0
  8  7  2  0  0  0  0
  9  8  1  0  0  0  0
  9 10  2  0  0  0  0
 10 11  1  0  0  0  0
 11 12  2  0  0  0  0
 11 25  1  0  0  0  0
 12  4  1  0  0  0  0
 13 14  2  0  0  0  0
 15  1  1  0  0  0  0
 21  6  1  0  0  0  0
 22  8  1  0  0  0  0
 23  9  1  0  0  0  0
 24 10  1  0  0  0  0
 26 27  1  0  0  0  0
 26 13  1  0  0  0  0
 27 41  1  1  0  0  0
 28 43  1  0  0  0  0
 28 27  1  0  0  0  0
 28 42  1  0  0  0  0
 29 28  1  0  0  0  0
 30 29  2  0  0  0  0
 30 44  1  0  0  0  0
 31 30  1  0  0  0  0
 32 31  1  0  0  0  0
 32 37  1  0  0  0  0
 33 32  2  0  0  0  0
 34 33  1  0  0  0  0
 34 35  2  0  0  0  0
 35 36  1  0  0  0  0
 36 37  2  0  0  0  0
 36 49  1  0  0  0  0
 37 29  1  0  0  0  0
 38 39  2  0  0  0  0
 38 27  1  0  0  0  0
 40 26  1  0  0  0  0
 45 31  1  0  0  0  0
 46 33  1  0  0  0  0
 47 34  1  0  0  0  0
 48 35  1  0  0  0  0
 50 38  1  0  0  0  0
 51 57  1  0  0  0  0
 51 50  1  0  0  0  0
 52 51  1  0  0  0  0
 53 52  2  0  0  0  0
 54 52  1  0  0  0  0
 55 50  1  0  0  0  0
 56 51  1  0  0  0  0
M  END
$$$$
