WWH.pdb
 OpenBabel07022419193D

 67 71  0  0  1  0  0  0  0  0999 V2000
   -0.9760    2.2740    1.6380 N   0  0  0  0  0  0  0  0  0  0  0  0
    0.3240    1.6700    1.6080 C   0  0  1  0  0  0  0  0  0  0  0  0
    0.9630    1.8420    2.9700 C   0  0  0  0  0  0  0  0  0  0  0  0
    1.1090    3.2690    3.3340 C   0  0  0  0  0  0  0  0  0  0  0  0
    0.3590    3.9980    4.2160 C   0  0  0  0  0  0  0  0  0  0  0  0
    0.8430    5.2530    4.2340 N   0  0  0  0  0  0  0  0  0  0  0  0
    1.8910    5.3520    3.3820 C   0  0  0  0  0  0  0  0  0  0  0  0
    2.7240    6.4050    3.0360 C   0  0  0  0  0  0  0  0  0  0  0  0
    3.7410    6.2370    2.1200 C   0  0  0  0  0  0  0  0  0  0  0  0
    3.9060    4.9850    1.5540 C   0  0  0  0  0  0  0  0  0  0  0  0
    3.0920    3.9410    1.8870 C   0  0  0  0  0  0  0  0  0  0  0  0
    2.0640    4.1090    2.8130 C   0  0  0  0  0  0  0  0  0  0  0  0
    0.2260    0.2310    1.2620 C   0  0  0  0  0  0  0  0  0  0  0  0
    1.3170   -0.4190    1.2110 O   0  0  0  0  0  0  0  0  0  0  0  0
   -1.6730    1.8040    2.2210 H   0  0  0  0  0  0  0  0  0  0  0  0
   -0.9730    3.2980    1.6550 H   0  0  0  0  0  0  0  0  0  0  0  0
    0.9100    2.1670    0.8120 H   0  0  0  0  0  0  0  0  0  0  0  0
    0.3430    1.3720    3.7580 H   0  0  0  0  0  0  0  0  0  0  0  0
    1.9360    1.3190    2.9740 H   0  0  0  0  0  0  0  0  0  0  0  0
   -0.4920    3.6760    4.8260 H   0  0  0  0  0  0  0  0  0  0  0  0
    0.5070    6.0690    4.7960 H   0  0  0  0  0  0  0  0  0  0  0  0
    2.5710    7.3550    3.4890 H   0  0  0  0  0  0  0  0  0  0  0  0
    4.4140    7.0360    1.8230 H   0  0  0  0  0  0  0  0  0  0  0  0
    4.7030    4.8490    0.8350 H   0  0  0  0  0  0  0  0  0  0  0  0
    3.2090    2.9720    1.4580 H   0  0  0  0  0  0  0  0  0  0  0  0
   -0.9970   -0.4250    0.9960 N   0  0  0  0  0  0  0  0  0  0  0  0
   -0.9920   -1.8300    0.6660 C   0  0  1  0  0  0  0  0  0  0  0  0
   -1.7990   -2.6520    1.6260 C   0  0  0  0  0  0  0  0  0  0  0  0
   -1.7930   -4.0890    1.2920 C   0  0  0  0  0  0  0  0  0  0  0  0
   -2.8040   -4.8360    0.6990 C   0  0  0  0  0  0  0  0  0  0  0  0
   -2.3410   -6.0750    0.6010 N   0  0  0  0  0  0  0  0  0  0  0  0
   -1.0900   -6.1810    1.0940 C   0  0  0  0  0  0  0  0  0  0  0  0
   -0.2380   -7.2600    1.1950 C   0  0  0  0  0  0  0  0  0  0  0  0
    1.0050   -7.0650    1.7550 C   0  0  0  0  0  0  0  0  0  0  0  0
    1.3740   -5.7960    2.2040 C   0  0  0  0  0  0  0  0  0  0  0  0
    0.5230   -4.7180    2.1030 C   0  0  0  0  0  0  0  0  0  0  0  0
   -0.7150   -4.9280    1.5410 C   0  0  0  0  0  0  0  0  0  0  0  0
   -1.4700   -2.0590   -0.7340 C   0  0  0  0  0  0  0  0  0  0  0  0
   -1.5130   -3.2390   -1.1420 O   0  0  0  0  0  0  0  0  0  0  0  0
   -1.8960    0.1090    1.0390 H   0  0  0  0  0  0  0  0  0  0  0  0
    0.0540   -2.1860    0.6990 H   0  0  0  0  0  0  0  0  0  0  0  0
   -2.8560   -2.3020    1.5550 H   0  0  0  0  0  0  0  0  0  0  0  0
   -1.4320   -2.5430    2.6560 H   0  0  0  0  0  0  0  0  0  0  0  0
   -3.7600   -4.4000    0.4060 H   0  0  0  0  0  0  0  0  0  0  0  0
   -2.8660   -6.8900    0.1940 H   0  0  0  0  0  0  0  0  0  0  0  0
   -0.5240   -8.2440    0.8470 H   0  0  0  0  0  0  0  0  0  0  0  0
    1.6880   -7.8910    1.8460 H   0  0  0  0  0  0  0  0  0  0  0  0
    2.3590   -5.6950    2.6360 H   0  0  0  0  0  0  0  0  0  0  0  0
    0.8090   -3.7530    2.4470 H   0  0  0  0  0  0  0  0  0  0  0  0
   -1.8660   -1.0350   -1.5960 N   0  0  0  0  0  0  0  0  0  0  0  0
   -2.3060   -1.1840   -2.9260 C   0  0  1  0  0  0  0  0  0  0  0  0
   -1.7940   -2.3640   -3.7160 C   0  0  0  0  0  0  0  0  0  0  0  0
   -0.2860   -2.2880   -3.8810 C   0  0  0  0  0  0  0  0  0  0  0  0
    0.3460   -1.6410   -4.9320 C   0  0  0  0  0  0  0  0  0  0  0  0
    1.6560   -1.7720   -4.7520 N   0  0  0  0  0  0  0  0  0  0  0  0
    1.8820   -2.4760   -3.6300 C   0  0  0  0  0  0  0  0  0  0  0  0
    0.6880   -2.7760   -3.1230 N   0  0  0  0  0  0  0  0  0  0  0  0
   -3.7530   -0.9890   -3.0380 C   0  0  0  0  0  0  0  0  0  0  0  0
   -4.3960   -1.0680   -4.1170 O   0  0  0  0  0  0  0  0  0  0  0  0
   -4.4810   -0.6950   -1.8700 O   0  0  0  0  0  0  0  0  0  0  0  0
   -1.8170   -0.0500   -1.1730 H   0  0  0  0  0  0  0  0  0  0  0  0
   -1.8400   -0.3100   -3.5500 H   0  0  0  0  0  0  0  0  0  0  0  0
   -2.1880   -2.2450   -4.7460 H   0  0  0  0  0  0  0  0  0  0  0  0
   -2.1270   -3.3390   -3.3770 H   0  0  0  0  0  0  0  0  0  0  0  0
   -0.1510   -1.1340   -5.7310 H   0  0  0  0  0  0  0  0  0  0  0  0
    2.4550   -1.4130   -5.3450 H   0  0  0  0  0  0  0  0  0  0  0  0
    2.8790   -2.7350   -3.2400 H   0  0  0  0  0  0  0  0  0  0  0  0
  1 16  1  0  0  0  0
  1 15  1  0  0  0  0
  2 17  1  6  0  0  0
  2  1  1  0  0  0  0
  2  3  1  0  0  0  0
  3 19  1  0  0  0  0
  3  4  1  0  0  0  0
  3 18  1  0  0  0  0
  4  5  2  0  0  0  0
  5  6  1  0  0  0  0
  5 20  1  0  0  0  0
  6 21  1  0  0  0  0
  7  6  1  0  0  0  0
  8  7  1  0  0  0  0
  8 22  1  0  0  0  0
  9  8  2  0  0  0  0
 10 11  2  0  0  0  0
 10  9  1  0  0  0  0
 11 12  1  0  0  0  0
 12  4  1  0  0  0  0
 12  7  2  0  0  0  0
 13  2  1  0  0  0  0
 14 13  2  0  0  0  0
 23  9  1  0  0  0  0
 24 10  1  0  0  0  0
 25 11  1  0  0  0  0
 26 40  1  0  0  0  0
 26 13  1  0  0  0  0
 27 41  1  1  0  0  0
 27 26  1  0  0  0  0
 27 28  1  0  0  0  0
 28 43  1  0  0  0  0
 29 37  1  0  0  0  0
 29 28  1  0  0  0  0
 30 29  2  0  0  0  0
 31 30  1  0  0  0  0
 31 32  1  0  0  0  0
 32 33  2  0  0  0  0
 32 37  1  0  0  0  0
 33 34  1  0  0  0  0
 34 47  1  0  0  0  0
 34 35  2  0  0  0  0
 35 48  1  0  0  0  0
 36 35  1  0  0  0  0
 36 49  1  0  0  0  0
 37 36  2  0  0  0  0
 38 27  1  0  0  0  0
 39 38  2  0  0  0  0
 42 28  1  0  0  0  0
 44 30  1  0  0  0  0
 45 31  1  0  0  0  0
 46 33  1  0  0  0  0
 50 61  1  0  0  0  0
 50 38  1  0  0  0  0
 51 62  1  6  0  0  0
 51 50  1  0  0  0  0
 52 64  1  0  0  0  0
 52 51  1  0  0  0  0
 53 52  1  0  0  0  0
 53 57  1  0  0  0  0
 54 55  1  0  0  0  0
 54 53  2  0  0  0  0
 55 56  1  0  0  0  0
 56 67  1  0  0  0  0
 56 57  2  0  0  0  0
 58 51  1  0  0  0  0
 58 60  1  0  0  0  0
 59 58  2  0  0  0  0
 63 52  1  0  0  0  0
 65 54  1  0  0  0  0
 66 55  1  0  0  0  0
M  END
$$$$
