WWI.pdb
 OpenBabel07022419193D

 69 72  0  0  1  0  0  0  0  0999 V2000
    3.2090   -1.7820    4.3960 N   0  0  0  0  0  0  0  0  0  0  0  0
    2.0870   -0.9420    3.8640 C   0  0  1  0  0  0  0  0  0  0  0  0
    2.4550    0.4660    4.0200 C   0  0  0  0  0  0  0  0  0  0  0  0
    1.4890    1.4560    3.5320 C   0  0  0  0  0  0  0  0  0  0  0  0
    0.3690    1.9690    4.1990 C   0  0  0  0  0  0  0  0  0  0  0  0
   -0.2910    2.8350    3.4190 N   0  0  0  0  0  0  0  0  0  0  0  0
    0.3730    2.9100    2.2400 C   0  0  0  0  0  0  0  0  0  0  0  0
    0.1360    3.6890    1.1140 C   0  0  0  0  0  0  0  0  0  0  0  0
    1.0110    3.6090    0.0560 C   0  0  0  0  0  0  0  0  0  0  0  0
    2.0970    2.7670    0.1220 C   0  0  0  0  0  0  0  0  0  0  0  0
    2.3550    1.9770    1.2340 C   0  0  0  0  0  0  0  0  0  0  0  0
    1.4600    2.0800    2.2800 C   0  0  0  0  0  0  0  0  0  0  0  0
    1.6220   -1.5020    2.6320 C   0  0  0  0  0  0  0  0  0  0  0  0
    2.3420   -2.4120    2.0650 O   0  0  0  0  0  0  0  0  0  0  0  0
    3.5970   -1.2390    5.2110 H   0  0  0  0  0  0  0  0  0  0  0  0
    2.7470   -2.6450    4.7490 H   0  0  0  0  0  0  0  0  0  0  0  0
    1.2270   -1.1010    4.6480 H   0  0  0  0  0  0  0  0  0  0  0  0
    3.4200    0.6590    3.4470 H   0  0  0  0  0  0  0  0  0  0  0  0
    2.7120    0.6830    5.1200 H   0  0  0  0  0  0  0  0  0  0  0  0
    0.1090    1.6770    5.2040 H   0  0  0  0  0  0  0  0  0  0  0  0
   -1.1560    3.3470    3.6890 H   0  0  0  0  0  0  0  0  0  0  0  0
   -0.7370    4.3330    1.1160 H   0  0  0  0  0  0  0  0  0  0  0  0
    0.8020    4.2280   -0.8080 H   0  0  0  0  0  0  0  0  0  0  0  0
    2.7800    2.7300   -0.7390 H   0  0  0  0  0  0  0  0  0  0  0  0
    3.1890    1.3130    1.3140 H   0  0  0  0  0  0  0  0  0  0  0  0
    0.4340   -1.2180    1.9060 N   0  0  0  0  0  0  0  0  0  0  0  0
    0.0490   -1.9130    0.7130 C   0  0  1  0  0  0  0  0  0  0  0  0
   -1.0050   -2.9740    1.1160 C   0  0  0  0  0  0  0  0  0  0  0  0
   -1.4900   -3.7690   -0.0040 C   0  0  0  0  0  0  0  0  0  0  0  0
   -2.6990   -3.6790   -0.6580 C   0  0  0  0  0  0  0  0  0  0  0  0
   -2.7370   -4.6030   -1.6230 N   0  0  0  0  0  0  0  0  0  0  0  0
   -1.5870   -5.3190   -1.6410 C   0  0  0  0  0  0  0  0  0  0  0  0
   -1.1740   -6.3660   -2.4510 C   0  0  0  0  0  0  0  0  0  0  0  0
    0.0770   -6.8950   -2.2170 C   0  0  0  0  0  0  0  0  0  0  0  0
    0.8710   -6.3770   -1.2020 C   0  0  0  0  0  0  0  0  0  0  0  0
    0.4590   -5.3400   -0.4010 C   0  0  0  0  0  0  0  0  0  0  0  0
   -0.7990   -4.8080   -0.6360 C   0  0  0  0  0  0  0  0  0  0  0  0
   -0.3500   -1.1960   -0.4660 C   0  0  0  0  0  0  0  0  0  0  0  0
   -0.7740   -1.8720   -1.4870 O   0  0  0  0  0  0  0  0  0  0  0  0
   -0.1780   -0.4630    2.2770 H   0  0  0  0  0  0  0  0  0  0  0  0
    0.9330   -2.5770    0.4430 H   0  0  0  0  0  0  0  0  0  0  0  0
   -1.8490   -2.3890    1.5380 H   0  0  0  0  0  0  0  0  0  0  0  0
   -0.6410   -3.6230    1.9190 H   0  0  0  0  0  0  0  0  0  0  0  0
   -3.5280   -2.9910   -0.4680 H   0  0  0  0  0  0  0  0  0  0  0  0
   -3.5210   -4.8040   -2.3080 H   0  0  0  0  0  0  0  0  0  0  0  0
   -1.8180   -6.7440   -3.2290 H   0  0  0  0  0  0  0  0  0  0  0  0
    0.4260   -7.7130   -2.8340 H   0  0  0  0  0  0  0  0  0  0  0  0
    1.8510   -6.8110   -1.0390 H   0  0  0  0  0  0  0  0  0  0  0  0
    1.0840   -4.9520    0.3800 H   0  0  0  0  0  0  0  0  0  0  0  0
   -2.9900    0.6000    0.1900 C   0  0  0  0  0  0  0  0  0  0  0  0
   -3.1050    1.2730   -1.1360 C   0  0  0  0  0  0  0  0  0  0  0  0
   -1.8570    1.8340   -1.7230 C   0  0  2  0  0  0  0  0  0  0  0  0
   -2.2010    2.4950   -3.0600 C   0  0  0  0  0  0  0  0  0  0  0  0
   -0.7800    0.8150   -1.9140 C   0  0  2  0  0  0  0  0  0  0  0  0
   -0.3470    0.2000   -0.6920 N   0  0  0  0  0  0  0  0  0  0  0  0
    0.3290    1.2290   -2.7860 C   0  0  0  0  0  0  0  0  0  0  0  0
    0.0980    1.8390   -3.8500 O   0  0  0  0  0  0  0  0  0  0  0  0
    1.6540    0.9640   -2.4770 O   0  0  0  0  0  0  0  0  0  0  0  0
   -2.1870    0.9640    0.8460 H   0  0  0  0  0  0  0  0  0  0  0  0
   -3.9530    0.8340    0.7670 H   0  0  0  0  0  0  0  0  0  0  0  0
   -3.0350   -0.5290    0.1250 H   0  0  0  0  0  0  0  0  0  0  0  0
   -3.8750    2.0930   -1.0810 H   0  0  0  0  0  0  0  0  0  0  0  0
   -3.5850    0.5190   -1.8290 H   0  0  0  0  0  0  0  0  0  0  0  0
   -1.4770    2.6400   -1.0510 H   0  0  0  0  0  0  0  0  0  0  0  0
   -1.5520    3.3420   -3.2440 H   0  0  0  0  0  0  0  0  0  0  0  0
   -3.2340    2.8980   -2.9100 H   0  0  0  0  0  0  0  0  0  0  0  0
   -2.1940    1.7050   -3.8210 H   0  0  0  0  0  0  0  0  0  0  0  0
   -1.2970   -0.0370   -2.4870 H   0  0  0  0  0  0  0  0  0  0  0  0
   -0.0010    0.8040    0.0770 H   0  0  0  0  0  0  0  0  0  0  0  0
  1 16  1  0  0  0  0
  1 15  1  0  0  0  0
  2  3  1  0  0  0  0
  2  1  1  0  0  0  0
  2 17  1  1  0  0  0
  3 19  1  0  0  0  0
  4  3  1  0  0  0  0
  4  5  2  0  0  0  0
  5 20  1  0  0  0  0
  6 21  1  0  0  0  0
  6  5  1  0  0  0  0
  7 12  1  0  0  0  0
  7  6  1  0  0  0  0
  8 22  1  0  0  0  0
  8  7  2  0  0  0  0
  9 10  2  0  0  0  0
  9  8  1  0  0  0  0
 10 11  1  0  0  0  0
 11 25  1  0  0  0  0
 11 12  2  0  0  0  0
 12  4  1  0  0  0  0
 13  2  1  0  0  0  0
 14 13  2  0  0  0  0
 18  3  1  0  0  0  0
 23  9  1  0  0  0  0
 24 10  1  0  0  0  0
 26 40  1  0  0  0  0
 26 13  1  0  0  0  0
 27 41  1  6  0  0  0
 27 28  1  0  0  0  0
 27 26  1  0  0  0  0
 28 42  1  0  0  0  0
 28 43  1  0  0  0  0
 29 28  1  0  0  0  0
 30 44  1  0  0  0  0
 30 29  2  0  0  0  0
 31 30  1  0  0  0  0
 32 31  1  0  0  0  0
 32 37  1  0  0  0  0
 33 34  1  0  0  0  0
 33 32  2  0  0  0  0
 34 35  2  0  0  0  0
 35 48  1  0  0  0  0
 35 36  1  0  0  0  0
 36 49  1  0  0  0  0
 37 36  2  0  0  0  0
 37 29  1  0  0  0  0
 38 27  1  0  0  0  0
 39 38  2  0  0  0  0
 45 31  1  0  0  0  0
 46 33  1  0  0  0  0
 47 34  1  0  0  0  0
 50 60  1  0  0  0  0
 50 59  1  0  0  0  0
 51 62  1  0  0  0  0
 51 50  1  0  0  0  0
 52 51  1  0  0  0  0
 52 64  1  1  0  0  0
 53 66  1  0  0  0  0
 53 52  1  0  0  0  0
 54 68  1  6  0  0  0
 54 52  1  0  0  0  0
 54 55  1  0  0  0  0
 55 38  1  0  0  0  0
 55 69  1  0  0  0  0
 56 58  1  0  0  0  0
 56 54  1  0  0  0  0
 57 56  2  0  0  0  0
 61 50  1  0  0  0  0
 63 51  1  0  0  0  0
 65 53  1  0  0  0  0
 67 53  1  0  0  0  0
M  END
$$$$
