WWM.pdb
 OpenBabel07022419193D

 67 70  0  0  1  0  0  0  0  0999 V2000
    2.8510   -0.6210    4.9530 N   0  0  0  0  0  0  0  0  0  0  0  0
    1.8830    0.0940    4.0820 C   0  0  1  0  0  0  0  0  0  0  0  0
    2.5050    1.3930    3.7800 C   0  0  0  0  0  0  0  0  0  0  0  0
    1.7970    2.3300    2.9150 C   0  0  0  0  0  0  0  0  0  0  0  0
    0.8650    3.2620    3.3870 C   0  0  0  0  0  0  0  0  0  0  0  0
    0.3860    3.9210    2.3280 N   0  0  0  0  0  0  0  0  0  0  0  0
    0.9360    3.4940    1.1890 C   0  0  0  0  0  0  0  0  0  0  0  0
    0.7980    3.8810   -0.1410 C   0  0  0  0  0  0  0  0  0  0  0  0
    1.5510    3.2660   -1.1030 C   0  0  0  0  0  0  0  0  0  0  0  0
    2.4290    2.2780   -0.7380 C   0  0  0  0  0  0  0  0  0  0  0  0
    2.5810    1.8750    0.5820 C   0  0  0  0  0  0  0  0  0  0  0  0
    1.8130    2.5070    1.5380 C   0  0  0  0  0  0  0  0  0  0  0  0
    1.5580   -0.8060    2.9930 C   0  0  0  0  0  0  0  0  0  0  0  0
    2.2880   -1.8270    2.7530 O   0  0  0  0  0  0  0  0  0  0  0  0
    2.8530   -0.2310    5.9050 H   0  0  0  0  0  0  0  0  0  0  0  0
    2.7420   -1.6390    4.8720 H   0  0  0  0  0  0  0  0  0  0  0  0
    0.9700    0.3120    4.7290 H   0  0  0  0  0  0  0  0  0  0  0  0
    3.4810    1.1570    3.2250 H   0  0  0  0  0  0  0  0  0  0  0  0
    2.8970    1.8950    4.7140 H   0  0  0  0  0  0  0  0  0  0  0  0
    0.5920    3.4050    4.4400 H   0  0  0  0  0  0  0  0  0  0  0  0
   -0.3390    4.6880    2.3780 H   0  0  0  0  0  0  0  0  0  0  0  0
    0.0900    4.6640   -0.3700 H   0  0  0  0  0  0  0  0  0  0  0  0
    1.4550    3.5560   -2.1330 H   0  0  0  0  0  0  0  0  0  0  0  0
    3.0190    1.8260   -1.5230 H   0  0  0  0  0  0  0  0  0  0  0  0
    3.2740    1.0970    0.8510 H   0  0  0  0  0  0  0  0  0  0  0  0
    0.4400   -0.6980    2.1050 N   0  0  0  0  0  0  0  0  0  0  0  0
    0.1500   -1.6690    1.0900 C   0  0  1  0  0  0  0  0  0  0  0  0
   -0.8370   -2.7050    1.6910 C   0  0  0  0  0  0  0  0  0  0  0  0
   -1.2170   -3.7500    0.7500 C   0  0  0  0  0  0  0  0  0  0  0  0
   -2.4140   -3.8810    0.0840 C   0  0  0  0  0  0  0  0  0  0  0  0
   -2.3700   -4.9800   -0.6780 N   0  0  0  0  0  0  0  0  0  0  0  0
   -1.1630   -5.5810   -0.5290 C   0  0  0  0  0  0  0  0  0  0  0  0
   -0.6510   -6.7430   -1.1120 C   0  0  0  0  0  0  0  0  0  0  0  0
    0.6250   -7.1250   -0.7730 C   0  0  0  0  0  0  0  0  0  0  0  0
    1.3550   -6.3660    0.1170 C   0  0  0  0  0  0  0  0  0  0  0  0
    0.8630   -5.2210    0.6970 C   0  0  0  0  0  0  0  0  0  0  0  0
   -0.4330   -4.8240    0.3600 C   0  0  0  0  0  0  0  0  0  0  0  0
   -0.2640   -1.2500   -0.2180 C   0  0  0  0  0  0  0  0  0  0  0  0
   -0.6200   -2.1580   -1.0730 O   0  0  0  0  0  0  0  0  0  0  0  0
   -0.1810    0.1220    2.2120 H   0  0  0  0  0  0  0  0  0  0  0  0
    1.0910   -2.2990    0.9940 H   0  0  0  0  0  0  0  0  0  0  0  0
   -0.3880   -3.1850    2.5910 H   0  0  0  0  0  0  0  0  0  0  0  0
   -1.7210   -2.1350    2.0500 H   0  0  0  0  0  0  0  0  0  0  0  0
   -3.2500   -3.2110    0.1640 H   0  0  0  0  0  0  0  0  0  0  0  0
   -3.1090   -5.3580   -1.3010 H   0  0  0  0  0  0  0  0  0  0  0  0
   -1.2610   -7.3050   -1.8040 H   0  0  0  0  0  0  0  0  0  0  0  0
    1.0470   -8.0230   -1.2100 H   0  0  0  0  0  0  0  0  0  0  0  0
    2.3670   -6.6840    0.3750 H   0  0  0  0  0  0  0  0  0  0  0  0
    1.4300   -4.6340    1.3880 H   0  0  0  0  0  0  0  0  0  0  0  0
   -5.3510   -0.6420   -1.2020 C   0  0  0  0  0  0  0  0  0  0  0  0
   -3.8210   -0.2500   -2.0620 S   0  0  0  0  0  0  0  0  0  0  0  0
   -3.0350    1.2580   -1.4160 C   0  0  0  0  0  0  0  0  0  0  0  0
   -1.7590    1.4760   -2.2130 C   0  0  0  0  0  0  0  0  0  0  0  0
   -0.8120    0.3400   -2.0870 C   0  0  2  0  0  0  0  0  0  0  0  0
   -0.3510    0.0610   -0.7460 N   0  0  0  0  0  0  0  0  0  0  0  0
    0.2350    0.4200   -3.1090 C   0  0  0  0  0  0  0  0  0  0  0  0
    1.4540    0.2000   -2.9660 O   0  0  0  0  0  0  0  0  0  0  0  0
   -0.1790    0.7860   -4.4020 O   0  0  0  0  0  0  0  0  0  0  0  0
   -5.4890   -0.0050   -0.3150 H   0  0  0  0  0  0  0  0  0  0  0  0
   -6.2270   -0.6840   -1.8710 H   0  0  0  0  0  0  0  0  0  0  0  0
   -5.2560   -1.7000   -0.8120 H   0  0  0  0  0  0  0  0  0  0  0  0
   -2.8740    1.2370   -0.3370 H   0  0  0  0  0  0  0  0  0  0  0  0
   -3.7070    2.1040   -1.6590 H   0  0  0  0  0  0  0  0  0  0  0  0
   -2.0860    1.5680   -3.2770 H   0  0  0  0  0  0  0  0  0  0  0  0
   -1.3390    2.4530   -1.9120 H   0  0  0  0  0  0  0  0  0  0  0  0
   -1.3960   -0.6090   -2.3740 H   0  0  0  0  0  0  0  0  0  0  0  0
   -0.0630    0.8390   -0.1150 H   0  0  0  0  0  0  0  0  0  0  0  0
  1 15  1  0  0  0  0
  2 17  1  1  0  0  0
  2  1  1  0  0  0  0
  3  2  1  0  0  0  0
  3 19  1  0  0  0  0
  4  5  2  0  0  0  0
  4  3  1  0  0  0  0
  5 20  1  0  0  0  0
  6 21  1  0  0  0  0
  6  5  1  0  0  0  0
  7 12  1  0  0  0  0
  7  6  1  0  0  0  0
  8  7  2  0  0  0  0
  9 10  2  0  0  0  0
  9  8  1  0  0  0  0
 10 11  1  0  0  0  0
 11 25  1  0  0  0  0
 11 12  2  0  0  0  0
 12  4  1  0  0  0  0
 13  2  1  0  0  0  0
 14 13  2  0  0  0  0
 16  1  1  0  0  0  0
 18  3  1  0  0  0  0
 22  8  1  0  0  0  0
 23  9  1  0  0  0  0
 24 10  1  0  0  0  0
 26 40  1  0  0  0  0
 26 13  1  0  0  0  0
 27 41  1  6  0  0  0
 27 28  1  0  0  0  0
 27 26  1  0  0  0  0
 28 43  1  0  0  0  0
 28 42  1  0  0  0  0
 29 28  1  0  0  0  0
 30 44  1  0  0  0  0
 30 29  2  0  0  0  0
 31 32  1  0  0  0  0
 31 30  1  0  0  0  0
 32 37  1  0  0  0  0
 33 34  1  0  0  0  0
 33 32  2  0  0  0  0
 34 35  2  0  0  0  0
 35 48  1  0  0  0  0
 35 36  1  0  0  0  0
 36 49  1  0  0  0  0
 37 36  2  0  0  0  0
 37 29  1  0  0  0  0
 38 27  1  0  0  0  0
 39 38  2  0  0  0  0
 45 31  1  0  0  0  0
 46 33  1  0  0  0  0
 47 34  1  0  0  0  0
 50 61  1  0  0  0  0
 50 59  1  0  0  0  0
 51 52  1  0  0  0  0
 51 50  1  0  0  0  0
 52 62  1  0  0  0  0
 53 54  1  0  0  0  0
 53 65  1  0  0  0  0
 53 52  1  0  0  0  0
 54 66  1  6  0  0  0
 54 55  1  0  0  0  0
 55 38  1  0  0  0  0
 55 67  1  0  0  0  0
 56 57  1  0  0  0  0
 56 54  1  0  0  0  0
 58 56  2  0  0  0  0
 60 50  1  0  0  0  0
 63 52  1  0  0  0  0
 64 53  1  0  0  0  0
M  END
$$$$
