WWN.pdb
 OpenBabel07022419193D

 64 67  0  0  1  0  0  0  0  0999 V2000
    4.4780   -3.1860    1.2770 N   0  0  0  0  0  0  0  0  0  0  0  0
    3.8020   -1.9080    1.5810 C   0  0  1  0  0  0  0  0  0  0  0  0
    4.6590   -0.8510    0.9880 C   0  0  0  0  0  0  0  0  0  0  0  0
    4.1760    0.5330    1.1290 C   0  0  0  0  0  0  0  0  0  0  0  0
    4.4500    1.4430    2.1270 C   0  0  0  0  0  0  0  0  0  0  0  0
    3.7800    2.5840    1.8820 N   0  0  0  0  0  0  0  0  0  0  0  0
    3.0560    2.4860    0.7500 C   0  0  0  0  0  0  0  0  0  0  0  0
    2.2330    3.3670    0.0560 C   0  0  0  0  0  0  0  0  0  0  0  0
    1.6570    2.9480   -1.1220 C   0  0  0  0  0  0  0  0  0  0  0  0
    1.9080    1.6570   -1.5940 C   0  0  0  0  0  0  0  0  0  0  0  0
    2.7210    0.7960   -0.9000 C   0  0  0  0  0  0  0  0  0  0  0  0
    3.2980    1.2030    0.2710 C   0  0  0  0  0  0  0  0  0  0  0  0
    2.4250   -1.9470    1.1570 C   0  0  0  0  0  0  0  0  0  0  0  0
    2.0690   -2.8410    0.3120 O   0  0  0  0  0  0  0  0  0  0  0  0
    5.1680   -3.4030    2.0230 H   0  0  0  0  0  0  0  0  0  0  0  0
    3.7900   -3.9390    1.0900 H   0  0  0  0  0  0  0  0  0  0  0  0
    3.9070   -1.7900    2.7050 H   0  0  0  0  0  0  0  0  0  0  0  0
    4.7850   -1.0850   -0.1100 H   0  0  0  0  0  0  0  0  0  0  0  0
    5.7050   -0.9050    1.3920 H   0  0  0  0  0  0  0  0  0  0  0  0
    5.1090    1.2470    2.9710 H   0  0  0  0  0  0  0  0  0  0  0  0
    3.8140    3.4330    2.4870 H   0  0  0  0  0  0  0  0  0  0  0  0
    2.0680    4.3560    0.4630 H   0  0  0  0  0  0  0  0  0  0  0  0
    1.0210    3.6420   -1.6490 H   0  0  0  0  0  0  0  0  0  0  0  0
    1.4370    1.3970   -2.5260 H   0  0  0  0  0  0  0  0  0  0  0  0
    2.8940   -0.1850   -1.2820 H   0  0  0  0  0  0  0  0  0  0  0  0
    1.3930   -1.0840    1.5980 N   0  0  0  0  0  0  0  0  0  0  0  0
    0.0120   -1.2750    1.1020 C   0  0  1  0  0  0  0  0  0  0  0  0
   -0.7110   -2.1300    2.1500 C   0  0  0  0  0  0  0  0  0  0  0  0
   -2.1000   -2.4560    1.8560 C   0  0  0  0  0  0  0  0  0  0  0  0
   -3.2760   -1.9790    2.4480 C   0  0  0  0  0  0  0  0  0  0  0  0
   -4.3260   -2.5860    1.8780 N   0  0  0  0  0  0  0  0  0  0  0  0
   -3.9140   -3.4470    0.9330 C   0  0  0  0  0  0  0  0  0  0  0  0
   -4.5480   -4.3060    0.0670 C   0  0  0  0  0  0  0  0  0  0  0  0
   -3.8670   -5.1090   -0.8330 C   0  0  0  0  0  0  0  0  0  0  0  0
   -2.5030   -5.0350   -0.8510 C   0  0  0  0  0  0  0  0  0  0  0  0
   -1.8600   -4.1680    0.0220 C   0  0  0  0  0  0  0  0  0  0  0  0
   -2.5440   -3.3740    0.9130 C   0  0  0  0  0  0  0  0  0  0  0  0
   -0.6250   -0.0170    0.7780 C   0  0  0  0  0  0  0  0  0  0  0  0
    0.0640    1.0500    0.9730 O   0  0  0  0  0  0  0  0  0  0  0  0
    1.6100   -0.3200    2.2680 H   0  0  0  0  0  0  0  0  0  0  0  0
    0.0580   -1.9310    0.2130 H   0  0  0  0  0  0  0  0  0  0  0  0
   -0.1280   -3.0960    2.2400 H   0  0  0  0  0  0  0  0  0  0  0  0
   -0.5810   -1.6720    3.1670 H   0  0  0  0  0  0  0  0  0  0  0  0
   -3.2970   -1.2570    3.2270 H   0  0  0  0  0  0  0  0  0  0  0  0
   -5.3550   -2.4520    2.0930 H   0  0  0  0  0  0  0  0  0  0  0  0
   -5.6310   -4.4080    0.0360 H   0  0  0  0  0  0  0  0  0  0  0  0
   -4.3720   -5.7870   -1.5170 H   0  0  0  0  0  0  0  0  0  0  0  0
   -1.9130   -5.6400   -1.5350 H   0  0  0  0  0  0  0  0  0  0  0  0
   -0.7820   -4.1420   -0.0230 H   0  0  0  0  0  0  0  0  0  0  0  0
   -2.8160    1.1760   -3.7390 N   0  0  0  0  0  0  0  0  0  0  0  0
   -2.3250    1.1600   -2.4220 C   0  0  0  0  0  0  0  0  0  0  0  0
   -1.1630    0.7960   -2.1950 O   0  0  0  0  0  0  0  0  0  0  0  0
   -3.2130    1.5820   -1.3160 C   0  0  0  0  0  0  0  0  0  0  0  0
   -2.4390    1.5300   -0.0280 C   0  0  2  0  0  0  0  0  0  0  0  0
   -1.9270    0.2040    0.2640 N   0  0  0  0  0  0  0  0  0  0  0  0
   -3.2650    2.0450    1.1080 C   0  0  0  0  0  0  0  0  0  0  0  0
   -3.8220    3.1630    1.0800 O   0  0  0  0  0  0  0  0  0  0  0  0
   -3.4120    1.2560    2.2230 O   0  0  0  0  0  0  0  0  0  0  0  0
   -3.8220    1.1150   -3.9190 H   0  0  0  0  0  0  0  0  0  0  0  0
   -2.1460    1.2500   -4.5310 H   0  0  0  0  0  0  0  0  0  0  0  0
   -4.0720    0.8830   -1.2250 H   0  0  0  0  0  0  0  0  0  0  0  0
   -3.5480    2.6340   -1.4440 H   0  0  0  0  0  0  0  0  0  0  0  0
   -1.5730    2.2110   -0.1030 H   0  0  0  0  0  0  0  0  0  0  0  0
   -2.5070   -0.6440    0.0870 H   0  0  0  0  0  0  0  0  0  0  0  0
  1  2  1  0  0  0  0
  1 15  1  0  0  0  0
  2 17  1  1  0  0  0
  3  4  1  0  0  0  0
  3 19  1  0  0  0  0
  3  2  1  0  0  0  0
  4  5  2  0  0  0  0
  5 20  1  0  0  0  0
  6  5  1  0  0  0  0
  6 21  1  0  0  0  0
  7  6  1  0  0  0  0
  8 22  1  0  0  0  0
  8  7  2  0  0  0  0
  9  8  1  0  0  0  0
 10  9  2  0  0  0  0
 10 11  1  0  0  0  0
 11 12  2  0  0  0  0
 12  7  1  0  0  0  0
 12  4  1  0  0  0  0
 13  2  1  0  0  0  0
 13 26  1  0  0  0  0
 14 13  2  0  0  0  0
 16  1  1  0  0  0  0
 18  3  1  0  0  0  0
 23  9  1  0  0  0  0
 24 10  1  0  0  0  0
 25 11  1  0  0  0  0
 26 40  1  0  0  0  0
 27 41  1  6  0  0  0
 27 26  1  0  0  0  0
 27 28  1  0  0  0  0
 28 42  1  0  0  0  0
 28 43  1  0  0  0  0
 29 28  1  0  0  0  0
 29 30  2  0  0  0  0
 30 44  1  0  0  0  0
 31 45  1  0  0  0  0
 31 30  1  0  0  0  0
 32 31  1  0  0  0  0
 33 32  2  0  0  0  0
 34 33  1  0  0  0  0
 35 34  2  0  0  0  0
 35 36  1  0  0  0  0
 36 37  2  0  0  0  0
 37 32  1  0  0  0  0
 37 29  1  0  0  0  0
 38 39  2  0  0  0  0
 38 27  1  0  0  0  0
 46 33  1  0  0  0  0
 47 34  1  0  0  0  0
 48 35  1  0  0  0  0
 49 36  1  0  0  0  0
 50 51  1  0  0  0  0
 51 52  2  0  0  0  0
 51 53  1  0  0  0  0
 53 61  1  0  0  0  0
 53 54  1  0  0  0  0
 54 63  1  6  0  0  0
 54 55  1  0  0  0  0
 54 56  1  0  0  0  0
 55 38  1  0  0  0  0
 56 58  1  0  0  0  0
 57 56  2  0  0  0  0
 59 50  1  0  0  0  0
 60 50  1  0  0  0  0
 62 53  1  0  0  0  0
 64 55  1  0  0  0  0
M  END
$$$$
