WWP.pdb
 OpenBabel07022419193D

 64 68  0  0  1  0  0  0  0  0999 V2000
   -0.0350   -0.7580    4.4810 N   0  0  0  0  0  0  0  0  0  0  0  0
    1.0100   -0.4530    3.5020 C   0  0  1  0  0  0  0  0  0  0  0  0
    2.1510   -1.3420    3.8090 C   0  0  0  0  0  0  0  0  0  0  0  0
    3.3400   -1.2390    2.9420 C   0  0  0  0  0  0  0  0  0  0  0  0
    4.4680   -0.4470    3.2410 C   0  0  0  0  0  0  0  0  0  0  0  0
    5.3480   -0.5550    2.2370 N   0  0  0  0  0  0  0  0  0  0  0  0
    4.8460   -1.3780    1.3020 C   0  0  0  0  0  0  0  0  0  0  0  0
    5.3540   -1.8270    0.0880 C   0  0  0  0  0  0  0  0  0  0  0  0
    4.6320   -2.7040   -0.7060 C   0  0  0  0  0  0  0  0  0  0  0  0
    3.3990   -3.1320   -0.2830 C   0  0  0  0  0  0  0  0  0  0  0  0
    2.9010   -2.6750    0.9340 C   0  0  0  0  0  0  0  0  0  0  0  0
    3.6060   -1.8080    1.7250 C   0  0  0  0  0  0  0  0  0  0  0  0
    0.4930   -0.4400    2.1350 C   0  0  0  0  0  0  0  0  0  0  0  0
    1.2170   -0.0430    1.1740 O   0  0  0  0  0  0  0  0  0  0  0  0
   -0.1490   -1.7810    4.6290 H   0  0  0  0  0  0  0  0  0  0  0  0
    0.0570   -0.2000    5.3410 H   0  0  0  0  0  0  0  0  0  0  0  0
    1.3250    0.5920    3.7590 H   0  0  0  0  0  0  0  0  0  0  0  0
    2.4700   -1.1100    4.8610 H   0  0  0  0  0  0  0  0  0  0  0  0
    1.8180   -2.4120    3.7710 H   0  0  0  0  0  0  0  0  0  0  0  0
    4.6170    0.1480    4.1180 H   0  0  0  0  0  0  0  0  0  0  0  0
    6.2990   -0.1020    2.1230 H   0  0  0  0  0  0  0  0  0  0  0  0
    6.3190   -1.5140   -0.2810 H   0  0  0  0  0  0  0  0  0  0  0  0
    5.0440   -3.0530   -1.6650 H   0  0  0  0  0  0  0  0  0  0  0  0
    2.8550   -3.8160   -0.9180 H   0  0  0  0  0  0  0  0  0  0  0  0
    1.9220   -3.0170    1.2670 H   0  0  0  0  0  0  0  0  0  0  0  0
   -0.8180   -0.8540    1.7800 N   0  0  0  0  0  0  0  0  0  0  0  0
   -1.2760   -0.8240    0.4200 C   0  0  1  0  0  0  0  0  0  0  0  0
   -1.8350   -2.1510    0.0520 C   0  0  0  0  0  0  0  0  0  0  0  0
   -2.3350   -2.2350   -1.3260 C   0  0  0  0  0  0  0  0  0  0  0  0
   -3.6490   -2.1990   -1.7570 C   0  0  0  0  0  0  0  0  0  0  0  0
   -3.6850   -2.2970   -3.0980 N   0  0  0  0  0  0  0  0  0  0  0  0
   -2.3920   -2.3950   -3.5180 C   0  0  0  0  0  0  0  0  0  0  0  0
   -1.9060   -2.5170   -4.7990 C   0  0  0  0  0  0  0  0  0  0  0  0
   -0.5220   -2.6020   -4.9450 C   0  0  0  0  0  0  0  0  0  0  0  0
    0.3270   -2.5660   -3.8700 C   0  0  0  0  0  0  0  0  0  0  0  0
   -0.1640   -2.4440   -2.5970 C   0  0  0  0  0  0  0  0  0  0  0  0
   -1.5340   -2.3590   -2.4350 C   0  0  0  0  0  0  0  0  0  0  0  0
   -2.1160    0.3350    0.0780 C   0  0  0  0  0  0  0  0  0  0  0  0
   -2.5680    0.2510   -1.1230 O   0  0  0  0  0  0  0  0  0  0  0  0
   -1.4660   -1.2020    2.5300 H   0  0  0  0  0  0  0  0  0  0  0  0
   -0.3440   -0.6770   -0.2190 H   0  0  0  0  0  0  0  0  0  0  0  0
   -0.9950   -2.8920    0.1270 H   0  0  0  0  0  0  0  0  0  0  0  0
   -2.5810   -2.5340    0.8070 H   0  0  0  0  0  0  0  0  0  0  0  0
   -4.5090   -2.1050   -1.0980 H   0  0  0  0  0  0  0  0  0  0  0  0
   -4.5430   -2.2960   -3.6870 H   0  0  0  0  0  0  0  0  0  0  0  0
   -2.5770   -2.5460   -5.6650 H   0  0  0  0  0  0  0  0  0  0  0  0
   -0.1310   -2.6980   -5.9460 H   0  0  0  0  0  0  0  0  0  0  0  0
    1.3820   -2.6340   -4.0270 H   0  0  0  0  0  0  0  0  0  0  0  0
    0.4980   -2.4130   -1.7170 H   0  0  0  0  0  0  0  0  0  0  0  0
   -2.4360    1.4430    0.9010 N   0  0  0  0  0  0  0  0  0  0  0  0
   -2.0900    1.8230    2.2280 C   0  0  0  0  0  0  0  0  0  0  0  0
   -3.3210    2.5780    2.7370 C   0  0  0  0  0  0  0  0  0  0  0  0
   -3.6130    3.4240    1.5280 C   0  0  0  0  0  0  0  0  0  0  0  0
   -3.3060    2.5170    0.4000 C   0  0  1  0  0  0  0  0  0  0  0  0
   -2.5480    3.2860   -0.6170 C   0  0  0  0  0  0  0  0  0  0  0  0
   -1.3600    2.9330   -0.8780 O   0  0  0  0  0  0  0  0  0  0  0  0
   -3.0300    4.3650   -1.3120 O   0  0  0  0  0  0  0  0  0  0  0  0
   -1.2340    2.5340    2.2750 H   0  0  0  0  0  0  0  0  0  0  0  0
   -1.9200    1.0510    2.9620 H   0  0  0  0  0  0  0  0  0  0  0  0
   -3.0460    3.1880    3.6250 H   0  0  0  0  0  0  0  0  0  0  0  0
   -4.1670    1.9130    2.9120 H   0  0  0  0  0  0  0  0  0  0  0  0
   -2.9170    4.3010    1.5400 H   0  0  0  0  0  0  0  0  0  0  0  0
   -4.6710    3.7540    1.4850 H   0  0  0  0  0  0  0  0  0  0  0  0
   -4.1990    2.0900   -0.1000 H   0  0  0  0  0  0  0  0  0  0  0  0
  1 15  1  0  0  0  0
  1 16  1  0  0  0  0
  2 17  1  1  0  0  0
  2  3  1  0  0  0  0
  2  1  1  0  0  0  0
  3 18  1  0  0  0  0
  4  5  2  0  0  0  0
  4  3  1  0  0  0  0
  5 20  1  0  0  0  0
  6  5  1  0  0  0  0
  7 12  1  0  0  0  0
  7  6  1  0  0  0  0
  8  7  2  0  0  0  0
  9 10  2  0  0  0  0
  9  8  1  0  0  0  0
 10 11  1  0  0  0  0
 11 25  1  0  0  0  0
 11 12  2  0  0  0  0
 12  4  1  0  0  0  0
 13  2  1  0  0  0  0
 14 13  2  0  0  0  0
 19  3  1  0  0  0  0
 21  6  1  0  0  0  0
 22  8  1  0  0  0  0
 23  9  1  0  0  0  0
 24 10  1  0  0  0  0
 26 13  1  0  0  0  0
 26 40  1  0  0  0  0
 27 41  1  6  0  0  0
 27 26  1  0  0  0  0
 28 42  1  0  0  0  0
 28 27  1  0  0  0  0
 28 43  1  0  0  0  0
 29 28  1  0  0  0  0
 30 29  2  0  0  0  0
 30 44  1  0  0  0  0
 31 30  1  0  0  0  0
 32 31  1  0  0  0  0
 32 37  1  0  0  0  0
 33 32  2  0  0  0  0
 34 33  1  0  0  0  0
 34 35  2  0  0  0  0
 35 36  1  0  0  0  0
 36 37  2  0  0  0  0
 36 49  1  0  0  0  0
 37 29  1  0  0  0  0
 38 27  1  0  0  0  0
 38 50  1  0  0  0  0
 39 38  2  0  0  0  0
 45 31  1  0  0  0  0
 46 33  1  0  0  0  0
 47 34  1  0  0  0  0
 48 35  1  0  0  0  0
 50 51  1  0  0  0  0
 51 58  1  0  0  0  0
 51 52  1  0  0  0  0
 51 59  1  0  0  0  0
 52 61  1  0  0  0  0
 52 60  1  0  0  0  0
 53 62  1  0  0  0  0
 53 52  1  0  0  0  0
 54 64  1  6  0  0  0
 54 50  1  0  0  0  0
 54 53  1  0  0  0  0
 55 54  1  0  0  0  0
 56 55  1  0  0  0  0
 57 55  2  0  0  0  0
 63 53  1  0  0  0  0
M  END
$$$$
