WWQ.pdb
 OpenBabel07022419193D

 67 70  0  0  1  0  0  0  0  0999 V2000
    2.2430   -2.4560   -2.1770 N   0  0  0  0  0  0  0  0  0  0  0  0
    2.1510   -2.2450   -0.7680 C   0  0  1  0  0  0  0  0  0  0  0  0
    3.1500   -1.1800   -0.3180 C   0  0  0  0  0  0  0  0  0  0  0  0
    2.8780    0.1010   -1.0210 C   0  0  0  0  0  0  0  0  0  0  0  0
    2.1480    1.1830   -0.5550 C   0  0  0  0  0  0  0  0  0  0  0  0
    2.0710    2.1580   -1.4640 N   0  0  0  0  0  0  0  0  0  0  0  0
    2.7520    1.7280   -2.5420 C   0  0  0  0  0  0  0  0  0  0  0  0
    2.9690    2.3680   -3.7340 C   0  0  0  0  0  0  0  0  0  0  0  0
    3.7050    1.7580   -4.7160 C   0  0  0  0  0  0  0  0  0  0  0  0
    4.2180    0.4920   -4.4760 C   0  0  0  0  0  0  0  0  0  0  0  0
    4.0110   -0.1660   -3.2860 C   0  0  0  0  0  0  0  0  0  0  0  0
    3.2680    0.4510   -2.3000 C   0  0  0  0  0  0  0  0  0  0  0  0
    0.8140   -1.7100   -0.3660 C   0  0  0  0  0  0  0  0  0  0  0  0
   -0.0120   -1.3680   -1.2290 O   0  0  0  0  0  0  0  0  0  0  0  0
    1.3480   -2.3490   -2.7000 H   0  0  0  0  0  0  0  0  0  0  0  0
    2.5720   -3.4300   -2.3540 H   0  0  0  0  0  0  0  0  0  0  0  0
    2.3130   -3.1930   -0.2320 H   0  0  0  0  0  0  0  0  0  0  0  0
    4.1980   -1.4960   -0.4600 H   0  0  0  0  0  0  0  0  0  0  0  0
    2.9690   -1.0250    0.7720 H   0  0  0  0  0  0  0  0  0  0  0  0
    1.7000    1.2330    0.4130 H   0  0  0  0  0  0  0  0  0  0  0  0
    1.5810    3.0880   -1.3820 H   0  0  0  0  0  0  0  0  0  0  0  0
    2.5770    3.3670   -3.9540 H   0  0  0  0  0  0  0  0  0  0  0  0
    3.9210    2.1930   -5.6790 H   0  0  0  0  0  0  0  0  0  0  0  0
    4.8060   -0.0300   -5.2200 H   0  0  0  0  0  0  0  0  0  0  0  0
    4.4310   -1.1420   -3.1230 H   0  0  0  0  0  0  0  0  0  0  0  0
    0.4890   -1.5950    1.0160 N   0  0  0  0  0  0  0  0  0  0  0  0
   -0.7460   -1.0960    1.5120 C   0  0  1  0  0  0  0  0  0  0  0  0
   -1.5540   -2.2050    2.1290 C   0  0  0  0  0  0  0  0  0  0  0  0
   -1.8270   -3.2380    1.1090 C   0  0  0  0  0  0  0  0  0  0  0  0
   -2.9940   -3.3220    0.3510 C   0  0  0  0  0  0  0  0  0  0  0  0
   -2.9320   -4.3480   -0.5140 N   0  0  0  0  0  0  0  0  0  0  0  0
   -1.7320   -4.9530   -0.3410 C   0  0  0  0  0  0  0  0  0  0  0  0
   -1.2230   -6.0410   -0.9850 C   0  0  0  0  0  0  0  0  0  0  0  0
    0.0300   -6.5010   -0.6390 C   0  0  0  0  0  0  0  0  0  0  0  0
    0.7150   -5.8320    0.3530 C   0  0  0  0  0  0  0  0  0  0  0  0
    0.2020   -4.7250    1.0110 C   0  0  0  0  0  0  0  0  0  0  0  0
   -1.0510   -4.2800    0.6500 C   0  0  0  0  0  0  0  0  0  0  0  0
   -0.5670    0.0400    2.4590 C   0  0  0  0  0  0  0  0  0  0  0  0
    0.5750    0.4320    2.7720 O   0  0  0  0  0  0  0  0  0  0  0  0
    1.2180   -1.8970    1.6970 H   0  0  0  0  0  0  0  0  0  0  0  0
   -1.3450   -0.7730    0.6080 H   0  0  0  0  0  0  0  0  0  0  0  0
   -2.5350   -1.8410    2.5190 H   0  0  0  0  0  0  0  0  0  0  0  0
   -0.9680   -2.6510    2.9630 H   0  0  0  0  0  0  0  0  0  0  0  0
   -3.8620   -2.6680    0.4170 H   0  0  0  0  0  0  0  0  0  0  0  0
   -3.6700   -4.6460   -1.2080 H   0  0  0  0  0  0  0  0  0  0  0  0
   -1.7530   -6.5590   -1.7530 H   0  0  0  0  0  0  0  0  0  0  0  0
    0.4590   -7.3730   -1.1420 H   0  0  0  0  0  0  0  0  0  0  0  0
    1.6950   -6.2040    0.6150 H   0  0  0  0  0  0  0  0  0  0  0  0
    0.7530   -4.2270    1.7880 H   0  0  0  0  0  0  0  0  0  0  0  0
   -4.7360    2.2210    1.0740 N   0  0  0  0  0  0  0  0  0  0  0  0
   -3.3940    2.4800    1.4520 C   0  0  0  0  0  0  0  0  0  0  0  0
   -2.4970    1.9680    0.7480 O   0  0  0  0  0  0  0  0  0  0  0  0
   -3.0940    3.3160    2.6120 C   0  0  0  0  0  0  0  0  0  0  0  0
   -1.7890    3.1230    3.2780 C   0  0  0  0  0  0  0  0  0  0  0  0
   -1.5700    1.7990    3.9500 C   0  0  2  0  0  0  0  0  0  0  0  0
   -1.6810    0.7150    3.0400 N   0  0  0  0  0  0  0  0  0  0  0  0
   -2.4510    1.6650    5.1350 C   0  0  0  0  0  0  0  0  0  0  0  0
   -3.1830    0.6490    5.2150 O   0  0  0  0  0  0  0  0  0  0  0  0
   -2.5120    2.5970    6.1560 O   0  0  0  0  0  0  0  0  0  0  0  0
   -5.0740    2.2780    0.0930 H   0  0  0  0  0  0  0  0  0  0  0  0
   -5.4250    1.9600    1.8060 H   0  0  0  0  0  0  0  0  0  0  0  0
   -3.8920    3.1330    3.3970 H   0  0  0  0  0  0  0  0  0  0  0  0
   -3.1500    4.4050    2.3110 H   0  0  0  0  0  0  0  0  0  0  0  0
   -0.9720    3.1880    2.4890 H   0  0  0  0  0  0  0  0  0  0  0  0
   -1.5720    3.9560    4.0200 H   0  0  0  0  0  0  0  0  0  0  0  0
   -0.5160    1.8720    4.3750 H   0  0  0  0  0  0  0  0  0  0  0  0
   -2.6340    0.3270    2.7650 H   0  0  0  0  0  0  0  0  0  0  0  0
  1  2  1  0  0  0  0
  2 13  1  0  0  0  0
  2  3  1  0  0  0  0
  2 17  1  1  0  0  0
  3 19  1  0  0  0  0
  4  5  2  0  0  0  0
  4  3  1  0  0  0  0
  5 20  1  0  0  0  0
  6 21  1  0  0  0  0
  6  5  1  0  0  0  0
  7 12  1  0  0  0  0
  7  6  1  0  0  0  0
  8  7  2  0  0  0  0
  9 10  2  0  0  0  0
  9  8  1  0  0  0  0
 10 11  1  0  0  0  0
 11 25  1  0  0  0  0
 11 12  2  0  0  0  0
 12  4  1  0  0  0  0
 13 26  1  0  0  0  0
 14 13  2  0  0  0  0
 15  1  1  0  0  0  0
 16  1  1  0  0  0  0
 18  3  1  0  0  0  0
 22  8  1  0  0  0  0
 23  9  1  0  0  0  0
 24 10  1  0  0  0  0
 26 27  1  0  0  0  0
 26 40  1  0  0  0  0
 27 41  1  6  0  0  0
 27 28  1  0  0  0  0
 27 38  1  0  0  0  0
 28 42  1  0  0  0  0
 28 43  1  0  0  0  0
 29 28  1  0  0  0  0
 30 44  1  0  0  0  0
 30 29  2  0  0  0  0
 31 32  1  0  0  0  0
 31 30  1  0  0  0  0
 32 37  1  0  0  0  0
 33 34  1  0  0  0  0
 33 32  2  0  0  0  0
 34 35  2  0  0  0  0
 35 48  1  0  0  0  0
 35 36  1  0  0  0  0
 36 49  1  0  0  0  0
 37 36  2  0  0  0  0
 37 29  1  0  0  0  0
 38 39  2  0  0  0  0
 38 56  1  0  0  0  0
 45 31  1  0  0  0  0
 46 33  1  0  0  0  0
 47 34  1  0  0  0  0
 50 51  1  0  0  0  0
 50 61  1  0  0  0  0
 51 53  1  0  0  0  0
 52 51  2  0  0  0  0
 53 54  1  0  0  0  0
 53 62  1  0  0  0  0
 54 55  1  0  0  0  0
 54 65  1  0  0  0  0
 55 66  1  1  0  0  0
 55 57  1  0  0  0  0
 56 55  1  0  0  0  0
 57 58  2  0  0  0  0
 57 59  1  0  0  0  0
 60 50  1  0  0  0  0
 63 53  1  0  0  0  0
 64 54  1  0  0  0  0
 67 56  1  0  0  0  0
M  END
$$$$
