WWS.pdb
 OpenBabel07022419193D

 61 64  0  0  1  0  0  0  0  0999 V2000
    3.0370   -1.6720    3.5650 N   0  0  0  0  0  0  0  0  0  0  0  0
    2.7030   -0.3030    3.2200 C   0  0  1  0  0  0  0  0  0  0  0  0
    3.8440    0.4370    2.6250 C   0  0  0  0  0  0  0  0  0  0  0  0
    4.4350   -0.1020    1.4150 C   0  0  0  0  0  0  0  0  0  0  0  0
    5.5830   -0.8790    1.3750 C   0  0  0  0  0  0  0  0  0  0  0  0
    5.8430   -1.2360    0.1050 N   0  0  0  0  0  0  0  0  0  0  0  0
    4.9030   -0.7150   -0.6680 C   0  0  0  0  0  0  0  0  0  0  0  0
    4.7470   -0.7990   -2.0340 C   0  0  0  0  0  0  0  0  0  0  0  0
    3.7000   -0.1790   -2.6740 C   0  0  0  0  0  0  0  0  0  0  0  0
    2.8150    0.5250   -1.9170 C   0  0  0  0  0  0  0  0  0  0  0  0
    2.9760    0.6080   -0.5380 C   0  0  0  0  0  0  0  0  0  0  0  0
    4.0110   -0.0020    0.1240 C   0  0  0  0  0  0  0  0  0  0  0  0
    1.4260   -0.1510    2.5120 C   0  0  0  0  0  0  0  0  0  0  0  0
    0.9470    1.0150    2.3400 O   0  0  0  0  0  0  0  0  0  0  0  0
    2.3920   -2.0800    4.2780 H   0  0  0  0  0  0  0  0  0  0  0  0
    3.1140   -2.3000    2.7440 H   0  0  0  0  0  0  0  0  0  0  0  0
    2.5300    0.1850    4.2400 H   0  0  0  0  0  0  0  0  0  0  0  0
    3.4550    1.4820    2.4050 H   0  0  0  0  0  0  0  0  0  0  0  0
    4.6150    0.6440    3.4320 H   0  0  0  0  0  0  0  0  0  0  0  0
    6.2060   -1.1780    2.2020 H   0  0  0  0  0  0  0  0  0  0  0  0
    6.6480   -1.8240   -0.2230 H   0  0  0  0  0  0  0  0  0  0  0  0
    5.4560   -1.3650   -2.6490 H   0  0  0  0  0  0  0  0  0  0  0  0
    3.6040   -0.2640   -3.7430 H   0  0  0  0  0  0  0  0  0  0  0  0
    1.9880    1.0240   -2.3620 H   0  0  0  0  0  0  0  0  0  0  0  0
    2.2890    1.1700    0.0720 H   0  0  0  0  0  0  0  0  0  0  0  0
    0.6660   -1.2210    1.9950 N   0  0  0  0  0  0  0  0  0  0  0  0
   -0.6230   -0.9740    1.2870 C   0  0  1  0  0  0  0  0  0  0  0  0
   -0.4000   -1.4210   -0.1140 C   0  0  0  0  0  0  0  0  0  0  0  0
   -1.5270   -1.2640   -1.0250 C   0  0  0  0  0  0  0  0  0  0  0  0
   -2.3240   -2.2490   -1.5470 C   0  0  0  0  0  0  0  0  0  0  0  0
   -3.2420   -1.7280   -2.3710 N   0  0  0  0  0  0  0  0  0  0  0  0
   -3.0780   -0.3920   -2.4160 C   0  0  0  0  0  0  0  0  0  0  0  0
   -3.7040    0.6520   -3.0710 C   0  0  0  0  0  0  0  0  0  0  0  0
   -3.3030    1.9590   -2.9190 C   0  0  0  0  0  0  0  0  0  0  0  0
   -2.2450    2.2260   -2.0860 C   0  0  0  0  0  0  0  0  0  0  0  0
   -1.5810    1.2140   -1.4030 C   0  0  0  0  0  0  0  0  0  0  0  0
   -2.0220   -0.0880   -1.5900 C   0  0  0  0  0  0  0  0  0  0  0  0
   -1.7120   -1.6030    2.0350 C   0  0  0  0  0  0  0  0  0  0  0  0
   -1.4520   -2.2840    3.0730 O   0  0  0  0  0  0  0  0  0  0  0  0
    0.9970   -2.1890    2.1030 H   0  0  0  0  0  0  0  0  0  0  0  0
   -0.7500    0.1510    1.2540 H   0  0  0  0  0  0  0  0  0  0  0  0
    0.0540   -2.4400   -0.1760 H   0  0  0  0  0  0  0  0  0  0  0  0
    0.4220   -0.7490   -0.5190 H   0  0  0  0  0  0  0  0  0  0  0  0
   -2.2120   -3.3020   -1.3140 H   0  0  0  0  0  0  0  0  0  0  0  0
   -3.9790   -2.2360   -2.9070 H   0  0  0  0  0  0  0  0  0  0  0  0
   -4.5270    0.4160   -3.7140 H   0  0  0  0  0  0  0  0  0  0  0  0
   -3.8410    2.7190   -3.4640 H   0  0  0  0  0  0  0  0  0  0  0  0
   -1.9180    3.2630   -1.9570 H   0  0  0  0  0  0  0  0  0  0  0  0
   -0.7610    1.4420   -0.7620 H   0  0  0  0  0  0  0  0  0  0  0  0
   -4.3440   -0.2250    3.9290 O   0  0  0  0  0  0  0  0  0  0  0  0
   -5.0490   -1.0750    3.0670 C   0  0  0  0  0  0  0  0  0  0  0  0
   -4.1290   -2.1100    2.4520 C   0  0  2  0  0  0  0  0  0  0  0  0
   -3.0690   -1.5030    1.6870 N   0  0  0  0  0  0  0  0  0  0  0  0
   -4.9410   -2.9880    1.5950 C   0  0  0  0  0  0  0  0  0  0  0  0
   -5.9350   -3.6210    2.1160 O   0  0  0  0  0  0  0  0  0  0  0  0
   -4.7390   -3.2090    0.2480 O   0  0  0  0  0  0  0  0  0  0  0  0
   -3.8150   -0.8360    4.5180 H   0  0  0  0  0  0  0  0  0  0  0  0
   -5.7740   -1.6270    3.7080 H   0  0  0  0  0  0  0  0  0  0  0  0
   -5.5980   -0.4860    2.3260 H   0  0  0  0  0  0  0  0  0  0  0  0
   -3.7450   -2.7090    3.3080 H   0  0  0  0  0  0  0  0  0  0  0  0
   -3.3330   -0.9660    0.8370 H   0  0  0  0  0  0  0  0  0  0  0  0
  1 15  1  0  0  0  0
  2  1  1  0  0  0  0
  2 17  1  1  0  0  0
  3  2  1  0  0  0  0
  3 19  1  0  0  0  0
  4  3  1  0  0  0  0
  5  4  2  0  0  0  0
  5 20  1  0  0  0  0
  6  5  1  0  0  0  0
  7  6  1  0  0  0  0
  7 12  1  0  0  0  0
  8  7  2  0  0  0  0
  9  8  1  0  0  0  0
  9 10  2  0  0  0  0
 10 11  1  0  0  0  0
 11 25  1  0  0  0  0
 11 12  2  0  0  0  0
 12  4  1  0  0  0  0
 13  2  1  0  0  0  0
 14 13  2  0  0  0  0
 16  1  1  0  0  0  0
 18  3  1  0  0  0  0
 21  6  1  0  0  0  0
 22  8  1  0  0  0  0
 23  9  1  0  0  0  0
 24 10  1  0  0  0  0
 26 40  1  0  0  0  0
 26 13  1  0  0  0  0
 27 41  1  6  0  0  0
 27 26  1  0  0  0  0
 27 38  1  0  0  0  0
 28 27  1  0  0  0  0
 29 28  1  0  0  0  0
 30 44  1  0  0  0  0
 30 29  2  0  0  0  0
 31 30  1  0  0  0  0
 32 31  1  0  0  0  0
 32 37  1  0  0  0  0
 33 34  1  0  0  0  0
 33 32  2  0  0  0  0
 34 35  2  0  0  0  0
 35 48  1  0  0  0  0
 35 36  1  0  0  0  0
 36 49  1  0  0  0  0
 37 36  2  0  0  0  0
 37 29  1  0  0  0  0
 38 39  2  0  0  0  0
 42 28  1  0  0  0  0
 43 28  1  0  0  0  0
 45 31  1  0  0  0  0
 46 33  1  0  0  0  0
 47 34  1  0  0  0  0
 50 57  1  0  0  0  0
 51 58  1  0  0  0  0
 51 50  1  0  0  0  0
 52 51  1  0  0  0  0
 52 60  1  1  0  0  0
 53 38  1  0  0  0  0
 53 52  1  0  0  0  0
 54 55  1  0  0  0  0
 54 52  1  0  0  0  0
 56 54  2  0  0  0  0
 59 51  1  0  0  0  0
 61 53  1  0  0  0  0
M  END
$$$$
