WWT.pdb
 OpenBabel07022419193D

 64 67  0  0  1  0  0  0  0  0999 V2000
    0.1330   -1.4300    4.4740 N   0  0  0  0  0  0  0  0  0  0  0  0
    0.8930   -0.3940    3.7760 C   0  0  1  0  0  0  0  0  0  0  0  0
    2.3080   -0.7380    3.9750 C   0  0  0  0  0  0  0  0  0  0  0  0
    3.3440    0.0770    3.4170 C   0  0  0  0  0  0  0  0  0  0  0  0
    4.0670   -0.2780    2.2960 C   0  0  0  0  0  0  0  0  0  0  0  0
    4.9540    0.6920    2.0310 N   0  0  0  0  0  0  0  0  0  0  0  0
    4.8640    1.6790    2.9160 C   0  0  0  0  0  0  0  0  0  0  0  0
    5.5290    2.8750    3.0870 C   0  0  0  0  0  0  0  0  0  0  0  0
    5.1900    3.7150    4.1440 C   0  0  0  0  0  0  0  0  0  0  0  0
    4.1690    3.3190    5.0190 C   0  0  0  0  0  0  0  0  0  0  0  0
    3.5120    2.1230    4.8390 C   0  0  0  0  0  0  0  0  0  0  0  0
    3.8500    1.3060    3.8000 C   0  0  0  0  0  0  0  0  0  0  0  0
    0.4110   -0.4630    2.3750 C   0  0  0  0  0  0  0  0  0  0  0  0
    0.9210    0.3450    1.5330 O   0  0  0  0  0  0  0  0  0  0  0  0
    0.3270   -2.3750    4.0730 H   0  0  0  0  0  0  0  0  0  0  0  0
   -0.8860   -1.2080    4.4980 H   0  0  0  0  0  0  0  0  0  0  0  0
    0.5650    0.5440    4.2820 H   0  0  0  0  0  0  0  0  0  0  0  0
    2.4530   -1.7980    3.6830 H   0  0  0  0  0  0  0  0  0  0  0  0
    2.4670   -0.7600    5.0980 H   0  0  0  0  0  0  0  0  0  0  0  0
    3.9910   -1.1710    1.6780 H   0  0  0  0  0  0  0  0  0  0  0  0
    5.6480    0.6930    1.2250 H   0  0  0  0  0  0  0  0  0  0  0  0
    6.3260    3.1900    2.4080 H   0  0  0  0  0  0  0  0  0  0  0  0
    5.6700    4.6590    4.3310 H   0  0  0  0  0  0  0  0  0  0  0  0
    3.9090    3.9750    5.8390 H   0  0  0  0  0  0  0  0  0  0  0  0
    2.7390    1.8370    5.5120 H   0  0  0  0  0  0  0  0  0  0  0  0
   -0.5590   -1.3420    1.9000 N   0  0  0  0  0  0  0  0  0  0  0  0
   -1.0170   -1.3820    0.4950 C   0  0  1  0  0  0  0  0  0  0  0  0
   -0.5710   -2.7240   -0.0120 C   0  0  0  0  0  0  0  0  0  0  0  0
   -0.8960   -3.0220   -1.4050 C   0  0  0  0  0  0  0  0  0  0  0  0
   -1.8580   -3.8910   -1.8740 C   0  0  0  0  0  0  0  0  0  0  0  0
   -1.7900   -3.8580   -3.2110 N   0  0  0  0  0  0  0  0  0  0  0  0
   -0.8270   -3.0070   -3.6030 C   0  0  0  0  0  0  0  0  0  0  0  0
   -0.3520   -2.6080   -4.8540 C   0  0  0  0  0  0  0  0  0  0  0  0
    0.6700   -1.6970   -4.9340 C   0  0  0  0  0  0  0  0  0  0  0  0
    1.2700   -1.1380   -3.8250 C   0  0  0  0  0  0  0  0  0  0  0  0
    0.8000   -1.5320   -2.5910 C   0  0  0  0  0  0  0  0  0  0  0  0
   -0.2350   -2.4540   -2.4880 C   0  0  0  0  0  0  0  0  0  0  0  0
   -2.4410   -1.0960    0.4060 C   0  0  0  0  0  0  0  0  0  0  0  0
   -3.0910   -0.9060    1.4940 O   0  0  0  0  0  0  0  0  0  0  0  0
   -0.9970   -2.0120    2.5400 H   0  0  0  0  0  0  0  0  0  0  0  0
   -0.4080   -0.5750   -0.0120 H   0  0  0  0  0  0  0  0  0  0  0  0
   -1.0050   -3.5380    0.6270 H   0  0  0  0  0  0  0  0  0  0  0  0
    0.5400   -2.7630    0.1810 H   0  0  0  0  0  0  0  0  0  0  0  0
   -2.5490   -4.4950   -1.2580 H   0  0  0  0  0  0  0  0  0  0  0  0
   -2.4040   -4.4200   -3.8610 H   0  0  0  0  0  0  0  0  0  0  0  0
   -0.8300   -3.0530   -5.7390 H   0  0  0  0  0  0  0  0  0  0  0  0
    1.0310   -1.3950   -5.9250 H   0  0  0  0  0  0  0  0  0  0  0  0
    2.0700   -0.4270   -3.9640 H   0  0  0  0  0  0  0  0  0  0  0  0
    1.2460   -1.1150   -1.6920 H   0  0  0  0  0  0  0  0  0  0  0  0
   -4.3140    1.7910   -0.5890 C   0  0  0  0  0  0  0  0  0  0  0  0
   -4.9470    0.6540   -1.3650 C   0  0  1  0  0  0  0  0  0  0  0  0
   -4.5590    0.6440   -2.6940 O   0  0  0  0  0  0  0  0  0  0  0  0
   -4.6500   -0.6860   -0.7150 C   0  0  2  0  0  0  0  0  0  0  0  0
   -3.2330   -0.9920   -0.7690 N   0  0  0  0  0  0  0  0  0  0  0  0
   -5.3860   -1.7060   -1.4820 C   0  0  0  0  0  0  0  0  0  0  0  0
   -6.6700   -1.6430   -1.5640 O   0  0  0  0  0  0  0  0  0  0  0  0
   -4.8320   -2.7710   -2.1570 O   0  0  0  0  0  0  0  0  0  0  0  0
   -3.2140    1.8280   -0.7390 H   0  0  0  0  0  0  0  0  0  0  0  0
   -4.7190    2.7360   -1.0130 H   0  0  0  0  0  0  0  0  0  0  0  0
   -4.6300    1.7330    0.4540 H   0  0  0  0  0  0  0  0  0  0  0  0
   -6.0460    0.8080   -1.3290 H   0  0  0  0  0  0  0  0  0  0  0  0
   -3.6030    0.9120   -2.7250 H   0  0  0  0  0  0  0  0  0  0  0  0
   -5.0370   -0.6270    0.3010 H   0  0  0  0  0  0  0  0  0  0  0  0
   -2.7440   -1.1460   -1.6750 H   0  0  0  0  0  0  0  0  0  0  0  0
  1 16  1  0  0  0  0
  2  3  1  0  0  0  0
  2 17  1  1  0  0  0
  2  1  1  0  0  0  0
  3 19  1  0  0  0  0
  4 12  1  0  0  0  0
  4  3  1  0  0  0  0
  5  4  2  0  0  0  0
  6  5  1  0  0  0  0
  6  7  1  0  0  0  0
  7  8  2  0  0  0  0
  7 12  1  0  0  0  0
  8  9  1  0  0  0  0
  9 23  1  0  0  0  0
  9 10  2  0  0  0  0
 10 24  1  0  0  0  0
 11 10  1  0  0  0  0
 11 25  1  0  0  0  0
 12 11  2  0  0  0  0
 13  2  1  0  0  0  0
 14 13  2  0  0  0  0
 15  1  1  0  0  0  0
 18  3  1  0  0  0  0
 20  5  1  0  0  0  0
 21  6  1  0  0  0  0
 22  8  1  0  0  0  0
 26 13  1  0  0  0  0
 26 40  1  0  0  0  0
 27 41  1  6  0  0  0
 27 26  1  0  0  0  0
 28 43  1  0  0  0  0
 28 27  1  0  0  0  0
 28 42  1  0  0  0  0
 29 28  1  0  0  0  0
 30 29  2  0  0  0  0
 30 44  1  0  0  0  0
 31 30  1  0  0  0  0
 32 31  1  0  0  0  0
 32 37  1  0  0  0  0
 33 32  2  0  0  0  0
 34 33  1  0  0  0  0
 34 35  2  0  0  0  0
 35 36  1  0  0  0  0
 36 37  2  0  0  0  0
 36 49  1  0  0  0  0
 37 29  1  0  0  0  0
 38 27  1  0  0  0  0
 38 39  2  0  0  0  0
 45 31  1  0  0  0  0
 46 33  1  0  0  0  0
 47 34  1  0  0  0  0
 48 35  1  0  0  0  0
 50 60  1  0  0  0  0
 51 61  1  1  0  0  0
 51 53  1  0  0  0  0
 51 50  1  0  0  0  0
 52 51  1  0  0  0  0
 53 63  1  1  0  0  0
 54 53  1  0  0  0  0
 54 38  1  0  0  0  0
 55 53  1  0  0  0  0
 56 55  1  0  0  0  0
 57 55  2  0  0  0  0
 58 50  1  0  0  0  0
 59 50  1  0  0  0  0
 62 52  1  0  0  0  0
 64 54  1  0  0  0  0
M  END
$$$$
