WWV.pdb
 OpenBabel07022419193D

 66 69  0  0  1  0  0  0  0  0999 V2000
   -0.0160    1.0600    2.7340 N   0  0  0  0  0  0  0  0  0  0  0  0
    1.0940    0.2040    2.4550 C   0  0  1  0  0  0  0  0  0  0  0  0
    1.6220   -0.3940    3.7310 C   0  0  0  0  0  0  0  0  0  0  0  0
    2.0780    0.6720    4.6710 C   0  0  0  0  0  0  0  0  0  0  0  0
    1.4840    1.1680    5.8070 C   0  0  0  0  0  0  0  0  0  0  0  0
    2.2540    2.1220    6.3370 N   0  0  0  0  0  0  0  0  0  0  0  0
    3.3550    2.2680    5.5670 C   0  0  0  0  0  0  0  0  0  0  0  0
    4.4590    3.1140    5.6700 C   0  0  0  0  0  0  0  0  0  0  0  0
    5.4590    3.0480    4.7190 C   0  0  0  0  0  0  0  0  0  0  0  0
    5.3740    2.1540    3.6730 C   0  0  0  0  0  0  0  0  0  0  0  0
    4.2820    1.3320    3.5900 C   0  0  0  0  0  0  0  0  0  0  0  0
    3.2660    1.3780    4.5270 C   0  0  0  0  0  0  0  0  0  0  0  0
    0.7600   -0.8600    1.4870 C   0  0  0  0  0  0  0  0  0  0  0  0
    1.5690   -1.7500    1.1300 O   0  0  0  0  0  0  0  0  0  0  0  0
   -0.0000    1.4370    3.7130 H   0  0  0  0  0  0  0  0  0  0  0  0
   -0.2090    1.7840    2.0140 H   0  0  0  0  0  0  0  0  0  0  0  0
    1.9120    0.8700    2.0560 H   0  0  0  0  0  0  0  0  0  0  0  0
    0.8860   -1.0250    4.2400 H   0  0  0  0  0  0  0  0  0  0  0  0
    2.5210   -1.0250    3.5010 H   0  0  0  0  0  0  0  0  0  0  0  0
    0.5210    0.8210    6.2060 H   0  0  0  0  0  0  0  0  0  0  0  0
    2.0640    2.6920    7.2150 H   0  0  0  0  0  0  0  0  0  0  0  0
    4.5090    3.8170    6.5080 H   0  0  0  0  0  0  0  0  0  0  0  0
    6.3260    3.7020    4.7880 H   0  0  0  0  0  0  0  0  0  0  0  0
    6.1700    2.0980    2.9130 H   0  0  0  0  0  0  0  0  0  0  0  0
    4.1990    0.6340    2.7860 H   0  0  0  0  0  0  0  0  0  0  0  0
   -0.5430   -0.9280    0.8890 N   0  0  0  0  0  0  0  0  0  0  0  0
   -0.8830   -1.9640   -0.0620 C   0  0  1  0  0  0  0  0  0  0  0  0
   -2.0570   -2.7470    0.4770 C   0  0  0  0  0  0  0  0  0  0  0  0
   -2.4860   -3.8260   -0.4050 C   0  0  0  0  0  0  0  0  0  0  0  0
   -3.5820   -3.8260   -1.2310 C   0  0  0  0  0  0  0  0  0  0  0  0
   -3.6460   -4.9900   -1.8900 N   0  0  0  0  0  0  0  0  0  0  0  0
   -2.6030   -5.7860   -1.5200 C   0  0  0  0  0  0  0  0  0  0  0  0
   -2.2050   -7.0550   -1.8840 C   0  0  0  0  0  0  0  0  0  0  0  0
   -1.0840   -7.6560   -1.3530 C   0  0  0  0  0  0  0  0  0  0  0  0
   -0.3660   -6.9130   -0.4200 C   0  0  0  0  0  0  0  0  0  0  0  0
   -0.7560   -5.6480   -0.0520 C   0  0  0  0  0  0  0  0  0  0  0  0
   -1.8770   -5.0680   -0.5950 C   0  0  0  0  0  0  0  0  0  0  0  0
   -1.1540   -1.4140   -1.4110 C   0  0  0  0  0  0  0  0  0  0  0  0
   -1.4670   -2.2120   -2.3350 O   0  0  0  0  0  0  0  0  0  0  0  0
   -1.2740   -0.2180    1.1370 H   0  0  0  0  0  0  0  0  0  0  0  0
    0.0000   -2.6290   -0.1470 H   0  0  0  0  0  0  0  0  0  0  0  0
   -1.8340   -3.0920    1.5170 H   0  0  0  0  0  0  0  0  0  0  0  0
   -2.8940   -2.0290    0.5920 H   0  0  0  0  0  0  0  0  0  0  0  0
   -4.2980   -2.9960   -1.3370 H   0  0  0  0  0  0  0  0  0  0  0  0
   -4.3630   -5.3050   -2.5980 H   0  0  0  0  0  0  0  0  0  0  0  0
   -2.8080   -7.5990   -2.6250 H   0  0  0  0  0  0  0  0  0  0  0  0
   -0.7580   -8.6490   -1.6270 H   0  0  0  0  0  0  0  0  0  0  0  0
    0.5210   -7.3620    0.0150 H   0  0  0  0  0  0  0  0  0  0  0  0
   -0.2060   -5.0470    0.6780 H   0  0  0  0  0  0  0  0  0  0  0  0
   -2.1190    2.6910   -2.0820 C   0  0  0  0  0  0  0  0  0  0  0  0
   -2.4500    1.5230   -2.9810 C   0  0  0  0  0  0  0  0  0  0  0  0
   -2.7300    2.0430   -4.3770 C   0  0  0  0  0  0  0  0  0  0  0  0
   -1.3410    0.5020   -3.0210 C   0  0  2  0  0  0  0  0  0  0  0  0
   -1.0770   -0.0350   -1.7040 N   0  0  0  0  0  0  0  0  0  0  0  0
   -0.1270    1.2080   -3.5580 C   0  0  0  0  0  0  0  0  0  0  0  0
   -0.1210    1.7550   -4.6870 O   0  0  0  0  0  0  0  0  0  0  0  0
    1.0520    1.2810   -2.8090 O   0  0  0  0  0  0  0  0  0  0  0  0
   -2.0160    3.6420   -2.6790 H   0  0  0  0  0  0  0  0  0  0  0  0
   -1.1150    2.5170   -1.6050 H   0  0  0  0  0  0  0  0  0  0  0  0
   -2.9140    2.8490   -1.3380 H   0  0  0  0  0  0  0  0  0  0  0  0
   -3.3780    1.0350   -2.6160 H   0  0  0  0  0  0  0  0  0  0  0  0
   -3.8100    2.3020   -4.5140 H   0  0  0  0  0  0  0  0  0  0  0  0
   -2.4730    1.3250   -5.1640 H   0  0  0  0  0  0  0  0  0  0  0  0
   -2.1760    2.9930   -4.5820 H   0  0  0  0  0  0  0  0  0  0  0  0
   -1.6120   -0.2800   -3.7490 H   0  0  0  0  0  0  0  0  0  0  0  0
   -0.8180    0.6160   -0.9350 H   0  0  0  0  0  0  0  0  0  0  0  0
  1 15  1  0  0  0  0
  2 17  1  6  0  0  0
  2  1  1  0  0  0  0
  2  3  1  0  0  0  0
  3 18  1  0  0  0  0
  3  4  1  0  0  0  0
  4  5  2  0  0  0  0
  5 20  1  0  0  0  0
  5  6  1  0  0  0  0
  6 21  1  0  0  0  0
  7  8  1  0  0  0  0
  7  6  1  0  0  0  0
  8 22  1  0  0  0  0
  9 23  1  0  0  0  0
  9  8  2  0  0  0  0
 10  9  1  0  0  0  0
 11 10  2  0  0  0  0
 11 12  1  0  0  0  0
 12  4  1  0  0  0  0
 12  7  2  0  0  0  0
 13  2  1  0  0  0  0
 14 13  2  0  0  0  0
 16  1  1  0  0  0  0
 19  3  1  0  0  0  0
 24 10  1  0  0  0  0
 25 11  1  0  0  0  0
 26 40  1  0  0  0  0
 26 13  1  0  0  0  0
 27 41  1  6  0  0  0
 27 28  1  0  0  0  0
 27 26  1  0  0  0  0
 28 43  1  0  0  0  0
 28 42  1  0  0  0  0
 29 28  1  0  0  0  0
 30 29  2  0  0  0  0
 31 32  1  0  0  0  0
 31 30  1  0  0  0  0
 32 37  1  0  0  0  0
 33 32  2  0  0  0  0
 33 34  1  0  0  0  0
 34 35  2  0  0  0  0
 35 36  1  0  0  0  0
 35 48  1  0  0  0  0
 36 49  1  0  0  0  0
 37 29  1  0  0  0  0
 37 36  2  0  0  0  0
 38 27  1  0  0  0  0
 39 38  2  0  0  0  0
 44 30  1  0  0  0  0
 45 31  1  0  0  0  0
 46 33  1  0  0  0  0
 47 34  1  0  0  0  0
 50 59  1  0  0  0  0
 50 60  1  0  0  0  0
 51 61  1  0  0  0  0
 51 50  1  0  0  0  0
 52 51  1  0  0  0  0
 53 65  1  6  0  0  0
 53 51  1  0  0  0  0
 53 54  1  0  0  0  0
 54 38  1  0  0  0  0
 54 66  1  0  0  0  0
 55 53  1  0  0  0  0
 55 57  1  0  0  0  0
 56 55  2  0  0  0  0
 58 50  1  0  0  0  0
 62 52  1  0  0  0  0
 63 52  1  0  0  0  0
 64 52  1  0  0  0  0
M  END
$$$$
