WYC.pdb
 OpenBabel07022419193D

 58 60  0  0  1  0  0  0  0  0999 V2000
    2.0880    0.9940    3.5730 N   0  0  0  0  0  0  0  0  0  0  0  0
    1.1870    0.4440    2.5740 C   0  0  1  0  0  0  0  0  0  0  0  0
    1.5420    0.9210    1.1880 C   0  0  0  0  0  0  0  0  0  0  0  0
    1.5100    2.3720    1.0090 C   0  0  0  0  0  0  0  0  0  0  0  0
    2.6090    3.2290    0.9540 C   0  0  0  0  0  0  0  0  0  0  0  0
    2.1710    4.4840    0.7790 N   0  0  0  0  0  0  0  0  0  0  0  0
    0.8160    4.4860    0.7140 C   0  0  0  0  0  0  0  0  0  0  0  0
   -0.0530    5.5420    0.5410 C   0  0  0  0  0  0  0  0  0  0  0  0
   -1.4060    5.2960    0.5050 C   0  0  0  0  0  0  0  0  0  0  0  0
   -1.8520    4.0080    0.6440 C   0  0  0  0  0  0  0  0  0  0  0  0
   -0.9760    2.9770    0.8160 C   0  0  0  0  0  0  0  0  0  0  0  0
    0.4080    3.1740    0.8580 C   0  0  0  0  0  0  0  0  0  0  0  0
    1.2080   -1.0380    2.6130 C   0  0  0  0  0  0  0  0  0  0  0  0
    1.9620   -1.6010    3.4660 O   0  0  0  0  0  0  0  0  0  0  0  0
    2.1590    2.0050    3.3840 H   0  0  0  0  0  0  0  0  0  0  0  0
    1.6100    0.8670    4.4910 H   0  0  0  0  0  0  0  0  0  0  0  0
    0.1690    0.7800    2.8160 H   0  0  0  0  0  0  0  0  0  0  0  0
    0.8150    0.4730    0.4460 H   0  0  0  0  0  0  0  0  0  0  0  0
    2.5160    0.4730    0.9060 H   0  0  0  0  0  0  0  0  0  0  0  0
    3.6510    2.9760    1.0340 H   0  0  0  0  0  0  0  0  0  0  0  0
    2.7450    5.3490    0.6980 H   0  0  0  0  0  0  0  0  0  0  0  0
    0.2610    6.5760    0.4280 H   0  0  0  0  0  0  0  0  0  0  0  0
   -2.1240    6.1330    0.3640 H   0  0  0  0  0  0  0  0  0  0  0  0
   -2.9100    3.8130    0.6190 H   0  0  0  0  0  0  0  0  0  0  0  0
   -1.2830    1.9370    0.9280 H   0  0  0  0  0  0  0  0  0  0  0  0
   -5.1840   -2.5480   -1.0490 O   0  0  0  0  0  0  0  0  0  0  0  0
   -4.1200   -2.8100   -0.1980 C   0  0  0  0  0  0  0  0  0  0  0  0
   -3.7230   -1.9730    0.8170 C   0  0  0  0  0  0  0  0  0  0  0  0
   -2.6580   -2.3100    1.6150 C   0  0  0  0  0  0  0  0  0  0  0  0
   -1.9590   -3.4950    1.4180 C   0  0  0  0  0  0  0  0  0  0  0  0
   -0.8050   -3.8550    2.3080 C   0  0  0  0  0  0  0  0  0  0  0  0
    0.5060   -3.3270    1.8360 C   0  0  2  0  0  0  0  0  0  0  0  0
    0.4510   -1.8750    1.7690 N   0  0  0  0  0  0  0  0  0  0  0  0
    0.9650   -3.8510    0.5340 C   0  0  0  0  0  0  0  0  0  0  0  0
    1.1120   -5.0770    0.2910 O   0  0  0  0  0  0  0  0  0  0  0  0
   -2.3690   -4.3160    0.4020 C   0  0  0  0  0  0  0  0  0  0  0  0
   -3.4270   -4.0010   -0.4050 C   0  0  0  0  0  0  0  0  0  0  0  0
   -6.0280   -2.0840   -0.8030 H   0  0  0  0  0  0  0  0  0  0  0  0
   -4.2710   -1.0560    0.9590 H   0  0  0  0  0  0  0  0  0  0  0  0
   -2.3150   -1.6670    2.4340 H   0  0  0  0  0  0  0  0  0  0  0  0
   -0.8240   -4.9600    2.4030 H   0  0  0  0  0  0  0  0  0  0  0  0
   -1.0660   -3.4610    3.3100 H   0  0  0  0  0  0  0  0  0  0  0  0
    1.2690   -3.6440    2.6030 H   0  0  0  0  0  0  0  0  0  0  0  0
   -0.1770   -1.4440    1.0660 H   0  0  0  0  0  0  0  0  0  0  0  0
   -1.8580   -5.2650    0.1970 H   0  0  0  0  0  0  0  0  0  0  0  0
   -3.7590   -4.6630   -1.2230 H   0  0  0  0  0  0  0  0  0  0  0  0
    1.2870   -2.9830   -0.5750 N   0  0  0  0  0  0  0  0  0  0  0  0
    1.7420   -3.4590   -1.8470 C   0  0  1  0  0  0  0  0  0  0  0  0
    0.7870   -3.1790   -2.9920 C   0  0  0  0  0  0  0  0  0  0  0  0
   -0.8190   -3.9720   -2.7110 S   0  0  0  0  0  0  0  0  0  0  0  0
    3.0910   -2.9220   -2.1310 C   0  0  0  0  0  0  0  0  0  0  0  0
    3.6350   -2.1480   -1.2790 O   0  0  0  0  0  0  0  0  0  0  0  0
    3.8180   -3.2060   -3.2760 O   0  0  0  0  0  0  0  0  0  0  0  0
    1.1630   -1.9630   -0.3820 H   0  0  0  0  0  0  0  0  0  0  0  0
    1.8550   -4.5850   -1.8540 H   0  0  0  0  0  0  0  0  0  0  0  0
    1.2330   -3.6570   -3.8910 H   0  0  0  0  0  0  0  0  0  0  0  0
    0.5860   -2.1070   -3.1550 H   0  0  0  0  0  0  0  0  0  0  0  0
   -0.6660   -5.3480   -2.8020 H   0  0  0  0  0  0  0  0  0  0  0  0
  1 16  1  0  0  0  0
  2 13  1  0  0  0  0
  2 17  1  1  0  0  0
  2  1  1  0  0  0  0
  3  2  1  0  0  0  0
  4  3  1  0  0  0  0
  5  4  2  0  0  0  0
  5 20  1  0  0  0  0
  6  5  1  0  0  0  0
  7  6  1  0  0  0  0
  7 12  1  0  0  0  0
  8  7  2  0  0  0  0
  9  8  1  0  0  0  0
  9 10  2  0  0  0  0
 10 11  1  0  0  0  0
 11 12  2  0  0  0  0
 11 25  1  0  0  0  0
 12  4  1  0  0  0  0
 13 14  2  0  0  0  0
 15  1  1  0  0  0  0
 18  3  1  0  0  0  0
 19  3  1  0  0  0  0
 21  6  1  0  0  0  0
 22  8  1  0  0  0  0
 23  9  1  0  0  0  0
 24 10  1  0  0  0  0
 26 38  1  0  0  0  0
 26 27  1  0  0  0  0
 27 28  1  0  0  0  0
 28 39  1  0  0  0  0
 28 29  2  0  0  0  0
 29 40  1  0  0  0  0
 30 29  1  0  0  0  0
 30 31  1  0  0  0  0
 31 41  1  0  0  0  0
 31 42  1  0  0  0  0
 32 31  1  0  0  0  0
 32 43  1  1  0  0  0
 33 32  1  0  0  0  0
 33 13  1  0  0  0  0
 34 32  1  0  0  0  0
 35 34  2  0  0  0  0
 36 30  2  0  0  0  0
 37 27  2  0  0  0  0
 37 36  1  0  0  0  0
 44 33  1  0  0  0  0
 45 36  1  0  0  0  0
 46 37  1  0  0  0  0
 47 54  1  0  0  0  0
 47 34  1  0  0  0  0
 48 55  1  1  0  0  0
 48 47  1  0  0  0  0
 49 50  1  0  0  0  0
 49 48  1  0  0  0  0
 51 48  1  0  0  0  0
 51 52  1  0  0  0  0
 53 51  2  0  0  0  0
 56 49  1  0  0  0  0
 57 49  1  0  0  0  0
 58 50  1  0  0  0  0
M  END
$$$$
