WYD.pdb
 OpenBabel07022419193D

 60 62  0  0  1  0  0  0  0  0999 V2000
   -0.0790    1.1460    1.4670 N   0  0  0  0  0  0  0  0  0  0  0  0
    0.4420    0.6090    0.2130 C   0  0  1  0  0  0  0  0  0  0  0  0
    1.9110    0.2740    0.3500 C   0  0  0  0  0  0  0  0  0  0  0  0
    2.7350    1.4550    0.7110 C   0  0  0  0  0  0  0  0  0  0  0  0
    3.2400    1.7460    1.9760 C   0  0  0  0  0  0  0  0  0  0  0  0
    3.9330    2.8920    1.9210 N   0  0  0  0  0  0  0  0  0  0  0  0
    3.9180    3.3870    0.6800 C   0  0  0  0  0  0  0  0  0  0  0  0
    4.4790    4.5210    0.1380 C   0  0  0  0  0  0  0  0  0  0  0  0
    4.3140    4.8060   -1.1950 C   0  0  0  0  0  0  0  0  0  0  0  0
    3.5700    3.9210   -1.9660 C   0  0  0  0  0  0  0  0  0  0  0  0
    3.0040    2.7820   -1.4260 C   0  0  0  0  0  0  0  0  0  0  0  0
    3.1690    2.4960   -0.0940 C   0  0  0  0  0  0  0  0  0  0  0  0
   -0.3410   -0.6460   -0.0880 C   0  0  0  0  0  0  0  0  0  0  0  0
   -0.2190   -1.2460   -1.1810 O   0  0  0  0  0  0  0  0  0  0  0  0
    0.4220    0.7600    2.2790 H   0  0  0  0  0  0  0  0  0  0  0  0
   -0.0840    2.1860    1.4600 H   0  0  0  0  0  0  0  0  0  0  0  0
    0.3050    1.2870   -0.6240 H   0  0  0  0  0  0  0  0  0  0  0  0
    2.3320   -0.1760   -0.5490 H   0  0  0  0  0  0  0  0  0  0  0  0
    1.9980   -0.4640    1.1790 H   0  0  0  0  0  0  0  0  0  0  0  0
    3.0850    1.1280    2.8540 H   0  0  0  0  0  0  0  0  0  0  0  0
    4.4210    3.3430    2.7450 H   0  0  0  0  0  0  0  0  0  0  0  0
    5.0500    5.1980    0.7440 H   0  0  0  0  0  0  0  0  0  0  0  0
    4.7400    5.6980   -1.6790 H   0  0  0  0  0  0  0  0  0  0  0  0
    3.4510    4.1630   -3.0220 H   0  0  0  0  0  0  0  0  0  0  0  0
    2.4320    2.1020   -2.0350 H   0  0  0  0  0  0  0  0  0  0  0  0
   -6.7340    1.7330    0.3760 O   0  0  0  0  0  0  0  0  0  0  0  0
   -5.8000    0.7290    0.1380 C   0  0  0  0  0  0  0  0  0  0  0  0
   -6.0010   -0.5710    0.5190 C   0  0  0  0  0  0  0  0  0  0  0  0
   -5.0380   -1.5040    0.2530 C   0  0  0  0  0  0  0  0  0  0  0  0
   -3.8350   -1.1950   -0.3980 C   0  0  0  0  0  0  0  0  0  0  0  0
   -2.8740   -2.2990   -0.6250 C   0  0  0  0  0  0  0  0  0  0  0  0
   -1.9890   -2.3600    0.6030 C   0  0  2  0  0  0  0  0  0  0  0  0
   -1.2420   -1.1810    0.8670 N   0  0  0  0  0  0  0  0  0  0  0  0
   -1.2250   -3.6340    0.6950 C   0  0  0  0  0  0  0  0  0  0  0  0
   -1.8220   -4.7270    0.5460 O   0  0  0  0  0  0  0  0  0  0  0  0
   -3.6780    0.1040   -0.7570 C   0  0  0  0  0  0  0  0  0  0  0  0
   -4.6160    1.0850   -0.5140 C   0  0  0  0  0  0  0  0  0  0  0  0
   -6.4940    2.6020    0.8500 H   0  0  0  0  0  0  0  0  0  0  0  0
   -6.9110   -0.8350    1.0200 H   0  0  0  0  0  0  0  0  0  0  0  0
   -5.2100   -2.5290    0.5590 H   0  0  0  0  0  0  0  0  0  0  0  0
   -2.3180   -2.2070   -1.5710 H   0  0  0  0  0  0  0  0  0  0  0  0
   -3.4510   -3.2460   -0.6570 H   0  0  0  0  0  0  0  0  0  0  0  0
   -2.7640   -2.4300    1.4320 H   0  0  0  0  0  0  0  0  0  0  0  0
   -1.3190   -0.6410    1.7880 H   0  0  0  0  0  0  0  0  0  0  0  0
   -2.7720    0.3880   -1.2600 H   0  0  0  0  0  0  0  0  0  0  0  0
   -4.4800    2.1210   -0.8060 H   0  0  0  0  0  0  0  0  0  0  0  0
    0.1610   -3.6800    0.9450 N   0  0  0  0  0  0  0  0  0  0  0  0
    1.0610   -4.7470    1.0980 C   0  0  1  0  0  0  0  0  0  0  0  0
    0.5600   -6.1530    0.8930 C   0  0  0  0  0  0  0  0  0  0  0  0
   -0.4430   -6.5340    1.9150 C   0  0  0  0  0  0  0  0  0  0  0  0
   -0.6580   -5.8310    2.9660 O   0  0  0  0  0  0  0  0  0  0  0  0
    2.3900   -4.5280    0.5490 C   0  0  0  0  0  0  0  0  0  0  0  0
    3.2350   -5.4820    0.6920 O   0  0  0  0  0  0  0  0  0  0  0  0
   -1.1860   -7.6970    1.7340 O   0  0  0  0  0  0  0  0  0  0  0  0
    2.8440   -3.4000   -0.1140 O   0  0  0  0  0  0  0  0  0  0  0  0
    0.5900   -2.6910    1.0290 H   0  0  0  0  0  0  0  0  0  0  0  0
    1.2060   -4.7880    2.2720 H   0  0  0  0  0  0  0  0  0  0  0  0
    1.4470   -6.8160    1.0610 H   0  0  0  0  0  0  0  0  0  0  0  0
    0.2360   -6.3490   -0.1480 H   0  0  0  0  0  0  0  0  0  0  0  0
   -1.6550   -8.1780    2.5010 H   0  0  0  0  0  0  0  0  0  0  0  0
  1 15  1  0  0  0  0
  2 17  1  6  0  0  0
  2  3  1  0  0  0  0
  2  1  1  0  0  0  0
  3  4  1  0  0  0  0
  3 19  1  0  0  0  0
  4  5  2  0  0  0  0
  5 20  1  0  0  0  0
  6  5  1  0  0  0  0
  6 21  1  0  0  0  0
  7  6  1  0  0  0  0
  8  7  1  0  0  0  0
  8 22  1  0  0  0  0
  9  8  2  0  0  0  0
 10 11  2  0  0  0  0
 10  9  1  0  0  0  0
 11 12  1  0  0  0  0
 12  7  2  0  0  0  0
 12  4  1  0  0  0  0
 13  2  1  0  0  0  0
 13 33  1  0  0  0  0
 14 13  2  0  0  0  0
 16  1  1  0  0  0  0
 18  3  1  0  0  0  0
 23  9  1  0  0  0  0
 24 10  1  0  0  0  0
 25 11  1  0  0  0  0
 26 38  1  0  0  0  0
 27 26  1  0  0  0  0
 27 28  1  0  0  0  0
 28 39  1  0  0  0  0
 29 28  2  0  0  0  0
 29 40  1  0  0  0  0
 30 29  1  0  0  0  0
 31 30  1  0  0  0  0
 31 32  1  0  0  0  0
 32 34  1  0  0  0  0
 32 33  1  0  0  0  0
 32 43  1  1  0  0  0
 33 44  1  0  0  0  0
 34 47  1  0  0  0  0
 35 34  2  0  0  0  0
 36 37  1  0  0  0  0
 36 30  2  0  0  0  0
 37 27  2  0  0  0  0
 41 31  1  0  0  0  0
 42 31  1  0  0  0  0
 45 36  1  0  0  0  0
 46 37  1  0  0  0  0
 47 56  1  0  0  0  0
 47 48  1  0  0  0  0
 48 57  1  1  0  0  0
 49 58  1  0  0  0  0
 49 48  1  0  0  0  0
 49 50  1  0  0  0  0
 50 51  2  0  0  0  0
 52 53  1  0  0  0  0
 52 48  1  0  0  0  0
 54 50  1  0  0  0  0
 54 60  1  0  0  0  0
 55 52  2  0  0  0  0
 59 49  1  0  0  0  0
M  END
$$$$
