WYF.pdb
 OpenBabel07022419193D

 67 70  0  0  1  0  0  0  0  0999 V2000
    3.2050   -4.4500   -0.3140 N   0  0  0  0  0  0  0  0  0  0  0  0
    3.3350   -3.0360   -0.2080 C   0  0  1  0  0  0  0  0  0  0  0  0
    4.5610   -2.4860   -0.8380 C   0  0  0  0  0  0  0  0  0  0  0  0
    4.7220   -1.0170   -0.7900 C   0  0  0  0  0  0  0  0  0  0  0  0
    5.2930   -0.3410    0.2840 C   0  0  0  0  0  0  0  0  0  0  0  0
    5.2140    0.9720    0.0280 N   0  0  0  0  0  0  0  0  0  0  0  0
    4.6320    1.1690   -1.1460 C   0  0  0  0  0  0  0  0  0  0  0  0
    4.3340    2.3240   -1.8620 C   0  0  0  0  0  0  0  0  0  0  0  0
    3.7400    2.2830   -3.0830 C   0  0  0  0  0  0  0  0  0  0  0  0
    3.4160    1.0370   -3.6440 C   0  0  0  0  0  0  0  0  0  0  0  0
    3.7140   -0.0960   -2.9240 C   0  0  0  0  0  0  0  0  0  0  0  0
    4.3150   -0.0470   -1.6840 C   0  0  0  0  0  0  0  0  0  0  0  0
    2.1080   -2.2430   -0.3790 C   0  0  0  0  0  0  0  0  0  0  0  0
    2.0900   -1.0040   -0.4610 O   0  0  0  0  0  0  0  0  0  0  0  0
    2.5120   -4.8150    0.3410 H   0  0  0  0  0  0  0  0  0  0  0  0
    3.1000   -4.8040   -1.2870 H   0  0  0  0  0  0  0  0  0  0  0  0
    3.5580   -2.9060    0.9490 H   0  0  0  0  0  0  0  0  0  0  0  0
    4.6550   -2.8390   -1.8890 H   0  0  0  0  0  0  0  0  0  0  0  0
    5.4480   -2.9150   -0.2630 H   0  0  0  0  0  0  0  0  0  0  0  0
    5.7050   -0.8480    1.1520 H   0  0  0  0  0  0  0  0  0  0  0  0
    5.5930    1.6770    0.7260 H   0  0  0  0  0  0  0  0  0  0  0  0
    4.5840    3.2630   -1.4190 H   0  0  0  0  0  0  0  0  0  0  0  0
    3.5160    3.2000   -3.6250 H   0  0  0  0  0  0  0  0  0  0  0  0
    2.9420    1.0390   -4.6210 H   0  0  0  0  0  0  0  0  0  0  0  0
    3.4780   -1.0600   -3.3480 H   0  0  0  0  0  0  0  0  0  0  0  0
   -6.2640   -0.2910   -2.6850 O   0  0  0  0  0  0  0  0  0  0  0  0
   -5.0360   -0.9070   -2.3930 C   0  0  0  0  0  0  0  0  0  0  0  0
   -4.8970   -1.6900   -1.2730 C   0  0  0  0  0  0  0  0  0  0  0  0
   -3.6950   -2.2990   -0.9830 C   0  0  0  0  0  0  0  0  0  0  0  0
   -2.5910   -2.1430   -1.8050 C   0  0  0  0  0  0  0  0  0  0  0  0
   -1.3290   -2.8380   -1.5490 C   0  0  0  0  0  0  0  0  0  0  0  0
   -0.3790   -2.1320   -0.6380 C   0  0  2  0  0  0  0  0  0  0  0  0
    0.8420   -2.9310   -0.4580 N   0  0  0  0  0  0  0  0  0  0  0  0
   -0.9690   -1.8650    0.7230 C   0  0  0  0  0  0  0  0  0  0  0  0
   -0.7630   -2.6540    1.6860 O   0  0  0  0  0  0  0  0  0  0  0  0
   -2.7410   -1.3570   -2.9190 C   0  0  0  0  0  0  0  0  0  0  0  0
   -3.9620   -0.7360   -3.2200 C   0  0  0  0  0  0  0  0  0  0  0  0
   -6.9770   -0.1120   -2.0260 H   0  0  0  0  0  0  0  0  0  0  0  0
   -5.7520   -1.8270   -0.6120 H   0  0  0  0  0  0  0  0  0  0  0  0
   -3.5680   -2.9130   -0.0870 H   0  0  0  0  0  0  0  0  0  0  0  0
   -1.4910   -3.8960   -1.1840 H   0  0  0  0  0  0  0  0  0  0  0  0
   -0.8150   -2.9260   -2.5640 H   0  0  0  0  0  0  0  0  0  0  0  0
   -0.0640   -1.1750   -1.0690 H   0  0  0  0  0  0  0  0  0  0  0  0
    0.8280   -3.9500   -0.3790 H   0  0  0  0  0  0  0  0  0  0  0  0
   -1.8840   -1.2210   -3.5800 H   0  0  0  0  0  0  0  0  0  0  0  0
   -4.0250   -0.1340   -4.1130 H   0  0  0  0  0  0  0  0  0  0  0  0
   -1.7510   -0.7220    0.9430 N   0  0  0  0  0  0  0  0  0  0  0  0
   -2.3130   -0.4110    2.2360 C   0  0  1  0  0  0  0  0  0  0  0  0
   -1.1830    0.1500    3.1230 C   0  0  0  0  0  0  0  0  0  0  0  0
   -1.7520    0.5020    4.4330 C   0  0  0  0  0  0  0  0  0  0  0  0
   -1.9620   -0.4100    5.4640 C   0  0  0  0  0  0  0  0  0  0  0  0
   -2.4290   -0.0480    6.7030 C   0  0  0  0  0  0  0  0  0  0  0  0
   -2.7260    1.2720    7.0000 C   0  0  0  0  0  0  0  0  0  0  0  0
   -2.5310    2.2010    5.9980 C   0  0  0  0  0  0  0  0  0  0  0  0
   -2.0620    1.8330    4.7590 C   0  0  0  0  0  0  0  0  0  0  0  0
   -3.3050    0.6390    2.1290 C   0  0  0  0  0  0  0  0  0  0  0  0
   -4.0250    1.1440    3.0080 O   0  0  0  0  0  0  0  0  0  0  0  0
   -3.5130    1.1960    0.8320 O   0  0  0  0  0  0  0  0  0  0  0  0
   -1.9790   -0.0050    0.1750 H   0  0  0  0  0  0  0  0  0  0  0  0
   -2.6720   -1.2950    2.7860 H   0  0  0  0  0  0  0  0  0  0  0  0
   -0.3730   -0.6200    3.2120 H   0  0  0  0  0  0  0  0  0  0  0  0
   -0.7450    1.0390    2.6400 H   0  0  0  0  0  0  0  0  0  0  0  0
   -1.7120   -1.4520    5.2200 H   0  0  0  0  0  0  0  0  0  0  0  0
   -2.5790   -0.8110    7.4750 H   0  0  0  0  0  0  0  0  0  0  0  0
   -3.1020    1.5590    7.9970 H   0  0  0  0  0  0  0  0  0  0  0  0
   -2.7450    3.2420    6.1800 H   0  0  0  0  0  0  0  0  0  0  0  0
   -1.8920    2.5600    3.9460 H   0  0  0  0  0  0  0  0  0  0  0  0
  1  2  1  0  0  0  0
  1 15  1  0  0  0  0
  2 17  1  1  0  0  0
  3  4  1  0  0  0  0
  3 19  1  0  0  0  0
  3  2  1  0  0  0  0
  4  5  2  0  0  0  0
  5 20  1  0  0  0  0
  6  5  1  0  0  0  0
  6 21  1  0  0  0  0
  7  6  1  0  0  0  0
  8 22  1  0  0  0  0
  8  7  2  0  0  0  0
  9  8  1  0  0  0  0
 10  9  2  0  0  0  0
 10 11  1  0  0  0  0
 11 12  2  0  0  0  0
 12  7  1  0  0  0  0
 12  4  1  0  0  0  0
 13  2  1  0  0  0  0
 14 13  2  0  0  0  0
 16  1  1  0  0  0  0
 18  3  1  0  0  0  0
 23  9  1  0  0  0  0
 24 10  1  0  0  0  0
 25 11  1  0  0  0  0
 26 27  1  0  0  0  0
 26 38  1  0  0  0  0
 27 28  1  0  0  0  0
 28 29  2  0  0  0  0
 28 39  1  0  0  0  0
 29 40  1  0  0  0  0
 30 31  1  0  0  0  0
 30 29  1  0  0  0  0
 31 41  1  0  0  0  0
 31 32  1  0  0  0  0
 32 43  1  6  0  0  0
 32 33  1  0  0  0  0
 32 34  1  0  0  0  0
 33 13  1  0  0  0  0
 33 44  1  0  0  0  0
 34 47  1  0  0  0  0
 34 35  2  0  0  0  0
 36 30  2  0  0  0  0
 37 36  1  0  0  0  0
 37 27  2  0  0  0  0
 42 31  1  0  0  0  0
 45 36  1  0  0  0  0
 46 37  1  0  0  0  0
 47 48  1  0  0  0  0
 48 60  1  1  0  0  0
 48 49  1  0  0  0  0
 49 61  1  0  0  0  0
 49 50  1  0  0  0  0
 50 55  2  0  0  0  0
 50 51  1  0  0  0  0
 51 52  2  0  0  0  0
 52 53  1  0  0  0  0
 52 64  1  0  0  0  0
 53 65  1  0  0  0  0
 54 66  1  0  0  0  0
 54 53  2  0  0  0  0
 55 54  1  0  0  0  0
 56 48  1  0  0  0  0
 56 57  1  0  0  0  0
 58 56  2  0  0  0  0
 59 47  1  0  0  0  0
 62 49  1  0  0  0  0
 63 51  1  0  0  0  0
 67 55  1  0  0  0  0
M  END
$$$$
