WYG.pdb
 OpenBabel07022419193D

 54 56  0  0  1  0  0  0  0  0999 V2000
    2.5190   -0.5940    0.0730 N   0  0  0  0  0  0  0  0  0  0  0  0
    2.2180   -1.0840    1.3970 C   0  0  1  0  0  0  0  0  0  0  0  0
    2.3080   -0.0790    2.4910 C   0  0  0  0  0  0  0  0  0  0  0  0
    1.4300    1.0930    2.3750 C   0  0  0  0  0  0  0  0  0  0  0  0
    0.2120    1.3050    3.0270 C   0  0  0  0  0  0  0  0  0  0  0  0
   -0.2690    2.4840    2.6380 N   0  0  0  0  0  0  0  0  0  0  0  0
    0.5820    3.0640    1.7530 C   0  0  0  0  0  0  0  0  0  0  0  0
    0.5110    4.2910    1.0820 C   0  0  0  0  0  0  0  0  0  0  0  0
    1.5160    4.6670    0.2270 C   0  0  0  0  0  0  0  0  0  0  0  0
    2.5680    3.7980    0.0690 C   0  0  0  0  0  0  0  0  0  0  0  0
    2.6590    2.5880    0.7180 C   0  0  0  0  0  0  0  0  0  0  0  0
    1.6380    2.2090    1.5840 C   0  0  0  0  0  0  0  0  0  0  0  0
    0.9430   -1.8240    1.3300 C   0  0  0  0  0  0  0  0  0  0  0  0
    0.4330   -2.2910    2.4060 O   0  0  0  0  0  0  0  0  0  0  0  0
    1.7590   -0.0920   -0.3910 H   0  0  0  0  0  0  0  0  0  0  0  0
    2.9490   -1.3130   -0.5390 H   0  0  0  0  0  0  0  0  0  0  0  0
    3.0770   -1.8150    1.6120 H   0  0  0  0  0  0  0  0  0  0  0  0
    2.0270   -0.5930    3.4490 H   0  0  0  0  0  0  0  0  0  0  0  0
    3.3600    0.2780    2.6520 H   0  0  0  0  0  0  0  0  0  0  0  0
   -0.2240    0.5820    3.7330 H   0  0  0  0  0  0  0  0  0  0  0  0
   -1.1610    2.9240    2.9510 H   0  0  0  0  0  0  0  0  0  0  0  0
   -0.3440    4.9170    1.2570 H   0  0  0  0  0  0  0  0  0  0  0  0
    1.4730    5.6270   -0.3060 H   0  0  0  0  0  0  0  0  0  0  0  0
    3.3610    4.1140   -0.6150 H   0  0  0  0  0  0  0  0  0  0  0  0
    3.4850    1.9140    0.6010 H   0  0  0  0  0  0  0  0  0  0  0  0
   -3.7410    2.5570    2.1210 O   0  0  0  0  0  0  0  0  0  0  0  0
   -3.3450    1.3930    1.4530 C   0  0  0  0  0  0  0  0  0  0  0  0
   -2.4450    1.4130    0.4070 C   0  0  0  0  0  0  0  0  0  0  0  0
   -2.0330    0.2890   -0.2730 C   0  0  0  0  0  0  0  0  0  0  0  0
   -2.5500   -0.9290    0.1120 C   0  0  0  0  0  0  0  0  0  0  0  0
   -2.1880   -2.1860   -0.5470 C   0  0  0  0  0  0  0  0  0  0  0  0
   -1.0240   -2.8050    0.1140 C   0  0  2  0  0  0  0  0  0  0  0  0
    0.1960   -2.0830    0.1550 N   0  0  0  0  0  0  0  0  0  0  0  0
   -0.7180   -4.1790   -0.4450 C   0  0  0  0  0  0  0  0  0  0  0  0
   -1.6430   -4.9950   -0.5720 O   0  0  0  0  0  0  0  0  0  0  0  0
   -3.4530   -0.9890    1.1530 C   0  0  0  0  0  0  0  0  0  0  0  0
   -3.8380    0.1580    1.8070 C   0  0  0  0  0  0  0  0  0  0  0  0
   -4.0500    3.3210    1.5340 H   0  0  0  0  0  0  0  0  0  0  0  0
   -2.0540    2.3870    0.1260 H   0  0  0  0  0  0  0  0  0  0  0  0
   -1.3190    0.3440   -1.0960 H   0  0  0  0  0  0  0  0  0  0  0  0
   -3.0480   -2.8960   -0.4160 H   0  0  0  0  0  0  0  0  0  0  0  0
   -2.0950   -2.0920   -1.6520 H   0  0  0  0  0  0  0  0  0  0  0  0
   -1.3100   -3.0380    1.1850 H   0  0  0  0  0  0  0  0  0  0  0  0
    0.5760   -1.7130   -0.7470 H   0  0  0  0  0  0  0  0  0  0  0  0
   -3.8790   -1.9560    1.4790 H   0  0  0  0  0  0  0  0  0  0  0  0
   -4.5540    0.1070    2.6330 H   0  0  0  0  0  0  0  0  0  0  0  0
    0.5950   -4.5500   -0.8240 N   0  0  0  0  0  0  0  0  0  0  0  0
    0.9380   -5.8480   -1.3590 C   0  0  0  0  0  0  0  0  0  0  0  0
    0.2070   -6.1390   -2.6140 C   0  0  0  0  0  0  0  0  0  0  0  0
   -0.6060   -5.3290   -3.1150 O   0  0  0  0  0  0  0  0  0  0  0  0
    0.4180   -7.3410   -3.2670 O   0  0  0  0  0  0  0  0  0  0  0  0
    1.3280   -3.8250   -0.6980 H   0  0  0  0  0  0  0  0  0  0  0  0
    0.7240   -6.6590   -0.6190 H   0  0  0  0  0  0  0  0  0  0  0  0
    2.0400   -5.8720   -1.5140 H   0  0  0  0  0  0  0  0  0  0  0  0
  1  2  1  0  0  0  0
  2 17  1  1  0  0  0
  2  3  1  0  0  0  0
  3 19  1  0  0  0  0
  3 18  1  0  0  0  0
  4  3  1  0  0  0  0
  4  5  2  0  0  0  0
  5 20  1  0  0  0  0
  6 21  1  0  0  0  0
  6  5  1  0  0  0  0
  7  6  1  0  0  0  0
  8 22  1  0  0  0  0
  8  7  2  0  0  0  0
  9  8  1  0  0  0  0
 10  9  2  0  0  0  0
 10 11  1  0  0  0  0
 11 12  2  0  0  0  0
 12  7  1  0  0  0  0
 12  4  1  0  0  0  0
 13  2  1  0  0  0  0
 13 14  2  0  0  0  0
 15  1  1  0  0  0  0
 16  1  1  0  0  0  0
 23  9  1  0  0  0  0
 24 10  1  0  0  0  0
 25 11  1  0  0  0  0
 27 37  1  0  0  0  0
 27 26  1  0  0  0  0
 28 27  2  0  0  0  0
 29 30  2  0  0  0  0
 29 28  1  0  0  0  0
 30 36  1  0  0  0  0
 31 41  1  0  0  0  0
 31 30  1  0  0  0  0
 31 32  1  0  0  0  0
 32 33  1  0  0  0  0
 32 43  1  1  0  0  0
 33 13  1  0  0  0  0
 34 32  1  0  0  0  0
 35 34  2  0  0  0  0
 36 45  1  0  0  0  0
 36 37  2  0  0  0  0
 37 46  1  0  0  0  0
 38 26  1  0  0  0  0
 39 28  1  0  0  0  0
 40 29  1  0  0  0  0
 42 31  1  0  0  0  0
 44 33  1  0  0  0  0
 47 52  1  0  0  0  0
 47 34  1  0  0  0  0
 48 47  1  0  0  0  0
 48 53  1  0  0  0  0
 49 48  1  0  0  0  0
 50 49  1  0  0  0  0
 51 49  2  0  0  0  0
 54 48  1  0  0  0  0
M  END
$$$$
