WYH.pdb
 OpenBabel07022419193D

 64 67  0  0  1  0  0  0  0  0999 V2000
    2.4990    1.6670    1.4420 N   0  0  0  0  0  0  0  0  0  0  0  0
    1.1690    2.1020    1.9200 C   0  0  1  0  0  0  0  0  0  0  0  0
    0.8830    3.3830    1.2380 C   0  0  0  0  0  0  0  0  0  0  0  0
   -0.3880    4.0510    1.5240 C   0  0  0  0  0  0  0  0  0  0  0  0
   -0.6000    5.0900    2.4540 C   0  0  0  0  0  0  0  0  0  0  0  0
   -1.8940    5.4080    2.4380 N   0  0  0  0  0  0  0  0  0  0  0  0
   -2.5580    4.6400    1.5490 C   0  0  0  0  0  0  0  0  0  0  0  0
   -3.8750    4.5810    1.1610 C   0  0  0  0  0  0  0  0  0  0  0  0
   -4.3060    3.6960    0.2020 C   0  0  0  0  0  0  0  0  0  0  0  0
   -3.3900    2.8580   -0.3730 C   0  0  0  0  0  0  0  0  0  0  0  0
   -2.0800    2.8980   -0.0020 C   0  0  0  0  0  0  0  0  0  0  0  0
   -1.6270    3.8000    0.9800 C   0  0  0  0  0  0  0  0  0  0  0  0
    0.2050    1.0200    1.7040 C   0  0  0  0  0  0  0  0  0  0  0  0
   -0.9140    1.0380    2.2790 O   0  0  0  0  0  0  0  0  0  0  0  0
    3.2490    2.1300    2.0050 H   0  0  0  0  0  0  0  0  0  0  0  0
    2.6360    1.8860    0.4480 H   0  0  0  0  0  0  0  0  0  0  0  0
    1.3400    2.2990    3.0080 H   0  0  0  0  0  0  0  0  0  0  0  0
    0.8640    3.1540    0.1250 H   0  0  0  0  0  0  0  0  0  0  0  0
    1.7270    4.1230    1.3480 H   0  0  0  0  0  0  0  0  0  0  0  0
    0.1970    5.5190    3.0620 H   0  0  0  0  0  0  0  0  0  0  0  0
   -2.3790    6.1530    3.0330 H   0  0  0  0  0  0  0  0  0  0  0  0
   -4.5790    5.2700    1.6440 H   0  0  0  0  0  0  0  0  0  0  0  0
   -5.3720    3.6840   -0.0780 H   0  0  0  0  0  0  0  0  0  0  0  0
   -3.7110    2.1640   -1.1200 H   0  0  0  0  0  0  0  0  0  0  0  0
   -1.3040    2.2500   -0.4360 H   0  0  0  0  0  0  0  0  0  0  0  0
   -5.1710   -5.1100   -1.3940 O   0  0  0  0  0  0  0  0  0  0  0  0
   -4.2390   -4.0760   -1.1760 C   0  0  0  0  0  0  0  0  0  0  0  0
   -4.5240   -2.9910   -0.3790 C   0  0  0  0  0  0  0  0  0  0  0  0
   -3.5870   -1.9970   -0.1870 C   0  0  0  0  0  0  0  0  0  0  0  0
   -2.3250   -2.0300   -0.7730 C   0  0  0  0  0  0  0  0  0  0  0  0
   -1.3400   -0.9460   -0.5850 C   0  0  0  0  0  0  0  0  0  0  0  0
   -0.5340   -1.1600    0.6810 C   0  0  2  0  0  0  0  0  0  0  0  0
    0.4500   -0.1090    0.8510 N   0  0  0  0  0  0  0  0  0  0  0  0
    0.0060   -2.5220    0.8100 C   0  0  0  0  0  0  0  0  0  0  0  0
   -0.8110   -3.4800    0.7990 O   0  0  0  0  0  0  0  0  0  0  0  0
   -2.0500   -3.1350   -1.5780 C   0  0  0  0  0  0  0  0  0  0  0  0
   -2.9990   -4.1110   -1.7550 C   0  0  0  0  0  0  0  0  0  0  0  0
   -5.9880   -5.0960   -0.7960 H   0  0  0  0  0  0  0  0  0  0  0  0
   -5.4820   -2.9130    0.1020 H   0  0  0  0  0  0  0  0  0  0  0  0
   -3.8080   -1.1290    0.4470 H   0  0  0  0  0  0  0  0  0  0  0  0
   -0.7450   -0.8040   -1.4820 H   0  0  0  0  0  0  0  0  0  0  0  0
   -1.9510   -0.0120   -0.4360 H   0  0  0  0  0  0  0  0  0  0  0  0
   -1.2940   -1.0130    1.5020 H   0  0  0  0  0  0  0  0  0  0  0  0
    1.3760   -0.1160    0.3760 H   0  0  0  0  0  0  0  0  0  0  0  0
   -1.0620   -3.1910   -2.0600 H   0  0  0  0  0  0  0  0  0  0  0  0
   -2.7560   -4.9630   -2.3910 H   0  0  0  0  0  0  0  0  0  0  0  0
    1.3930   -2.8270    0.9450 N   0  0  0  0  0  0  0  0  0  0  0  0
    1.8510   -4.1780    1.0610 C   0  0  1  0  0  0  0  0  0  0  0  0
    2.4230   -4.6950   -0.2500 C   0  0  0  0  0  0  0  0  0  0  0  0
    3.5740   -3.8940   -0.7300 C   0  0  0  0  0  0  0  0  0  0  0  0
    3.4840   -2.7960   -1.5560 C   0  0  0  0  0  0  0  0  0  0  0  0
    4.7560   -2.3740   -1.7460 N   0  0  0  0  0  0  0  0  0  0  0  0
    5.6090   -3.1680   -1.0710 C   0  0  0  0  0  0  0  0  0  0  0  0
    4.8660   -4.0940   -0.4530 N   0  0  0  0  0  0  0  0  0  0  0  0
    2.7040   -4.4650    2.2220 C   0  0  0  0  0  0  0  0  0  0  0  0
    3.1420   -5.6390    2.3780 O   0  0  0  0  0  0  0  0  0  0  0  0
    3.0550   -3.5170    3.1590 O   0  0  0  0  0  0  0  0  0  0  0  0
    2.0910   -2.0540    0.9600 H   0  0  0  0  0  0  0  0  0  0  0  0
    0.9190   -4.8220    1.1870 H   0  0  0  0  0  0  0  0  0  0  0  0
    2.6850   -5.7600   -0.0740 H   0  0  0  0  0  0  0  0  0  0  0  0
    1.5880   -4.7060   -0.9810 H   0  0  0  0  0  0  0  0  0  0  0  0
    2.6230   -2.3170   -2.0010 H   0  0  0  0  0  0  0  0  0  0  0  0
    5.0520   -1.5400   -2.3420 H   0  0  0  0  0  0  0  0  0  0  0  0
    6.7060   -3.0520   -1.0510 H   0  0  0  0  0  0  0  0  0  0  0  0
  1  2  1  0  0  0  0
  1 15  1  0  0  0  0
  2 17  1  1  0  0  0
  3 19  1  0  0  0  0
  3  4  1  0  0  0  0
  3  2  1  0  0  0  0
  4  5  2  0  0  0  0
  5 20  1  0  0  0  0
  6  5  1  0  0  0  0
  6 21  1  0  0  0  0
  7  6  1  0  0  0  0
  8  7  1  0  0  0  0
  8 22  1  0  0  0  0
  9  8  2  0  0  0  0
 10 11  2  0  0  0  0
 10  9  1  0  0  0  0
 11 12  1  0  0  0  0
 12  4  1  0  0  0  0
 12  7  2  0  0  0  0
 13  2  1  0  0  0  0
 13 14  2  0  0  0  0
 16  1  1  0  0  0  0
 18  3  1  0  0  0  0
 23  9  1  0  0  0  0
 24 10  1  0  0  0  0
 25 11  1  0  0  0  0
 26 27  1  0  0  0  0
 26 38  1  0  0  0  0
 27 28  1  0  0  0  0
 28 29  2  0  0  0  0
 28 39  1  0  0  0  0
 29 40  1  0  0  0  0
 30 31  1  0  0  0  0
 30 29  1  0  0  0  0
 31 42  1  0  0  0  0
 31 32  1  0  0  0  0
 32 34  1  0  0  0  0
 32 33  1  0  0  0  0
 32 43  1  1  0  0  0
 33 13  1  0  0  0  0
 34 47  1  0  0  0  0
 35 34  2  0  0  0  0
 36 30  2  0  0  0  0
 37 36  1  0  0  0  0
 37 27  2  0  0  0  0
 41 31  1  0  0  0  0
 44 33  1  0  0  0  0
 45 36  1  0  0  0  0
 46 37  1  0  0  0  0
 47 58  1  0  0  0  0
 47 48  1  0  0  0  0
 48 59  1  1  0  0  0
 48 55  1  0  0  0  0
 49 60  1  0  0  0  0
 49 48  1  0  0  0  0
 50 54  1  0  0  0  0
 50 49  1  0  0  0  0
 51 50  2  0  0  0  0
 52 51  1  0  0  0  0
 52 53  1  0  0  0  0
 53 64  1  0  0  0  0
 53 54  2  0  0  0  0
 55 56  2  0  0  0  0
 55 57  1  0  0  0  0
 61 49  1  0  0  0  0
 62 51  1  0  0  0  0
 63 52  1  0  0  0  0
M  END
$$$$
