WYL.pdb
 OpenBabel07022419193D

 66 68  0  0  1  0  0  0  0  0999 V2000
    1.3210   -1.6310    4.7740 N   0  0  0  0  0  0  0  0  0  0  0  0
    1.4580   -0.3340    4.0800 C   0  0  1  0  0  0  0  0  0  0  0  0
    2.8910   -0.0090    3.9690 C   0  0  0  0  0  0  0  0  0  0  0  0
    3.1500    1.2470    3.2730 C   0  0  0  0  0  0  0  0  0  0  0  0
    3.1840    2.4940    3.9030 C   0  0  0  0  0  0  0  0  0  0  0  0
    3.3820    3.4060    2.9630 N   0  0  0  0  0  0  0  0  0  0  0  0
    3.4800    2.8240    1.7550 C   0  0  0  0  0  0  0  0  0  0  0  0
    3.7030    3.3520    0.5000 C   0  0  0  0  0  0  0  0  0  0  0  0
    3.7880    2.5190   -0.5990 C   0  0  0  0  0  0  0  0  0  0  0  0
    3.6450    1.1660   -0.4020 C   0  0  0  0  0  0  0  0  0  0  0  0
    3.4240    0.6200    0.8270 C   0  0  0  0  0  0  0  0  0  0  0  0
    3.3390    1.4790    1.9240 C   0  0  0  0  0  0  0  0  0  0  0  0
    0.7140   -0.3090    2.8240 C   0  0  0  0  0  0  0  0  0  0  0  0
    0.6410    0.7830    2.1710 O   0  0  0  0  0  0  0  0  0  0  0  0
    0.3300   -1.8670    4.9290 H   0  0  0  0  0  0  0  0  0  0  0  0
    1.8830   -2.3580    4.3020 H   0  0  0  0  0  0  0  0  0  0  0  0
    0.9370    0.3720    4.8100 H   0  0  0  0  0  0  0  0  0  0  0  0
    3.4760   -0.8320    3.4450 H   0  0  0  0  0  0  0  0  0  0  0  0
    3.4000    0.0410    4.9760 H   0  0  0  0  0  0  0  0  0  0  0  0
    3.0670    2.6560    4.9630 H   0  0  0  0  0  0  0  0  0  0  0  0
    3.4580    4.4450    3.0940 H   0  0  0  0  0  0  0  0  0  0  0  0
    3.8140    4.4200    0.3590 H   0  0  0  0  0  0  0  0  0  0  0  0
    3.9610    2.8850   -1.6120 H   0  0  0  0  0  0  0  0  0  0  0  0
    3.7100    0.4860   -1.2590 H   0  0  0  0  0  0  0  0  0  0  0  0
    3.3160   -0.4240    1.0240 H   0  0  0  0  0  0  0  0  0  0  0  0
   -5.7440   -0.3800    4.8240 O   0  0  0  0  0  0  0  0  0  0  0  0
   -4.7610   -0.3950    3.8700 C   0  0  0  0  0  0  0  0  0  0  0  0
   -3.6400    0.4080    4.0530 C   0  0  0  0  0  0  0  0  0  0  0  0
   -2.6080    0.4290    3.1080 C   0  0  0  0  0  0  0  0  0  0  0  0
   -2.7080   -0.3490    1.9990 C   0  0  0  0  0  0  0  0  0  0  0  0
   -1.6850   -0.4110    0.9650 C   0  0  0  0  0  0  0  0  0  0  0  0
   -0.6860   -1.5400    1.1430 C   0  0  2  0  0  0  0  0  0  0  0  0
    0.0770   -1.4780    2.3370 N   0  0  0  0  0  0  0  0  0  0  0  0
    0.0750   -1.7640   -0.0940 C   0  0  0  0  0  0  0  0  0  0  0  0
    1.3350   -1.8900   -0.0470 O   0  0  0  0  0  0  0  0  0  0  0  0
   -3.8390   -1.1640    1.8060 C   0  0  0  0  0  0  0  0  0  0  0  0
   -4.8490   -1.1780    2.7400 C   0  0  0  0  0  0  0  0  0  0  0  0
   -6.6680   -0.0140    4.6080 H   0  0  0  0  0  0  0  0  0  0  0  0
   -3.5890    1.0150    4.9440 H   0  0  0  0  0  0  0  0  0  0  0  0
   -1.7660    1.0600    3.2690 H   0  0  0  0  0  0  0  0  0  0  0  0
   -1.2150    0.5790    0.8310 H   0  0  0  0  0  0  0  0  0  0  0  0
   -2.2010   -0.6040   -0.0180 H   0  0  0  0  0  0  0  0  0  0  0  0
   -1.3850   -2.4520    1.2160 H   0  0  0  0  0  0  0  0  0  0  0  0
    0.1970   -2.3520    2.9280 H   0  0  0  0  0  0  0  0  0  0  0  0
   -3.9350   -1.7850    0.9350 H   0  0  0  0  0  0  0  0  0  0  0  0
   -5.7050   -1.8150    2.5610 H   0  0  0  0  0  0  0  0  0  0  0  0
   -1.5090   -4.8120   -4.5780 C   0  0  0  0  0  0  0  0  0  0  0  0
   -1.4310   -3.4770   -3.8360 C   0  0  0  0  0  0  0  0  0  0  0  0
   -1.9720   -2.4310   -4.7410 C   0  0  0  0  0  0  0  0  0  0  0  0
   -0.0510   -3.2990   -3.3400 C   0  0  0  0  0  0  0  0  0  0  0  0
    0.2670   -2.0720   -2.5870 C   0  0  2  0  0  0  0  0  0  0  0  0
   -0.4860   -1.8570   -1.3820 N   0  0  0  0  0  0  0  0  0  0  0  0
    0.2060   -0.8930   -3.4810 C   0  0  0  0  0  0  0  0  0  0  0  0
    0.8130   -0.9350   -4.5810 O   0  0  0  0  0  0  0  0  0  0  0  0
   -0.4830    0.2670   -3.1840 O   0  0  0  0  0  0  0  0  0  0  0  0
   -1.7040   -4.6380   -5.6540 H   0  0  0  0  0  0  0  0  0  0  0  0
   -0.5050   -5.3260   -4.5570 H   0  0  0  0  0  0  0  0  0  0  0  0
   -2.2970   -5.4730   -4.1900 H   0  0  0  0  0  0  0  0  0  0  0  0
   -2.1440   -3.5870   -2.9750 H   0  0  0  0  0  0  0  0  0  0  0  0
   -1.3590   -2.2340   -5.6340 H   0  0  0  0  0  0  0  0  0  0  0  0
   -2.9370   -2.8540   -5.1610 H   0  0  0  0  0  0  0  0  0  0  0  0
   -2.2790   -1.4980   -4.2530 H   0  0  0  0  0  0  0  0  0  0  0  0
    0.6280   -3.3010   -4.2450 H   0  0  0  0  0  0  0  0  0  0  0  0
    0.2540   -4.2450   -2.8030 H   0  0  0  0  0  0  0  0  0  0  0  0
    1.3580   -2.1540   -2.2940 H   0  0  0  0  0  0  0  0  0  0  0  0
   -1.5170   -1.7690   -1.4930 H   0  0  0  0  0  0  0  0  0  0  0  0
  1 15  1  0  0  0  0
  2  1  1  0  0  0  0
  2 17  1  1  0  0  0
  3  2  1  0  0  0  0
  3 19  1  0  0  0  0
  4  5  2  0  0  0  0
  4  3  1  0  0  0  0
  5 20  1  0  0  0  0
  6 21  1  0  0  0  0
  6  5  1  0  0  0  0
  7 12  1  0  0  0  0
  7  6  1  0  0  0  0
  8  7  2  0  0  0  0
  9 10  2  0  0  0  0
  9  8  1  0  0  0  0
 10 11  1  0  0  0  0
 11 25  1  0  0  0  0
 11 12  2  0  0  0  0
 12  4  1  0  0  0  0
 13  2  1  0  0  0  0
 14 13  2  0  0  0  0
 16  1  1  0  0  0  0
 18  3  1  0  0  0  0
 22  8  1  0  0  0  0
 23  9  1  0  0  0  0
 24 10  1  0  0  0  0
 27 28  1  0  0  0  0
 27 26  1  0  0  0  0
 28 39  1  0  0  0  0
 29 40  1  0  0  0  0
 29 28  2  0  0  0  0
 30 29  1  0  0  0  0
 31 32  1  0  0  0  0
 31 30  1  0  0  0  0
 32 43  1  1  0  0  0
 32 33  1  0  0  0  0
 33 13  1  0  0  0  0
 33 44  1  0  0  0  0
 34 35  2  0  0  0  0
 34 32  1  0  0  0  0
 36 30  2  0  0  0  0
 36 37  1  0  0  0  0
 37 27  2  0  0  0  0
 38 26  1  0  0  0  0
 41 31  1  0  0  0  0
 42 31  1  0  0  0  0
 45 36  1  0  0  0  0
 46 37  1  0  0  0  0
 47 57  1  0  0  0  0
 47 58  1  0  0  0  0
 47 48  1  0  0  0  0
 48 50  1  0  0  0  0
 48 59  1  0  0  0  0
 49 62  1  0  0  0  0
 49 48  1  0  0  0  0
 50 64  1  0  0  0  0
 50 51  1  0  0  0  0
 51 65  1  1  0  0  0
 51 52  1  0  0  0  0
 52 34  1  0  0  0  0
 53 55  1  0  0  0  0
 53 51  1  0  0  0  0
 54 53  2  0  0  0  0
 56 47  1  0  0  0  0
 60 49  1  0  0  0  0
 61 49  1  0  0  0  0
 63 50  1  0  0  0  0
 66 52  1  0  0  0  0
M  END
$$$$
