WYM.pdb
 OpenBabel07022419193D

 64 66  0  0  1  0  0  0  0  0999 V2000
    1.1170   -2.6040    1.8740 N   0  0  0  0  0  0  0  0  0  0  0  0
    1.9300   -1.4310    1.5410 C   0  0  1  0  0  0  0  0  0  0  0  0
    3.2720   -1.9340    1.1790 C   0  0  0  0  0  0  0  0  0  0  0  0
    4.2080   -0.8670    0.7970 C   0  0  0  0  0  0  0  0  0  0  0  0
    5.0700   -0.2030    1.6800 C   0  0  0  0  0  0  0  0  0  0  0  0
    5.7300    0.7290    0.9820 N   0  0  0  0  0  0  0  0  0  0  0  0
    5.3570    0.7240   -0.3250 C   0  0  0  0  0  0  0  0  0  0  0  0
    5.7580    1.4720   -1.4180 C   0  0  0  0  0  0  0  0  0  0  0  0
    5.2030    1.2230   -2.6550 C   0  0  0  0  0  0  0  0  0  0  0  0
    4.2550    0.2350   -2.8060 C   0  0  0  0  0  0  0  0  0  0  0  0
    3.8720   -0.4940   -1.7060 C   0  0  0  0  0  0  0  0  0  0  0  0
    4.4050   -0.2790   -0.4300 C   0  0  0  0  0  0  0  0  0  0  0  0
    1.2440   -0.5070    0.6580 C   0  0  0  0  0  0  0  0  0  0  0  0
    1.7450    0.5830    0.2850 O   0  0  0  0  0  0  0  0  0  0  0  0
    1.3330   -3.4060    1.2430 H   0  0  0  0  0  0  0  0  0  0  0  0
    1.3770   -2.8830    2.8590 H   0  0  0  0  0  0  0  0  0  0  0  0
    2.0840   -0.8550    2.5250 H   0  0  0  0  0  0  0  0  0  0  0  0
    3.2590   -2.6930    0.3570 H   0  0  0  0  0  0  0  0  0  0  0  0
    3.6880   -2.4430    2.1030 H   0  0  0  0  0  0  0  0  0  0  0  0
    5.1440   -0.4440    2.7260 H   0  0  0  0  0  0  0  0  0  0  0  0
    6.4540    1.3960    1.3750 H   0  0  0  0  0  0  0  0  0  0  0  0
    6.4910    2.2420   -1.3300 H   0  0  0  0  0  0  0  0  0  0  0  0
    5.5050    1.8030   -3.5410 H   0  0  0  0  0  0  0  0  0  0  0  0
    3.8070    0.0250   -3.7730 H   0  0  0  0  0  0  0  0  0  0  0  0
    3.1210   -1.2960   -1.7560 H   0  0  0  0  0  0  0  0  0  0  0  0
   -5.0410   -4.7670   -1.2240 O   0  0  0  0  0  0  0  0  0  0  0  0
   -4.1150   -3.7650   -1.3910 C   0  0  0  0  0  0  0  0  0  0  0  0
   -2.7580   -4.0050   -1.4570 C   0  0  0  0  0  0  0  0  0  0  0  0
   -1.8670   -2.9800   -1.6240 C   0  0  0  0  0  0  0  0  0  0  0  0
   -2.3030   -1.6850   -1.7300 C   0  0  0  0  0  0  0  0  0  0  0  0
   -1.3520   -0.5700   -1.9330 C   0  0  0  0  0  0  0  0  0  0  0  0
   -0.8060    0.0640   -0.7170 C   0  0  2  0  0  0  0  0  0  0  0  0
   -0.0760   -0.7880    0.1510 N   0  0  0  0  0  0  0  0  0  0  0  0
   -1.7280    0.9820    0.0020 C   0  0  0  0  0  0  0  0  0  0  0  0
   -2.5690    1.6830   -0.6080 O   0  0  0  0  0  0  0  0  0  0  0  0
   -3.6510   -1.4220   -1.6660 C   0  0  0  0  0  0  0  0  0  0  0  0
   -4.5450   -2.4510   -1.4980 C   0  0  0  0  0  0  0  0  0  0  0  0
   -5.9610   -4.6070   -0.8480 H   0  0  0  0  0  0  0  0  0  0  0  0
   -2.4660   -5.0520   -1.3670 H   0  0  0  0  0  0  0  0  0  0  0  0
   -0.8180   -3.2010   -1.6710 H   0  0  0  0  0  0  0  0  0  0  0  0
   -1.8600    0.1400   -2.6240 H   0  0  0  0  0  0  0  0  0  0  0  0
   -0.5000   -0.9760   -2.5520 H   0  0  0  0  0  0  0  0  0  0  0  0
   -0.0050    0.8090   -1.1100 H   0  0  0  0  0  0  0  0  0  0  0  0
   -0.4850   -1.7040    0.4750 H   0  0  0  0  0  0  0  0  0  0  0  0
   -4.0250   -0.3800   -1.7460 H   0  0  0  0  0  0  0  0  0  0  0  0
   -5.6250   -2.2410   -1.4460 H   0  0  0  0  0  0  0  0  0  0  0  0
   -3.6590   -2.7300    2.3480 C   0  0  0  0  0  0  0  0  0  0  0  0
   -2.8190   -1.1260    2.4880 S   0  0  0  0  0  0  0  0  0  0  0  0
   -3.8950    0.1350    3.1700 C   0  0  0  0  0  0  0  0  0  0  0  0
   -3.1210    1.4110    3.3340 C   0  0  0  0  0  0  0  0  0  0  0  0
   -2.5700    1.9970    2.0780 C   0  0  2  0  0  0  0  0  0  0  0  0
   -1.6720    1.0940    1.4330 N   0  0  0  0  0  0  0  0  0  0  0  0
   -1.8450    3.2550    2.4960 C   0  0  0  0  0  0  0  0  0  0  0  0
   -2.5140    4.1410    3.0650 O   0  0  0  0  0  0  0  0  0  0  0  0
   -0.5120    3.4360    2.2710 O   0  0  0  0  0  0  0  0  0  0  0  0
   -4.4920   -2.7870    3.0830 H   0  0  0  0  0  0  0  0  0  0  0  0
   -2.8970   -3.5190    2.4930 H   0  0  0  0  0  0  0  0  0  0  0  0
   -4.0360   -2.8050    1.3110 H   0  0  0  0  0  0  0  0  0  0  0  0
   -4.2950   -0.1320    4.1790 H   0  0  0  0  0  0  0  0  0  0  0  0
   -4.7700    0.3470    2.5190 H   0  0  0  0  0  0  0  0  0  0  0  0
   -2.2470    1.1570    4.0170 H   0  0  0  0  0  0  0  0  0  0  0  0
   -3.7200    2.1490    3.9230 H   0  0  0  0  0  0  0  0  0  0  0  0
   -3.4160    2.3140    1.4140 H   0  0  0  0  0  0  0  0  0  0  0  0
   -0.9870    0.5290    1.9630 H   0  0  0  0  0  0  0  0  0  0  0  0
  1 16  1  0  0  0  0
  2  1  1  0  0  0  0
  2 17  1  1  0  0  0
  3  2  1  0  0  0  0
  3 19  1  0  0  0  0
  4  3  1  0  0  0  0
  4  5  2  0  0  0  0
  5 20  1  0  0  0  0
  6 21  1  0  0  0  0
  6  5  1  0  0  0  0
  7  6  1  0  0  0  0
  8 22  1  0  0  0  0
  8  7  2  0  0  0  0
  9  8  1  0  0  0  0
 10  9  2  0  0  0  0
 10 11  1  0  0  0  0
 11 12  2  0  0  0  0
 12  7  1  0  0  0  0
 12  4  1  0  0  0  0
 13  2  1  0  0  0  0
 14 13  2  0  0  0  0
 15  1  1  0  0  0  0
 18  3  1  0  0  0  0
 23  9  1  0  0  0  0
 24 10  1  0  0  0  0
 25 11  1  0  0  0  0
 26 38  1  0  0  0  0
 27 26  1  0  0  0  0
 28 27  1  0  0  0  0
 28 39  1  0  0  0  0
 29 28  2  0  0  0  0
 30 36  2  0  0  0  0
 30 29  1  0  0  0  0
 31 30  1  0  0  0  0
 31 32  1  0  0  0  0
 32 43  1  6  0  0  0
 32 34  1  0  0  0  0
 32 33  1  0  0  0  0
 33 44  1  0  0  0  0
 33 13  1  0  0  0  0
 34 52  1  0  0  0  0
 35 34  2  0  0  0  0
 36 37  1  0  0  0  0
 37 46  1  0  0  0  0
 37 27  2  0  0  0  0
 40 29  1  0  0  0  0
 41 31  1  0  0  0  0
 42 31  1  0  0  0  0
 45 36  1  0  0  0  0
 47 48  1  0  0  0  0
 47 57  1  0  0  0  0
 47 56  1  0  0  0  0
 48 49  1  0  0  0  0
 49 50  1  0  0  0  0
 49 59  1  0  0  0  0
 50 62  1  0  0  0  0
 50 61  1  0  0  0  0
 51 63  1  6  0  0  0
 51 53  1  0  0  0  0
 51 50  1  0  0  0  0
 52 64  1  0  0  0  0
 52 51  1  0  0  0  0
 53 54  1  0  0  0  0
 55 53  2  0  0  0  0
 58 47  1  0  0  0  0
 60 49  1  0  0  0  0
M  END
$$$$
