WYN.pdb
 OpenBabel07022419193D

 61 63  0  0  1  0  0  0  0  0999 V2000
    2.2940   -0.2330    0.9320 N   0  0  0  0  0  0  0  0  0  0  0  0
    1.8750    0.3900   -0.3010 C   0  0  1  0  0  0  0  0  0  0  0  0
    2.8060   -0.0690   -1.4110 C   0  0  0  0  0  0  0  0  0  0  0  0
    4.1700    0.3760   -1.0410 C   0  0  0  0  0  0  0  0  0  0  0  0
    5.2210   -0.3140   -0.5090 C   0  0  0  0  0  0  0  0  0  0  0  0
    6.2770    0.5410   -0.3320 N   0  0  0  0  0  0  0  0  0  0  0  0
    5.9280    1.7760   -0.7410 C   0  0  0  0  0  0  0  0  0  0  0  0
    6.5870    2.9820   -0.7830 C   0  0  0  0  0  0  0  0  0  0  0  0
    5.9770    4.1380   -1.2620 C   0  0  0  0  0  0  0  0  0  0  0  0
    4.6830    4.0520   -1.7000 C   0  0  0  0  0  0  0  0  0  0  0  0
    4.0240    2.8430   -1.6570 C   0  0  0  0  0  0  0  0  0  0  0  0
    4.6140    1.6920   -1.1860 C   0  0  0  0  0  0  0  0  0  0  0  0
    0.4680    0.0390   -0.5820 C   0  0  0  0  0  0  0  0  0  0  0  0
   -0.1820    0.6440   -1.5000 O   0  0  0  0  0  0  0  0  0  0  0  0
    2.3920   -1.2680    0.8530 H   0  0  0  0  0  0  0  0  0  0  0  0
    1.7540    0.0750    1.7560 H   0  0  0  0  0  0  0  0  0  0  0  0
    1.9470    1.4920   -0.1540 H   0  0  0  0  0  0  0  0  0  0  0  0
    2.5510    0.3910   -2.3650 H   0  0  0  0  0  0  0  0  0  0  0  0
    2.7780   -1.1750   -1.5010 H   0  0  0  0  0  0  0  0  0  0  0  0
    5.1930   -1.3720   -0.2750 H   0  0  0  0  0  0  0  0  0  0  0  0
    7.2020    0.3000    0.0540 H   0  0  0  0  0  0  0  0  0  0  0  0
    7.6040    3.0440   -0.4400 H   0  0  0  0  0  0  0  0  0  0  0  0
    6.5340    5.0890   -1.2830 H   0  0  0  0  0  0  0  0  0  0  0  0
    4.1760    4.9260   -2.0770 H   0  0  0  0  0  0  0  0  0  0  0  0
    2.9850    2.7430   -2.0010 H   0  0  0  0  0  0  0  0  0  0  0  0
   -7.2160   -3.6310   -2.2630 O   0  0  0  0  0  0  0  0  0  0  0  0
   -5.8730   -3.3570   -1.9660 C   0  0  0  0  0  0  0  0  0  0  0  0
   -5.2630   -3.9150   -0.8730 C   0  0  0  0  0  0  0  0  0  0  0  0
   -3.9380   -3.6460   -0.5780 C   0  0  0  0  0  0  0  0  0  0  0  0
   -3.1640   -2.8050   -1.3650 C   0  0  0  0  0  0  0  0  0  0  0  0
   -1.7550   -2.5310   -1.0390 C   0  0  0  0  0  0  0  0  0  0  0  0
   -1.6650   -1.2540   -0.2360 C   0  0  2  0  0  0  0  0  0  0  0  0
   -0.2770   -0.9630    0.1000 N   0  0  0  0  0  0  0  0  0  0  0  0
   -2.5410   -1.2550    0.9380 C   0  0  0  0  0  0  0  0  0  0  0  0
   -3.7850   -1.3950    0.8200 O   0  0  0  0  0  0  0  0  0  0  0  0
   -3.7920   -2.2440   -2.4730 C   0  0  0  0  0  0  0  0  0  0  0  0
   -5.1180   -2.5190   -2.7590 C   0  0  0  0  0  0  0  0  0  0  0  0
   -7.9500   -3.4800   -1.5690 H   0  0  0  0  0  0  0  0  0  0  0  0
   -5.8580   -4.5870   -0.2360 H   0  0  0  0  0  0  0  0  0  0  0  0
   -3.4620   -4.0820    0.2780 H   0  0  0  0  0  0  0  0  0  0  0  0
   -1.3170   -3.3920   -0.5010 H   0  0  0  0  0  0  0  0  0  0  0  0
   -1.2330   -2.3410   -2.0150 H   0  0  0  0  0  0  0  0  0  0  0  0
   -2.0070   -0.4540   -0.9280 H   0  0  0  0  0  0  0  0  0  0  0  0
    0.1880   -1.4960    0.8550 H   0  0  0  0  0  0  0  0  0  0  0  0
   -3.1970   -1.5880   -3.0940 H   0  0  0  0  0  0  0  0  0  0  0  0
   -5.6030   -2.0870   -3.6190 H   0  0  0  0  0  0  0  0  0  0  0  0
   -1.0970   -3.2950    5.8550 N   0  0  0  0  0  0  0  0  0  0  0  0
   -1.4220   -2.2450    4.9650 C   0  0  0  0  0  0  0  0  0  0  0  0
   -0.5400   -1.3770    4.7780 O   0  0  0  0  0  0  0  0  0  0  0  0
   -2.7600   -2.2600    4.3380 C   0  0  0  0  0  0  0  0  0  0  0  0
   -2.9820   -1.1260    3.3690 C   0  0  2  0  0  0  0  0  0  0  0  0
   -2.0820   -1.1040    2.2770 N   0  0  0  0  0  0  0  0  0  0  0  0
   -2.9370    0.1420    4.1240 C   0  0  0  0  0  0  0  0  0  0  0  0
   -3.6450    0.3700    5.1300 O   0  0  0  0  0  0  0  0  0  0  0  0
   -2.0700    1.1310    3.7010 O   0  0  0  0  0  0  0  0  0  0  0  0
   -0.6620   -3.0660    6.7630 H   0  0  0  0  0  0  0  0  0  0  0  0
   -1.3060   -4.2660    5.5760 H   0  0  0  0  0  0  0  0  0  0  0  0
   -2.9780   -3.2510    3.8580 H   0  0  0  0  0  0  0  0  0  0  0  0
   -3.5220   -2.1480    5.1380 H   0  0  0  0  0  0  0  0  0  0  0  0
   -4.0570   -1.2540    3.0380 H   0  0  0  0  0  0  0  0  0  0  0  0
   -1.0670   -0.9740    2.4280 H   0  0  0  0  0  0  0  0  0  0  0  0
  1 16  1  0  0  0  0
  2 17  1  1  0  0  0
  2  1  1  0  0  0  0
  3  4  1  0  0  0  0
  3  2  1  0  0  0  0
  4  5  2  0  0  0  0
  5  6  1  0  0  0  0
  5 20  1  0  0  0  0
  6 21  1  0  0  0  0
  7  6  1  0  0  0  0
  8  7  1  0  0  0  0
  8 22  1  0  0  0  0
  9  8  2  0  0  0  0
 10 11  2  0  0  0  0
 10  9  1  0  0  0  0
 11 12  1  0  0  0  0
 12  4  1  0  0  0  0
 12  7  2  0  0  0  0
 13  2  1  0  0  0  0
 13 33  1  0  0  0  0
 14 13  2  0  0  0  0
 15  1  1  0  0  0  0
 18  3  1  0  0  0  0
 19  3  1  0  0  0  0
 23  9  1  0  0  0  0
 24 10  1  0  0  0  0
 25 11  1  0  0  0  0
 26 27  1  0  0  0  0
 26 38  1  0  0  0  0
 27 28  1  0  0  0  0
 28 29  2  0  0  0  0
 28 39  1  0  0  0  0
 29 40  1  0  0  0  0
 30 31  1  0  0  0  0
 30 29  1  0  0  0  0
 31 41  1  0  0  0  0
 31 32  1  0  0  0  0
 32 43  1  6  0  0  0
 32 33  1  0  0  0  0
 32 34  1  0  0  0  0
 33 44  1  0  0  0  0
 34 52  1  0  0  0  0
 35 34  2  0  0  0  0
 36 30  2  0  0  0  0
 37 36  1  0  0  0  0
 37 27  2  0  0  0  0
 42 31  1  0  0  0  0
 45 36  1  0  0  0  0
 46 37  1  0  0  0  0
 47 56  1  0  0  0  0
 48 47  1  0  0  0  0
 49 48  2  0  0  0  0
 50 48  1  0  0  0  0
 50 59  1  0  0  0  0
 51 60  1  6  0  0  0
 51 53  1  0  0  0  0
 51 50  1  0  0  0  0
 52 61  1  0  0  0  0
 52 51  1  0  0  0  0
 53 54  1  0  0  0  0
 55 53  2  0  0  0  0
 57 47  1  0  0  0  0
 58 50  1  0  0  0  0
M  END
$$$$
