WYP.pdb
 OpenBabel07022419193D

 61 64  0  0  1  0  0  0  0  0999 V2000
    1.8740    0.4070    4.1200 N   0  0  0  0  0  0  0  0  0  0  0  0
    0.9290    0.8330    3.0870 C   0  0  1  0  0  0  0  0  0  0  0  0
    1.3460    2.0490    2.3960 C   0  0  0  0  0  0  0  0  0  0  0  0
    2.6250    2.0900    1.6990 C   0  0  0  0  0  0  0  0  0  0  0  0
    3.8100    2.5390    2.3330 C   0  0  0  0  0  0  0  0  0  0  0  0
    4.7860    2.4150    1.4410 N   0  0  0  0  0  0  0  0  0  0  0  0
    4.3300    1.9250    0.2910 C   0  0  0  0  0  0  0  0  0  0  0  0
    4.9140    1.6310   -0.9290 C   0  0  0  0  0  0  0  0  0  0  0  0
    4.1670    1.1450   -1.9740 C   0  0  0  0  0  0  0  0  0  0  0  0
    2.8270    0.9320   -1.8560 C   0  0  0  0  0  0  0  0  0  0  0  0
    2.2460    1.2250   -0.6360 C   0  0  0  0  0  0  0  0  0  0  0  0
    2.9670    1.7150    0.4370 C   0  0  0  0  0  0  0  0  0  0  0  0
    0.2950   -0.2820    2.3790 C   0  0  0  0  0  0  0  0  0  0  0  0
    0.4370   -1.4870    2.7920 O   0  0  0  0  0  0  0  0  0  0  0  0
    2.7930    0.1330    3.7120 H   0  0  0  0  0  0  0  0  0  0  0  0
    1.4470   -0.3030    4.7350 H   0  0  0  0  0  0  0  0  0  0  0  0
    0.0460    1.2140    3.7910 H   0  0  0  0  0  0  0  0  0  0  0  0
    0.4890    2.3530    1.7110 H   0  0  0  0  0  0  0  0  0  0  0  0
    1.3250    2.8950    3.1730 H   0  0  0  0  0  0  0  0  0  0  0  0
    3.8800    2.9070    3.3450 H   0  0  0  0  0  0  0  0  0  0  0  0
    5.7960    2.6620    1.5990 H   0  0  0  0  0  0  0  0  0  0  0  0
    5.9840    1.8010   -1.0340 H   0  0  0  0  0  0  0  0  0  0  0  0
    4.6540    0.9270   -2.9160 H   0  0  0  0  0  0  0  0  0  0  0  0
    2.2150    0.5490   -2.6640 H   0  0  0  0  0  0  0  0  0  0  0  0
    1.1870    1.0740   -0.5290 H   0  0  0  0  0  0  0  0  0  0  0  0
   -6.4910    1.9940    2.0660 O   0  0  0  0  0  0  0  0  0  0  0  0
   -5.4510    1.2580    1.5050 C   0  0  0  0  0  0  0  0  0  0  0  0
   -5.4650   -0.1360    1.6040 C   0  0  0  0  0  0  0  0  0  0  0  0
   -4.4150   -0.8440    1.0350 C   0  0  0  0  0  0  0  0  0  0  0  0
   -3.3630   -0.2610    0.3820 C   0  0  0  0  0  0  0  0  0  0  0  0
   -2.2460   -1.0010   -0.2580 C   0  0  0  0  0  0  0  0  0  0  0  0
   -1.1130   -1.3410    0.6150 C   0  0  2  0  0  0  0  0  0  0  0  0
   -0.5020   -0.1390    1.2210 N   0  0  0  0  0  0  0  0  0  0  0  0
   -0.0440   -2.1420   -0.0530 C   0  0  0  0  0  0  0  0  0  0  0  0
    1.1470   -1.6660    0.1110 O   0  0  0  0  0  0  0  0  0  0  0  0
   -3.3600    1.1140    0.2900 C   0  0  0  0  0  0  0  0  0  0  0  0
   -4.3990    1.8550    0.8520 C   0  0  0  0  0  0  0  0  0  0  0  0
   -6.5640    2.9790    1.8090 H   0  0  0  0  0  0  0  0  0  0  0  0
   -6.2410   -0.6700    2.0940 H   0  0  0  0  0  0  0  0  0  0  0  0
   -4.4460   -1.9390    1.1220 H   0  0  0  0  0  0  0  0  0  0  0  0
   -2.7230   -1.9620   -0.6050 H   0  0  0  0  0  0  0  0  0  0  0  0
   -1.9820   -0.4560   -1.1860 H   0  0  0  0  0  0  0  0  0  0  0  0
   -1.4340   -1.9880    1.4610 H   0  0  0  0  0  0  0  0  0  0  0  0
   -0.6610    0.7900    0.8260 H   0  0  0  0  0  0  0  0  0  0  0  0
   -2.5960    1.6870   -0.2000 H   0  0  0  0  0  0  0  0  0  0  0  0
   -4.3970    2.9380    0.7800 H   0  0  0  0  0  0  0  0  0  0  0  0
   -0.1720   -3.3060   -0.8100 N   0  0  0  0  0  0  0  0  0  0  0  0
    1.0510   -3.9560   -1.3790 C   0  0  0  0  0  0  0  0  0  0  0  0
    0.6550   -5.4180   -1.2290 C   0  0  0  0  0  0  0  0  0  0  0  0
   -0.6910   -5.3350   -1.9690 C   0  0  0  0  0  0  0  0  0  0  0  0
   -1.2720   -4.1090   -1.2380 C   0  0  1  0  0  0  0  0  0  0  0  0
   -2.0950   -4.6940   -0.1520 C   0  0  0  0  0  0  0  0  0  0  0  0
   -1.8040   -4.5950    1.0420 O   0  0  0  0  0  0  0  0  0  0  0  0
   -3.2490   -5.3810   -0.5800 O   0  0  0  0  0  0  0  0  0  0  0  0
    1.9460   -3.6940   -0.8130 H   0  0  0  0  0  0  0  0  0  0  0  0
    1.1110   -3.7500   -2.4660 H   0  0  0  0  0  0  0  0  0  0  0  0
    0.4110   -5.6660   -0.1820 H   0  0  0  0  0  0  0  0  0  0  0  0
    1.3450   -6.1070   -1.7030 H   0  0  0  0  0  0  0  0  0  0  0  0
   -1.3060   -6.2170   -1.8520 H   0  0  0  0  0  0  0  0  0  0  0  0
   -0.4440   -5.0410   -3.0050 H   0  0  0  0  0  0  0  0  0  0  0  0
   -1.8600   -3.5440   -1.9890 H   0  0  0  0  0  0  0  0  0  0  0  0
  1 16  1  0  0  0  0
  2 17  1  1  0  0  0
  2  1  1  0  0  0  0
  3  2  1  0  0  0  0
  3 19  1  0  0  0  0
  4  5  2  0  0  0  0
  4  3  1  0  0  0  0
  5 20  1  0  0  0  0
  6 21  1  0  0  0  0
  6  5  1  0  0  0  0
  7 12  1  0  0  0  0
  7  6  1  0  0  0  0
  8  7  2  0  0  0  0
  9 10  2  0  0  0  0
  9  8  1  0  0  0  0
 10 11  1  0  0  0  0
 11 25  1  0  0  0  0
 11 12  2  0  0  0  0
 12  4  1  0  0  0  0
 13 14  2  0  0  0  0
 13  2  1  0  0  0  0
 15  1  1  0  0  0  0
 18  3  1  0  0  0  0
 22  8  1  0  0  0  0
 23  9  1  0  0  0  0
 24 10  1  0  0  0  0
 27 28  1  0  0  0  0
 27 26  1  0  0  0  0
 28 39  1  0  0  0  0
 29 40  1  0  0  0  0
 29 28  2  0  0  0  0
 30 29  1  0  0  0  0
 31 30  1  0  0  0  0
 31 32  1  0  0  0  0
 32 33  1  0  0  0  0
 32 43  1  1  0  0  0
 33 13  1  0  0  0  0
 34 35  2  0  0  0  0
 34 32  1  0  0  0  0
 36 30  2  0  0  0  0
 36 37  1  0  0  0  0
 37 27  2  0  0  0  0
 38 26  1  0  0  0  0
 41 31  1  0  0  0  0
 42 31  1  0  0  0  0
 44 33  1  0  0  0  0
 45 36  1  0  0  0  0
 46 37  1  0  0  0  0
 47 34  1  0  0  0  0
 48 49  1  0  0  0  0
 48 55  1  0  0  0  0
 48 47  1  0  0  0  0
 49 57  1  0  0  0  0
 50 59  1  0  0  0  0
 50 51  1  0  0  0  0
 50 49  1  0  0  0  0
 51 61  1  6  0  0  0
 51 47  1  0  0  0  0
 51 52  1  0  0  0  0
 52 53  1  0  0  0  0
 54 52  2  0  0  0  0
 56 48  1  0  0  0  0
 58 49  1  0  0  0  0
 60 50  1  0  0  0  0
M  END
$$$$
