WYQ.pdb
 OpenBabel07022419193D

 64 66  0  0  1  0  0  0  0  0999 V2000
    0.5730   -1.2740    4.3270 N   0  0  0  0  0  0  0  0  0  0  0  0
    0.1580   -0.4180    3.2090 C   0  0  1  0  0  0  0  0  0  0  0  0
    1.4570   -0.1040    2.4630 C   0  0  0  0  0  0  0  0  0  0  0  0
    2.4230    0.6000    3.3580 C   0  0  0  0  0  0  0  0  0  0  0  0
    3.5410    0.0710    3.9720 C   0  0  0  0  0  0  0  0  0  0  0  0
    4.1300    1.0440    4.6900 N   0  0  0  0  0  0  0  0  0  0  0  0
    3.4440    2.1900    4.5730 C   0  0  0  0  0  0  0  0  0  0  0  0
    3.5940    3.4760    5.0840 C   0  0  0  0  0  0  0  0  0  0  0  0
    2.7120    4.4860    4.7870 C   0  0  0  0  0  0  0  0  0  0  0  0
    1.6450    4.2210    3.9580 C   0  0  0  0  0  0  0  0  0  0  0  0
    1.4820    2.9440    3.4420 C   0  0  0  0  0  0  0  0  0  0  0  0
    2.3710    1.9220    3.7390 C   0  0  0  0  0  0  0  0  0  0  0  0
   -0.6410   -1.2510    2.2620 C   0  0  0  0  0  0  0  0  0  0  0  0
   -0.8200   -2.4950    2.4930 O   0  0  0  0  0  0  0  0  0  0  0  0
    1.2570   -1.9790    3.9630 H   0  0  0  0  0  0  0  0  0  0  0  0
   -0.2330   -1.7030    4.8150 H   0  0  0  0  0  0  0  0  0  0  0  0
   -0.3420    0.4880    3.5440 H   0  0  0  0  0  0  0  0  0  0  0  0
    1.9560   -1.0200    2.1320 H   0  0  0  0  0  0  0  0  0  0  0  0
    1.2910    0.5420    1.5840 H   0  0  0  0  0  0  0  0  0  0  0  0
    3.8620   -0.9770    3.8660 H   0  0  0  0  0  0  0  0  0  0  0  0
    4.9880    0.9240    5.2510 H   0  0  0  0  0  0  0  0  0  0  0  0
    4.4480    3.6510    5.7350 H   0  0  0  0  0  0  0  0  0  0  0  0
    2.8290    5.4800    5.1830 H   0  0  0  0  0  0  0  0  0  0  0  0
    0.9250    5.0050    3.7030 H   0  0  0  0  0  0  0  0  0  0  0  0
    0.6470    2.7220    2.7890 H   0  0  0  0  0  0  0  0  0  0  0  0
   -6.6950   -4.0210   -3.4120 O   0  0  0  0  0  0  0  0  0  0  0  0
   -5.8890   -3.3110   -2.5200 C   0  0  0  0  0  0  0  0  0  0  0  0
   -5.5970   -3.7680   -1.2600 C   0  0  0  0  0  0  0  0  0  0  0  0
   -4.7980   -3.0360   -0.4130 C   0  0  0  0  0  0  0  0  0  0  0  0
   -4.2560   -1.8070   -0.7970 C   0  0  0  0  0  0  0  0  0  0  0  0
   -3.4290   -1.0430    0.1500 C   0  0  0  0  0  0  0  0  0  0  0  0
   -1.9960   -1.4490    0.1500 C   0  0  2  0  0  0  0  0  0  0  0  0
   -1.2130   -0.6780    1.0960 N   0  0  0  0  0  0  0  0  0  0  0  0
   -1.4350   -1.4420   -1.1990 C   0  0  0  0  0  0  0  0  0  0  0  0
   -1.9930   -2.1470   -2.0650 O   0  0  0  0  0  0  0  0  0  0  0  0
   -4.5480   -1.3440   -2.0620 C   0  0  0  0  0  0  0  0  0  0  0  0
   -5.3570   -2.1000   -2.9020 C   0  0  0  0  0  0  0  0  0  0  0  0
   -7.4550   -3.6340   -3.9260 H   0  0  0  0  0  0  0  0  0  0  0  0
   -6.0090   -4.7150   -0.9490 H   0  0  0  0  0  0  0  0  0  0  0  0
   -4.5540   -3.3740    0.5810 H   0  0  0  0  0  0  0  0  0  0  0  0
   -3.8780   -1.1200    1.1840 H   0  0  0  0  0  0  0  0  0  0  0  0
   -3.4510    0.0450   -0.1110 H   0  0  0  0  0  0  0  0  0  0  0  0
   -1.9730   -2.5190    0.5100 H   0  0  0  0  0  0  0  0  0  0  0  0
   -1.0550    0.3330    0.9290 H   0  0  0  0  0  0  0  0  0  0  0  0
   -4.1500   -0.4010   -2.3860 H   0  0  0  0  0  0  0  0  0  0  0  0
   -5.5810   -1.7270   -3.8980 H   0  0  0  0  0  0  0  0  0  0  0  0
    3.6130   -1.4730   -0.0570 N   0  0  0  0  0  0  0  0  0  0  0  0
    2.5280   -1.8120   -0.9310 C   0  0  0  0  0  0  0  0  0  0  0  0
    1.5180   -2.3860   -0.4960 O   0  0  0  0  0  0  0  0  0  0  0  0
    2.6680   -1.4570   -2.3420 C   0  0  0  0  0  0  0  0  0  0  0  0
    1.4360   -1.4950   -3.1710 C   0  0  0  0  0  0  0  0  0  0  0  0
    0.3360   -0.5700   -2.8240 C   0  0  2  0  0  0  0  0  0  0  0  0
   -0.2770   -0.6600   -1.5570 N   0  0  0  0  0  0  0  0  0  0  0  0
   -0.6180   -0.5210   -3.9530 C   0  0  0  0  0  0  0  0  0  0  0  0
   -1.8360   -0.4420   -3.8100 O   0  0  0  0  0  0  0  0  0  0  0  0
   -0.0960   -0.5670   -5.2440 O   0  0  0  0  0  0  0  0  0  0  0  0
    3.6560   -0.4450    0.1950 H   0  0  0  0  0  0  0  0  0  0  0  0
    4.3010   -2.1580    0.3010 H   0  0  0  0  0  0  0  0  0  0  0  0
    3.4750   -2.1110   -2.8050 H   0  0  0  0  0  0  0  0  0  0  0  0
    3.1500   -0.4410   -2.3610 H   0  0  0  0  0  0  0  0  0  0  0  0
    1.7510   -1.3550   -4.2530 H   0  0  0  0  0  0  0  0  0  0  0  0
    1.0930   -2.5800   -3.1730 H   0  0  0  0  0  0  0  0  0  0  0  0
    0.8360    0.4980   -2.8050 H   0  0  0  0  0  0  0  0  0  0  0  0
    0.0820   -0.1140   -0.6990 H   0  0  0  0  0  0  0  0  0  0  0  0
  1 16  1  0  0  0  0
  2 17  1  1  0  0  0
  2  1  1  0  0  0  0
  3  2  1  0  0  0  0
  3  4  1  0  0  0  0
  4 12  1  0  0  0  0
  4  5  2  0  0  0  0
  5  6  1  0  0  0  0
  6 21  1  0  0  0  0
  7  6  1  0  0  0  0
  7  8  1  0  0  0  0
  8 22  1  0  0  0  0
  9  8  2  0  0  0  0
  9 23  1  0  0  0  0
 10  9  1  0  0  0  0
 11 12  1  0  0  0  0
 11 10  2  0  0  0  0
 12  7  2  0  0  0  0
 13 14  2  0  0  0  0
 13  2  1  0  0  0  0
 15  1  1  0  0  0  0
 18  3  1  0  0  0  0
 19  3  1  0  0  0  0
 20  5  1  0  0  0  0
 24 10  1  0  0  0  0
 25 11  1  0  0  0  0
 26 27  1  0  0  0  0
 27 28  1  0  0  0  0
 28 39  1  0  0  0  0
 28 29  2  0  0  0  0
 29 40  1  0  0  0  0
 30 29  1  0  0  0  0
 30 31  1  0  0  0  0
 31 32  1  0  0  0  0
 31 41  1  0  0  0  0
 32 43  1  1  0  0  0
 32 33  1  0  0  0  0
 33 13  1  0  0  0  0
 34 32  1  0  0  0  0
 35 34  2  0  0  0  0
 36 30  2  0  0  0  0
 37 27  2  0  0  0  0
 37 36  1  0  0  0  0
 38 26  1  0  0  0  0
 42 31  1  0  0  0  0
 44 33  1  0  0  0  0
 45 36  1  0  0  0  0
 46 37  1  0  0  0  0
 47 57  1  0  0  0  0
 47 58  1  0  0  0  0
 48 49  2  0  0  0  0
 48 47  1  0  0  0  0
 50 48  1  0  0  0  0
 51 52  1  0  0  0  0
 51 50  1  0  0  0  0
 52 63  1  6  0  0  0
 52 53  1  0  0  0  0
 53 34  1  0  0  0  0
 53 64  1  0  0  0  0
 54 55  1  0  0  0  0
 54 52  1  0  0  0  0
 56 54  2  0  0  0  0
 59 50  1  0  0  0  0
 60 50  1  0  0  0  0
 61 51  1  0  0  0  0
 62 51  1  0  0  0  0
M  END
$$$$
