WYR.pdb
 OpenBabel07022419193D

 70 72  0  0  1  0  0  0  0  0999 V2000
    4.5900   -1.7970   -1.0130 N   0  0  0  0  0  0  0  0  0  0  0  0
    3.2440   -2.0960   -0.4240 C   0  0  1  0  0  0  0  0  0  0  0  0
    3.3090   -1.5260    0.9230 C   0  0  0  0  0  0  0  0  0  0  0  0
    2.1830   -1.6600    1.8190 C   0  0  0  0  0  0  0  0  0  0  0  0
    1.3100   -0.6690    2.2000 C   0  0  0  0  0  0  0  0  0  0  0  0
    0.4350   -1.1820    3.0570 N   0  0  0  0  0  0  0  0  0  0  0  0
    0.7190   -2.4990    3.2460 C   0  0  0  0  0  0  0  0  0  0  0  0
    0.1320   -3.4950    4.0260 C   0  0  0  0  0  0  0  0  0  0  0  0
    0.6540   -4.7880    4.0180 C   0  0  0  0  0  0  0  0  0  0  0  0
    1.7570   -5.0590    3.2270 C   0  0  0  0  0  0  0  0  0  0  0  0
    2.3520   -4.1020    2.4540 C   0  0  0  0  0  0  0  0  0  0  0  0
    1.8150   -2.8210    2.4780 C   0  0  0  0  0  0  0  0  0  0  0  0
    2.2810   -1.6710   -1.3950 C   0  0  0  0  0  0  0  0  0  0  0  0
    2.7160   -1.4010   -2.5780 O   0  0  0  0  0  0  0  0  0  0  0  0
    4.6950   -2.3120   -1.9130 H   0  0  0  0  0  0  0  0  0  0  0  0
    5.3220   -2.0970   -0.3360 H   0  0  0  0  0  0  0  0  0  0  0  0
    3.2540   -3.2260   -0.4310 H   0  0  0  0  0  0  0  0  0  0  0  0
    3.6470   -0.4620    0.8310 H   0  0  0  0  0  0  0  0  0  0  0  0
    4.1930   -2.0180    1.4420 H   0  0  0  0  0  0  0  0  0  0  0  0
    1.3280    0.3610    1.8540 H   0  0  0  0  0  0  0  0  0  0  0  0
   -0.3610   -0.7460    3.5570 H   0  0  0  0  0  0  0  0  0  0  0  0
   -0.7160   -3.2460    4.6220 H   0  0  0  0  0  0  0  0  0  0  0  0
    0.1830   -5.5350    4.6270 H   0  0  0  0  0  0  0  0  0  0  0  0
    2.1850   -6.0650    3.2050 H   0  0  0  0  0  0  0  0  0  0  0  0
    3.2050   -4.2690    1.8300 H   0  0  0  0  0  0  0  0  0  0  0  0
   -4.2190   -3.9260    1.4350 O   0  0  0  0  0  0  0  0  0  0  0  0
   -3.3610   -3.5370    0.4010 C   0  0  0  0  0  0  0  0  0  0  0  0
   -3.7950   -2.6120   -0.5120 C   0  0  0  0  0  0  0  0  0  0  0  0
   -2.9790   -2.1910   -1.5600 C   0  0  0  0  0  0  0  0  0  0  0  0
   -1.7130   -2.7210   -1.6710 C   0  0  0  0  0  0  0  0  0  0  0  0
   -0.8410   -2.2880   -2.7610 C   0  0  0  0  0  0  0  0  0  0  0  0
    0.0530   -1.0940   -2.3790 C   0  0  2  0  0  0  0  0  0  0  0  0
    0.8650   -1.4950   -1.2660 N   0  0  0  0  0  0  0  0  0  0  0  0
   -0.7040    0.1460   -2.3290 C   0  0  0  0  0  0  0  0  0  0  0  0
   -1.2950    0.4600   -3.4540 O   0  0  0  0  0  0  0  0  0  0  0  0
   -1.2850   -3.6510   -0.7470 C   0  0  0  0  0  0  0  0  0  0  0  0
   -2.1070   -4.0650    0.2950 C   0  0  0  0  0  0  0  0  0  0  0  0
   -4.8470   -3.2680    1.8790 H   0  0  0  0  0  0  0  0  0  0  0  0
   -4.7990   -2.2140   -0.3960 H   0  0  0  0  0  0  0  0  0  0  0  0
   -3.3380   -1.4750   -2.2540 H   0  0  0  0  0  0  0  0  0  0  0  0
   -1.4550   -1.9880   -3.6360 H   0  0  0  0  0  0  0  0  0  0  0  0
   -0.1400   -3.0890   -3.0880 H   0  0  0  0  0  0  0  0  0  0  0  0
    0.7540   -1.0270   -3.2770 H   0  0  0  0  0  0  0  0  0  0  0  0
    0.4770   -1.6810   -0.3270 H   0  0  0  0  0  0  0  0  0  0  0  0
   -0.2990   -4.1050   -0.7800 H   0  0  0  0  0  0  0  0  0  0  0  0
   -1.7670   -4.7970    1.0210 H   0  0  0  0  0  0  0  0  0  0  0  0
   -1.8830    1.1340    2.2540 N   0  0  0  0  0  0  0  0  0  0  0  0
   -1.1250    2.3220    2.3140 C   0  0  0  0  0  0  0  0  0  0  0  0
   -0.0490    2.4100    3.0360 N   0  0  0  0  0  0  0  0  0  0  0  0
   -1.5570    3.4550    1.5790 N   0  0  0  0  0  0  0  0  0  0  0  0
   -0.6930    4.3080    0.8710 C   0  0  0  0  0  0  0  0  0  0  0  0
   -0.0410    3.8680   -0.3810 C   0  0  0  0  0  0  0  0  0  0  0  0
   -0.9140    3.4930   -1.5160 C   0  0  0  0  0  0  0  0  0  0  0  0
   -1.6880    2.2560   -1.3570 C   0  0  2  0  0  0  0  0  0  0  0  0
   -0.8850    1.0350   -1.2590 N   0  0  0  0  0  0  0  0  0  0  0  0
   -2.8820    2.1740   -2.2150 C   0  0  0  0  0  0  0  0  0  0  0  0
   -3.4070    1.2040   -2.7510 O   0  0  0  0  0  0  0  0  0  0  0  0
   -3.5310    3.4210   -2.4630 O   0  0  0  0  0  0  0  0  0  0  0  0
   -2.6900    1.0340    2.9100 H   0  0  0  0  0  0  0  0  0  0  0  0
   -1.6950    0.3490    1.6000 H   0  0  0  0  0  0  0  0  0  0  0  0
    0.3250    1.6380    3.6080 H   0  0  0  0  0  0  0  0  0  0  0  0
   -2.5970    3.6840    1.5600 H   0  0  0  0  0  0  0  0  0  0  0  0
   -1.1600    5.3300    0.6830 H   0  0  0  0  0  0  0  0  0  0  0  0
    0.1560    4.5850    1.5870 H   0  0  0  0  0  0  0  0  0  0  0  0
    0.7190    3.0710   -0.1900 H   0  0  0  0  0  0  0  0  0  0  0  0
    0.5910    4.7440   -0.7330 H   0  0  0  0  0  0  0  0  0  0  0  0
   -0.3100    3.5210   -2.4640 H   0  0  0  0  0  0  0  0  0  0  0  0
   -1.6740    4.3240   -1.7040 H   0  0  0  0  0  0  0  0  0  0  0  0
   -2.1940    2.2890   -0.3080 H   0  0  0  0  0  0  0  0  0  0  0  0
   -0.4050    0.7830   -0.3610 H   0  0  0  0  0  0  0  0  0  0  0  0
  1  2  1  0  0  0  0
  1 16  1  0  0  0  0
  2 17  1  1  0  0  0
  2  3  1  0  0  0  0
  3 19  1  0  0  0  0
  3  4  1  0  0  0  0
  4  5  2  0  0  0  0
  4 12  1  0  0  0  0
  5  6  1  0  0  0  0
  6  7  1  0  0  0  0
  6 21  1  0  0  0  0
  7  8  1  0  0  0  0
  8 22  1  0  0  0  0
  9  8  2  0  0  0  0
  9 23  1  0  0  0  0
 10  9  1  0  0  0  0
 11 12  1  0  0  0  0
 11 10  2  0  0  0  0
 12  7  2  0  0  0  0
 13 33  1  0  0  0  0
 13  2  1  0  0  0  0
 14 13  2  0  0  0  0
 15  1  1  0  0  0  0
 18  3  1  0  0  0  0
 20  5  1  0  0  0  0
 24 10  1  0  0  0  0
 25 11  1  0  0  0  0
 26 38  1  0  0  0  0
 27 26  1  0  0  0  0
 28 39  1  0  0  0  0
 28 27  2  0  0  0  0
 29 28  1  0  0  0  0
 30 29  2  0  0  0  0
 30 36  1  0  0  0  0
 31 32  1  0  0  0  0
 31 30  1  0  0  0  0
 32 43  1  6  0  0  0
 32 34  1  0  0  0  0
 32 33  1  0  0  0  0
 33 44  1  0  0  0  0
 34 55  1  0  0  0  0
 35 34  2  0  0  0  0
 36 37  2  0  0  0  0
 37 27  1  0  0  0  0
 37 46  1  0  0  0  0
 40 29  1  0  0  0  0
 41 31  1  0  0  0  0
 42 31  1  0  0  0  0
 45 36  1  0  0  0  0
 47 48  1  0  0  0  0
 47 59  1  0  0  0  0
 48 49  2  0  0  0  0
 49 61  1  0  0  0  0
 50 48  1  0  0  0  0
 51 50  1  0  0  0  0
 51 64  1  0  0  0  0
 52 65  1  0  0  0  0
 52 51  1  0  0  0  0
 53 54  1  0  0  0  0
 53 52  1  0  0  0  0
 54 55  1  0  0  0  0
 54 69  1  1  0  0  0
 55 70  1  0  0  0  0
 56 54  1  0  0  0  0
 57 56  2  0  0  0  0
 58 56  1  0  0  0  0
 60 47  1  0  0  0  0
 62 50  1  0  0  0  0
 63 51  1  0  0  0  0
 66 52  1  0  0  0  0
 67 53  1  0  0  0  0
 68 53  1  0  0  0  0
M  END
$$$$
