WYT.pdb
 OpenBabel07022419193D

 61 63  0  0  1  0  0  0  0  0999 V2000
    0.6010    0.9670    1.2750 N   0  0  0  0  0  0  0  0  0  0  0  0
    0.6190    0.2500    2.5150 C   0  0  1  0  0  0  0  0  0  0  0  0
    0.1370    1.0800    3.6530 C   0  0  0  0  0  0  0  0  0  0  0  0
    0.9890    2.2900    3.8160 C   0  0  0  0  0  0  0  0  0  0  0  0
    2.0570    2.4320    4.7040 C   0  0  0  0  0  0  0  0  0  0  0  0
    2.5870    3.6470    4.5310 N   0  0  0  0  0  0  0  0  0  0  0  0
    1.9350    4.3230    3.5810 C   0  0  0  0  0  0  0  0  0  0  0  0
    2.1090    5.6100    3.0610 C   0  0  0  0  0  0  0  0  0  0  0  0
    1.2490    6.0310    2.0750 C   0  0  0  0  0  0  0  0  0  0  0  0
    0.2400    5.2010    1.6120 C   0  0  0  0  0  0  0  0  0  0  0  0
    0.0870    3.9420    2.1350 C   0  0  0  0  0  0  0  0  0  0  0  0
    0.9330    3.4900    3.1240 C   0  0  0  0  0  0  0  0  0  0  0  0
   -0.0220   -1.0840    2.4650 C   0  0  0  0  0  0  0  0  0  0  0  0
    0.0290   -1.8150    3.5070 O   0  0  0  0  0  0  0  0  0  0  0  0
    1.4380    1.6050    1.1930 H   0  0  0  0  0  0  0  0  0  0  0  0
    0.5470    0.3490    0.4180 H   0  0  0  0  0  0  0  0  0  0  0  0
    1.7100    0.0370    2.7220 H   0  0  0  0  0  0  0  0  0  0  0  0
    0.2040    0.5170    4.6120 H   0  0  0  0  0  0  0  0  0  0  0  0
   -0.9170    1.4080    3.5420 H   0  0  0  0  0  0  0  0  0  0  0  0
    2.3680    1.6630    5.3970 H   0  0  0  0  0  0  0  0  0  0  0  0
    3.4160    4.0300    5.0730 H   0  0  0  0  0  0  0  0  0  0  0  0
    2.9070    6.1890    3.4680 H   0  0  0  0  0  0  0  0  0  0  0  0
    1.3840    7.0150    1.6780 H   0  0  0  0  0  0  0  0  0  0  0  0
   -0.3980    5.6060    0.8320 H   0  0  0  0  0  0  0  0  0  0  0  0
   -0.6970    3.3320    1.7680 H   0  0  0  0  0  0  0  0  0  0  0  0
   -4.4230   -0.6170   -3.6900 O   0  0  0  0  0  0  0  0  0  0  0  0
   -4.0200   -1.1700   -2.4670 C   0  0  0  0  0  0  0  0  0  0  0  0
   -3.8420   -0.3840   -1.3460 C   0  0  0  0  0  0  0  0  0  0  0  0
   -3.4450   -0.9230   -0.1410 C   0  0  0  0  0  0  0  0  0  0  0  0
   -3.2260   -2.2740   -0.0680 C   0  0  0  0  0  0  0  0  0  0  0  0
   -2.8050   -2.8970    1.1840 C   0  0  0  0  0  0  0  0  0  0  0  0
   -1.3130   -2.9630    1.3680 C   0  0  2  0  0  0  0  0  0  0  0  0
   -0.7020   -1.6470    1.3620 N   0  0  0  0  0  0  0  0  0  0  0  0
   -0.6450   -3.8350    0.3630 C   0  0  0  0  0  0  0  0  0  0  0  0
   -1.0170   -5.0280    0.2020 O   0  0  0  0  0  0  0  0  0  0  0  0
   -3.4030   -3.0500   -1.1770 C   0  0  0  0  0  0  0  0  0  0  0  0
   -3.7950   -2.5300   -2.3770 C   0  0  0  0  0  0  0  0  0  0  0  0
   -4.7700    0.3380   -3.7220 H   0  0  0  0  0  0  0  0  0  0  0  0
   -4.0210    0.6950   -1.4200 H   0  0  0  0  0  0  0  0  0  0  0  0
   -3.3130   -0.2650    0.7340 H   0  0  0  0  0  0  0  0  0  0  0  0
   -3.1990   -3.9240    1.3150 H   0  0  0  0  0  0  0  0  0  0  0  0
   -3.2050   -2.2950    2.0240 H   0  0  0  0  0  0  0  0  0  0  0  0
   -1.1460   -3.4390    2.3680 H   0  0  0  0  0  0  0  0  0  0  0  0
   -0.7890   -1.1060    0.4800 H   0  0  0  0  0  0  0  0  0  0  0  0
   -3.2360   -4.1280   -1.1470 H   0  0  0  0  0  0  0  0  0  0  0  0
   -3.9400   -3.1270   -3.2650 H   0  0  0  0  0  0  0  0  0  0  0  0
    1.6950   -4.5950   -3.7610 C   0  0  0  0  0  0  0  0  0  0  0  0
    1.0310   -3.6180   -2.8200 C   0  0  1  0  0  0  0  0  0  0  0  0
   -0.3110   -3.5120   -3.2210 O   0  0  0  0  0  0  0  0  0  0  0  0
    1.1010   -4.1840   -1.4350 C   0  0  2  0  0  0  0  0  0  0  0  0
    0.4250   -3.3860   -0.4530 N   0  0  0  0  0  0  0  0  0  0  0  0
    2.5150   -4.3450   -1.0300 C   0  0  0  0  0  0  0  0  0  0  0  0
    2.9130   -3.8090    0.0280 O   0  0  0  0  0  0  0  0  0  0  0  0
    3.4070   -5.0650   -1.7800 O   0  0  0  0  0  0  0  0  0  0  0  0
    2.7690   -4.2960   -3.9000 H   0  0  0  0  0  0  0  0  0  0  0  0
    1.1750   -4.6510   -4.7420 H   0  0  0  0  0  0  0  0  0  0  0  0
    1.7010   -5.5910   -3.2800 H   0  0  0  0  0  0  0  0  0  0  0  0
    1.5390   -2.6370   -2.9260 H   0  0  0  0  0  0  0  0  0  0  0  0
   -0.8310   -4.1870   -2.7040 H   0  0  0  0  0  0  0  0  0  0  0  0
    0.6860   -5.2220   -1.5000 H   0  0  0  0  0  0  0  0  0  0  0  0
    0.7290   -2.3990   -0.3150 H   0  0  0  0  0  0  0  0  0  0  0  0
  1  2  1  0  0  0  0
  2 17  1  1  0  0  0
  2  3  1  0  0  0  0
  3  4  1  0  0  0  0
  3 18  1  0  0  0  0
  4  5  2  0  0  0  0
  5 20  1  0  0  0  0
  6  5  1  0  0  0  0
  6 21  1  0  0  0  0
  7  6  1  0  0  0  0
  8 22  1  0  0  0  0
  8  7  2  0  0  0  0
  9  8  1  0  0  0  0
 10  9  2  0  0  0  0
 10 11  1  0  0  0  0
 11 12  2  0  0  0  0
 12  7  1  0  0  0  0
 12  4  1  0  0  0  0
 13  2  1  0  0  0  0
 13 14  2  0  0  0  0
 15  1  1  0  0  0  0
 16  1  1  0  0  0  0
 19  3  1  0  0  0  0
 23  9  1  0  0  0  0
 24 10  1  0  0  0  0
 25 11  1  0  0  0  0
 26 27  1  0  0  0  0
 27 37  2  0  0  0  0
 27 28  1  0  0  0  0
 28 29  2  0  0  0  0
 29 30  1  0  0  0  0
 29 40  1  0  0  0  0
 30 31  1  0  0  0  0
 31 41  1  0  0  0  0
 31 32  1  0  0  0  0
 31 42  1  0  0  0  0
 32 43  1  1  0  0  0
 33 32  1  0  0  0  0
 33 13  1  0  0  0  0
 34 32  1  0  0  0  0
 35 34  2  0  0  0  0
 36 45  1  0  0  0  0
 36 30  2  0  0  0  0
 37 36  1  0  0  0  0
 38 26  1  0  0  0  0
 39 28  1  0  0  0  0
 44 33  1  0  0  0  0
 46 37  1  0  0  0  0
 47 57  1  0  0  0  0
 47 48  1  0  0  0  0
 48 58  1  6  0  0  0
 48 50  1  0  0  0  0
 49 48  1  0  0  0  0
 49 59  1  0  0  0  0
 50 60  1  6  0  0  0
 50 52  1  0  0  0  0
 50 51  1  0  0  0  0
 51 61  1  0  0  0  0
 51 34  1  0  0  0  0
 52 53  1  0  0  0  0
 54 52  2  0  0  0  0
 55 47  1  0  0  0  0
 56 47  1  0  0  0  0
M  END
$$$$
