WYV.pdb
 OpenBabel07022419193D

 63 65  0  0  1  0  0  0  0  0999 V2000
   -0.0330    0.8660    5.3070 N   0  0  0  0  0  0  0  0  0  0  0  0
   -0.2160    1.3960    3.9310 C   0  0  1  0  0  0  0  0  0  0  0  0
    0.9540    2.2200    3.5950 C   0  0  0  0  0  0  0  0  0  0  0  0
    2.2570    1.5520    3.5980 C   0  0  0  0  0  0  0  0  0  0  0  0
    3.1470    1.4590    4.6460 C   0  0  0  0  0  0  0  0  0  0  0  0
    4.2360    0.7630    4.3110 N   0  0  0  0  0  0  0  0  0  0  0  0
    4.0840    0.3830    3.0360 C   0  0  0  0  0  0  0  0  0  0  0  0
    4.9620   -0.3460    2.2310 C   0  0  0  0  0  0  0  0  0  0  0  0
    4.5900   -0.5880    0.9260 C   0  0  0  0  0  0  0  0  0  0  0  0
    3.3820   -0.1200    0.4370 C   0  0  0  0  0  0  0  0  0  0  0  0
    2.5300    0.5930    1.2520 C   0  0  0  0  0  0  0  0  0  0  0  0
    2.8600    0.8560    2.5570 C   0  0  0  0  0  0  0  0  0  0  0  0
   -0.7190    0.3850    3.0500 C   0  0  0  0  0  0  0  0  0  0  0  0
   -0.7530   -0.8180    3.5540 O   0  0  0  0  0  0  0  0  0  0  0  0
   -0.7060    0.0910    5.4560 H   0  0  0  0  0  0  0  0  0  0  0  0
    0.9570    0.6060    5.4870 H   0  0  0  0  0  0  0  0  0  0  0  0
   -1.0880    2.1150    4.1000 H   0  0  0  0  0  0  0  0  0  0  0  0
    1.0660    3.0660    4.3540 H   0  0  0  0  0  0  0  0  0  0  0  0
    0.8300    2.8060    2.6340 H   0  0  0  0  0  0  0  0  0  0  0  0
    3.0040    1.8920    5.6390 H   0  0  0  0  0  0  0  0  0  0  0  0
    5.0690    0.5280    4.9130 H   0  0  0  0  0  0  0  0  0  0  0  0
    5.9050   -0.7080    2.6060 H   0  0  0  0  0  0  0  0  0  0  0  0
    5.2490   -1.1470    0.2500 H   0  0  0  0  0  0  0  0  0  0  0  0
    3.1330   -0.3370   -0.5850 H   0  0  0  0  0  0  0  0  0  0  0  0
    1.5870    0.9580    0.8820 H   0  0  0  0  0  0  0  0  0  0  0  0
   -5.5310   -5.0770   -1.5310 O   0  0  0  0  0  0  0  0  0  0  0  0
   -4.9540   -3.9440   -0.9330 C   0  0  0  0  0  0  0  0  0  0  0  0
   -4.7370   -3.8690    0.4150 C   0  0  0  0  0  0  0  0  0  0  0  0
   -4.1630   -2.7420    1.0040 C   0  0  0  0  0  0  0  0  0  0  0  0
   -3.7920   -1.6560    0.2210 C   0  0  0  0  0  0  0  0  0  0  0  0
   -3.1990   -0.4690    0.8950 C   0  0  0  0  0  0  0  0  0  0  0  0
   -1.6790   -0.7100    1.0640 C   0  0  2  0  0  0  0  0  0  0  0  0
   -1.1940    0.4670    1.7260 N   0  0  0  0  0  0  0  0  0  0  0  0
   -1.1470   -0.9660   -0.2880 C   0  0  0  0  0  0  0  0  0  0  0  0
   -1.3980   -2.1250   -0.7970 O   0  0  0  0  0  0  0  0  0  0  0  0
   -4.0150   -1.7430   -1.1290 C   0  0  0  0  0  0  0  0  0  0  0  0
   -4.5900   -2.8760   -1.7170 C   0  0  0  0  0  0  0  0  0  0  0  0
   -5.0190   -5.9680   -1.4760 H   0  0  0  0  0  0  0  0  0  0  0  0
   -5.0260   -4.7240    1.0230 H   0  0  0  0  0  0  0  0  0  0  0  0
   -3.9970   -2.6920    2.0510 H   0  0  0  0  0  0  0  0  0  0  0  0
   -3.6790   -0.2750    1.8670 H   0  0  0  0  0  0  0  0  0  0  0  0
   -3.4010    0.3980    0.2460 H   0  0  0  0  0  0  0  0  0  0  0  0
   -1.5630   -1.5920    1.7320 H   0  0  0  0  0  0  0  0  0  0  0  0
   -1.1840    1.3710    1.2610 H   0  0  0  0  0  0  0  0  0  0  0  0
   -3.7330   -0.9110   -1.7510 H   0  0  0  0  0  0  0  0  0  0  0  0
   -4.7490   -2.9120   -2.7850 H   0  0  0  0  0  0  0  0  0  0  0  0
    0.5790   -1.5070   -4.4200 C   0  0  0  0  0  0  0  0  0  0  0  0
   -0.0650   -1.5850   -3.0220 C   0  0  0  0  0  0  0  0  0  0  0  0
    0.7860   -2.6370   -2.3090 C   0  0  0  0  0  0  0  0  0  0  0  0
    0.1830   -0.2410   -2.3580 C   0  0  2  0  0  0  0  0  0  0  0  0
   -0.4020   -0.0770   -1.0700 N   0  0  0  0  0  0  0  0  0  0  0  0
    0.0790    0.8960   -3.2630 C   0  0  0  0  0  0  0  0  0  0  0  0
   -0.6210    1.8860   -2.8490 O   0  0  0  0  0  0  0  0  0  0  0  0
    0.6460    1.0350   -4.5080 O   0  0  0  0  0  0  0  0  0  0  0  0
   -0.0690   -1.0670   -5.1680 H   0  0  0  0  0  0  0  0  0  0  0  0
    1.5870   -1.0710   -4.3200 H   0  0  0  0  0  0  0  0  0  0  0  0
    0.7780   -2.5920   -4.6710 H   0  0  0  0  0  0  0  0  0  0  0  0
   -1.1050   -1.8590   -3.1400 H   0  0  0  0  0  0  0  0  0  0  0  0
    1.1380   -2.2500   -1.3350 H   0  0  0  0  0  0  0  0  0  0  0  0
    1.6930   -2.8090   -2.9760 H   0  0  0  0  0  0  0  0  0  0  0  0
    0.2410   -3.5870   -2.2810 H   0  0  0  0  0  0  0  0  0  0  0  0
    1.3140   -0.3470   -2.1020 H   0  0  0  0  0  0  0  0  0  0  0  0
   -0.2640    0.8820   -0.5800 H   0  0  0  0  0  0  0  0  0  0  0  0
  1 15  1  0  0  0  0
  1 16  1  0  0  0  0
  2 17  1  1  0  0  0
  2  1  1  0  0  0  0
  3  4  1  0  0  0  0
  3  2  1  0  0  0  0
  3 18  1  0  0  0  0
  4  5  2  0  0  0  0
  5 20  1  0  0  0  0
  6  5  1  0  0  0  0
  6 21  1  0  0  0  0
  7  6  1  0  0  0  0
  8 22  1  0  0  0  0
  8  7  2  0  0  0  0
  9  8  1  0  0  0  0
 10  9  2  0  0  0  0
 10 11  1  0  0  0  0
 11 12  2  0  0  0  0
 12  7  1  0  0  0  0
 12  4  1  0  0  0  0
 13 14  2  0  0  0  0
 13  2  1  0  0  0  0
 19  3  1  0  0  0  0
 23  9  1  0  0  0  0
 24 10  1  0  0  0  0
 25 11  1  0  0  0  0
 26 38  1  0  0  0  0
 26 27  1  0  0  0  0
 27 28  1  0  0  0  0
 28 29  2  0  0  0  0
 28 39  1  0  0  0  0
 29 40  1  0  0  0  0
 30 31  1  0  0  0  0
 30 29  1  0  0  0  0
 31 32  1  0  0  0  0
 31 41  1  0  0  0  0
 32 33  1  0  0  0  0
 32 43  1  1  0  0  0
 33 13  1  0  0  0  0
 34 32  1  0  0  0  0
 35 34  2  0  0  0  0
 36 30  2  0  0  0  0
 37 36  1  0  0  0  0
 37 27  2  0  0  0  0
 42 31  1  0  0  0  0
 44 33  1  0  0  0  0
 45 36  1  0  0  0  0
 46 37  1  0  0  0  0
 47 56  1  0  0  0  0
 47 48  1  0  0  0  0
 48 50  1  0  0  0  0
 48 49  1  0  0  0  0
 49 61  1  0  0  0  0
 49 59  1  0  0  0  0
 50 62  1  1  0  0  0
 50 51  1  0  0  0  0
 51 63  1  0  0  0  0
 51 34  1  0  0  0  0
 52 53  1  0  0  0  0
 52 50  1  0  0  0  0
 54 52  2  0  0  0  0
 55 47  1  0  0  0  0
 57 47  1  0  0  0  0
 58 48  1  0  0  0  0
 60 49  1  0  0  0  0
M  END
$$$$
