WYY.pdb
 OpenBabel07022419193D

 68 71  0  0  1  0  0  0  0  0999 V2000
    2.0830   -4.5710    1.5370 N   0  0  0  0  0  0  0  0  0  0  0  0
    1.6230   -3.1960    1.4710 C   0  0  1  0  0  0  0  0  0  0  0  0
    2.8570   -2.3430    1.5150 C   0  0  0  0  0  0  0  0  0  0  0  0
    3.7950   -2.6380    0.4130 C   0  0  0  0  0  0  0  0  0  0  0  0
    4.9290   -3.4480    0.5320 C   0  0  0  0  0  0  0  0  0  0  0  0
    5.5250   -3.5200   -0.6520 N   0  0  0  0  0  0  0  0  0  0  0  0
    4.8540   -2.7990   -1.5750 C   0  0  0  0  0  0  0  0  0  0  0  0
    5.0810   -2.5730   -2.9060 C   0  0  0  0  0  0  0  0  0  0  0  0
    4.2180   -1.7760   -3.6110 C   0  0  0  0  0  0  0  0  0  0  0  0
    3.1350   -1.2160   -2.9630 C   0  0  0  0  0  0  0  0  0  0  0  0
    2.9100   -1.4460   -1.6250 C   0  0  0  0  0  0  0  0  0  0  0  0
    3.7690   -2.2460   -0.9020 C   0  0  0  0  0  0  0  0  0  0  0  0
    0.7270   -2.9590    0.3540 C   0  0  0  0  0  0  0  0  0  0  0  0
    0.6560   -3.7190   -0.6360 O   0  0  0  0  0  0  0  0  0  0  0  0
    2.9780   -4.6510    2.0730 H   0  0  0  0  0  0  0  0  0  0  0  0
    1.3510   -5.2380    1.8120 H   0  0  0  0  0  0  0  0  0  0  0  0
    1.0650   -2.9920    2.4210 H   0  0  0  0  0  0  0  0  0  0  0  0
    2.5950   -1.2590    1.4850 H   0  0  0  0  0  0  0  0  0  0  0  0
    3.3390   -2.5050    2.5030 H   0  0  0  0  0  0  0  0  0  0  0  0
    5.2140   -3.9090    1.4730 H   0  0  0  0  0  0  0  0  0  0  0  0
    6.3930   -4.0540   -0.8660 H   0  0  0  0  0  0  0  0  0  0  0  0
    5.9340   -3.0230   -3.3850 H   0  0  0  0  0  0  0  0  0  0  0  0
    4.3290   -1.5520   -4.6580 H   0  0  0  0  0  0  0  0  0  0  0  0
    2.4410   -0.5800   -3.5140 H   0  0  0  0  0  0  0  0  0  0  0  0
    2.0740   -0.9950   -1.1400 H   0  0  0  0  0  0  0  0  0  0  0  0
   -5.3380   -1.0000    4.0880 O   0  0  0  0  0  0  0  0  0  0  0  0
   -4.6380   -1.2490    2.9160 C   0  0  0  0  0  0  0  0  0  0  0  0
   -4.8110   -0.4730    1.7630 C   0  0  0  0  0  0  0  0  0  0  0  0
   -4.0900   -0.7620    0.6220 C   0  0  0  0  0  0  0  0  0  0  0  0
   -3.1950   -1.8020    0.5800 C   0  0  0  0  0  0  0  0  0  0  0  0
   -2.4170   -2.1520   -0.5960 C   0  0  0  0  0  0  0  0  0  0  0  0
   -1.0590   -1.5270   -0.7480 C   0  0  2  0  0  0  0  0  0  0  0  0
   -0.1520   -1.8270    0.3110 N   0  0  0  0  0  0  0  0  0  0  0  0
   -1.1000   -0.1250   -1.1810 C   0  0  0  0  0  0  0  0  0  0  0  0
   -1.8790    0.3020   -2.0690 O   0  0  0  0  0  0  0  0  0  0  0  0
   -3.0510   -2.5400    1.7290 C   0  0  0  0  0  0  0  0  0  0  0  0
   -3.7530   -2.2850    2.8930 C   0  0  0  0  0  0  0  0  0  0  0  0
   -6.1550   -1.5770    4.2490 H   0  0  0  0  0  0  0  0  0  0  0  0
   -5.5230    0.3400    1.8160 H   0  0  0  0  0  0  0  0  0  0  0  0
   -4.2840   -0.1110   -0.2310 H   0  0  0  0  0  0  0  0  0  0  0  0
   -2.2830   -3.2580   -0.7080 H   0  0  0  0  0  0  0  0  0  0  0  0
   -3.0260   -1.8610   -1.4930 H   0  0  0  0  0  0  0  0  0  0  0  0
   -0.6330   -2.1130   -1.6320 H   0  0  0  0  0  0  0  0  0  0  0  0
   -0.1070   -1.1880    1.1300 H   0  0  0  0  0  0  0  0  0  0  0  0
   -2.3540   -3.3830    1.7650 H   0  0  0  0  0  0  0  0  0  0  0  0
   -3.5870   -2.9150    3.7700 H   0  0  0  0  0  0  0  0  0  0  0  0
   -5.0050    2.6090    3.2560 O   0  0  0  0  0  0  0  0  0  0  0  0
   -3.8190    2.6860    2.5450 C   0  0  0  0  0  0  0  0  0  0  0  0
   -3.7740    3.5590    1.4850 C   0  0  0  0  0  0  0  0  0  0  0  0
   -2.6190    3.6670    0.7550 C   0  0  0  0  0  0  0  0  0  0  0  0
   -1.4800    2.9140    1.0560 C   0  0  0  0  0  0  0  0  0  0  0  0
   -0.3000    3.1340    0.2100 C   0  0  0  0  0  0  0  0  0  0  0  0
   -0.2620    2.2370   -0.9970 C   0  0  2  0  0  0  0  0  0  0  0  0
   -0.2370    0.8390   -0.5970 N   0  0  0  0  0  0  0  0  0  0  0  0
    0.9920    2.5920   -1.7370 C   0  0  0  0  0  0  0  0  0  0  0  0
    1.1420    3.7560   -2.1610 O   0  0  0  0  0  0  0  0  0  0  0  0
   -1.5210    2.0410    2.1110 C   0  0  0  0  0  0  0  0  0  0  0  0
   -2.6990    1.9520    2.8320 C   0  0  0  0  0  0  0  0  0  0  0  0
    1.9390    1.6140   -1.9210 O   0  0  0  0  0  0  0  0  0  0  0  0
   -5.1370    1.8860    3.9530 H   0  0  0  0  0  0  0  0  0  0  0  0
   -4.6490    4.1690    1.2180 H   0  0  0  0  0  0  0  0  0  0  0  0
   -2.6060    4.3620   -0.0770 H   0  0  0  0  0  0  0  0  0  0  0  0
   -0.3060    4.2180   -0.1080 H   0  0  0  0  0  0  0  0  0  0  0  0
    0.6300    3.0390    0.8150 H   0  0  0  0  0  0  0  0  0  0  0  0
   -1.1250    2.4300   -1.6760 H   0  0  0  0  0  0  0  0  0  0  0  0
    0.4680    0.5990    0.1560 H   0  0  0  0  0  0  0  0  0  0  0  0
   -0.6510    1.4500    2.3590 H   0  0  0  0  0  0  0  0  0  0  0  0
   -2.7450    1.2660    3.6700 H   0  0  0  0  0  0  0  0  0  0  0  0
  1 16  1  0  0  0  0
  1 15  1  0  0  0  0
  2  3  1  0  0  0  0
  2  1  1  0  0  0  0
  2 17  1  1  0  0  0
  3 19  1  0  0  0  0
  4  5  2  0  0  0  0
  4  3  1  0  0  0  0
  5 20  1  0  0  0  0
  6  5  1  0  0  0  0
  7 12  1  0  0  0  0
  7  6  1  0  0  0  0
  8  7  2  0  0  0  0
  9 10  2  0  0  0  0
  9  8  1  0  0  0  0
 10 11  1  0  0  0  0
 11 25  1  0  0  0  0
 11 12  2  0  0  0  0
 12  4  1  0  0  0  0
 13  2  1  0  0  0  0
 14 13  2  0  0  0  0
 18  3  1  0  0  0  0
 21  6  1  0  0  0  0
 22  8  1  0  0  0  0
 23  9  1  0  0  0  0
 24 10  1  0  0  0  0
 26 38  1  0  0  0  0
 27 26  1  0  0  0  0
 28 39  1  0  0  0  0
 28 27  2  0  0  0  0
 29 28  1  0  0  0  0
 30 29  2  0  0  0  0
 30 36  1  0  0  0  0
 31 30  1  0  0  0  0
 32 43  1  6  0  0  0
 32 31  1  0  0  0  0
 32 33  1  0  0  0  0
 33 13  1  0  0  0  0
 33 44  1  0  0  0  0
 34 32  1  0  0  0  0
 34 54  1  0  0  0  0
 35 34  2  0  0  0  0
 36 45  1  0  0  0  0
 36 37  2  0  0  0  0
 37 27  1  0  0  0  0
 37 46  1  0  0  0  0
 40 29  1  0  0  0  0
 41 31  1  0  0  0  0
 42 31  1  0  0  0  0
 47 60  1  0  0  0  0
 48 58  1  0  0  0  0
 48 47  1  0  0  0  0
 49 48  2  0  0  0  0
 50 51  2  0  0  0  0
 50 49  1  0  0  0  0
 51 57  1  0  0  0  0
 52 64  1  0  0  0  0
 52 51  1  0  0  0  0
 53 65  1  6  0  0  0
 53 54  1  0  0  0  0
 53 52  1  0  0  0  0
 54 66  1  0  0  0  0
 55 53  1  0  0  0  0
 56 55  2  0  0  0  0
 57 67  1  0  0  0  0
 57 58  2  0  0  0  0
 58 68  1  0  0  0  0
 59 55  1  0  0  0  0
 61 49  1  0  0  0  0
 62 50  1  0  0  0  0
 63 52  1  0  0  0  0
M  END
$$$$
