YAA.pdb
 OpenBabel07022419193D

 43 43  0  0  1  0  0  0  0  0999 V2000
   -2.9200   -6.5830    3.3170 O   0  0  0  0  0  0  0  0  0  0  0  0
   -1.9570   -5.7110    2.8520 C   0  0  0  0  0  0  0  0  0  0  0  0
   -1.0580   -5.1060    3.7070 C   0  0  0  0  0  0  0  0  0  0  0  0
   -0.0950   -4.2320    3.2290 C   0  0  0  0  0  0  0  0  0  0  0  0
    0.0020   -3.9330    1.8790 C   0  0  0  0  0  0  0  0  0  0  0  0
    1.0370   -3.0000    1.3990 C   0  0  0  0  0  0  0  0  0  0  0  0
    0.5260   -1.5610    1.3960 C   0  0  2  0  0  0  0  0  0  0  0  0
   -0.6190   -1.5340    0.5100 N   0  0  0  0  0  0  0  0  0  0  0  0
    1.5960   -0.6520    0.9770 C   0  0  0  0  0  0  0  0  0  0  0  0
    2.6340   -0.6130    1.7010 O   0  0  0  0  0  0  0  0  0  0  0  0
   -0.8950   -4.5360    1.0190 C   0  0  0  0  0  0  0  0  0  0  0  0
   -1.8450   -5.3990    1.5030 C   0  0  0  0  0  0  0  0  0  0  0  0
   -3.6390   -6.3040    3.9630 H   0  0  0  0  0  0  0  0  0  0  0  0
   -1.1190   -5.3290    4.7730 H   0  0  0  0  0  0  0  0  0  0  0  0
    0.6250   -3.7440    3.8900 H   0  0  0  0  0  0  0  0  0  0  0  0
    1.3010   -3.2520    0.3500 H   0  0  0  0  0  0  0  0  0  0  0  0
    1.9170   -3.0780    2.0820 H   0  0  0  0  0  0  0  0  0  0  0  0
    0.1890   -1.2970    2.4030 H   0  0  0  0  0  0  0  0  0  0  0  0
   -1.4550   -1.9580    1.0010 H   0  0  0  0  0  0  0  0  0  0  0  0
   -0.9020   -0.5610    0.2570 H   0  0  0  0  0  0  0  0  0  0  0  0
   -0.8140   -4.2960   -0.0490 H   0  0  0  0  0  0  0  0  0  0  0  0
   -2.5420   -5.8690    0.8450 H   0  0  0  0  0  0  0  0  0  0  0  0
    3.2580    0.5800   -1.7910 C   0  0  0  0  0  0  0  0  0  0  0  0
    2.6890    1.0310   -0.4640 C   0  0  2  0  0  0  0  0  0  0  0  0
    1.5530    0.1820   -0.1740 N   0  0  0  0  0  0  0  0  0  0  0  0
    2.2600    2.4680   -0.5560 C   0  0  0  0  0  0  0  0  0  0  0  0
    3.1010    3.3560   -0.8000 O   0  0  0  0  0  0  0  0  0  0  0  0
    3.1730    1.4120   -2.5460 H   0  0  0  0  0  0  0  0  0  0  0  0
    4.3350    0.3320   -1.7350 H   0  0  0  0  0  0  0  0  0  0  0  0
    2.7330   -0.2900   -2.2070 H   0  0  0  0  0  0  0  0  0  0  0  0
    3.4790    0.9010    0.3010 H   0  0  0  0  0  0  0  0  0  0  0  0
    0.7110    0.1520   -0.7650 H   0  0  0  0  0  0  0  0  0  0  0  0
   -0.6390    4.4020   -1.4550 C   0  0  0  0  0  0  0  0  0  0  0  0
    0.4510    4.2190   -0.4510 C   0  0  2  0  0  0  0  0  0  0  0  0
    0.9160    2.8450   -0.3720 N   0  0  0  0  0  0  0  0  0  0  0  0
   -0.0780    4.5840    0.8900 C   0  0  0  0  0  0  0  0  0  0  0  0
   -0.5570    5.7430    1.1180 O   0  0  0  0  0  0  0  0  0  0  0  0
   -0.0850    3.7070    1.9590 O   0  0  0  0  0  0  0  0  0  0  0  0
   -0.6120    3.5760   -2.2060 H   0  0  0  0  0  0  0  0  0  0  0  0
   -0.6340    5.4030   -1.9440 H   0  0  0  0  0  0  0  0  0  0  0  0
   -1.6150    4.3060   -0.9410 H   0  0  0  0  0  0  0  0  0  0  0  0
    1.3010    4.8980   -0.6710 H   0  0  0  0  0  0  0  0  0  0  0  0
    0.2020    2.1140   -0.1680 H   0  0  0  0  0  0  0  0  0  0  0  0
  1 13  1  0  0  0  0
  2  1  1  0  0  0  0
  2  3  1  0  0  0  0
  3 14  1  0  0  0  0
  4  3  2  0  0  0  0
  4 15  1  0  0  0  0
  5  4  1  0  0  0  0
  6  5  1  0  0  0  0
  6 17  1  0  0  0  0
  7  6  1  0  0  0  0
  7 18  1  1  0  0  0
  8 19  1  0  0  0  0
  8  7  1  0  0  0  0
  9  7  1  0  0  0  0
  9 10  2  0  0  0  0
 11 12  1  0  0  0  0
 11  5  2  0  0  0  0
 12  2  2  0  0  0  0
 16  6  1  0  0  0  0
 20  8  1  0  0  0  0
 21 11  1  0  0  0  0
 22 12  1  0  0  0  0
 23 29  1  0  0  0  0
 23 24  1  0  0  0  0
 24 25  1  0  0  0  0
 24 31  1  1  0  0  0
 25  9  1  0  0  0  0
 26 24  1  0  0  0  0
 26 35  1  0  0  0  0
 27 26  2  0  0  0  0
 28 23  1  0  0  0  0
 30 23  1  0  0  0  0
 32 25  1  0  0  0  0
 33 41  1  0  0  0  0
 33 34  1  0  0  0  0
 34 42  1  6  0  0  0
 34 35  1  0  0  0  0
 34 36  1  0  0  0  0
 35 43  1  0  0  0  0
 36 37  2  0  0  0  0
 36 38  1  0  0  0  0
 39 33  1  0  0  0  0
 40 33  1  0  0  0  0
M  END
$$$$
