YAC.pdb
 OpenBabel07022419193D

 44 44  0  0  1  0  0  0  0  0999 V2000
   -3.2230   -3.5690   -2.1140 O   0  0  0  0  0  0  0  0  0  0  0  0
   -2.1300   -2.7230   -1.9840 C   0  0  0  0  0  0  0  0  0  0  0  0
   -1.3170   -2.5170   -3.0800 C   0  0  0  0  0  0  0  0  0  0  0  0
   -0.2160   -1.6870   -3.0120 C   0  0  0  0  0  0  0  0  0  0  0  0
    0.0400   -1.0760   -1.8160 C   0  0  0  0  0  0  0  0  0  0  0  0
    1.2100   -0.1800   -1.6720 C   0  0  0  0  0  0  0  0  0  0  0  0
    2.4310   -0.9260   -1.1710 C   0  0  2  0  0  0  0  0  0  0  0  0
    2.7190   -1.9630   -2.1350 N   0  0  0  0  0  0  0  0  0  0  0  0
    2.2700   -1.4180    0.1980 C   0  0  0  0  0  0  0  0  0  0  0  0
    2.2630   -2.6500    0.4110 O   0  0  0  0  0  0  0  0  0  0  0  0
   -0.7600   -1.2690   -0.7100 C   0  0  0  0  0  0  0  0  0  0  0  0
   -1.8670   -2.1000   -0.7690 C   0  0  0  0  0  0  0  0  0  0  0  0
   -4.1550   -3.3400   -1.7900 H   0  0  0  0  0  0  0  0  0  0  0  0
   -1.5370   -3.0160   -4.0310 H   0  0  0  0  0  0  0  0  0  0  0  0
    0.3910   -1.5580   -3.9010 H   0  0  0  0  0  0  0  0  0  0  0  0
    1.4060    0.2710   -2.6650 H   0  0  0  0  0  0  0  0  0  0  0  0
    0.9220    0.6490   -0.9930 H   0  0  0  0  0  0  0  0  0  0  0  0
    3.2780   -0.2110   -1.1970 H   0  0  0  0  0  0  0  0  0  0  0  0
    3.1970   -1.6300   -2.9750 H   0  0  0  0  0  0  0  0  0  0  0  0
    3.1480   -2.8080   -1.7000 H   0  0  0  0  0  0  0  0  0  0  0  0
   -0.5310   -0.7700    0.2440 H   0  0  0  0  0  0  0  0  0  0  0  0
   -2.5240   -2.2890    0.0530 H   0  0  0  0  0  0  0  0  0  0  0  0
    3.2130   -0.8830    3.4770 C   0  0  0  0  0  0  0  0  0  0  0  0
    1.9670   -1.1230    2.6280 C   0  0  2  0  0  0  0  0  0  0  0  0
    2.1200   -0.5560    1.3130 N   0  0  0  0  0  0  0  0  0  0  0  0
    0.8580   -0.4680    3.3330 C   0  0  0  0  0  0  0  0  0  0  0  0
    0.6140   -0.8660    4.5140 O   0  0  0  0  0  0  0  0  0  0  0  0
    3.1360    0.0740    4.0340 H   0  0  0  0  0  0  0  0  0  0  0  0
    4.1350   -0.9140    2.8950 H   0  0  0  0  0  0  0  0  0  0  0  0
    3.2850   -1.6850    4.2560 H   0  0  0  0  0  0  0  0  0  0  0  0
    1.8710   -2.2430    2.5820 H   0  0  0  0  0  0  0  0  0  0  0  0
    2.1240    0.4800    1.2120 H   0  0  0  0  0  0  0  0  0  0  0  0
    0.0950    0.5580    2.7320 N   0  0  0  0  0  0  0  0  0  0  0  0
   -0.9950    1.1790    3.4970 C   0  0  1  0  0  0  0  0  0  0  0  0
   -0.5010    2.6170    3.7340 C   0  0  0  0  0  0  0  0  0  0  0  0
   -1.7140    3.5720    4.6750 S   0  0  0  0  0  0  0  0  0  0  0  0
   -2.2390    1.2540    2.7330 C   0  0  0  0  0  0  0  0  0  0  0  0
   -3.2410    1.7630    3.2980 O   0  0  0  0  0  0  0  0  0  0  0  0
   -2.3850    0.8070    1.4420 O   0  0  0  0  0  0  0  0  0  0  0  0
    0.2540    0.9070    1.7680 H   0  0  0  0  0  0  0  0  0  0  0  0
   -1.0730    0.6860    4.4820 H   0  0  0  0  0  0  0  0  0  0  0  0
   -0.3990    3.0690    2.7430 H   0  0  0  0  0  0  0  0  0  0  0  0
    0.4860    2.5880    4.2380 H   0  0  0  0  0  0  0  0  0  0  0  0
   -2.5540    4.2590    3.7790 H   0  0  0  0  0  0  0  0  0  0  0  0
  1  2  1  0  0  0  0
  1 13  1  0  0  0  0
  2 12  1  0  0  0  0
  3  4  1  0  0  0  0
  3  2  2  0  0  0  0
  4  5  2  0  0  0  0
  5  6  1  0  0  0  0
  5 11  1  0  0  0  0
  6  7  1  0  0  0  0
  6 17  1  0  0  0  0
  7 18  1  6  0  0  0
  7  9  1  0  0  0  0
  8 20  1  0  0  0  0
  8  7  1  0  0  0  0
  9 10  2  0  0  0  0
  9 25  1  0  0  0  0
 11 21  1  0  0  0  0
 12 11  2  0  0  0  0
 12 22  1  0  0  0  0
 14  3  1  0  0  0  0
 15  4  1  0  0  0  0
 16  6  1  0  0  0  0
 19  8  1  0  0  0  0
 23 28  1  0  0  0  0
 23 30  1  0  0  0  0
 24 31  1  6  0  0  0
 24 26  1  0  0  0  0
 24 23  1  0  0  0  0
 25 24  1  0  0  0  0
 26 27  2  0  0  0  0
 29 23  1  0  0  0  0
 32 25  1  0  0  0  0
 33 26  1  0  0  0  0
 33 34  1  0  0  0  0
 34 35  1  0  0  0  0
 34 41  1  1  0  0  0
 35 43  1  0  0  0  0
 35 36  1  0  0  0  0
 37 38  1  0  0  0  0
 37 34  1  0  0  0  0
 39 37  2  0  0  0  0
 40 33  1  0  0  0  0
 42 35  1  0  0  0  0
 44 36  1  0  0  0  0
M  END
$$$$
