YAD.pdb
 OpenBabel07022419193D

 46 46  0  0  1  0  0  0  0  0999 V2000
    6.5670   -2.3060    2.9550 O   0  0  0  0  0  0  0  0  0  0  0  0
    5.7440   -1.5800    2.1080 C   0  0  0  0  0  0  0  0  0  0  0  0
    4.9460   -0.6040    2.6750 C   0  0  0  0  0  0  0  0  0  0  0  0
    4.1240    0.1240    1.8430 C   0  0  0  0  0  0  0  0  0  0  0  0
    4.1020   -0.1180    0.4820 C   0  0  0  0  0  0  0  0  0  0  0  0
    3.2310    0.6510   -0.4160 C   0  0  0  0  0  0  0  0  0  0  0  0
    1.8770    0.0080   -0.6070 C   0  0  2  0  0  0  0  0  0  0  0  0
    1.1410    0.8760   -1.5080 N   0  0  0  0  0  0  0  0  0  0  0  0
    1.1570   -0.2670    0.6360 C   0  0  0  0  0  0  0  0  0  0  0  0
    1.6640   -1.0330    1.4890 O   0  0  0  0  0  0  0  0  0  0  0  0
    4.9120   -1.1070   -0.0840 C   0  0  0  0  0  0  0  0  0  0  0  0
    5.7350   -1.8350    0.7490 C   0  0  0  0  0  0  0  0  0  0  0  0
    6.4810   -3.2970    3.0330 H   0  0  0  0  0  0  0  0  0  0  0  0
    4.9460   -0.3960    3.7370 H   0  0  0  0  0  0  0  0  0  0  0  0
    3.4950    0.8910    2.2780 H   0  0  0  0  0  0  0  0  0  0  0  0
    3.6950    0.7090   -1.4270 H   0  0  0  0  0  0  0  0  0  0  0  0
    3.0470    1.6780   -0.0160 H   0  0  0  0  0  0  0  0  0  0  0  0
    2.0360   -0.9500   -1.1390 H   0  0  0  0  0  0  0  0  0  0  0  0
    0.2240    0.4840   -1.7960 H   0  0  0  0  0  0  0  0  0  0  0  0
    1.0940    1.8590   -1.1650 H   0  0  0  0  0  0  0  0  0  0  0  0
    4.9060   -1.3090   -1.1510 H   0  0  0  0  0  0  0  0  0  0  0  0
    6.3960   -2.6230    0.3880 H   0  0  0  0  0  0  0  0  0  0  0  0
   -0.9540    1.2930    2.9870 C   0  0  0  0  0  0  0  0  0  0  0  0
   -0.8070   -0.0020    2.1990 C   0  0  2  0  0  0  0  0  0  0  0  0
   -0.1150    0.2840    0.9630 N   0  0  0  0  0  0  0  0  0  0  0  0
   -2.1280   -0.6370    1.9650 C   0  0  0  0  0  0  0  0  0  0  0  0
   -2.8010   -0.9220    2.9950 O   0  0  0  0  0  0  0  0  0  0  0  0
   -1.6360    1.9980    2.5020 H   0  0  0  0  0  0  0  0  0  0  0  0
    0.0810    1.7330    3.0290 H   0  0  0  0  0  0  0  0  0  0  0  0
   -1.2320    1.0530    4.0370 H   0  0  0  0  0  0  0  0  0  0  0  0
   -0.2340   -0.6930    2.8490 H   0  0  0  0  0  0  0  0  0  0  0  0
   -0.5440    0.9220    0.2590 H   0  0  0  0  0  0  0  0  0  0  0  0
   -2.6470   -0.9270    0.6970 N   0  0  0  0  0  0  0  0  0  0  0  0
   -3.9420   -1.5460    0.5160 C   0  0  1  0  0  0  0  0  0  0  0  0
   -4.8890   -0.7320   -0.3070 C   0  0  0  0  0  0  0  0  0  0  0  0
   -5.1230    0.5710    0.3290 C   0  0  0  0  0  0  0  0  0  0  0  0
   -4.6290    0.9780    1.3930 O   0  0  0  0  0  0  0  0  0  0  0  0
   -3.8040   -2.9310   -0.0220 C   0  0  0  0  0  0  0  0  0  0  0  0
   -2.6840   -3.4150   -0.2570 O   0  0  0  0  0  0  0  0  0  0  0  0
   -5.9950    1.4420   -0.3350 O   0  0  0  0  0  0  0  0  0  0  0  0
   -4.9370   -3.6840   -0.2610 O   0  0  0  0  0  0  0  0  0  0  0  0
   -2.0450   -0.6710   -0.1350 H   0  0  0  0  0  0  0  0  0  0  0  0
   -4.3930   -1.6540    1.5430 H   0  0  0  0  0  0  0  0  0  0  0  0
   -5.8080   -1.3250   -0.4470 H   0  0  0  0  0  0  0  0  0  0  0  0
   -4.4790   -0.5650   -1.3360 H   0  0  0  0  0  0  0  0  0  0  0  0
   -6.2500    2.3250    0.0430 H   0  0  0  0  0  0  0  0  0  0  0  0
  1 13  1  0  0  0  0
  2  3  1  0  0  0  0
  2  1  1  0  0  0  0
  3 14  1  0  0  0  0
  4 15  1  0  0  0  0
  4  3  2  0  0  0  0
  5  4  1  0  0  0  0
  6 17  1  0  0  0  0
  6  5  1  0  0  0  0
  7 18  1  6  0  0  0
  7  6  1  0  0  0  0
  7  9  1  0  0  0  0
  8 20  1  0  0  0  0
  8  7  1  0  0  0  0
  9 25  1  0  0  0  0
  9 10  2  0  0  0  0
 11  5  2  0  0  0  0
 11 12  1  0  0  0  0
 12  2  2  0  0  0  0
 16  6  1  0  0  0  0
 19  8  1  0  0  0  0
 21 11  1  0  0  0  0
 22 12  1  0  0  0  0
 23 29  1  0  0  0  0
 23 30  1  0  0  0  0
 24 31  1  1  0  0  0
 24 23  1  0  0  0  0
 25 24  1  0  0  0  0
 26 24  1  0  0  0  0
 26 27  2  0  0  0  0
 28 23  1  0  0  0  0
 32 25  1  0  0  0  0
 33 26  1  0  0  0  0
 34 33  1  0  0  0  0
 34 43  1  1  0  0  0
 35 36  1  0  0  0  0
 35 34  1  0  0  0  0
 36 37  2  0  0  0  0
 38 34  1  0  0  0  0
 39 38  1  0  0  0  0
 40 46  1  0  0  0  0
 40 36  1  0  0  0  0
 41 38  2  0  0  0  0
 42 33  1  0  0  0  0
 44 35  1  0  0  0  0
 45 35  1  0  0  0  0
M  END
$$$$
