YAE.pdb
 OpenBabel07022419193D

 49 49  0  0  1  0  0  0  0  0999 V2000
    1.1040    4.4320    0.1970 O   0  0  0  0  0  0  0  0  0  0  0  0
    1.4520    3.1940   -0.3120 C   0  0  0  0  0  0  0  0  0  0  0  0
    0.5150    2.2340   -0.6300 C   0  0  0  0  0  0  0  0  0  0  0  0
    0.9430    1.0060   -1.1400 C   0  0  0  0  0  0  0  0  0  0  0  0
    2.2720    0.7010   -1.3430 C   0  0  0  0  0  0  0  0  0  0  0  0
    2.6840   -0.5950   -1.8420 C   0  0  0  0  0  0  0  0  0  0  0  0
    3.2370   -1.6070   -0.9510 C   0  0  2  0  0  0  0  0  0  0  0  0
    3.5460   -2.7840   -1.8240 N   0  0  0  0  0  0  0  0  0  0  0  0
    2.4940   -2.1390    0.1820 C   0  0  0  0  0  0  0  0  0  0  0  0
    2.2770   -3.3920    0.3280 O   0  0  0  0  0  0  0  0  0  0  0  0
    3.2110    1.6870   -1.0150 C   0  0  0  0  0  0  0  0  0  0  0  0
    2.7830    2.8800   -0.5190 C   0  0  0  0  0  0  0  0  0  0  0  0
    0.4860    4.5160    0.9980 H   0  0  0  0  0  0  0  0  0  0  0  0
   -0.5230    2.4660   -0.4740 H   0  0  0  0  0  0  0  0  0  0  0  0
    0.1520    0.3190   -1.3860 H   0  0  0  0  0  0  0  0  0  0  0  0
    3.3810   -0.4160   -2.7010 H   0  0  0  0  0  0  0  0  0  0  0  0
    1.7810   -1.0620   -2.3560 H   0  0  0  0  0  0  0  0  0  0  0  0
    4.2680   -1.3280   -0.5570 H   0  0  0  0  0  0  0  0  0  0  0  0
    3.8480   -2.4120   -2.7520 H   0  0  0  0  0  0  0  0  0  0  0  0
    4.2950   -3.3500   -1.3850 H   0  0  0  0  0  0  0  0  0  0  0  0
    4.2430    1.4110   -1.1890 H   0  0  0  0  0  0  0  0  0  0  0  0
    3.5230    3.6240   -0.2730 H   0  0  0  0  0  0  0  0  0  0  0  0
    1.8490   -1.1120    3.5640 C   0  0  0  0  0  0  0  0  0  0  0  0
    1.2750   -1.8120    2.3590 C   0  0  2  0  0  0  0  0  0  0  0  0
    1.9760   -1.3170    1.1930 N   0  0  0  0  0  0  0  0  0  0  0  0
   -0.1980   -1.6640    2.3180 C   0  0  0  0  0  0  0  0  0  0  0  0
   -0.8760   -1.9480    3.3730 O   0  0  0  0  0  0  0  0  0  0  0  0
    1.2070   -1.2440    4.4550 H   0  0  0  0  0  0  0  0  0  0  0  0
    2.8840   -1.4910    3.7590 H   0  0  0  0  0  0  0  0  0  0  0  0
    1.9500   -0.0210    3.3560 H   0  0  0  0  0  0  0  0  0  0  0  0
    1.5280   -2.9140    2.4850 H   0  0  0  0  0  0  0  0  0  0  0  0
    2.1010   -0.2900    1.1180 H   0  0  0  0  0  0  0  0  0  0  0  0
   -0.9690   -1.2380    1.2230 N   0  0  0  0  0  0  0  0  0  0  0  0
   -2.4440   -1.1150    1.2730 C   0  0  1  0  0  0  0  0  0  0  0  0
   -3.0760   -2.4440    1.4230 C   0  0  0  0  0  0  0  0  0  0  0  0
   -4.5700   -2.4210    1.4740 C   0  0  0  0  0  0  0  0  0  0  0  0
   -5.1300   -1.8620    0.2200 C   0  0  0  0  0  0  0  0  0  0  0  0
   -6.3880   -1.6230    0.1260 O   0  0  0  0  0  0  0  0  0  0  0  0
   -2.7910   -0.1130    2.3060 C   0  0  0  0  0  0  0  0  0  0  0  0
   -3.9420    0.2510    2.5820 O   0  0  0  0  0  0  0  0  0  0  0  0
   -4.4080   -1.5590   -0.9090 O   0  0  0  0  0  0  0  0  0  0  0  0
   -1.7670    0.4950    3.0540 O   0  0  0  0  0  0  0  0  0  0  0  0
   -0.4690   -1.0160    0.3540 H   0  0  0  0  0  0  0  0  0  0  0  0
   -2.7260   -0.6570    0.3080 H   0  0  0  0  0  0  0  0  0  0  0  0
   -2.8030   -3.0900    0.5390 H   0  0  0  0  0  0  0  0  0  0  0  0
   -2.7370   -2.9590    2.3700 H   0  0  0  0  0  0  0  0  0  0  0  0
   -4.9190   -1.7670    2.3090 H   0  0  0  0  0  0  0  0  0  0  0  0
   -4.9660   -3.4640    1.6320 H   0  0  0  0  0  0  0  0  0  0  0  0
   -4.7660   -1.0110   -1.6870 H   0  0  0  0  0  0  0  0  0  0  0  0
  1 13  1  0  0  0  0
  2  1  1  0  0  0  0
  3 14  1  0  0  0  0
  3  2  2  0  0  0  0
  4  3  1  0  0  0  0
  5  4  2  0  0  0  0
  5 11  1  0  0  0  0
  6  5  1  0  0  0  0
  6  7  1  0  0  0  0
  7 18  1  1  0  0  0
  7  9  1  0  0  0  0
  8 20  1  0  0  0  0
  8  7  1  0  0  0  0
  9 10  2  0  0  0  0
  9 25  1  0  0  0  0
 11 12  2  0  0  0  0
 12  2  1  0  0  0  0
 12 22  1  0  0  0  0
 15  4  1  0  0  0  0
 16  6  1  0  0  0  0
 17  6  1  0  0  0  0
 19  8  1  0  0  0  0
 21 11  1  0  0  0  0
 23 29  1  0  0  0  0
 23 28  1  0  0  0  0
 24 31  1  1  0  0  0
 24 23  1  0  0  0  0
 25 24  1  0  0  0  0
 26 24  1  0  0  0  0
 26 27  2  0  0  0  0
 30 23  1  0  0  0  0
 32 25  1  0  0  0  0
 33 34  1  0  0  0  0
 33 26  1  0  0  0  0
 34 44  1  6  0  0  0
 34 35  1  0  0  0  0
 34 39  1  0  0  0  0
 35 36  1  0  0  0  0
 35 46  1  0  0  0  0
 36 48  1  0  0  0  0
 36 47  1  0  0  0  0
 37 36  1  0  0  0  0
 38 37  2  0  0  0  0
 39 40  2  0  0  0  0
 39 42  1  0  0  0  0
 41 37  1  0  0  0  0
 43 33  1  0  0  0  0
 45 35  1  0  0  0  0
 49 41  1  0  0  0  0
M  END
$$$$
