YAF.pdb
 OpenBabel07022419193D

 53 54  0  0  1  0  0  0  0  0999 V2000
    0.3310   -1.5200    5.8620 O   0  0  0  0  0  0  0  0  0  0  0  0
    1.2170   -0.9420    4.9440 C   0  0  0  0  0  0  0  0  0  0  0  0
    1.2830   -1.4240    3.6550 C   0  0  0  0  0  0  0  0  0  0  0  0
    2.1630   -0.8500    2.7440 C   0  0  0  0  0  0  0  0  0  0  0  0
    2.9920    0.2040    3.0760 C   0  0  0  0  0  0  0  0  0  0  0  0
    3.8680    0.7360    2.0540 C   0  0  0  0  0  0  0  0  0  0  0  0
    3.4230    1.8570    1.2210 C   0  0  2  0  0  0  0  0  0  0  0  0
    3.0920    3.0710    1.9000 N   0  0  0  0  0  0  0  0  0  0  0  0
    2.3910    1.4400    0.2260 C   0  0  0  0  0  0  0  0  0  0  0  0
    2.5900    0.3620   -0.3850 O   0  0  0  0  0  0  0  0  0  0  0  0
    2.9050    0.6650    4.3730 C   0  0  0  0  0  0  0  0  0  0  0  0
    2.0370    0.1040    5.2840 C   0  0  0  0  0  0  0  0  0  0  0  0
   -0.6700   -1.5380    5.7170 H   0  0  0  0  0  0  0  0  0  0  0  0
    0.6310   -2.2490    3.4010 H   0  0  0  0  0  0  0  0  0  0  0  0
    2.1530   -1.2930    1.7580 H   0  0  0  0  0  0  0  0  0  0  0  0
    4.1550   -0.1070    1.3580 H   0  0  0  0  0  0  0  0  0  0  0  0
    4.8510    0.9800    2.5590 H   0  0  0  0  0  0  0  0  0  0  0  0
    4.3140    2.1280    0.5700 H   0  0  0  0  0  0  0  0  0  0  0  0
    3.6920    3.1770    2.7230 H   0  0  0  0  0  0  0  0  0  0  0  0
    3.1420    3.8910    1.2730 H   0  0  0  0  0  0  0  0  0  0  0  0
    3.5400    1.4840    4.6540 H   0  0  0  0  0  0  0  0  0  0  0  0
    2.0140    0.5090    6.2840 H   0  0  0  0  0  0  0  0  0  0  0  0
    0.6800    1.9730   -2.4280 C   0  0  0  0  0  0  0  0  0  0  0  0
    0.2550    1.7880   -0.9910 C   0  0  2  0  0  0  0  0  0  0  0  0
    1.2380    2.1830   -0.0470 N   0  0  0  0  0  0  0  0  0  0  0  0
   -0.2750    0.4100   -0.7570 C   0  0  0  0  0  0  0  0  0  0  0  0
    0.1540   -0.2130    0.2500 O   0  0  0  0  0  0  0  0  0  0  0  0
   -0.0680    2.5490   -3.0220 H   0  0  0  0  0  0  0  0  0  0  0  0
    1.6140    2.5790   -2.4350 H   0  0  0  0  0  0  0  0  0  0  0  0
    0.8220    0.9790   -2.8810 H   0  0  0  0  0  0  0  0  0  0  0  0
   -0.6750    2.4390   -0.8480 H   0  0  0  0  0  0  0  0  0  0  0  0
    1.1110    3.0930    0.4950 H   0  0  0  0  0  0  0  0  0  0  0  0
   -1.2150   -0.1660   -1.6270 N   0  0  0  0  0  0  0  0  0  0  0  0
   -1.7110   -1.4990   -1.3770 C   0  0  1  0  0  0  0  0  0  0  0  0
   -3.1720   -1.5120   -1.0640 C   0  0  0  0  0  0  0  0  0  0  0  0
   -3.6260   -2.8910   -0.8170 C   0  0  0  0  0  0  0  0  0  0  0  0
   -3.5530   -3.4570    0.4560 C   0  0  0  0  0  0  0  0  0  0  0  0
   -3.9820   -4.7280    0.7240 C   0  0  0  0  0  0  0  0  0  0  0  0
   -4.5090   -5.5030   -0.2780 C   0  0  0  0  0  0  0  0  0  0  0  0
   -4.5990   -4.9800   -1.5560 C   0  0  0  0  0  0  0  0  0  0  0  0
   -4.1600   -3.6960   -1.7980 C   0  0  0  0  0  0  0  0  0  0  0  0
   -1.2880   -2.4400   -2.4330 C   0  0  0  0  0  0  0  0  0  0  0  0
   -1.5410   -3.6620   -2.4520 O   0  0  0  0  0  0  0  0  0  0  0  0
   -0.5360   -1.9600   -3.5240 O   0  0  0  0  0  0  0  0  0  0  0  0
   -1.5580    0.3540   -2.4460 H   0  0  0  0  0  0  0  0  0  0  0  0
   -1.1990   -1.8650   -0.4370 H   0  0  0  0  0  0  0  0  0  0  0  0
   -3.3010   -0.9450   -0.1070 H   0  0  0  0  0  0  0  0  0  0  0  0
   -3.7960   -1.0600   -1.8620 H   0  0  0  0  0  0  0  0  0  0  0  0
   -3.1370   -2.8400    1.2400 H   0  0  0  0  0  0  0  0  0  0  0  0
   -3.9160   -5.1450    1.7130 H   0  0  0  0  0  0  0  0  0  0  0  0
   -4.8630   -6.5150   -0.1220 H   0  0  0  0  0  0  0  0  0  0  0  0
   -5.0200   -5.5920   -2.3680 H   0  0  0  0  0  0  0  0  0  0  0  0
   -4.2430   -3.3020   -2.8230 H   0  0  0  0  0  0  0  0  0  0  0  0
  2 12  1  0  0  0  0
  2  1  1  0  0  0  0
  3  2  2  0  0  0  0
  4  5  2  0  0  0  0
  4  3  1  0  0  0  0
  5 11  1  0  0  0  0
  6 17  1  0  0  0  0
  6  5  1  0  0  0  0
  7 18  1  6  0  0  0
  7  8  1  0  0  0  0
  7  6  1  0  0  0  0
  8 19  1  0  0  0  0
  9  7  1  0  0  0  0
 10  9  2  0  0  0  0
 11 21  1  0  0  0  0
 11 12  2  0  0  0  0
 12 22  1  0  0  0  0
 13  1  1  0  0  0  0
 14  3  1  0  0  0  0
 15  4  1  0  0  0  0
 16  6  1  0  0  0  0
 20  8  1  0  0  0  0
 23 24  1  0  0  0  0
 24 31  1  1  0  0  0
 24 26  1  0  0  0  0
 24 25  1  0  0  0  0
 25  9  1  0  0  0  0
 25 32  1  0  0  0  0
 26 27  2  0  0  0  0
 28 23  1  0  0  0  0
 29 23  1  0  0  0  0
 30 23  1  0  0  0  0
 33 34  1  0  0  0  0
 33 26  1  0  0  0  0
 34 35  1  0  0  0  0
 34 46  1  1  0  0  0
 35 36  1  0  0  0  0
 35 47  1  0  0  0  0
 36 37  1  0  0  0  0
 37 38  2  0  0  0  0
 37 49  1  0  0  0  0
 38 50  1  0  0  0  0
 39 51  1  0  0  0  0
 39 38  1  0  0  0  0
 40 39  2  0  0  0  0
 41 40  1  0  0  0  0
 41 36  2  0  0  0  0
 42 34  1  0  0  0  0
 43 42  1  0  0  0  0
 44 42  2  0  0  0  0
 45 33  1  0  0  0  0
 48 35  1  0  0  0  0
 52 40  1  0  0  0  0
 53 41  1  0  0  0  0
M  END
$$$$
