YAH.pdb
 OpenBabel07022419193D

 50 51  0  0  1  0  0  0  0  0999 V2000
    1.9190   -4.5570    1.6960 O   0  0  0  0  0  0  0  0  0  0  0  0
    2.3290   -3.3510    1.0850 C   0  0  0  0  0  0  0  0  0  0  0  0
    1.5490   -2.7150    0.1350 C   0  0  0  0  0  0  0  0  0  0  0  0
    1.9910   -1.5330   -0.4380 C   0  0  0  0  0  0  0  0  0  0  0  0
    3.1800   -0.9830   -0.0820 C   0  0  0  0  0  0  0  0  0  0  0  0
    3.7140    0.2930   -0.6110 C   0  0  0  0  0  0  0  0  0  0  0  0
    3.3930    1.4490    0.3100 C   0  0  2  0  0  0  0  0  0  0  0  0
    3.8900    1.1640    1.6490 N   0  0  0  0  0  0  0  0  0  0  0  0
    2.0620    1.9840    0.2350 C   0  0  0  0  0  0  0  0  0  0  0  0
    1.9060    3.0880   -0.4540 O   0  0  0  0  0  0  0  0  0  0  0  0
    3.9660   -1.6350    0.8820 C   0  0  0  0  0  0  0  0  0  0  0  0
    3.5410   -2.7990    1.4510 C   0  0  0  0  0  0  0  0  0  0  0  0
    1.6650   -4.5510    2.6710 H   0  0  0  0  0  0  0  0  0  0  0  0
    0.6110   -3.1780   -0.1260 H   0  0  0  0  0  0  0  0  0  0  0  0
    1.3310   -1.0870   -1.1870 H   0  0  0  0  0  0  0  0  0  0  0  0
    3.1680    0.4650   -1.5990 H   0  0  0  0  0  0  0  0  0  0  0  0
    4.7870    0.1810   -0.7900 H   0  0  0  0  0  0  0  0  0  0  0  0
    4.1180    2.2690   -0.0410 H   0  0  0  0  0  0  0  0  0  0  0  0
    4.8880    1.1340    1.7690 H   0  0  0  0  0  0  0  0  0  0  0  0
    3.3920    0.3850    2.1300 H   0  0  0  0  0  0  0  0  0  0  0  0
    4.9290   -1.2230    1.2010 H   0  0  0  0  0  0  0  0  0  0  0  0
    4.1640   -3.2900    2.2000 H   0  0  0  0  0  0  0  0  0  0  0  0
   -0.6200    2.3030   -0.8870 C   0  0  0  0  0  0  0  0  0  0  0  0
   -0.3830    2.2030    0.6680 C   0  0  2  0  0  0  0  0  0  0  0  0
    0.8580    1.5070    0.7990 N   0  0  0  0  0  0  0  0  0  0  0  0
   -1.5560    1.5790    1.2640 C   0  0  0  0  0  0  0  0  0  0  0  0
   -2.5810    2.3170    1.4620 O   0  0  0  0  0  0  0  0  0  0  0  0
   -0.0640    1.4920   -1.3970 H   0  0  0  0  0  0  0  0  0  0  0  0
   -0.2430    3.2800   -1.2450 H   0  0  0  0  0  0  0  0  0  0  0  0
   -1.7240    2.2690   -1.0810 H   0  0  0  0  0  0  0  0  0  0  0  0
   -0.2520    3.2960    0.9050 H   0  0  0  0  0  0  0  0  0  0  0  0
    0.9160    0.5890    1.3460 H   0  0  0  0  0  0  0  0  0  0  0  0
   -1.6720    0.2170    1.6430 N   0  0  0  0  0  0  0  0  0  0  0  0
   -2.8470   -0.3540    2.2340 C   0  0  1  0  0  0  0  0  0  0  0  0
   -3.8620   -0.7900    1.1910 C   0  0  0  0  0  0  0  0  0  0  0  0
   -3.3940   -1.7960    0.2430 C   0  0  0  0  0  0  0  0  0  0  0  0
   -4.1690   -2.3140   -0.8090 C   0  0  0  0  0  0  0  0  0  0  0  0
   -3.4410   -3.1960   -1.4820 N   0  0  0  0  0  0  0  0  0  0  0  0
   -2.2360   -3.2520   -0.8880 C   0  0  0  0  0  0  0  0  0  0  0  0
   -2.2230   -2.4020    0.1500 N   0  0  0  0  0  0  0  0  0  0  0  0
   -2.5990   -1.4940    3.1310 C   0  0  0  0  0  0  0  0  0  0  0  0
   -1.4300   -1.9220    3.3440 O   0  0  0  0  0  0  0  0  0  0  0  0
   -3.6190   -2.1690    3.7950 O   0  0  0  0  0  0  0  0  0  0  0  0
   -0.8470   -0.3960    1.4740 H   0  0  0  0  0  0  0  0  0  0  0  0
   -3.4250    0.4320    2.8210 H   0  0  0  0  0  0  0  0  0  0  0  0
   -4.3560    0.0940    0.7310 H   0  0  0  0  0  0  0  0  0  0  0  0
   -4.6920   -1.2750    1.7950 H   0  0  0  0  0  0  0  0  0  0  0  0
   -5.1810   -2.0500   -1.0440 H   0  0  0  0  0  0  0  0  0  0  0  0
   -3.7180   -3.7640   -2.3310 H   0  0  0  0  0  0  0  0  0  0  0  0
   -1.3980   -3.8790   -1.1860 H   0  0  0  0  0  0  0  0  0  0  0  0
  1 13  1  0  0  0  0
  2 12  1  0  0  0  0
  2  1  1  0  0  0  0
  3  2  2  0  0  0  0
  4  5  2  0  0  0  0
  4  3  1  0  0  0  0
  5 11  1  0  0  0  0
  6  5  1  0  0  0  0
  6  7  1  0  0  0  0
  7 18  1  6  0  0  0
  7  8  1  0  0  0  0
  8 19  1  0  0  0  0
  8 20  1  0  0  0  0
  9  7  1  0  0  0  0
  9 25  1  0  0  0  0
 10  9  2  0  0  0  0
 11 21  1  0  0  0  0
 11 12  2  0  0  0  0
 12 22  1  0  0  0  0
 14  3  1  0  0  0  0
 15  4  1  0  0  0  0
 16  6  1  0  0  0  0
 17  6  1  0  0  0  0
 23 24  1  0  0  0  0
 24 25  1  0  0  0  0
 24 31  1  1  0  0  0
 24 26  1  0  0  0  0
 25 32  1  0  0  0  0
 26 27  2  0  0  0  0
 26 33  1  0  0  0  0
 28 23  1  0  0  0  0
 29 23  1  0  0  0  0
 30 23  1  0  0  0  0
 33 34  1  0  0  0  0
 34 45  1  1  0  0  0
 34 41  1  0  0  0  0
 35 47  1  0  0  0  0
 35 34  1  0  0  0  0
 36 35  1  0  0  0  0
 37 36  2  0  0  0  0
 38 39  1  0  0  0  0
 38 37  1  0  0  0  0
 39 40  2  0  0  0  0
 40 36  1  0  0  0  0
 41 42  2  0  0  0  0
 41 43  1  0  0  0  0
 44 33  1  0  0  0  0
 46 35  1  0  0  0  0
 48 37  1  0  0  0  0
 49 38  1  0  0  0  0
 50 39  1  0  0  0  0
M  END
$$$$
