YAK.pdb
 OpenBabel07022419193D

 54 54  0  0  1  0  0  0  0  0999 V2000
    5.0980   -0.4560    5.7380 O   0  0  0  0  0  0  0  0  0  0  0  0
    5.1130   -0.3880    4.3450 C   0  0  0  0  0  0  0  0  0  0  0  0
    4.5700   -1.4260    3.6300 C   0  0  0  0  0  0  0  0  0  0  0  0
    4.5540   -1.4170    2.2530 C   0  0  0  0  0  0  0  0  0  0  0  0
    5.1000   -0.3350    1.5910 C   0  0  0  0  0  0  0  0  0  0  0  0
    5.0850   -0.3220    0.1180 C   0  0  0  0  0  0  0  0  0  0  0  0
    3.8370    0.3200   -0.4510 C   0  0  2  0  0  0  0  0  0  0  0  0
    3.7690    1.6840    0.0130 N   0  0  0  0  0  0  0  0  0  0  0  0
    2.6190   -0.4260   -0.1240 C   0  0  0  0  0  0  0  0  0  0  0  0
    2.5140   -1.6340   -0.4560 O   0  0  0  0  0  0  0  0  0  0  0  0
    5.6440    0.7040    2.3140 C   0  0  0  0  0  0  0  0  0  0  0  0
    5.6590    0.6940    3.6910 C   0  0  0  0  0  0  0  0  0  0  0  0
    5.4270   -1.2930    6.2090 H   0  0  0  0  0  0  0  0  0  0  0  0
    4.1320   -2.2920    4.1210 H   0  0  0  0  0  0  0  0  0  0  0  0
    4.1150   -2.2560    1.7260 H   0  0  0  0  0  0  0  0  0  0  0  0
    5.9540    0.2640   -0.2820 H   0  0  0  0  0  0  0  0  0  0  0  0
    5.2240   -1.3570   -0.2530 H   0  0  0  0  0  0  0  0  0  0  0  0
    4.0020    0.3750   -1.5610 H   0  0  0  0  0  0  0  0  0  0  0  0
    3.5220    1.7720    1.0070 H   0  0  0  0  0  0  0  0  0  0  0  0
    3.1530    2.2640   -0.5990 H   0  0  0  0  0  0  0  0  0  0  0  0
    6.0860    1.5780    1.8320 H   0  0  0  0  0  0  0  0  0  0  0  0
    6.0900    1.5170    4.2660 H   0  0  0  0  0  0  0  0  0  0  0  0
    0.1070   -0.7120    2.3840 C   0  0  0  0  0  0  0  0  0  0  0  0
    0.3250   -0.5650    0.8910 C   0  0  2  0  0  0  0  0  0  0  0  0
    1.5160    0.1440    0.5650 N   0  0  0  0  0  0  0  0  0  0  0  0
   -0.8950   -0.0070    0.3040 C   0  0  0  0  0  0  0  0  0  0  0  0
   -0.8100    1.0150   -0.4190 O   0  0  0  0  0  0  0  0  0  0  0  0
    0.9340   -1.3820    2.7470 H   0  0  0  0  0  0  0  0  0  0  0  0
   -0.8640   -1.1930    2.5250 H   0  0  0  0  0  0  0  0  0  0  0  0
    0.1950    0.2570    2.8930 H   0  0  0  0  0  0  0  0  0  0  0  0
    0.4540   -1.6180    0.5030 H   0  0  0  0  0  0  0  0  0  0  0  0
    1.5820    1.1530    0.8520 H   0  0  0  0  0  0  0  0  0  0  0  0
   -2.1780   -0.5580    0.5050 N   0  0  0  0  0  0  0  0  0  0  0  0
   -3.3380    0.0520   -0.1110 C   0  0  1  0  0  0  0  0  0  0  0  0
   -3.8780   -0.9610   -1.0910 C   0  0  0  0  0  0  0  0  0  0  0  0
   -5.0820   -0.5400   -1.8450 C   0  0  0  0  0  0  0  0  0  0  0  0
   -5.4840   -1.6450   -2.7910 C   0  0  0  0  0  0  0  0  0  0  0  0
   -5.8150   -2.9450   -2.1070 C   0  0  0  0  0  0  0  0  0  0  0  0
   -6.2020   -3.9230   -3.1420 N   0  0  0  0  0  0  0  0  0  0  0  0
   -4.3130    0.5170    0.8840 C   0  0  0  0  0  0  0  0  0  0  0  0
   -5.3950    1.0900    0.6240 O   0  0  0  0  0  0  0  0  0  0  0  0
   -4.0210    0.3090    2.2350 O   0  0  0  0  0  0  0  0  0  0  0  0
   -2.3050   -1.4030    1.0940 H   0  0  0  0  0  0  0  0  0  0  0  0
   -3.0100    0.9320   -0.6980 H   0  0  0  0  0  0  0  0  0  0  0  0
   -3.0700   -1.2630   -1.7540 H   0  0  0  0  0  0  0  0  0  0  0  0
   -4.1780   -1.8430   -0.4470 H   0  0  0  0  0  0  0  0  0  0  0  0
   -4.7700    0.3280   -2.4990 H   0  0  0  0  0  0  0  0  0  0  0  0
   -5.9220   -0.2080   -1.2170 H   0  0  0  0  0  0  0  0  0  0  0  0
   -4.6520   -1.8810   -3.5120 H   0  0  0  0  0  0  0  0  0  0  0  0
   -6.3270   -1.3230   -3.4610 H   0  0  0  0  0  0  0  0  0  0  0  0
   -4.8690   -3.3050   -1.6150 H   0  0  0  0  0  0  0  0  0  0  0  0
   -6.6310   -2.7670   -1.3990 H   0  0  0  0  0  0  0  0  0  0  0  0
   -5.9610   -4.8890   -2.8240 H   0  0  0  0  0  0  0  0  0  0  0  0
   -5.7410   -3.6850   -4.0440 H   0  0  0  0  0  0  0  0  0  0  0  0
  1 13  1  0  0  0  0
  2  1  1  0  0  0  0
  3 14  1  0  0  0  0
  3  2  2  0  0  0  0
  4  3  1  0  0  0  0
  5  4  2  0  0  0  0
  5 11  1  0  0  0  0
  6  5  1  0  0  0  0
  7 18  1  6  0  0  0
  7  9  1  0  0  0  0
  7  8  1  0  0  0  0
  7  6  1  0  0  0  0
  8 19  1  0  0  0  0
  9 25  1  0  0  0  0
 10  9  2  0  0  0  0
 11 12  2  0  0  0  0
 12 22  1  0  0  0  0
 12  2  1  0  0  0  0
 15  4  1  0  0  0  0
 16  6  1  0  0  0  0
 17  6  1  0  0  0  0
 20  8  1  0  0  0  0
 21 11  1  0  0  0  0
 23 29  1  0  0  0  0
 23 28  1  0  0  0  0
 23 30  1  0  0  0  0
 24 31  1  6  0  0  0
 24 23  1  0  0  0  0
 25 32  1  0  0  0  0
 25 24  1  0  0  0  0
 26 33  1  0  0  0  0
 26 24  1  0  0  0  0
 27 26  2  0  0  0  0
 33 43  1  0  0  0  0
 34 44  1  6  0  0  0
 34 33  1  0  0  0  0
 34 40  1  0  0  0  0
 35 46  1  0  0  0  0
 35 34  1  0  0  0  0
 36 48  1  0  0  0  0
 36 35  1  0  0  0  0
 37 38  1  0  0  0  0
 37 36  1  0  0  0  0
 38 51  1  0  0  0  0
 38 52  1  0  0  0  0
 39 53  1  0  0  0  0
 39 38  1  0  0  0  0
 40 42  1  0  0  0  0
 41 40  2  0  0  0  0
 45 35  1  0  0  0  0
 47 36  1  0  0  0  0
 49 37  1  0  0  0  0
 50 37  1  0  0  0  0
 54 39  1  0  0  0  0
M  END
$$$$
