YAM.pdb
 OpenBabel07022419193D

 50 50  0  0  1  0  0  0  0  0999 V2000
    0.7520   -4.2200   -0.9690 O   0  0  0  0  0  0  0  0  0  0  0  0
    1.4470   -3.0080   -0.8620 C   0  0  0  0  0  0  0  0  0  0  0  0
    2.0520   -2.3950   -1.9360 C   0  0  0  0  0  0  0  0  0  0  0  0
    2.7340   -1.2100   -1.8420 C   0  0  0  0  0  0  0  0  0  0  0  0
    2.8300   -0.5860   -0.6100 C   0  0  0  0  0  0  0  0  0  0  0  0
    3.5930    0.6600   -0.5160 C   0  0  0  0  0  0  0  0  0  0  0  0
    2.9030    1.9320   -0.7960 C   0  0  2  0  0  0  0  0  0  0  0  0
    3.9510    2.9800   -0.6270 N   0  0  0  0  0  0  0  0  0  0  0  0
    1.7970    2.3350    0.0490 C   0  0  0  0  0  0  0  0  0  0  0  0
    1.9780    3.2990    0.8750 O   0  0  0  0  0  0  0  0  0  0  0  0
    2.2400   -1.1670    0.4800 C   0  0  0  0  0  0  0  0  0  0  0  0
    1.5650   -2.3510    0.3530 C   0  0  0  0  0  0  0  0  0  0  0  0
    0.9140   -4.8620   -0.1780 H   0  0  0  0  0  0  0  0  0  0  0  0
    1.9710   -2.8920   -2.8980 H   0  0  0  0  0  0  0  0  0  0  0  0
    3.2070   -0.7510   -2.7340 H   0  0  0  0  0  0  0  0  0  0  0  0
    4.1290    0.6910    0.4650 H   0  0  0  0  0  0  0  0  0  0  0  0
    4.4380    0.5760   -1.2650 H   0  0  0  0  0  0  0  0  0  0  0  0
    2.6490    2.0330   -1.8930 H   0  0  0  0  0  0  0  0  0  0  0  0
    3.4690    3.8900   -0.4720 H   0  0  0  0  0  0  0  0  0  0  0  0
    4.5140    3.0680   -1.5020 H   0  0  0  0  0  0  0  0  0  0  0  0
    2.3190   -0.6650    1.4530 H   0  0  0  0  0  0  0  0  0  0  0  0
    1.0860   -2.8320    1.2250 H   0  0  0  0  0  0  0  0  0  0  0  0
   -1.5340    3.1150    0.1250 C   0  0  0  0  0  0  0  0  0  0  0  0
   -0.5200    2.2600    0.9250 C   0  0  2  0  0  0  0  0  0  0  0  0
    0.4840    1.7490    0.0460 N   0  0  0  0  0  0  0  0  0  0  0  0
   -1.3240    1.2750    1.6470 C   0  0  0  0  0  0  0  0  0  0  0  0
   -2.2000    1.7630    2.4510 O   0  0  0  0  0  0  0  0  0  0  0  0
   -2.2300    3.5210    0.9080 H   0  0  0  0  0  0  0  0  0  0  0  0
   -2.1340    2.4810   -0.5530 H   0  0  0  0  0  0  0  0  0  0  0  0
   -1.0250    3.9420   -0.3810 H   0  0  0  0  0  0  0  0  0  0  0  0
   -0.0590    3.0110    1.6230 H   0  0  0  0  0  0  0  0  0  0  0  0
    0.2710    0.9610   -0.5920 H   0  0  0  0  0  0  0  0  0  0  0  0
   -2.1780   -5.1260    1.7400 C   0  0  0  0  0  0  0  0  0  0  0  0
   -3.2340   -4.1190    2.8160 S   0  0  0  0  0  0  0  0  0  0  0  0
   -3.9300   -2.7540    1.8730 C   0  0  0  0  0  0  0  0  0  0  0  0
   -2.9340   -1.7780    1.4090 C   0  0  0  0  0  0  0  0  0  0  0  0
   -2.1310   -1.0020    2.3600 C   0  0  2  0  0  0  0  0  0  0  0  0
   -1.2420   -0.1210    1.5580 N   0  0  0  0  0  0  0  0  0  0  0  0
   -1.3380   -1.6750    3.3680 C   0  0  0  0  0  0  0  0  0  0  0  0
   -0.0640   -1.4970    3.3270 O   0  0  0  0  0  0  0  0  0  0  0  0
   -1.7440   -2.4930    4.3910 O   0  0  0  0  0  0  0  0  0  0  0  0
   -2.5480   -6.1930    1.7700 H   0  0  0  0  0  0  0  0  0  0  0  0
   -1.1370   -5.1770    2.1130 H   0  0  0  0  0  0  0  0  0  0  0  0
   -2.2270   -4.8270    0.6880 H   0  0  0  0  0  0  0  0  0  0  0  0
   -4.3790   -3.2290    0.9450 H   0  0  0  0  0  0  0  0  0  0  0  0
   -4.8190   -2.3040    2.3730 H   0  0  0  0  0  0  0  0  0  0  0  0
   -3.4030   -1.0600    0.6590 H   0  0  0  0  0  0  0  0  0  0  0  0
   -2.2170   -2.3520    0.7290 H   0  0  0  0  0  0  0  0  0  0  0  0
   -2.8280   -0.3030    2.9200 H   0  0  0  0  0  0  0  0  0  0  0  0
   -0.5450   -0.5250    0.9120 H   0  0  0  0  0  0  0  0  0  0  0  0
  1  2  1  0  0  0  0
  1 13  1  0  0  0  0
  2 12  1  0  0  0  0
  3  4  1  0  0  0  0
  3  2  2  0  0  0  0
  4  5  2  0  0  0  0
  5  6  1  0  0  0  0
  5 11  1  0  0  0  0
  6 16  1  0  0  0  0
  7 18  1  6  0  0  0
  7  8  1  0  0  0  0
  7  6  1  0  0  0  0
  7  9  1  0  0  0  0
  8 19  1  0  0  0  0
  9 10  2  0  0  0  0
 11 21  1  0  0  0  0
 12 11  2  0  0  0  0
 12 22  1  0  0  0  0
 14  3  1  0  0  0  0
 15  4  1  0  0  0  0
 17  6  1  0  0  0  0
 20  8  1  0  0  0  0
 23 28  1  0  0  0  0
 23 24  1  0  0  0  0
 24 31  1  1  0  0  0
 24 26  1  0  0  0  0
 25  9  1  0  0  0  0
 25 24  1  0  0  0  0
 26 27  2  0  0  0  0
 29 23  1  0  0  0  0
 30 23  1  0  0  0  0
 32 25  1  0  0  0  0
 33 42  1  0  0  0  0
 33 43  1  0  0  0  0
 33 34  1  0  0  0  0
 35 46  1  0  0  0  0
 35 34  1  0  0  0  0
 36 35  1  0  0  0  0
 36 37  1  0  0  0  0
 37 49  1  1  0  0  0
 37 39  1  0  0  0  0
 38 26  1  0  0  0  0
 38 37  1  0  0  0  0
 39 41  1  0  0  0  0
 40 39  2  0  0  0  0
 44 33  1  0  0  0  0
 45 35  1  0  0  0  0
 47 36  1  0  0  0  0
 48 36  1  0  0  0  0
 50 38  1  0  0  0  0
M  END
$$$$
