YAP.pdb
 OpenBabel07022419193D

 47 48  0  0  1  0  0  0  0  0999 V2000
    5.3410   -3.4950    1.5300 O   0  0  0  0  0  0  0  0  0  0  0  0
    4.8950   -2.1840    1.3470 C   0  0  0  0  0  0  0  0  0  0  0  0
    4.2940   -1.7670    0.1860 C   0  0  0  0  0  0  0  0  0  0  0  0
    3.8760   -0.4570    0.0700 C   0  0  0  0  0  0  0  0  0  0  0  0
    4.0390    0.4560    1.0840 C   0  0  0  0  0  0  0  0  0  0  0  0
    3.5890    1.8520    0.9580 C   0  0  0  0  0  0  0  0  0  0  0  0
    2.1760    2.0860    1.4340 C   0  0  2  0  0  0  0  0  0  0  0  0
    2.0080    1.7430    2.8240 N   0  0  0  0  0  0  0  0  0  0  0  0
    1.2550    1.3120    0.5680 C   0  0  0  0  0  0  0  0  0  0  0  0
    1.2400    1.4980   -0.6610 O   0  0  0  0  0  0  0  0  0  0  0  0
    4.6450    0.0460    2.2630 C   0  0  0  0  0  0  0  0  0  0  0  0
    5.0560   -1.2640    2.3600 C   0  0  0  0  0  0  0  0  0  0  0  0
    4.9730   -4.0900    2.2520 H   0  0  0  0  0  0  0  0  0  0  0  0
    4.1620   -2.4750   -0.6150 H   0  0  0  0  0  0  0  0  0  0  0  0
    3.4030   -0.1630   -0.8720 H   0  0  0  0  0  0  0  0  0  0  0  0
    3.7180    2.1890   -0.0900 H   0  0  0  0  0  0  0  0  0  0  0  0
    4.3100    2.4750    1.5540 H   0  0  0  0  0  0  0  0  0  0  0  0
    1.9870    3.1840    1.3560 H   0  0  0  0  0  0  0  0  0  0  0  0
    1.0200    2.0400    3.0790 H   0  0  0  0  0  0  0  0  0  0  0  0
    2.1680    0.7290    2.9950 H   0  0  0  0  0  0  0  0  0  0  0  0
    4.7850    0.7450    3.0750 H   0  0  0  0  0  0  0  0  0  0  0  0
    5.5300   -1.5770    3.2910 H   0  0  0  0  0  0  0  0  0  0  0  0
   -0.3070   -1.9110    0.4140 C   0  0  0  0  0  0  0  0  0  0  0  0
   -0.5460   -0.4350    0.3300 C   0  0  2  0  0  0  0  0  0  0  0  0
    0.3660    0.3440    1.1030 N   0  0  0  0  0  0  0  0  0  0  0  0
   -1.9330   -0.1350    0.7690 C   0  0  0  0  0  0  0  0  0  0  0  0
   -2.0620    0.7180    1.7180 O   0  0  0  0  0  0  0  0  0  0  0  0
    0.4130   -2.1910    1.2100 H   0  0  0  0  0  0  0  0  0  0  0  0
    0.0050   -2.3710   -0.5600 H   0  0  0  0  0  0  0  0  0  0  0  0
   -1.2610   -2.4070    0.6780 H   0  0  0  0  0  0  0  0  0  0  0  0
   -0.4730   -0.1830   -0.7730 H   0  0  0  0  0  0  0  0  0  0  0  0
    0.3840    0.1940    2.1340 H   0  0  0  0  0  0  0  0  0  0  0  0
   -3.0690   -0.7350    0.1970 N   0  0  0  0  0  0  0  0  0  0  0  0
   -3.0590   -1.6940   -0.8600 C   0  0  0  0  0  0  0  0  0  0  0  0
   -4.1960   -1.1610   -1.7440 C   0  0  0  0  0  0  0  0  0  0  0  0
   -5.1180   -0.4380   -0.7860 C   0  0  0  0  0  0  0  0  0  0  0  0
   -4.4280   -0.5010    0.5610 C   0  0  1  0  0  0  0  0  0  0  0  0
   -5.0230   -1.6660    1.2940 C   0  0  0  0  0  0  0  0  0  0  0  0
   -4.3700   -2.7120    1.5530 O   0  0  0  0  0  0  0  0  0  0  0  0
   -6.3410   -1.6490    1.7300 O   0  0  0  0  0  0  0  0  0  0  0  0
   -3.3090   -2.7210   -0.5230 H   0  0  0  0  0  0  0  0  0  0  0  0
   -2.1120   -1.6800   -1.4520 H   0  0  0  0  0  0  0  0  0  0  0  0
   -3.7380   -0.4090   -2.4190 H   0  0  0  0  0  0  0  0  0  0  0  0
   -4.7050   -1.9760   -2.2800 H   0  0  0  0  0  0  0  0  0  0  0  0
   -5.2560    0.6310   -1.0700 H   0  0  0  0  0  0  0  0  0  0  0  0
   -6.1030   -0.9470   -0.7350 H   0  0  0  0  0  0  0  0  0  0  0  0
   -4.5730    0.4400    1.1380 H   0  0  0  0  0  0  0  0  0  0  0  0
  1 13  1  0  0  0  0
  2  1  1  0  0  0  0
  2 12  1  0  0  0  0
  3  2  2  0  0  0  0
  4  3  1  0  0  0  0
  4  5  2  0  0  0  0
  5 11  1  0  0  0  0
  6  5  1  0  0  0  0
  6  7  1  0  0  0  0
  6 17  1  0  0  0  0
  7 18  1  6  0  0  0
  7  8  1  0  0  0  0
  8 20  1  0  0  0  0
  8 19  1  0  0  0  0
  9 25  1  0  0  0  0
  9  7  1  0  0  0  0
 10  9  2  0  0  0  0
 11 12  2  0  0  0  0
 11 21  1  0  0  0  0
 12 22  1  0  0  0  0
 14  3  1  0  0  0  0
 15  4  1  0  0  0  0
 16  6  1  0  0  0  0
 23 30  1  0  0  0  0
 23 28  1  0  0  0  0
 24 31  1  6  0  0  0
 24 23  1  0  0  0  0
 24 26  1  0  0  0  0
 24 25  1  0  0  0  0
 25 32  1  0  0  0  0
 26 27  2  0  0  0  0
 29 23  1  0  0  0  0
 33 37  1  0  0  0  0
 33 26  1  0  0  0  0
 34 41  1  0  0  0  0
 34 33  1  0  0  0  0
 35 34  1  0  0  0  0
 35 36  1  0  0  0  0
 36 46  1  0  0  0  0
 36 37  1  0  0  0  0
 37 47  1  1  0  0  0
 37 38  1  0  0  0  0
 38 39  2  0  0  0  0
 38 40  1  0  0  0  0
 42 34  1  0  0  0  0
 43 35  1  0  0  0  0
 44 35  1  0  0  0  0
 45 36  1  0  0  0  0
M  END
$$$$
