YAQ.pdb
 OpenBabel07022419193D

 50 50  0  0  1  0  0  0  0  0999 V2000
    3.1010    1.3220    5.0870 O   0  0  0  0  0  0  0  0  0  0  0  0
    3.3320    0.9520    3.7480 C   0  0  0  0  0  0  0  0  0  0  0  0
    2.4000    0.1520    3.1300 C   0  0  0  0  0  0  0  0  0  0  0  0
    2.6010   -0.2280    1.8120 C   0  0  0  0  0  0  0  0  0  0  0  0
    3.7070    0.1750    1.1100 C   0  0  0  0  0  0  0  0  0  0  0  0
    3.9290   -0.2240   -0.2890 C   0  0  0  0  0  0  0  0  0  0  0  0
    3.3150    0.7790   -1.2450 C   0  0  2  0  0  0  0  0  0  0  0  0
    3.8680    2.0880   -1.0730 N   0  0  0  0  0  0  0  0  0  0  0  0
    1.8450    0.7590   -1.0630 C   0  0  0  0  0  0  0  0  0  0  0  0
    1.2400    1.8040   -0.7130 O   0  0  0  0  0  0  0  0  0  0  0  0
    4.6230    0.9830    1.7730 C   0  0  0  0  0  0  0  0  0  0  0  0
    4.4580    1.3790    3.0770 C   0  0  0  0  0  0  0  0  0  0  0  0
    3.0800    0.6240    5.8290 H   0  0  0  0  0  0  0  0  0  0  0  0
    1.5150   -0.1760    3.6820 H   0  0  0  0  0  0  0  0  0  0  0  0
    1.8300   -0.8590    1.3860 H   0  0  0  0  0  0  0  0  0  0  0  0
    3.4220   -1.2100   -0.4520 H   0  0  0  0  0  0  0  0  0  0  0  0
    4.9880   -0.3710   -0.5010 H   0  0  0  0  0  0  0  0  0  0  0  0
    3.5570    0.4680   -2.2990 H   0  0  0  0  0  0  0  0  0  0  0  0
    4.7970    2.1520   -1.5680 H   0  0  0  0  0  0  0  0  0  0  0  0
    3.2200    2.8170   -1.4760 H   0  0  0  0  0  0  0  0  0  0  0  0
    5.5110    1.3100    1.2180 H   0  0  0  0  0  0  0  0  0  0  0  0
    5.1830    2.0150    3.5920 H   0  0  0  0  0  0  0  0  0  0  0  0
   -1.0300   -0.6730   -2.4890 C   0  0  0  0  0  0  0  0  0  0  0  0
   -0.3350   -0.5130   -1.1240 C   0  0  2  0  0  0  0  0  0  0  0  0
    1.0810   -0.4120   -1.2750 N   0  0  0  0  0  0  0  0  0  0  0  0
   -0.7650   -1.6820   -0.3320 C   0  0  0  0  0  0  0  0  0  0  0  0
    0.0450   -2.5190    0.1510 O   0  0  0  0  0  0  0  0  0  0  0  0
   -2.0830   -0.2910   -2.4240 H   0  0  0  0  0  0  0  0  0  0  0  0
   -0.4560   -0.1780   -3.2840 H   0  0  0  0  0  0  0  0  0  0  0  0
   -1.1150   -1.7450   -2.7650 H   0  0  0  0  0  0  0  0  0  0  0  0
   -0.7260    0.4610   -0.7460 H   0  0  0  0  0  0  0  0  0  0  0  0
    1.6350   -1.2710   -1.5700 H   0  0  0  0  0  0  0  0  0  0  0  0
   -4.7730    0.5860    1.4260 N   0  0  0  0  0  0  0  0  0  0  0  0
   -3.7440   -0.3130    1.8050 C   0  0  0  0  0  0  0  0  0  0  0  0
   -2.5530    0.0940    1.7090 O   0  0  0  0  0  0  0  0  0  0  0  0
   -3.9670   -1.6600    2.2970 C   0  0  0  0  0  0  0  0  0  0  0  0
   -2.9190   -2.6730    2.1240 C   0  0  0  0  0  0  0  0  0  0  0  0
   -2.5820   -3.0820    0.7120 C   0  0  2  0  0  0  0  0  0  0  0  0
   -2.1480   -1.9460   -0.0580 N   0  0  0  0  0  0  0  0  0  0  0  0
   -3.7410   -3.7680    0.1130 C   0  0  0  0  0  0  0  0  0  0  0  0
   -4.2360   -3.3500   -0.9480 O   0  0  0  0  0  0  0  0  0  0  0  0
   -4.2830   -4.8740    0.7200 O   0  0  0  0  0  0  0  0  0  0  0  0
   -5.1560    1.2940    2.0700 H   0  0  0  0  0  0  0  0  0  0  0  0
   -5.1640    0.5430    0.4700 H   0  0  0  0  0  0  0  0  0  0  0  0
   -4.2820   -1.5620    3.3790 H   0  0  0  0  0  0  0  0  0  0  0  0
   -4.9160   -2.0270    1.7990 H   0  0  0  0  0  0  0  0  0  0  0  0
   -3.3000   -3.6150    2.6320 H   0  0  0  0  0  0  0  0  0  0  0  0
   -1.9880   -2.4520    2.7040 H   0  0  0  0  0  0  0  0  0  0  0  0
   -1.6920   -3.8140    0.7660 H   0  0  0  0  0  0  0  0  0  0  0  0
   -2.8290   -1.2580   -0.4910 H   0  0  0  0  0  0  0  0  0  0  0  0
  1 13  1  0  0  0  0
  2  1  1  0  0  0  0
  3 14  1  0  0  0  0
  3  2  1  0  0  0  0
  4  3  2  0  0  0  0
  5 11  2  0  0  0  0
  5  4  1  0  0  0  0
  6  5  1  0  0  0  0
  7 18  1  6  0  0  0
  7  8  1  0  0  0  0
  7  9  1  0  0  0  0
  7  6  1  0  0  0  0
  9 10  2  0  0  0  0
 11 12  1  0  0  0  0
 12 22  1  0  0  0  0
 12  2  2  0  0  0  0
 15  4  1  0  0  0  0
 16  6  1  0  0  0  0
 17  6  1  0  0  0  0
 19  8  1  0  0  0  0
 20  8  1  0  0  0  0
 21 11  1  0  0  0  0
 23 28  1  0  0  0  0
 23 24  1  0  0  0  0
 24 31  1  1  0  0  0
 24 26  1  0  0  0  0
 25 24  1  0  0  0  0
 25  9  1  0  0  0  0
 26 39  1  0  0  0  0
 26 27  2  0  0  0  0
 29 23  1  0  0  0  0
 30 23  1  0  0  0  0
 32 25  1  0  0  0  0
 33 34  1  0  0  0  0
 33 43  1  0  0  0  0
 34 36  1  0  0  0  0
 35 34  2  0  0  0  0
 36 45  1  0  0  0  0
 37 36  1  0  0  0  0
 37 47  1  0  0  0  0
 37 48  1  0  0  0  0
 38 49  1  1  0  0  0
 38 37  1  0  0  0  0
 39 38  1  0  0  0  0
 40 38  1  0  0  0  0
 40 42  1  0  0  0  0
 41 40  2  0  0  0  0
 44 33  1  0  0  0  0
 46 36  1  0  0  0  0
 50 39  1  0  0  0  0
M  END
$$$$
