YAS.pdb
 OpenBabel07022419193D

 44 44  0  0  1  0  0  0  0  0999 V2000
   -5.8090    1.5680   -2.5460 O   0  0  0  0  0  0  0  0  0  0  0  0
   -4.9200    1.6460   -1.4620 C   0  0  0  0  0  0  0  0  0  0  0  0
   -4.5500    0.5150   -0.7720 C   0  0  0  0  0  0  0  0  0  0  0  0
   -3.6770    0.6040    0.2890 C   0  0  0  0  0  0  0  0  0  0  0  0
   -3.1560    1.8080    0.6880 C   0  0  0  0  0  0  0  0  0  0  0  0
   -2.2460    1.9050    1.8330 C   0  0  0  0  0  0  0  0  0  0  0  0
   -0.7960    1.7770    1.5800 C   0  0  2  0  0  0  0  0  0  0  0  0
   -0.2090    2.7400    0.6900 N   0  0  0  0  0  0  0  0  0  0  0  0
   -0.3070    0.3900    1.3280 C   0  0  0  0  0  0  0  0  0  0  0  0
   -0.8870   -0.6430    1.7370 O   0  0  0  0  0  0  0  0  0  0  0  0
   -3.5270    2.9360   -0.0030 C   0  0  0  0  0  0  0  0  0  0  0  0
   -4.4130    2.8650   -1.0840 C   0  0  0  0  0  0  0  0  0  0  0  0
   -6.5410    0.8600   -2.5370 H   0  0  0  0  0  0  0  0  0  0  0  0
   -4.9650   -0.4320   -1.0990 H   0  0  0  0  0  0  0  0  0  0  0  0
   -3.4080   -0.3190    0.8120 H   0  0  0  0  0  0  0  0  0  0  0  0
   -2.3850    2.8960    2.3870 H   0  0  0  0  0  0  0  0  0  0  0  0
   -2.5000    1.1630    2.6420 H   0  0  0  0  0  0  0  0  0  0  0  0
   -0.3100    2.0110    2.6090 H   0  0  0  0  0  0  0  0  0  0  0  0
   -0.6950    3.6590    0.7060 H   0  0  0  0  0  0  0  0  0  0  0  0
    0.7680    2.9520    1.0490 H   0  0  0  0  0  0  0  0  0  0  0  0
   -3.1640    3.9280    0.2430 H   0  0  0  0  0  0  0  0  0  0  0  0
   -4.7230    3.7350   -1.6510 H   0  0  0  0  0  0  0  0  0  0  0  0
    1.9680   -1.2860   -1.1040 C   0  0  0  0  0  0  0  0  0  0  0  0
    1.4430   -1.0990    0.2800 C   0  0  2  0  0  0  0  0  0  0  0  0
    0.9070    0.1940    0.5730 N   0  0  0  0  0  0  0  0  0  0  0  0
    2.4270   -1.5430    1.3340 C   0  0  0  0  0  0  0  0  0  0  0  0
    2.6450   -0.8330    2.3450 O   0  0  0  0  0  0  0  0  0  0  0  0
    2.2060   -0.3160   -1.6050 H   0  0  0  0  0  0  0  0  0  0  0  0
    2.8880   -1.9040   -1.1010 H   0  0  0  0  0  0  0  0  0  0  0  0
    1.2410   -1.8510   -1.7600 H   0  0  0  0  0  0  0  0  0  0  0  0
    0.5740   -1.8150    0.4180 H   0  0  0  0  0  0  0  0  0  0  0  0
    1.3830    1.0870    0.2460 H   0  0  0  0  0  0  0  0  0  0  0  0
    2.4850   -4.7460    3.2220 O   0  0  0  0  0  0  0  0  0  0  0  0
    3.7320   -4.6990    2.6180 C   0  0  0  0  0  0  0  0  0  0  0  0
    4.0750   -3.2900    2.1700 C   0  0  2  0  0  0  0  0  0  0  0  0
    3.1220   -2.7700    1.2090 N   0  0  0  0  0  0  0  0  0  0  0  0
    5.4260   -3.3410    1.5540 C   0  0  0  0  0  0  0  0  0  0  0  0
    5.6660   -2.9840    0.3790 O   0  0  0  0  0  0  0  0  0  0  0  0
    6.4940   -3.8060    2.3040 O   0  0  0  0  0  0  0  0  0  0  0  0
    1.8160   -5.0680    2.5650 H   0  0  0  0  0  0  0  0  0  0  0  0
    4.5140   -5.0380    3.3150 H   0  0  0  0  0  0  0  0  0  0  0  0
    3.7540   -5.3600    1.7260 H   0  0  0  0  0  0  0  0  0  0  0  0
    4.1330   -2.6580    3.0760 H   0  0  0  0  0  0  0  0  0  0  0  0
    2.9120   -3.3360    0.3420 H   0  0  0  0  0  0  0  0  0  0  0  0
  1 13  1  0  0  0  0
  1  2  1  0  0  0  0
  2 12  2  0  0  0  0
  2  3  1  0  0  0  0
  3  4  2  0  0  0  0
  4  5  1  0  0  0  0
  4 15  1  0  0  0  0
  5  6  1  0  0  0  0
  6 16  1  0  0  0  0
  6 17  1  0  0  0  0
  7  6  1  0  0  0  0
  7 18  1  1  0  0  0
  8 19  1  0  0  0  0
  8 20  1  0  0  0  0
  8  7  1  0  0  0  0
  9  7  1  0  0  0  0
  9 10  2  0  0  0  0
 11 21  1  0  0  0  0
 11  5  2  0  0  0  0
 12 11  1  0  0  0  0
 14  3  1  0  0  0  0
 22 12  1  0  0  0  0
 23 29  1  0  0  0  0
 23 24  1  0  0  0  0
 24 31  1  1  0  0  0
 24 25  1  0  0  0  0
 24 26  1  0  0  0  0
 25  9  1  0  0  0  0
 26 27  2  0  0  0  0
 28 23  1  0  0  0  0
 30 23  1  0  0  0  0
 32 25  1  0  0  0  0
 34 33  1  0  0  0  0
 34 41  1  0  0  0  0
 35 34  1  0  0  0  0
 35 43  1  1  0  0  0
 36 26  1  0  0  0  0
 36 35  1  0  0  0  0
 37 35  1  0  0  0  0
 37 39  1  0  0  0  0
 38 37  2  0  0  0  0
 40 33  1  0  0  0  0
 42 34  1  0  0  0  0
 44 36  1  0  0  0  0
M  END
$$$$
