YAT.pdb
 OpenBabel07022419193D

 47 47  0  0  1  0  0  0  0  0999 V2000
    2.7760   -2.5510    5.3190 O   0  0  0  0  0  0  0  0  0  0  0  0
    2.8920   -2.2800    3.9480 C   0  0  0  0  0  0  0  0  0  0  0  0
    1.7870   -2.2490    3.1230 C   0  0  0  0  0  0  0  0  0  0  0  0
    1.9270   -1.9800    1.7790 C   0  0  0  0  0  0  0  0  0  0  0  0
    3.1760   -1.7440    1.2660 C   0  0  0  0  0  0  0  0  0  0  0  0
    3.3940   -1.4440   -0.1890 C   0  0  0  0  0  0  0  0  0  0  0  0
    3.3260    0.0460   -0.4440 C   0  0  2  0  0  0  0  0  0  0  0  0
    4.3640    0.6450    0.3680 N   0  0  0  0  0  0  0  0  0  0  0  0
    2.0120    0.6420   -0.2120 C   0  0  0  0  0  0  0  0  0  0  0  0
    1.8230    1.5030    0.6840 O   0  0  0  0  0  0  0  0  0  0  0  0
    4.2830   -1.7730    2.0820 C   0  0  0  0  0  0  0  0  0  0  0  0
    4.1430   -2.0410    3.4240 C   0  0  0  0  0  0  0  0  0  0  0  0
    2.0860   -3.2490    5.6030 H   0  0  0  0  0  0  0  0  0  0  0  0
    0.8000   -2.4410    3.5530 H   0  0  0  0  0  0  0  0  0  0  0  0
    1.0620   -1.9550    1.1240 H   0  0  0  0  0  0  0  0  0  0  0  0
    2.6060   -1.9880   -0.7480 H   0  0  0  0  0  0  0  0  0  0  0  0
    4.3630   -1.8710   -0.5070 H   0  0  0  0  0  0  0  0  0  0  0  0
    3.6490    0.2170   -1.5110 H   0  0  0  0  0  0  0  0  0  0  0  0
    4.2470    1.6820    0.4520 H   0  0  0  0  0  0  0  0  0  0  0  0
    5.3150    0.4950   -0.0380 H   0  0  0  0  0  0  0  0  0  0  0  0
    5.2950   -1.5810    1.6670 H   0  0  0  0  0  0  0  0  0  0  0  0
    5.0410   -2.0600    4.0630 H   0  0  0  0  0  0  0  0  0  0  0  0
   -0.6940    1.7730   -1.9080 C   0  0  0  0  0  0  0  0  0  0  0  0
   -0.4000    0.8940   -0.7290 C   0  0  2  0  0  0  0  0  0  0  0  0
    0.8830    0.2760   -0.9910 N   0  0  0  0  0  0  0  0  0  0  0  0
   -1.3720   -0.1440   -0.4640 C   0  0  0  0  0  0  0  0  0  0  0  0
   -1.0390   -1.3530   -0.5040 O   0  0  0  0  0  0  0  0  0  0  0  0
    0.2210    2.3740   -2.1110 H   0  0  0  0  0  0  0  0  0  0  0  0
   -1.5120    2.4780   -1.7550 H   0  0  0  0  0  0  0  0  0  0  0  0
   -0.8710    1.1750   -2.8260 H   0  0  0  0  0  0  0  0  0  0  0  0
   -0.3430    1.5700    0.1750 H   0  0  0  0  0  0  0  0  0  0  0  0
    0.9240   -0.4280   -1.7580 H   0  0  0  0  0  0  0  0  0  0  0  0
   -2.9540   -0.6830    2.4340 C   0  0  0  0  0  0  0  0  0  0  0  0
   -4.2040   -0.5820    1.5650 C   0  0  1  0  0  0  0  0  0  0  0  0
   -4.7280    0.7170    1.6490 O   0  0  0  0  0  0  0  0  0  0  0  0
   -3.7390   -0.8340    0.1230 C   0  0  2  0  0  0  0  0  0  0  0  0
   -2.7310    0.1630   -0.1490 N   0  0  0  0  0  0  0  0  0  0  0  0
   -4.9200   -0.6380   -0.7340 C   0  0  0  0  0  0  0  0  0  0  0  0
   -4.9150    0.3160   -1.5530 O   0  0  0  0  0  0  0  0  0  0  0  0
   -6.0440   -1.4380   -0.6990 O   0  0  0  0  0  0  0  0  0  0  0  0
   -2.1700   -0.0750    1.9610 H   0  0  0  0  0  0  0  0  0  0  0  0
   -2.6410   -1.7460    2.4060 H   0  0  0  0  0  0  0  0  0  0  0  0
   -3.1950   -0.3470    3.4740 H   0  0  0  0  0  0  0  0  0  0  0  0
   -4.9390   -1.3500    1.8170 H   0  0  0  0  0  0  0  0  0  0  0  0
   -5.3090    0.8380    0.8530 H   0  0  0  0  0  0  0  0  0  0  0  0
   -3.3440   -1.8620    0.0620 H   0  0  0  0  0  0  0  0  0  0  0  0
   -2.9570    1.1780   -0.1280 H   0  0  0  0  0  0  0  0  0  0  0  0
  1 13  1  0  0  0  0
  2  1  1  0  0  0  0
  3 14  1  0  0  0  0
  3  2  2  0  0  0  0
  4  3  1  0  0  0  0
  5  4  2  0  0  0  0
  5 11  1  0  0  0  0
  6  5  1  0  0  0  0
  7 18  1  6  0  0  0
  7  9  1  0  0  0  0
  7  6  1  0  0  0  0
  7  8  1  0  0  0  0
  8 19  1  0  0  0  0
  9 10  2  0  0  0  0
 11 12  2  0  0  0  0
 12  2  1  0  0  0  0
 12 22  1  0  0  0  0
 15  4  1  0  0  0  0
 16  6  1  0  0  0  0
 17  6  1  0  0  0  0
 20  8  1  0  0  0  0
 21 11  1  0  0  0  0
 23 29  1  0  0  0  0
 23 24  1  0  0  0  0
 24 26  1  0  0  0  0
 24 31  1  1  0  0  0
 25 24  1  0  0  0  0
 25  9  1  0  0  0  0
 26 37  1  0  0  0  0
 27 26  2  0  0  0  0
 28 23  1  0  0  0  0
 30 23  1  0  0  0  0
 32 25  1  0  0  0  0
 33 43  1  0  0  0  0
 34 35  1  0  0  0  0
 34 44  1  1  0  0  0
 34 33  1  0  0  0  0
 36 46  1  6  0  0  0
 36 34  1  0  0  0  0
 37 47  1  0  0  0  0
 37 36  1  0  0  0  0
 38 40  1  0  0  0  0
 38 36  1  0  0  0  0
 39 38  2  0  0  0  0
 41 33  1  0  0  0  0
 42 33  1  0  0  0  0
 45 35  1  0  0  0  0
M  END
$$$$
