YAW.pdb
 OpenBabel07022419193D

 57 59  0  0  1  0  0  0  0  0999 V2000
    0.5630   -2.1700    4.6060 O   0  0  0  0  0  0  0  0  0  0  0  0
    1.5800   -1.4680    3.9350 C   0  0  0  0  0  0  0  0  0  0  0  0
    2.6070   -2.1470    3.2920 C   0  0  0  0  0  0  0  0  0  0  0  0
    3.5930   -1.4340    2.6440 C   0  0  0  0  0  0  0  0  0  0  0  0
    3.6050   -0.0540    2.6060 C   0  0  0  0  0  0  0  0  0  0  0  0
    4.6560    0.7070    1.9660 C   0  0  0  0  0  0  0  0  0  0  0  0
    4.4900    1.0470    0.5130 C   0  0  2  0  0  0  0  0  0  0  0  0
    5.7200    1.8180    0.1920 N   0  0  0  0  0  0  0  0  0  0  0  0
    3.3240    1.9110    0.2280 C   0  0  0  0  0  0  0  0  0  0  0  0
    3.3510    3.1640    0.3750 O   0  0  0  0  0  0  0  0  0  0  0  0
    2.5590    0.6100    3.2590 C   0  0  0  0  0  0  0  0  0  0  0  0
    1.5800   -0.0910    3.9020 C   0  0  0  0  0  0  0  0  0  0  0  0
   -0.3260   -1.7040    4.6700 H   0  0  0  0  0  0  0  0  0  0  0  0
    2.5870   -3.2330    3.3300 H   0  0  0  0  0  0  0  0  0  0  0  0
    4.3840   -2.0190    2.1510 H   0  0  0  0  0  0  0  0  0  0  0  0
    4.8090    1.6560    2.5450 H   0  0  0  0  0  0  0  0  0  0  0  0
    5.6390    0.1570    2.0540 H   0  0  0  0  0  0  0  0  0  0  0  0
    4.5410    0.1340   -0.0990 H   0  0  0  0  0  0  0  0  0  0  0  0
    6.4820    1.1070    0.0550 H   0  0  0  0  0  0  0  0  0  0  0  0
    5.5120    2.3550   -0.6580 H   0  0  0  0  0  0  0  0  0  0  0  0
    2.5770    1.6880    3.2220 H   0  0  0  0  0  0  0  0  0  0  0  0
    0.7690    0.4160    4.4090 H   0  0  0  0  0  0  0  0  0  0  0  0
    1.0420    2.6640   -1.9970 C   0  0  0  0  0  0  0  0  0  0  0  0
    0.9940    2.2060   -0.5100 C   0  0  2  0  0  0  0  0  0  0  0  0
    2.1030    1.3560   -0.2400 N   0  0  0  0  0  0  0  0  0  0  0  0
   -0.3190    1.5520   -0.3750 C   0  0  0  0  0  0  0  0  0  0  0  0
   -1.3990    2.2450   -0.4980 O   0  0  0  0  0  0  0  0  0  0  0  0
    1.7870    3.4690   -2.1130 H   0  0  0  0  0  0  0  0  0  0  0  0
    0.0440    3.1150   -2.1770 H   0  0  0  0  0  0  0  0  0  0  0  0
    1.1550    1.8130   -2.6690 H   0  0  0  0  0  0  0  0  0  0  0  0
    1.0200    3.1570    0.0380 H   0  0  0  0  0  0  0  0  0  0  0  0
    2.0330    0.3340   -0.3850 H   0  0  0  0  0  0  0  0  0  0  0  0
   -0.5530    0.1850   -0.1200 N   0  0  0  0  0  0  0  0  0  0  0  0
   -1.9000   -0.3820   -0.0150 C   0  0  1  0  0  0  0  0  0  0  0  0
   -2.0950   -1.0810   -1.3430 C   0  0  0  0  0  0  0  0  0  0  0  0
   -3.3690   -1.7740   -1.5230 C   0  0  0  0  0  0  0  0  0  0  0  0
   -4.5070   -1.2730   -2.1480 C   0  0  0  0  0  0  0  0  0  0  0  0
   -5.4860   -2.1860   -2.1040 N   0  0  0  0  0  0  0  0  0  0  0  0
   -5.0340   -3.3030   -1.4590 C   0  0  0  0  0  0  0  0  0  0  0  0
   -5.6650   -4.4910   -1.1870 C   0  0  0  0  0  0  0  0  0  0  0  0
   -4.9830   -5.4840   -0.5300 C   0  0  0  0  0  0  0  0  0  0  0  0
   -3.6760   -5.2770   -0.1530 C   0  0  0  0  0  0  0  0  0  0  0  0
   -3.0750   -4.0790   -0.4400 C   0  0  0  0  0  0  0  0  0  0  0  0
   -3.7170   -3.0360   -1.1030 C   0  0  0  0  0  0  0  0  0  0  0  0
   -2.1280   -1.1770    1.1700 C   0  0  0  0  0  0  0  0  0  0  0  0
   -3.2440   -1.6360    1.5230 O   0  0  0  0  0  0  0  0  0  0  0  0
   -1.0390   -1.4790    2.0150 O   0  0  0  0  0  0  0  0  0  0  0  0
    0.2380   -0.4640    0.0030 H   0  0  0  0  0  0  0  0  0  0  0  0
   -2.5930    0.5150    0.0050 H   0  0  0  0  0  0  0  0  0  0  0  0
   -1.2620   -1.8170   -1.5240 H   0  0  0  0  0  0  0  0  0  0  0  0
   -1.9190   -0.2930   -2.1230 H   0  0  0  0  0  0  0  0  0  0  0  0
   -4.6380   -0.2930   -2.6180 H   0  0  0  0  0  0  0  0  0  0  0  0
   -6.4680   -2.1210   -2.4840 H   0  0  0  0  0  0  0  0  0  0  0  0
   -6.6850   -4.6710   -1.4730 H   0  0  0  0  0  0  0  0  0  0  0  0
   -5.4680   -6.4520   -0.2990 H   0  0  0  0  0  0  0  0  0  0  0  0
   -3.1110   -6.0320    0.3620 H   0  0  0  0  0  0  0  0  0  0  0  0
   -2.0400   -3.8640   -0.1610 H   0  0  0  0  0  0  0  0  0  0  0  0
  1 13  1  0  0  0  0
  2  1  1  0  0  0  0
  3 14  1  0  0  0  0
  3  2  2  0  0  0  0
  4  3  1  0  0  0  0
  5  4  2  0  0  0  0
  5 11  1  0  0  0  0
  6 17  1  0  0  0  0
  6 16  1  0  0  0  0
  6  5  1  0  0  0  0
  7 18  1  6  0  0  0
  7  6  1  0  0  0  0
  8  7  1  0  0  0  0
  9 10  2  0  0  0  0
  9  7  1  0  0  0  0
 11 12  2  0  0  0  0
 12  2  1  0  0  0  0
 12 22  1  0  0  0  0
 15  4  1  0  0  0  0
 19  8  1  0  0  0  0
 20  8  1  0  0  0  0
 21 11  1  0  0  0  0
 23 24  1  0  0  0  0
 24 26  1  0  0  0  0
 24 25  1  0  0  0  0
 24 31  1  1  0  0  0
 25  9  1  0  0  0  0
 26 33  1  0  0  0  0
 27 26  2  0  0  0  0
 28 23  1  0  0  0  0
 29 23  1  0  0  0  0
 30 23  1  0  0  0  0
 32 25  1  0  0  0  0
 33 34  1  0  0  0  0
 33 48  1  0  0  0  0
 34 49  1  1  0  0  0
 34 45  1  0  0  0  0
 35 34  1  0  0  0  0
 36 35  1  0  0  0  0
 36 44  1  0  0  0  0
 37 38  1  0  0  0  0
 37 36  2  0  0  0  0
 38 39  1  0  0  0  0
 39 40  2  0  0  0  0
 39 44  1  0  0  0  0
 40 41  1  0  0  0  0
 41 55  1  0  0  0  0
 41 42  2  0  0  0  0
 42 56  1  0  0  0  0
 43 57  1  0  0  0  0
 43 42  1  0  0  0  0
 44 43  2  0  0  0  0
 45 46  2  0  0  0  0
 45 47  1  0  0  0  0
 50 35  1  0  0  0  0
 51 35  1  0  0  0  0
 52 37  1  0  0  0  0
 53 38  1  0  0  0  0
 54 40  1  0  0  0  0
M  END
$$$$
