YAY.pdb
 OpenBabel07022419193D

 54 55  0  0  1  0  0  0  0  0999 V2000
   -0.1670   -2.0090    6.3050 O   0  0  0  0  0  0  0  0  0  0  0  0
    0.7210   -1.6890    5.2850 C   0  0  0  0  0  0  0  0  0  0  0  0
    2.0590   -1.6640    5.6080 C   0  0  0  0  0  0  0  0  0  0  0  0
    2.9790   -1.3520    4.6290 C   0  0  0  0  0  0  0  0  0  0  0  0
    2.5420   -1.0670    3.3320 C   0  0  0  0  0  0  0  0  0  0  0  0
    3.5010   -0.7270    2.2510 C   0  0  0  0  0  0  0  0  0  0  0  0
    3.6640    0.7890    2.2860 C   0  0  2  0  0  0  0  0  0  0  0  0
    4.1620    1.1180    3.5920 N   0  0  0  0  0  0  0  0  0  0  0  0
    2.4260    1.5170    2.0030 C   0  0  0  0  0  0  0  0  0  0  0  0
    1.9080    2.2300    2.8980 O   0  0  0  0  0  0  0  0  0  0  0  0
    1.2000   -1.0990    3.0350 C   0  0  0  0  0  0  0  0  0  0  0  0
    0.2600   -1.4110    4.0080 C   0  0  0  0  0  0  0  0  0  0  0  0
   -0.8580   -2.7210    6.1310 H   0  0  0  0  0  0  0  0  0  0  0  0
    2.4150   -1.8790    6.5970 H   0  0  0  0  0  0  0  0  0  0  0  0
    4.0380   -1.3150    4.8180 H   0  0  0  0  0  0  0  0  0  0  0  0
    4.4810   -1.1570    2.5260 H   0  0  0  0  0  0  0  0  0  0  0  0
    3.1560   -1.0790    1.2620 H   0  0  0  0  0  0  0  0  0  0  0  0
    4.4830    1.0520    1.5580 H   0  0  0  0  0  0  0  0  0  0  0  0
    5.1880    0.9320    3.6980 H   0  0  0  0  0  0  0  0  0  0  0  0
    3.9190    2.0900    3.8990 H   0  0  0  0  0  0  0  0  0  0  0  0
    0.8590   -0.8810    2.0390 H   0  0  0  0  0  0  0  0  0  0  0  0
   -0.7910   -1.4320    3.7570 H   0  0  0  0  0  0  0  0  0  0  0  0
    0.9290    3.3530   -0.4470 C   0  0  0  0  0  0  0  0  0  0  0  0
    0.5350    2.2010    0.4920 C   0  0  2  0  0  0  0  0  0  0  0  0
    1.7500    1.4720    0.7390 N   0  0  0  0  0  0  0  0  0  0  0  0
   -0.5420    1.3950   -0.0900 C   0  0  0  0  0  0  0  0  0  0  0  0
   -1.6770    1.9310   -0.3240 O   0  0  0  0  0  0  0  0  0  0  0  0
    1.7400    3.9160    0.0280 H   0  0  0  0  0  0  0  0  0  0  0  0
    0.0110    3.9410   -0.6090 H   0  0  0  0  0  0  0  0  0  0  0  0
    1.2080    2.8820   -1.4050 H   0  0  0  0  0  0  0  0  0  0  0  0
    0.2150    2.6840    1.4140 H   0  0  0  0  0  0  0  0  0  0  0  0
    2.1900    0.8780    0.0030 H   0  0  0  0  0  0  0  0  0  0  0  0
   -5.5400   -3.9290   -4.8380 O   0  0  0  0  0  0  0  0  0  0  0  0
   -4.4860   -3.2310   -4.2390 C   0  0  0  0  0  0  0  0  0  0  0  0
   -4.4020   -1.8600   -4.3210 C   0  0  0  0  0  0  0  0  0  0  0  0
   -3.3490   -1.2110   -3.7180 C   0  0  0  0  0  0  0  0  0  0  0  0
   -2.3420   -1.8700   -3.0140 C   0  0  0  0  0  0  0  0  0  0  0  0
   -1.2210   -1.1300   -2.3920 C   0  0  0  0  0  0  0  0  0  0  0  0
   -1.5930   -0.7110   -1.0160 C   0  0  2  0  0  0  0  0  0  0  0  0
   -0.4510    0.0200   -0.4350 N   0  0  0  0  0  0  0  0  0  0  0  0
   -2.0320   -1.7900   -0.1300 C   0  0  0  0  0  0  0  0  0  0  0  0
   -1.4090   -2.0040    0.9680 O   0  0  0  0  0  0  0  0  0  0  0  0
   -2.4570   -3.2550   -2.9500 C   0  0  0  0  0  0  0  0  0  0  0  0
   -3.5070   -3.9010   -3.5520 C   0  0  0  0  0  0  0  0  0  0  0  0
   -3.0980   -2.6330   -0.3720 O   0  0  0  0  0  0  0  0  0  0  0  0
   -5.9530   -4.6880   -4.2940 H   0  0  0  0  0  0  0  0  0  0  0  0
   -5.1450   -1.2880   -4.8490 H   0  0  0  0  0  0  0  0  0  0  0  0
   -3.2500   -0.1250   -3.7630 H   0  0  0  0  0  0  0  0  0  0  0  0
   -1.0150   -0.2220   -2.9970 H   0  0  0  0  0  0  0  0  0  0  0  0
   -0.3180   -1.8090   -2.3840 H   0  0  0  0  0  0  0  0  0  0  0  0
   -2.4440    0.0120   -1.1040 H   0  0  0  0  0  0  0  0  0  0  0  0
    0.4480   -0.4680   -0.2710 H   0  0  0  0  0  0  0  0  0  0  0  0
   -1.6940   -3.8140   -2.4130 H   0  0  0  0  0  0  0  0  0  0  0  0
   -3.5560   -4.9970   -3.4740 H   0  0  0  0  0  0  0  0  0  0  0  0
  2  3  1  0  0  0  0
  2  1  1  0  0  0  0
  3 14  1  0  0  0  0
  4 15  1  0  0  0  0
  4  3  2  0  0  0  0
  5  4  1  0  0  0  0
  6  7  1  0  0  0  0
  6 16  1  0  0  0  0
  6  5  1  0  0  0  0
  7 18  1  6  0  0  0
  7  8  1  0  0  0  0
  8 19  1  0  0  0  0
  8 20  1  0  0  0  0
  9  7  1  0  0  0  0
  9 10  2  0  0  0  0
 11  5  2  0  0  0  0
 11 12  1  0  0  0  0
 12  2  2  0  0  0  0
 13  1  1  0  0  0  0
 17  6  1  0  0  0  0
 21 11  1  0  0  0  0
 22 12  1  0  0  0  0
 23 28  1  0  0  0  0
 23 24  1  0  0  0  0
 24 25  1  0  0  0  0
 24 31  1  1  0  0  0
 25  9  1  0  0  0  0
 26 24  1  0  0  0  0
 27 26  2  0  0  0  0
 29 23  1  0  0  0  0
 30 23  1  0  0  0  0
 32 25  1  0  0  0  0
 33 46  1  0  0  0  0
 33 34  1  0  0  0  0
 34 44  1  0  0  0  0
 35 34  2  0  0  0  0
 35 36  1  0  0  0  0
 36 37  2  0  0  0  0
 37 43  1  0  0  0  0
 37 38  1  0  0  0  0
 38 50  1  0  0  0  0
 38 39  1  0  0  0  0
 39 51  1  6  0  0  0
 39 40  1  0  0  0  0
 39 41  1  0  0  0  0
 40 52  1  0  0  0  0
 40 26  1  0  0  0  0
 41 42  1  0  0  0  0
 43 53  1  0  0  0  0
 44 54  1  0  0  0  0
 44 43  2  0  0  0  0
 45 41  2  0  0  0  0
 47 35  1  0  0  0  0
 48 36  1  0  0  0  0
 49 38  1  0  0  0  0
M  END
$$$$
