YCA.pdb
 OpenBabel07022419213D

 44 44  0  0  1  0  0  0  0  0999 V2000
    2.8690   -4.8400   -3.8640 O   0  0  0  0  0  0  0  0  0  0  0  0
    1.8880   -4.5720   -2.9030 C   0  0  0  0  0  0  0  0  0  0  0  0
    1.6080   -5.4820   -1.9000 C   0  0  0  0  0  0  0  0  0  0  0  0
    0.6230   -5.1980   -0.9450 C   0  0  0  0  0  0  0  0  0  0  0  0
   -0.0820   -4.0150   -0.9850 C   0  0  0  0  0  0  0  0  0  0  0  0
   -1.1120   -3.7270    0.0170 C   0  0  0  0  0  0  0  0  0  0  0  0
   -0.6280   -3.0320    1.2470 C   0  0  2  0  0  0  0  0  0  0  0  0
   -1.8110   -2.8430    2.1050 N   0  0  0  0  0  0  0  0  0  0  0  0
   -0.0690   -1.6810    0.9880 C   0  0  0  0  0  0  0  0  0  0  0  0
    0.9660   -1.5790    0.2810 O   0  0  0  0  0  0  0  0  0  0  0  0
    0.2090   -3.1250   -1.9850 C   0  0  0  0  0  0  0  0  0  0  0  0
    1.1860   -3.3910   -2.9440 C   0  0  0  0  0  0  0  0  0  0  0  0
    3.5490   -5.5780   -3.6580 H   0  0  0  0  0  0  0  0  0  0  0  0
    2.1770   -6.4000   -1.8950 H   0  0  0  0  0  0  0  0  0  0  0  0
    0.4550   -5.9530   -0.1890 H   0  0  0  0  0  0  0  0  0  0  0  0
   -1.6340   -4.6620    0.3700 H   0  0  0  0  0  0  0  0  0  0  0  0
   -1.9550   -3.1050   -0.4060 H   0  0  0  0  0  0  0  0  0  0  0  0
    0.1280   -3.6600    1.7740 H   0  0  0  0  0  0  0  0  0  0  0  0
   -2.4610   -2.2380    1.5390 H   0  0  0  0  0  0  0  0  0  0  0  0
   -2.3030   -3.7860    2.1330 H   0  0  0  0  0  0  0  0  0  0  0  0
   -0.2990   -2.1930   -2.0750 H   0  0  0  0  0  0  0  0  0  0  0  0
    1.4120   -2.6890   -3.7290 H   0  0  0  0  0  0  0  0  0  0  0  0
   -0.6300   -0.4840    1.4920 N   0  0  0  0  0  0  0  0  0  0  0  0
   -0.0580    0.8070    1.2190 C   0  0  1  0  0  0  0  0  0  0  0  0
   -1.0890    1.6100    0.4150 C   0  0  0  0  0  0  0  0  0  0  0  0
   -1.4760    0.7580   -1.1450 S   0  0  0  0  0  0  0  0  0  0  0  0
    0.2210    1.5950    2.4390 C   0  0  0  0  0  0  0  0  0  0  0  0
   -0.0260    1.1580    3.5980 O   0  0  0  0  0  0  0  0  0  0  0  0
   -1.4750   -0.5340    2.0730 H   0  0  0  0  0  0  0  0  0  0  0  0
    0.8350    0.6610    0.5860 H   0  0  0  0  0  0  0  0  0  0  0  0
   -2.0380    1.6850    0.9770 H   0  0  0  0  0  0  0  0  0  0  0  0
   -0.7350    2.6440    0.2430 H   0  0  0  0  0  0  0  0  0  0  0  0
   -2.6530   -0.0040   -0.9970 H   0  0  0  0  0  0  0  0  0  0  0  0
    2.5730    4.0710    3.4720 C   0  0  0  0  0  0  0  0  0  0  0  0
    1.0980    3.7370    3.4190 C   0  0  2  0  0  0  0  0  0  0  0  0
    0.7820    2.8750    2.2970 N   0  0  0  0  0  0  0  0  0  0  0  0
    0.3290    4.9870    3.3420 C   0  0  0  0  0  0  0  0  0  0  0  0
   -0.4750    5.2130    2.4040 O   0  0  0  0  0  0  0  0  0  0  0  0
    0.4720    5.9640    4.3150 O   0  0  0  0  0  0  0  0  0  0  0  0
    2.6930    5.0720    3.9370 H   0  0  0  0  0  0  0  0  0  0  0  0
    3.0610    3.3500    4.1690 H   0  0  0  0  0  0  0  0  0  0  0  0
    3.0590    4.0300    2.4810 H   0  0  0  0  0  0  0  0  0  0  0  0
    0.8120    3.1810    4.3360 H   0  0  0  0  0  0  0  0  0  0  0  0
    0.9920    3.2490    1.3450 H   0  0  0  0  0  0  0  0  0  0  0  0
  1 13  1  0  0  0  0
  1  2  1  0  0  0  0
  2  3  1  0  0  0  0
  3 14  1  0  0  0  0
  3  4  2  0  0  0  0
  4 15  1  0  0  0  0
  5  4  1  0  0  0  0
  5  6  1  0  0  0  0
  6 16  1  0  0  0  0
  6  7  1  0  0  0  0
  7 18  1  1  0  0  0
  7  8  1  0  0  0  0
  8 20  1  0  0  0  0
  9  7  1  0  0  0  0
  9 23  1  0  0  0  0
 10  9  2  0  0  0  0
 11  5  2  0  0  0  0
 12  2  2  0  0  0  0
 12 11  1  0  0  0  0
 17  6  1  0  0  0  0
 19  8  1  0  0  0  0
 21 11  1  0  0  0  0
 22 12  1  0  0  0  0
 23 29  1  0  0  0  0
 24 30  1  6  0  0  0
 24 23  1  0  0  0  0
 24 27  1  0  0  0  0
 25 31  1  0  0  0  0
 25 24  1  0  0  0  0
 26 33  1  0  0  0  0
 26 25  1  0  0  0  0
 27 28  2  0  0  0  0
 32 25  1  0  0  0  0
 34 40  1  0  0  0  0
 34 41  1  0  0  0  0
 35 34  1  0  0  0  0
 35 43  1  1  0  0  0
 36 27  1  0  0  0  0
 36 35  1  0  0  0  0
 37 35  1  0  0  0  0
 37 39  1  0  0  0  0
 38 37  2  0  0  0  0
 42 34  1  0  0  0  0
 44 36  1  0  0  0  0
M  END
$$$$
