YCC.pdb
 OpenBabel07022419213D

 45 45  0  0  1  0  0  0  0  0999 V2000
    3.7880   -6.7050   -1.5280 O   0  0  0  0  0  0  0  0  0  0  0  0
    3.5820   -5.3950   -1.0860 C   0  0  0  0  0  0  0  0  0  0  0  0
    3.1610   -4.4420   -1.9780 C   0  0  0  0  0  0  0  0  0  0  0  0
    2.9470   -3.1340   -1.5710 C   0  0  0  0  0  0  0  0  0  0  0  0
    3.1460   -2.7350   -0.2640 C   0  0  0  0  0  0  0  0  0  0  0  0
    2.9220   -1.3370    0.1910 C   0  0  0  0  0  0  0  0  0  0  0  0
    1.4770   -1.1820    0.6490 C   0  0  2  0  0  0  0  0  0  0  0  0
    0.5590   -1.4760   -0.4320 N   0  0  0  0  0  0  0  0  0  0  0  0
    1.2620    0.1600    1.2220 C   0  0  0  0  0  0  0  0  0  0  0  0
    2.0150    0.5020    2.1740 O   0  0  0  0  0  0  0  0  0  0  0  0
    3.5690   -3.6980    0.6280 C   0  0  0  0  0  0  0  0  0  0  0  0
    3.7860   -5.0170    0.2240 C   0  0  0  0  0  0  0  0  0  0  0  0
    3.9600   -7.4680   -0.8940 H   0  0  0  0  0  0  0  0  0  0  0  0
    3.0020   -4.7360   -3.0000 H   0  0  0  0  0  0  0  0  0  0  0  0
    2.6150   -2.3630   -2.2590 H   0  0  0  0  0  0  0  0  0  0  0  0
    3.5900   -1.1250    1.0370 H   0  0  0  0  0  0  0  0  0  0  0  0
    3.1130   -0.6080   -0.6190 H   0  0  0  0  0  0  0  0  0  0  0  0
    1.2660   -1.9170    1.4540 H   0  0  0  0  0  0  0  0  0  0  0  0
   -0.4170   -1.2060   -0.1930 H   0  0  0  0  0  0  0  0  0  0  0  0
    0.8340   -0.9110   -1.2650 H   0  0  0  0  0  0  0  0  0  0  0  0
    3.7320   -3.4090    1.6610 H   0  0  0  0  0  0  0  0  0  0  0  0
    4.1190   -5.7810    0.9190 H   0  0  0  0  0  0  0  0  0  0  0  0
    0.2930    1.0860    0.7980 N   0  0  0  0  0  0  0  0  0  0  0  0
    0.0940    2.4030    1.3730 C   0  0  1  0  0  0  0  0  0  0  0  0
    0.3060    3.4690    0.3310 C   0  0  0  0  0  0  0  0  0  0  0  0
    2.0090    3.3050   -0.2750 S   0  0  0  0  0  0  0  0  0  0  0  0
   -1.2850    2.5070    1.9740 C   0  0  0  0  0  0  0  0  0  0  0  0
   -1.6680    3.5600    2.5240 O   0  0  0  0  0  0  0  0  0  0  0  0
   -0.3370    0.8190    0.0120 H   0  0  0  0  0  0  0  0  0  0  0  0
    0.8080    2.5950    2.1970 H   0  0  0  0  0  0  0  0  0  0  0  0
   -0.3580    3.3220   -0.5540 H   0  0  0  0  0  0  0  0  0  0  0  0
    0.1850    4.4650    0.7840 H   0  0  0  0  0  0  0  0  0  0  0  0
    2.5990    4.5810   -0.3520 H   0  0  0  0  0  0  0  0  0  0  0  0
   -2.1640    1.4170    1.9240 N   0  0  0  0  0  0  0  0  0  0  0  0
   -3.4970    1.3920    2.4580 C   0  0  1  0  0  0  0  0  0  0  0  0
   -4.5610    1.1420    1.4430 C   0  0  0  0  0  0  0  0  0  0  0  0
   -4.2400   -0.4750    0.6750 S   0  0  0  0  0  0  0  0  0  0  0  0
   -3.6560    0.4100    3.5550 C   0  0  0  0  0  0  0  0  0  0  0  0
   -2.7090   -0.3050    3.9490 O   0  0  0  0  0  0  0  0  0  0  0  0
   -4.9050    0.3000    4.1470 O   0  0  0  0  0  0  0  0  0  0  0  0
   -1.8310    0.5310    1.4570 H   0  0  0  0  0  0  0  0  0  0  0  0
   -3.6820    2.3980    2.9090 H   0  0  0  0  0  0  0  0  0  0  0  0
   -4.6930    1.9360    0.7000 H   0  0  0  0  0  0  0  0  0  0  0  0
   -5.5260    1.0430    1.9830 H   0  0  0  0  0  0  0  0  0  0  0  0
   -5.2980   -0.7550   -0.2220 H   0  0  0  0  0  0  0  0  0  0  0  0
  1  2  1  0  0  0  0
  1 13  1  0  0  0  0
  2 12  1  0  0  0  0
  3  4  1  0  0  0  0
  3  2  2  0  0  0  0
  4  5  2  0  0  0  0
  5  6  1  0  0  0  0
  5 11  1  0  0  0  0
  6  7  1  0  0  0  0
  6 16  1  0  0  0  0
  7  9  1  0  0  0  0
  7 18  1  1  0  0  0
  8 19  1  0  0  0  0
  8  7  1  0  0  0  0
  9 10  2  0  0  0  0
 11 21  1  0  0  0  0
 12 11  2  0  0  0  0
 12 22  1  0  0  0  0
 14  3  1  0  0  0  0
 15  4  1  0  0  0  0
 17  6  1  0  0  0  0
 20  8  1  0  0  0  0
 23  9  1  0  0  0  0
 23 24  1  0  0  0  0
 24 27  1  0  0  0  0
 24 30  1  1  0  0  0
 25 32  1  0  0  0  0
 25 24  1  0  0  0  0
 26 25  1  0  0  0  0
 27 28  2  0  0  0  0
 29 23  1  0  0  0  0
 31 25  1  0  0  0  0
 33 26  1  0  0  0  0
 34 27  1  0  0  0  0
 34 35  1  0  0  0  0
 35 42  1  1  0  0  0
 35 38  1  0  0  0  0
 36 44  1  0  0  0  0
 36 35  1  0  0  0  0
 37 36  1  0  0  0  0
 38 39  2  0  0  0  0
 38 40  1  0  0  0  0
 41 34  1  0  0  0  0
 43 36  1  0  0  0  0
 45 37  1  0  0  0  0
M  END
$$$$
