YCE.pdb
 OpenBabel07022419213D

 50 50  0  0  1  0  0  0  0  0999 V2000
    1.1630   -4.4720    5.1730 O   0  0  0  0  0  0  0  0  0  0  0  0
    1.6670   -3.6190    4.1920 C   0  0  0  0  0  0  0  0  0  0  0  0
    3.0150   -3.3210    4.1220 C   0  0  0  0  0  0  0  0  0  0  0  0
    3.4850   -2.4790    3.1460 C   0  0  0  0  0  0  0  0  0  0  0  0
    2.6490   -1.8890    2.1890 C   0  0  0  0  0  0  0  0  0  0  0  0
    3.2820   -1.0200    1.2150 C   0  0  0  0  0  0  0  0  0  0  0  0
    3.3940    0.4090    1.5630 C   0  0  2  0  0  0  0  0  0  0  0  0
    4.1520    0.6550    2.7730 N   0  0  0  0  0  0  0  0  0  0  0  0
    2.1520    1.1950    1.5300 C   0  0  0  0  0  0  0  0  0  0  0  0
    1.8830    1.8990    2.5500 O   0  0  0  0  0  0  0  0  0  0  0  0
    1.3220   -2.1990    2.2790 C   0  0  0  0  0  0  0  0  0  0  0  0
    0.8360   -3.0440    3.2550 C   0  0  0  0  0  0  0  0  0  0  0  0
    0.1700   -4.5600    5.2610 H   0  0  0  0  0  0  0  0  0  0  0  0
    3.6860   -3.7700    4.8580 H   0  0  0  0  0  0  0  0  0  0  0  0
    4.5490   -2.2800    3.1380 H   0  0  0  0  0  0  0  0  0  0  0  0
    2.7410   -1.0900    0.2360 H   0  0  0  0  0  0  0  0  0  0  0  0
    4.3060   -1.4050    0.9930 H   0  0  0  0  0  0  0  0  0  0  0  0
    4.0360    0.8700    0.7450 H   0  0  0  0  0  0  0  0  0  0  0  0
    4.2930    1.6680    2.9130 H   0  0  0  0  0  0  0  0  0  0  0  0
    4.9820    0.0690    2.8670 H   0  0  0  0  0  0  0  0  0  0  0  0
    0.6730   -1.7630    1.5640 H   0  0  0  0  0  0  0  0  0  0  0  0
   -0.2150   -3.2690    3.3010 H   0  0  0  0  0  0  0  0  0  0  0  0
    1.2250    1.2440    0.4660 N   0  0  0  0  0  0  0  0  0  0  0  0
    0.0490    2.0620    0.5560 C   0  0  1  0  0  0  0  0  0  0  0  0
    0.1860    3.3080   -0.3320 C   0  0  0  0  0  0  0  0  0  0  0  0
    0.4160    2.8700   -2.0530 S   0  0  0  0  0  0  0  0  0  0  0  0
   -1.2210    1.3810    0.3000 C   0  0  0  0  0  0  0  0  0  0  0  0
   -2.2820    2.0910    0.3750 O   0  0  0  0  0  0  0  0  0  0  0  0
    1.4290    0.6660   -0.3770 H   0  0  0  0  0  0  0  0  0  0  0  0
   -0.0100    2.5100    1.5920 H   0  0  0  0  0  0  0  0  0  0  0  0
   -0.7150    3.9190   -0.2080 H   0  0  0  0  0  0  0  0  0  0  0  0
    1.0570    3.9060   -0.0010 H   0  0  0  0  0  0  0  0  0  0  0  0
   -0.3620    3.7360   -2.8420 H   0  0  0  0  0  0  0  0  0  0  0  0
   -1.4140    0.0200   -0.0260 N   0  0  0  0  0  0  0  0  0  0  0  0
   -2.7660   -0.5250   -0.2620 C   0  0  1  0  0  0  0  0  0  0  0  0
   -2.7410   -1.0220   -1.6840 C   0  0  0  0  0  0  0  0  0  0  0  0
   -4.0150   -1.6230   -2.1640 C   0  0  0  0  0  0  0  0  0  0  0  0
   -3.8490   -2.0650   -3.5940 C   0  0  0  0  0  0  0  0  0  0  0  0
   -3.2170   -3.1120   -3.8650 O   0  0  0  0  0  0  0  0  0  0  0  0
   -2.9810   -1.6260    0.6700 C   0  0  0  0  0  0  0  0  0  0  0  0
   -4.0760   -2.2420    0.6660 O   0  0  0  0  0  0  0  0  0  0  0  0
   -4.3790   -1.3420   -4.6330 O   0  0  0  0  0  0  0  0  0  0  0  0
   -2.0410   -2.0590    1.5890 O   0  0  0  0  0  0  0  0  0  0  0  0
   -0.5660   -0.5780   -0.0930 H   0  0  0  0  0  0  0  0  0  0  0  0
   -3.5190    0.2850   -0.1770 H   0  0  0  0  0  0  0  0  0  0  0  0
   -1.9200   -1.7630   -1.8480 H   0  0  0  0  0  0  0  0  0  0  0  0
   -2.4970   -0.1720   -2.3860 H   0  0  0  0  0  0  0  0  0  0  0  0
   -4.8800   -0.9570   -2.0590 H   0  0  0  0  0  0  0  0  0  0  0  0
   -4.2460   -2.5720   -1.6110 H   0  0  0  0  0  0  0  0  0  0  0  0
   -4.2500   -1.6090   -5.5970 H   0  0  0  0  0  0  0  0  0  0  0  0
  1 13  1  0  0  0  0
  2  1  1  0  0  0  0
  3  2  1  0  0  0  0
  3 14  1  0  0  0  0
  4  3  2  0  0  0  0
  5 11  2  0  0  0  0
  5  4  1  0  0  0  0
  6  7  1  0  0  0  0
  6  5  1  0  0  0  0
  7 18  1  6  0  0  0
  7  8  1  0  0  0  0
  8 20  1  0  0  0  0
  8 19  1  0  0  0  0
  9  7  1  0  0  0  0
  9 10  2  0  0  0  0
 11 12  1  0  0  0  0
 12 22  1  0  0  0  0
 12  2  2  0  0  0  0
 15  4  1  0  0  0  0
 16  6  1  0  0  0  0
 17  6  1  0  0  0  0
 21 11  1  0  0  0  0
 23 24  1  0  0  0  0
 23  9  1  0  0  0  0
 24 30  1  1  0  0  0
 25 31  1  0  0  0  0
 25 32  1  0  0  0  0
 25 24  1  0  0  0  0
 26 25  1  0  0  0  0
 27 28  2  0  0  0  0
 27 24  1  0  0  0  0
 29 23  1  0  0  0  0
 33 26  1  0  0  0  0
 34 27  1  0  0  0  0
 35 45  1  1  0  0  0
 35 34  1  0  0  0  0
 35 40  1  0  0  0  0
 36 35  1  0  0  0  0
 37 48  1  0  0  0  0
 37 36  1  0  0  0  0
 37 49  1  0  0  0  0
 38 37  1  0  0  0  0
 39 38  2  0  0  0  0
 40 43  1  0  0  0  0
 41 40  2  0  0  0  0
 42 38  1  0  0  0  0
 44 34  1  0  0  0  0
 46 36  1  0  0  0  0
 47 36  1  0  0  0  0
 50 42  1  0  0  0  0
M  END
$$$$
