YCF.pdb
 OpenBabel07022419213D

 54 55  0  0  1  0  0  0  0  0999 V2000
    1.3660    8.0030   -0.9490 O   0  0  0  0  0  0  0  0  0  0  0  0
    1.6080    6.6620   -0.6630 C   0  0  0  0  0  0  0  0  0  0  0  0
    1.8190    5.7260   -1.6530 C   0  0  0  0  0  0  0  0  0  0  0  0
    2.0580    4.4000   -1.3560 C   0  0  0  0  0  0  0  0  0  0  0  0
    2.0970    3.9460   -0.0540 C   0  0  0  0  0  0  0  0  0  0  0  0
    2.3530    2.5180    0.2830 C   0  0  0  0  0  0  0  0  0  0  0  0
    1.0110    1.8120    0.3360 C   0  0  2  0  0  0  0  0  0  0  0  0
    0.1370    2.3730    1.3180 N   0  0  0  0  0  0  0  0  0  0  0  0
    1.1540    0.3480    0.4450 C   0  0  0  0  0  0  0  0  0  0  0  0
    1.8930   -0.2490   -0.3630 O   0  0  0  0  0  0  0  0  0  0  0  0
    1.8850    4.8840    0.9370 C   0  0  0  0  0  0  0  0  0  0  0  0
    1.6450    6.2140    0.6410 C   0  0  0  0  0  0  0  0  0  0  0  0
    0.4250    8.3950   -0.8250 H   0  0  0  0  0  0  0  0  0  0  0  0
    1.7920    6.0670   -2.6760 H   0  0  0  0  0  0  0  0  0  0  0  0
    2.2260    3.6530   -2.1280 H   0  0  0  0  0  0  0  0  0  0  0  0
    2.8400    2.5220    1.2950 H   0  0  0  0  0  0  0  0  0  0  0  0
    3.0310    2.0230   -0.4310 H   0  0  0  0  0  0  0  0  0  0  0  0
    0.5320    2.0040   -0.6690 H   0  0  0  0  0  0  0  0  0  0  0  0
   -0.3530    3.2440    0.9860 H   0  0  0  0  0  0  0  0  0  0  0  0
    0.5590    2.5330    2.2430 H   0  0  0  0  0  0  0  0  0  0  0  0
    1.9110    4.5450    1.9730 H   0  0  0  0  0  0  0  0  0  0  0  0
    1.4790    6.9480    1.4260 H   0  0  0  0  0  0  0  0  0  0  0  0
    0.4630   -0.3510    1.4460 N   0  0  0  0  0  0  0  0  0  0  0  0
    0.5560   -1.8010    1.6150 C   0  0  1  0  0  0  0  0  0  0  0  0
    1.2900   -1.9850    2.9470 C   0  0  0  0  0  0  0  0  0  0  0  0
    1.5440   -3.6970    3.3940 S   0  0  0  0  0  0  0  0  0  0  0  0
   -0.7700   -2.4240    1.6270 C   0  0  0  0  0  0  0  0  0  0  0  0
   -1.8430   -1.7290    1.5710 O   0  0  0  0  0  0  0  0  0  0  0  0
   -0.1400    0.1690    2.0990 H   0  0  0  0  0  0  0  0  0  0  0  0
    1.2400   -2.1820    0.8330 H   0  0  0  0  0  0  0  0  0  0  0  0
    0.8170   -1.3900    3.7490 H   0  0  0  0  0  0  0  0  0  0  0  0
    2.3040   -1.5190    2.7900 H   0  0  0  0  0  0  0  0  0  0  0  0
    1.6050   -3.7930    4.8090 H   0  0  0  0  0  0  0  0  0  0  0  0
   -0.9340   -3.8280    1.6980 N   0  0  0  0  0  0  0  0  0  0  0  0
   -2.2680   -4.4080    1.7100 C   0  0  1  0  0  0  0  0  0  0  0  0
   -2.3080   -5.4390    0.6070 C   0  0  0  0  0  0  0  0  0  0  0  0
   -2.0420   -4.8660   -0.7250 C   0  0  0  0  0  0  0  0  0  0  0  0
   -0.7790   -4.7790   -1.2390 C   0  0  0  0  0  0  0  0  0  0  0  0
   -0.5650   -4.2430   -2.4780 C   0  0  0  0  0  0  0  0  0  0  0  0
   -1.6090   -3.7750   -3.2470 C   0  0  0  0  0  0  0  0  0  0  0  0
   -2.8640   -3.8740   -2.7070 C   0  0  0  0  0  0  0  0  0  0  0  0
   -3.1070   -4.4070   -1.4690 C   0  0  0  0  0  0  0  0  0  0  0  0
   -2.4090   -5.1420    2.9970 C   0  0  0  0  0  0  0  0  0  0  0  0
   -1.4910   -5.1980    3.8570 O   0  0  0  0  0  0  0  0  0  0  0  0
   -3.5940   -5.8040    3.2880 O   0  0  0  0  0  0  0  0  0  0  0  0
   -0.1420   -4.5030    1.7380 H   0  0  0  0  0  0  0  0  0  0  0  0
   -3.0670   -3.6680    1.6600 H   0  0  0  0  0  0  0  0  0  0  0  0
   -3.2670   -5.9830    0.5610 H   0  0  0  0  0  0  0  0  0  0  0  0
   -1.5290   -6.1960    0.8350 H   0  0  0  0  0  0  0  0  0  0  0  0
    0.0540   -5.1340   -0.6670 H   0  0  0  0  0  0  0  0  0  0  0  0
    0.4380   -4.1580   -2.9200 H   0  0  0  0  0  0  0  0  0  0  0  0
   -1.4160   -3.3540   -4.2260 H   0  0  0  0  0  0  0  0  0  0  0  0
   -3.7020   -3.5090   -3.3030 H   0  0  0  0  0  0  0  0  0  0  0  0
   -4.1390   -4.4590   -1.0910 H   0  0  0  0  0  0  0  0  0  0  0  0
  1 13  1  0  0  0  0
  1  2  1  0  0  0  0
  2 12  1  0  0  0  0
  3  4  1  0  0  0  0
  3  2  2  0  0  0  0
  4  5  2  0  0  0  0
  5  6  1  0  0  0  0
  5 11  1  0  0  0  0
  6  7  1  0  0  0  0
  6 16  1  0  0  0  0
  7 18  1  6  0  0  0
  7  9  1  0  0  0  0
  7  8  1  0  0  0  0
  8 20  1  0  0  0  0
  9 23  1  0  0  0  0
 10  9  2  0  0  0  0
 11 21  1  0  0  0  0
 12 11  2  0  0  0  0
 12 22  1  0  0  0  0
 14  3  1  0  0  0  0
 15  4  1  0  0  0  0
 17  6  1  0  0  0  0
 19  8  1  0  0  0  0
 23 24  1  0  0  0  0
 23 29  1  0  0  0  0
 24 30  1  6  0  0  0
 24 27  1  0  0  0  0
 24 25  1  0  0  0  0
 25 26  1  0  0  0  0
 25 31  1  0  0  0  0
 26 33  1  0  0  0  0
 27 34  1  0  0  0  0
 28 27  2  0  0  0  0
 32 25  1  0  0  0  0
 34 35  1  0  0  0  0
 34 46  1  0  0  0  0
 35 47  1  6  0  0  0
 35 43  1  0  0  0  0
 36 49  1  0  0  0  0
 36 35  1  0  0  0  0
 37 36  1  0  0  0  0
 38 37  1  0  0  0  0
 38 50  1  0  0  0  0
 39 38  2  0  0  0  0
 40 41  2  0  0  0  0
 40 39  1  0  0  0  0
 41 42  1  0  0  0  0
 42 54  1  0  0  0  0
 42 37  2  0  0  0  0
 43 45  2  0  0  0  0
 43 44  1  0  0  0  0
 48 36  1  0  0  0  0
 51 39  1  0  0  0  0
 52 40  1  0  0  0  0
 53 41  1  0  0  0  0
M  END
$$$$
