YCG.pdb
 OpenBabel07022419213D

 41 41  0  0  1  0  0  0  0  0999 V2000
   -5.9070    0.9340   -2.6960 O   0  0  0  0  0  0  0  0  0  0  0  0
   -4.5510    0.9110   -2.3350 C   0  0  0  0  0  0  0  0  0  0  0  0
   -3.6650    0.0780   -2.9720 C   0  0  0  0  0  0  0  0  0  0  0  0
   -2.3140    0.0570   -2.6090 C   0  0  0  0  0  0  0  0  0  0  0  0
   -1.8320    0.8670   -1.6080 C   0  0  0  0  0  0  0  0  0  0  0  0
   -0.4000    0.8400   -1.2290 C   0  0  0  0  0  0  0  0  0  0  0  0
   -0.1850   -0.1910   -0.1430 C   0  0  2  0  0  0  0  0  0  0  0  0
   -0.9400    0.0770    1.0390 N   0  0  0  0  0  0  0  0  0  0  0  0
    1.2600   -0.4240    0.1180 C   0  0  0  0  0  0  0  0  0  0  0  0
    1.9980   -0.6670   -0.8640 O   0  0  0  0  0  0  0  0  0  0  0  0
   -2.7420    1.7000   -0.9770 C   0  0  0  0  0  0  0  0  0  0  0  0
   -4.0740    1.7240   -1.3310 C   0  0  0  0  0  0  0  0  0  0  0  0
   -6.4100    0.1060   -2.9720 H   0  0  0  0  0  0  0  0  0  0  0  0
   -4.0500   -0.5570   -3.7590 H   0  0  0  0  0  0  0  0  0  0  0  0
   -1.6180   -0.6040   -3.1170 H   0  0  0  0  0  0  0  0  0  0  0  0
    0.2460    0.6690   -2.0980 H   0  0  0  0  0  0  0  0  0  0  0  0
   -0.1660    1.8620   -0.8170 H   0  0  0  0  0  0  0  0  0  0  0  0
   -0.5710   -1.1620   -0.5660 H   0  0  0  0  0  0  0  0  0  0  0  0
   -0.6810    0.9270    1.5460 H   0  0  0  0  0  0  0  0  0  0  0  0
   -1.1180   -0.7630    1.6080 H   0  0  0  0  0  0  0  0  0  0  0  0
   -2.3570    2.3340   -0.1910 H   0  0  0  0  0  0  0  0  0  0  0  0
   -4.7780    2.3730   -0.8390 H   0  0  0  0  0  0  0  0  0  0  0  0
    1.8460   -0.3890    1.4010 N   0  0  0  0  0  0  0  0  0  0  0  0
    3.2460   -0.6140    1.6690 C   0  0  1  0  0  0  0  0  0  0  0  0
    3.7950    0.6640    2.2770 C   0  0  0  0  0  0  0  0  0  0  0  0
    3.5420    1.9910    1.0390 S   0  0  0  0  0  0  0  0  0  0  0  0
    3.4680   -1.7050    2.6500 C   0  0  0  0  0  0  0  0  0  0  0  0
    4.6530   -1.9900    2.9620 O   0  0  0  0  0  0  0  0  0  0  0  0
    1.2130   -0.1850    2.2050 H   0  0  0  0  0  0  0  0  0  0  0  0
    3.8320   -0.8200    0.7660 H   0  0  0  0  0  0  0  0  0  0  0  0
    3.1750    0.9580    3.1580 H   0  0  0  0  0  0  0  0  0  0  0  0
    4.8680    0.5840    2.5110 H   0  0  0  0  0  0  0  0  0  0  0  0
    3.3600    3.2270    1.7090 H   0  0  0  0  0  0  0  0  0  0  0  0
    2.3910   -2.4260    3.2380 N   0  0  0  0  0  0  0  0  0  0  0  0
    2.5720   -3.4820    4.1850 C   0  0  0  0  0  0  0  0  0  0  0  0
    3.3670   -4.6140    3.6440 C   0  0  0  0  0  0  0  0  0  0  0  0
    3.8230   -4.6120    2.4620 O   0  0  0  0  0  0  0  0  0  0  0  0
    3.6210   -5.7090    4.4550 O   0  0  0  0  0  0  0  0  0  0  0  0
    1.4290   -2.1340    2.9310 H   0  0  0  0  0  0  0  0  0  0  0  0
    1.5910   -3.8900    4.4740 H   0  0  0  0  0  0  0  0  0  0  0  0
    3.0720   -3.1580    5.1190 H   0  0  0  0  0  0  0  0  0  0  0  0
  1  2  1  0  0  0  0
  2 12  1  0  0  0  0
  3  4  1  0  0  0  0
  3  2  2  0  0  0  0
  4  5  2  0  0  0  0
  5  6  1  0  0  0  0
  5 11  1  0  0  0  0
  6 17  1  0  0  0  0
  6  7  1  0  0  0  0
  7 18  1  6  0  0  0
  7  9  1  0  0  0  0
  7  8  1  0  0  0  0
  8 19  1  0  0  0  0
  8 20  1  0  0  0  0
  9 23  1  0  0  0  0
 10  9  2  0  0  0  0
 11 21  1  0  0  0  0
 12 11  2  0  0  0  0
 12 22  1  0  0  0  0
 13  1  1  0  0  0  0
 14  3  1  0  0  0  0
 15  4  1  0  0  0  0
 16  6  1  0  0  0  0
 23 24  1  0  0  0  0
 23 29  1  0  0  0  0
 24 30  1  6  0  0  0
 24 25  1  0  0  0  0
 24 27  1  0  0  0  0
 25 32  1  0  0  0  0
 25 31  1  0  0  0  0
 26 33  1  0  0  0  0
 26 25  1  0  0  0  0
 27 28  2  0  0  0  0
 27 34  1  0  0  0  0
 34 35  1  0  0  0  0
 35 40  1  0  0  0  0
 35 41  1  0  0  0  0
 36 35  1  0  0  0  0
 36 38  1  0  0  0  0
 37 36  2  0  0  0  0
 39 34  1  0  0  0  0
M  END
$$$$
