YCI.pdb
 OpenBabel07022419213D

 53 53  0  0  1  0  0  0  0  0999 V2000
    0.3500   -4.4390   -1.7780 O   0  0  0  0  0  0  0  0  0  0  0  0
    1.0080   -3.2190   -1.7250 C   0  0  0  0  0  0  0  0  0  0  0  0
    1.1770   -2.4040   -2.8310 C   0  0  0  0  0  0  0  0  0  0  0  0
    1.8260   -1.1970   -2.7900 C   0  0  0  0  0  0  0  0  0  0  0  0
    2.3510   -0.7350   -1.6020 C   0  0  0  0  0  0  0  0  0  0  0  0
    3.0900    0.5030   -1.4540 C   0  0  0  0  0  0  0  0  0  0  0  0
    2.3850    1.7670   -1.2240 C   0  0  2  0  0  0  0  0  0  0  0  0
    3.4670    2.7980   -1.1360 N   0  0  0  0  0  0  0  0  0  0  0  0
    1.5890    1.9480   -0.0280 C   0  0  0  0  0  0  0  0  0  0  0  0
    2.0130    2.6990    0.9260 O   0  0  0  0  0  0  0  0  0  0  0  0
    2.1820   -1.5490   -0.4940 C   0  0  0  0  0  0  0  0  0  0  0  0
    1.5300   -2.7590   -0.5460 C   0  0  0  0  0  0  0  0  0  0  0  0
    0.7220   -5.1970   -1.2390 H   0  0  0  0  0  0  0  0  0  0  0  0
    0.7520   -2.7850   -3.7740 H   0  0  0  0  0  0  0  0  0  0  0  0
    1.9300   -0.6120   -3.6600 H   0  0  0  0  0  0  0  0  0  0  0  0
    3.8420    0.3580   -0.6210 H   0  0  0  0  0  0  0  0  0  0  0  0
    3.7000    0.6300   -2.4060 H   0  0  0  0  0  0  0  0  0  0  0  0
    1.8640    2.0630   -2.1650 H   0  0  0  0  0  0  0  0  0  0  0  0
    2.9200    3.7050   -1.1420 H   0  0  0  0  0  0  0  0  0  0  0  0
    4.0920    2.7080   -1.9500 H   0  0  0  0  0  0  0  0  0  0  0  0
    2.5700   -1.2540    0.4920 H   0  0  0  0  0  0  0  0  0  0  0  0
    1.4160   -3.3680    0.3310 H   0  0  0  0  0  0  0  0  0  0  0  0
    0.3050    1.3720    0.2550 N   0  0  0  0  0  0  0  0  0  0  0  0
   -0.3980    1.6380    1.4650 C   0  0  1  0  0  0  0  0  0  0  0  0
   -1.5460    2.6280    1.2560 C   0  0  0  0  0  0  0  0  0  0  0  0
   -0.8610    4.1810    0.6320 S   0  0  0  0  0  0  0  0  0  0  0  0
   -0.9130    0.4610    2.1920 C   0  0  0  0  0  0  0  0  0  0  0  0
   -1.5290    0.6120    3.3070 O   0  0  0  0  0  0  0  0  0  0  0  0
   -0.0800    0.7430   -0.4860 H   0  0  0  0  0  0  0  0  0  0  0  0
    0.2910    2.1960    2.1470 H   0  0  0  0  0  0  0  0  0  0  0  0
   -2.3530    2.2230    0.6500 H   0  0  0  0  0  0  0  0  0  0  0  0
   -1.9500    2.8300    2.2750 H   0  0  0  0  0  0  0  0  0  0  0  0
   -0.3050    4.8660    1.7510 H   0  0  0  0  0  0  0  0  0  0  0  0
   -3.2010   -1.2360    0.1650 C   0  0  0  0  0  0  0  0  0  0  0  0
   -3.4470   -2.2560    1.2250 C   0  0  0  0  0  0  0  0  0  0  0  0
   -2.2300   -2.8840    1.8160 C   0  0  2  0  0  0  0  0  0  0  0  0
   -2.7380   -3.8870    2.8650 C   0  0  0  0  0  0  0  0  0  0  0  0
   -1.3200   -1.9420    2.5350 C   0  0  2  0  0  0  0  0  0  0  0  0
   -0.7850   -0.8800    1.7540 N   0  0  0  0  0  0  0  0  0  0  0  0
   -0.1880   -2.7280    3.1240 C   0  0  0  0  0  0  0  0  0  0  0  0
   -0.3760   -3.7240    3.8590 O   0  0  0  0  0  0  0  0  0  0  0  0
    1.1030   -2.3500    2.8560 O   0  0  0  0  0  0  0  0  0  0  0  0
   -3.2510   -0.2190    0.6360 H   0  0  0  0  0  0  0  0  0  0  0  0
   -2.2950   -1.4160   -0.4170 H   0  0  0  0  0  0  0  0  0  0  0  0
   -4.0470   -1.2120   -0.5850 H   0  0  0  0  0  0  0  0  0  0  0  0
   -4.0310   -3.0920    0.7440 H   0  0  0  0  0  0  0  0  0  0  0  0
   -4.1110   -1.8870    2.0430 H   0  0  0  0  0  0  0  0  0  0  0  0
   -1.6570   -3.4580    1.0690 H   0  0  0  0  0  0  0  0  0  0  0  0
   -2.1660   -4.8210    2.8680 H   0  0  0  0  0  0  0  0  0  0  0  0
   -2.6910   -3.4490    3.8780 H   0  0  0  0  0  0  0  0  0  0  0  0
   -3.8270   -4.1170    2.7030 H   0  0  0  0  0  0  0  0  0  0  0  0
   -1.8850   -1.5670    3.4410 H   0  0  0  0  0  0  0  0  0  0  0  0
   -0.3050   -1.0850    0.8610 H   0  0  0  0  0  0  0  0  0  0  0  0
  1  2  1  0  0  0  0
  1 13  1  0  0  0  0
  2 12  1  0  0  0  0
  3  4  1  0  0  0  0
  3  2  2  0  0  0  0
  4  5  2  0  0  0  0
  5  6  1  0  0  0  0
  5 11  1  0  0  0  0
  6  7  1  0  0  0  0
  6 16  1  0  0  0  0
  7 18  1  6  0  0  0
  7  8  1  0  0  0  0
  7  9  1  0  0  0  0
  9 23  1  0  0  0  0
  9 10  2  0  0  0  0
 11 21  1  0  0  0  0
 12 11  2  0  0  0  0
 12 22  1  0  0  0  0
 14  3  1  0  0  0  0
 15  4  1  0  0  0  0
 17  6  1  0  0  0  0
 19  8  1  0  0  0  0
 20  8  1  0  0  0  0
 23 24  1  0  0  0  0
 24 30  1  1  0  0  0
 24 27  1  0  0  0  0
 25 24  1  0  0  0  0
 25 32  1  0  0  0  0
 26 25  1  0  0  0  0
 26 33  1  0  0  0  0
 27 28  2  0  0  0  0
 29 23  1  0  0  0  0
 31 25  1  0  0  0  0
 34 43  1  0  0  0  0
 34 35  1  0  0  0  0
 35 36  1  0  0  0  0
 35 47  1  0  0  0  0
 36 48  1  6  0  0  0
 36 38  1  0  0  0  0
 36 37  1  0  0  0  0
 37 49  1  0  0  0  0
 37 50  1  0  0  0  0
 38 40  1  0  0  0  0
 38 52  1  1  0  0  0
 39 27  1  0  0  0  0
 39 38  1  0  0  0  0
 40 41  1  0  0  0  0
 42 40  2  0  0  0  0
 44 34  1  0  0  0  0
 45 34  1  0  0  0  0
 46 35  1  0  0  0  0
 51 37  1  0  0  0  0
 53 39  1  0  0  0  0
M  END
$$$$
