YCK.pdb
 OpenBabel07022419213D

 55 55  0  0  1  0  0  0  0  0999 V2000
   -0.4850   -4.5730    2.1890 O   0  0  0  0  0  0  0  0  0  0  0  0
    0.6100   -3.8390    1.7750 C   0  0  0  0  0  0  0  0  0  0  0  0
    1.2000   -4.1480    0.5690 C   0  0  0  0  0  0  0  0  0  0  0  0
    2.2880   -3.4120    0.1670 C   0  0  0  0  0  0  0  0  0  0  0  0
    2.8040   -2.3770    0.9350 C   0  0  0  0  0  0  0  0  0  0  0  0
    3.9830   -1.6320    0.5230 C   0  0  0  0  0  0  0  0  0  0  0  0
    3.7620   -0.4440   -0.3740 C   0  0  2  0  0  0  0  0  0  0  0  0
    5.1310    0.0780   -0.6080 N   0  0  0  0  0  0  0  0  0  0  0  0
    2.9540    0.5620    0.3040 C   0  0  0  0  0  0  0  0  0  0  0  0
    3.5150    1.4780    1.0020 O   0  0  0  0  0  0  0  0  0  0  0  0
    2.1850   -2.1030    2.1300 C   0  0  0  0  0  0  0  0  0  0  0  0
    1.0950   -2.8210    2.5590 C   0  0  0  0  0  0  0  0  0  0  0  0
   -0.8090   -4.6300    3.1370 H   0  0  0  0  0  0  0  0  0  0  0  0
    0.7930   -4.9580   -0.0290 H   0  0  0  0  0  0  0  0  0  0  0  0
    2.7550   -3.6580   -0.7900 H   0  0  0  0  0  0  0  0  0  0  0  0
    4.6650   -2.3370   -0.0420 H   0  0  0  0  0  0  0  0  0  0  0  0
    4.5410   -1.3150    1.4560 H   0  0  0  0  0  0  0  0  0  0  0  0
    3.3530   -0.7690   -1.3270 H   0  0  0  0  0  0  0  0  0  0  0  0
    5.0740    0.8660   -1.2650 H   0  0  0  0  0  0  0  0  0  0  0  0
    5.6460   -0.7320   -1.0200 H   0  0  0  0  0  0  0  0  0  0  0  0
    2.5230   -1.3070    2.7970 H   0  0  0  0  0  0  0  0  0  0  0  0
    0.6090   -2.6090    3.4990 H   0  0  0  0  0  0  0  0  0  0  0  0
    1.5140    0.6470    0.2640 N   0  0  0  0  0  0  0  0  0  0  0  0
    0.8230    1.6980    0.9590 C   0  0  1  0  0  0  0  0  0  0  0  0
    0.7870    2.9310   -0.0200 C   0  0  0  0  0  0  0  0  0  0  0  0
   -0.0680    4.3120    0.7720 S   0  0  0  0  0  0  0  0  0  0  0  0
   -0.5320    1.4290    1.4150 C   0  0  0  0  0  0  0  0  0  0  0  0
   -1.1600    2.3510    2.0540 O   0  0  0  0  0  0  0  0  0  0  0  0
    1.0430   -0.0960   -0.2930 H   0  0  0  0  0  0  0  0  0  0  0  0
    1.4180    2.1150    1.7970 H   0  0  0  0  0  0  0  0  0  0  0  0
    1.8050    3.2430   -0.2640 H   0  0  0  0  0  0  0  0  0  0  0  0
    0.2730    2.6470   -0.9500 H   0  0  0  0  0  0  0  0  0  0  0  0
    0.2920    4.4040    2.1440 H   0  0  0  0  0  0  0  0  0  0  0  0
   -1.2890    0.2210    1.2310 N   0  0  0  0  0  0  0  0  0  0  0  0
   -2.6370    0.1010    1.7210 C   0  0  1  0  0  0  0  0  0  0  0  0
   -3.7310    0.2400    0.7290 C   0  0  0  0  0  0  0  0  0  0  0  0
   -3.8490   -0.6850   -0.4010 C   0  0  0  0  0  0  0  0  0  0  0  0
   -2.7670   -0.7730   -1.4070 C   0  0  0  0  0  0  0  0  0  0  0  0
   -3.2630   -1.8060   -2.4570 C   0  0  0  0  0  0  0  0  0  0  0  0
   -2.2690   -1.9610   -3.4860 N   0  0  0  0  0  0  0  0  0  0  0  0
   -2.8410   -1.1090    2.5680 C   0  0  0  0  0  0  0  0  0  0  0  0
   -1.9670   -1.9470    2.8460 O   0  0  0  0  0  0  0  0  0  0  0  0
   -4.1400   -1.3040    3.0870 O   0  0  0  0  0  0  0  0  0  0  0  0
   -0.7450   -0.5240    0.7460 H   0  0  0  0  0  0  0  0  0  0  0  0
   -2.7640    0.9610    2.4670 H   0  0  0  0  0  0  0  0  0  0  0  0
   -3.8080    1.2930    0.3290 H   0  0  0  0  0  0  0  0  0  0  0  0
   -4.7120    0.1540    1.3130 H   0  0  0  0  0  0  0  0  0  0  0  0
   -4.7910   -0.3820   -0.9750 H   0  0  0  0  0  0  0  0  0  0  0  0
   -4.0920   -1.7430   -0.0840 H   0  0  0  0  0  0  0  0  0  0  0  0
   -1.8220   -1.1910   -1.0720 H   0  0  0  0  0  0  0  0  0  0  0  0
   -2.6460    0.1720   -1.9970 H   0  0  0  0  0  0  0  0  0  0  0  0
   -3.4630   -2.7780   -1.9670 H   0  0  0  0  0  0  0  0  0  0  0  0
   -4.2180   -1.4250   -2.8750 H   0  0  0  0  0  0  0  0  0  0  0  0
   -1.3000   -1.9460   -3.0950 H   0  0  0  0  0  0  0  0  0  0  0  0
   -2.3580   -1.2410   -4.2290 H   0  0  0  0  0  0  0  0  0  0  0  0
  1 13  1  0  0  0  0
  2  1  1  0  0  0  0
  2 12  1  0  0  0  0
  3  2  2  0  0  0  0
  4  3  1  0  0  0  0
  4  5  2  0  0  0  0
  5 11  1  0  0  0  0
  6  5  1  0  0  0  0
  6 17  1  0  0  0  0
  7 18  1  6  0  0  0
  7  9  1  0  0  0  0
  7  6  1  0  0  0  0
  8  7  1  0  0  0  0
  9 10  2  0  0  0  0
 11 12  2  0  0  0  0
 11 21  1  0  0  0  0
 12 22  1  0  0  0  0
 14  3  1  0  0  0  0
 15  4  1  0  0  0  0
 16  6  1  0  0  0  0
 19  8  1  0  0  0  0
 20  8  1  0  0  0  0
 23  9  1  0  0  0  0
 23 24  1  0  0  0  0
 24 27  1  0  0  0  0
 24 30  1  1  0  0  0
 25 26  1  0  0  0  0
 25 24  1  0  0  0  0
 26 33  1  0  0  0  0
 27 28  2  0  0  0  0
 29 23  1  0  0  0  0
 31 25  1  0  0  0  0
 32 25  1  0  0  0  0
 34 27  1  0  0  0  0
 34 35  1  0  0  0  0
 35 45  1  1  0  0  0
 35 41  1  0  0  0  0
 36 47  1  0  0  0  0
 36 35  1  0  0  0  0
 37 49  1  0  0  0  0
 37 36  1  0  0  0  0
 38 50  1  0  0  0  0
 38 37  1  0  0  0  0
 39 52  1  0  0  0  0
 39 38  1  0  0  0  0
 40 54  1  0  0  0  0
 40 39  1  0  0  0  0
 41 42  2  0  0  0  0
 41 43  1  0  0  0  0
 44 34  1  0  0  0  0
 46 36  1  0  0  0  0
 48 37  1  0  0  0  0
 51 38  1  0  0  0  0
 53 39  1  0  0  0  0
 55 40  1  0  0  0  0
M  END
$$$$
