YCL.pdb
 OpenBabel07022419213D

 53 53  0  0  1  0  0  0  0  0999 V2000
    4.9520   -2.1620    5.5710 O   0  0  0  0  0  0  0  0  0  0  0  0
    4.7100   -1.2530    4.5540 C   0  0  0  0  0  0  0  0  0  0  0  0
    3.5380   -0.5180    4.5870 C   0  0  0  0  0  0  0  0  0  0  0  0
    3.3080    0.3820    3.5720 C   0  0  0  0  0  0  0  0  0  0  0  0
    4.1860    0.5740    2.5410 C   0  0  0  0  0  0  0  0  0  0  0  0
    4.0000    1.5120    1.4340 C   0  0  0  0  0  0  0  0  0  0  0  0
    3.2990    0.9480    0.2400 C   0  0  2  0  0  0  0  0  0  0  0  0
    3.2010    2.0100   -0.7530 N   0  0  0  0  0  0  0  0  0  0  0  0
    1.9730    0.3930    0.5080 C   0  0  0  0  0  0  0  0  0  0  0  0
    1.8800   -0.5500    1.3510 O   0  0  0  0  0  0  0  0  0  0  0  0
    5.3510   -0.1930    2.5580 C   0  0  0  0  0  0  0  0  0  0  0  0
    5.6180   -1.0980    3.5480 C   0  0  0  0  0  0  0  0  0  0  0  0
    4.6530   -1.9410    6.5010 H   0  0  0  0  0  0  0  0  0  0  0  0
    2.8480   -0.6720    5.4020 H   0  0  0  0  0  0  0  0  0  0  0  0
    2.3960    0.9650    3.5840 H   0  0  0  0  0  0  0  0  0  0  0  0
    3.4870    2.4170    1.8180 H   0  0  0  0  0  0  0  0  0  0  0  0
    5.0020    1.8600    1.0930 H   0  0  0  0  0  0  0  0  0  0  0  0
    3.9210    0.1470   -0.2100 H   0  0  0  0  0  0  0  0  0  0  0  0
    3.7440    2.8390   -0.4830 H   0  0  0  0  0  0  0  0  0  0  0  0
    3.4770    1.6570   -1.7060 H   0  0  0  0  0  0  0  0  0  0  0  0
    6.0850   -0.0800    1.7600 H   0  0  0  0  0  0  0  0  0  0  0  0
    6.5200   -1.6780    3.5420 H   0  0  0  0  0  0  0  0  0  0  0  0
    0.7760    0.8220   -0.0980 N   0  0  0  0  0  0  0  0  0  0  0  0
   -0.5140    0.2580    0.1840 C   0  0  1  0  0  0  0  0  0  0  0  0
   -1.3800    1.3160    0.8390 C   0  0  0  0  0  0  0  0  0  0  0  0
   -0.5990    1.8590    2.3750 S   0  0  0  0  0  0  0  0  0  0  0  0
   -1.1620   -0.3100   -1.0200 C   0  0  0  0  0  0  0  0  0  0  0  0
   -0.5840   -0.2660   -2.1330 O   0  0  0  0  0  0  0  0  0  0  0  0
    0.8370    1.5970   -0.7930 H   0  0  0  0  0  0  0  0  0  0  0  0
   -0.3500   -0.5510    0.9520 H   0  0  0  0  0  0  0  0  0  0  0  0
   -1.4930    2.1730    0.1340 H   0  0  0  0  0  0  0  0  0  0  0  0
   -2.3940    0.9520    1.0660 H   0  0  0  0  0  0  0  0  0  0  0  0
    0.0590    0.7580    2.9740 H   0  0  0  0  0  0  0  0  0  0  0  0
   -3.5410   -3.4430    0.2850 C   0  0  0  0  0  0  0  0  0  0  0  0
   -4.0510   -3.5980   -1.1120 C   0  0  0  0  0  0  0  0  0  0  0  0
   -5.5370   -3.2740   -1.1990 C   0  0  0  0  0  0  0  0  0  0  0  0
   -3.2520   -2.9350   -2.1670 C   0  0  0  0  0  0  0  0  0  0  0  0
   -3.0770   -1.4670   -2.1150 C   0  0  2  0  0  0  0  0  0  0  0  0
   -2.4430   -0.9180   -0.9650 N   0  0  0  0  0  0  0  0  0  0  0  0
   -4.3780   -0.8060   -2.4020 C   0  0  0  0  0  0  0  0  0  0  0  0
   -4.7800    0.1200   -1.6580 O   0  0  0  0  0  0  0  0  0  0  0  0
   -5.1770   -1.1720   -3.4690 O   0  0  0  0  0  0  0  0  0  0  0  0
   -2.4590   -3.2390    0.2470 H   0  0  0  0  0  0  0  0  0  0  0  0
   -4.1280   -2.7220    0.8960 H   0  0  0  0  0  0  0  0  0  0  0  0
   -3.6190   -4.4570    0.7880 H   0  0  0  0  0  0  0  0  0  0  0  0
   -4.0130   -4.7080   -1.3530 H   0  0  0  0  0  0  0  0  0  0  0  0
   -6.0570   -4.0080   -0.5150 H   0  0  0  0  0  0  0  0  0  0  0  0
   -5.9060   -3.4960   -2.2010 H   0  0  0  0  0  0  0  0  0  0  0  0
   -5.7880   -2.2840   -0.8000 H   0  0  0  0  0  0  0  0  0  0  0  0
   -3.7740   -3.1570   -3.1490 H   0  0  0  0  0  0  0  0  0  0  0  0
   -2.2890   -3.4870   -2.2650 H   0  0  0  0  0  0  0  0  0  0  0  0
   -2.4490   -1.2220   -3.0450 H   0  0  0  0  0  0  0  0  0  0  0  0
   -2.9200   -0.9410   -0.0480 H   0  0  0  0  0  0  0  0  0  0  0  0
  1 13  1  0  0  0  0
  2  3  1  0  0  0  0
  2  1  1  0  0  0  0
  3 14  1  0  0  0  0
  4 15  1  0  0  0  0
  4  3  2  0  0  0  0
  5 11  2  0  0  0  0
  5  4  1  0  0  0  0
  6 16  1  0  0  0  0
  6  5  1  0  0  0  0
  7 18  1  6  0  0  0
  7  9  1  0  0  0  0
  7  6  1  0  0  0  0
  8 19  1  0  0  0  0
  8  7  1  0  0  0  0
  9 10  2  0  0  0  0
 11 12  1  0  0  0  0
 12  2  2  0  0  0  0
 17  6  1  0  0  0  0
 20  8  1  0  0  0  0
 21 11  1  0  0  0  0
 22 12  1  0  0  0  0
 23 24  1  0  0  0  0
 23  9  1  0  0  0  0
 24 25  1  0  0  0  0
 24 30  1  1  0  0  0
 25 32  1  0  0  0  0
 25 26  1  0  0  0  0
 26 33  1  0  0  0  0
 27 39  1  0  0  0  0
 27 24  1  0  0  0  0
 28 27  2  0  0  0  0
 29 23  1  0  0  0  0
 31 25  1  0  0  0  0
 34 45  1  0  0  0  0
 34 44  1  0  0  0  0
 35 34  1  0  0  0  0
 36 35  1  0  0  0  0
 36 49  1  0  0  0  0
 36 47  1  0  0  0  0
 37 38  1  0  0  0  0
 37 35  1  0  0  0  0
 38 52  1  6  0  0  0
 38 39  1  0  0  0  0
 39 53  1  0  0  0  0
 40 38  1  0  0  0  0
 40 41  1  0  0  0  0
 42 40  2  0  0  0  0
 43 34  1  0  0  0  0
 46 35  1  0  0  0  0
 48 36  1  0  0  0  0
 50 37  1  0  0  0  0
 51 37  1  0  0  0  0
M  END
$$$$
