YCP.pdb
 OpenBabel07022419213D

 48 49  0  0  1  0  0  0  0  0999 V2000
    3.8830   -3.6520    5.3490 O   0  0  0  0  0  0  0  0  0  0  0  0
    3.8990   -2.7210    4.3450 C   0  0  0  0  0  0  0  0  0  0  0  0
    3.0360   -1.6450    4.3950 C   0  0  0  0  0  0  0  0  0  0  0  0
    3.0970   -0.7410    3.3560 C   0  0  0  0  0  0  0  0  0  0  0  0
    3.9680   -0.8710    2.2970 C   0  0  0  0  0  0  0  0  0  0  0  0
    3.9930    0.1320    1.2020 C   0  0  0  0  0  0  0  0  0  0  0  0
    3.0780   -0.1820    0.0610 C   0  0  2  0  0  0  0  0  0  0  0  0
    3.2250    0.8870   -0.9090 N   0  0  0  0  0  0  0  0  0  0  0  0
    1.6820   -0.4180    0.4380 C   0  0  0  0  0  0  0  0  0  0  0  0
    1.4320   -1.3380    1.2540 O   0  0  0  0  0  0  0  0  0  0  0  0
    4.8160   -1.9590    2.2800 C   0  0  0  0  0  0  0  0  0  0  0  0
    4.7850   -2.8850    3.3010 C   0  0  0  0  0  0  0  0  0  0  0  0
    3.8350   -4.6350    5.2100 H   0  0  0  0  0  0  0  0  0  0  0  0
    2.3490   -1.5400    5.2280 H   0  0  0  0  0  0  0  0  0  0  0  0
    2.3990    0.1110    3.4150 H   0  0  0  0  0  0  0  0  0  0  0  0
    5.0120    0.2620    0.8120 H   0  0  0  0  0  0  0  0  0  0  0  0
    3.6490    1.1010    1.6420 H   0  0  0  0  0  0  0  0  0  0  0  0
    3.4580   -1.1080   -0.4280 H   0  0  0  0  0  0  0  0  0  0  0  0
    2.7530    0.6950   -1.8080 H   0  0  0  0  0  0  0  0  0  0  0  0
    3.0660    1.8250   -0.5180 H   0  0  0  0  0  0  0  0  0  0  0  0
    5.5270   -2.0980    1.4490 H   0  0  0  0  0  0  0  0  0  0  0  0
    5.4500   -3.7470    3.2960 H   0  0  0  0  0  0  0  0  0  0  0  0
    0.5780    0.3140   -0.0480 N   0  0  0  0  0  0  0  0  0  0  0  0
   -0.8090    0.0550    0.3470 C   0  0  1  0  0  0  0  0  0  0  0  0
   -1.3170    1.3150    1.0680 C   0  0  0  0  0  0  0  0  0  0  0  0
   -0.2540    1.5720    2.5150 S   0  0  0  0  0  0  0  0  0  0  0  0
   -1.6420   -0.2520   -0.8540 C   0  0  0  0  0  0  0  0  0  0  0  0
   -1.1380   -0.0470   -1.9840 O   0  0  0  0  0  0  0  0  0  0  0  0
    0.7670    1.0820   -0.7260 H   0  0  0  0  0  0  0  0  0  0  0  0
   -0.8660   -0.7660    1.0540 H   0  0  0  0  0  0  0  0  0  0  0  0
   -2.3580    1.1890    1.3080 H   0  0  0  0  0  0  0  0  0  0  0  0
   -1.1140    2.1970    0.4060 H   0  0  0  0  0  0  0  0  0  0  0  0
   -0.0440    0.3270    3.1280 H   0  0  0  0  0  0  0  0  0  0  0  0
   -2.9480   -0.7530   -0.7630 N   0  0  0  0  0  0  0  0  0  0  0  0
   -3.6230   -1.1090    0.5430 C   0  0  0  0  0  0  0  0  0  0  0  0
   -4.8450   -0.2660    0.4180 C   0  0  0  0  0  0  0  0  0  0  0  0
   -5.0830   -0.0840   -1.0890 C   0  0  0  0  0  0  0  0  0  0  0  0
   -4.0240   -1.0660   -1.6460 C   0  0  1  0  0  0  0  0  0  0  0  0
   -3.8800   -0.9460   -3.0710 C   0  0  0  0  0  0  0  0  0  0  0  0
   -2.8340   -0.5830   -3.6310 O   0  0  0  0  0  0  0  0  0  0  0  0
   -4.9630   -1.2450   -3.9360 O   0  0  0  0  0  0  0  0  0  0  0  0
   -3.8640   -2.2010    0.3580 H   0  0  0  0  0  0  0  0  0  0  0  0
   -2.9910   -1.0090    1.3860 H   0  0  0  0  0  0  0  0  0  0  0  0
   -5.7150   -0.8920    0.7710 H   0  0  0  0  0  0  0  0  0  0  0  0
   -4.7920    0.6850    0.9500 H   0  0  0  0  0  0  0  0  0  0  0  0
   -6.0880   -0.3650   -1.3890 H   0  0  0  0  0  0  0  0  0  0  0  0
   -4.7610    0.9260   -1.3350 H   0  0  0  0  0  0  0  0  0  0  0  0
   -4.4880   -2.0800   -1.3570 H   0  0  0  0  0  0  0  0  0  0  0  0
  2  3  1  0  0  0  0
  2  1  1  0  0  0  0
  3 14  1  0  0  0  0
  4 15  1  0  0  0  0
  4  3  2  0  0  0  0
  5  4  1  0  0  0  0
  6 17  1  0  0  0  0
  6  5  1  0  0  0  0
  7 18  1  6  0  0  0
  7  9  1  0  0  0  0
  7  6  1  0  0  0  0
  8 20  1  0  0  0  0
  8  7  1  0  0  0  0
  9 10  2  0  0  0  0
 11  5  2  0  0  0  0
 11 12  1  0  0  0  0
 12  2  2  0  0  0  0
 13  1  1  0  0  0  0
 16  6  1  0  0  0  0
 19  8  1  0  0  0  0
 21 11  1  0  0  0  0
 22 12  1  0  0  0  0
 23 24  1  0  0  0  0
 23  9  1  0  0  0  0
 24 30  1  1  0  0  0
 24 25  1  0  0  0  0
 25 31  1  0  0  0  0
 25 26  1  0  0  0  0
 26 33  1  0  0  0  0
 27 34  1  0  0  0  0
 27 24  1  0  0  0  0
 28 27  2  0  0  0  0
 29 23  1  0  0  0  0
 32 25  1  0  0  0  0
 34 35  1  0  0  0  0
 35 43  1  0  0  0  0
 36 35  1  0  0  0  0
 36 44  1  0  0  0  0
 36 45  1  0  0  0  0
 37 36  1  0  0  0  0
 38 48  1  1  0  0  0
 38 37  1  0  0  0  0
 38 34  1  0  0  0  0
 39 38  1  0  0  0  0
 40 39  1  0  0  0  0
 41 39  2  0  0  0  0
 42 35  1  0  0  0  0
 46 37  1  0  0  0  0
 47 37  1  0  0  0  0
M  END
$$$$
