YCR.pdb
 OpenBabel07022419213D

 57 57  0  0  1  0  0  0  0  0999 V2000
   -3.0660    1.3210    4.6230 O   0  0  0  0  0  0  0  0  0  0  0  0
   -1.7570    1.3870    4.1530 C   0  0  0  0  0  0  0  0  0  0  0  0
   -1.2120    0.3840    3.3790 C   0  0  0  0  0  0  0  0  0  0  0  0
    0.0920    0.4960    2.9370 C   0  0  0  0  0  0  0  0  0  0  0  0
    0.9040    1.5710    3.2250 C   0  0  0  0  0  0  0  0  0  0  0  0
    2.2930    1.7100    2.7640 C   0  0  0  0  0  0  0  0  0  0  0  0
    2.3770    2.4240    1.4120 C   0  0  2  0  0  0  0  0  0  0  0  0
    1.7970    3.7300    1.5220 N   0  0  0  0  0  0  0  0  0  0  0  0
    1.7660    1.5780    0.3650 C   0  0  0  0  0  0  0  0  0  0  0  0
    0.7300    1.9550   -0.2820 O   0  0  0  0  0  0  0  0  0  0  0  0
    0.3190    2.5690    4.0110 C   0  0  0  0  0  0  0  0  0  0  0  0
   -0.9790    2.4750    4.4610 C   0  0  0  0  0  0  0  0  0  0  0  0
   -3.7520    0.7900    4.0720 H   0  0  0  0  0  0  0  0  0  0  0  0
   -1.8280   -0.4810    3.1330 H   0  0  0  0  0  0  0  0  0  0  0  0
    0.4640   -0.3140    2.3390 H   0  0  0  0  0  0  0  0  0  0  0  0
    2.9240    2.2450    3.4950 H   0  0  0  0  0  0  0  0  0  0  0  0
    2.6970    0.6710    2.6190 H   0  0  0  0  0  0  0  0  0  0  0  0
    3.4520    2.5270    1.1650 H   0  0  0  0  0  0  0  0  0  0  0  0
    1.9450    4.2390    0.6430 H   0  0  0  0  0  0  0  0  0  0  0  0
    2.2700    4.2120    2.3180 H   0  0  0  0  0  0  0  0  0  0  0  0
    0.9520    3.4260    4.2460 H   0  0  0  0  0  0  0  0  0  0  0  0
   -1.3990    3.2650    5.0670 H   0  0  0  0  0  0  0  0  0  0  0  0
    2.2760    0.3020    0.0000 N   0  0  0  0  0  0  0  0  0  0  0  0
    1.6460   -0.4990   -1.0400 C   0  0  1  0  0  0  0  0  0  0  0  0
    2.6470   -0.7260   -2.1800 C   0  0  0  0  0  0  0  0  0  0  0  0
    3.1600    0.8550   -2.8720 S   0  0  0  0  0  0  0  0  0  0  0  0
    1.3720   -1.8350   -0.4600 C   0  0  0  0  0  0  0  0  0  0  0  0
    1.6860   -2.1320    0.7200 O   0  0  0  0  0  0  0  0  0  0  0  0
    3.1090   -0.0650    0.4820 H   0  0  0  0  0  0  0  0  0  0  0  0
    0.7210   -0.0530   -1.4080 H   0  0  0  0  0  0  0  0  0  0  0  0
    3.5280   -1.2800   -1.7970 H   0  0  0  0  0  0  0  0  0  0  0  0
    2.1740   -1.3750   -2.9340 H   0  0  0  0  0  0  0  0  0  0  0  0
    3.1060    0.8440   -4.2770 H   0  0  0  0  0  0  0  0  0  0  0  0
   -4.9820    0.0030   -0.2260 N   0  0  0  0  0  0  0  0  0  0  0  0
   -3.8880   -0.6190   -0.8840 C   0  0  0  0  0  0  0  0  0  0  0  0
   -3.2640    0.0360   -1.8220 N   0  0  0  0  0  0  0  0  0  0  0  0
   -3.4490   -1.9280   -0.5580 N   0  0  0  0  0  0  0  0  0  0  0  0
   -2.2030   -2.4860   -1.0970 C   0  0  0  0  0  0  0  0  0  0  0  0
   -2.0510   -3.8600   -0.5630 C   0  0  0  0  0  0  0  0  0  0  0  0
   -0.8800   -4.6530   -0.9690 C   0  0  0  0  0  0  0  0  0  0  0  0
    0.4790   -4.1580   -0.6150 C   0  0  2  0  0  0  0  0  0  0  0  0
    0.7300   -2.8720   -1.2100 N   0  0  0  0  0  0  0  0  0  0  0  0
    1.5070   -5.1310   -1.1800 C   0  0  0  0  0  0  0  0  0  0  0  0
    2.3620   -4.7360   -2.0110 O   0  0  0  0  0  0  0  0  0  0  0  0
    1.5260   -6.4630   -0.7960 O   0  0  0  0  0  0  0  0  0  0  0  0
   -5.0460    0.0060    0.8320 H   0  0  0  0  0  0  0  0  0  0  0  0
   -5.7670    0.4810   -0.7140 H   0  0  0  0  0  0  0  0  0  0  0  0
   -2.4590   -0.3890   -2.3250 H   0  0  0  0  0  0  0  0  0  0  0  0
   -4.0240   -2.5000    0.0760 H   0  0  0  0  0  0  0  0  0  0  0  0
   -2.3760   -2.4790   -2.2160 H   0  0  0  0  0  0  0  0  0  0  0  0
   -1.3690   -1.7970   -0.9410 H   0  0  0  0  0  0  0  0  0  0  0  0
   -2.9660   -4.4340   -0.9020 H   0  0  0  0  0  0  0  0  0  0  0  0
   -2.1240   -3.8700    0.5620 H   0  0  0  0  0  0  0  0  0  0  0  0
   -0.9530   -5.7160   -0.5910 H   0  0  0  0  0  0  0  0  0  0  0  0
   -0.8920   -4.8200   -2.1010 H   0  0  0  0  0  0  0  0  0  0  0  0
    0.6530   -4.1330    0.4990 H   0  0  0  0  0  0  0  0  0  0  0  0
    0.4630   -2.6600   -2.1830 H   0  0  0  0  0  0  0  0  0  0  0  0
  2 12  1  0  0  0  0
  2  1  1  0  0  0  0
  3  2  2  0  0  0  0
  4  5  2  0  0  0  0
  4  3  1  0  0  0  0
  5 11  1  0  0  0  0
  6  5  1  0  0  0  0
  6 16  1  0  0  0  0
  7 18  1  6  0  0  0
  7  8  1  0  0  0  0
  7  6  1  0  0  0  0
  8 20  1  0  0  0  0
  9  7  1  0  0  0  0
 10  9  2  0  0  0  0
 11 21  1  0  0  0  0
 11 12  2  0  0  0  0
 12 22  1  0  0  0  0
 13  1  1  0  0  0  0
 14  3  1  0  0  0  0
 15  4  1  0  0  0  0
 17  6  1  0  0  0  0
 19  8  1  0  0  0  0
 23  9  1  0  0  0  0
 23 29  1  0  0  0  0
 24 30  1  6  0  0  0
 24 27  1  0  0  0  0
 24 23  1  0  0  0  0
 25 31  1  0  0  0  0
 25 24  1  0  0  0  0
 26 25  1  0  0  0  0
 27 28  2  0  0  0  0
 32 25  1  0  0  0  0
 33 26  1  0  0  0  0
 34 46  1  0  0  0  0
 35 37  1  0  0  0  0
 35 34  1  0  0  0  0
 36 35  2  0  0  0  0
 37 49  1  0  0  0  0
 38 51  1  0  0  0  0
 38 39  1  0  0  0  0
 38 37  1  0  0  0  0
 39 53  1  0  0  0  0
 40 41  1  0  0  0  0
 40 54  1  0  0  0  0
 40 39  1  0  0  0  0
 41 56  1  1  0  0  0
 42 41  1  0  0  0  0
 42 27  1  0  0  0  0
 43 45  1  0  0  0  0
 43 41  1  0  0  0  0
 44 43  2  0  0  0  0
 47 34  1  0  0  0  0
 48 36  1  0  0  0  0
 50 38  1  0  0  0  0
 52 39  1  0  0  0  0
 55 40  1  0  0  0  0
 57 42  1  0  0  0  0
M  END
$$$$
