YCT.pdb
 OpenBabel07022419213D

 48 48  0  0  1  0  0  0  0  0999 V2000
    5.8120   -2.5980    3.9340 O   0  0  0  0  0  0  0  0  0  0  0  0
    5.3670   -1.9670    2.7790 C   0  0  0  0  0  0  0  0  0  0  0  0
    4.6050   -0.8140    2.8370 C   0  0  0  0  0  0  0  0  0  0  0  0
    4.1540   -0.1750    1.7150 C   0  0  0  0  0  0  0  0  0  0  0  0
    4.4520   -0.6710    0.4660 C   0  0  0  0  0  0  0  0  0  0  0  0
    3.9830   -0.0070   -0.7530 C   0  0  0  0  0  0  0  0  0  0  0  0
    2.6670   -0.5350   -1.2330 C   0  0  2  0  0  0  0  0  0  0  0  0
    2.3000    0.1920   -2.4430 N   0  0  0  0  0  0  0  0  0  0  0  0
    1.5970   -0.4870   -0.2220 C   0  0  0  0  0  0  0  0  0  0  0  0
    1.7640   -1.1410    0.8440 O   0  0  0  0  0  0  0  0  0  0  0  0
    5.2110   -1.8200    0.3750 C   0  0  0  0  0  0  0  0  0  0  0  0
    5.6530   -2.4460    1.5190 C   0  0  0  0  0  0  0  0  0  0  0  0
    5.7340   -3.6190    4.0210 H   0  0  0  0  0  0  0  0  0  0  0  0
    4.3430   -0.3840    3.8090 H   0  0  0  0  0  0  0  0  0  0  0  0
    3.5610    0.7250    1.8240 H   0  0  0  0  0  0  0  0  0  0  0  0
    4.7040   -0.1050   -1.6020 H   0  0  0  0  0  0  0  0  0  0  0  0
    3.8460    1.0920   -0.5410 H   0  0  0  0  0  0  0  0  0  0  0  0
    2.8240   -1.6020   -1.5530 H   0  0  0  0  0  0  0  0  0  0  0  0
    1.3700   -0.0930   -2.7670 H   0  0  0  0  0  0  0  0  0  0  0  0
    2.4630    1.2000   -2.3670 H   0  0  0  0  0  0  0  0  0  0  0  0
    5.4500   -2.2180   -0.6060 H   0  0  0  0  0  0  0  0  0  0  0  0
    6.2490   -3.3500    1.4400 H   0  0  0  0  0  0  0  0  0  0  0  0
    0.3970    0.2560   -0.3920 N   0  0  0  0  0  0  0  0  0  0  0  0
   -0.6250    0.2890    0.5980 C   0  0  1  0  0  0  0  0  0  0  0  0
   -0.7620    1.7160    1.1440 C   0  0  0  0  0  0  0  0  0  0  0  0
    0.8000    2.2250    1.8740 S   0  0  0  0  0  0  0  0  0  0  0  0
   -1.9380   -0.1880    0.1140 C   0  0  0  0  0  0  0  0  0  0  0  0
   -2.0500   -0.5690   -1.0790 O   0  0  0  0  0  0  0  0  0  0  0  0
    0.2820    0.7850   -1.2760 H   0  0  0  0  0  0  0  0  0  0  0  0
   -0.3190   -0.3290    1.4540 H   0  0  0  0  0  0  0  0  0  0  0  0
   -1.5460    1.6510    1.9470 H   0  0  0  0  0  0  0  0  0  0  0  0
   -1.0440    2.4140    0.3400 H   0  0  0  0  0  0  0  0  0  0  0  0
    0.8540    1.6690    3.1820 H   0  0  0  0  0  0  0  0  0  0  0  0
   -6.0660   -2.4680    0.9990 C   0  0  0  0  0  0  0  0  0  0  0  0
   -4.7030   -1.9170    1.3540 C   0  0  1  0  0  0  0  0  0  0  0  0
   -3.7800   -2.9330    1.1160 O   0  0  0  0  0  0  0  0  0  0  0  0
   -4.3640   -0.6680    0.5790 C   0  0  2  0  0  0  0  0  0  0  0  0
   -3.0620   -0.2170    0.9840 N   0  0  0  0  0  0  0  0  0  0  0  0
   -5.4010    0.3690    0.6770 C   0  0  0  0  0  0  0  0  0  0  0  0
   -5.1610    1.5510    1.0840 O   0  0  0  0  0  0  0  0  0  0  0  0
   -6.7250    0.1290    0.3310 O   0  0  0  0  0  0  0  0  0  0  0  0
   -6.8950   -1.9140    1.4550 H   0  0  0  0  0  0  0  0  0  0  0  0
   -6.1030   -3.4990    1.4600 H   0  0  0  0  0  0  0  0  0  0  0  0
   -6.1850   -2.6440   -0.0900 H   0  0  0  0  0  0  0  0  0  0  0  0
   -4.7080   -1.7310    2.4480 H   0  0  0  0  0  0  0  0  0  0  0  0
   -3.9110   -3.2290    0.1770 H   0  0  0  0  0  0  0  0  0  0  0  0
   -4.2930   -0.9660   -0.4910 H   0  0  0  0  0  0  0  0  0  0  0  0
   -2.9330    0.1070    1.9700 H   0  0  0  0  0  0  0  0  0  0  0  0
  1 13  1  0  0  0  0
  2  3  1  0  0  0  0
  2  1  1  0  0  0  0
  3 14  1  0  0  0  0
  4 15  1  0  0  0  0
  4  3  2  0  0  0  0
  5  4  1  0  0  0  0
  6 17  1  0  0  0  0
  6  5  1  0  0  0  0
  7 18  1  6  0  0  0
  7  6  1  0  0  0  0
  7  9  1  0  0  0  0
  8 20  1  0  0  0  0
  8  7  1  0  0  0  0
  9 10  2  0  0  0  0
 11  5  2  0  0  0  0
 11 12  1  0  0  0  0
 12  2  2  0  0  0  0
 16  6  1  0  0  0  0
 19  8  1  0  0  0  0
 21 11  1  0  0  0  0
 22 12  1  0  0  0  0
 23  9  1  0  0  0  0
 23 24  1  0  0  0  0
 24 25  1  0  0  0  0
 24 30  1  1  0  0  0
 25 26  1  0  0  0  0
 25 31  1  0  0  0  0
 26 33  1  0  0  0  0
 27 24  1  0  0  0  0
 27 38  1  0  0  0  0
 28 27  2  0  0  0  0
 29 23  1  0  0  0  0
 32 25  1  0  0  0  0
 34 35  1  0  0  0  0
 34 42  1  0  0  0  0
 34 43  1  0  0  0  0
 35 45  1  1  0  0  0
 36 35  1  0  0  0  0
 37 47  1  6  0  0  0
 37 39  1  0  0  0  0
 37 38  1  0  0  0  0
 37 35  1  0  0  0  0
 38 48  1  0  0  0  0
 39 40  1  0  0  0  0
 41 39  2  0  0  0  0
 44 34  1  0  0  0  0
 46 36  1  0  0  0  0
M  END
$$$$
