YDA.pdb
 OpenBabel07022419203D

 46 46  0  0  1  0  0  0  0  0999 V2000
    6.7210   -2.1660   -0.4470 O   0  0  0  0  0  0  0  0  0  0  0  0
    5.7190   -1.2200   -0.4730 C   0  0  0  0  0  0  0  0  0  0  0  0
    4.9550   -0.8820    0.6250 C   0  0  0  0  0  0  0  0  0  0  0  0
    3.9680    0.0670    0.5490 C   0  0  0  0  0  0  0  0  0  0  0  0
    3.7280    0.7060   -0.6580 C   0  0  0  0  0  0  0  0  0  0  0  0
    2.6690    1.7360   -0.7760 C   0  0  0  0  0  0  0  0  0  0  0  0
    1.3230    1.1460   -1.1800 C   0  0  2  0  0  0  0  0  0  0  0  0
    0.4100    2.2970   -1.2420 N   0  0  0  0  0  0  0  0  0  0  0  0
    0.7940    0.2050   -0.1860 C   0  0  0  0  0  0  0  0  0  0  0  0
    1.3650   -0.9100    0.0100 O   0  0  0  0  0  0  0  0  0  0  0  0
    4.4800    0.3870   -1.7770 C   0  0  0  0  0  0  0  0  0  0  0  0
    5.4530   -0.5650   -1.6570 C   0  0  0  0  0  0  0  0  0  0  0  0
    6.6440   -2.9830    0.1170 H   0  0  0  0  0  0  0  0  0  0  0  0
    5.1720   -1.4050    1.5600 H   0  0  0  0  0  0  0  0  0  0  0  0
    3.3630    0.3310    1.4300 H   0  0  0  0  0  0  0  0  0  0  0  0
    2.9550    2.4160   -1.6140 H   0  0  0  0  0  0  0  0  0  0  0  0
    2.5750    2.3650    0.1260 H   0  0  0  0  0  0  0  0  0  0  0  0
    1.3970    0.7270   -2.1940 H   0  0  0  0  0  0  0  0  0  0  0  0
   -0.5480    1.9890   -1.5190 H   0  0  0  0  0  0  0  0  0  0  0  0
    0.4500    2.8200   -0.3520 H   0  0  0  0  0  0  0  0  0  0  0  0
    4.2630    0.9100   -2.7120 H   0  0  0  0  0  0  0  0  0  0  0  0
    6.0380   -0.8060   -2.5460 H   0  0  0  0  0  0  0  0  0  0  0  0
   -0.3350    0.4980    0.5640 N   0  0  0  0  0  0  0  0  0  0  0  0
   -0.8970   -0.4670    1.5930 C   0  0  1  0  0  0  0  0  0  0  0  0
   -0.6250    0.1970    2.8880 C   0  0  0  0  0  0  0  0  0  0  0  0
   -0.9960   -0.4730    4.1260 C   0  0  0  0  0  0  0  0  0  0  0  0
   -1.4260   -1.6340    4.2050 O   0  0  0  0  0  0  0  0  0  0  0  0
   -2.2720   -0.7520    1.2230 C   0  0  0  0  0  0  0  0  0  0  0  0
   -2.8020    0.0670    0.3720 O   0  0  0  0  0  0  0  0  0  0  0  0
   -0.8850    0.1900    5.3720 O   0  0  0  0  0  0  0  0  0  0  0  0
   -0.8800    1.3720    0.4920 H   0  0  0  0  0  0  0  0  0  0  0  0
   -0.2730   -1.3510    1.4890 H   0  0  0  0  0  0  0  0  0  0  0  0
   -0.9660    1.2640    2.9240 H   0  0  0  0  0  0  0  0  0  0  0  0
    0.5100    0.3180    2.9390 H   0  0  0  0  0  0  0  0  0  0  0  0
   -0.7660   -0.3700    6.2130 H   0  0  0  0  0  0  0  0  0  0  0  0
   -4.6970   -3.1460    0.3320 C   0  0  0  0  0  0  0  0  0  0  0  0
   -4.5230   -1.8970    1.1460 C   0  0  2  0  0  0  0  0  0  0  0  0
   -3.1310   -1.7780    1.6320 N   0  0  0  0  0  0  0  0  0  0  0  0
   -5.4460   -1.8250    2.2910 C   0  0  0  0  0  0  0  0  0  0  0  0
   -6.6860   -1.8960    2.1320 O   0  0  0  0  0  0  0  0  0  0  0  0
   -4.9530   -1.6760    3.5720 O   0  0  0  0  0  0  0  0  0  0  0  0
   -3.9160   -3.9090    0.5600 H   0  0  0  0  0  0  0  0  0  0  0  0
   -4.7070   -2.8790   -0.7430 H   0  0  0  0  0  0  0  0  0  0  0  0
   -5.7130   -3.5700    0.5550 H   0  0  0  0  0  0  0  0  0  0  0  0
   -4.6820   -1.0270    0.4820 H   0  0  0  0  0  0  0  0  0  0  0  0
   -2.7940   -2.4930    2.2680 H   0  0  0  0  0  0  0  0  0  0  0  0
  1 13  1  0  0  0  0
  2  1  1  0  0  0  0
  2  3  1  0  0  0  0
  3 14  1  0  0  0  0
  4  3  2  0  0  0  0
  4 15  1  0  0  0  0
  5  4  1  0  0  0  0
  6  5  1  0  0  0  0
  6 17  1  0  0  0  0
  7 18  1  6  0  0  0
  7  6  1  0  0  0  0
  7  9  1  0  0  0  0
  8  7  1  0  0  0  0
  8 20  1  0  0  0  0
  9 10  2  0  0  0  0
  9 23  1  0  0  0  0
 11 12  1  0  0  0  0
 11  5  2  0  0  0  0
 12  2  2  0  0  0  0
 16  6  1  0  0  0  0
 19  8  1  0  0  0  0
 21 11  1  0  0  0  0
 22 12  1  0  0  0  0
 23 24  1  0  0  0  0
 24 32  1  6  0  0  0
 24 25  1  0  0  0  0
 25 33  1  0  0  0  0
 25 34  1  0  0  0  0
 25 26  1  0  0  0  0
 26 27  2  0  0  0  0
 26 30  1  0  0  0  0
 28 24  1  0  0  0  0
 28 38  1  0  0  0  0
 29 28  2  0  0  0  0
 30 35  1  0  0  0  0
 31 23  1  0  0  0  0
 36 44  1  0  0  0  0
 36 42  1  0  0  0  0
 36 37  1  0  0  0  0
 37 45  1  6  0  0  0
 37 38  1  0  0  0  0
 37 39  1  0  0  0  0
 38 46  1  0  0  0  0
 39 41  1  0  0  0  0
 40 39  2  0  0  0  0
 43 36  1  0  0  0  0
M  END
$$$$
