YDD.pdb
 OpenBabel07022419203D

 49 49  0  0  1  0  0  0  0  0999 V2000
    3.0420    1.1390    6.9240 O   0  0  0  0  0  0  0  0  0  0  0  0
    3.1250    0.8400    5.5600 C   0  0  0  0  0  0  0  0  0  0  0  0
    3.6920   -0.3360    5.1310 C   0  0  0  0  0  0  0  0  0  0  0  0
    3.7760   -0.6330    3.7880 C   0  0  0  0  0  0  0  0  0  0  0  0
    3.2910    0.2430    2.8110 C   0  0  0  0  0  0  0  0  0  0  0  0
    3.4010   -0.1100    1.3760 C   0  0  0  0  0  0  0  0  0  0  0  0
    2.2070   -0.8870    0.8650 C   0  0  2  0  0  0  0  0  0  0  0  0
    2.4360   -1.1640   -0.5280 N   0  0  0  0  0  0  0  0  0  0  0  0
    0.9150   -0.2250    1.1140 C   0  0  0  0  0  0  0  0  0  0  0  0
    0.5250    0.0920    2.2660 O   0  0  0  0  0  0  0  0  0  0  0  0
    2.7320    1.4080    3.2750 C   0  0  0  0  0  0  0  0  0  0  0  0
    2.6380    1.7260    4.6210 C   0  0  0  0  0  0  0  0  0  0  0  0
    2.4540    0.5340    7.5150 H   0  0  0  0  0  0  0  0  0  0  0  0
    4.0730   -1.0240    5.8890 H   0  0  0  0  0  0  0  0  0  0  0  0
    4.2230   -1.5600    3.4750 H   0  0  0  0  0  0  0  0  0  0  0  0
    3.4360    0.8570    0.8180 H   0  0  0  0  0  0  0  0  0  0  0  0
    4.3010   -0.7120    1.1580 H   0  0  0  0  0  0  0  0  0  0  0  0
    2.1910   -1.8410    1.4690 H   0  0  0  0  0  0  0  0  0  0  0  0
    3.1390   -1.9140   -0.6550 H   0  0  0  0  0  0  0  0  0  0  0  0
    2.8260   -0.2760   -0.9580 H   0  0  0  0  0  0  0  0  0  0  0  0
    2.3380    2.1300    2.5630 H   0  0  0  0  0  0  0  0  0  0  0  0
    2.1840    2.6660    4.9490 H   0  0  0  0  0  0  0  0  0  0  0  0
    0.0030    0.1070    0.0510 N   0  0  0  0  0  0  0  0  0  0  0  0
   -1.2710    0.7590    0.3020 C   0  0  1  0  0  0  0  0  0  0  0  0
   -1.2780    2.1310   -0.3290 C   0  0  0  0  0  0  0  0  0  0  0  0
   -1.0860    2.1210   -1.7800 C   0  0  0  0  0  0  0  0  0  0  0  0
   -1.0700    3.2300   -2.3720 O   0  0  0  0  0  0  0  0  0  0  0  0
   -2.4140   -0.0680   -0.1530 C   0  0  0  0  0  0  0  0  0  0  0  0
   -3.5690    0.3900    0.0100 O   0  0  0  0  0  0  0  0  0  0  0  0
   -0.9180    0.9890   -2.5640 O   0  0  0  0  0  0  0  0  0  0  0  0
    0.2880   -0.1390   -0.9200 H   0  0  0  0  0  0  0  0  0  0  0  0
   -1.4040    0.9430    1.4090 H   0  0  0  0  0  0  0  0  0  0  0  0
   -0.4180    2.6870    0.1380 H   0  0  0  0  0  0  0  0  0  0  0  0
   -2.2340    2.6290   -0.0900 H   0  0  0  0  0  0  0  0  0  0  0  0
   -1.3320    1.0160   -3.4940 H   0  0  0  0  0  0  0  0  0  0  0  0
   -2.2540   -1.3340   -0.7540 N   0  0  0  0  0  0  0  0  0  0  0  0
   -3.3130   -2.1730   -1.2110 C   0  0  1  0  0  0  0  0  0  0  0  0
   -3.2460   -2.6030   -2.6300 C   0  0  0  0  0  0  0  0  0  0  0  0
   -2.0500   -3.3770   -2.9900 C   0  0  0  0  0  0  0  0  0  0  0  0
   -1.8490   -3.7840   -4.1600 O   0  0  0  0  0  0  0  0  0  0  0  0
   -3.2860   -3.4150   -0.3660 C   0  0  0  0  0  0  0  0  0  0  0  0
   -2.4440   -3.5880    0.5520 O   0  0  0  0  0  0  0  0  0  0  0  0
   -1.0980   -3.6820   -2.0310 O   0  0  0  0  0  0  0  0  0  0  0  0
   -4.2090   -4.4500   -0.5640 O   0  0  0  0  0  0  0  0  0  0  0  0
   -1.2750   -1.6760   -0.8710 H   0  0  0  0  0  0  0  0  0  0  0  0
   -4.3240   -1.7320   -1.0420 H   0  0  0  0  0  0  0  0  0  0  0  0
   -3.4380   -1.7620   -3.3540 H   0  0  0  0  0  0  0  0  0  0  0  0
   -4.1260   -3.2940   -2.7950 H   0  0  0  0  0  0  0  0  0  0  0  0
   -0.2720   -4.2140   -2.2390 H   0  0  0  0  0  0  0  0  0  0  0  0
  1 13  1  0  0  0  0
  2  1  1  0  0  0  0
  3  2  1  0  0  0  0
  3 14  1  0  0  0  0
  4  3  2  0  0  0  0
  5 11  2  0  0  0  0
  5  4  1  0  0  0  0
  6  5  1  0  0  0  0
  7  9  1  0  0  0  0
  7  6  1  0  0  0  0
  7 18  1  1  0  0  0
  8  7  1  0  0  0  0
  9 10  2  0  0  0  0
 11 12  1  0  0  0  0
 12 22  1  0  0  0  0
 12  2  2  0  0  0  0
 15  4  1  0  0  0  0
 16  6  1  0  0  0  0
 17  6  1  0  0  0  0
 19  8  1  0  0  0  0
 20  8  1  0  0  0  0
 21 11  1  0  0  0  0
 23 24  1  0  0  0  0
 23  9  1  0  0  0  0
 24 32  1  1  0  0  0
 25 34  1  0  0  0  0
 25 33  1  0  0  0  0
 25 24  1  0  0  0  0
 26 25  1  0  0  0  0
 27 26  2  0  0  0  0
 28 29  2  0  0  0  0
 28 24  1  0  0  0  0
 30 26  1  0  0  0  0
 31 23  1  0  0  0  0
 35 30  1  0  0  0  0
 36 28  1  0  0  0  0
 37 46  1  1  0  0  0
 37 36  1  0  0  0  0
 37 41  1  0  0  0  0
 38 37  1  0  0  0  0
 39 38  1  0  0  0  0
 39 43  1  0  0  0  0
 40 39  2  0  0  0  0
 41 42  1  0  0  0  0
 44 41  2  0  0  0  0
 45 36  1  0  0  0  0
 47 38  1  0  0  0  0
 48 38  1  0  0  0  0
 49 43  1  0  0  0  0
M  END
$$$$
