YDE.pdb
 OpenBabel07022419203D

 52 52  0  0  1  0  0  0  0  0999 V2000
    0.2050    3.3420    5.0890 O   0  0  0  0  0  0  0  0  0  0  0  0
   -0.2900    2.0730    4.7960 C   0  0  0  0  0  0  0  0  0  0  0  0
   -0.8760    1.7940    3.5770 C   0  0  0  0  0  0  0  0  0  0  0  0
   -1.3700    0.5420    3.2740 C   0  0  0  0  0  0  0  0  0  0  0  0
   -1.3110   -0.5090    4.1660 C   0  0  0  0  0  0  0  0  0  0  0  0
   -1.8240   -1.8570    3.9040 C   0  0  0  0  0  0  0  0  0  0  0  0
   -0.8980   -2.8490    3.3400 C   0  0  2  0  0  0  0  0  0  0  0  0
    0.2670   -3.1150    4.1650 N   0  0  0  0  0  0  0  0  0  0  0  0
   -0.5020   -2.7410    1.9450 C   0  0  0  0  0  0  0  0  0  0  0  0
    0.6940   -3.0820    1.6370 O   0  0  0  0  0  0  0  0  0  0  0  0
   -0.7170   -0.2290    5.4030 C   0  0  0  0  0  0  0  0  0  0  0  0
   -0.2290    1.0260    5.6900 C   0  0  0  0  0  0  0  0  0  0  0  0
   -0.4030    4.1760    5.0260 H   0  0  0  0  0  0  0  0  0  0  0  0
   -0.9510    2.5920    2.8270 H   0  0  0  0  0  0  0  0  0  0  0  0
   -1.8450    0.2920    2.3180 H   0  0  0  0  0  0  0  0  0  0  0  0
   -2.7730   -1.8320    3.3180 H   0  0  0  0  0  0  0  0  0  0  0  0
   -2.1640   -2.2600    4.9080 H   0  0  0  0  0  0  0  0  0  0  0  0
   -1.4730   -3.8510    3.3960 H   0  0  0  0  0  0  0  0  0  0  0  0
    0.5810   -4.1180    4.1180 H   0  0  0  0  0  0  0  0  0  0  0  0
    1.0470   -2.4680    3.9920 H   0  0  0  0  0  0  0  0  0  0  0  0
   -0.6540   -1.0350    6.1300 H   0  0  0  0  0  0  0  0  0  0  0  0
    0.2390    1.2630    6.6590 H   0  0  0  0  0  0  0  0  0  0  0  0
   -1.2990   -2.2970    0.8630 N   0  0  0  0  0  0  0  0  0  0  0  0
   -0.7570   -2.2660   -0.5100 C   0  0  1  0  0  0  0  0  0  0  0  0
   -1.7380   -3.0140   -1.3430 C   0  0  0  0  0  0  0  0  0  0  0  0
   -1.4520   -3.1390   -2.7620 C   0  0  0  0  0  0  0  0  0  0  0  0
   -2.0050   -2.4800   -3.6720 O   0  0  0  0  0  0  0  0  0  0  0  0
   -0.4490   -0.8930   -0.9130 C   0  0  0  0  0  0  0  0  0  0  0  0
   -0.6890    0.0800   -0.1180 O   0  0  0  0  0  0  0  0  0  0  0  0
   -0.4830   -4.0640   -3.1620 O   0  0  0  0  0  0  0  0  0  0  0  0
   -2.2700   -1.9920    1.0450 H   0  0  0  0  0  0  0  0  0  0  0  0
    0.2430   -2.7930   -0.4680 H   0  0  0  0  0  0  0  0  0  0  0  0
   -1.8510   -4.0280   -0.8430 H   0  0  0  0  0  0  0  0  0  0  0  0
   -2.7800   -2.5760   -1.2510 H   0  0  0  0  0  0  0  0  0  0  0  0
   -0.4550   -4.5020   -4.0710 H   0  0  0  0  0  0  0  0  0  0  0  0
    0.1250   -0.5490   -2.1680 N   0  0  0  0  0  0  0  0  0  0  0  0
    0.4150    0.8060   -2.4800 C   0  0  1  0  0  0  0  0  0  0  0  0
    1.8330    1.1760   -2.7280 C   0  0  0  0  0  0  0  0  0  0  0  0
    2.8070    0.9770   -1.6280 C   0  0  0  0  0  0  0  0  0  0  0  0
    3.0680   -0.3710   -1.1510 C   0  0  0  0  0  0  0  0  0  0  0  0
    2.6200   -1.4260   -1.6470 O   0  0  0  0  0  0  0  0  0  0  0  0
   -0.3770    1.2220   -3.6770 C   0  0  0  0  0  0  0  0  0  0  0  0
   -1.1380    0.3970   -4.2150 O   0  0  0  0  0  0  0  0  0  0  0  0
    3.9010   -0.5330   -0.0230 O   0  0  0  0  0  0  0  0  0  0  0  0
   -0.2950    2.4990   -4.2150 O   0  0  0  0  0  0  0  0  0  0  0  0
    0.3040   -1.3410   -2.8530 H   0  0  0  0  0  0  0  0  0  0  0  0
    0.0640    1.4800   -1.6230 H   0  0  0  0  0  0  0  0  0  0  0  0
    1.8510    2.2910   -2.9580 H   0  0  0  0  0  0  0  0  0  0  0  0
    2.2070    0.7420   -3.7050 H   0  0  0  0  0  0  0  0  0  0  0  0
    3.7950    1.3850   -1.9880 H   0  0  0  0  0  0  0  0  0  0  0  0
    2.5210    1.6720   -0.7890 H   0  0  0  0  0  0  0  0  0  0  0  0
    4.1890   -1.4550    0.2530 H   0  0  0  0  0  0  0  0  0  0  0  0
  2  1  1  0  0  0  0
  2 12  1  0  0  0  0
  3  2  2  0  0  0  0
  4  3  1  0  0  0  0
  4  5  2  0  0  0  0
  5 11  1  0  0  0  0
  6  5  1  0  0  0  0
  6 17  1  0  0  0  0
  7 18  1  1  0  0  0
  7  6  1  0  0  0  0
  7  8  1  0  0  0  0
  9  7  1  0  0  0  0
 10  9  2  0  0  0  0
 11 12  2  0  0  0  0
 11 21  1  0  0  0  0
 12 22  1  0  0  0  0
 13  1  1  0  0  0  0
 14  3  1  0  0  0  0
 15  4  1  0  0  0  0
 16  6  1  0  0  0  0
 19  8  1  0  0  0  0
 20  8  1  0  0  0  0
 23 31  1  0  0  0  0
 23  9  1  0  0  0  0
 24 32  1  6  0  0  0
 24 23  1  0  0  0  0
 25 34  1  0  0  0  0
 25 33  1  0  0  0  0
 25 24  1  0  0  0  0
 26 25  1  0  0  0  0
 27 26  2  0  0  0  0
 28 24  1  0  0  0  0
 28 29  2  0  0  0  0
 30 26  1  0  0  0  0
 35 30  1  0  0  0  0
 36 28  1  0  0  0  0
 37 36  1  0  0  0  0
 37 47  1  1  0  0  0
 38 37  1  0  0  0  0
 38 39  1  0  0  0  0
 39 40  1  0  0  0  0
 39 51  1  0  0  0  0
 40 44  1  0  0  0  0
 41 40  2  0  0  0  0
 42 37  1  0  0  0  0
 43 42  2  0  0  0  0
 44 52  1  0  0  0  0
 45 42  1  0  0  0  0
 46 36  1  0  0  0  0
 48 38  1  0  0  0  0
 49 38  1  0  0  0  0
 50 39  1  0  0  0  0
M  END
$$$$
