YDF.pdb
 OpenBabel07022419203D

 56 57  0  0  1  0  0  0  0  0999 V2000
    7.1910    0.6790    5.9020 O   0  0  0  0  0  0  0  0  0  0  0  0
    6.0630    0.3640    5.1440 C   0  0  0  0  0  0  0  0  0  0  0  0
    5.1750    1.3610    4.7760 C   0  0  0  0  0  0  0  0  0  0  0  0
    4.0510    1.0620    4.0250 C   0  0  0  0  0  0  0  0  0  0  0  0
    3.7660   -0.2230    3.6130 C   0  0  0  0  0  0  0  0  0  0  0  0
    2.5550   -0.5210    2.8080 C   0  0  0  0  0  0  0  0  0  0  0  0
    1.4340   -0.8260    3.7390 C   0  0  2  0  0  0  0  0  0  0  0  0
    1.7880   -1.9740    4.5470 N   0  0  0  0  0  0  0  0  0  0  0  0
    0.1440   -1.1070    3.0600 C   0  0  0  0  0  0  0  0  0  0  0  0
   -0.4920   -2.1500    3.2430 O   0  0  0  0  0  0  0  0  0  0  0  0
    4.6530   -1.2060    3.9830 C   0  0  0  0  0  0  0  0  0  0  0  0
    5.7860   -0.9220    4.7370 C   0  0  0  0  0  0  0  0  0  0  0  0
    7.8190   -0.0080    6.2620 H   0  0  0  0  0  0  0  0  0  0  0  0
    5.4040    2.3750    5.1030 H   0  0  0  0  0  0  0  0  0  0  0  0
    3.3830    1.8780    3.7580 H   0  0  0  0  0  0  0  0  0  0  0  0
    2.7840   -1.4280    2.2080 H   0  0  0  0  0  0  0  0  0  0  0  0
    2.3530    0.3690    2.1760 H   0  0  0  0  0  0  0  0  0  0  0  0
    1.3330    0.0280    4.4440 H   0  0  0  0  0  0  0  0  0  0  0  0
    2.1330   -2.7530    3.9370 H   0  0  0  0  0  0  0  0  0  0  0  0
    0.9890   -2.2860    5.1470 H   0  0  0  0  0  0  0  0  0  0  0  0
    4.4580   -2.2330    3.6740 H   0  0  0  0  0  0  0  0  0  0  0  0
    6.4780   -1.6890    5.0260 H   0  0  0  0  0  0  0  0  0  0  0  0
   -0.4370   -0.1660    2.1440 N   0  0  0  0  0  0  0  0  0  0  0  0
   -1.6880   -0.3680    1.4510 C   0  0  1  0  0  0  0  0  0  0  0  0
   -2.7570    0.5810    1.8590 C   0  0  0  0  0  0  0  0  0  0  0  0
   -2.4700    2.0000    1.6450 C   0  0  0  0  0  0  0  0  0  0  0  0
   -1.3610    2.3430    1.1470 O   0  0  0  0  0  0  0  0  0  0  0  0
   -1.5370   -0.6090    0.0110 C   0  0  0  0  0  0  0  0  0  0  0  0
   -0.3870   -0.6460   -0.5070 O   0  0  0  0  0  0  0  0  0  0  0  0
   -3.3620    3.0090    1.9630 O   0  0  0  0  0  0  0  0  0  0  0  0
    0.1430    0.7190    2.0100 H   0  0  0  0  0  0  0  0  0  0  0  0
   -2.0540   -1.3530    1.8520 H   0  0  0  0  0  0  0  0  0  0  0  0
   -2.9080    0.4470    2.9640 H   0  0  0  0  0  0  0  0  0  0  0  0
   -3.7440    0.3620    1.4040 H   0  0  0  0  0  0  0  0  0  0  0  0
   -3.3540    3.9180    1.4820 H   0  0  0  0  0  0  0  0  0  0  0  0
   -2.6010   -0.8120   -0.8980 N   0  0  0  0  0  0  0  0  0  0  0  0
   -2.4120   -1.0510   -2.3190 C   0  0  1  0  0  0  0  0  0  0  0  0
   -2.9150   -2.3910   -2.7310 C   0  0  0  0  0  0  0  0  0  0  0  0
   -2.7360   -2.6490   -4.1530 C   0  0  0  0  0  0  0  0  0  0  0  0
   -3.7170   -2.3320   -5.0630 C   0  0  0  0  0  0  0  0  0  0  0  0
   -3.5840   -2.5610   -6.4220 C   0  0  0  0  0  0  0  0  0  0  0  0
   -2.4300   -3.1270   -6.8950 C   0  0  0  0  0  0  0  0  0  0  0  0
   -1.4120   -3.4650   -6.0210 C   0  0  0  0  0  0  0  0  0  0  0  0
   -1.5720   -3.2250   -4.6710 C   0  0  0  0  0  0  0  0  0  0  0  0
   -2.9330    0.0850   -3.0930 C   0  0  0  0  0  0  0  0  0  0  0  0
   -3.4700    1.0450   -2.4760 O   0  0  0  0  0  0  0  0  0  0  0  0
   -2.8890    0.2090   -4.4720 O   0  0  0  0  0  0  0  0  0  0  0  0
   -3.5710   -0.7910   -0.5290 H   0  0  0  0  0  0  0  0  0  0  0  0
   -1.2920   -1.0490   -2.4740 H   0  0  0  0  0  0  0  0  0  0  0  0
   -4.0180   -2.4370   -2.4880 H   0  0  0  0  0  0  0  0  0  0  0  0
   -2.3600   -3.1520   -2.1310 H   0  0  0  0  0  0  0  0  0  0  0  0
   -4.6490   -1.8800   -4.7250 H   0  0  0  0  0  0  0  0  0  0  0  0
   -4.3510   -2.3140   -7.1350 H   0  0  0  0  0  0  0  0  0  0  0  0
   -2.2600   -3.3350   -7.9570 H   0  0  0  0  0  0  0  0  0  0  0  0
   -0.5120   -3.9100   -6.4120 H   0  0  0  0  0  0  0  0  0  0  0  0
   -0.7660   -3.4990   -4.0240 H   0  0  0  0  0  0  0  0  0  0  0  0
  1 13  1  0  0  0  0
  2  1  1  0  0  0  0
  3 14  1  0  0  0  0
  3  2  1  0  0  0  0
  4  3  2  0  0  0  0
  5 11  2  0  0  0  0
  5  4  1  0  0  0  0
  6  5  1  0  0  0  0
  6  7  1  0  0  0  0
  7 18  1  1  0  0  0
  7  8  1  0  0  0  0
  8 20  1  0  0  0  0
  9 10  2  0  0  0  0
  9  7  1  0  0  0  0
 11 12  1  0  0  0  0
 12 22  1  0  0  0  0
 12  2  2  0  0  0  0
 15  4  1  0  0  0  0
 16  6  1  0  0  0  0
 17  6  1  0  0  0  0
 19  8  1  0  0  0  0
 21 11  1  0  0  0  0
 23  9  1  0  0  0  0
 24 32  1  1  0  0  0
 24 25  1  0  0  0  0
 24 23  1  0  0  0  0
 25 33  1  0  0  0  0
 26 25  1  0  0  0  0
 26 30  1  0  0  0  0
 27 26  2  0  0  0  0
 28 24  1  0  0  0  0
 29 28  2  0  0  0  0
 31 23  1  0  0  0  0
 34 25  1  0  0  0  0
 35 30  1  0  0  0  0
 36 48  1  0  0  0  0
 36 28  1  0  0  0  0
 37 49  1  6  0  0  0
 37 36  1  0  0  0  0
 38 50  1  0  0  0  0
 38 37  1  0  0  0  0
 38 51  1  0  0  0  0
 39 38  1  0  0  0  0
 40 52  1  0  0  0  0
 40 39  2  0  0  0  0
 41 40  1  0  0  0  0
 42 41  2  0  0  0  0
 42 43  1  0  0  0  0
 43 44  2  0  0  0  0
 44 39  1  0  0  0  0
 44 56  1  0  0  0  0
 45 46  1  0  0  0  0
 45 37  1  0  0  0  0
 47 45  2  0  0  0  0
 53 41  1  0  0  0  0
 54 42  1  0  0  0  0
 55 43  1  0  0  0  0
M  END
$$$$
