YDG.pdb
 OpenBabel07022419203D

 43 43  0  0  1  0  0  0  0  0999 V2000
    0.8250   -2.6220    5.9140 O   0  0  0  0  0  0  0  0  0  0  0  0
    1.4060   -2.1410    4.7470 C   0  0  0  0  0  0  0  0  0  0  0  0
    0.7030   -2.1620    3.5740 C   0  0  0  0  0  0  0  0  0  0  0  0
    1.2740   -1.6840    2.3980 C   0  0  0  0  0  0  0  0  0  0  0  0
    2.5410   -1.1940    2.4270 C   0  0  0  0  0  0  0  0  0  0  0  0
    3.1770   -0.6780    1.2030 C   0  0  0  0  0  0  0  0  0  0  0  0
    2.9050    0.8060    1.0360 C   0  0  2  0  0  0  0  0  0  0  0  0
    3.4510    1.4430    2.2190 N   0  0  0  0  0  0  0  0  0  0  0  0
    1.4440    1.0390    0.9390 C   0  0  0  0  0  0  0  0  0  0  0  0
    0.7840    1.5830    1.8780 O   0  0  0  0  0  0  0  0  0  0  0  0
    3.2750   -1.1610    3.5990 C   0  0  0  0  0  0  0  0  0  0  0  0
    2.6860   -1.6390    4.7410 C   0  0  0  0  0  0  0  0  0  0  0  0
   -0.1810   -2.5610    6.0470 H   0  0  0  0  0  0  0  0  0  0  0  0
   -0.3060   -2.5500    3.5420 H   0  0  0  0  0  0  0  0  0  0  0  0
    0.6980   -1.7120    1.4890 H   0  0  0  0  0  0  0  0  0  0  0  0
    2.8650   -1.2330    0.2910 H   0  0  0  0  0  0  0  0  0  0  0  0
    4.2730   -0.7980    1.3020 H   0  0  0  0  0  0  0  0  0  0  0  0
    3.4420    1.1360    0.1270 H   0  0  0  0  0  0  0  0  0  0  0  0
    2.7110    1.4730    2.9560 H   0  0  0  0  0  0  0  0  0  0  0  0
    3.6960    2.4470    2.0300 H   0  0  0  0  0  0  0  0  0  0  0  0
    4.2950   -0.7640    3.6100 H   0  0  0  0  0  0  0  0  0  0  0  0
    3.2240   -1.6320    5.6790 H   0  0  0  0  0  0  0  0  0  0  0  0
    0.6860    0.6720   -0.2090 N   0  0  0  0  0  0  0  0  0  0  0  0
   -0.7750    0.9240   -0.2660 C   0  0  1  0  0  0  0  0  0  0  0  0
   -0.9390    1.9910   -1.3300 C   0  0  0  0  0  0  0  0  0  0  0  0
   -2.3060    2.4420   -1.5600 C   0  0  0  0  0  0  0  0  0  0  0  0
   -3.2600    2.0310   -0.8710 O   0  0  0  0  0  0  0  0  0  0  0  0
   -1.4790   -0.3370   -0.5910 C   0  0  0  0  0  0  0  0  0  0  0  0
   -2.7310   -0.4400   -0.6510 O   0  0  0  0  0  0  0  0  0  0  0  0
   -2.6140    3.3540   -2.5610 O   0  0  0  0  0  0  0  0  0  0  0  0
    1.1980    0.2320   -0.9950 H   0  0  0  0  0  0  0  0  0  0  0  0
   -1.1490    1.3320    0.6840 H   0  0  0  0  0  0  0  0  0  0  0  0
   -0.5700    1.6050   -2.3310 H   0  0  0  0  0  0  0  0  0  0  0  0
   -0.2260    2.8460   -1.1390 H   0  0  0  0  0  0  0  0  0  0  0  0
   -3.5050    3.8450   -2.5860 H   0  0  0  0  0  0  0  0  0  0  0  0
   -0.7850   -1.5710   -0.8730 N   0  0  0  0  0  0  0  0  0  0  0  0
   -1.4940   -2.7930   -1.1880 C   0  0  0  0  0  0  0  0  0  0  0  0
   -2.3340   -2.6880   -2.3760 C   0  0  0  0  0  0  0  0  0  0  0  0
   -2.3960   -1.6210   -3.0210 O   0  0  0  0  0  0  0  0  0  0  0  0
   -3.0720   -3.7720   -2.8010 O   0  0  0  0  0  0  0  0  0  0  0  0
    0.2520   -1.5320   -0.8390 H   0  0  0  0  0  0  0  0  0  0  0  0
   -0.7540   -3.5990   -1.3630 H   0  0  0  0  0  0  0  0  0  0  0  0
   -2.0650   -3.1310   -0.2760 H   0  0  0  0  0  0  0  0  0  0  0  0
  1 13  1  0  0  0  0
  2  1  1  0  0  0  0
  3  2  2  0  0  0  0
  4  5  2  0  0  0  0
  4  3  1  0  0  0  0
  5 11  1  0  0  0  0
  6 17  1  0  0  0  0
  6  5  1  0  0  0  0
  7 18  1  6  0  0  0
  7  6  1  0  0  0  0
  7  8  1  0  0  0  0
  8 19  1  0  0  0  0
  9  7  1  0  0  0  0
  9 10  2  0  0  0  0
 11 21  1  0  0  0  0
 11 12  2  0  0  0  0
 12  2  1  0  0  0  0
 12 22  1  0  0  0  0
 14  3  1  0  0  0  0
 15  4  1  0  0  0  0
 16  6  1  0  0  0  0
 20  8  1  0  0  0  0
 23  9  1  0  0  0  0
 24 23  1  0  0  0  0
 24 32  1  1  0  0  0
 25 34  1  0  0  0  0
 25 24  1  0  0  0  0
 26 25  1  0  0  0  0
 26 27  2  0  0  0  0
 28 24  1  0  0  0  0
 29 28  2  0  0  0  0
 30 26  1  0  0  0  0
 31 23  1  0  0  0  0
 33 25  1  0  0  0  0
 35 30  1  0  0  0  0
 36 41  1  0  0  0  0
 36 28  1  0  0  0  0
 37 36  1  0  0  0  0
 37 43  1  0  0  0  0
 38 37  1  0  0  0  0
 39 38  2  0  0  0  0
 40 38  1  0  0  0  0
 42 37  1  0  0  0  0
M  END
$$$$
