YDH.pdb
 OpenBabel07022419203D

 53 54  0  0  1  0  0  0  0  0999 V2000
    1.1800    1.7460    7.0360 O   0  0  0  0  0  0  0  0  0  0  0  0
    1.9520    1.3450    5.9510 C   0  0  0  0  0  0  0  0  0  0  0  0
    1.7990    0.0750    5.3910 C   0  0  0  0  0  0  0  0  0  0  0  0
    2.5560   -0.3330    4.3190 C   0  0  0  0  0  0  0  0  0  0  0  0
    3.5000    0.4910    3.7470 C   0  0  0  0  0  0  0  0  0  0  0  0
    4.3280    0.0670    2.5880 C   0  0  0  0  0  0  0  0  0  0  0  0
    3.7000    0.3880    1.2710 C   0  0  2  0  0  0  0  0  0  0  0  0
    3.4550    1.7790    1.0590 N   0  0  0  0  0  0  0  0  0  0  0  0
    2.4700   -0.4130    1.0260 C   0  0  0  0  0  0  0  0  0  0  0  0
    2.5150   -1.6780    1.1840 O   0  0  0  0  0  0  0  0  0  0  0  0
    3.6600    1.7490    4.2930 C   0  0  0  0  0  0  0  0  0  0  0  0
    2.9000    2.1580    5.3690 C   0  0  0  0  0  0  0  0  0  0  0  0
    0.9120    1.0190    7.6910 H   0  0  0  0  0  0  0  0  0  0  0  0
    1.0470   -0.5620    5.8570 H   0  0  0  0  0  0  0  0  0  0  0  0
    2.4200   -1.3120    3.9060 H   0  0  0  0  0  0  0  0  0  0  0  0
    5.3100    0.5460    2.6780 H   0  0  0  0  0  0  0  0  0  0  0  0
    4.4630   -1.0350    2.6360 H   0  0  0  0  0  0  0  0  0  0  0  0
    4.4270    0.0510    0.4800 H   0  0  0  0  0  0  0  0  0  0  0  0
    3.1620    1.9550    0.0770 H   0  0  0  0  0  0  0  0  0  0  0  0
    2.7210    2.1130    1.7360 H   0  0  0  0  0  0  0  0  0  0  0  0
    4.4010    2.4090    3.8520 H   0  0  0  0  0  0  0  0  0  0  0  0
    3.0190    3.1550    5.8110 H   0  0  0  0  0  0  0  0  0  0  0  0
    1.2280    0.1150    0.6260 N   0  0  0  0  0  0  0  0  0  0  0  0
    0.0570   -0.7190    0.4010 C   0  0  1  0  0  0  0  0  0  0  0  0
   -1.0150   -0.2910    1.3430 C   0  0  0  0  0  0  0  0  0  0  0  0
   -2.2760   -1.0480    1.2580 C   0  0  0  0  0  0  0  0  0  0  0  0
   -2.2830   -2.2540    1.6440 O   0  0  0  0  0  0  0  0  0  0  0  0
   -0.3060   -0.6770   -1.0300 C   0  0  0  0  0  0  0  0  0  0  0  0
    0.4020    0.0310   -1.8030 O   0  0  0  0  0  0  0  0  0  0  0  0
   -3.4720   -0.5440    0.7850 O   0  0  0  0  0  0  0  0  0  0  0  0
    1.1500    1.1530    0.4850 H   0  0  0  0  0  0  0  0  0  0  0  0
    0.3580   -1.7610    0.6280 H   0  0  0  0  0  0  0  0  0  0  0  0
   -1.2090    0.8020    1.3240 H   0  0  0  0  0  0  0  0  0  0  0  0
   -0.6150   -0.4870    2.3810 H   0  0  0  0  0  0  0  0  0  0  0  0
   -4.3320   -1.0580    0.9560 H   0  0  0  0  0  0  0  0  0  0  0  0
   -1.3760   -1.3560   -1.6410 N   0  0  0  0  0  0  0  0  0  0  0  0
   -1.6330   -1.2500   -3.0190 C   0  0  1  0  0  0  0  0  0  0  0  0
   -1.8100   -2.4310   -3.8570 C   0  0  0  0  0  0  0  0  0  0  0  0
   -2.9260   -3.3410   -3.5520 C   0  0  0  0  0  0  0  0  0  0  0  0
   -3.9040   -3.2640   -2.6060 C   0  0  0  0  0  0  0  0  0  0  0  0
   -4.7350   -4.3450   -2.7270 N   0  0  0  0  0  0  0  0  0  0  0  0
   -4.2780   -5.0780   -3.7290 C   0  0  0  0  0  0  0  0  0  0  0  0
   -3.2000   -4.4970   -4.2360 N   0  0  0  0  0  0  0  0  0  0  0  0
   -2.8540   -0.3740   -3.2000 C   0  0  0  0  0  0  0  0  0  0  0  0
   -3.4440    0.1350   -2.2230 O   0  0  0  0  0  0  0  0  0  0  0  0
   -3.2770   -0.1690   -4.5100 O   0  0  0  0  0  0  0  0  0  0  0  0
   -1.9810   -1.9530   -1.0420 H   0  0  0  0  0  0  0  0  0  0  0  0
   -0.8180   -0.6220   -3.4910 H   0  0  0  0  0  0  0  0  0  0  0  0
   -0.8600   -2.9990   -4.0720 H   0  0  0  0  0  0  0  0  0  0  0  0
   -2.0490   -2.0310   -4.8970 H   0  0  0  0  0  0  0  0  0  0  0  0
   -4.0570   -2.5020   -1.8670 H   0  0  0  0  0  0  0  0  0  0  0  0
   -5.5580   -4.5560   -2.1520 H   0  0  0  0  0  0  0  0  0  0  0  0
   -4.6890   -6.0040   -4.1050 H   0  0  0  0  0  0  0  0  0  0  0  0
  1 13  1  0  0  0  0
  2  1  1  0  0  0  0
  3 14  1  0  0  0  0
  3  2  1  0  0  0  0
  4  3  2  0  0  0  0
  5 11  2  0  0  0  0
  5  4  1  0  0  0  0
  6 17  1  0  0  0  0
  6 16  1  0  0  0  0
  6  5  1  0  0  0  0
  7 18  1  6  0  0  0
  7  6  1  0  0  0  0
  8  7  1  0  0  0  0
  8 20  1  0  0  0  0
  9 10  2  0  0  0  0
  9  7  1  0  0  0  0
 11 12  1  0  0  0  0
 12 22  1  0  0  0  0
 12  2  2  0  0  0  0
 15  4  1  0  0  0  0
 19  8  1  0  0  0  0
 21 11  1  0  0  0  0
 23  9  1  0  0  0  0
 24 23  1  0  0  0  0
 24 32  1  1  0  0  0
 24 25  1  0  0  0  0
 25 34  1  0  0  0  0
 26 25  1  0  0  0  0
 26 27  2  0  0  0  0
 28 24  1  0  0  0  0
 29 28  2  0  0  0  0
 30 35  1  0  0  0  0
 30 26  1  0  0  0  0
 31 23  1  0  0  0  0
 33 25  1  0  0  0  0
 36 47  1  0  0  0  0
 36 28  1  0  0  0  0
 37 48  1  6  0  0  0
 37 36  1  0  0  0  0
 38 39  1  0  0  0  0
 38 37  1  0  0  0  0
 39 40  2  0  0  0  0
 40 51  1  0  0  0  0
 41 40  1  0  0  0  0
 41 52  1  0  0  0  0
 42 41  1  0  0  0  0
 43 42  2  0  0  0  0
 43 39  1  0  0  0  0
 44 37  1  0  0  0  0
 44 45  1  0  0  0  0
 46 44  2  0  0  0  0
 49 38  1  0  0  0  0
 50 38  1  0  0  0  0
 53 42  1  0  0  0  0
M  END
$$$$
