YDL.pdb
 OpenBabel07022419203D

 55 55  0  0  1  0  0  0  0  0999 V2000
    5.0230   -6.5020    3.1360 O   0  0  0  0  0  0  0  0  0  0  0  0
    4.3750   -5.3560    2.6320 C   0  0  0  0  0  0  0  0  0  0  0  0
    4.4190   -5.0490    1.2840 C   0  0  0  0  0  0  0  0  0  0  0  0
    3.7780   -3.9250    0.7880 C   0  0  0  0  0  0  0  0  0  0  0  0
    3.0790   -3.0630    1.5770 C   0  0  0  0  0  0  0  0  0  0  0  0
    2.3570   -1.8650    1.1790 C   0  0  0  0  0  0  0  0  0  0  0  0
    3.1270   -0.5820    1.2000 C   0  0  2  0  0  0  0  0  0  0  0  0
    3.6720   -0.3390    2.5460 N   0  0  0  0  0  0  0  0  0  0  0  0
    2.1350    0.4970    0.9090 C   0  0  0  0  0  0  0  0  0  0  0  0
    2.0660    1.5020    1.7160 O   0  0  0  0  0  0  0  0  0  0  0  0
    3.0460   -3.3830    2.9420 C   0  0  0  0  0  0  0  0  0  0  0  0
    3.6760   -4.4980    3.4490 C   0  0  0  0  0  0  0  0  0  0  0  0
    4.5540   -7.1110    3.7980 H   0  0  0  0  0  0  0  0  0  0  0  0
    4.9740   -5.7220    0.6260 H   0  0  0  0  0  0  0  0  0  0  0  0
    3.8210   -3.7050   -0.2700 H   0  0  0  0  0  0  0  0  0  0  0  0
    2.0210   -2.0220    0.1050 H   0  0  0  0  0  0  0  0  0  0  0  0
    1.4250   -1.7650    1.7360 H   0  0  0  0  0  0  0  0  0  0  0  0
    3.9480   -0.4930    0.5100 H   0  0  0  0  0  0  0  0  0  0  0  0
    4.5170   -0.9690    2.6060 H   0  0  0  0  0  0  0  0  0  0  0  0
    4.0740    0.6440    2.5180 H   0  0  0  0  0  0  0  0  0  0  0  0
    2.4890   -2.7100    3.6190 H   0  0  0  0  0  0  0  0  0  0  0  0
    3.6420   -4.7370    4.5180 H   0  0  0  0  0  0  0  0  0  0  0  0
    1.2360    0.5580   -0.1610 N   0  0  0  0  0  0  0  0  0  0  0  0
    0.3060    1.6940   -0.2910 C   0  0  1  0  0  0  0  0  0  0  0  0
    0.3490    2.1670   -1.7160 C   0  0  0  0  0  0  0  0  0  0  0  0
   -0.5100    3.3050   -2.0180 C   0  0  0  0  0  0  0  0  0  0  0  0
   -1.1680    3.8940   -1.1360 O   0  0  0  0  0  0  0  0  0  0  0  0
   -1.0540    1.2340    0.1070 C   0  0  0  0  0  0  0  0  0  0  0  0
   -1.8830    2.0830    0.5040 O   0  0  0  0  0  0  0  0  0  0  0  0
   -0.6160    3.7460   -3.3200 O   0  0  0  0  0  0  0  0  0  0  0  0
    1.2140   -0.1810   -0.8650 H   0  0  0  0  0  0  0  0  0  0  0  0
    0.5570    2.5260    0.3720 H   0  0  0  0  0  0  0  0  0  0  0  0
    1.4060    2.5000   -1.9500 H   0  0  0  0  0  0  0  0  0  0  0  0
    0.2120    1.2940   -2.4280 H   0  0  0  0  0  0  0  0  0  0  0  0
   -0.9780    4.6470   -3.6130 H   0  0  0  0  0  0  0  0  0  0  0  0
   -5.5350    0.3990   -1.9810 C   0  0  0  0  0  0  0  0  0  0  0  0
   -4.3870    0.5660   -0.9550 C   0  0  0  0  0  0  0  0  0  0  0  0
   -5.0990    1.2020    0.2430 C   0  0  0  0  0  0  0  0  0  0  0  0
   -3.8200   -0.7710   -0.5540 C   0  0  0  0  0  0  0  0  0  0  0  0
   -2.6930   -0.7100    0.4170 C   0  0  2  0  0  0  0  0  0  0  0  0
   -1.4900   -0.0900    0.0670 N   0  0  0  0  0  0  0  0  0  0  0  0
   -2.4950   -2.0140    1.0410 C   0  0  0  0  0  0  0  0  0  0  0  0
   -3.5120   -2.6850    1.4010 O   0  0  0  0  0  0  0  0  0  0  0  0
   -1.2270   -2.5810    1.2770 O   0  0  0  0  0  0  0  0  0  0  0  0
   -6.1110   -0.5020   -1.6790 H   0  0  0  0  0  0  0  0  0  0  0  0
   -5.1440    0.3480   -3.0030 H   0  0  0  0  0  0  0  0  0  0  0  0
   -6.1680    1.3260   -1.8450 H   0  0  0  0  0  0  0  0  0  0  0  0
   -3.7130    1.2920   -1.3650 H   0  0  0  0  0  0  0  0  0  0  0  0
   -5.8490    0.5340    0.6790 H   0  0  0  0  0  0  0  0  0  0  0  0
   -4.4390    1.6650    0.9730 H   0  0  0  0  0  0  0  0  0  0  0  0
   -5.6990    2.0250   -0.2370 H   0  0  0  0  0  0  0  0  0  0  0  0
   -3.5950   -1.4430   -1.4180 H   0  0  0  0  0  0  0  0  0  0  0  0
   -4.6500   -1.3080   -0.0190 H   0  0  0  0  0  0  0  0  0  0  0  0
   -3.1390   -0.0230    1.2460 H   0  0  0  0  0  0  0  0  0  0  0  0
   -0.7390   -0.7690   -0.3170 H   0  0  0  0  0  0  0  0  0  0  0  0
  1 13  1  0  0  0  0
  2  1  1  0  0  0  0
  2 12  1  0  0  0  0
  3  2  2  0  0  0  0
  4  3  1  0  0  0  0
  4  5  2  0  0  0  0
  5 11  1  0  0  0  0
  6  7  1  0  0  0  0
  6  5  1  0  0  0  0
  6 17  1  0  0  0  0
  7 18  1  6  0  0  0
  7  8  1  0  0  0  0
  8 19  1  0  0  0  0
  9  7  1  0  0  0  0
  9 10  2  0  0  0  0
 11 12  2  0  0  0  0
 11 21  1  0  0  0  0
 12 22  1  0  0  0  0
 14  3  1  0  0  0  0
 15  4  1  0  0  0  0
 16  6  1  0  0  0  0
 20  8  1  0  0  0  0
 23  9  1  0  0  0  0
 24 23  1  0  0  0  0
 24 28  1  0  0  0  0
 24 32  1  1  0  0  0
 25 24  1  0  0  0  0
 26 25  1  0  0  0  0
 26 27  2  0  0  0  0
 28 29  2  0  0  0  0
 30 26  1  0  0  0  0
 31 23  1  0  0  0  0
 33 25  1  0  0  0  0
 34 25  1  0  0  0  0
 35 30  1  0  0  0  0
 36 47  1  0  0  0  0
 36 45  1  0  0  0  0
 36 37  1  0  0  0  0
 37 39  1  0  0  0  0
 37 38  1  0  0  0  0
 38 49  1  0  0  0  0
 38 50  1  0  0  0  0
 39 53  1  0  0  0  0
 39 40  1  0  0  0  0
 40 42  1  0  0  0  0
 40 54  1  1  0  0  0
 41 28  1  0  0  0  0
 41 40  1  0  0  0  0
 42 44  2  0  0  0  0
 42 43  1  0  0  0  0
 46 36  1  0  0  0  0
 48 37  1  0  0  0  0
 51 38  1  0  0  0  0
 52 39  1  0  0  0  0
 55 41  1  0  0  0  0
M  END
$$$$
