YDM.pdb
 OpenBabel07022419203D

 53 53  0  0  1  0  0  0  0  0999 V2000
    1.5220    3.6310    4.9070 O   0  0  0  0  0  0  0  0  0  0  0  0
    2.0360    2.4160    4.4450 C   0  0  0  0  0  0  0  0  0  0  0  0
    1.3540    1.2410    4.6700 C   0  0  0  0  0  0  0  0  0  0  0  0
    1.8460    0.0530    4.2240 C   0  0  0  0  0  0  0  0  0  0  0  0
    3.0470   -0.0520    3.5260 C   0  0  0  0  0  0  0  0  0  0  0  0
    3.5720   -1.3400    3.0400 C   0  0  0  0  0  0  0  0  0  0  0  0
    3.2110   -1.6190    1.6160 C   0  0  2  0  0  0  0  0  0  0  0  0
    3.7800   -0.5650    0.7890 N   0  0  0  0  0  0  0  0  0  0  0  0
    1.7170   -1.5990    1.4930 C   0  0  0  0  0  0  0  0  0  0  0  0
    1.0670   -2.3550    2.2320 O   0  0  0  0  0  0  0  0  0  0  0  0
    3.7090    1.1520    3.3180 C   0  0  0  0  0  0  0  0  0  0  0  0
    3.2280    2.3680    3.7600 C   0  0  0  0  0  0  0  0  0  0  0  0
    1.3110    3.7150    5.8970 H   0  0  0  0  0  0  0  0  0  0  0  0
    0.4110    1.3140    5.2210 H   0  0  0  0  0  0  0  0  0  0  0  0
    1.2650   -0.8400    4.4480 H   0  0  0  0  0  0  0  0  0  0  0  0
    3.2100   -2.1460    3.7270 H   0  0  0  0  0  0  0  0  0  0  0  0
    4.6910   -1.3050    3.1760 H   0  0  0  0  0  0  0  0  0  0  0  0
    3.6550   -2.5730    1.2970 H   0  0  0  0  0  0  0  0  0  0  0  0
    4.8260   -0.5470    0.8300 H   0  0  0  0  0  0  0  0  0  0  0  0
    3.3760    0.3790    0.9610 H   0  0  0  0  0  0  0  0  0  0  0  0
    4.6620    1.1610    2.7830 H   0  0  0  0  0  0  0  0  0  0  0  0
    3.7640    3.2830    3.5750 H   0  0  0  0  0  0  0  0  0  0  0  0
    1.0580   -0.7710    0.5860 N   0  0  0  0  0  0  0  0  0  0  0  0
   -0.3600   -0.6690    0.4040 C   0  0  1  0  0  0  0  0  0  0  0  0
   -0.8640    0.7250    0.3910 C   0  0  0  0  0  0  0  0  0  0  0  0
   -0.2870    1.5730   -0.6800 C   0  0  0  0  0  0  0  0  0  0  0  0
   -0.6960    2.7690   -0.7060 O   0  0  0  0  0  0  0  0  0  0  0  0
   -0.8810   -1.5550   -0.6750 C   0  0  0  0  0  0  0  0  0  0  0  0
   -0.2050   -2.5770   -0.9420 O   0  0  0  0  0  0  0  0  0  0  0  0
    0.6260    1.1850   -1.6170 O   0  0  0  0  0  0  0  0  0  0  0  0
    1.7210   -0.1750   -0.0130 H   0  0  0  0  0  0  0  0  0  0  0  0
   -0.7990   -1.1390    1.3620 H   0  0  0  0  0  0  0  0  0  0  0  0
   -1.9540    0.7280    0.2810 H   0  0  0  0  0  0  0  0  0  0  0  0
   -0.6490    1.1760    1.3810 H   0  0  0  0  0  0  0  0  0  0  0  0
    0.6120    1.5030   -2.5710 H   0  0  0  0  0  0  0  0  0  0  0  0
   -3.9400   -4.0660   -0.2310 C   0  0  0  0  0  0  0  0  0  0  0  0
   -5.2580   -3.4060   -1.2100 S   0  0  0  0  0  0  0  0  0  0  0  0
   -4.9760   -1.7830   -1.9150 C   0  0  0  0  0  0  0  0  0  0  0  0
   -3.9110   -1.8070   -2.9340 C   0  0  0  0  0  0  0  0  0  0  0  0
   -2.5730   -2.1670   -2.4470 C   0  0  2  0  0  0  0  0  0  0  0  0
   -2.0650   -1.3010   -1.4040 N   0  0  0  0  0  0  0  0  0  0  0  0
   -1.6130   -2.0360   -3.6530 C   0  0  0  0  0  0  0  0  0  0  0  0
   -0.6700   -1.2430   -3.5380 O   0  0  0  0  0  0  0  0  0  0  0  0
   -1.8090   -2.7670   -4.7840 O   0  0  0  0  0  0  0  0  0  0  0  0
   -3.4680   -4.9150   -0.8160 H   0  0  0  0  0  0  0  0  0  0  0  0
   -4.3380   -4.5330    0.7240 H   0  0  0  0  0  0  0  0  0  0  0  0
   -3.1740   -3.3580    0.0960 H   0  0  0  0  0  0  0  0  0  0  0  0
   -4.7220   -1.0120   -1.1330 H   0  0  0  0  0  0  0  0  0  0  0  0
   -5.9360   -1.4560   -2.4160 H   0  0  0  0  0  0  0  0  0  0  0  0
   -4.2040   -2.6400   -3.6730 H   0  0  0  0  0  0  0  0  0  0  0  0
   -3.9200   -0.9090   -3.6160 H   0  0  0  0  0  0  0  0  0  0  0  0
   -2.4390   -3.2040   -2.1800 H   0  0  0  0  0  0  0  0  0  0  0  0
   -2.6200   -0.4500   -1.1940 H   0  0  0  0  0  0  0  0  0  0  0  0
  1 13  1  0  0  0  0
  2  3  1  0  0  0  0
  2  1  1  0  0  0  0
  3 14  1  0  0  0  0
  4 15  1  0  0  0  0
  4  3  2  0  0  0  0
  5  4  1  0  0  0  0
  6 17  1  0  0  0  0
  6  5  1  0  0  0  0
  6 16  1  0  0  0  0
  7 18  1  6  0  0  0
  7  6  1  0  0  0  0
  8 19  1  0  0  0  0
  8 20  1  0  0  0  0
  8  7  1  0  0  0  0
  9  7  1  0  0  0  0
  9 10  2  0  0  0  0
 11  5  2  0  0  0  0
 11 12  1  0  0  0  0
 12  2  2  0  0  0  0
 21 11  1  0  0  0  0
 22 12  1  0  0  0  0
 23  9  1  0  0  0  0
 24 23  1  0  0  0  0
 24 32  1  1  0  0  0
 25 24  1  0  0  0  0
 25 34  1  0  0  0  0
 26 25  1  0  0  0  0
 27 26  2  0  0  0  0
 28 24  1  0  0  0  0
 29 28  2  0  0  0  0
 30 26  1  0  0  0  0
 31 23  1  0  0  0  0
 33 25  1  0  0  0  0
 35 30  1  0  0  0  0
 36 47  1  0  0  0  0
 36 46  1  0  0  0  0
 37 36  1  0  0  0  0
 38 37  1  0  0  0  0
 38 48  1  0  0  0  0
 39 40  1  0  0  0  0
 39 38  1  0  0  0  0
 40 52  1  1  0  0  0
 40 41  1  0  0  0  0
 41 53  1  0  0  0  0
 41 28  1  0  0  0  0
 42 43  1  0  0  0  0
 42 40  1  0  0  0  0
 44 42  2  0  0  0  0
 45 36  1  0  0  0  0
 49 38  1  0  0  0  0
 50 39  1  0  0  0  0
 51 39  1  0  0  0  0
M  END
$$$$
