YDQ.pdb
 OpenBabel07022419203D

 53 53  0  0  1  0  0  0  0  0999 V2000
    1.6000    4.6260    3.0320 O   0  0  0  0  0  0  0  0  0  0  0  0
    2.0670    3.3070    3.1050 C   0  0  0  0  0  0  0  0  0  0  0  0
    1.3340    2.4270    3.8740 C   0  0  0  0  0  0  0  0  0  0  0  0
    1.7490    1.1250    3.9790 C   0  0  0  0  0  0  0  0  0  0  0  0
    2.8750    0.6650    3.3400 C   0  0  0  0  0  0  0  0  0  0  0  0
    3.3290   -0.7440    3.4470 C   0  0  0  0  0  0  0  0  0  0  0  0
    2.6970   -1.5560    2.3210 C   0  0  2  0  0  0  0  0  0  0  0  0
    3.1320   -0.9680    1.0920 N   0  0  0  0  0  0  0  0  0  0  0  0
    1.2200   -1.5130    2.4770 C   0  0  0  0  0  0  0  0  0  0  0  0
    0.6440   -1.9960    3.4960 O   0  0  0  0  0  0  0  0  0  0  0  0
    3.6020    1.5630    2.5680 C   0  0  0  0  0  0  0  0  0  0  0  0
    3.2040    2.8840    2.4470 C   0  0  0  0  0  0  0  0  0  0  0  0
    1.4940    5.1930    3.8710 H   0  0  0  0  0  0  0  0  0  0  0  0
    0.4360    2.7840    4.3880 H   0  0  0  0  0  0  0  0  0  0  0  0
    1.1490    0.4680    4.5910 H   0  0  0  0  0  0  0  0  0  0  0  0
    4.4330   -0.7300    3.3590 H   0  0  0  0  0  0  0  0  0  0  0  0
    3.0410   -1.1560    4.4380 H   0  0  0  0  0  0  0  0  0  0  0  0
    3.0810   -2.6040    2.3390 H   0  0  0  0  0  0  0  0  0  0  0  0
    3.2940   -1.6150    0.3120 H   0  0  0  0  0  0  0  0  0  0  0  0
    2.7520   -0.0440    0.8690 H   0  0  0  0  0  0  0  0  0  0  0  0
    4.5020    1.2770    2.0330 H   0  0  0  0  0  0  0  0  0  0  0  0
    3.7470    3.6100    1.8540 H   0  0  0  0  0  0  0  0  0  0  0  0
    0.3640   -0.9320    1.5030 N   0  0  0  0  0  0  0  0  0  0  0  0
   -1.1110   -0.9070    1.6910 C   0  0  1  0  0  0  0  0  0  0  0  0
   -1.4610    0.5550    1.6700 C   0  0  0  0  0  0  0  0  0  0  0  0
   -2.8920    0.8110    1.8800 C   0  0  0  0  0  0  0  0  0  0  0  0
   -3.7400   -0.0620    2.1440 O   0  0  0  0  0  0  0  0  0  0  0  0
   -1.7380   -1.5450    0.4970 C   0  0  0  0  0  0  0  0  0  0  0  0
   -2.9730   -1.6850    0.3620 O   0  0  0  0  0  0  0  0  0  0  0  0
   -3.3520    2.1440    1.7760 O   0  0  0  0  0  0  0  0  0  0  0  0
    0.7840   -0.5170    0.6470 H   0  0  0  0  0  0  0  0  0  0  0  0
   -1.4100   -1.3380    2.6440 H   0  0  0  0  0  0  0  0  0  0  0  0
   -0.8570    1.1470    2.3930 H   0  0  0  0  0  0  0  0  0  0  0  0
   -1.2000    0.9480    0.6480 H   0  0  0  0  0  0  0  0  0  0  0  0
   -4.3410    2.3400    1.9610 H   0  0  0  0  0  0  0  0  0  0  0  0
   -4.0690   -3.2850   -5.2010 N   0  0  0  0  0  0  0  0  0  0  0  0
   -3.3390   -2.5450   -4.2150 C   0  0  0  0  0  0  0  0  0  0  0  0
   -3.9640   -1.9150   -3.3290 O   0  0  0  0  0  0  0  0  0  0  0  0
   -1.8680   -2.5050   -4.2180 C   0  0  0  0  0  0  0  0  0  0  0  0
   -1.2410   -1.9100   -2.9970 C   0  0  0  0  0  0  0  0  0  0  0  0
   -1.5870   -2.6750   -1.7700 C   0  0  2  0  0  0  0  0  0  0  0  0
   -0.9490   -2.0430   -0.5850 N   0  0  0  0  0  0  0  0  0  0  0  0
   -1.0610   -4.0480   -1.8250 C   0  0  0  0  0  0  0  0  0  0  0  0
   -1.4510   -4.8660   -2.6810 O   0  0  0  0  0  0  0  0  0  0  0  0
   -0.1120   -4.4640   -0.9170 O   0  0  0  0  0  0  0  0  0  0  0  0
   -5.0930   -3.3820   -5.0940 H   0  0  0  0  0  0  0  0  0  0  0  0
   -3.5790   -3.7180   -6.0130 H   0  0  0  0  0  0  0  0  0  0  0  0
   -1.4910   -3.5200   -4.4780 H   0  0  0  0  0  0  0  0  0  0  0  0
   -1.5740   -1.8770   -5.1380 H   0  0  0  0  0  0  0  0  0  0  0  0
   -1.6360   -0.8540   -2.9380 H   0  0  0  0  0  0  0  0  0  0  0  0
   -0.1430   -1.8120   -3.1600 H   0  0  0  0  0  0  0  0  0  0  0  0
   -2.6880   -2.6680   -1.6320 H   0  0  0  0  0  0  0  0  0  0  0  0
    0.0710   -1.9710   -0.5570 H   0  0  0  0  0  0  0  0  0  0  0  0
  1  2  1  0  0  0  0
  1 13  1  0  0  0  0
  2  3  1  0  0  0  0
  3  4  2  0  0  0  0
  3 14  1  0  0  0  0
  4 15  1  0  0  0  0
  5  6  1  0  0  0  0
  5  4  1  0  0  0  0
  6 17  1  0  0  0  0
  7 18  1  1  0  0  0
  7  9  1  0  0  0  0
  7  6  1  0  0  0  0
  8  7  1  0  0  0  0
  9 10  2  0  0  0  0
 11  5  2  0  0  0  0
 12 11  1  0  0  0  0
 12  2  2  0  0  0  0
 16  6  1  0  0  0  0
 19  8  1  0  0  0  0
 20  8  1  0  0  0  0
 21 11  1  0  0  0  0
 22 12  1  0  0  0  0
 23 24  1  0  0  0  0
 23  9  1  0  0  0  0
 24 32  1  1  0  0  0
 25 24  1  0  0  0  0
 25 26  1  0  0  0  0
 25 33  1  0  0  0  0
 26 27  2  0  0  0  0
 28 24  1  0  0  0  0
 29 28  2  0  0  0  0
 30 26  1  0  0  0  0
 30 35  1  0  0  0  0
 31 23  1  0  0  0  0
 34 25  1  0  0  0  0
 36 46  1  0  0  0  0
 36 37  1  0  0  0  0
 37 38  2  0  0  0  0
 39 37  1  0  0  0  0
 39 40  1  0  0  0  0
 40 50  1  0  0  0  0
 40 41  1  0  0  0  0
 41 52  1  1  0  0  0
 41 42  1  0  0  0  0
 42 53  1  0  0  0  0
 42 28  1  0  0  0  0
 43 41  1  0  0  0  0
 43 45  1  0  0  0  0
 44 43  2  0  0  0  0
 47 36  1  0  0  0  0
 48 39  1  0  0  0  0
 49 39  1  0  0  0  0
 51 40  1  0  0  0  0
M  END
$$$$
