YDS.pdb
 OpenBabel07022419203D

 47 47  0  0  1  0  0  0  0  0999 V2000
    2.4560   -1.0400    7.0570 O   0  0  0  0  0  0  0  0  0  0  0  0
    1.7970   -1.7280    6.0480 C   0  0  0  0  0  0  0  0  0  0  0  0
    0.5780   -2.3350    6.2570 C   0  0  0  0  0  0  0  0  0  0  0  0
   -0.0850   -3.0260    5.2440 C   0  0  0  0  0  0  0  0  0  0  0  0
    0.4760   -3.1230    3.9770 C   0  0  0  0  0  0  0  0  0  0  0  0
   -0.2230   -3.8700    2.9100 C   0  0  0  0  0  0  0  0  0  0  0  0
   -1.1930   -2.9740    2.1760 C   0  0  2  0  0  0  0  0  0  0  0  0
   -1.8500   -3.7830    1.1280 N   0  0  0  0  0  0  0  0  0  0  0  0
   -0.5200   -1.8050    1.5660 C   0  0  0  0  0  0  0  0  0  0  0  0
    0.0120   -0.9360    2.3140 O   0  0  0  0  0  0  0  0  0  0  0  0
    1.6910   -2.5170    3.7700 C   0  0  0  0  0  0  0  0  0  0  0  0
    2.3590   -1.8250    4.7760 C   0  0  0  0  0  0  0  0  0  0  0  0
    3.4680   -1.1750    7.1870 H   0  0  0  0  0  0  0  0  0  0  0  0
    0.0920   -2.2880    7.2430 H   0  0  0  0  0  0  0  0  0  0  0  0
   -1.0420   -3.4950    5.4340 H   0  0  0  0  0  0  0  0  0  0  0  0
   -0.7850   -4.7340    3.3620 H   0  0  0  0  0  0  0  0  0  0  0  0
    0.5250   -4.3200    2.2340 H   0  0  0  0  0  0  0  0  0  0  0  0
   -2.0230   -2.6700    2.8510 H   0  0  0  0  0  0  0  0  0  0  0  0
   -2.4130   -3.1030    0.5600 H   0  0  0  0  0  0  0  0  0  0  0  0
   -1.0630   -4.0890    0.5000 H   0  0  0  0  0  0  0  0  0  0  0  0
    2.1540   -2.5760    2.7950 H   0  0  0  0  0  0  0  0  0  0  0  0
    3.3170   -1.3460    4.6160 H   0  0  0  0  0  0  0  0  0  0  0  0
   -0.4280   -1.5880    0.1810 N   0  0  0  0  0  0  0  0  0  0  0  0
    0.2640   -0.3890   -0.3760 C   0  0  1  0  0  0  0  0  0  0  0  0
    1.4400   -0.8380   -1.1750 C   0  0  0  0  0  0  0  0  0  0  0  0
    2.1750    0.3080   -1.7170 C   0  0  0  0  0  0  0  0  0  0  0  0
    2.7750    1.0860   -0.9210 O   0  0  0  0  0  0  0  0  0  0  0  0
   -0.7300    0.3560   -1.2000 C   0  0  0  0  0  0  0  0  0  0  0  0
   -1.8870   -0.1330   -1.3910 O   0  0  0  0  0  0  0  0  0  0  0  0
    2.2610    0.6020   -3.0670 O   0  0  0  0  0  0  0  0  0  0  0  0
   -0.8500   -2.2760   -0.4680 H   0  0  0  0  0  0  0  0  0  0  0  0
    0.6070    0.2150    0.4730 H   0  0  0  0  0  0  0  0  0  0  0  0
    2.1340   -1.4230   -0.5280 H   0  0  0  0  0  0  0  0  0  0  0  0
    1.0480   -1.4890   -2.0120 H   0  0  0  0  0  0  0  0  0  0  0  0
    3.1560    0.8910   -3.4960 H   0  0  0  0  0  0  0  0  0  0  0  0
   -2.2390    3.3560   -0.5900 O   0  0  0  0  0  0  0  0  0  0  0  0
   -1.7660    3.6070   -1.8600 C   0  0  0  0  0  0  0  0  0  0  0  0
   -1.4870    2.2970   -2.6000 C   0  0  2  0  0  0  0  0  0  0  0  0
   -0.4810    1.5970   -1.7980 N   0  0  0  0  0  0  0  0  0  0  0  0
   -1.0370    2.6370   -3.9460 C   0  0  0  0  0  0  0  0  0  0  0  0
    0.1070    2.3630   -4.3810 O   0  0  0  0  0  0  0  0  0  0  0  0
   -1.9090    3.2970   -4.7980 O   0  0  0  0  0  0  0  0  0  0  0  0
   -3.2040    3.6240   -0.4690 H   0  0  0  0  0  0  0  0  0  0  0  0
   -0.7880    4.1230   -1.7550 H   0  0  0  0  0  0  0  0  0  0  0  0
   -2.4170    4.2700   -2.4640 H   0  0  0  0  0  0  0  0  0  0  0  0
   -2.3960    1.6710   -2.6480 H   0  0  0  0  0  0  0  0  0  0  0  0
    0.4240    2.0700   -1.6890 H   0  0  0  0  0  0  0  0  0  0  0  0
  1 13  1  0  0  0  0
  2  3  1  0  0  0  0
  2  1  1  0  0  0  0
  3 14  1  0  0  0  0
  4 15  1  0  0  0  0
  4  3  2  0  0  0  0
  5  4  1  0  0  0  0
  6 16  1  0  0  0  0
  6  5  1  0  0  0  0
  7 18  1  1  0  0  0
  7  6  1  0  0  0  0
  8  7  1  0  0  0  0
  9  7  1  0  0  0  0
  9 10  2  0  0  0  0
 11  5  2  0  0  0  0
 11 12  1  0  0  0  0
 12  2  2  0  0  0  0
 17  6  1  0  0  0  0
 19  8  1  0  0  0  0
 20  8  1  0  0  0  0
 21 11  1  0  0  0  0
 22 12  1  0  0  0  0
 23  9  1  0  0  0  0
 24 23  1  0  0  0  0
 24 32  1  1  0  0  0
 25 33  1  0  0  0  0
 25 24  1  0  0  0  0
 26 25  1  0  0  0  0
 26 27  2  0  0  0  0
 28 24  1  0  0  0  0
 29 28  2  0  0  0  0
 30 26  1  0  0  0  0
 31 23  1  0  0  0  0
 34 25  1  0  0  0  0
 35 30  1  0  0  0  0
 36 43  1  0  0  0  0
 37 44  1  0  0  0  0
 37 36  1  0  0  0  0
 38 46  1  6  0  0  0
 38 37  1  0  0  0  0
 38 39  1  0  0  0  0
 39 47  1  0  0  0  0
 39 28  1  0  0  0  0
 40 38  1  0  0  0  0
 41 40  1  0  0  0  0
 42 40  2  0  0  0  0
 45 37  1  0  0  0  0
M  END
$$$$
