YDT.pdb
 OpenBabel07022419203D

 50 50  0  0  1  0  0  0  0  0999 V2000
    6.8600   -2.4900    2.4650 O   0  0  0  0  0  0  0  0  0  0  0  0
    5.9080   -1.4840    2.5180 C   0  0  0  0  0  0  0  0  0  0  0  0
    6.2200   -0.2730    1.9370 C   0  0  0  0  0  0  0  0  0  0  0  0
    5.2880    0.7720    1.9670 C   0  0  0  0  0  0  0  0  0  0  0  0
    4.0580    0.5980    2.5740 C   0  0  0  0  0  0  0  0  0  0  0  0
    3.0870    1.7040    2.6000 C   0  0  0  0  0  0  0  0  0  0  0  0
    2.1590    1.7490    1.4330 C   0  0  2  0  0  0  0  0  0  0  0  0
    1.2760    2.8830    1.6080 N   0  0  0  0  0  0  0  0  0  0  0  0
    1.4170    0.4940    1.1990 C   0  0  0  0  0  0  0  0  0  0  0  0
    1.9990   -0.6050    1.0150 O   0  0  0  0  0  0  0  0  0  0  0  0
    3.7490   -0.6130    3.1540 C   0  0  0  0  0  0  0  0  0  0  0  0
    4.6820   -1.6560    3.1230 C   0  0  0  0  0  0  0  0  0  0  0  0
    7.0060   -3.1670    3.1930 H   0  0  0  0  0  0  0  0  0  0  0  0
    7.1670   -0.0730    1.4450 H   0  0  0  0  0  0  0  0  0  0  0  0
    5.4850    1.7340    1.5270 H   0  0  0  0  0  0  0  0  0  0  0  0
    3.5750    2.7030    2.6690 H   0  0  0  0  0  0  0  0  0  0  0  0
    2.4430    1.6460    3.5260 H   0  0  0  0  0  0  0  0  0  0  0  0
    2.7530    1.9470    0.4960 H   0  0  0  0  0  0  0  0  0  0  0  0
    1.1920    3.4420    0.7200 H   0  0  0  0  0  0  0  0  0  0  0  0
    1.6660    3.5550    2.3190 H   0  0  0  0  0  0  0  0  0  0  0  0
    2.8060   -0.7830    3.6340 H   0  0  0  0  0  0  0  0  0  0  0  0
    4.4740   -2.6180    3.5670 H   0  0  0  0  0  0  0  0  0  0  0  0
   -0.0240    0.4410    1.1640 N   0  0  0  0  0  0  0  0  0  0  0  0
   -0.7130   -0.7950    0.9340 C   0  0  1  0  0  0  0  0  0  0  0  0
   -1.5120   -1.1360    2.1670 C   0  0  0  0  0  0  0  0  0  0  0  0
   -2.5210   -0.1440    2.5350 C   0  0  0  0  0  0  0  0  0  0  0  0
   -2.7190    0.8920    1.8720 O   0  0  0  0  0  0  0  0  0  0  0  0
   -1.6800   -0.6990   -0.1960 C   0  0  0  0  0  0  0  0  0  0  0  0
   -1.7840    0.3970   -0.7960 O   0  0  0  0  0  0  0  0  0  0  0  0
   -3.3190   -0.3150    3.6620 O   0  0  0  0  0  0  0  0  0  0  0  0
   -0.5220    1.3390    1.3130 H   0  0  0  0  0  0  0  0  0  0  0  0
   -0.0210   -1.6510    0.7770 H   0  0  0  0  0  0  0  0  0  0  0  0
   -1.9600   -2.1380    2.0060 H   0  0  0  0  0  0  0  0  0  0  0  0
   -0.7670   -1.1780    3.0130 H   0  0  0  0  0  0  0  0  0  0  0  0
   -4.0880    0.3210    3.8810 H   0  0  0  0  0  0  0  0  0  0  0  0
   -4.0960   -2.5150   -3.9170 C   0  0  0  0  0  0  0  0  0  0  0  0
   -3.1290   -2.7530   -2.7760 C   0  0  1  0  0  0  0  0  0  0  0  0
   -1.8450   -2.4490   -3.2670 O   0  0  0  0  0  0  0  0  0  0  0  0
   -3.4190   -1.7390   -1.6940 C   0  0  2  0  0  0  0  0  0  0  0  0
   -2.4800   -1.7790   -0.6190 N   0  0  0  0  0  0  0  0  0  0  0  0
   -4.7790   -2.0030   -1.1730 C   0  0  0  0  0  0  0  0  0  0  0  0
   -4.9320   -2.2120    0.0430 O   0  0  0  0  0  0  0  0  0  0  0  0
   -5.8930   -2.0240   -2.0050 O   0  0  0  0  0  0  0  0  0  0  0  0
   -3.5580   -2.6140   -4.9030 H   0  0  0  0  0  0  0  0  0  0  0  0
   -4.5700   -1.5240   -3.8770 H   0  0  0  0  0  0  0  0  0  0  0  0
   -4.8970   -3.2750   -3.9450 H   0  0  0  0  0  0  0  0  0  0  0  0
   -3.2200   -3.7860   -2.4330 H   0  0  0  0  0  0  0  0  0  0  0  0
   -1.9370   -1.6110   -3.8180 H   0  0  0  0  0  0  0  0  0  0  0  0
   -3.4280   -0.7280   -2.1490 H   0  0  0  0  0  0  0  0  0  0  0  0
   -2.3700   -2.6910   -0.0940 H   0  0  0  0  0  0  0  0  0  0  0  0
  1  2  1  0  0  0  0
  1 13  1  0  0  0  0
  2 12  1  0  0  0  0
  3  4  1  0  0  0  0
  3  2  2  0  0  0  0
  4  5  2  0  0  0  0
  5  6  1  0  0  0  0
  5 11  1  0  0  0  0
  6 16  1  0  0  0  0
  6 17  1  0  0  0  0
  7 18  1  6  0  0  0
  7  8  1  0  0  0  0
  7  6  1  0  0  0  0
  8 20  1  0  0  0  0
  9  7  1  0  0  0  0
 10  9  2  0  0  0  0
 11 21  1  0  0  0  0
 12 11  2  0  0  0  0
 12 22  1  0  0  0  0
 14  3  1  0  0  0  0
 15  4  1  0  0  0  0
 19  8  1  0  0  0  0
 23  9  1  0  0  0  0
 23 31  1  0  0  0  0
 24 32  1  6  0  0  0
 24 23  1  0  0  0  0
 24 25  1  0  0  0  0
 25 26  1  0  0  0  0
 25 34  1  0  0  0  0
 26 30  1  0  0  0  0
 27 26  2  0  0  0  0
 28 24  1  0  0  0  0
 29 28  2  0  0  0  0
 30 35  1  0  0  0  0
 33 25  1  0  0  0  0
 36 45  1  0  0  0  0
 36 37  1  0  0  0  0
 37 47  1  1  0  0  0
 37 39  1  0  0  0  0
 38 37  1  0  0  0  0
 39 49  1  6  0  0  0
 39 41  1  0  0  0  0
 39 40  1  0  0  0  0
 40 28  1  0  0  0  0
 40 50  1  0  0  0  0
 41 42  1  0  0  0  0
 43 41  2  0  0  0  0
 44 36  1  0  0  0  0
 46 36  1  0  0  0  0
 48 38  1  0  0  0  0
M  END
$$$$
