YDV.pdb
 OpenBabel07022419203D

 52 52  0  0  1  0  0  0  0  0999 V2000
    6.4550   -2.6610    3.3210 O   0  0  0  0  0  0  0  0  0  0  0  0
    5.5800   -1.5990    3.2180 C   0  0  0  0  0  0  0  0  0  0  0  0
    6.0090   -0.4400    2.6050 C   0  0  0  0  0  0  0  0  0  0  0  0
    5.1510    0.6280    2.4930 C   0  0  0  0  0  0  0  0  0  0  0  0
    3.8740    0.5810    2.9730 C   0  0  0  0  0  0  0  0  0  0  0  0
    2.9560    1.7130    2.8570 C   0  0  0  0  0  0  0  0  0  0  0  0
    2.1330    1.7330    1.6050 C   0  0  2  0  0  0  0  0  0  0  0  0
    1.2830    2.9070    1.6480 N   0  0  0  0  0  0  0  0  0  0  0  0
    1.3710    0.5100    1.3500 C   0  0  0  0  0  0  0  0  0  0  0  0
    1.9350   -0.6100    1.2700 O   0  0  0  0  0  0  0  0  0  0  0  0
    3.4220   -0.5740    3.5920 C   0  0  0  0  0  0  0  0  0  0  0  0
    4.2810   -1.6430    3.7040 C   0  0  0  0  0  0  0  0  0  0  0  0
    6.6860   -3.0960    4.1890 H   0  0  0  0  0  0  0  0  0  0  0  0
    7.0250   -0.3410    2.1980 H   0  0  0  0  0  0  0  0  0  0  0  0
    5.5220    1.5190    2.0070 H   0  0  0  0  0  0  0  0  0  0  0  0
    2.2530    1.7920    3.7350 H   0  0  0  0  0  0  0  0  0  0  0  0
    3.5220    2.6800    2.8800 H   0  0  0  0  0  0  0  0  0  0  0  0
    2.8340    1.9040    0.7430 H   0  0  0  0  0  0  0  0  0  0  0  0
    1.1100    3.2910    0.6950 H   0  0  0  0  0  0  0  0  0  0  0  0
    1.6820    3.6250    2.2710 H   0  0  0  0  0  0  0  0  0  0  0  0
    2.4220   -0.6780    3.9950 H   0  0  0  0  0  0  0  0  0  0  0  0
    3.9350   -2.5450    4.1860 H   0  0  0  0  0  0  0  0  0  0  0  0
   -0.0430    0.5210    1.1800 N   0  0  0  0  0  0  0  0  0  0  0  0
   -0.7580   -0.7190    0.9280 C   0  0  1  0  0  0  0  0  0  0  0  0
   -1.7480   -0.9530    2.0290 C   0  0  0  0  0  0  0  0  0  0  0  0
   -2.7490    0.1150    2.1430 C   0  0  0  0  0  0  0  0  0  0  0  0
   -2.8080    1.1270    1.3980 O   0  0  0  0  0  0  0  0  0  0  0  0
   -1.5480   -0.5560   -0.3450 C   0  0  0  0  0  0  0  0  0  0  0  0
   -1.5080    0.5300   -0.9750 O   0  0  0  0  0  0  0  0  0  0  0  0
   -3.7510    0.0750    3.1330 O   0  0  0  0  0  0  0  0  0  0  0  0
   -0.5180    1.4400    1.2430 H   0  0  0  0  0  0  0  0  0  0  0  0
   -0.0880   -1.5840    0.8810 H   0  0  0  0  0  0  0  0  0  0  0  0
   -2.2770   -1.9110    1.8570 H   0  0  0  0  0  0  0  0  0  0  0  0
   -1.1880   -1.0780    2.9950 H   0  0  0  0  0  0  0  0  0  0  0  0
   -4.0540    0.9530    3.5700 H   0  0  0  0  0  0  0  0  0  0  0  0
   -3.5890   -2.0280   -4.3850 C   0  0  0  0  0  0  0  0  0  0  0  0
   -2.7140   -2.3400   -3.1850 C   0  0  0  0  0  0  0  0  0  0  0  0
   -2.9120   -3.7960   -2.8220 C   0  0  0  0  0  0  0  0  0  0  0  0
   -3.0930   -1.4080   -2.0850 C   0  0  2  0  0  0  0  0  0  0  0  0
   -2.3460   -1.5830   -0.8740 N   0  0  0  0  0  0  0  0  0  0  0  0
   -4.5530   -1.5310   -1.8210 C   0  0  0  0  0  0  0  0  0  0  0  0
   -5.4400   -1.4230   -2.6830 O   0  0  0  0  0  0  0  0  0  0  0  0
   -4.9780   -1.7900   -0.5030 O   0  0  0  0  0  0  0  0  0  0  0  0
   -2.9930   -2.1350   -5.3320 H   0  0  0  0  0  0  0  0  0  0  0  0
   -3.8530   -0.9560   -4.3320 H   0  0  0  0  0  0  0  0  0  0  0  0
   -4.4930   -2.6740   -4.4100 H   0  0  0  0  0  0  0  0  0  0  0  0
   -1.6630   -2.2270   -3.5190 H   0  0  0  0  0  0  0  0  0  0  0  0
   -3.9800   -3.9760   -2.4970 H   0  0  0  0  0  0  0  0  0  0  0  0
   -2.2370   -4.1530   -2.0420 H   0  0  0  0  0  0  0  0  0  0  0  0
   -2.7780   -4.4460   -3.7120 H   0  0  0  0  0  0  0  0  0  0  0  0
   -2.9580   -0.3690   -2.5130 H   0  0  0  0  0  0  0  0  0  0  0  0
   -2.3960   -2.4950   -0.3760 H   0  0  0  0  0  0  0  0  0  0  0  0
  1 13  1  0  0  0  0
  2  1  1  0  0  0  0
  2 12  1  0  0  0  0
  3  2  2  0  0  0  0
  4  3  1  0  0  0  0
  4  5  2  0  0  0  0
  5 11  1  0  0  0  0
  6 17  1  0  0  0  0
  6  5  1  0  0  0  0
  6 16  1  0  0  0  0
  7 18  1  6  0  0  0
  7  8  1  0  0  0  0
  7  6  1  0  0  0  0
  8 20  1  0  0  0  0
  9  7  1  0  0  0  0
 10  9  2  0  0  0  0
 11 12  2  0  0  0  0
 11 21  1  0  0  0  0
 12 22  1  0  0  0  0
 14  3  1  0  0  0  0
 15  4  1  0  0  0  0
 19  8  1  0  0  0  0
 23 31  1  0  0  0  0
 23  9  1  0  0  0  0
 24 32  1  6  0  0  0
 24 23  1  0  0  0  0
 24 25  1  0  0  0  0
 25 26  1  0  0  0  0
 25 34  1  0  0  0  0
 26 30  1  0  0  0  0
 27 26  2  0  0  0  0
 28 24  1  0  0  0  0
 29 28  2  0  0  0  0
 30 35  1  0  0  0  0
 33 25  1  0  0  0  0
 36 45  1  0  0  0  0
 36 37  1  0  0  0  0
 37 38  1  0  0  0  0
 37 39  1  0  0  0  0
 38 48  1  0  0  0  0
 38 49  1  0  0  0  0
 39 51  1  6  0  0  0
 39 41  1  0  0  0  0
 39 40  1  0  0  0  0
 40 52  1  0  0  0  0
 40 28  1  0  0  0  0
 41 43  1  0  0  0  0
 42 41  2  0  0  0  0
 44 36  1  0  0  0  0
 46 36  1  0  0  0  0
 47 37  1  0  0  0  0
 50 38  1  0  0  0  0
M  END
$$$$
