YDW.pdb
 OpenBabel07022419203D

 60 62  0  0  1  0  0  0  0  0999 V2000
    1.7120   -1.5040    7.1930 O   0  0  0  0  0  0  0  0  0  0  0  0
    2.1830   -0.9440    6.0030 C   0  0  0  0  0  0  0  0  0  0  0  0
    3.3870   -1.3300    5.4770 C   0  0  0  0  0  0  0  0  0  0  0  0
    3.8450   -0.7760    4.3080 C   0  0  0  0  0  0  0  0  0  0  0  0
    3.1200    0.1930    3.6080 C   0  0  0  0  0  0  0  0  0  0  0  0
    3.6400    0.7820    2.3650 C   0  0  0  0  0  0  0  0  0  0  0  0
    3.3000    0.0100    1.1180 C   0  0  2  0  0  0  0  0  0  0  0  0
    3.8400    0.6530   -0.0670 N   0  0  0  0  0  0  0  0  0  0  0  0
    1.8330   -0.1100    1.0070 C   0  0  0  0  0  0  0  0  0  0  0  0
    1.1400   -0.7160    1.8600 O   0  0  0  0  0  0  0  0  0  0  0  0
    1.9170    0.5490    4.1760 C   0  0  0  0  0  0  0  0  0  0  0  0
    1.4330    0.0100    5.3460 C   0  0  0  0  0  0  0  0  0  0  0  0
    0.7230   -1.5020    7.4450 H   0  0  0  0  0  0  0  0  0  0  0  0
    3.9680   -2.0950    6.0200 H   0  0  0  0  0  0  0  0  0  0  0  0
    4.8110   -1.1030    3.9070 H   0  0  0  0  0  0  0  0  0  0  0  0
    4.7440    0.8910    2.4940 H   0  0  0  0  0  0  0  0  0  0  0  0
    3.2500    1.8400    2.2930 H   0  0  0  0  0  0  0  0  0  0  0  0
    3.7800   -0.9870    1.1770 H   0  0  0  0  0  0  0  0  0  0  0  0
    3.7080    1.6790   -0.0720 H   0  0  0  0  0  0  0  0  0  0  0  0
    4.8430    0.3620   -0.1590 H   0  0  0  0  0  0  0  0  0  0  0  0
    1.3260    1.2970    3.6740 H   0  0  0  0  0  0  0  0  0  0  0  0
    0.4900    0.2850    5.7970 H   0  0  0  0  0  0  0  0  0  0  0  0
    1.1060    0.4660   -0.0940 N   0  0  0  0  0  0  0  0  0  0  0  0
   -0.3010    0.3950   -0.2780 C   0  0  1  0  0  0  0  0  0  0  0  0
   -0.9360    1.7580   -0.1030 C   0  0  0  0  0  0  0  0  0  0  0  0
   -0.4580    2.7820   -1.0290 C   0  0  0  0  0  0  0  0  0  0  0  0
    0.7710    3.0400   -1.0800 O   0  0  0  0  0  0  0  0  0  0  0  0
   -0.7110   -0.1650   -1.5990 C   0  0  0  0  0  0  0  0  0  0  0  0
    0.0780   -0.5430   -2.4740 O   0  0  0  0  0  0  0  0  0  0  0  0
   -1.3020    3.5080   -1.8790 O   0  0  0  0  0  0  0  0  0  0  0  0
    1.6990    0.9590   -0.7940 H   0  0  0  0  0  0  0  0  0  0  0  0
   -0.8060   -0.2480    0.4990 H   0  0  0  0  0  0  0  0  0  0  0  0
   -2.0510    1.6690   -0.0820 H   0  0  0  0  0  0  0  0  0  0  0  0
   -0.6480    2.1020    0.9320 H   0  0  0  0  0  0  0  0  0  0  0  0
   -0.9540    3.6790   -2.8360 H   0  0  0  0  0  0  0  0  0  0  0  0
   -2.1180   -0.2580   -1.8450 N   0  0  0  0  0  0  0  0  0  0  0  0
   -2.6930   -0.7590   -3.0430 C   0  0  1  0  0  0  0  0  0  0  0  0
   -3.4620   -2.0310   -2.7610 C   0  0  0  0  0  0  0  0  0  0  0  0
   -2.6510   -3.1210   -2.2110 C   0  0  0  0  0  0  0  0  0  0  0  0
   -2.1250   -4.1280   -3.0200 C   0  0  0  0  0  0  0  0  0  0  0  0
   -1.4240   -4.9170   -2.2200 N   0  0  0  0  0  0  0  0  0  0  0  0
   -1.4640   -4.4870   -0.9530 C   0  0  0  0  0  0  0  0  0  0  0  0
   -0.9180   -4.9520    0.2290 C   0  0  0  0  0  0  0  0  0  0  0  0
   -1.1350   -4.3020    1.4180 C   0  0  0  0  0  0  0  0  0  0  0  0
   -1.9090   -3.1720    1.4240 C   0  0  0  0  0  0  0  0  0  0  0  0
   -2.4610   -2.6920    0.2700 C   0  0  0  0  0  0  0  0  0  0  0  0
   -2.2440   -3.3400   -0.9230 C   0  0  0  0  0  0  0  0  0  0  0  0
   -3.6660    0.2270   -3.5570 C   0  0  0  0  0  0  0  0  0  0  0  0
   -4.2870   -0.0220   -4.6090 O   0  0  0  0  0  0  0  0  0  0  0  0
   -3.8930    1.4110   -2.8950 O   0  0  0  0  0  0  0  0  0  0  0  0
   -2.8020    0.0750   -1.1000 H   0  0  0  0  0  0  0  0  0  0  0  0
   -1.9090   -0.9480   -3.8270 H   0  0  0  0  0  0  0  0  0  0  0  0
   -4.2350   -1.7600   -1.9810 H   0  0  0  0  0  0  0  0  0  0  0  0
   -4.0410   -2.3470   -3.6680 H   0  0  0  0  0  0  0  0  0  0  0  0
   -2.2830   -4.2150   -4.0980 H   0  0  0  0  0  0  0  0  0  0  0  0
   -0.9010   -5.7670   -2.5130 H   0  0  0  0  0  0  0  0  0  0  0  0
   -0.3030   -5.8540    0.2070 H   0  0  0  0  0  0  0  0  0  0  0  0
   -0.6910   -4.6880    2.3530 H   0  0  0  0  0  0  0  0  0  0  0  0
   -2.0730   -2.6760    2.3510 H   0  0  0  0  0  0  0  0  0  0  0  0
   -3.0920   -1.7970    0.2560 H   0  0  0  0  0  0  0  0  0  0  0  0
  1 13  1  0  0  0  0
  2  1  1  0  0  0  0
  3  2  1  0  0  0  0
  3 14  1  0  0  0  0
  4  3  2  0  0  0  0
  5 11  2  0  0  0  0
  5  4  1  0  0  0  0
  6 16  1  0  0  0  0
  6  5  1  0  0  0  0
  7 18  1  1  0  0  0
  7  6  1  0  0  0  0
  8  7  1  0  0  0  0
  9  7  1  0  0  0  0
  9 10  2  0  0  0  0
 11 12  1  0  0  0  0
 12 22  1  0  0  0  0
 12  2  2  0  0  0  0
 15  4  1  0  0  0  0
 17  6  1  0  0  0  0
 19  8  1  0  0  0  0
 20  8  1  0  0  0  0
 21 11  1  0  0  0  0
 23  9  1  0  0  0  0
 24 25  1  0  0  0  0
 24 23  1  0  0  0  0
 24 32  1  1  0  0  0
 25 33  1  0  0  0  0
 25 34  1  0  0  0  0
 26 25  1  0  0  0  0
 27 26  2  0  0  0  0
 28 24  1  0  0  0  0
 29 28  2  0  0  0  0
 30 26  1  0  0  0  0
 31 23  1  0  0  0  0
 35 30  1  0  0  0  0
 36 28  1  0  0  0  0
 36 51  1  0  0  0  0
 37 52  1  6  0  0  0
 37 38  1  0  0  0  0
 37 36  1  0  0  0  0
 38 39  1  0  0  0  0
 38 53  1  0  0  0  0
 39 47  1  0  0  0  0
 40 41  1  0  0  0  0
 40 39  2  0  0  0  0
 41 42  1  0  0  0  0
 42 47  2  0  0  0  0
 42 43  1  0  0  0  0
 43 44  2  0  0  0  0
 44 45  1  0  0  0  0
 44 58  1  0  0  0  0
 45 59  1  0  0  0  0
 46 45  2  0  0  0  0
 47 46  1  0  0  0  0
 48 37  1  0  0  0  0
 48 50  1  0  0  0  0
 49 48  2  0  0  0  0
 54 38  1  0  0  0  0
 55 40  1  0  0  0  0
 56 41  1  0  0  0  0
 57 43  1  0  0  0  0
 60 46  1  0  0  0  0
M  END
$$$$
