YEA.pdb
 OpenBabel07022419203D

 49 49  0  0  1  0  0  0  0  0999 V2000
    5.2060   -3.0020    4.0840 O   0  0  0  0  0  0  0  0  0  0  0  0
    4.8110   -2.0490    3.1430 C   0  0  0  0  0  0  0  0  0  0  0  0
    3.7890   -1.1970    3.4740 C   0  0  0  0  0  0  0  0  0  0  0  0
    3.3600   -0.2330    2.5730 C   0  0  0  0  0  0  0  0  0  0  0  0
    3.9340   -0.0940    1.3270 C   0  0  0  0  0  0  0  0  0  0  0  0
    3.4740    0.9360    0.3630 C   0  0  0  0  0  0  0  0  0  0  0  0
    2.3930    0.4790   -0.5580 C   0  0  2  0  0  0  0  0  0  0  0  0
    2.0450    1.5740   -1.4380 N   0  0  0  0  0  0  0  0  0  0  0  0
    1.2340   -0.1410    0.0820 C   0  0  0  0  0  0  0  0  0  0  0  0
    1.3840   -1.0970    0.8670 O   0  0  0  0  0  0  0  0  0  0  0  0
    4.9630   -0.9750    1.0310 C   0  0  0  0  0  0  0  0  0  0  0  0
    5.3970   -1.9310    1.9110 C   0  0  0  0  0  0  0  0  0  0  0  0
    4.5500   -3.7400    4.3340 H   0  0  0  0  0  0  0  0  0  0  0  0
    3.3270   -1.2980    4.4600 H   0  0  0  0  0  0  0  0  0  0  0  0
    2.5510    0.4030    2.9010 H   0  0  0  0  0  0  0  0  0  0  0  0
    4.3710    1.1680   -0.2800 H   0  0  0  0  0  0  0  0  0  0  0  0
    3.2510    1.8870    0.8860 H   0  0  0  0  0  0  0  0  0  0  0  0
    2.8480   -0.3070   -1.2280 H   0  0  0  0  0  0  0  0  0  0  0  0
    2.7700    2.2850   -1.5510 H   0  0  0  0  0  0  0  0  0  0  0  0
    1.5200    1.3040   -2.2720 H   0  0  0  0  0  0  0  0  0  0  0  0
    5.4430   -0.9030    0.0680 H   0  0  0  0  0  0  0  0  0  0  0  0
    6.2140   -2.6290    1.6760 H   0  0  0  0  0  0  0  0  0  0  0  0
   -0.1170    0.3080   -0.1520 N   0  0  0  0  0  0  0  0  0  0  0  0
   -1.2470   -0.3180    0.4920 C   0  0  1  0  0  0  0  0  0  0  0  0
   -2.2440    0.5950    1.0910 C   0  0  0  0  0  0  0  0  0  0  0  0
   -1.7880    1.5200    2.1580 C   0  0  0  0  0  0  0  0  0  0  0  0
   -0.7460    2.4840    1.7910 C   0  0  0  0  0  0  0  0  0  0  0  0
    0.4600    2.2520    2.0250 O   0  0  0  0  0  0  0  0  0  0  0  0
   -1.9360   -1.1530   -0.5490 C   0  0  0  0  0  0  0  0  0  0  0  0
   -1.5250   -1.2050   -1.7180 O   0  0  0  0  0  0  0  0  0  0  0  0
   -1.1020    3.6720    1.1730 O   0  0  0  0  0  0  0  0  0  0  0  0
   -0.1990    1.1080   -0.8150 H   0  0  0  0  0  0  0  0  0  0  0  0
   -0.8610   -1.0170    1.2830 H   0  0  0  0  0  0  0  0  0  0  0  0
   -3.0310   -0.0690    1.5670 H   0  0  0  0  0  0  0  0  0  0  0  0
   -2.8320    1.1340    0.2840 H   0  0  0  0  0  0  0  0  0  0  0  0
   -1.4690    0.8930    3.0360 H   0  0  0  0  0  0  0  0  0  0  0  0
   -2.6750    2.1060    2.5400 H   0  0  0  0  0  0  0  0  0  0  0  0
   -0.4520    4.4500    1.0690 H   0  0  0  0  0  0  0  0  0  0  0  0
   -3.7670   -4.1410   -0.6430 C   0  0  0  0  0  0  0  0  0  0  0  0
   -3.8110   -2.7300   -1.1200 C   0  0  2  0  0  0  0  0  0  0  0  0
   -3.0810   -1.8960   -0.1840 N   0  0  0  0  0  0  0  0  0  0  0  0
   -5.1910   -2.2510   -1.3640 C   0  0  0  0  0  0  0  0  0  0  0  0
   -5.6730   -1.2480   -0.8250 O   0  0  0  0  0  0  0  0  0  0  0  0
   -5.9820   -2.9700   -2.2490 O   0  0  0  0  0  0  0  0  0  0  0  0
   -3.7140   -4.8910   -1.4610 H   0  0  0  0  0  0  0  0  0  0  0  0
   -4.6470   -4.3560    0.0280 H   0  0  0  0  0  0  0  0  0  0  0  0
   -2.8680   -4.2700   -0.0030 H   0  0  0  0  0  0  0  0  0  0  0  0
   -3.2720   -2.6660   -2.1050 H   0  0  0  0  0  0  0  0  0  0  0  0
   -3.4560   -1.8810    0.7880 H   0  0  0  0  0  0  0  0  0  0  0  0
  1 13  1  0  0  0  0
  2  3  1  0  0  0  0
  2  1  1  0  0  0  0
  3 14  1  0  0  0  0
  4 15  1  0  0  0  0
  4  3  2  0  0  0  0
  5  4  1  0  0  0  0
  6 17  1  0  0  0  0
  6  5  1  0  0  0  0
  7 18  1  6  0  0  0
  7  9  1  0  0  0  0
  7  6  1  0  0  0  0
  8  7  1  0  0  0  0
  9 10  2  0  0  0  0
 11  5  2  0  0  0  0
 11 12  1  0  0  0  0
 12  2  2  0  0  0  0
 16  6  1  0  0  0  0
 19  8  1  0  0  0  0
 20  8  1  0  0  0  0
 21 11  1  0  0  0  0
 22 12  1  0  0  0  0
 23  9  1  0  0  0  0
 23 24  1  0  0  0  0
 24 25  1  0  0  0  0
 24 33  1  1  0  0  0
 25 34  1  0  0  0  0
 25 26  1  0  0  0  0
 26 37  1  0  0  0  0
 26 36  1  0  0  0  0
 27 28  2  0  0  0  0
 27 26  1  0  0  0  0
 29 41  1  0  0  0  0
 29 24  1  0  0  0  0
 30 29  2  0  0  0  0
 31 27  1  0  0  0  0
 32 23  1  0  0  0  0
 35 25  1  0  0  0  0
 38 31  1  0  0  0  0
 39 47  1  0  0  0  0
 39 46  1  0  0  0  0
 40 48  1  6  0  0  0
 40 39  1  0  0  0  0
 40 41  1  0  0  0  0
 41 49  1  0  0  0  0
 42 40  1  0  0  0  0
 42 43  1  0  0  0  0
 44 42  2  0  0  0  0
 45 39  1  0  0  0  0
M  END
$$$$
