YEC.pdb
 OpenBabel07022419203D

 50 50  0  0  1  0  0  0  0  0999 V2000
    1.5240   -5.2420    2.2870 O   0  0  0  0  0  0  0  0  0  0  0  0
    2.0160   -3.9780    1.9470 C   0  0  0  0  0  0  0  0  0  0  0  0
    1.9210   -3.5220    0.6410 C   0  0  0  0  0  0  0  0  0  0  0  0
    2.4060   -2.2780    0.3080 C   0  0  0  0  0  0  0  0  0  0  0  0
    2.9880   -1.4740    1.2610 C   0  0  0  0  0  0  0  0  0  0  0  0
    3.4910   -0.1560    0.8610 C   0  0  0  0  0  0  0  0  0  0  0  0
    2.5150    0.9560    0.9690 C   0  0  2  0  0  0  0  0  0  0  0  0
    2.0220    1.1530    2.3190 N   0  0  0  0  0  0  0  0  0  0  0  0
    1.3920    0.8870   -0.0130 C   0  0  0  0  0  0  0  0  0  0  0  0
    1.6490    0.7330   -1.2340 O   0  0  0  0  0  0  0  0  0  0  0  0
    3.0910   -1.9100    2.5590 C   0  0  0  0  0  0  0  0  0  0  0  0
    2.6040   -3.1530    2.8830 C   0  0  0  0  0  0  0  0  0  0  0  0
    0.9920   -5.3570    3.1430 H   0  0  0  0  0  0  0  0  0  0  0  0
    1.4550   -4.1710   -0.1110 H   0  0  0  0  0  0  0  0  0  0  0  0
    2.3160   -1.9550   -0.7130 H   0  0  0  0  0  0  0  0  0  0  0  0
    4.3560    0.0860    1.5070 H   0  0  0  0  0  0  0  0  0  0  0  0
    3.8830   -0.1750   -0.1760 H   0  0  0  0  0  0  0  0  0  0  0  0
    3.0720    1.9030    0.7200 H   0  0  0  0  0  0  0  0  0  0  0  0
    1.5090    2.0810    2.2990 H   0  0  0  0  0  0  0  0  0  0  0  0
    2.8830    1.3640    2.9070 H   0  0  0  0  0  0  0  0  0  0  0  0
    3.5560   -1.2480    3.2790 H   0  0  0  0  0  0  0  0  0  0  0  0
    2.6750   -3.5200    3.9060 H   0  0  0  0  0  0  0  0  0  0  0  0
    0.0530    0.9940    0.4150 N   0  0  0  0  0  0  0  0  0  0  0  0
   -1.1440    0.9800   -0.3330 C   0  0  1  0  0  0  0  0  0  0  0  0
   -1.0420    1.2720   -1.8110 C   0  0  0  0  0  0  0  0  0  0  0  0
   -0.5500    2.6430   -2.1360 C   0  0  0  0  0  0  0  0  0  0  0  0
   -1.5170    3.6450   -1.5630 C   0  0  0  0  0  0  0  0  0  0  0  0
   -1.2420    4.1370   -0.4480 O   0  0  0  0  0  0  0  0  0  0  0  0
   -2.0950   -0.1000   -0.0230 C   0  0  0  0  0  0  0  0  0  0  0  0
   -3.1800   -0.1520   -0.6460 O   0  0  0  0  0  0  0  0  0  0  0  0
   -2.6730    4.0410   -2.2000 O   0  0  0  0  0  0  0  0  0  0  0  0
   -0.0750    1.1030    1.4690 H   0  0  0  0  0  0  0  0  0  0  0  0
   -1.6850    1.9610    0.0090 H   0  0  0  0  0  0  0  0  0  0  0  0
   -0.5190    0.4690   -2.3660 H   0  0  0  0  0  0  0  0  0  0  0  0
   -2.1050    1.2290   -2.1890 H   0  0  0  0  0  0  0  0  0  0  0  0
    0.4700    2.8980   -1.8530 H   0  0  0  0  0  0  0  0  0  0  0  0
   -0.6750    2.7460   -3.2670 H   0  0  0  0  0  0  0  0  0  0  0  0
   -3.2260    4.8310   -1.8880 H   0  0  0  0  0  0  0  0  0  0  0  0
   -1.8130   -1.0720    0.9560 N   0  0  0  0  0  0  0  0  0  0  0  0
   -2.7050   -2.1530    1.3060 C   0  0  1  0  0  0  0  0  0  0  0  0
   -2.0730   -3.4890    0.9590 C   0  0  0  0  0  0  0  0  0  0  0  0
   -1.7670   -3.4710   -0.8490 S   0  0  0  0  0  0  0  0  0  0  0  0
   -3.0720   -2.0450    2.7350 C   0  0  0  0  0  0  0  0  0  0  0  0
   -2.6280   -1.1150    3.4620 O   0  0  0  0  0  0  0  0  0  0  0  0
   -3.9230   -2.9610    3.3490 O   0  0  0  0  0  0  0  0  0  0  0  0
   -0.8880   -0.9940    1.4570 H   0  0  0  0  0  0  0  0  0  0  0  0
   -3.6550   -2.0540    0.7140 H   0  0  0  0  0  0  0  0  0  0  0  0
   -1.1170   -3.5410    1.5200 H   0  0  0  0  0  0  0  0  0  0  0  0
   -2.7580   -4.3090    1.2210 H   0  0  0  0  0  0  0  0  0  0  0  0
   -0.7060   -4.3510   -1.1300 H   0  0  0  0  0  0  0  0  0  0  0  0
  1 13  1  0  0  0  0
  2  1  1  0  0  0  0
  2 12  1  0  0  0  0
  3  2  2  0  0  0  0
  4  3  1  0  0  0  0
  4  5  2  0  0  0  0
  5 11  1  0  0  0  0
  6  7  1  0  0  0  0
  6  5  1  0  0  0  0
  6 16  1  0  0  0  0
  7 18  1  6  0  0  0
  7  8  1  0  0  0  0
  8 20  1  0  0  0  0
  9 23  1  0  0  0  0
  9  7  1  0  0  0  0
 10  9  2  0  0  0  0
 11 12  2  0  0  0  0
 11 21  1  0  0  0  0
 12 22  1  0  0  0  0
 14  3  1  0  0  0  0
 15  4  1  0  0  0  0
 17  6  1  0  0  0  0
 19  8  1  0  0  0  0
 23 32  1  0  0  0  0
 24 29  1  0  0  0  0
 24 33  1  1  0  0  0
 24 23  1  0  0  0  0
 25 24  1  0  0  0  0
 26 36  1  0  0  0  0
 26 25  1  0  0  0  0
 26 27  1  0  0  0  0
 27 28  2  0  0  0  0
 29 39  1  0  0  0  0
 30 29  2  0  0  0  0
 31 38  1  0  0  0  0
 31 27  1  0  0  0  0
 34 25  1  0  0  0  0
 35 25  1  0  0  0  0
 37 26  1  0  0  0  0
 39 40  1  0  0  0  0
 39 46  1  0  0  0  0
 40 47  1  6  0  0  0
 40 43  1  0  0  0  0
 41 49  1  0  0  0  0
 41 40  1  0  0  0  0
 41 48  1  0  0  0  0
 42 41  1  0  0  0  0
 43 45  2  0  0  0  0
 43 44  1  0  0  0  0
 50 42  1  0  0  0  0
M  END
$$$$
