YEK.pdb
 OpenBabel07022419203D

 60 60  0  0  1  0  0  0  0  0999 V2000
    1.9760    1.0670    7.1240 O   0  0  0  0  0  0  0  0  0  0  0  0
    2.3520    0.2260    6.0930 C   0  0  0  0  0  0  0  0  0  0  0  0
    1.5770   -0.8380    5.6550 C   0  0  0  0  0  0  0  0  0  0  0  0
    1.9790   -1.6580    4.6270 C   0  0  0  0  0  0  0  0  0  0  0  0
    3.1870   -1.4160    4.0110 C   0  0  0  0  0  0  0  0  0  0  0  0
    3.6860   -2.2490    2.9020 C   0  0  0  0  0  0  0  0  0  0  0  0
    3.3140   -1.7510    1.5330 C   0  0  2  0  0  0  0  0  0  0  0  0
    3.8340   -0.4170    1.2800 N   0  0  0  0  0  0  0  0  0  0  0  0
    1.8170   -1.7510    1.4380 C   0  0  0  0  0  0  0  0  0  0  0  0
    1.2030   -2.8300    1.6060 O   0  0  0  0  0  0  0  0  0  0  0  0
    3.9850   -0.3510    4.4320 C   0  0  0  0  0  0  0  0  0  0  0  0
    3.5660    0.4540    5.4600 C   0  0  0  0  0  0  0  0  0  0  0  0
    1.8900    0.6950    8.0620 H   0  0  0  0  0  0  0  0  0  0  0  0
    0.6260   -1.0210    6.1480 H   0  0  0  0  0  0  0  0  0  0  0  0
    1.3500   -2.4960    4.2980 H   0  0  0  0  0  0  0  0  0  0  0  0
    4.8040   -2.3540    2.9970 H   0  0  0  0  0  0  0  0  0  0  0  0
    3.2480   -3.2810    2.9860 H   0  0  0  0  0  0  0  0  0  0  0  0
    3.7070   -2.4330    0.7810 H   0  0  0  0  0  0  0  0  0  0  0  0
    4.8760   -0.4210    1.3480 H   0  0  0  0  0  0  0  0  0  0  0  0
    3.4440    0.2830    1.9510 H   0  0  0  0  0  0  0  0  0  0  0  0
    4.9470   -0.1510    3.9460 H   0  0  0  0  0  0  0  0  0  0  0  0
    4.2020    1.2920    5.7880 H   0  0  0  0  0  0  0  0  0  0  0  0
    1.0830   -0.5870    1.1680 N   0  0  0  0  0  0  0  0  0  0  0  0
   -0.4150   -0.6430    1.0830 C   0  0  1  0  0  0  0  0  0  0  0  0
   -0.8760    0.2140    2.1900 C   0  0  0  0  0  0  0  0  0  0  0  0
   -2.3120    0.4550    2.4140 C   0  0  0  0  0  0  0  0  0  0  0  0
   -2.9250    1.2820    1.3740 C   0  0  0  0  0  0  0  0  0  0  0  0
   -2.3300    1.8960    0.4600 O   0  0  0  0  0  0  0  0  0  0  0  0
   -0.8230   -0.4330   -0.2860 C   0  0  0  0  0  0  0  0  0  0  0  0
    0.0370    0.0610   -1.1040 O   0  0  0  0  0  0  0  0  0  0  0  0
   -4.3290    1.3890    1.4220 O   0  0  0  0  0  0  0  0  0  0  0  0
    1.5780    0.3160    1.0270 H   0  0  0  0  0  0  0  0  0  0  0  0
   -0.6950   -1.7270    1.3550 H   0  0  0  0  0  0  0  0  0  0  0  0
   -0.3820    1.2380    2.1620 H   0  0  0  0  0  0  0  0  0  0  0  0
   -0.4770   -0.2500    3.1520 H   0  0  0  0  0  0  0  0  0  0  0  0
   -2.8880   -0.4960    2.5790 H   0  0  0  0  0  0  0  0  0  0  0  0
   -2.3930    1.0480    3.3780 H   0  0  0  0  0  0  0  0  0  0  0  0
   -4.7920    2.0570    0.7850 H   0  0  0  0  0  0  0  0  0  0  0  0
   -2.0950   -0.7290   -0.8470 N   0  0  0  0  0  0  0  0  0  0  0  0
   -2.3380   -0.4780   -2.2900 C   0  0  1  0  0  0  0  0  0  0  0  0
   -2.4550   -1.8710   -2.8740 C   0  0  0  0  0  0  0  0  0  0  0  0
   -2.6970   -1.9490   -4.3270 C   0  0  0  0  0  0  0  0  0  0  0  0
   -1.6280   -1.3070   -5.1680 C   0  0  0  0  0  0  0  0  0  0  0  0
   -0.2720   -1.9340   -4.9490 C   0  0  0  0  0  0  0  0  0  0  0  0
   -0.2360   -3.3260   -5.2610 N   0  0  0  0  0  0  0  0  0  0  0  0
   -3.6010    0.2370   -2.5230 C   0  0  0  0  0  0  0  0  0  0  0  0
   -3.9300    0.5900   -3.6700 O   0  0  0  0  0  0  0  0  0  0  0  0
   -4.4700    0.5450   -1.4950 O   0  0  0  0  0  0  0  0  0  0  0  0
   -2.8230   -1.1200   -0.2200 H   0  0  0  0  0  0  0  0  0  0  0  0
   -1.4490    0.0020   -2.7220 H   0  0  0  0  0  0  0  0  0  0  0  0
   -3.3530   -2.3240   -2.3600 H   0  0  0  0  0  0  0  0  0  0  0  0
   -1.5910   -2.4410   -2.5070 H   0  0  0  0  0  0  0  0  0  0  0  0
   -3.6600   -1.4930   -4.5840 H   0  0  0  0  0  0  0  0  0  0  0  0
   -2.8110   -3.0320   -4.5870 H   0  0  0  0  0  0  0  0  0  0  0  0
   -1.6340   -0.2270   -5.0320 H   0  0  0  0  0  0  0  0  0  0  0  0
   -1.8940   -1.5200   -6.2430 H   0  0  0  0  0  0  0  0  0  0  0  0
   -0.0050   -1.7760   -3.8670 H   0  0  0  0  0  0  0  0  0  0  0  0
    0.5000   -1.4010   -5.5380 H   0  0  0  0  0  0  0  0  0  0  0  0
   -0.2710   -3.9650   -4.4560 H   0  0  0  0  0  0  0  0  0  0  0  0
    0.4210   -3.5920   -6.0170 H   0  0  0  0  0  0  0  0  0  0  0  0
  1 13  1  0  0  0  0
  2  1  1  0  0  0  0
  3  2  1  0  0  0  0
  3 14  1  0  0  0  0
  4  3  2  0  0  0  0
  5 11  2  0  0  0  0
  5  4  1  0  0  0  0
  6 17  1  0  0  0  0
  6 16  1  0  0  0  0
  6  5  1  0  0  0  0
  7 18  1  6  0  0  0
  7  6  1  0  0  0  0
  8 19  1  0  0  0  0
  8  7  1  0  0  0  0
  8 20  1  0  0  0  0
  9  7  1  0  0  0  0
  9 10  2  0  0  0  0
 11 12  1  0  0  0  0
 12 22  1  0  0  0  0
 12  2  2  0  0  0  0
 15  4  1  0  0  0  0
 21 11  1  0  0  0  0
 23  9  1  0  0  0  0
 24 23  1  0  0  0  0
 24 33  1  1  0  0  0
 24 25  1  0  0  0  0
 25 26  1  0  0  0  0
 25 35  1  0  0  0  0
 26 36  1  0  0  0  0
 26 37  1  0  0  0  0
 27 31  1  0  0  0  0
 27 26  1  0  0  0  0
 28 27  2  0  0  0  0
 29 24  1  0  0  0  0
 30 29  2  0  0  0  0
 32 23  1  0  0  0  0
 34 25  1  0  0  0  0
 38 31  1  0  0  0  0
 39 29  1  0  0  0  0
 39 49  1  0  0  0  0
 40 50  1  6  0  0  0
 40 39  1  0  0  0  0
 41 52  1  0  0  0  0
 41 51  1  0  0  0  0
 41 40  1  0  0  0  0
 42 41  1  0  0  0  0
 43 55  1  0  0  0  0
 43 44  1  0  0  0  0
 43 42  1  0  0  0  0
 44 57  1  0  0  0  0
 45 44  1  0  0  0  0
 45 59  1  0  0  0  0
 46 40  1  0  0  0  0
 46 48  1  0  0  0  0
 47 46  2  0  0  0  0
 53 42  1  0  0  0  0
 54 42  1  0  0  0  0
 56 43  1  0  0  0  0
 58 44  1  0  0  0  0
 60 45  1  0  0  0  0
M  END
$$$$
