YEM.pdb
 OpenBabel07022419203D

 56 56  0  0  1  0  0  0  0  0999 V2000
    1.1850    3.8350    4.6510 O   0  0  0  0  0  0  0  0  0  0  0  0
    1.7470    2.6850    4.1170 C   0  0  0  0  0  0  0  0  0  0  0  0
    1.2710    1.4620    4.4770 C   0  0  0  0  0  0  0  0  0  0  0  0
    1.8280    0.3200    3.9470 C   0  0  0  0  0  0  0  0  0  0  0  0
    2.8650    0.3620    3.0520 C   0  0  0  0  0  0  0  0  0  0  0  0
    3.4810   -0.8540    2.4680 C   0  0  0  0  0  0  0  0  0  0  0  0
    2.7870   -1.2560    1.1750 C   0  0  2  0  0  0  0  0  0  0  0  0
    2.9120   -0.1700    0.2540 N   0  0  0  0  0  0  0  0  0  0  0  0
    1.3830   -1.5790    1.4860 C   0  0  0  0  0  0  0  0  0  0  0  0
    1.1180   -2.5180    2.2950 O   0  0  0  0  0  0  0  0  0  0  0  0
    3.3470    1.6200    2.6880 C   0  0  0  0  0  0  0  0  0  0  0  0
    2.7900    2.7620    3.2180 C   0  0  0  0  0  0  0  0  0  0  0  0
    1.1880    4.0030    5.6540 H   0  0  0  0  0  0  0  0  0  0  0  0
    0.4440    1.4010    5.1880 H   0  0  0  0  0  0  0  0  0  0  0  0
    1.4150   -0.6370    4.2650 H   0  0  0  0  0  0  0  0  0  0  0  0
    4.5540   -0.6020    2.2860 H   0  0  0  0  0  0  0  0  0  0  0  0
    3.4870   -1.6850    3.2050 H   0  0  0  0  0  0  0  0  0  0  0  0
    3.3230   -2.1280    0.7260 H   0  0  0  0  0  0  0  0  0  0  0  0
    3.9200   -0.0220    0.0480 H   0  0  0  0  0  0  0  0  0  0  0  0
    2.3060   -0.2140   -0.5790 H   0  0  0  0  0  0  0  0  0  0  0  0
    4.1650    1.6660    1.9830 H   0  0  0  0  0  0  0  0  0  0  0  0
    3.1640    3.7310    2.9360 H   0  0  0  0  0  0  0  0  0  0  0  0
    0.2720   -0.8940    0.9290 N   0  0  0  0  0  0  0  0  0  0  0  0
   -1.1150   -1.2570    1.2770 C   0  0  1  0  0  0  0  0  0  0  0  0
   -1.7270   -0.0290    1.8950 C   0  0  0  0  0  0  0  0  0  0  0  0
   -3.1400   -0.1860    2.3510 C   0  0  0  0  0  0  0  0  0  0  0  0
   -3.2020   -1.2250    3.3970 C   0  0  0  0  0  0  0  0  0  0  0  0
   -3.2090   -2.4340    3.0960 O   0  0  0  0  0  0  0  0  0  0  0  0
   -1.8300   -1.6950    0.0390 C   0  0  0  0  0  0  0  0  0  0  0  0
   -3.0390   -2.0210    0.0810 O   0  0  0  0  0  0  0  0  0  0  0  0
   -3.2510   -0.8620    4.7260 O   0  0  0  0  0  0  0  0  0  0  0  0
    0.4520   -0.1170    0.2590 H   0  0  0  0  0  0  0  0  0  0  0  0
   -1.1550   -2.0740    2.0060 H   0  0  0  0  0  0  0  0  0  0  0  0
   -1.0560    0.3450    2.6990 H   0  0  0  0  0  0  0  0  0  0  0  0
   -1.6860    0.7850    1.1100 H   0  0  0  0  0  0  0  0  0  0  0  0
   -3.8460   -0.3760    1.5180 H   0  0  0  0  0  0  0  0  0  0  0  0
   -3.4720    0.7780    2.8120 H   0  0  0  0  0  0  0  0  0  0  0  0
   -3.3720   -1.5550    5.4650 H   0  0  0  0  0  0  0  0  0  0  0  0
   -0.3770   -2.3450   -6.4500 C   0  0  0  0  0  0  0  0  0  0  0  0
   -1.9980   -2.6480   -5.7510 S   0  0  0  0  0  0  0  0  0  0  0  0
   -2.5880   -1.3560   -4.6860 C   0  0  0  0  0  0  0  0  0  0  0  0
   -1.8850   -1.1080   -3.4160 C   0  0  0  0  0  0  0  0  0  0  0  0
   -1.9230   -2.1980   -2.4240 C   0  0  2  0  0  0  0  0  0  0  0  0
   -1.1670   -1.7550   -1.2070 N   0  0  0  0  0  0  0  0  0  0  0  0
   -1.4150   -3.4990   -2.8490 C   0  0  0  0  0  0  0  0  0  0  0  0
   -1.8990   -4.2640   -3.7100 O   0  0  0  0  0  0  0  0  0  0  0  0
   -0.2310   -3.9710   -2.2240 O   0  0  0  0  0  0  0  0  0  0  0  0
   -0.4000   -2.1500   -7.5540 H   0  0  0  0  0  0  0  0  0  0  0  0
    0.1920   -1.5700   -5.9090 H   0  0  0  0  0  0  0  0  0  0  0  0
    0.2250   -3.2930   -6.3500 H   0  0  0  0  0  0  0  0  0  0  0  0
   -3.6880   -1.5870   -4.4800 H   0  0  0  0  0  0  0  0  0  0  0  0
   -2.6770   -0.4050   -5.3130 H   0  0  0  0  0  0  0  0  0  0  0  0
   -2.4130   -0.2100   -2.9400 H   0  0  0  0  0  0  0  0  0  0  0  0
   -0.8470   -0.6980   -3.5730 H   0  0  0  0  0  0  0  0  0  0  0  0
   -2.9620   -2.3580   -2.0660 H   0  0  0  0  0  0  0  0  0  0  0  0
   -0.1760   -1.5040   -1.3150 H   0  0  0  0  0  0  0  0  0  0  0  0
  1 13  1  0  0  0  0
  2  3  1  0  0  0  0
  2  1  1  0  0  0  0
  3 14  1  0  0  0  0
  4 15  1  0  0  0  0
  4  3  2  0  0  0  0
  5  4  1  0  0  0  0
  6  5  1  0  0  0  0
  6 17  1  0  0  0  0
  7 18  1  6  0  0  0
  7  9  1  0  0  0  0
  7  6  1  0  0  0  0
  8  7  1  0  0  0  0
  9 10  2  0  0  0  0
 11  5  2  0  0  0  0
 11 12  1  0  0  0  0
 12  2  2  0  0  0  0
 16  6  1  0  0  0  0
 19  8  1  0  0  0  0
 20  8  1  0  0  0  0
 21 11  1  0  0  0  0
 22 12  1  0  0  0  0
 23 24  1  0  0  0  0
 23  9  1  0  0  0  0
 24 25  1  0  0  0  0
 24 33  1  1  0  0  0
 25 26  1  0  0  0  0
 25 34  1  0  0  0  0
 26 37  1  0  0  0  0
 26 27  1  0  0  0  0
 27 31  1  0  0  0  0
 28 27  2  0  0  0  0
 29 30  2  0  0  0  0
 29 24  1  0  0  0  0
 31 38  1  0  0  0  0
 32 23  1  0  0  0  0
 35 25  1  0  0  0  0
 36 26  1  0  0  0  0
 39 50  1  0  0  0  0
 39 49  1  0  0  0  0
 39 40  1  0  0  0  0
 40 41  1  0  0  0  0
 41 51  1  0  0  0  0
 41 42  1  0  0  0  0
 42 53  1  0  0  0  0
 42 43  1  0  0  0  0
 43 55  1  1  0  0  0
 43 44  1  0  0  0  0
 44 29  1  0  0  0  0
 45 43  1  0  0  0  0
 45 47  1  0  0  0  0
 46 45  2  0  0  0  0
 48 39  1  0  0  0  0
 52 41  1  0  0  0  0
 54 42  1  0  0  0  0
 56 44  1  0  0  0  0
M  END
$$$$
