YEP.pdb
 OpenBabel07022419203D

 53 54  0  0  1  0  0  0  0  0999 V2000
    0.7320   -4.7830    2.6410 O   0  0  0  0  0  0  0  0  0  0  0  0
    1.4520   -3.6590    2.2130 C   0  0  0  0  0  0  0  0  0  0  0  0
    2.4280   -3.7490    1.2510 C   0  0  0  0  0  0  0  0  0  0  0  0
    3.1380   -2.6460    0.8300 C   0  0  0  0  0  0  0  0  0  0  0  0
    2.8470   -1.4240    1.4010 C   0  0  0  0  0  0  0  0  0  0  0  0
    3.6080   -0.2520    1.0260 C   0  0  0  0  0  0  0  0  0  0  0  0
    3.1180    0.5130   -0.1940 C   0  0  2  0  0  0  0  0  0  0  0  0
    4.0680    1.6420   -0.3280 N   0  0  0  0  0  0  0  0  0  0  0  0
    1.7690    1.0320    0.1200 C   0  0  0  0  0  0  0  0  0  0  0  0
    1.6500    1.9980    0.9150 O   0  0  0  0  0  0  0  0  0  0  0  0
    1.8560   -1.3420    2.3740 C   0  0  0  0  0  0  0  0  0  0  0  0
    1.1480   -2.4450    2.7940 C   0  0  0  0  0  0  0  0  0  0  0  0
    0.8720   -5.1860    3.5580 H   0  0  0  0  0  0  0  0  0  0  0  0
    2.6050   -4.7480    0.8420 H   0  0  0  0  0  0  0  0  0  0  0  0
    3.8930   -2.7800    0.0700 H   0  0  0  0  0  0  0  0  0  0  0  0
    3.5930    0.4490    1.9180 H   0  0  0  0  0  0  0  0  0  0  0  0
    4.7180   -0.4640    0.9220 H   0  0  0  0  0  0  0  0  0  0  0  0
    3.1720   -0.0910   -1.1140 H   0  0  0  0  0  0  0  0  0  0  0  0
    3.9910    1.9940   -1.3080 H   0  0  0  0  0  0  0  0  0  0  0  0
    5.0370    1.2730   -0.2160 H   0  0  0  0  0  0  0  0  0  0  0  0
    1.6250   -0.3880    2.8210 H   0  0  0  0  0  0  0  0  0  0  0  0
    0.3970   -2.3190    3.5490 H   0  0  0  0  0  0  0  0  0  0  0  0
    0.5570    0.5020   -0.4380 N   0  0  0  0  0  0  0  0  0  0  0  0
   -0.7320    1.0320   -0.1120 C   0  0  1  0  0  0  0  0  0  0  0  0
   -1.0790    1.9540   -1.2910 C   0  0  0  0  0  0  0  0  0  0  0  0
   -2.3900    2.6100   -1.1710 C   0  0  0  0  0  0  0  0  0  0  0  0
   -2.5890    3.4880   -0.0200 C   0  0  0  0  0  0  0  0  0  0  0  0
   -1.6960    3.7430    0.7970 O   0  0  0  0  0  0  0  0  0  0  0  0
   -1.8070    0.0950    0.1780 C   0  0  0  0  0  0  0  0  0  0  0  0
   -2.9060    0.6330    0.6120 O   0  0  0  0  0  0  0  0  0  0  0  0
   -3.8430    4.0880    0.2000 O   0  0  0  0  0  0  0  0  0  0  0  0
    0.6990   -0.2700   -1.1080 H   0  0  0  0  0  0  0  0  0  0  0  0
   -0.6680    1.7520    0.7600 H   0  0  0  0  0  0  0  0  0  0  0  0
   -1.0370    1.3810   -2.2330 H   0  0  0  0  0  0  0  0  0  0  0  0
   -0.2460    2.7130   -1.3650 H   0  0  0  0  0  0  0  0  0  0  0  0
   -2.5250    3.2470   -2.1220 H   0  0  0  0  0  0  0  0  0  0  0  0
   -3.2010    1.8330   -1.2760 H   0  0  0  0  0  0  0  0  0  0  0  0
   -3.9020    4.9730    0.6570 H   0  0  0  0  0  0  0  0  0  0  0  0
   -1.8580   -1.3010    0.0650 N   0  0  0  0  0  0  0  0  0  0  0  0
   -0.8270   -2.1880   -0.3690 C   0  0  0  0  0  0  0  0  0  0  0  0
   -1.3630   -3.6150   -0.1840 C   0  0  0  0  0  0  0  0  0  0  0  0
   -2.8460   -3.3990   -0.3750 C   0  0  0  0  0  0  0  0  0  0  0  0
   -3.0500   -2.0990    0.3750 C   0  0  1  0  0  0  0  0  0  0  0  0
   -3.1490   -2.4040    1.8020 C   0  0  0  0  0  0  0  0  0  0  0  0
   -4.0920   -3.0760    2.2870 O   0  0  0  0  0  0  0  0  0  0  0  0
   -2.1730   -1.9400    2.6680 O   0  0  0  0  0  0  0  0  0  0  0  0
    0.1410   -2.0890    0.1560 H   0  0  0  0  0  0  0  0  0  0  0  0
   -0.7360   -2.0860   -1.4880 H   0  0  0  0  0  0  0  0  0  0  0  0
   -1.1440   -3.8610    0.8760 H   0  0  0  0  0  0  0  0  0  0  0  0
   -0.9110   -4.3210   -0.8770 H   0  0  0  0  0  0  0  0  0  0  0  0
   -3.1170   -3.3310   -1.4290 H   0  0  0  0  0  0  0  0  0  0  0  0
   -3.3670   -4.2150    0.1450 H   0  0  0  0  0  0  0  0  0  0  0  0
   -3.9730   -1.6410    0.0240 H   0  0  0  0  0  0  0  0  0  0  0  0
  1 13  1  0  0  0  0
  2  1  1  0  0  0  0
  2 12  1  0  0  0  0
  3  2  2  0  0  0  0
  4  3  1  0  0  0  0
  4  5  2  0  0  0  0
  5 11  1  0  0  0  0
  6  5  1  0  0  0  0
  6 16  1  0  0  0  0
  7 18  1  6  0  0  0
  7  9  1  0  0  0  0
  7  6  1  0  0  0  0
  8 20  1  0  0  0  0
  8  7  1  0  0  0  0
  9 10  2  0  0  0  0
 11 12  2  0  0  0  0
 11 21  1  0  0  0  0
 12 22  1  0  0  0  0
 14  3  1  0  0  0  0
 15  4  1  0  0  0  0
 17  6  1  0  0  0  0
 19  8  1  0  0  0  0
 23 24  1  0  0  0  0
 23  9  1  0  0  0  0
 24 29  1  0  0  0  0
 24 33  1  1  0  0  0
 25 26  1  0  0  0  0
 25 24  1  0  0  0  0
 26 27  1  0  0  0  0
 27 31  1  0  0  0  0
 27 28  2  0  0  0  0
 29 30  2  0  0  0  0
 31 38  1  0  0  0  0
 32 23  1  0  0  0  0
 34 25  1  0  0  0  0
 35 25  1  0  0  0  0
 36 26  1  0  0  0  0
 37 26  1  0  0  0  0
 39 29  1  0  0  0  0
 39 43  1  0  0  0  0
 40 41  1  0  0  0  0
 40 39  1  0  0  0  0
 40 47  1  0  0  0  0
 41 49  1  0  0  0  0
 42 41  1  0  0  0  0
 42 52  1  0  0  0  0
 42 43  1  0  0  0  0
 43 53  1  6  0  0  0
 43 44  1  0  0  0  0
 44 45  2  0  0  0  0
 44 46  1  0  0  0  0
 48 40  1  0  0  0  0
 50 41  1  0  0  0  0
 51 42  1  0  0  0  0
M  END
$$$$
