YEQ.pdb
 OpenBabel07022419203D

 56 56  0  0  1  0  0  0  0  0999 V2000
    0.5430    2.9090    5.4720 O   0  0  0  0  0  0  0  0  0  0  0  0
    1.4170    2.0720    4.7650 C   0  0  0  0  0  0  0  0  0  0  0  0
    1.1170    0.7390    4.5870 C   0  0  0  0  0  0  0  0  0  0  0  0
    2.0170   -0.0320    3.8810 C   0  0  0  0  0  0  0  0  0  0  0  0
    3.1890    0.4610    3.3520 C   0  0  0  0  0  0  0  0  0  0  0  0
    4.1550   -0.3920    2.5870 C   0  0  0  0  0  0  0  0  0  0  0  0
    3.8490   -0.3830    1.1040 C   0  0  2  0  0  0  0  0  0  0  0  0
    3.9490    0.9950    0.6710 N   0  0  0  0  0  0  0  0  0  0  0  0
    2.4730   -0.9240    0.9350 C   0  0  0  0  0  0  0  0  0  0  0  0
    2.2760   -2.1290    1.2650 O   0  0  0  0  0  0  0  0  0  0  0  0
    3.4740    1.8000    3.5400 C   0  0  0  0  0  0  0  0  0  0  0  0
    2.5910    2.5790    4.2370 C   0  0  0  0  0  0  0  0  0  0  0  0
    0.2330    2.6070    6.3980 H   0  0  0  0  0  0  0  0  0  0  0  0
    0.2060    0.3430    4.9950 H   0  0  0  0  0  0  0  0  0  0  0  0
    1.7710   -1.0880    3.7470 H   0  0  0  0  0  0  0  0  0  0  0  0
    4.0780   -1.4130    2.9840 H   0  0  0  0  0  0  0  0  0  0  0  0
    5.1820   -0.0180    2.7910 H   0  0  0  0  0  0  0  0  0  0  0  0
    4.5940   -1.0090    0.5720 H   0  0  0  0  0  0  0  0  0  0  0  0
    3.1790    1.5560    1.0790 H   0  0  0  0  0  0  0  0  0  0  0  0
    4.0000    1.0810   -0.3670 H   0  0  0  0  0  0  0  0  0  0  0  0
    4.4030    2.2230    3.1280 H   0  0  0  0  0  0  0  0  0  0  0  0
    2.8100    3.6400    4.3900 H   0  0  0  0  0  0  0  0  0  0  0  0
    1.3920   -0.1990    0.4390 N   0  0  0  0  0  0  0  0  0  0  0  0
    0.0500   -0.8120    0.3000 C   0  0  1  0  0  0  0  0  0  0  0  0
   -0.8430   -0.0680    1.2690 C   0  0  0  0  0  0  0  0  0  0  0  0
   -2.2620   -0.5390    1.2650 C   0  0  0  0  0  0  0  0  0  0  0  0
   -3.0350    0.2200    2.2930 C   0  0  0  0  0  0  0  0  0  0  0  0
   -2.4450    1.0820    2.9690 O   0  0  0  0  0  0  0  0  0  0  0  0
   -0.4330   -0.6570   -1.0770 C   0  0  0  0  0  0  0  0  0  0  0  0
    0.1460    0.1950   -1.8430 O   0  0  0  0  0  0  0  0  0  0  0  0
   -4.3610   -0.0490    2.4640 O   0  0  0  0  0  0  0  0  0  0  0  0
    1.5020    0.7880    0.1570 H   0  0  0  0  0  0  0  0  0  0  0  0
    0.1040   -1.8650    0.6470 H   0  0  0  0  0  0  0  0  0  0  0  0
   -0.8610    1.0260    1.0500 H   0  0  0  0  0  0  0  0  0  0  0  0
   -0.4380   -0.1690    2.3170 H   0  0  0  0  0  0  0  0  0  0  0  0
   -2.2900   -1.6090    1.5180 H   0  0  0  0  0  0  0  0  0  0  0  0
   -2.7450   -0.4100    0.2680 H   0  0  0  0  0  0  0  0  0  0  0  0
   -4.9580    0.4360    3.1440 H   0  0  0  0  0  0  0  0  0  0  0  0
   -2.4150   -6.1660   -3.9010 N   0  0  0  0  0  0  0  0  0  0  0  0
   -1.9450   -4.8600   -4.1310 C   0  0  0  0  0  0  0  0  0  0  0  0
   -1.1800   -4.6820   -5.1390 O   0  0  0  0  0  0  0  0  0  0  0  0
   -2.2910   -3.6980   -3.2750 C   0  0  0  0  0  0  0  0  0  0  0  0
   -1.6260   -2.4480   -3.7950 C   0  0  0  0  0  0  0  0  0  0  0  0
   -1.9480   -1.2340   -2.9530 C   0  0  2  0  0  0  0  0  0  0  0  0
   -1.5060   -1.4180   -1.5850 N   0  0  0  0  0  0  0  0  0  0  0  0
   -3.3900   -0.9360   -3.0140 C   0  0  0  0  0  0  0  0  0  0  0  0
   -4.1150   -0.8760   -2.0020 O   0  0  0  0  0  0  0  0  0  0  0  0
   -4.0330   -0.7000   -4.2320 O   0  0  0  0  0  0  0  0  0  0  0  0
   -3.4020   -6.4010   -4.0820 H   0  0  0  0  0  0  0  0  0  0  0  0
   -1.7630   -6.8870   -3.5490 H   0  0  0  0  0  0  0  0  0  0  0  0
   -2.1450   -3.8630   -2.2110 H   0  0  0  0  0  0  0  0  0  0  0  0
   -3.4000   -3.5380   -3.4180 H   0  0  0  0  0  0  0  0  0  0  0  0
   -1.9510   -2.2290   -4.8310 H   0  0  0  0  0  0  0  0  0  0  0  0
   -0.5340   -2.6310   -3.8290 H   0  0  0  0  0  0  0  0  0  0  0  0
   -1.3730   -0.3870   -3.3790 H   0  0  0  0  0  0  0  0  0  0  0  0
   -1.9540   -2.1190   -0.9810 H   0  0  0  0  0  0  0  0  0  0  0  0
  1 13  1  0  0  0  0
  2  1  1  0  0  0  0
  3  2  1  0  0  0  0
  3 14  1  0  0  0  0
  4  3  2  0  0  0  0
  5 11  2  0  0  0  0
  5  4  1  0  0  0  0
  6 17  1  0  0  0  0
  6 16  1  0  0  0  0
  6  5  1  0  0  0  0
  7 18  1  6  0  0  0
  7  6  1  0  0  0  0
  8 19  1  0  0  0  0
  8  7  1  0  0  0  0
  9  7  1  0  0  0  0
  9 10  2  0  0  0  0
 11 12  1  0  0  0  0
 12 22  1  0  0  0  0
 12  2  2  0  0  0  0
 15  4  1  0  0  0  0
 20  8  1  0  0  0  0
 21 11  1  0  0  0  0
 23  9  1  0  0  0  0
 24 23  1  0  0  0  0
 24 33  1  1  0  0  0
 24 25  1  0  0  0  0
 25 35  1  0  0  0  0
 26 25  1  0  0  0  0
 26 36  1  0  0  0  0
 26 27  1  0  0  0  0
 27 31  1  0  0  0  0
 27 28  2  0  0  0  0
 29 24  1  0  0  0  0
 30 29  2  0  0  0  0
 31 38  1  0  0  0  0
 32 23  1  0  0  0  0
 34 25  1  0  0  0  0
 37 26  1  0  0  0  0
 39 50  1  0  0  0  0
 40 39  1  0  0  0  0
 40 42  1  0  0  0  0
 41 40  2  0  0  0  0
 42 51  1  0  0  0  0
 43 42  1  0  0  0  0
 43 44  1  0  0  0  0
 44 55  1  6  0  0  0
 44 45  1  0  0  0  0
 45 29  1  0  0  0  0
 45 56  1  0  0  0  0
 46 44  1  0  0  0  0
 46 47  1  0  0  0  0
 48 46  2  0  0  0  0
 49 39  1  0  0  0  0
 52 42  1  0  0  0  0
 53 43  1  0  0  0  0
 54 43  1  0  0  0  0
M  END
$$$$
