YET.pdb
 OpenBabel07022419203D

 53 53  0  0  1  0  0  0  0  0999 V2000
   -4.3260    1.9040    4.1390 O   0  0  0  0  0  0  0  0  0  0  0  0
   -3.0320    1.5440    3.8660 C   0  0  0  0  0  0  0  0  0  0  0  0
   -2.5290    0.3220    4.2910 C   0  0  0  0  0  0  0  0  0  0  0  0
   -1.2460   -0.0850    4.0450 C   0  0  0  0  0  0  0  0  0  0  0  0
   -0.3960    0.7720    3.3290 C   0  0  0  0  0  0  0  0  0  0  0  0
    0.9870    0.3460    3.1180 C   0  0  0  0  0  0  0  0  0  0  0  0
    1.2820   -0.6140    2.0590 C   0  0  2  0  0  0  0  0  0  0  0  0
    2.7620   -0.8920    2.0700 N   0  0  0  0  0  0  0  0  0  0  0  0
    0.8990   -0.4780    0.6920 C   0  0  0  0  0  0  0  0  0  0  0  0
    1.7920   -0.6760   -0.2440 O   0  0  0  0  0  0  0  0  0  0  0  0
   -0.8760    1.9840    2.9020 C   0  0  0  0  0  0  0  0  0  0  0  0
   -2.1630    2.3550    3.1670 C   0  0  0  0  0  0  0  0  0  0  0  0
   -4.7000    2.0990    5.0470 H   0  0  0  0  0  0  0  0  0  0  0  0
   -3.1950   -0.3490    4.8510 H   0  0  0  0  0  0  0  0  0  0  0  0
   -0.8530   -1.0390    4.3750 H   0  0  0  0  0  0  0  0  0  0  0  0
    1.6380    1.2510    2.9610 H   0  0  0  0  0  0  0  0  0  0  0  0
    1.3150   -0.1350    4.1000 H   0  0  0  0  0  0  0  0  0  0  0  0
    0.9050   -1.6700    2.3770 H   0  0  0  0  0  0  0  0  0  0  0  0
    2.8810   -1.7540    1.4810 H   0  0  0  0  0  0  0  0  0  0  0  0
    3.0000   -1.1540    3.0520 H   0  0  0  0  0  0  0  0  0  0  0  0
   -0.2040    2.6250    2.3690 H   0  0  0  0  0  0  0  0  0  0  0  0
   -2.5520    3.3210    2.8290 H   0  0  0  0  0  0  0  0  0  0  0  0
   -0.3800   -0.1510    0.1040 N   0  0  0  0  0  0  0  0  0  0  0  0
   -0.5490   -0.1340   -1.3100 C   0  0  1  0  0  0  0  0  0  0  0  0
    0.0050    0.9230   -2.1420 C   0  0  0  0  0  0  0  0  0  0  0  0
   -0.5000    2.3140   -1.9630 C   0  0  0  0  0  0  0  0  0  0  0  0
   -0.3810    2.9200   -0.6390 C   0  0  0  0  0  0  0  0  0  0  0  0
   -1.4210    3.1890    0.0520 O   0  0  0  0  0  0  0  0  0  0  0  0
   -0.3500   -1.5170   -1.9080 C   0  0  0  0  0  0  0  0  0  0  0  0
   -0.3740   -1.6770   -3.1540 O   0  0  0  0  0  0  0  0  0  0  0  0
    0.8430    3.2230   -0.0930 O   0  0  0  0  0  0  0  0  0  0  0  0
   -1.1240    0.0570    0.7980 H   0  0  0  0  0  0  0  0  0  0  0  0
   -1.7020   -0.0460   -1.4370 H   0  0  0  0  0  0  0  0  0  0  0  0
    1.1460    0.9430   -2.0770 H   0  0  0  0  0  0  0  0  0  0  0  0
   -0.1650    0.6920   -3.2530 H   0  0  0  0  0  0  0  0  0  0  0  0
   -0.0210    3.0120   -2.7350 H   0  0  0  0  0  0  0  0  0  0  0  0
   -1.5970    2.3830   -2.2720 H   0  0  0  0  0  0  0  0  0  0  0  0
    0.9890    3.9150    0.6290 H   0  0  0  0  0  0  0  0  0  0  0  0
    2.5150   -3.6040   -2.0110 C   0  0  0  0  0  0  0  0  0  0  0  0
    1.4590   -4.4490   -1.3660 C   0  0  1  0  0  0  0  0  0  0  0  0
    1.7130   -4.5040    0.0110 O   0  0  0  0  0  0  0  0  0  0  0  0
    0.0580   -3.9860   -1.6720 C   0  0  2  0  0  0  0  0  0  0  0  0
   -0.1340   -2.6690   -1.1210 N   0  0  0  0  0  0  0  0  0  0  0  0
   -0.8940   -4.9870   -1.1830 C   0  0  0  0  0  0  0  0  0  0  0  0
   -0.7720   -6.1600   -1.6230 O   0  0  0  0  0  0  0  0  0  0  0  0
   -1.9070   -4.7380   -0.2840 O   0  0  0  0  0  0  0  0  0  0  0  0
    2.1410   -2.5640   -2.2020 H   0  0  0  0  0  0  0  0  0  0  0  0
    3.3810   -3.5150   -1.3390 H   0  0  0  0  0  0  0  0  0  0  0  0
    2.7910   -4.0590   -2.9960 H   0  0  0  0  0  0  0  0  0  0  0  0
    1.6300   -5.4970   -1.7230 H   0  0  0  0  0  0  0  0  0  0  0  0
    0.8980   -4.5700    0.5510 H   0  0  0  0  0  0  0  0  0  0  0  0
   -0.0100   -3.9770   -2.7930 H   0  0  0  0  0  0  0  0  0  0  0  0
   -0.1220   -2.5660   -0.0870 H   0  0  0  0  0  0  0  0  0  0  0  0
  1 13  1  0  0  0  0
  2  1  1  0  0  0  0
  2  3  1  0  0  0  0
  3 14  1  0  0  0  0
  4  3  2  0  0  0  0
  4 15  1  0  0  0  0
  5  4  1  0  0  0  0
  6  5  1  0  0  0  0
  6 17  1  0  0  0  0
  7  8  1  0  0  0  0
  7 18  1  1  0  0  0
  7  6  1  0  0  0  0
  8 20  1  0  0  0  0
  9  7  1  0  0  0  0
 10  9  2  0  0  0  0
 11 12  1  0  0  0  0
 11  5  2  0  0  0  0
 12  2  2  0  0  0  0
 16  6  1  0  0  0  0
 19  8  1  0  0  0  0
 21 11  1  0  0  0  0
 22 12  1  0  0  0  0
 23  9  1  0  0  0  0
 23 32  1  0  0  0  0
 24 33  1  6  0  0  0
 24 23  1  0  0  0  0
 25 34  1  0  0  0  0
 25 26  1  0  0  0  0
 25 24  1  0  0  0  0
 26 27  1  0  0  0  0
 27 31  1  0  0  0  0
 27 28  2  0  0  0  0
 29 24  1  0  0  0  0
 29 43  1  0  0  0  0
 30 29  2  0  0  0  0
 31 38  1  0  0  0  0
 35 25  1  0  0  0  0
 36 26  1  0  0  0  0
 37 26  1  0  0  0  0
 39 40  1  0  0  0  0
 39 48  1  0  0  0  0
 40 50  1  6  0  0  0
 40 41  1  0  0  0  0
 41 51  1  0  0  0  0
 42 52  1  6  0  0  0
 42 40  1  0  0  0  0
 42 44  1  0  0  0  0
 42 43  1  0  0  0  0
 43 53  1  0  0  0  0
 44 46  1  0  0  0  0
 45 44  2  0  0  0  0
 47 39  1  0  0  0  0
 49 39  1  0  0  0  0
M  END
$$$$
