YEV.pdb
 OpenBabel07022419203D

 55 55  0  0  1  0  0  0  0  0999 V2000
    1.5390    1.1890    7.5530 O   0  0  0  0  0  0  0  0  0  0  0  0
    2.0710    1.1000    6.2490 C   0  0  0  0  0  0  0  0  0  0  0  0
    3.1730    0.3230    5.9930 C   0  0  0  0  0  0  0  0  0  0  0  0
    3.6760    0.2490    4.7150 C   0  0  0  0  0  0  0  0  0  0  0  0
    3.1200    0.9350    3.6320 C   0  0  0  0  0  0  0  0  0  0  0  0
    3.7280    0.8220    2.2920 C   0  0  0  0  0  0  0  0  0  0  0  0
    3.1890   -0.3640    1.5810 C   0  0  2  0  0  0  0  0  0  0  0  0
    3.7650   -0.5140    0.2460 N   0  0  0  0  0  0  0  0  0  0  0  0
    1.7200   -0.3320    1.4440 C   0  0  0  0  0  0  0  0  0  0  0  0
    0.9840   -0.3310    2.4580 O   0  0  0  0  0  0  0  0  0  0  0  0
    2.0150    1.7040    3.9310 C   0  0  0  0  0  0  0  0  0  0  0  0
    1.4940    1.7920    5.2050 C   0  0  0  0  0  0  0  0  0  0  0  0
    0.7760    0.6310    7.8620 H   0  0  0  0  0  0  0  0  0  0  0  0
    3.6250   -0.2180    6.8040 H   0  0  0  0  0  0  0  0  0  0  0  0
    4.5430   -0.3590    4.5030 H   0  0  0  0  0  0  0  0  0  0  0  0
    3.4590    1.7340    1.6980 H   0  0  0  0  0  0  0  0  0  0  0  0
    4.8390    0.7260    2.3750 H   0  0  0  0  0  0  0  0  0  0  0  0
    3.5060   -1.3050    2.1220 H   0  0  0  0  0  0  0  0  0  0  0  0
    4.8140   -0.4990    0.2790 H   0  0  0  0  0  0  0  0  0  0  0  0
    3.5200   -1.5060   -0.0450 H   0  0  0  0  0  0  0  0  0  0  0  0
    1.5590    2.2560    3.1100 H   0  0  0  0  0  0  0  0  0  0  0  0
    0.6260    2.3980    5.4350 H   0  0  0  0  0  0  0  0  0  0  0  0
    1.1270   -0.3030    0.1560 N   0  0  0  0  0  0  0  0  0  0  0  0
   -0.3480   -0.2710   -0.0310 C   0  0  1  0  0  0  0  0  0  0  0  0
   -0.6800    0.9630   -0.8400 C   0  0  0  0  0  0  0  0  0  0  0  0
   -2.1100    1.2080   -1.1300 C   0  0  0  0  0  0  0  0  0  0  0  0
   -2.9600    1.3800    0.0520 C   0  0  0  0  0  0  0  0  0  0  0  0
   -2.4810    1.3220    1.2010 O   0  0  0  0  0  0  0  0  0  0  0  0
   -0.6440   -1.4650   -0.8460 C   0  0  0  0  0  0  0  0  0  0  0  0
    0.3050   -2.1010   -1.3620 O   0  0  0  0  0  0  0  0  0  0  0  0
   -4.3100    1.6080   -0.0990 O   0  0  0  0  0  0  0  0  0  0  0  0
    1.7620   -0.3050   -0.6660 H   0  0  0  0  0  0  0  0  0  0  0  0
   -0.7970   -0.2750    0.9760 H   0  0  0  0  0  0  0  0  0  0  0  0
   -0.1500    0.8910   -1.8340 H   0  0  0  0  0  0  0  0  0  0  0  0
   -0.2600    1.8850   -0.3780 H   0  0  0  0  0  0  0  0  0  0  0  0
   -2.1520    2.2270   -1.6570 H   0  0  0  0  0  0  0  0  0  0  0  0
   -2.5460    0.5380   -1.9200 H   0  0  0  0  0  0  0  0  0  0  0  0
   -4.9570    1.8170    0.6270 H   0  0  0  0  0  0  0  0  0  0  0  0
   -3.4540   -1.7380   -3.6120 C   0  0  0  0  0  0  0  0  0  0  0  0
   -2.4500   -2.8230   -3.2850 C   0  0  0  0  0  0  0  0  0  0  0  0
   -2.8570   -4.0720   -4.0470 C   0  0  0  0  0  0  0  0  0  0  0  0
   -2.3710   -3.0480   -1.8180 C   0  0  2  0  0  0  0  0  0  0  0  0
   -1.9730   -1.9020   -1.0500 N   0  0  0  0  0  0  0  0  0  0  0  0
   -1.5920   -4.2800   -1.4480 C   0  0  0  0  0  0  0  0  0  0  0  0
   -0.7940   -4.1940   -0.4950 O   0  0  0  0  0  0  0  0  0  0  0  0
   -1.7300   -5.4670   -2.1080 O   0  0  0  0  0  0  0  0  0  0  0  0
   -2.9720   -0.8570   -4.0760 H   0  0  0  0  0  0  0  0  0  0  0  0
   -4.2190   -2.0920   -4.3260 H   0  0  0  0  0  0  0  0  0  0  0  0
   -3.9200   -1.3590   -2.6670 H   0  0  0  0  0  0  0  0  0  0  0  0
   -1.4830   -2.5040   -3.7380 H   0  0  0  0  0  0  0  0  0  0  0  0
   -1.9460   -4.6150   -4.4220 H   0  0  0  0  0  0  0  0  0  0  0  0
   -3.5150   -4.7340   -3.4630 H   0  0  0  0  0  0  0  0  0  0  0  0
   -3.3960   -3.7460   -4.9610 H   0  0  0  0  0  0  0  0  0  0  0  0
   -3.4200   -3.3430   -1.4590 H   0  0  0  0  0  0  0  0  0  0  0  0
   -2.7710   -1.3640   -0.5950 H   0  0  0  0  0  0  0  0  0  0  0  0
  1 13  1  0  0  0  0
  2  1  1  0  0  0  0
  3  2  1  0  0  0  0
  3 14  1  0  0  0  0
  4  3  2  0  0  0  0
  5 11  2  0  0  0  0
  5  4  1  0  0  0  0
  6 17  1  0  0  0  0
  6  5  1  0  0  0  0
  7 18  1  1  0  0  0
  7  6  1  0  0  0  0
  8 19  1  0  0  0  0
  8  7  1  0  0  0  0
  9  7  1  0  0  0  0
  9 10  2  0  0  0  0
 11 12  1  0  0  0  0
 12 22  1  0  0  0  0
 12  2  2  0  0  0  0
 15  4  1  0  0  0  0
 16  6  1  0  0  0  0
 20  8  1  0  0  0  0
 21 11  1  0  0  0  0
 23  9  1  0  0  0  0
 24 23  1  0  0  0  0
 24 33  1  1  0  0  0
 25 35  1  0  0  0  0
 25 24  1  0  0  0  0
 26 25  1  0  0  0  0
 26 27  1  0  0  0  0
 27 28  2  0  0  0  0
 29 24  1  0  0  0  0
 30 29  2  0  0  0  0
 31 27  1  0  0  0  0
 31 38  1  0  0  0  0
 32 23  1  0  0  0  0
 34 25  1  0  0  0  0
 36 26  1  0  0  0  0
 37 26  1  0  0  0  0
 39 40  1  0  0  0  0
 39 49  1  0  0  0  0
 40 42  1  0  0  0  0
 41 52  1  0  0  0  0
 41 40  1  0  0  0  0
 42 54  1  1  0  0  0
 42 44  1  0  0  0  0
 42 43  1  0  0  0  0
 43 29  1  0  0  0  0
 43 55  1  0  0  0  0
 44 45  1  0  0  0  0
 46 44  2  0  0  0  0
 47 39  1  0  0  0  0
 48 39  1  0  0  0  0
 50 40  1  0  0  0  0
 51 41  1  0  0  0  0
 53 41  1  0  0  0  0
M  END
$$$$
