YEY.pdb
 OpenBabel07022419203D

 60 61  0  0  1  0  0  0  0  0999 V2000
    2.6930   -2.0690    6.9890 O   0  0  0  0  0  0  0  0  0  0  0  0
    2.9640   -1.2070    5.9300 C   0  0  0  0  0  0  0  0  0  0  0  0
    4.2070   -1.1680    5.3440 C   0  0  0  0  0  0  0  0  0  0  0  0
    4.4750   -0.3150    4.2960 C   0  0  0  0  0  0  0  0  0  0  0  0
    3.4840    0.5310    3.8040 C   0  0  0  0  0  0  0  0  0  0  0  0
    3.8120    1.4420    2.6800 C   0  0  0  0  0  0  0  0  0  0  0  0
    3.5770    0.7660    1.3760 C   0  0  2  0  0  0  0  0  0  0  0  0
    3.9010    1.6680    0.2720 N   0  0  0  0  0  0  0  0  0  0  0  0
    2.2310    0.2500    1.1420 C   0  0  0  0  0  0  0  0  0  0  0  0
    1.7420   -0.5850    1.9180 O   0  0  0  0  0  0  0  0  0  0  0  0
    2.2450    0.4860    4.3930 C   0  0  0  0  0  0  0  0  0  0  0  0
    1.9810   -0.3670    5.4410 C   0  0  0  0  0  0  0  0  0  0  0  0
    2.3060   -2.9790    6.7210 H   0  0  0  0  0  0  0  0  0  0  0  0
    5.0010   -1.8100    5.6990 H   0  0  0  0  0  0  0  0  0  0  0  0
    5.4530   -0.2660    3.8160 H   0  0  0  0  0  0  0  0  0  0  0  0
    4.9150    1.6450    2.7450 H   0  0  0  0  0  0  0  0  0  0  0  0
    3.2590    2.3980    2.7790 H   0  0  0  0  0  0  0  0  0  0  0  0
    4.2880   -0.0920    1.2660 H   0  0  0  0  0  0  0  0  0  0  0  0
    4.7060    2.2570    0.5350 H   0  0  0  0  0  0  0  0  0  0  0  0
    4.0910    1.0880   -0.5560 H   0  0  0  0  0  0  0  0  0  0  0  0
    1.4550    1.1470    4.0200 H   0  0  0  0  0  0  0  0  0  0  0  0
    0.9850   -0.3970    5.9080 H   0  0  0  0  0  0  0  0  0  0  0  0
    1.4190    0.6720    0.0280 N   0  0  0  0  0  0  0  0  0  0  0  0
    0.0850    0.1610   -0.2030 C   0  0  1  0  0  0  0  0  0  0  0  0
   -0.9480    1.2360   -0.2530 C   0  0  0  0  0  0  0  0  0  0  0  0
   -1.0880    2.0700    0.9700 C   0  0  0  0  0  0  0  0  0  0  0  0
   -1.4690    1.3320    2.1760 C   0  0  0  0  0  0  0  0  0  0  0  0
   -1.6860    0.1110    2.1650 O   0  0  0  0  0  0  0  0  0  0  0  0
    0.0680   -0.5410   -1.5190 C   0  0  0  0  0  0  0  0  0  0  0  0
    1.1040   -0.6210   -2.2240 O   0  0  0  0  0  0  0  0  0  0  0  0
   -1.5990    2.0020    3.3900 O   0  0  0  0  0  0  0  0  0  0  0  0
    1.8580    1.3700   -0.6000 H   0  0  0  0  0  0  0  0  0  0  0  0
   -0.1810   -0.5710    0.5770 H   0  0  0  0  0  0  0  0  0  0  0  0
   -1.9390    0.7120   -0.4010 H   0  0  0  0  0  0  0  0  0  0  0  0
   -0.7270    1.8740   -1.1390 H   0  0  0  0  0  0  0  0  0  0  0  0
   -1.9200    2.8050    0.7590 H   0  0  0  0  0  0  0  0  0  0  0  0
   -0.1640    2.6730    1.0990 H   0  0  0  0  0  0  0  0  0  0  0  0
   -1.8460    1.4760    4.2180 H   0  0  0  0  0  0  0  0  0  0  0  0
   -6.3970   -4.2800   -0.6930 O   0  0  0  0  0  0  0  0  0  0  0  0
   -5.1710   -4.0420   -1.3160 C   0  0  0  0  0  0  0  0  0  0  0  0
   -4.0330   -3.9200   -0.5420 C   0  0  0  0  0  0  0  0  0  0  0  0
   -2.8110   -3.6850   -1.1390 C   0  0  0  0  0  0  0  0  0  0  0  0
   -2.7250   -3.5700   -2.5140 C   0  0  0  0  0  0  0  0  0  0  0  0
   -1.4170   -3.3180   -3.1640 C   0  0  0  0  0  0  0  0  0  0  0  0
   -1.1290   -1.8300   -3.3080 C   0  0  2  0  0  0  0  0  0  0  0  0
   -1.0960   -1.1550   -2.0530 N   0  0  0  0  0  0  0  0  0  0  0  0
   -2.0240   -1.2210   -4.3030 C   0  0  0  0  0  0  0  0  0  0  0  0
   -2.7070   -0.1880   -4.0580 O   0  0  0  0  0  0  0  0  0  0  0  0
   -3.8410   -3.6880   -3.2960 C   0  0  0  0  0  0  0  0  0  0  0  0
   -5.0610   -3.9240   -2.6920 C   0  0  0  0  0  0  0  0  0  0  0  0
   -2.1810   -1.7400   -5.5800 O   0  0  0  0  0  0  0  0  0  0  0  0
   -6.9940   -3.4860   -0.4420 H   0  0  0  0  0  0  0  0  0  0  0  0
   -4.1280   -4.0140    0.5310 H   0  0  0  0  0  0  0  0  0  0  0  0
   -1.9070   -3.5880   -0.5160 H   0  0  0  0  0  0  0  0  0  0  0  0
   -1.3880   -3.7730   -4.1720 H   0  0  0  0  0  0  0  0  0  0  0  0
   -0.6300   -3.8260   -2.5700 H   0  0  0  0  0  0  0  0  0  0  0  0
   -0.0860   -1.7720   -3.7350 H   0  0  0  0  0  0  0  0  0  0  0  0
   -1.9970   -1.1150   -1.4940 H   0  0  0  0  0  0  0  0  0  0  0  0
   -3.8140   -3.6040   -4.3940 H   0  0  0  0  0  0  0  0  0  0  0  0
   -5.9650   -4.0210   -3.3030 H   0  0  0  0  0  0  0  0  0  0  0  0
  2  1  1  0  0  0  0
  3 14  1  0  0  0  0
  3  2  2  0  0  0  0
  4  3  1  0  0  0  0
  5  4  2  0  0  0  0
  5 11  1  0  0  0  0
  6 16  1  0  0  0  0
  6 17  1  0  0  0  0
  6  5  1  0  0  0  0
  7 18  1  6  0  0  0
  7  6  1  0  0  0  0
  8 19  1  0  0  0  0
  8  7  1  0  0  0  0
  9  7  1  0  0  0  0
  9 10  2  0  0  0  0
 11 12  2  0  0  0  0
 12 22  1  0  0  0  0
 12  2  1  0  0  0  0
 13  1  1  0  0  0  0
 15  4  1  0  0  0  0
 20  8  1  0  0  0  0
 21 11  1  0  0  0  0
 23  9  1  0  0  0  0
 24 23  1  0  0  0  0
 24 33  1  1  0  0  0
 25 24  1  0  0  0  0
 25 26  1  0  0  0  0
 26 37  1  0  0  0  0
 26 27  1  0  0  0  0
 27 31  1  0  0  0  0
 28 27  2  0  0  0  0
 29 24  1  0  0  0  0
 30 29  2  0  0  0  0
 31 38  1  0  0  0  0
 32 23  1  0  0  0  0
 34 25  1  0  0  0  0
 35 25  1  0  0  0  0
 36 26  1  0  0  0  0
 39 52  1  0  0  0  0
 40 39  1  0  0  0  0
 40 41  1  0  0  0  0
 41 53  1  0  0  0  0
 42 41  2  0  0  0  0
 42 54  1  0  0  0  0
 43 42  1  0  0  0  0
 44 56  1  0  0  0  0
 44 43  1  0  0  0  0
 45 57  1  6  0  0  0
 45 44  1  0  0  0  0
 45 46  1  0  0  0  0
 46 29  1  0  0  0  0
 46 58  1  0  0  0  0
 47 48  1  0  0  0  0
 47 45  1  0  0  0  0
 49 50  1  0  0  0  0
 49 43  2  0  0  0  0
 50 40  2  0  0  0  0
 51 47  2  0  0  0  0
 55 44  1  0  0  0  0
 59 49  1  0  0  0  0
 60 50  1  0  0  0  0
M  END
$$$$
