YFD.pdb
 OpenBabel07022419223D

 56 57  0  0  1  0  0  0  0  0999 V2000
    0.8480    3.1790    5.7700 O   0  0  0  0  0  0  0  0  0  0  0  0
    1.5850    2.5740    4.7320 C   0  0  0  0  0  0  0  0  0  0  0  0
    2.3340    3.3250    3.8520 C   0  0  0  0  0  0  0  0  0  0  0  0
    3.0670    2.7820    2.8250 C   0  0  0  0  0  0  0  0  0  0  0  0
    3.0670    1.4110    2.6480 C   0  0  0  0  0  0  0  0  0  0  0  0
    3.8450    0.8190    1.5350 C   0  0  0  0  0  0  0  0  0  0  0  0
    3.0030    0.6250    0.2710 C   0  0  2  0  0  0  0  0  0  0  0  0
    2.4760    1.8960   -0.1400 N   0  0  0  0  0  0  0  0  0  0  0  0
    2.0090   -0.4270    0.4130 C   0  0  0  0  0  0  0  0  0  0  0  0
    2.4480   -1.5880    0.7910 O   0  0  0  0  0  0  0  0  0  0  0  0
    2.3180    0.6510    3.5270 C   0  0  0  0  0  0  0  0  0  0  0  0
    1.5920    1.2150    4.5490 C   0  0  0  0  0  0  0  0  0  0  0  0
    1.1410    2.9650    6.7180 H   0  0  0  0  0  0  0  0  0  0  0  0
    2.3440    4.4070    3.9880 H   0  0  0  0  0  0  0  0  0  0  0  0
    3.6520    3.4200    2.1440 H   0  0  0  0  0  0  0  0  0  0  0  0
    4.2520   -0.1870    1.8480 H   0  0  0  0  0  0  0  0  0  0  0  0
    4.6900    1.4660    1.2870 H   0  0  0  0  0  0  0  0  0  0  0  0
    3.7320    0.2830   -0.5240 H   0  0  0  0  0  0  0  0  0  0  0  0
    1.5720    2.0510    0.3540 H   0  0  0  0  0  0  0  0  0  0  0  0
    2.2300    1.8810   -1.1730 H   0  0  0  0  0  0  0  0  0  0  0  0
    2.3020   -0.4450    3.4060 H   0  0  0  0  0  0  0  0  0  0  0  0
    1.0110    0.6280    5.2350 H   0  0  0  0  0  0  0  0  0  0  0  0
    0.6190   -0.3720    0.1990 N   0  0  0  0  0  0  0  0  0  0  0  0
   -0.1910   -1.5480    0.3920 C   0  0  1  0  0  0  0  0  0  0  0  0
   -1.3200   -1.3130    1.3760 C   0  0  0  0  0  0  0  0  0  0  0  0
   -2.2370   -0.2490    0.9430 C   0  0  0  0  0  0  0  0  0  0  0  0
   -3.2900   -0.5960    0.1170 C   0  0  0  0  0  0  0  0  0  0  0  0
   -4.1980    0.3210   -0.3640 C   0  0  0  0  0  0  0  0  0  0  0  0
   -4.0540    1.6270   -0.0120 C   0  0  0  0  0  0  0  0  0  0  0  0
   -2.9930    2.0020    0.8310 C   0  0  0  0  0  0  0  0  0  0  0  0
   -2.1100    1.0700    1.2890 C   0  0  0  0  0  0  0  0  0  0  0  0
   -0.7280   -2.0990   -0.8960 C   0  0  0  0  0  0  0  0  0  0  0  0
   -0.8480   -1.3810   -1.9060 O   0  0  0  0  0  0  0  0  0  0  0  0
    0.1760    0.5070   -0.0990 H   0  0  0  0  0  0  0  0  0  0  0  0
    0.4320   -2.3280    0.8280 H   0  0  0  0  0  0  0  0  0  0  0  0
   -0.8520   -1.0200    2.3310 H   0  0  0  0  0  0  0  0  0  0  0  0
   -1.8410   -2.2560    1.5190 H   0  0  0  0  0  0  0  0  0  0  0  0
   -3.4220   -1.6530   -0.1860 H   0  0  0  0  0  0  0  0  0  0  0  0
   -5.0160   -0.0080   -1.0220 H   0  0  0  0  0  0  0  0  0  0  0  0
   -4.7360    2.3940   -0.3550 H   0  0  0  0  0  0  0  0  0  0  0  0
   -2.9340    3.0570    1.0750 H   0  0  0  0  0  0  0  0  0  0  0  0
   -1.3110    1.3800    1.9330 H   0  0  0  0  0  0  0  0  0  0  0  0
   -1.1050   -3.4660   -0.9850 N   0  0  0  0  0  0  0  0  0  0  0  0
   -1.6480   -4.0440   -2.2440 C   0  0  1  0  0  0  0  0  0  0  0  0
   -0.4490   -4.5480   -3.0540 C   0  0  0  0  0  0  0  0  0  0  0  0
   -0.7820   -5.1490   -4.3380 C   0  0  0  0  0  0  0  0  0  0  0  0
   -1.9640   -5.1760   -4.7810 O   0  0  0  0  0  0  0  0  0  0  0  0
   -2.6240   -5.0550   -1.9180 C   0  0  0  0  0  0  0  0  0  0  0  0
   -2.8760   -5.2880   -0.6760 O   0  0  0  0  0  0  0  0  0  0  0  0
    0.2120   -5.7200   -5.1150 O   0  0  0  0  0  0  0  0  0  0  0  0
   -3.3620   -5.8500   -2.7880 O   0  0  0  0  0  0  0  0  0  0  0  0
   -0.9910   -4.0660   -0.1710 H   0  0  0  0  0  0  0  0  0  0  0  0
   -2.0590   -3.2130   -2.8400 H   0  0  0  0  0  0  0  0  0  0  0  0
    0.2220   -3.6550   -3.2740 H   0  0  0  0  0  0  0  0  0  0  0  0
    0.1900   -5.1790   -2.3960 H   0  0  0  0  0  0  0  0  0  0  0  0
    0.1900   -5.7460   -6.1310 H   0  0  0  0  0  0  0  0  0  0  0  0
  1 13  1  0  0  0  0
  2  1  1  0  0  0  0
  3 14  1  0  0  0  0
  3  2  2  0  0  0  0
  4  3  1  0  0  0  0
  5  4  2  0  0  0  0
  5 11  1  0  0  0  0
  6 16  1  0  0  0  0
  6  5  1  0  0  0  0
  7 18  1  6  0  0  0
  7  9  1  0  0  0  0
  7  6  1  0  0  0  0
  8  7  1  0  0  0  0
  8 19  1  0  0  0  0
  9 10  2  0  0  0  0
 11 12  2  0  0  0  0
 12  2  1  0  0  0  0
 12 22  1  0  0  0  0
 15  4  1  0  0  0  0
 17  6  1  0  0  0  0
 20  8  1  0  0  0  0
 21 11  1  0  0  0  0
 23 24  1  0  0  0  0
 23  9  1  0  0  0  0
 24 35  1  1  0  0  0
 24 25  1  0  0  0  0
 25 37  1  0  0  0  0
 25 36  1  0  0  0  0
 26 31  1  0  0  0  0
 26 25  1  0  0  0  0
 27 26  2  0  0  0  0
 28 29  2  0  0  0  0
 28 27  1  0  0  0  0
 29 30  1  0  0  0  0
 30 41  1  0  0  0  0
 30 31  2  0  0  0  0
 31 42  1  0  0  0  0
 32 24  1  0  0  0  0
 33 32  2  0  0  0  0
 34 23  1  0  0  0  0
 38 27  1  0  0  0  0
 39 28  1  0  0  0  0
 40 29  1  0  0  0  0
 43 32  1  0  0  0  0
 43 52  1  0  0  0  0
 44 53  1  6  0  0  0
 44 48  1  0  0  0  0
 44 43  1  0  0  0  0
 45 55  1  0  0  0  0
 45 44  1  0  0  0  0
 46 45  1  0  0  0  0
 47 46  2  0  0  0  0
 48 49  1  0  0  0  0
 50 46  1  0  0  0  0
 51 48  2  0  0  0  0
 54 45  1  0  0  0  0
 56 50  1  0  0  0  0
M  END
$$$$
