YFE.pdb
 OpenBabel07022419223D

 59 60  0  0  1  0  0  0  0  0999 V2000
    0.8570    3.3500    6.2480 O   0  0  0  0  0  0  0  0  0  0  0  0
    1.5870    2.4960    5.4070 C   0  0  0  0  0  0  0  0  0  0  0  0
    1.1960    1.2010    5.1720 C   0  0  0  0  0  0  0  0  0  0  0  0
    1.9550    0.4130    4.3350 C   0  0  0  0  0  0  0  0  0  0  0  0
    3.1070    0.8480    3.7050 C   0  0  0  0  0  0  0  0  0  0  0  0
    3.8110   -0.0970    2.8470 C   0  0  0  0  0  0  0  0  0  0  0  0
    3.4220   -0.1290    1.4210 C   0  0  2  0  0  0  0  0  0  0  0  0
    3.6070    1.1300    0.7260 N   0  0  0  0  0  0  0  0  0  0  0  0
    2.0890   -0.7200    1.1590 C   0  0  0  0  0  0  0  0  0  0  0  0
    1.7690   -1.8120    1.6970 O   0  0  0  0  0  0  0  0  0  0  0  0
    3.4830    2.1350    3.9480 C   0  0  0  0  0  0  0  0  0  0  0  0
    2.7450    2.9330    4.7730 C   0  0  0  0  0  0  0  0  0  0  0  0
    0.9400    3.1260    7.2500 H   0  0  0  0  0  0  0  0  0  0  0  0
    0.2940    0.8220    5.6500 H   0  0  0  0  0  0  0  0  0  0  0  0
    1.5910   -0.6190    4.1850 H   0  0  0  0  0  0  0  0  0  0  0  0
    4.9060    0.1470    2.8940 H   0  0  0  0  0  0  0  0  0  0  0  0
    3.7100   -1.1040    3.2710 H   0  0  0  0  0  0  0  0  0  0  0  0
    4.1560   -0.8310    0.9170 H   0  0  0  0  0  0  0  0  0  0  0  0
    4.5430    1.4930    1.0180 H   0  0  0  0  0  0  0  0  0  0  0  0
    3.6910    0.9530   -0.3170 H   0  0  0  0  0  0  0  0  0  0  0  0
    4.3630    2.5350    3.4930 H   0  0  0  0  0  0  0  0  0  0  0  0
    3.0230    3.9770    4.9880 H   0  0  0  0  0  0  0  0  0  0  0  0
    1.1240   -0.1130    0.3170 N   0  0  0  0  0  0  0  0  0  0  0  0
   -0.2060   -0.7220    0.0690 C   0  0  1  0  0  0  0  0  0  0  0  0
   -1.2540    0.1600    0.6570 C   0  0  0  0  0  0  0  0  0  0  0  0
   -2.6120   -0.3100    0.4960 C   0  0  0  0  0  0  0  0  0  0  0  0
   -3.1360   -1.2530    1.3890 C   0  0  0  0  0  0  0  0  0  0  0  0
   -4.4350   -1.7000    1.3180 C   0  0  0  0  0  0  0  0  0  0  0  0
   -5.2710   -1.2200    0.3430 C   0  0  0  0  0  0  0  0  0  0  0  0
   -4.7670   -0.2930   -0.5400 C   0  0  0  0  0  0  0  0  0  0  0  0
   -3.4720    0.1750   -0.4960 C   0  0  0  0  0  0  0  0  0  0  0  0
   -0.3260   -1.0600   -1.3480 C   0  0  0  0  0  0  0  0  0  0  0  0
    0.5750   -0.6560   -2.1800 O   0  0  0  0  0  0  0  0  0  0  0  0
    1.3720    0.7900   -0.1350 H   0  0  0  0  0  0  0  0  0  0  0  0
   -0.1980   -1.6660    0.6650 H   0  0  0  0  0  0  0  0  0  0  0  0
   -0.9750    0.3420    1.7270 H   0  0  0  0  0  0  0  0  0  0  0  0
   -1.1500    1.1840    0.1840 H   0  0  0  0  0  0  0  0  0  0  0  0
   -2.4800   -1.6360    2.1620 H   0  0  0  0  0  0  0  0  0  0  0  0
   -4.7660   -2.4390    2.0560 H   0  0  0  0  0  0  0  0  0  0  0  0
   -6.3110   -1.5620    0.2670 H   0  0  0  0  0  0  0  0  0  0  0  0
   -5.4310    0.0930   -1.3190 H   0  0  0  0  0  0  0  0  0  0  0  0
   -3.0800    0.9050   -1.1940 H   0  0  0  0  0  0  0  0  0  0  0  0
   -1.3600   -1.8230   -1.9550 N   0  0  0  0  0  0  0  0  0  0  0  0
   -1.3730   -2.1090   -3.3520 C   0  0  1  0  0  0  0  0  0  0  0  0
   -1.1620   -3.5530   -3.6750 C   0  0  0  0  0  0  0  0  0  0  0  0
    0.1200   -4.1610   -3.2420 C   0  0  0  0  0  0  0  0  0  0  0  0
    0.3520   -4.2900   -1.8090 C   0  0  0  0  0  0  0  0  0  0  0  0
   -0.5230   -4.1660   -0.9460 O   0  0  0  0  0  0  0  0  0  0  0  0
   -2.6460   -1.7140   -4.0410 C   0  0  0  0  0  0  0  0  0  0  0  0
   -3.5650   -1.2000   -3.3840 O   0  0  0  0  0  0  0  0  0  0  0  0
    1.6490   -4.5760   -1.3200 O   0  0  0  0  0  0  0  0  0  0  0  0
   -2.8140   -1.9130   -5.4000 O   0  0  0  0  0  0  0  0  0  0  0  0
   -2.1300   -2.1610   -1.3330 H   0  0  0  0  0  0  0  0  0  0  0  0
   -0.5130   -1.5460   -3.8610 H   0  0  0  0  0  0  0  0  0  0  0  0
   -2.0220   -4.1070   -3.1600 H   0  0  0  0  0  0  0  0  0  0  0  0
   -1.2970   -3.7060   -4.7900 H   0  0  0  0  0  0  0  0  0  0  0  0
    0.1700   -5.2210   -3.6750 H   0  0  0  0  0  0  0  0  0  0  0  0
    0.9830   -3.5800   -3.7160 H   0  0  0  0  0  0  0  0  0  0  0  0
    1.7250   -5.0600   -0.4180 H   0  0  0  0  0  0  0  0  0  0  0  0
  1 13  1  0  0  0  0
  2  1  1  0  0  0  0
  3  2  1  0  0  0  0
  3 14  1  0  0  0  0
  4  3  2  0  0  0  0
  5 11  2  0  0  0  0
  5  4  1  0  0  0  0
  6 16  1  0  0  0  0
  6 17  1  0  0  0  0
  6  5  1  0  0  0  0
  7 18  1  6  0  0  0
  7  6  1  0  0  0  0
  8 19  1  0  0  0  0
  8  7  1  0  0  0  0
  9  7  1  0  0  0  0
  9 10  2  0  0  0  0
 11 12  1  0  0  0  0
 12 22  1  0  0  0  0
 12  2  2  0  0  0  0
 15  4  1  0  0  0  0
 20  8  1  0  0  0  0
 21 11  1  0  0  0  0
 23  9  1  0  0  0  0
 24 23  1  0  0  0  0
 24 25  1  0  0  0  0
 24 35  1  1  0  0  0
 25 36  1  0  0  0  0
 26 25  1  0  0  0  0
 26 27  1  0  0  0  0
 27 38  1  0  0  0  0
 28 27  2  0  0  0  0
 28 39  1  0  0  0  0
 29 28  1  0  0  0  0
 30 31  1  0  0  0  0
 30 29  2  0  0  0  0
 31 26  2  0  0  0  0
 32 24  1  0  0  0  0
 33 32  2  0  0  0  0
 34 23  1  0  0  0  0
 37 25  1  0  0  0  0
 40 29  1  0  0  0  0
 41 30  1  0  0  0  0
 42 31  1  0  0  0  0
 43 32  1  0  0  0  0
 43 53  1  0  0  0  0
 44 54  1  6  0  0  0
 44 43  1  0  0  0  0
 45 44  1  0  0  0  0
 45 46  1  0  0  0  0
 45 55  1  0  0  0  0
 46 47  1  0  0  0  0
 47 51  1  0  0  0  0
 47 48  2  0  0  0  0
 49 50  1  0  0  0  0
 49 44  1  0  0  0  0
 51 59  1  0  0  0  0
 52 49  2  0  0  0  0
 56 45  1  0  0  0  0
 57 46  1  0  0  0  0
 58 46  1  0  0  0  0
M  END
$$$$
