YFF.pdb
 OpenBabel07022419223D

 63 65  0  0  1  0  0  0  0  0999 V2000
   -0.9560    0.2010    7.4690 O   0  0  0  0  0  0  0  0  0  0  0  0
   -0.0420    0.5250    6.4730 C   0  0  0  0  0  0  0  0  0  0  0  0
    1.2330   -0.0010    6.5300 C   0  0  0  0  0  0  0  0  0  0  0  0
    2.1620    0.3000    5.5570 C   0  0  0  0  0  0  0  0  0  0  0  0
    1.8380    1.1410    4.4950 C   0  0  0  0  0  0  0  0  0  0  0  0
    2.8720    1.4410    3.4740 C   0  0  0  0  0  0  0  0  0  0  0  0
    2.8720    0.4640    2.3530 C   0  0  2  0  0  0  0  0  0  0  0  0
    3.9210    0.8580    1.4190 N   0  0  0  0  0  0  0  0  0  0  0  0
    1.5900    0.2520    1.6840 C   0  0  0  0  0  0  0  0  0  0  0  0
    0.6020   -0.1150    2.3540 O   0  0  0  0  0  0  0  0  0  0  0  0
    0.5720    1.6470    4.4630 C   0  0  0  0  0  0  0  0  0  0  0  0
   -0.3650    1.3580    5.4210 C   0  0  0  0  0  0  0  0  0  0  0  0
   -0.9780   -0.7590    7.8260 H   0  0  0  0  0  0  0  0  0  0  0  0
    1.4700   -0.6600    7.3730 H   0  0  0  0  0  0  0  0  0  0  0  0
    3.1620   -0.1040    5.5900 H   0  0  0  0  0  0  0  0  0  0  0  0
    3.8620    1.3840    4.0020 H   0  0  0  0  0  0  0  0  0  0  0  0
    2.7860    2.4970    3.1500 H   0  0  0  0  0  0  0  0  0  0  0  0
    3.2050   -0.5260    2.7700 H   0  0  0  0  0  0  0  0  0  0  0  0
    4.5870    1.5450    1.8650 H   0  0  0  0  0  0  0  0  0  0  0  0
    4.4080    0.0210    1.0360 H   0  0  0  0  0  0  0  0  0  0  0  0
    0.3190    2.3040    3.6320 H   0  0  0  0  0  0  0  0  0  0  0  0
   -1.3800    1.7610    5.3980 H   0  0  0  0  0  0  0  0  0  0  0  0
    1.4140    0.4450    0.3020 N   0  0  0  0  0  0  0  0  0  0  0  0
    0.1430    0.2410   -0.4000 C   0  0  1  0  0  0  0  0  0  0  0  0
   -0.2830    1.5850   -0.8550 C   0  0  0  0  0  0  0  0  0  0  0  0
   -1.5280    1.7030   -1.5920 C   0  0  0  0  0  0  0  0  0  0  0  0
   -2.7170    1.8380   -0.8900 C   0  0  0  0  0  0  0  0  0  0  0  0
   -3.9340    1.9800   -1.5170 C   0  0  0  0  0  0  0  0  0  0  0  0
   -4.0180    1.9920   -2.8930 C   0  0  0  0  0  0  0  0  0  0  0  0
   -2.8430    1.8590   -3.5980 C   0  0  0  0  0  0  0  0  0  0  0  0
   -1.6240    1.7170   -2.9680 C   0  0  0  0  0  0  0  0  0  0  0  0
    0.2210   -0.8300   -1.3740 C   0  0  0  0  0  0  0  0  0  0  0  0
    1.3710   -1.3670   -1.5560 O   0  0  0  0  0  0  0  0  0  0  0  0
    2.2130    0.7460   -0.2690 H   0  0  0  0  0  0  0  0  0  0  0  0
   -0.5750   -0.0860    0.4090 H   0  0  0  0  0  0  0  0  0  0  0  0
    0.5430    2.0650   -1.4410 H   0  0  0  0  0  0  0  0  0  0  0  0
   -0.3490    2.2280    0.0690 H   0  0  0  0  0  0  0  0  0  0  0  0
   -2.6800    1.8310    0.1990 H   0  0  0  0  0  0  0  0  0  0  0  0
   -4.8570    2.0850   -0.9480 H   0  0  0  0  0  0  0  0  0  0  0  0
   -4.9710    2.1030   -3.3910 H   0  0  0  0  0  0  0  0  0  0  0  0
   -2.8920    1.8670   -4.6850 H   0  0  0  0  0  0  0  0  0  0  0  0
   -0.6980    1.6110   -3.5360 H   0  0  0  0  0  0  0  0  0  0  0  0
   -0.8200   -1.3720   -2.1580 N   0  0  0  0  0  0  0  0  0  0  0  0
   -0.6060   -2.4410   -3.0800 C   0  0  1  0  0  0  0  0  0  0  0  0
   -1.3630   -3.7010   -2.6930 C   0  0  0  0  0  0  0  0  0  0  0  0
   -0.9840   -4.2230   -1.3790 C   0  0  0  0  0  0  0  0  0  0  0  0
    0.0360   -5.1350   -1.2230 C   0  0  0  0  0  0  0  0  0  0  0  0
    0.3750   -5.6120    0.0220 C   0  0  0  0  0  0  0  0  0  0  0  0
   -0.3020   -5.1850    1.1430 C   0  0  0  0  0  0  0  0  0  0  0  0
   -1.3250   -4.2730    1.0020 C   0  0  0  0  0  0  0  0  0  0  0  0
   -1.6530   -3.8030   -0.2510 C   0  0  0  0  0  0  0  0  0  0  0  0
   -1.0050   -2.0990   -4.4560 C   0  0  0  0  0  0  0  0  0  0  0  0
   -1.4790   -0.9730   -4.7010 O   0  0  0  0  0  0  0  0  0  0  0  0
   -0.8590   -3.0160   -5.4840 O   0  0  0  0  0  0  0  0  0  0  0  0
   -1.7730   -0.9780   -2.0470 H   0  0  0  0  0  0  0  0  0  0  0  0
    0.4920   -2.6980   -3.0570 H   0  0  0  0  0  0  0  0  0  0  0  0
   -2.4570   -3.5110   -2.7500 H   0  0  0  0  0  0  0  0  0  0  0  0
   -1.1530   -4.4670   -3.4770 H   0  0  0  0  0  0  0  0  0  0  0  0
    0.6100   -5.5090   -2.0870 H   0  0  0  0  0  0  0  0  0  0  0  0
    1.1850   -6.3400    0.1680 H   0  0  0  0  0  0  0  0  0  0  0  0
   -0.0250   -5.5710    2.1350 H   0  0  0  0  0  0  0  0  0  0  0  0
   -1.8390   -3.9560    1.9050 H   0  0  0  0  0  0  0  0  0  0  0  0
   -2.4700   -3.0790   -0.3340 H   0  0  0  0  0  0  0  0  0  0  0  0
  1 13  1  0  0  0  0
  2  3  1  0  0  0  0
  2  1  1  0  0  0  0
  3 14  1  0  0  0  0
  4 15  1  0  0  0  0
  4  3  2  0  0  0  0
  5  4  1  0  0  0  0
  6 16  1  0  0  0  0
  6  5  1  0  0  0  0
  7 18  1  1  0  0  0
  7  6  1  0  0  0  0
  8 19  1  0  0  0  0
  8  7  1  0  0  0  0
  9  7  1  0  0  0  0
  9 10  2  0  0  0  0
 11  5  2  0  0  0  0
 11 12  1  0  0  0  0
 12  2  2  0  0  0  0
 17  6  1  0  0  0  0
 20  8  1  0  0  0  0
 21 11  1  0  0  0  0
 22 12  1  0  0  0  0
 23  9  1  0  0  0  0
 24 23  1  0  0  0  0
 24 35  1  1  0  0  0
 25 24  1  0  0  0  0
 25 37  1  0  0  0  0
 26 27  1  0  0  0  0
 26 25  1  0  0  0  0
 27 38  1  0  0  0  0
 28 39  1  0  0  0  0
 28 27  2  0  0  0  0
 29 28  1  0  0  0  0
 30 31  1  0  0  0  0
 30 29  2  0  0  0  0
 31 26  2  0  0  0  0
 32 24  1  0  0  0  0
 33 32  2  0  0  0  0
 34 23  1  0  0  0  0
 36 25  1  0  0  0  0
 40 29  1  0  0  0  0
 41 30  1  0  0  0  0
 42 31  1  0  0  0  0
 43 55  1  0  0  0  0
 43 32  1  0  0  0  0
 44 56  1  6  0  0  0
 44 45  1  0  0  0  0
 44 43  1  0  0  0  0
 45 46  1  0  0  0  0
 46 47  2  0  0  0  0
 46 51  1  0  0  0  0
 47 48  1  0  0  0  0
 48 60  1  0  0  0  0
 48 49  2  0  0  0  0
 49 61  1  0  0  0  0
 50 49  1  0  0  0  0
 50 62  1  0  0  0  0
 51 50  2  0  0  0  0
 52 44  1  0  0  0  0
 53 52  1  0  0  0  0
 54 52  2  0  0  0  0
 57 45  1  0  0  0  0
 58 45  1  0  0  0  0
 59 47  1  0  0  0  0
 63 51  1  0  0  0  0
M  END
$$$$
