YFG.pdb
 OpenBabel07022419223D

 50 51  0  0  1  0  0  0  0  0999 V2000
    2.0410   -3.7770    5.7040 O   0  0  0  0  0  0  0  0  0  0  0  0
    2.3230   -3.0120    4.5560 C   0  0  0  0  0  0  0  0  0  0  0  0
    1.4110   -2.9440    3.5340 C   0  0  0  0  0  0  0  0  0  0  0  0
    1.7020   -2.1850    2.4020 C   0  0  0  0  0  0  0  0  0  0  0  0
    2.8840   -1.4910    2.2700 C   0  0  0  0  0  0  0  0  0  0  0  0
    3.2130   -0.6810    1.0800 C   0  0  0  0  0  0  0  0  0  0  0  0
    2.7300    0.7560    1.2350 C   0  0  2  0  0  0  0  0  0  0  0  0
    3.3130    1.3940    2.3720 N   0  0  0  0  0  0  0  0  0  0  0  0
    1.2550    0.8320    1.1650 C   0  0  0  0  0  0  0  0  0  0  0  0
    0.5240    1.2600    2.0900 O   0  0  0  0  0  0  0  0  0  0  0  0
    3.7720   -1.5910    3.3290 C   0  0  0  0  0  0  0  0  0  0  0  0
    3.5140   -2.3350    4.4620 C   0  0  0  0  0  0  0  0  0  0  0  0
    2.0180   -3.3350    6.6210 H   0  0  0  0  0  0  0  0  0  0  0  0
    0.4820   -3.4890    3.6370 H   0  0  0  0  0  0  0  0  0  0  0  0
    0.9420   -2.1770    1.6430 H   0  0  0  0  0  0  0  0  0  0  0  0
    4.2870   -0.6500    0.8510 H   0  0  0  0  0  0  0  0  0  0  0  0
    2.6820   -1.0920    0.1940 H   0  0  0  0  0  0  0  0  0  0  0  0
    3.1200    1.2910    0.3250 H   0  0  0  0  0  0  0  0  0  0  0  0
    3.2720    2.4280    2.2400 H   0  0  0  0  0  0  0  0  0  0  0  0
    4.3070    1.1230    2.4240 H   0  0  0  0  0  0  0  0  0  0  0  0
    4.7210   -1.0740    3.2970 H   0  0  0  0  0  0  0  0  0  0  0  0
    4.2490   -2.3790    5.2660 H   0  0  0  0  0  0  0  0  0  0  0  0
    0.5880    0.4000   -0.0230 N   0  0  0  0  0  0  0  0  0  0  0  0
   -0.8810    0.4680   -0.1160 C   0  0  1  0  0  0  0  0  0  0  0  0
   -1.2740    1.5160   -1.1350 C   0  0  0  0  0  0  0  0  0  0  0  0
   -2.7450    1.5780   -1.2230 C   0  0  0  0  0  0  0  0  0  0  0  0
   -3.5160    0.8840   -2.1250 C   0  0  0  0  0  0  0  0  0  0  0  0
   -4.9080    1.0200   -2.1070 C   0  0  0  0  0  0  0  0  0  0  0  0
   -5.5480    1.8320   -1.2120 C   0  0  0  0  0  0  0  0  0  0  0  0
   -4.7770    2.5360   -0.2990 C   0  0  0  0  0  0  0  0  0  0  0  0
   -3.4250    2.3980   -0.3230 C   0  0  0  0  0  0  0  0  0  0  0  0
   -1.3620   -0.8820   -0.4480 C   0  0  0  0  0  0  0  0  0  0  0  0
   -2.6170   -1.1160   -0.5100 O   0  0  0  0  0  0  0  0  0  0  0  0
    1.1850    0.0490   -0.7980 H   0  0  0  0  0  0  0  0  0  0  0  0
   -1.3180    0.7940    0.8390 H   0  0  0  0  0  0  0  0  0  0  0  0
   -0.9160    2.4930   -0.7420 H   0  0  0  0  0  0  0  0  0  0  0  0
   -0.8370    1.3050   -2.1330 H   0  0  0  0  0  0  0  0  0  0  0  0
   -3.0210    0.2470   -2.8350 H   0  0  0  0  0  0  0  0  0  0  0  0
   -5.4680    0.4470   -2.8440 H   0  0  0  0  0  0  0  0  0  0  0  0
   -6.6380    1.9070   -1.2350 H   0  0  0  0  0  0  0  0  0  0  0  0
   -5.3180    3.1670    0.3930 H   0  0  0  0  0  0  0  0  0  0  0  0
   -2.8460    2.9600    0.4020 H   0  0  0  0  0  0  0  0  0  0  0  0
   -0.5200   -1.9980   -0.7180 N   0  0  0  0  0  0  0  0  0  0  0  0
   -1.0480   -3.3090   -1.0410 C   0  0  0  0  0  0  0  0  0  0  0  0
    0.0860   -4.2340   -1.2640 C   0  0  0  0  0  0  0  0  0  0  0  0
   -0.0780   -5.4450   -1.5600 O   0  0  0  0  0  0  0  0  0  0  0  0
    1.3880   -3.7750   -1.1470 O   0  0  0  0  0  0  0  0  0  0  0  0
    0.5070   -1.8360   -0.6760 H   0  0  0  0  0  0  0  0  0  0  0  0
   -1.6790   -3.3180   -1.9350 H   0  0  0  0  0  0  0  0  0  0  0  0
   -1.6980   -3.6850   -0.1990 H   0  0  0  0  0  0  0  0  0  0  0  0
  1 13  1  0  0  0  0
  2  1  1  0  0  0  0
  3 14  1  0  0  0  0
  3  2  2  0  0  0  0
  4  3  1  0  0  0  0
  5  4  2  0  0  0  0
  5 11  1  0  0  0  0
  6  7  1  0  0  0  0
  6  5  1  0  0  0  0
  7 18  1  6  0  0  0
  7  8  1  0  0  0  0
  8 20  1  0  0  0  0
  9  7  1  0  0  0  0
  9 10  2  0  0  0  0
 11 12  2  0  0  0  0
 12  2  1  0  0  0  0
 12 22  1  0  0  0  0
 15  4  1  0  0  0  0
 16  6  1  0  0  0  0
 17  6  1  0  0  0  0
 19  8  1  0  0  0  0
 21 11  1  0  0  0  0
 23  9  1  0  0  0  0
 24 23  1  0  0  0  0
 24 35  1  1  0  0  0
 25 36  1  0  0  0  0
 25 24  1  0  0  0  0
 26 25  1  0  0  0  0
 26 31  1  0  0  0  0
 27 28  1  0  0  0  0
 27 26  2  0  0  0  0
 28 29  2  0  0  0  0
 29 30  1  0  0  0  0
 30 41  1  0  0  0  0
 31 30  2  0  0  0  0
 31 42  1  0  0  0  0
 32 24  1  0  0  0  0
 33 32  2  0  0  0  0
 34 23  1  0  0  0  0
 37 25  1  0  0  0  0
 38 27  1  0  0  0  0
 39 28  1  0  0  0  0
 40 29  1  0  0  0  0
 43 48  1  0  0  0  0
 43 32  1  0  0  0  0
 44 43  1  0  0  0  0
 44 50  1  0  0  0  0
 45 47  1  0  0  0  0
 45 44  1  0  0  0  0
 46 45  2  0  0  0  0
 49 44  1  0  0  0  0
M  END
$$$$
