YFH.pdb
 OpenBabel07022419223D

 60 62  0  0  1  0  0  0  0  0999 V2000
    3.8260   -1.8950    6.2770 O   0  0  0  0  0  0  0  0  0  0  0  0
    3.7800   -0.8980    5.3190 C   0  0  0  0  0  0  0  0  0  0  0  0
    4.8890   -0.5580    4.5910 C   0  0  0  0  0  0  0  0  0  0  0  0
    4.8220    0.4380    3.6420 C   0  0  0  0  0  0  0  0  0  0  0  0
    3.6450    1.1200    3.3940 C   0  0  0  0  0  0  0  0  0  0  0  0
    3.5880    2.2070    2.3610 C   0  0  0  0  0  0  0  0  0  0  0  0
    3.2480    1.7140    0.9980 C   0  0  2  0  0  0  0  0  0  0  0  0
    3.2170    2.8470    0.0640 N   0  0  0  0  0  0  0  0  0  0  0  0
    2.0400    0.8950    0.8860 C   0  0  0  0  0  0  0  0  0  0  0  0
    1.9430   -0.1300    1.6080 O   0  0  0  0  0  0  0  0  0  0  0  0
    2.5380    0.7700    4.1320 C   0  0  0  0  0  0  0  0  0  0  0  0
    2.6050   -0.2240    5.0790 C   0  0  0  0  0  0  0  0  0  0  0  0
    3.4160   -2.8030    6.1390 H   0  0  0  0  0  0  0  0  0  0  0  0
    5.8330   -1.0800    4.7640 H   0  0  0  0  0  0  0  0  0  0  0  0
    5.7090    0.7010    3.0680 H   0  0  0  0  0  0  0  0  0  0  0  0
    2.9320    3.0390    2.7020 H   0  0  0  0  0  0  0  0  0  0  0  0
    4.6130    2.6300    2.3220 H   0  0  0  0  0  0  0  0  0  0  0  0
    4.1150    1.0830    0.6470 H   0  0  0  0  0  0  0  0  0  0  0  0
    4.1710    3.2870    0.1490 H   0  0  0  0  0  0  0  0  0  0  0  0
    3.1640    2.4430   -0.8950 H   0  0  0  0  0  0  0  0  0  0  0  0
    1.6010    1.2800    3.9670 H   0  0  0  0  0  0  0  0  0  0  0  0
    1.7290   -0.5160    5.6770 H   0  0  0  0  0  0  0  0  0  0  0  0
    0.9540    1.1640    0.0210 N   0  0  0  0  0  0  0  0  0  0  0  0
   -0.2440    0.2920   -0.0430 C   0  0  1  0  0  0  0  0  0  0  0  0
   -1.4290    1.0300    0.4390 C   0  0  0  0  0  0  0  0  0  0  0  0
   -2.6510    0.2200    0.4040 C   0  0  0  0  0  0  0  0  0  0  0  0
   -2.8700   -0.6530    1.4760 C   0  0  0  0  0  0  0  0  0  0  0  0
   -4.0310   -1.3920    1.5030 C   0  0  0  0  0  0  0  0  0  0  0  0
   -4.9700   -1.2920    0.5110 C   0  0  0  0  0  0  0  0  0  0  0  0
   -4.7490   -0.4330   -0.5380 C   0  0  0  0  0  0  0  0  0  0  0  0
   -3.5990    0.3240   -0.6020 C   0  0  0  0  0  0  0  0  0  0  0  0
   -0.2820   -0.3160   -1.3550 C   0  0  0  0  0  0  0  0  0  0  0  0
    0.5380    0.1160   -2.2570 O   0  0  0  0  0  0  0  0  0  0  0  0
    1.0140    2.0040   -0.5820 H   0  0  0  0  0  0  0  0  0  0  0  0
   -0.0350   -0.5270    0.7080 H   0  0  0  0  0  0  0  0  0  0  0  0
   -1.5760    2.0150   -0.0830 H   0  0  0  0  0  0  0  0  0  0  0  0
   -1.2350    1.2590    1.5370 H   0  0  0  0  0  0  0  0  0  0  0  0
   -2.1440   -0.7520    2.2740 H   0  0  0  0  0  0  0  0  0  0  0  0
   -4.1600   -2.0650    2.3650 H   0  0  0  0  0  0  0  0  0  0  0  0
   -5.8730   -1.8700    0.5380 H   0  0  0  0  0  0  0  0  0  0  0  0
   -5.5070   -0.3660   -1.3190 H   0  0  0  0  0  0  0  0  0  0  0  0
   -3.4030    1.0140   -1.4280 H   0  0  0  0  0  0  0  0  0  0  0  0
   -1.1270   -1.3620   -1.7850 N   0  0  0  0  0  0  0  0  0  0  0  0
   -1.0580   -1.8910   -3.1140 C   0  0  1  0  0  0  0  0  0  0  0  0
   -0.6090   -3.3470   -3.0920 C   0  0  0  0  0  0  0  0  0  0  0  0
   -1.5320   -4.1930   -2.3250 C   0  0  0  0  0  0  0  0  0  0  0  0
   -1.4660   -4.4740   -0.9770 C   0  0  0  0  0  0  0  0  0  0  0  0
   -2.4980   -5.2900   -0.6540 N   0  0  0  0  0  0  0  0  0  0  0  0
   -3.2000   -5.5200   -1.7740 C   0  0  0  0  0  0  0  0  0  0  0  0
   -2.6090   -4.8510   -2.7830 N   0  0  0  0  0  0  0  0  0  0  0  0
   -2.2920   -1.7740   -3.8940 C   0  0  0  0  0  0  0  0  0  0  0  0
   -2.2800   -2.2280   -5.0890 O   0  0  0  0  0  0  0  0  0  0  0  0
   -3.4420   -1.2030   -3.3950 O   0  0  0  0  0  0  0  0  0  0  0  0
   -1.8080   -1.7660   -1.1020 H   0  0  0  0  0  0  0  0  0  0  0  0
   -0.2700   -1.3120   -3.6730 H   0  0  0  0  0  0  0  0  0  0  0  0
    0.4320   -3.3630   -2.7040 H   0  0  0  0  0  0  0  0  0  0  0  0
   -0.5340   -3.6680   -4.1650 H   0  0  0  0  0  0  0  0  0  0  0  0
   -0.7380   -4.1240   -0.2790 H   0  0  0  0  0  0  0  0  0  0  0  0
   -2.7270   -5.6820    0.2820 H   0  0  0  0  0  0  0  0  0  0  0  0
   -4.0860   -6.1380   -1.8300 H   0  0  0  0  0  0  0  0  0  0  0  0
  2  1  1  0  0  0  0
  3 14  1  0  0  0  0
  3  2  2  0  0  0  0
  4  3  1  0  0  0  0
  5  4  2  0  0  0  0
  5 11  1  0  0  0  0
  6 16  1  0  0  0  0
  6  5  1  0  0  0  0
  7 18  1  6  0  0  0
  7  6  1  0  0  0  0
  8 19  1  0  0  0  0
  8  7  1  0  0  0  0
  9  7  1  0  0  0  0
  9 10  2  0  0  0  0
 11 12  2  0  0  0  0
 12  2  1  0  0  0  0
 12 22  1  0  0  0  0
 13  1  1  0  0  0  0
 15  4  1  0  0  0  0
 17  6  1  0  0  0  0
 20  8  1  0  0  0  0
 21 11  1  0  0  0  0
 23  9  1  0  0  0  0
 24 23  1  0  0  0  0
 24 25  1  0  0  0  0
 24 35  1  1  0  0  0
 25 37  1  0  0  0  0
 26 25  1  0  0  0  0
 26 27  1  0  0  0  0
 27 28  2  0  0  0  0
 27 38  1  0  0  0  0
 28 39  1  0  0  0  0
 29 40  1  0  0  0  0
 29 28  1  0  0  0  0
 30 29  2  0  0  0  0
 31 30  1  0  0  0  0
 31 26  2  0  0  0  0
 32 24  1  0  0  0  0
 33 32  2  0  0  0  0
 34 23  1  0  0  0  0
 36 25  1  0  0  0  0
 41 30  1  0  0  0  0
 42 31  1  0  0  0  0
 43 32  1  0  0  0  0
 43 54  1  0  0  0  0
 44 55  1  6  0  0  0
 44 45  1  0  0  0  0
 44 43  1  0  0  0  0
 45 56  1  0  0  0  0
 45 46  1  0  0  0  0
 46 47  2  0  0  0  0
 47 48  1  0  0  0  0
 47 58  1  0  0  0  0
 48 59  1  0  0  0  0
 49 48  1  0  0  0  0
 50 46  1  0  0  0  0
 50 49  2  0  0  0  0
 51 53  1  0  0  0  0
 51 44  1  0  0  0  0
 52 51  2  0  0  0  0
 57 45  1  0  0  0  0
 60 49  1  0  0  0  0
M  END
$$$$
