YFI.pdb
 OpenBabel07022419223D

 62 63  0  0  1  0  0  0  0  0999 V2000
    3.4880   -3.9830    4.6940 O   0  0  0  0  0  0  0  0  0  0  0  0
    3.5320   -2.8940    3.8030 C   0  0  0  0  0  0  0  0  0  0  0  0
    4.5330   -1.9470    3.9520 C   0  0  0  0  0  0  0  0  0  0  0  0
    4.5950   -0.8800    3.0960 C   0  0  0  0  0  0  0  0  0  0  0  0
    3.6710   -0.7530    2.1000 C   0  0  0  0  0  0  0  0  0  0  0  0
    3.7260    0.3780    1.1800 C   0  0  0  0  0  0  0  0  0  0  0  0
    2.9780    1.5980    1.5900 C   0  0  2  0  0  0  0  0  0  0  0  0
    3.4640    2.1220    2.8760 N   0  0  0  0  0  0  0  0  0  0  0  0
    1.5270    1.5000    1.6310 C   0  0  0  0  0  0  0  0  0  0  0  0
    0.9090    1.7060    2.7030 O   0  0  0  0  0  0  0  0  0  0  0  0
    2.6930   -1.7020    1.9750 C   0  0  0  0  0  0  0  0  0  0  0  0
    2.5910   -2.7880    2.8090 C   0  0  0  0  0  0  0  0  0  0  0  0
    2.7100   -4.6280    4.6450 H   0  0  0  0  0  0  0  0  0  0  0  0
    5.2370   -2.1050    4.7630 H   0  0  0  0  0  0  0  0  0  0  0  0
    5.3980   -0.1380    3.2310 H   0  0  0  0  0  0  0  0  0  0  0  0
    3.3710    0.1020    0.1570 H   0  0  0  0  0  0  0  0  0  0  0  0
    4.7970    0.6710    1.0650 H   0  0  0  0  0  0  0  0  0  0  0  0
    3.2950    2.4040    0.8580 H   0  0  0  0  0  0  0  0  0  0  0  0
    3.1440    1.5010    3.6690 H   0  0  0  0  0  0  0  0  0  0  0  0
    2.9260    3.0220    3.0190 H   0  0  0  0  0  0  0  0  0  0  0  0
    1.9630   -1.5960    1.1810 H   0  0  0  0  0  0  0  0  0  0  0  0
    1.8130   -3.5110    2.6820 H   0  0  0  0  0  0  0  0  0  0  0  0
    0.7290    1.1800    0.5110 N   0  0  0  0  0  0  0  0  0  0  0  0
   -0.6760    1.0690    0.4600 C   0  0  1  0  0  0  0  0  0  0  0  0
   -1.4190    2.0320   -0.3950 C   0  0  0  0  0  0  0  0  0  0  0  0
   -0.9920    1.9640   -1.8280 C   0  0  0  0  0  0  0  0  0  0  0  0
   -1.5540    1.1330   -2.7700 C   0  0  0  0  0  0  0  0  0  0  0  0
   -1.1560    1.0800   -4.0770 C   0  0  0  0  0  0  0  0  0  0  0  0
   -0.1440    1.8810   -4.5170 C   0  0  0  0  0  0  0  0  0  0  0  0
    0.4540    2.7310   -3.6170 C   0  0  0  0  0  0  0  0  0  0  0  0
    0.0380    2.7690   -2.3050 C   0  0  0  0  0  0  0  0  0  0  0  0
   -1.0490   -0.2930    0.0420 C   0  0  0  0  0  0  0  0  0  0  0  0
   -0.2390   -1.1780   -0.3480 O   0  0  0  0  0  0  0  0  0  0  0  0
    1.2400    1.0050   -0.3820 H   0  0  0  0  0  0  0  0  0  0  0  0
   -1.0520    1.1800    1.5160 H   0  0  0  0  0  0  0  0  0  0  0  0
   -1.4740    3.0570   -0.0190 H   0  0  0  0  0  0  0  0  0  0  0  0
   -2.4810    1.6880   -0.4010 H   0  0  0  0  0  0  0  0  0  0  0  0
   -2.3560    0.4820   -2.4670 H   0  0  0  0  0  0  0  0  0  0  0  0
   -1.6210    0.4100   -4.8080 H   0  0  0  0  0  0  0  0  0  0  0  0
    0.1650    1.8320   -5.5550 H   0  0  0  0  0  0  0  0  0  0  0  0
    1.2560    3.3620   -3.9750 H   0  0  0  0  0  0  0  0  0  0  0  0
    0.5240    3.4370   -1.6430 H   0  0  0  0  0  0  0  0  0  0  0  0
   -2.4310   -4.9270   -0.2980 C   0  0  0  0  0  0  0  0  0  0  0  0
   -3.5030   -4.2740    0.5350 C   0  0  0  0  0  0  0  0  0  0  0  0
   -3.1170   -2.8730    0.9250 C   0  0  2  0  0  0  0  0  0  0  0  0
   -4.1850   -2.2040    1.7580 C   0  0  0  0  0  0  0  0  0  0  0  0
   -2.8150   -2.0670   -0.3460 C   0  0  2  0  0  0  0  0  0  0  0  0
   -2.4320   -0.7100    0.0640 N   0  0  0  0  0  0  0  0  0  0  0  0
   -3.9570   -2.0090   -1.2540 C   0  0  0  0  0  0  0  0  0  0  0  0
   -4.4890   -2.9770   -1.8470 O   0  0  0  0  0  0  0  0  0  0  0  0
   -4.5590   -0.7630   -1.5220 O   0  0  0  0  0  0  0  0  0  0  0  0
   -2.2840   -5.9970    0.0340 H   0  0  0  0  0  0  0  0  0  0  0  0
   -1.4370   -4.4510   -0.1920 H   0  0  0  0  0  0  0  0  0  0  0  0
   -2.6870   -4.9810   -1.3670 H   0  0  0  0  0  0  0  0  0  0  0  0
   -4.4730   -4.2800    0.0300 H   0  0  0  0  0  0  0  0  0  0  0  0
   -3.6470   -4.9080    1.4550 H   0  0  0  0  0  0  0  0  0  0  0  0
   -2.1710   -2.9700    1.5250 H   0  0  0  0  0  0  0  0  0  0  0  0
   -4.7040   -1.4140    1.1420 H   0  0  0  0  0  0  0  0  0  0  0  0
   -4.9100   -2.9930    2.0690 H   0  0  0  0  0  0  0  0  0  0  0  0
   -3.7940   -1.6810    2.6390 H   0  0  0  0  0  0  0  0  0  0  0  0
   -1.9730   -2.5940   -0.8290 H   0  0  0  0  0  0  0  0  0  0  0  0
   -3.1860   -0.0650    0.3670 H   0  0  0  0  0  0  0  0  0  0  0  0
  2  3  1  0  0  0  0
  2  1  1  0  0  0  0
  3 14  1  0  0  0  0
  4 15  1  0  0  0  0
  4  3  2  0  0  0  0
  5  4  1  0  0  0  0
  6  7  1  0  0  0  0
  6  5  1  0  0  0  0
  7 18  1  6  0  0  0
  7  9  1  0  0  0  0
  7  8  1  0  0  0  0
  8 20  1  0  0  0  0
  8 19  1  0  0  0  0
  9 10  2  0  0  0  0
 11  5  2  0  0  0  0
 11 12  1  0  0  0  0
 12  2  2  0  0  0  0
 13  1  1  0  0  0  0
 16  6  1  0  0  0  0
 17  6  1  0  0  0  0
 21 11  1  0  0  0  0
 22 12  1  0  0  0  0
 23  9  1  0  0  0  0
 24 23  1  0  0  0  0
 24 35  1  1  0  0  0
 25 36  1  0  0  0  0
 25 24  1  0  0  0  0
 26 25  1  0  0  0  0
 27 38  1  0  0  0  0
 27 26  2  0  0  0  0
 28 27  1  0  0  0  0
 29 28  2  0  0  0  0
 29 30  1  0  0  0  0
 30 31  2  0  0  0  0
 31 26  1  0  0  0  0
 31 42  1  0  0  0  0
 32 48  1  0  0  0  0
 32 24  1  0  0  0  0
 33 32  2  0  0  0  0
 34 23  1  0  0  0  0
 37 25  1  0  0  0  0
 39 28  1  0  0  0  0
 40 29  1  0  0  0  0
 41 30  1  0  0  0  0
 43 53  1  0  0  0  0
 43 52  1  0  0  0  0
 43 44  1  0  0  0  0
 44 45  1  0  0  0  0
 44 56  1  0  0  0  0
 45 57  1  1  0  0  0
 45 46  1  0  0  0  0
 46 59  1  0  0  0  0
 46 60  1  0  0  0  0
 47 61  1  6  0  0  0
 47 48  1  0  0  0  0
 47 45  1  0  0  0  0
 48 62  1  0  0  0  0
 49 47  1  0  0  0  0
 50 49  2  0  0  0  0
 51 49  1  0  0  0  0
 54 43  1  0  0  0  0
 55 44  1  0  0  0  0
 58 46  1  0  0  0  0
M  END
$$$$
