YFK.pdb
 OpenBabel07022419223D

 64 65  0  0  1  0  0  0  0  0999 V2000
    1.0070    2.9790    6.6870 O   0  0  0  0  0  0  0  0  0  0  0  0
    1.7310    2.2790    5.7140 C   0  0  0  0  0  0  0  0  0  0  0  0
    1.3870    0.9860    5.3760 C   0  0  0  0  0  0  0  0  0  0  0  0
    2.1240    0.3290    4.4130 C   0  0  0  0  0  0  0  0  0  0  0  0
    3.1960    0.8940    3.7620 C   0  0  0  0  0  0  0  0  0  0  0  0
    3.9130    0.1180    2.7570 C   0  0  0  0  0  0  0  0  0  0  0  0
    3.3820    0.2610    1.3620 C   0  0  2  0  0  0  0  0  0  0  0  0
    3.4280    1.6270    0.8810 N   0  0  0  0  0  0  0  0  0  0  0  0
    2.0380   -0.3400    1.1870 C   0  0  0  0  0  0  0  0  0  0  0  0
    1.8040   -1.5210    1.5480 O   0  0  0  0  0  0  0  0  0  0  0  0
    3.5430    2.1810    4.0930 C   0  0  0  0  0  0  0  0  0  0  0  0
    2.8100    2.8390    5.0540 C   0  0  0  0  0  0  0  0  0  0  0  0
    1.0870    2.5790    7.6330 H   0  0  0  0  0  0  0  0  0  0  0  0
    0.5450    0.5280    5.8810 H   0  0  0  0  0  0  0  0  0  0  0  0
    1.7960   -0.7000    4.1920 H   0  0  0  0  0  0  0  0  0  0  0  0
    3.8750   -0.9630    3.0120 H   0  0  0  0  0  0  0  0  0  0  0  0
    4.9920    0.3830    2.7330 H   0  0  0  0  0  0  0  0  0  0  0  0
    4.0720   -0.3210    0.6960 H   0  0  0  0  0  0  0  0  0  0  0  0
    4.4600    1.8820    0.8400 H   0  0  0  0  0  0  0  0  0  0  0  0
    3.1480    1.5730   -0.1440 H   0  0  0  0  0  0  0  0  0  0  0  0
    4.3680    2.6900    3.6280 H   0  0  0  0  0  0  0  0  0  0  0  0
    3.0420    3.8680    5.3580 H   0  0  0  0  0  0  0  0  0  0  0  0
    1.0070    0.4110    0.6130 N   0  0  0  0  0  0  0  0  0  0  0  0
   -0.3590   -0.1400    0.4130 C   0  0  1  0  0  0  0  0  0  0  0  0
   -1.3000    0.5970    1.2880 C   0  0  0  0  0  0  0  0  0  0  0  0
   -2.7170    0.2050    1.2530 C   0  0  0  0  0  0  0  0  0  0  0  0
   -3.1630   -0.8560    2.0350 C   0  0  0  0  0  0  0  0  0  0  0  0
   -4.4730   -1.2250    2.0660 C   0  0  0  0  0  0  0  0  0  0  0  0
   -5.4310   -0.5550    1.3120 C   0  0  0  0  0  0  0  0  0  0  0  0
   -4.9790    0.4930    0.5410 C   0  0  0  0  0  0  0  0  0  0  0  0
   -3.6610    0.8740    0.5020 C   0  0  0  0  0  0  0  0  0  0  0  0
   -0.6460   -0.2310   -1.0070 C   0  0  0  0  0  0  0  0  0  0  0  0
    0.1890    0.2650   -1.8390 O   0  0  0  0  0  0  0  0  0  0  0  0
    1.1520    1.3950    0.2970 H   0  0  0  0  0  0  0  0  0  0  0  0
   -0.2870   -1.1930    0.8210 H   0  0  0  0  0  0  0  0  0  0  0  0
   -0.9500    0.5470    2.3610 H   0  0  0  0  0  0  0  0  0  0  0  0
   -1.2650    1.7070    1.0740 H   0  0  0  0  0  0  0  0  0  0  0  0
   -2.4220   -1.3900    2.6320 H   0  0  0  0  0  0  0  0  0  0  0  0
   -4.8320   -2.0590    2.6800 H   0  0  0  0  0  0  0  0  0  0  0  0
   -6.4770   -0.8450    1.3320 H   0  0  0  0  0  0  0  0  0  0  0  0
   -5.7290    1.0190   -0.0510 H   0  0  0  0  0  0  0  0  0  0  0  0
   -3.3250    1.7110   -0.1200 H   0  0  0  0  0  0  0  0  0  0  0  0
   -1.7820   -0.8350   -1.5740 N   0  0  0  0  0  0  0  0  0  0  0  0
   -1.9670   -0.8890   -3.0320 C   0  0  1  0  0  0  0  0  0  0  0  0
   -1.7860   -2.3470   -3.4900 C   0  0  0  0  0  0  0  0  0  0  0  0
   -0.3980   -2.8270   -3.1300 C   0  0  0  0  0  0  0  0  0  0  0  0
   -0.2200   -4.2550   -3.5790 C   0  0  0  0  0  0  0  0  0  0  0  0
    1.1570   -4.7820   -3.2390 C   0  0  0  0  0  0  0  0  0  0  0  0
    1.4320   -4.7630   -1.8370 N   0  0  0  0  0  0  0  0  0  0  0  0
   -3.2630   -0.3600   -3.4380 C   0  0  0  0  0  0  0  0  0  0  0  0
   -3.5210   -0.3520   -4.6820 O   0  0  0  0  0  0  0  0  0  0  0  0
   -4.2170    0.1280   -2.5650 O   0  0  0  0  0  0  0  0  0  0  0  0
   -2.5090   -1.2650   -0.9700 H   0  0  0  0  0  0  0  0  0  0  0  0
   -1.1120   -0.3550   -3.4910 H   0  0  0  0  0  0  0  0  0  0  0  0
   -1.8900   -2.3310   -4.5900 H   0  0  0  0  0  0  0  0  0  0  0  0
   -2.5250   -2.9910   -2.9850 H   0  0  0  0  0  0  0  0  0  0  0  0
    0.3310   -2.2120   -3.7310 H   0  0  0  0  0  0  0  0  0  0  0  0
   -0.1410   -2.6700   -2.0830 H   0  0  0  0  0  0  0  0  0  0  0  0
   -0.3710   -4.3620   -4.6700 H   0  0  0  0  0  0  0  0  0  0  0  0
   -0.9650   -4.9090   -3.0810 H   0  0  0  0  0  0  0  0  0  0  0  0
    1.9350   -4.1550   -3.7470 H   0  0  0  0  0  0  0  0  0  0  0  0
    1.2880   -5.8090   -3.6300 H   0  0  0  0  0  0  0  0  0  0  0  0
    0.5870   -4.7050   -1.2370 H   0  0  0  0  0  0  0  0  0  0  0  0
    2.1900   -4.1090   -1.5650 H   0  0  0  0  0  0  0  0  0  0  0  0
  1 13  1  0  0  0  0
  2  1  1  0  0  0  0
  3  2  1  0  0  0  0
  3 14  1  0  0  0  0
  4  3  2  0  0  0  0
  5 11  2  0  0  0  0
  5  4  1  0  0  0  0
  6 16  1  0  0  0  0
  6  5  1  0  0  0  0
  7 18  1  6  0  0  0
  7  6  1  0  0  0  0
  8  7  1  0  0  0  0
  9  7  1  0  0  0  0
  9 10  2  0  0  0  0
 11 12  1  0  0  0  0
 12 22  1  0  0  0  0
 12  2  2  0  0  0  0
 15  4  1  0  0  0  0
 17  6  1  0  0  0  0
 19  8  1  0  0  0  0
 20  8  1  0  0  0  0
 21 11  1  0  0  0  0
 23  9  1  0  0  0  0
 24 23  1  0  0  0  0
 24 35  1  1  0  0  0
 24 25  1  0  0  0  0
 25 36  1  0  0  0  0
 26 25  1  0  0  0  0
 26 27  1  0  0  0  0
 27 28  2  0  0  0  0
 27 38  1  0  0  0  0
 28 39  1  0  0  0  0
 29 40  1  0  0  0  0
 29 28  1  0  0  0  0
 30 29  2  0  0  0  0
 31 30  1  0  0  0  0
 31 26  2  0  0  0  0
 32 24  1  0  0  0  0
 33 32  2  0  0  0  0
 34 23  1  0  0  0  0
 37 25  1  0  0  0  0
 41 30  1  0  0  0  0
 42 31  1  0  0  0  0
 43 32  1  0  0  0  0
 43 53  1  0  0  0  0
 44 54  1  6  0  0  0
 44 43  1  0  0  0  0
 45 46  1  0  0  0  0
 45 44  1  0  0  0  0
 45 56  1  0  0  0  0
 46 58  1  0  0  0  0
 47 48  1  0  0  0  0
 47 46  1  0  0  0  0
 47 60  1  0  0  0  0
 48 49  1  0  0  0  0
 49 64  1  0  0  0  0
 49 63  1  0  0  0  0
 50 44  1  0  0  0  0
 50 52  1  0  0  0  0
 51 50  2  0  0  0  0
 55 45  1  0  0  0  0
 57 46  1  0  0  0  0
 59 47  1  0  0  0  0
 61 48  1  0  0  0  0
 62 48  1  0  0  0  0
M  END
$$$$
