YFL.pdb
 OpenBabel07022419223D

 62 63  0  0  1  0  0  0  0  0999 V2000
    3.8670   -3.8890    3.3060 O   0  0  0  0  0  0  0  0  0  0  0  0
    3.7830   -2.6350    2.6940 C   0  0  0  0  0  0  0  0  0  0  0  0
    4.3550   -1.5290    3.2900 C   0  0  0  0  0  0  0  0  0  0  0  0
    4.2710   -0.2920    2.6840 C   0  0  0  0  0  0  0  0  0  0  0  0
    3.6200   -0.1270    1.4800 C   0  0  0  0  0  0  0  0  0  0  0  0
    3.5230    1.1910    0.8100 C   0  0  0  0  0  0  0  0  0  0  0  0
    2.3410    2.0050    1.2140 C   0  0  2  0  0  0  0  0  0  0  0  0
    2.3450    2.2910    2.6360 N   0  0  0  0  0  0  0  0  0  0  0  0
    1.0370    1.4660    0.8120 C   0  0  0  0  0  0  0  0  0  0  0  0
    0.8320    1.1270   -0.3690 O   0  0  0  0  0  0  0  0  0  0  0  0
    3.0560   -1.2430    0.9020 C   0  0  0  0  0  0  0  0  0  0  0  0
    3.1270   -2.5010    1.4920 C   0  0  0  0  0  0  0  0  0  0  0  0
    3.0320   -4.2740    3.7460 H   0  0  0  0  0  0  0  0  0  0  0  0
    4.8590   -1.6820    4.2330 H   0  0  0  0  0  0  0  0  0  0  0  0
    4.7340    0.5550    3.1860 H   0  0  0  0  0  0  0  0  0  0  0  0
    3.6090    1.0990   -0.2990 H   0  0  0  0  0  0  0  0  0  0  0  0
    4.4360    1.7890    1.1030 H   0  0  0  0  0  0  0  0  0  0  0  0
    2.4340    3.0060    0.7020 H   0  0  0  0  0  0  0  0  0  0  0  0
    3.3320    2.5340    2.9230 H   0  0  0  0  0  0  0  0  0  0  0  0
    1.6790    3.0480    2.8790 H   0  0  0  0  0  0  0  0  0  0  0  0
    2.5370   -1.1850   -0.0390 H   0  0  0  0  0  0  0  0  0  0  0  0
    2.6900   -3.3820    1.0490 H   0  0  0  0  0  0  0  0  0  0  0  0
   -0.0020    1.3270    1.7630 N   0  0  0  0  0  0  0  0  0  0  0  0
   -1.2830    0.7970    1.3900 C   0  0  1  0  0  0  0  0  0  0  0  0
   -2.2200    1.8050    0.8510 C   0  0  0  0  0  0  0  0  0  0  0  0
   -1.8090    2.5370   -0.3330 C   0  0  0  0  0  0  0  0  0  0  0  0
   -2.1090    2.0650   -1.5850 C   0  0  0  0  0  0  0  0  0  0  0  0
   -1.7360    2.7360   -2.7360 C   0  0  0  0  0  0  0  0  0  0  0  0
   -1.0410    3.9140   -2.6300 C   0  0  0  0  0  0  0  0  0  0  0  0
   -0.7310    4.4030   -1.3900 C   0  0  0  0  0  0  0  0  0  0  0  0
   -1.1130    3.7190   -0.2430 C   0  0  0  0  0  0  0  0  0  0  0  0
   -1.2410   -0.4960    0.6640 C   0  0  0  0  0  0  0  0  0  0  0  0
   -0.1530   -1.0590    0.4240 O   0  0  0  0  0  0  0  0  0  0  0  0
    0.1500    1.6190    2.7770 H   0  0  0  0  0  0  0  0  0  0  0  0
   -1.7460    0.4760    2.4000 H   0  0  0  0  0  0  0  0  0  0  0  0
   -2.4030    2.5680    1.6650 H   0  0  0  0  0  0  0  0  0  0  0  0
   -3.2190    1.3170    0.6930 H   0  0  0  0  0  0  0  0  0  0  0  0
   -2.6540    1.1460   -1.7440 H   0  0  0  0  0  0  0  0  0  0  0  0
   -1.9810    2.3480   -3.7080 H   0  0  0  0  0  0  0  0  0  0  0  0
   -0.7620    4.4170   -3.5530 H   0  0  0  0  0  0  0  0  0  0  0  0
   -0.1800    5.3400   -1.3530 H   0  0  0  0  0  0  0  0  0  0  0  0
   -0.8310    4.1700    0.7010 H   0  0  0  0  0  0  0  0  0  0  0  0
   -3.1530   -6.0190    0.4840 C   0  0  0  0  0  0  0  0  0  0  0  0
   -2.6260   -4.8550   -0.3580 C   0  0  0  0  0  0  0  0  0  0  0  0
   -1.2040   -5.1230   -0.7300 C   0  0  0  0  0  0  0  0  0  0  0  0
   -2.8050   -3.5510    0.3550 C   0  0  0  0  0  0  0  0  0  0  0  0
   -2.2530   -2.4350   -0.4870 C   0  0  2  0  0  0  0  0  0  0  0  0
   -2.4140   -1.1570    0.2120 N   0  0  0  0  0  0  0  0  0  0  0  0
   -2.9980   -2.3400   -1.7480 C   0  0  0  0  0  0  0  0  0  0  0  0
   -3.7420   -1.3230   -1.9640 O   0  0  0  0  0  0  0  0  0  0  0  0
   -2.9610   -3.2850   -2.7560 O   0  0  0  0  0  0  0  0  0  0  0  0
   -4.2610   -6.0780    0.4440 H   0  0  0  0  0  0  0  0  0  0  0  0
   -2.7370   -6.0270    1.4940 H   0  0  0  0  0  0  0  0  0  0  0  0
   -2.7800   -6.9400   -0.0250 H   0  0  0  0  0  0  0  0  0  0  0  0
   -3.2860   -4.8570   -1.2620 H   0  0  0  0  0  0  0  0  0  0  0  0
   -0.9480   -4.8830   -1.7720 H   0  0  0  0  0  0  0  0  0  0  0  0
   -0.5380   -4.5540   -0.0180 H   0  0  0  0  0  0  0  0  0  0  0  0
   -0.9740   -6.1950   -0.5520 H   0  0  0  0  0  0  0  0  0  0  0  0
   -3.8810   -3.4110    0.5930 H   0  0  0  0  0  0  0  0  0  0  0  0
   -2.2570   -3.5960    1.3340 H   0  0  0  0  0  0  0  0  0  0  0  0
   -1.2110   -2.6710   -0.6860 H   0  0  0  0  0  0  0  0  0  0  0  0
   -3.3420   -0.7230    0.3870 H   0  0  0  0  0  0  0  0  0  0  0  0
  1 13  1  0  0  0  0
  2  3  1  0  0  0  0
  2  1  1  0  0  0  0
  3 14  1  0  0  0  0
  4 15  1  0  0  0  0
  4  3  2  0  0  0  0
  5  4  1  0  0  0  0
  6 17  1  0  0  0  0
  6  7  1  0  0  0  0
  6  5  1  0  0  0  0
  7 18  1  6  0  0  0
  7  8  1  0  0  0  0
  8 20  1  0  0  0  0
  8 19  1  0  0  0  0
  9  7  1  0  0  0  0
  9 23  1  0  0  0  0
 10  9  2  0  0  0  0
 11  5  2  0  0  0  0
 11 12  1  0  0  0  0
 12  2  2  0  0  0  0
 16  6  1  0  0  0  0
 21 11  1  0  0  0  0
 22 12  1  0  0  0  0
 23 34  1  0  0  0  0
 24 23  1  0  0  0  0
 24 35  1  1  0  0  0
 25 24  1  0  0  0  0
 25 36  1  0  0  0  0
 26 31  1  0  0  0  0
 26 25  1  0  0  0  0
 27 26  2  0  0  0  0
 28 29  2  0  0  0  0
 28 27  1  0  0  0  0
 29 30  1  0  0  0  0
 30 41  1  0  0  0  0
 30 31  2  0  0  0  0
 31 42  1  0  0  0  0
 32 24  1  0  0  0  0
 33 32  2  0  0  0  0
 37 25  1  0  0  0  0
 38 27  1  0  0  0  0
 39 28  1  0  0  0  0
 40 29  1  0  0  0  0
 43 53  1  0  0  0  0
 44 46  1  0  0  0  0
 44 43  1  0  0  0  0
 45 58  1  0  0  0  0
 45 44  1  0  0  0  0
 45 57  1  0  0  0  0
 46 59  1  0  0  0  0
 46 60  1  0  0  0  0
 47 61  1  6  0  0  0
 47 48  1  0  0  0  0
 47 46  1  0  0  0  0
 48 62  1  0  0  0  0
 48 32  1  0  0  0  0
 49 47  1  0  0  0  0
 50 49  1  0  0  0  0
 51 49  2  0  0  0  0
 52 43  1  0  0  0  0
 54 43  1  0  0  0  0
 55 44  1  0  0  0  0
 56 45  1  0  0  0  0
M  END
$$$$
