YFM.pdb
 OpenBabel07022419223D

 60 61  0  0  1  0  0  0  0  0999 V2000
    3.1540   -4.0270    4.2610 O   0  0  0  0  0  0  0  0  0  0  0  0
    3.0650   -2.7460    3.6850 C   0  0  0  0  0  0  0  0  0  0  0  0
    3.2310   -1.6000    4.4280 C   0  0  0  0  0  0  0  0  0  0  0  0
    3.1520   -0.3280    3.9050 C   0  0  0  0  0  0  0  0  0  0  0  0
    2.8910   -0.1930    2.5590 C   0  0  0  0  0  0  0  0  0  0  0  0
    2.8020    1.1410    1.9570 C   0  0  0  0  0  0  0  0  0  0  0  0
    1.4550    1.7710    1.9660 C   0  0  2  0  0  0  0  0  0  0  0  0
    0.9650    1.9330    3.3220 N   0  0  0  0  0  0  0  0  0  0  0  0
    0.4550    1.1750    1.0760 C   0  0  0  0  0  0  0  0  0  0  0  0
    0.7660    0.9510   -0.1120 O   0  0  0  0  0  0  0  0  0  0  0  0
    2.7200   -1.3220    1.7900 C   0  0  0  0  0  0  0  0  0  0  0  0
    2.8050   -2.5790    2.3430 C   0  0  0  0  0  0  0  0  0  0  0  0
    2.2490   -4.4430    4.4930 H   0  0  0  0  0  0  0  0  0  0  0  0
    3.4360   -1.7250    5.4840 H   0  0  0  0  0  0  0  0  0  0  0  0
    3.2940    0.5580    4.5470 H   0  0  0  0  0  0  0  0  0  0  0  0
    3.1820    1.0800    0.9110 H   0  0  0  0  0  0  0  0  0  0  0  0
    3.4970    1.8180    2.4970 H   0  0  0  0  0  0  0  0  0  0  0  0
    1.6080    2.8290    1.5930 H   0  0  0  0  0  0  0  0  0  0  0  0
    0.8400    1.0330    3.8030 H   0  0  0  0  0  0  0  0  0  0  0  0
    0.1120    2.5180    3.3140 H   0  0  0  0  0  0  0  0  0  0  0  0
    2.5130   -1.2700    0.7180 H   0  0  0  0  0  0  0  0  0  0  0  0
    2.6670   -3.4690    1.7230 H   0  0  0  0  0  0  0  0  0  0  0  0
   -0.8630    0.8410    1.5110 N   0  0  0  0  0  0  0  0  0  0  0  0
   -1.8820    0.2450    0.6810 C   0  0  1  0  0  0  0  0  0  0  0  0
   -2.6380    1.2240   -0.1130 C   0  0  0  0  0  0  0  0  0  0  0  0
   -1.9120    2.0640   -1.0550 C   0  0  0  0  0  0  0  0  0  0  0  0
   -1.7160    1.6700   -2.3430 C   0  0  0  0  0  0  0  0  0  0  0  0
   -1.0380    2.4550   -3.2350 C   0  0  0  0  0  0  0  0  0  0  0  0
   -0.5470    3.6710   -2.8040 C   0  0  0  0  0  0  0  0  0  0  0  0
   -0.7340    4.0910   -1.5020 C   0  0  0  0  0  0  0  0  0  0  0  0
   -1.4230    3.2730   -0.6310 C   0  0  0  0  0  0  0  0  0  0  0  0
   -1.3540   -0.9470    0.0290 C   0  0  0  0  0  0  0  0  0  0  0  0
   -0.1970   -1.3300    0.3230 O   0  0  0  0  0  0  0  0  0  0  0  0
   -1.0960    1.0590    2.5360 H   0  0  0  0  0  0  0  0  0  0  0  0
   -2.6130   -0.2080    1.4630 H   0  0  0  0  0  0  0  0  0  0  0  0
   -3.1710    1.9060    0.6170 H   0  0  0  0  0  0  0  0  0  0  0  0
   -3.5000    0.6840   -0.6120 H   0  0  0  0  0  0  0  0  0  0  0  0
   -2.0890    0.7250   -2.7110 H   0  0  0  0  0  0  0  0  0  0  0  0
   -0.8780    2.1340   -4.2840 H   0  0  0  0  0  0  0  0  0  0  0  0
   -0.0040    4.2930   -3.5280 H   0  0  0  0  0  0  0  0  0  0  0  0
   -0.3260    5.0560   -1.2210 H   0  0  0  0  0  0  0  0  0  0  0  0
   -1.5640    3.6250    0.4080 H   0  0  0  0  0  0  0  0  0  0  0  0
    0.1690   -6.0200    0.6030 C   0  0  0  0  0  0  0  0  0  0  0  0
   -0.7490   -4.5630    1.1140 S   0  0  0  0  0  0  0  0  0  0  0  0
   -2.3350   -4.3980    0.2960 C   0  0  0  0  0  0  0  0  0  0  0  0
   -2.2260   -4.1450   -1.1810 C   0  0  0  0  0  0  0  0  0  0  0  0
   -1.4690   -2.8720   -1.5050 C   0  0  2  0  0  0  0  0  0  0  0  0
   -2.1010   -1.7110   -0.9390 N   0  0  0  0  0  0  0  0  0  0  0  0
   -1.4280   -2.8030   -3.0010 C   0  0  0  0  0  0  0  0  0  0  0  0
   -1.9080   -1.8360   -3.6440 O   0  0  0  0  0  0  0  0  0  0  0  0
   -0.8530   -3.8160   -3.7570 O   0  0  0  0  0  0  0  0  0  0  0  0
   -0.4490   -6.7410    0.0510 H   0  0  0  0  0  0  0  0  0  0  0  0
    0.5410   -6.5440    1.5310 H   0  0  0  0  0  0  0  0  0  0  0  0
    1.0940   -5.7680    0.0350 H   0  0  0  0  0  0  0  0  0  0  0  0
   -2.9380   -3.6440    0.8340 H   0  0  0  0  0  0  0  0  0  0  0  0
   -2.9040   -5.3640    0.3980 H   0  0  0  0  0  0  0  0  0  0  0  0
   -1.6310   -4.9790   -1.6100 H   0  0  0  0  0  0  0  0  0  0  0  0
   -3.2100   -4.1540   -1.6450 H   0  0  0  0  0  0  0  0  0  0  0  0
   -0.4530   -3.0000   -1.1160 H   0  0  0  0  0  0  0  0  0  0  0  0
   -3.0510   -1.3840   -1.1760 H   0  0  0  0  0  0  0  0  0  0  0  0
  1 13  1  0  0  0  0
  2  1  1  0  0  0  0
  2  3  1  0  0  0  0
  3 14  1  0  0  0  0
  4  3  2  0  0  0  0
  4 15  1  0  0  0  0
  5  4  1  0  0  0  0
  6  7  1  0  0  0  0
  6 17  1  0  0  0  0
  6  5  1  0  0  0  0
  7 18  1  6  0  0  0
  7  8  1  0  0  0  0
  8 19  1  0  0  0  0
  9 23  1  0  0  0  0
  9  7  1  0  0  0  0
 10  9  2  0  0  0  0
 11 12  1  0  0  0  0
 11  5  2  0  0  0  0
 12  2  2  0  0  0  0
 16  6  1  0  0  0  0
 20  8  1  0  0  0  0
 21 11  1  0  0  0  0
 22 12  1  0  0  0  0
 23 34  1  0  0  0  0
 24 35  1  1  0  0  0
 24 23  1  0  0  0  0
 25 36  1  0  0  0  0
 25 24  1  0  0  0  0
 26 31  1  0  0  0  0
 26 25  1  0  0  0  0
 27 26  2  0  0  0  0
 28 29  2  0  0  0  0
 28 27  1  0  0  0  0
 29 30  1  0  0  0  0
 30 41  1  0  0  0  0
 30 31  2  0  0  0  0
 31 42  1  0  0  0  0
 32 33  2  0  0  0  0
 32 24  1  0  0  0  0
 37 25  1  0  0  0  0
 38 27  1  0  0  0  0
 39 28  1  0  0  0  0
 40 29  1  0  0  0  0
 43 44  1  0  0  0  0
 43 53  1  0  0  0  0
 45 56  1  0  0  0  0
 45 55  1  0  0  0  0
 45 44  1  0  0  0  0
 46 45  1  0  0  0  0
 47 46  1  0  0  0  0
 47 59  1  1  0  0  0
 47 48  1  0  0  0  0
 48 32  1  0  0  0  0
 49 47  1  0  0  0  0
 50 49  1  0  0  0  0
 51 49  2  0  0  0  0
 52 43  1  0  0  0  0
 54 43  1  0  0  0  0
 57 46  1  0  0  0  0
 58 46  1  0  0  0  0
 60 48  1  0  0  0  0
M  END
$$$$
