YFR.pdb
 OpenBabel07022419223D

 66 67  0  0  1  0  0  0  0  0999 V2000
    4.4490   -1.9480    4.1930 O   0  0  0  0  0  0  0  0  0  0  0  0
    4.1030   -0.7750    3.5070 C   0  0  0  0  0  0  0  0  0  0  0  0
    5.0300   -0.0550    2.7800 C   0  0  0  0  0  0  0  0  0  0  0  0
    4.6720    1.0950    2.1120 C   0  0  0  0  0  0  0  0  0  0  0  0
    3.3510    1.5550    2.1600 C   0  0  0  0  0  0  0  0  0  0  0  0
    2.9860    2.8040    1.4500 C   0  0  0  0  0  0  0  0  0  0  0  0
    2.6040    2.6490    0.0300 C   0  0  2  0  0  0  0  0  0  0  0  0
    2.2820    3.9620   -0.5280 N   0  0  0  0  0  0  0  0  0  0  0  0
    1.4720    1.7130   -0.1940 C   0  0  0  0  0  0  0  0  0  0  0  0
    1.6030    0.5590    0.2730 O   0  0  0  0  0  0  0  0  0  0  0  0
    2.4540    0.8170    2.8900 C   0  0  0  0  0  0  0  0  0  0  0  0
    2.8030   -0.3220    3.5530 C   0  0  0  0  0  0  0  0  0  0  0  0
    4.0320   -2.1460    5.0950 H   0  0  0  0  0  0  0  0  0  0  0  0
    6.0490   -0.4380    2.7610 H   0  0  0  0  0  0  0  0  0  0  0  0
    5.4060    1.6560    1.5420 H   0  0  0  0  0  0  0  0  0  0  0  0
    3.7990    3.5380    1.6070 H   0  0  0  0  0  0  0  0  0  0  0  0
    2.0980    3.2570    1.9830 H   0  0  0  0  0  0  0  0  0  0  0  0
    3.4980    2.3080   -0.5330 H   0  0  0  0  0  0  0  0  0  0  0  0
    2.2310    3.8510   -1.5640 H   0  0  0  0  0  0  0  0  0  0  0  0
    3.0870    4.5840   -0.3310 H   0  0  0  0  0  0  0  0  0  0  0  0
    1.4310    1.1560    2.9430 H   0  0  0  0  0  0  0  0  0  0  0  0
    2.0640   -0.9050    4.1390 H   0  0  0  0  0  0  0  0  0  0  0  0
    0.3480    2.1720   -0.9040 N   0  0  0  0  0  0  0  0  0  0  0  0
   -0.7780    1.2300   -1.1260 C   0  0  1  0  0  0  0  0  0  0  0  0
   -0.4350    0.4820   -2.3210 C   0  0  0  0  0  0  0  0  0  0  0  0
   -1.3380   -0.4930   -2.9050 C   0  0  0  0  0  0  0  0  0  0  0  0
   -1.2070   -1.8330   -2.7060 C   0  0  0  0  0  0  0  0  0  0  0  0
   -2.0570   -2.7770   -3.2680 C   0  0  0  0  0  0  0  0  0  0  0  0
   -3.0880   -2.2910   -4.0720 C   0  0  0  0  0  0  0  0  0  0  0  0
   -3.2280   -0.9380   -4.2790 C   0  0  0  0  0  0  0  0  0  0  0  0
   -2.3740   -0.0480   -3.7100 C   0  0  0  0  0  0  0  0  0  0  0  0
   -1.1060    0.6810    0.1590 C   0  0  0  0  0  0  0  0  0  0  0  0
   -0.6650    1.3230    1.2000 O   0  0  0  0  0  0  0  0  0  0  0  0
    0.3140    3.1430   -1.2610 H   0  0  0  0  0  0  0  0  0  0  0  0
   -1.6340    2.0060   -1.3780 H   0  0  0  0  0  0  0  0  0  0  0  0
   -0.2320    1.2520   -3.1430 H   0  0  0  0  0  0  0  0  0  0  0  0
    0.6030    0.0450   -2.1640 H   0  0  0  0  0  0  0  0  0  0  0  0
   -0.4040   -2.2570   -2.0750 H   0  0  0  0  0  0  0  0  0  0  0  0
   -1.9420   -3.8410   -3.1110 H   0  0  0  0  0  0  0  0  0  0  0  0
   -3.7440   -3.0320   -4.5050 H   0  0  0  0  0  0  0  0  0  0  0  0
   -4.0670   -0.6380   -4.9260 H   0  0  0  0  0  0  0  0  0  0  0  0
   -2.4850    1.0000   -3.8730 H   0  0  0  0  0  0  0  0  0  0  0  0
    0.6320   -4.3400    0.8100 N   0  0  0  0  0  0  0  0  0  0  0  0
   -0.8020   -4.2600    0.7330 C   0  0  0  0  0  0  0  0  0  0  0  0
   -1.3760   -4.3520   -0.4080 N   0  0  0  0  0  0  0  0  0  0  0  0
   -1.5440   -4.1050    1.9160 N   0  0  0  0  0  0  0  0  0  0  0  0
   -2.9470   -3.9680    1.9660 C   0  0  0  0  0  0  0  0  0  0  0  0
   -3.6630   -2.7890    1.4800 C   0  0  0  0  0  0  0  0  0  0  0  0
   -3.3870   -1.4760    2.0860 C   0  0  0  0  0  0  0  0  0  0  0  0
   -2.1000   -0.8000    1.8770 C   0  0  2  0  0  0  0  0  0  0  0  0
   -1.8560   -0.4770    0.4600 N   0  0  0  0  0  0  0  0  0  0  0  0
   -0.9140   -1.3310    2.5480 C   0  0  0  0  0  0  0  0  0  0  0  0
    0.2040   -1.5200    2.0520 O   0  0  0  0  0  0  0  0  0  0  0  0
   -1.0420   -1.6690    3.9120 O   0  0  0  0  0  0  0  0  0  0  0  0
    1.0520   -4.8260    1.6290 H   0  0  0  0  0  0  0  0  0  0  0  0
    1.2620   -3.9400    0.0950 H   0  0  0  0  0  0  0  0  0  0  0  0
   -0.7630   -4.4860   -1.2650 H   0  0  0  0  0  0  0  0  0  0  0  0
   -0.9730   -4.1250    2.8280 H   0  0  0  0  0  0  0  0  0  0  0  0
   -3.2860   -4.1480    3.0470 H   0  0  0  0  0  0  0  0  0  0  0  0
   -3.3560   -4.9020    1.4500 H   0  0  0  0  0  0  0  0  0  0  0  0
   -3.6310   -2.7030    0.3460 H   0  0  0  0  0  0  0  0  0  0  0  0
   -4.7850   -2.9810    1.6370 H   0  0  0  0  0  0  0  0  0  0  0  0
   -4.1900   -0.7210    1.7570 H   0  0  0  0  0  0  0  0  0  0  0  0
   -3.6280   -1.5430    3.2100 H   0  0  0  0  0  0  0  0  0  0  0  0
   -2.2190    0.2550    2.3390 H   0  0  0  0  0  0  0  0  0  0  0  0
   -2.2460   -1.0930   -0.2720 H   0  0  0  0  0  0  0  0  0  0  0  0
  1 13  1  0  0  0  0
  2 12  1  0  0  0  0
  2  1  1  0  0  0  0
  3  2  2  0  0  0  0
  4  5  2  0  0  0  0
  4  3  1  0  0  0  0
  5 11  1  0  0  0  0
  6 16  1  0  0  0  0
  6 17  1  0  0  0  0
  6  5  1  0  0  0  0
  7 18  1  6  0  0  0
  7  6  1  0  0  0  0
  8 20  1  0  0  0  0
  8  7  1  0  0  0  0
  9  7  1  0  0  0  0
  9 10  2  0  0  0  0
 11 21  1  0  0  0  0
 11 12  2  0  0  0  0
 12 22  1  0  0  0  0
 14  3  1  0  0  0  0
 15  4  1  0  0  0  0
 19  8  1  0  0  0  0
 23  9  1  0  0  0  0
 24 35  1  6  0  0  0
 24 23  1  0  0  0  0
 24 32  1  0  0  0  0
 25 37  1  0  0  0  0
 25 24  1  0  0  0  0
 26 27  1  0  0  0  0
 26 25  1  0  0  0  0
 27 38  1  0  0  0  0
 28 39  1  0  0  0  0
 28 27  2  0  0  0  0
 29 28  1  0  0  0  0
 30 29  2  0  0  0  0
 30 31  1  0  0  0  0
 31 26  2  0  0  0  0
 32 51  1  0  0  0  0
 32 33  2  0  0  0  0
 34 23  1  0  0  0  0
 36 25  1  0  0  0  0
 40 29  1  0  0  0  0
 41 30  1  0  0  0  0
 42 31  1  0  0  0  0
 43 55  1  0  0  0  0
 44 43  1  0  0  0  0
 44 46  1  0  0  0  0
 45 44  2  0  0  0  0
 46 47  1  0  0  0  0
 46 58  1  0  0  0  0
 47 59  1  0  0  0  0
 48 62  1  0  0  0  0
 48 47  1  0  0  0  0
 48 49  1  0  0  0  0
 49 64  1  0  0  0  0
 50 49  1  0  0  0  0
 50 65  1  1  0  0  0
 50 52  1  0  0  0  0
 51 50  1  0  0  0  0
 52 54  1  0  0  0  0
 53 52  2  0  0  0  0
 56 43  1  0  0  0  0
 57 45  1  0  0  0  0
 60 47  1  0  0  0  0
 61 48  1  0  0  0  0
 63 49  1  0  0  0  0
 66 51  1  0  0  0  0
M  END
$$$$
