YFT.pdb
 OpenBabel07022419223D

 57 58  0  0  1  0  0  0  0  0999 V2000
    5.0330   -3.4380    1.8950 O   0  0  0  0  0  0  0  0  0  0  0  0
    4.5960   -2.2550    1.3110 C   0  0  0  0  0  0  0  0  0  0  0  0
    3.6880   -2.2670    0.2570 C   0  0  0  0  0  0  0  0  0  0  0  0
    3.2380   -1.1100   -0.3370 C   0  0  0  0  0  0  0  0  0  0  0  0
    3.6740    0.1280    0.0890 C   0  0  0  0  0  0  0  0  0  0  0  0
    3.1700    1.3640   -0.5550 C   0  0  0  0  0  0  0  0  0  0  0  0
    2.0200    2.0220    0.0940 C   0  0  2  0  0  0  0  0  0  0  0  0
    2.3910    2.3920    1.4640 N   0  0  0  0  0  0  0  0  0  0  0  0
    0.7120    1.3900    0.0350 C   0  0  0  0  0  0  0  0  0  0  0  0
    0.1970    1.0550   -1.0500 O   0  0  0  0  0  0  0  0  0  0  0  0
    4.5750    0.1600    1.1340 C   0  0  0  0  0  0  0  0  0  0  0  0
    5.0170   -1.0070    1.7200 C   0  0  0  0  0  0  0  0  0  0  0  0
    4.7370   -3.6910    2.8410 H   0  0  0  0  0  0  0  0  0  0  0  0
    3.3660   -3.2580   -0.0590 H   0  0  0  0  0  0  0  0  0  0  0  0
    2.5280   -1.1650   -1.1620 H   0  0  0  0  0  0  0  0  0  0  0  0
    4.0200    2.1170   -0.5430 H   0  0  0  0  0  0  0  0  0  0  0  0
    3.0110    1.1400   -1.6290 H   0  0  0  0  0  0  0  0  0  0  0  0
    1.9340    3.0470   -0.4190 H   0  0  0  0  0  0  0  0  0  0  0  0
    3.3230    2.8750    1.3770 H   0  0  0  0  0  0  0  0  0  0  0  0
    1.6720    3.0310    1.8890 H   0  0  0  0  0  0  0  0  0  0  0  0
    4.9480    1.1200    1.5040 H   0  0  0  0  0  0  0  0  0  0  0  0
    5.7360   -0.9860    2.5520 H   0  0  0  0  0  0  0  0  0  0  0  0
   -0.0290    1.1420    1.2380 N   0  0  0  0  0  0  0  0  0  0  0  0
   -1.3360    0.5600    1.3100 C   0  0  1  0  0  0  0  0  0  0  0  0
   -2.3390    1.3800    0.4990 C   0  0  0  0  0  0  0  0  0  0  0  0
   -3.7110    0.8300    0.5350 C   0  0  0  0  0  0  0  0  0  0  0  0
   -4.5660    1.1890    1.5760 C   0  0  0  0  0  0  0  0  0  0  0  0
   -5.8510    0.7100    1.6290 C   0  0  0  0  0  0  0  0  0  0  0  0
   -6.3380   -0.1390    0.6580 C   0  0  0  0  0  0  0  0  0  0  0  0
   -5.5200   -0.5110   -0.3800 C   0  0  0  0  0  0  0  0  0  0  0  0
   -4.2350   -0.0230   -0.4190 C   0  0  0  0  0  0  0  0  0  0  0  0
   -1.4360   -0.8670    1.0230 C   0  0  0  0  0  0  0  0  0  0  0  0
   -2.5580   -1.4190    1.1820 O   0  0  0  0  0  0  0  0  0  0  0  0
    0.4590    1.4240    2.1470 H   0  0  0  0  0  0  0  0  0  0  0  0
   -1.6920    0.6940    2.3850 H   0  0  0  0  0  0  0  0  0  0  0  0
   -2.3560    2.4200    0.9380 H   0  0  0  0  0  0  0  0  0  0  0  0
   -2.0090    1.4860   -0.5320 H   0  0  0  0  0  0  0  0  0  0  0  0
   -4.2180    1.8590    2.3650 H   0  0  0  0  0  0  0  0  0  0  0  0
   -6.4740    1.0170    2.4550 H   0  0  0  0  0  0  0  0  0  0  0  0
   -7.3680   -0.4860    0.7580 H   0  0  0  0  0  0  0  0  0  0  0  0
   -5.8960   -1.1690   -1.1320 H   0  0  0  0  0  0  0  0  0  0  0  0
   -3.5570   -0.2970   -1.2350 H   0  0  0  0  0  0  0  0  0  0  0  0
   -1.4940   -3.0220   -2.0310 C   0  0  0  0  0  0  0  0  0  0  0  0
   -0.4260   -3.5300   -1.1080 C   0  0  1  0  0  0  0  0  0  0  0  0
    0.8530   -3.2900   -1.5950 O   0  0  0  0  0  0  0  0  0  0  0  0
   -0.6140   -3.1190    0.3290 C   0  0  2  0  0  0  0  0  0  0  0  0
   -0.3850   -1.7130    0.5770 N   0  0  0  0  0  0  0  0  0  0  0  0
    0.2290   -3.9890    1.1650 C   0  0  0  0  0  0  0  0  0  0  0  0
    0.0940   -5.2310    1.0580 O   0  0  0  0  0  0  0  0  0  0  0  0
    1.1680   -3.5100    2.0670 O   0  0  0  0  0  0  0  0  0  0  0  0
   -2.4720   -3.2590   -1.5740 H   0  0  0  0  0  0  0  0  0  0  0  0
   -1.4310   -3.6570   -2.9500 H   0  0  0  0  0  0  0  0  0  0  0  0
   -1.3820   -1.9590   -2.3270 H   0  0  0  0  0  0  0  0  0  0  0  0
   -0.5460   -4.6500   -1.1090 H   0  0  0  0  0  0  0  0  0  0  0  0
    0.8740   -2.8320   -2.4710 H   0  0  0  0  0  0  0  0  0  0  0  0
   -1.6740   -3.3360    0.5720 H   0  0  0  0  0  0  0  0  0  0  0  0
    0.5350   -1.2390    0.4510 H   0  0  0  0  0  0  0  0  0  0  0  0
  1 13  1  0  0  0  0
  2 12  1  0  0  0  0
  2  1  1  0  0  0  0
  3  2  2  0  0  0  0
  4  5  2  0  0  0  0
  4  3  1  0  0  0  0
  5 11  1  0  0  0  0
  6 16  1  0  0  0  0
  6  5  1  0  0  0  0
  6  7  1  0  0  0  0
  7 18  1  6  0  0  0
  7  8  1  0  0  0  0
  8 20  1  0  0  0  0
  9  7  1  0  0  0  0
  9 23  1  0  0  0  0
 10  9  2  0  0  0  0
 11 21  1  0  0  0  0
 11 12  2  0  0  0  0
 12 22  1  0  0  0  0
 14  3  1  0  0  0  0
 15  4  1  0  0  0  0
 17  6  1  0  0  0  0
 19  8  1  0  0  0  0
 23 24  1  0  0  0  0
 23 34  1  0  0  0  0
 24 35  1  1  0  0  0
 25 26  1  0  0  0  0
 25 36  1  0  0  0  0
 25 24  1  0  0  0  0
 26 27  1  0  0  0  0
 27 28  2  0  0  0  0
 27 38  1  0  0  0  0
 28 39  1  0  0  0  0
 29 40  1  0  0  0  0
 29 28  1  0  0  0  0
 30 29  2  0  0  0  0
 31 30  1  0  0  0  0
 31 26  2  0  0  0  0
 32 33  2  0  0  0  0
 32 24  1  0  0  0  0
 37 25  1  0  0  0  0
 41 30  1  0  0  0  0
 42 31  1  0  0  0  0
 43 51  1  0  0  0  0
 43 44  1  0  0  0  0
 44 54  1  6  0  0  0
 44 46  1  0  0  0  0
 45 44  1  0  0  0  0
 46 56  1  1  0  0  0
 46 47  1  0  0  0  0
 46 48  1  0  0  0  0
 47 32  1  0  0  0  0
 48 50  1  0  0  0  0
 49 48  2  0  0  0  0
 52 43  1  0  0  0  0
 53 43  1  0  0  0  0
 55 45  1  0  0  0  0
 57 47  1  0  0  0  0
M  END
$$$$
