YFV.pdb
 OpenBabel07022419223D

 59 60  0  0  1  0  0  0  0  0999 V2000
    0.7390   -4.3060    4.8330 O   0  0  0  0  0  0  0  0  0  0  0  0
    1.4060   -3.2350    4.2350 C   0  0  0  0  0  0  0  0  0  0  0  0
    1.5970   -3.1840    2.8590 C   0  0  0  0  0  0  0  0  0  0  0  0
    2.2490   -2.1430    2.2320 C   0  0  0  0  0  0  0  0  0  0  0  0
    2.7440   -1.0980    2.9710 C   0  0  0  0  0  0  0  0  0  0  0  0
    3.4570    0.0280    2.3090 C   0  0  0  0  0  0  0  0  0  0  0  0
    2.6240    1.1930    1.9370 C   0  0  2  0  0  0  0  0  0  0  0  0
    1.9900    1.7240    3.1430 N   0  0  0  0  0  0  0  0  0  0  0  0
    1.7050    1.0340    0.8020 C   0  0  0  0  0  0  0  0  0  0  0  0
    2.1960    0.6340   -0.2850 O   0  0  0  0  0  0  0  0  0  0  0  0
    2.5670   -1.1250    4.3370 C   0  0  0  0  0  0  0  0  0  0  0  0
    1.9160   -2.1680    4.9360 C   0  0  0  0  0  0  0  0  0  0  0  0
    0.1430   -4.0440    5.6160 H   0  0  0  0  0  0  0  0  0  0  0  0
    1.1860   -4.0490    2.3260 H   0  0  0  0  0  0  0  0  0  0  0  0
    2.3630   -2.1660    1.1490 H   0  0  0  0  0  0  0  0  0  0  0  0
    4.0920   -0.3360    1.4510 H   0  0  0  0  0  0  0  0  0  0  0  0
    4.2250    0.3980    3.0510 H   0  0  0  0  0  0  0  0  0  0  0  0
    3.3890    2.0250    1.6950 H   0  0  0  0  0  0  0  0  0  0  0  0
    2.7950    1.8890    3.8080 H   0  0  0  0  0  0  0  0  0  0  0  0
    1.5380    2.6440    3.0090 H   0  0  0  0  0  0  0  0  0  0  0  0
    2.9630   -0.2890    4.9290 H   0  0  0  0  0  0  0  0  0  0  0  0
    1.7740   -2.1900    6.0260 H   0  0  0  0  0  0  0  0  0  0  0  0
    0.3220    1.3230    0.9240 N   0  0  0  0  0  0  0  0  0  0  0  0
   -0.6800    1.2520   -0.0780 C   0  0  1  0  0  0  0  0  0  0  0  0
   -0.2180    1.8270   -1.4210 C   0  0  0  0  0  0  0  0  0  0  0  0
   -1.2330    1.7850   -2.4720 C   0  0  0  0  0  0  0  0  0  0  0  0
   -2.1970    2.7720   -2.6310 C   0  0  0  0  0  0  0  0  0  0  0  0
   -3.1350    2.7540   -3.6280 C   0  0  0  0  0  0  0  0  0  0  0  0
   -3.1230    1.7050   -4.5220 C   0  0  0  0  0  0  0  0  0  0  0  0
   -2.1850    0.7100   -4.3970 C   0  0  0  0  0  0  0  0  0  0  0  0
   -1.2450    0.7430   -3.3830 C   0  0  0  0  0  0  0  0  0  0  0  0
   -1.3540   -0.0150   -0.2690 C   0  0  0  0  0  0  0  0  0  0  0  0
   -2.3000   -0.1090   -1.0900 O   0  0  0  0  0  0  0  0  0  0  0  0
    0.0180    1.6350    1.9110 H   0  0  0  0  0  0  0  0  0  0  0  0
   -1.4750    2.0280    0.2180 H   0  0  0  0  0  0  0  0  0  0  0  0
    0.0270    2.9260   -1.2740 H   0  0  0  0  0  0  0  0  0  0  0  0
    0.7140    1.3480   -1.7330 H   0  0  0  0  0  0  0  0  0  0  0  0
   -2.1920    3.5840   -1.9290 H   0  0  0  0  0  0  0  0  0  0  0  0
   -3.8910    3.5420   -3.7380 H   0  0  0  0  0  0  0  0  0  0  0  0
   -3.8630    1.6720   -5.3250 H   0  0  0  0  0  0  0  0  0  0  0  0
   -2.1790   -0.1140   -5.0970 H   0  0  0  0  0  0  0  0  0  0  0  0
   -0.5300   -0.0610   -3.3370 H   0  0  0  0  0  0  0  0  0  0  0  0
   -0.1490   -2.9870   -1.6750 C   0  0  0  0  0  0  0  0  0  0  0  0
   -0.8020   -3.4920   -0.4080 C   0  0  0  0  0  0  0  0  0  0  0  0
   -1.6370   -4.7210   -0.7250 C   0  0  0  0  0  0  0  0  0  0  0  0
   -1.7550   -2.4250    0.1510 C   0  0  2  0  0  0  0  0  0  0  0  0
   -1.0030   -1.2080    0.4370 N   0  0  0  0  0  0  0  0  0  0  0  0
   -2.3150   -2.9480    1.4020 C   0  0  0  0  0  0  0  0  0  0  0  0
   -2.9970   -4.0020    1.4010 O   0  0  0  0  0  0  0  0  0  0  0  0
   -2.1170   -2.3100    2.6160 O   0  0  0  0  0  0  0  0  0  0  0  0
   -0.3700   -1.9120   -1.8450 H   0  0  0  0  0  0  0  0  0  0  0  0
    0.9620   -3.1150   -1.5380 H   0  0  0  0  0  0  0  0  0  0  0  0
   -0.4500   -3.6380   -2.5190 H   0  0  0  0  0  0  0  0  0  0  0  0
   -0.0720   -3.7780    0.3470 H   0  0  0  0  0  0  0  0  0  0  0  0
   -1.5690   -5.4450    0.0970 H   0  0  0  0  0  0  0  0  0  0  0  0
   -2.6900   -4.4340   -0.8550 H   0  0  0  0  0  0  0  0  0  0  0  0
   -1.2350   -5.2070   -1.6650 H   0  0  0  0  0  0  0  0  0  0  0  0
   -2.5160   -2.2560   -0.6270 H   0  0  0  0  0  0  0  0  0  0  0  0
   -0.2320   -1.1560    1.1190 H   0  0  0  0  0  0  0  0  0  0  0  0
  1 13  1  0  0  0  0
  2  1  1  0  0  0  0
  2 12  1  0  0  0  0
  3  2  2  0  0  0  0
  4  3  1  0  0  0  0
  4  5  2  0  0  0  0
  5 11  1  0  0  0  0
  6  5  1  0  0  0  0
  6 17  1  0  0  0  0
  7 18  1  6  0  0  0
  7  6  1  0  0  0  0
  7  8  1  0  0  0  0
  8 19  1  0  0  0  0
  9 23  1  0  0  0  0
  9  7  1  0  0  0  0
 10  9  2  0  0  0  0
 11 21  1  0  0  0  0
 11 12  2  0  0  0  0
 12 22  1  0  0  0  0
 14  3  1  0  0  0  0
 15  4  1  0  0  0  0
 16  6  1  0  0  0  0
 20  8  1  0  0  0  0
 23 34  1  0  0  0  0
 24 35  1  1  0  0  0
 24 23  1  0  0  0  0
 25 36  1  0  0  0  0
 25 24  1  0  0  0  0
 26 25  1  0  0  0  0
 27 26  1  0  0  0  0
 27 38  1  0  0  0  0
 28 27  2  0  0  0  0
 29 30  2  0  0  0  0
 29 28  1  0  0  0  0
 30 31  1  0  0  0  0
 31 42  1  0  0  0  0
 31 26  2  0  0  0  0
 32 24  1  0  0  0  0
 32 47  1  0  0  0  0
 33 32  2  0  0  0  0
 37 25  1  0  0  0  0
 39 28  1  0  0  0  0
 40 29  1  0  0  0  0
 41 30  1  0  0  0  0
 43 52  1  0  0  0  0
 43 44  1  0  0  0  0
 44 46  1  0  0  0  0
 44 54  1  0  0  0  0
 45 44  1  0  0  0  0
 45 55  1  0  0  0  0
 46 58  1  6  0  0  0
 46 47  1  0  0  0  0
 46 48  1  0  0  0  0
 47 59  1  0  0  0  0
 48 50  1  0  0  0  0
 49 48  2  0  0  0  0
 51 43  1  0  0  0  0
 53 43  1  0  0  0  0
 56 45  1  0  0  0  0
 57 45  1  0  0  0  0
M  END
$$$$
