YFW.pdb
 OpenBabel07022419223D

 67 70  0  0  1  0  0  0  0  0999 V2000
    9.2730   -0.3000    3.7810 O   0  0  0  0  0  0  0  0  0  0  0  0
    8.0210   -0.4910    3.1720 C   0  0  0  0  0  0  0  0  0  0  0  0
    7.4170   -1.7330    3.2540 C   0  0  0  0  0  0  0  0  0  0  0  0
    6.1710   -2.0000    2.6740 C   0  0  0  0  0  0  0  0  0  0  0  0
    5.5540   -0.9680    2.0090 C   0  0  0  0  0  0  0  0  0  0  0  0
    4.1980   -1.2090    1.3980 C   0  0  0  0  0  0  0  0  0  0  0  0
    3.1050   -0.8080    2.3060 C   0  0  2  0  0  0  0  0  0  0  0  0
    3.1080   -1.5190    3.5540 N   0  0  0  0  0  0  0  0  0  0  0  0
    1.7810   -0.6120    1.7320 C   0  0  0  0  0  0  0  0  0  0  0  0
    0.7950   -0.6490    2.5410 O   0  0  0  0  0  0  0  0  0  0  0  0
    6.1500    0.2810    1.9210 C   0  0  0  0  0  0  0  0  0  0  0  0
    7.3830    0.5220    2.5010 C   0  0  0  0  0  0  0  0  0  0  0  0
    9.6680   -0.9560    4.4240 H   0  0  0  0  0  0  0  0  0  0  0  0
    7.9220   -2.5160    3.7760 H   0  0  0  0  0  0  0  0  0  0  0  0
    5.6780   -2.9530    2.7150 H   0  0  0  0  0  0  0  0  0  0  0  0
    4.1640   -2.2790    1.1410 H   0  0  0  0  0  0  0  0  0  0  0  0
    4.2230   -0.6480    0.4390 H   0  0  0  0  0  0  0  0  0  0  0  0
    3.3990    0.2760    2.6340 H   0  0  0  0  0  0  0  0  0  0  0  0
    3.2070   -2.5410    3.4810 H   0  0  0  0  0  0  0  0  0  0  0  0
    2.3240   -1.1920    4.1380 H   0  0  0  0  0  0  0  0  0  0  0  0
    5.6180    1.0760    1.3840 H   0  0  0  0  0  0  0  0  0  0  0  0
    7.8740    1.4930    2.4390 H   0  0  0  0  0  0  0  0  0  0  0  0
    1.4940   -0.3860    0.3820 N   0  0  0  0  0  0  0  0  0  0  0  0
    0.1080   -0.1680   -0.1150 C   0  0  1  0  0  0  0  0  0  0  0  0
    0.1340    0.9930   -1.0500 C   0  0  0  0  0  0  0  0  0  0  0  0
   -1.1190    1.4260   -1.6510 C   0  0  0  0  0  0  0  0  0  0  0  0
   -1.9450    2.3090   -0.9720 C   0  0  0  0  0  0  0  0  0  0  0  0
   -3.0930    2.7710   -1.5550 C   0  0  0  0  0  0  0  0  0  0  0  0
   -3.5030    2.4070   -2.8190 C   0  0  0  0  0  0  0  0  0  0  0  0
   -2.6510    1.5160   -3.4740 C   0  0  0  0  0  0  0  0  0  0  0  0
   -1.5010    1.0300   -2.9310 C   0  0  0  0  0  0  0  0  0  0  0  0
   -0.4070   -1.4280   -0.6680 C   0  0  0  0  0  0  0  0  0  0  0  0
    0.3540   -2.4560   -0.8080 O   0  0  0  0  0  0  0  0  0  0  0  0
    2.2660   -0.3690   -0.3010 H   0  0  0  0  0  0  0  0  0  0  0  0
   -0.4560    0.1120    0.7980 H   0  0  0  0  0  0  0  0  0  0  0  0
    0.5530    1.9150   -0.5150 H   0  0  0  0  0  0  0  0  0  0  0  0
    0.8990    0.8410   -1.8730 H   0  0  0  0  0  0  0  0  0  0  0  0
   -1.6770    2.6420    0.0450 H   0  0  0  0  0  0  0  0  0  0  0  0
   -3.7460    3.4680   -1.0200 H   0  0  0  0  0  0  0  0  0  0  0  0
   -4.4160    2.7780   -3.2760 H   0  0  0  0  0  0  0  0  0  0  0  0
   -2.9450    1.2020   -4.4870 H   0  0  0  0  0  0  0  0  0  0  0  0
   -0.8550    0.3230   -3.4820 H   0  0  0  0  0  0  0  0  0  0  0  0
   -1.7510   -1.6050   -1.0680 N   0  0  0  0  0  0  0  0  0  0  0  0
   -2.1730   -2.8830   -1.5650 C   0  0  1  0  0  0  0  0  0  0  0  0
   -2.9910   -3.5510   -0.4270 C   0  0  0  0  0  0  0  0  0  0  0  0
   -4.1490   -2.7160   -0.0510 C   0  0  0  0  0  0  0  0  0  0  0  0
   -5.4300   -2.8030   -0.5630 C   0  0  0  0  0  0  0  0  0  0  0  0
   -6.1520   -1.8250    0.0100 N   0  0  0  0  0  0  0  0  0  0  0  0
   -5.4090   -1.1110    0.8640 C   0  0  0  0  0  0  0  0  0  0  0  0
   -5.6800   -0.0200    1.6970 C   0  0  0  0  0  0  0  0  0  0  0  0
   -4.7030    0.5360    2.5140 C   0  0  0  0  0  0  0  0  0  0  0  0
   -3.4440   -0.0100    2.4910 C   0  0  0  0  0  0  0  0  0  0  0  0
   -3.2130   -1.0730    1.6660 C   0  0  0  0  0  0  0  0  0  0  0  0
   -4.1570   -1.6590    0.8340 C   0  0  0  0  0  0  0  0  0  0  0  0
   -3.0490   -2.7820   -2.7390 C   0  0  0  0  0  0  0  0  0  0  0  0
   -3.5190   -3.8070   -3.3300 O   0  0  0  0  0  0  0  0  0  0  0  0
   -3.4080   -1.5620   -3.2590 O   0  0  0  0  0  0  0  0  0  0  0  0
   -2.4610   -0.8390   -1.0270 H   0  0  0  0  0  0  0  0  0  0  0  0
   -1.3250   -3.5900   -1.7030 H   0  0  0  0  0  0  0  0  0  0  0  0
   -3.3030   -4.5700   -0.7690 H   0  0  0  0  0  0  0  0  0  0  0  0
   -2.2540   -3.6920    0.3910 H   0  0  0  0  0  0  0  0  0  0  0  0
   -5.8080   -3.5220   -1.2970 H   0  0  0  0  0  0  0  0  0  0  0  0
   -7.1750   -1.6040   -0.1550 H   0  0  0  0  0  0  0  0  0  0  0  0
   -6.6660    0.4100    1.7120 H   0  0  0  0  0  0  0  0  0  0  0  0
   -4.8800    1.3730    3.1660 H   0  0  0  0  0  0  0  0  0  0  0  0
   -2.6490    0.3830    3.1060 H   0  0  0  0  0  0  0  0  0  0  0  0
   -2.2120   -1.5010    1.6620 H   0  0  0  0  0  0  0  0  0  0  0  0
  1 13  1  0  0  0  0
  2  3  1  0  0  0  0
  2  1  1  0  0  0  0
  3 14  1  0  0  0  0
  4 15  1  0  0  0  0
  4  3  2  0  0  0  0
  5  4  1  0  0  0  0
  6  5  1  0  0  0  0
  6  7  1  0  0  0  0
  7 18  1  1  0  0  0
  7  8  1  0  0  0  0
  8 20  1  0  0  0  0
  9  7  1  0  0  0  0
  9 10  2  0  0  0  0
 11  5  2  0  0  0  0
 11 12  1  0  0  0  0
 12  2  2  0  0  0  0
 16  6  1  0  0  0  0
 17  6  1  0  0  0  0
 19  8  1  0  0  0  0
 21 11  1  0  0  0  0
 22 12  1  0  0  0  0
 23  9  1  0  0  0  0
 24 23  1  0  0  0  0
 24 35  1  1  0  0  0
 25 36  1  0  0  0  0
 25 24  1  0  0  0  0
 26 25  1  0  0  0  0
 26 27  1  0  0  0  0
 27 38  1  0  0  0  0
 28 39  1  0  0  0  0
 28 27  2  0  0  0  0
 29 28  1  0  0  0  0
 30 31  1  0  0  0  0
 30 29  2  0  0  0  0
 31 26  2  0  0  0  0
 32 24  1  0  0  0  0
 33 32  2  0  0  0  0
 34 23  1  0  0  0  0
 37 25  1  0  0  0  0
 40 29  1  0  0  0  0
 41 30  1  0  0  0  0
 42 31  1  0  0  0  0
 43 58  1  0  0  0  0
 43 32  1  0  0  0  0
 44 59  1  6  0  0  0
 44 43  1  0  0  0  0
 44 45  1  0  0  0  0
 45 46  1  0  0  0  0
 45 61  1  0  0  0  0
 46 54  1  0  0  0  0
 47 46  2  0  0  0  0
 47 48  1  0  0  0  0
 48 49  1  0  0  0  0
 49 50  1  0  0  0  0
 50 64  1  0  0  0  0
 50 51  2  0  0  0  0
 51 65  1  0  0  0  0
 52 51  1  0  0  0  0
 52 66  1  0  0  0  0
 53 52  2  0  0  0  0
 54 49  2  0  0  0  0
 54 53  1  0  0  0  0
 55 44  1  0  0  0  0
 56 55  2  0  0  0  0
 57 55  1  0  0  0  0
 60 45  1  0  0  0  0
 62 47  1  0  0  0  0
 63 48  1  0  0  0  0
 67 53  1  0  0  0  0
M  END
$$$$
