YGA.pdb
 OpenBabel07022419203D

 40 40  0  0  1  0  0  0  0  0999 V2000
   -4.0150    0.0960    2.1870 O   0  0  0  0  0  0  0  0  0  0  0  0
   -3.1220   -0.1150    1.1450 C   0  0  0  0  0  0  0  0  0  0  0  0
   -3.2700   -1.1680    0.2710 C   0  0  0  0  0  0  0  0  0  0  0  0
   -2.3610   -1.3450   -0.7530 C   0  0  0  0  0  0  0  0  0  0  0  0
   -1.2860   -0.4880   -0.9360 C   0  0  0  0  0  0  0  0  0  0  0  0
   -0.3700   -0.7160   -2.0640 C   0  0  0  0  0  0  0  0  0  0  0  0
    0.7400   -1.6620   -1.8240 C   0  0  2  0  0  0  0  0  0  0  0  0
    0.2240   -2.9720   -1.4630 N   0  0  0  0  0  0  0  0  0  0  0  0
    1.8470   -1.2320   -0.9710 C   0  0  0  0  0  0  0  0  0  0  0  0
    2.3960   -2.0650   -0.1580 O   0  0  0  0  0  0  0  0  0  0  0  0
   -1.1450    0.5600   -0.0610 C   0  0  0  0  0  0  0  0  0  0  0  0
   -2.0590    0.7510    0.9820 C   0  0  0  0  0  0  0  0  0  0  0  0
   -4.5070   -0.6540    2.6590 H   0  0  0  0  0  0  0  0  0  0  0  0
   -4.1240   -1.8490    0.4170 H   0  0  0  0  0  0  0  0  0  0  0  0
   -2.5060   -2.1950   -1.4360 H   0  0  0  0  0  0  0  0  0  0  0  0
    0.0230    0.2650   -2.4590 H   0  0  0  0  0  0  0  0  0  0  0  0
   -1.0150   -1.1010   -2.9150 H   0  0  0  0  0  0  0  0  0  0  0  0
    1.2380   -1.8730   -2.8470 H   0  0  0  0  0  0  0  0  0  0  0  0
    1.0860   -3.5870   -1.3590 H   0  0  0  0  0  0  0  0  0  0  0  0
   -0.1400   -2.8700   -0.4690 H   0  0  0  0  0  0  0  0  0  0  0  0
   -0.3310    1.2540   -0.1550 H   0  0  0  0  0  0  0  0  0  0  0  0
   -1.9550    1.5710    1.6700 H   0  0  0  0  0  0  0  0  0  0  0  0
    2.3970    0.0680   -0.9570 N   0  0  0  0  0  0  0  0  0  0  0  0
    3.4850    0.5370   -0.1560 C   0  0  0  0  0  0  0  0  0  0  0  0
    3.1800    0.4570    1.2790 C   0  0  0  0  0  0  0  0  0  0  0  0
    4.0970    0.8160    2.1230 O   0  0  0  0  0  0  0  0  0  0  0  0
    1.9490    0.7700   -1.6180 H   0  0  0  0  0  0  0  0  0  0  0  0
    3.8190    1.5590   -0.4610 H   0  0  0  0  0  0  0  0  0  0  0  0
    4.3540   -0.1480   -0.3430 H   0  0  0  0  0  0  0  0  0  0  0  0
    0.6930    0.8950    3.7960 C   0  0  0  0  0  0  0  0  0  0  0  0
    1.7970   -0.0140    3.3290 C   0  0  2  0  0  0  0  0  0  0  0  0
    1.9940    0.0330    1.8910 N   0  0  0  0  0  0  0  0  0  0  0  0
    1.5490   -1.4020    3.7720 C   0  0  0  0  0  0  0  0  0  0  0  0
    1.5370   -2.3180    2.9220 O   0  0  0  0  0  0  0  0  0  0  0  0
    1.3300   -1.7140    5.0970 O   0  0  0  0  0  0  0  0  0  0  0  0
   -0.0320    1.1360    3.0210 H   0  0  0  0  0  0  0  0  0  0  0  0
    0.1290    0.3530    4.5990 H   0  0  0  0  0  0  0  0  0  0  0  0
    1.1230    1.7860    4.2990 H   0  0  0  0  0  0  0  0  0  0  0  0
    2.7540    0.3260    3.8010 H   0  0  0  0  0  0  0  0  0  0  0  0
    1.1920   -0.2590    1.3120 H   0  0  0  0  0  0  0  0  0  0  0  0
  1 13  1  0  0  0  0
  2  1  1  0  0  0  0
  3 14  1  0  0  0  0
  3  2  2  0  0  0  0
  4  3  1  0  0  0  0
  5  4  2  0  0  0  0
  5 11  1  0  0  0  0
  6  7  1  0  0  0  0
  6  5  1  0  0  0  0
  7 18  1  6  0  0  0
  7  8  1  0  0  0  0
  7  9  1  0  0  0  0
  8 19  1  0  0  0  0
  8 20  1  0  0  0  0
  9 23  1  0  0  0  0
  9 10  2  0  0  0  0
 11 12  2  0  0  0  0
 12  2  1  0  0  0  0
 12 22  1  0  0  0  0
 15  4  1  0  0  0  0
 16  6  1  0  0  0  0
 17  6  1  0  0  0  0
 21 11  1  0  0  0  0
 23 24  1  0  0  0  0
 24 25  1  0  0  0  0
 25 32  1  0  0  0  0
 25 26  2  0  0  0  0
 27 23  1  0  0  0  0
 28 24  1  0  0  0  0
 29 24  1  0  0  0  0
 30 38  1  0  0  0  0
 30 37  1  0  0  0  0
 31 33  1  0  0  0  0
 31 30  1  0  0  0  0
 31 39  1  1  0  0  0
 32 31  1  0  0  0  0
 33 35  1  0  0  0  0
 34 33  2  0  0  0  0
 36 30  1  0  0  0  0
 40 32  1  0  0  0  0
M  END
$$$$
