YGC.pdb
 OpenBabel07022419203D

 41 41  0  0  1  0  0  0  0  0999 V2000
   -2.5660   -3.9020    0.1440 O   0  0  0  0  0  0  0  0  0  0  0  0
   -1.3530   -3.5280   -0.4380 C   0  0  0  0  0  0  0  0  0  0  0  0
   -0.2180   -3.3660    0.3210 C   0  0  0  0  0  0  0  0  0  0  0  0
    0.9680   -2.9990   -0.2610 C   0  0  0  0  0  0  0  0  0  0  0  0
    1.0930   -2.7710   -1.6340 C   0  0  0  0  0  0  0  0  0  0  0  0
    2.3880   -2.3860   -2.1600 C   0  0  0  0  0  0  0  0  0  0  0  0
    2.6700   -0.9190   -2.2830 C   0  0  2  0  0  0  0  0  0  0  0  0
    4.0390   -0.7710   -2.8270 N   0  0  0  0  0  0  0  0  0  0  0  0
    2.7020   -0.2930   -0.9390 C   0  0  0  0  0  0  0  0  0  0  0  0
    3.7860    0.0200   -0.3640 O   0  0  0  0  0  0  0  0  0  0  0  0
   -0.0640   -2.9410   -2.3760 C   0  0  0  0  0  0  0  0  0  0  0  0
   -1.2570   -3.3100   -1.7940 C   0  0  0  0  0  0  0  0  0  0  0  0
   -2.9230   -3.4080    0.9310 H   0  0  0  0  0  0  0  0  0  0  0  0
   -0.2780   -3.5350    1.3950 H   0  0  0  0  0  0  0  0  0  0  0  0
    1.8310   -2.8830    0.3710 H   0  0  0  0  0  0  0  0  0  0  0  0
    2.5230   -2.8410   -3.1670 H   0  0  0  0  0  0  0  0  0  0  0  0
    3.1770   -2.8740   -1.5260 H   0  0  0  0  0  0  0  0  0  0  0  0
    2.0200   -0.3940   -2.9800 H   0  0  0  0  0  0  0  0  0  0  0  0
    4.7130   -0.5090   -2.1020 H   0  0  0  0  0  0  0  0  0  0  0  0
    4.2690   -1.6390   -3.3540 H   0  0  0  0  0  0  0  0  0  0  0  0
   -0.0120   -2.7760   -3.4340 H   0  0  0  0  0  0  0  0  0  0  0  0
   -2.1490   -3.4380   -2.3870 H   0  0  0  0  0  0  0  0  0  0  0  0
    1.5300    0.0110   -0.1820 N   0  0  0  0  0  0  0  0  0  0  0  0
    1.5970    0.6190    1.1310 C   0  0  0  0  0  0  0  0  0  0  0  0
    0.2230    0.8110    1.6610 C   0  0  0  0  0  0  0  0  0  0  0  0
   -0.7810    0.4550    0.9730 O   0  0  0  0  0  0  0  0  0  0  0  0
    0.6010   -0.2000   -0.5850 H   0  0  0  0  0  0  0  0  0  0  0  0
    2.1100    1.6020    1.1010 H   0  0  0  0  0  0  0  0  0  0  0  0
    2.1500   -0.0430    1.8560 H   0  0  0  0  0  0  0  0  0  0  0  0
   -0.0600    1.3790    2.9170 N   0  0  0  0  0  0  0  0  0  0  0  0
   -1.3510    1.5850    3.4700 C   0  0  1  0  0  0  0  0  0  0  0  0
   -1.6180    0.8510    4.7480 C   0  0  0  0  0  0  0  0  0  0  0  0
   -0.4560    1.3320    6.0540 S   0  0  0  0  0  0  0  0  0  0  0  0
   -1.6790    3.0160    3.6920 C   0  0  0  0  0  0  0  0  0  0  0  0
   -2.7770    3.3860    4.1740 O   0  0  0  0  0  0  0  0  0  0  0  0
   -0.7650    4.0080    3.3690 O   0  0  0  0  0  0  0  0  0  0  0  0
    0.7680    1.6800    3.4990 H   0  0  0  0  0  0  0  0  0  0  0  0
   -2.1030    1.2120    2.7240 H   0  0  0  0  0  0  0  0  0  0  0  0
   -1.6850   -0.2420    4.6270 H   0  0  0  0  0  0  0  0  0  0  0  0
   -2.6250    1.1840    5.0990 H   0  0  0  0  0  0  0  0  0  0  0  0
    0.0900    0.1650    6.6560 H   0  0  0  0  0  0  0  0  0  0  0  0
  1 13  1  0  0  0  0
  2  1  1  0  0  0  0
  2  3  1  0  0  0  0
  3 14  1  0  0  0  0
  4  3  2  0  0  0  0
  4 15  1  0  0  0  0
  5  4  1  0  0  0  0
  6  5  1  0  0  0  0
  6 17  1  0  0  0  0
  7 18  1  6  0  0  0
  7  6  1  0  0  0  0
  7  9  1  0  0  0  0
  8  7  1  0  0  0  0
  8 19  1  0  0  0  0
  9 10  2  0  0  0  0
  9 23  1  0  0  0  0
 11 12  1  0  0  0  0
 11  5  2  0  0  0  0
 12  2  2  0  0  0  0
 16  6  1  0  0  0  0
 20  8  1  0  0  0  0
 21 11  1  0  0  0  0
 22 12  1  0  0  0  0
 23 24  1  0  0  0  0
 24 25  1  0  0  0  0
 24 29  1  0  0  0  0
 25 30  1  0  0  0  0
 26 25  2  0  0  0  0
 27 23  1  0  0  0  0
 28 24  1  0  0  0  0
 30 31  1  0  0  0  0
 30 37  1  0  0  0  0
 31 38  1  6  0  0  0
 31 34  1  0  0  0  0
 31 32  1  0  0  0  0
 32 40  1  0  0  0  0
 32 33  1  0  0  0  0
 33 41  1  0  0  0  0
 34 35  1  0  0  0  0
 36 34  2  0  0  0  0
 39 32  1  0  0  0  0
M  END
$$$$
