YGE.pdb
 OpenBabel07022419203D

 46 46  0  0  1  0  0  0  0  0999 V2000
    4.2790   -1.1020   -3.0320 O   0  0  0  0  0  0  0  0  0  0  0  0
    3.8590   -0.1620   -2.0870 C   0  0  0  0  0  0  0  0  0  0  0  0
    3.8610   -0.3780   -0.7390 C   0  0  0  0  0  0  0  0  0  0  0  0
    3.4440    0.5600    0.1710 C   0  0  0  0  0  0  0  0  0  0  0  0
    2.9990    1.7870   -0.2670 C   0  0  0  0  0  0  0  0  0  0  0  0
    2.5370    2.8440    0.6630 C   0  0  0  0  0  0  0  0  0  0  0  0
    1.0520    2.7590    0.8980 C   0  0  2  0  0  0  0  0  0  0  0  0
    0.7340    3.8410    1.8210 N   0  0  0  0  0  0  0  0  0  0  0  0
    0.6830    1.4380    1.4070 C   0  0  0  0  0  0  0  0  0  0  0  0
    0.7560    0.4470    0.6440 O   0  0  0  0  0  0  0  0  0  0  0  0
    2.9920    2.0170   -1.6390 C   0  0  0  0  0  0  0  0  0  0  0  0
    3.4100    1.0720   -2.5350 C   0  0  0  0  0  0  0  0  0  0  0  0
    4.6740   -1.9570   -2.6610 H   0  0  0  0  0  0  0  0  0  0  0  0
    4.2070   -1.3380   -0.3710 H   0  0  0  0  0  0  0  0  0  0  0  0
    3.4570    0.3580    1.2350 H   0  0  0  0  0  0  0  0  0  0  0  0
    3.0280    2.6910    1.6660 H   0  0  0  0  0  0  0  0  0  0  0  0
    2.8200    3.8580    0.2820 H   0  0  0  0  0  0  0  0  0  0  0  0
    0.5350    2.9650   -0.0600 H   0  0  0  0  0  0  0  0  0  0  0  0
    1.1570    3.7010    2.7530 H   0  0  0  0  0  0  0  0  0  0  0  0
   -0.2970    4.0190    1.8580 H   0  0  0  0  0  0  0  0  0  0  0  0
    2.6330    3.0000   -1.9600 H   0  0  0  0  0  0  0  0  0  0  0  0
    3.3990    1.2660   -3.6030 H   0  0  0  0  0  0  0  0  0  0  0  0
    0.2420    1.2300    2.7430 N   0  0  0  0  0  0  0  0  0  0  0  0
   -0.1210   -0.0940    3.2170 C   0  0  0  0  0  0  0  0  0  0  0  0
   -1.2530   -0.6520    2.4260 C   0  0  0  0  0  0  0  0  0  0  0  0
   -1.7140    0.0420    1.5150 O   0  0  0  0  0  0  0  0  0  0  0  0
    0.1780    2.0350    3.3870 H   0  0  0  0  0  0  0  0  0  0  0  0
   -0.4310   -0.0150    4.2710 H   0  0  0  0  0  0  0  0  0  0  0  0
    0.7810   -0.7370    3.1420 H   0  0  0  0  0  0  0  0  0  0  0  0
   -1.7980   -1.9130    2.6800 N   0  0  0  0  0  0  0  0  0  0  0  0
   -2.8810   -2.5240    1.9730 C   0  0  1  0  0  0  0  0  0  0  0  0
   -2.7250   -3.9070    1.5170 C   0  0  0  0  0  0  0  0  0  0  0  0
   -1.5680   -4.0870    0.5800 C   0  0  0  0  0  0  0  0  0  0  0  0
   -1.6780   -3.2840   -0.6610 C   0  0  0  0  0  0  0  0  0  0  0  0
   -1.2950   -2.0880   -0.6680 O   0  0  0  0  0  0  0  0  0  0  0  0
   -4.0580   -2.4760    2.9240 C   0  0  0  0  0  0  0  0  0  0  0  0
   -3.9840   -1.9740    4.0670 O   0  0  0  0  0  0  0  0  0  0  0  0
   -2.1900   -3.7770   -1.8530 O   0  0  0  0  0  0  0  0  0  0  0  0
   -5.2870   -3.0060    2.5330 O   0  0  0  0  0  0  0  0  0  0  0  0
   -1.3860   -2.4780    3.4620 H   0  0  0  0  0  0  0  0  0  0  0  0
   -3.1890   -1.8590    1.1440 H   0  0  0  0  0  0  0  0  0  0  0  0
   -3.6440   -4.1300    0.8850 H   0  0  0  0  0  0  0  0  0  0  0  0
   -2.7810   -4.6850    2.2990 H   0  0  0  0  0  0  0  0  0  0  0  0
   -0.5820   -3.8940    1.0960 H   0  0  0  0  0  0  0  0  0  0  0  0
   -1.4710   -5.1600    0.2390 H   0  0  0  0  0  0  0  0  0  0  0  0
   -2.7190   -3.1010   -2.4110 H   0  0  0  0  0  0  0  0  0  0  0  0
  1 13  1  0  0  0  0
  1  2  1  0  0  0  0
  2  3  1  0  0  0  0
  3 14  1  0  0  0  0
  3  4  2  0  0  0  0
  4 15  1  0  0  0  0
  5  4  1  0  0  0  0
  5  6  1  0  0  0  0
  6  7  1  0  0  0  0
  6 16  1  0  0  0  0
  7 18  1  6  0  0  0
  7  9  1  0  0  0  0
  7  8  1  0  0  0  0
  8 20  1  0  0  0  0
  8 19  1  0  0  0  0
  9 23  1  0  0  0  0
 10  9  2  0  0  0  0
 11  5  2  0  0  0  0
 12  2  2  0  0  0  0
 12 11  1  0  0  0  0
 17  6  1  0  0  0  0
 21 11  1  0  0  0  0
 22 12  1  0  0  0  0
 23 24  1  0  0  0  0
 23 27  1  0  0  0  0
 24 28  1  0  0  0  0
 25 30  1  0  0  0  0
 25 24  1  0  0  0  0
 26 25  2  0  0  0  0
 29 24  1  0  0  0  0
 30 40  1  0  0  0  0
 31 41  1  6  0  0  0
 31 30  1  0  0  0  0
 31 36  1  0  0  0  0
 32 31  1  0  0  0  0
 32 43  1  0  0  0  0
 33 44  1  0  0  0  0
 33 32  1  0  0  0  0
 34 33  1  0  0  0  0
 35 34  2  0  0  0  0
 36 37  1  0  0  0  0
 38 34  1  0  0  0  0
 39 36  2  0  0  0  0
 42 32  1  0  0  0  0
 45 33  1  0  0  0  0
 46 38  1  0  0  0  0
M  END
$$$$
