YGG.pdb
 OpenBabel07022419203D

 37 37  0  0  1  0  0  0  0  0999 V2000
   -0.1840   -3.6370    4.4700 O   0  0  0  0  0  0  0  0  0  0  0  0
   -0.0980   -3.3030    3.1040 C   0  0  0  0  0  0  0  0  0  0  0  0
    0.7920   -3.9610    2.2820 C   0  0  0  0  0  0  0  0  0  0  0  0
    0.8880   -3.6470    0.9400 C   0  0  0  0  0  0  0  0  0  0  0  0
    0.1010   -2.6670    0.3760 C   0  0  0  0  0  0  0  0  0  0  0  0
    0.2090   -2.3610   -1.0430 C   0  0  0  0  0  0  0  0  0  0  0  0
    1.2080   -1.3510   -1.4610 C   0  0  2  0  0  0  0  0  0  0  0  0
    2.5380   -1.7220   -1.1000 N   0  0  0  0  0  0  0  0  0  0  0  0
    0.8800    0.0580   -1.2150 C   0  0  0  0  0  0  0  0  0  0  0  0
   -0.2940    0.4480   -1.3730 O   0  0  0  0  0  0  0  0  0  0  0  0
   -0.7810   -2.0220    1.2150 C   0  0  0  0  0  0  0  0  0  0  0  0
   -0.8880   -2.3250    2.5530 C   0  0  0  0  0  0  0  0  0  0  0  0
   -0.8350   -3.1270    5.0520 H   0  0  0  0  0  0  0  0  0  0  0  0
    1.4130   -4.7370    2.7360 H   0  0  0  0  0  0  0  0  0  0  0  0
    1.6240   -4.2280    0.3760 H   0  0  0  0  0  0  0  0  0  0  0  0
   -0.8270   -2.0830   -1.4120 H   0  0  0  0  0  0  0  0  0  0  0  0
    0.4270   -3.2900   -1.6590 H   0  0  0  0  0  0  0  0  0  0  0  0
    1.2160   -1.4220   -2.6100 H   0  0  0  0  0  0  0  0  0  0  0  0
    2.7460   -2.7120   -1.0910 H   0  0  0  0  0  0  0  0  0  0  0  0
    3.2820   -1.0940   -1.4390 H   0  0  0  0  0  0  0  0  0  0  0  0
   -1.4330   -1.2400    0.8410 H   0  0  0  0  0  0  0  0  0  0  0  0
   -1.5850   -1.8050    3.1820 H   0  0  0  0  0  0  0  0  0  0  0  0
    1.8580    0.9900   -0.8060 N   0  0  0  0  0  0  0  0  0  0  0  0
    1.4970    2.3610   -0.5780 C   0  0  0  0  0  0  0  0  0  0  0  0
    0.5340    2.5690    0.5210 C   0  0  0  0  0  0  0  0  0  0  0  0
    0.1310    3.7480    0.7480 O   0  0  0  0  0  0  0  0  0  0  0  0
    2.8650    0.7360   -0.6530 H   0  0  0  0  0  0  0  0  0  0  0  0
    2.4000    2.9970   -0.3790 H   0  0  0  0  0  0  0  0  0  0  0  0
    1.0310    2.7800   -1.5140 H   0  0  0  0  0  0  0  0  0  0  0  0
    0.0060    1.5690    1.3660 N   0  0  0  0  0  0  0  0  0  0  0  0
   -0.9530    1.8910    2.4260 C   0  0  0  0  0  0  0  0  0  0  0  0
   -2.1790    2.5070    1.8490 C   0  0  0  0  0  0  0  0  0  0  0  0
   -3.1150    2.8510    2.6080 O   0  0  0  0  0  0  0  0  0  0  0  0
   -2.3160    2.7140    0.4750 O   0  0  0  0  0  0  0  0  0  0  0  0
    0.3340    0.5960    1.2210 H   0  0  0  0  0  0  0  0  0  0  0  0
   -0.5310    2.5750    3.1750 H   0  0  0  0  0  0  0  0  0  0  0  0
   -1.2690    0.9270    2.8680 H   0  0  0  0  0  0  0  0  0  0  0  0
  1 13  1  0  0  0  0
  2  1  1  0  0  0  0
  3 14  1  0  0  0  0
  3  2  2  0  0  0  0
  4  3  1  0  0  0  0
  5  4  2  0  0  0  0
  5 11  1  0  0  0  0
  6  5  1  0  0  0  0
  7 18  1  6  0  0  0
  7  9  1  0  0  0  0
  7  8  1  0  0  0  0
  7  6  1  0  0  0  0
  8 19  1  0  0  0  0
  9 23  1  0  0  0  0
 10  9  2  0  0  0  0
 11 12  2  0  0  0  0
 12  2  1  0  0  0  0
 12 22  1  0  0  0  0
 15  4  1  0  0  0  0
 16  6  1  0  0  0  0
 17  6  1  0  0  0  0
 20  8  1  0  0  0  0
 21 11  1  0  0  0  0
 23 27  1  0  0  0  0
 23 24  1  0  0  0  0
 24 28  1  0  0  0  0
 24 25  1  0  0  0  0
 25 26  2  0  0  0  0
 25 30  1  0  0  0  0
 29 24  1  0  0  0  0
 30 31  1  0  0  0  0
 31 37  1  0  0  0  0
 31 36  1  0  0  0  0
 32 31  1  0  0  0  0
 32 33  1  0  0  0  0
 34 32  2  0  0  0  0
 35 30  1  0  0  0  0
M  END
$$$$
