YGI.pdb
 OpenBabel07022419203D

 49 49  0  0  1  0  0  0  0  0999 V2000
    3.4930   -4.2660    4.2530 O   0  0  0  0  0  0  0  0  0  0  0  0
    3.6840   -3.0900    3.5050 C   0  0  0  0  0  0  0  0  0  0  0  0
    4.7030   -3.0170    2.5780 C   0  0  0  0  0  0  0  0  0  0  0  0
    4.9390   -1.8920    1.8170 C   0  0  0  0  0  0  0  0  0  0  0  0
    4.0880   -0.8150    2.0310 C   0  0  0  0  0  0  0  0  0  0  0  0
    4.2950    0.4090    1.2530 C   0  0  0  0  0  0  0  0  0  0  0  0
    3.5630    0.4440   -0.0680 C   0  0  2  0  0  0  0  0  0  0  0  0
    3.9000    1.7350   -0.6730 N   0  0  0  0  0  0  0  0  0  0  0  0
    2.0970    0.3590    0.1420 C   0  0  0  0  0  0  0  0  0  0  0  0
    1.5310   -0.6520    0.6140 O   0  0  0  0  0  0  0  0  0  0  0  0
    3.0580   -0.8660    2.9570 C   0  0  0  0  0  0  0  0  0  0  0  0
    2.8470   -2.0120    3.7060 C   0  0  0  0  0  0  0  0  0  0  0  0
    3.6040   -4.2390    5.2550 H   0  0  0  0  0  0  0  0  0  0  0  0
    5.3330   -3.9040    2.4640 H   0  0  0  0  0  0  0  0  0  0  0  0
    5.7430   -1.8420    1.0880 H   0  0  0  0  0  0  0  0  0  0  0  0
    5.3950    0.5550    1.0480 H   0  0  0  0  0  0  0  0  0  0  0  0
    4.0100    1.2680    1.9020 H   0  0  0  0  0  0  0  0  0  0  0  0
    3.9350   -0.3290   -0.7490 H   0  0  0  0  0  0  0  0  0  0  0  0
    4.7400    1.6740   -1.2810 H   0  0  0  0  0  0  0  0  0  0  0  0
    3.9710    2.4810    0.0480 H   0  0  0  0  0  0  0  0  0  0  0  0
    2.3840   -0.0150    3.1310 H   0  0  0  0  0  0  0  0  0  0  0  0
    2.0360   -2.0180    4.4190 H   0  0  0  0  0  0  0  0  0  0  0  0
    1.2800    1.4770   -0.2060 N   0  0  0  0  0  0  0  0  0  0  0  0
   -0.1370    1.4990   -0.0440 C   0  0  0  0  0  0  0  0  0  0  0  0
   -0.8440    0.4550   -0.8020 C   0  0  0  0  0  0  0  0  0  0  0  0
   -0.2860   -0.3990   -1.5390 O   0  0  0  0  0  0  0  0  0  0  0  0
    1.7500    2.3170   -0.5990 H   0  0  0  0  0  0  0  0  0  0  0  0
   -0.4010    1.3280    1.0320 H   0  0  0  0  0  0  0  0  0  0  0  0
   -0.5290    2.4960   -0.3260 H   0  0  0  0  0  0  0  0  0  0  0  0
   -4.1450   -0.2410    1.6170 C   0  0  0  0  0  0  0  0  0  0  0  0
   -4.7430   -0.9880    0.4770 C   0  0  0  0  0  0  0  0  0  0  0  0
   -3.7880   -1.5410   -0.5210 C   0  0  2  0  0  0  0  0  0  0  0  0
   -2.8110   -2.5120    0.1120 C   0  0  0  0  0  0  0  0  0  0  0  0
   -3.0760   -0.5560   -1.3790 C   0  0  2  0  0  0  0  0  0  0  0  0
   -2.2630    0.4020   -0.7000 N   0  0  0  0  0  0  0  0  0  0  0  0
   -3.9850    0.0960   -2.3730 C   0  0  0  0  0  0  0  0  0  0  0  0
   -4.0070    1.3390   -2.5660 O   0  0  0  0  0  0  0  0  0  0  0  0
   -4.8500   -0.6800   -3.1300 O   0  0  0  0  0  0  0  0  0  0  0  0
   -3.0620   -0.3590    1.7490 H   0  0  0  0  0  0  0  0  0  0  0  0
   -4.5820   -0.6180    2.5930 H   0  0  0  0  0  0  0  0  0  0  0  0
   -4.3670    0.8490    1.6260 H   0  0  0  0  0  0  0  0  0  0  0  0
   -5.3180   -1.8690    0.8920 H   0  0  0  0  0  0  0  0  0  0  0  0
   -5.5300   -0.3450    0.0320 H   0  0  0  0  0  0  0  0  0  0  0  0
   -4.3810   -2.1910   -1.2450 H   0  0  0  0  0  0  0  0  0  0  0  0
   -2.5610   -3.3340   -0.5640 H   0  0  0  0  0  0  0  0  0  0  0  0
   -3.3100   -2.9580    1.0150 H   0  0  0  0  0  0  0  0  0  0  0  0
   -1.8580   -1.9970    0.4000 H   0  0  0  0  0  0  0  0  0  0  0  0
   -2.3600   -1.1640   -2.0140 H   0  0  0  0  0  0  0  0  0  0  0  0
   -2.7330    1.1280   -0.0820 H   0  0  0  0  0  0  0  0  0  0  0  0
  1 13  1  0  0  0  0
  2 12  1  0  0  0  0
  2  1  1  0  0  0  0
  3  2  2  0  0  0  0
  4  5  2  0  0  0  0
  4  3  1  0  0  0  0
  5 11  1  0  0  0  0
  6 17  1  0  0  0  0
  6  5  1  0  0  0  0
  7 18  1  6  0  0  0
  7  9  1  0  0  0  0
  7  6  1  0  0  0  0
  8  7  1  0  0  0  0
  8 20  1  0  0  0  0
  9 10  2  0  0  0  0
 11 21  1  0  0  0  0
 11 12  2  0  0  0  0
 12 22  1  0  0  0  0
 14  3  1  0  0  0  0
 15  4  1  0  0  0  0
 16  6  1  0  0  0  0
 19  8  1  0  0  0  0
 23 24  1  0  0  0  0
 23  9  1  0  0  0  0
 24 28  1  0  0  0  0
 25 35  1  0  0  0  0
 25 24  1  0  0  0  0
 26 25  2  0  0  0  0
 27 23  1  0  0  0  0
 29 24  1  0  0  0  0
 30 41  1  0  0  0  0
 30 39  1  0  0  0  0
 30 40  1  0  0  0  0
 31 42  1  0  0  0  0
 31 30  1  0  0  0  0
 32 44  1  6  0  0  0
 32 33  1  0  0  0  0
 32 31  1  0  0  0  0
 33 47  1  0  0  0  0
 33 46  1  0  0  0  0
 34 48  1  6  0  0  0
 34 35  1  0  0  0  0
 34 32  1  0  0  0  0
 35 49  1  0  0  0  0
 36 34  1  0  0  0  0
 37 36  1  0  0  0  0
 38 36  2  0  0  0  0
 43 31  1  0  0  0  0
 45 33  1  0  0  0  0
M  END
$$$$
