YGL.pdb
 OpenBabel07022419203D

 49 49  0  0  1  0  0  0  0  0999 V2000
    5.8990   -4.2590    4.7790 O   0  0  0  0  0  0  0  0  0  0  0  0
    5.0440   -3.5320    3.9480 C   0  0  0  0  0  0  0  0  0  0  0  0
    3.6840   -3.7600    3.9770 C   0  0  0  0  0  0  0  0  0  0  0  0
    2.8190   -3.0550    3.1660 C   0  0  0  0  0  0  0  0  0  0  0  0
    3.2890   -2.0830    2.2850 C   0  0  0  0  0  0  0  0  0  0  0  0
    2.3770   -1.3150    1.4060 C   0  0  0  0  0  0  0  0  0  0  0  0
    1.8870   -0.0500    2.0680 C   0  0  2  0  0  0  0  0  0  0  0  0
    1.1660   -0.3540    3.2850 N   0  0  0  0  0  0  0  0  0  0  0  0
    1.0160    0.7530    1.1990 C   0  0  0  0  0  0  0  0  0  0  0  0
   -0.1360    1.0500    1.5790 O   0  0  0  0  0  0  0  0  0  0  0  0
    4.6580   -1.8750    2.2770 C   0  0  0  0  0  0  0  0  0  0  0  0
    5.5300   -2.5750    3.0850 C   0  0  0  0  0  0  0  0  0  0  0  0
    5.5740   -5.1210    5.1970 H   0  0  0  0  0  0  0  0  0  0  0  0
    3.3090   -4.5120    4.6560 H   0  0  0  0  0  0  0  0  0  0  0  0
    1.7390   -3.2260    3.1780 H   0  0  0  0  0  0  0  0  0  0  0  0
    2.8900   -1.0710    0.4650 H   0  0  0  0  0  0  0  0  0  0  0  0
    1.5260   -1.9850    1.1530 H   0  0  0  0  0  0  0  0  0  0  0  0
    2.8020    0.5300    2.3500 H   0  0  0  0  0  0  0  0  0  0  0  0
    0.3880   -1.0210    3.0750 H   0  0  0  0  0  0  0  0  0  0  0  0
    0.7570    0.5580    3.6200 H   0  0  0  0  0  0  0  0  0  0  0  0
    5.0190   -1.1110    1.5840 H   0  0  0  0  0  0  0  0  0  0  0  0
    6.6040   -2.3620    3.0300 H   0  0  0  0  0  0  0  0  0  0  0  0
    1.4140    1.2230   -0.0770 N   0  0  0  0  0  0  0  0  0  0  0  0
    0.6780    1.9840   -1.0090 C   0  0  0  0  0  0  0  0  0  0  0  0
   -0.5240    1.4040   -1.6150 C   0  0  0  0  0  0  0  0  0  0  0  0
   -1.1600    2.1230   -2.4850 O   0  0  0  0  0  0  0  0  0  0  0  0
    2.4280    0.9270   -0.3100 H   0  0  0  0  0  0  0  0  0  0  0  0
    0.4310    2.9860   -0.5190 H   0  0  0  0  0  0  0  0  0  0  0  0
    1.3440    2.3190   -1.8620 H   0  0  0  0  0  0  0  0  0  0  0  0
   -3.0860    0.1760    0.8960 C   0  0  0  0  0  0  0  0  0  0  0  0
   -3.9520   -0.3250   -0.2020 C   0  0  0  0  0  0  0  0  0  0  0  0
   -5.3700    0.1390    0.0860 C   0  0  0  0  0  0  0  0  0  0  0  0
   -3.5690    0.0670   -1.5860 C   0  0  0  0  0  0  0  0  0  0  0  0
   -2.2500   -0.3490   -2.0880 C   0  0  2  0  0  0  0  0  0  0  0  0
   -1.1150    0.1430   -1.4020 N   0  0  0  0  0  0  0  0  0  0  0  0
   -2.1930   -0.1750   -3.5790 C   0  0  0  0  0  0  0  0  0  0  0  0
   -3.2130   -0.5300   -4.2110 O   0  0  0  0  0  0  0  0  0  0  0  0
   -1.1290    0.3300   -4.2770 O   0  0  0  0  0  0  0  0  0  0  0  0
   -3.7120    0.2930    1.8310 H   0  0  0  0  0  0  0  0  0  0  0  0
   -2.6670    1.1460    0.6170 H   0  0  0  0  0  0  0  0  0  0  0  0
   -2.2690   -0.5500    1.0980 H   0  0  0  0  0  0  0  0  0  0  0  0
   -4.0000   -1.4510   -0.1410 H   0  0  0  0  0  0  0  0  0  0  0  0
   -5.3870    1.2370    0.2230 H   0  0  0  0  0  0  0  0  0  0  0  0
   -6.0110   -0.1900   -0.7620 H   0  0  0  0  0  0  0  0  0  0  0  0
   -5.7400   -0.3220    1.0350 H   0  0  0  0  0  0  0  0  0  0  0  0
   -3.6190    1.2110   -1.5930 H   0  0  0  0  0  0  0  0  0  0  0  0
   -4.3730   -0.2130   -2.3210 H   0  0  0  0  0  0  0  0  0  0  0  0
   -2.2210   -1.4910   -2.0070 H   0  0  0  0  0  0  0  0  0  0  0  0
   -0.6510   -0.4530   -0.6680 H   0  0  0  0  0  0  0  0  0  0  0  0
  1 13  1  0  0  0  0
  2  3  1  0  0  0  0
  2  1  1  0  0  0  0
  3 14  1  0  0  0  0
  4 15  1  0  0  0  0
  4  3  2  0  0  0  0
  5  4  1  0  0  0  0
  6  7  1  0  0  0  0
  6  5  1  0  0  0  0
  7 18  1  1  0  0  0
  7  8  1  0  0  0  0
  8 20  1  0  0  0  0
  9 10  2  0  0  0  0
  9  7  1  0  0  0  0
 11  5  2  0  0  0  0
 11 12  1  0  0  0  0
 12  2  2  0  0  0  0
 16  6  1  0  0  0  0
 17  6  1  0  0  0  0
 19  8  1  0  0  0  0
 21 11  1  0  0  0  0
 22 12  1  0  0  0  0
 23  9  1  0  0  0  0
 24 28  1  0  0  0  0
 24 23  1  0  0  0  0
 25 35  1  0  0  0  0
 25 24  1  0  0  0  0
 26 25  2  0  0  0  0
 27 23  1  0  0  0  0
 29 24  1  0  0  0  0
 30 41  1  0  0  0  0
 30 39  1  0  0  0  0
 31 42  1  0  0  0  0
 31 32  1  0  0  0  0
 31 30  1  0  0  0  0
 32 43  1  0  0  0  0
 32 45  1  0  0  0  0
 33 31  1  0  0  0  0
 34 48  1  1  0  0  0
 34 33  1  0  0  0  0
 34 35  1  0  0  0  0
 35 49  1  0  0  0  0
 36 34  1  0  0  0  0
 37 36  1  0  0  0  0
 38 36  2  0  0  0  0
 40 30  1  0  0  0  0
 44 32  1  0  0  0  0
 46 33  1  0  0  0  0
 47 33  1  0  0  0  0
M  END
$$$$
