YGM.pdb
 OpenBabel07022419203D

 47 47  0  0  1  0  0  0  0  0999 V2000
    1.6320   -3.7610   -3.2900 O   0  0  0  0  0  0  0  0  0  0  0  0
    2.0750   -2.5590   -2.7840 C   0  0  0  0  0  0  0  0  0  0  0  0
    1.2000   -1.5350   -2.4710 C   0  0  0  0  0  0  0  0  0  0  0  0
    1.6710   -0.3480   -1.9680 C   0  0  0  0  0  0  0  0  0  0  0  0
    3.0090   -0.1310   -1.7570 C   0  0  0  0  0  0  0  0  0  0  0  0
    3.5150    1.1400   -1.2150 C   0  0  0  0  0  0  0  0  0  0  0  0
    3.6860    1.1770    0.2630 C   0  0  2  0  0  0  0  0  0  0  0  0
    4.6200    0.1560    0.7200 N   0  0  0  0  0  0  0  0  0  0  0  0
    2.4090    0.9910    0.9640 C   0  0  0  0  0  0  0  0  0  0  0  0
    2.3320    0.1230    1.8700 O   0  0  0  0  0  0  0  0  0  0  0  0
    3.8920   -1.1520   -2.0680 C   0  0  0  0  0  0  0  0  0  0  0  0
    3.4200   -2.3300   -2.5670 C   0  0  0  0  0  0  0  0  0  0  0  0
    2.0000   -4.6600   -3.0100 H   0  0  0  0  0  0  0  0  0  0  0  0
    0.1300   -1.7050   -2.6380 H   0  0  0  0  0  0  0  0  0  0  0  0
    0.9260    0.4170   -1.7440 H   0  0  0  0  0  0  0  0  0  0  0  0
    4.4410    1.4070   -1.7700 H   0  0  0  0  0  0  0  0  0  0  0  0
    2.7770    1.9390   -1.4770 H   0  0  0  0  0  0  0  0  0  0  0  0
    4.0840    2.1970    0.5520 H   0  0  0  0  0  0  0  0  0  0  0  0
    4.0540   -0.6600    1.0590 H   0  0  0  0  0  0  0  0  0  0  0  0
    5.1280    0.5230    1.5530 H   0  0  0  0  0  0  0  0  0  0  0  0
    4.9740   -1.0180   -1.9130 H   0  0  0  0  0  0  0  0  0  0  0  0
    4.0850   -3.1550   -2.8220 H   0  0  0  0  0  0  0  0  0  0  0  0
    1.2160    1.7210    0.7120 N   0  0  0  0  0  0  0  0  0  0  0  0
   -0.0140    1.5280    1.4370 C   0  0  0  0  0  0  0  0  0  0  0  0
   -0.5650    0.1590    1.3740 C   0  0  0  0  0  0  0  0  0  0  0  0
    0.0310   -0.7350    0.7320 O   0  0  0  0  0  0  0  0  0  0  0  0
    1.2860    2.4440   -0.0700 H   0  0  0  0  0  0  0  0  0  0  0  0
    0.1520    1.8250    2.5170 H   0  0  0  0  0  0  0  0  0  0  0  0
   -0.7420    2.2860    1.0690 H   0  0  0  0  0  0  0  0  0  0  0  0
   -5.3970   -0.0510    3.3210 C   0  0  0  0  0  0  0  0  0  0  0  0
   -4.8260   -1.3620    4.3770 S   0  0  0  0  0  0  0  0  0  0  0  0
   -3.0860   -1.6400    4.4580 C   0  0  0  0  0  0  0  0  0  0  0  0
   -2.3770   -2.1830    3.2960 C   0  0  0  0  0  0  0  0  0  0  0  0
   -2.3520   -1.4570    2.0140 C   0  0  2  0  0  0  0  0  0  0  0  0
   -1.7770   -0.1380    2.0460 N   0  0  0  0  0  0  0  0  0  0  0  0
   -3.5770   -1.5370    1.1840 C   0  0  0  0  0  0  0  0  0  0  0  0
   -4.1790   -2.6400    1.1670 O   0  0  0  0  0  0  0  0  0  0  0  0
   -4.0890   -0.4960    0.4400 O   0  0  0  0  0  0  0  0  0  0  0  0
   -5.9560   -0.5180    2.4560 H   0  0  0  0  0  0  0  0  0  0  0  0
   -4.6300    0.5940    2.8900 H   0  0  0  0  0  0  0  0  0  0  0  0
   -6.1380    0.6260    3.8090 H   0  0  0  0  0  0  0  0  0  0  0  0
   -2.5640   -0.7040    4.8530 H   0  0  0  0  0  0  0  0  0  0  0  0
   -2.9060   -2.3550    5.3280 H   0  0  0  0  0  0  0  0  0  0  0  0
   -1.2890   -2.3320    3.5990 H   0  0  0  0  0  0  0  0  0  0  0  0
   -2.6950   -3.2570    3.0920 H   0  0  0  0  0  0  0  0  0  0  0  0
   -1.5970   -2.0600    1.3710 H   0  0  0  0  0  0  0  0  0  0  0  0
   -2.2680    0.6300    2.5850 H   0  0  0  0  0  0  0  0  0  0  0  0
  1 13  1  0  0  0  0
  1  2  1  0  0  0  0
  2 12  2  0  0  0  0
  2  3  1  0  0  0  0
  3  4  2  0  0  0  0
  4  5  1  0  0  0  0
  4 15  1  0  0  0  0
  5  6  1  0  0  0  0
  6  7  1  0  0  0  0
  7 18  1  1  0  0  0
  7  8  1  0  0  0  0
  7  9  1  0  0  0  0
  8 19  1  0  0  0  0
  8 20  1  0  0  0  0
  9 10  2  0  0  0  0
 11 21  1  0  0  0  0
 11  5  2  0  0  0  0
 12 11  1  0  0  0  0
 14  3  1  0  0  0  0
 16  6  1  0  0  0  0
 17  6  1  0  0  0  0
 22 12  1  0  0  0  0
 23  9  1  0  0  0  0
 23 24  1  0  0  0  0
 24 28  1  0  0  0  0
 25 24  1  0  0  0  0
 25 35  1  0  0  0  0
 26 25  2  0  0  0  0
 27 23  1  0  0  0  0
 29 24  1  0  0  0  0
 30 41  1  0  0  0  0
 30 31  1  0  0  0  0
 31 32  1  0  0  0  0
 32 42  1  0  0  0  0
 32 43  1  0  0  0  0
 33 44  1  0  0  0  0
 33 32  1  0  0  0  0
 34 46  1  6  0  0  0
 34 35  1  0  0  0  0
 34 33  1  0  0  0  0
 35 47  1  0  0  0  0
 36 34  1  0  0  0  0
 37 36  1  0  0  0  0
 38 36  2  0  0  0  0
 39 30  1  0  0  0  0
 40 30  1  0  0  0  0
 45 33  1  0  0  0  0
M  END
$$$$
