YGQ.pdb
 OpenBabel07022419203D

 47 47  0  0  1  0  0  0  0  0999 V2000
    0.0630   -0.8310    7.2320 O   0  0  0  0  0  0  0  0  0  0  0  0
    0.6770   -0.2620    6.1120 C   0  0  0  0  0  0  0  0  0  0  0  0
    0.0510    0.7520    5.4610 C   0  0  0  0  0  0  0  0  0  0  0  0
    0.6230    1.3390    4.3540 C   0  0  0  0  0  0  0  0  0  0  0  0
    1.8520    0.8560    3.9400 C   0  0  0  0  0  0  0  0  0  0  0  0
    2.4800    1.4710    2.7630 C   0  0  0  0  0  0  0  0  0  0  0  0
    2.0950    0.7750    1.4670 C   0  0  2  0  0  0  0  0  0  0  0  0
    2.8030    1.5170    0.4200 N   0  0  0  0  0  0  0  0  0  0  0  0
    0.6360    0.7760    1.2240 C   0  0  0  0  0  0  0  0  0  0  0  0
   -0.0990    0.1260    1.9980 O   0  0  0  0  0  0  0  0  0  0  0  0
    2.5020   -0.1810    4.6000 C   0  0  0  0  0  0  0  0  0  0  0  0
    1.8940   -0.7350    5.6970 C   0  0  0  0  0  0  0  0  0  0  0  0
    0.6080   -1.3490    7.9110 H   0  0  0  0  0  0  0  0  0  0  0  0
   -0.9130    1.0900    5.8310 H   0  0  0  0  0  0  0  0  0  0  0  0
    0.1000    2.1500    3.8480 H   0  0  0  0  0  0  0  0  0  0  0  0
    3.5880    1.3750    2.8340 H   0  0  0  0  0  0  0  0  0  0  0  0
    2.1860    2.5480    2.6400 H   0  0  0  0  0  0  0  0  0  0  0  0
    2.4910   -0.2560    1.5290 H   0  0  0  0  0  0  0  0  0  0  0  0
    3.8130    1.5130    0.6530 H   0  0  0  0  0  0  0  0  0  0  0  0
    2.5950    0.9910   -0.4690 H   0  0  0  0  0  0  0  0  0  0  0  0
    3.4650   -0.5430    4.2560 H   0  0  0  0  0  0  0  0  0  0  0  0
    2.3340   -1.5410    6.2580 H   0  0  0  0  0  0  0  0  0  0  0  0
    0.0410    1.4960    0.1370 N   0  0  0  0  0  0  0  0  0  0  0  0
   -1.3530    1.5200   -0.1400 C   0  0  0  0  0  0  0  0  0  0  0  0
   -1.9660    0.2320   -0.4850 C   0  0  0  0  0  0  0  0  0  0  0  0
   -3.1960    0.1530   -0.6980 O   0  0  0  0  0  0  0  0  0  0  0  0
    0.7560    2.0210   -0.4520 H   0  0  0  0  0  0  0  0  0  0  0  0
   -1.4990    2.1790   -1.0420 H   0  0  0  0  0  0  0  0  0  0  0  0
   -1.8610    2.0090    0.7280 H   0  0  0  0  0  0  0  0  0  0  0  0
   -0.9400   -1.7480   -5.8420 N   0  0  0  0  0  0  0  0  0  0  0  0
   -0.9300   -2.4180   -4.6110 C   0  0  0  0  0  0  0  0  0  0  0  0
   -0.4460   -3.5780   -4.5520 O   0  0  0  0  0  0  0  0  0  0  0  0
   -1.4590   -1.8550   -3.3420 C   0  0  0  0  0  0  0  0  0  0  0  0
   -1.2640   -2.8000   -2.1830 C   0  0  0  0  0  0  0  0  0  0  0  0
   -1.8230   -2.1810   -0.9230 C   0  0  2  0  0  0  0  0  0  0  0  0
   -1.1850   -0.9380   -0.5880 N   0  0  0  0  0  0  0  0  0  0  0  0
   -1.7320   -3.1700    0.1910 C   0  0  0  0  0  0  0  0  0  0  0  0
   -1.1630   -2.9290    1.2840 O   0  0  0  0  0  0  0  0  0  0  0  0
   -2.3020   -4.4200    0.0190 O   0  0  0  0  0  0  0  0  0  0  0  0
   -0.7730   -0.7470   -6.0100 H   0  0  0  0  0  0  0  0  0  0  0  0
   -1.1400   -2.3230   -6.7080 H   0  0  0  0  0  0  0  0  0  0  0  0
   -2.5180   -1.5530   -3.4590 H   0  0  0  0  0  0  0  0  0  0  0  0
   -0.8090   -0.9590   -3.1200 H   0  0  0  0  0  0  0  0  0  0  0  0
   -1.7910   -3.7420   -2.4380 H   0  0  0  0  0  0  0  0  0  0  0  0
   -0.1830   -3.0000   -2.1090 H   0  0  0  0  0  0  0  0  0  0  0  0
   -2.9030   -1.9940   -1.0660 H   0  0  0  0  0  0  0  0  0  0  0  0
   -0.1270   -0.9560   -0.4400 H   0  0  0  0  0  0  0  0  0  0  0  0
  1 13  1  0  0  0  0
  2  1  1  0  0  0  0
  3 14  1  0  0  0  0
  3  2  2  0  0  0  0
  4  3  1  0  0  0  0
  5  4  2  0  0  0  0
  5 11  1  0  0  0  0
  6 16  1  0  0  0  0
  6  5  1  0  0  0  0
  7 18  1  1  0  0  0
  7  6  1  0  0  0  0
  8 19  1  0  0  0  0
  8  7  1  0  0  0  0
  9  7  1  0  0  0  0
  9 10  2  0  0  0  0
 11 12  2  0  0  0  0
 12  2  1  0  0  0  0
 12 22  1  0  0  0  0
 15  4  1  0  0  0  0
 17  6  1  0  0  0  0
 20  8  1  0  0  0  0
 21 11  1  0  0  0  0
 23  9  1  0  0  0  0
 24 23  1  0  0  0  0
 24 29  1  0  0  0  0
 25 24  1  0  0  0  0
 26 25  2  0  0  0  0
 27 23  1  0  0  0  0
 28 24  1  0  0  0  0
 30 31  1  0  0  0  0
 31 32  2  0  0  0  0
 31 33  1  0  0  0  0
 33 43  1  0  0  0  0
 33 34  1  0  0  0  0
 34 45  1  0  0  0  0
 34 35  1  0  0  0  0
 35 46  1  6  0  0  0
 35 36  1  0  0  0  0
 35 37  1  0  0  0  0
 36 25  1  0  0  0  0
 36 47  1  0  0  0  0
 37 38  1  0  0  0  0
 39 37  2  0  0  0  0
 40 30  1  0  0  0  0
 41 30  1  0  0  0  0
 42 33  1  0  0  0  0
 44 34  1  0  0  0  0
M  END
$$$$
