YGR.pdb
 OpenBabel07022419203D

 53 53  0  0  1  0  0  0  0  0999 V2000
    2.3590   -4.6850    2.2520 O   0  0  0  0  0  0  0  0  0  0  0  0
    2.7040   -3.5820    1.4880 C   0  0  0  0  0  0  0  0  0  0  0  0
    1.8660   -3.0400    0.5290 C   0  0  0  0  0  0  0  0  0  0  0  0
    2.2620   -1.9430   -0.2000 C   0  0  0  0  0  0  0  0  0  0  0  0
    3.5030   -1.3440   -0.0050 C   0  0  0  0  0  0  0  0  0  0  0  0
    3.8310   -0.2000   -0.8060 C   0  0  0  0  0  0  0  0  0  0  0  0
    3.5260    1.1460   -0.3420 C   0  0  2  0  0  0  0  0  0  0  0  0
    4.1380    1.5510    0.9020 N   0  0  0  0  0  0  0  0  0  0  0  0
    2.1020    1.5580   -0.4250 C   0  0  0  0  0  0  0  0  0  0  0  0
    1.3790    1.2890   -1.4180 O   0  0  0  0  0  0  0  0  0  0  0  0
    4.3030   -1.9160    0.9570 C   0  0  0  0  0  0  0  0  0  0  0  0
    3.9450   -3.0120    1.7080 C   0  0  0  0  0  0  0  0  0  0  0  0
    1.8880   -4.6180    3.1370 H   0  0  0  0  0  0  0  0  0  0  0  0
    0.8960   -3.5210    0.3880 H   0  0  0  0  0  0  0  0  0  0  0  0
    1.5650   -1.5630   -0.9420 H   0  0  0  0  0  0  0  0  0  0  0  0
    3.3540   -0.3210   -1.8250 H   0  0  0  0  0  0  0  0  0  0  0  0
    4.9350   -0.2630   -1.0530 H   0  0  0  0  0  0  0  0  0  0  0  0
    4.0220    1.8470   -1.0950 H   0  0  0  0  0  0  0  0  0  0  0  0
    5.0670    1.1190    1.0330 H   0  0  0  0  0  0  0  0  0  0  0  0
    4.1570    2.6150    0.9280 H   0  0  0  0  0  0  0  0  0  0  0  0
    5.2500   -1.4670    1.1130 H   0  0  0  0  0  0  0  0  0  0  0  0
    4.6480   -3.3860    2.4420 H   0  0  0  0  0  0  0  0  0  0  0  0
    1.5200    2.2860    0.6490 N   0  0  0  0  0  0  0  0  0  0  0  0
    0.1830    2.7560    0.7220 C   0  0  0  0  0  0  0  0  0  0  0  0
   -0.8920    1.7750    0.7130 C   0  0  0  0  0  0  0  0  0  0  0  0
   -2.1300    2.1430    0.7540 O   0  0  0  0  0  0  0  0  0  0  0  0
    2.1920    2.4730    1.4560 H   0  0  0  0  0  0  0  0  0  0  0  0
    0.0800    3.3450    1.6890 H   0  0  0  0  0  0  0  0  0  0  0  0
    0.0080    3.5730   -0.0560 H   0  0  0  0  0  0  0  0  0  0  0  0
   -5.1120   -0.5260    2.2590 N   0  0  0  0  0  0  0  0  0  0  0  0
   -5.1110   -0.6230    0.8490 C   0  0  0  0  0  0  0  0  0  0  0  0
   -5.2550    0.4510    0.1080 N   0  0  0  0  0  0  0  0  0  0  0  0
   -4.9640   -1.8320    0.1620 N   0  0  0  0  0  0  0  0  0  0  0  0
   -4.2210   -2.1750   -0.9720 C   0  0  0  0  0  0  0  0  0  0  0  0
   -2.7820   -2.3490   -0.9540 C   0  0  0  0  0  0  0  0  0  0  0  0
   -1.8460   -1.2840   -0.6510 C   0  0  0  0  0  0  0  0  0  0  0  0
   -1.7690   -0.6070    0.6530 C   0  0  2  0  0  0  0  0  0  0  0  0
   -0.6760    0.3990    0.6620 N   0  0  0  0  0  0  0  0  0  0  0  0
   -1.6070   -1.5150    1.8030 C   0  0  0  0  0  0  0  0  0  0  0  0
   -2.3870   -2.4740    2.0430 O   0  0  0  0  0  0  0  0  0  0  0  0
   -0.5560   -1.3770    2.7310 O   0  0  0  0  0  0  0  0  0  0  0  0
   -5.9520   -0.7300    2.8470 H   0  0  0  0  0  0  0  0  0  0  0  0
   -4.2570   -0.2390    2.7850 H   0  0  0  0  0  0  0  0  0  0  0  0
   -5.2660    0.4660   -0.9130 H   0  0  0  0  0  0  0  0  0  0  0  0
   -5.5440   -2.6460    0.6240 H   0  0  0  0  0  0  0  0  0  0  0  0
   -4.4870   -1.4060   -1.8020 H   0  0  0  0  0  0  0  0  0  0  0  0
   -4.6660   -3.1250   -1.4500 H   0  0  0  0  0  0  0  0  0  0  0  0
   -2.4970   -2.7500   -2.0260 H   0  0  0  0  0  0  0  0  0  0  0  0
   -2.5390   -3.2860   -0.2900 H   0  0  0  0  0  0  0  0  0  0  0  0
   -0.7900   -1.7480   -0.8000 H   0  0  0  0  0  0  0  0  0  0  0  0
   -1.9430   -0.5200   -1.5010 H   0  0  0  0  0  0  0  0  0  0  0  0
   -2.6530    0.0210    0.8170 H   0  0  0  0  0  0  0  0  0  0  0  0
    0.2720   -0.0180    0.6380 H   0  0  0  0  0  0  0  0  0  0  0  0
  1 13  1  0  0  0  0
  2 12  1  0  0  0  0
  2  1  1  0  0  0  0
  3  2  2  0  0  0  0
  4  5  2  0  0  0  0
  4  3  1  0  0  0  0
  5 11  1  0  0  0  0
  6  7  1  0  0  0  0
  6  5  1  0  0  0  0
  7 18  1  6  0  0  0
  7  8  1  0  0  0  0
  8 20  1  0  0  0  0
  8 19  1  0  0  0  0
  9  7  1  0  0  0  0
  9 23  1  0  0  0  0
 10  9  2  0  0  0  0
 11 21  1  0  0  0  0
 11 12  2  0  0  0  0
 12 22  1  0  0  0  0
 14  3  1  0  0  0  0
 15  4  1  0  0  0  0
 16  6  1  0  0  0  0
 17  6  1  0  0  0  0
 23 24  1  0  0  0  0
 23 27  1  0  0  0  0
 24 28  1  0  0  0  0
 25 24  1  0  0  0  0
 25 26  2  0  0  0  0
 29 24  1  0  0  0  0
 30 43  1  0  0  0  0
 30 42  1  0  0  0  0
 31 30  1  0  0  0  0
 32 31  2  0  0  0  0
 33 45  1  0  0  0  0
 33 31  1  0  0  0  0
 34 35  1  0  0  0  0
 34 33  1  0  0  0  0
 35 36  1  0  0  0  0
 35 49  1  0  0  0  0
 36 37  1  0  0  0  0
 37 38  1  0  0  0  0
 37 52  1  1  0  0  0
 37 39  1  0  0  0  0
 38 25  1  0  0  0  0
 39 40  2  0  0  0  0
 39 41  1  0  0  0  0
 44 32  1  0  0  0  0
 46 34  1  0  0  0  0
 47 34  1  0  0  0  0
 48 35  1  0  0  0  0
 50 36  1  0  0  0  0
 51 36  1  0  0  0  0
 53 38  1  0  0  0  0
M  END
$$$$
