YGV.pdb
 OpenBabel07022419213D

 46 46  0  0  1  0  0  0  0  0999 V2000
   -0.4630   -6.2730   -0.7840 O   0  0  0  0  0  0  0  0  0  0  0  0
    0.3210   -5.1580   -1.0950 C   0  0  0  0  0  0  0  0  0  0  0  0
    1.0610   -4.4990   -0.1350 C   0  0  0  0  0  0  0  0  0  0  0  0
    1.8270   -3.4020   -0.4630 C   0  0  0  0  0  0  0  0  0  0  0  0
    1.8940   -2.9100   -1.7510 C   0  0  0  0  0  0  0  0  0  0  0  0
    2.7330   -1.7380   -2.0050 C   0  0  0  0  0  0  0  0  0  0  0  0
    2.0540   -0.4120   -1.8840 C   0  0  2  0  0  0  0  0  0  0  0  0
    3.0850    0.5970   -2.1790 N   0  0  0  0  0  0  0  0  0  0  0  0
    1.5530   -0.1570   -0.5110 C   0  0  0  0  0  0  0  0  0  0  0  0
    0.6430   -0.8670   -0.0140 O   0  0  0  0  0  0  0  0  0  0  0  0
    1.1590   -3.5620   -2.7180 C   0  0  0  0  0  0  0  0  0  0  0  0
    0.3960   -4.6580   -2.3790 C   0  0  0  0  0  0  0  0  0  0  0  0
   -1.2980   -6.2160   -0.2110 H   0  0  0  0  0  0  0  0  0  0  0  0
    1.0080   -4.8840    0.8750 H   0  0  0  0  0  0  0  0  0  0  0  0
    2.3750   -2.9540    0.3650 H   0  0  0  0  0  0  0  0  0  0  0  0
    3.2090   -1.8780   -2.9990 H   0  0  0  0  0  0  0  0  0  0  0  0
    3.5720   -1.7510   -1.2770 H   0  0  0  0  0  0  0  0  0  0  0  0
    1.2280   -0.2510   -2.5750 H   0  0  0  0  0  0  0  0  0  0  0  0
    2.6220    1.5040   -2.4650 H   0  0  0  0  0  0  0  0  0  0  0  0
    3.6560    0.2070   -2.9780 H   0  0  0  0  0  0  0  0  0  0  0  0
    1.2150   -3.1740   -3.7190 H   0  0  0  0  0  0  0  0  0  0  0  0
   -0.1810   -5.1700   -3.1370 H   0  0  0  0  0  0  0  0  0  0  0  0
    2.0710    0.8920    0.3000 N   0  0  0  0  0  0  0  0  0  0  0  0
    1.5910    1.1540    1.6420 C   0  0  0  0  0  0  0  0  0  0  0  0
    0.1420    1.4670    1.5790 C   0  0  0  0  0  0  0  0  0  0  0  0
   -0.4670    1.4740    0.4850 O   0  0  0  0  0  0  0  0  0  0  0  0
    2.8330    1.4790   -0.1300 H   0  0  0  0  0  0  0  0  0  0  0  0
    1.7740    0.2640    2.2770 H   0  0  0  0  0  0  0  0  0  0  0  0
    2.1230    2.0240    2.0410 H   0  0  0  0  0  0  0  0  0  0  0  0
   -2.3020    0.8720    4.8680 C   0  0  0  0  0  0  0  0  0  0  0  0
   -2.7580    0.9610    3.4390 C   0  0  0  0  0  0  0  0  0  0  0  0
   -2.4170   -0.3250    2.7380 C   0  0  0  0  0  0  0  0  0  0  0  0
   -2.0390    2.0780    2.6930 C   0  0  2  0  0  0  0  0  0  0  0  0
   -0.6250    1.7710    2.7400 N   0  0  0  0  0  0  0  0  0  0  0  0
   -2.3670    3.3450    3.3620 C   0  0  0  0  0  0  0  0  0  0  0  0
   -3.5620    3.7250    3.3910 O   0  0  0  0  0  0  0  0  0  0  0  0
   -1.4160    4.1490    3.9690 O   0  0  0  0  0  0  0  0  0  0  0  0
   -1.2300    0.6340    4.9210 H   0  0  0  0  0  0  0  0  0  0  0  0
   -2.8510    0.0370    5.3390 H   0  0  0  0  0  0  0  0  0  0  0  0
   -2.5460    1.8280    5.4150 H   0  0  0  0  0  0  0  0  0  0  0  0
   -3.8590    1.0970    3.3970 H   0  0  0  0  0  0  0  0  0  0  0  0
   -1.3210   -0.4250    2.7410 H   0  0  0  0  0  0  0  0  0  0  0  0
   -2.9470   -1.1620    3.2220 H   0  0  0  0  0  0  0  0  0  0  0  0
   -2.8080   -0.2450    1.7010 H   0  0  0  0  0  0  0  0  0  0  0  0
   -2.3700    2.0290    1.6360 H   0  0  0  0  0  0  0  0  0  0  0  0
   -0.0990    1.7610    3.6510 H   0  0  0  0  0  0  0  0  0  0  0  0
  1 13  1  0  0  0  0
  2  1  1  0  0  0  0
  2  3  1  0  0  0  0
  3 14  1  0  0  0  0
  4  3  2  0  0  0  0
  4 15  1  0  0  0  0
  5  4  1  0  0  0  0
  6  7  1  0  0  0  0
  6  5  1  0  0  0  0
  6 17  1  0  0  0  0
  7 18  1  6  0  0  0
  7  9  1  0  0  0  0
  8  7  1  0  0  0  0
  9 10  2  0  0  0  0
  9 23  1  0  0  0  0
 11 12  1  0  0  0  0
 11  5  2  0  0  0  0
 12  2  2  0  0  0  0
 16  6  1  0  0  0  0
 19  8  1  0  0  0  0
 20  8  1  0  0  0  0
 21 11  1  0  0  0  0
 22 12  1  0  0  0  0
 23 24  1  0  0  0  0
 24 29  1  0  0  0  0
 24 28  1  0  0  0  0
 25 24  1  0  0  0  0
 25 34  1  0  0  0  0
 26 25  2  0  0  0  0
 27 23  1  0  0  0  0
 30 38  1  0  0  0  0
 30 39  1  0  0  0  0
 30 40  1  0  0  0  0
 31 30  1  0  0  0  0
 32 42  1  0  0  0  0
 32 43  1  0  0  0  0
 32 31  1  0  0  0  0
 33 45  1  6  0  0  0
 33 34  1  0  0  0  0
 33 35  1  0  0  0  0
 33 31  1  0  0  0  0
 34 46  1  0  0  0  0
 35 36  2  0  0  0  0
 35 37  1  0  0  0  0
 41 31  1  0  0  0  0
 44 32  1  0  0  0  0
M  END
$$$$
