YGY.pdb
 OpenBabel07022419213D

 51 52  0  0  1  0  0  0  0  0999 V2000
   -1.4590    1.7660    4.3140 O   0  0  0  0  0  0  0  0  0  0  0  0
   -0.5140    1.7980    3.3040 C   0  0  0  0  0  0  0  0  0  0  0  0
   -0.6240    2.8040    2.3520 C   0  0  0  0  0  0  0  0  0  0  0  0
    0.2890    2.8840    1.3260 C   0  0  0  0  0  0  0  0  0  0  0  0
    1.3360    1.9860    1.1980 C   0  0  0  0  0  0  0  0  0  0  0  0
    2.3470    2.0520    0.1680 C   0  0  0  0  0  0  0  0  0  0  0  0
    2.1450    1.4570   -1.1420 C   0  0  2  0  0  0  0  0  0  0  0  0
    0.9960    1.9780   -1.9020 N   0  0  0  0  0  0  0  0  0  0  0  0
    2.2680    0.0390   -1.3740 C   0  0  0  0  0  0  0  0  0  0  0  0
    1.6610   -0.4460   -2.3930 O   0  0  0  0  0  0  0  0  0  0  0  0
    1.4100    1.0020    2.1630 C   0  0  0  0  0  0  0  0  0  0  0  0
    0.5040    0.9070    3.1970 C   0  0  0  0  0  0  0  0  0  0  0  0
   -1.2790    1.1550    5.1230 H   0  0  0  0  0  0  0  0  0  0  0  0
   -1.4320    3.5140    2.4330 H   0  0  0  0  0  0  0  0  0  0  0  0
    0.2190    3.6550    0.5820 H   0  0  0  0  0  0  0  0  0  0  0  0
    2.5710    3.1510    0.0100 H   0  0  0  0  0  0  0  0  0  0  0  0
    3.3260    1.6530    0.5790 H   0  0  0  0  0  0  0  0  0  0  0  0
    3.0330    1.8970   -1.7820 H   0  0  0  0  0  0  0  0  0  0  0  0
    1.1970    2.9160   -2.3150 H   0  0  0  0  0  0  0  0  0  0  0  0
    0.7730    1.3460   -2.7030 H   0  0  0  0  0  0  0  0  0  0  0  0
    2.1900    0.2470    2.1610 H   0  0  0  0  0  0  0  0  0  0  0  0
    0.6030    0.1130    3.9420 H   0  0  0  0  0  0  0  0  0  0  0  0
    3.0320   -0.8140   -0.5230 N   0  0  0  0  0  0  0  0  0  0  0  0
    3.1600   -2.1940   -0.8020 C   0  0  0  0  0  0  0  0  0  0  0  0
    1.9730   -3.0120   -0.8690 C   0  0  0  0  0  0  0  0  0  0  0  0
    2.1230   -4.2670   -1.1840 O   0  0  0  0  0  0  0  0  0  0  0  0
    3.4780   -0.3490    0.2870 H   0  0  0  0  0  0  0  0  0  0  0  0
    3.8370   -2.6210    0.0170 H   0  0  0  0  0  0  0  0  0  0  0  0
    3.8130   -2.3520   -1.7180 H   0  0  0  0  0  0  0  0  0  0  0  0
   -4.0070   -0.2020    3.4590 O   0  0  0  0  0  0  0  0  0  0  0  0
   -3.2490   -1.1200    2.7540 C   0  0  0  0  0  0  0  0  0  0  0  0
   -3.8200   -1.7390    1.6670 C   0  0  0  0  0  0  0  0  0  0  0  0
   -3.1670   -2.6660    0.8930 C   0  0  0  0  0  0  0  0  0  0  0  0
   -1.8490   -2.9990    1.2250 C   0  0  0  0  0  0  0  0  0  0  0  0
   -1.1700   -4.0140    0.4390 C   0  0  0  0  0  0  0  0  0  0  0  0
   -0.4540   -3.5880   -0.7900 C   0  0  2  0  0  0  0  0  0  0  0  0
    0.6170   -2.6430   -0.6390 N   0  0  0  0  0  0  0  0  0  0  0  0
   -1.4120   -3.1350   -1.8680 C   0  0  0  0  0  0  0  0  0  0  0  0
   -2.3960   -3.8310   -2.1950 O   0  0  0  0  0  0  0  0  0  0  0  0
   -1.2680   -2.3740    2.3230 C   0  0  0  0  0  0  0  0  0  0  0  0
   -1.9540   -1.4390    3.0920 C   0  0  0  0  0  0  0  0  0  0  0  0
   -1.2160   -1.9310   -2.5210 O   0  0  0  0  0  0  0  0  0  0  0  0
   -4.0890    0.7750    3.1390 H   0  0  0  0  0  0  0  0  0  0  0  0
   -4.8540   -1.4880    1.3930 H   0  0  0  0  0  0  0  0  0  0  0  0
   -3.6940   -3.1030    0.0620 H   0  0  0  0  0  0  0  0  0  0  0  0
   -0.4350   -4.5320    1.1360 H   0  0  0  0  0  0  0  0  0  0  0  0
   -1.9050   -4.8130    0.1360 H   0  0  0  0  0  0  0  0  0  0  0  0
    0.0060   -4.5260   -1.2380 H   0  0  0  0  0  0  0  0  0  0  0  0
    0.4180   -1.6720   -0.3490 H   0  0  0  0  0  0  0  0  0  0  0  0
   -0.2530   -2.6330    2.5750 H   0  0  0  0  0  0  0  0  0  0  0  0
   -1.5210   -0.9530    3.9560 H   0  0  0  0  0  0  0  0  0  0  0  0
  1 13  1  0  0  0  0
  2  1  1  0  0  0  0
  3 14  1  0  0  0  0
  3  2  2  0  0  0  0
  4  3  1  0  0  0  0
  5  4  2  0  0  0  0
  5 11  1  0  0  0  0
  6 17  1  0  0  0  0
  6  5  1  0  0  0  0
  7 18  1  6  0  0  0
  7  6  1  0  0  0  0
  8  7  1  0  0  0  0
  9  7  1  0  0  0  0
  9 23  1  0  0  0  0
 10  9  2  0  0  0  0
 11 12  2  0  0  0  0
 12  2  1  0  0  0  0
 12 22  1  0  0  0  0
 15  4  1  0  0  0  0
 16  6  1  0  0  0  0
 19  8  1  0  0  0  0
 20  8  1  0  0  0  0
 21 11  1  0  0  0  0
 23 27  1  0  0  0  0
 24 23  1  0  0  0  0
 24 28  1  0  0  0  0
 25 24  1  0  0  0  0
 25 37  1  0  0  0  0
 26 25  2  0  0  0  0
 29 24  1  0  0  0  0
 31 41  1  0  0  0  0
 31 30  1  0  0  0  0
 32 31  2  0  0  0  0
 33 34  2  0  0  0  0
 33 32  1  0  0  0  0
 34 40  1  0  0  0  0
 35 46  1  0  0  0  0
 35 34  1  0  0  0  0
 36 48  1  6  0  0  0
 36 37  1  0  0  0  0
 36 35  1  0  0  0  0
 37 49  1  0  0  0  0
 38 36  1  0  0  0  0
 39 38  1  0  0  0  0
 40 50  1  0  0  0  0
 40 41  2  0  0  0  0
 41 51  1  0  0  0  0
 42 38  2  0  0  0  0
 43 30  1  0  0  0  0
 44 32  1  0  0  0  0
 45 33  1  0  0  0  0
 47 35  1  0  0  0  0
M  END
$$$$
