YHA.pdb
 OpenBabel07022419213D

 50 51  0  0  1  0  0  0  0  0999 V2000
    1.3230    4.2450    4.5550 O   0  0  0  0  0  0  0  0  0  0  0  0
    1.8010    3.0340    4.1230 C   0  0  0  0  0  0  0  0  0  0  0  0
    1.1330    1.8620    4.3930 C   0  0  0  0  0  0  0  0  0  0  0  0
    1.6400    0.6360    3.9420 C   0  0  0  0  0  0  0  0  0  0  0  0
    2.8150    0.5900    3.2220 C   0  0  0  0  0  0  0  0  0  0  0  0
    3.3080   -0.7220    2.7690 C   0  0  0  0  0  0  0  0  0  0  0  0
    2.8110   -1.1330    1.4280 C   0  0  2  0  0  0  0  0  0  0  0  0
    3.1690   -0.2320    0.3660 N   0  0  0  0  0  0  0  0  0  0  0  0
    1.3520   -1.4370    1.4320 C   0  0  0  0  0  0  0  0  0  0  0  0
    0.8680   -2.2170    2.2930 O   0  0  0  0  0  0  0  0  0  0  0  0
    3.4530    1.7770    2.9720 C   0  0  0  0  0  0  0  0  0  0  0  0
    2.9690    2.9730    3.4060 C   0  0  0  0  0  0  0  0  0  0  0  0
    1.2640    4.5120    5.5370 H   0  0  0  0  0  0  0  0  0  0  0  0
    0.2200    1.9220    4.9560 H   0  0  0  0  0  0  0  0  0  0  0  0
    1.0560   -0.2420    4.1950 H   0  0  0  0  0  0  0  0  0  0  0  0
    2.9750   -1.4810    3.5060 H   0  0  0  0  0  0  0  0  0  0  0  0
    4.4230   -0.7790    2.7680 H   0  0  0  0  0  0  0  0  0  0  0  0
    3.3130   -2.1140    1.1860 H   0  0  0  0  0  0  0  0  0  0  0  0
    4.2010   -0.2110    0.2280 H   0  0  0  0  0  0  0  0  0  0  0  0
    2.7930   -0.6710   -0.5280 H   0  0  0  0  0  0  0  0  0  0  0  0
    4.3730    1.7600    2.4110 H   0  0  0  0  0  0  0  0  0  0  0  0
    3.5140    3.8910    3.1820 H   0  0  0  0  0  0  0  0  0  0  0  0
    0.4430   -0.8790    0.4910 N   0  0  0  0  0  0  0  0  0  0  0  0
   -0.9820   -1.1960    0.5210 C   0  0  1  0  0  0  0  0  0  0  0  0
   -1.8060    0.0180    0.8010 C   0  0  0  0  0  0  0  0  0  0  0  0
   -3.2410   -0.3450    0.8290 C   0  0  0  0  0  0  0  0  0  0  0  0
   -3.9520   -0.7710    1.9570 C   0  0  0  0  0  0  0  0  0  0  0  0
   -5.2240   -1.0160    1.6300 N   0  0  0  0  0  0  0  0  0  0  0  0
   -5.3310   -0.7540    0.3250 C   0  0  0  0  0  0  0  0  0  0  0  0
   -4.1510   -0.3520   -0.1680 N   0  0  0  0  0  0  0  0  0  0  0  0
   -1.4150   -1.8380   -0.7240 C   0  0  0  0  0  0  0  0  0  0  0  0
   -2.5720   -2.2580   -0.9290 O   0  0  0  0  0  0  0  0  0  0  0  0
    0.8250   -0.2290   -0.2310 H   0  0  0  0  0  0  0  0  0  0  0  0
   -1.1400   -1.9040    1.3720 H   0  0  0  0  0  0  0  0  0  0  0  0
   -1.6110    0.8510    0.0880 H   0  0  0  0  0  0  0  0  0  0  0  0
   -1.5560    0.3810    1.8390 H   0  0  0  0  0  0  0  0  0  0  0  0
   -3.4800   -0.8680    2.9270 H   0  0  0  0  0  0  0  0  0  0  0  0
   -5.9770   -1.3420    2.2550 H   0  0  0  0  0  0  0  0  0  0  0  0
   -6.2700   -0.8650   -0.2330 H   0  0  0  0  0  0  0  0  0  0  0  0
   -0.7020   -1.7020   -4.2290 C   0  0  0  0  0  0  0  0  0  0  0  0
   -0.9110   -2.6550   -3.0450 C   0  0  2  0  0  0  0  0  0  0  0  0
   -0.4900   -2.0240   -1.8180 N   0  0  0  0  0  0  0  0  0  0  0  0
   -0.1060   -3.8660   -3.3520 C   0  0  0  0  0  0  0  0  0  0  0  0
    0.8080   -4.2370   -2.5990 O   0  0  0  0  0  0  0  0  0  0  0  0
   -0.3950   -4.5800   -4.5040 O   0  0  0  0  0  0  0  0  0  0  0  0
   -0.6620   -2.3260   -5.1450 H   0  0  0  0  0  0  0  0  0  0  0  0
   -1.5020   -0.9620   -4.2190 H   0  0  0  0  0  0  0  0  0  0  0  0
    0.3070   -1.2500   -4.0640 H   0  0  0  0  0  0  0  0  0  0  0  0
   -1.9800   -2.9250   -2.9480 H   0  0  0  0  0  0  0  0  0  0  0  0
    0.5080   -1.7020   -1.7380 H   0  0  0  0  0  0  0  0  0  0  0  0
  1 13  1  0  0  0  0
  2  3  1  0  0  0  0
  2  1  1  0  0  0  0
  3 14  1  0  0  0  0
  4 15  1  0  0  0  0
  4  3  2  0  0  0  0
  5  4  1  0  0  0  0
  6  5  1  0  0  0  0
  6 16  1  0  0  0  0
  7 18  1  6  0  0  0
  7  9  1  0  0  0  0
  7  6  1  0  0  0  0
  8  7  1  0  0  0  0
  9 10  2  0  0  0  0
 11  5  2  0  0  0  0
 11 12  1  0  0  0  0
 12  2  2  0  0  0  0
 17  6  1  0  0  0  0
 19  8  1  0  0  0  0
 20  8  1  0  0  0  0
 21 11  1  0  0  0  0
 22 12  1  0  0  0  0
 23 24  1  0  0  0  0
 23  9  1  0  0  0  0
 24 25  1  0  0  0  0
 24 34  1  1  0  0  0
 25 26  1  0  0  0  0
 25 36  1  0  0  0  0
 26 27  2  0  0  0  0
 27 37  1  0  0  0  0
 28 27  1  0  0  0  0
 28 38  1  0  0  0  0
 29 28  1  0  0  0  0
 30 29  2  0  0  0  0
 30 26  1  0  0  0  0
 31 24  1  0  0  0  0
 32 31  2  0  0  0  0
 33 23  1  0  0  0  0
 35 25  1  0  0  0  0
 39 29  1  0  0  0  0
 40 47  1  0  0  0  0
 40 48  1  0  0  0  0
 40 41  1  0  0  0  0
 41 49  1  1  0  0  0
 41 42  1  0  0  0  0
 42 50  1  0  0  0  0
 42 31  1  0  0  0  0
 43 41  1  0  0  0  0
 43 44  1  0  0  0  0
 45 43  2  0  0  0  0
 46 40  1  0  0  0  0
M  END
$$$$
