YHC.pdb
 OpenBabel07022419213D

 51 52  0  0  1  0  0  0  0  0999 V2000
    0.3390   -2.2030    6.6550 O   0  0  0  0  0  0  0  0  0  0  0  0
    0.9100   -2.1300    5.3740 C   0  0  0  0  0  0  0  0  0  0  0  0
    2.2400   -2.3420    5.1740 C   0  0  0  0  0  0  0  0  0  0  0  0
    2.7900   -2.2640    3.8900 C   0  0  0  0  0  0  0  0  0  0  0  0
    1.9870   -1.9700    2.8100 C   0  0  0  0  0  0  0  0  0  0  0  0
    2.5740   -1.8790    1.4290 C   0  0  0  0  0  0  0  0  0  0  0  0
    2.9840   -0.4480    1.1290 C   0  0  2  0  0  0  0  0  0  0  0  0
    3.9610   -0.0790    2.1360 N   0  0  0  0  0  0  0  0  0  0  0  0
    1.8460    0.4740    1.1410 C   0  0  0  0  0  0  0  0  0  0  0  0
    1.7540    1.3500    2.0350 O   0  0  0  0  0  0  0  0  0  0  0  0
    0.6480   -1.7590    3.0360 C   0  0  0  0  0  0  0  0  0  0  0  0
    0.1010   -1.8370    4.3130 C   0  0  0  0  0  0  0  0  0  0  0  0
   -0.5150   -2.7090    6.8400 H   0  0  0  0  0  0  0  0  0  0  0  0
    2.8920   -2.5760    6.0160 H   0  0  0  0  0  0  0  0  0  0  0  0
    3.8430   -2.4420    3.8000 H   0  0  0  0  0  0  0  0  0  0  0  0
    3.4950   -2.4980    1.4400 H   0  0  0  0  0  0  0  0  0  0  0  0
    1.8980   -2.2660    0.6630 H   0  0  0  0  0  0  0  0  0  0  0  0
    3.5210   -0.4680    0.1560 H   0  0  0  0  0  0  0  0  0  0  0  0
    4.9320   -0.3460    1.8560 H   0  0  0  0  0  0  0  0  0  0  0  0
    3.9290    0.9660    2.2180 H   0  0  0  0  0  0  0  0  0  0  0  0
    0.0300   -1.5280    2.2000 H   0  0  0  0  0  0  0  0  0  0  0  0
   -0.9590   -1.6620    4.4320 H   0  0  0  0  0  0  0  0  0  0  0  0
    0.7980    0.4410    0.1650 N   0  0  0  0  0  0  0  0  0  0  0  0
   -0.2870    1.3880    0.2480 C   0  0  1  0  0  0  0  0  0  0  0  0
   -0.0620    2.4240   -0.8550 C   0  0  0  0  0  0  0  0  0  0  0  0
   -0.0500    1.7900   -2.1910 C   0  0  0  0  0  0  0  0  0  0  0  0
   -1.1450    1.5980   -2.9990 C   0  0  0  0  0  0  0  0  0  0  0  0
   -0.7360    0.9970   -4.1230 N   0  0  0  0  0  0  0  0  0  0  0  0
    0.5860    0.8130   -4.0270 C   0  0  0  0  0  0  0  0  0  0  0  0
    1.0090    1.2970   -2.8480 N   0  0  0  0  0  0  0  0  0  0  0  0
   -1.5770    0.7460   -0.0120 C   0  0  0  0  0  0  0  0  0  0  0  0
   -2.6780    1.4100    0.0060 O   0  0  0  0  0  0  0  0  0  0  0  0
    0.8300   -0.2770   -0.6120 H   0  0  0  0  0  0  0  0  0  0  0  0
   -0.2180    1.9420    1.2080 H   0  0  0  0  0  0  0  0  0  0  0  0
   -0.9170    3.1250   -0.7930 H   0  0  0  0  0  0  0  0  0  0  0  0
    0.8610    2.9860   -0.7130 H   0  0  0  0  0  0  0  0  0  0  0  0
   -2.1910    1.8880   -2.7690 H   0  0  0  0  0  0  0  0  0  0  0  0
   -1.3530    0.7190   -4.9370 H   0  0  0  0  0  0  0  0  0  0  0  0
    1.2470    0.3520   -4.7610 H   0  0  0  0  0  0  0  0  0  0  0  0
   -1.7550   -0.6240   -0.3020 N   0  0  0  0  0  0  0  0  0  0  0  0
   -3.0290   -1.2280   -0.5640 C   0  0  1  0  0  0  0  0  0  0  0  0
   -3.1270   -1.8580   -1.9250 C   0  0  0  0  0  0  0  0  0  0  0  0
   -4.7910   -2.5660   -2.0820 S   0  0  0  0  0  0  0  0  0  0  0  0
   -3.3040   -2.2680    0.4420 C   0  0  0  0  0  0  0  0  0  0  0  0
   -4.3750   -2.9550    0.4320 O   0  0  0  0  0  0  0  0  0  0  0  0
   -2.3760   -2.5160    1.4340 O   0  0  0  0  0  0  0  0  0  0  0  0
   -0.9200   -1.2460   -0.3310 H   0  0  0  0  0  0  0  0  0  0  0  0
   -3.8220   -0.4460   -0.4940 H   0  0  0  0  0  0  0  0  0  0  0  0
   -2.4150   -2.7150   -2.0060 H   0  0  0  0  0  0  0  0  0  0  0  0
   -3.0060   -1.1310   -2.7500 H   0  0  0  0  0  0  0  0  0  0  0  0
   -4.7520   -3.9190   -2.4680 H   0  0  0  0  0  0  0  0  0  0  0  0
  1 13  1  0  0  0  0
  2  1  1  0  0  0  0
  3  2  1  0  0  0  0
  3 14  1  0  0  0  0
  4  3  2  0  0  0  0
  5 11  2  0  0  0  0
  5  4  1  0  0  0  0
  6 16  1  0  0  0  0
  6  5  1  0  0  0  0
  7 18  1  6  0  0  0
  7  9  1  0  0  0  0
  7  6  1  0  0  0  0
  7  8  1  0  0  0  0
  8 20  1  0  0  0  0
  9 10  2  0  0  0  0
 11 12  1  0  0  0  0
 12 22  1  0  0  0  0
 12  2  2  0  0  0  0
 15  4  1  0  0  0  0
 17  6  1  0  0  0  0
 19  8  1  0  0  0  0
 21 11  1  0  0  0  0
 23 24  1  0  0  0  0
 23  9  1  0  0  0  0
 24 34  1  1  0  0  0
 25 35  1  0  0  0  0
 25 36  1  0  0  0  0
 25 24  1  0  0  0  0
 26 25  1  0  0  0  0
 27 37  1  0  0  0  0
 27 26  2  0  0  0  0
 28 29  1  0  0  0  0
 28 27  1  0  0  0  0
 29 30  2  0  0  0  0
 30 26  1  0  0  0  0
 31 32  2  0  0  0  0
 31 24  1  0  0  0  0
 33 23  1  0  0  0  0
 38 28  1  0  0  0  0
 39 29  1  0  0  0  0
 40 31  1  0  0  0  0
 41 48  1  1  0  0  0
 41 40  1  0  0  0  0
 41 44  1  0  0  0  0
 42 41  1  0  0  0  0
 43 42  1  0  0  0  0
 44 46  1  0  0  0  0
 45 44  2  0  0  0  0
 47 40  1  0  0  0  0
 49 42  1  0  0  0  0
 50 42  1  0  0  0  0
 51 43  1  0  0  0  0
M  END
$$$$
