YHD.pdb
 OpenBabel07022419213D

 53 54  0  0  1  0  0  0  0  0999 V2000
    4.4370   -4.0620    0.5130 O   0  0  0  0  0  0  0  0  0  0  0  0
    4.0530   -2.7610    0.1300 C   0  0  0  0  0  0  0  0  0  0  0  0
    2.9120   -2.5810   -0.6100 C   0  0  0  0  0  0  0  0  0  0  0  0
    2.5600   -1.3170   -0.9670 C   0  0  0  0  0  0  0  0  0  0  0  0
    3.2860   -0.1950   -0.6270 C   0  0  0  0  0  0  0  0  0  0  0  0
    2.7970    1.1020   -1.0630 C   0  0  0  0  0  0  0  0  0  0  0  0
    1.9350    1.8800   -0.1550 C   0  0  2  0  0  0  0  0  0  0  0  0
    2.5210    2.2130    1.0970 N   0  0  0  0  0  0  0  0  0  0  0  0
    0.5410    1.4010    0.0340 C   0  0  0  0  0  0  0  0  0  0  0  0
   -0.1930    1.0590   -0.9230 O   0  0  0  0  0  0  0  0  0  0  0  0
    4.4250   -0.4230    0.1150 C   0  0  0  0  0  0  0  0  0  0  0  0
    4.8130   -1.6810    0.4940 C   0  0  0  0  0  0  0  0  0  0  0  0
    4.2030   -4.3960    1.4540 H   0  0  0  0  0  0  0  0  0  0  0  0
    2.3270   -3.4470   -0.8870 H   0  0  0  0  0  0  0  0  0  0  0  0
    1.6420   -1.2070   -1.5620 H   0  0  0  0  0  0  0  0  0  0  0  0
    3.6260    1.7810   -1.3950 H   0  0  0  0  0  0  0  0  0  0  0  0
    2.2120    0.9430   -2.0200 H   0  0  0  0  0  0  0  0  0  0  0  0
    1.8010    2.8880   -0.6770 H   0  0  0  0  0  0  0  0  0  0  0  0
    3.5320    2.1050    1.1820 H   0  0  0  0  0  0  0  0  0  0  0  0
    2.0890    2.9800    1.6210 H   0  0  0  0  0  0  0  0  0  0  0  0
    5.0250    0.4210    0.4050 H   0  0  0  0  0  0  0  0  0  0  0  0
    5.6980   -1.8310    1.0720 H   0  0  0  0  0  0  0  0  0  0  0  0
   -0.0320    1.3140    1.3410 N   0  0  0  0  0  0  0  0  0  0  0  0
   -1.3490    0.8840    1.6210 C   0  0  1  0  0  0  0  0  0  0  0  0
   -2.3990    1.9370    1.5790 C   0  0  0  0  0  0  0  0  0  0  0  0
   -3.7590    1.4530    1.8790 C   0  0  0  0  0  0  0  0  0  0  0  0
   -4.2680    1.3790    3.1820 C   0  0  0  0  0  0  0  0  0  0  0  0
   -5.5060    0.8980    3.1540 N   0  0  0  0  0  0  0  0  0  0  0  0
   -5.8040    0.6620    1.8680 C   0  0  0  0  0  0  0  0  0  0  0  0
   -4.7520    0.9960    1.1020 N   0  0  0  0  0  0  0  0  0  0  0  0
   -1.7490   -0.4590    1.1480 C   0  0  0  0  0  0  0  0  0  0  0  0
   -2.9700   -0.8600    1.2740 O   0  0  0  0  0  0  0  0  0  0  0  0
    0.6580    1.6160    2.1110 H   0  0  0  0  0  0  0  0  0  0  0  0
   -1.2900    0.6780    2.7760 H   0  0  0  0  0  0  0  0  0  0  0  0
   -2.1920    2.7660    2.3230 H   0  0  0  0  0  0  0  0  0  0  0  0
   -2.4670    2.4820    0.6170 H   0  0  0  0  0  0  0  0  0  0  0  0
   -3.7170    1.6750    4.0640 H   0  0  0  0  0  0  0  0  0  0  0  0
   -6.1220    0.7400    4.0150 H   0  0  0  0  0  0  0  0  0  0  0  0
   -6.7540    0.2650    1.5400 H   0  0  0  0  0  0  0  0  0  0  0  0
   -0.9190   -1.4150    0.5450 N   0  0  0  0  0  0  0  0  0  0  0  0
   -1.4030   -2.7270    0.1000 C   0  0  1  0  0  0  0  0  0  0  0  0
   -1.1790   -2.8960   -1.3730 C   0  0  0  0  0  0  0  0  0  0  0  0
   -1.7080   -4.1840   -1.8410 C   0  0  0  0  0  0  0  0  0  0  0  0
   -2.3830   -4.9720   -1.1400 O   0  0  0  0  0  0  0  0  0  0  0  0
   -0.6580   -3.7020    0.9220 C   0  0  0  0  0  0  0  0  0  0  0  0
   -0.8690   -4.9180    0.8430 O   0  0  0  0  0  0  0  0  0  0  0  0
   -1.4790   -4.6360   -3.1560 O   0  0  0  0  0  0  0  0  0  0  0  0
    0.3040   -3.2690    1.8100 O   0  0  0  0  0  0  0  0  0  0  0  0
    0.0760   -1.2300    0.4050 H   0  0  0  0  0  0  0  0  0  0  0  0
   -2.4790   -2.8590    0.3070 H   0  0  0  0  0  0  0  0  0  0  0  0
   -0.1060   -2.8240   -1.6540 H   0  0  0  0  0  0  0  0  0  0  0  0
   -1.7420   -2.1030   -1.9250 H   0  0  0  0  0  0  0  0  0  0  0  0
   -2.1800   -5.1830   -3.6530 H   0  0  0  0  0  0  0  0  0  0  0  0
  1 13  1  0  0  0  0
  2 12  1  0  0  0  0
  2  1  1  0  0  0  0
  3  2  2  0  0  0  0
  4  5  2  0  0  0  0
  4  3  1  0  0  0  0
  5 11  1  0  0  0  0
  6  5  1  0  0  0  0
  6  7  1  0  0  0  0
  7 18  1  6  0  0  0
  7  9  1  0  0  0  0
  7  8  1  0  0  0  0
  8 19  1  0  0  0  0
  8 20  1  0  0  0  0
  9 23  1  0  0  0  0
 10  9  2  0  0  0  0
 11 21  1  0  0  0  0
 11 12  2  0  0  0  0
 12 22  1  0  0  0  0
 14  3  1  0  0  0  0
 15  4  1  0  0  0  0
 16  6  1  0  0  0  0
 17  6  1  0  0  0  0
 23 24  1  0  0  0  0
 23 33  1  0  0  0  0
 24 34  1  1  0  0  0
 25 24  1  0  0  0  0
 25 26  1  0  0  0  0
 25 35  1  0  0  0  0
 26 27  2  0  0  0  0
 27 37  1  0  0  0  0
 28 27  1  0  0  0  0
 28 38  1  0  0  0  0
 29 28  1  0  0  0  0
 30 29  2  0  0  0  0
 30 26  1  0  0  0  0
 31 32  2  0  0  0  0
 31 24  1  0  0  0  0
 36 25  1  0  0  0  0
 39 29  1  0  0  0  0
 40 31  1  0  0  0  0
 41 50  1  1  0  0  0
 41 40  1  0  0  0  0
 41 45  1  0  0  0  0
 42 41  1  0  0  0  0
 43 42  1  0  0  0  0
 43 44  2  0  0  0  0
 45 48  1  0  0  0  0
 46 45  2  0  0  0  0
 47 43  1  0  0  0  0
 49 40  1  0  0  0  0
 51 42  1  0  0  0  0
 52 42  1  0  0  0  0
 53 47  1  0  0  0  0
M  END
$$$$
