YHE.pdb
 OpenBabel07022419213D

 56 57  0  0  1  0  0  0  0  0999 V2000
    0.5860    3.2540    5.5330 O   0  0  0  0  0  0  0  0  0  0  0  0
    1.2210    2.2150    4.8680 C   0  0  0  0  0  0  0  0  0  0  0  0
    2.3380    2.4040    4.0850 C   0  0  0  0  0  0  0  0  0  0  0  0
    2.9840    1.3850    3.4160 C   0  0  0  0  0  0  0  0  0  0  0  0
    2.5080    0.0940    3.5190 C   0  0  0  0  0  0  0  0  0  0  0  0
    3.1480   -1.0320    2.8360 C   0  0  0  0  0  0  0  0  0  0  0  0
    2.6100   -1.2970    1.4480 C   0  0  2  0  0  0  0  0  0  0  0  0
    2.8140   -0.1190    0.6190 N   0  0  0  0  0  0  0  0  0  0  0  0
    1.1850   -1.7050    1.4710 C   0  0  0  0  0  0  0  0  0  0  0  0
    0.8530   -2.6890    2.1440 O   0  0  0  0  0  0  0  0  0  0  0  0
    1.3910   -0.1130    4.2990 C   0  0  0  0  0  0  0  0  0  0  0  0
    0.7560    0.9150    4.9610 C   0  0  0  0  0  0  0  0  0  0  0  0
    0.3500    3.1140    6.5070 H   0  0  0  0  0  0  0  0  0  0  0  0
    2.7220    3.4290    3.9990 H   0  0  0  0  0  0  0  0  0  0  0  0
    3.8750    1.6150    2.8070 H   0  0  0  0  0  0  0  0  0  0  0  0
    3.0900   -1.9510    3.4520 H   0  0  0  0  0  0  0  0  0  0  0  0
    4.2300   -0.7880    2.7140 H   0  0  0  0  0  0  0  0  0  0  0  0
    3.2720   -2.0980    1.0180 H   0  0  0  0  0  0  0  0  0  0  0  0
    3.7350    0.3030    0.8080 H   0  0  0  0  0  0  0  0  0  0  0  0
    2.6750   -0.3460   -0.3950 H   0  0  0  0  0  0  0  0  0  0  0  0
    0.9610   -1.1160    4.4240 H   0  0  0  0  0  0  0  0  0  0  0  0
   -0.1330    0.7600    5.5850 H   0  0  0  0  0  0  0  0  0  0  0  0
    0.1900   -1.0010    0.7460 N   0  0  0  0  0  0  0  0  0  0  0  0
   -1.2130   -1.3440    0.7250 C   0  0  1  0  0  0  0  0  0  0  0  0
   -2.1030   -0.3350    1.3410 C   0  0  0  0  0  0  0  0  0  0  0  0
   -3.5120   -0.7860    1.2630 C   0  0  0  0  0  0  0  0  0  0  0  0
   -4.1630   -1.5650    2.2220 C   0  0  0  0  0  0  0  0  0  0  0  0
   -5.4180   -1.7590    1.7830 N   0  0  0  0  0  0  0  0  0  0  0  0
   -5.5960   -1.1510    0.6080 C   0  0  0  0  0  0  0  0  0  0  0  0
   -4.4300   -0.5610    0.2990 N   0  0  0  0  0  0  0  0  0  0  0  0
   -1.6390   -1.8450   -0.6040 C   0  0  0  0  0  0  0  0  0  0  0  0
   -2.7940   -2.2350   -0.8930 O   0  0  0  0  0  0  0  0  0  0  0  0
    0.5260   -0.1830    0.1990 H   0  0  0  0  0  0  0  0  0  0  0  0
   -1.2920   -2.2550    1.4020 H   0  0  0  0  0  0  0  0  0  0  0  0
   -2.0520    0.6750    0.9070 H   0  0  0  0  0  0  0  0  0  0  0  0
   -1.8950   -0.1850    2.4380 H   0  0  0  0  0  0  0  0  0  0  0  0
   -3.7490   -1.9520    3.1570 H   0  0  0  0  0  0  0  0  0  0  0  0
   -6.1620   -2.3140    2.2940 H   0  0  0  0  0  0  0  0  0  0  0  0
   -6.5020   -1.1360    0.0210 H   0  0  0  0  0  0  0  0  0  0  0  0
   -0.6860   -1.9130   -1.6890 N   0  0  0  0  0  0  0  0  0  0  0  0
   -1.0620   -2.3970   -3.0000 C   0  0  1  0  0  0  0  0  0  0  0  0
   -0.9010   -1.3760   -4.0920 C   0  0  0  0  0  0  0  0  0  0  0  0
    0.5310   -0.8990   -4.2250 C   0  0  0  0  0  0  0  0  0  0  0  0
    0.6320    0.0960   -5.3160 C   0  0  0  0  0  0  0  0  0  0  0  0
    0.5820   -0.2180   -6.5340 O   0  0  0  0  0  0  0  0  0  0  0  0
   -0.2750   -3.6130   -3.3300 C   0  0  0  0  0  0  0  0  0  0  0  0
   -0.4690   -4.1730   -4.4210 O   0  0  0  0  0  0  0  0  0  0  0  0
    0.7900    1.4500   -4.9990 O   0  0  0  0  0  0  0  0  0  0  0  0
    0.6440   -4.0760   -2.4120 O   0  0  0  0  0  0  0  0  0  0  0  0
    0.2950   -1.6160   -1.5590 H   0  0  0  0  0  0  0  0  0  0  0  0
   -2.1520   -2.6470   -2.9540 H   0  0  0  0  0  0  0  0  0  0  0  0
   -1.1820   -1.8880   -5.0380 H   0  0  0  0  0  0  0  0  0  0  0  0
   -1.5990   -0.5590   -3.9190 H   0  0  0  0  0  0  0  0  0  0  0  0
    0.8470   -0.4270   -3.2730 H   0  0  0  0  0  0  0  0  0  0  0  0
    1.1960   -1.7340   -4.4690 H   0  0  0  0  0  0  0  0  0  0  0  0
    0.4810    2.1920   -5.6080 H   0  0  0  0  0  0  0  0  0  0  0  0
  1 13  1  0  0  0  0
  2 12  1  0  0  0  0
  2  1  1  0  0  0  0
  3  2  2  0  0  0  0
  4  5  2  0  0  0  0
  4  3  1  0  0  0  0
  5 11  1  0  0  0  0
  6 16  1  0  0  0  0
  6  5  1  0  0  0  0
  7 18  1  6  0  0  0
  7  9  1  0  0  0  0
  7  6  1  0  0  0  0
  8 19  1  0  0  0  0
  8  7  1  0  0  0  0
  9 10  2  0  0  0  0
 11 21  1  0  0  0  0
 11 12  2  0  0  0  0
 12 22  1  0  0  0  0
 14  3  1  0  0  0  0
 15  4  1  0  0  0  0
 17  6  1  0  0  0  0
 20  8  1  0  0  0  0
 23  9  1  0  0  0  0
 24 23  1  0  0  0  0
 24 25  1  0  0  0  0
 24 34  1  1  0  0  0
 25 36  1  0  0  0  0
 26 25  1  0  0  0  0
 26 27  2  0  0  0  0
 27 37  1  0  0  0  0
 28 27  1  0  0  0  0
 28 38  1  0  0  0  0
 29 28  1  0  0  0  0
 30 29  2  0  0  0  0
 30 26  1  0  0  0  0
 31 24  1  0  0  0  0
 32 31  2  0  0  0  0
 33 23  1  0  0  0  0
 35 25  1  0  0  0  0
 39 29  1  0  0  0  0
 40 50  1  0  0  0  0
 40 31  1  0  0  0  0
 41 51  1  1  0  0  0
 41 40  1  0  0  0  0
 42 53  1  0  0  0  0
 42 41  1  0  0  0  0
 43 42  1  0  0  0  0
 43 54  1  0  0  0  0
 44 48  1  0  0  0  0
 44 43  1  0  0  0  0
 45 44  2  0  0  0  0
 46 41  1  0  0  0  0
 46 49  1  0  0  0  0
 47 46  2  0  0  0  0
 52 42  1  0  0  0  0
 55 43  1  0  0  0  0
 56 48  1  0  0  0  0
M  END
$$$$
