YHF.pdb
 OpenBabel07022419213D

 60 62  0  0  1  0  0  0  0  0999 V2000
    1.8090    1.5000    5.7510 O   0  0  0  0  0  0  0  0  0  0  0  0
    1.9510    1.9540    4.4310 C   0  0  0  0  0  0  0  0  0  0  0  0
    3.1980    2.2710    3.9510 C   0  0  0  0  0  0  0  0  0  0  0  0
    3.3400    2.7170    2.6570 C   0  0  0  0  0  0  0  0  0  0  0  0
    2.2160    2.8350    1.8680 C   0  0  0  0  0  0  0  0  0  0  0  0
    2.2890    3.3160    0.4980 C   0  0  0  0  0  0  0  0  0  0  0  0
    2.5450    2.3410   -0.5780 C   0  0  2  0  0  0  0  0  0  0  0  0
    2.5620    3.1350   -1.8290 N   0  0  0  0  0  0  0  0  0  0  0  0
    1.5790    1.2500   -0.7410 C   0  0  0  0  0  0  0  0  0  0  0  0
    0.8580    1.2390   -1.7970 O   0  0  0  0  0  0  0  0  0  0  0  0
    0.9810    2.5090    2.3810 C   0  0  0  0  0  0  0  0  0  0  0  0
    0.8050    2.0580    3.6770 C   0  0  0  0  0  0  0  0  0  0  0  0
    2.3620    0.7540    6.1370 H   0  0  0  0  0  0  0  0  0  0  0  0
    4.0930    2.1820    4.5670 H   0  0  0  0  0  0  0  0  0  0  0  0
    4.3250    2.9740    2.2600 H   0  0  0  0  0  0  0  0  0  0  0  0
    3.0860    4.1170    0.4590 H   0  0  0  0  0  0  0  0  0  0  0  0
    1.3470    3.8720    0.2650 H   0  0  0  0  0  0  0  0  0  0  0  0
    3.5540    1.8770   -0.5540 H   0  0  0  0  0  0  0  0  0  0  0  0
    3.3470    3.8340   -1.6650 H   0  0  0  0  0  0  0  0  0  0  0  0
    2.8460    2.5650   -2.6320 H   0  0  0  0  0  0  0  0  0  0  0  0
    0.0660    2.5940    1.7710 H   0  0  0  0  0  0  0  0  0  0  0  0
   -0.1690    1.8020    4.0770 H   0  0  0  0  0  0  0  0  0  0  0  0
    1.3430    0.1790    0.1480 N   0  0  0  0  0  0  0  0  0  0  0  0
    0.3700   -0.8630   -0.1060 C   0  0  1  0  0  0  0  0  0  0  0  0
    1.0270   -2.2330   -0.1010 C   0  0  0  0  0  0  0  0  0  0  0  0
    2.0740   -2.3520   -1.1310 C   0  0  0  0  0  0  0  0  0  0  0  0
    2.8580   -3.4650   -1.3880 C   0  0  0  0  0  0  0  0  0  0  0  0
    3.6990   -3.1990   -2.3970 N   0  0  0  0  0  0  0  0  0  0  0  0
    3.4660   -1.9440   -2.7850 C   0  0  0  0  0  0  0  0  0  0  0  0
    2.4860   -1.4330   -2.0220 N   0  0  0  0  0  0  0  0  0  0  0  0
   -0.7170   -0.9240    0.8960 C   0  0  0  0  0  0  0  0  0  0  0  0
   -0.7590   -0.1430    1.8700 O   0  0  0  0  0  0  0  0  0  0  0  0
    1.9100    0.1510    1.0220 H   0  0  0  0  0  0  0  0  0  0  0  0
   -0.1120   -0.6890   -1.0890 H   0  0  0  0  0  0  0  0  0  0  0  0
    1.5000   -2.3280    0.9140 H   0  0  0  0  0  0  0  0  0  0  0  0
    0.2920   -3.0440   -0.1630 H   0  0  0  0  0  0  0  0  0  0  0  0
    2.8420   -4.4290   -0.8850 H   0  0  0  0  0  0  0  0  0  0  0  0
    4.4040   -3.8300   -2.8140 H   0  0  0  0  0  0  0  0  0  0  0  0
    3.9690   -1.4250   -3.5700 H   0  0  0  0  0  0  0  0  0  0  0  0
   -1.7380   -1.9010    0.7380 N   0  0  0  0  0  0  0  0  0  0  0  0
   -2.8410   -2.0250    1.6800 C   0  0  1  0  0  0  0  0  0  0  0  0
   -4.1290   -1.7340    0.9210 C   0  0  0  0  0  0  0  0  0  0  0  0
   -4.3130   -2.6990   -0.2010 C   0  0  0  0  0  0  0  0  0  0  0  0
   -3.8010   -2.4100   -1.4490 C   0  0  0  0  0  0  0  0  0  0  0  0
   -3.9830   -3.3180   -2.4770 C   0  0  0  0  0  0  0  0  0  0  0  0
   -4.6570   -4.5110   -2.3150 C   0  0  0  0  0  0  0  0  0  0  0  0
   -5.1610   -4.7850   -1.0660 C   0  0  0  0  0  0  0  0  0  0  0  0
   -4.9880   -3.8900   -0.0310 C   0  0  0  0  0  0  0  0  0  0  0  0
   -2.8940   -3.3950    2.2630 C   0  0  0  0  0  0  0  0  0  0  0  0
   -2.0630   -4.3000    1.9460 O   0  0  0  0  0  0  0  0  0  0  0  0
   -3.8670   -3.7440    3.1880 O   0  0  0  0  0  0  0  0  0  0  0  0
   -1.6760   -2.5370   -0.0840 H   0  0  0  0  0  0  0  0  0  0  0  0
   -2.7680   -1.2880    2.4870 H   0  0  0  0  0  0  0  0  0  0  0  0
   -4.1250   -0.6890    0.5550 H   0  0  0  0  0  0  0  0  0  0  0  0
   -5.0120   -1.8390    1.5840 H   0  0  0  0  0  0  0  0  0  0  0  0
   -3.2550   -1.4810   -1.6520 H   0  0  0  0  0  0  0  0  0  0  0  0
   -3.5740   -3.0800   -3.4640 H   0  0  0  0  0  0  0  0  0  0  0  0
   -4.7890   -5.2170   -3.1450 H   0  0  0  0  0  0  0  0  0  0  0  0
   -5.6890   -5.7220   -0.9420 H   0  0  0  0  0  0  0  0  0  0  0  0
   -5.4050   -4.1510    0.9420 H   0  0  0  0  0  0  0  0  0  0  0  0
  1 13  1  0  0  0  0
  2  1  1  0  0  0  0
  3  2  1  0  0  0  0
  3 14  1  0  0  0  0
  4  3  2  0  0  0  0
  5 11  2  0  0  0  0
  5  4  1  0  0  0  0
  6  5  1  0  0  0  0
  7 18  1  1  0  0  0
  7  6  1  0  0  0  0
  8 19  1  0  0  0  0
  8  7  1  0  0  0  0
  9  7  1  0  0  0  0
  9 23  1  0  0  0  0
 10  9  2  0  0  0  0
 11 12  1  0  0  0  0
 12 22  1  0  0  0  0
 12  2  2  0  0  0  0
 15  4  1  0  0  0  0
 16  6  1  0  0  0  0
 17  6  1  0  0  0  0
 20  8  1  0  0  0  0
 21 11  1  0  0  0  0
 23 33  1  0  0  0  0
 24 34  1  6  0  0  0
 24 25  1  0  0  0  0
 24 23  1  0  0  0  0
 24 31  1  0  0  0  0
 25 35  1  0  0  0  0
 26 25  1  0  0  0  0
 27 26  2  0  0  0  0
 27 37  1  0  0  0  0
 28 27  1  0  0  0  0
 29 28  1  0  0  0  0
 29 30  2  0  0  0  0
 30 26  1  0  0  0  0
 31 32  2  0  0  0  0
 36 25  1  0  0  0  0
 38 28  1  0  0  0  0
 39 29  1  0  0  0  0
 40 31  1  0  0  0  0
 40 41  1  0  0  0  0
 41 49  1  0  0  0  0
 41 53  1  1  0  0  0
 42 55  1  0  0  0  0
 42 41  1  0  0  0  0
 43 48  1  0  0  0  0
 43 42  1  0  0  0  0
 44 43  2  0  0  0  0
 45 46  2  0  0  0  0
 45 44  1  0  0  0  0
 46 47  1  0  0  0  0
 47 59  1  0  0  0  0
 47 48  2  0  0  0  0
 48 60  1  0  0  0  0
 49 51  1  0  0  0  0
 50 49  2  0  0  0  0
 52 40  1  0  0  0  0
 54 42  1  0  0  0  0
 56 44  1  0  0  0  0
 57 45  1  0  0  0  0
 58 46  1  0  0  0  0
M  END
$$$$
