YHG.pdb
 OpenBabel07022419213D

 47 48  0  0  1  0  0  0  0  0999 V2000
    4.6520   -6.1230   -0.4710 O   0  0  0  0  0  0  0  0  0  0  0  0
    4.2500   -4.8110   -0.2220 C   0  0  0  0  0  0  0  0  0  0  0  0
    3.5000   -4.1130   -1.1450 C   0  0  0  0  0  0  0  0  0  0  0  0
    3.0960   -2.8130   -0.9080 C   0  0  0  0  0  0  0  0  0  0  0  0
    3.4220   -2.1530    0.2590 C   0  0  0  0  0  0  0  0  0  0  0  0
    2.9820   -0.7510    0.5030 C   0  0  0  0  0  0  0  0  0  0  0  0
    1.6340   -0.8400    1.1930 C   0  0  2  0  0  0  0  0  0  0  0  0
    0.7480   -1.5390    0.2950 N   0  0  0  0  0  0  0  0  0  0  0  0
    1.0910    0.4590    1.5700 C   0  0  0  0  0  0  0  0  0  0  0  0
    1.6280    1.2930    2.3350 O   0  0  0  0  0  0  0  0  0  0  0  0
    4.1730   -2.8520    1.1840 C   0  0  0  0  0  0  0  0  0  0  0  0
    4.5810   -4.1610    0.9480 C   0  0  0  0  0  0  0  0  0  0  0  0
    3.9700   -6.8550   -0.6750 H   0  0  0  0  0  0  0  0  0  0  0  0
    3.2380   -4.6330   -2.0760 H   0  0  0  0  0  0  0  0  0  0  0  0
    2.4990   -2.2900   -1.6710 H   0  0  0  0  0  0  0  0  0  0  0  0
    2.8440   -0.3010   -0.5210 H   0  0  0  0  0  0  0  0  0  0  0  0
    3.6960   -0.1960    1.1150 H   0  0  0  0  0  0  0  0  0  0  0  0
    1.7750   -1.5030    2.0780 H   0  0  0  0  0  0  0  0  0  0  0  0
    0.9060   -2.5480    0.2360 H   0  0  0  0  0  0  0  0  0  0  0  0
    0.6570   -1.1000   -0.6370 H   0  0  0  0  0  0  0  0  0  0  0  0
    4.4320   -2.3330    2.1060 H   0  0  0  0  0  0  0  0  0  0  0  0
    5.1720   -4.6880    1.6940 H   0  0  0  0  0  0  0  0  0  0  0  0
   -0.1850    0.8300    1.0170 N   0  0  0  0  0  0  0  0  0  0  0  0
   -0.8290    2.0650    1.3010 C   0  0  1  0  0  0  0  0  0  0  0  0
   -1.1670    2.9730    0.2210 C   0  0  0  0  0  0  0  0  0  0  0  0
   -2.0700    2.5650   -0.8340 C   0  0  0  0  0  0  0  0  0  0  0  0
   -2.7870    1.4490   -1.1180 C   0  0  0  0  0  0  0  0  0  0  0  0
   -3.4970    1.5970   -2.2510 N   0  0  0  0  0  0  0  0  0  0  0  0
   -3.2090    2.8380   -2.6760 C   0  0  0  0  0  0  0  0  0  0  0  0
   -2.3660    3.4320   -1.8530 N   0  0  0  0  0  0  0  0  0  0  0  0
   -1.9900    1.7290    2.1990 C   0  0  0  0  0  0  0  0  0  0  0  0
   -2.7020    2.6900    2.5730 O   0  0  0  0  0  0  0  0  0  0  0  0
   -0.6740    0.1700    0.3740 H   0  0  0  0  0  0  0  0  0  0  0  0
   -0.1370    2.6260    2.0040 H   0  0  0  0  0  0  0  0  0  0  0  0
   -0.2100    3.3410   -0.2540 H   0  0  0  0  0  0  0  0  0  0  0  0
   -1.5930    3.9170    0.6780 H   0  0  0  0  0  0  0  0  0  0  0  0
   -2.8030    0.5660   -0.5320 H   0  0  0  0  0  0  0  0  0  0  0  0
   -4.1400    0.9340   -2.7370 H   0  0  0  0  0  0  0  0  0  0  0  0
   -3.6020    3.3300   -3.5810 H   0  0  0  0  0  0  0  0  0  0  0  0
   -2.2990    0.4330    2.6210 N   0  0  0  0  0  0  0  0  0  0  0  0
   -3.4010    0.0840    3.4780 C   0  0  0  0  0  0  0  0  0  0  0  0
   -3.4400   -1.3940    3.7310 C   0  0  0  0  0  0  0  0  0  0  0  0
   -2.5820   -2.1290    3.2160 O   0  0  0  0  0  0  0  0  0  0  0  0
   -4.4140   -1.9670    4.5290 O   0  0  0  0  0  0  0  0  0  0  0  0
   -1.6660   -0.3480    2.2770 H   0  0  0  0  0  0  0  0  0  0  0  0
   -3.3780    0.5650    4.4630 H   0  0  0  0  0  0  0  0  0  0  0  0
   -4.3840    0.3410    3.0110 H   0  0  0  0  0  0  0  0  0  0  0  0
  1  2  1  0  0  0  0
  2 12  1  0  0  0  0
  3  4  1  0  0  0  0
  3  2  2  0  0  0  0
  4  5  2  0  0  0  0
  5  6  1  0  0  0  0
  5 11  1  0  0  0  0
  6 17  1  0  0  0  0
  6  7  1  0  0  0  0
  7  9  1  0  0  0  0
  7 18  1  1  0  0  0
  8  7  1  0  0  0  0
  9 10  2  0  0  0  0
 11 21  1  0  0  0  0
 12 11  2  0  0  0  0
 12 22  1  0  0  0  0
 13  1  1  0  0  0  0
 14  3  1  0  0  0  0
 15  4  1  0  0  0  0
 16  6  1  0  0  0  0
 19  8  1  0  0  0  0
 20  8  1  0  0  0  0
 23 24  1  0  0  0  0
 23  9  1  0  0  0  0
 24 34  1  1  0  0  0
 24 31  1  0  0  0  0
 25 36  1  0  0  0  0
 25 24  1  0  0  0  0
 26 25  1  0  0  0  0
 27 26  2  0  0  0  0
 27 37  1  0  0  0  0
 28 27  1  0  0  0  0
 29 28  1  0  0  0  0
 29 30  2  0  0  0  0
 30 26  1  0  0  0  0
 31 32  2  0  0  0  0
 31 40  1  0  0  0  0
 33 23  1  0  0  0  0
 35 25  1  0  0  0  0
 38 28  1  0  0  0  0
 39 29  1  0  0  0  0
 40 41  1  0  0  0  0
 41 42  1  0  0  0  0
 41 46  1  0  0  0  0
 42 44  1  0  0  0  0
 43 42  2  0  0  0  0
 45 40  1  0  0  0  0
 47 41  1  0  0  0  0
M  END
$$$$
