YHH.pdb
 OpenBabel07022419213D

 57 59  0  0  1  0  0  0  0  0999 V2000
    3.8190   -4.0650    4.0760 O   0  0  0  0  0  0  0  0  0  0  0  0
    3.7430   -2.9050    3.2790 C   0  0  0  0  0  0  0  0  0  0  0  0
    4.6050   -1.8760    3.5940 C   0  0  0  0  0  0  0  0  0  0  0  0
    4.5180   -0.7450    2.8040 C   0  0  0  0  0  0  0  0  0  0  0  0
    3.6330   -0.6310    1.7590 C   0  0  0  0  0  0  0  0  0  0  0  0
    3.5940    0.5940    0.9590 C   0  0  0  0  0  0  0  0  0  0  0  0
    2.6620    1.6570    1.4600 C   0  0  2  0  0  0  0  0  0  0  0  0
    3.0140    2.0760    2.8170 N   0  0  0  0  0  0  0  0  0  0  0  0
    1.2300    1.3060    1.3990 C   0  0  0  0  0  0  0  0  0  0  0  0
    0.5580    1.2680    2.4380 O   0  0  0  0  0  0  0  0  0  0  0  0
    2.7940   -1.6710    1.4760 C   0  0  0  0  0  0  0  0  0  0  0  0
    2.8460   -2.8160    2.2370 C   0  0  0  0  0  0  0  0  0  0  0  0
    2.9230   -4.4130    4.3990 H   0  0  0  0  0  0  0  0  0  0  0  0
    5.3210   -1.9460    4.4250 H   0  0  0  0  0  0  0  0  0  0  0  0
    5.2110    0.0700    3.0650 H   0  0  0  0  0  0  0  0  0  0  0  0
    3.2890    0.3940   -0.1100 H   0  0  0  0  0  0  0  0  0  0  0  0
    4.6060    1.0490    0.9100 H   0  0  0  0  0  0  0  0  0  0  0  0
    2.8800    2.5640    0.8340 H   0  0  0  0  0  0  0  0  0  0  0  0
    2.6580    1.4440    3.5400 H   0  0  0  0  0  0  0  0  0  0  0  0
    4.0450    2.2250    2.8360 H   0  0  0  0  0  0  0  0  0  0  0  0
    2.0790   -1.6280    0.6610 H   0  0  0  0  0  0  0  0  0  0  0  0
    2.1870   -3.6690    2.0370 H   0  0  0  0  0  0  0  0  0  0  0  0
    0.5840    1.0080    0.1580 N   0  0  0  0  0  0  0  0  0  0  0  0
   -0.8150    0.6690    0.0700 C   0  0  1  0  0  0  0  0  0  0  0  0
   -1.6700    1.7480   -0.4780 C   0  0  0  0  0  0  0  0  0  0  0  0
   -1.4180    2.2180   -1.8280 C   0  0  0  0  0  0  0  0  0  0  0  0
   -0.5410    1.8680   -2.8120 C   0  0  0  0  0  0  0  0  0  0  0  0
   -0.7920    2.6530   -3.8640 N   0  0  0  0  0  0  0  0  0  0  0  0
   -1.8050    3.4920   -3.5710 C   0  0  0  0  0  0  0  0  0  0  0  0
   -2.1870    3.2320   -2.3410 N   0  0  0  0  0  0  0  0  0  0  0  0
   -1.0680   -0.6590   -0.5290 C   0  0  0  0  0  0  0  0  0  0  0  0
   -0.1110   -1.3570   -0.9200 O   0  0  0  0  0  0  0  0  0  0  0  0
    1.2140    1.0540   -0.6700 H   0  0  0  0  0  0  0  0  0  0  0  0
   -1.1620    0.5630    1.1490 H   0  0  0  0  0  0  0  0  0  0  0  0
   -2.7510    1.4310   -0.4300 H   0  0  0  0  0  0  0  0  0  0  0  0
   -1.6270    2.6060    0.2590 H   0  0  0  0  0  0  0  0  0  0  0  0
    0.1930    1.1120   -2.7570 H   0  0  0  0  0  0  0  0  0  0  0  0
   -0.3230    2.6790   -4.8040 H   0  0  0  0  0  0  0  0  0  0  0  0
   -2.2370    4.2440   -4.2140 H   0  0  0  0  0  0  0  0  0  0  0  0
   -2.3780   -1.1770   -0.6780 N   0  0  0  0  0  0  0  0  0  0  0  0
   -2.6160   -2.4760   -1.2640 C   0  0  1  0  0  0  0  0  0  0  0  0
   -3.5760   -3.3360   -0.5240 C   0  0  0  0  0  0  0  0  0  0  0  0
   -3.2190   -3.6810    0.8500 C   0  0  0  0  0  0  0  0  0  0  0  0
   -2.1430   -3.3750    1.6160 C   0  0  0  0  0  0  0  0  0  0  0  0
   -2.3030   -3.9500    2.8120 N   0  0  0  0  0  0  0  0  0  0  0  0
   -3.4510   -4.6100    2.8210 C   0  0  0  0  0  0  0  0  0  0  0  0
   -4.0300   -4.4570    1.6240 N   0  0  0  0  0  0  0  0  0  0  0  0
   -3.2310   -2.2300   -2.6200 C   0  0  0  0  0  0  0  0  0  0  0  0
   -3.5610   -3.1610   -3.3950 O   0  0  0  0  0  0  0  0  0  0  0  0
   -3.4410   -0.9320   -3.0280 O   0  0  0  0  0  0  0  0  0  0  0  0
   -3.2360   -0.6260   -0.3620 H   0  0  0  0  0  0  0  0  0  0  0  0
   -1.6570   -3.0170   -1.4590 H   0  0  0  0  0  0  0  0  0  0  0  0
   -4.6160   -2.9330   -0.5590 H   0  0  0  0  0  0  0  0  0  0  0  0
   -3.6500   -4.3120   -1.0890 H   0  0  0  0  0  0  0  0  0  0  0  0
   -1.3010   -2.7910    1.3510 H   0  0  0  0  0  0  0  0  0  0  0  0
   -1.6450   -3.9120    3.6470 H   0  0  0  0  0  0  0  0  0  0  0  0
   -3.8590   -5.1850    3.6670 H   0  0  0  0  0  0  0  0  0  0  0  0
  1 13  1  0  0  0  0
  2  3  1  0  0  0  0
  2  1  1  0  0  0  0
  3 14  1  0  0  0  0
  4 15  1  0  0  0  0
  4  3  2  0  0  0  0
  5  4  1  0  0  0  0
  6  7  1  0  0  0  0
  6  5  1  0  0  0  0
  7 18  1  6  0  0  0
  7  8  1  0  0  0  0
  8 20  1  0  0  0  0
  8 19  1  0  0  0  0
  9  7  1  0  0  0  0
  9 10  2  0  0  0  0
 11  5  2  0  0  0  0
 11 12  1  0  0  0  0
 12  2  2  0  0  0  0
 16  6  1  0  0  0  0
 17  6  1  0  0  0  0
 21 11  1  0  0  0  0
 22 12  1  0  0  0  0
 23  9  1  0  0  0  0
 24 23  1  0  0  0  0
 24 34  1  1  0  0  0
 25 35  1  0  0  0  0
 25 24  1  0  0  0  0
 25 36  1  0  0  0  0
 26 25  1  0  0  0  0
 27 37  1  0  0  0  0
 27 26  2  0  0  0  0
 28 29  1  0  0  0  0
 28 27  1  0  0  0  0
 29 30  2  0  0  0  0
 30 26  1  0  0  0  0
 31 24  1  0  0  0  0
 32 31  2  0  0  0  0
 33 23  1  0  0  0  0
 38 28  1  0  0  0  0
 39 29  1  0  0  0  0
 40 31  1  0  0  0  0
 40 51  1  0  0  0  0
 41 52  1  6  0  0  0
 41 40  1  0  0  0  0
 41 42  1  0  0  0  0
 42 43  1  0  0  0  0
 43 44  2  0  0  0  0
 43 47  1  0  0  0  0
 44 45  1  0  0  0  0
 45 46  1  0  0  0  0
 45 56  1  0  0  0  0
 46 57  1  0  0  0  0
 47 46  2  0  0  0  0
 48 41  1  0  0  0  0
 49 48  2  0  0  0  0
 50 48  1  0  0  0  0
 53 42  1  0  0  0  0
 54 42  1  0  0  0  0
 55 44  1  0  0  0  0
M  END
$$$$
