YHI.pdb
 OpenBabel07022419213D

 59 60  0  0  1  0  0  0  0  0999 V2000
    1.9900    1.0080    7.1160 O   0  0  0  0  0  0  0  0  0  0  0  0
    2.5950    0.5590    5.9400 C   0  0  0  0  0  0  0  0  0  0  0  0
    2.1910   -0.5950    5.3030 C   0  0  0  0  0  0  0  0  0  0  0  0
    2.7820   -1.0460    4.1430 C   0  0  0  0  0  0  0  0  0  0  0  0
    3.8200   -0.3400    3.5710 C   0  0  0  0  0  0  0  0  0  0  0  0
    4.4470   -0.8430    2.3150 C   0  0  0  0  0  0  0  0  0  0  0  0
    3.7830   -0.3000    1.0780 C   0  0  2  0  0  0  0  0  0  0  0  0
    3.8450    1.1340    1.0200 N   0  0  0  0  0  0  0  0  0  0  0  0
    2.4150   -0.8250    0.8810 C   0  0  0  0  0  0  0  0  0  0  0  0
    2.2690   -2.0770    0.9160 O   0  0  0  0  0  0  0  0  0  0  0  0
    4.2450    0.8160    4.1850 C   0  0  0  0  0  0  0  0  0  0  0  0
    3.6370    1.2390    5.3390 C   0  0  0  0  0  0  0  0  0  0  0  0
    2.3570    0.6360    8.0010 H   0  0  0  0  0  0  0  0  0  0  0  0
    1.3790   -1.1490    5.7480 H   0  0  0  0  0  0  0  0  0  0  0  0
    2.4450   -1.9660    3.6540 H   0  0  0  0  0  0  0  0  0  0  0  0
    4.3490   -1.9480    2.3230 H   0  0  0  0  0  0  0  0  0  0  0  0
    5.5040   -0.5220    2.3290 H   0  0  0  0  0  0  0  0  0  0  0  0
    4.3900   -0.6800    0.2140 H   0  0  0  0  0  0  0  0  0  0  0  0
    3.1270    1.6180    1.5840 H   0  0  0  0  0  0  0  0  0  0  0  0
    4.0200    1.5210    0.0880 H   0  0  0  0  0  0  0  0  0  0  0  0
    5.0670    1.3800    3.7380 H   0  0  0  0  0  0  0  0  0  0  0  0
    3.9590    2.1540    5.8430 H   0  0  0  0  0  0  0  0  0  0  0  0
    1.2830   -0.0300    0.6600 N   0  0  0  0  0  0  0  0  0  0  0  0
   -0.0550   -0.6220    0.4720 C   0  0  1  0  0  0  0  0  0  0  0  0
   -0.9430   -0.1660    1.5950 C   0  0  0  0  0  0  0  0  0  0  0  0
   -2.3230   -0.6580    1.5820 C   0  0  0  0  0  0  0  0  0  0  0  0
   -2.8330   -1.8310    2.1330 C   0  0  0  0  0  0  0  0  0  0  0  0
   -4.1480   -1.9240    1.9100 N   0  0  0  0  0  0  0  0  0  0  0  0
   -4.4740   -0.8160    1.2210 C   0  0  0  0  0  0  0  0  0  0  0  0
   -3.3850   -0.0550    1.0220 N   0  0  0  0  0  0  0  0  0  0  0  0
   -0.5950   -0.2710   -0.8340 C   0  0  0  0  0  0  0  0  0  0  0  0
    0.0660    0.6050   -1.4930 O   0  0  0  0  0  0  0  0  0  0  0  0
    1.3830    1.0050    0.6270 H   0  0  0  0  0  0  0  0  0  0  0  0
    0.0450   -1.7190    0.5370 H   0  0  0  0  0  0  0  0  0  0  0  0
   -0.5190   -0.4930    2.5980 H   0  0  0  0  0  0  0  0  0  0  0  0
   -0.9240    0.9570    1.6830 H   0  0  0  0  0  0  0  0  0  0  0  0
   -2.2490   -2.5580    2.6630 H   0  0  0  0  0  0  0  0  0  0  0  0
   -4.8230   -2.6720    2.1880 H   0  0  0  0  0  0  0  0  0  0  0  0
   -5.4900   -0.5750    0.8720 H   0  0  0  0  0  0  0  0  0  0  0  0
   -2.5340   -3.6580   -4.5650 C   0  0  0  0  0  0  0  0  0  0  0  0
   -2.8200   -2.6100   -3.5080 C   0  0  0  0  0  0  0  0  0  0  0  0
   -1.9630   -1.4140   -3.8240 C   0  0  2  0  0  0  0  0  0  0  0  0
   -0.5190   -1.8680   -3.7810 C   0  0  0  0  0  0  0  0  0  0  0  0
   -2.1120   -0.3100   -2.7870 C   0  0  2  0  0  0  0  0  0  0  0  0
   -1.7330   -0.7620   -1.4790 N   0  0  0  0  0  0  0  0  0  0  0  0
   -3.4180    0.3530   -2.8830 C   0  0  0  0  0  0  0  0  0  0  0  0
   -3.8310    0.7940   -4.0160 O   0  0  0  0  0  0  0  0  0  0  0  0
   -4.3030    0.5720   -1.8470 O   0  0  0  0  0  0  0  0  0  0  0  0
   -3.4700   -4.0880   -4.9760 H   0  0  0  0  0  0  0  0  0  0  0  0
   -1.8800   -4.4670   -4.1790 H   0  0  0  0  0  0  0  0  0  0  0  0
   -2.0010   -3.2170   -5.4340 H   0  0  0  0  0  0  0  0  0  0  0  0
   -3.8960   -2.3960   -3.5350 H   0  0  0  0  0  0  0  0  0  0  0  0
   -2.5650   -3.0460   -2.5440 H   0  0  0  0  0  0  0  0  0  0  0  0
   -2.1780   -0.9860   -4.7980 H   0  0  0  0  0  0  0  0  0  0  0  0
    0.1410   -1.2270   -4.4040 H   0  0  0  0  0  0  0  0  0  0  0  0
   -0.4660   -2.9330   -4.0910 H   0  0  0  0  0  0  0  0  0  0  0  0
   -0.2090   -1.8410   -2.7120 H   0  0  0  0  0  0  0  0  0  0  0  0
   -1.3480    0.4490   -3.1080 H   0  0  0  0  0  0  0  0  0  0  0  0
   -2.3100   -1.4840   -1.0060 H   0  0  0  0  0  0  0  0  0  0  0  0
  1 13  1  0  0  0  0
  2  1  1  0  0  0  0
  3 14  1  0  0  0  0
  3  2  2  0  0  0  0
  4  3  1  0  0  0  0
  5  4  2  0  0  0  0
  5 11  1  0  0  0  0
  6 16  1  0  0  0  0
  6 17  1  0  0  0  0
  6  5  1  0  0  0  0
  7 18  1  6  0  0  0
  7  6  1  0  0  0  0
  8  7  1  0  0  0  0
  8 19  1  0  0  0  0
  9 10  2  0  0  0  0
  9  7  1  0  0  0  0
 11 12  2  0  0  0  0
 12 22  1  0  0  0  0
 12  2  1  0  0  0  0
 15  4  1  0  0  0  0
 20  8  1  0  0  0  0
 21 11  1  0  0  0  0
 23  9  1  0  0  0  0
 24 34  1  1  0  0  0
 24 23  1  0  0  0  0
 24 25  1  0  0  0  0
 25 36  1  0  0  0  0
 25 35  1  0  0  0  0
 26 25  1  0  0  0  0
 26 27  2  0  0  0  0
 27 37  1  0  0  0  0
 28 27  1  0  0  0  0
 28 38  1  0  0  0  0
 29 28  1  0  0  0  0
 30 29  2  0  0  0  0
 30 26  1  0  0  0  0
 31 24  1  0  0  0  0
 32 31  2  0  0  0  0
 33 23  1  0  0  0  0
 39 29  1  0  0  0  0
 40 50  1  0  0  0  0
 40 41  1  0  0  0  0
 41 53  1  0  0  0  0
 42 54  1  6  0  0  0
 42 43  1  0  0  0  0
 42 41  1  0  0  0  0
 42 44  1  0  0  0  0
 43 57  1  0  0  0  0
 44 58  1  6  0  0  0
 44 45  1  0  0  0  0
 45 59  1  0  0  0  0
 45 31  1  0  0  0  0
 46 44  1  0  0  0  0
 46 48  1  0  0  0  0
 47 46  2  0  0  0  0
 49 40  1  0  0  0  0
 51 40  1  0  0  0  0
 52 41  1  0  0  0  0
 55 43  1  0  0  0  0
 56 43  1  0  0  0  0
M  END
$$$$
