YHL.pdb
 OpenBabel07022419213D

 59 60  0  0  1  0  0  0  0  0999 V2000
    6.5790    0.1570   -0.3260 O   0  0  0  0  0  0  0  0  0  0  0  0
    5.6260    0.6290    0.5570 C   0  0  0  0  0  0  0  0  0  0  0  0
    4.6250    1.5240    0.1780 C   0  0  0  0  0  0  0  0  0  0  0  0
    3.6690    1.9920    1.0790 C   0  0  0  0  0  0  0  0  0  0  0  0
    3.6870    1.5820    2.3750 C   0  0  0  0  0  0  0  0  0  0  0  0
    2.6760    2.0540    3.3580 C   0  0  0  0  0  0  0  0  0  0  0  0
    1.4570    1.1310    3.3560 C   0  0  2  0  0  0  0  0  0  0  0  0
    1.9180   -0.1750    3.6850 N   0  0  0  0  0  0  0  0  0  0  0  0
    0.6790    1.2640    2.1230 C   0  0  0  0  0  0  0  0  0  0  0  0
    0.1730    2.4200    1.9150 O   0  0  0  0  0  0  0  0  0  0  0  0
    4.6830    0.6860    2.7700 C   0  0  0  0  0  0  0  0  0  0  0  0
    5.6190    0.2290    1.8800 C   0  0  0  0  0  0  0  0  0  0  0  0
    6.5280   -0.8170   -0.6340 H   0  0  0  0  0  0  0  0  0  0  0  0
    4.6020    1.8540   -0.8430 H   0  0  0  0  0  0  0  0  0  0  0  0
    2.9110    2.6930    0.7240 H   0  0  0  0  0  0  0  0  0  0  0  0
    2.4260    3.0930    3.1630 H   0  0  0  0  0  0  0  0  0  0  0  0
    3.1280    1.9590    4.3640 H   0  0  0  0  0  0  0  0  0  0  0  0
    0.8570    1.4700    4.2530 H   0  0  0  0  0  0  0  0  0  0  0  0
    1.6670   -0.9470    3.0790 H   0  0  0  0  0  0  0  0  0  0  0  0
    1.9180   -0.3820    4.7140 H   0  0  0  0  0  0  0  0  0  0  0  0
    4.6940    0.3620    3.8170 H   0  0  0  0  0  0  0  0  0  0  0  0
    6.4090   -0.4800    2.1800 H   0  0  0  0  0  0  0  0  0  0  0  0
    0.4310    0.2630    1.1480 N   0  0  0  0  0  0  0  0  0  0  0  0
   -0.3810    0.5480   -0.0350 C   0  0  1  0  0  0  0  0  0  0  0  0
    0.4660    0.6330   -1.2710 C   0  0  0  0  0  0  0  0  0  0  0  0
   -0.3960    0.9210   -2.4370 C   0  0  0  0  0  0  0  0  0  0  0  0
   -0.7650    2.1620   -2.9360 C   0  0  0  0  0  0  0  0  0  0  0  0
   -1.5480    1.9910   -3.9980 N   0  0  0  0  0  0  0  0  0  0  0  0
   -1.6940    0.6800   -4.1970 C   0  0  0  0  0  0  0  0  0  0  0  0
   -1.0000    0.0440   -3.2550 N   0  0  0  0  0  0  0  0  0  0  0  0
   -1.5010   -0.4060   -0.1620 C   0  0  0  0  0  0  0  0  0  0  0  0
   -2.3890   -0.1960   -1.0480 O   0  0  0  0  0  0  0  0  0  0  0  0
    0.8470   -0.6680    1.3130 H   0  0  0  0  0  0  0  0  0  0  0  0
   -0.8170    1.5590    0.1030 H   0  0  0  0  0  0  0  0  0  0  0  0
    1.1730    1.5120   -1.2120 H   0  0  0  0  0  0  0  0  0  0  0  0
    1.1450   -0.2250   -1.4240 H   0  0  0  0  0  0  0  0  0  0  0  0
   -0.4410    3.0990   -2.4980 H   0  0  0  0  0  0  0  0  0  0  0  0
   -1.9560    2.8010   -4.5530 H   0  0  0  0  0  0  0  0  0  0  0  0
   -2.2660    0.2200   -4.9700 H   0  0  0  0  0  0  0  0  0  0  0  0
   -4.5300   -4.3170   -1.2280 C   0  0  0  0  0  0  0  0  0  0  0  0
   -3.2960   -4.7590   -0.4760 C   0  0  0  0  0  0  0  0  0  0  0  0
   -3.6170   -5.6960    0.6190 C   0  0  0  0  0  0  0  0  0  0  0  0
   -2.3090   -3.6940   -0.2340 C   0  0  0  0  0  0  0  0  0  0  0  0
   -2.7750   -2.4810    0.4980 C   0  0  2  0  0  0  0  0  0  0  0  0
   -1.6390   -1.5460    0.6490 N   0  0  0  0  0  0  0  0  0  0  0  0
   -3.3270   -2.7440    1.8080 C   0  0  0  0  0  0  0  0  0  0  0  0
   -2.7290   -2.3310    2.8650 O   0  0  0  0  0  0  0  0  0  0  0  0
   -4.4950   -3.4240    2.0510 O   0  0  0  0  0  0  0  0  0  0  0  0
   -5.3120   -4.0700   -0.4690 H   0  0  0  0  0  0  0  0  0  0  0  0
   -4.9320   -5.1920   -1.7790 H   0  0  0  0  0  0  0  0  0  0  0  0
   -4.3520   -3.4840   -1.9060 H   0  0  0  0  0  0  0  0  0  0  0  0
   -2.7560   -5.4480   -1.2690 H   0  0  0  0  0  0  0  0  0  0  0  0
   -3.0220   -5.5800    1.5540 H   0  0  0  0  0  0  0  0  0  0  0  0
   -3.3680   -6.7540    0.2920 H   0  0  0  0  0  0  0  0  0  0  0  0
   -4.7130   -5.7190    0.7840 H   0  0  0  0  0  0  0  0  0  0  0  0
   -1.8390   -3.4260   -1.2170 H   0  0  0  0  0  0  0  0  0  0  0  0
   -1.4630   -4.1750    0.3630 H   0  0  0  0  0  0  0  0  0  0  0  0
   -3.4850   -1.9380   -0.1890 H   0  0  0  0  0  0  0  0  0  0  0  0
   -0.9130   -1.7270    1.3710 H   0  0  0  0  0  0  0  0  0  0  0  0
  1  2  1  0  0  0  0
  2 12  1  0  0  0  0
  3  2  2  0  0  0  0
  3  4  1  0  0  0  0
  4  5  2  0  0  0  0
  5 11  1  0  0  0  0
  5  6  1  0  0  0  0
  6 17  1  0  0  0  0
  7  6  1  0  0  0  0
  7  8  1  0  0  0  0
  7 18  1  1  0  0  0
  8 20  1  0  0  0  0
  9  7  1  0  0  0  0
 10  9  2  0  0  0  0
 11 21  1  0  0  0  0
 12 22  1  0  0  0  0
 12 11  2  0  0  0  0
 13  1  1  0  0  0  0
 14  3  1  0  0  0  0
 15  4  1  0  0  0  0
 16  6  1  0  0  0  0
 19  8  1  0  0  0  0
 23 33  1  0  0  0  0
 23  9  1  0  0  0  0
 24 34  1  1  0  0  0
 24 23  1  0  0  0  0
 25 35  1  0  0  0  0
 25 24  1  0  0  0  0
 26 25  1  0  0  0  0
 27 37  1  0  0  0  0
 27 26  2  0  0  0  0
 28 27  1  0  0  0  0
 29 28  1  0  0  0  0
 29 30  2  0  0  0  0
 30 26  1  0  0  0  0
 31 24  1  0  0  0  0
 31 45  1  0  0  0  0
 32 31  2  0  0  0  0
 36 25  1  0  0  0  0
 38 28  1  0  0  0  0
 39 29  1  0  0  0  0
 40 41  1  0  0  0  0
 40 49  1  0  0  0  0
 41 43  1  0  0  0  0
 41 42  1  0  0  0  0
 42 55  1  0  0  0  0
 42 53  1  0  0  0  0
 43 57  1  0  0  0  0
 43 44  1  0  0  0  0
 44 58  1  6  0  0  0
 44 45  1  0  0  0  0
 44 46  1  0  0  0  0
 45 59  1  0  0  0  0
 46 48  2  0  0  0  0
 46 47  1  0  0  0  0
 50 40  1  0  0  0  0
 51 40  1  0  0  0  0
 52 41  1  0  0  0  0
 54 42  1  0  0  0  0
 56 43  1  0  0  0  0
M  END
$$$$
