YHM.pdb
 OpenBabel07022419213D

 57 58  0  0  1  0  0  0  0  0999 V2000
   -3.5540   -5.7020    5.6970 O   0  0  0  0  0  0  0  0  0  0  0  0
   -3.0830   -4.6370    4.9660 C   0  0  0  0  0  0  0  0  0  0  0  0
   -1.7750   -4.5820    4.5330 C   0  0  0  0  0  0  0  0  0  0  0  0
   -1.3600   -3.4870    3.8030 C   0  0  0  0  0  0  0  0  0  0  0  0
   -2.2210   -2.4390    3.4930 C   0  0  0  0  0  0  0  0  0  0  0  0
   -1.7610   -1.2670    2.7070 C   0  0  0  0  0  0  0  0  0  0  0  0
   -1.9550   -1.4840    1.2210 C   0  0  2  0  0  0  0  0  0  0  0  0
   -1.1910   -2.6430    0.8350 N   0  0  0  0  0  0  0  0  0  0  0  0
   -1.5350   -0.3300    0.4270 C   0  0  0  0  0  0  0  0  0  0  0  0
   -2.0230    0.8250    0.5390 O   0  0  0  0  0  0  0  0  0  0  0  0
   -3.5300   -2.4900    3.9240 C   0  0  0  0  0  0  0  0  0  0  0  0
   -3.9500   -3.5840    4.6550 C   0  0  0  0  0  0  0  0  0  0  0  0
   -4.3200   -5.5350    6.3410 H   0  0  0  0  0  0  0  0  0  0  0  0
   -1.1300   -5.4110    4.7900 H   0  0  0  0  0  0  0  0  0  0  0  0
   -0.3330   -3.4670    3.4760 H   0  0  0  0  0  0  0  0  0  0  0  0
   -0.6830   -1.0970    2.9360 H   0  0  0  0  0  0  0  0  0  0  0  0
   -2.3100   -0.3700    3.0410 H   0  0  0  0  0  0  0  0  0  0  0  0
   -3.0330   -1.7460    1.0770 H   0  0  0  0  0  0  0  0  0  0  0  0
   -0.2500   -2.5800    1.2470 H   0  0  0  0  0  0  0  0  0  0  0  0
   -1.6620   -3.4850    1.2120 H   0  0  0  0  0  0  0  0  0  0  0  0
   -4.2610   -1.7160    3.7240 H   0  0  0  0  0  0  0  0  0  0  0  0
   -4.9660   -3.6440    5.0010 H   0  0  0  0  0  0  0  0  0  0  0  0
   -0.5080   -0.4690   -0.5530 N   0  0  0  0  0  0  0  0  0  0  0  0
   -0.0520    0.6390   -1.3670 C   0  0  1  0  0  0  0  0  0  0  0  0
    1.4280    0.8480   -1.0710 C   0  0  0  0  0  0  0  0  0  0  0  0
    1.5060    1.1530    0.3960 C   0  0  0  0  0  0  0  0  0  0  0  0
    1.6570    0.2770    1.4490 C   0  0  0  0  0  0  0  0  0  0  0  0
    1.6800    0.9700    2.6060 N   0  0  0  0  0  0  0  0  0  0  0  0
    1.5450    2.2710    2.2970 C   0  0  0  0  0  0  0  0  0  0  0  0
    1.4400    2.3920    0.9630 N   0  0  0  0  0  0  0  0  0  0  0  0
   -0.2470    0.2710   -2.7890 C   0  0  0  0  0  0  0  0  0  0  0  0
   -0.7260   -0.8250   -3.1060 O   0  0  0  0  0  0  0  0  0  0  0  0
   -0.0410   -1.4050   -0.7160 H   0  0  0  0  0  0  0  0  0  0  0  0
   -0.6110    1.5620   -1.1080 H   0  0  0  0  0  0  0  0  0  0  0  0
    1.9680   -0.0810   -1.2760 H   0  0  0  0  0  0  0  0  0  0  0  0
    1.7890    1.7200   -1.6330 H   0  0  0  0  0  0  0  0  0  0  0  0
    1.7420   -0.7980    1.3350 H   0  0  0  0  0  0  0  0  0  0  0  0
    1.7840    0.5440    3.5550 H   0  0  0  0  0  0  0  0  0  0  0  0
    1.5280    3.0710    3.0220 H   0  0  0  0  0  0  0  0  0  0  0  0
    1.5040    5.2230   -6.4360 C   0  0  0  0  0  0  0  0  0  0  0  0
    1.0360    3.4820   -6.6270 S   0  0  0  0  0  0  0  0  0  0  0  0
   -0.5290    3.2220   -5.7930 C   0  0  0  0  0  0  0  0  0  0  0  0
   -1.0310    1.8200   -5.8730 C   0  0  0  0  0  0  0  0  0  0  0  0
   -0.0760    0.8210   -5.2550 C   0  0  2  0  0  0  0  0  0  0  0  0
    0.1070    1.1610   -3.8570 N   0  0  0  0  0  0  0  0  0  0  0  0
    1.1800    0.8300   -6.0090 C   0  0  0  0  0  0  0  0  0  0  0  0
    1.2330    0.5630   -7.2330 O   0  0  0  0  0  0  0  0  0  0  0  0
    2.3660    1.1420   -5.3660 O   0  0  0  0  0  0  0  0  0  0  0  0
    0.5670    5.8090   -6.3500 H   0  0  0  0  0  0  0  0  0  0  0  0
    2.0230    5.3070   -5.4410 H   0  0  0  0  0  0  0  0  0  0  0  0
    2.1480    5.5800   -7.2670 H   0  0  0  0  0  0  0  0  0  0  0  0
   -1.2910    3.8720   -6.2930 H   0  0  0  0  0  0  0  0  0  0  0  0
   -0.4530    3.6080   -4.7560 H   0  0  0  0  0  0  0  0  0  0  0  0
   -1.2620    1.5890   -6.9210 H   0  0  0  0  0  0  0  0  0  0  0  0
   -1.9790    1.7640   -5.2990 H   0  0  0  0  0  0  0  0  0  0  0  0
   -0.5130   -0.1990   -5.2840 H   0  0  0  0  0  0  0  0  0  0  0  0
    0.5100    2.0830   -3.5810 H   0  0  0  0  0  0  0  0  0  0  0  0
  1 13  1  0  0  0  0
  2  1  1  0  0  0  0
  3 14  1  0  0  0  0
  3  2  2  0  0  0  0
  4  3  1  0  0  0  0
  5  4  2  0  0  0  0
  5 11  1  0  0  0  0
  6 16  1  0  0  0  0
  6 17  1  0  0  0  0
  6  5  1  0  0  0  0
  7 18  1  6  0  0  0
  7  6  1  0  0  0  0
  8 20  1  0  0  0  0
  8  7  1  0  0  0  0
  8 19  1  0  0  0  0
  9 10  2  0  0  0  0
  9  7  1  0  0  0  0
 11 12  2  0  0  0  0
 12  2  1  0  0  0  0
 12 22  1  0  0  0  0
 15  4  1  0  0  0  0
 21 11  1  0  0  0  0
 23  9  1  0  0  0  0
 24 34  1  1  0  0  0
 24 25  1  0  0  0  0
 24 23  1  0  0  0  0
 25 26  1  0  0  0  0
 26 30  1  0  0  0  0
 26 27  2  0  0  0  0
 27 28  1  0  0  0  0
 28 38  1  0  0  0  0
 29 28  1  0  0  0  0
 29 39  1  0  0  0  0
 30 29  2  0  0  0  0
 31 24  1  0  0  0  0
 32 31  2  0  0  0  0
 33 23  1  0  0  0  0
 35 25  1  0  0  0  0
 36 25  1  0  0  0  0
 37 27  1  0  0  0  0
 40 49  1  0  0  0  0
 40 50  1  0  0  0  0
 41 40  1  0  0  0  0
 41 42  1  0  0  0  0
 42 53  1  0  0  0  0
 43 42  1  0  0  0  0
 43 55  1  0  0  0  0
 43 44  1  0  0  0  0
 44 56  1  6  0  0  0
 44 45  1  0  0  0  0
 45 57  1  0  0  0  0
 45 31  1  0  0  0  0
 46 48  1  0  0  0  0
 46 44  1  0  0  0  0
 47 46  2  0  0  0  0
 51 40  1  0  0  0  0
 52 42  1  0  0  0  0
 54 43  1  0  0  0  0
M  END
$$$$
