YHN.pdb
 OpenBabel07022419213D

 54 55  0  0  1  0  0  0  0  0999 V2000
    1.7960   -3.5180    5.1340 O   0  0  0  0  0  0  0  0  0  0  0  0
    2.1330   -2.8480    3.9540 C   0  0  0  0  0  0  0  0  0  0  0  0
    1.3730   -3.0110    2.8110 C   0  0  0  0  0  0  0  0  0  0  0  0
    1.6540   -2.3840    1.6340 C   0  0  0  0  0  0  0  0  0  0  0  0
    2.7440   -1.5430    1.5550 C   0  0  0  0  0  0  0  0  0  0  0  0
    3.0640   -0.8560    0.2880 C   0  0  0  0  0  0  0  0  0  0  0  0
    2.4830    0.4890    0.1030 C   0  0  2  0  0  0  0  0  0  0  0  0
    2.8880    1.4420    1.1220 N   0  0  0  0  0  0  0  0  0  0  0  0
    1.0290    0.5500   -0.1830 C   0  0  0  0  0  0  0  0  0  0  0  0
    0.4900   -0.2730   -0.9600 O   0  0  0  0  0  0  0  0  0  0  0  0
    3.5220   -1.3590    2.6780 C   0  0  0  0  0  0  0  0  0  0  0  0
    3.2110   -2.0060    3.8470 C   0  0  0  0  0  0  0  0  0  0  0  0
    0.8280   -3.4070    5.4580 H   0  0  0  0  0  0  0  0  0  0  0  0
    0.5070   -3.6870    2.8960 H   0  0  0  0  0  0  0  0  0  0  0  0
    1.0290   -2.5310    0.7340 H   0  0  0  0  0  0  0  0  0  0  0  0
    2.6980   -1.5050   -0.5460 H   0  0  0  0  0  0  0  0  0  0  0  0
    4.1710   -0.7690    0.1530 H   0  0  0  0  0  0  0  0  0  0  0  0
    2.9680    0.8950   -0.8550 H   0  0  0  0  0  0  0  0  0  0  0  0
    2.4980    1.2350    2.0460 H   0  0  0  0  0  0  0  0  0  0  0  0
    2.8550    2.4210    0.8170 H   0  0  0  0  0  0  0  0  0  0  0  0
    4.3880   -0.6990    2.6370 H   0  0  0  0  0  0  0  0  0  0  0  0
    3.8130   -1.8800    4.7590 H   0  0  0  0  0  0  0  0  0  0  0  0
    0.1780    1.5490    0.4070 N   0  0  0  0  0  0  0  0  0  0  0  0
   -1.2100    1.7020    0.2010 C   0  0  1  0  0  0  0  0  0  0  0  0
   -1.6280    2.4990   -0.9990 C   0  0  0  0  0  0  0  0  0  0  0  0
   -1.1220    1.8920   -2.2520 C   0  0  0  0  0  0  0  0  0  0  0  0
   -1.6990    0.9480   -3.0760 C   0  0  0  0  0  0  0  0  0  0  0  0
   -0.8790    0.6820   -4.1200 N   0  0  0  0  0  0  0  0  0  0  0  0
    0.1990    1.4410   -3.9650 C   0  0  0  0  0  0  0  0  0  0  0  0
    0.0740    2.1770   -2.8470 N   0  0  0  0  0  0  0  0  0  0  0  0
   -2.0720    0.5290    0.4780 C   0  0  0  0  0  0  0  0  0  0  0  0
   -3.3030    0.5830    0.1360 O   0  0  0  0  0  0  0  0  0  0  0  0
    0.7330    2.2010    1.0520 H   0  0  0  0  0  0  0  0  0  0  0  0
   -1.5390    2.3990    1.0830 H   0  0  0  0  0  0  0  0  0  0  0  0
   -2.7450    2.5230   -1.1140 H   0  0  0  0  0  0  0  0  0  0  0  0
   -1.3430    3.5770   -0.9150 H   0  0  0  0  0  0  0  0  0  0  0  0
   -2.6680    0.5140   -2.8740 H   0  0  0  0  0  0  0  0  0  0  0  0
   -1.1380   -0.0140   -4.8650 H   0  0  0  0  0  0  0  0  0  0  0  0
    1.0340    1.4280   -4.6720 H   0  0  0  0  0  0  0  0  0  0  0  0
   -2.0970   -2.0520   -1.6050 N   0  0  0  0  0  0  0  0  0  0  0  0
   -1.9250   -3.0930   -0.6910 C   0  0  0  0  0  0  0  0  0  0  0  0
   -1.5290   -4.2130   -1.1600 O   0  0  0  0  0  0  0  0  0  0  0  0
   -2.1470   -3.0590    0.7580 C   0  0  0  0  0  0  0  0  0  0  0  0
   -2.5810   -1.7490    1.3140 C   0  0  2  0  0  0  0  0  0  0  0  0
   -1.6440   -0.6610    1.0990 N   0  0  0  0  0  0  0  0  0  0  0  0
   -2.7400   -1.9130    2.7800 C   0  0  0  0  0  0  0  0  0  0  0  0
   -2.1150   -1.1750    3.5800 O   0  0  0  0  0  0  0  0  0  0  0  0
   -3.5820   -2.8830    3.3300 O   0  0  0  0  0  0  0  0  0  0  0  0
   -2.9740   -1.5050   -1.6140 H   0  0  0  0  0  0  0  0  0  0  0  0
   -1.3530   -1.8160   -2.2840 H   0  0  0  0  0  0  0  0  0  0  0  0
   -1.2720   -3.4690    1.3060 H   0  0  0  0  0  0  0  0  0  0  0  0
   -2.9790   -3.7840    0.9720 H   0  0  0  0  0  0  0  0  0  0  0  0
   -3.5840   -1.5050    0.9020 H   0  0  0  0  0  0  0  0  0  0  0  0
   -0.6500   -0.7120    1.4030 H   0  0  0  0  0  0  0  0  0  0  0  0
  1 13  1  0  0  0  0
  2  1  1  0  0  0  0
  3 14  1  0  0  0  0
  3  2  2  0  0  0  0
  4  3  1  0  0  0  0
  5  4  2  0  0  0  0
  5 11  1  0  0  0  0
  6  5  1  0  0  0  0
  7 18  1  6  0  0  0
  7  6  1  0  0  0  0
  7  8  1  0  0  0  0
  8 19  1  0  0  0  0
  9  7  1  0  0  0  0
  9 23  1  0  0  0  0
 10  9  2  0  0  0  0
 11 12  2  0  0  0  0
 12  2  1  0  0  0  0
 12 22  1  0  0  0  0
 15  4  1  0  0  0  0
 16  6  1  0  0  0  0
 17  6  1  0  0  0  0
 20  8  1  0  0  0  0
 21 11  1  0  0  0  0
 23 33  1  0  0  0  0
 24 23  1  0  0  0  0
 24 31  1  0  0  0  0
 24 34  1  1  0  0  0
 25 36  1  0  0  0  0
 25 24  1  0  0  0  0
 26 25  1  0  0  0  0
 27 37  1  0  0  0  0
 27 26  2  0  0  0  0
 28 29  1  0  0  0  0
 28 27  1  0  0  0  0
 29 30  2  0  0  0  0
 30 26  1  0  0  0  0
 31 45  1  0  0  0  0
 32 31  2  0  0  0  0
 35 25  1  0  0  0  0
 38 28  1  0  0  0  0
 39 29  1  0  0  0  0
 40 41  1  0  0  0  0
 41 43  1  0  0  0  0
 42 41  2  0  0  0  0
 43 52  1  0  0  0  0
 43 51  1  0  0  0  0
 43 44  1  0  0  0  0
 44 53  1  6  0  0  0
 44 46  1  0  0  0  0
 45 44  1  0  0  0  0
 45 54  1  0  0  0  0
 46 48  2  0  0  0  0
 46 47  1  0  0  0  0
 49 40  1  0  0  0  0
 50 40  1  0  0  0  0
M  END
$$$$
