YHP.pdb
 OpenBabel07022419213D

 54 56  0  0  1  0  0  0  0  0999 V2000
   -0.1920    2.0470    6.9220 O   0  0  0  0  0  0  0  0  0  0  0  0
   -1.0190    1.7220    5.8810 C   0  0  0  0  0  0  0  0  0  0  0  0
   -0.9730    0.4620    5.3350 C   0  0  0  0  0  0  0  0  0  0  0  0
   -1.8110    0.1380    4.2830 C   0  0  0  0  0  0  0  0  0  0  0  0
   -2.7050    1.0430    3.7520 C   0  0  0  0  0  0  0  0  0  0  0  0
   -3.5800    0.6750    2.6350 C   0  0  0  0  0  0  0  0  0  0  0  0
   -3.0380    0.9640    1.2740 C   0  0  2  0  0  0  0  0  0  0  0  0
   -3.9690    0.5660    0.2270 N   0  0  0  0  0  0  0  0  0  0  0  0
   -1.7640    0.2890    1.0000 C   0  0  0  0  0  0  0  0  0  0  0  0
   -0.7790    0.5310    1.7640 O   0  0  0  0  0  0  0  0  0  0  0  0
   -2.7420    2.3080    4.3100 C   0  0  0  0  0  0  0  0  0  0  0  0
   -1.9050    2.6330    5.3620 C   0  0  0  0  0  0  0  0  0  0  0  0
    0.0970    2.9690    7.1930 H   0  0  0  0  0  0  0  0  0  0  0  0
   -0.2780   -0.2520    5.7420 H   0  0  0  0  0  0  0  0  0  0  0  0
   -1.7100   -0.8870    3.9110 H   0  0  0  0  0  0  0  0  0  0  0  0
   -3.8190   -0.4220    2.6630 H   0  0  0  0  0  0  0  0  0  0  0  0
   -4.5580    1.2020    2.7680 H   0  0  0  0  0  0  0  0  0  0  0  0
   -2.9060    2.0770    1.1560 H   0  0  0  0  0  0  0  0  0  0  0  0
   -3.6000    0.9660   -0.6560 H   0  0  0  0  0  0  0  0  0  0  0  0
   -4.0900   -0.4480    0.1480 H   0  0  0  0  0  0  0  0  0  0  0  0
   -3.4210    3.0790    3.9470 H   0  0  0  0  0  0  0  0  0  0  0  0
   -1.9380    3.6250    5.7950 H   0  0  0  0  0  0  0  0  0  0  0  0
   -1.5550   -0.6020   -0.0440 N   0  0  0  0  0  0  0  0  0  0  0  0
   -0.1920   -1.2640   -0.2610 C   0  0  1  0  0  0  0  0  0  0  0  0
   -0.6230   -2.7180   -0.0780 C   0  0  0  0  0  0  0  0  0  0  0  0
    0.4140   -3.7290   -0.0950 C   0  0  0  0  0  0  0  0  0  0  0  0
    1.7880   -3.6550   -0.0650 C   0  0  0  0  0  0  0  0  0  0  0  0
    2.3400   -4.8820   -0.0110 N   0  0  0  0  0  0  0  0  0  0  0  0
    1.3220   -5.7310   -0.0040 C   0  0  0  0  0  0  0  0  0  0  0  0
    0.1670   -5.0810   -0.0530 N   0  0  0  0  0  0  0  0  0  0  0  0
    0.1030   -1.0790   -1.6820 C   0  0  0  0  0  0  0  0  0  0  0  0
   -1.0170   -0.9400   -2.3640 O   0  0  0  0  0  0  0  0  0  0  0  0
   -2.2840   -0.8590   -0.7080 H   0  0  0  0  0  0  0  0  0  0  0  0
    0.4180   -0.8880    0.4980 H   0  0  0  0  0  0  0  0  0  0  0  0
   -1.1130   -2.7590    0.9410 H   0  0  0  0  0  0  0  0  0  0  0  0
   -1.4590   -2.9670   -0.7720 H   0  0  0  0  0  0  0  0  0  0  0  0
    2.3670   -2.7370   -0.0470 H   0  0  0  0  0  0  0  0  0  0  0  0
    3.3540   -5.0660    0.0180 H   0  0  0  0  0  0  0  0  0  0  0  0
    1.4840   -6.8250    0.0370 H   0  0  0  0  0  0  0  0  0  0  0  0
    1.3180   -1.0230   -2.4060 N   0  0  0  0  0  0  0  0  0  0  0  0
    1.2100   -0.9350   -3.8900 C   0  0  0  0  0  0  0  0  0  0  0  0
    2.5760   -0.8670   -4.4360 C   0  0  0  0  0  0  0  0  0  0  0  0
    3.3660   -0.2910   -3.3130 C   0  0  0  0  0  0  0  0  0  0  0  0
    2.6920   -0.9920   -2.1150 C   0  0  1  0  0  0  0  0  0  0  0  0
    3.1200   -0.1370   -0.9760 C   0  0  0  0  0  0  0  0  0  0  0  0
    4.2990   -0.2590   -0.5830 O   0  0  0  0  0  0  0  0  0  0  0  0
    2.3060    0.7610   -0.3490 O   0  0  0  0  0  0  0  0  0  0  0  0
    0.5150   -0.1540   -4.1890 H   0  0  0  0  0  0  0  0  0  0  0  0
    0.7630   -1.9320   -4.1730 H   0  0  0  0  0  0  0  0  0  0  0  0
    2.6500   -0.2410   -5.3570 H   0  0  0  0  0  0  0  0  0  0  0  0
    3.0270   -1.8480   -4.7160 H   0  0  0  0  0  0  0  0  0  0  0  0
    4.4370   -0.4870   -3.3430 H   0  0  0  0  0  0  0  0  0  0  0  0
    3.1070    0.7880   -3.2110 H   0  0  0  0  0  0  0  0  0  0  0  0
    3.1750   -1.9960   -2.0980 H   0  0  0  0  0  0  0  0  0  0  0  0
  1 13  1  0  0  0  0
  2  1  1  0  0  0  0
  3 14  1  0  0  0  0
  3  2  2  0  0  0  0
  4  3  1  0  0  0  0
  5  4  2  0  0  0  0
  5 11  1  0  0  0  0
  6 16  1  0  0  0  0
  6 17  1  0  0  0  0
  6  5  1  0  0  0  0
  7 18  1  6  0  0  0
  7  6  1  0  0  0  0
  8  7  1  0  0  0  0
  9  7  1  0  0  0  0
  9 10  2  0  0  0  0
 11 12  2  0  0  0  0
 12 22  1  0  0  0  0
 12  2  1  0  0  0  0
 15  4  1  0  0  0  0
 19  8  1  0  0  0  0
 20  8  1  0  0  0  0
 21 11  1  0  0  0  0
 23  9  1  0  0  0  0
 24 25  1  0  0  0  0
 24 23  1  0  0  0  0
 24 34  1  1  0  0  0
 25 35  1  0  0  0  0
 26 25  1  0  0  0  0
 26 27  2  0  0  0  0
 26 30  1  0  0  0  0
 27 37  1  0  0  0  0
 27 28  1  0  0  0  0
 28 29  1  0  0  0  0
 28 38  1  0  0  0  0
 29 39  1  0  0  0  0
 30 29  2  0  0  0  0
 31 24  1  0  0  0  0
 32 31  2  0  0  0  0
 33 23  1  0  0  0  0
 36 25  1  0  0  0  0
 40 44  1  0  0  0  0
 40 31  1  0  0  0  0
 41 40  1  0  0  0  0
 42 41  1  0  0  0  0
 42 43  1  0  0  0  0
 43 53  1  0  0  0  0
 43 44  1  0  0  0  0
 44 54  1  1  0  0  0
 44 45  1  0  0  0  0
 45 46  2  0  0  0  0
 45 47  1  0  0  0  0
 48 41  1  0  0  0  0
 49 41  1  0  0  0  0
 50 42  1  0  0  0  0
 51 42  1  0  0  0  0
 52 43  1  0  0  0  0
M  END
$$$$
