YHR.pdb
 OpenBabel07022419213D

 63 64  0  0  1  0  0  0  0  0999 V2000
    4.9620   -0.2450    4.2490 O   0  0  0  0  0  0  0  0  0  0  0  0
    4.1910    0.7550    3.6550 C   0  0  0  0  0  0  0  0  0  0  0  0
    4.8060    1.8770    3.1560 C   0  0  0  0  0  0  0  0  0  0  0  0
    4.0700    2.8740    2.5680 C   0  0  0  0  0  0  0  0  0  0  0  0
    2.6760    2.7450    2.4730 C   0  0  0  0  0  0  0  0  0  0  0  0
    1.8760    3.7980    1.8830 C   0  0  0  0  0  0  0  0  0  0  0  0
    1.7050    3.8490    0.4270 C   0  0  2  0  0  0  0  0  0  0  0  0
    0.8670    5.0230    0.1270 N   0  0  0  0  0  0  0  0  0  0  0  0
    1.0970    2.7100   -0.2730 C   0  0  0  0  0  0  0  0  0  0  0  0
    0.0040    2.9050   -0.9410 O   0  0  0  0  0  0  0  0  0  0  0  0
    2.1060    1.6120    2.9830 C   0  0  0  0  0  0  0  0  0  0  0  0
    2.8230    0.5970    3.5790 C   0  0  0  0  0  0  0  0  0  0  0  0
    4.6600   -0.5990    5.1420 H   0  0  0  0  0  0  0  0  0  0  0  0
    5.8900    1.9820    3.2250 H   0  0  0  0  0  0  0  0  0  0  0  0
    4.5630    3.7670    2.1720 H   0  0  0  0  0  0  0  0  0  0  0  0
    2.3790    4.7770    2.1830 H   0  0  0  0  0  0  0  0  0  0  0  0
    0.8820    3.8520    2.4020 H   0  0  0  0  0  0  0  0  0  0  0  0
    2.6670    4.0540   -0.1290 H   0  0  0  0  0  0  0  0  0  0  0  0
    0.9730    5.1970   -0.9040 H   0  0  0  0  0  0  0  0  0  0  0  0
    1.2540    5.8200    0.6920 H   0  0  0  0  0  0  0  0  0  0  0  0
    1.0180    1.4290    2.9500 H   0  0  0  0  0  0  0  0  0  0  0  0
    2.3370   -0.2910    3.9760 H   0  0  0  0  0  0  0  0  0  0  0  0
    1.5660    1.3840   -0.3210 N   0  0  0  0  0  0  0  0  0  0  0  0
    0.8200    0.3380   -1.1270 C   0  0  1  0  0  0  0  0  0  0  0  0
    1.8300   -0.2520   -2.0550 C   0  0  0  0  0  0  0  0  0  0  0  0
    1.4360   -1.2640   -3.0040 C   0  0  0  0  0  0  0  0  0  0  0  0
    2.3760   -1.8630   -3.8690 C   0  0  0  0  0  0  0  0  0  0  0  0
    1.7420   -2.7500   -4.6150 N   0  0  0  0  0  0  0  0  0  0  0  0
    0.4380   -2.7740   -4.2960 C   0  0  0  0  0  0  0  0  0  0  0  0
    0.3000   -1.8600   -3.3190 N   0  0  0  0  0  0  0  0  0  0  0  0
    0.3720   -0.6270   -0.0910 C   0  0  0  0  0  0  0  0  0  0  0  0
    0.8750   -0.6170    1.0930 O   0  0  0  0  0  0  0  0  0  0  0  0
    2.4240    1.1390    0.1910 H   0  0  0  0  0  0  0  0  0  0  0  0
    0.0040    0.8270   -1.6640 H   0  0  0  0  0  0  0  0  0  0  0  0
    2.2270    0.6480   -2.6440 H   0  0  0  0  0  0  0  0  0  0  0  0
    2.7510   -0.5730   -1.4970 H   0  0  0  0  0  0  0  0  0  0  0  0
    3.4300   -1.6430   -3.9200 H   0  0  0  0  0  0  0  0  0  0  0  0
    2.1740   -3.3530   -5.3490 H   0  0  0  0  0  0  0  0  0  0  0  0
   -0.2910   -3.4210   -4.7690 H   0  0  0  0  0  0  0  0  0  0  0  0
   -7.1990   -3.9900   -0.6550 N   0  0  0  0  0  0  0  0  0  0  0  0
   -6.5800   -3.3450    0.4480 C   0  0  0  0  0  0  0  0  0  0  0  0
   -7.3450   -2.6460    1.2430 N   0  0  0  0  0  0  0  0  0  0  0  0
   -5.1840   -3.4640    0.6640 N   0  0  0  0  0  0  0  0  0  0  0  0
   -4.6520   -3.0860    1.9500 C   0  0  0  0  0  0  0  0  0  0  0  0
   -3.1310   -3.2920    1.9850 C   0  0  0  0  0  0  0  0  0  0  0  0
   -2.4760   -2.4580    0.9480 C   0  0  0  0  0  0  0  0  0  0  0  0
   -1.0010   -2.5560    0.8290 C   0  0  2  0  0  0  0  0  0  0  0  0
   -0.6190   -1.6270   -0.2590 N   0  0  0  0  0  0  0  0  0  0  0  0
   -0.5310   -3.9270    0.4900 C   0  0  0  0  0  0  0  0  0  0  0  0
    0.0920   -4.1780   -0.5620 O   0  0  0  0  0  0  0  0  0  0  0  0
   -0.7770   -4.9780    1.3510 O   0  0  0  0  0  0  0  0  0  0  0  0
   -6.7950   -4.8270   -1.1030 H   0  0  0  0  0  0  0  0  0  0  0  0
   -8.0950   -3.6070   -1.0220 H   0  0  0  0  0  0  0  0  0  0  0  0
   -8.3510   -2.5560    1.0930 H   0  0  0  0  0  0  0  0  0  0  0  0
   -4.6250   -3.8240   -0.1380 H   0  0  0  0  0  0  0  0  0  0  0  0
   -5.0860   -3.7880    2.6990 H   0  0  0  0  0  0  0  0  0  0  0  0
   -4.9390   -2.0480    2.1910 H   0  0  0  0  0  0  0  0  0  0  0  0
   -2.9440   -4.3620    1.9290 H   0  0  0  0  0  0  0  0  0  0  0  0
   -2.8190   -2.9520    3.0060 H   0  0  0  0  0  0  0  0  0  0  0  0
   -2.9780   -2.6580   -0.0410 H   0  0  0  0  0  0  0  0  0  0  0  0
   -2.7520   -1.3820    1.1640 H   0  0  0  0  0  0  0  0  0  0  0  0
   -0.4730   -2.2120    1.7280 H   0  0  0  0  0  0  0  0  0  0  0  0
   -1.1130   -1.6910   -1.1730 H   0  0  0  0  0  0  0  0  0  0  0  0
  1 13  1  0  0  0  0
  2  1  1  0  0  0  0
  3 14  1  0  0  0  0
  3  2  2  0  0  0  0
  4  3  1  0  0  0  0
  5  4  2  0  0  0  0
  5 11  1  0  0  0  0
  6 16  1  0  0  0  0
  6 17  1  0  0  0  0
  6  5  1  0  0  0  0
  7 18  1  6  0  0  0
  7  6  1  0  0  0  0
  8  7  1  0  0  0  0
  8 20  1  0  0  0  0
  9  7  1  0  0  0  0
 10  9  2  0  0  0  0
 11 12  2  0  0  0  0
 12  2  1  0  0  0  0
 12 22  1  0  0  0  0
 15  4  1  0  0  0  0
 19  8  1  0  0  0  0
 21 11  1  0  0  0  0
 23  9  1  0  0  0  0
 23 33  1  0  0  0  0
 24 34  1  6  0  0  0
 24 23  1  0  0  0  0
 24 31  1  0  0  0  0
 25 36  1  0  0  0  0
 25 24  1  0  0  0  0
 26 25  1  0  0  0  0
 27 26  2  0  0  0  0
 28 29  1  0  0  0  0
 28 27  1  0  0  0  0
 29 30  2  0  0  0  0
 30 26  1  0  0  0  0
 31 32  2  0  0  0  0
 35 25  1  0  0  0  0
 37 27  1  0  0  0  0
 38 28  1  0  0  0  0
 39 29  1  0  0  0  0
 40 41  1  0  0  0  0
 41 43  1  0  0  0  0
 41 42  2  0  0  0  0
 43 44  1  0  0  0  0
 44 45  1  0  0  0  0
 44 57  1  0  0  0  0
 44 56  1  0  0  0  0
 45 59  1  0  0  0  0
 46 61  1  0  0  0  0
 46 45  1  0  0  0  0
 47 46  1  0  0  0  0
 47 62  1  1  0  0  0
 48 31  1  0  0  0  0
 48 47  1  0  0  0  0
 49 47  1  0  0  0  0
 49 51  1  0  0  0  0
 50 49  2  0  0  0  0
 52 40  1  0  0  0  0
 53 40  1  0  0  0  0
 54 42  1  0  0  0  0
 55 43  1  0  0  0  0
 58 45  1  0  0  0  0
 60 46  1  0  0  0  0
 63 48  1  0  0  0  0
M  END
$$$$
