YHS.pdb
 OpenBabel07022419213D

 51 52  0  0  1  0  0  0  0  0999 V2000
    5.8030    1.7310    3.7290 O   0  0  0  0  0  0  0  0  0  0  0  0
    5.3520    0.8790    2.7380 C   0  0  0  0  0  0  0  0  0  0  0  0
    5.8250   -0.4080    2.6360 C   0  0  0  0  0  0  0  0  0  0  0  0
    5.3860   -1.2670    1.6560 C   0  0  0  0  0  0  0  0  0  0  0  0
    4.4480   -0.8490    0.7390 C   0  0  0  0  0  0  0  0  0  0  0  0
    3.9200   -1.6800   -0.3410 C   0  0  0  0  0  0  0  0  0  0  0  0
    2.7110   -2.5020   -0.0120 C   0  0  2  0  0  0  0  0  0  0  0  0
    2.3690   -3.2380   -1.2270 N   0  0  0  0  0  0  0  0  0  0  0  0
    1.5270   -1.6390    0.3330 C   0  0  0  0  0  0  0  0  0  0  0  0
    1.5460   -0.9180    1.3630 O   0  0  0  0  0  0  0  0  0  0  0  0
    3.9800    0.4440    0.8490 C   0  0  0  0  0  0  0  0  0  0  0  0
    4.4150    1.3200    1.8350 C   0  0  0  0  0  0  0  0  0  0  0  0
    5.7670    1.3790    4.6880 H   0  0  0  0  0  0  0  0  0  0  0  0
    6.5650   -0.7370    3.3600 H   0  0  0  0  0  0  0  0  0  0  0  0
    5.7550   -2.2730    1.5750 H   0  0  0  0  0  0  0  0  0  0  0  0
    3.6440   -1.0160   -1.1880 H   0  0  0  0  0  0  0  0  0  0  0  0
    4.7530   -2.3070   -0.7400 H   0  0  0  0  0  0  0  0  0  0  0  0
    2.8290   -3.2230    0.7880 H   0  0  0  0  0  0  0  0  0  0  0  0
    2.3080   -2.6270   -2.0550 H   0  0  0  0  0  0  0  0  0  0  0  0
    3.0650   -3.9840   -1.4260 H   0  0  0  0  0  0  0  0  0  0  0  0
    3.2330    0.8700    0.1630 H   0  0  0  0  0  0  0  0  0  0  0  0
    4.0380    2.3260    1.9050 H   0  0  0  0  0  0  0  0  0  0  0  0
    0.3730   -1.6100   -0.4730 N   0  0  0  0  0  0  0  0  0  0  0  0
   -0.7660   -0.7360   -0.0790 C   0  0  1  0  0  0  0  0  0  0  0  0
   -0.9200    0.3130   -1.1300 C   0  0  0  0  0  0  0  0  0  0  0  0
   -2.0130    1.2390   -0.8500 C   0  0  0  0  0  0  0  0  0  0  0  0
   -1.9290    2.4180   -0.1040 C   0  0  0  0  0  0  0  0  0  0  0  0
   -3.1380    2.9930   -0.0740 N   0  0  0  0  0  0  0  0  0  0  0  0
   -3.9910    2.2310   -0.7700 C   0  0  0  0  0  0  0  0  0  0  0  0
   -3.3130    1.1750   -1.2370 N   0  0  0  0  0  0  0  0  0  0  0  0
   -1.9590   -1.5620    0.1220 C   0  0  0  0  0  0  0  0  0  0  0  0
   -1.9170   -2.7850   -0.2740 O   0  0  0  0  0  0  0  0  0  0  0  0
    0.2670   -2.1660   -1.3350 H   0  0  0  0  0  0  0  0  0  0  0  0
   -0.4480   -0.2410    0.8520 H   0  0  0  0  0  0  0  0  0  0  0  0
   -1.0710   -0.1340   -2.1420 H   0  0  0  0  0  0  0  0  0  0  0  0
    0.0330    0.9140   -1.1100 H   0  0  0  0  0  0  0  0  0  0  0  0
   -1.0090    2.7820    0.3660 H   0  0  0  0  0  0  0  0  0  0  0  0
   -3.3840    3.9000    0.4170 H   0  0  0  0  0  0  0  0  0  0  0  0
   -5.0500    2.4580   -0.9140 H   0  0  0  0  0  0  0  0  0  0  0  0
   -3.0650   -3.0160    2.6410 O   0  0  0  0  0  0  0  0  0  0  0  0
   -4.3190   -2.4190    2.3780 C   0  0  0  0  0  0  0  0  0  0  0  0
   -4.2970   -2.0890    0.8700 C   0  0  2  0  0  0  0  0  0  0  0  0
   -3.1750   -1.1840    0.7130 N   0  0  0  0  0  0  0  0  0  0  0  0
   -5.5790   -1.5690    0.4260 C   0  0  0  0  0  0  0  0  0  0  0  0
   -5.6950   -0.4210   -0.0430 O   0  0  0  0  0  0  0  0  0  0  0  0
   -6.7050   -2.3690    0.5240 O   0  0  0  0  0  0  0  0  0  0  0  0
   -2.3430   -2.3790    2.4160 H   0  0  0  0  0  0  0  0  0  0  0  0
   -4.4100   -1.4750    2.9290 H   0  0  0  0  0  0  0  0  0  0  0  0
   -5.1150   -3.1560    2.6020 H   0  0  0  0  0  0  0  0  0  0  0  0
   -4.0000   -3.0580    0.3800 H   0  0  0  0  0  0  0  0  0  0  0  0
   -3.2830   -0.2180    1.0750 H   0  0  0  0  0  0  0  0  0  0  0  0
  1 13  1  0  0  0  0
  2  1  1  0  0  0  0
  3  2  1  0  0  0  0
  3 14  1  0  0  0  0
  4  3  2  0  0  0  0
  5 11  2  0  0  0  0
  5  4  1  0  0  0  0
  6  7  1  0  0  0  0
  6  5  1  0  0  0  0
  7  9  1  0  0  0  0
  7 18  1  1  0  0  0
  8  7  1  0  0  0  0
  9 10  2  0  0  0  0
 11 12  1  0  0  0  0
 12 22  1  0  0  0  0
 12  2  2  0  0  0  0
 15  4  1  0  0  0  0
 16  6  1  0  0  0  0
 17  6  1  0  0  0  0
 19  8  1  0  0  0  0
 20  8  1  0  0  0  0
 21 11  1  0  0  0  0
 23 24  1  0  0  0  0
 23  9  1  0  0  0  0
 24 31  1  0  0  0  0
 24 34  1  1  0  0  0
 25 36  1  0  0  0  0
 25 26  1  0  0  0  0
 25 24  1  0  0  0  0
 26 27  2  0  0  0  0
 27 28  1  0  0  0  0
 27 37  1  0  0  0  0
 28 38  1  0  0  0  0
 29 28  1  0  0  0  0
 30 26  1  0  0  0  0
 30 29  2  0  0  0  0
 31 43  1  0  0  0  0
 32 31  2  0  0  0  0
 33 23  1  0  0  0  0
 35 25  1  0  0  0  0
 39 29  1  0  0  0  0
 41 49  1  0  0  0  0
 41 40  1  0  0  0  0
 41 48  1  0  0  0  0
 42 50  1  6  0  0  0
 42 41  1  0  0  0  0
 43 42  1  0  0  0  0
 43 51  1  0  0  0  0
 44 46  1  0  0  0  0
 44 42  1  0  0  0  0
 45 44  2  0  0  0  0
 47 40  1  0  0  0  0
M  END
$$$$
