YHY.pdb
 OpenBabel07022419213D

 61 63  0  0  1  0  0  0  0  0999 V2000
    4.9980   -3.0500   -1.9210 O   0  0  0  0  0  0  0  0  0  0  0  0
    4.7500   -1.7340   -1.5270 C   0  0  0  0  0  0  0  0  0  0  0  0
    5.4270   -1.2290   -0.4350 C   0  0  0  0  0  0  0  0  0  0  0  0
    5.1950    0.0760   -0.0260 C   0  0  0  0  0  0  0  0  0  0  0  0
    4.3000    0.8790   -0.6900 C   0  0  0  0  0  0  0  0  0  0  0  0
    4.0720    2.2660   -0.2410 C   0  0  0  0  0  0  0  0  0  0  0  0
    2.9510    2.3970    0.7690 C   0  0  2  0  0  0  0  0  0  0  0  0
    3.2290    1.6230    1.9580 N   0  0  0  0  0  0  0  0  0  0  0  0
    1.6750    1.9830    0.1300 C   0  0  0  0  0  0  0  0  0  0  0  0
    1.3090    2.6640   -0.8770 O   0  0  0  0  0  0  0  0  0  0  0  0
    3.6330    0.3670   -1.7750 C   0  0  0  0  0  0  0  0  0  0  0  0
    3.8700   -0.9250   -2.1700 C   0  0  0  0  0  0  0  0  0  0  0  0
    5.1490   -3.7840   -1.2150 H   0  0  0  0  0  0  0  0  0  0  0  0
    6.1300   -1.8880    0.0730 H   0  0  0  0  0  0  0  0  0  0  0  0
    5.7710    0.4020    0.8480 H   0  0  0  0  0  0  0  0  0  0  0  0
    4.9910    2.6930    0.2570 H   0  0  0  0  0  0  0  0  0  0  0  0
    3.8770    2.9690   -1.0880 H   0  0  0  0  0  0  0  0  0  0  0  0
    2.8550    3.4580    1.0540 H   0  0  0  0  0  0  0  0  0  0  0  0
    2.4800    1.7660    2.6550 H   0  0  0  0  0  0  0  0  0  0  0  0
    4.1410    1.8760    2.3880 H   0  0  0  0  0  0  0  0  0  0  0  0
    2.9200    0.9470   -2.3380 H   0  0  0  0  0  0  0  0  0  0  0  0
    3.3350   -1.3360   -3.0400 H   0  0  0  0  0  0  0  0  0  0  0  0
    0.9390    0.8870    0.6420 N   0  0  0  0  0  0  0  0  0  0  0  0
   -0.3240    0.5430   -0.0540 C   0  0  1  0  0  0  0  0  0  0  0  0
   -0.0070   -0.6990   -0.8140 C   0  0  0  0  0  0  0  0  0  0  0  0
   -1.0440   -1.2960   -1.6220 C   0  0  0  0  0  0  0  0  0  0  0  0
   -1.9260   -2.2910   -1.2840 C   0  0  0  0  0  0  0  0  0  0  0  0
   -2.7030   -2.5740   -2.3450 N   0  0  0  0  0  0  0  0  0  0  0  0
   -2.3310   -1.7710   -3.3680 C   0  0  0  0  0  0  0  0  0  0  0  0
   -1.3250   -1.0010   -2.9190 N   0  0  0  0  0  0  0  0  0  0  0  0
   -1.3650    0.4810    0.9570 C   0  0  0  0  0  0  0  0  0  0  0  0
   -1.0710    0.6440    2.1910 O   0  0  0  0  0  0  0  0  0  0  0  0
    1.2460    0.3290    1.4710 H   0  0  0  0  0  0  0  0  0  0  0  0
   -0.4970    1.3440   -0.8210 H   0  0  0  0  0  0  0  0  0  0  0  0
    0.5250   -1.4580   -0.1510 H   0  0  0  0  0  0  0  0  0  0  0  0
    0.8330   -0.4000   -1.5220 H   0  0  0  0  0  0  0  0  0  0  0  0
   -2.0240   -2.8030   -0.3370 H   0  0  0  0  0  0  0  0  0  0  0  0
   -3.4530   -3.2990   -2.3310 H   0  0  0  0  0  0  0  0  0  0  0  0
   -2.8030   -1.7990   -4.3410 H   0  0  0  0  0  0  0  0  0  0  0  0
   -2.8080   -6.1800    2.0390 O   0  0  0  0  0  0  0  0  0  0  0  0
   -2.9570   -4.8140    2.2440 C   0  0  0  0  0  0  0  0  0  0  0  0
   -1.8670   -3.9810    2.3020 C   0  0  0  0  0  0  0  0  0  0  0  0
   -2.0580   -2.6140    2.5090 C   0  0  0  0  0  0  0  0  0  0  0  0
   -3.3180   -2.0910    2.6550 C   0  0  0  0  0  0  0  0  0  0  0  0
   -3.5310   -0.6730    2.8650 C   0  0  0  0  0  0  0  0  0  0  0  0
   -3.7670    0.1860    1.6820 C   0  0  2  0  0  0  0  0  0  0  0  0
   -2.7370    0.2490    0.6850 N   0  0  0  0  0  0  0  0  0  0  0  0
   -4.0910    1.5600    2.2150 C   0  0  0  0  0  0  0  0  0  0  0  0
   -3.5200    2.6020    1.8240 O   0  0  0  0  0  0  0  0  0  0  0  0
   -4.3840   -2.9620    2.5900 C   0  0  0  0  0  0  0  0  0  0  0  0
   -4.2340   -4.3150    2.3870 C   0  0  0  0  0  0  0  0  0  0  0  0
   -5.0680    1.7030    3.1910 O   0  0  0  0  0  0  0  0  0  0  0  0
   -2.7710   -6.5460    1.0930 H   0  0  0  0  0  0  0  0  0  0  0  0
   -0.8880   -4.3920    2.1880 H   0  0  0  0  0  0  0  0  0  0  0  0
   -1.1490   -2.0280    2.5450 H   0  0  0  0  0  0  0  0  0  0  0  0
   -4.4370   -0.5580    3.5340 H   0  0  0  0  0  0  0  0  0  0  0  0
   -2.6990   -0.2860    3.4860 H   0  0  0  0  0  0  0  0  0  0  0  0
   -4.7020   -0.1110    1.1320 H   0  0  0  0  0  0  0  0  0  0  0  0
   -2.9780    0.1350   -0.3580 H   0  0  0  0  0  0  0  0  0  0  0  0
   -5.3680   -2.5540    2.7050 H   0  0  0  0  0  0  0  0  0  0  0  0
   -5.0660   -5.0010    2.3360 H   0  0  0  0  0  0  0  0  0  0  0  0
  1  2  1  0  0  0  0
  1 13  1  0  0  0  0
  2  3  1  0  0  0  0
  3  4  2  0  0  0  0
  3 14  1  0  0  0  0
  4 15  1  0  0  0  0
  5  6  1  0  0  0  0
  5  4  1  0  0  0  0
  6 16  1  0  0  0  0
  6  7  1  0  0  0  0
  7 18  1  1  0  0  0
  7  8  1  0  0  0  0
  8 20  1  0  0  0  0
  8 19  1  0  0  0  0
  9 23  1  0  0  0  0
  9  7  1  0  0  0  0
 10  9  2  0  0  0  0
 11  5  2  0  0  0  0
 12 11  1  0  0  0  0
 12  2  2  0  0  0  0
 17  6  1  0  0  0  0
 21 11  1  0  0  0  0
 22 12  1  0  0  0  0
 23 33  1  0  0  0  0
 24 34  1  6  0  0  0
 24 23  1  0  0  0  0
 24 31  1  0  0  0  0
 25 35  1  0  0  0  0
 25 24  1  0  0  0  0
 26 27  2  0  0  0  0
 26 25  1  0  0  0  0
 27 37  1  0  0  0  0
 28 38  1  0  0  0  0
 28 27  1  0  0  0  0
 29 30  2  0  0  0  0
 29 28  1  0  0  0  0
 30 26  1  0  0  0  0
 31 32  2  0  0  0  0
 36 25  1  0  0  0  0
 39 29  1  0  0  0  0
 40 41  1  0  0  0  0
 41 42  2  0  0  0  0
 41 51  1  0  0  0  0
 42 43  1  0  0  0  0
 43 55  1  0  0  0  0
 43 44  2  0  0  0  0
 44 45  1  0  0  0  0
 45 57  1  0  0  0  0
 45 56  1  0  0  0  0
 46 58  1  6  0  0  0
 46 48  1  0  0  0  0
 46 45  1  0  0  0  0
 47 31  1  0  0  0  0
 47 46  1  0  0  0  0
 48 52  1  0  0  0  0
 49 48  2  0  0  0  0
 50 44  1  0  0  0  0
 50 60  1  0  0  0  0
 51 50  2  0  0  0  0
 53 40  1  0  0  0  0
 54 42  1  0  0  0  0
 59 47  1  0  0  0  0
 61 51  1  0  0  0  0
M  END
$$$$
