YIA.pdb
 OpenBabel07022419213D

 52 52  0  0  1  0  0  0  0  0999 V2000
    5.8360   -4.2300    1.8350 O   0  0  0  0  0  0  0  0  0  0  0  0
    5.2940   -3.0040    1.4500 C   0  0  0  0  0  0  0  0  0  0  0  0
    4.2580   -2.4620    2.1810 C   0  0  0  0  0  0  0  0  0  0  0  0
    3.6820   -1.2490    1.8450 C   0  0  0  0  0  0  0  0  0  0  0  0
    4.1610   -0.5710    0.7500 C   0  0  0  0  0  0  0  0  0  0  0  0
    3.5660    0.7250    0.3670 C   0  0  0  0  0  0  0  0  0  0  0  0
    2.4250    0.6140   -0.5900 C   0  0  2  0  0  0  0  0  0  0  0  0
    1.9510    1.9580   -0.8690 N   0  0  0  0  0  0  0  0  0  0  0  0
    1.3220   -0.2360   -0.1460 C   0  0  0  0  0  0  0  0  0  0  0  0
    1.5100   -1.4450    0.1440 O   0  0  0  0  0  0  0  0  0  0  0  0
    5.2020   -1.1070    0.0090 C   0  0  0  0  0  0  0  0  0  0  0  0
    5.7590   -2.3080    0.3570 C   0  0  0  0  0  0  0  0  0  0  0  0
    5.2280   -4.9890    2.1600 H   0  0  0  0  0  0  0  0  0  0  0  0
    3.8620   -2.9880    3.0570 H   0  0  0  0  0  0  0  0  0  0  0  0
    2.8580   -0.8690    2.4680 H   0  0  0  0  0  0  0  0  0  0  0  0
    3.1990    1.2260    1.2880 H   0  0  0  0  0  0  0  0  0  0  0  0
    4.3470    1.3480   -0.1110 H   0  0  0  0  0  0  0  0  0  0  0  0
    2.8360    0.2240   -1.5540 H   0  0  0  0  0  0  0  0  0  0  0  0
    1.2200    1.9290   -1.5930 H   0  0  0  0  0  0  0  0  0  0  0  0
    2.7640    2.5200   -1.2340 H   0  0  0  0  0  0  0  0  0  0  0  0
    5.5970   -0.5800   -0.8680 H   0  0  0  0  0  0  0  0  0  0  0  0
    6.5780   -2.7280   -0.2270 H   0  0  0  0  0  0  0  0  0  0  0  0
   -2.5730    1.7410    3.0330 C   0  0  0  0  0  0  0  0  0  0  0  0
   -2.1050    1.2820    1.6940 C   0  0  0  0  0  0  0  0  0  0  0  0
   -1.5950   -0.1390    1.7790 C   0  0  2  0  0  0  0  0  0  0  0  0
   -0.4430   -0.2720    2.7380 C   0  0  0  0  0  0  0  0  0  0  0  0
   -1.1070   -0.6240    0.4310 C   0  0  2  0  0  0  0  0  0  0  0  0
   -0.0290    0.2400   -0.0120 N   0  0  0  0  0  0  0  0  0  0  0  0
   -2.1800   -0.7160   -0.5660 C   0  0  0  0  0  0  0  0  0  0  0  0
   -2.0740   -0.0800   -1.6420 O   0  0  0  0  0  0  0  0  0  0  0  0
   -1.9100    1.5080    3.8680 H   0  0  0  0  0  0  0  0  0  0  0  0
   -2.6730    2.8660    3.0210 H   0  0  0  0  0  0  0  0  0  0  0  0
   -3.5920    1.3770    3.3060 H   0  0  0  0  0  0  0  0  0  0  0  0
   -2.9840    1.2580    1.0020 H   0  0  0  0  0  0  0  0  0  0  0  0
   -1.3540    1.9920    1.3100 H   0  0  0  0  0  0  0  0  0  0  0  0
   -2.4210   -0.7750    2.1100 H   0  0  0  0  0  0  0  0  0  0  0  0
    0.0840   -1.2170    2.4910 H   0  0  0  0  0  0  0  0  0  0  0  0
   -0.7700   -0.3450    3.7920 H   0  0  0  0  0  0  0  0  0  0  0  0
    0.2470    0.5630    2.5470 H   0  0  0  0  0  0  0  0  0  0  0  0
   -0.6530   -1.6360    0.6160 H   0  0  0  0  0  0  0  0  0  0  0  0
   -0.1750    1.2430   -0.2550 H   0  0  0  0  0  0  0  0  0  0  0  0
   -4.5440   -3.1080   -1.6750 C   0  0  0  0  0  0  0  0  0  0  0  0
   -4.4180   -1.6530   -1.2510 C   0  0  2  0  0  0  0  0  0  0  0  0
   -3.3170   -1.5000   -0.3370 N   0  0  0  0  0  0  0  0  0  0  0  0
   -5.6710   -1.2970   -0.5530 C   0  0  0  0  0  0  0  0  0  0  0  0
   -5.6180   -0.9390    0.6460 O   0  0  0  0  0  0  0  0  0  0  0  0
   -6.9100   -1.3460   -1.1770 O   0  0  0  0  0  0  0  0  0  0  0  0
   -5.5820   -3.4780   -1.5730 H   0  0  0  0  0  0  0  0  0  0  0  0
   -3.9000   -3.7490   -1.0460 H   0  0  0  0  0  0  0  0  0  0  0  0
   -4.2410   -3.2610   -2.7340 H   0  0  0  0  0  0  0  0  0  0  0  0
   -4.2800   -1.0730   -2.1860 H   0  0  0  0  0  0  0  0  0  0  0  0
   -3.3790   -2.0200    0.5690 H   0  0  0  0  0  0  0  0  0  0  0  0
  1 13  1  0  0  0  0
  2  1  1  0  0  0  0
  2  3  1  0  0  0  0
  3 14  1  0  0  0  0
  4  3  2  0  0  0  0
  4 15  1  0  0  0  0
  5  4  1  0  0  0  0
  6  5  1  0  0  0  0
  6 16  1  0  0  0  0
  7 18  1  6  0  0  0
  7  9  1  0  0  0  0
  7  6  1  0  0  0  0
  8  7  1  0  0  0  0
  9 28  1  0  0  0  0
  9 10  2  0  0  0  0
 11 12  1  0  0  0  0
 11  5  2  0  0  0  0
 12  2  2  0  0  0  0
 17  6  1  0  0  0  0
 19  8  1  0  0  0  0
 20  8  1  0  0  0  0
 21 11  1  0  0  0  0
 22 12  1  0  0  0  0
 23 33  1  0  0  0  0
 23 31  1  0  0  0  0
 24 25  1  0  0  0  0
 24 23  1  0  0  0  0
 25 36  1  1  0  0  0
 25 26  1  0  0  0  0
 26 38  1  0  0  0  0
 27 40  1  1  0  0  0
 27 25  1  0  0  0  0
 28 27  1  0  0  0  0
 29 44  1  0  0  0  0
 29 27  1  0  0  0  0
 30 29  2  0  0  0  0
 32 23  1  0  0  0  0
 34 24  1  0  0  0  0
 35 24  1  0  0  0  0
 37 26  1  0  0  0  0
 39 26  1  0  0  0  0
 41 28  1  0  0  0  0
 42 48  1  0  0  0  0
 42 43  1  0  0  0  0
 42 49  1  0  0  0  0
 43 51  1  6  0  0  0
 43 45  1  0  0  0  0
 43 44  1  0  0  0  0
 44 52  1  0  0  0  0
 45 46  1  0  0  0  0
 47 45  2  0  0  0  0
 50 42  1  0  0  0  0
M  END
$$$$
