YID.pdb
 OpenBabel07022419213D

 55 55  0  0  1  0  0  0  0  0999 V2000
   -0.1610    1.7980    5.9830 O   0  0  0  0  0  0  0  0  0  0  0  0
    0.5160    1.0470    5.0460 C   0  0  0  0  0  0  0  0  0  0  0  0
    0.9110   -0.2540    5.2290 C   0  0  0  0  0  0  0  0  0  0  0  0
    1.5810   -0.9400    4.2540 C   0  0  0  0  0  0  0  0  0  0  0  0
    1.8910   -0.3610    3.0460 C   0  0  0  0  0  0  0  0  0  0  0  0
    2.6370   -1.0890    1.9910 C   0  0  0  0  0  0  0  0  0  0  0  0
    1.8110   -1.9010    1.0580 C   0  0  2  0  0  0  0  0  0  0  0  0
    2.7820   -2.5100    0.1200 N   0  0  0  0  0  0  0  0  0  0  0  0
    0.7990   -1.1600    0.2830 C   0  0  0  0  0  0  0  0  0  0  0  0
    1.0400   -0.9890   -0.9630 O   0  0  0  0  0  0  0  0  0  0  0  0
    1.5010    0.9490    2.8450 C   0  0  0  0  0  0  0  0  0  0  0  0
    0.8280    1.6330    3.8290 C   0  0  0  0  0  0  0  0  0  0  0  0
   -0.7430    1.3860    6.7050 H   0  0  0  0  0  0  0  0  0  0  0  0
    0.6550   -0.7030    6.1990 H   0  0  0  0  0  0  0  0  0  0  0  0
    1.8810   -1.9600    4.4190 H   0  0  0  0  0  0  0  0  0  0  0  0
    3.2190   -0.3280    1.4330 H   0  0  0  0  0  0  0  0  0  0  0  0
    3.3630   -1.7710    2.4770 H   0  0  0  0  0  0  0  0  0  0  0  0
    1.2800   -2.7170    1.5950 H   0  0  0  0  0  0  0  0  0  0  0  0
    2.3240   -3.2490   -0.4520 H   0  0  0  0  0  0  0  0  0  0  0  0
    3.4760   -2.9940    0.7550 H   0  0  0  0  0  0  0  0  0  0  0  0
    1.7430    1.4240    1.8850 H   0  0  0  0  0  0  0  0  0  0  0  0
    0.5400    2.6710    3.6240 H   0  0  0  0  0  0  0  0  0  0  0  0
    0.0110    3.3380   -1.2350 C   0  0  0  0  0  0  0  0  0  0  0  0
    0.1020    1.8300   -0.9280 C   0  0  0  0  0  0  0  0  0  0  0  0
   -1.1210    1.4920   -0.1570 C   0  0  2  0  0  0  0  0  0  0  0  0
   -1.1810    2.3060    1.1420 C   0  0  0  0  0  0  0  0  0  0  0  0
   -1.3900    0.0660    0.1190 C   0  0  2  0  0  0  0  0  0  0  0  0
   -0.3970   -0.6510    0.8740 N   0  0  0  0  0  0  0  0  0  0  0  0
   -1.9190   -0.7120   -1.0450 C   0  0  0  0  0  0  0  0  0  0  0  0
   -2.6700   -0.1630   -1.9050 O   0  0  0  0  0  0  0  0  0  0  0  0
   -1.0420    3.6830   -1.1990 H   0  0  0  0  0  0  0  0  0  0  0  0
    0.6510    3.8970   -0.5120 H   0  0  0  0  0  0  0  0  0  0  0  0
    0.3960    3.5590   -2.2480 H   0  0  0  0  0  0  0  0  0  0  0  0
    1.0540    1.6770   -0.4000 H   0  0  0  0  0  0  0  0  0  0  0  0
    0.0460    1.3550   -1.9310 H   0  0  0  0  0  0  0  0  0  0  0  0
   -1.9910    1.8880   -0.7670 H   0  0  0  0  0  0  0  0  0  0  0  0
   -1.3950    1.6110    1.9750 H   0  0  0  0  0  0  0  0  0  0  0  0
   -0.1790    2.7710    1.3420 H   0  0  0  0  0  0  0  0  0  0  0  0
   -1.9780    3.0650    1.1320 H   0  0  0  0  0  0  0  0  0  0  0  0
   -2.3240    0.0910    0.8070 H   0  0  0  0  0  0  0  0  0  0  0  0
   -0.5100   -0.8460    1.9150 H   0  0  0  0  0  0  0  0  0  0  0  0
   -1.6220   -2.0780   -1.2490 N   0  0  0  0  0  0  0  0  0  0  0  0
   -2.1590   -2.7790   -2.4000 C   0  0  1  0  0  0  0  0  0  0  0  0
   -1.0790   -3.3560   -3.2610 C   0  0  0  0  0  0  0  0  0  0  0  0
   -0.2180   -4.3300   -2.5610 C   0  0  0  0  0  0  0  0  0  0  0  0
   -0.3330   -4.6760   -1.3750 O   0  0  0  0  0  0  0  0  0  0  0  0
   -2.9840   -3.9040   -1.8910 C   0  0  0  0  0  0  0  0  0  0  0  0
   -3.1170   -4.1090   -0.6550 O   0  0  0  0  0  0  0  0  0  0  0  0
    0.8110   -4.9080   -3.3000 O   0  0  0  0  0  0  0  0  0  0  0  0
   -3.6480   -4.7840   -2.7360 O   0  0  0  0  0  0  0  0  0  0  0  0
   -1.0290   -2.5970   -0.5690 H   0  0  0  0  0  0  0  0  0  0  0  0
   -2.7790   -2.1210   -3.0250 H   0  0  0  0  0  0  0  0  0  0  0  0
   -0.4180   -2.5120   -3.5740 H   0  0  0  0  0  0  0  0  0  0  0  0
   -1.5180   -3.8550   -4.1290 H   0  0  0  0  0  0  0  0  0  0  0  0
    1.1910   -5.8250   -3.1020 H   0  0  0  0  0  0  0  0  0  0  0  0
  1 13  1  0  0  0  0
  2  3  1  0  0  0  0
  2  1  1  0  0  0  0
  3 14  1  0  0  0  0
  4 15  1  0  0  0  0
  4  3  2  0  0  0  0
  5  4  1  0  0  0  0
  6 17  1  0  0  0  0
  6  5  1  0  0  0  0
  7 18  1  1  0  0  0
  7  6  1  0  0  0  0
  8 20  1  0  0  0  0
  8  7  1  0  0  0  0
  9 28  1  0  0  0  0
  9  7  1  0  0  0  0
 10  9  2  0  0  0  0
 11  5  2  0  0  0  0
 11 12  1  0  0  0  0
 12  2  2  0  0  0  0
 16  6  1  0  0  0  0
 19  8  1  0  0  0  0
 21 11  1  0  0  0  0
 22 12  1  0  0  0  0
 23 31  1  0  0  0  0
 23 24  1  0  0  0  0
 23 32  1  0  0  0  0
 24 34  1  0  0  0  0
 24 25  1  0  0  0  0
 25 36  1  6  0  0  0
 25 27  1  0  0  0  0
 25 26  1  0  0  0  0
 26 38  1  0  0  0  0
 26 37  1  0  0  0  0
 27 40  1  1  0  0  0
 27 28  1  0  0  0  0
 28 41  1  0  0  0  0
 29 27  1  0  0  0  0
 30 29  2  0  0  0  0
 33 23  1  0  0  0  0
 35 24  1  0  0  0  0
 39 26  1  0  0  0  0
 42 29  1  0  0  0  0
 42 51  1  0  0  0  0
 43 52  1  6  0  0  0
 43 47  1  0  0  0  0
 43 42  1  0  0  0  0
 44 45  1  0  0  0  0
 44 43  1  0  0  0  0
 45 46  2  0  0  0  0
 47 48  1  0  0  0  0
 49 55  1  0  0  0  0
 49 45  1  0  0  0  0
 50 47  2  0  0  0  0
 53 44  1  0  0  0  0
 54 44  1  0  0  0  0
M  END
$$$$
