YIE.pdb
 OpenBabel07022419213D

 58 58  0  0  1  0  0  0  0  0999 V2000
    2.7750    5.4290    4.3480 O   0  0  0  0  0  0  0  0  0  0  0  0
    2.8570    4.6020    3.2160 C   0  0  0  0  0  0  0  0  0  0  0  0
    3.0910    3.2570    3.3770 C   0  0  0  0  0  0  0  0  0  0  0  0
    3.1680    2.4600    2.2560 C   0  0  0  0  0  0  0  0  0  0  0  0
    3.0230    2.9380    0.9740 C   0  0  0  0  0  0  0  0  0  0  0  0
    3.1260    2.0500   -0.1690 C   0  0  0  0  0  0  0  0  0  0  0  0
    1.9130    1.3960   -0.6920 C   0  0  2  0  0  0  0  0  0  0  0  0
    0.8610    2.2790   -1.1480 N   0  0  0  0  0  0  0  0  0  0  0  0
    1.3920    0.2330    0.0480 C   0  0  0  0  0  0  0  0  0  0  0  0
    2.1230   -0.5640    0.6870 O   0  0  0  0  0  0  0  0  0  0  0  0
    2.7890    4.2910    0.8360 C   0  0  0  0  0  0  0  0  0  0  0  0
    2.7080    5.1040    1.9440 C   0  0  0  0  0  0  0  0  0  0  0  0
    2.0720    5.2680    5.0590 H   0  0  0  0  0  0  0  0  0  0  0  0
    3.2060    2.8720    4.3720 H   0  0  0  0  0  0  0  0  0  0  0  0
    3.3580    1.4000    2.4660 H   0  0  0  0  0  0  0  0  0  0  0  0
    3.5480    2.6780   -1.0170 H   0  0  0  0  0  0  0  0  0  0  0  0
    3.9370    1.3030    0.0040 H   0  0  0  0  0  0  0  0  0  0  0  0
    2.2670    0.9190   -1.6900 H   0  0  0  0  0  0  0  0  0  0  0  0
    1.0360    3.2770   -1.0310 H   0  0  0  0  0  0  0  0  0  0  0  0
    0.4100    2.0000   -2.0260 H   0  0  0  0  0  0  0  0  0  0  0  0
    2.6650    4.7580   -0.1430 H   0  0  0  0  0  0  0  0  0  0  0  0
    2.5200    6.1860    1.8480 H   0  0  0  0  0  0  0  0  0  0  0  0
   -0.4230    1.4020    2.4590 C   0  0  0  0  0  0  0  0  0  0  0  0
   -1.2200    0.2030    2.7850 C   0  0  0  0  0  0  0  0  0  0  0  0
   -1.6480   -0.6950    1.6670 C   0  0  2  0  0  0  0  0  0  0  0  0
   -2.4460   -1.8140    2.3070 C   0  0  0  0  0  0  0  0  0  0  0  0
   -0.5890   -1.1360    0.7260 C   0  0  2  0  0  0  0  0  0  0  0  0
    0.0020    0.0050    0.0300 N   0  0  0  0  0  0  0  0  0  0  0  0
   -1.0320   -2.1440   -0.2760 C   0  0  0  0  0  0  0  0  0  0  0  0
   -1.0810   -1.8560   -1.5180 O   0  0  0  0  0  0  0  0  0  0  0  0
   -0.6820    2.1920    3.2340 H   0  0  0  0  0  0  0  0  0  0  0  0
    0.6680    1.1720    2.6360 H   0  0  0  0  0  0  0  0  0  0  0  0
   -0.5660    1.8250    1.4560 H   0  0  0  0  0  0  0  0  0  0  0  0
   -2.0950    0.4280    3.4550 H   0  0  0  0  0  0  0  0  0  0  0  0
   -0.5760   -0.4520    3.4600 H   0  0  0  0  0  0  0  0  0  0  0  0
   -2.4160   -0.0950    1.0890 H   0  0  0  0  0  0  0  0  0  0  0  0
   -1.8590   -2.4820    2.9430 H   0  0  0  0  0  0  0  0  0  0  0  0
   -3.1450   -1.2900    3.0370 H   0  0  0  0  0  0  0  0  0  0  0  0
   -3.1120   -2.2640    1.5720 H   0  0  0  0  0  0  0  0  0  0  0  0
    0.2330   -1.6220    1.2810 H   0  0  0  0  0  0  0  0  0  0  0  0
   -0.7070    0.6060   -0.4870 H   0  0  0  0  0  0  0  0  0  0  0  0
   -1.4000   -3.4370    0.1140 N   0  0  0  0  0  0  0  0  0  0  0  0
   -1.8270   -4.3920   -0.9260 C   0  0  1  0  0  0  0  0  0  0  0  0
   -0.7450   -5.4390   -1.1050 C   0  0  0  0  0  0  0  0  0  0  0  0
   -1.0650   -6.4670   -2.1420 C   0  0  0  0  0  0  0  0  0  0  0  0
   -1.2480   -5.9470   -3.5090 C   0  0  0  0  0  0  0  0  0  0  0  0
   -1.0710   -4.7370   -3.7460 O   0  0  0  0  0  0  0  0  0  0  0  0
   -3.0660   -5.0310   -0.4620 C   0  0  0  0  0  0  0  0  0  0  0  0
   -3.5100   -4.7780    0.6820 O   0  0  0  0  0  0  0  0  0  0  0  0
   -1.6130   -6.7810   -4.5270 O   0  0  0  0  0  0  0  0  0  0  0  0
   -3.8090   -5.9320   -1.2390 O   0  0  0  0  0  0  0  0  0  0  0  0
   -1.3900   -3.8010    1.0800 H   0  0  0  0  0  0  0  0  0  0  0  0
   -1.9640   -3.8720   -1.8630 H   0  0  0  0  0  0  0  0  0  0  0  0
   -0.5420   -5.9780   -0.1510 H   0  0  0  0  0  0  0  0  0  0  0  0
    0.2230   -4.9700   -1.3900 H   0  0  0  0  0  0  0  0  0  0  0  0
   -0.2170   -7.2080   -2.1230 H   0  0  0  0  0  0  0  0  0  0  0  0
   -1.9480   -7.1110   -1.8530 H   0  0  0  0  0  0  0  0  0  0  0  0
   -2.0580   -6.4880   -5.3880 H   0  0  0  0  0  0  0  0  0  0  0  0
  1 13  1  0  0  0  0
  2  3  1  0  0  0  0
  2  1  1  0  0  0  0
  3 14  1  0  0  0  0
  4 15  1  0  0  0  0
  4  3  2  0  0  0  0
  5  4  1  0  0  0  0
  6 17  1  0  0  0  0
  6  5  1  0  0  0  0
  7 18  1  6  0  0  0
  7  6  1  0  0  0  0
  7  9  1  0  0  0  0
  8 19  1  0  0  0  0
  8  7  1  0  0  0  0
  9 10  2  0  0  0  0
 11  5  2  0  0  0  0
 11 12  1  0  0  0  0
 12  2  2  0  0  0  0
 16  6  1  0  0  0  0
 20  8  1  0  0  0  0
 21 11  1  0  0  0  0
 22 12  1  0  0  0  0
 23 32  1  0  0  0  0
 23 24  1  0  0  0  0
 23 31  1  0  0  0  0
 24 34  1  0  0  0  0
 24 35  1  0  0  0  0
 25 36  1  6  0  0  0
 25 26  1  0  0  0  0
 25 24  1  0  0  0  0
 26 37  1  0  0  0  0
 26 38  1  0  0  0  0
 27 40  1  1  0  0  0
 27 25  1  0  0  0  0
 28  9  1  0  0  0  0
 28 27  1  0  0  0  0
 29 42  1  0  0  0  0
 29 27  1  0  0  0  0
 30 29  2  0  0  0  0
 33 23  1  0  0  0  0
 39 26  1  0  0  0  0
 41 28  1  0  0  0  0
 42 52  1  0  0  0  0
 43 53  1  6  0  0  0
 43 48  1  0  0  0  0
 43 42  1  0  0  0  0
 44 43  1  0  0  0  0
 44 54  1  0  0  0  0
 45 56  1  0  0  0  0
 45 57  1  0  0  0  0
 45 44  1  0  0  0  0
 46 45  1  0  0  0  0
 47 46  2  0  0  0  0
 48 49  1  0  0  0  0
 50 46  1  0  0  0  0
 51 48  2  0  0  0  0
 55 44  1  0  0  0  0
 58 50  1  0  0  0  0
M  END
$$$$
