YIF.pdb
 OpenBabel07022419213D

 62 63  0  0  1  0  0  0  0  0999 V2000
    1.1230   -0.1300    6.9930 O   0  0  0  0  0  0  0  0  0  0  0  0
    1.6390   -0.4310    5.7280 C   0  0  0  0  0  0  0  0  0  0  0  0
    2.9990   -0.4740    5.4860 C   0  0  0  0  0  0  0  0  0  0  0  0
    3.5350   -0.7670    4.2540 C   0  0  0  0  0  0  0  0  0  0  0  0
    2.6830   -1.0320    3.2090 C   0  0  0  0  0  0  0  0  0  0  0  0
    3.2540   -1.3480    1.8810 C   0  0  0  0  0  0  0  0  0  0  0  0
    3.4690   -0.1490    1.0170 C   0  0  2  0  0  0  0  0  0  0  0  0
    4.3640    0.8160    1.5790 N   0  0  0  0  0  0  0  0  0  0  0  0
    2.1850    0.5330    0.6360 C   0  0  0  0  0  0  0  0  0  0  0  0
    2.0820    1.7550    0.8740 O   0  0  0  0  0  0  0  0  0  0  0  0
    1.3260   -1.0010    3.4040 C   0  0  0  0  0  0  0  0  0  0  0  0
    0.8310   -0.7030    4.6490 C   0  0  0  0  0  0  0  0  0  0  0  0
    0.1550   -0.3830    7.1510 H   0  0  0  0  0  0  0  0  0  0  0  0
    3.6650   -0.2650    6.3120 H   0  0  0  0  0  0  0  0  0  0  0  0
    4.6290   -0.7920    4.0990 H   0  0  0  0  0  0  0  0  0  0  0  0
    2.5450   -2.0220    1.3620 H   0  0  0  0  0  0  0  0  0  0  0  0
    4.2120   -1.8990    1.9440 H   0  0  0  0  0  0  0  0  0  0  0  0
    3.9080   -0.5010    0.0610 H   0  0  0  0  0  0  0  0  0  0  0  0
    5.3570    0.6780    1.2450 H   0  0  0  0  0  0  0  0  0  0  0  0
    4.0120    1.7640    1.3920 H   0  0  0  0  0  0  0  0  0  0  0  0
    0.6220   -1.2060    2.5940 H   0  0  0  0  0  0  0  0  0  0  0  0
   -0.2400   -0.6780    4.8050 H   0  0  0  0  0  0  0  0  0  0  0  0
   -2.1750    2.0970    1.5390 C   0  0  0  0  0  0  0  0  0  0  0  0
   -0.7120    2.2390    1.0530 C   0  0  0  0  0  0  0  0  0  0  0  0
   -0.5510    1.6280   -0.2960 C   0  0  2  0  0  0  0  0  0  0  0  0
   -1.4470    2.1870   -1.3630 C   0  0  0  0  0  0  0  0  0  0  0  0
   -0.1630    0.2080   -0.3930 C   0  0  2  0  0  0  0  0  0  0  0  0
    1.1600   -0.1730    0.0440 N   0  0  0  0  0  0  0  0  0  0  0  0
   -0.6000   -0.5460   -1.5680 C   0  0  0  0  0  0  0  0  0  0  0  0
    0.2750   -1.2510   -2.1920 O   0  0  0  0  0  0  0  0  0  0  0  0
   -2.1540    2.4560    2.5880 H   0  0  0  0  0  0  0  0  0  0  0  0
   -2.5050    1.0630    1.5370 H   0  0  0  0  0  0  0  0  0  0  0  0
   -2.8020    2.7030    0.8780 H   0  0  0  0  0  0  0  0  0  0  0  0
   -0.1050    1.7580    1.8160 H   0  0  0  0  0  0  0  0  0  0  0  0
   -0.5200    3.3130    1.0030 H   0  0  0  0  0  0  0  0  0  0  0  0
    0.4820    2.1560   -0.6250 H   0  0  0  0  0  0  0  0  0  0  0  0
   -1.2180    1.6940   -2.3270 H   0  0  0  0  0  0  0  0  0  0  0  0
   -1.1750    3.2800   -1.5770 H   0  0  0  0  0  0  0  0  0  0  0  0
   -2.5100    2.2470   -1.0980 H   0  0  0  0  0  0  0  0  0  0  0  0
   -0.7850   -0.2170    0.5380 H   0  0  0  0  0  0  0  0  0  0  0  0
    1.4140   -1.2310   -0.1230 H   0  0  0  0  0  0  0  0  0  0  0  0
   -1.9170   -0.5520   -2.0530 N   0  0  0  0  0  0  0  0  0  0  0  0
   -2.3180   -1.3200   -3.2360 C   0  0  1  0  0  0  0  0  0  0  0  0
   -3.2730   -2.4310   -2.8080 C   0  0  0  0  0  0  0  0  0  0  0  0
   -2.6470   -3.3540   -1.8420 C   0  0  0  0  0  0  0  0  0  0  0  0
   -1.9620   -4.4680   -2.2590 C   0  0  0  0  0  0  0  0  0  0  0  0
   -1.3660   -5.3480   -1.3620 C   0  0  0  0  0  0  0  0  0  0  0  0
   -1.4600   -5.1010    0.0020 C   0  0  0  0  0  0  0  0  0  0  0  0
   -2.1400   -3.9930    0.4330 C   0  0  0  0  0  0  0  0  0  0  0  0
   -2.7290   -3.1260   -0.4860 C   0  0  0  0  0  0  0  0  0  0  0  0
   -2.9690   -0.4770   -4.2360 C   0  0  0  0  0  0  0  0  0  0  0  0
   -3.3580   -0.9850   -5.3160 O   0  0  0  0  0  0  0  0  0  0  0  0
   -3.1730    0.8740   -4.0290 O   0  0  0  0  0  0  0  0  0  0  0  0
   -2.6450   -0.0130   -1.5550 H   0  0  0  0  0  0  0  0  0  0  0  0
   -1.3890   -1.7770   -3.6350 H   0  0  0  0  0  0  0  0  0  0  0  0
   -3.5620   -2.9710   -3.7410 H   0  0  0  0  0  0  0  0  0  0  0  0
   -4.2040   -1.9760   -2.4150 H   0  0  0  0  0  0  0  0  0  0  0  0
   -1.8630   -4.7000   -3.3040 H   0  0  0  0  0  0  0  0  0  0  0  0
   -0.8300   -6.2200   -1.6940 H   0  0  0  0  0  0  0  0  0  0  0  0
   -1.0040   -5.7720    0.7100 H   0  0  0  0  0  0  0  0  0  0  0  0
   -2.2110   -3.8050    1.4960 H   0  0  0  0  0  0  0  0  0  0  0  0
   -3.2470   -2.2750   -0.0680 H   0  0  0  0  0  0  0  0  0  0  0  0
  1 13  1  0  0  0  0
  2  1  1  0  0  0  0
  3  2  1  0  0  0  0
  3 14  1  0  0  0  0
  4  3  2  0  0  0  0
  5 11  2  0  0  0  0
  5  4  1  0  0  0  0
  6 17  1  0  0  0  0
  6  5  1  0  0  0  0
  7 18  1  6  0  0  0
  7  8  1  0  0  0  0
  7  6  1  0  0  0  0
  9 10  2  0  0  0  0
  9  7  1  0  0  0  0
 11 12  1  0  0  0  0
 12 22  1  0  0  0  0
 12  2  2  0  0  0  0
 15  4  1  0  0  0  0
 16  6  1  0  0  0  0
 19  8  1  0  0  0  0
 20  8  1  0  0  0  0
 21 11  1  0  0  0  0
 23 31  1  0  0  0  0
 24 23  1  0  0  0  0
 24 34  1  0  0  0  0
 25 36  1  6  0  0  0
 25 24  1  0  0  0  0
 26 39  1  0  0  0  0
 26 25  1  0  0  0  0
 27 25  1  0  0  0  0
 27 28  1  0  0  0  0
 27 40  1  1  0  0  0
 28  9  1  0  0  0  0
 29 27  1  0  0  0  0
 30 29  2  0  0  0  0
 32 23  1  0  0  0  0
 33 23  1  0  0  0  0
 35 24  1  0  0  0  0
 37 26  1  0  0  0  0
 38 26  1  0  0  0  0
 41 28  1  0  0  0  0
 42 29  1  0  0  0  0
 42 54  1  0  0  0  0
 43 55  1  6  0  0  0
 43 44  1  0  0  0  0
 43 42  1  0  0  0  0
 44 57  1  0  0  0  0
 44 45  1  0  0  0  0
 45 50  1  0  0  0  0
 46 45  2  0  0  0  0
 46 47  1  0  0  0  0
 47 48  2  0  0  0  0
 48 49  1  0  0  0  0
 48 60  1  0  0  0  0
 49 61  1  0  0  0  0
 50 62  1  0  0  0  0
 50 49  2  0  0  0  0
 51 53  1  0  0  0  0
 51 43  1  0  0  0  0
 52 51  2  0  0  0  0
 56 44  1  0  0  0  0
 58 46  1  0  0  0  0
 59 47  1  0  0  0  0
M  END
$$$$
