YIH.pdb
 OpenBabel07022419213D

 59 60  0  0  1  0  0  0  0  0999 V2000
   -0.2920   -0.8990    6.5730 O   0  0  0  0  0  0  0  0  0  0  0  0
    0.4800   -0.9220    5.3990 C   0  0  0  0  0  0  0  0  0  0  0  0
   -0.1290   -1.1380    4.1740 C   0  0  0  0  0  0  0  0  0  0  0  0
    0.6230   -1.1620    3.0240 C   0  0  0  0  0  0  0  0  0  0  0  0
    1.9820   -0.9740    3.0590 C   0  0  0  0  0  0  0  0  0  0  0  0
    2.7840   -1.0050    1.8090 C   0  0  0  0  0  0  0  0  0  0  0  0
    2.8620    0.3750    1.1840 C   0  0  2  0  0  0  0  0  0  0  0  0
    3.4790    1.2280    2.1780 N   0  0  0  0  0  0  0  0  0  0  0  0
    1.4970    0.8710    0.9170 C   0  0  0  0  0  0  0  0  0  0  0  0
    1.0320    1.7890    1.6310 O   0  0  0  0  0  0  0  0  0  0  0  0
    2.6120   -0.7550    4.2820 C   0  0  0  0  0  0  0  0  0  0  0  0
    1.8440   -0.7340    5.4260 C   0  0  0  0  0  0  0  0  0  0  0  0
   -1.0380   -0.1940    6.5890 H   0  0  0  0  0  0  0  0  0  0  0  0
   -1.2010   -1.2830    4.1830 H   0  0  0  0  0  0  0  0  0  0  0  0
    0.1360   -1.3270    2.0830 H   0  0  0  0  0  0  0  0  0  0  0  0
    3.8120   -1.3110    2.0930 H   0  0  0  0  0  0  0  0  0  0  0  0
    2.3930   -1.7590    1.1140 H   0  0  0  0  0  0  0  0  0  0  0  0
    3.4740    0.2920    0.2640 H   0  0  0  0  0  0  0  0  0  0  0  0
    3.0800    2.1930    2.0970 H   0  0  0  0  0  0  0  0  0  0  0  0
    4.5060    1.2810    2.1020 H   0  0  0  0  0  0  0  0  0  0  0  0
    3.6950   -0.6040    4.3150 H   0  0  0  0  0  0  0  0  0  0  0  0
    2.3120   -0.5640    6.4030 H   0  0  0  0  0  0  0  0  0  0  0  0
   -1.9620    3.6020   -2.7360 C   0  0  0  0  0  0  0  0  0  0  0  0
   -2.0350    2.4210   -1.7480 C   0  0  0  0  0  0  0  0  0  0  0  0
   -0.6810    1.8530   -1.5230 C   0  0  2  0  0  0  0  0  0  0  0  0
   -0.0100    1.3230   -2.7340 C   0  0  0  0  0  0  0  0  0  0  0  0
   -0.7040    0.9210   -0.3270 C   0  0  2  0  0  0  0  0  0  0  0  0
    0.6520    0.3710   -0.1200 N   0  0  0  0  0  0  0  0  0  0  0  0
   -1.7230   -0.1060   -0.3670 C   0  0  0  0  0  0  0  0  0  0  0  0
   -2.9400    0.1760   -0.4700 O   0  0  0  0  0  0  0  0  0  0  0  0
   -1.1720    3.3140   -3.4720 H   0  0  0  0  0  0  0  0  0  0  0  0
   -1.5750    4.5060   -2.2180 H   0  0  0  0  0  0  0  0  0  0  0  0
   -2.9380    3.7800   -3.1990 H   0  0  0  0  0  0  0  0  0  0  0  0
   -2.4810    2.8370   -0.8270 H   0  0  0  0  0  0  0  0  0  0  0  0
   -2.7760    1.6960   -2.1660 H   0  0  0  0  0  0  0  0  0  0  0  0
   -0.0390    2.7280   -1.1800 H   0  0  0  0  0  0  0  0  0  0  0  0
    0.6290    2.0850   -3.2520 H   0  0  0  0  0  0  0  0  0  0  0  0
    0.6790    0.4640   -2.5380 H   0  0  0  0  0  0  0  0  0  0  0  0
   -0.7830    1.0400   -3.5020 H   0  0  0  0  0  0  0  0  0  0  0  0
   -0.9040    1.5950    0.5330 H   0  0  0  0  0  0  0  0  0  0  0  0
    1.0470   -0.3900   -0.7110 H   0  0  0  0  0  0  0  0  0  0  0  0
   -1.4010   -1.4850   -0.2930 N   0  0  0  0  0  0  0  0  0  0  0  0
   -2.4120   -2.5220   -0.3360 C   0  0  1  0  0  0  0  0  0  0  0  0
   -2.2760   -3.3600   -1.6040 C   0  0  0  0  0  0  0  0  0  0  0  0
   -0.9690   -4.0240   -1.7000 C   0  0  0  0  0  0  0  0  0  0  0  0
   -0.6060   -5.2660   -1.2330 C   0  0  0  0  0  0  0  0  0  0  0  0
    0.6810   -5.4860   -1.5310 N   0  0  0  0  0  0  0  0  0  0  0  0
    1.1490   -4.4140   -2.1780 C   0  0  0  0  0  0  0  0  0  0  0  0
    0.1350   -3.5280   -2.2760 N   0  0  0  0  0  0  0  0  0  0  0  0
   -2.4740   -3.3560    0.8700 C   0  0  0  0  0  0  0  0  0  0  0  0
   -1.7730   -3.2660    1.8870 O   0  0  0  0  0  0  0  0  0  0  0  0
   -3.4380   -4.3860    0.8930 O   0  0  0  0  0  0  0  0  0  0  0  0
   -0.3930   -1.7290   -0.2060 H   0  0  0  0  0  0  0  0  0  0  0  0
   -3.4220   -2.0240   -0.4330 H   0  0  0  0  0  0  0  0  0  0  0  0
   -2.4390   -2.6270   -2.4480 H   0  0  0  0  0  0  0  0  0  0  0  0
   -3.1200   -4.0730   -1.6870 H   0  0  0  0  0  0  0  0  0  0  0  0
   -1.2350   -5.9610   -0.7120 H   0  0  0  0  0  0  0  0  0  0  0  0
    1.2600   -6.3490   -1.3080 H   0  0  0  0  0  0  0  0  0  0  0  0
    2.1760   -4.2940   -2.5540 H   0  0  0  0  0  0  0  0  0  0  0  0
  1 13  1  0  0  0  0
  2 12  1  0  0  0  0
  2  1  1  0  0  0  0
  3 14  1  0  0  0  0
  3  2  2  0  0  0  0
  4  5  2  0  0  0  0
  4  3  1  0  0  0  0
  5 11  1  0  0  0  0
  6 16  1  0  0  0  0
  6  5  1  0  0  0  0
  7 18  1  6  0  0  0
  7  6  1  0  0  0  0
  7  8  1  0  0  0  0
  9  7  1  0  0  0  0
  9 10  2  0  0  0  0
 11 21  1  0  0  0  0
 11 12  2  0  0  0  0
 12 22  1  0  0  0  0
 15  4  1  0  0  0  0
 17  6  1  0  0  0  0
 19  8  1  0  0  0  0
 20  8  1  0  0  0  0
 23 32  1  0  0  0  0
 23 24  1  0  0  0  0
 24 25  1  0  0  0  0
 24 34  1  0  0  0  0
 25 36  1  1  0  0  0
 25 27  1  0  0  0  0
 26 38  1  0  0  0  0
 26 25  1  0  0  0  0
 27 28  1  0  0  0  0
 27 40  1  1  0  0  0
 28  9  1  0  0  0  0
 29 27  1  0  0  0  0
 29 42  1  0  0  0  0
 30 29  2  0  0  0  0
 31 23  1  0  0  0  0
 33 23  1  0  0  0  0
 35 24  1  0  0  0  0
 37 26  1  0  0  0  0
 39 26  1  0  0  0  0
 41 28  1  0  0  0  0
 42 53  1  0  0  0  0
 43 54  1  6  0  0  0
 43 42  1  0  0  0  0
 43 50  1  0  0  0  0
 44 43  1  0  0  0  0
 45 44  1  0  0  0  0
 45 46  2  0  0  0  0
 46 57  1  0  0  0  0
 47 58  1  0  0  0  0
 47 46  1  0  0  0  0
 48 47  1  0  0  0  0
 49 48  2  0  0  0  0
 49 45  1  0  0  0  0
 50 52  2  0  0  0  0
 50 51  1  0  0  0  0
 55 44  1  0  0  0  0
 56 44  1  0  0  0  0
 59 48  1  0  0  0  0
M  END
$$$$
