YII.pdb
 OpenBabel07022419213D

 61 61  0  0  1  0  0  0  0  0999 V2000
    1.3890    3.9360    3.4340 O   0  0  0  0  0  0  0  0  0  0  0  0
    1.9720    3.2720    2.3360 C   0  0  0  0  0  0  0  0  0  0  0  0
    3.3040    2.9390    2.3310 C   0  0  0  0  0  0  0  0  0  0  0  0
    3.9050    2.2920    1.2780 C   0  0  0  0  0  0  0  0  0  0  0  0
    3.1570    1.9410    0.1460 C   0  0  0  0  0  0  0  0  0  0  0  0
    3.7530    1.2740   -1.0050 C   0  0  0  0  0  0  0  0  0  0  0  0
    3.8280   -0.1990   -0.9950 C   0  0  2  0  0  0  0  0  0  0  0  0
    4.4780   -0.5790   -2.2730 N   0  0  0  0  0  0  0  0  0  0  0  0
    2.5890   -0.9540   -0.8720 C   0  0  0  0  0  0  0  0  0  0  0  0
    2.2240   -1.6690   -1.8730 O   0  0  0  0  0  0  0  0  0  0  0  0
    1.8210    2.2860    0.1750 C   0  0  0  0  0  0  0  0  0  0  0  0
    1.2350    2.9310    1.2310 C   0  0  0  0  0  0  0  0  0  0  0  0
    1.8840    3.9520    4.3130 H   0  0  0  0  0  0  0  0  0  0  0  0
    3.9330    3.1870    3.1850 H   0  0  0  0  0  0  0  0  0  0  0  0
    4.9530    2.0210    1.2550 H   0  0  0  0  0  0  0  0  0  0  0  0
    3.2530    1.6110   -1.9420 H   0  0  0  0  0  0  0  0  0  0  0  0
    4.8020    1.6840   -1.1020 H   0  0  0  0  0  0  0  0  0  0  0  0
    4.5350   -0.6100   -0.2260 H   0  0  0  0  0  0  0  0  0  0  0  0
    4.8370   -1.5470   -2.2260 H   0  0  0  0  0  0  0  0  0  0  0  0
    5.3020    0.0640   -2.3400 H   0  0  0  0  0  0  0  0  0  0  0  0
    1.2270    2.0130   -0.7120 H   0  0  0  0  0  0  0  0  0  0  0  0
    0.1930    3.1800    1.2100 H   0  0  0  0  0  0  0  0  0  0  0  0
   -0.5030   -4.7480    0.2150 C   0  0  0  0  0  0  0  0  0  0  0  0
   -0.2650   -3.9140    1.4730 C   0  0  0  0  0  0  0  0  0  0  0  0
    0.7880   -2.8910    1.2690 C   0  0  2  0  0  0  0  0  0  0  0  0
    0.9590   -2.1270    2.5680 C   0  0  0  0  0  0  0  0  0  0  0  0
    0.4890   -1.8480    0.2010 C   0  0  2  0  0  0  0  0  0  0  0  0
    1.7140   -1.0120    0.2280 N   0  0  0  0  0  0  0  0  0  0  0  0
   -0.6840   -1.0190    0.5480 C   0  0  0  0  0  0  0  0  0  0  0  0
   -0.4720    0.1940    0.9290 O   0  0  0  0  0  0  0  0  0  0  0  0
   -1.4530   -5.3200    0.3160 H   0  0  0  0  0  0  0  0  0  0  0  0
    0.3090   -5.4920    0.0720 H   0  0  0  0  0  0  0  0  0  0  0  0
   -0.5450   -4.1370   -0.6930 H   0  0  0  0  0  0  0  0  0  0  0  0
   -1.1810   -3.5900    1.9680 H   0  0  0  0  0  0  0  0  0  0  0  0
    0.1830   -4.6690    2.1970 H   0  0  0  0  0  0  0  0  0  0  0  0
    1.7250   -3.4040    0.9750 H   0  0  0  0  0  0  0  0  0  0  0  0
    2.0140   -1.7910    2.6070 H   0  0  0  0  0  0  0  0  0  0  0  0
    0.3270   -1.2200    2.5750 H   0  0  0  0  0  0  0  0  0  0  0  0
    0.7190   -2.8150    3.4080 H   0  0  0  0  0  0  0  0  0  0  0  0
    0.3430   -2.2970   -0.7780 H   0  0  0  0  0  0  0  0  0  0  0  0
    1.9260   -0.4630    1.0720 H   0  0  0  0  0  0  0  0  0  0  0  0
   -5.3610   -2.5330   -0.1920 C   0  0  0  0  0  0  0  0  0  0  0  0
   -4.5520   -1.6320   -1.0650 C   0  0  0  0  0  0  0  0  0  0  0  0
   -3.9960   -0.4180   -0.3870 C   0  0  2  0  0  0  0  0  0  0  0  0
   -3.2180    0.3570   -1.4460 C   0  0  0  0  0  0  0  0  0  0  0  0
   -3.1320   -0.7070    0.8120 C   0  0  2  0  0  0  0  0  0  0  0  0
   -1.9870   -1.5250    0.4660 N   0  0  0  0  0  0  0  0  0  0  0  0
   -3.8540   -1.1990    1.9900 C   0  0  0  0  0  0  0  0  0  0  0  0
   -3.4960   -2.2490    2.6270 O   0  0  0  0  0  0  0  0  0  0  0  0
   -4.9780   -0.5690    2.5060 O   0  0  0  0  0  0  0  0  0  0  0  0
   -4.7680   -3.2380    0.4160 H   0  0  0  0  0  0  0  0  0  0  0  0
   -6.0410   -3.2030   -0.8000 H   0  0  0  0  0  0  0  0  0  0  0  0
   -6.0750   -1.9140    0.3980 H   0  0  0  0  0  0  0  0  0  0  0  0
   -3.7810   -2.1890   -1.6490 H   0  0  0  0  0  0  0  0  0  0  0  0
   -5.2590   -1.2410   -1.8560 H   0  0  0  0  0  0  0  0  0  0  0  0
   -4.8530    0.2310   -0.1170 H   0  0  0  0  0  0  0  0  0  0  0  0
   -3.2080    1.4450   -1.2130 H   0  0  0  0  0  0  0  0  0  0  0  0
   -2.2160   -0.0470   -1.6170 H   0  0  0  0  0  0  0  0  0  0  0  0
   -3.7900    0.2560   -2.3920 H   0  0  0  0  0  0  0  0  0  0  0  0
   -2.7070    0.2990    1.1160 H   0  0  0  0  0  0  0  0  0  0  0  0
   -2.2000   -2.4900    0.1480 H   0  0  0  0  0  0  0  0  0  0  0  0
  1 13  1  0  0  0  0
  2  1  1  0  0  0  0
  3  2  1  0  0  0  0
  3 14  1  0  0  0  0
  4  3  2  0  0  0  0
  5 11  2  0  0  0  0
  5  4  1  0  0  0  0
  6  7  1  0  0  0  0
  6  5  1  0  0  0  0
  7  9  1  0  0  0  0
  7 18  1  1  0  0  0
  8 19  1  0  0  0  0
  8  7  1  0  0  0  0
  9 28  1  0  0  0  0
 10  9  2  0  0  0  0
 11 12  1  0  0  0  0
 12  2  2  0  0  0  0
 15  4  1  0  0  0  0
 16  6  1  0  0  0  0
 17  6  1  0  0  0  0
 20  8  1  0  0  0  0
 21 11  1  0  0  0  0
 22 12  1  0  0  0  0
 23 31  1  0  0  0  0
 23 24  1  0  0  0  0
 24 34  1  0  0  0  0
 24 35  1  0  0  0  0
 25 36  1  6  0  0  0
 25 24  1  0  0  0  0
 25 26  1  0  0  0  0
 26 38  1  0  0  0  0
 26 37  1  0  0  0  0
 26 39  1  0  0  0  0
 27 40  1  6  0  0  0
 27 28  1  0  0  0  0
 27 29  1  0  0  0  0
 27 25  1  0  0  0  0
 28 41  1  0  0  0  0
 29 30  2  0  0  0  0
 32 23  1  0  0  0  0
 33 23  1  0  0  0  0
 42 53  1  0  0  0  0
 42 51  1  0  0  0  0
 43 44  1  0  0  0  0
 43 42  1  0  0  0  0
 44 56  1  1  0  0  0
 44 46  1  0  0  0  0
 45 57  1  0  0  0  0
 45 44  1  0  0  0  0
 46 60  1  1  0  0  0
 46 48  1  0  0  0  0
 47 29  1  0  0  0  0
 47 46  1  0  0  0  0
 48 50  2  0  0  0  0
 48 49  1  0  0  0  0
 52 42  1  0  0  0  0
 54 43  1  0  0  0  0
 55 43  1  0  0  0  0
 58 45  1  0  0  0  0
 59 45  1  0  0  0  0
 61 47  1  0  0  0  0
M  END
$$$$
