YIP.pdb
 OpenBabel07022419213D

 56 57  0  0  1  0  0  0  0  0999 V2000
    2.8160   -4.9760    0.1670 O   0  0  0  0  0  0  0  0  0  0  0  0
    3.0390   -3.6710    0.5800 C   0  0  0  0  0  0  0  0  0  0  0  0
    4.0690   -2.8980    0.0920 C   0  0  0  0  0  0  0  0  0  0  0  0
    4.2760   -1.6230    0.5040 C   0  0  0  0  0  0  0  0  0  0  0  0
    3.4410   -1.0400    1.4510 C   0  0  0  0  0  0  0  0  0  0  0  0
    3.6230    0.3100    1.9590 C   0  0  0  0  0  0  0  0  0  0  0  0
    2.9950    1.4290    1.2160 C   0  0  2  0  0  0  0  0  0  0  0  0
    3.3700    2.6530    1.9790 N   0  0  0  0  0  0  0  0  0  0  0  0
    1.5360    1.3700    1.0780 C   0  0  0  0  0  0  0  0  0  0  0  0
    0.7470    2.1420    1.6940 O   0  0  0  0  0  0  0  0  0  0  0  0
    2.4150   -1.8180    1.9320 C   0  0  0  0  0  0  0  0  0  0  0  0
    2.2120   -3.1050    1.5110 C   0  0  0  0  0  0  0  0  0  0  0  0
    2.7020   -5.6660    0.9100 H   0  0  0  0  0  0  0  0  0  0  0  0
    4.7250   -3.3540   -0.6490 H   0  0  0  0  0  0  0  0  0  0  0  0
    5.0910   -1.0350    0.1090 H   0  0  0  0  0  0  0  0  0  0  0  0
    4.7040    0.5650    2.1030 H   0  0  0  0  0  0  0  0  0  0  0  0
    3.1940    0.3410    3.0090 H   0  0  0  0  0  0  0  0  0  0  0  0
    3.4510    1.5870    0.2130 H   0  0  0  0  0  0  0  0  0  0  0  0
    3.5630    2.4230    2.9730 H   0  0  0  0  0  0  0  0  0  0  0  0
    4.2300    3.0780    1.5850 H   0  0  0  0  0  0  0  0  0  0  0  0
    1.7230   -1.4300    2.6730 H   0  0  0  0  0  0  0  0  0  0  0  0
    1.3860   -3.6960    1.9140 H   0  0  0  0  0  0  0  0  0  0  0  0
   -2.9910    2.0990   -0.6790 C   0  0  0  0  0  0  0  0  0  0  0  0
   -2.3580    1.0550   -1.5570 C   0  0  0  0  0  0  0  0  0  0  0  0
   -0.8900    0.9790   -1.2750 C   0  0  2  0  0  0  0  0  0  0  0  0
   -0.3920   -0.0850   -2.2750 C   0  0  0  0  0  0  0  0  0  0  0  0
   -0.5580    0.3990    0.0990 C   0  0  2  0  0  0  0  0  0  0  0  0
    0.9160    0.4250    0.2230 N   0  0  0  0  0  0  0  0  0  0  0  0
   -1.0150   -0.9950    0.2290 C   0  0  0  0  0  0  0  0  0  0  0  0
   -0.1770   -1.8620   -0.2190 O   0  0  0  0  0  0  0  0  0  0  0  0
   -3.1110    3.0220   -1.3190 H   0  0  0  0  0  0  0  0  0  0  0  0
   -2.2650    2.3870    0.0980 H   0  0  0  0  0  0  0  0  0  0  0  0
   -3.9700    1.7770   -0.2700 H   0  0  0  0  0  0  0  0  0  0  0  0
   -2.7910    0.0540   -1.2870 H   0  0  0  0  0  0  0  0  0  0  0  0
   -2.5560    1.2540   -2.6420 H   0  0  0  0  0  0  0  0  0  0  0  0
   -0.4510    1.9570   -1.4380 H   0  0  0  0  0  0  0  0  0  0  0  0
   -1.0310   -0.9590   -2.1800 H   0  0  0  0  0  0  0  0  0  0  0  0
    0.6420   -0.3570   -2.1590 H   0  0  0  0  0  0  0  0  0  0  0  0
   -0.5400    0.3570   -3.2970 H   0  0  0  0  0  0  0  0  0  0  0  0
   -0.9610    1.0320    0.8570 H   0  0  0  0  0  0  0  0  0  0  0  0
    1.4270   -0.2770   -0.3370 H   0  0  0  0  0  0  0  0  0  0  0  0
   -2.2150   -1.4780    0.7710 N   0  0  0  0  0  0  0  0  0  0  0  0
   -3.1840   -0.6490    1.4670 C   0  0  0  0  0  0  0  0  0  0  0  0
   -4.4850   -1.1250    0.8690 C   0  0  0  0  0  0  0  0  0  0  0  0
   -4.2440   -2.5730    0.5360 C   0  0  0  0  0  0  0  0  0  0  0  0
   -2.7230   -2.7990    0.7870 C   0  0  1  0  0  0  0  0  0  0  0  0
   -2.2420   -3.7720   -0.1780 C   0  0  0  0  0  0  0  0  0  0  0  0
   -2.4280   -5.0090    0.0760 O   0  0  0  0  0  0  0  0  0  0  0  0
   -1.6090   -3.4770   -1.3410 O   0  0  0  0  0  0  0  0  0  0  0  0
   -3.0020    0.4110    1.4490 H   0  0  0  0  0  0  0  0  0  0  0  0
   -3.1180   -1.0300    2.5560 H   0  0  0  0  0  0  0  0  0  0  0  0
   -5.3150   -1.0160    1.6220 H   0  0  0  0  0  0  0  0  0  0  0  0
   -4.7000   -0.5210   -0.0330 H   0  0  0  0  0  0  0  0  0  0  0  0
   -4.8030   -3.2420    1.1860 H   0  0  0  0  0  0  0  0  0  0  0  0
   -4.3940   -2.7550   -0.5500 H   0  0  0  0  0  0  0  0  0  0  0  0
   -2.6160   -3.2280    1.8290 H   0  0  0  0  0  0  0  0  0  0  0  0
  1  2  1  0  0  0  0
  1 13  1  0  0  0  0
  2 12  1  0  0  0  0
  3  4  1  0  0  0  0
  3  2  2  0  0  0  0
  4  5  2  0  0  0  0
  5 11  1  0  0  0  0
  5  6  1  0  0  0  0
  6 16  1  0  0  0  0
  6 17  1  0  0  0  0
  7 18  1  6  0  0  0
  7  6  1  0  0  0  0
  7  8  1  0  0  0  0
  8 19  1  0  0  0  0
  9  7  1  0  0  0  0
  9 10  2  0  0  0  0
 11 21  1  0  0  0  0
 12 22  1  0  0  0  0
 12 11  2  0  0  0  0
 14  3  1  0  0  0  0
 15  4  1  0  0  0  0
 20  8  1  0  0  0  0
 23 33  1  0  0  0  0
 23 32  1  0  0  0  0
 24 34  1  0  0  0  0
 24 25  1  0  0  0  0
 24 23  1  0  0  0  0
 25 36  1  6  0  0  0
 25 27  1  0  0  0  0
 26 37  1  0  0  0  0
 26 38  1  0  0  0  0
 26 25  1  0  0  0  0
 27 28  1  0  0  0  0
 27 29  1  0  0  0  0
 27 40  1  1  0  0  0
 28  9  1  0  0  0  0
 29 42  1  0  0  0  0
 30 29  2  0  0  0  0
 31 23  1  0  0  0  0
 35 24  1  0  0  0  0
 39 26  1  0  0  0  0
 41 28  1  0  0  0  0
 42 46  1  0  0  0  0
 42 43  1  0  0  0  0
 43 51  1  0  0  0  0
 44 43  1  0  0  0  0
 44 52  1  0  0  0  0
 45 46  1  0  0  0  0
 45 44  1  0  0  0  0
 45 54  1  0  0  0  0
 46 56  1  1  0  0  0
 47 48  1  0  0  0  0
 47 46  1  0  0  0  0
 49 47  2  0  0  0  0
 50 43  1  0  0  0  0
 53 44  1  0  0  0  0
 55 45  1  0  0  0  0
M  END
$$$$
