YIQ.pdb
 OpenBabel07022419213D

 59 59  0  0  1  0  0  0  0  0999 V2000
    1.5360    2.3500    6.9240 O   0  0  0  0  0  0  0  0  0  0  0  0
    2.0620    2.0440    5.6580 C   0  0  0  0  0  0  0  0  0  0  0  0
    2.2270    0.7370    5.2530 C   0  0  0  0  0  0  0  0  0  0  0  0
    2.7400    0.4110    4.0200 C   0  0  0  0  0  0  0  0  0  0  0  0
    3.1140    1.3960    3.1280 C   0  0  0  0  0  0  0  0  0  0  0  0
    3.6640    1.1380    1.8000 C   0  0  0  0  0  0  0  0  0  0  0  0
    2.6870    1.0740    0.6870 C   0  0  2  0  0  0  0  0  0  0  0  0
    1.9110    2.2730    0.4750 N   0  0  0  0  0  0  0  0  0  0  0  0
    1.8670   -0.1350    0.7780 C   0  0  0  0  0  0  0  0  0  0  0  0
    2.3980   -1.2120    1.1080 O   0  0  0  0  0  0  0  0  0  0  0  0
    2.9460    2.7150    3.5380 C   0  0  0  0  0  0  0  0  0  0  0  0
    2.4320    3.0330    4.7750 C   0  0  0  0  0  0  0  0  0  0  0  0
    0.5900    2.0150    7.1300 H   0  0  0  0  0  0  0  0  0  0  0  0
    1.9380   -0.0500    5.9430 H   0  0  0  0  0  0  0  0  0  0  0  0
    2.8520   -0.6360    3.7470 H   0  0  0  0  0  0  0  0  0  0  0  0
    4.4900    1.8490    1.5370 H   0  0  0  0  0  0  0  0  0  0  0  0
    4.1770    0.1310    1.8480 H   0  0  0  0  0  0  0  0  0  0  0  0
    3.3150    0.9880   -0.2650 H   0  0  0  0  0  0  0  0  0  0  0  0
    2.5880    3.0690    0.3980 H   0  0  0  0  0  0  0  0  0  0  0  0
    1.4820    2.1810   -0.4820 H   0  0  0  0  0  0  0  0  0  0  0  0
    3.2170    3.5390    2.8920 H   0  0  0  0  0  0  0  0  0  0  0  0
    2.3150    4.0720    5.0630 H   0  0  0  0  0  0  0  0  0  0  0  0
   -0.9410    0.6990    2.7360 C   0  0  0  0  0  0  0  0  0  0  0  0
   -1.6960   -0.5790    2.5500 C   0  0  0  0  0  0  0  0  0  0  0  0
   -1.6220   -1.1900    1.2060 C   0  0  2  0  0  0  0  0  0  0  0  0
   -2.4650   -2.4600    1.1460 C   0  0  0  0  0  0  0  0  0  0  0  0
   -0.2680   -1.4460    0.6250 C   0  0  2  0  0  0  0  0  0  0  0  0
    0.4660   -0.1640    0.5030 N   0  0  0  0  0  0  0  0  0  0  0  0
   -0.4780   -1.9420   -0.7970 C   0  0  0  0  0  0  0  0  0  0  0  0
   -0.3600   -1.1100   -1.7610 O   0  0  0  0  0  0  0  0  0  0  0  0
   -1.2590    1.1960    3.7220 H   0  0  0  0  0  0  0  0  0  0  0  0
   -1.2830    1.4760    1.9900 H   0  0  0  0  0  0  0  0  0  0  0  0
    0.1400    0.6130    2.8320 H   0  0  0  0  0  0  0  0  0  0  0  0
   -1.4540   -1.2870    3.3800 H   0  0  0  0  0  0  0  0  0  0  0  0
   -2.7900   -0.3360    2.7410 H   0  0  0  0  0  0  0  0  0  0  0  0
   -2.1280   -0.4770    0.4860 H   0  0  0  0  0  0  0  0  0  0  0  0
   -3.4040   -2.3150    1.7550 H   0  0  0  0  0  0  0  0  0  0  0  0
   -2.7540   -2.7250    0.1250 H   0  0  0  0  0  0  0  0  0  0  0  0
   -1.9570   -3.3040    1.6250 H   0  0  0  0  0  0  0  0  0  0  0  0
    0.2820   -2.1730    1.2020 H   0  0  0  0  0  0  0  0  0  0  0  0
    0.0130    0.7160    0.2160 H   0  0  0  0  0  0  0  0  0  0  0  0
   -4.4050   -2.9610   -6.0370 N   0  0  0  0  0  0  0  0  0  0  0  0
   -3.8820   -2.7910   -4.7360 C   0  0  0  0  0  0  0  0  0  0  0  0
   -4.5300   -2.0810   -3.9240 O   0  0  0  0  0  0  0  0  0  0  0  0
   -2.5900   -3.4380   -4.3330 C   0  0  0  0  0  0  0  0  0  0  0  0
   -2.2460   -3.1090   -2.9080 C   0  0  0  0  0  0  0  0  0  0  0  0
   -0.9830   -3.7110   -2.4080 C   0  0  2  0  0  0  0  0  0  0  0  0
   -0.7890   -3.2980   -1.0050 N   0  0  0  0  0  0  0  0  0  0  0  0
    0.2240   -3.4060   -3.2080 C   0  0  0  0  0  0  0  0  0  0  0  0
    0.3110   -3.6330   -4.4400 O   0  0  0  0  0  0  0  0  0  0  0  0
    1.3480   -2.8430   -2.6220 O   0  0  0  0  0  0  0  0  0  0  0  0
   -4.2580   -3.8300   -6.5800 H   0  0  0  0  0  0  0  0  0  0  0  0
   -4.9530   -2.1940   -6.4650 H   0  0  0  0  0  0  0  0  0  0  0  0
   -2.6940   -4.5250   -4.4800 H   0  0  0  0  0  0  0  0  0  0  0  0
   -1.8390   -3.0560   -5.0480 H   0  0  0  0  0  0  0  0  0  0  0  0
   -3.0990   -3.5280   -2.2940 H   0  0  0  0  0  0  0  0  0  0  0  0
   -2.2760   -2.0200   -2.7090 H   0  0  0  0  0  0  0  0  0  0  0  0
   -1.0540   -4.8430   -2.3810 H   0  0  0  0  0  0  0  0  0  0  0  0
   -0.8680   -4.0250   -0.2510 H   0  0  0  0  0  0  0  0  0  0  0  0
  1 13  1  0  0  0  0
  2  1  1  0  0  0  0
  3  2  1  0  0  0  0
  3 14  1  0  0  0  0
  4  3  2  0  0  0  0
  5 11  2  0  0  0  0
  5  4  1  0  0  0  0
  6 17  1  0  0  0  0
  6  5  1  0  0  0  0
  7 18  1  6  0  0  0
  7  9  1  0  0  0  0
  7  6  1  0  0  0  0
  8  7  1  0  0  0  0
  9 10  2  0  0  0  0
 11 12  1  0  0  0  0
 12 22  1  0  0  0  0
 12  2  2  0  0  0  0
 15  4  1  0  0  0  0
 16  6  1  0  0  0  0
 19  8  1  0  0  0  0
 20  8  1  0  0  0  0
 21 11  1  0  0  0  0
 23 33  1  0  0  0  0
 23 31  1  0  0  0  0
 24 23  1  0  0  0  0
 24 35  1  0  0  0  0
 24 34  1  0  0  0  0
 25 36  1  6  0  0  0
 25 24  1  0  0  0  0
 26 25  1  0  0  0  0
 26 39  1  0  0  0  0
 26 37  1  0  0  0  0
 27 40  1  1  0  0  0
 27 25  1  0  0  0  0
 28 27  1  0  0  0  0
 28  9  1  0  0  0  0
 29 27  1  0  0  0  0
 30 29  2  0  0  0  0
 32 23  1  0  0  0  0
 38 26  1  0  0  0  0
 41 28  1  0  0  0  0
 42 43  1  0  0  0  0
 43 45  1  0  0  0  0
 43 44  2  0  0  0  0
 45 46  1  0  0  0  0
 46 57  1  0  0  0  0
 46 47  1  0  0  0  0
 46 56  1  0  0  0  0
 47 58  1  6  0  0  0
 47 48  1  0  0  0  0
 48 29  1  0  0  0  0
 48 59  1  0  0  0  0
 49 51  1  0  0  0  0
 49 47  1  0  0  0  0
 50 49  2  0  0  0  0
 52 42  1  0  0  0  0
 53 42  1  0  0  0  0
 54 45  1  0  0  0  0
 55 45  1  0  0  0  0
M  END
$$$$
