YIR.pdb
 OpenBabel07022419213D

 65 65  0  0  1  0  0  0  0  0999 V2000
    2.5300   -2.7530    5.8970 O   0  0  0  0  0  0  0  0  0  0  0  0
    2.8290   -1.8820    4.8490 C   0  0  0  0  0  0  0  0  0  0  0  0
    3.8440   -0.9430    4.9490 C   0  0  0  0  0  0  0  0  0  0  0  0
    4.1670   -0.0720    3.9430 C   0  0  0  0  0  0  0  0  0  0  0  0
    3.4810   -0.0960    2.7680 C   0  0  0  0  0  0  0  0  0  0  0  0
    3.7400    0.7790    1.6200 C   0  0  0  0  0  0  0  0  0  0  0  0
    3.0440    2.0700    1.5550 C   0  0  2  0  0  0  0  0  0  0  0  0
    3.3360    2.9300    2.7160 N   0  0  0  0  0  0  0  0  0  0  0  0
    1.6410    2.1020    1.1730 C   0  0  0  0  0  0  0  0  0  0  0  0
    0.8720    2.7760    1.9600 O   0  0  0  0  0  0  0  0  0  0  0  0
    2.4650   -1.0250    2.6480 C   0  0  0  0  0  0  0  0  0  0  0  0
    2.1320   -1.9120    3.6640 C   0  0  0  0  0  0  0  0  0  0  0  0
    2.2140   -2.3980    6.7930 H   0  0  0  0  0  0  0  0  0  0  0  0
    4.3920   -0.9280    5.8950 H   0  0  0  0  0  0  0  0  0  0  0  0
    4.9570    0.6240    4.0850 H   0  0  0  0  0  0  0  0  0  0  0  0
    3.5610    0.2240    0.6840 H   0  0  0  0  0  0  0  0  0  0  0  0
    4.8490    0.9920    1.6190 H   0  0  0  0  0  0  0  0  0  0  0  0
    3.5740    2.6460    0.7190 H   0  0  0  0  0  0  0  0  0  0  0  0
    4.3340    2.8010    2.9290 H   0  0  0  0  0  0  0  0  0  0  0  0
    3.1330    3.9060    2.4620 H   0  0  0  0  0  0  0  0  0  0  0  0
    1.8930   -1.0810    1.7240 H   0  0  0  0  0  0  0  0  0  0  0  0
    1.3260   -2.6310    3.5360 H   0  0  0  0  0  0  0  0  0  0  0  0
   -2.3970    1.7080   -2.9580 C   0  0  0  0  0  0  0  0  0  0  0  0
   -1.8300    2.7180   -2.0210 C   0  0  0  0  0  0  0  0  0  0  0  0
   -0.4870    2.4370   -1.4600 C   0  0  2  0  0  0  0  0  0  0  0  0
    0.4890    2.2680   -2.6030 C   0  0  0  0  0  0  0  0  0  0  0  0
   -0.3410    1.5430   -0.3140 C   0  0  2  0  0  0  0  0  0  0  0  0
    1.1130    1.4680    0.0440 N   0  0  0  0  0  0  0  0  0  0  0  0
   -0.7760    0.1640   -0.3240 C   0  0  0  0  0  0  0  0  0  0  0  0
    0.0780   -0.7840   -0.2530 O   0  0  0  0  0  0  0  0  0  0  0  0
   -2.4380    2.1150   -4.0230 H   0  0  0  0  0  0  0  0  0  0  0  0
   -3.4640    1.5150   -2.7270 H   0  0  0  0  0  0  0  0  0  0  0  0
   -1.8550    0.7620   -2.9380 H   0  0  0  0  0  0  0  0  0  0  0  0
   -2.5600    2.8150   -1.1580 H   0  0  0  0  0  0  0  0  0  0  0  0
   -1.8590    3.7570   -2.4760 H   0  0  0  0  0  0  0  0  0  0  0  0
   -0.1850    3.4890   -1.0160 H   0  0  0  0  0  0  0  0  0  0  0  0
    0.5320    1.2680   -3.0180 H   0  0  0  0  0  0  0  0  0  0  0  0
    0.2400    2.9610   -3.4310 H   0  0  0  0  0  0  0  0  0  0  0  0
    1.4950    2.5640   -2.2410 H   0  0  0  0  0  0  0  0  0  0  0  0
   -0.7730    2.1130    0.5840 H   0  0  0  0  0  0  0  0  0  0  0  0
    1.6940    0.9280   -0.5850 H   0  0  0  0  0  0  0  0  0  0  0  0
   -0.7340   -4.9930   -2.0300 N   0  0  0  0  0  0  0  0  0  0  0  0
   -1.5650   -5.2110   -0.9040 C   0  0  0  0  0  0  0  0  0  0  0  0
   -2.5450   -6.0230   -0.9900 N   0  0  0  0  0  0  0  0  0  0  0  0
   -1.3310   -4.5380    0.3310 N   0  0  0  0  0  0  0  0  0  0  0  0
   -2.2600   -4.3540    1.3630 C   0  0  0  0  0  0  0  0  0  0  0  0
   -3.4080   -3.4250    1.2170 C   0  0  0  0  0  0  0  0  0  0  0  0
   -3.1030   -2.0030    0.9780 C   0  0  0  0  0  0  0  0  0  0  0  0
   -2.4450   -1.7300   -0.3500 C   0  0  2  0  0  0  0  0  0  0  0  0
   -2.1110   -0.2690   -0.3940 N   0  0  0  0  0  0  0  0  0  0  0  0
   -3.3400   -2.0530   -1.4690 C   0  0  0  0  0  0  0  0  0  0  0  0
   -3.7870   -3.2080   -1.6150 O   0  0  0  0  0  0  0  0  0  0  0  0
   -3.7390   -1.1250   -2.4120 O   0  0  0  0  0  0  0  0  0  0  0  0
   -0.3080   -5.7860   -2.5900 H   0  0  0  0  0  0  0  0  0  0  0  0
   -0.5180   -4.0170   -2.3400 H   0  0  0  0  0  0  0  0  0  0  0  0
   -2.7210   -6.5150   -1.8860 H   0  0  0  0  0  0  0  0  0  0  0  0
   -0.3300   -4.1660    0.4160 H   0  0  0  0  0  0  0  0  0  0  0  0
   -2.6550   -5.3830    1.6510 H   0  0  0  0  0  0  0  0  0  0  0  0
   -1.7000   -4.0620    2.3070 H   0  0  0  0  0  0  0  0  0  0  0  0
   -4.2020   -3.7980    0.5320 H   0  0  0  0  0  0  0  0  0  0  0  0
   -3.9430   -3.4610    2.2330 H   0  0  0  0  0  0  0  0  0  0  0  0
   -2.4080   -1.6390    1.7640 H   0  0  0  0  0  0  0  0  0  0  0  0
   -4.0460   -1.4180    1.0770 H   0  0  0  0  0  0  0  0  0  0  0  0
   -1.4960   -2.2540   -0.3880 H   0  0  0  0  0  0  0  0  0  0  0  0
   -2.9200    0.3610   -0.4740 H   0  0  0  0  0  0  0  0  0  0  0  0
  1 13  1  0  0  0  0
  2  3  1  0  0  0  0
  2  1  1  0  0  0  0
  3 14  1  0  0  0  0
  4 15  1  0  0  0  0
  4  3  2  0  0  0  0
  5  4  1  0  0  0  0
  6  5  1  0  0  0  0
  7 18  1  6  0  0  0
  7  6  1  0  0  0  0
  7  8  1  0  0  0  0
  8 19  1  0  0  0  0
  9  7  1  0  0  0  0
  9 10  2  0  0  0  0
 11  5  2  0  0  0  0
 11 12  1  0  0  0  0
 12  2  2  0  0  0  0
 16  6  1  0  0  0  0
 17  6  1  0  0  0  0
 20  8  1  0  0  0  0
 21 11  1  0  0  0  0
 22 12  1  0  0  0  0
 23 33  1  0  0  0  0
 23 32  1  0  0  0  0
 23 24  1  0  0  0  0
 24 25  1  0  0  0  0
 24 34  1  0  0  0  0
 25 36  1  1  0  0  0
 25 27  1  0  0  0  0
 26 39  1  0  0  0  0
 26 25  1  0  0  0  0
 27 28  1  0  0  0  0
 27 40  1  1  0  0  0
 28  9  1  0  0  0  0
 29 27  1  0  0  0  0
 29 30  2  0  0  0  0
 31 23  1  0  0  0  0
 35 24  1  0  0  0  0
 37 26  1  0  0  0  0
 38 26  1  0  0  0  0
 41 28  1  0  0  0  0
 42 43  1  0  0  0  0
 43 45  1  0  0  0  0
 44 43  2  0  0  0  0
 45 57  1  0  0  0  0
 45 46  1  0  0  0  0
 46 58  1  0  0  0  0
 46 59  1  0  0  0  0
 47 46  1  0  0  0  0
 47 61  1  0  0  0  0
 48 63  1  0  0  0  0
 48 47  1  0  0  0  0
 48 62  1  0  0  0  0
 49 64  1  6  0  0  0
 49 48  1  0  0  0  0
 50 49  1  0  0  0  0
 50 29  1  0  0  0  0
 51 49  1  0  0  0  0
 52 51  1  0  0  0  0
 53 51  2  0  0  0  0
 54 42  1  0  0  0  0
 55 42  1  0  0  0  0
 56 44  1  0  0  0  0
 60 47  1  0  0  0  0
 65 50  1  0  0  0  0
M  END
$$$$
