YIW.pdb
 OpenBabel07022419213D

 66 68  0  0  1  0  0  0  0  0999 V2000
    2.2340   -3.9510    4.1400 O   0  0  0  0  0  0  0  0  0  0  0  0
    2.7790   -2.7880    3.6270 C   0  0  0  0  0  0  0  0  0  0  0  0
    3.9780   -2.8320    2.9470 C   0  0  0  0  0  0  0  0  0  0  0  0
    4.5380   -1.6920    2.4290 C   0  0  0  0  0  0  0  0  0  0  0  0
    3.8720   -0.4770    2.6000 C   0  0  0  0  0  0  0  0  0  0  0  0
    4.5270    0.7110    2.0710 C   0  0  0  0  0  0  0  0  0  0  0  0
    4.3110    0.9700    0.6230 C   0  0  2  0  0  0  0  0  0  0  0  0
    5.0700    2.1990    0.2750 N   0  0  0  0  0  0  0  0  0  0  0  0
    2.9210    1.1750    0.2470 C   0  0  0  0  0  0  0  0  0  0  0  0
    2.5340    2.3640   -0.0990 O   0  0  0  0  0  0  0  0  0  0  0  0
    2.6790   -0.4370    3.2770 C   0  0  0  0  0  0  0  0  0  0  0  0
    2.1220   -1.5890    3.7950 C   0  0  0  0  0  0  0  0  0  0  0  0
    1.4700   -3.9090    4.8020 H   0  0  0  0  0  0  0  0  0  0  0  0
    4.4750   -3.7860    2.8270 H   0  0  0  0  0  0  0  0  0  0  0  0
    5.4760   -1.7230    1.8960 H   0  0  0  0  0  0  0  0  0  0  0  0
    5.6400    0.5980    2.2180 H   0  0  0  0  0  0  0  0  0  0  0  0
    4.1980    1.5960    2.7060 H   0  0  0  0  0  0  0  0  0  0  0  0
    4.8210    0.1670    0.0530 H   0  0  0  0  0  0  0  0  0  0  0  0
    5.1710    2.1890   -0.7630 H   0  0  0  0  0  0  0  0  0  0  0  0
    4.4330    3.0080    0.4850 H   0  0  0  0  0  0  0  0  0  0  0  0
    2.1550    0.5200    3.4110 H   0  0  0  0  0  0  0  0  0  0  0  0
    1.1780   -1.5760    4.3330 H   0  0  0  0  0  0  0  0  0  0  0  0
   -0.0340   -1.8590   -3.1610 C   0  0  0  0  0  0  0  0  0  0  0  0
    0.3810   -1.5240   -1.7180 C   0  0  0  0  0  0  0  0  0  0  0  0
    0.2400   -0.0540   -1.5810 C   0  0  2  0  0  0  0  0  0  0  0  0
    1.1560    0.6210   -2.5910 C   0  0  0  0  0  0  0  0  0  0  0  0
    0.5270    0.5340   -0.2390 C   0  0  2  0  0  0  0  0  0  0  0  0
    1.8720    0.2190    0.1880 N   0  0  0  0  0  0  0  0  0  0  0  0
   -0.4570    0.3840    0.8130 C   0  0  0  0  0  0  0  0  0  0  0  0
   -0.0910   -0.0780    1.9150 O   0  0  0  0  0  0  0  0  0  0  0  0
   -0.8860   -1.2060   -3.4410 H   0  0  0  0  0  0  0  0  0  0  0  0
    0.8100   -1.5800   -3.8530 H   0  0  0  0  0  0  0  0  0  0  0  0
   -0.3390   -2.8960   -3.2860 H   0  0  0  0  0  0  0  0  0  0  0  0
   -0.0680   -2.1570   -0.9730 H   0  0  0  0  0  0  0  0  0  0  0  0
    1.4850   -1.8140   -1.7130 H   0  0  0  0  0  0  0  0  0  0  0  0
   -0.7960    0.2980   -1.8750 H   0  0  0  0  0  0  0  0  0  0  0  0
    1.0930    1.7420   -2.4620 H   0  0  0  0  0  0  0  0  0  0  0  0
    0.8620    0.4380   -3.6270 H   0  0  0  0  0  0  0  0  0  0  0  0
    2.1760    0.3120   -2.3510 H   0  0  0  0  0  0  0  0  0  0  0  0
    0.5520    1.6760   -0.4390 H   0  0  0  0  0  0  0  0  0  0  0  0
    2.1390   -0.7670    0.4780 H   0  0  0  0  0  0  0  0  0  0  0  0
   -1.8330    0.7480    0.6740 N   0  0  0  0  0  0  0  0  0  0  0  0
   -2.8270    0.6980    1.6420 C   0  0  1  0  0  0  0  0  0  0  0  0
   -3.6270   -0.4820    1.9550 C   0  0  0  0  0  0  0  0  0  0  0  0
   -4.4600   -1.0650    0.8970 C   0  0  0  0  0  0  0  0  0  0  0  0
   -5.8010   -0.8270    0.6720 C   0  0  0  0  0  0  0  0  0  0  0  0
   -6.1850   -1.5250   -0.4060 N   0  0  0  0  0  0  0  0  0  0  0  0
   -5.1190   -2.2100   -0.8820 C   0  0  0  0  0  0  0  0  0  0  0  0
   -5.0030   -3.0830   -1.9710 C   0  0  0  0  0  0  0  0  0  0  0  0
   -3.8000   -3.6870   -2.2630 C   0  0  0  0  0  0  0  0  0  0  0  0
   -2.7300   -3.3970   -1.4470 C   0  0  0  0  0  0  0  0  0  0  0  0
   -2.8370   -2.5410   -0.3790 C   0  0  0  0  0  0  0  0  0  0  0  0
   -4.0410   -1.9320   -0.0810 C   0  0  0  0  0  0  0  0  0  0  0  0
   -2.2870    1.2300    2.9590 C   0  0  0  0  0  0  0  0  0  0  0  0
   -3.0110    1.1120    4.0030 O   0  0  0  0  0  0  0  0  0  0  0  0
   -1.0750    1.8300    3.0720 O   0  0  0  0  0  0  0  0  0  0  0  0
   -2.1080    1.0970   -0.3050 H   0  0  0  0  0  0  0  0  0  0  0  0
   -3.5890    1.5630    1.4180 H   0  0  0  0  0  0  0  0  0  0  0  0
   -4.3410   -0.1840    2.7890 H   0  0  0  0  0  0  0  0  0  0  0  0
   -2.9990   -1.2860    2.4600 H   0  0  0  0  0  0  0  0  0  0  0  0
   -6.4650   -0.1770    1.2670 H   0  0  0  0  0  0  0  0  0  0  0  0
   -7.1460   -1.5610   -0.8400 H   0  0  0  0  0  0  0  0  0  0  0  0
   -5.8740   -3.2810   -2.5860 H   0  0  0  0  0  0  0  0  0  0  0  0
   -3.6640   -4.3710   -3.0980 H   0  0  0  0  0  0  0  0  0  0  0  0
   -1.7740   -3.8660   -1.6570 H   0  0  0  0  0  0  0  0  0  0  0  0
   -2.0230   -2.2870    0.2980 H   0  0  0  0  0  0  0  0  0  0  0  0
  1 13  1  0  0  0  0
  2 12  1  0  0  0  0
  2  1  1  0  0  0  0
  3  2  2  0  0  0  0
  4  5  2  0  0  0  0
  4  3  1  0  0  0  0
  5 11  1  0  0  0  0
  6 16  1  0  0  0  0
  6  5  1  0  0  0  0
  6 17  1  0  0  0  0
  7 18  1  6  0  0  0
  7  6  1  0  0  0  0
  8 20  1  0  0  0  0
  8  7  1  0  0  0  0
  9  7  1  0  0  0  0
 10  9  2  0  0  0  0
 11 21  1  0  0  0  0
 11 12  2  0  0  0  0
 12 22  1  0  0  0  0
 14  3  1  0  0  0  0
 15  4  1  0  0  0  0
 19  8  1  0  0  0  0
 23 24  1  0  0  0  0
 24 35  1  0  0  0  0
 24 25  1  0  0  0  0
 24 34  1  0  0  0  0
 25 36  1  6  0  0  0
 25 27  1  0  0  0  0
 26 37  1  0  0  0  0
 26 39  1  0  0  0  0
 26 25  1  0  0  0  0
 27 40  1  6  0  0  0
 27 28  1  0  0  0  0
 27 29  1  0  0  0  0
 28  9  1  0  0  0  0
 28 41  1  0  0  0  0
 29 30  2  0  0  0  0
 31 23  1  0  0  0  0
 32 23  1  0  0  0  0
 33 23  1  0  0  0  0
 38 26  1  0  0  0  0
 42 29  1  0  0  0  0
 42 43  1  0  0  0  0
 43 58  1  6  0  0  0
 43 44  1  0  0  0  0
 43 54  1  0  0  0  0
 44 60  1  0  0  0  0
 44 59  1  0  0  0  0
 45 44  1  0  0  0  0
 46 45  2  0  0  0  0
 46 61  1  0  0  0  0
 47 46  1  0  0  0  0
 48 47  1  0  0  0  0
 48 53  1  0  0  0  0
 49 48  2  0  0  0  0
 50 49  1  0  0  0  0
 50 51  2  0  0  0  0
 51 52  1  0  0  0  0
 52 53  2  0  0  0  0
 52 66  1  0  0  0  0
 53 45  1  0  0  0  0
 54 56  2  0  0  0  0
 54 55  1  0  0  0  0
 57 42  1  0  0  0  0
 62 47  1  0  0  0  0
 63 49  1  0  0  0  0
 64 50  1  0  0  0  0
 65 51  1  0  0  0  0
M  END
$$$$
