YIY.pdb
 OpenBabel07022419213D

 63 64  0  0  1  0  0  0  0  0999 V2000
    2.9990   -2.3910    5.1720 O   0  0  0  0  0  0  0  0  0  0  0  0
    2.9090   -1.6030    4.0250 C   0  0  0  0  0  0  0  0  0  0  0  0
    2.4400   -2.0770    2.8220 C   0  0  0  0  0  0  0  0  0  0  0  0
    2.3640   -1.2530    1.6850 C   0  0  0  0  0  0  0  0  0  0  0  0
    2.7660    0.0580    1.7650 C   0  0  0  0  0  0  0  0  0  0  0  0
    2.7650    0.9620    0.6440 C   0  0  0  0  0  0  0  0  0  0  0  0
    1.6460    1.8430    0.3370 C   0  0  2  0  0  0  0  0  0  0  0  0
    1.2110    2.7830    1.3240 N   0  0  0  0  0  0  0  0  0  0  0  0
    0.5980    1.4060   -0.6100 C   0  0  0  0  0  0  0  0  0  0  0  0
   -0.4040    2.1740   -0.8400 O   0  0  0  0  0  0  0  0  0  0  0  0
    3.2280    0.4930    2.9850 C   0  0  0  0  0  0  0  0  0  0  0  0
    3.3220   -0.2670    4.1210 C   0  0  0  0  0  0  0  0  0  0  0  0
    2.8260   -2.0050    6.1130 H   0  0  0  0  0  0  0  0  0  0  0  0
    2.1300   -3.1140    2.7850 H   0  0  0  0  0  0  0  0  0  0  0  0
    1.9850   -1.6900    0.7760 H   0  0  0  0  0  0  0  0  0  0  0  0
    3.6990    1.6250    0.7660 H   0  0  0  0  0  0  0  0  0  0  0  0
    3.0030    0.3800   -0.3000 H   0  0  0  0  0  0  0  0  0  0  0  0
    2.1980    2.6390   -0.4210 H   0  0  0  0  0  0  0  0  0  0  0  0
    0.8540    3.6550    0.9350 H   0  0  0  0  0  0  0  0  0  0  0  0
    1.9680    2.9800    2.0070 H   0  0  0  0  0  0  0  0  0  0  0  0
    3.5470    1.5210    3.0530 H   0  0  0  0  0  0  0  0  0  0  0  0
    3.6830    0.0750    5.0740 H   0  0  0  0  0  0  0  0  0  0  0  0
    1.4930   -0.4200   -5.5340 C   0  0  0  0  0  0  0  0  0  0  0  0
    1.0910    0.1890   -4.2090 C   0  0  0  0  0  0  0  0  0  0  0  0
    0.0680   -0.7280   -3.5320 C   0  0  2  0  0  0  0  0  0  0  0  0
   -1.0910   -0.7910   -4.5220 C   0  0  0  0  0  0  0  0  0  0  0  0
   -0.4420   -0.0990   -2.2650 C   0  0  2  0  0  0  0  0  0  0  0  0
    0.5890    0.1860   -1.3240 N   0  0  0  0  0  0  0  0  0  0  0  0
   -1.5230   -0.9110   -1.7060 C   0  0  0  0  0  0  0  0  0  0  0  0
   -2.3930   -1.4070   -2.5230 O   0  0  0  0  0  0  0  0  0  0  0  0
    1.0180    0.1140   -6.4050 H   0  0  0  0  0  0  0  0  0  0  0  0
    2.6010   -0.2960   -5.7080 H   0  0  0  0  0  0  0  0  0  0  0  0
    1.3280   -1.5150   -5.5770 H   0  0  0  0  0  0  0  0  0  0  0  0
    0.5750    1.1310   -4.4030 H   0  0  0  0  0  0  0  0  0  0  0  0
    2.0100    0.2640   -3.6050 H   0  0  0  0  0  0  0  0  0  0  0  0
    0.4370   -1.7540   -3.3940 H   0  0  0  0  0  0  0  0  0  0  0  0
   -0.7490   -0.4770   -5.5480 H   0  0  0  0  0  0  0  0  0  0  0  0
   -1.5450   -1.7960   -4.5960 H   0  0  0  0  0  0  0  0  0  0  0  0
   -1.8940   -0.0660   -4.2800 H   0  0  0  0  0  0  0  0  0  0  0  0
   -0.9640    0.8570   -2.5980 H   0  0  0  0  0  0  0  0  0  0  0  0
    1.3540   -0.5230   -1.1670 H   0  0  0  0  0  0  0  0  0  0  0  0
   -1.6810   -0.5970    6.0940 O   0  0  0  0  0  0  0  0  0  0  0  0
   -1.9360   -1.2030    4.8470 C   0  0  0  0  0  0  0  0  0  0  0  0
   -0.9010   -1.4800    3.9790 C   0  0  0  0  0  0  0  0  0  0  0  0
   -1.1150   -2.0710    2.7550 C   0  0  0  0  0  0  0  0  0  0  0  0
   -2.4020   -2.3910    2.3930 C   0  0  0  0  0  0  0  0  0  0  0  0
   -2.7060   -3.0230    1.0990 C   0  0  0  0  0  0  0  0  0  0  0  0
   -2.9130   -2.0630   -0.0320 C   0  0  2  0  0  0  0  0  0  0  0  0
   -1.7610   -1.2350   -0.3420 N   0  0  0  0  0  0  0  0  0  0  0  0
   -4.0410   -1.1150    0.3250 C   0  0  0  0  0  0  0  0  0  0  0  0
   -3.7840    0.0990    0.3680 O   0  0  0  0  0  0  0  0  0  0  0  0
   -3.4460   -2.1110    3.2710 C   0  0  0  0  0  0  0  0  0  0  0  0
   -3.2200   -1.5180    4.4990 C   0  0  0  0  0  0  0  0  0  0  0  0
   -5.3250   -1.5700    0.5970 O   0  0  0  0  0  0  0  0  0  0  0  0
   -2.4570   -0.3350    6.6780 H   0  0  0  0  0  0  0  0  0  0  0  0
    0.0890   -1.2070    4.3120 H   0  0  0  0  0  0  0  0  0  0  0  0
   -0.2920   -2.2920    2.0750 H   0  0  0  0  0  0  0  0  0  0  0  0
   -3.6700   -3.6040    1.1990 H   0  0  0  0  0  0  0  0  0  0  0  0
   -1.9650   -3.8010    0.8040 H   0  0  0  0  0  0  0  0  0  0  0  0
   -3.2240   -2.6420   -0.9340 H   0  0  0  0  0  0  0  0  0  0  0  0
   -1.1130   -0.8700    0.3710 H   0  0  0  0  0  0  0  0  0  0  0  0
   -4.4560   -2.3620    3.0140 H   0  0  0  0  0  0  0  0  0  0  0  0
   -4.0460   -1.3110    5.1620 H   0  0  0  0  0  0  0  0  0  0  0  0
  1 13  1  0  0  0  0
  2 12  1  0  0  0  0
  2  1  1  0  0  0  0
  3  2  2  0  0  0  0
  4  5  2  0  0  0  0
  4  3  1  0  0  0  0
  5 11  1  0  0  0  0
  6 16  1  0  0  0  0
  6  5  1  0  0  0  0
  7 18  1  6  0  0  0
  7  6  1  0  0  0  0
  7  8  1  0  0  0  0
  8 20  1  0  0  0  0
  9  7  1  0  0  0  0
 10  9  2  0  0  0  0
 11 21  1  0  0  0  0
 11 12  2  0  0  0  0
 12 22  1  0  0  0  0
 14  3  1  0  0  0  0
 15  4  1  0  0  0  0
 17  6  1  0  0  0  0
 19  8  1  0  0  0  0
 23 24  1  0  0  0  0
 24 35  1  0  0  0  0
 24 25  1  0  0  0  0
 25 36  1  1  0  0  0
 25 27  1  0  0  0  0
 26 39  1  0  0  0  0
 26 25  1  0  0  0  0
 27 40  1  6  0  0  0
 27 29  1  0  0  0  0
 27 28  1  0  0  0  0
 28 41  1  0  0  0  0
 28  9  1  0  0  0  0
 29 49  1  0  0  0  0
 30 29  2  0  0  0  0
 31 23  1  0  0  0  0
 32 23  1  0  0  0  0
 33 23  1  0  0  0  0
 34 24  1  0  0  0  0
 37 26  1  0  0  0  0
 38 26  1  0  0  0  0
 42 55  1  0  0  0  0
 43 42  1  0  0  0  0
 44 56  1  0  0  0  0
 44 43  2  0  0  0  0
 45 44  1  0  0  0  0
 46 45  2  0  0  0  0
 46 52  1  0  0  0  0
 47 58  1  0  0  0  0
 47 46  1  0  0  0  0
 48 60  1  6  0  0  0
 48 50  1  0  0  0  0
 48 47  1  0  0  0  0
 49 48  1  0  0  0  0
 49 61  1  0  0  0  0
 50 51  2  0  0  0  0
 50 54  1  0  0  0  0
 52 53  2  0  0  0  0
 53 43  1  0  0  0  0
 53 63  1  0  0  0  0
 57 45  1  0  0  0  0
 59 47  1  0  0  0  0
 62 52  1  0  0  0  0
M  END
$$$$
