YKA.pdb
 OpenBabel07022419223D

 54 54  0  0  1  0  0  0  0  0999 V2000
    0.1970    3.9370    3.7570 O   0  0  0  0  0  0  0  0  0  0  0  0
    0.5810    3.5650    2.4780 C   0  0  0  0  0  0  0  0  0  0  0  0
   -0.3780    3.1650    1.5390 C   0  0  0  0  0  0  0  0  0  0  0  0
   -0.0130    2.7950    0.2700 C   0  0  0  0  0  0  0  0  0  0  0  0
    1.2950    2.7920   -0.1630 C   0  0  0  0  0  0  0  0  0  0  0  0
    1.7180    2.3700   -1.5120 C   0  0  0  0  0  0  0  0  0  0  0  0
    2.2600    0.9830   -1.5130 C   0  0  2  0  0  0  0  0  0  0  0  0
    2.6520    0.7350   -2.9250 N   0  0  0  0  0  0  0  0  0  0  0  0
    1.3160   -0.0510   -1.1610 C   0  0  0  0  0  0  0  0  0  0  0  0
    0.8840   -0.8580   -2.0770 O   0  0  0  0  0  0  0  0  0  0  0  0
    2.2510    3.1960    0.7830 C   0  0  0  0  0  0  0  0  0  0  0  0
    1.8920    3.5670    2.0580 C   0  0  0  0  0  0  0  0  0  0  0  0
   -0.2530    3.3510    4.4340 H   0  0  0  0  0  0  0  0  0  0  0  0
   -1.3920    3.1660    1.8680 H   0  0  0  0  0  0  0  0  0  0  0  0
   -0.7610    2.4920   -0.4660 H   0  0  0  0  0  0  0  0  0  0  0  0
    0.8140    2.4700   -2.1620 H   0  0  0  0  0  0  0  0  0  0  0  0
    2.4560    3.1060   -1.9440 H   0  0  0  0  0  0  0  0  0  0  0  0
    3.2120    0.9350   -0.8920 H   0  0  0  0  0  0  0  0  0  0  0  0
    1.8170    0.9410   -3.5220 H   0  0  0  0  0  0  0  0  0  0  0  0
    2.9810   -0.2310   -3.0650 H   0  0  0  0  0  0  0  0  0  0  0  0
    3.2790    3.1920    0.4370 H   0  0  0  0  0  0  0  0  0  0  0  0
    2.6490    3.8730    2.7680 H   0  0  0  0  0  0  0  0  0  0  0  0
    0.7660   -0.3350    0.1220 N   0  0  0  0  0  0  0  0  0  0  0  0
   -0.1500   -1.4230    0.3600 C   0  0  1  0  0  0  0  0  0  0  0  0
    0.3640   -2.2460    1.5110 C   0  0  0  0  0  0  0  0  0  0  0  0
    1.7090   -2.8340    1.2670 C   0  0  0  0  0  0  0  0  0  0  0  0
    1.8120   -3.7640    0.1060 C   0  0  0  0  0  0  0  0  0  0  0  0
    0.9320   -4.9690    0.1700 C   0  0  0  0  0  0  0  0  0  0  0  0
    1.2000   -5.7320   -1.0570 N   0  0  0  0  0  0  0  0  0  0  0  0
   -1.5250   -0.9450    0.5800 C   0  0  0  0  0  0  0  0  0  0  0  0
   -1.9250    0.2350    0.4750 O   0  0  0  0  0  0  0  0  0  0  0  0
    1.0700    0.2860    0.9140 H   0  0  0  0  0  0  0  0  0  0  0  0
   -0.1460   -2.0740   -0.5620 H   0  0  0  0  0  0  0  0  0  0  0  0
   -0.3300   -2.9940    1.8890 H   0  0  0  0  0  0  0  0  0  0  0  0
    0.4960   -1.5130    2.3530 H   0  0  0  0  0  0  0  0  0  0  0  0
    2.0400   -3.3670    2.1790 H   0  0  0  0  0  0  0  0  0  0  0  0
    2.4830   -2.0400    1.0980 H   0  0  0  0  0  0  0  0  0  0  0  0
    2.8740   -4.1350    0.1020 H   0  0  0  0  0  0  0  0  0  0  0  0
    1.7020   -3.2600   -0.8850 H   0  0  0  0  0  0  0  0  0  0  0  0
    1.2040   -5.6370    0.9900 H   0  0  0  0  0  0  0  0  0  0  0  0
   -0.1540   -4.7440    0.1290 H   0  0  0  0  0  0  0  0  0  0  0  0
    1.1170   -5.0910   -1.8710 H   0  0  0  0  0  0  0  0  0  0  0  0
    0.6100   -6.5850   -1.1220 H   0  0  0  0  0  0  0  0  0  0  0  0
   -4.9290   -2.2800    0.3940 C   0  0  0  0  0  0  0  0  0  0  0  0
   -3.9140   -1.4810    1.1710 C   0  0  2  0  0  0  0  0  0  0  0  0
   -2.5510   -1.8910    0.9560 N   0  0  0  0  0  0  0  0  0  0  0  0
   -4.2650   -1.3280    2.5980 C   0  0  0  0  0  0  0  0  0  0  0  0
   -5.4080   -0.9730    2.9490 O   0  0  0  0  0  0  0  0  0  0  0  0
   -3.3130   -1.5870    3.5620 O   0  0  0  0  0  0  0  0  0  0  0  0
   -4.7390   -3.3480    0.3600 H   0  0  0  0  0  0  0  0  0  0  0  0
   -5.9370   -1.9960    0.7820 H   0  0  0  0  0  0  0  0  0  0  0  0
   -4.9430   -1.9480   -0.6840 H   0  0  0  0  0  0  0  0  0  0  0  0
   -3.9880   -0.4220    0.7590 H   0  0  0  0  0  0  0  0  0  0  0  0
   -2.2420   -2.8780    1.0600 H   0  0  0  0  0  0  0  0  0  0  0  0
  1 13  1  0  0  0  0
  2  1  1  0  0  0  0
  3 14  1  0  0  0  0
  3  2  2  0  0  0  0
  4  3  1  0  0  0  0
  5  4  2  0  0  0  0
  5 11  1  0  0  0  0
  6  5  1  0  0  0  0
  7  6  1  0  0  0  0
  7  9  1  0  0  0  0
  7 18  1  1  0  0  0
  8  7  1  0  0  0  0
  9 23  1  0  0  0  0
 10  9  2  0  0  0  0
 11 12  2  0  0  0  0
 12  2  1  0  0  0  0
 12 22  1  0  0  0  0
 15  4  1  0  0  0  0
 16  6  1  0  0  0  0
 17  6  1  0  0  0  0
 19  8  1  0  0  0  0
 20  8  1  0  0  0  0
 21 11  1  0  0  0  0
 23 24  1  0  0  0  0
 23 32  1  0  0  0  0
 24 33  1  6  0  0  0
 24 30  1  0  0  0  0
 24 25  1  0  0  0  0
 25 34  1  0  0  0  0
 25 35  1  0  0  0  0
 26 25  1  0  0  0  0
 26 36  1  0  0  0  0
 27 28  1  0  0  0  0
 27 26  1  0  0  0  0
 28 40  1  0  0  0  0
 29 28  1  0  0  0  0
 30 46  1  0  0  0  0
 31 30  2  0  0  0  0
 37 26  1  0  0  0  0
 38 27  1  0  0  0  0
 39 27  1  0  0  0  0
 41 28  1  0  0  0  0
 42 29  1  0  0  0  0
 43 29  1  0  0  0  0
 44 51  1  0  0  0  0
 44 45  1  0  0  0  0
 45 53  1  6  0  0  0
 45 47  1  0  0  0  0
 46 54  1  0  0  0  0
 46 45  1  0  0  0  0
 47 48  2  0  0  0  0
 47 49  1  0  0  0  0
 50 44  1  0  0  0  0
 52 44  1  0  0  0  0
M  END
$$$$
