YKC.pdb
 OpenBabel07022419223D

 55 55  0  0  1  0  0  0  0  0999 V2000
   -0.0880    0.6040    7.0590 O   0  0  0  0  0  0  0  0  0  0  0  0
    0.7790    0.0380    6.1270 C   0  0  0  0  0  0  0  0  0  0  0  0
    0.3980   -1.0180    5.3210 C   0  0  0  0  0  0  0  0  0  0  0  0
    1.2510   -1.5830    4.3960 C   0  0  0  0  0  0  0  0  0  0  0  0
    2.5370   -1.0980    4.2470 C   0  0  0  0  0  0  0  0  0  0  0  0
    3.4000   -1.7350    3.2520 C   0  0  0  0  0  0  0  0  0  0  0  0
    3.3570   -1.1600    1.8830 C   0  0  2  0  0  0  0  0  0  0  0  0
    3.7490    0.2390    1.8380 N   0  0  0  0  0  0  0  0  0  0  0  0
    2.0990   -1.4080    1.1510 C   0  0  0  0  0  0  0  0  0  0  0  0
    1.6610   -2.5880    1.1240 O   0  0  0  0  0  0  0  0  0  0  0  0
    2.9020   -0.0540    5.0500 C   0  0  0  0  0  0  0  0  0  0  0  0
    2.0590    0.5180    5.9770 C   0  0  0  0  0  0  0  0  0  0  0  0
   -0.9390    0.0980    7.2570 H   0  0  0  0  0  0  0  0  0  0  0  0
   -0.6220   -1.3920    5.4480 H   0  0  0  0  0  0  0  0  0  0  0  0
    0.8630   -2.4050    3.8110 H   0  0  0  0  0  0  0  0  0  0  0  0
    4.4600   -1.6770    3.6060 H   0  0  0  0  0  0  0  0  0  0  0  0
    3.1640   -2.8090    3.1900 H   0  0  0  0  0  0  0  0  0  0  0  0
    4.1540   -1.6900    1.2970 H   0  0  0  0  0  0  0  0  0  0  0  0
    4.6610    0.2990    2.3480 H   0  0  0  0  0  0  0  0  0  0  0  0
    3.9580    0.5080    0.8460 H   0  0  0  0  0  0  0  0  0  0  0  0
    3.9040    0.3310    4.9410 H   0  0  0  0  0  0  0  0  0  0  0  0
    2.3950    1.3420    6.5880 H   0  0  0  0  0  0  0  0  0  0  0  0
    1.3670   -0.4090    0.4870 N   0  0  0  0  0  0  0  0  0  0  0  0
    0.1050   -0.6790   -0.2440 C   0  0  1  0  0  0  0  0  0  0  0  0
   -0.9990    0.0730    0.4440 C   0  0  0  0  0  0  0  0  0  0  0  0
   -2.3670   -0.0820   -0.1230 C   0  0  0  0  0  0  0  0  0  0  0  0
   -2.8510   -1.5180   -0.1040 C   0  0  0  0  0  0  0  0  0  0  0  0
   -4.2210   -1.6720   -0.6760 C   0  0  0  0  0  0  0  0  0  0  0  0
   -4.2990   -1.2370   -2.0590 N   0  0  0  0  0  0  0  0  0  0  0  0
    0.2810   -0.2890   -1.6540 C   0  0  0  0  0  0  0  0  0  0  0  0
    1.3370    0.3570   -1.9820 O   0  0  0  0  0  0  0  0  0  0  0  0
    1.7420    0.5610    0.5180 H   0  0  0  0  0  0  0  0  0  0  0  0
   -0.0790   -1.7570   -0.1280 H   0  0  0  0  0  0  0  0  0  0  0  0
   -0.7510    1.1760    0.3760 H   0  0  0  0  0  0  0  0  0  0  0  0
   -1.0410   -0.1530    1.5350 H   0  0  0  0  0  0  0  0  0  0  0  0
   -2.4610    0.4210   -1.0950 H   0  0  0  0  0  0  0  0  0  0  0  0
   -3.0490    0.5200    0.5710 H   0  0  0  0  0  0  0  0  0  0  0  0
   -2.9250   -1.7940    0.9860 H   0  0  0  0  0  0  0  0  0  0  0  0
   -2.1520   -2.2220   -0.5480 H   0  0  0  0  0  0  0  0  0  0  0  0
   -4.5020   -2.7320   -0.6420 H   0  0  0  0  0  0  0  0  0  0  0  0
   -4.9830   -1.1020   -0.1110 H   0  0  0  0  0  0  0  0  0  0  0  0
   -4.8110   -0.3470   -2.1760 H   0  0  0  0  0  0  0  0  0  0  0  0
   -4.5690   -1.9890   -2.7050 H   0  0  0  0  0  0  0  0  0  0  0  0
   -0.6170   -0.5670   -2.6980 N   0  0  0  0  0  0  0  0  0  0  0  0
   -0.3200   -0.1200   -4.0490 C   0  0  1  0  0  0  0  0  0  0  0  0
   -0.2420   -1.3990   -4.8910 C   0  0  0  0  0  0  0  0  0  0  0  0
   -1.8630   -2.2020   -4.7550 S   0  0  0  0  0  0  0  0  0  0  0  0
   -1.4360    0.6930   -4.5760 C   0  0  0  0  0  0  0  0  0  0  0  0
   -1.4130    1.1980   -5.7250 O   0  0  0  0  0  0  0  0  0  0  0  0
   -2.5470    0.9090   -3.7820 O   0  0  0  0  0  0  0  0  0  0  0  0
   -1.4920   -1.1000   -2.5540 H   0  0  0  0  0  0  0  0  0  0  0  0
    0.6310    0.4330   -4.0950 H   0  0  0  0  0  0  0  0  0  0  0  0
    0.5270   -2.0440   -4.4210 H   0  0  0  0  0  0  0  0  0  0  0  0
   -0.0650   -1.1780   -5.9440 H   0  0  0  0  0  0  0  0  0  0  0  0
   -1.9410   -3.0470   -3.6520 H   0  0  0  0  0  0  0  0  0  0  0  0
  1 13  1  0  0  0  0
  2  1  1  0  0  0  0
  3 14  1  0  0  0  0
  3  2  2  0  0  0  0
  4  3  1  0  0  0  0
  5  4  2  0  0  0  0
  5 11  1  0  0  0  0
  6 16  1  0  0  0  0
  6  5  1  0  0  0  0
  7 18  1  6  0  0  0
  7  6  1  0  0  0  0
  8  7  1  0  0  0  0
  8 19  1  0  0  0  0
  9  7  1  0  0  0  0
 10  9  2  0  0  0  0
 11 12  2  0  0  0  0
 12  2  1  0  0  0  0
 12 22  1  0  0  0  0
 15  4  1  0  0  0  0
 17  6  1  0  0  0  0
 20  8  1  0  0  0  0
 21 11  1  0  0  0  0
 23 32  1  0  0  0  0
 23  9  1  0  0  0  0
 24 33  1  1  0  0  0
 24 25  1  0  0  0  0
 24 23  1  0  0  0  0
 25 35  1  0  0  0  0
 26 27  1  0  0  0  0
 26 25  1  0  0  0  0
 26 37  1  0  0  0  0
 27 38  1  0  0  0  0
 28 40  1  0  0  0  0
 28 41  1  0  0  0  0
 28 27  1  0  0  0  0
 29 28  1  0  0  0  0
 30 24  1  0  0  0  0
 31 30  2  0  0  0  0
 34 25  1  0  0  0  0
 36 26  1  0  0  0  0
 39 27  1  0  0  0  0
 42 29  1  0  0  0  0
 43 29  1  0  0  0  0
 44 51  1  0  0  0  0
 44 30  1  0  0  0  0
 45 52  1  6  0  0  0
 45 44  1  0  0  0  0
 46 47  1  0  0  0  0
 46 53  1  0  0  0  0
 46 45  1  0  0  0  0
 47 55  1  0  0  0  0
 48 45  1  0  0  0  0
 48 50  1  0  0  0  0
 49 48  2  0  0  0  0
 54 46  1  0  0  0  0
M  END
$$$$
