YKD.pdb
 OpenBabel07022419223D

 57 57  0  0  1  0  0  0  0  0999 V2000
   -0.9750    3.8980    5.9230 O   0  0  0  0  0  0  0  0  0  0  0  0
   -0.0150    3.2020    5.2010 C   0  0  0  0  0  0  0  0  0  0  0  0
    0.8040    2.2600    5.7980 C   0  0  0  0  0  0  0  0  0  0  0  0
    1.7430    1.5910    5.0520 C   0  0  0  0  0  0  0  0  0  0  0  0
    1.9300    1.8030    3.7000 C   0  0  0  0  0  0  0  0  0  0  0  0
    2.9430    1.0730    2.9370 C   0  0  0  0  0  0  0  0  0  0  0  0
    2.4700   -0.2240    2.3490 C   0  0  2  0  0  0  0  0  0  0  0  0
    3.5370   -0.8830    1.6070 N   0  0  0  0  0  0  0  0  0  0  0  0
    1.2510   -0.1340    1.5450 C   0  0  0  0  0  0  0  0  0  0  0  0
    0.2240    0.3790    2.0410 O   0  0  0  0  0  0  0  0  0  0  0  0
    1.1000    2.7550    3.1040 C   0  0  0  0  0  0  0  0  0  0  0  0
    0.1630    3.4210    3.8550 C   0  0  0  0  0  0  0  0  0  0  0  0
   -0.7670    4.0780    6.8980 H   0  0  0  0  0  0  0  0  0  0  0  0
    0.6600    2.0900    6.8620 H   0  0  0  0  0  0  0  0  0  0  0  0
    2.3570    0.8620    5.5790 H   0  0  0  0  0  0  0  0  0  0  0  0
    3.7640    0.8080    3.6620 H   0  0  0  0  0  0  0  0  0  0  0  0
    3.4080    1.7520    2.1940 H   0  0  0  0  0  0  0  0  0  0  0  0
    2.2590   -0.9060    3.2220 H   0  0  0  0  0  0  0  0  0  0  0  0
    3.1860   -1.8080    1.2820 H   0  0  0  0  0  0  0  0  0  0  0  0
    4.3470   -1.0570    2.2480 H   0  0  0  0  0  0  0  0  0  0  0  0
    1.2360    2.9320    2.0450 H   0  0  0  0  0  0  0  0  0  0  0  0
   -0.4730    4.1590    3.3670 H   0  0  0  0  0  0  0  0  0  0  0  0
    1.1370   -0.6050    0.1870 N   0  0  0  0  0  0  0  0  0  0  0  0
   -0.1010   -0.4890   -0.5630 C   0  0  1  0  0  0  0  0  0  0  0  0
    0.0470    0.3710   -1.7700 C   0  0  0  0  0  0  0  0  0  0  0  0
   -1.1540    0.5590   -2.6020 C   0  0  0  0  0  0  0  0  0  0  0  0
   -2.3350    1.1730   -1.9330 C   0  0  0  0  0  0  0  0  0  0  0  0
   -3.4490    1.2680   -2.9840 C   0  0  0  0  0  0  0  0  0  0  0  0
   -3.7980   -0.0360   -3.4940 N   0  0  0  0  0  0  0  0  0  0  0  0
   -0.6700   -1.8330   -0.8700 C   0  0  0  0  0  0  0  0  0  0  0  0
   -1.7660   -1.8820   -1.4870 O   0  0  0  0  0  0  0  0  0  0  0  0
    2.0120   -1.0280   -0.1970 H   0  0  0  0  0  0  0  0  0  0  0  0
   -0.8260   -0.0040    0.1210 H   0  0  0  0  0  0  0  0  0  0  0  0
    0.8070   -0.1500   -2.4300 H   0  0  0  0  0  0  0  0  0  0  0  0
    0.5650    1.3150   -1.4840 H   0  0  0  0  0  0  0  0  0  0  0  0
   -0.8580    1.2940   -3.4190 H   0  0  0  0  0  0  0  0  0  0  0  0
   -1.3860   -0.3600   -3.1640 H   0  0  0  0  0  0  0  0  0  0  0  0
   -2.7250    0.6590   -1.0660 H   0  0  0  0  0  0  0  0  0  0  0  0
   -2.1000    2.2140   -1.6320 H   0  0  0  0  0  0  0  0  0  0  0  0
   -3.1360    1.8900   -3.8480 H   0  0  0  0  0  0  0  0  0  0  0  0
   -4.3540    1.7550   -2.5580 H   0  0  0  0  0  0  0  0  0  0  0  0
   -4.4420   -0.5720   -2.9000 H   0  0  0  0  0  0  0  0  0  0  0  0
   -4.1830    0.0290   -4.4650 H   0  0  0  0  0  0  0  0  0  0  0  0
   -0.0570   -3.0320   -0.5150 N   0  0  0  0  0  0  0  0  0  0  0  0
   -0.7060   -4.3110   -0.8680 C   0  0  1  0  0  0  0  0  0  0  0  0
    0.2080   -5.0160   -1.8090 C   0  0  0  0  0  0  0  0  0  0  0  0
   -0.2860   -6.3050   -2.2970 C   0  0  0  0  0  0  0  0  0  0  0  0
   -1.4150   -6.7700   -2.0230 O   0  0  0  0  0  0  0  0  0  0  0  0
   -1.0040   -5.0560    0.3790 C   0  0  0  0  0  0  0  0  0  0  0  0
   -1.5650   -6.1630    0.4340 O   0  0  0  0  0  0  0  0  0  0  0  0
    0.5660   -7.0720   -3.1290 O   0  0  0  0  0  0  0  0  0  0  0  0
   -0.6380   -4.5000    1.6210 O   0  0  0  0  0  0  0  0  0  0  0  0
    0.8250   -3.0670   -0.0190 H   0  0  0  0  0  0  0  0  0  0  0  0
   -1.6630   -4.1040   -1.3790 H   0  0  0  0  0  0  0  0  0  0  0  0
    1.2480   -5.0700   -1.4170 H   0  0  0  0  0  0  0  0  0  0  0  0
    0.2970   -4.3530   -2.7160 H   0  0  0  0  0  0  0  0  0  0  0  0
    0.0800   -7.7620   -3.7230 H   0  0  0  0  0  0  0  0  0  0  0  0
  1 13  1  0  0  0  0
  2  3  1  0  0  0  0
  2  1  1  0  0  0  0
  3 14  1  0  0  0  0
  4 15  1  0  0  0  0
  4  3  2  0  0  0  0
  5  4  1  0  0  0  0
  6 16  1  0  0  0  0
  6  5  1  0  0  0  0
  7  6  1  0  0  0  0
  7 18  1  1  0  0  0
  8 20  1  0  0  0  0
  8  7  1  0  0  0  0
  9 10  2  0  0  0  0
  9  7  1  0  0  0  0
 11  5  2  0  0  0  0
 11 12  1  0  0  0  0
 12  2  2  0  0  0  0
 17  6  1  0  0  0  0
 19  8  1  0  0  0  0
 21 11  1  0  0  0  0
 22 12  1  0  0  0  0
 23  9  1  0  0  0  0
 24 33  1  1  0  0  0
 24 23  1  0  0  0  0
 25 35  1  0  0  0  0
 25 24  1  0  0  0  0
 26 27  1  0  0  0  0
 26 25  1  0  0  0  0
 27 39  1  0  0  0  0
 27 38  1  0  0  0  0
 28 41  1  0  0  0  0
 28 27  1  0  0  0  0
 29 28  1  0  0  0  0
 29 42  1  0  0  0  0
 30 24  1  0  0  0  0
 30 44  1  0  0  0  0
 31 30  2  0  0  0  0
 32 23  1  0  0  0  0
 34 25  1  0  0  0  0
 36 26  1  0  0  0  0
 37 26  1  0  0  0  0
 40 28  1  0  0  0  0
 43 29  1  0  0  0  0
 44 53  1  0  0  0  0
 45 54  1  6  0  0  0
 45 44  1  0  0  0  0
 45 49  1  0  0  0  0
 46 55  1  0  0  0  0
 46 45  1  0  0  0  0
 47 48  2  0  0  0  0
 47 46  1  0  0  0  0
 49 50  2  0  0  0  0
 49 52  1  0  0  0  0
 51 47  1  0  0  0  0
 56 46  1  0  0  0  0
 57 51  1  0  0  0  0
M  END
$$$$
