YKE.pdb
 OpenBabel07022419223D

 60 60  0  0  1  0  0  0  0  0999 V2000
    0.9940   -0.9540    6.8490 O   0  0  0  0  0  0  0  0  0  0  0  0
    1.5030   -0.5740    5.6050 C   0  0  0  0  0  0  0  0  0  0  0  0
    0.8760   -0.8800    4.4130 C   0  0  0  0  0  0  0  0  0  0  0  0
    1.3870   -0.5010    3.1910 C   0  0  0  0  0  0  0  0  0  0  0  0
    2.5620    0.2090    3.1080 C   0  0  0  0  0  0  0  0  0  0  0  0
    3.1870    0.6460    1.8310 C   0  0  0  0  0  0  0  0  0  0  0  0
    2.5930    2.0060    1.4050 C   0  0  2  0  0  0  0  0  0  0  0  0
    2.8830    2.9080    2.4720 N   0  0  0  0  0  0  0  0  0  0  0  0
    1.1440    1.7280    1.2140 C   0  0  0  0  0  0  0  0  0  0  0  0
    0.3450    2.1710    2.0800 O   0  0  0  0  0  0  0  0  0  0  0  0
    3.2230    0.5350    4.2920 C   0  0  0  0  0  0  0  0  0  0  0  0
    2.6800    0.1390    5.4950 C   0  0  0  0  0  0  0  0  0  0  0  0
    0.5920   -1.8490    7.0310 H   0  0  0  0  0  0  0  0  0  0  0  0
   -0.0580   -1.4470    4.5060 H   0  0  0  0  0  0  0  0  0  0  0  0
    0.8700   -0.7500    2.2960 H   0  0  0  0  0  0  0  0  0  0  0  0
    4.2650    0.6970    1.9720 H   0  0  0  0  0  0  0  0  0  0  0  0
    2.9710   -0.1260    1.0640 H   0  0  0  0  0  0  0  0  0  0  0  0
    3.1040    2.2700    0.4610 H   0  0  0  0  0  0  0  0  0  0  0  0
    2.2430    2.8590    3.2690 H   0  0  0  0  0  0  0  0  0  0  0  0
    3.9000    2.9040    2.6930 H   0  0  0  0  0  0  0  0  0  0  0  0
    4.1610    1.1000    4.2450 H   0  0  0  0  0  0  0  0  0  0  0  0
    3.2010    0.3970    6.4050 H   0  0  0  0  0  0  0  0  0  0  0  0
    0.6250    1.0120    0.1380 N   0  0  0  0  0  0  0  0  0  0  0  0
   -0.8640    0.7670    0.0180 C   0  0  1  0  0  0  0  0  0  0  0  0
   -1.3630    1.6700   -1.0300 C   0  0  0  0  0  0  0  0  0  0  0  0
   -2.7580    1.7550   -1.4230 C   0  0  0  0  0  0  0  0  0  0  0  0
   -3.5060    0.6380   -2.0080 C   0  0  0  0  0  0  0  0  0  0  0  0
   -2.9140    0.0460   -3.2640 C   0  0  0  0  0  0  0  0  0  0  0  0
   -3.7610   -1.0400   -3.7200 N   0  0  0  0  0  0  0  0  0  0  0  0
   -1.0690   -0.6700   -0.0880 C   0  0  0  0  0  0  0  0  0  0  0  0
   -2.2130   -1.1470    0.0350 O   0  0  0  0  0  0  0  0  0  0  0  0
    1.2300    0.6360   -0.6040 H   0  0  0  0  0  0  0  0  0  0  0  0
   -1.2580    1.1190    0.9850 H   0  0  0  0  0  0  0  0  0  0  0  0
   -0.7180    1.6280   -1.9700 H   0  0  0  0  0  0  0  0  0  0  0  0
   -1.0790    2.7300   -0.6610 H   0  0  0  0  0  0  0  0  0  0  0  0
   -3.3420    2.0350   -0.4620 H   0  0  0  0  0  0  0  0  0  0  0  0
   -2.9570    2.7290   -2.0220 H   0  0  0  0  0  0  0  0  0  0  0  0
   -3.9510   -0.1110   -1.3660 H   0  0  0  0  0  0  0  0  0  0  0  0
   -4.4790    1.1580   -2.4330 H   0  0  0  0  0  0  0  0  0  0  0  0
   -2.8520    0.7660   -4.0990 H   0  0  0  0  0  0  0  0  0  0  0  0
   -1.9320   -0.4020   -3.0090 H   0  0  0  0  0  0  0  0  0  0  0  0
   -3.1470   -1.7340   -4.2320 H   0  0  0  0  0  0  0  0  0  0  0  0
   -4.2260   -1.5540   -2.9420 H   0  0  0  0  0  0  0  0  0  0  0  0
   -0.0370   -1.6180   -0.3340 N   0  0  0  0  0  0  0  0  0  0  0  0
   -0.3790   -3.0450   -0.4280 C   0  0  1  0  0  0  0  0  0  0  0  0
   -0.1510   -3.4430   -1.8730 C   0  0  0  0  0  0  0  0  0  0  0  0
   -0.4530   -4.8710   -2.1390 C   0  0  0  0  0  0  0  0  0  0  0  0
   -1.8460   -5.2880   -1.8830 C   0  0  0  0  0  0  0  0  0  0  0  0
   -2.7340   -4.4870   -1.5120 O   0  0  0  0  0  0  0  0  0  0  0  0
    0.4670   -3.8360    0.4920 C   0  0  0  0  0  0  0  0  0  0  0  0
    0.3380   -5.0750    0.6410 O   0  0  0  0  0  0  0  0  0  0  0  0
   -2.2530   -6.6100   -2.0420 O   0  0  0  0  0  0  0  0  0  0  0  0
    1.4560   -3.1710    1.2280 O   0  0  0  0  0  0  0  0  0  0  0  0
    0.9280   -1.3410   -0.4450 H   0  0  0  0  0  0  0  0  0  0  0  0
   -1.4410   -3.1810   -0.1830 H   0  0  0  0  0  0  0  0  0  0  0  0
   -0.7680   -2.7990   -2.5100 H   0  0  0  0  0  0  0  0  0  0  0  0
    0.9110   -3.2480   -2.1420 H   0  0  0  0  0  0  0  0  0  0  0  0
    0.2120   -5.5820   -1.5940 H   0  0  0  0  0  0  0  0  0  0  0  0
   -0.2190   -5.0460   -3.2280 H   0  0  0  0  0  0  0  0  0  0  0  0
   -2.9850   -6.9440   -1.4220 H   0  0  0  0  0  0  0  0  0  0  0  0
  1 13  1  0  0  0  0
  2  1  1  0  0  0  0
  3 14  1  0  0  0  0
  3  2  2  0  0  0  0
  4  3  1  0  0  0  0
  5  4  2  0  0  0  0
  5 11  1  0  0  0  0
  6 16  1  0  0  0  0
  6  5  1  0  0  0  0
  7 18  1  6  0  0  0
  7  6  1  0  0  0  0
  7  8  1  0  0  0  0
  8 20  1  0  0  0  0
  8 19  1  0  0  0  0
  9  7  1  0  0  0  0
  9 10  2  0  0  0  0
 11 12  2  0  0  0  0
 12  2  1  0  0  0  0
 12 22  1  0  0  0  0
 15  4  1  0  0  0  0
 17  6  1  0  0  0  0
 21 11  1  0  0  0  0
 23  9  1  0  0  0  0
 24 23  1  0  0  0  0
 24 33  1  1  0  0  0
 25 35  1  0  0  0  0
 25 24  1  0  0  0  0
 26 25  1  0  0  0  0
 26 36  1  0  0  0  0
 27 26  1  0  0  0  0
 27 38  1  0  0  0  0
 28 41  1  0  0  0  0
 28 27  1  0  0  0  0
 29 28  1  0  0  0  0
 29 43  1  0  0  0  0
 30 24  1  0  0  0  0
 30 31  2  0  0  0  0
 32 23  1  0  0  0  0
 34 25  1  0  0  0  0
 37 26  1  0  0  0  0
 39 27  1  0  0  0  0
 40 28  1  0  0  0  0
 42 29  1  0  0  0  0
 44 30  1  0  0  0  0
 45 44  1  0  0  0  0
 45 55  1  1  0  0  0
 45 50  1  0  0  0  0
 46 45  1  0  0  0  0
 47 48  1  0  0  0  0
 47 46  1  0  0  0  0
 47 58  1  0  0  0  0
 48 49  2  0  0  0  0
 50 51  2  0  0  0  0
 50 53  1  0  0  0  0
 52 48  1  0  0  0  0
 52 60  1  0  0  0  0
 54 44  1  0  0  0  0
 56 46  1  0  0  0  0
 57 46  1  0  0  0  0
 59 47  1  0  0  0  0
M  END
$$$$
