YKF.pdb
 OpenBabel07022419223D

 64 65  0  0  1  0  0  0  0  0999 V2000
    3.1610    1.4300    6.7870 O   0  0  0  0  0  0  0  0  0  0  0  0
    3.3630    1.6610    5.4480 C   0  0  0  0  0  0  0  0  0  0  0  0
    4.5650    1.4290    4.8080 C   0  0  0  0  0  0  0  0  0  0  0  0
    4.7850    1.6530    3.4740 C   0  0  0  0  0  0  0  0  0  0  0  0
    3.7430    2.1440    2.6990 C   0  0  0  0  0  0  0  0  0  0  0  0
    3.9720    2.3940    1.2670 C   0  0  0  0  0  0  0  0  0  0  0  0
    3.7060    1.2010    0.4180 C   0  0  2  0  0  0  0  0  0  0  0  0
    3.9520    1.5240   -0.9800 N   0  0  0  0  0  0  0  0  0  0  0  0
    2.3520    0.6170    0.5720 C   0  0  0  0  0  0  0  0  0  0  0  0
    1.9570    0.2260    1.7030 O   0  0  0  0  0  0  0  0  0  0  0  0
    2.5310    2.3870    3.2990 C   0  0  0  0  0  0  0  0  0  0  0  0
    2.3440    2.1520    4.6370 C   0  0  0  0  0  0  0  0  0  0  0  0
    2.6740    0.6030    7.1320 H   0  0  0  0  0  0  0  0  0  0  0  0
    5.3850    1.0410    5.4270 H   0  0  0  0  0  0  0  0  0  0  0  0
    5.7450    1.4610    2.9940 H   0  0  0  0  0  0  0  0  0  0  0  0
    5.0490    2.6640    1.1280 H   0  0  0  0  0  0  0  0  0  0  0  0
    3.3770    3.2730    0.9230 H   0  0  0  0  0  0  0  0  0  0  0  0
    4.4310    0.3940    0.6790 H   0  0  0  0  0  0  0  0  0  0  0  0
    4.7180    2.2080   -1.0260 H   0  0  0  0  0  0  0  0  0  0  0  0
    4.1200    0.6350   -1.4730 H   0  0  0  0  0  0  0  0  0  0  0  0
    1.7240    2.7730    2.6820 H   0  0  0  0  0  0  0  0  0  0  0  0
    1.3720    2.3540    5.0860 H   0  0  0  0  0  0  0  0  0  0  0  0
    1.4510    0.4660   -0.4970 N   0  0  0  0  0  0  0  0  0  0  0  0
    0.1000   -0.1190   -0.3370 C   0  0  1  0  0  0  0  0  0  0  0  0
   -0.9070    0.9590   -0.6850 C   0  0  0  0  0  0  0  0  0  0  0  0
   -2.3180    0.5600   -0.5920 C   0  0  0  0  0  0  0  0  0  0  0  0
   -3.2890    1.6780   -0.9170 C   0  0  0  0  0  0  0  0  0  0  0  0
   -3.1190    2.2130   -2.3020 C   0  0  0  0  0  0  0  0  0  0  0  0
   -3.3240    1.1890   -3.3200 N   0  0  0  0  0  0  0  0  0  0  0  0
   -0.0090   -1.3430   -1.1450 C   0  0  0  0  0  0  0  0  0  0  0  0
    0.8700   -1.6540   -2.0180 O   0  0  0  0  0  0  0  0  0  0  0  0
    1.7120    0.7650   -1.4470 H   0  0  0  0  0  0  0  0  0  0  0  0
   -0.0150   -0.3850    0.7310 H   0  0  0  0  0  0  0  0  0  0  0  0
   -0.6240    1.4590   -1.6340 H   0  0  0  0  0  0  0  0  0  0  0  0
   -0.7340    1.7600    0.0970 H   0  0  0  0  0  0  0  0  0  0  0  0
   -2.5120   -0.1970   -1.4140 H   0  0  0  0  0  0  0  0  0  0  0  0
   -2.6160    0.0730    0.3470 H   0  0  0  0  0  0  0  0  0  0  0  0
   -4.3390    1.3510   -0.7910 H   0  0  0  0  0  0  0  0  0  0  0  0
   -3.1230    2.5170   -0.2110 H   0  0  0  0  0  0  0  0  0  0  0  0
   -3.9160    2.9680   -2.4670 H   0  0  0  0  0  0  0  0  0  0  0  0
   -2.1580    2.7480   -2.4470 H   0  0  0  0  0  0  0  0  0  0  0  0
   -4.2980    1.1610   -3.6410 H   0  0  0  0  0  0  0  0  0  0  0  0
   -2.6290    1.3410   -4.0850 H   0  0  0  0  0  0  0  0  0  0  0  0
   -1.0850   -2.2290   -0.9850 N   0  0  0  0  0  0  0  0  0  0  0  0
   -1.2420   -3.4500   -1.7600 C   0  0  1  0  0  0  0  0  0  0  0  0
   -1.0490   -4.6090   -0.8150 C   0  0  0  0  0  0  0  0  0  0  0  0
   -1.9970   -4.6450    0.2890 C   0  0  0  0  0  0  0  0  0  0  0  0
   -3.1770   -5.3320    0.1210 C   0  0  0  0  0  0  0  0  0  0  0  0
   -4.1270   -5.4230    1.0960 C   0  0  0  0  0  0  0  0  0  0  0  0
   -3.8930   -4.8000    2.2960 C   0  0  0  0  0  0  0  0  0  0  0  0
   -2.7060   -4.0910    2.5080 C   0  0  0  0  0  0  0  0  0  0  0  0
   -1.7800   -4.0280    1.4990 C   0  0  0  0  0  0  0  0  0  0  0  0
   -2.4720   -3.5240   -2.5330 C   0  0  0  0  0  0  0  0  0  0  0  0
   -2.6990   -4.5360   -3.2380 O   0  0  0  0  0  0  0  0  0  0  0  0
   -3.4250   -2.5210   -2.5340 O   0  0  0  0  0  0  0  0  0  0  0  0
   -1.8260   -2.0700   -0.2820 H   0  0  0  0  0  0  0  0  0  0  0  0
   -0.3710   -3.4810   -2.4600 H   0  0  0  0  0  0  0  0  0  0  0  0
    0.0110   -4.5810   -0.4870 H   0  0  0  0  0  0  0  0  0  0  0  0
   -1.1530   -5.5450   -1.4150 H   0  0  0  0  0  0  0  0  0  0  0  0
   -3.4000   -5.8430   -0.8250 H   0  0  0  0  0  0  0  0  0  0  0  0
   -5.0680   -5.9710    0.9590 H   0  0  0  0  0  0  0  0  0  0  0  0
   -4.6480   -4.8770    3.0600 H   0  0  0  0  0  0  0  0  0  0  0  0
   -2.5900   -3.6330    3.4630 H   0  0  0  0  0  0  0  0  0  0  0  0
   -0.8650   -3.4930    1.6330 H   0  0  0  0  0  0  0  0  0  0  0  0
  1 13  1  0  0  0  0
  2  1  1  0  0  0  0
  3 14  1  0  0  0  0
  3  2  1  0  0  0  0
  4  3  2  0  0  0  0
  5 11  2  0  0  0  0
  5  4  1  0  0  0  0
  6  5  1  0  0  0  0
  7  9  1  0  0  0  0
  7 18  1  1  0  0  0
  7  6  1  0  0  0  0
  8  7  1  0  0  0  0
  9 10  2  0  0  0  0
 11 12  1  0  0  0  0
 12 22  1  0  0  0  0
 12  2  2  0  0  0  0
 15  4  1  0  0  0  0
 16  6  1  0  0  0  0
 17  6  1  0  0  0  0
 19  8  1  0  0  0  0
 20  8  1  0  0  0  0
 21 11  1  0  0  0  0
 23 24  1  0  0  0  0
 23  9  1  0  0  0  0
 24 33  1  1  0  0  0
 25 26  1  0  0  0  0
 25 24  1  0  0  0  0
 25 35  1  0  0  0  0
 26 37  1  0  0  0  0
 27 38  1  0  0  0  0
 27 26  1  0  0  0  0
 27 39  1  0  0  0  0
 28 27  1  0  0  0  0
 29 28  1  0  0  0  0
 30 44  1  0  0  0  0
 30 24  1  0  0  0  0
 31 30  2  0  0  0  0
 32 23  1  0  0  0  0
 34 25  1  0  0  0  0
 36 26  1  0  0  0  0
 40 28  1  0  0  0  0
 41 28  1  0  0  0  0
 42 29  1  0  0  0  0
 43 29  1  0  0  0  0
 44 56  1  0  0  0  0
 45 57  1  6  0  0  0
 45 44  1  0  0  0  0
 45 46  1  0  0  0  0
 46 58  1  0  0  0  0
 46 47  1  0  0  0  0
 47 52  1  0  0  0  0
 48 47  2  0  0  0  0
 48 49  1  0  0  0  0
 49 50  2  0  0  0  0
 50 51  1  0  0  0  0
 50 62  1  0  0  0  0
 51 63  1  0  0  0  0
 52 64  1  0  0  0  0
 52 51  2  0  0  0  0
 53 45  1  0  0  0  0
 54 53  2  0  0  0  0
 55 53  1  0  0  0  0
 59 46  1  0  0  0  0
 60 48  1  0  0  0  0
 61 49  1  0  0  0  0
M  END
$$$$
