YKG.pdb
 OpenBabel07022419223D

 51 51  0  0  1  0  0  0  0  0999 V2000
    5.8370   -2.4770    3.9610 O   0  0  0  0  0  0  0  0  0  0  0  0
    5.2660   -1.7820    2.8900 C   0  0  0  0  0  0  0  0  0  0  0  0
    4.1920   -0.9480    3.0750 C   0  0  0  0  0  0  0  0  0  0  0  0
    3.6150   -0.2550    2.0380 C   0  0  0  0  0  0  0  0  0  0  0  0
    4.0960   -0.3640    0.7310 C   0  0  0  0  0  0  0  0  0  0  0  0
    3.5210    0.3450   -0.4090 C   0  0  0  0  0  0  0  0  0  0  0  0
    2.4550   -0.4120   -1.1640 C   0  0  2  0  0  0  0  0  0  0  0  0
    2.0310    0.4710   -2.2370 N   0  0  0  0  0  0  0  0  0  0  0  0
    1.3540   -0.7200   -0.2330 C   0  0  0  0  0  0  0  0  0  0  0  0
    1.6040   -1.5440    0.6940 O   0  0  0  0  0  0  0  0  0  0  0  0
    5.1900   -1.2170    0.5620 C   0  0  0  0  0  0  0  0  0  0  0  0
    5.7600   -1.9060    1.6090 C   0  0  0  0  0  0  0  0  0  0  0  0
    5.6130   -3.4620    4.0500 H   0  0  0  0  0  0  0  0  0  0  0  0
    3.7860   -0.8310    4.0600 H   0  0  0  0  0  0  0  0  0  0  0  0
    2.7700    0.3940    2.2310 H   0  0  0  0  0  0  0  0  0  0  0  0
    4.2730    0.6690   -1.1590 H   0  0  0  0  0  0  0  0  0  0  0  0
    3.0810    1.3050   -0.0120 H   0  0  0  0  0  0  0  0  0  0  0  0
    2.8970   -1.3080   -1.6200 H   0  0  0  0  0  0  0  0  0  0  0  0
    1.2140    0.1170   -2.7500 H   0  0  0  0  0  0  0  0  0  0  0  0
    1.9740    1.4470   -1.9210 H   0  0  0  0  0  0  0  0  0  0  0  0
    5.5730   -1.3110   -0.4420 H   0  0  0  0  0  0  0  0  0  0  0  0
    6.6030   -2.5490    1.4110 H   0  0  0  0  0  0  0  0  0  0  0  0
    0.0750   -0.1800   -0.2940 N   0  0  0  0  0  0  0  0  0  0  0  0
   -1.0080   -0.5460    0.7010 C   0  0  1  0  0  0  0  0  0  0  0  0
   -1.1970    0.6890    1.4270 C   0  0  0  0  0  0  0  0  0  0  0  0
   -2.0910    1.0570    2.4760 C   0  0  0  0  0  0  0  0  0  0  0  0
   -3.5320    1.2780    2.3050 C   0  0  0  0  0  0  0  0  0  0  0  0
   -4.4510    0.2570    1.7850 C   0  0  0  0  0  0  0  0  0  0  0  0
   -5.8150    0.8760    1.8650 N   0  0  0  0  0  0  0  0  0  0  0  0
   -1.9810   -1.3540    0.0470 C   0  0  0  0  0  0  0  0  0  0  0  0
   -2.8480   -2.0590    0.6080 O   0  0  0  0  0  0  0  0  0  0  0  0
   -0.1880    0.4970   -1.0230 H   0  0  0  0  0  0  0  0  0  0  0  0
   -0.4570   -1.2840    1.4250 H   0  0  0  0  0  0  0  0  0  0  0  0
   -1.2650    1.5760    0.6430 H   0  0  0  0  0  0  0  0  0  0  0  0
   -0.1170    0.9750    1.8070 H   0  0  0  0  0  0  0  0  0  0  0  0
   -2.0050    0.3850    3.4090 H   0  0  0  0  0  0  0  0  0  0  0  0
   -1.7160    2.0490    2.9700 H   0  0  0  0  0  0  0  0  0  0  0  0
   -3.9970    1.6700    3.2780 H   0  0  0  0  0  0  0  0  0  0  0  0
   -3.6590    2.1810    1.5840 H   0  0  0  0  0  0  0  0  0  0  0  0
   -4.5330   -0.6820    2.3400 H   0  0  0  0  0  0  0  0  0  0  0  0
   -4.2870    0.1240    0.6780 H   0  0  0  0  0  0  0  0  0  0  0  0
   -6.3910    0.5650    1.0760 H   0  0  0  0  0  0  0  0  0  0  0  0
   -6.1750    0.6600    2.8060 H   0  0  0  0  0  0  0  0  0  0  0  0
   -2.0300   -1.4140   -1.4010 N   0  0  0  0  0  0  0  0  0  0  0  0
   -3.0030   -2.2230   -2.0840 C   0  0  0  0  0  0  0  0  0  0  0  0
   -2.8890   -3.6600   -1.7400 C   0  0  0  0  0  0  0  0  0  0  0  0
   -2.0020   -4.0190   -0.9320 O   0  0  0  0  0  0  0  0  0  0  0  0
   -3.7110   -4.6400   -2.2620 O   0  0  0  0  0  0  0  0  0  0  0  0
   -1.3500   -0.8650   -1.9690 H   0  0  0  0  0  0  0  0  0  0  0  0
   -2.9040   -2.0510   -3.1750 H   0  0  0  0  0  0  0  0  0  0  0  0
   -4.0380   -1.8350   -1.8460 H   0  0  0  0  0  0  0  0  0  0  0  0
  1 13  1  0  0  0  0
  2  3  1  0  0  0  0
  2  1  1  0  0  0  0
  3 14  1  0  0  0  0
  4 15  1  0  0  0  0
  4  3  2  0  0  0  0
  5  4  1  0  0  0  0
  6 17  1  0  0  0  0
  6  5  1  0  0  0  0
  7 18  1  6  0  0  0
  7  6  1  0  0  0  0
  7  9  1  0  0  0  0
  8 20  1  0  0  0  0
  8  7  1  0  0  0  0
  9 10  2  0  0  0  0
 11  5  2  0  0  0  0
 11 12  1  0  0  0  0
 12  2  2  0  0  0  0
 16  6  1  0  0  0  0
 19  8  1  0  0  0  0
 21 11  1  0  0  0  0
 22 12  1  0  0  0  0
 23  9  1  0  0  0  0
 23 24  1  0  0  0  0
 24 33  1  1  0  0  0
 24 25  1  0  0  0  0
 25 35  1  0  0  0  0
 25 26  1  0  0  0  0
 26 37  1  0  0  0  0
 26 36  1  0  0  0  0
 27 26  1  0  0  0  0
 27 38  1  0  0  0  0
 28 29  1  0  0  0  0
 28 27  1  0  0  0  0
 28 40  1  0  0  0  0
 29 43  1  0  0  0  0
 30 31  2  0  0  0  0
 30 24  1  0  0  0  0
 32 23  1  0  0  0  0
 34 25  1  0  0  0  0
 39 27  1  0  0  0  0
 41 28  1  0  0  0  0
 42 29  1  0  0  0  0
 44 30  1  0  0  0  0
 45 51  1  0  0  0  0
 45 46  1  0  0  0  0
 45 44  1  0  0  0  0
 46 47  1  0  0  0  0
 48 46  2  0  0  0  0
 49 44  1  0  0  0  0
 50 45  1  0  0  0  0
M  END
$$$$
