YKH.pdb
 OpenBabel07022419223D

 61 62  0  0  1  0  0  0  0  0999 V2000
    5.4890   -2.8810   -0.3180 O   0  0  0  0  0  0  0  0  0  0  0  0
    4.9960   -1.6590    0.1320 C   0  0  0  0  0  0  0  0  0  0  0  0
    5.0360   -1.3400    1.4740 C   0  0  0  0  0  0  0  0  0  0  0  0
    4.5420   -0.1270    1.8900 C   0  0  0  0  0  0  0  0  0  0  0  0
    4.0090    0.7710    0.9810 C   0  0  0  0  0  0  0  0  0  0  0  0
    3.4960    2.0590    1.5020 C   0  0  0  0  0  0  0  0  0  0  0  0
    2.0270    1.9560    1.8710 C   0  0  2  0  0  0  0  0  0  0  0  0
    1.8130    0.9490    2.8950 N   0  0  0  0  0  0  0  0  0  0  0  0
    1.1820    1.6500    0.6900 C   0  0  0  0  0  0  0  0  0  0  0  0
    1.2140    2.3950   -0.3130 O   0  0  0  0  0  0  0  0  0  0  0  0
    3.9860    0.4210   -0.3420 C   0  0  0  0  0  0  0  0  0  0  0  0
    4.4780   -0.7960   -0.7840 C   0  0  0  0  0  0  0  0  0  0  0  0
    5.3320   -3.7460    0.2030 H   0  0  0  0  0  0  0  0  0  0  0  0
    5.4550   -2.0430    2.1920 H   0  0  0  0  0  0  0  0  0  0  0  0
    4.5910    0.0920    2.9570 H   0  0  0  0  0  0  0  0  0  0  0  0
    3.5710    2.8750    0.7420 H   0  0  0  0  0  0  0  0  0  0  0  0
    4.0290    2.4070    2.4020 H   0  0  0  0  0  0  0  0  0  0  0  0
    1.7530    2.9350    2.3160 H   0  0  0  0  0  0  0  0  0  0  0  0
    2.2500    1.2350    3.7960 H   0  0  0  0  0  0  0  0  0  0  0  0
    2.1380    0.0260    2.5540 H   0  0  0  0  0  0  0  0  0  0  0  0
    3.5640    1.1280   -1.0680 H   0  0  0  0  0  0  0  0  0  0  0  0
    4.4450   -1.0480   -1.8500 H   0  0  0  0  0  0  0  0  0  0  0  0
    0.3430    0.5320    0.6860 N   0  0  0  0  0  0  0  0  0  0  0  0
   -0.5230    0.1510   -0.4270 C   0  0  1  0  0  0  0  0  0  0  0  0
   -0.3060   -1.2480   -0.8490 C   0  0  0  0  0  0  0  0  0  0  0  0
   -1.1920   -1.6070   -2.0060 C   0  0  0  0  0  0  0  0  0  0  0  0
   -0.9440   -3.0440   -2.4630 C   0  0  0  0  0  0  0  0  0  0  0  0
   -1.8640   -3.3600   -3.6380 C   0  0  0  0  0  0  0  0  0  0  0  0
   -1.6790   -4.7000   -4.1150 N   0  0  0  0  0  0  0  0  0  0  0  0
   -1.9070    0.3320    0.0840 C   0  0  0  0  0  0  0  0  0  0  0  0
   -2.9490    0.1550   -0.6100 O   0  0  0  0  0  0  0  0  0  0  0  0
    0.3080   -0.1020    1.5120 H   0  0  0  0  0  0  0  0  0  0  0  0
   -0.3940    0.8300   -1.2840 H   0  0  0  0  0  0  0  0  0  0  0  0
   -0.5350   -1.9500   -0.0110 H   0  0  0  0  0  0  0  0  0  0  0  0
    0.7470   -1.4320   -1.2260 H   0  0  0  0  0  0  0  0  0  0  0  0
   -1.0010   -0.8950   -2.8410 H   0  0  0  0  0  0  0  0  0  0  0  0
   -2.2710   -1.5640   -1.8070 H   0  0  0  0  0  0  0  0  0  0  0  0
   -1.1100   -3.7240   -1.6310 H   0  0  0  0  0  0  0  0  0  0  0  0
    0.0950   -3.1090   -2.8430 H   0  0  0  0  0  0  0  0  0  0  0  0
   -1.6650   -2.6650   -4.4770 H   0  0  0  0  0  0  0  0  0  0  0  0
   -2.9240   -3.2150   -3.3450 H   0  0  0  0  0  0  0  0  0  0  0  0
   -1.6990   -4.7630   -5.1670 H   0  0  0  0  0  0  0  0  0  0  0  0
   -2.4510   -5.3290   -3.7910 H   0  0  0  0  0  0  0  0  0  0  0  0
   -2.1830    0.7330    1.4430 N   0  0  0  0  0  0  0  0  0  0  0  0
   -3.5260    0.8940    1.8890 C   0  0  1  0  0  0  0  0  0  0  0  0
   -3.7710   -0.1690    2.9700 C   0  0  0  0  0  0  0  0  0  0  0  0
   -3.5880   -1.5300    2.4610 C   0  0  0  0  0  0  0  0  0  0  0  0
   -2.4260   -2.2770    2.4450 C   0  0  0  0  0  0  0  0  0  0  0  0
   -2.6840   -3.4740    1.8940 N   0  0  0  0  0  0  0  0  0  0  0  0
   -3.9810   -3.4790    1.5710 C   0  0  0  0  0  0  0  0  0  0  0  0
   -4.5350   -2.3080    1.9100 N   0  0  0  0  0  0  0  0  0  0  0  0
   -3.8240    2.2210    2.4470 C   0  0  0  0  0  0  0  0  0  0  0  0
   -2.9260    3.0890    2.4960 O   0  0  0  0  0  0  0  0  0  0  0  0
   -5.0710    2.5590    2.9280 O   0  0  0  0  0  0  0  0  0  0  0  0
   -1.3570    0.8930    2.0510 H   0  0  0  0  0  0  0  0  0  0  0  0
   -4.2840    0.6870    1.1090 H   0  0  0  0  0  0  0  0  0  0  0  0
   -3.1010   -0.0100    3.8340 H   0  0  0  0  0  0  0  0  0  0  0  0
   -4.8160   -0.0150    3.3680 H   0  0  0  0  0  0  0  0  0  0  0  0
   -1.4620   -1.9380    2.8220 H   0  0  0  0  0  0  0  0  0  0  0  0
   -2.0160   -4.2730    1.7360 H   0  0  0  0  0  0  0  0  0  0  0  0
   -4.4810   -4.3340    1.0990 H   0  0  0  0  0  0  0  0  0  0  0  0
  1  2  1  0  0  0  0
  1 13  1  0  0  0  0
  2  3  1  0  0  0  0
  3  4  2  0  0  0  0
  3 14  1  0  0  0  0
  4 15  1  0  0  0  0
  5  6  1  0  0  0  0
  5  4  1  0  0  0  0
  6  7  1  0  0  0  0
  6 17  1  0  0  0  0
  7 18  1  1  0  0  0
  7  8  1  0  0  0  0
  8 19  1  0  0  0  0
  9  7  1  0  0  0  0
 10  9  2  0  0  0  0
 11  5  2  0  0  0  0
 12 11  1  0  0  0  0
 12  2  2  0  0  0  0
 16  6  1  0  0  0  0
 20  8  1  0  0  0  0
 21 11  1  0  0  0  0
 22 12  1  0  0  0  0
 23  9  1  0  0  0  0
 23 32  1  0  0  0  0
 24 33  1  6  0  0  0
 24 30  1  0  0  0  0
 24 23  1  0  0  0  0
 25 24  1  0  0  0  0
 25 34  1  0  0  0  0
 26 37  1  0  0  0  0
 26 25  1  0  0  0  0
 27 26  1  0  0  0  0
 27 38  1  0  0  0  0
 28 41  1  0  0  0  0
 28 27  1  0  0  0  0
 29 43  1  0  0  0  0
 29 28  1  0  0  0  0
 30 44  1  0  0  0  0
 31 30  2  0  0  0  0
 35 25  1  0  0  0  0
 36 26  1  0  0  0  0
 39 27  1  0  0  0  0
 40 28  1  0  0  0  0
 42 29  1  0  0  0  0
 44 45  1  0  0  0  0
 44 55  1  0  0  0  0
 45 56  1  6  0  0  0
 45 52  1  0  0  0  0
 45 46  1  0  0  0  0
 46 58  1  0  0  0  0
 46 57  1  0  0  0  0
 47 46  1  0  0  0  0
 48 47  2  0  0  0  0
 48 59  1  0  0  0  0
 49 48  1  0  0  0  0
 50 49  1  0  0  0  0
 50 51  2  0  0  0  0
 51 47  1  0  0  0  0
 52 53  2  0  0  0  0
 52 54  1  0  0  0  0
 60 49  1  0  0  0  0
 61 50  1  0  0  0  0
M  END
$$$$
