YKI.pdb
 OpenBabel07022419223D

 63 63  0  0  1  0  0  0  0  0999 V2000
    3.1340   -1.5580    8.4280 O   0  0  0  0  0  0  0  0  0  0  0  0
    3.1670   -1.5360    7.0290 C   0  0  0  0  0  0  0  0  0  0  0  0
    2.4320   -2.4540    6.3440 C   0  0  0  0  0  0  0  0  0  0  0  0
    2.4340   -2.4690    4.9440 C   0  0  0  0  0  0  0  0  0  0  0  0
    3.1750   -1.5640    4.2100 C   0  0  0  0  0  0  0  0  0  0  0  0
    3.1950   -1.5580    2.7210 C   0  0  0  0  0  0  0  0  0  0  0  0
    2.0800   -0.6460    2.2770 C   0  0  2  0  0  0  0  0  0  0  0  0
    0.8470   -1.1990    2.7990 N   0  0  0  0  0  0  0  0  0  0  0  0
    1.9940   -0.4450    0.8420 C   0  0  0  0  0  0  0  0  0  0  0  0
    2.9020    0.0190    0.1060 O   0  0  0  0  0  0  0  0  0  0  0  0
    3.9130   -0.6410    4.9420 C   0  0  0  0  0  0  0  0  0  0  0  0
    3.9080   -0.6290    6.3190 C   0  0  0  0  0  0  0  0  0  0  0  0
    2.3890   -1.0950    8.9340 H   0  0  0  0  0  0  0  0  0  0  0  0
    1.8340   -3.1850    6.8990 H   0  0  0  0  0  0  0  0  0  0  0  0
    1.8530   -3.1960    4.4170 H   0  0  0  0  0  0  0  0  0  0  0  0
    2.9670   -2.6090    2.3970 H   0  0  0  0  0  0  0  0  0  0  0  0
    4.1740   -1.2110    2.3320 H   0  0  0  0  0  0  0  0  0  0  0  0
    2.2340    0.3410    2.7590 H   0  0  0  0  0  0  0  0  0  0  0  0
    0.7530   -2.1870    2.5380 H   0  0  0  0  0  0  0  0  0  0  0  0
    0.7930   -1.0270    3.8060 H   0  0  0  0  0  0  0  0  0  0  0  0
    4.4900    0.0650    4.3460 H   0  0  0  0  0  0  0  0  0  0  0  0
    4.4880    0.0960    6.8670 H   0  0  0  0  0  0  0  0  0  0  0  0
    0.7860   -0.7960    0.1800 N   0  0  0  0  0  0  0  0  0  0  0  0
    0.6050   -0.6300   -1.2560 C   0  0  1  0  0  0  0  0  0  0  0  0
    0.1790   -1.8900   -1.9250 C   0  0  0  0  0  0  0  0  0  0  0  0
   -0.0270   -1.8250   -3.3960 C   0  0  0  0  0  0  0  0  0  0  0  0
   -0.4520   -3.2010   -3.9370 C   0  0  0  0  0  0  0  0  0  0  0  0
   -0.6620   -3.1370   -5.4310 C   0  0  0  0  0  0  0  0  0  0  0  0
   -1.0600   -4.4760   -5.8530 N   0  0  0  0  0  0  0  0  0  0  0  0
   -0.4250    0.4190   -1.4420 C   0  0  0  0  0  0  0  0  0  0  0  0
   -0.7920    0.8190   -2.5780 O   0  0  0  0  0  0  0  0  0  0  0  0
   -0.0330   -1.1980    0.7300 H   0  0  0  0  0  0  0  0  0  0  0  0
    1.5490   -0.2120   -1.6610 H   0  0  0  0  0  0  0  0  0  0  0  0
   -0.7090   -2.3580   -1.4730 H   0  0  0  0  0  0  0  0  0  0  0  0
    1.0080   -2.6430   -1.7590 H   0  0  0  0  0  0  0  0  0  0  0  0
    0.9190   -1.5900   -3.9640 H   0  0  0  0  0  0  0  0  0  0  0  0
   -0.7810   -1.1360   -3.7680 H   0  0  0  0  0  0  0  0  0  0  0  0
    0.3870   -3.8920   -3.7220 H   0  0  0  0  0  0  0  0  0  0  0  0
   -1.3550   -3.5620   -3.4110 H   0  0  0  0  0  0  0  0  0  0  0  0
    0.3080   -2.9390   -5.9320 H   0  0  0  0  0  0  0  0  0  0  0  0
   -1.3640   -2.3620   -5.7380 H   0  0  0  0  0  0  0  0  0  0  0  0
   -0.9270   -5.1780   -5.1090 H   0  0  0  0  0  0  0  0  0  0  0  0
   -2.0720   -4.4230   -6.1100 H   0  0  0  0  0  0  0  0  0  0  0  0
   -4.0970    0.4820   -1.9000 C   0  0  0  0  0  0  0  0  0  0  0  0
   -3.6920    0.2070   -0.4880 C   0  0  0  0  0  0  0  0  0  0  0  0
   -3.2990    1.4700    0.2730 C   0  0  2  0  0  0  0  0  0  0  0  0
   -4.4210    2.4590    0.3420 C   0  0  0  0  0  0  0  0  0  0  0  0
   -2.0550    2.0470   -0.4060 C   0  0  2  0  0  0  0  0  0  0  0  0
   -1.0380    1.0150   -0.3150 N   0  0  0  0  0  0  0  0  0  0  0  0
   -1.5480    3.2250    0.3460 C   0  0  0  0  0  0  0  0  0  0  0  0
   -2.2370    4.2810    0.4320 O   0  0  0  0  0  0  0  0  0  0  0  0
   -0.3120    3.2390    0.9880 O   0  0  0  0  0  0  0  0  0  0  0  0
   -5.1160    0.0700   -2.1210 H   0  0  0  0  0  0  0  0  0  0  0  0
   -3.4120   -0.0160   -2.5860 H   0  0  0  0  0  0  0  0  0  0  0  0
   -4.0600    1.5760   -2.1380 H   0  0  0  0  0  0  0  0  0  0  0  0
   -2.8120   -0.4650   -0.4920 H   0  0  0  0  0  0  0  0  0  0  0  0
   -4.5380   -0.2850    0.0370 H   0  0  0  0  0  0  0  0  0  0  0  0
   -3.0690    1.1410    1.3020 H   0  0  0  0  0  0  0  0  0  0  0  0
   -5.3740    1.8710    0.2720 H   0  0  0  0  0  0  0  0  0  0  0  0
   -4.3770    3.2470   -0.4310 H   0  0  0  0  0  0  0  0  0  0  0  0
   -4.3980    2.9580    1.3200 H   0  0  0  0  0  0  0  0  0  0  0  0
   -2.2790    2.2950   -1.4580 H   0  0  0  0  0  0  0  0  0  0  0  0
   -0.7540    0.7050    0.6370 H   0  0  0  0  0  0  0  0  0  0  0  0
  1 13  1  0  0  0  0
  2  1  1  0  0  0  0
  3 14  1  0  0  0  0
  3  2  1  0  0  0  0
  4  3  2  0  0  0  0
  5 11  2  0  0  0  0
  5  4  1  0  0  0  0
  6  5  1  0  0  0  0
  7  6  1  0  0  0  0
  7 18  1  1  0  0  0
  7  8  1  0  0  0  0
  8 20  1  0  0  0  0
  9  7  1  0  0  0  0
 10  9  2  0  0  0  0
 11 12  1  0  0  0  0
 12 22  1  0  0  0  0
 12  2  2  0  0  0  0
 15  4  1  0  0  0  0
 16  6  1  0  0  0  0
 17  6  1  0  0  0  0
 19  8  1  0  0  0  0
 21 11  1  0  0  0  0
 23 32  1  0  0  0  0
 23  9  1  0  0  0  0
 24 33  1  6  0  0  0
 24 23  1  0  0  0  0
 25 35  1  0  0  0  0
 25 34  1  0  0  0  0
 25 24  1  0  0  0  0
 26 25  1  0  0  0  0
 27 38  1  0  0  0  0
 27 39  1  0  0  0  0
 27 26  1  0  0  0  0
 28 27  1  0  0  0  0
 29 28  1  0  0  0  0
 29 42  1  0  0  0  0
 30 24  1  0  0  0  0
 30 49  1  0  0  0  0
 31 30  2  0  0  0  0
 36 26  1  0  0  0  0
 37 26  1  0  0  0  0
 40 28  1  0  0  0  0
 41 28  1  0  0  0  0
 43 29  1  0  0  0  0
 44 45  1  0  0  0  0
 45 57  1  0  0  0  0
 45 46  1  0  0  0  0
 46 47  1  0  0  0  0
 46 58  1  1  0  0  0
 47 61  1  0  0  0  0
 48 62  1  6  0  0  0
 48 49  1  0  0  0  0
 48 46  1  0  0  0  0
 48 50  1  0  0  0  0
 49 63  1  0  0  0  0
 50 51  2  0  0  0  0
 50 52  1  0  0  0  0
 53 44  1  0  0  0  0
 54 44  1  0  0  0  0
 55 44  1  0  0  0  0
 56 45  1  0  0  0  0
 59 47  1  0  0  0  0
 60 47  1  0  0  0  0
M  END
$$$$
