YKK.pdb
 OpenBabel07022419223D

 65 65  0  0  1  0  0  0  0  0999 V2000
    1.0020   -1.0670    6.3390 O   0  0  0  0  0  0  0  0  0  0  0  0
    1.4960   -0.2900    5.3050 C   0  0  0  0  0  0  0  0  0  0  0  0
    1.8520   -0.8800    4.1040 C   0  0  0  0  0  0  0  0  0  0  0  0
    2.3420   -0.1050    3.0780 C   0  0  0  0  0  0  0  0  0  0  0  0
    2.4880    1.2560    3.2190 C   0  0  0  0  0  0  0  0  0  0  0  0
    3.0090    2.0870    2.1310 C   0  0  0  0  0  0  0  0  0  0  0  0
    1.9860    2.6610    1.2100 C   0  0  2  0  0  0  0  0  0  0  0  0
    1.0160    3.5130    1.8530 N   0  0  0  0  0  0  0  0  0  0  0  0
    1.2620    1.6470    0.3980 C   0  0  0  0  0  0  0  0  0  0  0  0
    1.8820    0.7590   -0.2410 O   0  0  0  0  0  0  0  0  0  0  0  0
    2.1350    1.8700    4.4220 C   0  0  0  0  0  0  0  0  0  0  0  0
    1.6460    1.0780    5.4370 C   0  0  0  0  0  0  0  0  0  0  0  0
    0.1230   -0.8000    6.7730 H   0  0  0  0  0  0  0  0  0  0  0  0
    1.7390   -1.9650    3.9820 H   0  0  0  0  0  0  0  0  0  0  0  0
    2.6090   -0.6270    2.1480 H   0  0  0  0  0  0  0  0  0  0  0  0
    3.6760    2.8980    2.5230 H   0  0  0  0  0  0  0  0  0  0  0  0
    3.7050    1.4760    1.4820 H   0  0  0  0  0  0  0  0  0  0  0  0
    2.5410    3.3510    0.4920 H   0  0  0  0  0  0  0  0  0  0  0  0
    0.6820    3.1800    2.7610 H   0  0  0  0  0  0  0  0  0  0  0  0
    1.1980    4.5170    1.7630 H   0  0  0  0  0  0  0  0  0  0  0  0
    2.2320    2.9350    4.5790 H   0  0  0  0  0  0  0  0  0  0  0  0
    1.3500    1.5060    6.4080 H   0  0  0  0  0  0  0  0  0  0  0  0
   -0.1750    1.6550    0.3180 N   0  0  0  0  0  0  0  0  0  0  0  0
   -0.9560    0.7180   -0.4440 C   0  0  1  0  0  0  0  0  0  0  0  0
   -0.8880    1.0610   -1.8930 C   0  0  0  0  0  0  0  0  0  0  0  0
   -1.4380    2.4570   -2.0900 C   0  0  0  0  0  0  0  0  0  0  0  0
   -1.4220    2.9210   -3.5100 C   0  0  0  0  0  0  0  0  0  0  0  0
   -2.2430    2.0360   -4.4240 C   0  0  0  0  0  0  0  0  0  0  0  0
   -2.1770    2.5590   -5.7940 N   0  0  0  0  0  0  0  0  0  0  0  0
   -0.6290   -0.6560   -0.1010 C   0  0  0  0  0  0  0  0  0  0  0  0
    0.2060   -0.8780    0.8040 O   0  0  0  0  0  0  0  0  0  0  0  0
   -0.6450    2.4340    0.8810 H   0  0  0  0  0  0  0  0  0  0  0  0
   -2.0280    0.8710   -0.0860 H   0  0  0  0  0  0  0  0  0  0  0  0
   -1.4400    0.3870   -2.5540 H   0  0  0  0  0  0  0  0  0  0  0  0
    0.1620    1.0840   -2.2470 H   0  0  0  0  0  0  0  0  0  0  0  0
   -0.8660    3.2090   -1.4940 H   0  0  0  0  0  0  0  0  0  0  0  0
   -2.5190    2.4420   -1.7670 H   0  0  0  0  0  0  0  0  0  0  0  0
   -0.4000    3.0690   -3.9050 H   0  0  0  0  0  0  0  0  0  0  0  0
   -1.9060    3.9220   -3.5340 H   0  0  0  0  0  0  0  0  0  0  0  0
   -1.7640    1.0420   -4.4490 H   0  0  0  0  0  0  0  0  0  0  0  0
   -3.2950    1.9930   -4.1380 H   0  0  0  0  0  0  0  0  0  0  0  0
   -2.4350    1.7440   -6.4200 H   0  0  0  0  0  0  0  0  0  0  0  0
   -2.9620    3.2560   -5.9420 H   0  0  0  0  0  0  0  0  0  0  0  0
   -1.1920   -1.8010   -0.7240 N   0  0  0  0  0  0  0  0  0  0  0  0
   -0.7870   -3.1830   -0.2970 C   0  0  1  0  0  0  0  0  0  0  0  0
   -2.0400   -3.8490    0.1040 C   0  0  0  0  0  0  0  0  0  0  0  0
   -2.0570   -5.2170    0.6280 C   0  0  0  0  0  0  0  0  0  0  0  0
   -1.4660   -5.5660    1.9230 C   0  0  0  0  0  0  0  0  0  0  0  0
   -0.0400   -5.3860    2.2020 C   0  0  0  0  0  0  0  0  0  0  0  0
    0.8550   -6.1220    1.3310 N   0  0  0  0  0  0  0  0  0  0  0  0
   -0.1460   -3.8280   -1.4850 C   0  0  0  0  0  0  0  0  0  0  0  0
   -0.0180   -3.1550   -2.5330 O   0  0  0  0  0  0  0  0  0  0  0  0
    0.3040   -5.1170   -1.4760 O   0  0  0  0  0  0  0  0  0  0  0  0
   -1.8770   -1.6850   -1.4660 H   0  0  0  0  0  0  0  0  0  0  0  0
   -0.0610   -3.0620    0.4900 H   0  0  0  0  0  0  0  0  0  0  0  0
   -2.6160   -3.2120    0.8690 H   0  0  0  0  0  0  0  0  0  0  0  0
   -2.7440   -3.7660   -0.7990 H   0  0  0  0  0  0  0  0  0  0  0  0
   -1.6450   -5.9610   -0.1400 H   0  0  0  0  0  0  0  0  0  0  0  0
   -3.1520   -5.5760    0.6860 H   0  0  0  0  0  0  0  0  0  0  0  0
   -2.0270   -5.0480    2.7770 H   0  0  0  0  0  0  0  0  0  0  0  0
   -1.7180   -6.6840    2.0830 H   0  0  0  0  0  0  0  0  0  0  0  0
    0.1430   -5.7480    3.2840 H   0  0  0  0  0  0  0  0  0  0  0  0
    0.2630   -4.3480    2.2420 H   0  0  0  0  0  0  0  0  0  0  0  0
    1.8420   -6.0710    1.6590 H   0  0  0  0  0  0  0  0  0  0  0  0
    0.5250   -7.1260    1.2860 H   0  0  0  0  0  0  0  0  0  0  0  0
  1 13  1  0  0  0  0
  2 12  1  0  0  0  0
  2  1  1  0  0  0  0
  3  2  2  0  0  0  0
  4  5  2  0  0  0  0
  4  3  1  0  0  0  0
  5 11  1  0  0  0  0
  6 16  1  0  0  0  0
  6  5  1  0  0  0  0
  7 18  1  6  0  0  0
  7  8  1  0  0  0  0
  7  6  1  0  0  0  0
  8 19  1  0  0  0  0
  9  7  1  0  0  0  0
 10  9  2  0  0  0  0
 11 21  1  0  0  0  0
 11 12  2  0  0  0  0
 12 22  1  0  0  0  0
 14  3  1  0  0  0  0
 15  4  1  0  0  0  0
 17  6  1  0  0  0  0
 20  8  1  0  0  0  0
 23  9  1  0  0  0  0
 23 32  1  0  0  0  0
 24 30  1  0  0  0  0
 24 33  1  1  0  0  0
 24 23  1  0  0  0  0
 25 24  1  0  0  0  0
 26 25  1  0  0  0  0
 26 37  1  0  0  0  0
 26 36  1  0  0  0  0
 27 26  1  0  0  0  0
 28 41  1  0  0  0  0
 28 27  1  0  0  0  0
 29 28  1  0  0  0  0
 30 31  2  0  0  0  0
 34 25  1  0  0  0  0
 35 25  1  0  0  0  0
 38 27  1  0  0  0  0
 39 27  1  0  0  0  0
 40 28  1  0  0  0  0
 42 29  1  0  0  0  0
 43 29  1  0  0  0  0
 44 45  1  0  0  0  0
 44 30  1  0  0  0  0
 45 46  1  0  0  0  0
 45 55  1  1  0  0  0
 46 47  1  0  0  0  0
 46 56  1  0  0  0  0
 47 59  1  0  0  0  0
 47 48  1  0  0  0  0
 48 61  1  0  0  0  0
 48 49  1  0  0  0  0
 48 60  1  0  0  0  0
 49 63  1  0  0  0  0
 49 62  1  0  0  0  0
 50 64  1  0  0  0  0
 50 49  1  0  0  0  0
 51 53  1  0  0  0  0
 51 45  1  0  0  0  0
 52 51  2  0  0  0  0
 54 44  1  0  0  0  0
 57 46  1  0  0  0  0
 58 47  1  0  0  0  0
 65 50  1  0  0  0  0
M  END
$$$$
