YKM.pdb
 OpenBabel07022419223D

 61 61  0  0  1  0  0  0  0  0999 V2000
    5.2270    1.2890    7.5470 O   0  0  0  0  0  0  0  0  0  0  0  0
    4.5270    1.3780    6.3240 C   0  0  0  0  0  0  0  0  0  0  0  0
    4.9940    0.7310    5.1980 C   0  0  0  0  0  0  0  0  0  0  0  0
    4.3110    0.8160    4.0000 C   0  0  0  0  0  0  0  0  0  0  0  0
    3.1420    1.5420    3.8680 C   0  0  0  0  0  0  0  0  0  0  0  0
    2.4190    1.6210    2.5740 C   0  0  0  0  0  0  0  0  0  0  0  0
    1.3870    0.5340    2.4690 C   0  0  2  0  0  0  0  0  0  0  0  0
    2.0500   -0.7490    2.5660 N   0  0  0  0  0  0  0  0  0  0  0  0
    0.5480    0.6440    1.2710 C   0  0  0  0  0  0  0  0  0  0  0  0
   -0.0270    1.7690    1.0750 O   0  0  0  0  0  0  0  0  0  0  0  0
    2.6820    2.1860    5.0000 C   0  0  0  0  0  0  0  0  0  0  0  0
    3.3650    2.1020    6.2000 C   0  0  0  0  0  0  0  0  0  0  0  0
    4.8820    1.8100    8.3430 H   0  0  0  0  0  0  0  0  0  0  0  0
    5.9080    0.1580    5.2760 H   0  0  0  0  0  0  0  0  0  0  0  0
    4.6840    0.3000    3.1030 H   0  0  0  0  0  0  0  0  0  0  0  0
    3.1660    1.5850    1.7330 H   0  0  0  0  0  0  0  0  0  0  0  0
    1.9410    2.6210    2.5140 H   0  0  0  0  0  0  0  0  0  0  0  0
    0.7770    0.6130    3.4180 H   0  0  0  0  0  0  0  0  0  0  0  0
    1.3410   -1.5080    2.6010 H   0  0  0  0  0  0  0  0  0  0  0  0
    2.8020   -0.8740    1.8820 H   0  0  0  0  0  0  0  0  0  0  0  0
    1.7530    2.7680    4.9100 H   0  0  0  0  0  0  0  0  0  0  0  0
    2.9810    2.6180    7.0810 H   0  0  0  0  0  0  0  0  0  0  0  0
    0.3170   -0.3760    0.3150 N   0  0  0  0  0  0  0  0  0  0  0  0
   -0.5490   -0.1550   -0.8600 C   0  0  1  0  0  0  0  0  0  0  0  0
    0.2190   -0.3550   -2.1190 C   0  0  0  0  0  0  0  0  0  0  0  0
   -0.6210   -0.1160   -3.3210 C   0  0  0  0  0  0  0  0  0  0  0  0
   -1.1820    1.2940   -3.3670 C   0  0  0  0  0  0  0  0  0  0  0  0
   -1.9980    1.4300   -4.6290 C   0  0  0  0  0  0  0  0  0  0  0  0
   -3.0930    0.5130   -4.6930 N   0  0  0  0  0  0  0  0  0  0  0  0
   -1.7640   -0.9930   -0.7280 C   0  0  0  0  0  0  0  0  0  0  0  0
   -2.6640   -0.9370   -1.5780 O   0  0  0  0  0  0  0  0  0  0  0  0
    0.7820   -1.2940    0.4740 H   0  0  0  0  0  0  0  0  0  0  0  0
   -0.8750    0.9030   -0.8110 H   0  0  0  0  0  0  0  0  0  0  0  0
    0.7610   -1.3250   -2.1460 H   0  0  0  0  0  0  0  0  0  0  0  0
    1.0310    0.4340   -2.1290 H   0  0  0  0  0  0  0  0  0  0  0  0
    0.0850   -0.1540   -4.2090 H   0  0  0  0  0  0  0  0  0  0  0  0
   -1.4580   -0.8120   -3.4780 H   0  0  0  0  0  0  0  0  0  0  0  0
   -1.8220    1.5240   -2.5040 H   0  0  0  0  0  0  0  0  0  0  0  0
   -0.3380    2.0380   -3.4100 H   0  0  0  0  0  0  0  0  0  0  0  0
   -2.3650    2.4670   -4.7810 H   0  0  0  0  0  0  0  0  0  0  0  0
   -1.3260    1.2000   -5.5090 H   0  0  0  0  0  0  0  0  0  0  0  0
   -3.5740    0.3540   -3.8000 H   0  0  0  0  0  0  0  0  0  0  0  0
   -3.8190    0.9320   -5.3370 H   0  0  0  0  0  0  0  0  0  0  0  0
   -1.8250   -5.4780   -3.2540 C   0  0  0  0  0  0  0  0  0  0  0  0
   -2.8890   -4.6910   -1.9900 S   0  0  0  0  0  0  0  0  0  0  0  0
   -2.0170   -4.7740   -0.4220 C   0  0  0  0  0  0  0  0  0  0  0  0
   -2.7660   -4.1620    0.7210 C   0  0  0  0  0  0  0  0  0  0  0  0
   -3.0780   -2.6990    0.5340 C   0  0  2  0  0  0  0  0  0  0  0  0
   -1.9180   -1.8750    0.3750 N   0  0  0  0  0  0  0  0  0  0  0  0
   -3.8140   -2.2460    1.7510 C   0  0  0  0  0  0  0  0  0  0  0  0
   -3.3860   -1.2980    2.4380 O   0  0  0  0  0  0  0  0  0  0  0  0
   -4.9920   -2.8670    2.1500 O   0  0  0  0  0  0  0  0  0  0  0  0
   -2.3690   -6.3350   -3.6970 H   0  0  0  0  0  0  0  0  0  0  0  0
   -0.8920   -5.8810   -2.8170 H   0  0  0  0  0  0  0  0  0  0  0  0
   -1.5840   -4.7820   -4.0720 H   0  0  0  0  0  0  0  0  0  0  0  0
   -1.8570   -5.8380   -0.1690 H   0  0  0  0  0  0  0  0  0  0  0  0
   -1.0130   -4.3160   -0.5400 H   0  0  0  0  0  0  0  0  0  0  0  0
   -2.0910   -4.2310    1.6120 H   0  0  0  0  0  0  0  0  0  0  0  0
   -3.7120   -4.7010    0.8790 H   0  0  0  0  0  0  0  0  0  0  0  0
   -3.7530   -2.5290   -0.3460 H   0  0  0  0  0  0  0  0  0  0  0  0
   -1.1620   -1.9260    1.0950 H   0  0  0  0  0  0  0  0  0  0  0  0
  1 13  1  0  0  0  0
  2  1  1  0  0  0  0
  3 14  1  0  0  0  0
  3  2  2  0  0  0  0
  4  3  1  0  0  0  0
  5  4  2  0  0  0  0
  5 11  1  0  0  0  0
  6  5  1  0  0  0  0
  7  8  1  0  0  0  0
  7  6  1  0  0  0  0
  7 18  1  1  0  0  0
  8 19  1  0  0  0  0
  9  7  1  0  0  0  0
 10  9  2  0  0  0  0
 11 12  2  0  0  0  0
 12  2  1  0  0  0  0
 12 22  1  0  0  0  0
 15  4  1  0  0  0  0
 16  6  1  0  0  0  0
 17  6  1  0  0  0  0
 20  8  1  0  0  0  0
 21 11  1  0  0  0  0
 23 32  1  0  0  0  0
 23  9  1  0  0  0  0
 24 33  1  1  0  0  0
 24 30  1  0  0  0  0
 24 23  1  0  0  0  0
 25 24  1  0  0  0  0
 26 25  1  0  0  0  0
 27 26  1  0  0  0  0
 27 38  1  0  0  0  0
 28 27  1  0  0  0  0
 29 28  1  0  0  0  0
 29 42  1  0  0  0  0
 30 49  1  0  0  0  0
 31 30  2  0  0  0  0
 34 25  1  0  0  0  0
 35 25  1  0  0  0  0
 36 26  1  0  0  0  0
 37 26  1  0  0  0  0
 39 27  1  0  0  0  0
 40 28  1  0  0  0  0
 41 28  1  0  0  0  0
 43 29  1  0  0  0  0
 44 54  1  0  0  0  0
 44 45  1  0  0  0  0
 45 46  1  0  0  0  0
 46 56  1  0  0  0  0
 46 47  1  0  0  0  0
 47 59  1  0  0  0  0
 47 58  1  0  0  0  0
 48 60  1  6  0  0  0
 48 47  1  0  0  0  0
 48 50  1  0  0  0  0
 49 48  1  0  0  0  0
 49 61  1  0  0  0  0
 50 52  2  0  0  0  0
 50 51  1  0  0  0  0
 53 44  1  0  0  0  0
 55 44  1  0  0  0  0
 57 46  1  0  0  0  0
M  END
$$$$
