YKN.pdb
 OpenBabel07022419223D

 58 58  0  0  1  0  0  0  0  0999 V2000
    3.1990    3.6100    4.8510 O   0  0  0  0  0  0  0  0  0  0  0  0
    2.8550    3.2580    3.5540 C   0  0  0  0  0  0  0  0  0  0  0  0
    1.5560    2.8950    3.2650 C   0  0  0  0  0  0  0  0  0  0  0  0
    1.1920    2.5410    1.9790 C   0  0  0  0  0  0  0  0  0  0  0  0
    2.0970    2.5290    0.9250 C   0  0  0  0  0  0  0  0  0  0  0  0
    1.6500    2.1400   -0.4370 C   0  0  0  0  0  0  0  0  0  0  0  0
    1.7990    0.6660   -0.7180 C   0  0  2  0  0  0  0  0  0  0  0  0
    1.3230    0.4460   -2.0680 N   0  0  0  0  0  0  0  0  0  0  0  0
    1.1110   -0.1950    0.2390 C   0  0  0  0  0  0  0  0  0  0  0  0
    1.4870   -0.1380    1.4630 O   0  0  0  0  0  0  0  0  0  0  0  0
    3.3940    2.8910    1.2150 C   0  0  0  0  0  0  0  0  0  0  0  0
    3.7620    3.2500    2.5160 C   0  0  0  0  0  0  0  0  0  0  0  0
    2.8450    4.4670    5.2660 H   0  0  0  0  0  0  0  0  0  0  0  0
    0.8150    2.8890    4.0540 H   0  0  0  0  0  0  0  0  0  0  0  0
    0.1650    2.2520    1.7380 H   0  0  0  0  0  0  0  0  0  0  0  0
    0.6090    2.4990   -0.5750 H   0  0  0  0  0  0  0  0  0  0  0  0
    2.2700    2.7410   -1.1410 H   0  0  0  0  0  0  0  0  0  0  0  0
    2.8960    0.4490   -0.7280 H   0  0  0  0  0  0  0  0  0  0  0  0
    1.5430   -0.5450   -2.3760 H   0  0  0  0  0  0  0  0  0  0  0  0
    1.6560    1.1540   -2.7350 H   0  0  0  0  0  0  0  0  0  0  0  0
    4.1330    2.8980    0.4280 H   0  0  0  0  0  0  0  0  0  0  0  0
    4.7840    3.5320    2.7280 H   0  0  0  0  0  0  0  0  0  0  0  0
    0.0620   -1.0920   -0.0590 N   0  0  0  0  0  0  0  0  0  0  0  0
   -0.5460   -1.8910    0.9690 C   0  0  1  0  0  0  0  0  0  0  0  0
   -1.9780   -1.4750    1.2420 C   0  0  0  0  0  0  0  0  0  0  0  0
   -2.0610   -0.0370    1.6920 C   0  0  0  0  0  0  0  0  0  0  0  0
   -3.4810    0.3640    1.9540 C   0  0  0  0  0  0  0  0  0  0  0  0
   -3.6000    1.8000    2.4050 C   0  0  0  0  0  0  0  0  0  0  0  0
   -5.0080    2.0720    2.6280 N   0  0  0  0  0  0  0  0  0  0  0  0
   -0.4830   -3.3500    0.7160 C   0  0  0  0  0  0  0  0  0  0  0  0
   -0.9690   -4.1170    1.5660 O   0  0  0  0  0  0  0  0  0  0  0  0
   -0.2760   -1.1780   -1.0320 H   0  0  0  0  0  0  0  0  0  0  0  0
   -0.0060   -1.6810    1.9340 H   0  0  0  0  0  0  0  0  0  0  0  0
   -2.4550   -2.1590    1.9680 H   0  0  0  0  0  0  0  0  0  0  0  0
   -2.5400   -1.5710    0.2930 H   0  0  0  0  0  0  0  0  0  0  0  0
   -1.5160    0.0200    2.6750 H   0  0  0  0  0  0  0  0  0  0  0  0
   -1.5350    0.6530    1.0220 H   0  0  0  0  0  0  0  0  0  0  0  0
   -4.1290    0.2090    1.0770 H   0  0  0  0  0  0  0  0  0  0  0  0
   -3.8780   -0.2810    2.7780 H   0  0  0  0  0  0  0  0  0  0  0  0
   -3.0170    1.9920    3.3200 H   0  0  0  0  0  0  0  0  0  0  0  0
   -3.2660    2.4430    1.5610 H   0  0  0  0  0  0  0  0  0  0  0  0
   -5.2430    1.6740    3.5800 H   0  0  0  0  0  0  0  0  0  0  0  0
   -5.6190    1.5840    1.9490 H   0  0  0  0  0  0  0  0  0  0  0  0
   -0.7950   -5.1390   -4.3520 N   0  0  0  0  0  0  0  0  0  0  0  0
   -0.1130   -4.9440   -3.1070 C   0  0  0  0  0  0  0  0  0  0  0  0
    0.8910   -4.1970   -3.1360 O   0  0  0  0  0  0  0  0  0  0  0  0
   -0.6380   -5.6250   -1.9260 C   0  0  0  0  0  0  0  0  0  0  0  0
    0.1750   -5.2990   -0.7000 C   0  0  2  0  0  0  0  0  0  0  0  0
    0.1190   -3.8660   -0.4700 N   0  0  0  0  0  0  0  0  0  0  0  0
    1.5740   -5.7480   -0.9060 C   0  0  0  0  0  0  0  0  0  0  0  0
    1.8570   -6.9470   -1.1290 O   0  0  0  0  0  0  0  0  0  0  0  0
    2.6070   -4.8300   -0.8540 O   0  0  0  0  0  0  0  0  0  0  0  0
   -1.4500   -4.4260   -4.6950 H   0  0  0  0  0  0  0  0  0  0  0  0
   -0.6560   -5.9890   -4.9390 H   0  0  0  0  0  0  0  0  0  0  0  0
   -1.7010   -5.3150   -1.7230 H   0  0  0  0  0  0  0  0  0  0  0  0
   -0.5850   -6.7440   -2.0520 H   0  0  0  0  0  0  0  0  0  0  0  0
   -0.2590   -5.8290    0.1780 H   0  0  0  0  0  0  0  0  0  0  0  0
    0.4970   -3.1500   -1.1210 H   0  0  0  0  0  0  0  0  0  0  0  0
  1 13  1  0  0  0  0
  2  1  1  0  0  0  0
  3  2  1  0  0  0  0
  3 14  1  0  0  0  0
  4  3  2  0  0  0  0
  5 11  2  0  0  0  0
  5  4  1  0  0  0  0
  6  5  1  0  0  0  0
  7 18  1  1  0  0  0
  7  6  1  0  0  0  0
  7  9  1  0  0  0  0
  8  7  1  0  0  0  0
  9 10  2  0  0  0  0
 11 12  1  0  0  0  0
 12 22  1  0  0  0  0
 12  2  2  0  0  0  0
 15  4  1  0  0  0  0
 16  6  1  0  0  0  0
 17  6  1  0  0  0  0
 19  8  1  0  0  0  0
 20  8  1  0  0  0  0
 21 11  1  0  0  0  0
 23  9  1  0  0  0  0
 23 24  1  0  0  0  0
 24 25  1  0  0  0  0
 24 33  1  1  0  0  0
 25 26  1  0  0  0  0
 25 34  1  0  0  0  0
 26 27  1  0  0  0  0
 26 36  1  0  0  0  0
 27 28  1  0  0  0  0
 27 39  1  0  0  0  0
 28 29  1  0  0  0  0
 28 40  1  0  0  0  0
 29 42  1  0  0  0  0
 30 24  1  0  0  0  0
 30 31  2  0  0  0  0
 32 23  1  0  0  0  0
 35 25  1  0  0  0  0
 37 26  1  0  0  0  0
 38 27  1  0  0  0  0
 41 28  1  0  0  0  0
 43 29  1  0  0  0  0
 44 45  1  0  0  0  0
 45 47  1  0  0  0  0
 46 45  2  0  0  0  0
 47 55  1  0  0  0  0
 47 48  1  0  0  0  0
 48 49  1  0  0  0  0
 48 57  1  1  0  0  0
 49 30  1  0  0  0  0
 50 52  1  0  0  0  0
 50 48  1  0  0  0  0
 51 50  2  0  0  0  0
 53 44  1  0  0  0  0
 54 44  1  0  0  0  0
 56 47  1  0  0  0  0
 58 49  1  0  0  0  0
M  END
$$$$
