YKP.pdb
 OpenBabel07022419223D

 58 59  0  0  1  0  0  0  0  0999 V2000
    1.7390    2.4050    8.6500 O   0  0  0  0  0  0  0  0  0  0  0  0
    1.6880    1.9880    7.3200 C   0  0  0  0  0  0  0  0  0  0  0  0
    2.7650    1.3470    6.7430 C   0  0  0  0  0  0  0  0  0  0  0  0
    2.7380    0.9250    5.4240 C   0  0  0  0  0  0  0  0  0  0  0  0
    1.6310    1.1270    4.6280 C   0  0  0  0  0  0  0  0  0  0  0  0
    1.6210    0.6660    3.2140 C   0  0  0  0  0  0  0  0  0  0  0  0
    1.0820   -0.7480    3.2170 C   0  0  2  0  0  0  0  0  0  0  0  0
    1.9720   -1.5480    4.0360 N   0  0  0  0  0  0  0  0  0  0  0  0
    0.9550   -1.3200    1.8750 C   0  0  0  0  0  0  0  0  0  0  0  0
    1.5930   -2.3750    1.5980 O   0  0  0  0  0  0  0  0  0  0  0  0
    0.5490    1.7730    5.2160 C   0  0  0  0  0  0  0  0  0  0  0  0
    0.5780    2.1930    6.5290 C   0  0  0  0  0  0  0  0  0  0  0  0
    1.0960    1.9850    9.3240 H   0  0  0  0  0  0  0  0  0  0  0  0
    3.6450    1.1880    7.3800 H   0  0  0  0  0  0  0  0  0  0  0  0
    3.6220    0.4180    5.0100 H   0  0  0  0  0  0  0  0  0  0  0  0
    2.6500    0.7320    2.8370 H   0  0  0  0  0  0  0  0  0  0  0  0
    0.9370    1.3450    2.6320 H   0  0  0  0  0  0  0  0  0  0  0  0
    0.1110   -0.7070    3.7680 H   0  0  0  0  0  0  0  0  0  0  0  0
    1.6400   -2.5350    4.1340 H   0  0  0  0  0  0  0  0  0  0  0  0
    2.9650   -1.4930    3.7150 H   0  0  0  0  0  0  0  0  0  0  0  0
   -0.3150    1.9240    4.5750 H   0  0  0  0  0  0  0  0  0  0  0  0
   -0.2680    2.6940    6.9750 H   0  0  0  0  0  0  0  0  0  0  0  0
    0.1620   -0.7790    0.8370 N   0  0  0  0  0  0  0  0  0  0  0  0
    0.0640   -1.3860   -0.4930 C   0  0  1  0  0  0  0  0  0  0  0  0
   -1.3300   -2.0500   -0.5070 C   0  0  0  0  0  0  0  0  0  0  0  0
   -2.3600   -1.0140   -0.3090 C   0  0  0  0  0  0  0  0  0  0  0  0
   -3.7830   -1.4570   -0.2990 C   0  0  0  0  0  0  0  0  0  0  0  0
   -4.2780   -2.1100   -1.5550 C   0  0  0  0  0  0  0  0  0  0  0  0
   -3.5660   -3.3190   -1.8820 N   0  0  0  0  0  0  0  0  0  0  0  0
    0.1940   -0.3610   -1.5520 C   0  0  0  0  0  0  0  0  0  0  0  0
    0.2490    0.8540   -1.1110 O   0  0  0  0  0  0  0  0  0  0  0  0
   -0.3630    0.0880    1.0120 H   0  0  0  0  0  0  0  0  0  0  0  0
    0.7880   -2.2020   -0.6150 H   0  0  0  0  0  0  0  0  0  0  0  0
   -1.3420   -2.7090    0.4250 H   0  0  0  0  0  0  0  0  0  0  0  0
   -1.4290   -2.7410   -1.3290 H   0  0  0  0  0  0  0  0  0  0  0  0
   -2.1860   -0.4980    0.6730 H   0  0  0  0  0  0  0  0  0  0  0  0
   -2.1990   -0.2270   -1.1020 H   0  0  0  0  0  0  0  0  0  0  0  0
   -3.9570   -2.1590    0.5710 H   0  0  0  0  0  0  0  0  0  0  0  0
   -4.4660   -0.5870   -0.0530 H   0  0  0  0  0  0  0  0  0  0  0  0
   -5.3430   -2.3890   -1.3940 H   0  0  0  0  0  0  0  0  0  0  0  0
   -4.2430   -1.3970   -2.4300 H   0  0  0  0  0  0  0  0  0  0  0  0
   -4.0170   -3.8290   -2.6610 H   0  0  0  0  0  0  0  0  0  0  0  0
   -3.4740   -3.9720   -1.0960 H   0  0  0  0  0  0  0  0  0  0  0  0
    0.2590   -0.6220   -2.9310 N   0  0  0  0  0  0  0  0  0  0  0  0
    0.3670    0.4770   -3.9130 C   0  0  0  0  0  0  0  0  0  0  0  0
    0.9450   -0.1750   -5.1240 C   0  0  0  0  0  0  0  0  0  0  0  0
    0.2110   -1.5040   -5.1220 C   0  0  0  0  0  0  0  0  0  0  0  0
    0.2560   -1.8620   -3.6380 C   0  0  1  0  0  0  0  0  0  0  0  0
    1.5150   -2.6340   -3.4510 C   0  0  0  0  0  0  0  0  0  0  0  0
    2.4370   -2.1410   -2.7790 O   0  0  0  0  0  0  0  0  0  0  0  0
    1.6830   -3.8850   -4.0070 O   0  0  0  0  0  0  0  0  0  0  0  0
    1.0580    1.2320   -3.4970 H   0  0  0  0  0  0  0  0  0  0  0  0
   -0.6600    0.8520   -4.0370 H   0  0  0  0  0  0  0  0  0  0  0  0
    0.7400    0.4200   -6.0340 H   0  0  0  0  0  0  0  0  0  0  0  0
    2.0200   -0.3450   -4.9560 H   0  0  0  0  0  0  0  0  0  0  0  0
   -0.8310   -1.2960   -5.4410 H   0  0  0  0  0  0  0  0  0  0  0  0
    0.7330   -2.2450   -5.7300 H   0  0  0  0  0  0  0  0  0  0  0  0
   -0.6190   -2.5120   -3.4820 H   0  0  0  0  0  0  0  0  0  0  0  0
  1 13  1  0  0  0  0
  2  1  1  0  0  0  0
  3  2  1  0  0  0  0
  3 14  1  0  0  0  0
  4  3  2  0  0  0  0
  5 11  2  0  0  0  0
  5  4  1  0  0  0  0
  6  7  1  0  0  0  0
  6  5  1  0  0  0  0
  7 18  1  1  0  0  0
  7  8  1  0  0  0  0
  8 19  1  0  0  0  0
  9  7  1  0  0  0  0
 10  9  2  0  0  0  0
 11 12  1  0  0  0  0
 12 22  1  0  0  0  0
 12  2  2  0  0  0  0
 15  4  1  0  0  0  0
 16  6  1  0  0  0  0
 17  6  1  0  0  0  0
 20  8  1  0  0  0  0
 21 11  1  0  0  0  0
 23 32  1  0  0  0  0
 23  9  1  0  0  0  0
 24 33  1  6  0  0  0
 24 23  1  0  0  0  0
 25 24  1  0  0  0  0
 25 26  1  0  0  0  0
 25 34  1  0  0  0  0
 26 27  1  0  0  0  0
 26 36  1  0  0  0  0
 27 39  1  0  0  0  0
 27 38  1  0  0  0  0
 28 40  1  0  0  0  0
 28 27  1  0  0  0  0
 29 28  1  0  0  0  0
 29 43  1  0  0  0  0
 30 31  2  0  0  0  0
 30 24  1  0  0  0  0
 35 25  1  0  0  0  0
 37 26  1  0  0  0  0
 41 28  1  0  0  0  0
 42 29  1  0  0  0  0
 44 30  1  0  0  0  0
 45 52  1  0  0  0  0
 45 44  1  0  0  0  0
 46 47  1  0  0  0  0
 46 55  1  0  0  0  0
 46 45  1  0  0  0  0
 47 48  1  0  0  0  0
 48 58  1  1  0  0  0
 48 49  1  0  0  0  0
 48 44  1  0  0  0  0
 49 50  1  0  0  0  0
 51 49  2  0  0  0  0
 53 45  1  0  0  0  0
 54 46  1  0  0  0  0
 56 47  1  0  0  0  0
 57 47  1  0  0  0  0
M  END
$$$$
