YKR.pdb
 OpenBabel07022419223D

 67 67  0  0  1  0  0  0  0  0999 V2000
   -0.4580   -0.7910    5.5000 O   0  0  0  0  0  0  0  0  0  0  0  0
    0.4390   -0.3920    4.5180 C   0  0  0  0  0  0  0  0  0  0  0  0
    1.5850   -1.1230    4.3110 C   0  0  0  0  0  0  0  0  0  0  0  0
    2.4720   -0.7340    3.3450 C   0  0  0  0  0  0  0  0  0  0  0  0
    2.2170    0.4060    2.5680 C   0  0  0  0  0  0  0  0  0  0  0  0
    3.2270    0.8110    1.5790 C   0  0  0  0  0  0  0  0  0  0  0  0
    3.1710    0.1700    0.2430 C   0  0  2  0  0  0  0  0  0  0  0  0
    4.3370    0.8000   -0.4820 N   0  0  0  0  0  0  0  0  0  0  0  0
    1.9930    0.3840   -0.5860 C   0  0  0  0  0  0  0  0  0  0  0  0
    1.9550    1.3190   -1.4730 O   0  0  0  0  0  0  0  0  0  0  0  0
    1.0730    1.1220    2.7860 C   0  0  0  0  0  0  0  0  0  0  0  0
    0.1910    0.7280    3.7530 C   0  0  0  0  0  0  0  0  0  0  0  0
   -1.4240   -0.5420    5.3610 H   0  0  0  0  0  0  0  0  0  0  0  0
    1.7490   -2.0010    4.9330 H   0  0  0  0  0  0  0  0  0  0  0  0
    3.3840   -1.2930    3.1620 H   0  0  0  0  0  0  0  0  0  0  0  0
    3.1990    1.9160    1.4160 H   0  0  0  0  0  0  0  0  0  0  0  0
    4.2330    0.5770    2.0080 H   0  0  0  0  0  0  0  0  0  0  0  0
    3.4690   -0.8930    0.3440 H   0  0  0  0  0  0  0  0  0  0  0  0
    5.1640    0.4250    0.0290 H   0  0  0  0  0  0  0  0  0  0  0  0
    4.3810    0.4060   -1.4430 H   0  0  0  0  0  0  0  0  0  0  0  0
    0.8880    1.9940    2.1840 H   0  0  0  0  0  0  0  0  0  0  0  0
   -0.7400    1.2620    3.9740 H   0  0  0  0  0  0  0  0  0  0  0  0
    0.8200   -0.4030   -0.5010 N   0  0  0  0  0  0  0  0  0  0  0  0
   -0.3130   -0.1560   -1.3920 C   0  0  1  0  0  0  0  0  0  0  0  0
   -0.4980   -1.4100   -2.2310 C   0  0  0  0  0  0  0  0  0  0  0  0
    0.6480   -1.7880   -3.0840 C   0  0  0  0  0  0  0  0  0  0  0  0
    1.0520   -0.8210   -4.1400 C   0  0  0  0  0  0  0  0  0  0  0  0
   -0.0600   -0.5390   -5.1350 C   0  0  0  0  0  0  0  0  0  0  0  0
    0.4610    0.4100   -6.1020 N   0  0  0  0  0  0  0  0  0  0  0  0
   -1.5620    0.2020   -0.7000 C   0  0  0  0  0  0  0  0  0  0  0  0
   -2.5920    0.5820   -1.3640 O   0  0  0  0  0  0  0  0  0  0  0  0
    0.7690   -1.1660    0.2080 H   0  0  0  0  0  0  0  0  0  0  0  0
   -0.0670    0.6710   -2.0790 H   0  0  0  0  0  0  0  0  0  0  0  0
   -1.3990   -1.2020   -2.8600 H   0  0  0  0  0  0  0  0  0  0  0  0
   -0.7900   -2.2240   -1.5600 H   0  0  0  0  0  0  0  0  0  0  0  0
    0.3830   -2.7470   -3.6210 H   0  0  0  0  0  0  0  0  0  0  0  0
    1.5570   -2.0470   -2.5000 H   0  0  0  0  0  0  0  0  0  0  0  0
    1.8410   -1.3530   -4.7570 H   0  0  0  0  0  0  0  0  0  0  0  0
    1.5430    0.0990   -3.8110 H   0  0  0  0  0  0  0  0  0  0  0  0
   -0.2840   -1.4750   -5.6520 H   0  0  0  0  0  0  0  0  0  0  0  0
   -0.9370   -0.0690   -4.6560 H   0  0  0  0  0  0  0  0  0  0  0  0
    0.6340   -0.0410   -7.0260 H   0  0  0  0  0  0  0  0  0  0  0  0
   -0.1720    1.2400   -6.2090 H   0  0  0  0  0  0  0  0  0  0  0  0
    0.1290   -4.3330    2.9710 N   0  0  0  0  0  0  0  0  0  0  0  0
   -0.5600   -3.6470    1.9330 C   0  0  0  0  0  0  0  0  0  0  0  0
   -0.1770   -3.7330    0.7090 N   0  0  0  0  0  0  0  0  0  0  0  0
   -1.6970   -2.8480    2.2200 N   0  0  0  0  0  0  0  0  0  0  0  0
   -2.7350   -2.6230    1.2160 C   0  0  0  0  0  0  0  0  0  0  0  0
   -3.8440   -1.8080    1.7690 C   0  0  0  0  0  0  0  0  0  0  0  0
   -3.5440   -0.4510    2.2650 C   0  0  0  0  0  0  0  0  0  0  0  0
   -3.0270    0.5570    1.3060 C   0  0  2  0  0  0  0  0  0  0  0  0
   -1.7700    0.1710    0.7140 N   0  0  0  0  0  0  0  0  0  0  0  0
   -2.9380    1.9160    1.9200 C   0  0  0  0  0  0  0  0  0  0  0  0
   -3.9200    2.4030    2.5000 O   0  0  0  0  0  0  0  0  0  0  0  0
   -1.7610    2.6100    1.8320 O   0  0  0  0  0  0  0  0  0  0  0  0
    0.1040   -5.3580    3.0710 H   0  0  0  0  0  0  0  0  0  0  0  0
    0.6830   -3.7850    3.6610 H   0  0  0  0  0  0  0  0  0  0  0  0
    0.6720   -4.3340    0.4930 H   0  0  0  0  0  0  0  0  0  0  0  0
   -1.8150   -2.4080    3.1480 H   0  0  0  0  0  0  0  0  0  0  0  0
   -3.1660   -3.6670    1.0550 H   0  0  0  0  0  0  0  0  0  0  0  0
   -2.3460   -2.3440    0.2380 H   0  0  0  0  0  0  0  0  0  0  0  0
   -4.2790   -2.3850    2.6270 H   0  0  0  0  0  0  0  0  0  0  0  0
   -4.6940   -1.7220    1.0340 H   0  0  0  0  0  0  0  0  0  0  0  0
   -4.5140   -0.0720    2.7340 H   0  0  0  0  0  0  0  0  0  0  0  0
   -2.8470   -0.5600    3.1600 H   0  0  0  0  0  0  0  0  0  0  0  0
   -3.8060    0.6370    0.4740 H   0  0  0  0  0  0  0  0  0  0  0  0
   -0.9580   -0.1580    1.2770 H   0  0  0  0  0  0  0  0  0  0  0  0
  2  1  1  0  0  0  0
  3  2  1  0  0  0  0
  3 14  1  0  0  0  0
  4  3  2  0  0  0  0
  5 11  2  0  0  0  0
  5  4  1  0  0  0  0
  6 17  1  0  0  0  0
  6  5  1  0  0  0  0
  7 18  1  1  0  0  0
  7  6  1  0  0  0  0
  8 19  1  0  0  0  0
  8  7  1  0  0  0  0
  9 23  1  0  0  0  0
  9  7  1  0  0  0  0
 10  9  2  0  0  0  0
 11 12  1  0  0  0  0
 12 22  1  0  0  0  0
 12  2  2  0  0  0  0
 13  1  1  0  0  0  0
 15  4  1  0  0  0  0
 16  6  1  0  0  0  0
 20  8  1  0  0  0  0
 21 11  1  0  0  0  0
 23 32  1  0  0  0  0
 24 33  1  6  0  0  0
 24 30  1  0  0  0  0
 24 23  1  0  0  0  0
 25 35  1  0  0  0  0
 25 24  1  0  0  0  0
 26 37  1  0  0  0  0
 26 25  1  0  0  0  0
 27 39  1  0  0  0  0
 27 26  1  0  0  0  0
 28 41  1  0  0  0  0
 28 27  1  0  0  0  0
 29 28  1  0  0  0  0
 30 52  1  0  0  0  0
 31 30  2  0  0  0  0
 34 25  1  0  0  0  0
 36 26  1  0  0  0  0
 38 27  1  0  0  0  0
 40 28  1  0  0  0  0
 42 29  1  0  0  0  0
 43 29  1  0  0  0  0
 44 56  1  0  0  0  0
 44 57  1  0  0  0  0
 45 47  1  0  0  0  0
 45 44  1  0  0  0  0
 46 45  2  0  0  0  0
 47 59  1  0  0  0  0
 48 49  1  0  0  0  0
 48 47  1  0  0  0  0
 49 50  1  0  0  0  0
 49 62  1  0  0  0  0
 50 64  1  0  0  0  0
 50 65  1  0  0  0  0
 51 66  1  6  0  0  0
 51 53  1  0  0  0  0
 51 50  1  0  0  0  0
 52 67  1  0  0  0  0
 52 51  1  0  0  0  0
 53 54  1  0  0  0  0
 55 53  2  0  0  0  0
 58 46  1  0  0  0  0
 60 48  1  0  0  0  0
 61 48  1  0  0  0  0
 63 49  1  0  0  0  0
M  END
$$$$
