YKS.pdb
 OpenBabel07022419223D

 55 55  0  0  1  0  0  0  0  0999 V2000
   -0.2490   -1.0320    7.5360 O   0  0  0  0  0  0  0  0  0  0  0  0
    0.6360   -0.7840    6.4830 C   0  0  0  0  0  0  0  0  0  0  0  0
    1.8330   -1.4800    6.4090 C   0  0  0  0  0  0  0  0  0  0  0  0
    2.6820   -1.2110    5.3580 C   0  0  0  0  0  0  0  0  0  0  0  0
    2.3800   -0.2690    4.3740 C   0  0  0  0  0  0  0  0  0  0  0  0
    3.3310   -0.0210    3.2800 C   0  0  0  0  0  0  0  0  0  0  0  0
    3.0900   -0.9350    2.1280 C   0  0  2  0  0  0  0  0  0  0  0  0
    4.0880   -0.5990    1.1030 N   0  0  0  0  0  0  0  0  0  0  0  0
    1.7430   -0.8690    1.5390 C   0  0  0  0  0  0  0  0  0  0  0  0
    0.7430   -1.1700    2.2660 O   0  0  0  0  0  0  0  0  0  0  0  0
    1.1800    0.4190    4.4620 C   0  0  0  0  0  0  0  0  0  0  0  0
    0.3380    0.1450    5.5130 C   0  0  0  0  0  0  0  0  0  0  0  0
   -1.1750   -0.6460    7.4850 H   0  0  0  0  0  0  0  0  0  0  0  0
    2.0940   -2.2180    7.1600 H   0  0  0  0  0  0  0  0  0  0  0  0
    3.6180   -1.7280    5.2650 H   0  0  0  0  0  0  0  0  0  0  0  0
    4.3500   -0.2680    3.6770 H   0  0  0  0  0  0  0  0  0  0  0  0
    3.2880    1.0580    3.0010 H   0  0  0  0  0  0  0  0  0  0  0  0
    3.3060   -1.9670    2.4470 H   0  0  0  0  0  0  0  0  0  0  0  0
    3.9770   -1.2770    0.3100 H   0  0  0  0  0  0  0  0  0  0  0  0
    3.9670    0.3860    0.7830 H   0  0  0  0  0  0  0  0  0  0  0  0
    0.9250    1.1590    3.7060 H   0  0  0  0  0  0  0  0  0  0  0  0
   -0.5940    0.6910    5.5670 H   0  0  0  0  0  0  0  0  0  0  0  0
    1.4600   -0.4950    0.2200 N   0  0  0  0  0  0  0  0  0  0  0  0
    0.0960   -0.4360   -0.3490 C   0  0  1  0  0  0  0  0  0  0  0  0
   -0.1490    1.0150   -0.6750 C   0  0  0  0  0  0  0  0  0  0  0  0
   -1.4750    1.3220   -1.2610 C   0  0  0  0  0  0  0  0  0  0  0  0
   -2.6320    0.9390   -0.3730 C   0  0  0  0  0  0  0  0  0  0  0  0
   -3.9390    1.2800   -1.0360 C   0  0  0  0  0  0  0  0  0  0  0  0
   -4.1370    0.6130   -2.2850 N   0  0  0  0  0  0  0  0  0  0  0  0
    0.1060   -1.3320   -1.5180 C   0  0  0  0  0  0  0  0  0  0  0  0
    1.2100   -1.8640   -1.8990 O   0  0  0  0  0  0  0  0  0  0  0  0
    2.2330   -0.2380   -0.4210 H   0  0  0  0  0  0  0  0  0  0  0  0
   -0.6380   -0.7290    0.4220 H   0  0  0  0  0  0  0  0  0  0  0  0
   -0.0930    1.5520    0.3160 H   0  0  0  0  0  0  0  0  0  0  0  0
    0.6790    1.4320   -1.2940 H   0  0  0  0  0  0  0  0  0  0  0  0
   -1.6280    0.9960   -2.2980 H   0  0  0  0  0  0  0  0  0  0  0  0
   -1.5320    2.4610   -1.3140 H   0  0  0  0  0  0  0  0  0  0  0  0
   -2.5870    1.5630    0.5660 H   0  0  0  0  0  0  0  0  0  0  0  0
   -2.6350   -0.1110   -0.0710 H   0  0  0  0  0  0  0  0  0  0  0  0
   -4.7710    0.9530   -0.3540 H   0  0  0  0  0  0  0  0  0  0  0  0
   -4.0740    2.3710   -1.1570 H   0  0  0  0  0  0  0  0  0  0  0  0
   -3.5260    0.9170   -3.0500 H   0  0  0  0  0  0  0  0  0  0  0  0
   -4.1840   -0.4100   -2.2000 H   0  0  0  0  0  0  0  0  0  0  0  0
   -1.3110   -4.4470   -1.9790 O   0  0  0  0  0  0  0  0  0  0  0  0
   -1.7760   -3.8090   -3.1060 C   0  0  0  0  0  0  0  0  0  0  0  0
   -0.9280   -2.5800   -3.4490 C   0  0  2  0  0  0  0  0  0  0  0  0
   -1.0130   -1.6940   -2.3080 N   0  0  0  0  0  0  0  0  0  0  0  0
   -1.4660   -1.9750   -4.6820 C   0  0  0  0  0  0  0  0  0  0  0  0
   -1.9430   -0.8200   -4.7270 O   0  0  0  0  0  0  0  0  0  0  0  0
   -1.4440   -2.7170   -5.8470 O   0  0  0  0  0  0  0  0  0  0  0  0
   -0.8160   -5.2920   -2.2140 H   0  0  0  0  0  0  0  0  0  0  0  0
   -1.7450   -4.5240   -3.9780 H   0  0  0  0  0  0  0  0  0  0  0  0
   -2.8340   -3.5490   -2.9570 H   0  0  0  0  0  0  0  0  0  0  0  0
    0.0770   -2.9430   -3.6470 H   0  0  0  0  0  0  0  0  0  0  0  0
   -1.9360   -1.3050   -2.0340 H   0  0  0  0  0  0  0  0  0  0  0  0
  2  1  1  0  0  0  0
  3  2  1  0  0  0  0
  3 14  1  0  0  0  0
  4  3  2  0  0  0  0
  5 11  2  0  0  0  0
  5  4  1  0  0  0  0
  6 16  1  0  0  0  0
  6  5  1  0  0  0  0
  7 18  1  1  0  0  0
  7  6  1  0  0  0  0
  8  7  1  0  0  0  0
  9  7  1  0  0  0  0
  9 10  2  0  0  0  0
 11 12  1  0  0  0  0
 12 22  1  0  0  0  0
 12  2  2  0  0  0  0
 13  1  1  0  0  0  0
 15  4  1  0  0  0  0
 17  6  1  0  0  0  0
 19  8  1  0  0  0  0
 20  8  1  0  0  0  0
 21 11  1  0  0  0  0
 23  9  1  0  0  0  0
 24 23  1  0  0  0  0
 24 33  1  1  0  0  0
 25 24  1  0  0  0  0
 25 34  1  0  0  0  0
 26 25  1  0  0  0  0
 26 27  1  0  0  0  0
 27 39  1  0  0  0  0
 27 38  1  0  0  0  0
 28 27  1  0  0  0  0
 28 40  1  0  0  0  0
 29 43  1  0  0  0  0
 29 28  1  0  0  0  0
 30 24  1  0  0  0  0
 31 30  2  0  0  0  0
 32 23  1  0  0  0  0
 35 25  1  0  0  0  0
 36 26  1  0  0  0  0
 37 26  1  0  0  0  0
 41 28  1  0  0  0  0
 42 29  1  0  0  0  0
 45 53  1  0  0  0  0
 45 44  1  0  0  0  0
 46 54  1  6  0  0  0
 46 45  1  0  0  0  0
 46 47  1  0  0  0  0
 47 55  1  0  0  0  0
 47 30  1  0  0  0  0
 48 46  1  0  0  0  0
 49 48  1  0  0  0  0
 50 48  2  0  0  0  0
 51 44  1  0  0  0  0
 52 45  1  0  0  0  0
M  END
$$$$
