YKT.pdb
 OpenBabel07022419223D

 58 58  0  0  1  0  0  0  0  0999 V2000
   -3.0890   -0.6050    4.7190 O   0  0  0  0  0  0  0  0  0  0  0  0
   -1.8760   -0.0020    4.4590 C   0  0  0  0  0  0  0  0  0  0  0  0
   -0.7590   -0.2520    5.2290 C   0  0  0  0  0  0  0  0  0  0  0  0
    0.4420    0.3630    4.9500 C   0  0  0  0  0  0  0  0  0  0  0  0
    0.5120    1.2240    3.8980 C   0  0  0  0  0  0  0  0  0  0  0  0
    1.7410    1.9270    3.5540 C   0  0  0  0  0  0  0  0  0  0  0  0
    2.6880    1.2170    2.6470 C   0  0  2  0  0  0  0  0  0  0  0  0
    3.8470    2.0670    2.4030 N   0  0  0  0  0  0  0  0  0  0  0  0
    2.0910    0.8670    1.3100 C   0  0  0  0  0  0  0  0  0  0  0  0
    2.4450    1.5030    0.2920 O   0  0  0  0  0  0  0  0  0  0  0  0
   -0.6110    1.4910    3.1040 C   0  0  0  0  0  0  0  0  0  0  0  0
   -1.7890    0.8760    3.3930 C   0  0  0  0  0  0  0  0  0  0  0  0
   -3.1930   -1.5610    4.9710 H   0  0  0  0  0  0  0  0  0  0  0  0
   -0.8310   -0.9420    6.0660 H   0  0  0  0  0  0  0  0  0  0  0  0
    1.3360    0.1680    5.5620 H   0  0  0  0  0  0  0  0  0  0  0  0
    1.5360    2.9290    3.0860 H   0  0  0  0  0  0  0  0  0  0  0  0
    2.2910    2.1140    4.5220 H   0  0  0  0  0  0  0  0  0  0  0  0
    3.0590    0.3040    3.1500 H   0  0  0  0  0  0  0  0  0  0  0  0
    4.4080    1.6020    1.6320 H   0  0  0  0  0  0  0  0  0  0  0  0
    4.4770    1.9670    3.2550 H   0  0  0  0  0  0  0  0  0  0  0  0
   -0.5560    2.1770    2.2650 H   0  0  0  0  0  0  0  0  0  0  0  0
   -2.6840    1.0550    2.8000 H   0  0  0  0  0  0  0  0  0  0  0  0
    1.1390   -0.1690    1.1780 N   0  0  0  0  0  0  0  0  0  0  0  0
    0.4640   -0.6070    0.0050 C   0  0  1  0  0  0  0  0  0  0  0  0
    0.4300    0.2790   -1.1780 C   0  0  0  0  0  0  0  0  0  0  0  0
   -0.2510    1.5800   -1.0750 C   0  0  0  0  0  0  0  0  0  0  0  0
   -1.7210    1.4950   -0.7350 C   0  0  0  0  0  0  0  0  0  0  0  0
   -2.5050    0.7200   -1.7640 C   0  0  0  0  0  0  0  0  0  0  0  0
   -2.4440    1.2830   -3.0730 N   0  0  0  0  0  0  0  0  0  0  0  0
    0.7830   -1.9950   -0.3870 C   0  0  0  0  0  0  0  0  0  0  0  0
    1.6620   -2.6560    0.2900 O   0  0  0  0  0  0  0  0  0  0  0  0
    0.9370   -0.6730    2.1180 H   0  0  0  0  0  0  0  0  0  0  0  0
   -0.6610   -0.5800    0.3410 H   0  0  0  0  0  0  0  0  0  0  0  0
    0.0090   -0.2870   -2.0450 H   0  0  0  0  0  0  0  0  0  0  0  0
    1.4900    0.4790   -1.5150 H   0  0  0  0  0  0  0  0  0  0  0  0
   -0.2430    2.0210   -2.1210 H   0  0  0  0  0  0  0  0  0  0  0  0
    0.1720    2.3500   -0.4450 H   0  0  0  0  0  0  0  0  0  0  0  0
   -1.9220    1.1160    0.2830 H   0  0  0  0  0  0  0  0  0  0  0  0
   -2.1020    2.5370   -0.7590 H   0  0  0  0  0  0  0  0  0  0  0  0
   -2.0970   -0.3320   -1.7520 H   0  0  0  0  0  0  0  0  0  0  0  0
   -3.5700    0.6140   -1.4770 H   0  0  0  0  0  0  0  0  0  0  0  0
   -1.6420    0.8450   -3.5790 H   0  0  0  0  0  0  0  0  0  0  0  0
   -3.2880    1.1090   -3.6560 H   0  0  0  0  0  0  0  0  0  0  0  0
   -0.9430   -5.1100   -0.1680 C   0  0  0  0  0  0  0  0  0  0  0  0
   -0.5440   -5.0290   -1.6060 C   0  0  1  0  0  0  0  0  0  0  0  0
   -1.5960   -4.7490   -2.4570 O   0  0  0  0  0  0  0  0  0  0  0  0
    0.5990   -4.0480   -1.7480 C   0  0  2  0  0  0  0  0  0  0  0  0
    0.2040   -2.6990   -1.4630 N   0  0  0  0  0  0  0  0  0  0  0  0
    1.2140   -4.1420   -3.0950 C   0  0  0  0  0  0  0  0  0  0  0  0
    1.3070   -3.0940   -3.7790 O   0  0  0  0  0  0  0  0  0  0  0  0
    1.6920   -5.3210   -3.6430 O   0  0  0  0  0  0  0  0  0  0  0  0
   -0.0220   -5.2180    0.4390 H   0  0  0  0  0  0  0  0  0  0  0  0
   -1.6040   -5.9800    0.0500 H   0  0  0  0  0  0  0  0  0  0  0  0
   -1.4790   -4.2160    0.1950 H   0  0  0  0  0  0  0  0  0  0  0  0
   -0.1370   -6.0260   -1.8960 H   0  0  0  0  0  0  0  0  0  0  0  0
   -1.4510   -5.1150   -3.3730 H   0  0  0  0  0  0  0  0  0  0  0  0
    1.3630   -4.3620   -1.0200 H   0  0  0  0  0  0  0  0  0  0  0  0
   -0.5250   -2.1880   -2.0310 H   0  0  0  0  0  0  0  0  0  0  0  0
  1 13  1  0  0  0  0
  2  1  1  0  0  0  0
  2  3  1  0  0  0  0
  3 14  1  0  0  0  0
  4  3  2  0  0  0  0
  4 15  1  0  0  0  0
  5  4  1  0  0  0  0
  6  5  1  0  0  0  0
  6 17  1  0  0  0  0
  7 18  1  1  0  0  0
  7  6  1  0  0  0  0
  8  7  1  0  0  0  0
  8 20  1  0  0  0  0
  9  7  1  0  0  0  0
 10  9  2  0  0  0  0
 11 12  1  0  0  0  0
 11  5  2  0  0  0  0
 12  2  2  0  0  0  0
 16  6  1  0  0  0  0
 19  8  1  0  0  0  0
 21 11  1  0  0  0  0
 22 12  1  0  0  0  0
 23  9  1  0  0  0  0
 23 32  1  0  0  0  0
 24 33  1  1  0  0  0
 24 23  1  0  0  0  0
 25 26  1  0  0  0  0
 25 24  1  0  0  0  0
 26 27  1  0  0  0  0
 26 37  1  0  0  0  0
 27 38  1  0  0  0  0
 28 40  1  0  0  0  0
 28 41  1  0  0  0  0
 28 27  1  0  0  0  0
 29 28  1  0  0  0  0
 30 24  1  0  0  0  0
 30 31  2  0  0  0  0
 34 25  1  0  0  0  0
 35 25  1  0  0  0  0
 36 26  1  0  0  0  0
 39 27  1  0  0  0  0
 42 29  1  0  0  0  0
 43 29  1  0  0  0  0
 44 53  1  0  0  0  0
 44 54  1  0  0  0  0
 44 52  1  0  0  0  0
 45 55  1  6  0  0  0
 45 44  1  0  0  0  0
 46 45  1  0  0  0  0
 47 45  1  0  0  0  0
 47 48  1  0  0  0  0
 47 57  1  1  0  0  0
 48 30  1  0  0  0  0
 49 47  1  0  0  0  0
 50 49  2  0  0  0  0
 51 49  1  0  0  0  0
 56 46  1  0  0  0  0
 58 48  1  0  0  0  0
M  END
$$$$
