YKW.pdb
 OpenBabel07022419223D

 68 70  0  0  1  0  0  0  0  0999 V2000
    0.6780   -1.7920    5.8850 O   0  0  0  0  0  0  0  0  0  0  0  0
    1.2760   -1.2420    4.7610 C   0  0  0  0  0  0  0  0  0  0  0  0
    2.3100   -0.3180    4.8800 C   0  0  0  0  0  0  0  0  0  0  0  0
    2.9000    0.2270    3.7700 C   0  0  0  0  0  0  0  0  0  0  0  0
    2.5020   -0.1110    2.4800 C   0  0  0  0  0  0  0  0  0  0  0  0
    3.2100    0.5160    1.3740 C   0  0  0  0  0  0  0  0  0  0  0  0
    2.7420    1.8260    0.8920 C   0  0  2  0  0  0  0  0  0  0  0  0
    2.7380    2.8950    1.8760 N   0  0  0  0  0  0  0  0  0  0  0  0
    1.6390    1.8700   -0.0660 C   0  0  0  0  0  0  0  0  0  0  0  0
    1.0910    3.0110   -0.2310 O   0  0  0  0  0  0  0  0  0  0  0  0
    1.4770   -1.0260    2.3640 C   0  0  0  0  0  0  0  0  0  0  0  0
    0.8870   -1.5710    3.4850 C   0  0  0  0  0  0  0  0  0  0  0  0
   -0.0140   -1.2500    6.3480 H   0  0  0  0  0  0  0  0  0  0  0  0
    2.6030   -0.0710    5.9060 H   0  0  0  0  0  0  0  0  0  0  0  0
    3.7060    0.9460    3.9140 H   0  0  0  0  0  0  0  0  0  0  0  0
    4.2920    0.6200    1.7000 H   0  0  0  0  0  0  0  0  0  0  0  0
    3.2750   -0.1910    0.4950 H   0  0  0  0  0  0  0  0  0  0  0  0
    3.6500    2.1870    0.2110 H   0  0  0  0  0  0  0  0  0  0  0  0
    3.7080    2.9460    2.2720 H   0  0  0  0  0  0  0  0  0  0  0  0
    2.5600    3.7910    1.3840 H   0  0  0  0  0  0  0  0  0  0  0  0
    1.1780   -1.3030    1.3770 H   0  0  0  0  0  0  0  0  0  0  0  0
    0.0870   -2.2800    3.3520 H   0  0  0  0  0  0  0  0  0  0  0  0
    1.1020    0.8290   -0.8350 N   0  0  0  0  0  0  0  0  0  0  0  0
    0.0260    1.0390   -1.7930 C   0  0  1  0  0  0  0  0  0  0  0  0
    0.3030    0.3640   -3.0850 C   0  0  0  0  0  0  0  0  0  0  0  0
   -0.7840    0.5840   -4.0730 C   0  0  0  0  0  0  0  0  0  0  0  0
   -0.6020   -0.0600   -5.4090 C   0  0  0  0  0  0  0  0  0  0  0  0
    0.5950    0.3250   -6.1900 C   0  0  0  0  0  0  0  0  0  0  0  0
    1.8490    0.0090   -5.5450 N   0  0  0  0  0  0  0  0  0  0  0  0
   -1.2710    0.7820   -1.1700 C   0  0  0  0  0  0  0  0  0  0  0  0
   -2.3720    1.1050   -1.7680 O   0  0  0  0  0  0  0  0  0  0  0  0
    1.4710   -0.1180   -0.7290 H   0  0  0  0  0  0  0  0  0  0  0  0
    0.0370    2.1590   -1.9850 H   0  0  0  0  0  0  0  0  0  0  0  0
    0.4910   -0.7270   -2.9980 H   0  0  0  0  0  0  0  0  0  0  0  0
    1.2210    0.8690   -3.5040 H   0  0  0  0  0  0  0  0  0  0  0  0
   -1.7840    0.2070   -3.7100 H   0  0  0  0  0  0  0  0  0  0  0  0
   -0.9620    1.6780   -4.2290 H   0  0  0  0  0  0  0  0  0  0  0  0
   -1.5170    0.2120   -6.0130 H   0  0  0  0  0  0  0  0  0  0  0  0
   -0.6650   -1.1800   -5.3540 H   0  0  0  0  0  0  0  0  0  0  0  0
    0.5780    1.3920   -6.5220 H   0  0  0  0  0  0  0  0  0  0  0  0
    0.5990   -0.2580   -7.1530 H   0  0  0  0  0  0  0  0  0  0  0  0
    1.8400   -1.0010   -5.2940 H   0  0  0  0  0  0  0  0  0  0  0  0
    2.6040    0.1360   -6.2610 H   0  0  0  0  0  0  0  0  0  0  0  0
   -1.4860    0.1780    0.1000 N   0  0  0  0  0  0  0  0  0  0  0  0
   -2.8430   -0.0140    0.6250 C   0  0  1  0  0  0  0  0  0  0  0  0
   -3.3410   -1.4000    0.2890 C   0  0  0  0  0  0  0  0  0  0  0  0
   -2.5560   -2.5220    0.7860 C   0  0  0  0  0  0  0  0  0  0  0  0
   -1.5670   -3.1320   -0.0020 C   0  0  0  0  0  0  0  0  0  0  0  0
   -1.0200   -4.0960    0.7450 N   0  0  0  0  0  0  0  0  0  0  0  0
   -1.6000   -4.1330    1.9520 C   0  0  0  0  0  0  0  0  0  0  0  0
   -1.3710   -4.9630    3.0430 C   0  0  0  0  0  0  0  0  0  0  0  0
   -2.1190   -4.7950    4.1660 C   0  0  0  0  0  0  0  0  0  0  0  0
   -3.1080   -3.8060    4.2320 C   0  0  0  0  0  0  0  0  0  0  0  0
   -3.3390   -2.9810    3.1570 C   0  0  0  0  0  0  0  0  0  0  0  0
   -2.5840   -3.1460    2.0190 C   0  0  0  0  0  0  0  0  0  0  0  0
   -2.9800    0.2760    2.0390 C   0  0  0  0  0  0  0  0  0  0  0  0
   -4.1050    0.2920    2.5820 O   0  0  0  0  0  0  0  0  0  0  0  0
   -1.8700    0.5440    2.8270 O   0  0  0  0  0  0  0  0  0  0  0  0
   -0.7000   -0.1340    0.6840 H   0  0  0  0  0  0  0  0  0  0  0  0
   -3.5350    0.7150    0.0670 H   0  0  0  0  0  0  0  0  0  0  0  0
   -4.4230   -1.5070    0.5900 H   0  0  0  0  0  0  0  0  0  0  0  0
   -3.3640   -1.4450   -0.8350 H   0  0  0  0  0  0  0  0  0  0  0  0
   -1.3170   -2.8580   -1.0170 H   0  0  0  0  0  0  0  0  0  0  0  0
   -0.2380   -4.7190    0.3820 H   0  0  0  0  0  0  0  0  0  0  0  0
   -0.5870   -5.7300    2.9640 H   0  0  0  0  0  0  0  0  0  0  0  0
   -1.9250   -5.4450    5.0010 H   0  0  0  0  0  0  0  0  0  0  0  0
   -3.6450   -3.7510    5.1590 H   0  0  0  0  0  0  0  0  0  0  0  0
   -4.1000   -2.2390    3.2030 H   0  0  0  0  0  0  0  0  0  0  0  0
  1 13  1  0  0  0  0
  2  3  1  0  0  0  0
  2  1  1  0  0  0  0
  3 14  1  0  0  0  0
  4 15  1  0  0  0  0
  4  3  2  0  0  0  0
  5  4  1  0  0  0  0
  6 16  1  0  0  0  0
  6  5  1  0  0  0  0
  7 18  1  6  0  0  0
  7  6  1  0  0  0  0
  7  8  1  0  0  0  0
  8 19  1  0  0  0  0
  9  7  1  0  0  0  0
 10  9  2  0  0  0  0
 11  5  2  0  0  0  0
 11 12  1  0  0  0  0
 12  2  2  0  0  0  0
 17  6  1  0  0  0  0
 20  8  1  0  0  0  0
 21 11  1  0  0  0  0
 22 12  1  0  0  0  0
 23 32  1  0  0  0  0
 23  9  1  0  0  0  0
 24 33  1  6  0  0  0
 24 30  1  0  0  0  0
 24 23  1  0  0  0  0
 25 34  1  0  0  0  0
 25 24  1  0  0  0  0
 26 36  1  0  0  0  0
 26 25  1  0  0  0  0
 27 39  1  0  0  0  0
 27 26  1  0  0  0  0
 28 29  1  0  0  0  0
 28 27  1  0  0  0  0
 29 42  1  0  0  0  0
 30 44  1  0  0  0  0
 31 30  2  0  0  0  0
 35 25  1  0  0  0  0
 37 26  1  0  0  0  0
 38 27  1  0  0  0  0
 40 28  1  0  0  0  0
 41 28  1  0  0  0  0
 43 29  1  0  0  0  0
 44 45  1  0  0  0  0
 44 59  1  0  0  0  0
 45 60  1  6  0  0  0
 45 56  1  0  0  0  0
 46 61  1  0  0  0  0
 46 45  1  0  0  0  0
 46 47  1  0  0  0  0
 47 55  1  0  0  0  0
 48 49  1  0  0  0  0
 48 47  2  0  0  0  0
 49 50  1  0  0  0  0
 50 55  2  0  0  0  0
 50 51  1  0  0  0  0
 51 52  2  0  0  0  0
 52 53  1  0  0  0  0
 52 66  1  0  0  0  0
 53 67  1  0  0  0  0
 54 68  1  0  0  0  0
 54 53  2  0  0  0  0
 55 54  1  0  0  0  0
 56 57  2  0  0  0  0
 56 58  1  0  0  0  0
 62 46  1  0  0  0  0
 63 48  1  0  0  0  0
 64 49  1  0  0  0  0
 65 51  1  0  0  0  0
M  END
$$$$
