YKY.pdb
 OpenBabel07022419223D

 65 66  0  0  1  0  0  0  0  0999 V2000
    2.0030   -2.0190    4.4840 O   0  0  0  0  0  0  0  0  0  0  0  0
    2.3970   -1.2130    3.4240 C   0  0  0  0  0  0  0  0  0  0  0  0
    3.1720   -1.6570    2.3770 C   0  0  0  0  0  0  0  0  0  0  0  0
    3.5290   -0.7930    1.3500 C   0  0  0  0  0  0  0  0  0  0  0  0
    3.1180    0.5170    1.3550 C   0  0  0  0  0  0  0  0  0  0  0  0
    3.5330    1.4560    0.3080 C   0  0  0  0  0  0  0  0  0  0  0  0
    2.6960    1.4470   -0.9450 C   0  0  2  0  0  0  0  0  0  0  0  0
    3.3370    2.4860   -1.8120 N   0  0  0  0  0  0  0  0  0  0  0  0
    1.3310    1.9100   -0.7430 C   0  0  0  0  0  0  0  0  0  0  0  0
    1.0960    3.1620   -0.7520 O   0  0  0  0  0  0  0  0  0  0  0  0
    2.3400    0.9450    2.4140 C   0  0  0  0  0  0  0  0  0  0  0  0
    1.9850    0.0910    3.4360 C   0  0  0  0  0  0  0  0  0  0  0  0
    2.1060   -3.0190    4.4450 H   0  0  0  0  0  0  0  0  0  0  0  0
    3.4820   -2.6940    2.3980 H   0  0  0  0  0  0  0  0  0  0  0  0
    4.1450   -1.2130    0.5530 H   0  0  0  0  0  0  0  0  0  0  0  0
    4.6240    1.2770    0.0470 H   0  0  0  0  0  0  0  0  0  0  0  0
    3.5290    2.5040    0.7480 H   0  0  0  0  0  0  0  0  0  0  0  0
    2.7840    0.4980   -1.4870 H   0  0  0  0  0  0  0  0  0  0  0  0
    3.0850    2.3110   -2.8070 H   0  0  0  0  0  0  0  0  0  0  0  0
    4.3870    2.4200   -1.6670 H   0  0  0  0  0  0  0  0  0  0  0  0
    1.9810    1.9810    2.4720 H   0  0  0  0  0  0  0  0  0  0  0  0
    1.3860    0.4880    4.2410 H   0  0  0  0  0  0  0  0  0  0  0  0
    0.1770    1.0720   -0.5360 N   0  0  0  0  0  0  0  0  0  0  0  0
   -1.1380    1.6320   -0.3680 C   0  0  1  0  0  0  0  0  0  0  0  0
   -1.7720    1.9740   -1.7040 C   0  0  0  0  0  0  0  0  0  0  0  0
   -1.9490    0.8530   -2.6470 C   0  0  0  0  0  0  0  0  0  0  0  0
   -2.8370   -0.2510   -2.1400 C   0  0  0  0  0  0  0  0  0  0  0  0
   -2.9700   -1.3480   -3.1790 C   0  0  0  0  0  0  0  0  0  0  0  0
   -3.5340   -0.8920   -4.4090 N   0  0  0  0  0  0  0  0  0  0  0  0
   -1.9680    0.9000    0.5330 C   0  0  0  0  0  0  0  0  0  0  0  0
   -3.1910    1.3120    0.6600 O   0  0  0  0  0  0  0  0  0  0  0  0
    0.3640    0.0520   -0.5200 H   0  0  0  0  0  0  0  0  0  0  0  0
   -0.9390    2.6690    0.0820 H   0  0  0  0  0  0  0  0  0  0  0  0
   -2.7350    2.5070   -1.5700 H   0  0  0  0  0  0  0  0  0  0  0  0
   -1.1000    2.7290   -2.2110 H   0  0  0  0  0  0  0  0  0  0  0  0
   -1.0010    0.3660   -2.9640 H   0  0  0  0  0  0  0  0  0  0  0  0
   -2.4150    1.1770   -3.6250 H   0  0  0  0  0  0  0  0  0  0  0  0
   -2.4450   -0.7590   -1.2390 H   0  0  0  0  0  0  0  0  0  0  0  0
   -3.8350    0.1600   -1.8930 H   0  0  0  0  0  0  0  0  0  0  0  0
   -3.6060   -2.1350   -2.7410 H   0  0  0  0  0  0  0  0  0  0  0  0
   -1.9720   -1.7840   -3.3620 H   0  0  0  0  0  0  0  0  0  0  0  0
   -4.2770   -0.1700   -4.2840 H   0  0  0  0  0  0  0  0  0  0  0  0
   -2.8250   -0.6520   -5.1240 H   0  0  0  0  0  0  0  0  0  0  0  0
    2.3060   -5.0360    1.5690 O   0  0  0  0  0  0  0  0  0  0  0  0
    1.0890   -4.3590    1.5560 C   0  0  0  0  0  0  0  0  0  0  0  0
    0.2790   -4.4150    2.6760 C   0  0  0  0  0  0  0  0  0  0  0  0
   -0.9400   -3.7670    2.7320 C   0  0  0  0  0  0  0  0  0  0  0  0
   -1.3680   -3.0390    1.6400 C   0  0  0  0  0  0  0  0  0  0  0  0
   -2.6650   -2.3240    1.6390 C   0  0  0  0  0  0  0  0  0  0  0  0
   -2.5060   -0.9090    2.1580 C   0  0  2  0  0  0  0  0  0  0  0  0
   -1.5730   -0.2260    1.2890 N   0  0  0  0  0  0  0  0  0  0  0  0
   -2.1480   -0.9090    3.5780 C   0  0  0  0  0  0  0  0  0  0  0  0
   -1.1530   -0.3800    4.0970 O   0  0  0  0  0  0  0  0  0  0  0  0
   -0.5580   -2.9910    0.5370 C   0  0  0  0  0  0  0  0  0  0  0  0
    0.6660   -3.6330    0.4620 C   0  0  0  0  0  0  0  0  0  0  0  0
   -3.0120   -1.5740    4.4580 O   0  0  0  0  0  0  0  0  0  0  0  0
    3.0620   -4.7860    0.9590 H   0  0  0  0  0  0  0  0  0  0  0  0
    0.6260   -4.9880    3.5230 H   0  0  0  0  0  0  0  0  0  0  0  0
   -1.5690   -3.8120    3.6050 H   0  0  0  0  0  0  0  0  0  0  0  0
   -3.0440   -2.3350    0.6040 H   0  0  0  0  0  0  0  0  0  0  0  0
   -3.3720   -2.9110    2.2760 H   0  0  0  0  0  0  0  0  0  0  0  0
   -3.5290   -0.4350    2.0330 H   0  0  0  0  0  0  0  0  0  0  0  0
   -0.6100   -0.5580    1.2140 H   0  0  0  0  0  0  0  0  0  0  0  0
   -0.9020   -2.4160   -0.3190 H   0  0  0  0  0  0  0  0  0  0  0  0
    1.2780   -3.5710   -0.4270 H   0  0  0  0  0  0  0  0  0  0  0  0
  2 12  1  0  0  0  0
  2  1  1  0  0  0  0
  3 14  1  0  0  0  0
  3  2  2  0  0  0  0
  4  5  2  0  0  0  0
  4  3  1  0  0  0  0
  5 11  1  0  0  0  0
  6 17  1  0  0  0  0
  6  5  1  0  0  0  0
  7 18  1  6  0  0  0
  7  9  1  0  0  0  0
  7  6  1  0  0  0  0
  8 20  1  0  0  0  0
  8  7  1  0  0  0  0
  9 23  1  0  0  0  0
 10  9  2  0  0  0  0
 11 21  1  0  0  0  0
 11 12  2  0  0  0  0
 12 22  1  0  0  0  0
 13  1  1  0  0  0  0
 15  4  1  0  0  0  0
 16  6  1  0  0  0  0
 19  8  1  0  0  0  0
 23 32  1  0  0  0  0
 23 24  1  0  0  0  0
 24 33  1  1  0  0  0
 24 30  1  0  0  0  0
 25 34  1  0  0  0  0
 25 24  1  0  0  0  0
 26 27  1  0  0  0  0
 26 25  1  0  0  0  0
 27 39  1  0  0  0  0
 27 38  1  0  0  0  0
 28 40  1  0  0  0  0
 28 27  1  0  0  0  0
 29 42  1  0  0  0  0
 29 28  1  0  0  0  0
 30 31  2  0  0  0  0
 30 51  1  0  0  0  0
 35 25  1  0  0  0  0
 36 26  1  0  0  0  0
 37 26  1  0  0  0  0
 41 28  1  0  0  0  0
 43 29  1  0  0  0  0
 45 44  1  0  0  0  0
 45 46  1  0  0  0  0
 46 47  2  0  0  0  0
 46 58  1  0  0  0  0
 47 59  1  0  0  0  0
 48 47  1  0  0  0  0
 49 48  1  0  0  0  0
 49 50  1  0  0  0  0
 49 61  1  0  0  0  0
 50 62  1  6  0  0  0
 50 52  1  0  0  0  0
 51 50  1  0  0  0  0
 52 53  2  0  0  0  0
 52 56  1  0  0  0  0
 54 48  2  0  0  0  0
 55 54  1  0  0  0  0
 55 45  2  0  0  0  0
 57 44  1  0  0  0  0
 60 49  1  0  0  0  0
 63 51  1  0  0  0  0
 64 54  1  0  0  0  0
 65 55  1  0  0  0  0
M  END
$$$$
