YLE.pdb
 OpenBabel07022419213D

 58 58  0  0  1  0  0  0  0  0999 V2000
    0.4500    0.3360    6.6720 O   0  0  0  0  0  0  0  0  0  0  0  0
    1.1380    0.1980    5.4930 C   0  0  0  0  0  0  0  0  0  0  0  0
    0.5400   -0.1990    4.3120 C   0  0  0  0  0  0  0  0  0  0  0  0
    1.2660   -0.3280    3.1360 C   0  0  0  0  0  0  0  0  0  0  0  0
    2.6180   -0.0630    3.1060 C   0  0  0  0  0  0  0  0  0  0  0  0
    3.3440   -0.2330    1.8180 C   0  0  0  0  0  0  0  0  0  0  0  0
    3.2680    1.0380    0.9870 C   0  0  2  0  0  0  0  0  0  0  0  0
    3.8490    2.1540    1.7090 N   0  0  0  0  0  0  0  0  0  0  0  0
    1.8620    1.2880    0.5780 C   0  0  0  0  0  0  0  0  0  0  0  0
    1.1860    2.2690    0.9540 O   0  0  0  0  0  0  0  0  0  0  0  0
    3.2320    0.3340    4.2730 C   0  0  0  0  0  0  0  0  0  0  0  0
    2.5030    0.4620    5.4450 C   0  0  0  0  0  0  0  0  0  0  0  0
   -0.4540    0.7700    6.6840 H   0  0  0  0  0  0  0  0  0  0  0  0
   -0.5230   -0.4030    4.3520 H   0  0  0  0  0  0  0  0  0  0  0  0
    0.7120   -0.6360    2.2610 H   0  0  0  0  0  0  0  0  0  0  0  0
    2.8730   -1.0750    1.2770 H   0  0  0  0  0  0  0  0  0  0  0  0
    4.4010   -0.4970    2.0170 H   0  0  0  0  0  0  0  0  0  0  0  0
    3.8560    0.8700    0.0640 H   0  0  0  0  0  0  0  0  0  0  0  0
    4.6300    1.8800    2.3130 H   0  0  0  0  0  0  0  0  0  0  0  0
    4.0130    2.9660    1.0970 H   0  0  0  0  0  0  0  0  0  0  0  0
    4.2970    0.5490    4.2770 H   0  0  0  0  0  0  0  0  0  0  0  0
    2.9860    0.7710    6.3490 H   0  0  0  0  0  0  0  0  0  0  0  0
   -2.2110    2.5100   -2.1030 C   0  0  0  0  0  0  0  0  0  0  0  0
   -1.3780    1.4450   -2.7900 C   0  0  0  0  0  0  0  0  0  0  0  0
   -2.2600    0.3770   -3.2960 C   0  0  0  0  0  0  0  0  0  0  0  0
   -0.1210    1.1070   -2.1270 C   0  0  0  0  0  0  0  0  0  0  0  0
   -0.1410    0.6030   -0.7020 C   0  0  2  0  0  0  0  0  0  0  0  0
    1.2620    0.3470   -0.2970 N   0  0  0  0  0  0  0  0  0  0  0  0
   -0.8820   -0.6420   -0.5130 C   0  0  0  0  0  0  0  0  0  0  0  0
   -2.1540   -0.5620   -0.6400 O   0  0  0  0  0  0  0  0  0  0  0  0
   -2.9330    2.8770   -2.8450 H   0  0  0  0  0  0  0  0  0  0  0  0
   -2.6390    2.0750   -1.2010 H   0  0  0  0  0  0  0  0  0  0  0  0
   -1.5060    3.3420   -1.8280 H   0  0  0  0  0  0  0  0  0  0  0  0
   -1.0370    2.0260   -3.7470 H   0  0  0  0  0  0  0  0  0  0  0  0
   -1.8200   -0.6360   -3.2920 H   0  0  0  0  0  0  0  0  0  0  0  0
   -3.2730    0.4430   -2.8340 H   0  0  0  0  0  0  0  0  0  0  0  0
   -2.4710    0.5800   -4.4000 H   0  0  0  0  0  0  0  0  0  0  0  0
    0.3610    0.2690   -2.7180 H   0  0  0  0  0  0  0  0  0  0  0  0
    0.6080    1.9430   -2.2440 H   0  0  0  0  0  0  0  0  0  0  0  0
   -0.5610    1.4280   -0.0880 H   0  0  0  0  0  0  0  0  0  0  0  0
    1.8040   -0.4730   -0.6310 H   0  0  0  0  0  0  0  0  0  0  0  0
   -0.3470   -1.9160   -0.2100 N   0  0  0  0  0  0  0  0  0  0  0  0
   -1.1670   -3.1090   -0.0500 C   0  0  1  0  0  0  0  0  0  0  0  0
   -0.9690   -4.0670   -1.1850 C   0  0  0  0  0  0  0  0  0  0  0  0
   -1.8060   -5.2980   -1.0280 C   0  0  0  0  0  0  0  0  0  0  0  0
   -3.2580   -5.0410   -1.0020 C   0  0  0  0  0  0  0  0  0  0  0  0
   -4.1020   -5.9130   -0.6550 O   0  0  0  0  0  0  0  0  0  0  0  0
   -1.0010   -3.7070    1.2910 C   0  0  0  0  0  0  0  0  0  0  0  0
   -0.1750   -3.1850    2.0800 O   0  0  0  0  0  0  0  0  0  0  0  0
   -3.7460   -3.8110   -1.3660 O   0  0  0  0  0  0  0  0  0  0  0  0
   -1.6810   -4.8080    1.7790 O   0  0  0  0  0  0  0  0  0  0  0  0
    0.6720   -2.0170   -0.0930 H   0  0  0  0  0  0  0  0  0  0  0  0
   -2.2100   -2.7380   -0.1230 H   0  0  0  0  0  0  0  0  0  0  0  0
    0.0780   -4.3920   -1.3170 H   0  0  0  0  0  0  0  0  0  0  0  0
   -1.2890   -3.5430   -2.1280 H   0  0  0  0  0  0  0  0  0  0  0  0
   -1.6610   -5.9910   -1.9280 H   0  0  0  0  0  0  0  0  0  0  0  0
   -1.4540   -5.9490   -0.1880 H   0  0  0  0  0  0  0  0  0  0  0  0
   -4.6690   -3.5130   -1.1110 H   0  0  0  0  0  0  0  0  0  0  0  0
  1 13  1  0  0  0  0
  2  1  1  0  0  0  0
  3 14  1  0  0  0  0
  3  2  2  0  0  0  0
  4  3  1  0  0  0  0
  5  4  2  0  0  0  0
  5 11  1  0  0  0  0
  6 17  1  0  0  0  0
  6  5  1  0  0  0  0
  7 18  1  6  0  0  0
  7  8  1  0  0  0  0
  7  6  1  0  0  0  0
  8 19  1  0  0  0  0
  9 10  2  0  0  0  0
  9  7  1  0  0  0  0
 11 21  1  0  0  0  0
 11 12  2  0  0  0  0
 12  2  1  0  0  0  0
 12 22  1  0  0  0  0
 15  4  1  0  0  0  0
 16  6  1  0  0  0  0
 20  8  1  0  0  0  0
 23 33  1  0  0  0  0
 23 32  1  0  0  0  0
 24 26  1  0  0  0  0
 24 23  1  0  0  0  0
 25 35  1  0  0  0  0
 25 36  1  0  0  0  0
 25 24  1  0  0  0  0
 26 27  1  0  0  0  0
 27 29  1  0  0  0  0
 27 28  1  0  0  0  0
 27 40  1  1  0  0  0
 28  9  1  0  0  0  0
 29 42  1  0  0  0  0
 30 29  2  0  0  0  0
 31 23  1  0  0  0  0
 34 24  1  0  0  0  0
 37 25  1  0  0  0  0
 38 26  1  0  0  0  0
 39 26  1  0  0  0  0
 41 28  1  0  0  0  0
 42 52  1  0  0  0  0
 42 43  1  0  0  0  0
 43 53  1  6  0  0  0
 43 48  1  0  0  0  0
 44 45  1  0  0  0  0
 44 43  1  0  0  0  0
 45 46  1  0  0  0  0
 45 57  1  0  0  0  0
 46 47  2  0  0  0  0
 48 51  2  0  0  0  0
 48 49  1  0  0  0  0
 50 58  1  0  0  0  0
 50 46  1  0  0  0  0
 54 44  1  0  0  0  0
 55 44  1  0  0  0  0
 56 45  1  0  0  0  0
M  END
$$$$
