YLG.pdb
 OpenBabel07022419213D

 49 49  0  0  1  0  0  0  0  0999 V2000
    3.8110   -1.2650    5.2390 O   0  0  0  0  0  0  0  0  0  0  0  0
    3.5530   -1.6210    3.9170 C   0  0  0  0  0  0  0  0  0  0  0  0
    2.3980   -2.2980    3.5850 C   0  0  0  0  0  0  0  0  0  0  0  0
    2.1230   -2.6600    2.2830 C   0  0  0  0  0  0  0  0  0  0  0  0
    2.9950   -2.3610    1.2470 C   0  0  0  0  0  0  0  0  0  0  0  0
    2.7100   -2.7450   -0.1560 C   0  0  0  0  0  0  0  0  0  0  0  0
    1.9640   -1.6820   -0.9320 C   0  0  2  0  0  0  0  0  0  0  0  0
    2.6660   -0.4370   -1.0260 N   0  0  0  0  0  0  0  0  0  0  0  0
    0.5550   -1.5400   -0.5450 C   0  0  0  0  0  0  0  0  0  0  0  0
   -0.1230   -2.5920   -0.3250 O   0  0  0  0  0  0  0  0  0  0  0  0
    4.1470   -1.6840    1.5910 C   0  0  0  0  0  0  0  0  0  0  0  0
    4.4260   -1.3200    2.8920 C   0  0  0  0  0  0  0  0  0  0  0  0
    4.1710   -1.9490    5.9020 H   0  0  0  0  0  0  0  0  0  0  0  0
    1.7050   -2.5400    4.3800 H   0  0  0  0  0  0  0  0  0  0  0  0
    1.2110   -3.1960    2.0080 H   0  0  0  0  0  0  0  0  0  0  0  0
    3.6790   -2.9960   -0.6200 H   0  0  0  0  0  0  0  0  0  0  0  0
    2.1170   -3.6940   -0.1340 H   0  0  0  0  0  0  0  0  0  0  0  0
    1.9420   -2.0840   -1.9980 H   0  0  0  0  0  0  0  0  0  0  0  0
    2.4870    0.0880   -1.8950 H   0  0  0  0  0  0  0  0  0  0  0  0
    2.7040    0.1170   -0.1630 H   0  0  0  0  0  0  0  0  0  0  0  0
    4.8380   -1.4470    0.7720 H   0  0  0  0  0  0  0  0  0  0  0  0
    5.3440   -0.7870    3.1290 H   0  0  0  0  0  0  0  0  0  0  0  0
    0.5100    0.9010    2.1750 C   0  0  0  0  0  0  0  0  0  0  0  0
   -1.0020    0.9350    2.2570 C   0  0  0  0  0  0  0  0  0  0  0  0
   -1.4650   -0.1860    3.1180 C   0  0  0  0  0  0  0  0  0  0  0  0
   -1.6460    1.0290    0.9250 C   0  0  0  0  0  0  0  0  0  0  0  0
   -1.4040   -0.0460   -0.0510 C   0  0  2  0  0  0  0  0  0  0  0  0
   -0.0380   -0.2560   -0.4220 N   0  0  0  0  0  0  0  0  0  0  0  0
   -2.1780    0.3490   -1.2960 C   0  0  0  0  0  0  0  0  0  0  0  0
   -1.5870    0.4710   -2.3950 O   0  0  0  0  0  0  0  0  0  0  0  0
    0.9300    1.1760    3.1870 H   0  0  0  0  0  0  0  0  0  0  0  0
    0.8750    1.7220    1.5030 H   0  0  0  0  0  0  0  0  0  0  0  0
    0.9210   -0.0710    1.9180 H   0  0  0  0  0  0  0  0  0  0  0  0
   -1.2480    1.8920    2.8020 H   0  0  0  0  0  0  0  0  0  0  0  0
   -0.6880   -1.0030    3.1180 H   0  0  0  0  0  0  0  0  0  0  0  0
   -1.5470    0.1320    4.1830 H   0  0  0  0  0  0  0  0  0  0  0  0
   -2.4560   -0.5950    2.8450 H   0  0  0  0  0  0  0  0  0  0  0  0
   -2.7440    1.1240    1.0810 H   0  0  0  0  0  0  0  0  0  0  0  0
   -1.3540    2.0180    0.4690 H   0  0  0  0  0  0  0  0  0  0  0  0
   -1.8650   -1.0130    0.2310 H   0  0  0  0  0  0  0  0  0  0  0  0
    0.5640    0.5650   -0.6160 H   0  0  0  0  0  0  0  0  0  0  0  0
   -3.5720    0.5790   -1.2060 N   0  0  0  0  0  0  0  0  0  0  0  0
   -4.3130    0.9550   -2.3810 C   0  0  0  0  0  0  0  0  0  0  0  0
   -4.1980   -0.0940   -3.3960 C   0  0  0  0  0  0  0  0  0  0  0  0
   -3.5310   -1.1240   -3.1560 O   0  0  0  0  0  0  0  0  0  0  0  0
   -4.7980   -0.0260   -4.6480 O   0  0  0  0  0  0  0  0  0  0  0  0
   -4.0610    0.4730   -0.2910 H   0  0  0  0  0  0  0  0  0  0  0  0
   -4.0190    1.9560   -2.7650 H   0  0  0  0  0  0  0  0  0  0  0  0
   -5.3820    1.0410   -2.1020 H   0  0  0  0  0  0  0  0  0  0  0  0
  1 13  1  0  0  0  0
  2  1  1  0  0  0  0
  3  2  1  0  0  0  0
  3 14  1  0  0  0  0
  4  3  2  0  0  0  0
  5 11  2  0  0  0  0
  5  4  1  0  0  0  0
  6 17  1  0  0  0  0
  6  5  1  0  0  0  0
  7 18  1  6  0  0  0
  7  9  1  0  0  0  0
  7  6  1  0  0  0  0
  8  7  1  0  0  0  0
  8 20  1  0  0  0  0
  9 28  1  0  0  0  0
  9 10  2  0  0  0  0
 11 12  1  0  0  0  0
 12 22  1  0  0  0  0
 12  2  2  0  0  0  0
 15  4  1  0  0  0  0
 16  6  1  0  0  0  0
 19  8  1  0  0  0  0
 21 11  1  0  0  0  0
 23 24  1  0  0  0  0
 23 31  1  0  0  0  0
 24 34  1  0  0  0  0
 24 25  1  0  0  0  0
 25 35  1  0  0  0  0
 25 36  1  0  0  0  0
 26 38  1  0  0  0  0
 26 24  1  0  0  0  0
 27 40  1  1  0  0  0
 27 26  1  0  0  0  0
 28 27  1  0  0  0  0
 29 42  1  0  0  0  0
 29 27  1  0  0  0  0
 30 29  2  0  0  0  0
 32 23  1  0  0  0  0
 33 23  1  0  0  0  0
 37 25  1  0  0  0  0
 39 26  1  0  0  0  0
 41 28  1  0  0  0  0
 42 47  1  0  0  0  0
 43 49  1  0  0  0  0
 43 42  1  0  0  0  0
 44 45  1  0  0  0  0
 44 43  1  0  0  0  0
 46 44  2  0  0  0  0
 48 43  1  0  0  0  0
M  END
$$$$
