YLH.pdb
 OpenBabel07022419223D

 59 60  0  0  1  0  0  0  0  0999 V2000
    4.1870   -3.2490    4.3730 O   0  0  0  0  0  0  0  0  0  0  0  0
    4.1820   -2.2930    3.3590 C   0  0  0  0  0  0  0  0  0  0  0  0
    3.3470   -2.3920    2.2650 C   0  0  0  0  0  0  0  0  0  0  0  0
    3.4060   -1.4020    1.3070 C   0  0  0  0  0  0  0  0  0  0  0  0
    4.2440   -0.3300    1.3810 C   0  0  0  0  0  0  0  0  0  0  0  0
    4.3040    0.7400    0.3440 C   0  0  0  0  0  0  0  0  0  0  0  0
    3.3410    1.8530    0.6770 C   0  0  2  0  0  0  0  0  0  0  0  0
    3.7530    2.3580    1.9740 N   0  0  0  0  0  0  0  0  0  0  0  0
    1.9350    1.4220    0.7780 C   0  0  0  0  0  0  0  0  0  0  0  0
    1.3260    1.4480    1.8760 O   0  0  0  0  0  0  0  0  0  0  0  0
    5.0810   -0.2350    2.4830 C   0  0  0  0  0  0  0  0  0  0  0  0
    5.0430   -1.2100    3.4550 C   0  0  0  0  0  0  0  0  0  0  0  0
    3.9400   -2.9600    5.3170 H   0  0  0  0  0  0  0  0  0  0  0  0
    2.6710   -3.2410    2.1880 H   0  0  0  0  0  0  0  0  0  0  0  0
    2.7430   -1.4820    0.4380 H   0  0  0  0  0  0  0  0  0  0  0  0
    5.3230    1.1720    0.3860 H   0  0  0  0  0  0  0  0  0  0  0  0
    4.1680    0.3450   -0.6760 H   0  0  0  0  0  0  0  0  0  0  0  0
    3.4680    2.7030   -0.0460 H   0  0  0  0  0  0  0  0  0  0  0  0
    3.3860    3.3150    2.1600 H   0  0  0  0  0  0  0  0  0  0  0  0
    3.2850    1.7320    2.6870 H   0  0  0  0  0  0  0  0  0  0  0  0
    5.7640    0.6100    2.5730 H   0  0  0  0  0  0  0  0  0  0  0  0
    5.6920   -1.1410    4.3130 H   0  0  0  0  0  0  0  0  0  0  0  0
   -3.1240    2.5070   -1.7760 C   0  0  0  0  0  0  0  0  0  0  0  0
   -2.5230    1.3170   -0.9810 C   0  0  0  0  0  0  0  0  0  0  0  0
   -3.1780    1.3980    0.3740 C   0  0  0  0  0  0  0  0  0  0  0  0
   -1.0670    1.5430   -0.9580 C   0  0  0  0  0  0  0  0  0  0  0  0
   -0.2140    0.5340   -0.2360 C   0  0  2  0  0  0  0  0  0  0  0  0
    1.1990    0.9630   -0.3380 N   0  0  0  0  0  0  0  0  0  0  0  0
   -0.3160   -0.8420   -0.7410 C   0  0  0  0  0  0  0  0  0  0  0  0
    0.6790   -1.3370   -1.3430 O   0  0  0  0  0  0  0  0  0  0  0  0
   -2.8510    2.4260   -2.8390 H   0  0  0  0  0  0  0  0  0  0  0  0
   -4.2200    2.5570   -1.6140 H   0  0  0  0  0  0  0  0  0  0  0  0
   -2.6970    3.4440   -1.3550 H   0  0  0  0  0  0  0  0  0  0  0  0
   -2.8800    0.4230   -1.5140 H   0  0  0  0  0  0  0  0  0  0  0  0
   -4.2190    1.0480    0.3450 H   0  0  0  0  0  0  0  0  0  0  0  0
   -2.5720    0.8320    1.1370 H   0  0  0  0  0  0  0  0  0  0  0  0
   -3.1320    2.4570    0.7000 H   0  0  0  0  0  0  0  0  0  0  0  0
   -0.8910    2.5170   -0.4130 H   0  0  0  0  0  0  0  0  0  0  0  0
   -0.6910    1.6040   -2.0000 H   0  0  0  0  0  0  0  0  0  0  0  0
   -0.4600    0.5990    0.8380 H   0  0  0  0  0  0  0  0  0  0  0  0
    1.6470    0.9210   -1.2550 H   0  0  0  0  0  0  0  0  0  0  0  0
   -1.4660   -1.6770   -0.6000 N   0  0  0  0  0  0  0  0  0  0  0  0
   -1.4660   -3.0250   -1.1400 C   0  0  1  0  0  0  0  0  0  0  0  0
   -1.7490   -4.1020   -0.1690 C   0  0  0  0  0  0  0  0  0  0  0  0
   -3.0460   -4.0800    0.5010 C   0  0  0  0  0  0  0  0  0  0  0  0
   -4.1120   -3.2530    0.3710 C   0  0  0  0  0  0  0  0  0  0  0  0
   -5.0950   -3.6590    1.2010 N   0  0  0  0  0  0  0  0  0  0  0  0
   -4.6410   -4.7380    1.8460 C   0  0  0  0  0  0  0  0  0  0  0  0
   -3.4130   -5.0080    1.4410 N   0  0  0  0  0  0  0  0  0  0  0  0
   -2.4020   -3.0940   -2.2750 C   0  0  0  0  0  0  0  0  0  0  0  0
   -3.0100   -2.0670   -2.6490 O   0  0  0  0  0  0  0  0  0  0  0  0
   -2.6380   -4.2780   -2.9590 O   0  0  0  0  0  0  0  0  0  0  0  0
   -2.2620   -1.2780   -0.0850 H   0  0  0  0  0  0  0  0  0  0  0  0
   -0.4470   -3.2410   -1.5970 H   0  0  0  0  0  0  0  0  0  0  0  0
   -0.9470   -4.2130    0.6100 H   0  0  0  0  0  0  0  0  0  0  0  0
   -1.6800   -5.0760   -0.7450 H   0  0  0  0  0  0  0  0  0  0  0  0
   -4.2580   -2.3890   -0.2690 H   0  0  0  0  0  0  0  0  0  0  0  0
   -6.0490   -3.2130    1.3230 H   0  0  0  0  0  0  0  0  0  0  0  0
   -5.2110   -5.3020    2.5940 H   0  0  0  0  0  0  0  0  0  0  0  0
  1 13  1  0  0  0  0
  2 12  1  0  0  0  0
  2  1  1  0  0  0  0
  3  2  2  0  0  0  0
  4  5  2  0  0  0  0
  4  3  1  0  0  0  0
  5 11  1  0  0  0  0
  6 16  1  0  0  0  0
  6  7  1  0  0  0  0
  6  5  1  0  0  0  0
  7 18  1  6  0  0  0
  7  9  1  0  0  0  0
  7  8  1  0  0  0  0
  8 19  1  0  0  0  0
  8 20  1  0  0  0  0
  9 10  2  0  0  0  0
 11 21  1  0  0  0  0
 11 12  2  0  0  0  0
 12 22  1  0  0  0  0
 14  3  1  0  0  0  0
 15  4  1  0  0  0  0
 17  6  1  0  0  0  0
 23 32  1  0  0  0  0
 23 33  1  0  0  0  0
 23 24  1  0  0  0  0
 24 26  1  0  0  0  0
 24 25  1  0  0  0  0
 25 37  1  0  0  0  0
 25 36  1  0  0  0  0
 26 38  1  0  0  0  0
 26 27  1  0  0  0  0
 27 40  1  1  0  0  0
 28 27  1  0  0  0  0
 28  9  1  0  0  0  0
 29 42  1  0  0  0  0
 29 27  1  0  0  0  0
 30 29  2  0  0  0  0
 31 23  1  0  0  0  0
 34 24  1  0  0  0  0
 35 25  1  0  0  0  0
 39 26  1  0  0  0  0
 41 28  1  0  0  0  0
 42 53  1  0  0  0  0
 43 54  1  6  0  0  0
 43 42  1  0  0  0  0
 43 44  1  0  0  0  0
 44 45  1  0  0  0  0
 44 55  1  0  0  0  0
 45 49  1  0  0  0  0
 46 45  2  0  0  0  0
 46 47  1  0  0  0  0
 47 58  1  0  0  0  0
 47 48  1  0  0  0  0
 48 59  1  0  0  0  0
 49 48  2  0  0  0  0
 50 43  1  0  0  0  0
 51 50  1  0  0  0  0
 52 50  2  0  0  0  0
 56 44  1  0  0  0  0
 57 46  1  0  0  0  0
M  END
$$$$
