YLI.pdb
 OpenBabel07022419223D

 61 61  0  0  1  0  0  0  0  0999 V2000
    5.9980   -5.3960    3.1260 O   0  0  0  0  0  0  0  0  0  0  0  0
    5.0160   -4.7290    2.4300 C   0  0  0  0  0  0  0  0  0  0  0  0
    5.0620   -4.4970    1.0680 C   0  0  0  0  0  0  0  0  0  0  0  0
    4.0540   -3.8240    0.4160 C   0  0  0  0  0  0  0  0  0  0  0  0
    2.9680   -3.3620    1.1100 C   0  0  0  0  0  0  0  0  0  0  0  0
    1.8440   -2.6330    0.4930 C   0  0  0  0  0  0  0  0  0  0  0  0
    0.7500   -3.5710    0.0250 C   0  0  2  0  0  0  0  0  0  0  0  0
    1.3090   -4.4740   -0.9500 N   0  0  0  0  0  0  0  0  0  0  0  0
   -0.3810   -2.8430   -0.5780 C   0  0  0  0  0  0  0  0  0  0  0  0
   -0.6920   -3.0620   -1.7550 O   0  0  0  0  0  0  0  0  0  0  0  0
    2.9190   -3.5940    2.4750 C   0  0  0  0  0  0  0  0  0  0  0  0
    3.9260   -4.2650    3.1250 C   0  0  0  0  0  0  0  0  0  0  0  0
    6.2870   -5.1590    4.0570 H   0  0  0  0  0  0  0  0  0  0  0  0
    5.9190   -4.8630    0.5310 H   0  0  0  0  0  0  0  0  0  0  0  0
    4.1320   -3.6660   -0.6470 H   0  0  0  0  0  0  0  0  0  0  0  0
    1.4200   -1.9440    1.2340 H   0  0  0  0  0  0  0  0  0  0  0  0
    2.2330   -2.0460   -0.3630 H   0  0  0  0  0  0  0  0  0  0  0  0
    0.3500   -4.1810    0.8470 H   0  0  0  0  0  0  0  0  0  0  0  0
    0.7870   -5.3710   -1.0070 H   0  0  0  0  0  0  0  0  0  0  0  0
    1.4400   -4.0260   -1.8890 H   0  0  0  0  0  0  0  0  0  0  0  0
    2.0830   -3.2510    3.0750 H   0  0  0  0  0  0  0  0  0  0  0  0
    3.8650   -4.4360    4.2050 H   0  0  0  0  0  0  0  0  0  0  0  0
   -5.0430   -1.0190   -1.7130 C   0  0  0  0  0  0  0  0  0  0  0  0
   -4.7200   -0.6930   -0.2820 C   0  0  0  0  0  0  0  0  0  0  0  0
   -5.9370   -1.1630    0.5370 C   0  0  0  0  0  0  0  0  0  0  0  0
   -3.5510   -1.4130    0.2730 C   0  0  0  0  0  0  0  0  0  0  0  0
   -2.2570   -1.1650   -0.4450 C   0  0  2  0  0  0  0  0  0  0  0  0
   -1.1570   -1.8810    0.1240 N   0  0  0  0  0  0  0  0  0  0  0  0
   -1.8840    0.2810   -0.4940 C   0  0  0  0  0  0  0  0  0  0  0  0
   -2.6690    1.1530   -0.9660 O   0  0  0  0  0  0  0  0  0  0  0  0
   -6.1240   -1.2200   -1.8770 H   0  0  0  0  0  0  0  0  0  0  0  0
   -4.8140   -0.1340   -2.3780 H   0  0  0  0  0  0  0  0  0  0  0  0
   -4.4880   -1.8570   -2.1270 H   0  0  0  0  0  0  0  0  0  0  0  0
   -4.7100    0.4120   -0.1270 H   0  0  0  0  0  0  0  0  0  0  0  0
   -6.8720   -0.7510    0.1350 H   0  0  0  0  0  0  0  0  0  0  0  0
   -5.7240   -0.8060    1.5770 H   0  0  0  0  0  0  0  0  0  0  0  0
   -5.9540   -2.2730    0.5350 H   0  0  0  0  0  0  0  0  0  0  0  0
   -3.4060   -1.0250    1.3240 H   0  0  0  0  0  0  0  0  0  0  0  0
   -3.7490   -2.4850    0.2520 H   0  0  0  0  0  0  0  0  0  0  0  0
   -2.3570   -1.4990   -1.4990 H   0  0  0  0  0  0  0  0  0  0  0  0
   -0.9000   -1.6920    1.1180 H   0  0  0  0  0  0  0  0  0  0  0  0
   -0.8930    4.8680    0.6620 C   0  0  0  0  0  0  0  0  0  0  0  0
    0.2510    4.1270    1.3480 C   0  0  0  0  0  0  0  0  0  0  0  0
   -0.0670    2.6690    1.3250 C   0  0  2  0  0  0  0  0  0  0  0  0
    1.0080    1.8320    1.9890 C   0  0  0  0  0  0  0  0  0  0  0  0
   -0.2980    2.1880   -0.0790 C   0  0  2  0  0  0  0  0  0  0  0  0
   -0.6290    0.7400   -0.0110 N   0  0  0  0  0  0  0  0  0  0  0  0
    0.8680    2.3630   -0.9790 C   0  0  0  0  0  0  0  0  0  0  0  0
    1.3960    1.3310   -1.4920 O   0  0  0  0  0  0  0  0  0  0  0  0
    1.4430    3.5670   -1.3190 O   0  0  0  0  0  0  0  0  0  0  0  0
   -0.6310    5.0620   -0.3950 H   0  0  0  0  0  0  0  0  0  0  0  0
   -1.0970    5.8190    1.2010 H   0  0  0  0  0  0  0  0  0  0  0  0
   -1.7930    4.2110    0.6570 H   0  0  0  0  0  0  0  0  0  0  0  0
    1.1720    4.3630    0.7940 H   0  0  0  0  0  0  0  0  0  0  0  0
    0.3870    4.5140    2.3910 H   0  0  0  0  0  0  0  0  0  0  0  0
   -1.0220    2.5280    1.8770 H   0  0  0  0  0  0  0  0  0  0  0  0
    1.6210    1.3970    1.1820 H   0  0  0  0  0  0  0  0  0  0  0  0
    1.6560    2.5290    2.5590 H   0  0  0  0  0  0  0  0  0  0  0  0
    0.5210    1.0680    2.6290 H   0  0  0  0  0  0  0  0  0  0  0  0
   -1.1580    2.7000   -0.5480 H   0  0  0  0  0  0  0  0  0  0  0  0
    0.0630    0.0700    0.3910 H   0  0  0  0  0  0  0  0  0  0  0  0
  1 13  1  0  0  0  0
  2 12  1  0  0  0  0
  2  1  1  0  0  0  0
  3  2  2  0  0  0  0
  4  3  1  0  0  0  0
  4  5  2  0  0  0  0
  5 11  1  0  0  0  0
  6  5  1  0  0  0  0
  6 16  1  0  0  0  0
  7  6  1  0  0  0  0
  7 18  1  1  0  0  0
  8  7  1  0  0  0  0
  9  7  1  0  0  0  0
  9 28  1  0  0  0  0
 10  9  2  0  0  0  0
 11 21  1  0  0  0  0
 11 12  2  0  0  0  0
 12 22  1  0  0  0  0
 14  3  1  0  0  0  0
 15  4  1  0  0  0  0
 17  6  1  0  0  0  0
 19  8  1  0  0  0  0
 20  8  1  0  0  0  0
 23 24  1  0  0  0  0
 24 34  1  0  0  0  0
 24 26  1  0  0  0  0
 24 25  1  0  0  0  0
 25 36  1  0  0  0  0
 26 38  1  0  0  0  0
 27 40  1  6  0  0  0
 27 28  1  0  0  0  0
 27 26  1  0  0  0  0
 28 41  1  0  0  0  0
 29 27  1  0  0  0  0
 29 47  1  0  0  0  0
 30 29  2  0  0  0  0
 31 23  1  0  0  0  0
 32 23  1  0  0  0  0
 33 23  1  0  0  0  0
 35 25  1  0  0  0  0
 37 25  1  0  0  0  0
 39 26  1  0  0  0  0
 42 52  1  0  0  0  0
 42 43  1  0  0  0  0
 43 55  1  0  0  0  0
 44 43  1  0  0  0  0
 44 56  1  1  0  0  0
 44 45  1  0  0  0  0
 45 58  1  0  0  0  0
 45 59  1  0  0  0  0
 46 60  1  6  0  0  0
 46 47  1  0  0  0  0
 46 44  1  0  0  0  0
 47 61  1  0  0  0  0
 48 46  1  0  0  0  0
 49 48  2  0  0  0  0
 50 48  1  0  0  0  0
 51 42  1  0  0  0  0
 53 42  1  0  0  0  0
 54 43  1  0  0  0  0
 57 45  1  0  0  0  0
M  END
$$$$
