YLM.pdb
 OpenBabel07022419223D

 59 59  0  0  1  0  0  0  0  0999 V2000
    2.5280    4.6010    4.0730 O   0  0  0  0  0  0  0  0  0  0  0  0
    2.7520    3.3380    3.5110 C   0  0  0  0  0  0  0  0  0  0  0  0
    2.1870    2.2010    4.0380 C   0  0  0  0  0  0  0  0  0  0  0  0
    2.4100    0.9640    3.4820 C   0  0  0  0  0  0  0  0  0  0  0  0
    3.2180    0.7900    2.3580 C   0  0  0  0  0  0  0  0  0  0  0  0
    3.4580   -0.5210    1.7670 C   0  0  0  0  0  0  0  0  0  0  0  0
    2.5440   -0.9640    0.6930 C   0  0  2  0  0  0  0  0  0  0  0  0
    2.5700   -0.0650   -0.4450 N   0  0  0  0  0  0  0  0  0  0  0  0
    1.1890   -1.3270    1.0990 C   0  0  0  0  0  0  0  0  0  0  0  0
    1.0090   -1.9720    2.1530 O   0  0  0  0  0  0  0  0  0  0  0  0
    3.7820    1.9380    1.8350 C   0  0  0  0  0  0  0  0  0  0  0  0
    3.5530    3.1760    2.3980 C   0  0  0  0  0  0  0  0  0  0  0  0
    2.5370    4.6840    5.1010 H   0  0  0  0  0  0  0  0  0  0  0  0
    1.5590    2.3040    4.9050 H   0  0  0  0  0  0  0  0  0  0  0  0
    1.9670    0.0580    3.8930 H   0  0  0  0  0  0  0  0  0  0  0  0
    3.5030   -1.2570    2.6220 H   0  0  0  0  0  0  0  0  0  0  0  0
    4.5210   -0.5190    1.3860 H   0  0  0  0  0  0  0  0  0  0  0  0
    2.9990   -1.9280    0.2820 H   0  0  0  0  0  0  0  0  0  0  0  0
    2.1010   -0.4950   -1.2730 H   0  0  0  0  0  0  0  0  0  0  0  0
    3.5120    0.2930   -0.6410 H   0  0  0  0  0  0  0  0  0  0  0  0
    4.4230    1.8370    0.9510 H   0  0  0  0  0  0  0  0  0  0  0  0
    4.0150    4.0550    1.9580 H   0  0  0  0  0  0  0  0  0  0  0  0
   -0.7890    1.6250    1.3040 C   0  0  0  0  0  0  0  0  0  0  0  0
   -2.0290    0.8810    1.6770 C   0  0  0  0  0  0  0  0  0  0  0  0
   -2.0130    0.5500    3.1510 C   0  0  0  0  0  0  0  0  0  0  0  0
   -2.3220   -0.3020    0.8160 C   0  0  0  0  0  0  0  0  0  0  0  0
   -1.2910   -1.3710    0.7990 C   0  0  2  0  0  0  0  0  0  0  0  0
    0.0130   -0.9870    0.3510 N   0  0  0  0  0  0  0  0  0  0  0  0
   -1.8410   -2.4830   -0.0850 C   0  0  0  0  0  0  0  0  0  0  0  0
   -2.9790   -2.9630    0.1350 O   0  0  0  0  0  0  0  0  0  0  0  0
    0.1290    1.2750    1.7720 H   0  0  0  0  0  0  0  0  0  0  0  0
   -0.7030    1.6560    0.1990 H   0  0  0  0  0  0  0  0  0  0  0  0
   -0.9240    2.6940    1.6190 H   0  0  0  0  0  0  0  0  0  0  0  0
   -2.8910    1.5940    1.5350 H   0  0  0  0  0  0  0  0  0  0  0  0
   -2.6370    1.2480    3.7490 H   0  0  0  0  0  0  0  0  0  0  0  0
   -0.9740    0.6470    3.5580 H   0  0  0  0  0  0  0  0  0  0  0  0
   -2.3680   -0.4610    3.3700 H   0  0  0  0  0  0  0  0  0  0  0  0
   -3.2830   -0.7450    1.2150 H   0  0  0  0  0  0  0  0  0  0  0  0
   -2.5990    0.0660   -0.1930 H   0  0  0  0  0  0  0  0  0  0  0  0
   -1.1860   -1.7730    1.8390 H   0  0  0  0  0  0  0  0  0  0  0  0
    0.1940   -0.4450   -0.5310 H   0  0  0  0  0  0  0  0  0  0  0  0
   -4.3280   -2.1460   -2.7380 C   0  0  0  0  0  0  0  0  0  0  0  0
   -3.4780   -2.4670   -4.2690 S   0  0  0  0  0  0  0  0  0  0  0  0
   -1.7070   -2.6330   -4.1690 C   0  0  0  0  0  0  0  0  0  0  0  0
   -1.1840   -3.8480   -3.4860 C   0  0  0  0  0  0  0  0  0  0  0  0
   -1.5310   -4.0470   -2.0620 C   0  0  2  0  0  0  0  0  0  0  0  0
   -1.0890   -2.9980   -1.1670 N   0  0  0  0  0  0  0  0  0  0  0  0
   -0.9100   -5.3450   -1.5610 C   0  0  0  0  0  0  0  0  0  0  0  0
   -1.1210   -6.4170   -2.1450 O   0  0  0  0  0  0  0  0  0  0  0  0
   -0.1140   -5.2730   -0.4450 O   0  0  0  0  0  0  0  0  0  0  0  0
   -4.6300   -3.0810   -2.2350 H   0  0  0  0  0  0  0  0  0  0  0  0
   -3.7560   -1.5280   -2.0250 H   0  0  0  0  0  0  0  0  0  0  0  0
   -5.2710   -1.5420   -2.9130 H   0  0  0  0  0  0  0  0  0  0  0  0
   -1.3280   -2.6040   -5.2420 H   0  0  0  0  0  0  0  0  0  0  0  0
   -1.2350   -1.6890   -3.7370 H   0  0  0  0  0  0  0  0  0  0  0  0
   -1.6330   -4.7310   -4.0470 H   0  0  0  0  0  0  0  0  0  0  0  0
   -0.0770   -3.9610   -3.6830 H   0  0  0  0  0  0  0  0  0  0  0  0
   -2.6140   -4.2560   -1.9620 H   0  0  0  0  0  0  0  0  0  0  0  0
   -0.1350   -2.5560   -1.3010 H   0  0  0  0  0  0  0  0  0  0  0  0
  1 13  1  0  0  0  0
  2  3  1  0  0  0  0
  2  1  1  0  0  0  0
  3 14  1  0  0  0  0
  4 15  1  0  0  0  0
  4  3  2  0  0  0  0
  5  4  1  0  0  0  0
  6  5  1  0  0  0  0
  6 16  1  0  0  0  0
  7 18  1  6  0  0  0
  7  9  1  0  0  0  0
  7  6  1  0  0  0  0
  8  7  1  0  0  0  0
  9 10  2  0  0  0  0
 11  5  2  0  0  0  0
 11 12  1  0  0  0  0
 12  2  2  0  0  0  0
 17  6  1  0  0  0  0
 19  8  1  0  0  0  0
 20  8  1  0  0  0  0
 21 11  1  0  0  0  0
 22 12  1  0  0  0  0
 23 33  1  0  0  0  0
 23 24  1  0  0  0  0
 23 31  1  0  0  0  0
 24 25  1  0  0  0  0
 25 37  1  0  0  0  0
 25 36  1  0  0  0  0
 25 35  1  0  0  0  0
 26 38  1  0  0  0  0
 26 24  1  0  0  0  0
 27 26  1  0  0  0  0
 27 40  1  1  0  0  0
 28 27  1  0  0  0  0
 28  9  1  0  0  0  0
 29 30  2  0  0  0  0
 29 27  1  0  0  0  0
 32 23  1  0  0  0  0
 34 24  1  0  0  0  0
 39 26  1  0  0  0  0
 41 28  1  0  0  0  0
 42 51  1  0  0  0  0
 42 52  1  0  0  0  0
 43 44  1  0  0  0  0
 43 42  1  0  0  0  0
 44 55  1  0  0  0  0
 44 45  1  0  0  0  0
 45 46  1  0  0  0  0
 46 58  1  1  0  0  0
 46 48  1  0  0  0  0
 46 47  1  0  0  0  0
 47 29  1  0  0  0  0
 48 50  1  0  0  0  0
 49 48  2  0  0  0  0
 53 42  1  0  0  0  0
 54 44  1  0  0  0  0
 56 45  1  0  0  0  0
 57 45  1  0  0  0  0
 59 47  1  0  0  0  0
M  END
$$$$
