YLS.pdb
 OpenBabel07022419223D

 53 53  0  0  1  0  0  0  0  0999 V2000
    4.2950   -0.4370    5.1410 O   0  0  0  0  0  0  0  0  0  0  0  0
    3.9670   -1.1550    3.9960 C   0  0  0  0  0  0  0  0  0  0  0  0
    2.8300   -1.9510    3.9410 C   0  0  0  0  0  0  0  0  0  0  0  0
    2.4960   -2.6610    2.8250 C   0  0  0  0  0  0  0  0  0  0  0  0
    3.2930   -2.6010    1.7140 C   0  0  0  0  0  0  0  0  0  0  0  0
    3.0190   -3.3290    0.4640 C   0  0  0  0  0  0  0  0  0  0  0  0
    2.2150   -2.5980   -0.5500 C   0  0  2  0  0  0  0  0  0  0  0  0
    2.8170   -1.3580   -1.0140 N   0  0  0  0  0  0  0  0  0  0  0  0
    0.8240   -2.3080   -0.1750 C   0  0  0  0  0  0  0  0  0  0  0  0
    0.1340   -3.1910    0.3780 O   0  0  0  0  0  0  0  0  0  0  0  0
    4.4230   -1.8080    1.7730 C   0  0  0  0  0  0  0  0  0  0  0  0
    4.7820   -1.0820    2.8880 C   0  0  0  0  0  0  0  0  0  0  0  0
    4.5830   -0.8620    6.0050 H   0  0  0  0  0  0  0  0  0  0  0  0
    2.2130   -1.9730    4.8560 H   0  0  0  0  0  0  0  0  0  0  0  0
    1.6130   -3.2630    2.8180 H   0  0  0  0  0  0  0  0  0  0  0  0
    2.5120   -4.2930    0.6690 H   0  0  0  0  0  0  0  0  0  0  0  0
    3.9900   -3.5960   -0.0090 H   0  0  0  0  0  0  0  0  0  0  0  0
    2.2130   -3.2730   -1.4680 H   0  0  0  0  0  0  0  0  0  0  0  0
    3.8500   -1.4310   -1.1170 H   0  0  0  0  0  0  0  0  0  0  0  0
    2.3660   -1.1290   -1.9440 H   0  0  0  0  0  0  0  0  0  0  0  0
    5.1020   -1.7190    0.9160 H   0  0  0  0  0  0  0  0  0  0  0  0
    5.6930   -0.4600    2.8960 H   0  0  0  0  0  0  0  0  0  0  0  0
   -0.9710    2.1310    2.4320 C   0  0  0  0  0  0  0  0  0  0  0  0
   -0.6020    0.7280    1.9170 C   0  0  0  0  0  0  0  0  0  0  0  0
    0.9000    0.7700    1.7300 C   0  0  0  0  0  0  0  0  0  0  0  0
   -1.3360    0.5540    0.6320 C   0  0  0  0  0  0  0  0  0  0  0  0
   -1.1450   -0.7470   -0.0620 C   0  0  2  0  0  0  0  0  0  0  0  0
    0.2270   -1.0480   -0.4240 N   0  0  0  0  0  0  0  0  0  0  0  0
   -1.9980   -0.7190   -1.3200 C   0  0  0  0  0  0  0  0  0  0  0  0
   -1.4780   -0.9360   -2.4420 O   0  0  0  0  0  0  0  0  0  0  0  0
   -1.9920    2.1050    2.8490 H   0  0  0  0  0  0  0  0  0  0  0  0
   -0.2120    2.4100    3.1780 H   0  0  0  0  0  0  0  0  0  0  0  0
   -0.8650    2.8120    1.5650 H   0  0  0  0  0  0  0  0  0  0  0  0
   -0.8580   -0.0310    2.6650 H   0  0  0  0  0  0  0  0  0  0  0  0
    1.3100   -0.2540    1.7980 H   0  0  0  0  0  0  0  0  0  0  0  0
    1.3360    1.3210    2.6150 H   0  0  0  0  0  0  0  0  0  0  0  0
    1.2120    1.3320    0.8470 H   0  0  0  0  0  0  0  0  0  0  0  0
   -2.4310    0.6450    0.8760 H   0  0  0  0  0  0  0  0  0  0  0  0
   -1.1280    1.4360   -0.0170 H   0  0  0  0  0  0  0  0  0  0  0  0
   -1.5880   -1.5640    0.5490 H   0  0  0  0  0  0  0  0  0  0  0  0
    0.7570   -0.2600   -0.8900 H   0  0  0  0  0  0  0  0  0  0  0  0
   -6.1700   -1.2960   -1.3610 O   0  0  0  0  0  0  0  0  0  0  0  0
   -5.3070   -1.4590   -2.4320 C   0  0  0  0  0  0  0  0  0  0  0  0
   -4.2140   -0.4210   -2.4580 C   0  0  2  0  0  0  0  0  0  0  0  0
   -3.3890   -0.4510   -1.2670 N   0  0  0  0  0  0  0  0  0  0  0  0
   -4.7850    0.9380   -2.6850 C   0  0  0  0  0  0  0  0  0  0  0  0
   -5.5240    1.1860   -3.6520 O   0  0  0  0  0  0  0  0  0  0  0  0
   -4.4780    1.9450   -1.7870 O   0  0  0  0  0  0  0  0  0  0  0  0
   -6.1230   -0.3570   -0.9950 H   0  0  0  0  0  0  0  0  0  0  0  0
   -5.8820   -1.3600   -3.3620 H   0  0  0  0  0  0  0  0  0  0  0  0
   -4.8390   -2.4570   -2.3300 H   0  0  0  0  0  0  0  0  0  0  0  0
   -3.5720   -0.6360   -3.3370 H   0  0  0  0  0  0  0  0  0  0  0  0
   -3.8010   -0.2730   -0.3190 H   0  0  0  0  0  0  0  0  0  0  0  0
  1 13  1  0  0  0  0
  2  1  1  0  0  0  0
  3  2  1  0  0  0  0
  3 14  1  0  0  0  0
  4  3  2  0  0  0  0
  5 11  2  0  0  0  0
  5  4  1  0  0  0  0
  6 16  1  0  0  0  0
  6  5  1  0  0  0  0
  7 18  1  6  0  0  0
  7  9  1  0  0  0  0
  7  6  1  0  0  0  0
  8  7  1  0  0  0  0
  9 10  2  0  0  0  0
 11 12  1  0  0  0  0
 12 22  1  0  0  0  0
 12  2  2  0  0  0  0
 15  4  1  0  0  0  0
 17  6  1  0  0  0  0
 19  8  1  0  0  0  0
 20  8  1  0  0  0  0
 21 11  1  0  0  0  0
 23 31  1  0  0  0  0
 23 32  1  0  0  0  0
 24 23  1  0  0  0  0
 24 34  1  0  0  0  0
 25 35  1  0  0  0  0
 25 24  1  0  0  0  0
 25 36  1  0  0  0  0
 26 38  1  0  0  0  0
 26 24  1  0  0  0  0
 27 40  1  1  0  0  0
 27 26  1  0  0  0  0
 28  9  1  0  0  0  0
 28 27  1  0  0  0  0
 29 45  1  0  0  0  0
 29 27  1  0  0  0  0
 30 29  2  0  0  0  0
 33 23  1  0  0  0  0
 37 25  1  0  0  0  0
 39 26  1  0  0  0  0
 41 28  1  0  0  0  0
 42 49  1  0  0  0  0
 43 51  1  0  0  0  0
 43 42  1  0  0  0  0
 44 52  1  6  0  0  0
 44 43  1  0  0  0  0
 44 45  1  0  0  0  0
 45 53  1  0  0  0  0
 46 44  1  0  0  0  0
 46 48  1  0  0  0  0
 47 46  2  0  0  0  0
 50 43  1  0  0  0  0
M  END
$$$$
