YLT.pdb
 OpenBabel07022419223D

 56 56  0  0  1  0  0  0  0  0999 V2000
    1.2040    3.0660    5.6090 O   0  0  0  0  0  0  0  0  0  0  0  0
    1.6910    1.9390    4.9560 C   0  0  0  0  0  0  0  0  0  0  0  0
    0.8500    0.8370    4.7910 C   0  0  0  0  0  0  0  0  0  0  0  0
    1.3130   -0.2870    4.1480 C   0  0  0  0  0  0  0  0  0  0  0  0
    2.5990   -0.3490    3.6590 C   0  0  0  0  0  0  0  0  0  0  0  0
    3.0110   -1.5970    2.9860 C   0  0  0  0  0  0  0  0  0  0  0  0
    2.7970   -1.6790    1.5290 C   0  0  2  0  0  0  0  0  0  0  0  0
    3.4930   -0.6690    0.7510 N   0  0  0  0  0  0  0  0  0  0  0  0
    1.4100   -1.7220    1.0670 C   0  0  0  0  0  0  0  0  0  0  0  0
    0.6130   -2.5260    1.6670 O   0  0  0  0  0  0  0  0  0  0  0  0
    3.4190    0.7300    3.8210 C   0  0  0  0  0  0  0  0  0  0  0  0
    2.9710    1.8550    4.4590 C   0  0  0  0  0  0  0  0  0  0  0  0
    0.9080    3.0330    6.5890 H   0  0  0  0  0  0  0  0  0  0  0  0
   -0.1700    0.8670    5.1720 H   0  0  0  0  0  0  0  0  0  0  0  0
    0.6420   -1.1300    4.0330 H   0  0  0  0  0  0  0  0  0  0  0  0
    2.4870   -2.4420    3.4650 H   0  0  0  0  0  0  0  0  0  0  0  0
    4.0920   -1.7430    3.1920 H   0  0  0  0  0  0  0  0  0  0  0  0
    3.2770   -2.6540    1.2030 H   0  0  0  0  0  0  0  0  0  0  0  0
    4.4980   -0.6570    1.0450 H   0  0  0  0  0  0  0  0  0  0  0  0
    3.5040   -1.0420   -0.2400 H   0  0  0  0  0  0  0  0  0  0  0  0
    4.4240    0.6330    3.4180 H   0  0  0  0  0  0  0  0  0  0  0  0
    3.6190    2.7110    4.5890 H   0  0  0  0  0  0  0  0  0  0  0  0
   -1.9780    2.1190    1.1790 C   0  0  0  0  0  0  0  0  0  0  0  0
   -1.2470    0.7830    1.0480 C   0  0  0  0  0  0  0  0  0  0  0  0
   -2.0870   -0.2120    1.8490 C   0  0  0  0  0  0  0  0  0  0  0  0
   -1.1780    0.3500   -0.4120 C   0  0  0  0  0  0  0  0  0  0  0  0
   -0.4600   -0.9460   -0.4820 C   0  0  2  0  0  0  0  0  0  0  0  0
    0.8770   -0.9470    0.0090 N   0  0  0  0  0  0  0  0  0  0  0  0
   -0.4420   -1.5290   -1.8580 C   0  0  0  0  0  0  0  0  0  0  0  0
    0.6420   -1.9350   -2.3430 O   0  0  0  0  0  0  0  0  0  0  0  0
   -2.0380    2.6610    0.2250 H   0  0  0  0  0  0  0  0  0  0  0  0
   -3.0210    1.9840    1.5310 H   0  0  0  0  0  0  0  0  0  0  0  0
   -1.4600    2.7100    1.9720 H   0  0  0  0  0  0  0  0  0  0  0  0
   -0.2480    0.8050    1.5060 H   0  0  0  0  0  0  0  0  0  0  0  0
   -1.4640   -0.9140    2.4320 H   0  0  0  0  0  0  0  0  0  0  0  0
   -2.7220    0.3040    2.6070 H   0  0  0  0  0  0  0  0  0  0  0  0
   -2.8040   -0.7460    1.1810 H   0  0  0  0  0  0  0  0  0  0  0  0
   -2.2410    0.1570   -0.7060 H   0  0  0  0  0  0  0  0  0  0  0  0
   -0.8150    1.1410   -1.0620 H   0  0  0  0  0  0  0  0  0  0  0  0
   -1.0350   -1.6480    0.2060 H   0  0  0  0  0  0  0  0  0  0  0  0
    1.5500   -0.3060   -0.4610 H   0  0  0  0  0  0  0  0  0  0  0  0
   -2.0670   -4.3490   -2.7910 C   0  0  0  0  0  0  0  0  0  0  0  0
   -2.5080   -3.4450   -3.9470 C   0  0  1  0  0  0  0  0  0  0  0  0
   -3.7800   -2.9640   -3.5900 O   0  0  0  0  0  0  0  0  0  0  0  0
   -1.5850   -2.2250   -3.9980 C   0  0  2  0  0  0  0  0  0  0  0  0
   -1.6050   -1.6550   -2.6680 N   0  0  0  0  0  0  0  0  0  0  0  0
   -2.0870   -1.3100   -5.0270 C   0  0  0  0  0  0  0  0  0  0  0  0
   -2.4760   -0.1660   -4.7130 O   0  0  0  0  0  0  0  0  0  0  0  0
   -2.1350   -1.6980   -6.3480 O   0  0  0  0  0  0  0  0  0  0  0  0
   -1.4610   -3.7820   -2.0530 H   0  0  0  0  0  0  0  0  0  0  0  0
   -1.4620   -5.1960   -3.1720 H   0  0  0  0  0  0  0  0  0  0  0  0
   -2.9400   -4.7520   -2.2400 H   0  0  0  0  0  0  0  0  0  0  0  0
   -2.5400   -3.9940   -4.8860 H   0  0  0  0  0  0  0  0  0  0  0  0
   -3.8580   -2.7770   -2.6280 H   0  0  0  0  0  0  0  0  0  0  0  0
   -0.6020   -2.5770   -4.3070 H   0  0  0  0  0  0  0  0  0  0  0  0
   -2.4950   -1.3100   -2.2510 H   0  0  0  0  0  0  0  0  0  0  0  0
  1 13  1  0  0  0  0
  2  1  1  0  0  0  0
  3  2  1  0  0  0  0
  3 14  1  0  0  0  0
  4  3  2  0  0  0  0
  5 11  2  0  0  0  0
  5  4  1  0  0  0  0
  6 17  1  0  0  0  0
  6 16  1  0  0  0  0
  6  5  1  0  0  0  0
  7 18  1  6  0  0  0
  7  6  1  0  0  0  0
  8 19  1  0  0  0  0
  8  7  1  0  0  0  0
  9  7  1  0  0  0  0
  9 10  2  0  0  0  0
 11 12  1  0  0  0  0
 12 22  1  0  0  0  0
 12  2  2  0  0  0  0
 15  4  1  0  0  0  0
 20  8  1  0  0  0  0
 21 11  1  0  0  0  0
 23 32  1  0  0  0  0
 23 33  1  0  0  0  0
 24 23  1  0  0  0  0
 24 34  1  0  0  0  0
 24 25  1  0  0  0  0
 25 35  1  0  0  0  0
 25 36  1  0  0  0  0
 26 24  1  0  0  0  0
 27 26  1  0  0  0  0
 27 28  1  0  0  0  0
 27 40  1  1  0  0  0
 28  9  1  0  0  0  0
 29 27  1  0  0  0  0
 30 29  2  0  0  0  0
 31 23  1  0  0  0  0
 37 25  1  0  0  0  0
 38 26  1  0  0  0  0
 39 26  1  0  0  0  0
 41 28  1  0  0  0  0
 42 52  1  0  0  0  0
 42 50  1  0  0  0  0
 43 53  1  6  0  0  0
 43 44  1  0  0  0  0
 43 42  1  0  0  0  0
 44 54  1  0  0  0  0
 45 55  1  6  0  0  0
 45 43  1  0  0  0  0
 45 46  1  0  0  0  0
 46 56  1  0  0  0  0
 46 29  1  0  0  0  0
 47 48  1  0  0  0  0
 47 45  1  0  0  0  0
 49 47  2  0  0  0  0
 51 42  1  0  0  0  0
M  END
$$$$
