YMA.pdb
 OpenBabel07022419223D

 50 50  0  0  1  0  0  0  0  0999 V2000
    4.9500   -3.6410    3.7270 O   0  0  0  0  0  0  0  0  0  0  0  0
    4.5690   -2.5960    2.8960 C   0  0  0  0  0  0  0  0  0  0  0  0
    3.5200   -1.7510    3.2120 C   0  0  0  0  0  0  0  0  0  0  0  0
    3.1650   -0.7260    2.3700 C   0  0  0  0  0  0  0  0  0  0  0  0
    3.8630   -0.5340    1.1950 C   0  0  0  0  0  0  0  0  0  0  0  0
    3.4780    0.5710    0.2920 C   0  0  0  0  0  0  0  0  0  0  0  0
    2.4620    0.2040   -0.7370 C   0  0  2  0  0  0  0  0  0  0  0  0
    2.1820    1.3620   -1.5400 N   0  0  0  0  0  0  0  0  0  0  0  0
    1.2430   -0.4280   -0.2030 C   0  0  0  0  0  0  0  0  0  0  0  0
    1.2610   -1.4590    0.5160 O   0  0  0  0  0  0  0  0  0  0  0  0
    4.9310   -1.3640    0.8360 C   0  0  0  0  0  0  0  0  0  0  0  0
    5.2540   -2.3800    1.7070 C   0  0  0  0  0  0  0  0  0  0  0  0
    4.8870   -4.5820    3.3590 H   0  0  0  0  0  0  0  0  0  0  0  0
    2.9800   -1.9130    4.1380 H   0  0  0  0  0  0  0  0  0  0  0  0
    2.3440   -0.0750    2.6290 H   0  0  0  0  0  0  0  0  0  0  0  0
    4.4070    0.8750   -0.2630 H   0  0  0  0  0  0  0  0  0  0  0  0
    3.1980    1.4710    0.8840 H   0  0  0  0  0  0  0  0  0  0  0  0
    2.9400   -0.5510   -1.4180 H   0  0  0  0  0  0  0  0  0  0  0  0
    3.0470    1.8860   -1.6990 H   0  0  0  0  0  0  0  0  0  0  0  0
    1.6830    1.0510   -2.3950 H   0  0  0  0  0  0  0  0  0  0  0  0
    5.4560   -1.1840   -0.0940 H   0  0  0  0  0  0  0  0  0  0  0  0
    6.0850   -3.0190    1.4200 H   0  0  0  0  0  0  0  0  0  0  0  0
   -0.0660    1.9340    4.6650 C   0  0  0  0  0  0  0  0  0  0  0  0
   -1.3830    1.7870    3.4250 S   0  0  0  0  0  0  0  0  0  0  0  0
   -0.8210    0.6530    2.1390 C   0  0  0  0  0  0  0  0  0  0  0  0
   -1.8610    0.4690    1.0550 C   0  0  0  0  0  0  0  0  0  0  0  0
   -1.2720   -0.5020    0.0380 C   0  0  2  0  0  0  0  0  0  0  0  0
   -0.0720    0.0960   -0.4710 N   0  0  0  0  0  0  0  0  0  0  0  0
   -2.2420   -0.8550   -1.0020 C   0  0  0  0  0  0  0  0  0  0  0  0
   -1.9540   -0.6150   -2.2020 O   0  0  0  0  0  0  0  0  0  0  0  0
   -0.5220    1.7680    5.6650 H   0  0  0  0  0  0  0  0  0  0  0  0
    0.7200    1.1620    4.5410 H   0  0  0  0  0  0  0  0  0  0  0  0
    0.4530    2.9210    4.6040 H   0  0  0  0  0  0  0  0  0  0  0  0
    0.0950    1.0580    1.6960 H   0  0  0  0  0  0  0  0  0  0  0  0
   -0.6820   -0.3480    2.6130 H   0  0  0  0  0  0  0  0  0  0  0  0
   -2.1110    1.4420    0.5900 H   0  0  0  0  0  0  0  0  0  0  0  0
   -2.7820    0.0230    1.5020 H   0  0  0  0  0  0  0  0  0  0  0  0
   -0.9490   -1.3990    0.6410 H   0  0  0  0  0  0  0  0  0  0  0  0
   -0.1510    0.9480   -1.0610 H   0  0  0  0  0  0  0  0  0  0  0  0
   -4.7590   -3.2860   -1.7830 C   0  0  0  0  0  0  0  0  0  0  0  0
   -4.4460   -1.8000   -1.7860 C   0  0  2  0  0  0  0  0  0  0  0  0
   -3.5010   -1.4580   -0.7470 N   0  0  0  0  0  0  0  0  0  0  0  0
   -5.7160   -1.0910   -1.5120 C   0  0  0  0  0  0  0  0  0  0  0  0
   -6.7280   -1.2010   -2.2580 O   0  0  0  0  0  0  0  0  0  0  0  0
   -5.8100   -0.2790   -0.4030 O   0  0  0  0  0  0  0  0  0  0  0  0
   -5.1390   -3.5500   -0.7620 H   0  0  0  0  0  0  0  0  0  0  0  0
   -3.9000   -3.9030   -2.0670 H   0  0  0  0  0  0  0  0  0  0  0  0
   -5.6210   -3.4260   -2.4690 H   0  0  0  0  0  0  0  0  0  0  0  0
   -4.0620   -1.5330   -2.7930 H   0  0  0  0  0  0  0  0  0  0  0  0
   -3.7610   -1.6660    0.2340 H   0  0  0  0  0  0  0  0  0  0  0  0
  2  3  1  0  0  0  0
  2  1  1  0  0  0  0
  3 14  1  0  0  0  0
  4 15  1  0  0  0  0
  4  3  2  0  0  0  0
  5  4  1  0  0  0  0
  6 17  1  0  0  0  0
  6  5  1  0  0  0  0
  7 18  1  6  0  0  0
  7  9  1  0  0  0  0
  7  6  1  0  0  0  0
  8  7  1  0  0  0  0
  9 10  2  0  0  0  0
 11  5  2  0  0  0  0
 11 12  1  0  0  0  0
 12  2  2  0  0  0  0
 13  1  1  0  0  0  0
 16  6  1  0  0  0  0
 19  8  1  0  0  0  0
 20  8  1  0  0  0  0
 21 11  1  0  0  0  0
 22 12  1  0  0  0  0
 23 31  1  0  0  0  0
 24 23  1  0  0  0  0
 25 35  1  0  0  0  0
 25 24  1  0  0  0  0
 26 37  1  0  0  0  0
 26 25  1  0  0  0  0
 27 38  1  1  0  0  0
 27 26  1  0  0  0  0
 28  9  1  0  0  0  0
 28 27  1  0  0  0  0
 29 42  1  0  0  0  0
 29 27  1  0  0  0  0
 30 29  2  0  0  0  0
 32 23  1  0  0  0  0
 33 23  1  0  0  0  0
 34 25  1  0  0  0  0
 36 26  1  0  0  0  0
 39 28  1  0  0  0  0
 40 46  1  0  0  0  0
 41 49  1  6  0  0  0
 41 40  1  0  0  0  0
 41 43  1  0  0  0  0
 41 42  1  0  0  0  0
 42 50  1  0  0  0  0
 43 45  1  0  0  0  0
 44 43  2  0  0  0  0
 47 40  1  0  0  0  0
 48 40  1  0  0  0  0
M  END
$$$$
