YMC.pdb
 OpenBabel07022419223D

 51 51  0  0  1  0  0  0  0  0999 V2000
   -4.1440    1.7180   -0.7610 O   0  0  0  0  0  0  0  0  0  0  0  0
   -3.1260    0.9870   -1.3700 C   0  0  0  0  0  0  0  0  0  0  0  0
   -2.9210   -0.3130   -0.9710 C   0  0  0  0  0  0  0  0  0  0  0  0
   -1.9200   -1.0630   -1.5560 C   0  0  0  0  0  0  0  0  0  0  0  0
   -1.1010   -0.5600   -2.5400 C   0  0  0  0  0  0  0  0  0  0  0  0
   -0.0740   -1.4000   -3.1290 C   0  0  0  0  0  0  0  0  0  0  0  0
    1.3020   -1.3420   -2.6110 C   0  0  2  0  0  0  0  0  0  0  0  0
    2.0590   -2.3110   -3.4720 N   0  0  0  0  0  0  0  0  0  0  0  0
    1.5870   -1.7560   -1.2470 C   0  0  0  0  0  0  0  0  0  0  0  0
    2.1760   -2.8940   -1.0760 O   0  0  0  0  0  0  0  0  0  0  0  0
   -1.3310    0.7530   -2.9220 C   0  0  0  0  0  0  0  0  0  0  0  0
   -2.3200    1.5140   -2.3520 C   0  0  0  0  0  0  0  0  0  0  0  0
   -4.5160    1.4430    0.1220 H   0  0  0  0  0  0  0  0  0  0  0  0
   -3.5720   -0.7280   -0.1870 H   0  0  0  0  0  0  0  0  0  0  0  0
   -1.8130   -2.0960   -1.1870 H   0  0  0  0  0  0  0  0  0  0  0  0
   -0.0220   -1.1070   -4.2270 H   0  0  0  0  0  0  0  0  0  0  0  0
   -0.3810   -2.4880   -3.1820 H   0  0  0  0  0  0  0  0  0  0  0  0
    1.8010   -0.3710   -2.8630 H   0  0  0  0  0  0  0  0  0  0  0  0
    2.1610   -1.9210   -4.4230 H   0  0  0  0  0  0  0  0  0  0  0  0
    1.5440   -3.2300   -3.4510 H   0  0  0  0  0  0  0  0  0  0  0  0
   -0.6960    1.1630   -3.6930 H   0  0  0  0  0  0  0  0  0  0  0  0
   -2.5030    2.5410   -2.6470 H   0  0  0  0  0  0  0  0  0  0  0  0
    4.4490    1.4010    3.6420 C   0  0  0  0  0  0  0  0  0  0  0  0
    4.9540   -0.3160    3.3680 S   0  0  0  0  0  0  0  0  0  0  0  0
    3.4730   -1.3610    3.0310 C   0  0  0  0  0  0  0  0  0  0  0  0
    2.9300   -0.8910    1.7350 C   0  0  0  0  0  0  0  0  0  0  0  0
    1.6970   -1.6220    1.2380 C   0  0  2  0  0  0  0  0  0  0  0  0
    1.2950   -1.0400   -0.0510 N   0  0  0  0  0  0  0  0  0  0  0  0
    0.5830   -1.5920    2.1560 C   0  0  0  0  0  0  0  0  0  0  0  0
    0.7400   -2.1360    3.3010 O   0  0  0  0  0  0  0  0  0  0  0  0
    5.3460    1.9450    4.0020 H   0  0  0  0  0  0  0  0  0  0  0  0
    3.7140    1.4010    4.4740 H   0  0  0  0  0  0  0  0  0  0  0  0
    3.9990    1.8480    2.7470 H   0  0  0  0  0  0  0  0  0  0  0  0
    2.7920   -1.3350    3.8930 H   0  0  0  0  0  0  0  0  0  0  0  0
    3.8720   -2.3950    2.9770 H   0  0  0  0  0  0  0  0  0  0  0  0
    3.7310   -1.0520    0.9650 H   0  0  0  0  0  0  0  0  0  0  0  0
    2.7120    0.1930    1.7070 H   0  0  0  0  0  0  0  0  0  0  0  0
    2.0400   -2.6660    1.0690 H   0  0  0  0  0  0  0  0  0  0  0  0
    0.8090   -0.1320   -0.1400 H   0  0  0  0  0  0  0  0  0  0  0  0
   -0.7010   -1.0200    1.9460 N   0  0  0  0  0  0  0  0  0  0  0  0
   -1.7200   -1.0780    2.9850 C   0  0  1  0  0  0  0  0  0  0  0  0
   -2.2520    0.2910    3.2170 C   0  0  0  0  0  0  0  0  0  0  0  0
   -3.5400    0.2480    4.5210 S   0  0  0  0  0  0  0  0  0  0  0  0
   -2.7860   -2.0450    2.5850 C   0  0  0  0  0  0  0  0  0  0  0  0
   -2.6840   -2.6730    1.5010 O   0  0  0  0  0  0  0  0  0  0  0  0
   -3.9000   -2.2850    3.3690 O   0  0  0  0  0  0  0  0  0  0  0  0
   -0.9070   -0.5490    1.0470 H   0  0  0  0  0  0  0  0  0  0  0  0
   -1.2990   -1.4900    3.9280 H   0  0  0  0  0  0  0  0  0  0  0  0
   -2.7620    0.6710    2.3010 H   0  0  0  0  0  0  0  0  0  0  0  0
   -1.5040    1.0160    3.5590 H   0  0  0  0  0  0  0  0  0  0  0  0
   -3.5120    1.4090    5.2790 H   0  0  0  0  0  0  0  0  0  0  0  0
  1 13  1  0  0  0  0
  2  3  1  0  0  0  0
  2  1  1  0  0  0  0
  3 14  1  0  0  0  0
  4 15  1  0  0  0  0
  4  3  2  0  0  0  0
  5  4  1  0  0  0  0
  6  7  1  0  0  0  0
  6  5  1  0  0  0  0
  7 18  1  6  0  0  0
  7  9  1  0  0  0  0
  8 20  1  0  0  0  0
  8  7  1  0  0  0  0
  9 10  2  0  0  0  0
  9 28  1  0  0  0  0
 11  5  2  0  0  0  0
 11 12  1  0  0  0  0
 12  2  2  0  0  0  0
 16  6  1  0  0  0  0
 17  6  1  0  0  0  0
 19  8  1  0  0  0  0
 21 11  1  0  0  0  0
 22 12  1  0  0  0  0
 23 31  1  0  0  0  0
 23 32  1  0  0  0  0
 24 23  1  0  0  0  0
 25 24  1  0  0  0  0
 25 34  1  0  0  0  0
 26 25  1  0  0  0  0
 27 38  1  6  0  0  0
 27 26  1  0  0  0  0
 27 29  1  0  0  0  0
 28 27  1  0  0  0  0
 29 30  2  0  0  0  0
 33 23  1  0  0  0  0
 35 25  1  0  0  0  0
 36 26  1  0  0  0  0
 37 26  1  0  0  0  0
 39 28  1  0  0  0  0
 40 29  1  0  0  0  0
 40 41  1  0  0  0  0
 41 42  1  0  0  0  0
 41 48  1  1  0  0  0
 42 50  1  0  0  0  0
 42 43  1  0  0  0  0
 43 51  1  0  0  0  0
 44 41  1  0  0  0  0
 44 46  1  0  0  0  0
 45 44  2  0  0  0  0
 47 40  1  0  0  0  0
 49 42  1  0  0  0  0
M  END
$$$$
