YMD.pdb
 OpenBabel07022419223D

 53 53  0  0  1  0  0  0  0  0999 V2000
    1.6280    3.4290    5.3980 O   0  0  0  0  0  0  0  0  0  0  0  0
    2.0880    2.4580    4.5040 C   0  0  0  0  0  0  0  0  0  0  0  0
    1.6010    1.1710    4.4990 C   0  0  0  0  0  0  0  0  0  0  0  0
    2.0790    0.2350    3.6020 C   0  0  0  0  0  0  0  0  0  0  0  0
    3.0660    0.5720    2.6820 C   0  0  0  0  0  0  0  0  0  0  0  0
    3.6210   -0.3760    1.7200 C   0  0  0  0  0  0  0  0  0  0  0  0
    2.9220   -0.4160    0.4050 C   0  0  2  0  0  0  0  0  0  0  0  0
    2.9520    0.8650   -0.2500 N   0  0  0  0  0  0  0  0  0  0  0  0
    1.5830   -1.0140    0.4560 C   0  0  0  0  0  0  0  0  0  0  0  0
    1.4290   -2.0280    1.2080 O   0  0  0  0  0  0  0  0  0  0  0  0
    3.5550    1.8790    2.6920 C   0  0  0  0  0  0  0  0  0  0  0  0
    3.0680    2.7990    3.5930 C   0  0  0  0  0  0  0  0  0  0  0  0
    1.1250    3.1150    6.2020 H   0  0  0  0  0  0  0  0  0  0  0  0
    0.8320    0.9020    5.2140 H   0  0  0  0  0  0  0  0  0  0  0  0
    1.6770   -0.7750    3.6220 H   0  0  0  0  0  0  0  0  0  0  0  0
    3.6190   -1.3940    2.2120 H   0  0  0  0  0  0  0  0  0  0  0  0
    4.7100   -0.1410    1.5780 H   0  0  0  0  0  0  0  0  0  0  0  0
    3.5800   -1.0730   -0.2890 H   0  0  0  0  0  0  0  0  0  0  0  0
    2.5540    0.8490   -1.2050 H   0  0  0  0  0  0  0  0  0  0  0  0
    2.5990    1.5860    0.3840 H   0  0  0  0  0  0  0  0  0  0  0  0
    4.3200    2.1720    1.9920 H   0  0  0  0  0  0  0  0  0  0  0  0
    3.4460    3.8150    3.6040 H   0  0  0  0  0  0  0  0  0  0  0  0
   -0.3550    3.0350    2.2340 C   0  0  0  0  0  0  0  0  0  0  0  0
   -0.3290    1.8080    0.8970 S   0  0  0  0  0  0  0  0  0  0  0  0
   -1.8240    0.8220    0.9160 C   0  0  0  0  0  0  0  0  0  0  0  0
   -1.8810   -0.1570   -0.2140 C   0  0  0  0  0  0  0  0  0  0  0  0
   -0.7790   -1.1460   -0.2020 C   0  0  2  0  0  0  0  0  0  0  0  0
    0.5000   -0.5060   -0.2940 N   0  0  0  0  0  0  0  0  0  0  0  0
   -0.8680   -2.0550   -1.4170 C   0  0  0  0  0  0  0  0  0  0  0  0
    0.0970   -2.1020   -2.1940 O   0  0  0  0  0  0  0  0  0  0  0  0
   -0.5550    2.6050    3.2220 H   0  0  0  0  0  0  0  0  0  0  0  0
    0.6140    3.5520    2.2630 H   0  0  0  0  0  0  0  0  0  0  0  0
   -1.1710    3.7660    2.0380 H   0  0  0  0  0  0  0  0  0  0  0  0
   -1.9240    0.2840    1.9080 H   0  0  0  0  0  0  0  0  0  0  0  0
   -2.6880    1.5260    0.9100 H   0  0  0  0  0  0  0  0  0  0  0  0
   -2.8500   -0.7310   -0.0670 H   0  0  0  0  0  0  0  0  0  0  0  0
   -1.9390    0.4230   -1.1630 H   0  0  0  0  0  0  0  0  0  0  0  0
   -0.8020   -1.8350    0.6840 H   0  0  0  0  0  0  0  0  0  0  0  0
    0.6250    0.3090   -0.9000 H   0  0  0  0  0  0  0  0  0  0  0  0
   -2.0260   -2.8340   -1.6610 N   0  0  0  0  0  0  0  0  0  0  0  0
   -2.1680   -3.7160   -2.7980 C   0  0  1  0  0  0  0  0  0  0  0  0
   -2.3630   -5.1290   -2.3190 C   0  0  0  0  0  0  0  0  0  0  0  0
   -3.5610   -5.3290   -1.4830 C   0  0  0  0  0  0  0  0  0  0  0  0
   -4.3380   -4.3790   -1.2430 O   0  0  0  0  0  0  0  0  0  0  0  0
   -3.2920   -3.3080   -3.6730 C   0  0  0  0  0  0  0  0  0  0  0  0
   -3.9730   -2.2970   -3.3680 O   0  0  0  0  0  0  0  0  0  0  0  0
   -3.8810   -6.5610   -0.9320 O   0  0  0  0  0  0  0  0  0  0  0  0
   -3.6320   -3.9940   -4.8260 O   0  0  0  0  0  0  0  0  0  0  0  0
   -2.7810   -2.7240   -0.9520 H   0  0  0  0  0  0  0  0  0  0  0  0
   -1.2580   -3.7210   -3.4370 H   0  0  0  0  0  0  0  0  0  0  0  0
   -1.4870   -5.4970   -1.7420 H   0  0  0  0  0  0  0  0  0  0  0  0
   -2.3950   -5.7910   -3.2290 H   0  0  0  0  0  0  0  0  0  0  0  0
   -4.3710   -6.6470   -0.0370 H   0  0  0  0  0  0  0  0  0  0  0  0
  1 13  1  0  0  0  0
  2  1  1  0  0  0  0
  3  2  1  0  0  0  0
  3 14  1  0  0  0  0
  4 15  1  0  0  0  0
  4  3  2  0  0  0  0
  5 11  2  0  0  0  0
  5  4  1  0  0  0  0
  6 16  1  0  0  0  0
  6  5  1  0  0  0  0
  7 18  1  6  0  0  0
  7  9  1  0  0  0  0
  7  6  1  0  0  0  0
  8 20  1  0  0  0  0
  8  7  1  0  0  0  0
  9 10  2  0  0  0  0
 11 12  1  0  0  0  0
 12 22  1  0  0  0  0
 12  2  2  0  0  0  0
 17  6  1  0  0  0  0
 19  8  1  0  0  0  0
 21 11  1  0  0  0  0
 23 32  1  0  0  0  0
 23 31  1  0  0  0  0
 24 25  1  0  0  0  0
 24 23  1  0  0  0  0
 25 34  1  0  0  0  0
 26 27  1  0  0  0  0
 26 36  1  0  0  0  0
 26 25  1  0  0  0  0
 27 38  1  1  0  0  0
 28 27  1  0  0  0  0
 28  9  1  0  0  0  0
 29 27  1  0  0  0  0
 30 29  2  0  0  0  0
 33 23  1  0  0  0  0
 35 25  1  0  0  0  0
 37 26  1  0  0  0  0
 39 28  1  0  0  0  0
 40 29  1  0  0  0  0
 40 49  1  0  0  0  0
 41 50  1  6  0  0  0
 41 42  1  0  0  0  0
 41 40  1  0  0  0  0
 42 51  1  0  0  0  0
 42 43  1  0  0  0  0
 43 44  2  0  0  0  0
 43 47  1  0  0  0  0
 45 46  1  0  0  0  0
 45 41  1  0  0  0  0
 47 53  1  0  0  0  0
 48 45  2  0  0  0  0
 52 42  1  0  0  0  0
M  END
$$$$
