YME.pdb
 OpenBabel07022419223D

 56 56  0  0  1  0  0  0  0  0999 V2000
    1.5800   -1.3550    5.7710 O   0  0  0  0  0  0  0  0  0  0  0  0
    1.9150   -1.4010    4.4040 C   0  0  0  0  0  0  0  0  0  0  0  0
    0.9360   -1.3420    3.4320 C   0  0  0  0  0  0  0  0  0  0  0  0
    1.2630   -1.3870    2.0960 C   0  0  0  0  0  0  0  0  0  0  0  0
    2.5770   -1.4940    1.6860 C   0  0  0  0  0  0  0  0  0  0  0  0
    2.8410   -1.5460    0.2250 C   0  0  0  0  0  0  0  0  0  0  0  0
    2.9570   -0.1430   -0.3510 C   0  0  2  0  0  0  0  0  0  0  0  0
    4.0490    0.5200    0.3470 N   0  0  0  0  0  0  0  0  0  0  0  0
    1.6970    0.6100   -0.1210 C   0  0  0  0  0  0  0  0  0  0  0  0
    1.6460    1.5090    0.7750 O   0  0  0  0  0  0  0  0  0  0  0  0
    3.5240   -1.5510    2.6660 C   0  0  0  0  0  0  0  0  0  0  0  0
    3.2200   -1.5070    3.9990 C   0  0  0  0  0  0  0  0  0  0  0  0
    0.8220   -0.7360    6.0990 H   0  0  0  0  0  0  0  0  0  0  0  0
   -0.1080   -1.2570    3.7470 H   0  0  0  0  0  0  0  0  0  0  0  0
    0.4570   -1.3290    1.3500 H   0  0  0  0  0  0  0  0  0  0  0  0
    1.9620   -2.0230   -0.2530 H   0  0  0  0  0  0  0  0  0  0  0  0
    3.7390   -2.1250    0.0070 H   0  0  0  0  0  0  0  0  0  0  0  0
    3.1640   -0.2290   -1.4310 H   0  0  0  0  0  0  0  0  0  0  0  0
    4.4340    1.2620   -0.2970 H   0  0  0  0  0  0  0  0  0  0  0  0
    4.8510   -0.1530    0.5040 H   0  0  0  0  0  0  0  0  0  0  0  0
    4.5560   -1.6340    2.3700 H   0  0  0  0  0  0  0  0  0  0  0  0
    3.9890   -1.5530    4.7480 H   0  0  0  0  0  0  0  0  0  0  0  0
   -2.0640    3.3520    1.5540 C   0  0  0  0  0  0  0  0  0  0  0  0
   -2.0070    4.1230   -0.0400 S   0  0  0  0  0  0  0  0  0  0  0  0
   -2.0910    3.0610   -1.4730 C   0  0  0  0  0  0  0  0  0  0  0  0
   -0.9130    2.1650   -1.6840 C   0  0  0  0  0  0  0  0  0  0  0  0
   -0.6880    1.1700   -0.5810 C   0  0  2  0  0  0  0  0  0  0  0  0
    0.5130    0.3880   -0.8580 N   0  0  0  0  0  0  0  0  0  0  0  0
   -1.8430    0.2520   -0.4920 C   0  0  0  0  0  0  0  0  0  0  0  0
   -3.0340    0.6310   -0.3280 O   0  0  0  0  0  0  0  0  0  0  0  0
   -1.0400    3.3360    2.0070 H   0  0  0  0  0  0  0  0  0  0  0  0
   -2.4710    2.3480    1.6260 H   0  0  0  0  0  0  0  0  0  0  0  0
   -2.6360    4.0290    2.2490 H   0  0  0  0  0  0  0  0  0  0  0  0
   -2.2310    3.7310   -2.3880 H   0  0  0  0  0  0  0  0  0  0  0  0
   -3.0590    2.5220   -1.4370 H   0  0  0  0  0  0  0  0  0  0  0  0
   -1.1170    1.6070   -2.6500 H   0  0  0  0  0  0  0  0  0  0  0  0
    0.0140    2.7420   -1.9250 H   0  0  0  0  0  0  0  0  0  0  0  0
   -0.5680    1.6970    0.3750 H   0  0  0  0  0  0  0  0  0  0  0  0
    0.4950   -0.3170   -1.6000 H   0  0  0  0  0  0  0  0  0  0  0  0
   -1.7040   -1.1550   -0.5900 N   0  0  0  0  0  0  0  0  0  0  0  0
   -2.7630   -2.1220   -0.5400 C   0  0  1  0  0  0  0  0  0  0  0  0
   -2.9440   -2.9340   -1.7490 C   0  0  0  0  0  0  0  0  0  0  0  0
   -1.8220   -3.7390   -2.2670 C   0  0  0  0  0  0  0  0  0  0  0  0
   -1.2420   -4.7750   -1.4270 C   0  0  0  0  0  0  0  0  0  0  0  0
   -1.6510   -5.0320   -0.2900 O   0  0  0  0  0  0  0  0  0  0  0  0
   -2.8420   -2.7750    0.7580 C   0  0  0  0  0  0  0  0  0  0  0  0
   -3.7920   -3.5720    1.0870 O   0  0  0  0  0  0  0  0  0  0  0  0
   -0.1560   -5.5710   -1.8590 O   0  0  0  0  0  0  0  0  0  0  0  0
   -1.8810   -2.5670    1.7180 O   0  0  0  0  0  0  0  0  0  0  0  0
   -0.7500   -1.5490   -0.7040 H   0  0  0  0  0  0  0  0  0  0  0  0
   -3.7060   -1.4300   -0.5360 H   0  0  0  0  0  0  0  0  0  0  0  0
   -3.7570   -3.6930   -1.4890 H   0  0  0  0  0  0  0  0  0  0  0  0
   -3.4580   -2.3310   -2.5370 H   0  0  0  0  0  0  0  0  0  0  0  0
   -2.1730   -4.2840   -3.2110 H   0  0  0  0  0  0  0  0  0  0  0  0
   -0.9600   -3.1160   -2.6330 H   0  0  0  0  0  0  0  0  0  0  0  0
   -0.0730   -6.5330   -1.5370 H   0  0  0  0  0  0  0  0  0  0  0  0
  1 13  1  0  0  0  0
  2  1  1  0  0  0  0
  3 14  1  0  0  0  0
  3  2  2  0  0  0  0
  4  3  1  0  0  0  0
  5  4  2  0  0  0  0
  5 11  1  0  0  0  0
  6  5  1  0  0  0  0
  7 18  1  6  0  0  0
  7  9  1  0  0  0  0
  7  6  1  0  0  0  0
  7  8  1  0  0  0  0
  8 20  1  0  0  0  0
  9 10  2  0  0  0  0
 11 12  2  0  0  0  0
 12  2  1  0  0  0  0
 12 22  1  0  0  0  0
 15  4  1  0  0  0  0
 16  6  1  0  0  0  0
 17  6  1  0  0  0  0
 19  8  1  0  0  0  0
 21 11  1  0  0  0  0
 23 32  1  0  0  0  0
 23 31  1  0  0  0  0
 23 33  1  0  0  0  0
 24 23  1  0  0  0  0
 25 35  1  0  0  0  0
 25 24  1  0  0  0  0
 26 25  1  0  0  0  0
 26 27  1  0  0  0  0
 27 29  1  0  0  0  0
 27 38  1  1  0  0  0
 28 27  1  0  0  0  0
 28  9  1  0  0  0  0
 29 30  2  0  0  0  0
 34 25  1  0  0  0  0
 36 26  1  0  0  0  0
 37 26  1  0  0  0  0
 39 28  1  0  0  0  0
 40 41  1  0  0  0  0
 40 29  1  0  0  0  0
 41 51  1  6  0  0  0
 41 46  1  0  0  0  0
 42 52  1  0  0  0  0
 42 41  1  0  0  0  0
 43 42  1  0  0  0  0
 43 44  1  0  0  0  0
 44 45  2  0  0  0  0
 46 47  2  0  0  0  0
 46 49  1  0  0  0  0
 48 56  1  0  0  0  0
 48 44  1  0  0  0  0
 50 40  1  0  0  0  0
 53 42  1  0  0  0  0
 54 43  1  0  0  0  0
 55 43  1  0  0  0  0
M  END
$$$$
