YMH.pdb
 OpenBabel07022419223D

 57 58  0  0  1  0  0  0  0  0999 V2000
    3.6630    3.0240    5.2600 O   0  0  0  0  0  0  0  0  0  0  0  0
    3.7750    2.4580    3.9920 C   0  0  0  0  0  0  0  0  0  0  0  0
    3.6490    1.0990    3.7760 C   0  0  0  0  0  0  0  0  0  0  0  0
    3.7540    0.5140    2.5390 C   0  0  0  0  0  0  0  0  0  0  0  0
    4.0000    1.3090    1.4450 C   0  0  0  0  0  0  0  0  0  0  0  0
    4.1310    0.7610    0.0730 C   0  0  0  0  0  0  0  0  0  0  0  0
    2.8690    0.6940   -0.7110 C   0  0  2  0  0  0  0  0  0  0  0  0
    2.2040    1.9440   -0.9380 N   0  0  0  0  0  0  0  0  0  0  0  0
    1.8970   -0.3050   -0.2560 C   0  0  0  0  0  0  0  0  0  0  0  0
    2.3440   -1.4100    0.1460 O   0  0  0  0  0  0  0  0  0  0  0  0
    4.1340    2.6700    1.6120 C   0  0  0  0  0  0  0  0  0  0  0  0
    4.0210    3.2200    2.8690 C   0  0  0  0  0  0  0  0  0  0  0  0
    4.4030    3.0580    5.9280 H   0  0  0  0  0  0  0  0  0  0  0  0
    3.4540    0.4840    4.6590 H   0  0  0  0  0  0  0  0  0  0  0  0
    3.6470   -0.5750    2.4120 H   0  0  0  0  0  0  0  0  0  0  0  0
    4.6120   -0.2250    0.0810 H   0  0  0  0  0  0  0  0  0  0  0  0
    4.8340    1.4310   -0.5050 H   0  0  0  0  0  0  0  0  0  0  0  0
    3.1910    0.3330   -1.7500 H   0  0  0  0  0  0  0  0  0  0  0  0
    2.3100    2.3210   -1.8840 H   0  0  0  0  0  0  0  0  0  0  0  0
    2.2410    2.6260   -0.1710 H   0  0  0  0  0  0  0  0  0  0  0  0
    4.3340    3.3170    0.7390 H   0  0  0  0  0  0  0  0  0  0  0  0
    4.1250    4.2990    3.0150 H   0  0  0  0  0  0  0  0  0  0  0  0
   -0.2700    3.0070    1.3170 C   0  0  0  0  0  0  0  0  0  0  0  0
    0.4830    1.4960    1.9650 S   0  0  0  0  0  0  0  0  0  0  0  0
   -0.7240    0.2230    2.3170 C   0  0  0  0  0  0  0  0  0  0  0  0
   -1.4140   -0.3300    1.1190 C   0  0  0  0  0  0  0  0  0  0  0  0
   -0.4620   -0.9820    0.1580 C   0  0  2  0  0  0  0  0  0  0  0  0
    0.5080   -0.0040   -0.2830 N   0  0  0  0  0  0  0  0  0  0  0  0
   -1.1760   -1.4800   -1.0560 C   0  0  0  0  0  0  0  0  0  0  0  0
   -0.8720   -1.0320   -2.1610 O   0  0  0  0  0  0  0  0  0  0  0  0
   -0.8530    2.8130    0.4000 H   0  0  0  0  0  0  0  0  0  0  0  0
   -0.9750    3.4750    2.0450 H   0  0  0  0  0  0  0  0  0  0  0  0
    0.5410    3.7480    1.1610 H   0  0  0  0  0  0  0  0  0  0  0  0
   -1.4950    0.5500    3.0560 H   0  0  0  0  0  0  0  0  0  0  0  0
   -0.1900   -0.6270    2.8200 H   0  0  0  0  0  0  0  0  0  0  0  0
   -2.0200    0.4320    0.5780 H   0  0  0  0  0  0  0  0  0  0  0  0
   -2.1400   -1.1040    1.4380 H   0  0  0  0  0  0  0  0  0  0  0  0
    0.1020   -1.8250    0.6360 H   0  0  0  0  0  0  0  0  0  0  0  0
    0.2330    0.9380   -0.6340 H   0  0  0  0  0  0  0  0  0  0  0  0
   -2.2020   -2.4550   -0.9970 N   0  0  0  0  0  0  0  0  0  0  0  0
   -2.8760   -2.9230   -2.1530 C   0  0  1  0  0  0  0  0  0  0  0  0
   -2.7030   -4.3850   -2.4550 C   0  0  0  0  0  0  0  0  0  0  0  0
   -3.1980   -5.2490   -1.3490 C   0  0  0  0  0  0  0  0  0  0  0  0
   -4.4710   -5.7710   -1.1690 C   0  0  0  0  0  0  0  0  0  0  0  0
   -4.5050   -6.5050   -0.0370 N   0  0  0  0  0  0  0  0  0  0  0  0
   -3.2830   -6.4570    0.4990 C   0  0  0  0  0  0  0  0  0  0  0  0
   -2.5070   -5.7150   -0.2750 N   0  0  0  0  0  0  0  0  0  0  0  0
   -4.3070   -2.5170   -2.1460 C   0  0  0  0  0  0  0  0  0  0  0  0
   -5.1070   -2.8120   -3.0610 O   0  0  0  0  0  0  0  0  0  0  0  0
   -4.7820   -1.7820   -1.0840 O   0  0  0  0  0  0  0  0  0  0  0  0
   -2.4460   -2.8230   -0.0480 H   0  0  0  0  0  0  0  0  0  0  0  0
   -2.4380   -2.3810   -3.0440 H   0  0  0  0  0  0  0  0  0  0  0  0
   -3.3370   -4.6530   -3.3420 H   0  0  0  0  0  0  0  0  0  0  0  0
   -1.6720   -4.6390   -2.7750 H   0  0  0  0  0  0  0  0  0  0  0  0
   -5.3150   -5.6220   -1.8240 H   0  0  0  0  0  0  0  0  0  0  0  0
   -5.2940   -7.0250    0.3830 H   0  0  0  0  0  0  0  0  0  0  0  0
   -2.9230   -6.9330    1.4230 H   0  0  0  0  0  0  0  0  0  0  0  0
  1 13  1  0  0  0  0
  2  1  1  0  0  0  0
  3  2  1  0  0  0  0
  3 14  1  0  0  0  0
  4  3  2  0  0  0  0
  5 11  2  0  0  0  0
  5  4  1  0  0  0  0
  6 16  1  0  0  0  0
  6  5  1  0  0  0  0
  7 18  1  6  0  0  0
  7  9  1  0  0  0  0
  7  6  1  0  0  0  0
  8  7  1  0  0  0  0
  8 20  1  0  0  0  0
  9 10  2  0  0  0  0
 11 12  1  0  0  0  0
 12 22  1  0  0  0  0
 12  2  2  0  0  0  0
 15  4  1  0  0  0  0
 17  6  1  0  0  0  0
 19  8  1  0  0  0  0
 21 11  1  0  0  0  0
 23 24  1  0  0  0  0
 23 32  1  0  0  0  0
 24 25  1  0  0  0  0
 25 35  1  0  0  0  0
 25 34  1  0  0  0  0
 26 37  1  0  0  0  0
 26 25  1  0  0  0  0
 27 38  1  1  0  0  0
 27 26  1  0  0  0  0
 28  9  1  0  0  0  0
 28 27  1  0  0  0  0
 29 40  1  0  0  0  0
 29 27  1  0  0  0  0
 30 29  2  0  0  0  0
 31 23  1  0  0  0  0
 33 23  1  0  0  0  0
 36 26  1  0  0  0  0
 39 28  1  0  0  0  0
 40 51  1  0  0  0  0
 41 52  1  6  0  0  0
 41 48  1  0  0  0  0
 41 40  1  0  0  0  0
 42 41  1  0  0  0  0
 42 43  1  0  0  0  0
 43 44  2  0  0  0  0
 43 47  1  0  0  0  0
 44 45  1  0  0  0  0
 45 56  1  0  0  0  0
 45 46  1  0  0  0  0
 46 57  1  0  0  0  0
 47 46  2  0  0  0  0
 48 50  1  0  0  0  0
 49 48  2  0  0  0  0
 53 42  1  0  0  0  0
 54 42  1  0  0  0  0
 55 44  1  0  0  0  0
M  END
$$$$
