YMI.pdb
 OpenBabel07022419223D

 59 59  0  0  1  0  0  0  0  0999 V2000
   -4.6100    3.1150    1.2130 O   0  0  0  0  0  0  0  0  0  0  0  0
   -3.4610    2.6490    1.8330 C   0  0  0  0  0  0  0  0  0  0  0  0
   -3.5080    1.7550    2.8790 C   0  0  0  0  0  0  0  0  0  0  0  0
   -2.3350    1.3270    3.4560 C   0  0  0  0  0  0  0  0  0  0  0  0
   -1.1100    1.7790    3.0050 C   0  0  0  0  0  0  0  0  0  0  0  0
    0.1020    1.2930    3.6780 C   0  0  0  0  0  0  0  0  0  0  0  0
    0.6670    0.0080    3.1490 C   0  0  2  0  0  0  0  0  0  0  0  0
    1.8600   -0.2500    3.9780 N   0  0  0  0  0  0  0  0  0  0  0  0
    1.1220    0.1120    1.7170 C   0  0  0  0  0  0  0  0  0  0  0  0
    2.3630    0.1760    1.5420 O   0  0  0  0  0  0  0  0  0  0  0  0
   -1.0720    2.6680    1.9640 C   0  0  0  0  0  0  0  0  0  0  0  0
   -2.2320    3.1010    1.3810 C   0  0  0  0  0  0  0  0  0  0  0  0
   -5.2480    3.7770    1.6490 H   0  0  0  0  0  0  0  0  0  0  0  0
   -4.4610    1.4150    3.2180 H   0  0  0  0  0  0  0  0  0  0  0  0
   -2.4360    0.6210    4.2790 H   0  0  0  0  0  0  0  0  0  0  0  0
   -0.1560    1.1000    4.7480 H   0  0  0  0  0  0  0  0  0  0  0  0
    0.9110    2.0550    3.7040 H   0  0  0  0  0  0  0  0  0  0  0  0
    0.0130   -0.8550    3.2650 H   0  0  0  0  0  0  0  0  0  0  0  0
    2.5980   -0.7540    3.4250 H   0  0  0  0  0  0  0  0  0  0  0  0
    1.5810   -0.8090    4.8010 H   0  0  0  0  0  0  0  0  0  0  0  0
   -0.1330    3.0280    1.6020 H   0  0  0  0  0  0  0  0  0  0  0  0
   -2.2450    3.8130    0.5460 H   0  0  0  0  0  0  0  0  0  0  0  0
    4.9720    1.7780    0.0260 C   0  0  0  0  0  0  0  0  0  0  0  0
    3.7790    2.7430   -0.9390 S   0  0  0  0  0  0  0  0  0  0  0  0
    2.0780    2.1640   -0.5700 C   0  0  0  0  0  0  0  0  0  0  0  0
    1.8950    0.7680   -1.0590 C   0  0  0  0  0  0  0  0  0  0  0  0
    0.5060    0.2520   -0.7320 C   0  0  2  0  0  0  0  0  0  0  0  0
    0.1990    0.1320    0.6520 N   0  0  0  0  0  0  0  0  0  0  0  0
    0.1470   -0.9300   -1.5330 C   0  0  0  0  0  0  0  0  0  0  0  0
    0.3760   -0.9630   -2.7850 O   0  0  0  0  0  0  0  0  0  0  0  0
    5.9500    2.2960    0.0790 H   0  0  0  0  0  0  0  0  0  0  0  0
    4.6330    1.6540    1.0740 H   0  0  0  0  0  0  0  0  0  0  0  0
    5.1510    0.8050   -0.4730 H   0  0  0  0  0  0  0  0  0  0  0  0
    1.8590    2.4040    0.4500 H   0  0  0  0  0  0  0  0  0  0  0  0
    1.4410    2.8470   -1.2520 H   0  0  0  0  0  0  0  0  0  0  0  0
    1.9420    0.7580   -2.1790 H   0  0  0  0  0  0  0  0  0  0  0  0
    2.7130    0.1410   -0.7240 H   0  0  0  0  0  0  0  0  0  0  0  0
   -0.1210    1.1670   -1.1070 H   0  0  0  0  0  0  0  0  0  0  0  0
   -0.8220    0.0400    0.9030 H   0  0  0  0  0  0  0  0  0  0  0  0
   -1.4360   -6.4310   -1.5090 C   0  0  0  0  0  0  0  0  0  0  0  0
   -0.2850   -5.6820   -2.1340 C   0  0  0  0  0  0  0  0  0  0  0  0
    0.0020   -4.4060   -1.3990 C   0  0  2  0  0  0  0  0  0  0  0  0
    0.3100   -4.5950    0.0500 C   0  0  0  0  0  0  0  0  0  0  0  0
   -0.8200   -3.2730   -1.8210 C   0  0  2  0  0  0  0  0  0  0  0  0
   -0.4600   -2.0880   -1.0170 N   0  0  0  0  0  0  0  0  0  0  0  0
   -2.2610   -3.4080   -1.9610 C   0  0  0  0  0  0  0  0  0  0  0  0
   -2.8460   -4.2540   -2.6770 O   0  0  0  0  0  0  0  0  0  0  0  0
   -3.1770   -2.5660   -1.2800 O   0  0  0  0  0  0  0  0  0  0  0  0
   -1.0510   -7.3450   -0.9610 H   0  0  0  0  0  0  0  0  0  0  0  0
   -2.0960   -6.7930   -2.3120 H   0  0  0  0  0  0  0  0  0  0  0  0
   -1.9790   -5.8680   -0.7350 H   0  0  0  0  0  0  0  0  0  0  0  0
   -0.4810   -5.4360   -3.2020 H   0  0  0  0  0  0  0  0  0  0  0  0
    0.6270   -6.3400   -2.0540 H   0  0  0  0  0  0  0  0  0  0  0  0
    1.0720   -4.1400   -1.8230 H   0  0  0  0  0  0  0  0  0  0  0  0
    0.5540   -5.6640    0.2150 H   0  0  0  0  0  0  0  0  0  0  0  0
    1.1870   -4.0140    0.4020 H   0  0  0  0  0  0  0  0  0  0  0  0
   -0.5230   -4.3560    0.7300 H   0  0  0  0  0  0  0  0  0  0  0  0
   -0.4580   -2.9830   -2.8650 H   0  0  0  0  0  0  0  0  0  0  0  0
   -0.6810   -2.1470   -0.0110 H   0  0  0  0  0  0  0  0  0  0  0  0
  1 13  1  0  0  0  0
  1  2  1  0  0  0  0
  2  3  1  0  0  0  0
  3 14  1  0  0  0  0
  3  4  2  0  0  0  0
  4 15  1  0  0  0  0
  5  4  1  0  0  0  0
  5  6  1  0  0  0  0
  6 17  1  0  0  0  0
  6 16  1  0  0  0  0
  7 18  1  1  0  0  0
  7  6  1  0  0  0  0
  7  8  1  0  0  0  0
  8 20  1  0  0  0  0
  9  7  1  0  0  0  0
 10  9  2  0  0  0  0
 11  5  2  0  0  0  0
 12  2  2  0  0  0  0
 12 11  1  0  0  0  0
 19  8  1  0  0  0  0
 21 11  1  0  0  0  0
 22 12  1  0  0  0  0
 23 31  1  0  0  0  0
 23 32  1  0  0  0  0
 24 25  1  0  0  0  0
 24 23  1  0  0  0  0
 25 34  1  0  0  0  0
 26 27  1  0  0  0  0
 26 37  1  0  0  0  0
 26 25  1  0  0  0  0
 27 38  1  6  0  0  0
 27 28  1  0  0  0  0
 28 39  1  0  0  0  0
 28  9  1  0  0  0  0
 29 45  1  0  0  0  0
 29 27  1  0  0  0  0
 30 29  2  0  0  0  0
 33 23  1  0  0  0  0
 35 25  1  0  0  0  0
 36 26  1  0  0  0  0
 40 49  1  0  0  0  0
 40 51  1  0  0  0  0
 41 53  1  0  0  0  0
 41 40  1  0  0  0  0
 41 42  1  0  0  0  0
 42 54  1  6  0  0  0
 42 43  1  0  0  0  0
 43 55  1  0  0  0  0
 43 56  1  0  0  0  0
 43 57  1  0  0  0  0
 44 58  1  6  0  0  0
 44 42  1  0  0  0  0
 44 45  1  0  0  0  0
 45 59  1  0  0  0  0
 46 44  1  0  0  0  0
 46 48  1  0  0  0  0
 47 46  2  0  0  0  0
 50 40  1  0  0  0  0
 52 41  1  0  0  0  0
M  END
$$$$
