YML.pdb
 OpenBabel07022419223D

 59 59  0  0  1  0  0  0  0  0999 V2000
    2.8640   -0.3820    7.1540 O   0  0  0  0  0  0  0  0  0  0  0  0
    2.8670   -0.1950    5.7640 C   0  0  0  0  0  0  0  0  0  0  0  0
    3.6580   -0.9590    4.9300 C   0  0  0  0  0  0  0  0  0  0  0  0
    3.6950   -0.8130    3.5610 C   0  0  0  0  0  0  0  0  0  0  0  0
    2.9010    0.1510    2.9700 C   0  0  0  0  0  0  0  0  0  0  0  0
    2.9480    0.3040    1.5070 C   0  0  0  0  0  0  0  0  0  0  0  0
    1.9840   -0.5440    0.7490 C   0  0  2  0  0  0  0  0  0  0  0  0
    2.1760   -0.2590   -0.6700 N   0  0  0  0  0  0  0  0  0  0  0  0
    0.5820   -0.3470    1.1370 C   0  0  0  0  0  0  0  0  0  0  0  0
    0.2390   -0.5400    2.3300 O   0  0  0  0  0  0  0  0  0  0  0  0
    2.1060    0.9220    3.7920 C   0  0  0  0  0  0  0  0  0  0  0  0
    2.0830    0.7600    5.1580 C   0  0  0  0  0  0  0  0  0  0  0  0
    2.0090   -0.8020    7.5230 H   0  0  0  0  0  0  0  0  0  0  0  0
    4.2790   -1.7150    5.4040 H   0  0  0  0  0  0  0  0  0  0  0  0
    4.3500   -1.4580    2.9550 H   0  0  0  0  0  0  0  0  0  0  0  0
    3.9780    0.0130    1.1730 H   0  0  0  0  0  0  0  0  0  0  0  0
    2.8500    1.3730    1.2460 H   0  0  0  0  0  0  0  0  0  0  0  0
    2.2080   -1.6370    0.9240 H   0  0  0  0  0  0  0  0  0  0  0  0
    2.1210    0.7460   -0.8590 H   0  0  0  0  0  0  0  0  0  0  0  0
    1.5700   -0.8550   -1.2550 H   0  0  0  0  0  0  0  0  0  0  0  0
    1.4760    1.6900    3.3230 H   0  0  0  0  0  0  0  0  0  0  0  0
    1.4530    1.3750    5.7780 H   0  0  0  0  0  0  0  0  0  0  0  0
    1.1970    3.8150    1.3750 C   0  0  0  0  0  0  0  0  0  0  0  0
    0.1930    2.5700    0.5350 S   0  0  0  0  0  0  0  0  0  0  0  0
   -1.5080    2.6080    1.1500 C   0  0  0  0  0  0  0  0  0  0  0  0
   -2.3610    1.5840    0.4430 C   0  0  0  0  0  0  0  0  0  0  0  0
   -1.7830    0.2250    0.6920 C   0  0  2  0  0  0  0  0  0  0  0  0
   -0.4310    0.0550    0.2260 N   0  0  0  0  0  0  0  0  0  0  0  0
   -2.6790   -0.8540    0.1440 C   0  0  0  0  0  0  0  0  0  0  0  0
   -3.9000   -0.8790    0.4360 O   0  0  0  0  0  0  0  0  0  0  0  0
    2.2630    3.6970    1.1620 H   0  0  0  0  0  0  0  0  0  0  0  0
    0.8990    4.8080    0.9300 H   0  0  0  0  0  0  0  0  0  0  0  0
    0.9840    3.8720    2.4580 H   0  0  0  0  0  0  0  0  0  0  0  0
   -1.4880    2.4280    2.2440 H   0  0  0  0  0  0  0  0  0  0  0  0
   -1.9500    3.6420    1.0420 H   0  0  0  0  0  0  0  0  0  0  0  0
   -3.3520    1.5970    0.9790 H   0  0  0  0  0  0  0  0  0  0  0  0
   -2.5180    1.8130   -0.6160 H   0  0  0  0  0  0  0  0  0  0  0  0
   -1.8250    0.0510    1.8090 H   0  0  0  0  0  0  0  0  0  0  0  0
   -0.1780    0.2190   -0.7530 H   0  0  0  0  0  0  0  0  0  0  0  0
   -0.6460   -4.2510   -3.1060 C   0  0  0  0  0  0  0  0  0  0  0  0
   -1.4470   -3.0290   -3.4200 C   0  0  0  0  0  0  0  0  0  0  0  0
   -1.6940   -3.0580   -4.9380 C   0  0  0  0  0  0  0  0  0  0  0  0
   -2.7730   -2.9210   -2.7770 C   0  0  0  0  0  0  0  0  0  0  0  0
   -2.8170   -2.9020   -1.2920 C   0  0  2  0  0  0  0  0  0  0  0  0
   -2.0840   -1.8210   -0.7010 N   0  0  0  0  0  0  0  0  0  0  0  0
   -2.4250   -4.2250   -0.7580 C   0  0  0  0  0  0  0  0  0  0  0  0
   -1.5270   -4.2930    0.1310 O   0  0  0  0  0  0  0  0  0  0  0  0
   -3.0080   -5.3810   -1.1980 O   0  0  0  0  0  0  0  0  0  0  0  0
   -1.2430   -5.1900   -3.2610 H   0  0  0  0  0  0  0  0  0  0  0  0
    0.1530   -4.3320   -3.9110 H   0  0  0  0  0  0  0  0  0  0  0  0
   -0.0850   -4.2280   -2.1700 H   0  0  0  0  0  0  0  0  0  0  0  0
   -0.7960   -2.1400   -3.2740 H   0  0  0  0  0  0  0  0  0  0  0  0
   -2.5630   -2.3970   -5.1300 H   0  0  0  0  0  0  0  0  0  0  0  0
   -2.0000   -4.0860   -5.1910 H   0  0  0  0  0  0  0  0  0  0  0  0
   -0.8000   -2.7170   -5.4940 H   0  0  0  0  0  0  0  0  0  0  0  0
   -3.2640   -1.9650   -3.1280 H   0  0  0  0  0  0  0  0  0  0  0  0
   -3.4340   -3.7170   -3.2180 H   0  0  0  0  0  0  0  0  0  0  0  0
   -3.8900   -2.7660   -0.9290 H   0  0  0  0  0  0  0  0  0  0  0  0
   -1.0660   -1.7350   -0.8970 H   0  0  0  0  0  0  0  0  0  0  0  0
  1 13  1  0  0  0  0
  2  1  1  0  0  0  0
  3 14  1  0  0  0  0
  3  2  2  0  0  0  0
  4  3  1  0  0  0  0
  5  4  2  0  0  0  0
  5 11  1  0  0  0  0
  6  5  1  0  0  0  0
  7 18  1  1  0  0  0
  7  9  1  0  0  0  0
  7  6  1  0  0  0  0
  8  7  1  0  0  0  0
  9 10  2  0  0  0  0
 11 12  2  0  0  0  0
 12  2  1  0  0  0  0
 12 22  1  0  0  0  0
 15  4  1  0  0  0  0
 16  6  1  0  0  0  0
 17  6  1  0  0  0  0
 19  8  1  0  0  0  0
 20  8  1  0  0  0  0
 21 11  1  0  0  0  0
 23 33  1  0  0  0  0
 24 25  1  0  0  0  0
 24 23  1  0  0  0  0
 25 34  1  0  0  0  0
 26 27  1  0  0  0  0
 26 36  1  0  0  0  0
 26 25  1  0  0  0  0
 27 38  1  1  0  0  0
 28 27  1  0  0  0  0
 28  9  1  0  0  0  0
 29 30  2  0  0  0  0
 29 27  1  0  0  0  0
 31 23  1  0  0  0  0
 32 23  1  0  0  0  0
 35 25  1  0  0  0  0
 37 26  1  0  0  0  0
 39 28  1  0  0  0  0
 40 51  1  0  0  0  0
 41 52  1  0  0  0  0
 41 40  1  0  0  0  0
 41 43  1  0  0  0  0
 42 41  1  0  0  0  0
 43 44  1  0  0  0  0
 44 58  1  1  0  0  0
 44 46  1  0  0  0  0
 44 45  1  0  0  0  0
 45 29  1  0  0  0  0
 46 47  1  0  0  0  0
 48 46  2  0  0  0  0
 49 40  1  0  0  0  0
 50 40  1  0  0  0  0
 53 42  1  0  0  0  0
 54 42  1  0  0  0  0
 55 42  1  0  0  0  0
 56 43  1  0  0  0  0
 57 43  1  0  0  0  0
 59 45  1  0  0  0  0
M  END
$$$$
