YMN.pdb
 OpenBabel07022419223D

 54 54  0  0  1  0  0  0  0  0999 V2000
    4.1840   -1.6880    7.1100 O   0  0  0  0  0  0  0  0  0  0  0  0
    3.5370   -1.0490    6.0600 C   0  0  0  0  0  0  0  0  0  0  0  0
    3.9400   -1.1820    4.7470 C   0  0  0  0  0  0  0  0  0  0  0  0
    3.2780   -0.5340    3.7210 C   0  0  0  0  0  0  0  0  0  0  0  0
    2.1820    0.2790    3.9610 C   0  0  0  0  0  0  0  0  0  0  0  0
    1.4530    0.9900    2.8740 C   0  0  0  0  0  0  0  0  0  0  0  0
    0.3560    0.0680    2.3890 C   0  0  2  0  0  0  0  0  0  0  0  0
    0.8890   -1.1770    1.8760 N   0  0  0  0  0  0  0  0  0  0  0  0
   -0.4660    0.7150    1.3250 C   0  0  0  0  0  0  0  0  0  0  0  0
   -1.0560    1.8120    1.5490 O   0  0  0  0  0  0  0  0  0  0  0  0
    1.7880    0.4050    5.2790 C   0  0  0  0  0  0  0  0  0  0  0  0
    2.4460   -0.2410    6.3060 C   0  0  0  0  0  0  0  0  0  0  0  0
    3.6520   -2.0530    7.8860 H   0  0  0  0  0  0  0  0  0  0  0  0
    4.7990   -1.8190    4.5470 H   0  0  0  0  0  0  0  0  0  0  0  0
    3.5980   -0.6420    2.6790 H   0  0  0  0  0  0  0  0  0  0  0  0
    2.1370    1.2600    2.0460 H   0  0  0  0  0  0  0  0  0  0  0  0
    1.0140    1.9050    3.2800 H   0  0  0  0  0  0  0  0  0  0  0  0
   -0.3220   -0.1520    3.2380 H   0  0  0  0  0  0  0  0  0  0  0  0
    1.2500   -1.7930    2.6330 H   0  0  0  0  0  0  0  0  0  0  0  0
    1.7110   -0.9950    1.2400 H   0  0  0  0  0  0  0  0  0  0  0  0
    0.9370    1.0340    5.4760 H   0  0  0  0  0  0  0  0  0  0  0  0
    2.1200   -0.1310    7.3480 H   0  0  0  0  0  0  0  0  0  0  0  0
    2.6210    1.3700   -3.6430 C   0  0  0  0  0  0  0  0  0  0  0  0
    1.5820    2.7280   -3.0410 S   0  0  0  0  0  0  0  0  0  0  0  0
    0.5040    2.2030   -1.6960 C   0  0  0  0  0  0  0  0  0  0  0  0
   -0.5320    1.1840   -2.1910 C   0  0  0  0  0  0  0  0  0  0  0  0
   -1.4290    0.7640   -1.0190 C   0  0  2  0  0  0  0  0  0  0  0  0
   -0.6390    0.1620    0.0320 N   0  0  0  0  0  0  0  0  0  0  0  0
   -2.4840   -0.1400   -1.4930 C   0  0  0  0  0  0  0  0  0  0  0  0
   -3.2460    0.2900   -2.4130 O   0  0  0  0  0  0  0  0  0  0  0  0
    3.3670    1.7560   -4.3560 H   0  0  0  0  0  0  0  0  0  0  0  0
    1.9570    0.6750   -4.2050 H   0  0  0  0  0  0  0  0  0  0  0  0
    3.1440    0.8410   -2.8440 H   0  0  0  0  0  0  0  0  0  0  0  0
    1.0780    1.7710   -0.8320 H   0  0  0  0  0  0  0  0  0  0  0  0
   -0.0130    3.1120   -1.3170 H   0  0  0  0  0  0  0  0  0  0  0  0
    0.0520    0.3200   -2.5550 H   0  0  0  0  0  0  0  0  0  0  0  0
   -1.1100    1.6860   -2.9720 H   0  0  0  0  0  0  0  0  0  0  0  0
   -1.9190    1.7050   -0.6890 H   0  0  0  0  0  0  0  0  0  0  0  0
   -0.1590   -0.7390   -0.1640 H   0  0  0  0  0  0  0  0  0  0  0  0
   -1.4190   -4.5370   -3.5280 N   0  0  0  0  0  0  0  0  0  0  0  0
   -2.1140   -3.4310   -2.9830 C   0  0  0  0  0  0  0  0  0  0  0  0
   -1.8730   -2.2880   -3.4360 O   0  0  0  0  0  0  0  0  0  0  0  0
   -3.0930   -3.6230   -1.9100 C   0  0  0  0  0  0  0  0  0  0  0  0
   -3.7310   -2.3260   -1.4620 C   0  0  2  0  0  0  0  0  0  0  0  0
   -2.6880   -1.4530   -0.9800 N   0  0  0  0  0  0  0  0  0  0  0  0
   -4.6930   -2.6640   -0.3820 C   0  0  0  0  0  0  0  0  0  0  0  0
   -5.6880   -3.4090   -0.5420 O   0  0  0  0  0  0  0  0  0  0  0  0
   -4.4820   -2.1260    0.8780 O   0  0  0  0  0  0  0  0  0  0  0  0
   -0.4040   -4.6550   -3.3500 H   0  0  0  0  0  0  0  0  0  0  0  0
   -1.8920   -5.2560   -4.1140 H   0  0  0  0  0  0  0  0  0  0  0  0
   -2.6530   -4.1470   -1.0380 H   0  0  0  0  0  0  0  0  0  0  0  0
   -3.9510   -4.2830   -2.2330 H   0  0  0  0  0  0  0  0  0  0  0  0
   -4.2850   -1.8250   -2.2530 H   0  0  0  0  0  0  0  0  0  0  0  0
   -2.0150   -1.7440   -0.2150 H   0  0  0  0  0  0  0  0  0  0  0  0
  1 13  1  0  0  0  0
  2 12  1  0  0  0  0
  2  1  1  0  0  0  0
  3  2  2  0  0  0  0
  4  5  2  0  0  0  0
  4  3  1  0  0  0  0
  5 11  1  0  0  0  0
  6 17  1  0  0  0  0
  6  5  1  0  0  0  0
  7  6  1  0  0  0  0
  7 18  1  1  0  0  0
  8  7  1  0  0  0  0
  8 19  1  0  0  0  0
  9 10  2  0  0  0  0
  9  7  1  0  0  0  0
 11 21  1  0  0  0  0
 11 12  2  0  0  0  0
 12 22  1  0  0  0  0
 14  3  1  0  0  0  0
 15  4  1  0  0  0  0
 16  6  1  0  0  0  0
 20  8  1  0  0  0  0
 23 24  1  0  0  0  0
 23 33  1  0  0  0  0
 24 25  1  0  0  0  0
 25 35  1  0  0  0  0
 25 34  1  0  0  0  0
 26 25  1  0  0  0  0
 26 27  1  0  0  0  0
 27 38  1  1  0  0  0
 27 28  1  0  0  0  0
 28  9  1  0  0  0  0
 29 27  1  0  0  0  0
 29 45  1  0  0  0  0
 30 29  2  0  0  0  0
 31 23  1  0  0  0  0
 32 23  1  0  0  0  0
 36 26  1  0  0  0  0
 37 26  1  0  0  0  0
 39 28  1  0  0  0  0
 40 49  1  0  0  0  0
 40 41  1  0  0  0  0
 41 43  1  0  0  0  0
 42 41  2  0  0  0  0
 43 44  1  0  0  0  0
 43 51  1  0  0  0  0
 44 53  1  6  0  0  0
 44 45  1  0  0  0  0
 44 46  1  0  0  0  0
 45 54  1  0  0  0  0
 46 48  1  0  0  0  0
 47 46  2  0  0  0  0
 50 40  1  0  0  0  0
 52 43  1  0  0  0  0
M  END
$$$$
