YMP.pdb
 OpenBabel07022419223D

 54 55  0  0  1  0  0  0  0  0999 V2000
   -1.7170   -1.7240    5.5790 O   0  0  0  0  0  0  0  0  0  0  0  0
   -0.6050   -1.5430    4.7630 C   0  0  0  0  0  0  0  0  0  0  0  0
    0.1990   -2.6030    4.3800 C   0  0  0  0  0  0  0  0  0  0  0  0
    1.2910   -2.3880    3.5720 C   0  0  0  0  0  0  0  0  0  0  0  0
    1.6270   -1.1290    3.1180 C   0  0  0  0  0  0  0  0  0  0  0  0
    2.7800   -0.8370    2.2780 C   0  0  0  0  0  0  0  0  0  0  0  0
    2.6180   -0.9540    0.8090 C   0  0  2  0  0  0  0  0  0  0  0  0
    3.9380   -0.5950    0.2390 N   0  0  0  0  0  0  0  0  0  0  0  0
    1.5710   -0.0680    0.2260 C   0  0  0  0  0  0  0  0  0  0  0  0
    1.9510    0.9150   -0.4770 O   0  0  0  0  0  0  0  0  0  0  0  0
    0.8000   -0.0880    3.5210 C   0  0  0  0  0  0  0  0  0  0  0  0
   -0.3000   -0.2680    4.3290 C   0  0  0  0  0  0  0  0  0  0  0  0
   -2.5650   -2.0870    5.1460 H   0  0  0  0  0  0  0  0  0  0  0  0
   -0.0280   -3.6010    4.7120 H   0  0  0  0  0  0  0  0  0  0  0  0
    1.9030   -3.2050    3.2820 H   0  0  0  0  0  0  0  0  0  0  0  0
    3.6510   -1.4960    2.5630 H   0  0  0  0  0  0  0  0  0  0  0  0
    3.1850    0.2000    2.4780 H   0  0  0  0  0  0  0  0  0  0  0  0
    2.4220   -1.9790    0.4490 H   0  0  0  0  0  0  0  0  0  0  0  0
    4.0650    0.4390    0.2650 H   0  0  0  0  0  0  0  0  0  0  0  0
    4.0670   -1.0130   -0.6910 H   0  0  0  0  0  0  0  0  0  0  0  0
    1.0050    0.9260    3.2040 H   0  0  0  0  0  0  0  0  0  0  0  0
   -0.9440    0.5430    4.6420 H   0  0  0  0  0  0  0  0  0  0  0  0
    1.8560    4.2830   -1.1530 C   0  0  0  0  0  0  0  0  0  0  0  0
    0.4600    4.3550   -0.0110 S   0  0  0  0  0  0  0  0  0  0  0  0
   -0.0160    2.7000    0.5840 C   0  0  0  0  0  0  0  0  0  0  0  0
   -0.5560    1.8620   -0.5210 C   0  0  0  0  0  0  0  0  0  0  0  0
   -0.9150    0.4420   -0.0190 C   0  0  2  0  0  0  0  0  0  0  0  0
    0.2060   -0.2930    0.4300 N   0  0  0  0  0  0  0  0  0  0  0  0
   -1.9090   -0.2040   -0.8320 C   0  0  0  0  0  0  0  0  0  0  0  0
   -2.9210    0.4870   -1.1990 O   0  0  0  0  0  0  0  0  0  0  0  0
    2.6340    3.5470   -0.8380 H   0  0  0  0  0  0  0  0  0  0  0  0
    1.4600    4.0130   -2.1630 H   0  0  0  0  0  0  0  0  0  0  0  0
    2.2970    5.3120   -1.2390 H   0  0  0  0  0  0  0  0  0  0  0  0
    0.7250    2.2770    1.2560 H   0  0  0  0  0  0  0  0  0  0  0  0
   -0.8960    2.9300    1.3000 H   0  0  0  0  0  0  0  0  0  0  0  0
    0.0400    1.8300   -1.4350 H   0  0  0  0  0  0  0  0  0  0  0  0
   -1.5610    2.2700   -0.8380 H   0  0  0  0  0  0  0  0  0  0  0  0
   -1.4350    0.7660    0.9840 H   0  0  0  0  0  0  0  0  0  0  0  0
   -0.0280   -1.1580    1.0130 H   0  0  0  0  0  0  0  0  0  0  0  0
   -1.8590   -1.5430   -1.2590 N   0  0  0  0  0  0  0  0  0  0  0  0
   -0.8790   -2.5790   -1.0350 C   0  0  0  0  0  0  0  0  0  0  0  0
   -1.0320   -3.5890   -2.1550 C   0  0  0  0  0  0  0  0  0  0  0  0
   -2.0090   -2.9050   -3.0860 C   0  0  0  0  0  0  0  0  0  0  0  0
   -2.8960   -2.1800   -2.0850 C   0  0  1  0  0  0  0  0  0  0  0  0
   -3.6250   -3.2020   -1.2970 C   0  0  0  0  0  0  0  0  0  0  0  0
   -4.5490   -3.8320   -1.8660 O   0  0  0  0  0  0  0  0  0  0  0  0
   -3.3350   -3.4910    0.0240 O   0  0  0  0  0  0  0  0  0  0  0  0
   -1.0040   -3.0550   -0.0390 H   0  0  0  0  0  0  0  0  0  0  0  0
    0.1360   -2.1580   -1.1470 H   0  0  0  0  0  0  0  0  0  0  0  0
   -1.5740   -4.4870   -1.7520 H   0  0  0  0  0  0  0  0  0  0  0  0
   -0.0840   -3.8460   -2.6440 H   0  0  0  0  0  0  0  0  0  0  0  0
   -1.4990   -2.1290   -3.6860 H   0  0  0  0  0  0  0  0  0  0  0  0
   -2.5860   -3.6270   -3.6950 H   0  0  0  0  0  0  0  0  0  0  0  0
   -3.5520   -1.4410   -2.5600 H   0  0  0  0  0  0  0  0  0  0  0  0
  2  1  1  0  0  0  0
  3 14  1  0  0  0  0
  3  2  1  0  0  0  0
  4  3  2  0  0  0  0
  5 11  2  0  0  0  0
  5  4  1  0  0  0  0
  6 17  1  0  0  0  0
  6 16  1  0  0  0  0
  6  5  1  0  0  0  0
  7 18  1  6  0  0  0
  7  6  1  0  0  0  0
  8 19  1  0  0  0  0
  8  7  1  0  0  0  0
  9 28  1  0  0  0  0
  9  7  1  0  0  0  0
 10  9  2  0  0  0  0
 11 12  1  0  0  0  0
 12 22  1  0  0  0  0
 12  2  2  0  0  0  0
 13  1  1  0  0  0  0
 15  4  1  0  0  0  0
 20  8  1  0  0  0  0
 21 11  1  0  0  0  0
 23 31  1  0  0  0  0
 23 24  1  0  0  0  0
 24 25  1  0  0  0  0
 25 34  1  0  0  0  0
 25 35  1  0  0  0  0
 26 27  1  0  0  0  0
 26 25  1  0  0  0  0
 27 28  1  0  0  0  0
 27 38  1  1  0  0  0
 28 39  1  0  0  0  0
 29 27  1  0  0  0  0
 30 29  2  0  0  0  0
 32 23  1  0  0  0  0
 33 23  1  0  0  0  0
 36 26  1  0  0  0  0
 37 26  1  0  0  0  0
 40 41  1  0  0  0  0
 40 29  1  0  0  0  0
 41 48  1  0  0  0  0
 42 50  1  0  0  0  0
 42 41  1  0  0  0  0
 43 42  1  0  0  0  0
 43 44  1  0  0  0  0
 44 54  1  6  0  0  0
 44 45  1  0  0  0  0
 44 40  1  0  0  0  0
 45 47  1  0  0  0  0
 46 45  2  0  0  0  0
 49 41  1  0  0  0  0
 51 42  1  0  0  0  0
 52 43  1  0  0  0  0
 53 43  1  0  0  0  0
M  END
$$$$
