YMQ.pdb
 OpenBabel07022419223D

 57 57  0  0  1  0  0  0  0  0999 V2000
    1.1900   -1.9080    6.4750 O   0  0  0  0  0  0  0  0  0  0  0  0
    1.7810   -1.9390    5.2110 C   0  0  0  0  0  0  0  0  0  0  0  0
    0.9550   -1.8540    4.1110 C   0  0  0  0  0  0  0  0  0  0  0  0
    1.5360   -1.8840    2.8670 C   0  0  0  0  0  0  0  0  0  0  0  0
    2.9010   -1.9950    2.6660 C   0  0  0  0  0  0  0  0  0  0  0  0
    3.3790   -2.0200    1.2690 C   0  0  0  0  0  0  0  0  0  0  0  0
    3.6400   -0.6450    0.7160 C   0  0  2  0  0  0  0  0  0  0  0  0
    4.6460   -0.0480    1.5730 N   0  0  0  0  0  0  0  0  0  0  0  0
    2.4440    0.1860    0.5750 C   0  0  0  0  0  0  0  0  0  0  0  0
    2.3770    1.2200    1.3010 O   0  0  0  0  0  0  0  0  0  0  0  0
    3.6880   -2.0770    3.7840 C   0  0  0  0  0  0  0  0  0  0  0  0
    3.1360   -2.0490    5.0400 C   0  0  0  0  0  0  0  0  0  0  0  0
    0.6110   -1.1270    6.7910 H   0  0  0  0  0  0  0  0  0  0  0  0
   -0.1310   -1.7650    4.2520 H   0  0  0  0  0  0  0  0  0  0  0  0
    0.8700   -1.8110    1.9930 H   0  0  0  0  0  0  0  0  0  0  0  0
    2.6630   -2.5620    0.6360 H   0  0  0  0  0  0  0  0  0  0  0  0
    4.3340   -2.5850    1.2520 H   0  0  0  0  0  0  0  0  0  0  0  0
    4.1050   -0.7630   -0.2840 H   0  0  0  0  0  0  0  0  0  0  0  0
    4.9220    0.8980    1.3000 H   0  0  0  0  0  0  0  0  0  0  0  0
    5.3880   -0.6940    1.8480 H   0  0  0  0  0  0  0  0  0  0  0  0
    4.7590   -2.1650    3.6360 H   0  0  0  0  0  0  0  0  0  0  0  0
    3.7650   -2.1140    5.9060 H   0  0  0  0  0  0  0  0  0  0  0  0
    0.9010    4.9040   -2.7820 C   0  0  0  0  0  0  0  0  0  0  0  0
   -0.5530    3.8530   -3.0400 S   0  0  0  0  0  0  0  0  0  0  0  0
   -0.7640    2.7180   -1.5930 C   0  0  0  0  0  0  0  0  0  0  0  0
    0.3820    1.7530   -1.5410 C   0  0  0  0  0  0  0  0  0  0  0  0
    0.2510    0.8500   -0.3320 C   0  0  2  0  0  0  0  0  0  0  0  0
    1.3750   -0.0740   -0.2990 N   0  0  0  0  0  0  0  0  0  0  0  0
   -1.0410    0.1560   -0.3160 C   0  0  0  0  0  0  0  0  0  0  0  0
   -2.1320    0.8100   -0.2100 O   0  0  0  0  0  0  0  0  0  0  0  0
    1.8220    4.4630   -3.2110 H   0  0  0  0  0  0  0  0  0  0  0  0
    0.7190    5.8580   -3.3190 H   0  0  0  0  0  0  0  0  0  0  0  0
    1.0440    5.1520   -1.7110 H   0  0  0  0  0  0  0  0  0  0  0  0
   -1.7440    2.2080   -1.8510 H   0  0  0  0  0  0  0  0  0  0  0  0
   -0.8480    3.3720   -0.7070 H   0  0  0  0  0  0  0  0  0  0  0  0
    0.4170    1.1950   -2.4890 H   0  0  0  0  0  0  0  0  0  0  0  0
    1.3040    2.3810   -1.3930 H   0  0  0  0  0  0  0  0  0  0  0  0
    0.3310    1.5210    0.5410 H   0  0  0  0  0  0  0  0  0  0  0  0
    1.3780   -0.8920   -0.9040 H   0  0  0  0  0  0  0  0  0  0  0  0
   -6.5810   -2.8200   -1.5490 N   0  0  0  0  0  0  0  0  0  0  0  0
   -5.2430   -2.3330   -1.6870 C   0  0  0  0  0  0  0  0  0  0  0  0
   -4.9860   -1.1270   -1.8340 O   0  0  0  0  0  0  0  0  0  0  0  0
   -4.1350   -3.3160   -1.6550 C   0  0  0  0  0  0  0  0  0  0  0  0
   -2.7740   -2.6970   -1.6080 C   0  0  0  0  0  0  0  0  0  0  0  0
   -2.5830   -1.8500   -0.4010 C   0  0  2  0  0  0  0  0  0  0  0  0
   -1.2240   -1.2540   -0.4140 N   0  0  0  0  0  0  0  0  0  0  0  0
   -2.6760   -2.6780    0.8210 C   0  0  0  0  0  0  0  0  0  0  0  0
   -3.7660   -3.2220    1.1050 O   0  0  0  0  0  0  0  0  0  0  0  0
   -1.5920   -2.8780    1.6730 O   0  0  0  0  0  0  0  0  0  0  0  0
   -7.3320   -2.3380   -2.0800 H   0  0  0  0  0  0  0  0  0  0  0  0
   -6.7680   -3.6330   -0.9280 H   0  0  0  0  0  0  0  0  0  0  0  0
   -4.3300   -4.0740   -0.8730 H   0  0  0  0  0  0  0  0  0  0  0  0
   -4.2530   -3.9250   -2.6160 H   0  0  0  0  0  0  0  0  0  0  0  0
   -2.5260   -2.1690   -2.5590 H   0  0  0  0  0  0  0  0  0  0  0  0
   -2.0460   -3.5650   -1.6040 H   0  0  0  0  0  0  0  0  0  0  0  0
   -3.3350   -1.0480   -0.2860 H   0  0  0  0  0  0  0  0  0  0  0  0
   -0.3890   -1.8480   -0.4940 H   0  0  0  0  0  0  0  0  0  0  0  0
  1 13  1  0  0  0  0
  2  1  1  0  0  0  0
  3 14  1  0  0  0  0
  3  2  2  0  0  0  0
  4  3  1  0  0  0  0
  5  4  2  0  0  0  0
  5 11  1  0  0  0  0
  6  5  1  0  0  0  0
  7 18  1  6  0  0  0
  7  6  1  0  0  0  0
  7  8  1  0  0  0  0
  8 20  1  0  0  0  0
  9  7  1  0  0  0  0
  9 10  2  0  0  0  0
 11 12  2  0  0  0  0
 12  2  1  0  0  0  0
 12 22  1  0  0  0  0
 15  4  1  0  0  0  0
 16  6  1  0  0  0  0
 17  6  1  0  0  0  0
 19  8  1  0  0  0  0
 21 11  1  0  0  0  0
 23 33  1  0  0  0  0
 24 23  1  0  0  0  0
 24 25  1  0  0  0  0
 25 26  1  0  0  0  0
 25 35  1  0  0  0  0
 26 37  1  0  0  0  0
 26 27  1  0  0  0  0
 27 29  1  0  0  0  0
 27 28  1  0  0  0  0
 27 38  1  1  0  0  0
 28  9  1  0  0  0  0
 29 30  2  0  0  0  0
 31 23  1  0  0  0  0
 32 23  1  0  0  0  0
 34 25  1  0  0  0  0
 36 26  1  0  0  0  0
 39 28  1  0  0  0  0
 40 51  1  0  0  0  0
 41 43  1  0  0  0  0
 41 40  1  0  0  0  0
 42 41  2  0  0  0  0
 43 44  1  0  0  0  0
 43 52  1  0  0  0  0
 44 55  1  0  0  0  0
 44 45  1  0  0  0  0
 45 56  1  1  0  0  0
 45 47  1  0  0  0  0
 46 45  1  0  0  0  0
 46 29  1  0  0  0  0
 47 48  2  0  0  0  0
 47 49  1  0  0  0  0
 50 40  1  0  0  0  0
 53 43  1  0  0  0  0
 54 44  1  0  0  0  0
 57 46  1  0  0  0  0
M  END
$$$$
