YMT.pdb
 OpenBabel07022419223D

 54 54  0  0  1  0  0  0  0  0999 V2000
    3.5130   -3.9570    3.4510 O   0  0  0  0  0  0  0  0  0  0  0  0
    3.2270   -3.2350    2.2690 C   0  0  0  0  0  0  0  0  0  0  0  0
    2.0380   -3.4520    1.6190 C   0  0  0  0  0  0  0  0  0  0  0  0
    1.7590   -2.7470    0.4670 C   0  0  0  0  0  0  0  0  0  0  0  0
    2.6450   -1.8310   -0.0460 C   0  0  0  0  0  0  0  0  0  0  0  0
    2.3080   -1.0750   -1.2730 C   0  0  0  0  0  0  0  0  0  0  0  0
    1.7400    0.2750   -1.1020 C   0  0  2  0  0  0  0  0  0  0  0  0
    2.6660    1.1470   -0.3440 N   0  0  0  0  0  0  0  0  0  0  0  0
    0.3600    0.4590   -0.7130 C   0  0  0  0  0  0  0  0  0  0  0  0
   -0.6060    0.1420   -1.4970 O   0  0  0  0  0  0  0  0  0  0  0  0
    3.8380   -1.6150    0.6060 C   0  0  0  0  0  0  0  0  0  0  0  0
    4.1170   -2.3190    1.7570 C   0  0  0  0  0  0  0  0  0  0  0  0
    3.3390   -3.4360    4.3110 H   0  0  0  0  0  0  0  0  0  0  0  0
    1.3360   -4.1890    2.0320 H   0  0  0  0  0  0  0  0  0  0  0  0
    0.8070   -2.9640   -0.0240 H   0  0  0  0  0  0  0  0  0  0  0  0
    3.2250   -0.9930   -1.8960 H   0  0  0  0  0  0  0  0  0  0  0  0
    1.5900   -1.6920   -1.8560 H   0  0  0  0  0  0  0  0  0  0  0  0
    1.8200    0.7490   -2.1620 H   0  0  0  0  0  0  0  0  0  0  0  0
    2.4380    2.1280   -0.7000 H   0  0  0  0  0  0  0  0  0  0  0  0
    3.6120    0.9760   -0.8150 H   0  0  0  0  0  0  0  0  0  0  0  0
    4.5700   -0.8990    0.2200 H   0  0  0  0  0  0  0  0  0  0  0  0
    5.0700   -2.1490    2.2800 H   0  0  0  0  0  0  0  0  0  0  0  0
    0.9470    3.8810    1.3600 C   0  0  0  0  0  0  0  0  0  0  0  0
   -0.0930    4.1440   -0.0860 S   0  0  0  0  0  0  0  0  0  0  0  0
   -1.7690    3.6050    0.1000 C   0  0  0  0  0  0  0  0  0  0  0  0
   -2.1630    2.2140   -0.0170 C   0  0  0  0  0  0  0  0  0  0  0  0
   -1.4730    1.2050    0.8310 C   0  0  2  0  0  0  0  0  0  0  0  0
   -0.0820    1.0090    0.5570 N   0  0  0  0  0  0  0  0  0  0  0  0
   -2.2780   -0.0100    1.0110 C   0  0  0  0  0  0  0  0  0  0  0  0
   -3.5190    0.1040    1.2670 O   0  0  0  0  0  0  0  0  0  0  0  0
    0.3190    3.3660    2.1390 H   0  0  0  0  0  0  0  0  0  0  0  0
    1.8530    3.3110    1.2060 H   0  0  0  0  0  0  0  0  0  0  0  0
    1.2730    4.8740    1.7770 H   0  0  0  0  0  0  0  0  0  0  0  0
   -2.1050    3.9960    1.1310 H   0  0  0  0  0  0  0  0  0  0  0  0
   -2.4400    4.2820   -0.5700 H   0  0  0  0  0  0  0  0  0  0  0  0
   -2.2420    1.8550   -1.0930 H   0  0  0  0  0  0  0  0  0  0  0  0
   -3.2630    2.1590    0.3090 H   0  0  0  0  0  0  0  0  0  0  0  0
   -1.4760    1.7050    1.8880 H   0  0  0  0  0  0  0  0  0  0  0  0
    0.6990    1.1970    1.2120 H   0  0  0  0  0  0  0  0  0  0  0  0
   -3.6590   -2.4140   -1.1550 C   0  0  0  0  0  0  0  0  0  0  0  0
   -2.8270   -3.2500   -0.1890 C   0  0  1  0  0  0  0  0  0  0  0  0
   -1.6730   -3.7090   -0.8110 O   0  0  0  0  0  0  0  0  0  0  0  0
   -2.5680   -2.4940    1.0880 C   0  0  2  0  0  0  0  0  0  0  0  0
   -1.7650   -1.2990    0.9170 N   0  0  0  0  0  0  0  0  0  0  0  0
   -2.0900   -3.4010    2.1400 C   0  0  0  0  0  0  0  0  0  0  0  0
   -1.0700   -3.1180    2.8150 O   0  0  0  0  0  0  0  0  0  0  0  0
   -2.7390   -4.5930    2.4280 O   0  0  0  0  0  0  0  0  0  0  0  0
   -3.0020   -1.5620   -1.4870 H   0  0  0  0  0  0  0  0  0  0  0  0
   -4.6130   -2.0850   -0.7170 H   0  0  0  0  0  0  0  0  0  0  0  0
   -3.8840   -2.9820   -2.0810 H   0  0  0  0  0  0  0  0  0  0  0  0
   -3.4370   -4.1400    0.0620 H   0  0  0  0  0  0  0  0  0  0  0  0
   -1.6490   -3.3240   -1.7250 H   0  0  0  0  0  0  0  0  0  0  0  0
   -3.5910   -2.1180    1.4100 H   0  0  0  0  0  0  0  0  0  0  0  0
   -0.7600   -1.4130    0.7200 H   0  0  0  0  0  0  0  0  0  0  0  0
  1 13  1  0  0  0  0
  2  1  1  0  0  0  0
  3 14  1  0  0  0  0
  3  2  2  0  0  0  0
  4  3  1  0  0  0  0
  5  4  2  0  0  0  0
  5 11  1  0  0  0  0
  6  7  1  0  0  0  0
  6  5  1  0  0  0  0
  7 18  1  6  0  0  0
  7  9  1  0  0  0  0
  7  8  1  0  0  0  0
  9 28  1  0  0  0  0
 10  9  2  0  0  0  0
 11 12  2  0  0  0  0
 12  2  1  0  0  0  0
 12 22  1  0  0  0  0
 15  4  1  0  0  0  0
 16  6  1  0  0  0  0
 17  6  1  0  0  0  0
 19  8  1  0  0  0  0
 20  8  1  0  0  0  0
 21 11  1  0  0  0  0
 23 33  1  0  0  0  0
 23 31  1  0  0  0  0
 24 25  1  0  0  0  0
 24 23  1  0  0  0  0
 25 34  1  0  0  0  0
 26 25  1  0  0  0  0
 26 37  1  0  0  0  0
 26 27  1  0  0  0  0
 27 29  1  0  0  0  0
 27 38  1  1  0  0  0
 28 27  1  0  0  0  0
 28 39  1  0  0  0  0
 29 30  2  0  0  0  0
 32 23  1  0  0  0  0
 35 25  1  0  0  0  0
 36 26  1  0  0  0  0
 40 49  1  0  0  0  0
 40 41  1  0  0  0  0
 41 51  1  1  0  0  0
 41 43  1  0  0  0  0
 42 41  1  0  0  0  0
 43 53  1  1  0  0  0
 43 45  1  0  0  0  0
 44 29  1  0  0  0  0
 44 43  1  0  0  0  0
 45 47  2  0  0  0  0
 45 46  1  0  0  0  0
 48 40  1  0  0  0  0
 50 40  1  0  0  0  0
 52 42  1  0  0  0  0
 54 44  1  0  0  0  0
M  END
$$$$
