YMW.pdb
 OpenBabel07022419223D

 64 66  0  0  1  0  0  0  0  0999 V2000
    7.2540   -3.0610    4.9840 O   0  0  0  0  0  0  0  0  0  0  0  0
    6.5520   -2.4390    3.9680 C   0  0  0  0  0  0  0  0  0  0  0  0
    5.7270   -3.2070    3.1390 C   0  0  0  0  0  0  0  0  0  0  0  0
    5.0190   -2.6080    2.1210 C   0  0  0  0  0  0  0  0  0  0  0  0
    5.0830   -1.2540    1.8740 C   0  0  0  0  0  0  0  0  0  0  0  0
    4.3020   -0.6430    0.7690 C   0  0  0  0  0  0  0  0  0  0  0  0
    2.9340   -0.1930    1.2500 C   0  0  2  0  0  0  0  0  0  0  0  0
    2.1760   -1.3010    1.7640 N   0  0  0  0  0  0  0  0  0  0  0  0
    2.2020    0.5310    0.1710 C   0  0  0  0  0  0  0  0  0  0  0  0
    2.7000    1.5110   -0.3950 O   0  0  0  0  0  0  0  0  0  0  0  0
    5.8940   -0.4930    2.6890 C   0  0  0  0  0  0  0  0  0  0  0  0
    6.6030   -1.0880    3.7050 C   0  0  0  0  0  0  0  0  0  0  0  0
    6.8650   -3.2960    5.8870 H   0  0  0  0  0  0  0  0  0  0  0  0
    5.6830   -4.2720    3.3410 H   0  0  0  0  0  0  0  0  0  0  0  0
    4.3930   -3.2740    1.5110 H   0  0  0  0  0  0  0  0  0  0  0  0
    4.8570    0.1920    0.3390 H   0  0  0  0  0  0  0  0  0  0  0  0
    4.1640   -1.4410    0.0010 H   0  0  0  0  0  0  0  0  0  0  0  0
    3.1370    0.4930    2.1150 H   0  0  0  0  0  0  0  0  0  0  0  0
    2.3090   -2.1230    1.1550 H   0  0  0  0  0  0  0  0  0  0  0  0
    2.5510   -1.5420    2.7110 H   0  0  0  0  0  0  0  0  0  0  0  0
    5.9830    0.5920    2.5360 H   0  0  0  0  0  0  0  0  0  0  0  0
    7.2490   -0.5040    4.3590 H   0  0  0  0  0  0  0  0  0  0  0  0
   -2.1940   -2.5570   -3.8110 C   0  0  0  0  0  0  0  0  0  0  0  0
   -1.1850   -1.2690   -4.5920 S   0  0  0  0  0  0  0  0  0  0  0  0
   -0.9660    0.1480   -3.4510 C   0  0  0  0  0  0  0  0  0  0  0  0
   -0.1540   -0.2990   -2.2840 C   0  0  0  0  0  0  0  0  0  0  0  0
    0.1210    0.7310   -1.2560 C   0  0  2  0  0  0  0  0  0  0  0  0
    0.9260    0.0900   -0.2060 N   0  0  0  0  0  0  0  0  0  0  0  0
   -1.1210    1.2800   -0.6260 C   0  0  0  0  0  0  0  0  0  0  0  0
   -2.0040    1.8800   -1.2840 O   0  0  0  0  0  0  0  0  0  0  0  0
   -2.5180   -2.1840   -2.8180 H   0  0  0  0  0  0  0  0  0  0  0  0
   -3.1090   -2.7750   -4.3900 H   0  0  0  0  0  0  0  0  0  0  0  0
   -1.5870   -3.4780   -3.6300 H   0  0  0  0  0  0  0  0  0  0  0  0
   -1.9560    0.5160   -3.2210 H   0  0  0  0  0  0  0  0  0  0  0  0
   -0.4210    0.9140   -4.0250 H   0  0  0  0  0  0  0  0  0  0  0  0
   -0.6950   -1.1570   -1.7970 H   0  0  0  0  0  0  0  0  0  0  0  0
    0.8180   -0.7120   -2.6240 H   0  0  0  0  0  0  0  0  0  0  0  0
    0.6530    1.5770   -1.6930 H   0  0  0  0  0  0  0  0  0  0  0  0
    0.5260   -0.7440    0.2900 H   0  0  0  0  0  0  0  0  0  0  0  0
   -1.3490    1.1380    0.7680 N   0  0  0  0  0  0  0  0  0  0  0  0
   -2.5550    1.6760    1.3520 C   0  0  1  0  0  0  0  0  0  0  0  0
   -3.2330    0.5060    2.0780 C   0  0  0  0  0  0  0  0  0  0  0  0
   -3.5630   -0.5840    1.1600 C   0  0  0  0  0  0  0  0  0  0  0  0
   -2.9120   -1.7870    1.0030 C   0  0  0  0  0  0  0  0  0  0  0  0
   -3.5300   -2.5200    0.0520 N   0  0  0  0  0  0  0  0  0  0  0  0
   -4.5890   -1.8050   -0.4210 C   0  0  0  0  0  0  0  0  0  0  0  0
   -5.5400   -2.0770   -1.3840 C   0  0  0  0  0  0  0  0  0  0  0  0
   -6.5430   -1.1760   -1.7010 C   0  0  0  0  0  0  0  0  0  0  0  0
   -6.5630    0.0120   -1.0210 C   0  0  0  0  0  0  0  0  0  0  0  0
   -5.6170    0.2960   -0.0550 C   0  0  0  0  0  0  0  0  0  0  0  0
   -4.6110   -0.6010    0.2670 C   0  0  0  0  0  0  0  0  0  0  0  0
   -2.2320    2.7100    2.3930 C   0  0  0  0  0  0  0  0  0  0  0  0
   -3.1860    3.2590    2.9810 O   0  0  0  0  0  0  0  0  0  0  0  0
   -0.9250    3.0590    2.7080 O   0  0  0  0  0  0  0  0  0  0  0  0
   -0.6620    0.6470    1.4030 H   0  0  0  0  0  0  0  0  0  0  0  0
   -3.2120    2.1590    0.6320 H   0  0  0  0  0  0  0  0  0  0  0  0
   -4.1110    0.9160    2.6300 H   0  0  0  0  0  0  0  0  0  0  0  0
   -2.5350    0.1350    2.8560 H   0  0  0  0  0  0  0  0  0  0  0  0
   -2.0300   -2.1570    1.5280 H   0  0  0  0  0  0  0  0  0  0  0  0
   -3.3050   -3.4680   -0.3150 H   0  0  0  0  0  0  0  0  0  0  0  0
   -5.5510   -3.0040   -1.9370 H   0  0  0  0  0  0  0  0  0  0  0  0
   -7.2980   -1.3640   -2.4490 H   0  0  0  0  0  0  0  0  0  0  0  0
   -7.3250    0.7510   -1.2290 H   0  0  0  0  0  0  0  0  0  0  0  0
   -5.6810    1.2440    0.4480 H   0  0  0  0  0  0  0  0  0  0  0  0
  1 13  1  0  0  0  0
  2  1  1  0  0  0  0
  3 14  1  0  0  0  0
  3  2  2  0  0  0  0
  4  3  1  0  0  0  0
  5  4  2  0  0  0  0
  5 11  1  0  0  0  0
  6  7  1  0  0  0  0
  6  5  1  0  0  0  0
  7  8  1  0  0  0  0
  7 18  1  1  0  0  0
  8 20  1  0  0  0  0
  9  7  1  0  0  0  0
 10  9  2  0  0  0  0
 11 12  2  0  0  0  0
 12  2  1  0  0  0  0
 12 22  1  0  0  0  0
 15  4  1  0  0  0  0
 16  6  1  0  0  0  0
 17  6  1  0  0  0  0
 19  8  1  0  0  0  0
 21 11  1  0  0  0  0
 23 33  1  0  0  0  0
 23 31  1  0  0  0  0
 24 23  1  0  0  0  0
 24 25  1  0  0  0  0
 25 34  1  0  0  0  0
 25 26  1  0  0  0  0
 26 36  1  0  0  0  0
 26 27  1  0  0  0  0
 27 38  1  6  0  0  0
 27 29  1  0  0  0  0
 27 28  1  0  0  0  0
 28  9  1  0  0  0  0
 28 39  1  0  0  0  0
 29 40  1  0  0  0  0
 30 29  2  0  0  0  0
 32 23  1  0  0  0  0
 35 25  1  0  0  0  0
 37 26  1  0  0  0  0
 40 41  1  0  0  0  0
 40 55  1  0  0  0  0
 41 56  1  6  0  0  0
 41 42  1  0  0  0  0
 41 52  1  0  0  0  0
 42 57  1  0  0  0  0
 42 58  1  0  0  0  0
 43 42  1  0  0  0  0
 44 43  2  0  0  0  0
 44 59  1  0  0  0  0
 45 44  1  0  0  0  0
 46 45  1  0  0  0  0
 46 51  1  0  0  0  0
 47 46  2  0  0  0  0
 48 47  1  0  0  0  0
 48 49  2  0  0  0  0
 49 50  1  0  0  0  0
 50 51  2  0  0  0  0
 50 64  1  0  0  0  0
 51 43  1  0  0  0  0
 52 54  2  0  0  0  0
 52 53  1  0  0  0  0
 60 45  1  0  0  0  0
 61 47  1  0  0  0  0
 62 48  1  0  0  0  0
 63 49  1  0  0  0  0
M  END
$$$$
