YMY.pdb
 OpenBabel07022419223D

 61 62  0  0  1  0  0  0  0  0999 V2000
    1.1890   -0.4140    6.7470 O   0  0  0  0  0  0  0  0  0  0  0  0
    1.8120   -0.7770    5.5650 C   0  0  0  0  0  0  0  0  0  0  0  0
    1.1080   -0.8300    4.3820 C   0  0  0  0  0  0  0  0  0  0  0  0
    1.6720   -1.1820    3.1860 C   0  0  0  0  0  0  0  0  0  0  0  0
    2.9960   -1.5010    3.1360 C   0  0  0  0  0  0  0  0  0  0  0  0
    3.5890   -1.8820    1.8360 C   0  0  0  0  0  0  0  0  0  0  0  0
    4.0960   -0.6840    1.0710 C   0  0  2  0  0  0  0  0  0  0  0  0
    5.0960   -0.0630    1.9180 N   0  0  0  0  0  0  0  0  0  0  0  0
    3.0790    0.3070    0.7400 C   0  0  0  0  0  0  0  0  0  0  0  0
    3.1160    1.4660    1.2840 O   0  0  0  0  0  0  0  0  0  0  0  0
    3.7420   -1.4630    4.2850 C   0  0  0  0  0  0  0  0  0  0  0  0
    3.1490   -1.1020    5.4960 C   0  0  0  0  0  0  0  0  0  0  0  0
    1.1480    0.5540    7.0590 H   0  0  0  0  0  0  0  0  0  0  0  0
    0.0450   -0.5710    4.4400 H   0  0  0  0  0  0  0  0  0  0  0  0
    1.0810   -1.2050    2.2910 H   0  0  0  0  0  0  0  0  0  0  0  0
    2.9100   -2.4950    1.2400 H   0  0  0  0  0  0  0  0  0  0  0  0
    4.4900   -2.5030    2.0730 H   0  0  0  0  0  0  0  0  0  0  0  0
    4.6280   -1.0820    0.1740 H   0  0  0  0  0  0  0  0  0  0  0  0
    5.9140   -0.6600    2.1050 H   0  0  0  0  0  0  0  0  0  0  0  0
    5.3250    0.9050    1.6180 H   0  0  0  0  0  0  0  0  0  0  0  0
    4.8110   -1.7100    4.3010 H   0  0  0  0  0  0  0  0  0  0  0  0
    3.7220   -1.0650    6.4200 H   0  0  0  0  0  0  0  0  0  0  0  0
    0.6290    2.3170   -4.9930 C   0  0  0  0  0  0  0  0  0  0  0  0
    0.8580    3.5810   -3.7300 S   0  0  0  0  0  0  0  0  0  0  0  0
    0.3490    2.8800   -2.1030 C   0  0  0  0  0  0  0  0  0  0  0  0
    1.3250    1.7940   -1.7840 C   0  0  0  0  0  0  0  0  0  0  0  0
    1.0250    1.1750   -0.4450 C   0  0  2  0  0  0  0  0  0  0  0  0
    2.0060    0.1240   -0.1600 N   0  0  0  0  0  0  0  0  0  0  0  0
   -0.3510    0.6850   -0.3030 C   0  0  0  0  0  0  0  0  0  0  0  0
   -1.3610    1.4460   -0.4040 O   0  0  0  0  0  0  0  0  0  0  0  0
    0.5960    2.8400   -5.9850 H   0  0  0  0  0  0  0  0  0  0  0  0
   -0.3320    1.7760   -4.8650 H   0  0  0  0  0  0  0  0  0  0  0  0
    1.4300    1.5440   -4.9690 H   0  0  0  0  0  0  0  0  0  0  0  0
   -0.7090    2.5540   -2.1780 H   0  0  0  0  0  0  0  0  0  0  0  0
    0.4820    3.6960   -1.3650 H   0  0  0  0  0  0  0  0  0  0  0  0
    2.3240    2.3070   -1.6650 H   0  0  0  0  0  0  0  0  0  0  0  0
    1.3710    1.0280   -2.5870 H   0  0  0  0  0  0  0  0  0  0  0  0
    1.2100    1.9720    0.3000 H   0  0  0  0  0  0  0  0  0  0  0  0
    1.9080   -0.7770   -0.6340 H   0  0  0  0  0  0  0  0  0  0  0  0
   -7.8150   -3.9260   -0.7560 O   0  0  0  0  0  0  0  0  0  0  0  0
   -6.4900   -3.4750   -0.8170 C   0  0  0  0  0  0  0  0  0  0  0  0
   -6.1860   -2.2740   -1.4340 C   0  0  0  0  0  0  0  0  0  0  0  0
   -4.8800   -1.8380   -1.4890 C   0  0  0  0  0  0  0  0  0  0  0  0
   -3.8180   -2.5630   -0.9410 C   0  0  0  0  0  0  0  0  0  0  0  0
   -2.4270   -2.0840   -1.0400 C   0  0  0  0  0  0  0  0  0  0  0  0
   -2.0770   -1.1410    0.0800 C   0  0  2  0  0  0  0  0  0  0  0  0
   -0.7010   -0.6870   -0.0420 N   0  0  0  0  0  0  0  0  0  0  0  0
   -2.4040   -1.7070    1.3800 C   0  0  0  0  0  0  0  0  0  0  0  0
   -1.5380   -1.8710    2.3100 O   0  0  0  0  0  0  0  0  0  0  0  0
   -4.1490   -3.7700   -0.3240 C   0  0  0  0  0  0  0  0  0  0  0  0
   -5.4540   -4.2000   -0.2720 C   0  0  0  0  0  0  0  0  0  0  0  0
   -3.6860   -2.1140    1.7220 O   0  0  0  0  0  0  0  0  0  0  0  0
   -8.4590   -3.4090   -0.1560 H   0  0  0  0  0  0  0  0  0  0  0  0
   -6.9810   -1.6790   -1.8730 H   0  0  0  0  0  0  0  0  0  0  0  0
   -4.6010   -0.8920   -1.9690 H   0  0  0  0  0  0  0  0  0  0  0  0
   -2.2720   -1.5290   -1.9960 H   0  0  0  0  0  0  0  0  0  0  0  0
   -1.7410   -2.9640   -1.0710 H   0  0  0  0  0  0  0  0  0  0  0  0
   -2.7200   -0.2230   -0.0710 H   0  0  0  0  0  0  0  0  0  0  0  0
    0.0850   -1.3580    0.0590 H   0  0  0  0  0  0  0  0  0  0  0  0
   -3.3270   -4.3550    0.1140 H   0  0  0  0  0  0  0  0  0  0  0  0
   -5.7190   -5.1420    0.2090 H   0  0  0  0  0  0  0  0  0  0  0  0
  1 13  1  0  0  0  0
  2  1  1  0  0  0  0
  3 14  1  0  0  0  0
  3  2  2  0  0  0  0
  4  3  1  0  0  0  0
  5  4  2  0  0  0  0
  5 11  1  0  0  0  0
  6 17  1  0  0  0  0
  6  5  1  0  0  0  0
  7 18  1  6  0  0  0
  7  6  1  0  0  0  0
  7  8  1  0  0  0  0
  8 19  1  0  0  0  0
  9  7  1  0  0  0  0
  9 10  2  0  0  0  0
 11 21  1  0  0  0  0
 11 12  2  0  0  0  0
 12  2  1  0  0  0  0
 12 22  1  0  0  0  0
 15  4  1  0  0  0  0
 16  6  1  0  0  0  0
 20  8  1  0  0  0  0
 23 33  1  0  0  0  0
 23 32  1  0  0  0  0
 23 24  1  0  0  0  0
 24 25  1  0  0  0  0
 25 26  1  0  0  0  0
 25 35  1  0  0  0  0
 26 36  1  0  0  0  0
 26 27  1  0  0  0  0
 27 29  1  0  0  0  0
 27 28  1  0  0  0  0
 27 38  1  1  0  0  0
 28  9  1  0  0  0  0
 29 47  1  0  0  0  0
 30 29  2  0  0  0  0
 31 23  1  0  0  0  0
 34 25  1  0  0  0  0
 37 26  1  0  0  0  0
 39 28  1  0  0  0  0
 40 53  1  0  0  0  0
 41 40  1  0  0  0  0
 41 51  1  0  0  0  0
 42 41  2  0  0  0  0
 43 42  1  0  0  0  0
 43 44  2  0  0  0  0
 44 50  1  0  0  0  0
 45 44  1  0  0  0  0
 45 46  1  0  0  0  0
 46 58  1  6  0  0  0
 46 48  1  0  0  0  0
 47 59  1  0  0  0  0
 47 46  1  0  0  0  0
 48 52  2  0  0  0  0
 48 49  1  0  0  0  0
 50 51  2  0  0  0  0
 50 60  1  0  0  0  0
 51 61  1  0  0  0  0
 54 42  1  0  0  0  0
 55 43  1  0  0  0  0
 56 45  1  0  0  0  0
 57 45  1  0  0  0  0
M  END
$$$$
