YNA.pdb
 OpenBabel07022419203D

 47 47  0  0  1  0  0  0  0  0999 V2000
    5.9260   -3.9680    2.0740 O   0  0  0  0  0  0  0  0  0  0  0  0
    5.3950   -2.9270    1.3470 C   0  0  0  0  0  0  0  0  0  0  0  0
    5.5860   -2.7720   -0.0070 C   0  0  0  0  0  0  0  0  0  0  0  0
    5.0500   -1.7270   -0.7290 C   0  0  0  0  0  0  0  0  0  0  0  0
    4.2870   -0.7900   -0.0650 C   0  0  0  0  0  0  0  0  0  0  0  0
    3.6650    0.3650   -0.7230 C   0  0  0  0  0  0  0  0  0  0  0  0
    2.2880    0.1090   -1.2560 C   0  0  2  0  0  0  0  0  0  0  0  0
    1.8440    1.3710   -1.8680 N   0  0  0  0  0  0  0  0  0  0  0  0
    1.2930   -0.2720   -0.2620 C   0  0  0  0  0  0  0  0  0  0  0  0
    1.5010   -1.3620    0.3660 O   0  0  0  0  0  0  0  0  0  0  0  0
    4.0910   -0.9400    1.2980 C   0  0  0  0  0  0  0  0  0  0  0  0
    4.6260   -1.9860    2.0210 C   0  0  0  0  0  0  0  0  0  0  0  0
    5.3180   -4.7430    2.3100 H   0  0  0  0  0  0  0  0  0  0  0  0
    6.1930   -3.5250   -0.5140 H   0  0  0  0  0  0  0  0  0  0  0  0
    5.1940   -1.5960   -1.7890 H   0  0  0  0  0  0  0  0  0  0  0  0
    4.2950    0.6940   -1.5730 H   0  0  0  0  0  0  0  0  0  0  0  0
    3.6040    1.2240   -0.0240 H   0  0  0  0  0  0  0  0  0  0  0  0
    2.2670   -0.6500   -2.0700 H   0  0  0  0  0  0  0  0  0  0  0  0
    1.7730    2.0530   -1.0830 H   0  0  0  0  0  0  0  0  0  0  0  0
    0.8670    1.1640   -2.2170 H   0  0  0  0  0  0  0  0  0  0  0  0
    3.4990   -0.2280    1.8620 H   0  0  0  0  0  0  0  0  0  0  0  0
    4.4510   -2.0740    3.0980 H   0  0  0  0  0  0  0  0  0  0  0  0
   -3.0150    1.5490    3.3920 N   0  0  0  0  0  0  0  0  0  0  0  0
   -1.8460    0.7760    3.2320 C   0  0  0  0  0  0  0  0  0  0  0  0
   -1.6210   -0.1520    4.0440 O   0  0  0  0  0  0  0  0  0  0  0  0
   -0.9210    1.0750    2.1200 C   0  0  0  0  0  0  0  0  0  0  0  0
   -0.8320   -0.0170    1.0970 C   0  0  2  0  0  0  0  0  0  0  0  0
    0.1330    0.4330    0.0750 N   0  0  0  0  0  0  0  0  0  0  0  0
   -2.1410   -0.2500    0.3880 C   0  0  0  0  0  0  0  0  0  0  0  0
   -2.2450   -0.0400   -0.8590 O   0  0  0  0  0  0  0  0  0  0  0  0
   -3.5990    1.5190    4.2540 H   0  0  0  0  0  0  0  0  0  0  0  0
   -3.3140    2.1770    2.6200 H   0  0  0  0  0  0  0  0  0  0  0  0
    0.1160    1.2210    2.5100 H   0  0  0  0  0  0  0  0  0  0  0  0
   -1.1930    2.0370    1.6260 H   0  0  0  0  0  0  0  0  0  0  0  0
   -0.4780   -0.9710    1.5170 H   0  0  0  0  0  0  0  0  0  0  0  0
   -0.0710    1.3260   -0.4160 H   0  0  0  0  0  0  0  0  0  0  0  0
   -4.9170   -2.3690    0.4680 C   0  0  0  0  0  0  0  0  0  0  0  0
   -4.5120   -0.9000    0.2840 C   0  0  2  0  0  0  0  0  0  0  0  0
   -3.3120   -0.7050    1.0370 N   0  0  0  0  0  0  0  0  0  0  0  0
   -5.6550   -0.0880    0.7640 C   0  0  0  0  0  0  0  0  0  0  0  0
   -5.5380    0.6750    1.7310 O   0  0  0  0  0  0  0  0  0  0  0  0
   -6.8680   -0.1930    0.1130 O   0  0  0  0  0  0  0  0  0  0  0  0
   -4.0980   -2.9580    0.9270 H   0  0  0  0  0  0  0  0  0  0  0  0
   -5.1010   -2.8320   -0.5290 H   0  0  0  0  0  0  0  0  0  0  0  0
   -5.7830   -2.4700    1.1530 H   0  0  0  0  0  0  0  0  0  0  0  0
   -4.3980   -0.6670   -0.7940 H   0  0  0  0  0  0  0  0  0  0  0  0
   -3.3140   -0.9030    2.0570 H   0  0  0  0  0  0  0  0  0  0  0  0
  1 13  1  0  0  0  0
  2 12  1  0  0  0  0
  2  1  1  0  0  0  0
  3  2  2  0  0  0  0
  4  5  2  0  0  0  0
  4  3  1  0  0  0  0
  5 11  1  0  0  0  0
  6  5  1  0  0  0  0
  6 17  1  0  0  0  0
  7 18  1  6  0  0  0
  7  6  1  0  0  0  0
  7  9  1  0  0  0  0
  8  7  1  0  0  0  0
  8 19  1  0  0  0  0
  9 28  1  0  0  0  0
  9 10  2  0  0  0  0
 11 21  1  0  0  0  0
 11 12  2  0  0  0  0
 12 22  1  0  0  0  0
 14  3  1  0  0  0  0
 15  4  1  0  0  0  0
 16  6  1  0  0  0  0
 20  8  1  0  0  0  0
 23 31  1  0  0  0  0
 24 23  1  0  0  0  0
 24 25  2  0  0  0  0
 26 33  1  0  0  0  0
 26 24  1  0  0  0  0
 27 35  1  1  0  0  0
 27 26  1  0  0  0  0
 28 27  1  0  0  0  0
 29 39  1  0  0  0  0
 29 27  1  0  0  0  0
 30 29  2  0  0  0  0
 32 23  1  0  0  0  0
 34 26  1  0  0  0  0
 36 28  1  0  0  0  0
 37 43  1  0  0  0  0
 37 45  1  0  0  0  0
 38 46  1  6  0  0  0
 38 37  1  0  0  0  0
 38 40  1  0  0  0  0
 38 39  1  0  0  0  0
 39 47  1  0  0  0  0
 40 41  1  0  0  0  0
 42 40  2  0  0  0  0
 44 37  1  0  0  0  0
M  END
$$$$
