YNE.pdb
 OpenBabel07022419203D

 53 53  0  0  1  0  0  0  0  0999 V2000
   -0.2220   -1.5010    5.5870 O   0  0  0  0  0  0  0  0  0  0  0  0
    0.7100   -1.1380    4.6070 C   0  0  0  0  0  0  0  0  0  0  0  0
    1.5500   -2.0530    4.0280 C   0  0  0  0  0  0  0  0  0  0  0  0
    2.4590   -1.6860    3.0680 C   0  0  0  0  0  0  0  0  0  0  0  0
    2.5670   -0.3620    2.6420 C   0  0  0  0  0  0  0  0  0  0  0  0
    3.5820   -0.0160    1.6280 C   0  0  0  0  0  0  0  0  0  0  0  0
    3.1620   -0.2230    0.2120 C   0  0  2  0  0  0  0  0  0  0  0  0
    4.2740    0.1640   -0.6820 N   0  0  0  0  0  0  0  0  0  0  0  0
    1.9800    0.6040   -0.2020 C   0  0  0  0  0  0  0  0  0  0  0  0
    2.1230    1.5830   -0.9620 O   0  0  0  0  0  0  0  0  0  0  0  0
    1.7200    0.5860    3.2210 C   0  0  0  0  0  0  0  0  0  0  0  0
    0.8290    0.1660    4.1750 C   0  0  0  0  0  0  0  0  0  0  0  0
   -1.0350   -0.9690    5.7900 H   0  0  0  0  0  0  0  0  0  0  0  0
    1.4970   -3.0940    4.3320 H   0  0  0  0  0  0  0  0  0  0  0  0
    3.1320   -2.4130    2.6030 H   0  0  0  0  0  0  0  0  0  0  0  0
    4.5480   -0.5390    1.8220 H   0  0  0  0  0  0  0  0  0  0  0  0
    3.8550    1.0770    1.7300 H   0  0  0  0  0  0  0  0  0  0  0  0
    2.9470   -1.2890    0.0200 H   0  0  0  0  0  0  0  0  0  0  0  0
    3.8990    0.0350   -1.6510 H   0  0  0  0  0  0  0  0  0  0  0  0
    5.0110   -0.5920   -0.5530 H   0  0  0  0  0  0  0  0  0  0  0  0
    1.8110    1.5970    2.8920 H   0  0  0  0  0  0  0  0  0  0  0  0
    0.1660    0.9200    4.6240 H   0  0  0  0  0  0  0  0  0  0  0  0
    0.6220    4.3780   -0.9070 N   0  0  0  0  0  0  0  0  0  0  0  0
    0.2350    3.1880   -0.2120 C   0  0  0  0  0  0  0  0  0  0  0  0
    0.6060    3.1410    1.0040 O   0  0  0  0  0  0  0  0  0  0  0  0
   -0.5340    2.1080   -0.8600 C   0  0  0  0  0  0  0  0  0  0  0  0
   -0.5590    0.8980    0.0420 C   0  0  2  0  0  0  0  0  0  0  0  0
    0.6980    0.2620    0.2740 N   0  0  0  0  0  0  0  0  0  0  0  0
   -1.6160   -0.0580   -0.2390 C   0  0  0  0  0  0  0  0  0  0  0  0
   -2.8320    0.2980   -0.4080 O   0  0  0  0  0  0  0  0  0  0  0  0
    0.0670    4.6890   -1.7270 H   0  0  0  0  0  0  0  0  0  0  0  0
    1.4440    4.9560   -0.6310 H   0  0  0  0  0  0  0  0  0  0  0  0
   -1.5810    2.4610   -0.9400 H   0  0  0  0  0  0  0  0  0  0  0  0
   -0.0850    1.8870   -1.8480 H   0  0  0  0  0  0  0  0  0  0  0  0
   -0.8290    1.4160    1.0500 H   0  0  0  0  0  0  0  0  0  0  0  0
    0.6720   -0.6170    0.9080 H   0  0  0  0  0  0  0  0  0  0  0  0
   -1.3440   -1.4430   -0.3400 N   0  0  0  0  0  0  0  0  0  0  0  0
   -2.3730   -2.4460   -0.6160 C   0  0  1  0  0  0  0  0  0  0  0  0
   -2.1010   -3.1920   -1.8680 C   0  0  0  0  0  0  0  0  0  0  0  0
   -3.1230   -4.2330   -2.2090 C   0  0  0  0  0  0  0  0  0  0  0  0
   -4.4480   -3.6010   -2.3980 C   0  0  0  0  0  0  0  0  0  0  0  0
   -5.4910   -4.3380   -2.5200 O   0  0  0  0  0  0  0  0  0  0  0  0
   -2.4960   -3.2730    0.6040 C   0  0  0  0  0  0  0  0  0  0  0  0
   -3.3170   -4.2180    0.7360 O   0  0  0  0  0  0  0  0  0  0  0  0
   -4.6790   -2.2440   -2.4610 O   0  0  0  0  0  0  0  0  0  0  0  0
   -1.6760   -3.0450    1.7250 O   0  0  0  0  0  0  0  0  0  0  0  0
   -0.3860   -1.8090   -0.2270 H   0  0  0  0  0  0  0  0  0  0  0  0
   -3.3090   -1.8700   -0.7010 H   0  0  0  0  0  0  0  0  0  0  0  0
   -1.9910   -2.5340   -2.7580 H   0  0  0  0  0  0  0  0  0  0  0  0
   -1.1360   -3.7620   -1.6930 H   0  0  0  0  0  0  0  0  0  0  0  0
   -3.2490   -5.0010   -1.3920 H   0  0  0  0  0  0  0  0  0  0  0  0
   -2.8290   -4.8090   -3.1290 H   0  0  0  0  0  0  0  0  0  0  0  0
   -5.5120   -1.7780   -2.1610 H   0  0  0  0  0  0  0  0  0  0  0  0
  1 13  1  0  0  0  0
  2  1  1  0  0  0  0
  3 14  1  0  0  0  0
  3  2  2  0  0  0  0
  4  3  1  0  0  0  0
  5  4  2  0  0  0  0
  5 11  1  0  0  0  0
  6 17  1  0  0  0  0
  6 16  1  0  0  0  0
  6  5  1  0  0  0  0
  7 18  1  6  0  0  0
  7  6  1  0  0  0  0
  8 20  1  0  0  0  0
  8  7  1  0  0  0  0
  9  7  1  0  0  0  0
  9 28  1  0  0  0  0
 10  9  2  0  0  0  0
 11 12  2  0  0  0  0
 12  2  1  0  0  0  0
 12 22  1  0  0  0  0
 15  4  1  0  0  0  0
 19  8  1  0  0  0  0
 21 11  1  0  0  0  0
 23 32  1  0  0  0  0
 23 24  1  0  0  0  0
 24 25  2  0  0  0  0
 26 24  1  0  0  0  0
 26 27  1  0  0  0  0
 27 28  1  0  0  0  0
 27 35  1  1  0  0  0
 28 36  1  0  0  0  0
 29 27  1  0  0  0  0
 30 29  2  0  0  0  0
 31 23  1  0  0  0  0
 33 26  1  0  0  0  0
 34 26  1  0  0  0  0
 37 29  1  0  0  0  0
 37 47  1  0  0  0  0
 38 48  1  6  0  0  0
 38 37  1  0  0  0  0
 38 43  1  0  0  0  0
 39 50  1  0  0  0  0
 39 38  1  0  0  0  0
 40 39  1  0  0  0  0
 40 51  1  0  0  0  0
 41 40  1  0  0  0  0
 42 41  2  0  0  0  0
 43 44  2  0  0  0  0
 43 46  1  0  0  0  0
 45 41  1  0  0  0  0
 45 53  1  0  0  0  0
 49 39  1  0  0  0  0
 52 40  1  0  0  0  0
M  END
$$$$
