YNF.pdb
 OpenBabel07022419203D

 57 58  0  0  1  0  0  0  0  0999 V2000
   -0.0580   -3.5580    6.5080 O   0  0  0  0  0  0  0  0  0  0  0  0
    0.6540   -3.0670    5.4230 C   0  0  0  0  0  0  0  0  0  0  0  0
    2.0030   -2.7940    5.4740 C   0  0  0  0  0  0  0  0  0  0  0  0
    2.7110   -2.3060    4.3960 C   0  0  0  0  0  0  0  0  0  0  0  0
    2.0640   -2.0660    3.1800 C   0  0  0  0  0  0  0  0  0  0  0  0
    2.7880   -1.5610    2.0260 C   0  0  0  0  0  0  0  0  0  0  0  0
    2.9260   -0.1080    1.8660 C   0  0  2  0  0  0  0  0  0  0  0  0
    3.6200    0.4780    3.0310 N   0  0  0  0  0  0  0  0  0  0  0  0
    1.7690    0.7000    1.5540 C   0  0  0  0  0  0  0  0  0  0  0  0
    1.4120    1.6250    2.3390 O   0  0  0  0  0  0  0  0  0  0  0  0
    0.7270   -2.3390    3.1360 C   0  0  0  0  0  0  0  0  0  0  0  0
    0.0150   -2.8230    4.2020 C   0  0  0  0  0  0  0  0  0  0  0  0
   -0.8940   -4.1220    6.4010 H   0  0  0  0  0  0  0  0  0  0  0  0
    2.4930   -2.9850    6.4240 H   0  0  0  0  0  0  0  0  0  0  0  0
    3.7860   -2.1020    4.4840 H   0  0  0  0  0  0  0  0  0  0  0  0
    2.3470   -1.9930    1.0960 H   0  0  0  0  0  0  0  0  0  0  0  0
    3.8240   -2.0040    2.0580 H   0  0  0  0  0  0  0  0  0  0  0  0
    3.6800    0.0710    1.0290 H   0  0  0  0  0  0  0  0  0  0  0  0
    4.6550    0.4000    2.9330 H   0  0  0  0  0  0  0  0  0  0  0  0
    3.3060    1.4570    3.1940 H   0  0  0  0  0  0  0  0  0  0  0  0
    0.2160   -2.1640    2.2090 H   0  0  0  0  0  0  0  0  0  0  0  0
   -1.0510   -3.0340    4.1430 H   0  0  0  0  0  0  0  0  0  0  0  0
   -0.7860    4.3580   -2.3100 N   0  0  0  0  0  0  0  0  0  0  0  0
   -0.9260    3.4200   -1.2170 C   0  0  0  0  0  0  0  0  0  0  0  0
   -2.0190    3.5470   -0.6100 O   0  0  0  0  0  0  0  0  0  0  0  0
    0.1390    2.4530   -0.9110 C   0  0  0  0  0  0  0  0  0  0  0  0
   -0.1830    1.4360    0.1520 C   0  0  2  0  0  0  0  0  0  0  0  0
    0.9540    0.5640    0.4010 N   0  0  0  0  0  0  0  0  0  0  0  0
   -1.4050    0.6420   -0.1280 C   0  0  0  0  0  0  0  0  0  0  0  0
   -2.5310    1.1190   -0.4100 O   0  0  0  0  0  0  0  0  0  0  0  0
   -1.3680    4.2630   -3.1610 H   0  0  0  0  0  0  0  0  0  0  0  0
   -0.1010    5.1400   -2.2610 H   0  0  0  0  0  0  0  0  0  0  0  0
    1.0230    3.0810   -0.5810 H   0  0  0  0  0  0  0  0  0  0  0  0
    0.5370    1.9610   -1.8460 H   0  0  0  0  0  0  0  0  0  0  0  0
   -0.3460    1.9920    1.0840 H   0  0  0  0  0  0  0  0  0  0  0  0
    1.1790   -0.1830   -0.2850 H   0  0  0  0  0  0  0  0  0  0  0  0
   -1.3990   -0.8060   -0.0970 N   0  0  0  0  0  0  0  0  0  0  0  0
   -2.6250   -1.5640   -0.3910 C   0  0  1  0  0  0  0  0  0  0  0  0
   -2.2230   -2.6680   -1.3380 C   0  0  0  0  0  0  0  0  0  0  0  0
   -1.6470   -2.1090   -2.5870 C   0  0  0  0  0  0  0  0  0  0  0  0
   -2.5080   -1.8480   -3.6300 C   0  0  0  0  0  0  0  0  0  0  0  0
   -2.0490   -1.3270   -4.8290 C   0  0  0  0  0  0  0  0  0  0  0  0
   -0.7130   -1.0630   -4.9910 C   0  0  0  0  0  0  0  0  0  0  0  0
    0.1740   -1.3200   -3.9480 C   0  0  0  0  0  0  0  0  0  0  0  0
   -0.3210   -1.8390   -2.7680 C   0  0  0  0  0  0  0  0  0  0  0  0
   -3.1360   -2.1920    0.8530 C   0  0  0  0  0  0  0  0  0  0  0  0
   -4.1530   -2.9040    0.8250 O   0  0  0  0  0  0  0  0  0  0  0  0
   -2.4790   -1.9820    2.0440 O   0  0  0  0  0  0  0  0  0  0  0  0
   -0.5100   -1.2890    0.1310 H   0  0  0  0  0  0  0  0  0  0  0  0
   -3.4000   -0.8780   -0.8060 H   0  0  0  0  0  0  0  0  0  0  0  0
   -3.0630   -3.3630   -1.5570 H   0  0  0  0  0  0  0  0  0  0  0  0
   -1.3950   -3.2260   -0.8270 H   0  0  0  0  0  0  0  0  0  0  0  0
   -3.5690   -2.0570   -3.5050 H   0  0  0  0  0  0  0  0  0  0  0  0
   -2.7130   -1.1210   -5.6500 H   0  0  0  0  0  0  0  0  0  0  0  0
   -0.3560   -0.6530   -5.9410 H   0  0  0  0  0  0  0  0  0  0  0  0
    1.2350   -1.1130   -4.0680 H   0  0  0  0  0  0  0  0  0  0  0  0
    0.3780   -2.0320   -1.9700 H   0  0  0  0  0  0  0  0  0  0  0  0
  2  3  1  0  0  0  0
  2  1  1  0  0  0  0
  3 14  1  0  0  0  0
  4 15  1  0  0  0  0
  4  3  2  0  0  0  0
  5  4  1  0  0  0  0
  6 17  1  0  0  0  0
  6  5  1  0  0  0  0
  7 18  1  6  0  0  0
  7  6  1  0  0  0  0
  7  8  1  0  0  0  0
  8 20  1  0  0  0  0
  9  7  1  0  0  0  0
  9 10  2  0  0  0  0
 11  5  2  0  0  0  0
 11 12  1  0  0  0  0
 12  2  2  0  0  0  0
 13  1  1  0  0  0  0
 16  6  1  0  0  0  0
 19  8  1  0  0  0  0
 21 11  1  0  0  0  0
 22 12  1  0  0  0  0
 23 32  1  0  0  0  0
 23 24  1  0  0  0  0
 24 26  1  0  0  0  0
 24 25  2  0  0  0  0
 26 33  1  0  0  0  0
 26 27  1  0  0  0  0
 27 28  1  0  0  0  0
 27 35  1  1  0  0  0
 28  9  1  0  0  0  0
 29 37  1  0  0  0  0
 29 27  1  0  0  0  0
 30 29  2  0  0  0  0
 31 23  1  0  0  0  0
 34 26  1  0  0  0  0
 36 28  1  0  0  0  0
 37 49  1  0  0  0  0
 38 50  1  6  0  0  0
 38 37  1  0  0  0  0
 38 46  1  0  0  0  0
 39 52  1  0  0  0  0
 39 38  1  0  0  0  0
 40 39  1  0  0  0  0
 41 53  1  0  0  0  0
 41 40  2  0  0  0  0
 42 41  1  0  0  0  0
 43 42  2  0  0  0  0
 43 44  1  0  0  0  0
 44 45  2  0  0  0  0
 45 40  1  0  0  0  0
 45 57  1  0  0  0  0
 46 48  1  0  0  0  0
 47 46  2  0  0  0  0
 51 39  1  0  0  0  0
 54 42  1  0  0  0  0
 55 43  1  0  0  0  0
 56 44  1  0  0  0  0
M  END
$$$$
