YNG.pdb
 OpenBabel07022419203D

 44 44  0  0  1  0  0  0  0  0999 V2000
    6.2710   -4.9970    2.6590 O   0  0  0  0  0  0  0  0  0  0  0  0
    5.2340   -4.2580    2.0500 C   0  0  0  0  0  0  0  0  0  0  0  0
    3.9200   -4.5940    2.2690 C   0  0  0  0  0  0  0  0  0  0  0  0
    2.9060   -3.8540    1.6590 C   0  0  0  0  0  0  0  0  0  0  0  0
    3.1440   -2.7840    0.8310 C   0  0  0  0  0  0  0  0  0  0  0  0
    2.0800   -1.9980    0.1680 C   0  0  0  0  0  0  0  0  0  0  0  0
    1.6670   -0.8370    1.0160 C   0  0  2  0  0  0  0  0  0  0  0  0
    1.1560   -1.2730    2.2640 N   0  0  0  0  0  0  0  0  0  0  0  0
    0.7810    0.0940    0.2570 C   0  0  0  0  0  0  0  0  0  0  0  0
    1.2430    0.4860   -0.8350 O   0  0  0  0  0  0  0  0  0  0  0  0
    4.4980   -2.4670    0.6270 C   0  0  0  0  0  0  0  0  0  0  0  0
    5.5050   -3.1950    1.2280 C   0  0  0  0  0  0  0  0  0  0  0  0
    7.0500   -5.2860    2.0430 H   0  0  0  0  0  0  0  0  0  0  0  0
    3.7090   -5.4340    2.9200 H   0  0  0  0  0  0  0  0  0  0  0  0
    1.8640   -4.1370    1.8470 H   0  0  0  0  0  0  0  0  0  0  0  0
    2.4010   -1.6180   -0.8280 H   0  0  0  0  0  0  0  0  0  0  0  0
    1.1910   -2.6620    0.0770 H   0  0  0  0  0  0  0  0  0  0  0  0
    2.6020   -0.2370    1.2350 H   0  0  0  0  0  0  0  0  0  0  0  0
    1.8640   -1.5310    2.9630 H   0  0  0  0  0  0  0  0  0  0  0  0
    0.2990   -1.8350    2.2400 H   0  0  0  0  0  0  0  0  0  0  0  0
    4.7060   -1.6260   -0.0240 H   0  0  0  0  0  0  0  0  0  0  0  0
    6.5570   -2.9500    1.0660 H   0  0  0  0  0  0  0  0  0  0  0  0
    0.5500    3.2270    0.2540 N   0  0  0  0  0  0  0  0  0  0  0  0
    0.0500    2.7900   -1.0270 C   0  0  0  0  0  0  0  0  0  0  0  0
    0.6570    3.1860   -2.0400 O   0  0  0  0  0  0  0  0  0  0  0  0
   -1.1370    1.9110   -1.1310 C   0  0  0  0  0  0  0  0  0  0  0  0
   -1.4570    1.3500    0.2330 C   0  0  2  0  0  0  0  0  0  0  0  0
   -0.4700    0.4650    0.7790 N   0  0  0  0  0  0  0  0  0  0  0  0
   -2.8450    0.8830    0.3500 C   0  0  0  0  0  0  0  0  0  0  0  0
   -3.0260   -0.2400    0.9270 O   0  0  0  0  0  0  0  0  0  0  0  0
   -0.0010    3.8970    0.8380 H   0  0  0  0  0  0  0  0  0  0  0  0
    1.4500    2.8860    0.6030 H   0  0  0  0  0  0  0  0  0  0  0  0
   -1.9810    2.5340   -1.4630 H   0  0  0  0  0  0  0  0  0  0  0  0
   -0.9590    1.0940   -1.8620 H   0  0  0  0  0  0  0  0  0  0  0  0
   -1.3130    2.3160    0.8740 H   0  0  0  0  0  0  0  0  0  0  0  0
   -0.6950   -0.0010    1.7390 H   0  0  0  0  0  0  0  0  0  0  0  0
   -3.9550    1.5800   -0.1230 N   0  0  0  0  0  0  0  0  0  0  0  0
   -5.2850    1.0490    0.0330 C   0  0  0  0  0  0  0  0  0  0  0  0
   -5.6490    0.8560    1.4480 C   0  0  0  0  0  0  0  0  0  0  0  0
   -4.7730    1.1940    2.3050 O   0  0  0  0  0  0  0  0  0  0  0  0
   -6.8440    0.3450    1.9010 O   0  0  0  0  0  0  0  0  0  0  0  0
   -3.8240    2.5080   -0.6030 H   0  0  0  0  0  0  0  0  0  0  0  0
   -6.0360    1.7690   -0.3920 H   0  0  0  0  0  0  0  0  0  0  0  0
   -5.3240    0.0610   -0.4790 H   0  0  0  0  0  0  0  0  0  0  0  0
  2  3  1  0  0  0  0
  2  1  1  0  0  0  0
  3 14  1  0  0  0  0
  4 15  1  0  0  0  0
  4  3  2  0  0  0  0
  5  4  1  0  0  0  0
  6  5  1  0  0  0  0
  6  7  1  0  0  0  0
  7 18  1  1  0  0  0
  7  8  1  0  0  0  0
  8 19  1  0  0  0  0
  9 28  1  0  0  0  0
  9  7  1  0  0  0  0
 10  9  2  0  0  0  0
 11  5  2  0  0  0  0
 11 12  1  0  0  0  0
 12  2  2  0  0  0  0
 13  1  1  0  0  0  0
 16  6  1  0  0  0  0
 17  6  1  0  0  0  0
 20  8  1  0  0  0  0
 21 11  1  0  0  0  0
 22 12  1  0  0  0  0
 23 32  1  0  0  0  0
 23 31  1  0  0  0  0
 24 23  1  0  0  0  0
 25 24  2  0  0  0  0
 26 24  1  0  0  0  0
 26 27  1  0  0  0  0
 27 29  1  0  0  0  0
 27 28  1  0  0  0  0
 27 35  1  1  0  0  0
 28 36  1  0  0  0  0
 29 30  2  0  0  0  0
 33 26  1  0  0  0  0
 34 26  1  0  0  0  0
 37 38  1  0  0  0  0
 37 29  1  0  0  0  0
 38 39  1  0  0  0  0
 39 41  2  0  0  0  0
 39 40  1  0  0  0  0
 42 37  1  0  0  0  0
 43 38  1  0  0  0  0
 44 38  1  0  0  0  0
M  END
$$$$
