YNH.pdb
 OpenBabel07022419203D

 54 55  0  0  1  0  0  0  0  0999 V2000
    1.1560   -4.2310    1.9890 O   0  0  0  0  0  0  0  0  0  0  0  0
    1.7600   -2.9680    1.8880 C   0  0  0  0  0  0  0  0  0  0  0  0
    2.0760   -2.4100    0.6660 C   0  0  0  0  0  0  0  0  0  0  0  0
    2.6730   -1.1640    0.5520 C   0  0  0  0  0  0  0  0  0  0  0  0
    2.9610   -0.4540    1.6920 C   0  0  0  0  0  0  0  0  0  0  0  0
    3.5930    0.8930    1.7090 C   0  0  0  0  0  0  0  0  0  0  0  0
    2.5380    1.9800    1.6570 C   0  0  2  0  0  0  0  0  0  0  0  0
    1.6330    1.8830    2.7940 N   0  0  0  0  0  0  0  0  0  0  0  0
    1.7570    1.8890    0.3670 C   0  0  0  0  0  0  0  0  0  0  0  0
    2.4210    2.0150   -0.6690 O   0  0  0  0  0  0  0  0  0  0  0  0
    2.6480   -1.0070    2.9130 C   0  0  0  0  0  0  0  0  0  0  0  0
    2.0570   -2.2430    3.0200 C   0  0  0  0  0  0  0  0  0  0  0  0
    0.4970   -4.3460    2.7420 H   0  0  0  0  0  0  0  0  0  0  0  0
    1.8560   -2.9540   -0.2380 H   0  0  0  0  0  0  0  0  0  0  0  0
    2.9220   -0.7250   -0.4100 H   0  0  0  0  0  0  0  0  0  0  0  0
    4.1830    0.9830    2.6290 H   0  0  0  0  0  0  0  0  0  0  0  0
    4.2190    0.9830    0.8000 H   0  0  0  0  0  0  0  0  0  0  0  0
    3.0610    2.9510    1.7380 H   0  0  0  0  0  0  0  0  0  0  0  0
    0.9850    2.7220    2.7230 H   0  0  0  0  0  0  0  0  0  0  0  0
    2.1460    2.0240    3.6920 H   0  0  0  0  0  0  0  0  0  0  0  0
    2.8680   -0.4610    3.8340 H   0  0  0  0  0  0  0  0  0  0  0  0
    1.8070   -2.6840    3.9980 H   0  0  0  0  0  0  0  0  0  0  0  0
    1.4280    3.7060   -3.1850 N   0  0  0  0  0  0  0  0  0  0  0  0
    0.6280    3.2380   -2.1270 C   0  0  0  0  0  0  0  0  0  0  0  0
    0.3240    4.0270   -1.2010 O   0  0  0  0  0  0  0  0  0  0  0  0
    0.1540    1.8510   -2.1030 C   0  0  0  0  0  0  0  0  0  0  0  0
   -0.5240    1.5860   -0.7490 C   0  0  2  0  0  0  0  0  0  0  0  0
    0.3660    1.6740    0.3730 N   0  0  0  0  0  0  0  0  0  0  0  0
   -1.4370    0.4570   -0.7600 C   0  0  0  0  0  0  0  0  0  0  0  0
   -2.2450    0.3160   -1.7300 O   0  0  0  0  0  0  0  0  0  0  0  0
    2.0840    4.5170   -3.1270 H   0  0  0  0  0  0  0  0  0  0  0  0
    1.3930    3.2260   -4.1320 H   0  0  0  0  0  0  0  0  0  0  0  0
   -0.6350    1.6630   -2.8580 H   0  0  0  0  0  0  0  0  0  0  0  0
    0.9510    1.1060   -2.2970 H   0  0  0  0  0  0  0  0  0  0  0  0
   -1.1300    2.5850   -0.6740 H   0  0  0  0  0  0  0  0  0  0  0  0
   -0.0430    1.5680    1.3690 H   0  0  0  0  0  0  0  0  0  0  0  0
   -1.5260   -0.5430    0.2340 N   0  0  0  0  0  0  0  0  0  0  0  0
   -2.4710   -1.6630    0.1640 C   0  0  1  0  0  0  0  0  0  0  0  0
   -1.7890   -2.9640    0.3570 C   0  0  0  0  0  0  0  0  0  0  0  0
   -2.7140   -4.0950    0.1890 C   0  0  0  0  0  0  0  0  0  0  0  0
   -4.0160   -4.1910   -0.2420 C   0  0  0  0  0  0  0  0  0  0  0  0
   -4.4050   -5.5020   -0.2840 N   0  0  0  0  0  0  0  0  0  0  0  0
   -3.3520   -6.2280    0.1180 C   0  0  0  0  0  0  0  0  0  0  0  0
   -2.3560   -5.4060    0.3960 N   0  0  0  0  0  0  0  0  0  0  0  0
   -3.3850   -1.3730    1.3430 C   0  0  0  0  0  0  0  0  0  0  0  0
   -4.2820   -2.1620    1.6590 O   0  0  0  0  0  0  0  0  0  0  0  0
   -3.2560   -0.2260    2.1100 O   0  0  0  0  0  0  0  0  0  0  0  0
   -0.9080   -0.5050    1.0570 H   0  0  0  0  0  0  0  0  0  0  0  0
   -3.0620   -1.6360   -0.7240 H   0  0  0  0  0  0  0  0  0  0  0  0
   -1.0190   -3.0620   -0.4420 H   0  0  0  0  0  0  0  0  0  0  0  0
   -1.3400   -3.0860    1.3710 H   0  0  0  0  0  0  0  0  0  0  0  0
   -4.6630   -3.3890   -0.5420 H   0  0  0  0  0  0  0  0  0  0  0  0
   -5.3550   -5.8040   -0.5820 H   0  0  0  0  0  0  0  0  0  0  0  0
   -3.3920   -7.3170    0.1780 H   0  0  0  0  0  0  0  0  0  0  0  0
  1 13  1  0  0  0  0
  2  1  1  0  0  0  0
  2 12  1  0  0  0  0
  3  2  2  0  0  0  0
  4  3  1  0  0  0  0
  4  5  2  0  0  0  0
  5  6  1  0  0  0  0
  5 11  1  0  0  0  0
  6 16  1  0  0  0  0
  7  6  1  0  0  0  0
  7 18  1  1  0  0  0
  7  8  1  0  0  0  0
  8 20  1  0  0  0  0
  9 28  1  0  0  0  0
  9  7  1  0  0  0  0
 10  9  2  0  0  0  0
 11 12  2  0  0  0  0
 11 21  1  0  0  0  0
 12 22  1  0  0  0  0
 14  3  1  0  0  0  0
 15  4  1  0  0  0  0
 17  6  1  0  0  0  0
 19  8  1  0  0  0  0
 23 31  1  0  0  0  0
 23 24  1  0  0  0  0
 24 26  1  0  0  0  0
 24 25  2  0  0  0  0
 26 27  1  0  0  0  0
 27 35  1  1  0  0  0
 27 28  1  0  0  0  0
 28 36  1  0  0  0  0
 29 27  1  0  0  0  0
 29 37  1  0  0  0  0
 30 29  2  0  0  0  0
 32 23  1  0  0  0  0
 33 26  1  0  0  0  0
 34 26  1  0  0  0  0
 37 48  1  0  0  0  0
 38 49  1  6  0  0  0
 38 37  1  0  0  0  0
 38 39  1  0  0  0  0
 38 45  1  0  0  0  0
 39 51  1  0  0  0  0
 40 39  1  0  0  0  0
 40 44  1  0  0  0  0
 41 40  2  0  0  0  0
 42 41  1  0  0  0  0
 42 43  1  0  0  0  0
 43 54  1  0  0  0  0
 43 44  2  0  0  0  0
 45 46  2  0  0  0  0
 45 47  1  0  0  0  0
 50 39  1  0  0  0  0
 52 41  1  0  0  0  0
 53 42  1  0  0  0  0
M  END
$$$$
