YNK.pdb
 OpenBabel07022419203D

 58 58  0  0  1  0  0  0  0  0999 V2000
    2.3090    4.2490    6.3480 O   0  0  0  0  0  0  0  0  0  0  0  0
    2.4310    3.7370    5.0540 C   0  0  0  0  0  0  0  0  0  0  0  0
    1.5260    4.0500    4.0630 C   0  0  0  0  0  0  0  0  0  0  0  0
    1.6750    3.5310    2.8080 C   0  0  0  0  0  0  0  0  0  0  0  0
    2.7050    2.6860    2.4500 C   0  0  0  0  0  0  0  0  0  0  0  0
    2.8820    2.1160    1.0980 C   0  0  0  0  0  0  0  0  0  0  0  0
    2.2080    0.7950    0.9000 C   0  0  2  0  0  0  0  0  0  0  0  0
    2.4210    0.2880   -0.4550 N   0  0  0  0  0  0  0  0  0  0  0  0
    0.7840    0.7560    1.2630 C   0  0  0  0  0  0  0  0  0  0  0  0
    0.4010    1.1300    2.4000 O   0  0  0  0  0  0  0  0  0  0  0  0
    3.6130    2.3800    3.4680 C   0  0  0  0  0  0  0  0  0  0  0  0
    3.4740    2.8980    4.7410 C   0  0  0  0  0  0  0  0  0  0  0  0
    1.8750    5.1760    6.4170 H   0  0  0  0  0  0  0  0  0  0  0  0
    0.7020    4.7110    4.3060 H   0  0  0  0  0  0  0  0  0  0  0  0
    0.9410    3.8040    2.0630 H   0  0  0  0  0  0  0  0  0  0  0  0
    2.6200    2.8610    0.3190 H   0  0  0  0  0  0  0  0  0  0  0  0
    3.9800    1.9360    0.9740 H   0  0  0  0  0  0  0  0  0  0  0  0
    2.7350    0.0610    1.5790 H   0  0  0  0  0  0  0  0  0  0  0  0
    3.4790    0.2160   -0.5490 H   0  0  0  0  0  0  0  0  0  0  0  0
    2.0710   -0.6900   -0.5110 H   0  0  0  0  0  0  0  0  0  0  0  0
    4.4520    1.7300    3.2910 H   0  0  0  0  0  0  0  0  0  0  0  0
    4.1720    2.6680    5.5400 H   0  0  0  0  0  0  0  0  0  0  0  0
   -2.6030    3.3540   -1.3100 N   0  0  0  0  0  0  0  0  0  0  0  0
   -1.9830    2.4720   -0.4000 C   0  0  0  0  0  0  0  0  0  0  0  0
   -1.0910    2.9100    0.3570 O   0  0  0  0  0  0  0  0  0  0  0  0
   -2.3780    1.0700   -0.3460 C   0  0  0  0  0  0  0  0  0  0  0  0
   -1.6280    0.2470    0.6760 C   0  0  2  0  0  0  0  0  0  0  0  0
   -0.2290    0.2940    0.3460 N   0  0  0  0  0  0  0  0  0  0  0  0
   -2.1760   -1.1370    0.5930 C   0  0  0  0  0  0  0  0  0  0  0  0
   -3.3850   -1.3710    0.8480 O   0  0  0  0  0  0  0  0  0  0  0  0
   -3.6180    3.5470   -1.2010 H   0  0  0  0  0  0  0  0  0  0  0  0
   -2.1050    3.8270   -2.0890 H   0  0  0  0  0  0  0  0  0  0  0  0
   -2.1870    0.5840   -1.3450 H   0  0  0  0  0  0  0  0  0  0  0  0
   -3.4590    0.9100   -0.1550 H   0  0  0  0  0  0  0  0  0  0  0  0
   -1.8670    0.6180    1.6690 H   0  0  0  0  0  0  0  0  0  0  0  0
    0.1310   -0.0070   -0.5850 H   0  0  0  0  0  0  0  0  0  0  0  0
   -1.2730   -2.1670    0.2150 N   0  0  0  0  0  0  0  0  0  0  0  0
   -1.7850   -3.5500    0.1240 C   0  0  1  0  0  0  0  0  0  0  0  0
   -1.5910   -4.0410   -1.2830 C   0  0  0  0  0  0  0  0  0  0  0  0
   -2.0760   -5.4440   -1.5250 C   0  0  0  0  0  0  0  0  0  0  0  0
   -1.7970   -5.7340   -3.0080 C   0  0  0  0  0  0  0  0  0  0  0  0
   -0.3280   -5.6290   -3.3330 C   0  0  0  0  0  0  0  0  0  0  0  0
    0.4700   -6.5640   -2.5600 N   0  0  0  0  0  0  0  0  0  0  0  0
   -1.0430   -4.3370    1.1370 C   0  0  0  0  0  0  0  0  0  0  0  0
   -1.3200   -5.5500    1.2760 O   0  0  0  0  0  0  0  0  0  0  0  0
   -0.0490   -3.8080    1.9480 O   0  0  0  0  0  0  0  0  0  0  0  0
   -0.2650   -2.0170   -0.0040 H   0  0  0  0  0  0  0  0  0  0  0  0
   -2.8640   -3.5690    0.3810 H   0  0  0  0  0  0  0  0  0  0  0  0
   -0.5000   -4.0410   -1.4860 H   0  0  0  0  0  0  0  0  0  0  0  0
   -2.1500   -3.3820   -1.9720 H   0  0  0  0  0  0  0  0  0  0  0  0
   -3.1930   -5.4860   -1.4280 H   0  0  0  0  0  0  0  0  0  0  0  0
   -1.6250   -6.2130   -0.8980 H   0  0  0  0  0  0  0  0  0  0  0  0
   -2.2970   -4.8920   -3.5540 H   0  0  0  0  0  0  0  0  0  0  0  0
   -2.1860   -6.7110   -3.3140 H   0  0  0  0  0  0  0  0  0  0  0  0
    0.0600   -4.6110   -3.3520 H   0  0  0  0  0  0  0  0  0  0  0  0
   -0.2410   -5.9970   -4.3990 H   0  0  0  0  0  0  0  0  0  0  0  0
    1.3730   -6.1860   -2.2550 H   0  0  0  0  0  0  0  0  0  0  0  0
   -0.0650   -7.0990   -1.8710 H   0  0  0  0  0  0  0  0  0  0  0  0
  1 13  1  0  0  0  0
  2  1  1  0  0  0  0
  3 14  1  0  0  0  0
  3  2  2  0  0  0  0
  4  3  1  0  0  0  0
  5  4  2  0  0  0  0
  5 11  1  0  0  0  0
  6  5  1  0  0  0  0
  7  6  1  0  0  0  0
  7  9  1  0  0  0  0
  7 18  1  1  0  0  0
  8  7  1  0  0  0  0
  9 10  2  0  0  0  0
 11 12  2  0  0  0  0
 12  2  1  0  0  0  0
 12 22  1  0  0  0  0
 15  4  1  0  0  0  0
 16  6  1  0  0  0  0
 17  6  1  0  0  0  0
 19  8  1  0  0  0  0
 20  8  1  0  0  0  0
 21 11  1  0  0  0  0
 23 31  1  0  0  0  0
 23 24  1  0  0  0  0
 24 26  1  0  0  0  0
 24 25  2  0  0  0  0
 26 34  1  0  0  0  0
 26 27  1  0  0  0  0
 27 35  1  1  0  0  0
 28 27  1  0  0  0  0
 28  9  1  0  0  0  0
 29 27  1  0  0  0  0
 29 30  2  0  0  0  0
 32 23  1  0  0  0  0
 33 26  1  0  0  0  0
 36 28  1  0  0  0  0
 37 29  1  0  0  0  0
 38 37  1  0  0  0  0
 38 48  1  1  0  0  0
 38 44  1  0  0  0  0
 39 38  1  0  0  0  0
 40 51  1  0  0  0  0
 40 39  1  0  0  0  0
 40 52  1  0  0  0  0
 41 40  1  0  0  0  0
 42 41  1  0  0  0  0
 42 43  1  0  0  0  0
 43 57  1  0  0  0  0
 43 58  1  0  0  0  0
 44 45  2  0  0  0  0
 44 46  1  0  0  0  0
 47 37  1  0  0  0  0
 49 39  1  0  0  0  0
 50 39  1  0  0  0  0
 53 41  1  0  0  0  0
 54 41  1  0  0  0  0
 55 42  1  0  0  0  0
 56 42  1  0  0  0  0
M  END
$$$$
