YNL.pdb
 OpenBabel07022419203D

 56 56  0  0  1  0  0  0  0  0999 V2000
    1.2860   -0.9780    8.1330 O   0  0  0  0  0  0  0  0  0  0  0  0
    1.2750   -0.7030    6.7720 C   0  0  0  0  0  0  0  0  0  0  0  0
    2.3210   -0.0200    6.1810 C   0  0  0  0  0  0  0  0  0  0  0  0
    2.2870    0.2420    4.8210 C   0  0  0  0  0  0  0  0  0  0  0  0
    1.2370   -0.1630    4.0560 C   0  0  0  0  0  0  0  0  0  0  0  0
    1.2840    0.1640    2.6070 C   0  0  0  0  0  0  0  0  0  0  0  0
    1.9830   -0.9450    1.8600 C   0  0  2  0  0  0  0  0  0  0  0  0
    3.3390   -1.1170    2.3460 N   0  0  0  0  0  0  0  0  0  0  0  0
    2.0860   -0.5350    0.4000 C   0  0  0  0  0  0  0  0  0  0  0  0
    3.1980   -0.3570   -0.1190 O   0  0  0  0  0  0  0  0  0  0  0  0
    0.1840   -0.8450    4.6240 C   0  0  0  0  0  0  0  0  0  0  0  0
    0.2200   -1.1060    5.9820 C   0  0  0  0  0  0  0  0  0  0  0  0
    0.4310   -1.2330    8.6000 H   0  0  0  0  0  0  0  0  0  0  0  0
    3.1640    0.3080    6.7830 H   0  0  0  0  0  0  0  0  0  0  0  0
    3.1330    0.7840    4.3950 H   0  0  0  0  0  0  0  0  0  0  0  0
    0.2300    0.2310    2.2540 H   0  0  0  0  0  0  0  0  0  0  0  0
    1.7780    1.1230    2.4300 H   0  0  0  0  0  0  0  0  0  0  0  0
    1.4680   -1.9120    1.9740 H   0  0  0  0  0  0  0  0  0  0  0  0
    3.8590   -1.8290    1.8000 H   0  0  0  0  0  0  0  0  0  0  0  0
    3.8170   -0.1700    2.2570 H   0  0  0  0  0  0  0  0  0  0  0  0
   -0.6340   -1.1520    3.9820 H   0  0  0  0  0  0  0  0  0  0  0  0
   -0.6190   -1.6410    6.3920 H   0  0  0  0  0  0  0  0  0  0  0  0
    4.0560    1.7980   -2.3970 N   0  0  0  0  0  0  0  0  0  0  0  0
    2.7600    1.4620   -1.9940 C   0  0  0  0  0  0  0  0  0  0  0  0
    2.1920    2.1950   -1.1140 O   0  0  0  0  0  0  0  0  0  0  0  0
    2.0260    0.3170   -2.5290 C   0  0  0  0  0  0  0  0  0  0  0  0
    0.7720    0.0430   -1.7200 C   0  0  2  0  0  0  0  0  0  0  0  0
    0.9240   -0.3520   -0.3810 N   0  0  0  0  0  0  0  0  0  0  0  0
   -0.3030   -0.5740   -2.5110 C   0  0  0  0  0  0  0  0  0  0  0  0
   -0.4720   -0.2200   -3.7150 O   0  0  0  0  0  0  0  0  0  0  0  0
    4.8200    2.0750   -1.7330 H   0  0  0  0  0  0  0  0  0  0  0  0
    4.2680    1.7690   -3.4140 H   0  0  0  0  0  0  0  0  0  0  0  0
    1.6530    0.6110   -3.5480 H   0  0  0  0  0  0  0  0  0  0  0  0
    2.6340   -0.5900   -2.6880 H   0  0  0  0  0  0  0  0  0  0  0  0
    0.4250    1.1670   -1.6170 H   0  0  0  0  0  0  0  0  0  0  0  0
    0.0250   -0.5570    0.1870 H   0  0  0  0  0  0  0  0  0  0  0  0
   -5.5730   -1.5540   -0.9680 C   0  0  0  0  0  0  0  0  0  0  0  0
   -4.0810   -1.9330   -1.0330 C   0  0  0  0  0  0  0  0  0  0  0  0
   -3.3190   -1.0410   -0.1160 C   0  0  0  0  0  0  0  0  0  0  0  0
   -3.6300   -1.8940   -2.4760 C   0  0  0  0  0  0  0  0  0  0  0  0
   -2.2320   -2.2490   -2.6340 C   0  0  2  0  0  0  0  0  0  0  0  0
   -1.1910   -1.5540   -2.0410 N   0  0  0  0  0  0  0  0  0  0  0  0
   -1.9820   -2.5800   -4.0820 C   0  0  0  0  0  0  0  0  0  0  0  0
   -2.9550   -3.1000   -4.6880 O   0  0  0  0  0  0  0  0  0  0  0  0
   -0.8290   -2.3780   -4.7770 O   0  0  0  0  0  0  0  0  0  0  0  0
   -6.1250   -2.4320   -1.3930 H   0  0  0  0  0  0  0  0  0  0  0  0
   -5.8670   -1.3290    0.0610 H   0  0  0  0  0  0  0  0  0  0  0  0
   -5.7560   -0.6430   -1.5770 H   0  0  0  0  0  0  0  0  0  0  0  0
   -4.0200   -2.9840   -0.6970 H   0  0  0  0  0  0  0  0  0  0  0  0
   -2.7420   -1.6590    0.6140 H   0  0  0  0  0  0  0  0  0  0  0  0
   -4.0670   -0.5060    0.5430 H   0  0  0  0  0  0  0  0  0  0  0  0
   -2.7430   -0.2400   -0.5890 H   0  0  0  0  0  0  0  0  0  0  0  0
   -4.2330   -2.7280   -2.9640 H   0  0  0  0  0  0  0  0  0  0  0  0
   -3.9930   -0.9950   -3.0060 H   0  0  0  0  0  0  0  0  0  0  0  0
   -2.1290   -3.3330   -2.2080 H   0  0  0  0  0  0  0  0  0  0  0  0
   -1.0030   -1.8040   -1.0050 H   0  0  0  0  0  0  0  0  0  0  0  0
  1 13  1  0  0  0  0
  2  1  1  0  0  0  0
  3  2  1  0  0  0  0
  3 14  1  0  0  0  0
  4  3  2  0  0  0  0
  5 11  2  0  0  0  0
  5  4  1  0  0  0  0
  6  5  1  0  0  0  0
  7 18  1  1  0  0  0
  7  8  1  0  0  0  0
  7  6  1  0  0  0  0
  9  7  1  0  0  0  0
 10  9  2  0  0  0  0
 11 12  1  0  0  0  0
 12 22  1  0  0  0  0
 12  2  2  0  0  0  0
 15  4  1  0  0  0  0
 16  6  1  0  0  0  0
 17  6  1  0  0  0  0
 19  8  1  0  0  0  0
 20  8  1  0  0  0  0
 21 11  1  0  0  0  0
 23 24  1  0  0  0  0
 23 31  1  0  0  0  0
 24 25  2  0  0  0  0
 26 24  1  0  0  0  0
 26 27  1  0  0  0  0
 27 35  1  1  0  0  0
 27 28  1  0  0  0  0
 28 36  1  0  0  0  0
 28  9  1  0  0  0  0
 29 42  1  0  0  0  0
 29 27  1  0  0  0  0
 30 29  2  0  0  0  0
 32 23  1  0  0  0  0
 33 26  1  0  0  0  0
 34 26  1  0  0  0  0
 37 47  1  0  0  0  0
 38 37  1  0  0  0  0
 38 49  1  0  0  0  0
 38 39  1  0  0  0  0
 39 51  1  0  0  0  0
 39 50  1  0  0  0  0
 40 38  1  0  0  0  0
 41 40  1  0  0  0  0
 41 55  1  1  0  0  0
 41 42  1  0  0  0  0
 42 56  1  0  0  0  0
 43 41  1  0  0  0  0
 44 43  1  0  0  0  0
 45 43  2  0  0  0  0
 46 37  1  0  0  0  0
 48 37  1  0  0  0  0
 52 39  1  0  0  0  0
 53 40  1  0  0  0  0
 54 40  1  0  0  0  0
M  END
$$$$
