YNM.pdb
 OpenBabel07022419203D

 54 54  0  0  1  0  0  0  0  0999 V2000
   -1.4050   -0.1610    4.8190 O   0  0  0  0  0  0  0  0  0  0  0  0
   -0.1740   -0.3320    4.2310 C   0  0  0  0  0  0  0  0  0  0  0  0
    0.5070   -1.5320    4.2140 C   0  0  0  0  0  0  0  0  0  0  0  0
    1.7470   -1.6610    3.6100 C   0  0  0  0  0  0  0  0  0  0  0  0
    2.3320   -0.5740    3.0050 C   0  0  0  0  0  0  0  0  0  0  0  0
    3.6570   -0.6640    2.3680 C   0  0  0  0  0  0  0  0  0  0  0  0
    3.6280   -1.0900    0.9170 C   0  0  2  0  0  0  0  0  0  0  0  0
    5.0320   -1.0990    0.5030 N   0  0  0  0  0  0  0  0  0  0  0  0
    2.8820   -0.1080    0.0540 C   0  0  0  0  0  0  0  0  0  0  0  0
    3.5530    0.6620   -0.6150 O   0  0  0  0  0  0  0  0  0  0  0  0
    1.6690    0.6290    3.0120 C   0  0  0  0  0  0  0  0  0  0  0  0
    0.4430    0.7500    3.6110 C   0  0  0  0  0  0  0  0  0  0  0  0
   -1.7820   -0.6870    5.5770 H   0  0  0  0  0  0  0  0  0  0  0  0
    0.0470   -2.3890    4.6900 H   0  0  0  0  0  0  0  0  0  0  0  0
    2.2130   -2.6260    3.6380 H   0  0  0  0  0  0  0  0  0  0  0  0
    4.2620   -1.3670    2.9740 H   0  0  0  0  0  0  0  0  0  0  0  0
    4.2120    0.3100    2.4310 H   0  0  0  0  0  0  0  0  0  0  0  0
    3.1990   -2.0950    0.8350 H   0  0  0  0  0  0  0  0  0  0  0  0
    5.0430   -1.1700   -0.5360 H   0  0  0  0  0  0  0  0  0  0  0  0
    5.5060   -1.9380    0.9000 H   0  0  0  0  0  0  0  0  0  0  0  0
    2.0750    1.5290    2.5510 H   0  0  0  0  0  0  0  0  0  0  0  0
   -0.1020    1.7010    3.6270 H   0  0  0  0  0  0  0  0  0  0  0  0
    2.8420    3.3690   -2.1210 N   0  0  0  0  0  0  0  0  0  0  0  0
    1.9290    2.6390   -1.3170 C   0  0  0  0  0  0  0  0  0  0  0  0
    1.8950    2.9150   -0.0630 O   0  0  0  0  0  0  0  0  0  0  0  0
    1.0220    1.5950   -1.8000 C   0  0  0  0  0  0  0  0  0  0  0  0
    0.5560    0.7280   -0.6590 C   0  0  2  0  0  0  0  0  0  0  0  0
    1.4850   -0.0750    0.0150 N   0  0  0  0  0  0  0  0  0  0  0  0
   -0.7920    0.1780   -0.8720 C   0  0  0  0  0  0  0  0  0  0  0  0
   -1.6680    0.9090   -1.4630 O   0  0  0  0  0  0  0  0  0  0  0  0
    2.5120    4.2640   -2.5250 H   0  0  0  0  0  0  0  0  0  0  0  0
    3.7950    2.9640   -2.2610 H   0  0  0  0  0  0  0  0  0  0  0  0
    0.0940    2.1170   -2.1700 H   0  0  0  0  0  0  0  0  0  0  0  0
    1.4030    1.0290   -2.6610 H   0  0  0  0  0  0  0  0  0  0  0  0
    0.3720    1.6040    0.1130 H   0  0  0  0  0  0  0  0  0  0  0  0
    1.0490   -0.8500    0.6450 H   0  0  0  0  0  0  0  0  0  0  0  0
   -6.3200   -2.3460   -0.9350 C   0  0  0  0  0  0  0  0  0  0  0  0
   -5.1990   -3.7700   -1.0870 S   0  0  0  0  0  0  0  0  0  0  0  0
   -3.7700   -3.4930   -2.0690 C   0  0  0  0  0  0  0  0  0  0  0  0
   -2.6070   -2.8320   -1.4830 C   0  0  0  0  0  0  0  0  0  0  0  0
   -2.6570   -1.5490   -0.7650 C   0  0  2  0  0  0  0  0  0  0  0  0
   -1.2550   -1.0950   -0.4950 N   0  0  0  0  0  0  0  0  0  0  0  0
   -3.1340   -1.7180    0.6680 C   0  0  0  0  0  0  0  0  0  0  0  0
   -4.2260   -2.1530    1.0130 O   0  0  0  0  0  0  0  0  0  0  0  0
   -2.2790   -1.3530    1.7360 O   0  0  0  0  0  0  0  0  0  0  0  0
   -7.1660   -2.5480   -1.6540 H   0  0  0  0  0  0  0  0  0  0  0  0
   -6.8020   -2.2950    0.0620 H   0  0  0  0  0  0  0  0  0  0  0  0
   -5.8290   -1.3960   -1.1710 H   0  0  0  0  0  0  0  0  0  0  0  0
   -4.0430   -2.9200   -3.0480 H   0  0  0  0  0  0  0  0  0  0  0  0
   -3.4270   -4.5190   -2.4790 H   0  0  0  0  0  0  0  0  0  0  0  0
   -2.1890   -3.5890   -0.7030 H   0  0  0  0  0  0  0  0  0  0  0  0
   -1.7160   -2.8490   -2.2140 H   0  0  0  0  0  0  0  0  0  0  0  0
   -3.2670   -0.8100   -1.2340 H   0  0  0  0  0  0  0  0  0  0  0  0
   -0.6090   -1.7410   -0.0180 H   0  0  0  0  0  0  0  0  0  0  0  0
  1 13  1  0  0  0  0
  2  1  1  0  0  0  0
  3  2  1  0  0  0  0
  3 14  1  0  0  0  0
  4 15  1  0  0  0  0
  4  3  2  0  0  0  0
  5 11  2  0  0  0  0
  5  4  1  0  0  0  0
  6 17  1  0  0  0  0
  6 16  1  0  0  0  0
  6  5  1  0  0  0  0
  7 18  1  6  0  0  0
  7  6  1  0  0  0  0
  8 20  1  0  0  0  0
  8  7  1  0  0  0  0
  9  7  1  0  0  0  0
 10  9  2  0  0  0  0
 11 12  1  0  0  0  0
 12 22  1  0  0  0  0
 12  2  2  0  0  0  0
 19  8  1  0  0  0  0
 21 11  1  0  0  0  0
 23 24  1  0  0  0  0
 24 25  2  0  0  0  0
 26 24  1  0  0  0  0
 26 27  1  0  0  0  0
 27 28  1  0  0  0  0
 27 35  1  1  0  0  0
 28  9  1  0  0  0  0
 28 36  1  0  0  0  0
 29 27  1  0  0  0  0
 29 42  1  0  0  0  0
 30 29  2  0  0  0  0
 31 23  1  0  0  0  0
 32 23  1  0  0  0  0
 33 26  1  0  0  0  0
 34 26  1  0  0  0  0
 37 47  1  0  0  0  0
 38 37  1  0  0  0  0
 39 40  1  0  0  0  0
 39 38  1  0  0  0  0
 40 41  1  0  0  0  0
 40 51  1  0  0  0  0
 41 53  1  6  0  0  0
 41 42  1  0  0  0  0
 41 43  1  0  0  0  0
 42 54  1  0  0  0  0
 43 44  2  0  0  0  0
 43 45  1  0  0  0  0
 46 37  1  0  0  0  0
 48 37  1  0  0  0  0
 49 39  1  0  0  0  0
 50 39  1  0  0  0  0
 52 40  1  0  0  0  0
M  END
$$$$
