YNN.pdb
 OpenBabel07022419203D

 51 51  0  0  1  0  0  0  0  0999 V2000
    1.2540   -5.1890    3.0980 O   0  0  0  0  0  0  0  0  0  0  0  0
    1.7770   -3.9030    3.0120 C   0  0  0  0  0  0  0  0  0  0  0  0
    3.0950   -3.6750    2.7320 C   0  0  0  0  0  0  0  0  0  0  0  0
    3.5880   -2.3830    2.6540 C   0  0  0  0  0  0  0  0  0  0  0  0
    2.7560   -1.2760    2.8590 C   0  0  0  0  0  0  0  0  0  0  0  0
    3.3420    0.0570    2.8170 C   0  0  0  0  0  0  0  0  0  0  0  0
    3.4400    0.6570    1.4620 C   0  0  2  0  0  0  0  0  0  0  0  0
    4.0820    1.9950    1.6080 N   0  0  0  0  0  0  0  0  0  0  0  0
    2.1250    0.8310    0.8280 C   0  0  0  0  0  0  0  0  0  0  0  0
    1.6460    2.0050    0.7880 O   0  0  0  0  0  0  0  0  0  0  0  0
    1.4370   -1.5120    3.1380 C   0  0  0  0  0  0  0  0  0  0  0  0
    0.9560   -2.8230    3.2130 C   0  0  0  0  0  0  0  0  0  0  0  0
    0.3310   -5.3330    3.5130 H   0  0  0  0  0  0  0  0  0  0  0  0
    3.7520   -4.5420    2.5710 H   0  0  0  0  0  0  0  0  0  0  0  0
    4.6380   -2.2800    2.4290 H   0  0  0  0  0  0  0  0  0  0  0  0
    2.7350    0.7320    3.5010 H   0  0  0  0  0  0  0  0  0  0  0  0
    4.3540   -0.0340    3.3100 H   0  0  0  0  0  0  0  0  0  0  0  0
    4.1080    0.0750    0.8220 H   0  0  0  0  0  0  0  0  0  0  0  0
    3.6610    2.5840    0.8760 H   0  0  0  0  0  0  0  0  0  0  0  0
    5.1030    1.9190    1.4300 H   0  0  0  0  0  0  0  0  0  0  0  0
    0.7210   -0.7280    3.3090 H   0  0  0  0  0  0  0  0  0  0  0  0
   -0.0800   -2.9870    3.4340 H   0  0  0  0  0  0  0  0  0  0  0  0
    2.4550    0.9940   -2.7810 N   0  0  0  0  0  0  0  0  0  0  0  0
    1.1700    1.2500   -2.2860 C   0  0  0  0  0  0  0  0  0  0  0  0
    0.8110    2.4560   -2.1610 O   0  0  0  0  0  0  0  0  0  0  0  0
    0.1730    0.2130   -1.8900 C   0  0  0  0  0  0  0  0  0  0  0  0
    0.0730    0.1580   -0.3610 C   0  0  2  0  0  0  0  0  0  0  0  0
    1.3200   -0.1700    0.2410 N   0  0  0  0  0  0  0  0  0  0  0  0
   -0.9920   -0.7750    0.0320 C   0  0  0  0  0  0  0  0  0  0  0  0
   -0.7580   -1.7350    0.7860 O   0  0  0  0  0  0  0  0  0  0  0  0
    3.2650    1.4820   -2.3260 H   0  0  0  0  0  0  0  0  0  0  0  0
    2.6910    0.3530   -3.5710 H   0  0  0  0  0  0  0  0  0  0  0  0
   -0.8100    0.5760   -2.2550 H   0  0  0  0  0  0  0  0  0  0  0  0
    0.3520   -0.7630   -2.3360 H   0  0  0  0  0  0  0  0  0  0  0  0
   -0.2000    1.2190   -0.0850 H   0  0  0  0  0  0  0  0  0  0  0  0
    1.6660   -1.1450    0.2620 H   0  0  0  0  0  0  0  0  0  0  0  0
   -6.1590    1.0510    0.5030 N   0  0  0  0  0  0  0  0  0  0  0  0
   -5.1300    0.2360   -0.0400 C   0  0  0  0  0  0  0  0  0  0  0  0
   -4.8030    0.4690   -1.2290 O   0  0  0  0  0  0  0  0  0  0  0  0
   -4.4680   -0.8330    0.7320 C   0  0  0  0  0  0  0  0  0  0  0  0
   -3.3840   -1.5540   -0.0330 C   0  0  2  0  0  0  0  0  0  0  0  0
   -2.3480   -0.6330   -0.4260 N   0  0  0  0  0  0  0  0  0  0  0  0
   -3.9620   -2.2760   -1.1910 C   0  0  0  0  0  0  0  0  0  0  0  0
   -4.8690   -3.1190   -1.0310 O   0  0  0  0  0  0  0  0  0  0  0  0
   -3.5020   -2.0250   -2.4670 O   0  0  0  0  0  0  0  0  0  0  0  0
   -6.1370    2.0970    0.4260 H   0  0  0  0  0  0  0  0  0  0  0  0
   -6.9570    0.5970    0.9900 H   0  0  0  0  0  0  0  0  0  0  0  0
   -4.0850   -0.3800    1.6700 H   0  0  0  0  0  0  0  0  0  0  0  0
   -5.2210   -1.5970    1.0860 H   0  0  0  0  0  0  0  0  0  0  0  0
   -2.9990   -2.3440    0.6570 H   0  0  0  0  0  0  0  0  0  0  0  0
   -2.5220    0.1740   -1.0550 H   0  0  0  0  0  0  0  0  0  0  0  0
  1 13  1  0  0  0  0
  2  1  1  0  0  0  0
  2 12  1  0  0  0  0
  3  2  2  0  0  0  0
  4  3  1  0  0  0  0
  4  5  2  0  0  0  0
  5 11  1  0  0  0  0
  6  5  1  0  0  0  0
  6 17  1  0  0  0  0
  6 16  1  0  0  0  0
  7 18  1  6  0  0  0
  7  8  1  0  0  0  0
  7  6  1  0  0  0  0
  9  7  1  0  0  0  0
 10  9  2  0  0  0  0
 11 12  2  0  0  0  0
 11 21  1  0  0  0  0
 12 22  1  0  0  0  0
 14  3  1  0  0  0  0
 15  4  1  0  0  0  0
 19  8  1  0  0  0  0
 20  8  1  0  0  0  0
 23 31  1  0  0  0  0
 23 24  1  0  0  0  0
 24 25  2  0  0  0  0
 24 26  1  0  0  0  0
 26 27  1  0  0  0  0
 27 35  1  1  0  0  0
 27 29  1  0  0  0  0
 27 28  1  0  0  0  0
 28 36  1  0  0  0  0
 28  9  1  0  0  0  0
 29 30  2  0  0  0  0
 32 23  1  0  0  0  0
 33 26  1  0  0  0  0
 34 26  1  0  0  0  0
 37 47  1  0  0  0  0
 38 37  1  0  0  0  0
 38 40  1  0  0  0  0
 39 38  2  0  0  0  0
 40 49  1  0  0  0  0
 40 48  1  0  0  0  0
 41 50  1  1  0  0  0
 41 40  1  0  0  0  0
 42 41  1  0  0  0  0
 42 29  1  0  0  0  0
 43 44  1  0  0  0  0
 43 41  1  0  0  0  0
 45 43  2  0  0  0  0
 46 37  1  0  0  0  0
 51 42  1  0  0  0  0
M  END
$$$$
