YNP.pdb
 OpenBabel07022419203D

 51 52  0  0  1  0  0  0  0  0999 V2000
    2.6020   -3.6760    5.5580 O   0  0  0  0  0  0  0  0  0  0  0  0
    2.8240   -2.7950    4.5050 C   0  0  0  0  0  0  0  0  0  0  0  0
    2.0460   -2.8360    3.3660 C   0  0  0  0  0  0  0  0  0  0  0  0
    2.2570   -1.9720    2.3230 C   0  0  0  0  0  0  0  0  0  0  0  0
    3.2570   -1.0380    2.3940 C   0  0  0  0  0  0  0  0  0  0  0  0
    3.5400   -0.0710    1.3020 C   0  0  0  0  0  0  0  0  0  0  0  0
    2.8210    1.2140    1.4020 C   0  0  2  0  0  0  0  0  0  0  0  0
    3.1680    1.8920    2.6570 N   0  0  0  0  0  0  0  0  0  0  0  0
    1.3900    1.2170    1.1400 C   0  0  0  0  0  0  0  0  0  0  0  0
    0.6400    1.7640    2.0230 O   0  0  0  0  0  0  0  0  0  0  0  0
    4.0320   -1.0000    3.5330 C   0  0  0  0  0  0  0  0  0  0  0  0
    3.8330   -1.8610    4.5890 C   0  0  0  0  0  0  0  0  0  0  0  0
    1.6500   -3.9310    5.8160 H   0  0  0  0  0  0  0  0  0  0  0  0
    1.2480   -3.6000    3.3380 H   0  0  0  0  0  0  0  0  0  0  0  0
    1.6500   -2.0060    1.4320 H   0  0  0  0  0  0  0  0  0  0  0  0
    3.2450   -0.5670    0.3320 H   0  0  0  0  0  0  0  0  0  0  0  0
    4.6260    0.1310    1.2010 H   0  0  0  0  0  0  0  0  0  0  0  0
    3.2840    1.8930    0.6200 H   0  0  0  0  0  0  0  0  0  0  0  0
    4.1980    1.9910    2.6920 H   0  0  0  0  0  0  0  0  0  0  0  0
    2.6450    2.7640    2.7930 H   0  0  0  0  0  0  0  0  0  0  0  0
    4.8470   -0.2590    3.6250 H   0  0  0  0  0  0  0  0  0  0  0  0
    4.4660   -1.8100    5.4910 H   0  0  0  0  0  0  0  0  0  0  0  0
    0.5190    0.1020   -2.9260 N   0  0  0  0  0  0  0  0  0  0  0  0
   -0.3630    1.1890   -2.7300 C   0  0  0  0  0  0  0  0  0  0  0  0
   -0.6600    1.8920   -3.7370 O   0  0  0  0  0  0  0  0  0  0  0  0
   -0.9440    1.5460   -1.4560 C   0  0  0  0  0  0  0  0  0  0  0  0
   -0.5990    0.6670   -0.2770 C   0  0  2  0  0  0  0  0  0  0  0  0
    0.8290    0.6500   -0.0280 N   0  0  0  0  0  0  0  0  0  0  0  0
   -1.1500   -0.6980   -0.3730 C   0  0  0  0  0  0  0  0  0  0  0  0
   -0.3800   -1.7250   -0.3830 O   0  0  0  0  0  0  0  0  0  0  0  0
    0.2010   -0.8910   -2.9150 H   0  0  0  0  0  0  0  0  0  0  0  0
    1.5500    0.2240   -3.0970 H   0  0  0  0  0  0  0  0  0  0  0  0
   -0.6120    2.6070   -1.2360 H   0  0  0  0  0  0  0  0  0  0  0  0
   -2.0390    1.6240   -1.5250 H   0  0  0  0  0  0  0  0  0  0  0  0
   -1.0660    1.1590    0.5940 H   0  0  0  0  0  0  0  0  0  0  0  0
    1.4690    0.2110   -0.7160 H   0  0  0  0  0  0  0  0  0  0  0  0
   -2.5470   -1.0150   -0.4610 N   0  0  0  0  0  0  0  0  0  0  0  0
   -3.6240   -0.0780   -0.4150 C   0  0  0  0  0  0  0  0  0  0  0  0
   -4.7260   -0.8480    0.2930 C   0  0  0  0  0  0  0  0  0  0  0  0
   -4.3630   -2.3050    0.1750 C   0  0  0  0  0  0  0  0  0  0  0  0
   -3.1240   -2.3350   -0.6390 C   0  0  1  0  0  0  0  0  0  0  0  0
   -3.3280   -2.6510   -2.0730 C   0  0  0  0  0  0  0  0  0  0  0  0
   -2.9990   -1.7910   -2.9140 O   0  0  0  0  0  0  0  0  0  0  0  0
   -3.8690   -3.8660   -2.4650 O   0  0  0  0  0  0  0  0  0  0  0  0
   -3.9730    0.2690   -1.3910 H   0  0  0  0  0  0  0  0  0  0  0  0
   -3.3010    0.7920    0.2250 H   0  0  0  0  0  0  0  0  0  0  0  0
   -4.7590   -0.5110    1.3510 H   0  0  0  0  0  0  0  0  0  0  0  0
   -5.6840   -0.6550   -0.2360 H   0  0  0  0  0  0  0  0  0  0  0  0
   -5.1580   -2.8620   -0.3900 H   0  0  0  0  0  0  0  0  0  0  0  0
   -4.2100   -2.7630    1.1880 H   0  0  0  0  0  0  0  0  0  0  0  0
   -2.3970   -3.0750   -0.2050 H   0  0  0  0  0  0  0  0  0  0  0  0
  1 13  1  0  0  0  0
  2 12  1  0  0  0  0
  2  1  1  0  0  0  0
  3  2  2  0  0  0  0
  4  5  2  0  0  0  0
  4  3  1  0  0  0  0
  5 11  1  0  0  0  0
  6  7  1  0  0  0  0
  6  5  1  0  0  0  0
  7 18  1  6  0  0  0
  7  8  1  0  0  0  0
  8 19  1  0  0  0  0
  8 20  1  0  0  0  0
  9  7  1  0  0  0  0
  9 10  2  0  0  0  0
 11 21  1  0  0  0  0
 11 12  2  0  0  0  0
 12 22  1  0  0  0  0
 14  3  1  0  0  0  0
 15  4  1  0  0  0  0
 16  6  1  0  0  0  0
 17  6  1  0  0  0  0
 23 31  1  0  0  0  0
 23 24  1  0  0  0  0
 24 26  1  0  0  0  0
 25 24  2  0  0  0  0
 26 33  1  0  0  0  0
 26 27  1  0  0  0  0
 27 28  1  0  0  0  0
 27 35  1  1  0  0  0
 28  9  1  0  0  0  0
 29 27  1  0  0  0  0
 30 29  2  0  0  0  0
 32 23  1  0  0  0  0
 34 26  1  0  0  0  0
 36 28  1  0  0  0  0
 37 38  1  0  0  0  0
 37 29  1  0  0  0  0
 38 46  1  0  0  0  0
 38 39  1  0  0  0  0
 39 47  1  0  0  0  0
 40 39  1  0  0  0  0
 40 50  1  0  0  0  0
 41 37  1  0  0  0  0
 41 51  1  1  0  0  0
 41 40  1  0  0  0  0
 42 41  1  0  0  0  0
 43 42  2  0  0  0  0
 44 42  1  0  0  0  0
 45 38  1  0  0  0  0
 48 39  1  0  0  0  0
 49 40  1  0  0  0  0
M  END
$$$$
