YNQ.pdb
 OpenBabel07022419203D

 54 54  0  0  1  0  0  0  0  0999 V2000
    1.5060   -2.5540    6.1720 O   0  0  0  0  0  0  0  0  0  0  0  0
    1.9920   -2.1660    4.9240 C   0  0  0  0  0  0  0  0  0  0  0  0
    1.1200   -2.1450    3.8420 C   0  0  0  0  0  0  0  0  0  0  0  0
    1.5430   -1.7710    2.5880 C   0  0  0  0  0  0  0  0  0  0  0  0
    2.8560   -1.4060    2.3810 C   0  0  0  0  0  0  0  0  0  0  0  0
    3.2880   -1.0110    1.0120 C   0  0  0  0  0  0  0  0  0  0  0  0
    3.0700    0.4760    0.7880 C   0  0  2  0  0  0  0  0  0  0  0  0
    3.8460    1.1620    1.8020 N   0  0  0  0  0  0  0  0  0  0  0  0
    1.6480    0.8380    0.9430 C   0  0  0  0  0  0  0  0  0  0  0  0
    1.3000    1.4240    1.9960 O   0  0  0  0  0  0  0  0  0  0  0  0
    3.7100   -1.4310    3.4630 C   0  0  0  0  0  0  0  0  0  0  0  0
    3.3080   -1.8030    4.7280 C   0  0  0  0  0  0  0  0  0  0  0  0
    1.0820   -1.8930    6.8070 H   0  0  0  0  0  0  0  0  0  0  0  0
    0.0900   -2.4370    4.0300 H   0  0  0  0  0  0  0  0  0  0  0  0
    0.8300   -1.7580    1.7480 H   0  0  0  0  0  0  0  0  0  0  0  0
    4.3460   -1.2490    0.8460 H   0  0  0  0  0  0  0  0  0  0  0  0
    2.6970   -1.5400    0.2380 H   0  0  0  0  0  0  0  0  0  0  0  0
    3.4900    0.8010   -0.1870 H   0  0  0  0  0  0  0  0  0  0  0  0
    4.8600    0.9850    1.7300 H   0  0  0  0  0  0  0  0  0  0  0  0
    3.6410    2.1910    1.7930 H   0  0  0  0  0  0  0  0  0  0  0  0
    4.7380   -1.1430    3.2880 H   0  0  0  0  0  0  0  0  0  0  0  0
    3.9650   -1.8280    5.5870 H   0  0  0  0  0  0  0  0  0  0  0  0
   -0.6690    4.1590   -1.9970 N   0  0  0  0  0  0  0  0  0  0  0  0
   -0.4000    3.1410   -1.0440 C   0  0  0  0  0  0  0  0  0  0  0  0
    0.5450    3.3350   -0.2200 O   0  0  0  0  0  0  0  0  0  0  0  0
   -1.1560    1.8930   -0.9710 C   0  0  0  0  0  0  0  0  0  0  0  0
   -0.7030    0.9390    0.1320 C   0  0  2  0  0  0  0  0  0  0  0  0
    0.6630    0.5590   -0.0400 N   0  0  0  0  0  0  0  0  0  0  0  0
   -1.6740   -0.1750    0.0890 C   0  0  0  0  0  0  0  0  0  0  0  0
   -2.8950    0.1690    0.2690 O   0  0  0  0  0  0  0  0  0  0  0  0
    0.1120    4.7100   -2.3750 H   0  0  0  0  0  0  0  0  0  0  0  0
   -1.6340    4.3400   -2.3030 H   0  0  0  0  0  0  0  0  0  0  0  0
   -2.2250    2.1470   -0.7940 H   0  0  0  0  0  0  0  0  0  0  0  0
   -1.0460    1.3390   -1.9380 H   0  0  0  0  0  0  0  0  0  0  0  0
   -0.8090    1.4410    1.1170 H   0  0  0  0  0  0  0  0  0  0  0  0
    1.0030    0.0550   -0.9040 H   0  0  0  0  0  0  0  0  0  0  0  0
   -4.2290   -0.5370   -3.6360 N   0  0  0  0  0  0  0  0  0  0  0  0
   -3.9500   -1.5270   -2.6570 C   0  0  0  0  0  0  0  0  0  0  0  0
   -4.8410   -1.7260   -1.7990 O   0  0  0  0  0  0  0  0  0  0  0  0
   -2.6920   -2.2870   -2.6380 C   0  0  0  0  0  0  0  0  0  0  0  0
   -2.4980   -3.1930   -1.4770 C   0  0  0  0  0  0  0  0  0  0  0  0
   -2.4760   -2.4880   -0.1510 C   0  0  2  0  0  0  0  0  0  0  0  0
   -1.4000   -1.5310   -0.1260 N   0  0  0  0  0  0  0  0  0  0  0  0
   -2.3760   -3.4460    0.9690 C   0  0  0  0  0  0  0  0  0  0  0  0
   -3.2100   -4.3780    1.1410 O   0  0  0  0  0  0  0  0  0  0  0  0
   -1.3490   -3.3430    1.8700 O   0  0  0  0  0  0  0  0  0  0  0  0
   -4.8740    0.2570   -3.4490 H   0  0  0  0  0  0  0  0  0  0  0  0
   -3.7660   -0.6190   -4.5700 H   0  0  0  0  0  0  0  0  0  0  0  0
   -1.8330   -1.5850   -2.7200 H   0  0  0  0  0  0  0  0  0  0  0  0
   -2.6850   -2.9390   -3.5570 H   0  0  0  0  0  0  0  0  0  0  0  0
   -1.5160   -3.6940   -1.6030 H   0  0  0  0  0  0  0  0  0  0  0  0
   -3.2530   -4.0130   -1.4830 H   0  0  0  0  0  0  0  0  0  0  0  0
   -3.4410   -1.9580   -0.0100 H   0  0  0  0  0  0  0  0  0  0  0  0
   -0.4120   -1.8180   -0.2700 H   0  0  0  0  0  0  0  0  0  0  0  0
  1 13  1  0  0  0  0
  2  1  1  0  0  0  0
  3 14  1  0  0  0  0
  3  2  2  0  0  0  0
  4  3  1  0  0  0  0
  5  4  2  0  0  0  0
  5 11  1  0  0  0  0
  6  5  1  0  0  0  0
  7 18  1  6  0  0  0
  7  9  1  0  0  0  0
  7  6  1  0  0  0  0
  7  8  1  0  0  0  0
  9 10  2  0  0  0  0
 11 12  2  0  0  0  0
 12  2  1  0  0  0  0
 12 22  1  0  0  0  0
 15  4  1  0  0  0  0
 16  6  1  0  0  0  0
 17  6  1  0  0  0  0
 19  8  1  0  0  0  0
 20  8  1  0  0  0  0
 21 11  1  0  0  0  0
 23 24  1  0  0  0  0
 24 26  1  0  0  0  0
 24 25  2  0  0  0  0
 26 33  1  0  0  0  0
 26 27  1  0  0  0  0
 27 35  1  1  0  0  0
 28 27  1  0  0  0  0
 28  9  1  0  0  0  0
 29 27  1  0  0  0  0
 29 30  2  0  0  0  0
 31 23  1  0  0  0  0
 32 23  1  0  0  0  0
 34 26  1  0  0  0  0
 36 28  1  0  0  0  0
 37 47  1  0  0  0  0
 37 38  1  0  0  0  0
 38 40  1  0  0  0  0
 38 39  2  0  0  0  0
 40 41  1  0  0  0  0
 41 42  1  0  0  0  0
 42 43  1  0  0  0  0
 42 53  1  1  0  0  0
 42 44  1  0  0  0  0
 43 29  1  0  0  0  0
 44 45  2  0  0  0  0
 44 46  1  0  0  0  0
 48 37  1  0  0  0  0
 49 40  1  0  0  0  0
 50 40  1  0  0  0  0
 51 41  1  0  0  0  0
 52 41  1  0  0  0  0
 54 43  1  0  0  0  0
M  END
$$$$
