YNR.pdb
 OpenBabel07022419203D

 60 60  0  0  1  0  0  0  0  0999 V2000
    3.9040   -3.6880    3.7000 O   0  0  0  0  0  0  0  0  0  0  0  0
    3.8420   -2.4060    3.1540 C   0  0  0  0  0  0  0  0  0  0  0  0
    4.4990   -1.3210    3.6960 C   0  0  0  0  0  0  0  0  0  0  0  0
    4.4500   -0.0510    3.1720 C   0  0  0  0  0  0  0  0  0  0  0  0
    3.7150    0.1930    2.0440 C   0  0  0  0  0  0  0  0  0  0  0  0
    3.5910    1.5060    1.3990 C   0  0  0  0  0  0  0  0  0  0  0  0
    2.4620    2.3550    1.9050 C   0  0  2  0  0  0  0  0  0  0  0  0
    2.6160    2.6180    3.3480 N   0  0  0  0  0  0  0  0  0  0  0  0
    1.1150    1.8970    1.5980 C   0  0  0  0  0  0  0  0  0  0  0  0
    0.3460    1.6070    2.5810 O   0  0  0  0  0  0  0  0  0  0  0  0
    3.0490   -0.8850    1.4870 C   0  0  0  0  0  0  0  0  0  0  0  0
    3.0960   -2.1600    2.0090 C   0  0  0  0  0  0  0  0  0  0  0  0
    3.5350   -3.8740    4.6150 H   0  0  0  0  0  0  0  0  0  0  0  0
    5.0850   -1.5380    4.6030 H   0  0  0  0  0  0  0  0  0  0  0  0
    4.9740    0.7700    3.6200 H   0  0  0  0  0  0  0  0  0  0  0  0
    3.4650    1.4050    0.3060 H   0  0  0  0  0  0  0  0  0  0  0  0
    4.5290    2.0720    1.5690 H   0  0  0  0  0  0  0  0  0  0  0  0
    2.5980    3.3500    1.4300 H   0  0  0  0  0  0  0  0  0  0  0  0
    3.4620    3.1870    3.5390 H   0  0  0  0  0  0  0  0  0  0  0  0
    1.7970    3.1700    3.6580 H   0  0  0  0  0  0  0  0  0  0  0  0
    2.4410   -0.7620    0.5780 H   0  0  0  0  0  0  0  0  0  0  0  0
    2.5810   -3.0110    1.5850 H   0  0  0  0  0  0  0  0  0  0  0  0
   -2.6140    4.5870   -0.5690 N   0  0  0  0  0  0  0  0  0  0  0  0
   -1.8300    3.5620    0.0110 C   0  0  0  0  0  0  0  0  0  0  0  0
   -1.3260    3.7480    1.1370 O   0  0  0  0  0  0  0  0  0  0  0  0
   -1.6200    2.3110   -0.7070 C   0  0  0  0  0  0  0  0  0  0  0  0
   -0.7720    1.2920    0.0070 C   0  0  2  0  0  0  0  0  0  0  0  0
    0.5660    1.7430    0.3050 N   0  0  0  0  0  0  0  0  0  0  0  0
   -0.7000    0.0810   -0.8490 C   0  0  0  0  0  0  0  0  0  0  0  0
    0.4260   -0.3540   -1.2090 O   0  0  0  0  0  0  0  0  0  0  0  0
   -3.4710    4.3820   -1.1190 H   0  0  0  0  0  0  0  0  0  0  0  0
   -2.3290    5.5770   -0.4440 H   0  0  0  0  0  0  0  0  0  0  0  0
   -1.1940    2.4410   -1.7260 H   0  0  0  0  0  0  0  0  0  0  0  0
   -2.6190    1.8390   -0.8500 H   0  0  0  0  0  0  0  0  0  0  0  0
   -1.2680    1.0820    0.9820 H   0  0  0  0  0  0  0  0  0  0  0  0
    1.1820    1.9780   -0.4970 H   0  0  0  0  0  0  0  0  0  0  0  0
   -1.3330   -4.5830    2.0000 N   0  0  0  0  0  0  0  0  0  0  0  0
   -2.3810   -4.8450    1.0880 C   0  0  0  0  0  0  0  0  0  0  0  0
   -3.5640   -4.3330    1.2680 N   0  0  0  0  0  0  0  0  0  0  0  0
   -2.2270   -5.6620   -0.0550 N   0  0  0  0  0  0  0  0  0  0  0  0
   -2.8070   -5.4150   -1.3300 C   0  0  0  0  0  0  0  0  0  0  0  0
   -2.1960   -4.2440   -2.0550 C   0  0  0  0  0  0  0  0  0  0  0  0
   -2.3100   -2.9520   -1.3250 C   0  0  0  0  0  0  0  0  0  0  0  0
   -1.6780   -1.8220   -2.1410 C   0  0  2  0  0  0  0  0  0  0  0  0
   -1.8450   -0.6200   -1.2880 N   0  0  0  0  0  0  0  0  0  0  0  0
   -2.4490   -1.5250   -3.3610 C   0  0  0  0  0  0  0  0  0  0  0  0
   -2.4430   -2.3140   -4.3210 O   0  0  0  0  0  0  0  0  0  0  0  0
   -3.2180   -0.3650   -3.5100 O   0  0  0  0  0  0  0  0  0  0  0  0
   -1.4010   -3.7460    2.6120 H   0  0  0  0  0  0  0  0  0  0  0  0
   -0.4990   -5.1900    2.0870 H   0  0  0  0  0  0  0  0  0  0  0  0
   -3.7200   -3.7330    2.0910 H   0  0  0  0  0  0  0  0  0  0  0  0
   -1.6240   -6.5220    0.0740 H   0  0  0  0  0  0  0  0  0  0  0  0
   -3.9080   -5.2300   -1.2430 H   0  0  0  0  0  0  0  0  0  0  0  0
   -2.6660   -6.3230   -1.9890 H   0  0  0  0  0  0  0  0  0  0  0  0
   -1.1090   -4.4960   -2.2290 H   0  0  0  0  0  0  0  0  0  0  0  0
   -2.6850   -4.1220   -3.0620 H   0  0  0  0  0  0  0  0  0  0  0  0
   -3.3520   -2.6460   -1.1560 H   0  0  0  0  0  0  0  0  0  0  0  0
   -1.7490   -3.0480   -0.3580 H   0  0  0  0  0  0  0  0  0  0  0  0
   -0.6100   -1.9590   -2.2920 H   0  0  0  0  0  0  0  0  0  0  0  0
   -2.8010   -0.2920   -1.0110 H   0  0  0  0  0  0  0  0  0  0  0  0
  1 13  1  0  0  0  0
  2  3  1  0  0  0  0
  2  1  1  0  0  0  0
  3 14  1  0  0  0  0
  4 15  1  0  0  0  0
  4  3  2  0  0  0  0
  5  4  1  0  0  0  0
  6 17  1  0  0  0  0
  6  7  1  0  0  0  0
  6  5  1  0  0  0  0
  7 18  1  6  0  0  0
  7  8  1  0  0  0  0
  8 19  1  0  0  0  0
  8 20  1  0  0  0  0
  9  7  1  0  0  0  0
  9 10  2  0  0  0  0
 11 12  1  0  0  0  0
 11  5  2  0  0  0  0
 12  2  2  0  0  0  0
 16  6  1  0  0  0  0
 21 11  1  0  0  0  0
 22 12  1  0  0  0  0
 23 32  1  0  0  0  0
 23 24  1  0  0  0  0
 24 25  2  0  0  0  0
 26 27  1  0  0  0  0
 26 24  1  0  0  0  0
 27 28  1  0  0  0  0
 27 35  1  1  0  0  0
 28  9  1  0  0  0  0
 29 27  1  0  0  0  0
 30 29  2  0  0  0  0
 31 23  1  0  0  0  0
 33 26  1  0  0  0  0
 34 26  1  0  0  0  0
 36 28  1  0  0  0  0
 37 50  1  0  0  0  0
 37 49  1  0  0  0  0
 38 39  2  0  0  0  0
 38 37  1  0  0  0  0
 39 51  1  0  0  0  0
 40 52  1  0  0  0  0
 40 38  1  0  0  0  0
 41 53  1  0  0  0  0
 41 40  1  0  0  0  0
 42 41  1  0  0  0  0
 42 43  1  0  0  0  0
 43 57  1  0  0  0  0
 43 58  1  0  0  0  0
 44 59  1  6  0  0  0
 44 43  1  0  0  0  0
 44 45  1  0  0  0  0
 45 60  1  0  0  0  0
 45 29  1  0  0  0  0
 46 44  1  0  0  0  0
 47 46  2  0  0  0  0
 48 46  1  0  0  0  0
 54 41  1  0  0  0  0
 55 42  1  0  0  0  0
 56 42  1  0  0  0  0
M  END
$$$$
