YNS.pdb
 OpenBabel07022419203D

 48 48  0  0  1  0  0  0  0  0999 V2000
    1.6940   -5.9820   -1.0510 O   0  0  0  0  0  0  0  0  0  0  0  0
    1.8690   -4.5940   -1.0310 C   0  0  0  0  0  0  0  0  0  0  0  0
    0.8530   -3.7490   -0.6380 C   0  0  0  0  0  0  0  0  0  0  0  0
    1.0140   -2.3610   -0.6130 C   0  0  0  0  0  0  0  0  0  0  0  0
    2.2130   -1.8000   -0.9890 C   0  0  0  0  0  0  0  0  0  0  0  0
    2.4020   -0.3230   -0.9790 C   0  0  0  0  0  0  0  0  0  0  0  0
    2.8970    0.1070    0.3890 C   0  0  2  0  0  0  0  0  0  0  0  0
    4.1540   -0.5350    0.7160 N   0  0  0  0  0  0  0  0  0  0  0  0
    1.8860   -0.0030    1.4470 C   0  0  0  0  0  0  0  0  0  0  0  0
    2.1660   -0.7380    2.4600 O   0  0  0  0  0  0  0  0  0  0  0  0
    3.2300   -2.6240   -1.3820 C   0  0  0  0  0  0  0  0  0  0  0  0
    3.0650   -4.0090   -1.4050 C   0  0  0  0  0  0  0  0  0  0  0  0
    2.5070   -6.5510   -1.2890 H   0  0  0  0  0  0  0  0  0  0  0  0
   -0.1000   -4.1670   -0.3380 H   0  0  0  0  0  0  0  0  0  0  0  0
    0.2400   -1.6800   -0.3080 H   0  0  0  0  0  0  0  0  0  0  0  0
    3.1460   -0.0880   -1.7660 H   0  0  0  0  0  0  0  0  0  0  0  0
    1.4740    0.2110   -1.2450 H   0  0  0  0  0  0  0  0  0  0  0  0
    3.1550    1.2010    0.2630 H   0  0  0  0  0  0  0  0  0  0  0  0
    3.9840   -1.5650    0.7100 H   0  0  0  0  0  0  0  0  0  0  0  0
    4.8860   -0.2530    0.0440 H   0  0  0  0  0  0  0  0  0  0  0  0
    4.1840   -2.1960   -1.6810 H   0  0  0  0  0  0  0  0  0  0  0  0
    3.8650   -4.6760   -1.7150 H   0  0  0  0  0  0  0  0  0  0  0  0
   -1.0600    3.0670    5.2230 N   0  0  0  0  0  0  0  0  0  0  0  0
   -0.9990    1.8300    4.4900 C   0  0  0  0  0  0  0  0  0  0  0  0
   -1.6500    0.8700    4.9450 O   0  0  0  0  0  0  0  0  0  0  0  0
   -0.1810    1.7930    3.2720 C   0  0  0  0  0  0  0  0  0  0  0  0
   -0.2870    0.4860    2.5090 C   0  0  2  0  0  0  0  0  0  0  0  0
    0.6410    0.6700    1.3760 N   0  0  0  0  0  0  0  0  0  0  0  0
   -1.6320    0.1720    2.0350 C   0  0  0  0  0  0  0  0  0  0  0  0
   -2.5890   -0.0260    2.8180 O   0  0  0  0  0  0  0  0  0  0  0  0
   -1.9710    3.3460    5.6070 H   0  0  0  0  0  0  0  0  0  0  0  0
   -0.2290    3.6540    5.3620 H   0  0  0  0  0  0  0  0  0  0  0  0
   -0.4040    2.6660    2.5910 H   0  0  0  0  0  0  0  0  0  0  0  0
    0.8740    1.9660    3.5900 H   0  0  0  0  0  0  0  0  0  0  0  0
    0.1370   -0.2930    3.1530 H   0  0  0  0  0  0  0  0  0  0  0  0
    0.4300    1.2580    0.5570 H   0  0  0  0  0  0  0  0  0  0  0  0
   -5.1790    0.4950   -1.0010 O   0  0  0  0  0  0  0  0  0  0  0  0
   -3.8800    0.8630   -0.6460 C   0  0  0  0  0  0  0  0  0  0  0  0
   -3.3170   -0.2330    0.2270 C   0  0  2  0  0  0  0  0  0  0  0  0
   -1.9570    0.0700    0.6450 N   0  0  0  0  0  0  0  0  0  0  0  0
   -3.4340   -1.5600   -0.4190 C   0  0  0  0  0  0  0  0  0  0  0  0
   -4.5590   -1.9690   -0.8490 O   0  0  0  0  0  0  0  0  0  0  0  0
   -2.3610   -2.4010   -0.5830 O   0  0  0  0  0  0  0  0  0  0  0  0
   -5.7270    0.2680   -0.2060 H   0  0  0  0  0  0  0  0  0  0  0  0
   -3.2960    0.9510   -1.5900 H   0  0  0  0  0  0  0  0  0  0  0  0
   -3.9100    1.8130   -0.1080 H   0  0  0  0  0  0  0  0  0  0  0  0
   -3.9730   -0.2910    1.1440 H   0  0  0  0  0  0  0  0  0  0  0  0
   -1.1850    0.2190   -0.0330 H   0  0  0  0  0  0  0  0  0  0  0  0
  1  2  1  0  0  0  0
  2  3  1  0  0  0  0
  3  4  2  0  0  0  0
  3 14  1  0  0  0  0
  4 15  1  0  0  0  0
  5  6  1  0  0  0  0
  5  4  1  0  0  0  0
  6  7  1  0  0  0  0
  7 18  1  6  0  0  0
  7  8  1  0  0  0  0
  7  9  1  0  0  0  0
  9 10  2  0  0  0  0
 11  5  2  0  0  0  0
 12 11  1  0  0  0  0
 12  2  2  0  0  0  0
 13  1  1  0  0  0  0
 16  6  1  0  0  0  0
 17  6  1  0  0  0  0
 19  8  1  0  0  0  0
 20  8  1  0  0  0  0
 21 11  1  0  0  0  0
 22 12  1  0  0  0  0
 23 32  1  0  0  0  0
 23 31  1  0  0  0  0
 24 25  2  0  0  0  0
 24 23  1  0  0  0  0
 26 34  1  0  0  0  0
 26 24  1  0  0  0  0
 27 35  1  1  0  0  0
 27 26  1  0  0  0  0
 28  9  1  0  0  0  0
 28 27  1  0  0  0  0
 29 27  1  0  0  0  0
 29 30  2  0  0  0  0
 33 26  1  0  0  0  0
 36 28  1  0  0  0  0
 37 38  1  0  0  0  0
 37 44  1  0  0  0  0
 38 46  1  0  0  0  0
 38 39  1  0  0  0  0
 39 40  1  0  0  0  0
 39 47  1  1  0  0  0
 40 29  1  0  0  0  0
 41 39  1  0  0  0  0
 42 41  2  0  0  0  0
 43 41  1  0  0  0  0
 45 38  1  0  0  0  0
 48 40  1  0  0  0  0
M  END
$$$$
