YNV.pdb
 OpenBabel07022419203D

 53 53  0  0  1  0  0  0  0  0999 V2000
    6.3210   -3.1150    2.3000 O   0  0  0  0  0  0  0  0  0  0  0  0
    5.6190   -1.9310    2.1360 C   0  0  0  0  0  0  0  0  0  0  0  0
    6.0650   -0.9430    1.2910 C   0  0  0  0  0  0  0  0  0  0  0  0
    5.3650    0.2490    1.1220 C   0  0  0  0  0  0  0  0  0  0  0  0
    4.1950    0.4660    1.8090 C   0  0  0  0  0  0  0  0  0  0  0  0
    3.4550    1.7360    1.6330 C   0  0  0  0  0  0  0  0  0  0  0  0
    2.4440    1.6910    0.5140 C   0  0  2  0  0  0  0  0  0  0  0  0
    1.8010    2.9930    0.4660 N   0  0  0  0  0  0  0  0  0  0  0  0
    1.4890    0.5850    0.6030 C   0  0  0  0  0  0  0  0  0  0  0  0
    1.9580   -0.5940    0.5640 O   0  0  0  0  0  0  0  0  0  0  0  0
    3.7440   -0.5230    2.6580 C   0  0  0  0  0  0  0  0  0  0  0  0
    4.4500   -1.7120    2.8210 C   0  0  0  0  0  0  0  0  0  0  0  0
    6.0460   -3.8460    2.9150 H   0  0  0  0  0  0  0  0  0  0  0  0
    6.9890   -1.1400    0.7620 H   0  0  0  0  0  0  0  0  0  0  0  0
    5.7840    0.9890    0.4290 H   0  0  0  0  0  0  0  0  0  0  0  0
    2.9240    2.0050    2.5600 H   0  0  0  0  0  0  0  0  0  0  0  0
    4.2100    2.5210    1.3490 H   0  0  0  0  0  0  0  0  0  0  0  0
    3.0130    1.5780   -0.4360 H   0  0  0  0  0  0  0  0  0  0  0  0
    1.0560    2.9860   -0.2920 H   0  0  0  0  0  0  0  0  0  0  0  0
    2.5370    3.6730    0.1950 H   0  0  0  0  0  0  0  0  0  0  0  0
    2.8160   -0.3470    3.2000 H   0  0  0  0  0  0  0  0  0  0  0  0
    4.0390   -2.4410    3.5010 H   0  0  0  0  0  0  0  0  0  0  0  0
   -1.8130    1.5230    3.5170 N   0  0  0  0  0  0  0  0  0  0  0  0
   -2.2430    0.5470    2.5730 C   0  0  0  0  0  0  0  0  0  0  0  0
   -3.3850    0.7000    2.0730 O   0  0  0  0  0  0  0  0  0  0  0  0
   -1.4230   -0.5970    2.1770 C   0  0  0  0  0  0  0  0  0  0  0  0
   -0.7800   -0.4570    0.8090 C   0  0  2  0  0  0  0  0  0  0  0  0
    0.0950    0.6960    0.7290 N   0  0  0  0  0  0  0  0  0  0  0  0
   -1.7860   -0.4500   -0.2800 C   0  0  0  0  0  0  0  0  0  0  0  0
   -1.7830    0.4860   -1.0770 O   0  0  0  0  0  0  0  0  0  0  0  0
   -1.9350    2.5420    3.3220 H   0  0  0  0  0  0  0  0  0  0  0  0
   -1.3740    1.2250    4.4090 H   0  0  0  0  0  0  0  0  0  0  0  0
   -2.1030   -1.4850    2.0890 H   0  0  0  0  0  0  0  0  0  0  0  0
   -0.6430   -0.8800    2.8840 H   0  0  0  0  0  0  0  0  0  0  0  0
   -0.1240   -1.3660    0.7130 H   0  0  0  0  0  0  0  0  0  0  0  0
   -0.3190    1.6460    0.7650 H   0  0  0  0  0  0  0  0  0  0  0  0
   -2.4900   -2.8720   -3.1600 C   0  0  0  0  0  0  0  0  0  0  0  0
   -3.7630   -2.7590   -2.3100 C   0  0  0  0  0  0  0  0  0  0  0  0
   -4.1290   -4.0600   -1.6810 C   0  0  0  0  0  0  0  0  0  0  0  0
   -3.7420   -1.5870   -1.4130 C   0  0  2  0  0  0  0  0  0  0  0  0
   -2.7380   -1.4570   -0.4430 N   0  0  0  0  0  0  0  0  0  0  0  0
   -5.0780   -1.4770   -0.7520 C   0  0  0  0  0  0  0  0  0  0  0  0
   -5.1770   -1.2890    0.5010 O   0  0  0  0  0  0  0  0  0  0  0  0
   -6.2640   -1.5710   -1.4520 O   0  0  0  0  0  0  0  0  0  0  0  0
   -2.3850   -1.9760   -3.8160 H   0  0  0  0  0  0  0  0  0  0  0  0
   -2.5510   -3.7340   -3.8570 H   0  0  0  0  0  0  0  0  0  0  0  0
   -1.6010   -3.0450   -2.5340 H   0  0  0  0  0  0  0  0  0  0  0  0
   -4.5690   -2.5300   -3.0480 H   0  0  0  0  0  0  0  0  0  0  0  0
   -5.2490   -4.2340   -1.6640 H   0  0  0  0  0  0  0  0  0  0  0  0
   -3.7420   -4.9160   -2.2750 H   0  0  0  0  0  0  0  0  0  0  0  0
   -3.8400   -4.1380   -0.6080 H   0  0  0  0  0  0  0  0  0  0  0  0
   -3.6810   -0.6860   -2.0910 H   0  0  0  0  0  0  0  0  0  0  0  0
   -2.6970   -2.2470    0.2750 H   0  0  0  0  0  0  0  0  0  0  0  0
  1 13  1  0  0  0  0
  2  1  1  0  0  0  0
  2 12  1  0  0  0  0
  3  2  2  0  0  0  0
  4  3  1  0  0  0  0
  4  5  2  0  0  0  0
  5 11  1  0  0  0  0
  6  5  1  0  0  0  0
  6 16  1  0  0  0  0
  7 18  1  6  0  0  0
  7  9  1  0  0  0  0
  7  6  1  0  0  0  0
  8  7  1  0  0  0  0
  9 28  1  0  0  0  0
 10  9  2  0  0  0  0
 11 12  2  0  0  0  0
 11 21  1  0  0  0  0
 12 22  1  0  0  0  0
 14  3  1  0  0  0  0
 15  4  1  0  0  0  0
 17  6  1  0  0  0  0
 19  8  1  0  0  0  0
 20  8  1  0  0  0  0
 23 32  1  0  0  0  0
 24 23  1  0  0  0  0
 25 24  2  0  0  0  0
 26 24  1  0  0  0  0
 26 34  1  0  0  0  0
 27 35  1  6  0  0  0
 27 26  1  0  0  0  0
 28 36  1  0  0  0  0
 28 27  1  0  0  0  0
 29 27  1  0  0  0  0
 30 29  2  0  0  0  0
 31 23  1  0  0  0  0
 33 26  1  0  0  0  0
 37 47  1  0  0  0  0
 37 38  1  0  0  0  0
 38 39  1  0  0  0  0
 38 40  1  0  0  0  0
 39 49  1  0  0  0  0
 39 51  1  0  0  0  0
 40 52  1  6  0  0  0
 40 42  1  0  0  0  0
 40 41  1  0  0  0  0
 41 29  1  0  0  0  0
 41 53  1  0  0  0  0
 42 43  1  0  0  0  0
 44 42  2  0  0  0  0
 45 37  1  0  0  0  0
 46 37  1  0  0  0  0
 48 38  1  0  0  0  0
 50 39  1  0  0  0  0
M  END
$$$$
