YNW.pdb
 OpenBabel07022419203D

 61 63  0  0  1  0  0  0  0  0999 V2000
   -1.9260   -2.9570    4.1500 O   0  0  0  0  0  0  0  0  0  0  0  0
   -0.8940   -2.0350    3.9400 C   0  0  0  0  0  0  0  0  0  0  0  0
    0.4220   -2.4870    3.9270 C   0  0  0  0  0  0  0  0  0  0  0  0
    1.4550   -1.5990    3.7220 C   0  0  0  0  0  0  0  0  0  0  0  0
    1.2260   -0.2410    3.5240 C   0  0  0  0  0  0  0  0  0  0  0  0
    2.3900    0.6260    3.3650 C   0  0  0  0  0  0  0  0  0  0  0  0
    3.0190    0.7290    2.0290 C   0  0  2  0  0  0  0  0  0  0  0  0
    4.1700    1.6700    2.2450 N   0  0  0  0  0  0  0  0  0  0  0  0
    2.2670    1.3260    0.9280 C   0  0  0  0  0  0  0  0  0  0  0  0
    2.4300    2.5690    0.6040 O   0  0  0  0  0  0  0  0  0  0  0  0
   -0.0790    0.1790    3.5420 C   0  0  0  0  0  0  0  0  0  0  0  0
   -1.1390   -0.6910    3.7460 C   0  0  0  0  0  0  0  0  0  0  0  0
   -2.5120   -2.9010    4.9940 H   0  0  0  0  0  0  0  0  0  0  0  0
    0.5690   -3.5530    4.0840 H   0  0  0  0  0  0  0  0  0  0  0  0
    2.4590   -2.0080    3.7220 H   0  0  0  0  0  0  0  0  0  0  0  0
    2.0530    1.6880    3.6300 H   0  0  0  0  0  0  0  0  0  0  0  0
    3.1560    0.4290    4.1770 H   0  0  0  0  0  0  0  0  0  0  0  0
    3.4950   -0.2480    1.7540 H   0  0  0  0  0  0  0  0  0  0  0  0
    4.9470    1.1320    2.7070 H   0  0  0  0  0  0  0  0  0  0  0  0
    4.5400    1.9610    1.3080 H   0  0  0  0  0  0  0  0  0  0  0  0
   -0.2890    1.2150    3.3960 H   0  0  0  0  0  0  0  0  0  0  0  0
   -2.1690   -0.3700    3.7660 H   0  0  0  0  0  0  0  0  0  0  0  0
    0.6160    1.3020   -4.7890 N   0  0  0  0  0  0  0  0  0  0  0  0
    0.5420    1.6730   -3.3980 C   0  0  0  0  0  0  0  0  0  0  0  0
   -0.0930    2.7130   -3.1450 O   0  0  0  0  0  0  0  0  0  0  0  0
    1.1650    0.8960   -2.3300 C   0  0  0  0  0  0  0  0  0  0  0  0
    0.6630    1.3660   -0.9920 C   0  0  2  0  0  0  0  0  0  0  0  0
    1.3180    0.6740    0.0960 N   0  0  0  0  0  0  0  0  0  0  0  0
   -0.7840    1.0510   -0.9160 C   0  0  0  0  0  0  0  0  0  0  0  0
   -1.6450    1.4550   -1.7700 O   0  0  0  0  0  0  0  0  0  0  0  0
    0.7350    0.3170   -5.0710 H   0  0  0  0  0  0  0  0  0  0  0  0
    0.5510    2.0240   -5.5390 H   0  0  0  0  0  0  0  0  0  0  0  0
    0.9030   -0.1770   -2.5080 H   0  0  0  0  0  0  0  0  0  0  0  0
    2.2760    1.0510   -2.4380 H   0  0  0  0  0  0  0  0  0  0  0  0
    0.9170    2.4280   -0.9230 H   0  0  0  0  0  0  0  0  0  0  0  0
    1.0840   -0.3180    0.2470 H   0  0  0  0  0  0  0  0  0  0  0  0
   -1.3820    0.2590    0.1220 N   0  0  0  0  0  0  0  0  0  0  0  0
   -2.7900   -0.0230    0.1440 C   0  0  1  0  0  0  0  0  0  0  0  0
   -3.1730   -1.4420    0.3970 C   0  0  0  0  0  0  0  0  0  0  0  0
   -2.6840   -2.4280   -0.5650 C   0  0  0  0  0  0  0  0  0  0  0  0
   -3.4390   -2.8840   -1.6430 C   0  0  0  0  0  0  0  0  0  0  0  0
   -2.6680   -3.7350   -2.3210 N   0  0  0  0  0  0  0  0  0  0  0  0
   -1.4740   -3.8460   -1.7370 C   0  0  0  0  0  0  0  0  0  0  0  0
   -0.3580   -4.5860   -2.0380 C   0  0  0  0  0  0  0  0  0  0  0  0
    0.7660   -4.5190   -1.2420 C   0  0  0  0  0  0  0  0  0  0  0  0
    0.8100   -3.7230   -0.1370 C   0  0  0  0  0  0  0  0  0  0  0  0
   -0.3100   -2.9650    0.1860 C   0  0  0  0  0  0  0  0  0  0  0  0
   -1.4450   -3.0300   -0.6170 C   0  0  0  0  0  0  0  0  0  0  0  0
   -3.3940    0.7830    1.2510 C   0  0  0  0  0  0  0  0  0  0  0  0
   -4.6070    0.6780    1.5090 O   0  0  0  0  0  0  0  0  0  0  0  0
   -2.5850    1.6340    1.9650 O   0  0  0  0  0  0  0  0  0  0  0  0
   -0.7810   -0.1020    0.8610 H   0  0  0  0  0  0  0  0  0  0  0  0
   -3.2490    0.3630   -0.8130 H   0  0  0  0  0  0  0  0  0  0  0  0
   -4.2890   -1.4730    0.4350 H   0  0  0  0  0  0  0  0  0  0  0  0
   -2.8370   -1.7950    1.4120 H   0  0  0  0  0  0  0  0  0  0  0  0
   -4.4650   -2.5720   -1.8500 H   0  0  0  0  0  0  0  0  0  0  0  0
   -2.9920   -4.2280   -3.1840 H   0  0  0  0  0  0  0  0  0  0  0  0
   -0.3850   -5.2220   -2.9170 H   0  0  0  0  0  0  0  0  0  0  0  0
    1.6220   -5.1340   -1.5380 H   0  0  0  0  0  0  0  0  0  0  0  0
    1.7000   -3.6680    0.4990 H   0  0  0  0  0  0  0  0  0  0  0  0
   -0.3050   -2.3420    1.0590 H   0  0  0  0  0  0  0  0  0  0  0  0
  1 13  1  0  0  0  0
  2  1  1  0  0  0  0
  3  2  1  0  0  0  0
  3 14  1  0  0  0  0
  4  3  2  0  0  0  0
  5 11  2  0  0  0  0
  5  4  1  0  0  0  0
  6  5  1  0  0  0  0
  6 16  1  0  0  0  0
  6 17  1  0  0  0  0
  7 18  1  6  0  0  0
  7  8  1  0  0  0  0
  7  6  1  0  0  0  0
  8 19  1  0  0  0  0
  9  7  1  0  0  0  0
 10  9  2  0  0  0  0
 11 12  1  0  0  0  0
 12 22  1  0  0  0  0
 12  2  2  0  0  0  0
 15  4  1  0  0  0  0
 20  8  1  0  0  0  0
 21 11  1  0  0  0  0
 23 24  1  0  0  0  0
 24 25  2  0  0  0  0
 24 26  1  0  0  0  0
 26 27  1  0  0  0  0
 27 35  1  1  0  0  0
 27 29  1  0  0  0  0
 27 28  1  0  0  0  0
 28 36  1  0  0  0  0
 28  9  1  0  0  0  0
 29 37  1  0  0  0  0
 30 29  2  0  0  0  0
 31 23  1  0  0  0  0
 32 23  1  0  0  0  0
 33 26  1  0  0  0  0
 34 26  1  0  0  0  0
 37 38  1  0  0  0  0
 37 52  1  0  0  0  0
 38 53  1  6  0  0  0
 38 39  1  0  0  0  0
 38 49  1  0  0  0  0
 39 54  1  0  0  0  0
 39 55  1  0  0  0  0
 40 39  1  0  0  0  0
 41 40  2  0  0  0  0
 42 43  1  0  0  0  0
 42 41  1  0  0  0  0
 43 48  1  0  0  0  0
 44 43  2  0  0  0  0
 44 45  1  0  0  0  0
 45 46  2  0  0  0  0
 46 47  1  0  0  0  0
 46 60  1  0  0  0  0
 47 61  1  0  0  0  0
 48 40  1  0  0  0  0
 48 47  2  0  0  0  0
 49 50  2  0  0  0  0
 49 51  1  0  0  0  0
 56 41  1  0  0  0  0
 57 42  1  0  0  0  0
 58 44  1  0  0  0  0
 59 45  1  0  0  0  0
M  END
$$$$
