YNY.pdb
 OpenBabel07022419203D

 58 59  0  0  1  0  0  0  0  0999 V2000
    1.6900   -3.1820    5.9850 O   0  0  0  0  0  0  0  0  0  0  0  0
    2.4460   -2.7620    4.8950 C   0  0  0  0  0  0  0  0  0  0  0  0
    1.9020   -2.8910    3.6540 C   0  0  0  0  0  0  0  0  0  0  0  0
    2.5890   -2.4990    2.5360 C   0  0  0  0  0  0  0  0  0  0  0  0
    3.8450   -1.9670    2.6560 C   0  0  0  0  0  0  0  0  0  0  0  0
    4.5940   -1.5420    1.4810 C   0  0  0  0  0  0  0  0  0  0  0  0
    4.3500   -0.0890    1.1150 C   0  0  2  0  0  0  0  0  0  0  0  0
    4.7690    0.6690    2.2950 N   0  0  0  0  0  0  0  0  0  0  0  0
    2.9400    0.2150    0.8170 C   0  0  0  0  0  0  0  0  0  0  0  0
    2.2880    0.8910    1.6510 O   0  0  0  0  0  0  0  0  0  0  0  0
    4.3920   -1.8380    3.9130 C   0  0  0  0  0  0  0  0  0  0  0  0
    3.7020   -2.2320    5.0330 C   0  0  0  0  0  0  0  0  0  0  0  0
    1.3720   -2.4650    6.6370 H   0  0  0  0  0  0  0  0  0  0  0  0
    0.9000   -3.3100    3.5070 H   0  0  0  0  0  0  0  0  0  0  0  0
    2.1300   -2.6150    1.5510 H   0  0  0  0  0  0  0  0  0  0  0  0
    4.3570   -2.1640    0.5760 H   0  0  0  0  0  0  0  0  0  0  0  0
    5.6710   -1.7200    1.6720 H   0  0  0  0  0  0  0  0  0  0  0  0
    5.0040    0.2310    0.2780 H   0  0  0  0  0  0  0  0  0  0  0  0
    4.3410    1.6000    2.3220 H   0  0  0  0  0  0  0  0  0  0  0  0
    5.7800    0.6190    2.4620 H   0  0  0  0  0  0  0  0  0  0  0  0
    5.3970   -1.4160    4.0400 H   0  0  0  0  0  0  0  0  0  0  0  0
    4.1350   -2.1290    6.0020 H   0  0  0  0  0  0  0  0  0  0  0  0
    1.2390    3.0710   -3.0070 N   0  0  0  0  0  0  0  0  0  0  0  0
    1.3410    2.2230   -1.8850 C   0  0  0  0  0  0  0  0  0  0  0  0
    1.9640    2.6170   -0.8760 O   0  0  0  0  0  0  0  0  0  0  0  0
    0.7210    0.9020   -1.9160 C   0  0  0  0  0  0  0  0  0  0  0  0
    0.8980    0.0760   -0.6770 C   0  0  2  0  0  0  0  0  0  0  0  0
    2.2650   -0.2020   -0.3480 N   0  0  0  0  0  0  0  0  0  0  0  0
    0.0940   -1.1590   -0.8470 C   0  0  0  0  0  0  0  0  0  0  0  0
    0.7220   -2.2660   -0.7450 O   0  0  0  0  0  0  0  0  0  0  0  0
    1.9060    2.9630   -3.7940 H   0  0  0  0  0  0  0  0  0  0  0  0
    0.5140    3.8090   -3.0790 H   0  0  0  0  0  0  0  0  0  0  0  0
   -0.3850    1.0550   -2.0370 H   0  0  0  0  0  0  0  0  0  0  0  0
    1.0400    0.3800   -2.8410 H   0  0  0  0  0  0  0  0  0  0  0  0
    0.4500    0.6420    0.1630 H   0  0  0  0  0  0  0  0  0  0  0  0
    2.8160   -0.7700   -1.0390 H   0  0  0  0  0  0  0  0  0  0  0  0
   -6.7990    1.8060    0.2980 O   0  0  0  0  0  0  0  0  0  0  0  0
   -5.9290    0.7330    0.1430 C   0  0  0  0  0  0  0  0  0  0  0  0
   -4.7290    0.7310    0.8510 C   0  0  0  0  0  0  0  0  0  0  0  0
   -3.8450   -0.3250    0.7150 C   0  0  0  0  0  0  0  0  0  0  0  0
   -4.1000   -1.4010   -0.1060 C   0  0  0  0  0  0  0  0  0  0  0  0
   -3.1270   -2.4810   -0.1980 C   0  0  0  0  0  0  0  0  0  0  0  0
   -2.0830   -2.3040   -1.2760 C   0  0  2  0  0  0  0  0  0  0  0  0
   -1.2980   -1.1240   -1.1100 N   0  0  0  0  0  0  0  0  0  0  0  0
   -2.7310   -2.3310   -2.5970 C   0  0  0  0  0  0  0  0  0  0  0  0
   -2.5530   -1.3920   -3.3910 O   0  0  0  0  0  0  0  0  0  0  0  0
   -5.2840   -1.4050   -0.8080 C   0  0  0  0  0  0  0  0  0  0  0  0
   -6.1650   -0.3450   -0.6690 C   0  0  0  0  0  0  0  0  0  0  0  0
   -3.5310   -3.3900   -2.9540 O   0  0  0  0  0  0  0  0  0  0  0  0
   -7.7520    1.5570    0.5730 H   0  0  0  0  0  0  0  0  0  0  0  0
   -4.4870    1.5600    1.5110 H   0  0  0  0  0  0  0  0  0  0  0  0
   -2.9210   -0.2550    1.3040 H   0  0  0  0  0  0  0  0  0  0  0  0
   -3.6800   -3.4350   -0.3230 H   0  0  0  0  0  0  0  0  0  0  0  0
   -2.5750   -2.5970    0.7750 H   0  0  0  0  0  0  0  0  0  0  0  0
   -1.3640   -3.1780   -1.2260 H   0  0  0  0  0  0  0  0  0  0  0  0
   -1.7590   -0.1960   -1.1830 H   0  0  0  0  0  0  0  0  0  0  0  0
   -5.5500   -2.2340   -1.4820 H   0  0  0  0  0  0  0  0  0  0  0  0
   -7.1130   -0.3340   -1.2220 H   0  0  0  0  0  0  0  0  0  0  0  0
  1 13  1  0  0  0  0
  2 12  1  0  0  0  0
  2  1  1  0  0  0  0
  3  2  2  0  0  0  0
  4  5  2  0  0  0  0
  4  3  1  0  0  0  0
  5 11  1  0  0  0  0
  6 17  1  0  0  0  0
  6  5  1  0  0  0  0
  7 18  1  6  0  0  0
  7  6  1  0  0  0  0
  7  8  1  0  0  0  0
  8 19  1  0  0  0  0
  8 20  1  0  0  0  0
  9  7  1  0  0  0  0
  9 10  2  0  0  0  0
 11 21  1  0  0  0  0
 11 12  2  0  0  0  0
 12 22  1  0  0  0  0
 14  3  1  0  0  0  0
 15  4  1  0  0  0  0
 16  6  1  0  0  0  0
 23 24  1  0  0  0  0
 24 25  2  0  0  0  0
 26 24  1  0  0  0  0
 26 27  1  0  0  0  0
 27 28  1  0  0  0  0
 27 35  1  1  0  0  0
 28  9  1  0  0  0  0
 29 30  2  0  0  0  0
 29 27  1  0  0  0  0
 31 23  1  0  0  0  0
 32 23  1  0  0  0  0
 33 26  1  0  0  0  0
 34 26  1  0  0  0  0
 36 28  1  0  0  0  0
 37 50  1  0  0  0  0
 38 37  1  0  0  0  0
 38 39  1  0  0  0  0
 39 51  1  0  0  0  0
 40 39  2  0  0  0  0
 40 52  1  0  0  0  0
 41 40  1  0  0  0  0
 42 41  1  0  0  0  0
 42 54  1  0  0  0  0
 43 55  1  1  0  0  0
 43 44  1  0  0  0  0
 43 42  1  0  0  0  0
 44 29  1  0  0  0  0
 45 43  1  0  0  0  0
 46 45  2  0  0  0  0
 47 48  1  0  0  0  0
 47 41  2  0  0  0  0
 48 38  2  0  0  0  0
 49 45  1  0  0  0  0
 53 42  1  0  0  0  0
 56 44  1  0  0  0  0
 57 47  1  0  0  0  0
 58 48  1  0  0  0  0
M  END
$$$$
