YPA.pdb
 OpenBabel07022419223D

 47 48  0  0  1  0  0  0  0  0999 V2000
   -0.3570   -3.2810   -2.9860 O   0  0  0  0  0  0  0  0  0  0  0  0
    0.2350   -2.0570   -2.6100 C   0  0  0  0  0  0  0  0  0  0  0  0
   -0.5610   -0.9330   -2.4550 C   0  0  0  0  0  0  0  0  0  0  0  0
   -0.0180    0.2860   -2.0860 C   0  0  0  0  0  0  0  0  0  0  0  0
    1.3340    0.4320   -1.8570 C   0  0  0  0  0  0  0  0  0  0  0  0
    1.9170    1.7250   -1.4570 C   0  0  0  0  0  0  0  0  0  0  0  0
    1.9250    1.9470    0.0320 C   0  0  2  0  0  0  0  0  0  0  0  0
    2.6380    0.9860    0.7880 N   0  0  0  0  0  0  0  0  0  0  0  0
    0.6190    2.2650    0.6010 C   0  0  0  0  0  0  0  0  0  0  0  0
    0.0290    3.3080    0.0660 O   0  0  0  0  0  0  0  0  0  0  0  0
    2.1140   -0.7080   -2.0180 C   0  0  0  0  0  0  0  0  0  0  0  0
    1.5800   -1.9210   -2.3850 C   0  0  0  0  0  0  0  0  0  0  0  0
   -0.1650   -4.1030   -2.3940 H   0  0  0  0  0  0  0  0  0  0  0  0
   -1.6380   -1.0450   -2.6340 H   0  0  0  0  0  0  0  0  0  0  0  0
   -0.7070    1.1380   -1.9800 H   0  0  0  0  0  0  0  0  0  0  0  0
    1.2620    2.5190   -1.8950 H   0  0  0  0  0  0  0  0  0  0  0  0
    2.9110    1.8590   -1.8760 H   0  0  0  0  0  0  0  0  0  0  0  0
    2.5410    2.9100    0.1400 H   0  0  0  0  0  0  0  0  0  0  0  0
    3.1100    1.4320    1.6390 H   0  0  0  0  0  0  0  0  0  0  0  0
    3.4560    0.5580    0.2460 H   0  0  0  0  0  0  0  0  0  0  0  0
    3.1950   -0.5930   -1.8390 H   0  0  0  0  0  0  0  0  0  0  0  0
    2.2170   -2.7790   -2.5030 H   0  0  0  0  0  0  0  0  0  0  0  0
   -0.0800    1.6250    1.6210 N   0  0  0  0  0  0  0  0  0  0  0  0
   -1.3790    2.0780    2.1520 C   0  0  0  0  0  0  0  0  0  0  0  0
   -1.5370    1.4800    3.5110 C   0  0  0  0  0  0  0  0  0  0  0  0
   -0.2540    0.7300    3.7690 C   0  0  0  0  0  0  0  0  0  0  0  0
    0.2290    0.4410    2.3510 C   0  0  1  0  0  0  0  0  0  0  0  0
   -0.5350   -0.6910    1.7620 C   0  0  0  0  0  0  0  0  0  0  0  0
   -1.2760   -0.4450    0.7840 O   0  0  0  0  0  0  0  0  0  0  0  0
   -1.4540    3.1880    2.1630 H   0  0  0  0  0  0  0  0  0  0  0  0
   -2.1850    1.6760    1.5020 H   0  0  0  0  0  0  0  0  0  0  0  0
   -1.7370    2.2520    4.2700 H   0  0  0  0  0  0  0  0  0  0  0  0
   -2.3790    0.7460    3.5550 H   0  0  0  0  0  0  0  0  0  0  0  0
    0.4650    1.4310    4.2310 H   0  0  0  0  0  0  0  0  0  0  0  0
   -0.3470   -0.1460    4.4020 H   0  0  0  0  0  0  0  0  0  0  0  0
    1.2720    0.1770    2.4450 H   0  0  0  0  0  0  0  0  0  0  0  0
   -0.3700   -4.2120    1.3010 C   0  0  0  0  0  0  0  0  0  0  0  0
   -1.2680   -3.0370    1.5790 C   0  0  2  0  0  0  0  0  0  0  0  0
   -0.4600   -2.0200    2.2540 N   0  0  0  0  0  0  0  0  0  0  0  0
   -2.2720   -3.5150    2.5940 C   0  0  0  0  0  0  0  0  0  0  0  0
   -2.3050   -3.0320    3.7500 O   0  0  0  0  0  0  0  0  0  0  0  0
   -3.2050   -4.5140    2.2900 O   0  0  0  0  0  0  0  0  0  0  0  0
    0.0780   -4.2340    0.3070 H   0  0  0  0  0  0  0  0  0  0  0  0
    0.4510   -4.1840    2.0580 H   0  0  0  0  0  0  0  0  0  0  0  0
   -0.9220   -5.1720    1.5280 H   0  0  0  0  0  0  0  0  0  0  0  0
   -1.7680   -2.6170    0.7000 H   0  0  0  0  0  0  0  0  0  0  0  0
    0.1440   -2.2370    3.0500 H   0  0  0  0  0  0  0  0  0  0  0  0
  1  2  1  0  0  0  0
  1 13  1  0  0  0  0
  2  3  2  0  0  0  0
  2 12  1  0  0  0  0
  3  4  1  0  0  0  0
  4 15  1  0  0  0  0
  4  5  2  0  0  0  0
  5  6  1  0  0  0  0
  6  7  1  0  0  0  0
  7 18  1  1  0  0  0
  7  9  1  0  0  0  0
  7  8  1  0  0  0  0
  8 19  1  0  0  0  0
  9 23  1  0  0  0  0
 10  9  2  0  0  0  0
 11  5  1  0  0  0  0
 11 21  1  0  0  0  0
 12 11  2  0  0  0  0
 14  3  1  0  0  0  0
 16  6  1  0  0  0  0
 17  6  1  0  0  0  0
 20  8  1  0  0  0  0
 22 12  1  0  0  0  0
 23 24  1  0  0  0  0
 23 27  1  0  0  0  0
 24 30  1  0  0  0  0
 24 25  1  0  0  0  0
 25 33  1  0  0  0  0
 25 26  1  0  0  0  0
 25 32  1  0  0  0  0
 26 34  1  0  0  0  0
 26 35  1  0  0  0  0
 27 36  1  6  0  0  0
 27 26  1  0  0  0  0
 28 39  1  0  0  0  0
 28 27  1  0  0  0  0
 29 28  2  0  0  0  0
 31 24  1  0  0  0  0
 37 45  1  0  0  0  0
 37 38  1  0  0  0  0
 37 44  1  0  0  0  0
 38 46  1  6  0  0  0
 38 39  1  0  0  0  0
 38 40  1  0  0  0  0
 39 47  1  0  0  0  0
 40 41  1  0  0  0  0
 42 40  2  0  0  0  0
 43 37  1  0  0  0  0
M  END
$$$$
