YPC.pdb
 OpenBabel07022419223D

 48 49  0  0  1  0  0  0  0  0999 V2000
    5.2720   -4.0330   -1.4340 O   0  0  0  0  0  0  0  0  0  0  0  0
    4.8800   -2.9030   -0.7420 C   0  0  0  0  0  0  0  0  0  0  0  0
    4.1380   -3.0410    0.4070 C   0  0  0  0  0  0  0  0  0  0  0  0
    3.7520   -1.9150    1.0880 C   0  0  0  0  0  0  0  0  0  0  0  0
    4.0840   -0.6220    0.6620 C   0  0  0  0  0  0  0  0  0  0  0  0
    3.6720    0.5880    1.3900 C   0  0  0  0  0  0  0  0  0  0  0  0
    2.3770    1.1100    0.8430 C   0  0  2  0  0  0  0  0  0  0  0  0
    1.9580    2.3150    1.5630 N   0  0  0  0  0  0  0  0  0  0  0  0
    1.2780    0.1280    0.7980 C   0  0  0  0  0  0  0  0  0  0  0  0
    1.4970   -0.8810    0.0340 O   0  0  0  0  0  0  0  0  0  0  0  0
    4.8350   -0.5260   -0.5040 C   0  0  0  0  0  0  0  0  0  0  0  0
    5.2360   -1.6350   -1.2090 C   0  0  0  0  0  0  0  0  0  0  0  0
    5.4180   -4.9260   -0.9620 H   0  0  0  0  0  0  0  0  0  0  0  0
    3.8790   -4.0270    0.7420 H   0  0  0  0  0  0  0  0  0  0  0  0
    3.1690   -2.0190    1.9920 H   0  0  0  0  0  0  0  0  0  0  0  0
    4.4380    1.3870    1.1770 H   0  0  0  0  0  0  0  0  0  0  0  0
    3.6560    0.4470    2.4880 H   0  0  0  0  0  0  0  0  0  0  0  0
    2.5960    1.4360   -0.2020 H   0  0  0  0  0  0  0  0  0  0  0  0
    2.8300    2.7930    1.8960 H   0  0  0  0  0  0  0  0  0  0  0  0
    1.5280    2.9500    0.8570 H   0  0  0  0  0  0  0  0  0  0  0  0
    5.1170    0.4650   -0.8760 H   0  0  0  0  0  0  0  0  0  0  0  0
    5.8200   -1.6010   -2.1180 H   0  0  0  0  0  0  0  0  0  0  0  0
    0.0650    0.2410    1.5170 N   0  0  0  0  0  0  0  0  0  0  0  0
   -0.3180    1.2960    2.4060 C   0  0  0  0  0  0  0  0  0  0  0  0
   -1.5360    0.8060    3.1640 C   0  0  0  0  0  0  0  0  0  0  0  0
   -1.5380   -0.7020    2.8750 C   0  0  0  0  0  0  0  0  0  0  0  0
   -1.0060   -0.7070    1.4690 C   0  0  1  0  0  0  0  0  0  0  0  0
   -2.1160   -0.2970    0.5710 C   0  0  0  0  0  0  0  0  0  0  0  0
   -2.1020    0.7800   -0.0780 O   0  0  0  0  0  0  0  0  0  0  0  0
    0.4490    1.5080    3.1930 H   0  0  0  0  0  0  0  0  0  0  0  0
   -0.5100    2.2680    1.9050 H   0  0  0  0  0  0  0  0  0  0  0  0
   -1.4430    0.9420    4.2600 H   0  0  0  0  0  0  0  0  0  0  0  0
   -2.4610    1.2820    2.8420 H   0  0  0  0  0  0  0  0  0  0  0  0
   -2.5360   -1.1340    2.9680 H   0  0  0  0  0  0  0  0  0  0  0  0
   -0.7670   -1.1820    3.5150 H   0  0  0  0  0  0  0  0  0  0  0  0
   -0.6670   -1.7090    1.1390 H   0  0  0  0  0  0  0  0  0  0  0  0
   -3.2640   -1.1180    0.4010 N   0  0  0  0  0  0  0  0  0  0  0  0
   -4.3730   -0.7610   -0.4630 C   0  0  1  0  0  0  0  0  0  0  0  0
   -4.5770   -1.8400   -1.5260 C   0  0  0  0  0  0  0  0  0  0  0  0
   -4.9340   -3.4130   -0.7200 S   0  0  0  0  0  0  0  0  0  0  0  0
   -5.6310   -0.7020    0.3210 C   0  0  0  0  0  0  0  0  0  0  0  0
   -5.6670   -0.9380    1.5530 O   0  0  0  0  0  0  0  0  0  0  0  0
   -6.8230   -0.3780   -0.3060 O   0  0  0  0  0  0  0  0  0  0  0  0
   -3.3140   -2.0150    0.9190 H   0  0  0  0  0  0  0  0  0  0  0  0
   -4.1990    0.2150   -0.9570 H   0  0  0  0  0  0  0  0  0  0  0  0
   -5.5070   -1.5400   -2.0740 H   0  0  0  0  0  0  0  0  0  0  0  0
   -3.7130   -1.8940   -2.2090 H   0  0  0  0  0  0  0  0  0  0  0  0
   -4.6900   -4.5140   -1.5480 H   0  0  0  0  0  0  0  0  0  0  0  0
  1 13  1  0  0  0  0
  1  2  1  0  0  0  0
  2  3  1  0  0  0  0
  3 14  1  0  0  0  0
  3  4  2  0  0  0  0
  4 15  1  0  0  0  0
  5  4  1  0  0  0  0
  5  6  1  0  0  0  0
  6 17  1  0  0  0  0
  7 18  1  6  0  0  0
  7  6  1  0  0  0  0
  7  8  1  0  0  0  0
  8 19  1  0  0  0  0
  9  7  1  0  0  0  0
  9 23  1  0  0  0  0
 10  9  2  0  0  0  0
 11  5  2  0  0  0  0
 12  2  2  0  0  0  0
 12 11  1  0  0  0  0
 16  6  1  0  0  0  0
 20  8  1  0  0  0  0
 21 11  1  0  0  0  0
 22 12  1  0  0  0  0
 23 24  1  0  0  0  0
 24 25  1  0  0  0  0
 24 30  1  0  0  0  0
 25 32  1  0  0  0  0
 26 34  1  0  0  0  0
 26 25  1  0  0  0  0
 26 35  1  0  0  0  0
 27 36  1  6  0  0  0
 27 23  1  0  0  0  0
 27 26  1  0  0  0  0
 28 27  1  0  0  0  0
 29 28  2  0  0  0  0
 31 24  1  0  0  0  0
 33 25  1  0  0  0  0
 37 28  1  0  0  0  0
 37 44  1  0  0  0  0
 38 45  1  6  0  0  0
 38 41  1  0  0  0  0
 38 37  1  0  0  0  0
 39 40  1  0  0  0  0
 39 38  1  0  0  0  0
 41 42  1  0  0  0  0
 43 41  2  0  0  0  0
 46 39  1  0  0  0  0
 47 39  1  0  0  0  0
 48 40  1  0  0  0  0
M  END
$$$$
