YPF.pdb
 OpenBabel07022419223D

 57 59  0  0  1  0  0  0  0  0999 V2000
    1.5730    2.1410    7.0850 O   0  0  0  0  0  0  0  0  0  0  0  0
    1.9880    1.3440    6.0140 C   0  0  0  0  0  0  0  0  0  0  0  0
    1.1610    0.3270    5.6020 C   0  0  0  0  0  0  0  0  0  0  0  0
    1.5120   -0.4910    4.5550 C   0  0  0  0  0  0  0  0  0  0  0  0
    2.7090   -0.3310    3.8690 C   0  0  0  0  0  0  0  0  0  0  0  0
    3.1140   -1.1910    2.7630 C   0  0  0  0  0  0  0  0  0  0  0  0
    2.6440   -0.7600    1.3930 C   0  0  2  0  0  0  0  0  0  0  0  0
    3.0740    0.5190    0.9750 N   0  0  0  0  0  0  0  0  0  0  0  0
    1.2030   -0.9540    1.2940 C   0  0  0  0  0  0  0  0  0  0  0  0
    0.7470   -2.0720    1.6360 O   0  0  0  0  0  0  0  0  0  0  0  0
    3.5330    0.7120    4.3100 C   0  0  0  0  0  0  0  0  0  0  0  0
    3.1660    1.5220    5.3590 C   0  0  0  0  0  0  0  0  0  0  0  0
    1.2500    1.6170    7.9150 H   0  0  0  0  0  0  0  0  0  0  0  0
    0.2040    0.1590    6.1100 H   0  0  0  0  0  0  0  0  0  0  0  0
    0.8310   -1.3000    4.2460 H   0  0  0  0  0  0  0  0  0  0  0  0
    4.2440   -1.2200    2.7620 H   0  0  0  0  0  0  0  0  0  0  0  0
    2.8100   -2.2330    2.9820 H   0  0  0  0  0  0  0  0  0  0  0  0
    3.1360   -1.4980    0.6690 H   0  0  0  0  0  0  0  0  0  0  0  0
    3.4800    1.1460    1.6740 H   0  0  0  0  0  0  0  0  0  0  0  0
    3.5530    0.5450    0.0480 H   0  0  0  0  0  0  0  0  0  0  0  0
    4.4890    0.8500    3.7850 H   0  0  0  0  0  0  0  0  0  0  0  0
    3.8440    2.3160    5.6600 H   0  0  0  0  0  0  0  0  0  0  0  0
    0.3060    0.0360    0.8380 N   0  0  0  0  0  0  0  0  0  0  0  0
    0.7100    1.3670    0.4760 C   0  0  0  0  0  0  0  0  0  0  0  0
   -0.5540    2.1410    0.1660 C   0  0  0  0  0  0  0  0  0  0  0  0
   -1.6030    1.0930   -0.0290 C   0  0  0  0  0  0  0  0  0  0  0  0
   -1.0990   -0.1130    0.6480 C   0  0  1  0  0  0  0  0  0  0  0  0
   -1.3620   -1.3580   -0.1590 C   0  0  0  0  0  0  0  0  0  0  0  0
   -0.3970   -1.9910   -0.6320 O   0  0  0  0  0  0  0  0  0  0  0  0
    1.3750    1.4400   -0.3840 H   0  0  0  0  0  0  0  0  0  0  0  0
    1.2450    1.8700    1.3410 H   0  0  0  0  0  0  0  0  0  0  0  0
   -0.4050    2.7980   -0.7150 H   0  0  0  0  0  0  0  0  0  0  0  0
   -0.7590    2.8050    1.0280 H   0  0  0  0  0  0  0  0  0  0  0  0
   -1.6910    0.8970   -1.1270 H   0  0  0  0  0  0  0  0  0  0  0  0
   -2.5970    1.4440    0.3580 H   0  0  0  0  0  0  0  0  0  0  0  0
   -1.5930   -0.2220    1.6610 H   0  0  0  0  0  0  0  0  0  0  0  0
   -2.6690   -1.8310   -0.3960 N   0  0  0  0  0  0  0  0  0  0  0  0
   -3.0990   -2.9750   -1.1030 C   0  0  1  0  0  0  0  0  0  0  0  0
   -3.5970   -2.7640   -2.4860 C   0  0  0  0  0  0  0  0  0  0  0  0
   -2.6070   -2.1680   -3.4030 C   0  0  0  0  0  0  0  0  0  0  0  0
   -2.4890   -0.8130   -3.5550 C   0  0  0  0  0  0  0  0  0  0  0  0
   -1.5600   -0.2140   -4.4150 C   0  0  0  0  0  0  0  0  0  0  0  0
   -0.7270   -1.0720   -5.1380 C   0  0  0  0  0  0  0  0  0  0  0  0
   -0.8230   -2.4350   -5.0050 C   0  0  0  0  0  0  0  0  0  0  0  0
   -1.7560   -2.9780   -4.1430 C   0  0  0  0  0  0  0  0  0  0  0  0
   -2.2390   -4.1980   -0.9750 C   0  0  0  0  0  0  0  0  0  0  0  0
   -2.4350   -5.2210   -1.6700 O   0  0  0  0  0  0  0  0  0  0  0  0
   -1.2040   -4.2280   -0.0770 O   0  0  0  0  0  0  0  0  0  0  0  0
   -3.4280   -1.2000    0.0340 H   0  0  0  0  0  0  0  0  0  0  0  0
   -4.0180   -3.3490   -0.4870 H   0  0  0  0  0  0  0  0  0  0  0  0
   -3.8870   -3.7790   -2.8820 H   0  0  0  0  0  0  0  0  0  0  0  0
   -4.5740   -2.2020   -2.4990 H   0  0  0  0  0  0  0  0  0  0  0  0
   -3.1200   -0.1220   -3.0100 H   0  0  0  0  0  0  0  0  0  0  0  0
   -1.4680    0.8550   -4.5310 H   0  0  0  0  0  0  0  0  0  0  0  0
    0.0160   -0.6550   -5.8220 H   0  0  0  0  0  0  0  0  0  0  0  0
   -0.1630   -3.0540   -5.5820 H   0  0  0  0  0  0  0  0  0  0  0  0
   -1.7810   -4.0580   -4.0840 H   0  0  0  0  0  0  0  0  0  0  0  0
  1 13  1  0  0  0  0
  2  1  1  0  0  0  0
  3  2  1  0  0  0  0
  3 14  1  0  0  0  0
  4  3  2  0  0  0  0
  5 11  2  0  0  0  0
  5  4  1  0  0  0  0
  6 17  1  0  0  0  0
  6  5  1  0  0  0  0
  7 18  1  6  0  0  0
  7  6  1  0  0  0  0
  8  7  1  0  0  0  0
  8 19  1  0  0  0  0
  9  7  1  0  0  0  0
  9 10  2  0  0  0  0
 11 12  1  0  0  0  0
 12 22  1  0  0  0  0
 12  2  2  0  0  0  0
 15  4  1  0  0  0  0
 16  6  1  0  0  0  0
 20  8  1  0  0  0  0
 21 11  1  0  0  0  0
 23  9  1  0  0  0  0
 24 23  1  0  0  0  0
 24 31  1  0  0  0  0
 25 24  1  0  0  0  0
 25 33  1  0  0  0  0
 26 25  1  0  0  0  0
 26 35  1  0  0  0  0
 26 27  1  0  0  0  0
 27 23  1  0  0  0  0
 27 36  1  1  0  0  0
 28 27  1  0  0  0  0
 29 28  2  0  0  0  0
 30 24  1  0  0  0  0
 32 25  1  0  0  0  0
 34 26  1  0  0  0  0
 37 28  1  0  0  0  0
 37 49  1  0  0  0  0
 38 46  1  0  0  0  0
 38 50  1  1  0  0  0
 38 37  1  0  0  0  0
 39 38  1  0  0  0  0
 40 39  1  0  0  0  0
 41 40  1  0  0  0  0
 41 53  1  0  0  0  0
 42 41  2  0  0  0  0
 43 44  2  0  0  0  0
 43 42  1  0  0  0  0
 44 45  1  0  0  0  0
 45 57  1  0  0  0  0
 45 40  2  0  0  0  0
 46 48  1  0  0  0  0
 47 46  2  0  0  0  0
 51 39  1  0  0  0  0
 52 39  1  0  0  0  0
 54 42  1  0  0  0  0
 55 43  1  0  0  0  0
 56 44  1  0  0  0  0
M  END
$$$$
