YPG.pdb
 OpenBabel07022419223D

 44 45  0  0  1  0  0  0  0  0999 V2000
   -2.0140   -3.0110    4.2110 O   0  0  0  0  0  0  0  0  0  0  0  0
   -1.3710   -2.9490    2.9730 C   0  0  0  0  0  0  0  0  0  0  0  0
   -0.0300   -3.2700    2.9030 C   0  0  0  0  0  0  0  0  0  0  0  0
    0.6000   -3.2060    1.6790 C   0  0  0  0  0  0  0  0  0  0  0  0
   -0.1290   -2.8210    0.5430 C   0  0  0  0  0  0  0  0  0  0  0  0
    0.5160   -2.7420   -0.7820 C   0  0  0  0  0  0  0  0  0  0  0  0
    1.0910   -1.4130   -1.1510 C   0  0  2  0  0  0  0  0  0  0  0  0
    1.6660   -1.6440   -2.5080 N   0  0  0  0  0  0  0  0  0  0  0  0
    2.0930   -0.8460   -0.2600 C   0  0  0  0  0  0  0  0  0  0  0  0
    3.2870   -1.0790   -0.6100 O   0  0  0  0  0  0  0  0  0  0  0  0
   -1.4600   -2.5080    0.6480 C   0  0  0  0  0  0  0  0  0  0  0  0
   -2.0980   -2.5680    1.8670 C   0  0  0  0  0  0  0  0  0  0  0  0
   -3.0210   -3.0910    4.2720 H   0  0  0  0  0  0  0  0  0  0  0  0
    0.5370   -3.5720    3.7940 H   0  0  0  0  0  0  0  0  0  0  0  0
    1.6570   -3.4460    1.5460 H   0  0  0  0  0  0  0  0  0  0  0  0
   -0.2610   -2.9900   -1.5390 H   0  0  0  0  0  0  0  0  0  0  0  0
    1.2450   -3.5730   -0.8300 H   0  0  0  0  0  0  0  0  0  0  0  0
    0.2750   -0.6950   -1.3130 H   0  0  0  0  0  0  0  0  0  0  0  0
    1.5680   -0.7700   -3.0730 H   0  0  0  0  0  0  0  0  0  0  0  0
    2.6740   -1.9090   -2.4090 H   0  0  0  0  0  0  0  0  0  0  0  0
   -2.0060   -2.2120   -0.2390 H   0  0  0  0  0  0  0  0  0  0  0  0
   -3.1560   -2.3140    1.9200 H   0  0  0  0  0  0  0  0  0  0  0  0
    1.9030   -0.0820    0.9200 N   0  0  0  0  0  0  0  0  0  0  0  0
    3.1010    0.3450    1.6850 C   0  0  0  0  0  0  0  0  0  0  0  0
    2.5880    0.4590    3.1060 C   0  0  0  0  0  0  0  0  0  0  0  0
    1.2870    1.1640    2.8240 C   0  0  0  0  0  0  0  0  0  0  0  0
    0.8010    0.4310    1.6000 C   0  0  1  0  0  0  0  0  0  0  0  0
   -0.0990    1.3550    0.9070 C   0  0  0  0  0  0  0  0  0  0  0  0
   -1.1150    1.7070    1.5810 O   0  0  0  0  0  0  0  0  0  0  0  0
    3.4200    1.3450    1.3420 H   0  0  0  0  0  0  0  0  0  0  0  0
    3.9180   -0.3570    1.6190 H   0  0  0  0  0  0  0  0  0  0  0  0
    2.3400   -0.5400    3.5190 H   0  0  0  0  0  0  0  0  0  0  0  0
    3.2720    1.0300    3.7320 H   0  0  0  0  0  0  0  0  0  0  0  0
    1.4870    2.2310    2.5570 H   0  0  0  0  0  0  0  0  0  0  0  0
    0.5760    1.0920    3.6720 H   0  0  0  0  0  0  0  0  0  0  0  0
    0.1580   -0.3880    1.9890 H   0  0  0  0  0  0  0  0  0  0  0  0
    0.0170    1.8890   -0.3770 N   0  0  0  0  0  0  0  0  0  0  0  0
   -0.9800    2.7990   -0.9030 C   0  0  0  0  0  0  0  0  0  0  0  0
   -2.3260    2.1660   -0.9500 C   0  0  0  0  0  0  0  0  0  0  0  0
   -2.4820    0.9730   -0.5580 O   0  0  0  0  0  0  0  0  0  0  0  0
   -3.4460    2.8290   -1.4130 O   0  0  0  0  0  0  0  0  0  0  0  0
    0.8500    1.6020   -0.9310 H   0  0  0  0  0  0  0  0  0  0  0  0
   -1.0570    3.6710   -0.2260 H   0  0  0  0  0  0  0  0  0  0  0  0
   -0.7460    3.1430   -1.9190 H   0  0  0  0  0  0  0  0  0  0  0  0
  1 13  1  0  0  0  0
  2  1  1  0  0  0  0
  3  2  1  0  0  0  0
  3 14  1  0  0  0  0
  4  3  2  0  0  0  0
  5 11  2  0  0  0  0
  5  4  1  0  0  0  0
  6  5  1  0  0  0  0
  7 18  1  6  0  0  0
  7  6  1  0  0  0  0
  7  9  1  0  0  0  0
  8 20  1  0  0  0  0
  8  7  1  0  0  0  0
  9 23  1  0  0  0  0
 10  9  2  0  0  0  0
 11 12  1  0  0  0  0
 12 22  1  0  0  0  0
 12  2  2  0  0  0  0
 15  4  1  0  0  0  0
 16  6  1  0  0  0  0
 17  6  1  0  0  0  0
 19  8  1  0  0  0  0
 21 11  1  0  0  0  0
 23 27  1  0  0  0  0
 23 24  1  0  0  0  0
 24 25  1  0  0  0  0
 25 32  1  0  0  0  0
 25 33  1  0  0  0  0
 26 25  1  0  0  0  0
 26 35  1  0  0  0  0
 27 36  1  1  0  0  0
 27 26  1  0  0  0  0
 28 29  2  0  0  0  0
 28 27  1  0  0  0  0
 30 24  1  0  0  0  0
 31 24  1  0  0  0  0
 34 26  1  0  0  0  0
 37 28  1  0  0  0  0
 38 37  1  0  0  0  0
 38 43  1  0  0  0  0
 39 38  1  0  0  0  0
 39 40  1  0  0  0  0
 41 39  2  0  0  0  0
 42 37  1  0  0  0  0
 44 38  1  0  0  0  0
M  END
$$$$
