YPH.pdb
 OpenBabel07022419223D

 54 56  0  0  1  0  0  0  0  0999 V2000
    1.2060    1.4770    7.5850 O   0  0  0  0  0  0  0  0  0  0  0  0
    1.7050    0.9960    6.3790 C   0  0  0  0  0  0  0  0  0  0  0  0
    1.0840   -0.0490    5.7660 C   0  0  0  0  0  0  0  0  0  0  0  0
    1.5770   -0.5410    4.5540 C   0  0  0  0  0  0  0  0  0  0  0  0
    2.6880    0.0110    3.9560 C   0  0  0  0  0  0  0  0  0  0  0  0
    3.1790   -0.5300    2.7070 C   0  0  0  0  0  0  0  0  0  0  0  0
    2.5870    0.0090    1.4440 C   0  0  2  0  0  0  0  0  0  0  0  0
    2.7980    1.4280    1.3150 N   0  0  0  0  0  0  0  0  0  0  0  0
    1.2120   -0.4380    1.1910 C   0  0  0  0  0  0  0  0  0  0  0  0
    0.9560   -1.6660    1.2710 O   0  0  0  0  0  0  0  0  0  0  0  0
    3.3010    1.0640    4.5900 C   0  0  0  0  0  0  0  0  0  0  0  0
    2.8110    1.5620    5.8050 C   0  0  0  0  0  0  0  0  0  0  0  0
    0.9730    0.8520    8.3680 H   0  0  0  0  0  0  0  0  0  0  0  0
    0.2070   -0.4930    6.2280 H   0  0  0  0  0  0  0  0  0  0  0  0
    1.0280   -1.3710    4.1330 H   0  0  0  0  0  0  0  0  0  0  0  0
    4.2870   -0.3100    2.6540 H   0  0  0  0  0  0  0  0  0  0  0  0
    3.1350   -1.6530    2.6970 H   0  0  0  0  0  0  0  0  0  0  0  0
    3.2330   -0.4450    0.6210 H   0  0  0  0  0  0  0  0  0  0  0  0
    3.6170    1.6870    0.7220 H   0  0  0  0  0  0  0  0  0  0  0  0
    2.9330    1.8830    2.2390 H   0  0  0  0  0  0  0  0  0  0  0  0
    4.1770    1.5670    4.2190 H   0  0  0  0  0  0  0  0  0  0  0  0
    3.2780    2.3890    6.3180 H   0  0  0  0  0  0  0  0  0  0  0  0
    0.1260    0.4120    0.8560 N   0  0  0  0  0  0  0  0  0  0  0  0
    0.2550    1.8250    0.7510 C   0  0  0  0  0  0  0  0  0  0  0  0
   -1.1390    2.3600    0.5630 C   0  0  0  0  0  0  0  0  0  0  0  0
   -1.9430    1.1940    0.0940 C   0  0  0  0  0  0  0  0  0  0  0  0
   -1.1990   -0.0190    0.5810 C   0  0  1  0  0  0  0  0  0  0  0  0
   -1.2440   -1.0440   -0.5200 C   0  0  0  0  0  0  0  0  0  0  0  0
   -0.1600   -1.3370   -1.0610 O   0  0  0  0  0  0  0  0  0  0  0  0
    0.9210    2.1470   -0.0830 H   0  0  0  0  0  0  0  0  0  0  0  0
    0.6490    2.2800    1.7040 H   0  0  0  0  0  0  0  0  0  0  0  0
   -1.5340    2.7900    1.5200 H   0  0  0  0  0  0  0  0  0  0  0  0
   -1.1480    3.1990   -0.1760 H   0  0  0  0  0  0  0  0  0  0  0  0
   -1.9720    1.1990   -1.0270 H   0  0  0  0  0  0  0  0  0  0  0  0
   -2.9670    1.1920    0.5120 H   0  0  0  0  0  0  0  0  0  0  0  0
   -1.7270   -0.4250    1.4780 H   0  0  0  0  0  0  0  0  0  0  0  0
   -2.4910   -1.5780   -0.8420 N   0  0  0  0  0  0  0  0  0  0  0  0
   -2.5740   -2.5970   -1.9160 C   0  0  1  0  0  0  0  0  0  0  0  0
   -2.2420   -1.9310   -3.1850 C   0  0  0  0  0  0  0  0  0  0  0  0
   -2.3590   -2.7430   -4.4020 C   0  0  0  0  0  0  0  0  0  0  0  0
   -2.8530   -3.9930   -4.6190 C   0  0  0  0  0  0  0  0  0  0  0  0
   -2.7710   -4.2130   -5.9630 N   0  0  0  0  0  0  0  0  0  0  0  0
   -2.2430   -3.1200   -6.5320 C   0  0  0  0  0  0  0  0  0  0  0  0
   -1.9830   -2.2100   -5.6120 N   0  0  0  0  0  0  0  0  0  0  0  0
   -1.5610   -3.6620   -1.5380 C   0  0  0  0  0  0  0  0  0  0  0  0
   -1.2790   -4.5500   -2.3340 O   0  0  0  0  0  0  0  0  0  0  0  0
   -0.9770   -3.6090   -0.2940 O   0  0  0  0  0  0  0  0  0  0  0  0
   -3.3460   -1.2750   -0.3460 H   0  0  0  0  0  0  0  0  0  0  0  0
   -3.5370   -3.0920   -1.8350 H   0  0  0  0  0  0  0  0  0  0  0  0
   -2.8930   -1.0130   -3.3420 H   0  0  0  0  0  0  0  0  0  0  0  0
   -1.1890   -1.5250   -3.1030 H   0  0  0  0  0  0  0  0  0  0  0  0
   -3.2530   -4.6760   -3.9250 H   0  0  0  0  0  0  0  0  0  0  0  0
   -3.0760   -5.0870   -6.4180 H   0  0  0  0  0  0  0  0  0  0  0  0
   -2.0460   -2.9770   -7.6020 H   0  0  0  0  0  0  0  0  0  0  0  0
  1 13  1  0  0  0  0
  2  1  1  0  0  0  0
  3 14  1  0  0  0  0
  3  2  2  0  0  0  0
  4  3  1  0  0  0  0
  5  4  2  0  0  0  0
  5 11  1  0  0  0  0
  6  5  1  0  0  0  0
  7 18  1  6  0  0  0
  7  6  1  0  0  0  0
  8  7  1  0  0  0  0
  8 20  1  0  0  0  0
  9 10  2  0  0  0  0
  9  7  1  0  0  0  0
 11 12  2  0  0  0  0
 12 22  1  0  0  0  0
 12  2  1  0  0  0  0
 15  4  1  0  0  0  0
 16  6  1  0  0  0  0
 17  6  1  0  0  0  0
 19  8  1  0  0  0  0
 21 11  1  0  0  0  0
 23  9  1  0  0  0  0
 24 23  1  0  0  0  0
 24 31  1  0  0  0  0
 25 24  1  0  0  0  0
 25 32  1  0  0  0  0
 26 35  1  0  0  0  0
 26 25  1  0  0  0  0
 26 27  1  0  0  0  0
 27 23  1  0  0  0  0
 27 36  1  1  0  0  0
 28 27  1  0  0  0  0
 29 28  2  0  0  0  0
 30 24  1  0  0  0  0
 33 25  1  0  0  0  0
 34 26  1  0  0  0  0
 37 28  1  0  0  0  0
 37 48  1  0  0  0  0
 38 49  1  6  0  0  0
 38 45  1  0  0  0  0
 38 37  1  0  0  0  0
 39 51  1  0  0  0  0
 39 38  1  0  0  0  0
 40 39  1  0  0  0  0
 41 40  2  0  0  0  0
 41 52  1  0  0  0  0
 42 41  1  0  0  0  0
 43 42  1  0  0  0  0
 43 44  2  0  0  0  0
 44 40  1  0  0  0  0
 45 47  1  0  0  0  0
 46 45  2  0  0  0  0
 50 39  1  0  0  0  0
 53 42  1  0  0  0  0
 54 43  1  0  0  0  0
M  END
$$$$
