YPI.pdb
 OpenBabel07022419223D

 56 57  0  0  1  0  0  0  0  0999 V2000
    4.7560   -0.6460    6.4180 O   0  0  0  0  0  0  0  0  0  0  0  0
    4.1380   -0.7890    5.1730 C   0  0  0  0  0  0  0  0  0  0  0  0
    4.8420   -1.2100    4.0650 C   0  0  0  0  0  0  0  0  0  0  0  0
    4.2210   -1.3480    2.8410 C   0  0  0  0  0  0  0  0  0  0  0  0
    2.8800   -1.0770    2.6530 C   0  0  0  0  0  0  0  0  0  0  0  0
    2.2950   -1.2460    1.3290 C   0  0  0  0  0  0  0  0  0  0  0  0
    2.3450   -0.0530    0.4380 C   0  0  2  0  0  0  0  0  0  0  0  0
    3.7300    0.3640    0.1850 N   0  0  0  0  0  0  0  0  0  0  0  0
    1.5690    1.0930    0.9810 C   0  0  0  0  0  0  0  0  0  0  0  0
    2.2240    2.1550    1.3380 O   0  0  0  0  0  0  0  0  0  0  0  0
    2.1860   -0.6560    3.7700 C   0  0  0  0  0  0  0  0  0  0  0  0
    2.7940   -0.5140    4.9980 C   0  0  0  0  0  0  0  0  0  0  0  0
    4.3990   -1.2620    7.1500 H   0  0  0  0  0  0  0  0  0  0  0  0
    5.9020   -1.4210    4.2180 H   0  0  0  0  0  0  0  0  0  0  0  0
    4.8040   -1.6860    1.9680 H   0  0  0  0  0  0  0  0  0  0  0  0
    2.8730   -2.0990    0.8450 H   0  0  0  0  0  0  0  0  0  0  0  0
    1.2740   -1.6280    1.3970 H   0  0  0  0  0  0  0  0  0  0  0  0
    1.9300   -0.3180   -0.5370 H   0  0  0  0  0  0  0  0  0  0  0  0
    3.6460    1.3210   -0.2460 H   0  0  0  0  0  0  0  0  0  0  0  0
    4.1950   -0.2420   -0.5210 H   0  0  0  0  0  0  0  0  0  0  0  0
    1.1540   -0.4360    3.6770 H   0  0  0  0  0  0  0  0  0  0  0  0
    2.2470   -0.1810    5.8850 H   0  0  0  0  0  0  0  0  0  0  0  0
    0.1680    1.1590    1.1530 N   0  0  0  0  0  0  0  0  0  0  0  0
   -0.4410    2.3860    1.7290 C   0  0  0  0  0  0  0  0  0  0  0  0
   -1.6750    1.8650    2.4340 C   0  0  0  0  0  0  0  0  0  0  0  0
   -2.1970    0.8950    1.4150 C   0  0  0  0  0  0  0  0  0  0  0  0
   -0.9070    0.2620    0.8780 C   0  0  1  0  0  0  0  0  0  0  0  0
   -1.1160   -0.0210   -0.5670 C   0  0  0  0  0  0  0  0  0  0  0  0
   -0.4610    0.5360   -1.4600 O   0  0  0  0  0  0  0  0  0  0  0  0
    0.2520    2.8960    2.4140 H   0  0  0  0  0  0  0  0  0  0  0  0
   -0.7290    3.0630    0.9000 H   0  0  0  0  0  0  0  0  0  0  0  0
   -1.4070    1.3560    3.3660 H   0  0  0  0  0  0  0  0  0  0  0  0
   -2.3830    2.6730    2.6600 H   0  0  0  0  0  0  0  0  0  0  0  0
   -2.8440    0.1680    1.9120 H   0  0  0  0  0  0  0  0  0  0  0  0
   -2.7080    1.4340    0.5900 H   0  0  0  0  0  0  0  0  0  0  0  0
   -0.8000   -0.6660    1.4660 H   0  0  0  0  0  0  0  0  0  0  0  0
   -1.6880   -2.7120   -4.8850 C   0  0  0  0  0  0  0  0  0  0  0  0
   -2.5690   -3.3100   -3.8420 C   0  0  0  0  0  0  0  0  0  0  0  0
   -2.3120   -2.7930   -2.4470 C   0  0  2  0  0  0  0  0  0  0  0  0
   -3.2710   -3.4800   -1.5110 C   0  0  0  0  0  0  0  0  0  0  0  0
   -2.3810   -1.3100   -2.3180 C   0  0  2  0  0  0  0  0  0  0  0  0
   -2.1100   -0.9700   -0.9140 N   0  0  0  0  0  0  0  0  0  0  0  0
   -3.7610   -0.8580   -2.6140 C   0  0  0  0  0  0  0  0  0  0  0  0
   -4.2720   -1.0220   -3.7640 O   0  0  0  0  0  0  0  0  0  0  0  0
   -4.5520   -0.2370   -1.6490 O   0  0  0  0  0  0  0  0  0  0  0  0
   -0.7320   -2.3360   -4.4560 H   0  0  0  0  0  0  0  0  0  0  0  0
   -2.2610   -1.9060   -5.4080 H   0  0  0  0  0  0  0  0  0  0  0  0
   -1.4060   -3.5020   -5.6110 H   0  0  0  0  0  0  0  0  0  0  0  0
   -3.6330   -3.2330   -4.1460 H   0  0  0  0  0  0  0  0  0  0  0  0
   -2.3730   -4.4240   -3.8260 H   0  0  0  0  0  0  0  0  0  0  0  0
   -1.2800   -3.1040   -2.1820 H   0  0  0  0  0  0  0  0  0  0  0  0
   -2.9530   -3.4350   -0.4480 H   0  0  0  0  0  0  0  0  0  0  0  0
   -4.2860   -3.0680   -1.5740 H   0  0  0  0  0  0  0  0  0  0  0  0
   -3.3190   -4.5580   -1.7700 H   0  0  0  0  0  0  0  0  0  0  0  0
   -1.7110   -0.7600   -2.9730 H   0  0  0  0  0  0  0  0  0  0  0  0
   -2.6620   -1.4390   -0.1560 H   0  0  0  0  0  0  0  0  0  0  0  0
  1 13  1  0  0  0  0
  2  1  1  0  0  0  0
  3 14  1  0  0  0  0
  3  2  2  0  0  0  0
  4  3  1  0  0  0  0
  5  4  2  0  0  0  0
  5 11  1  0  0  0  0
  6 17  1  0  0  0  0
  6  5  1  0  0  0  0
  7 18  1  6  0  0  0
  7  9  1  0  0  0  0
  7  6  1  0  0  0  0
  8  7  1  0  0  0  0
  9 23  1  0  0  0  0
  9 10  2  0  0  0  0
 11 12  2  0  0  0  0
 12  2  1  0  0  0  0
 12 22  1  0  0  0  0
 15  4  1  0  0  0  0
 16  6  1  0  0  0  0
 19  8  1  0  0  0  0
 20  8  1  0  0  0  0
 21 11  1  0  0  0  0
 23 24  1  0  0  0  0
 24 30  1  0  0  0  0
 24 25  1  0  0  0  0
 25 33  1  0  0  0  0
 25 32  1  0  0  0  0
 26 34  1  0  0  0  0
 26 25  1  0  0  0  0
 27 23  1  0  0  0  0
 27 26  1  0  0  0  0
 27 36  1  1  0  0  0
 28 27  1  0  0  0  0
 29 28  2  0  0  0  0
 31 24  1  0  0  0  0
 35 26  1  0  0  0  0
 37 46  1  0  0  0  0
 37 38  1  0  0  0  0
 38 50  1  0  0  0  0
 38 39  1  0  0  0  0
 39 41  1  0  0  0  0
 39 51  1  1  0  0  0
 39 40  1  0  0  0  0
 40 52  1  0  0  0  0
 41 55  1  6  0  0  0
 41 42  1  0  0  0  0
 42 28  1  0  0  0  0
 42 56  1  0  0  0  0
 43 41  1  0  0  0  0
 43 45  1  0  0  0  0
 44 43  2  0  0  0  0
 47 37  1  0  0  0  0
 48 37  1  0  0  0  0
 49 38  1  0  0  0  0
 53 40  1  0  0  0  0
 54 40  1  0  0  0  0
M  END
$$$$
