YPM.pdb
 OpenBabel07022419223D

 54 55  0  0  1  0  0  0  0  0999 V2000
    5.9680    0.4540    5.2710 O   0  0  0  0  0  0  0  0  0  0  0  0
    5.1830    0.5680    4.1090 C   0  0  0  0  0  0  0  0  0  0  0  0
    4.4050   -0.4960    3.7030 C   0  0  0  0  0  0  0  0  0  0  0  0
    3.6410   -0.3730    2.5640 C   0  0  0  0  0  0  0  0  0  0  0  0
    3.6190    0.7770    1.8040 C   0  0  0  0  0  0  0  0  0  0  0  0
    2.7680    0.8140    0.5980 C   0  0  0  0  0  0  0  0  0  0  0  0
    1.3700    1.3140    0.9020 C   0  0  2  0  0  0  0  0  0  0  0  0
    1.5630    2.6600    1.4370 N   0  0  0  0  0  0  0  0  0  0  0  0
    0.6690    0.4840    1.8810 C   0  0  0  0  0  0  0  0  0  0  0  0
    0.5550    0.9430    3.0720 O   0  0  0  0  0  0  0  0  0  0  0  0
    4.3980    1.8390    2.2130 C   0  0  0  0  0  0  0  0  0  0  0  0
    5.1650    1.7240    3.3520 C   0  0  0  0  0  0  0  0  0  0  0  0
    5.5270    0.2770    6.1640 H   0  0  0  0  0  0  0  0  0  0  0  0
    4.4140   -1.4190    4.3000 H   0  0  0  0  0  0  0  0  0  0  0  0
    3.0420   -1.2510    2.2890 H   0  0  0  0  0  0  0  0  0  0  0  0
    2.7170   -0.2110    0.2000 H   0  0  0  0  0  0  0  0  0  0  0  0
    3.2730    1.4740   -0.1360 H   0  0  0  0  0  0  0  0  0  0  0  0
    0.7750    1.3970   -0.0200 H   0  0  0  0  0  0  0  0  0  0  0  0
    0.6500    3.1300    1.6440 H   0  0  0  0  0  0  0  0  0  0  0  0
    2.0630    3.2700    0.7550 H   0  0  0  0  0  0  0  0  0  0  0  0
    4.3920    2.7670    1.6180 H   0  0  0  0  0  0  0  0  0  0  0  0
    5.7710    2.5700    3.6570 H   0  0  0  0  0  0  0  0  0  0  0  0
    0.0930   -0.7900    1.6450 N   0  0  0  0  0  0  0  0  0  0  0  0
   -0.5780   -1.5990    2.6670 C   0  0  0  0  0  0  0  0  0  0  0  0
   -0.0270   -2.9640    2.3830 C   0  0  0  0  0  0  0  0  0  0  0  0
    0.4070   -2.9530    0.9340 C   0  0  0  0  0  0  0  0  0  0  0  0
   -0.0070   -1.5850    0.4410 C   0  0  1  0  0  0  0  0  0  0  0  0
   -1.4080   -1.5220   -0.0310 C   0  0  0  0  0  0  0  0  0  0  0  0
   -2.2470   -0.7880    0.5430 O   0  0  0  0  0  0  0  0  0  0  0  0
   -1.6610   -1.5890    2.6060 H   0  0  0  0  0  0  0  0  0  0  0  0
   -0.3170   -1.2360    3.6860 H   0  0  0  0  0  0  0  0  0  0  0  0
    0.8330   -3.2230    3.0210 H   0  0  0  0  0  0  0  0  0  0  0  0
   -0.8100   -3.7450    2.5660 H   0  0  0  0  0  0  0  0  0  0  0  0
   -0.0770   -3.7760    0.3690 H   0  0  0  0  0  0  0  0  0  0  0  0
    1.5170   -2.9950    0.8370 H   0  0  0  0  0  0  0  0  0  0  0  0
    0.7000   -1.2490   -0.3560 H   0  0  0  0  0  0  0  0  0  0  0  0
   -5.2740    1.0470   -3.0210 C   0  0  0  0  0  0  0  0  0  0  0  0
   -3.5450    0.8290   -2.5160 S   0  0  0  0  0  0  0  0  0  0  0  0
   -2.7720   -0.5320   -3.4090 C   0  0  0  0  0  0  0  0  0  0  0  0
   -3.3940   -1.8590   -3.0400 C   0  0  0  0  0  0  0  0  0  0  0  0
   -3.2720   -2.1890   -1.5790 C   0  0  2  0  0  0  0  0  0  0  0  0
   -1.8970   -2.2670   -1.1370 N   0  0  0  0  0  0  0  0  0  0  0  0
   -3.8810   -3.5280   -1.3800 C   0  0  0  0  0  0  0  0  0  0  0  0
   -3.2130   -4.4770   -0.9030 O   0  0  0  0  0  0  0  0  0  0  0  0
   -5.2050   -3.7900   -1.7100 O   0  0  0  0  0  0  0  0  0  0  0  0
   -5.8460    1.4120   -2.1350 H   0  0  0  0  0  0  0  0  0  0  0  0
   -5.7390    0.0920   -3.3500 H   0  0  0  0  0  0  0  0  0  0  0  0
   -5.2860    1.7580   -3.8630 H   0  0  0  0  0  0  0  0  0  0  0  0
   -1.6850   -0.5090   -3.3120 H   0  0  0  0  0  0  0  0  0  0  0  0
   -3.0140   -0.3780   -4.4980 H   0  0  0  0  0  0  0  0  0  0  0  0
   -4.4820   -1.7740   -3.2630 H   0  0  0  0  0  0  0  0  0  0  0  0
   -3.0100   -2.6740   -3.6840 H   0  0  0  0  0  0  0  0  0  0  0  0
   -3.8670   -1.4790   -0.9680 H   0  0  0  0  0  0  0  0  0  0  0  0
   -1.2310   -2.8860   -1.6390 H   0  0  0  0  0  0  0  0  0  0  0  0
  1 13  1  0  0  0  0
  2  1  1  0  0  0  0
  3  2  1  0  0  0  0
  3 14  1  0  0  0  0
  4  3  2  0  0  0  0
  5 11  2  0  0  0  0
  5  4  1  0  0  0  0
  6  7  1  0  0  0  0
  6  5  1  0  0  0  0
  7 18  1  6  0  0  0
  7  8  1  0  0  0  0
  7  9  1  0  0  0  0
  8 19  1  0  0  0  0
  9 10  2  0  0  0  0
 11 12  1  0  0  0  0
 12 22  1  0  0  0  0
 12  2  2  0  0  0  0
 15  4  1  0  0  0  0
 16  6  1  0  0  0  0
 17  6  1  0  0  0  0
 20  8  1  0  0  0  0
 21 11  1  0  0  0  0
 23  9  1  0  0  0  0
 23 24  1  0  0  0  0
 24 31  1  0  0  0  0
 25 33  1  0  0  0  0
 25 24  1  0  0  0  0
 25 32  1  0  0  0  0
 26 25  1  0  0  0  0
 27 36  1  6  0  0  0
 27 26  1  0  0  0  0
 27 23  1  0  0  0  0
 28 27  1  0  0  0  0
 28 29  2  0  0  0  0
 30 24  1  0  0  0  0
 34 26  1  0  0  0  0
 35 26  1  0  0  0  0
 37 38  1  0  0  0  0
 37 46  1  0  0  0  0
 39 49  1  0  0  0  0
 39 40  1  0  0  0  0
 39 38  1  0  0  0  0
 40 41  1  0  0  0  0
 41 43  1  0  0  0  0
 41 42  1  0  0  0  0
 41 53  1  1  0  0  0
 42 28  1  0  0  0  0
 43 44  1  0  0  0  0
 45 43  2  0  0  0  0
 47 37  1  0  0  0  0
 48 37  1  0  0  0  0
 50 39  1  0  0  0  0
 51 40  1  0  0  0  0
 52 40  1  0  0  0  0
 54 42  1  0  0  0  0
M  END
$$$$
