YPN.pdb
 OpenBabel07022419223D

 51 52  0  0  1  0  0  0  0  0999 V2000
   -0.2900    0.1660    5.4110 O   0  0  0  0  0  0  0  0  0  0  0  0
    0.6300   -0.1370    4.4180 C   0  0  0  0  0  0  0  0  0  0  0  0
    0.7400   -1.4140    3.8880 C   0  0  0  0  0  0  0  0  0  0  0  0
    1.6540   -1.7060    2.9030 C   0  0  0  0  0  0  0  0  0  0  0  0
    2.4880   -0.7300    2.4170 C   0  0  0  0  0  0  0  0  0  0  0  0
    3.4460   -1.1000    1.3700 C   0  0  0  0  0  0  0  0  0  0  0  0
    2.8910   -0.9460   -0.0500 C   0  0  2  0  0  0  0  0  0  0  0  0
    4.0240   -1.3640   -0.8900 N   0  0  0  0  0  0  0  0  0  0  0  0
    2.5860    0.4510   -0.3940 C   0  0  0  0  0  0  0  0  0  0  0  0
    3.5240    1.1660   -0.9010 O   0  0  0  0  0  0  0  0  0  0  0  0
    2.4040    0.5580    2.9250 C   0  0  0  0  0  0  0  0  0  0  0  0
    1.4840    0.8210    3.9050 C   0  0  0  0  0  0  0  0  0  0  0  0
   -0.9480   -0.5530    5.6740 H   0  0  0  0  0  0  0  0  0  0  0  0
    0.0770   -2.2040    4.2700 H   0  0  0  0  0  0  0  0  0  0  0  0
    1.7030   -2.7400    2.5140 H   0  0  0  0  0  0  0  0  0  0  0  0
    4.4140   -0.5620    1.4610 H   0  0  0  0  0  0  0  0  0  0  0  0
    3.6960   -2.1750    1.4810 H   0  0  0  0  0  0  0  0  0  0  0  0
    2.0900   -1.6660   -0.1760 H   0  0  0  0  0  0  0  0  0  0  0  0
    4.6980   -0.6030   -1.0190 H   0  0  0  0  0  0  0  0  0  0  0  0
    3.6900   -1.7960   -1.7780 H   0  0  0  0  0  0  0  0  0  0  0  0
    3.0770    1.3200    2.5220 H   0  0  0  0  0  0  0  0  0  0  0  0
    1.4100    1.8330    4.3120 H   0  0  0  0  0  0  0  0  0  0  0  0
    1.3260    1.0930   -0.2160 N   0  0  0  0  0  0  0  0  0  0  0  0
    1.1460    2.5220   -0.5470 C   0  0  0  0  0  0  0  0  0  0  0  0
    0.0310    2.9130    0.4440 C   0  0  0  0  0  0  0  0  0  0  0  0
   -0.8820    1.7350    0.2130 C   0  0  0  0  0  0  0  0  0  0  0  0
    0.0770    0.5690    0.2390 C   0  0  1  0  0  0  0  0  0  0  0  0
   -0.4840   -0.4370   -0.7150 C   0  0  0  0  0  0  0  0  0  0  0  0
    0.1460   -0.6410   -1.7790 O   0  0  0  0  0  0  0  0  0  0  0  0
    2.0500    3.1010   -0.4020 H   0  0  0  0  0  0  0  0  0  0  0  0
    0.7050    2.5880   -1.5470 H   0  0  0  0  0  0  0  0  0  0  0  0
    0.4070    2.8470    1.4820 H   0  0  0  0  0  0  0  0  0  0  0  0
   -0.4210    3.8740    0.1880 H   0  0  0  0  0  0  0  0  0  0  0  0
   -1.6670    1.6480    0.9890 H   0  0  0  0  0  0  0  0  0  0  0  0
   -1.3200    1.8720   -0.8070 H   0  0  0  0  0  0  0  0  0  0  0  0
    0.0640    0.1860    1.2740 H   0  0  0  0  0  0  0  0  0  0  0  0
   -4.5210   -3.9530    0.4120 N   0  0  0  0  0  0  0  0  0  0  0  0
   -3.1930   -3.4990    0.4060 C   0  0  0  0  0  0  0  0  0  0  0  0
   -2.7170   -3.0510    1.4960 O   0  0  0  0  0  0  0  0  0  0  0  0
   -2.3100   -3.5070   -0.7820 C   0  0  0  0  0  0  0  0  0  0  0  0
   -2.2090   -2.1370   -1.4190 C   0  0  2  0  0  0  0  0  0  0  0  0
   -1.6750   -1.1690   -0.4940 N   0  0  0  0  0  0  0  0  0  0  0  0
   -3.5660   -1.7780   -1.8920 C   0  0  0  0  0  0  0  0  0  0  0  0
   -4.1970   -0.7620   -1.5480 O   0  0  0  0  0  0  0  0  0  0  0  0
   -4.1740   -2.6490   -2.7870 O   0  0  0  0  0  0  0  0  0  0  0  0
   -4.7450   -4.9680    0.4310 H   0  0  0  0  0  0  0  0  0  0  0  0
   -5.3140   -3.2820    0.3970 H   0  0  0  0  0  0  0  0  0  0  0  0
   -1.2940   -3.8110   -0.4850 H   0  0  0  0  0  0  0  0  0  0  0  0
   -2.7160   -4.2290   -1.5240 H   0  0  0  0  0  0  0  0  0  0  0  0
   -1.5530   -2.2210   -2.3070 H   0  0  0  0  0  0  0  0  0  0  0  0
   -2.1860   -0.9850    0.4010 H   0  0  0  0  0  0  0  0  0  0  0  0
  1 13  1  0  0  0  0
  2  1  1  0  0  0  0
  3 14  1  0  0  0  0
  3  2  2  0  0  0  0
  4  3  1  0  0  0  0
  5  4  2  0  0  0  0
  5 11  1  0  0  0  0
  6 16  1  0  0  0  0
  6 17  1  0  0  0  0
  6  5  1  0  0  0  0
  7 18  1  6  0  0  0
  7  6  1  0  0  0  0
  8  7  1  0  0  0  0
  9 23  1  0  0  0  0
  9  7  1  0  0  0  0
 10  9  2  0  0  0  0
 11 12  2  0  0  0  0
 12 22  1  0  0  0  0
 12  2  1  0  0  0  0
 15  4  1  0  0  0  0
 19  8  1  0  0  0  0
 20  8  1  0  0  0  0
 21 11  1  0  0  0  0
 23 27  1  0  0  0  0
 24 30  1  0  0  0  0
 24 23  1  0  0  0  0
 24 25  1  0  0  0  0
 25 32  1  0  0  0  0
 26 27  1  0  0  0  0
 26 25  1  0  0  0  0
 26 34  1  0  0  0  0
 27 36  1  1  0  0  0
 28 42  1  0  0  0  0
 28 27  1  0  0  0  0
 29 28  2  0  0  0  0
 31 24  1  0  0  0  0
 33 25  1  0  0  0  0
 35 26  1  0  0  0  0
 37 46  1  0  0  0  0
 38 37  1  0  0  0  0
 38 39  2  0  0  0  0
 40 48  1  0  0  0  0
 40 38  1  0  0  0  0
 41 50  1  6  0  0  0
 41 40  1  0  0  0  0
 41 42  1  0  0  0  0
 42 51  1  0  0  0  0
 43 44  1  0  0  0  0
 43 41  1  0  0  0  0
 45 43  2  0  0  0  0
 47 37  1  0  0  0  0
 49 40  1  0  0  0  0
M  END
$$$$
