YPP.pdb
 OpenBabel07022419223D

 51 53  0  0  1  0  0  0  0  0999 V2000
    5.4060   -3.5720    4.7260 O   0  0  0  0  0  0  0  0  0  0  0  0
    4.7110   -2.6610    3.9400 C   0  0  0  0  0  0  0  0  0  0  0  0
    3.3590   -2.7950    3.8340 C   0  0  0  0  0  0  0  0  0  0  0  0
    2.6330   -1.9010    3.0560 C   0  0  0  0  0  0  0  0  0  0  0  0
    3.2220   -0.8710    2.3780 C   0  0  0  0  0  0  0  0  0  0  0  0
    2.4490    0.0500    1.5720 C   0  0  0  0  0  0  0  0  0  0  0  0
    2.2750   -0.3490    0.1300 C   0  0  2  0  0  0  0  0  0  0  0  0
    3.6010   -0.4570   -0.5130 N   0  0  0  0  0  0  0  0  0  0  0  0
    1.5560    0.7450   -0.5600 C   0  0  0  0  0  0  0  0  0  0  0  0
    2.2510    1.5150   -1.2990 O   0  0  0  0  0  0  0  0  0  0  0  0
    4.5870   -0.7340    2.4840 C   0  0  0  0  0  0  0  0  0  0  0  0
    5.3330   -1.6290    3.2650 C   0  0  0  0  0  0  0  0  0  0  0  0
    5.9220   -3.3040    5.5480 H   0  0  0  0  0  0  0  0  0  0  0  0
    2.8220   -3.5950    4.3490 H   0  0  0  0  0  0  0  0  0  0  0  0
    1.5840   -2.0350    2.9960 H   0  0  0  0  0  0  0  0  0  0  0  0
    3.0290    1.0250    1.5280 H   0  0  0  0  0  0  0  0  0  0  0  0
    1.4980    0.3210    2.0520 H   0  0  0  0  0  0  0  0  0  0  0  0
    1.7520   -1.2790   -0.0420 H   0  0  0  0  0  0  0  0  0  0  0  0
    4.1230    0.4270   -0.2890 H   0  0  0  0  0  0  0  0  0  0  0  0
    3.4050   -0.4170   -1.5410 H   0  0  0  0  0  0  0  0  0  0  0  0
    5.1620    0.0390    1.9950 H   0  0  0  0  0  0  0  0  0  0  0  0
    6.4000   -1.5480    3.3680 H   0  0  0  0  0  0  0  0  0  0  0  0
    0.1770    1.0020   -0.4680 N   0  0  0  0  0  0  0  0  0  0  0  0
   -0.5290    2.1090   -1.1360 C   0  0  0  0  0  0  0  0  0  0  0  0
   -1.2520    2.6940    0.0750 C   0  0  0  0  0  0  0  0  0  0  0  0
   -1.8600    1.4100    0.6560 C   0  0  0  0  0  0  0  0  0  0  0  0
   -0.8790    0.3080    0.2310 C   0  0  1  0  0  0  0  0  0  0  0  0
   -1.5540   -0.6040   -0.7450 C   0  0  0  0  0  0  0  0  0  0  0  0
   -1.1840   -0.6310   -1.9490 O   0  0  0  0  0  0  0  0  0  0  0  0
    0.1950    2.8100   -1.5720 H   0  0  0  0  0  0  0  0  0  0  0  0
   -1.2240    1.6950   -1.8700 H   0  0  0  0  0  0  0  0  0  0  0  0
   -0.4870    3.0490    0.7830 H   0  0  0  0  0  0  0  0  0  0  0  0
   -2.0100    3.4250   -0.1970 H   0  0  0  0  0  0  0  0  0  0  0  0
   -1.9160    1.5120    1.7540 H   0  0  0  0  0  0  0  0  0  0  0  0
   -2.8360    1.3090    0.1740 H   0  0  0  0  0  0  0  0  0  0  0  0
   -0.5910   -0.2050    1.1410 H   0  0  0  0  0  0  0  0  0  0  0  0
   -2.6200   -1.4640   -0.3640 N   0  0  0  0  0  0  0  0  0  0  0  0
   -3.1200   -1.5430    0.9700 C   0  0  0  0  0  0  0  0  0  0  0  0
   -4.5970   -1.8410    0.7590 C   0  0  0  0  0  0  0  0  0  0  0  0
   -4.5040   -2.8410   -0.4080 C   0  0  0  0  0  0  0  0  0  0  0  0
   -3.3230   -2.3510   -1.2150 C   0  0  1  0  0  0  0  0  0  0  0  0
   -3.7870   -1.7080   -2.4800 C   0  0  0  0  0  0  0  0  0  0  0  0
   -4.3600   -2.4590   -3.3100 O   0  0  0  0  0  0  0  0  0  0  0  0
   -3.6300   -0.3890   -2.7780 O   0  0  0  0  0  0  0  0  0  0  0  0
   -2.9760   -0.6240    1.5750 H   0  0  0  0  0  0  0  0  0  0  0  0
   -2.7090   -2.4420    1.4860 H   0  0  0  0  0  0  0  0  0  0  0  0
   -5.0630   -0.8890    0.4150 H   0  0  0  0  0  0  0  0  0  0  0  0
   -5.0800   -2.2760    1.6320 H   0  0  0  0  0  0  0  0  0  0  0  0
   -4.3220   -3.8450    0.0170 H   0  0  0  0  0  0  0  0  0  0  0  0
   -5.4330   -2.8430   -0.9920 H   0  0  0  0  0  0  0  0  0  0  0  0
   -2.6530   -3.2120   -1.4510 H   0  0  0  0  0  0  0  0  0  0  0  0
  1 13  1  0  0  0  0
  2  1  1  0  0  0  0
  3  2  1  0  0  0  0
  3 14  1  0  0  0  0
  4  3  2  0  0  0  0
  5 11  2  0  0  0  0
  5  4  1  0  0  0  0
  6 17  1  0  0  0  0
  6  5  1  0  0  0  0
  7 18  1  6  0  0  0
  7  6  1  0  0  0  0
  8 19  1  0  0  0  0
  8  7  1  0  0  0  0
  9 23  1  0  0  0  0
  9  7  1  0  0  0  0
 10  9  2  0  0  0  0
 11 12  1  0  0  0  0
 12 22  1  0  0  0  0
 12  2  2  0  0  0  0
 15  4  1  0  0  0  0
 16  6  1  0  0  0  0
 20  8  1  0  0  0  0
 21 11  1  0  0  0  0
 23 27  1  0  0  0  0
 24 23  1  0  0  0  0
 24 25  1  0  0  0  0
 25 26  1  0  0  0  0
 25 32  1  0  0  0  0
 26 34  1  0  0  0  0
 27 26  1  0  0  0  0
 27 36  1  1  0  0  0
 28 37  1  0  0  0  0
 28 27  1  0  0  0  0
 29 28  2  0  0  0  0
 30 24  1  0  0  0  0
 31 24  1  0  0  0  0
 33 25  1  0  0  0  0
 35 26  1  0  0  0  0
 37 38  1  0  0  0  0
 38 46  1  0  0  0  0
 38 45  1  0  0  0  0
 39 38  1  0  0  0  0
 39 48  1  0  0  0  0
 40 49  1  0  0  0  0
 40 39  1  0  0  0  0
 41 51  1  6  0  0  0
 41 40  1  0  0  0  0
 41 37  1  0  0  0  0
 42 41  1  0  0  0  0
 43 42  2  0  0  0  0
 44 42  1  0  0  0  0
 47 39  1  0  0  0  0
 50 40  1  0  0  0  0
M  END
$$$$
