YPQ.pdb
 OpenBabel07022419223D

 54 55  0  0  1  0  0  0  0  0999 V2000
   -1.3230    1.2020    5.1380 O   0  0  0  0  0  0  0  0  0  0  0  0
   -0.1950    0.7870    4.4630 C   0  0  0  0  0  0  0  0  0  0  0  0
    0.1290   -0.5350    4.3330 C   0  0  0  0  0  0  0  0  0  0  0  0
    1.2680   -0.9050    3.6500 C   0  0  0  0  0  0  0  0  0  0  0  0
    2.1270    0.0220    3.0690 C   0  0  0  0  0  0  0  0  0  0  0  0
    3.3360   -0.4290    2.3590 C   0  0  0  0  0  0  0  0  0  0  0  0
    3.0930   -0.7190    0.8900 C   0  0  2  0  0  0  0  0  0  0  0  0
    4.4290   -1.1420    0.3840 N   0  0  0  0  0  0  0  0  0  0  0  0
    2.7120    0.4490    0.0960 C   0  0  0  0  0  0  0  0  0  0  0  0
    3.6310    1.1730   -0.4330 O   0  0  0  0  0  0  0  0  0  0  0  0
    1.7950    1.3550    3.2030 C   0  0  0  0  0  0  0  0  0  0  0  0
    0.6540    1.7120    3.8890 C   0  0  0  0  0  0  0  0  0  0  0  0
   -1.7720    0.6250    5.8350 H   0  0  0  0  0  0  0  0  0  0  0  0
   -0.5430   -1.2740    4.7880 H   0  0  0  0  0  0  0  0  0  0  0  0
    1.4900   -1.9670    3.5690 H   0  0  0  0  0  0  0  0  0  0  0  0
    4.1480    0.3130    2.5030 H   0  0  0  0  0  0  0  0  0  0  0  0
    3.6830   -1.3540    2.8630 H   0  0  0  0  0  0  0  0  0  0  0  0
    2.4570   -1.5980    0.8190 H   0  0  0  0  0  0  0  0  0  0  0  0
    4.6670   -2.0780    0.7580 H   0  0  0  0  0  0  0  0  0  0  0  0
    4.3870   -1.2240   -0.6560 H   0  0  0  0  0  0  0  0  0  0  0  0
    2.4500    2.0840    2.7600 H   0  0  0  0  0  0  0  0  0  0  0  0
    0.4040    2.7600    3.9880 H   0  0  0  0  0  0  0  0  0  0  0  0
    1.3740    0.8870   -0.1670 N   0  0  0  0  0  0  0  0  0  0  0  0
    1.1450    2.1240   -0.9430 C   0  0  0  0  0  0  0  0  0  0  0  0
   -0.2250    2.5780   -0.4540 C   0  0  0  0  0  0  0  0  0  0  0  0
   -0.9210    1.2410   -0.4270 C   0  0  0  0  0  0  0  0  0  0  0  0
    0.1230    0.3330    0.1620 C   0  0  1  0  0  0  0  0  0  0  0  0
   -0.1150   -1.0170   -0.4310 C   0  0  0  0  0  0  0  0  0  0  0  0
    0.6560   -1.6080   -1.2060 O   0  0  0  0  0  0  0  0  0  0  0  0
    1.0400    1.8790   -2.0120 H   0  0  0  0  0  0  0  0  0  0  0  0
    1.8720    2.9010   -0.7040 H   0  0  0  0  0  0  0  0  0  0  0  0
   -0.1890    2.9430    0.5950 H   0  0  0  0  0  0  0  0  0  0  0  0
   -0.6840    3.3020   -1.1380 H   0  0  0  0  0  0  0  0  0  0  0  0
   -1.1560    0.9410   -1.4870 H   0  0  0  0  0  0  0  0  0  0  0  0
   -1.8420    1.2560    0.1920 H   0  0  0  0  0  0  0  0  0  0  0  0
   -0.0350    0.3360    1.2490 H   0  0  0  0  0  0  0  0  0  0  0  0
   -5.5050   -1.6880   -2.3370 N   0  0  0  0  0  0  0  0  0  0  0  0
   -4.3990   -2.4980   -1.9260 C   0  0  0  0  0  0  0  0  0  0  0  0
   -4.6540   -3.3980   -1.0900 O   0  0  0  0  0  0  0  0  0  0  0  0
   -3.0920   -2.2000   -2.5150 C   0  0  0  0  0  0  0  0  0  0  0  0
   -1.9730   -3.0510   -2.0300 C   0  0  0  0  0  0  0  0  0  0  0  0
   -1.6830   -2.9970   -0.5770 C   0  0  2  0  0  0  0  0  0  0  0  0
   -1.3260   -1.6880   -0.0820 N   0  0  0  0  0  0  0  0  0  0  0  0
   -0.6300   -4.0070   -0.2670 C   0  0  0  0  0  0  0  0  0  0  0  0
   -0.6970   -5.1930   -0.6240 O   0  0  0  0  0  0  0  0  0  0  0  0
    0.4700   -3.5840    0.4580 O   0  0  0  0  0  0  0  0  0  0  0  0
   -6.4350   -2.0720   -2.5890 H   0  0  0  0  0  0  0  0  0  0  0  0
   -5.3490   -0.6730   -2.3780 H   0  0  0  0  0  0  0  0  0  0  0  0
   -2.8510   -1.1200   -2.3810 H   0  0  0  0  0  0  0  0  0  0  0  0
   -3.1840   -2.3890   -3.6220 H   0  0  0  0  0  0  0  0  0  0  0  0
   -2.2490   -4.1180   -2.2630 H   0  0  0  0  0  0  0  0  0  0  0  0
   -1.0800   -2.8510   -2.6570 H   0  0  0  0  0  0  0  0  0  0  0  0
   -2.6020   -3.3380   -0.0090 H   0  0  0  0  0  0  0  0  0  0  0  0
   -1.9990   -1.1970    0.5750 H   0  0  0  0  0  0  0  0  0  0  0  0
  1 13  1  0  0  0  0
  2  1  1  0  0  0  0
  3  2  1  0  0  0  0
  3 14  1  0  0  0  0
  4  3  2  0  0  0  0
  5 11  2  0  0  0  0
  5  4  1  0  0  0  0
  6 16  1  0  0  0  0
  6 17  1  0  0  0  0
  6  5  1  0  0  0  0
  7 18  1  6  0  0  0
  7  6  1  0  0  0  0
  8 19  1  0  0  0  0
  8  7  1  0  0  0  0
  9  7  1  0  0  0  0
 10  9  2  0  0  0  0
 11 12  1  0  0  0  0
 12 22  1  0  0  0  0
 12  2  2  0  0  0  0
 15  4  1  0  0  0  0
 20  8  1  0  0  0  0
 21 11  1  0  0  0  0
 23  9  1  0  0  0  0
 23 27  1  0  0  0  0
 24 31  1  0  0  0  0
 24 25  1  0  0  0  0
 24 23  1  0  0  0  0
 25 26  1  0  0  0  0
 25 32  1  0  0  0  0
 26 27  1  0  0  0  0
 26 35  1  0  0  0  0
 27 36  1  1  0  0  0
 28 43  1  0  0  0  0
 28 27  1  0  0  0  0
 29 28  2  0  0  0  0
 30 24  1  0  0  0  0
 33 25  1  0  0  0  0
 34 26  1  0  0  0  0
 37 38  1  0  0  0  0
 38 39  2  0  0  0  0
 40 49  1  0  0  0  0
 40 41  1  0  0  0  0
 40 38  1  0  0  0  0
 41 42  1  0  0  0  0
 42 44  1  0  0  0  0
 42 43  1  0  0  0  0
 42 53  1  1  0  0  0
 43 54  1  0  0  0  0
 44 46  1  0  0  0  0
 45 44  2  0  0  0  0
 47 37  1  0  0  0  0
 48 37  1  0  0  0  0
 50 40  1  0  0  0  0
 51 41  1  0  0  0  0
 52 41  1  0  0  0  0
M  END
$$$$
