YPR.pdb
 OpenBabel07022419223D

 60 61  0  0  1  0  0  0  0  0999 V2000
    1.3350    0.7620    7.5280 O   0  0  0  0  0  0  0  0  0  0  0  0
    1.9630    0.6690    6.2960 C   0  0  0  0  0  0  0  0  0  0  0  0
    1.8460   -0.4840    5.5520 C   0  0  0  0  0  0  0  0  0  0  0  0
    2.4580   -0.6040    4.3250 C   0  0  0  0  0  0  0  0  0  0  0  0
    3.2290    0.4210    3.7580 C   0  0  0  0  0  0  0  0  0  0  0  0
    3.8850    0.2290    2.4490 C   0  0  0  0  0  0  0  0  0  0  0  0
    3.0040    0.4930    1.2720 C   0  0  2  0  0  0  0  0  0  0  0  0
    2.5240    1.8460    1.2990 N   0  0  0  0  0  0  0  0  0  0  0  0
    1.9120   -0.4840    1.1270 C   0  0  0  0  0  0  0  0  0  0  0  0
    2.1920   -1.6890    1.0090 O   0  0  0  0  0  0  0  0  0  0  0  0
    3.3370    1.5680    4.5170 C   0  0  0  0  0  0  0  0  0  0  0  0
    2.7150    1.6870    5.7590 C   0  0  0  0  0  0  0  0  0  0  0  0
    0.5000    0.2640    7.7730 H   0  0  0  0  0  0  0  0  0  0  0  0
    1.2520   -1.3230    5.9470 H   0  0  0  0  0  0  0  0  0  0  0  0
    2.3770   -1.5100    3.7250 H   0  0  0  0  0  0  0  0  0  0  0  0
    4.7330    0.9540    2.3970 H   0  0  0  0  0  0  0  0  0  0  0  0
    4.3520   -0.7730    2.4360 H   0  0  0  0  0  0  0  0  0  0  0  0
    3.6360    0.4300    0.3250 H   0  0  0  0  0  0  0  0  0  0  0  0
    2.7940    2.4180    0.4830 H   0  0  0  0  0  0  0  0  0  0  0  0
    2.7020    2.2640    2.2080 H   0  0  0  0  0  0  0  0  0  0  0  0
    3.9440    2.4040    4.1350 H   0  0  0  0  0  0  0  0  0  0  0  0
    2.8130    2.5940    6.3340 H   0  0  0  0  0  0  0  0  0  0  0  0
    0.5200   -0.1110    1.1140 N   0  0  0  0  0  0  0  0  0  0  0  0
    0.0670    1.2530    1.2910 C   0  0  0  0  0  0  0  0  0  0  0  0
   -1.4460    1.1860    1.4100 C   0  0  0  0  0  0  0  0  0  0  0  0
   -1.7770   -0.0670    0.6480 C   0  0  0  0  0  0  0  0  0  0  0  0
   -0.6110   -0.9630    0.9330 C   0  0  1  0  0  0  0  0  0  0  0  0
   -0.4460   -1.9660   -0.1690 C   0  0  0  0  0  0  0  0  0  0  0  0
    0.5370   -1.9420   -0.9100 O   0  0  0  0  0  0  0  0  0  0  0  0
    0.3090    1.9030    0.4400 H   0  0  0  0  0  0  0  0  0  0  0  0
    0.4040    1.6700    2.2720 H   0  0  0  0  0  0  0  0  0  0  0  0
   -1.9320    2.0800    0.9490 H   0  0  0  0  0  0  0  0  0  0  0  0
   -1.7790    1.1230    2.4580 H   0  0  0  0  0  0  0  0  0  0  0  0
   -2.7480   -0.5060    0.9480 H   0  0  0  0  0  0  0  0  0  0  0  0
   -1.7460    0.1960   -0.4310 H   0  0  0  0  0  0  0  0  0  0  0  0
   -0.7600   -1.5370    1.8920 H   0  0  0  0  0  0  0  0  0  0  0  0
   -1.9020    0.7800   -4.2660 N   0  0  0  0  0  0  0  0  0  0  0  0
   -2.9200   -0.1720   -3.9550 C   0  0  0  0  0  0  0  0  0  0  0  0
   -3.8250    0.2090   -3.1110 N   0  0  0  0  0  0  0  0  0  0  0  0
   -2.9300   -1.4610   -4.5450 N   0  0  0  0  0  0  0  0  0  0  0  0
   -3.7110   -2.5240   -4.0070 C   0  0  0  0  0  0  0  0  0  0  0  0
   -3.2160   -3.0020   -2.6600 C   0  0  0  0  0  0  0  0  0  0  0  0
   -1.7930   -3.5150   -2.7340 C   0  0  0  0  0  0  0  0  0  0  0  0
   -1.4010   -3.9610   -1.3500 C   0  0  2  0  0  0  0  0  0  0  0  0
   -1.4440   -2.9530   -0.3510 N   0  0  0  0  0  0  0  0  0  0  0  0
   -0.0690   -4.6680   -1.4150 C   0  0  0  0  0  0  0  0  0  0  0  0
    0.0760   -5.5280   -2.3130 O   0  0  0  0  0  0  0  0  0  0  0  0
    0.9770   -4.4270   -0.5550 O   0  0  0  0  0  0  0  0  0  0  0  0
   -0.8820    0.5210   -4.1290 H   0  0  0  0  0  0  0  0  0  0  0  0
   -2.0950    1.7240   -4.6240 H   0  0  0  0  0  0  0  0  0  0  0  0
   -4.6190   -0.3960   -2.8040 H   0  0  0  0  0  0  0  0  0  0  0  0
   -2.3500   -1.6190   -5.3880 H   0  0  0  0  0  0  0  0  0  0  0  0
   -4.7510   -2.1500   -3.8360 H   0  0  0  0  0  0  0  0  0  0  0  0
   -3.8000   -3.3990   -4.6590 H   0  0  0  0  0  0  0  0  0  0  0  0
   -3.3400   -2.2170   -1.9080 H   0  0  0  0  0  0  0  0  0  0  0  0
   -3.8550   -3.8580   -2.3600 H   0  0  0  0  0  0  0  0  0  0  0  0
   -1.7250   -4.4090   -3.3880 H   0  0  0  0  0  0  0  0  0  0  0  0
   -1.1080   -2.7670   -3.1570 H   0  0  0  0  0  0  0  0  0  0  0  0
   -2.1230   -4.7920   -1.0660 H   0  0  0  0  0  0  0  0  0  0  0  0
   -2.2780   -2.9270    0.3120 H   0  0  0  0  0  0  0  0  0  0  0  0
  1 13  1  0  0  0  0
  2  1  1  0  0  0  0
  3 14  1  0  0  0  0
  3  2  2  0  0  0  0
  4  3  1  0  0  0  0
  5  4  2  0  0  0  0
  5 11  1  0  0  0  0
  6  5  1  0  0  0  0
  7 18  1  6  0  0  0
  7  8  1  0  0  0  0
  7  6  1  0  0  0  0
  8 20  1  0  0  0  0
  9  7  1  0  0  0  0
 10  9  2  0  0  0  0
 11 12  2  0  0  0  0
 12  2  1  0  0  0  0
 12 22  1  0  0  0  0
 15  4  1  0  0  0  0
 16  6  1  0  0  0  0
 17  6  1  0  0  0  0
 19  8  1  0  0  0  0
 21 11  1  0  0  0  0
 23  9  1  0  0  0  0
 23 24  1  0  0  0  0
 24 25  1  0  0  0  0
 24 31  1  0  0  0  0
 25 33  1  0  0  0  0
 26 27  1  0  0  0  0
 26 34  1  0  0  0  0
 26 25  1  0  0  0  0
 27 23  1  0  0  0  0
 27 36  1  1  0  0  0
 28 27  1  0  0  0  0
 29 28  2  0  0  0  0
 30 24  1  0  0  0  0
 32 25  1  0  0  0  0
 35 26  1  0  0  0  0
 37 49  1  0  0  0  0
 37 38  1  0  0  0  0
 38 39  2  0  0  0  0
 39 51  1  0  0  0  0
 40 41  1  0  0  0  0
 40 38  1  0  0  0  0
 41 53  1  0  0  0  0
 41 42  1  0  0  0  0
 42 56  1  0  0  0  0
 42 55  1  0  0  0  0
 43 42  1  0  0  0  0
 43 44  1  0  0  0  0
 44 59  1  1  0  0  0
 44 45  1  0  0  0  0
 45 28  1  0  0  0  0
 45 60  1  0  0  0  0
 46 44  1  0  0  0  0
 46 48  1  0  0  0  0
 47 46  2  0  0  0  0
 50 37  1  0  0  0  0
 52 40  1  0  0  0  0
 54 41  1  0  0  0  0
 57 43  1  0  0  0  0
 58 43  1  0  0  0  0
M  END
$$$$
