YPT.pdb
 OpenBabel07022419223D

 51 52  0  0  1  0  0  0  0  0999 V2000
    4.9660   -4.8180   -1.8370 O   0  0  0  0  0  0  0  0  0  0  0  0
    4.6190   -3.5820   -1.3440 C   0  0  0  0  0  0  0  0  0  0  0  0
    4.2460   -3.5030   -0.0190 C   0  0  0  0  0  0  0  0  0  0  0  0
    3.8880   -2.2900    0.5280 C   0  0  0  0  0  0  0  0  0  0  0  0
    3.8970   -1.1280   -0.2460 C   0  0  0  0  0  0  0  0  0  0  0  0
    3.5140    0.1660    0.3400 C   0  0  0  0  0  0  0  0  0  0  0  0
    2.0370    0.4850    0.2080 C   0  0  2  0  0  0  0  0  0  0  0  0
    1.8430    1.7670    0.8270 N   0  0  0  0  0  0  0  0  0  0  0  0
    1.1650   -0.5930    0.6540 C   0  0  0  0  0  0  0  0  0  0  0  0
    1.2650   -1.7060   -0.0240 O   0  0  0  0  0  0  0  0  0  0  0  0
    4.2740   -1.2400   -1.5660 C   0  0  0  0  0  0  0  0  0  0  0  0
    4.6350   -2.4380   -2.1360 C   0  0  0  0  0  0  0  0  0  0  0  0
    5.5880   -5.4140   -1.2950 H   0  0  0  0  0  0  0  0  0  0  0  0
    4.2240   -4.3870    0.6270 H   0  0  0  0  0  0  0  0  0  0  0  0
    3.5850   -2.1790    1.5760 H   0  0  0  0  0  0  0  0  0  0  0  0
    3.8570    0.2800    1.3960 H   0  0  0  0  0  0  0  0  0  0  0  0
    4.0530    0.9570   -0.2310 H   0  0  0  0  0  0  0  0  0  0  0  0
    1.8800    0.6480   -0.8870 H   0  0  0  0  0  0  0  0  0  0  0  0
    1.0080    2.2370    0.4100 H   0  0  0  0  0  0  0  0  0  0  0  0
    2.6710    2.3550    0.5870 H   0  0  0  0  0  0  0  0  0  0  0  0
    4.2900   -0.3450   -2.1950 H   0  0  0  0  0  0  0  0  0  0  0  0
    4.9260   -2.4890   -3.1750 H   0  0  0  0  0  0  0  0  0  0  0  0
    0.2410   -0.5860    1.7110 N   0  0  0  0  0  0  0  0  0  0  0  0
   -0.0530    0.4700    2.6130 C   0  0  0  0  0  0  0  0  0  0  0  0
    0.0300   -0.3110    3.9540 C   0  0  0  0  0  0  0  0  0  0  0  0
   -0.6820   -1.5910    3.5780 C   0  0  0  0  0  0  0  0  0  0  0  0
   -0.6200   -1.6820    2.0800 C   0  0  1  0  0  0  0  0  0  0  0  0
   -2.0050   -1.5160    1.5280 C   0  0  0  0  0  0  0  0  0  0  0  0
   -2.9070   -2.3330    1.9020 O   0  0  0  0  0  0  0  0  0  0  0  0
   -1.1310    0.7440    2.5050 H   0  0  0  0  0  0  0  0  0  0  0  0
    0.6050    1.3280    2.6440 H   0  0  0  0  0  0  0  0  0  0  0  0
   -0.5200    0.2930    4.6900 H   0  0  0  0  0  0  0  0  0  0  0  0
    1.0870   -0.4660    4.2100 H   0  0  0  0  0  0  0  0  0  0  0  0
   -0.2210   -2.4810    4.0480 H   0  0  0  0  0  0  0  0  0  0  0  0
   -1.7320   -1.4790    3.9190 H   0  0  0  0  0  0  0  0  0  0  0  0
   -0.1950   -2.6650    1.7450 H   0  0  0  0  0  0  0  0  0  0  0  0
   -5.6960    1.0410   -0.1040 C   0  0  0  0  0  0  0  0  0  0  0  0
   -4.2900    0.9780    0.4480 C   0  0  1  0  0  0  0  0  0  0  0  0
   -4.2790    1.1810    1.8280 O   0  0  0  0  0  0  0  0  0  0  0  0
   -3.7250   -0.4080    0.1310 C   0  0  2  0  0  0  0  0  0  0  0  0
   -2.3720   -0.5080    0.6170 N   0  0  0  0  0  0  0  0  0  0  0  0
   -3.7650   -0.5270   -1.3670 C   0  0  0  0  0  0  0  0  0  0  0  0
   -2.6730   -0.6900   -1.9910 O   0  0  0  0  0  0  0  0  0  0  0  0
   -4.9240   -0.4700   -2.0880 O   0  0  0  0  0  0  0  0  0  0  0  0
   -6.1470    0.0330   -0.1640 H   0  0  0  0  0  0  0  0  0  0  0  0
   -5.6780    1.5120   -1.1090 H   0  0  0  0  0  0  0  0  0  0  0  0
   -6.3720    1.6330    0.5570 H   0  0  0  0  0  0  0  0  0  0  0  0
   -3.6060    1.7050   -0.0250 H   0  0  0  0  0  0  0  0  0  0  0  0
   -4.4160    2.1200    2.0500 H   0  0  0  0  0  0  0  0  0  0  0  0
   -4.3630   -1.2000    0.5660 H   0  0  0  0  0  0  0  0  0  0  0  0
   -1.6670    0.1670    0.2850 H   0  0  0  0  0  0  0  0  0  0  0  0
  1  2  1  0  0  0  0
  1 13  1  0  0  0  0
  2  3  1  0  0  0  0
  3  4  2  0  0  0  0
  3 14  1  0  0  0  0
  4 15  1  0  0  0  0
  5  6  1  0  0  0  0
  5  4  1  0  0  0  0
  6 16  1  0  0  0  0
  7 18  1  6  0  0  0
  7  6  1  0  0  0  0
  7  9  1  0  0  0  0
  7  8  1  0  0  0  0
  9 23  1  0  0  0  0
 10  9  2  0  0  0  0
 11  5  2  0  0  0  0
 12 11  1  0  0  0  0
 12  2  2  0  0  0  0
 17  6  1  0  0  0  0
 19  8  1  0  0  0  0
 20  8  1  0  0  0  0
 21 11  1  0  0  0  0
 22 12  1  0  0  0  0
 23 27  1  0  0  0  0
 23 24  1  0  0  0  0
 24 31  1  0  0  0  0
 24 25  1  0  0  0  0
 25 33  1  0  0  0  0
 25 32  1  0  0  0  0
 26 35  1  0  0  0  0
 26 25  1  0  0  0  0
 26 34  1  0  0  0  0
 27 36  1  6  0  0  0
 27 26  1  0  0  0  0
 28 29  2  0  0  0  0
 28 27  1  0  0  0  0
 30 24  1  0  0  0  0
 37 38  1  0  0  0  0
 37 47  1  0  0  0  0
 38 48  1  6  0  0  0
 38 39  1  0  0  0  0
 39 49  1  0  0  0  0
 40 38  1  0  0  0  0
 40 50  1  1  0  0  0
 40 41  1  0  0  0  0
 41 28  1  0  0  0  0
 42 40  1  0  0  0  0
 43 42  1  0  0  0  0
 44 42  2  0  0  0  0
 45 37  1  0  0  0  0
 46 37  1  0  0  0  0
 51 41  1  0  0  0  0
M  END
$$$$
