YPV.pdb
 OpenBabel07022419233D

 53 54  0  0  1  0  0  0  0  0999 V2000
    6.1330    1.6370    3.3600 O   0  0  0  0  0  0  0  0  0  0  0  0
    5.3450    0.8720    2.5280 C   0  0  0  0  0  0  0  0  0  0  0  0
    4.2560    0.2320    3.0810 C   0  0  0  0  0  0  0  0  0  0  0  0
    3.4700   -0.5320    2.2470 C   0  0  0  0  0  0  0  0  0  0  0  0
    3.7570   -0.6580    0.9070 C   0  0  0  0  0  0  0  0  0  0  0  0
    2.8800   -1.4880    0.0700 C   0  0  0  0  0  0  0  0  0  0  0  0
    1.7370   -0.7040   -0.5390 C   0  0  2  0  0  0  0  0  0  0  0  0
    2.3000    0.3560   -1.3720 N   0  0  0  0  0  0  0  0  0  0  0  0
    0.8470   -0.0770    0.4510 C   0  0  0  0  0  0  0  0  0  0  0  0
    0.9670    1.1920    0.6460 O   0  0  0  0  0  0  0  0  0  0  0  0
    4.8450   -0.0110    0.3850 C   0  0  0  0  0  0  0  0  0  0  0  0
    5.6550    0.7620    1.1850 C   0  0  0  0  0  0  0  0  0  0  0  0
    7.0680    1.3390    3.6650 H   0  0  0  0  0  0  0  0  0  0  0  0
    4.0240    0.3300    4.1500 H   0  0  0  0  0  0  0  0  0  0  0  0
    2.6110   -1.0330    2.7000 H   0  0  0  0  0  0  0  0  0  0  0  0
    3.5040   -1.8160   -0.8080 H   0  0  0  0  0  0  0  0  0  0  0  0
    2.4880   -2.3590    0.5810 H   0  0  0  0  0  0  0  0  0  0  0  0
    1.1620   -1.3730   -1.1810 H   0  0  0  0  0  0  0  0  0  0  0  0
    2.7140   -0.0180   -2.2390 H   0  0  0  0  0  0  0  0  0  0  0  0
    2.8870    1.0060   -0.8390 H   0  0  0  0  0  0  0  0  0  0  0  0
    5.1150   -0.0810   -0.6810 H   0  0  0  0  0  0  0  0  0  0  0  0
    6.5280    1.2830    0.7760 H   0  0  0  0  0  0  0  0  0  0  0  0
   -0.1410   -0.7180    1.2240 N   0  0  0  0  0  0  0  0  0  0  0  0
   -0.9820   -0.0810    2.2110 C   0  0  0  0  0  0  0  0  0  0  0  0
   -1.1810   -1.1520    3.2730 C   0  0  0  0  0  0  0  0  0  0  0  0
   -0.9660   -2.4660    2.5950 C   0  0  0  0  0  0  0  0  0  0  0  0
   -0.5270   -2.0790    1.1770 C   0  0  1  0  0  0  0  0  0  0  0  0
   -1.6650   -2.3440    0.2530 C   0  0  0  0  0  0  0  0  0  0  0  0
   -2.0880   -3.5130    0.1870 O   0  0  0  0  0  0  0  0  0  0  0  0
   -1.9390    0.2820    1.8430 H   0  0  0  0  0  0  0  0  0  0  0  0
   -0.4790    0.7750    2.7080 H   0  0  0  0  0  0  0  0  0  0  0  0
   -2.1830   -1.0800    3.7160 H   0  0  0  0  0  0  0  0  0  0  0  0
   -0.4090   -1.0670    4.0740 H   0  0  0  0  0  0  0  0  0  0  0  0
   -0.2010   -3.0860    3.0920 H   0  0  0  0  0  0  0  0  0  0  0  0
   -1.9130   -3.0630    2.5450 H   0  0  0  0  0  0  0  0  0  0  0  0
    0.2440   -2.8150    0.9140 H   0  0  0  0  0  0  0  0  0  0  0  0
   -4.3910    0.6610   -1.1470 C   0  0  0  0  0  0  0  0  0  0  0  0
   -4.6230   -0.8150   -1.0890 C   0  0  0  0  0  0  0  0  0  0  0  0
   -5.2560   -1.2800    0.2050 C   0  0  0  0  0  0  0  0  0  0  0  0
   -3.3850   -1.6140   -1.4360 C   0  0  2  0  0  0  0  0  0  0  0  0
   -2.2860   -1.3470   -0.5480 N   0  0  0  0  0  0  0  0  0  0  0  0
   -2.9810   -1.3070   -2.8250 C   0  0  0  0  0  0  0  0  0  0  0  0
   -3.7360   -1.4400   -3.8190 O   0  0  0  0  0  0  0  0  0  0  0  0
   -1.6970   -0.8450   -3.0500 O   0  0  0  0  0  0  0  0  0  0  0  0
   -4.9530    1.1770   -1.9520 H   0  0  0  0  0  0  0  0  0  0  0  0
   -3.3050    0.8880   -1.3550 H   0  0  0  0  0  0  0  0  0  0  0  0
   -4.7170    1.1380   -0.1940 H   0  0  0  0  0  0  0  0  0  0  0  0
   -5.3880   -1.0500   -1.8880 H   0  0  0  0  0  0  0  0  0  0  0  0
   -6.3700   -1.1050    0.1730 H   0  0  0  0  0  0  0  0  0  0  0  0
   -5.1340   -2.3920    0.2270 H   0  0  0  0  0  0  0  0  0  0  0  0
   -4.8780   -0.7770    1.0930 H   0  0  0  0  0  0  0  0  0  0  0  0
   -3.6940   -2.6850   -1.4190 H   0  0  0  0  0  0  0  0  0  0  0  0
   -1.8870   -0.3810   -0.4530 H   0  0  0  0  0  0  0  0  0  0  0  0
  1 13  1  0  0  0  0
  2  3  1  0  0  0  0
  2  1  1  0  0  0  0
  3 14  1  0  0  0  0
  4 15  1  0  0  0  0
  4  3  2  0  0  0  0
  5  4  1  0  0  0  0
  6 17  1  0  0  0  0
  6  5  1  0  0  0  0
  7 18  1  6  0  0  0
  7  6  1  0  0  0  0
  7  9  1  0  0  0  0
  8 20  1  0  0  0  0
  8  7  1  0  0  0  0
  9 10  2  0  0  0  0
  9 23  1  0  0  0  0
 11  5  2  0  0  0  0
 11 12  1  0  0  0  0
 12  2  2  0  0  0  0
 16  6  1  0  0  0  0
 19  8  1  0  0  0  0
 21 11  1  0  0  0  0
 22 12  1  0  0  0  0
 23 24  1  0  0  0  0
 24 31  1  0  0  0  0
 24 25  1  0  0  0  0
 25 32  1  0  0  0  0
 25 33  1  0  0  0  0
 26 34  1  0  0  0  0
 26 25  1  0  0  0  0
 27 36  1  6  0  0  0
 27 23  1  0  0  0  0
 27 26  1  0  0  0  0
 28 27  1  0  0  0  0
 29 28  2  0  0  0  0
 30 24  1  0  0  0  0
 35 26  1  0  0  0  0
 37 38  1  0  0  0  0
 37 47  1  0  0  0  0
 38 39  1  0  0  0  0
 39 50  1  0  0  0  0
 39 51  1  0  0  0  0
 40 52  1  1  0  0  0
 40 38  1  0  0  0  0
 40 41  1  0  0  0  0
 41 53  1  0  0  0  0
 41 28  1  0  0  0  0
 42 40  1  0  0  0  0
 43 42  2  0  0  0  0
 44 42  1  0  0  0  0
 45 37  1  0  0  0  0
 46 37  1  0  0  0  0
 48 38  1  0  0  0  0
 49 39  1  0  0  0  0
M  END
$$$$
