YPY.pdb
 OpenBabel07022419233D

 58 60  0  0  1  0  0  0  0  0999 V2000
    3.6420   -2.5060    5.6280 O   0  0  0  0  0  0  0  0  0  0  0  0
    3.5200   -1.7810    4.4440 C   0  0  0  0  0  0  0  0  0  0  0  0
    4.0610   -0.5150    4.3820 C   0  0  0  0  0  0  0  0  0  0  0  0
    3.9570    0.2190    3.2370 C   0  0  0  0  0  0  0  0  0  0  0  0
    3.3060   -0.3060    2.1250 C   0  0  0  0  0  0  0  0  0  0  0  0
    3.1900    0.4760    0.8870 C   0  0  0  0  0  0  0  0  0  0  0  0
    1.9310    1.3400    0.8330 C   0  0  2  0  0  0  0  0  0  0  0  0
    1.9780    2.2300    1.9390 N   0  0  0  0  0  0  0  0  0  0  0  0
    0.7010    0.5490    0.6610 C   0  0  0  0  0  0  0  0  0  0  0  0
    0.7680   -0.3320   -0.2650 O   0  0  0  0  0  0  0  0  0  0  0  0
    2.7620   -1.5710    2.1770 C   0  0  0  0  0  0  0  0  0  0  0  0
    2.8820   -2.2900    3.3470 C   0  0  0  0  0  0  0  0  0  0  0  0
    2.8350   -2.4770    6.2430 H   0  0  0  0  0  0  0  0  0  0  0  0
    4.5800   -0.0640    5.2300 H   0  0  0  0  0  0  0  0  0  0  0  0
    4.3830    1.2120    3.1850 H   0  0  0  0  0  0  0  0  0  0  0  0
    3.2470   -0.2020   -0.0010 H   0  0  0  0  0  0  0  0  0  0  0  0
    4.0750    1.1390    0.8100 H   0  0  0  0  0  0  0  0  0  0  0  0
    2.1050    1.9900   -0.0880 H   0  0  0  0  0  0  0  0  0  0  0  0
    2.0930    1.7950    2.8670 H   0  0  0  0  0  0  0  0  0  0  0  0
    2.5170    3.0880    1.7700 H   0  0  0  0  0  0  0  0  0  0  0  0
    2.2530   -1.9870    1.3050 H   0  0  0  0  0  0  0  0  0  0  0  0
    2.4490   -3.2780    3.3640 H   0  0  0  0  0  0  0  0  0  0  0  0
   -0.4960    0.6510    1.3790 N   0  0  0  0  0  0  0  0  0  0  0  0
   -0.6190    1.7530    2.3950 C   0  0  0  0  0  0  0  0  0  0  0  0
   -2.1090    2.0040    2.5410 C   0  0  0  0  0  0  0  0  0  0  0  0
   -2.6780    1.2240    1.3500 C   0  0  0  0  0  0  0  0  0  0  0  0
   -1.7340   -0.0020    1.4780 C   0  0  1  0  0  0  0  0  0  0  0  0
   -2.2050   -1.0600    0.6530 C   0  0  0  0  0  0  0  0  0  0  0  0
   -3.4520   -1.0130    0.2440 O   0  0  0  0  0  0  0  0  0  0  0  0
   -0.2190    1.4590    3.3540 H   0  0  0  0  0  0  0  0  0  0  0  0
   -0.2230    2.6770    1.9380 H   0  0  0  0  0  0  0  0  0  0  0  0
   -2.3710    3.0780    2.4840 H   0  0  0  0  0  0  0  0  0  0  0  0
   -2.5160    1.5120    3.4450 H   0  0  0  0  0  0  0  0  0  0  0  0
   -2.4500    1.7960    0.4510 H   0  0  0  0  0  0  0  0  0  0  0  0
   -3.7220    0.9510    1.4710 H   0  0  0  0  0  0  0  0  0  0  0  0
   -1.8470   -0.2680    2.6030 H   0  0  0  0  0  0  0  0  0  0  0  0
   -0.8710    0.6560   -5.7020 O   0  0  0  0  0  0  0  0  0  0  0  0
   -1.0520   -0.3700   -4.7830 C   0  0  0  0  0  0  0  0  0  0  0  0
   -2.2360   -1.0780   -4.6680 C   0  0  0  0  0  0  0  0  0  0  0  0
   -2.4210   -2.0940   -3.7610 C   0  0  0  0  0  0  0  0  0  0  0  0
   -1.3950   -2.4460   -2.9130 C   0  0  0  0  0  0  0  0  0  0  0  0
   -1.6000   -3.5570   -1.9530 C   0  0  0  0  0  0  0  0  0  0  0  0
   -2.2340   -3.2010   -0.6700 C   0  0  2  0  0  0  0  0  0  0  0  0
   -1.5560   -2.2310    0.1640 N   0  0  0  0  0  0  0  0  0  0  0  0
   -2.3810   -4.4550    0.1170 C   0  0  0  0  0  0  0  0  0  0  0  0
   -2.9350   -5.4820   -0.3440 O   0  0  0  0  0  0  0  0  0  0  0  0
   -0.2080   -1.7710   -2.9950 C   0  0  0  0  0  0  0  0  0  0  0  0
   -0.0530   -0.7630   -3.9090 C   0  0  0  0  0  0  0  0  0  0  0  0
   -1.8910   -4.4920    1.4040 O   0  0  0  0  0  0  0  0  0  0  0  0
   -1.5360    1.4180   -5.6550 H   0  0  0  0  0  0  0  0  0  0  0  0
   -3.0310   -0.7790   -5.3510 H   0  0  0  0  0  0  0  0  0  0  0  0
   -3.3900   -2.6130   -3.7250 H   0  0  0  0  0  0  0  0  0  0  0  0
   -2.2900   -4.2820   -2.4650 H   0  0  0  0  0  0  0  0  0  0  0  0
   -0.6460   -4.1360   -1.8390 H   0  0  0  0  0  0  0  0  0  0  0  0
   -3.2820   -2.8850   -0.8940 H   0  0  0  0  0  0  0  0  0  0  0  0
   -0.5730   -2.3760    0.4590 H   0  0  0  0  0  0  0  0  0  0  0  0
    0.6200   -2.0420   -2.3390 H   0  0  0  0  0  0  0  0  0  0  0  0
    0.8860   -0.1990   -4.0030 H   0  0  0  0  0  0  0  0  0  0  0  0
  1 13  1  0  0  0  0
  2  1  1  0  0  0  0
  3  2  1  0  0  0  0
  3 14  1  0  0  0  0
  4  3  2  0  0  0  0
  5 11  2  0  0  0  0
  5  4  1  0  0  0  0
  6  5  1  0  0  0  0
  7 18  1  6  0  0  0
  7  6  1  0  0  0  0
  7  8  1  0  0  0  0
  8 19  1  0  0  0  0
  9  7  1  0  0  0  0
  9 23  1  0  0  0  0
 10  9  2  0  0  0  0
 11 12  1  0  0  0  0
 12 22  1  0  0  0  0
 12  2  2  0  0  0  0
 15  4  1  0  0  0  0
 16  6  1  0  0  0  0
 17  6  1  0  0  0  0
 20  8  1  0  0  0  0
 21 11  1  0  0  0  0
 23 27  1  0  0  0  0
 23 24  1  0  0  0  0
 24 25  1  0  0  0  0
 24 30  1  0  0  0  0
 25 33  1  0  0  0  0
 26 35  1  0  0  0  0
 26 27  1  0  0  0  0
 26 25  1  0  0  0  0
 27 36  1  1  0  0  0
 28 27  1  0  0  0  0
 29 28  2  0  0  0  0
 31 24  1  0  0  0  0
 32 25  1  0  0  0  0
 34 26  1  0  0  0  0
 37 50  1  0  0  0  0
 37 38  1  0  0  0  0
 38 39  2  0  0  0  0
 38 48  1  0  0  0  0
 39 40  1  0  0  0  0
 40 52  1  0  0  0  0
 40 41  2  0  0  0  0
 41 42  1  0  0  0  0
 42 54  1  0  0  0  0
 42 43  1  0  0  0  0
 43 55  1  6  0  0  0
 43 45  1  0  0  0  0
 43 44  1  0  0  0  0
 44 56  1  0  0  0  0
 44 28  1  0  0  0  0
 45 49  1  0  0  0  0
 46 45  2  0  0  0  0
 47 41  1  0  0  0  0
 47 57  1  0  0  0  0
 48 47  2  0  0  0  0
 51 39  1  0  0  0  0
 53 42  1  0  0  0  0
 58 48  1  0  0  0  0
M  END
$$$$
