YQA.pdb
 OpenBabel07022419213D

 50 50  0  0  1  0  0  0  0  0999 V2000
    3.8260    3.4210    3.9510 O   0  0  0  0  0  0  0  0  0  0  0  0
    3.8230    2.2890    3.1200 C   0  0  0  0  0  0  0  0  0  0  0  0
    3.0790    1.1850    3.4750 C   0  0  0  0  0  0  0  0  0  0  0  0
    3.0440    0.0520    2.6940 C   0  0  0  0  0  0  0  0  0  0  0  0
    3.7650    0.0030    1.5240 C   0  0  0  0  0  0  0  0  0  0  0  0
    3.7380   -1.1930    0.6820 C   0  0  0  0  0  0  0  0  0  0  0  0
    2.7190   -1.2350   -0.3970 C   0  0  2  0  0  0  0  0  0  0  0  0
    2.9050   -0.1400   -1.3050 N   0  0  0  0  0  0  0  0  0  0  0  0
    1.3330   -1.4770    0.0240 C   0  0  0  0  0  0  0  0  0  0  0  0
    1.1470   -2.3940    0.8680 O   0  0  0  0  0  0  0  0  0  0  0  0
    4.5080    1.1100    1.1720 C   0  0  0  0  0  0  0  0  0  0  0  0
    4.5580    2.2590    1.9420 C   0  0  0  0  0  0  0  0  0  0  0  0
    4.3280    3.3430    4.8350 H   0  0  0  0  0  0  0  0  0  0  0  0
    2.4910    1.1960    4.4130 H   0  0  0  0  0  0  0  0  0  0  0  0
    2.4370   -0.7960    3.0290 H   0  0  0  0  0  0  0  0  0  0  0  0
    3.5770   -2.0890    1.3370 H   0  0  0  0  0  0  0  0  0  0  0  0
    4.7380   -1.3130    0.2090 H   0  0  0  0  0  0  0  0  0  0  0  0
    2.9880   -2.1590   -1.0160 H   0  0  0  0  0  0  0  0  0  0  0  0
    2.9370    0.7860   -0.8710 H   0  0  0  0  0  0  0  0  0  0  0  0
    3.6080   -0.3130   -2.0420 H   0  0  0  0  0  0  0  0  0  0  0  0
    5.1000    1.1240    0.2510 H   0  0  0  0  0  0  0  0  0  0  0  0
    5.1420    3.1310    1.6660 H   0  0  0  0  0  0  0  0  0  0  0  0
   -0.0120    0.0410    4.0330 N   0  0  0  0  0  0  0  0  0  0  0  0
   -0.8320   -0.2570    2.9230 C   0  0  0  0  0  0  0  0  0  0  0  0
   -1.4830   -1.3200    2.9580 O   0  0  0  0  0  0  0  0  0  0  0  0
   -0.9260    0.6400    1.7630 C   0  0  0  0  0  0  0  0  0  0  0  0
   -1.7250    0.1180    0.6280 C   0  0  0  0  0  0  0  0  0  0  0  0
   -1.1090   -1.1240    0.0450 C   0  0  2  0  0  0  0  0  0  0  0  0
    0.2110   -0.7770   -0.4380 N   0  0  0  0  0  0  0  0  0  0  0  0
   -1.9660   -1.6870   -1.0230 C   0  0  0  0  0  0  0  0  0  0  0  0
   -1.5330   -1.8150   -2.1740 O   0  0  0  0  0  0  0  0  0  0  0  0
    0.0930    1.0120    4.3720 H   0  0  0  0  0  0  0  0  0  0  0  0
    0.4910   -0.7250    4.5150 H   0  0  0  0  0  0  0  0  0  0  0  0
   -1.3420    1.6480    2.0610 H   0  0  0  0  0  0  0  0  0  0  0  0
    0.1300    0.8800    1.4730 H   0  0  0  0  0  0  0  0  0  0  0  0
   -2.7500   -0.1210    0.9940 H   0  0  0  0  0  0  0  0  0  0  0  0
   -1.7940    0.9000   -0.1890 H   0  0  0  0  0  0  0  0  0  0  0  0
   -1.0710   -1.8940    0.8370 H   0  0  0  0  0  0  0  0  0  0  0  0
    0.3650   -0.0120   -1.1300 H   0  0  0  0  0  0  0  0  0  0  0  0
   -4.6210   -4.0480   -1.3390 C   0  0  0  0  0  0  0  0  0  0  0  0
   -4.1950   -2.6460   -1.7290 C   0  0  2  0  0  0  0  0  0  0  0  0
   -3.2810   -2.0810   -0.7350 N   0  0  0  0  0  0  0  0  0  0  0  0
   -5.3900   -1.7790   -1.8610 C   0  0  0  0  0  0  0  0  0  0  0  0
   -5.5640   -0.7320   -1.2100 O   0  0  0  0  0  0  0  0  0  0  0  0
   -6.3640   -2.1870   -2.7790 O   0  0  0  0  0  0  0  0  0  0  0  0
   -3.7670   -4.6220   -0.8960 H   0  0  0  0  0  0  0  0  0  0  0  0
   -5.4170   -4.0510   -0.5690 H   0  0  0  0  0  0  0  0  0  0  0  0
   -4.9230   -4.6020   -2.2500 H   0  0  0  0  0  0  0  0  0  0  0  0
   -3.7180   -2.7190   -2.7260 H   0  0  0  0  0  0  0  0  0  0  0  0
   -3.7030   -1.9930    0.2340 H   0  0  0  0  0  0  0  0  0  0  0  0
  1 13  1  0  0  0  0
  2  3  1  0  0  0  0
  2  1  1  0  0  0  0
  3 14  1  0  0  0  0
  4 15  1  0  0  0  0
  4  3  2  0  0  0  0
  5  4  1  0  0  0  0
  6 16  1  0  0  0  0
  6  5  1  0  0  0  0
  7 18  1  6  0  0  0
  7  9  1  0  0  0  0
  7  6  1  0  0  0  0
  8 19  1  0  0  0  0
  8  7  1  0  0  0  0
  9 10  2  0  0  0  0
 11  5  2  0  0  0  0
 11 12  1  0  0  0  0
 12  2  2  0  0  0  0
 17  6  1  0  0  0  0
 20  8  1  0  0  0  0
 21 11  1  0  0  0  0
 22 12  1  0  0  0  0
 23 32  1  0  0  0  0
 23 33  1  0  0  0  0
 24 25  2  0  0  0  0
 24 23  1  0  0  0  0
 26 34  1  0  0  0  0
 26 24  1  0  0  0  0
 27 36  1  0  0  0  0
 27 26  1  0  0  0  0
 28 27  1  0  0  0  0
 28 38  1  1  0  0  0
 29  9  1  0  0  0  0
 29 28  1  0  0  0  0
 30 42  1  0  0  0  0
 30 28  1  0  0  0  0
 31 30  2  0  0  0  0
 35 26  1  0  0  0  0
 37 27  1  0  0  0  0
 39 29  1  0  0  0  0
 40 46  1  0  0  0  0
 40 47  1  0  0  0  0
 41 49  1  6  0  0  0
 41 40  1  0  0  0  0
 41 42  1  0  0  0  0
 42 50  1  0  0  0  0
 43 41  1  0  0  0  0
 43 44  1  0  0  0  0
 45 43  2  0  0  0  0
 48 40  1  0  0  0  0
M  END
$$$$
