YQD.pdb
 OpenBabel07022419213D

 53 53  0  0  1  0  0  0  0  0999 V2000
   -0.6060    1.4200    5.3020 O   0  0  0  0  0  0  0  0  0  0  0  0
    0.4410    1.3100    4.3880 C   0  0  0  0  0  0  0  0  0  0  0  0
    0.3000    1.8160    3.1160 C   0  0  0  0  0  0  0  0  0  0  0  0
    1.3200    1.7160    2.2030 C   0  0  0  0  0  0  0  0  0  0  0  0
    2.4930    1.1030    2.5700 C   0  0  0  0  0  0  0  0  0  0  0  0
    3.5800    1.0020    1.5750 C   0  0  0  0  0  0  0  0  0  0  0  0
    3.6020   -0.2610    0.7750 C   0  0  2  0  0  0  0  0  0  0  0  0
    4.7530   -0.1230   -0.1400 N   0  0  0  0  0  0  0  0  0  0  0  0
    2.3800   -0.4580   -0.0690 C   0  0  0  0  0  0  0  0  0  0  0  0
    2.4870   -0.2540   -1.2940 O   0  0  0  0  0  0  0  0  0  0  0  0
    2.6020    0.6070    3.8500 C   0  0  0  0  0  0  0  0  0  0  0  0
    1.6000    0.6880    4.7950 C   0  0  0  0  0  0  0  0  0  0  0  0
   -0.4460    1.9360    6.1630 H   0  0  0  0  0  0  0  0  0  0  0  0
   -0.6460    2.3010    2.8490 H   0  0  0  0  0  0  0  0  0  0  0  0
    1.1900    2.1250    1.1980 H   0  0  0  0  0  0  0  0  0  0  0  0
    3.5770    1.9050    0.9060 H   0  0  0  0  0  0  0  0  0  0  0  0
    4.5320    1.1000    2.1500 H   0  0  0  0  0  0  0  0  0  0  0  0
    3.8300   -1.1430    1.4000 H   0  0  0  0  0  0  0  0  0  0  0  0
    5.5950   -0.2470    0.4800 H   0  0  0  0  0  0  0  0  0  0  0  0
    4.7210   -0.8870   -0.8490 H   0  0  0  0  0  0  0  0  0  0  0  0
    3.5450    0.1150    4.1410 H   0  0  0  0  0  0  0  0  0  0  0  0
    1.7200    0.2810    5.8080 H   0  0  0  0  0  0  0  0  0  0  0  0
   -1.2010    3.1570   -0.5410 N   0  0  0  0  0  0  0  0  0  0  0  0
   -1.3090    1.7390   -0.7430 C   0  0  0  0  0  0  0  0  0  0  0  0
   -2.2940    1.1580   -0.2850 O   0  0  0  0  0  0  0  0  0  0  0  0
   -0.1870    1.1050   -1.5080 C   0  0  0  0  0  0  0  0  0  0  0  0
   -0.2380   -0.3760   -1.5400 C   0  0  0  0  0  0  0  0  0  0  0  0
   -0.1050   -1.0660   -0.1930 C   0  0  2  0  0  0  0  0  0  0  0  0
    1.1510   -0.8580    0.4680 N   0  0  0  0  0  0  0  0  0  0  0  0
   -0.5640   -2.4640   -0.2190 C   0  0  0  0  0  0  0  0  0  0  0  0
    0.1310   -3.4110    0.2910 O   0  0  0  0  0  0  0  0  0  0  0  0
   -0.5890    3.7590   -1.1260 H   0  0  0  0  0  0  0  0  0  0  0  0
   -1.7410    3.6280    0.2120 H   0  0  0  0  0  0  0  0  0  0  0  0
    0.7210    1.5550   -1.0780 H   0  0  0  0  0  0  0  0  0  0  0  0
   -0.3310    1.4480   -2.5770 H   0  0  0  0  0  0  0  0  0  0  0  0
    0.4870   -0.8360   -2.2350 H   0  0  0  0  0  0  0  0  0  0  0  0
   -1.2430   -0.6510   -1.9980 H   0  0  0  0  0  0  0  0  0  0  0  0
   -0.8910   -0.4600    0.4190 H   0  0  0  0  0  0  0  0  0  0  0  0
    1.1740   -1.0400    1.5280 H   0  0  0  0  0  0  0  0  0  0  0  0
   -1.8070   -2.8410   -0.8110 N   0  0  0  0  0  0  0  0  0  0  0  0
   -2.1980   -4.2400   -0.8010 C   0  0  1  0  0  0  0  0  0  0  0  0
   -3.4030   -4.3850    0.0950 C   0  0  0  0  0  0  0  0  0  0  0  0
   -4.5740   -3.6140   -0.3220 C   0  0  0  0  0  0  0  0  0  0  0  0
   -4.5650   -2.9160   -1.3640 O   0  0  0  0  0  0  0  0  0  0  0  0
   -2.4490   -4.7600   -2.1460 C   0  0  0  0  0  0  0  0  0  0  0  0
   -2.7980   -5.9530   -2.3130 O   0  0  0  0  0  0  0  0  0  0  0  0
   -5.7630   -3.6010    0.3990 O   0  0  0  0  0  0  0  0  0  0  0  0
   -2.3140   -3.9650   -3.2730 O   0  0  0  0  0  0  0  0  0  0  0  0
   -2.4150   -2.1140   -1.2410 H   0  0  0  0  0  0  0  0  0  0  0  0
   -1.4010   -4.8740   -0.3310 H   0  0  0  0  0  0  0  0  0  0  0  0
   -3.1650   -4.0840    1.1480 H   0  0  0  0  0  0  0  0  0  0  0  0
   -3.7200   -5.4630    0.1320 H   0  0  0  0  0  0  0  0  0  0  0  0
   -6.4740   -2.8860    0.2500 H   0  0  0  0  0  0  0  0  0  0  0  0
  1 13  1  0  0  0  0
  2 12  1  0  0  0  0
  2  1  1  0  0  0  0
  3  2  2  0  0  0  0
  4  5  2  0  0  0  0
  4  3  1  0  0  0  0
  5 11  1  0  0  0  0
  6 17  1  0  0  0  0
  6  5  1  0  0  0  0
  7 18  1  1  0  0  0
  7  6  1  0  0  0  0
  8 19  1  0  0  0  0
  8  7  1  0  0  0  0
  9 29  1  0  0  0  0
  9  7  1  0  0  0  0
 10  9  2  0  0  0  0
 11 21  1  0  0  0  0
 11 12  2  0  0  0  0
 12 22  1  0  0  0  0
 14  3  1  0  0  0  0
 15  4  1  0  0  0  0
 16  6  1  0  0  0  0
 20  8  1  0  0  0  0
 23 33  1  0  0  0  0
 24 23  1  0  0  0  0
 24 25  2  0  0  0  0
 26 34  1  0  0  0  0
 26 24  1  0  0  0  0
 27 26  1  0  0  0  0
 27 28  1  0  0  0  0
 28 38  1  1  0  0  0
 28 29  1  0  0  0  0
 29 39  1  0  0  0  0
 30 28  1  0  0  0  0
 30 31  2  0  0  0  0
 32 23  1  0  0  0  0
 35 26  1  0  0  0  0
 36 27  1  0  0  0  0
 37 27  1  0  0  0  0
 40 41  1  0  0  0  0
 40 30  1  0  0  0  0
 41 50  1  1  0  0  0
 41 42  1  0  0  0  0
 42 52  1  0  0  0  0
 42 51  1  0  0  0  0
 43 42  1  0  0  0  0
 43 47  1  0  0  0  0
 44 43  2  0  0  0  0
 45 41  1  0  0  0  0
 46 45  1  0  0  0  0
 48 45  2  0  0  0  0
 49 40  1  0  0  0  0
 53 47  1  0  0  0  0
M  END
$$$$
