YQE.pdb
 OpenBabel07022419213D

 56 56  0  0  1  0  0  0  0  0999 V2000
    5.9260   -1.6980    6.0460 O   0  0  0  0  0  0  0  0  0  0  0  0
    4.8580   -1.1030    5.3680 C   0  0  0  0  0  0  0  0  0  0  0  0
    3.6760   -0.8140    6.0120 C   0  0  0  0  0  0  0  0  0  0  0  0
    2.6050   -0.2210    5.3510 C   0  0  0  0  0  0  0  0  0  0  0  0
    2.6980    0.1010    4.0030 C   0  0  0  0  0  0  0  0  0  0  0  0
    1.5610    0.7400    3.2870 C   0  0  0  0  0  0  0  0  0  0  0  0
    0.6740   -0.3470    2.7080 C   0  0  2  0  0  0  0  0  0  0  0  0
    1.4980   -1.1100    1.8030 N   0  0  0  0  0  0  0  0  0  0  0  0
   -0.5170    0.2240    2.0650 C   0  0  0  0  0  0  0  0  0  0  0  0
   -1.3160    0.8820    2.8060 O   0  0  0  0  0  0  0  0  0  0  0  0
    3.8870   -0.1930    3.3730 C   0  0  0  0  0  0  0  0  0  0  0  0
    4.9530   -0.7820    4.0250 C   0  0  0  0  0  0  0  0  0  0  0  0
    5.9840   -1.6670    7.0510 H   0  0  0  0  0  0  0  0  0  0  0  0
    3.6070   -1.0750    7.0800 H   0  0  0  0  0  0  0  0  0  0  0  0
    1.6970   -0.0140    5.8930 H   0  0  0  0  0  0  0  0  0  0  0  0
    2.0220    1.3140    2.4460 H   0  0  0  0  0  0  0  0  0  0  0  0
    0.9960    1.3920    3.9740 H   0  0  0  0  0  0  0  0  0  0  0  0
    0.3390   -0.9820    3.5480 H   0  0  0  0  0  0  0  0  0  0  0  0
    1.1170   -2.0560    1.6020 H   0  0  0  0  0  0  0  0  0  0  0  0
    1.7260   -0.5770    0.9290 H   0  0  0  0  0  0  0  0  0  0  0  0
    3.9510    0.0630    2.3190 H   0  0  0  0  0  0  0  0  0  0  0  0
    5.8860   -1.0060    3.5070 H   0  0  0  0  0  0  0  0  0  0  0  0
    0.0150    2.4460   -4.1660 N   0  0  0  0  0  0  0  0  0  0  0  0
   -0.7160    2.5060   -2.9580 C   0  0  0  0  0  0  0  0  0  0  0  0
   -1.2230    3.6110   -2.6460 O   0  0  0  0  0  0  0  0  0  0  0  0
   -0.9090    1.3480   -2.0580 C   0  0  0  0  0  0  0  0  0  0  0  0
   -1.7560    1.7600   -0.8980 C   0  0  0  0  0  0  0  0  0  0  0  0
   -2.0290    0.6720    0.1000 C   0  0  2  0  0  0  0  0  0  0  0  0
   -0.8640    0.1150    0.7140 N   0  0  0  0  0  0  0  0  0  0  0  0
   -2.8300   -0.3690   -0.5940 C   0  0  0  0  0  0  0  0  0  0  0  0
   -3.8870   -0.1030   -1.2150 O   0  0  0  0  0  0  0  0  0  0  0  0
    0.8630    3.0430   -4.2570 H   0  0  0  0  0  0  0  0  0  0  0  0
   -0.2290    1.8390   -4.9810 H   0  0  0  0  0  0  0  0  0  0  0  0
   -1.4240    0.5720   -2.6990 H   0  0  0  0  0  0  0  0  0  0  0  0
    0.0490    0.8740   -1.7550 H   0  0  0  0  0  0  0  0  0  0  0  0
   -2.7750    2.0070   -1.3380 H   0  0  0  0  0  0  0  0  0  0  0  0
   -1.4300    2.7120   -0.4330 H   0  0  0  0  0  0  0  0  0  0  0  0
   -2.6210    1.1640    0.9110 H   0  0  0  0  0  0  0  0  0  0  0  0
   -0.2180   -0.4250    0.0890 H   0  0  0  0  0  0  0  0  0  0  0  0
   -2.4410   -1.7600   -0.5970 N   0  0  0  0  0  0  0  0  0  0  0  0
   -3.2580   -2.7270   -1.2960 C   0  0  1  0  0  0  0  0  0  0  0  0
   -2.4710   -3.4820   -2.3450 C   0  0  0  0  0  0  0  0  0  0  0  0
   -1.8870   -2.5200   -3.3640 C   0  0  0  0  0  0  0  0  0  0  0  0
   -1.1520   -3.3000   -4.3740 C   0  0  0  0  0  0  0  0  0  0  0  0
   -1.7330   -4.2190   -4.9970 O   0  0  0  0  0  0  0  0  0  0  0  0
   -3.7340   -3.7290   -0.3190 C   0  0  0  0  0  0  0  0  0  0  0  0
   -4.4790   -4.6990   -0.6760 O   0  0  0  0  0  0  0  0  0  0  0  0
    0.1700   -3.0260   -4.6320 O   0  0  0  0  0  0  0  0  0  0  0  0
   -3.3740   -3.6240    1.0010 O   0  0  0  0  0  0  0  0  0  0  0  0
   -1.5900   -2.0430   -0.1030 H   0  0  0  0  0  0  0  0  0  0  0  0
   -4.1340   -2.2610   -1.7930 H   0  0  0  0  0  0  0  0  0  0  0  0
   -1.7110   -4.1270   -1.8980 H   0  0  0  0  0  0  0  0  0  0  0  0
   -3.1970   -4.1150   -2.8820 H   0  0  0  0  0  0  0  0  0  0  0  0
   -1.2260   -1.8260   -2.7990 H   0  0  0  0  0  0  0  0  0  0  0  0
   -2.7440   -1.9540   -3.7970 H   0  0  0  0  0  0  0  0  0  0  0  0
    0.7850   -3.6370   -5.1610 H   0  0  0  0  0  0  0  0  0  0  0  0
  1 13  1  0  0  0  0
  2  3  1  0  0  0  0
  2  1  1  0  0  0  0
  3 14  1  0  0  0  0
  4 15  1  0  0  0  0
  4  3  2  0  0  0  0
  5  4  1  0  0  0  0
  6 17  1  0  0  0  0
  6  5  1  0  0  0  0
  7  6  1  0  0  0  0
  7 18  1  1  0  0  0
  8  7  1  0  0  0  0
  9  7  1  0  0  0  0
  9 10  2  0  0  0  0
 11  5  2  0  0  0  0
 11 12  1  0  0  0  0
 12  2  2  0  0  0  0
 16  6  1  0  0  0  0
 19  8  1  0  0  0  0
 20  8  1  0  0  0  0
 21 11  1  0  0  0  0
 22 12  1  0  0  0  0
 23 24  1  0  0  0  0
 24 25  2  0  0  0  0
 24 26  1  0  0  0  0
 26 35  1  0  0  0  0
 26 27  1  0  0  0  0
 27 37  1  0  0  0  0
 27 28  1  0  0  0  0
 28 29  1  0  0  0  0
 28 38  1  1  0  0  0
 29  9  1  0  0  0  0
 30 28  1  0  0  0  0
 31 30  2  0  0  0  0
 32 23  1  0  0  0  0
 33 23  1  0  0  0  0
 34 26  1  0  0  0  0
 36 27  1  0  0  0  0
 39 29  1  0  0  0  0
 40 30  1  0  0  0  0
 40 50  1  0  0  0  0
 41 51  1  6  0  0  0
 41 40  1  0  0  0  0
 41 46  1  0  0  0  0
 42 52  1  0  0  0  0
 42 41  1  0  0  0  0
 43 54  1  0  0  0  0
 43 42  1  0  0  0  0
 44 43  1  0  0  0  0
 45 44  2  0  0  0  0
 46 49  1  0  0  0  0
 47 46  2  0  0  0  0
 48 44  1  0  0  0  0
 53 42  1  0  0  0  0
 55 43  1  0  0  0  0
 56 48  1  0  0  0  0
M  END
$$$$
