YQF.pdb
 OpenBabel07022419213D

 60 61  0  0  1  0  0  0  0  0999 V2000
    1.5730   -0.9500    6.5030 O   0  0  0  0  0  0  0  0  0  0  0  0
    1.9450   -0.9800    5.1640 C   0  0  0  0  0  0  0  0  0  0  0  0
    0.9640   -1.0520    4.1890 C   0  0  0  0  0  0  0  0  0  0  0  0
    1.2910   -1.0840    2.8550 C   0  0  0  0  0  0  0  0  0  0  0  0
    2.6160   -1.0450    2.4760 C   0  0  0  0  0  0  0  0  0  0  0  0
    3.0170   -1.0800    1.0450 C   0  0  0  0  0  0  0  0  0  0  0  0
    3.0880    0.3110    0.4600 C   0  0  2  0  0  0  0  0  0  0  0  0
    4.0320    1.1420    1.1560 N   0  0  0  0  0  0  0  0  0  0  0  0
    1.8000    0.9870    0.3280 C   0  0  0  0  0  0  0  0  0  0  0  0
    1.6180    2.0990    0.9340 O   0  0  0  0  0  0  0  0  0  0  0  0
    3.6100   -0.9740    3.4310 C   0  0  0  0  0  0  0  0  0  0  0  0
    3.2680   -0.9420    4.7640 C   0  0  0  0  0  0  0  0  0  0  0  0
    1.8960   -0.2290    7.1080 H   0  0  0  0  0  0  0  0  0  0  0  0
   -0.0710   -1.0810    4.5120 H   0  0  0  0  0  0  0  0  0  0  0  0
    0.5150   -1.1380    2.0790 H   0  0  0  0  0  0  0  0  0  0  0  0
    4.0120   -1.5600    0.9950 H   0  0  0  0  0  0  0  0  0  0  0  0
    2.3110   -1.7300    0.4960 H   0  0  0  0  0  0  0  0  0  0  0  0
    3.4980    0.1870   -0.5850 H   0  0  0  0  0  0  0  0  0  0  0  0
    3.5970    1.6530    1.9700 H   0  0  0  0  0  0  0  0  0  0  0  0
    4.3730    1.8790    0.4980 H   0  0  0  0  0  0  0  0  0  0  0  0
    4.6680   -0.9420    3.1640 H   0  0  0  0  0  0  0  0  0  0  0  0
    4.0400   -0.8860    5.5430 H   0  0  0  0  0  0  0  0  0  0  0  0
   -3.0340    4.1050   -3.8210 N   0  0  0  0  0  0  0  0  0  0  0  0
   -1.9470    3.3210   -3.3880 C   0  0  0  0  0  0  0  0  0  0  0  0
   -0.9610    3.1610   -4.1330 O   0  0  0  0  0  0  0  0  0  0  0  0
   -1.9660    2.6670   -2.0190 C   0  0  0  0  0  0  0  0  0  0  0  0
   -0.6770    1.9190   -1.8800 C   0  0  0  0  0  0  0  0  0  0  0  0
   -0.5740    1.2520   -0.5270 C   0  0  2  0  0  0  0  0  0  0  0  0
    0.6960    0.5340   -0.4240 N   0  0  0  0  0  0  0  0  0  0  0  0
   -1.7130    0.3870   -0.1970 C   0  0  0  0  0  0  0  0  0  0  0  0
   -2.8610    0.8880   -0.1400 O   0  0  0  0  0  0  0  0  0  0  0  0
   -3.1930    4.2680   -4.8260 H   0  0  0  0  0  0  0  0  0  0  0  0
   -3.6760    4.5190   -3.1270 H   0  0  0  0  0  0  0  0  0  0  0  0
   -2.8700    2.0100   -2.0700 H   0  0  0  0  0  0  0  0  0  0  0  0
   -2.0780    3.4850   -1.2800 H   0  0  0  0  0  0  0  0  0  0  0  0
    0.1410    2.6530   -1.9400 H   0  0  0  0  0  0  0  0  0  0  0  0
   -0.6400    1.1700   -2.7040 H   0  0  0  0  0  0  0  0  0  0  0  0
   -0.5200    2.0740    0.2130 H   0  0  0  0  0  0  0  0  0  0  0  0
    0.7810   -0.3620   -0.9380 H   0  0  0  0  0  0  0  0  0  0  0  0
   -1.6070   -1.0040    0.0660 N   0  0  0  0  0  0  0  0  0  0  0  0
   -2.7860   -1.7670    0.3750 C   0  0  1  0  0  0  0  0  0  0  0  0
   -2.9950   -2.8740   -0.6480 C   0  0  0  0  0  0  0  0  0  0  0  0
   -1.8600   -3.8060   -0.6900 C   0  0  0  0  0  0  0  0  0  0  0  0
   -0.8070   -3.5270   -1.5660 C   0  0  0  0  0  0  0  0  0  0  0  0
    0.2750   -4.3820   -1.6320 C   0  0  0  0  0  0  0  0  0  0  0  0
    0.3390   -5.5070   -0.8510 C   0  0  0  0  0  0  0  0  0  0  0  0
   -0.6990   -5.7870    0.0170 C   0  0  0  0  0  0  0  0  0  0  0  0
   -1.7790   -4.9360    0.0840 C   0  0  0  0  0  0  0  0  0  0  0  0
   -2.7710   -2.4080    1.7030 C   0  0  0  0  0  0  0  0  0  0  0  0
   -1.8740   -2.3640    2.5490 O   0  0  0  0  0  0  0  0  0  0  0  0
   -3.9160   -3.1520    2.0330 O   0  0  0  0  0  0  0  0  0  0  0  0
   -0.6450   -1.4550    0.0230 H   0  0  0  0  0  0  0  0  0  0  0  0
   -3.6620   -1.0770    0.3440 H   0  0  0  0  0  0  0  0  0  0  0  0
   -3.9350   -3.4230   -0.4370 H   0  0  0  0  0  0  0  0  0  0  0  0
   -3.1010   -2.3910   -1.6530 H   0  0  0  0  0  0  0  0  0  0  0  0
   -0.8660   -2.6340   -2.1810 H   0  0  0  0  0  0  0  0  0  0  0  0
    1.0770   -4.1260   -2.3310 H   0  0  0  0  0  0  0  0  0  0  0  0
    1.2020   -6.1550   -0.9280 H   0  0  0  0  0  0  0  0  0  0  0  0
   -0.6240   -6.6820    0.6220 H   0  0  0  0  0  0  0  0  0  0  0  0
   -2.5690   -5.1710    0.7590 H   0  0  0  0  0  0  0  0  0  0  0  0
  1 13  1  0  0  0  0
  2  1  1  0  0  0  0
  3 14  1  0  0  0  0
  3  2  2  0  0  0  0
  4  3  1  0  0  0  0
  5  4  2  0  0  0  0
  5 11  1  0  0  0  0
  6  5  1  0  0  0  0
  7 18  1  6  0  0  0
  7  6  1  0  0  0  0
  7  8  1  0  0  0  0
  8 19  1  0  0  0  0
  9  7  1  0  0  0  0
  9 10  2  0  0  0  0
 11 12  2  0  0  0  0
 12  2  1  0  0  0  0
 12 22  1  0  0  0  0
 15  4  1  0  0  0  0
 16  6  1  0  0  0  0
 17  6  1  0  0  0  0
 20  8  1  0  0  0  0
 21 11  1  0  0  0  0
 23 24  1  0  0  0  0
 23 33  1  0  0  0  0
 24 26  1  0  0  0  0
 25 24  2  0  0  0  0
 26 27  1  0  0  0  0
 26 35  1  0  0  0  0
 27 28  1  0  0  0  0
 28 29  1  0  0  0  0
 28 30  1  0  0  0  0
 28 38  1  1  0  0  0
 29  9  1  0  0  0  0
 30 31  2  0  0  0  0
 30 40  1  0  0  0  0
 32 23  1  0  0  0  0
 34 26  1  0  0  0  0
 36 27  1  0  0  0  0
 37 27  1  0  0  0  0
 39 29  1  0  0  0  0
 40 41  1  0  0  0  0
 41 53  1  6  0  0  0
 41 49  1  0  0  0  0
 42 54  1  0  0  0  0
 42 41  1  0  0  0  0
 43 42  1  0  0  0  0
 43 48  1  0  0  0  0
 44 43  2  0  0  0  0
 45 44  1  0  0  0  0
 45 46  2  0  0  0  0
 46 47  1  0  0  0  0
 47 48  2  0  0  0  0
 47 59  1  0  0  0  0
 48 60  1  0  0  0  0
 49 51  2  0  0  0  0
 49 50  1  0  0  0  0
 52 40  1  0  0  0  0
 55 42  1  0  0  0  0
 56 44  1  0  0  0  0
 57 45  1  0  0  0  0
 58 46  1  0  0  0  0
M  END
$$$$
