YQG.pdb
 OpenBabel07022419213D

 47 47  0  0  1  0  0  0  0  0999 V2000
    5.2980   -3.1650    3.1170 O   0  0  0  0  0  0  0  0  0  0  0  0
    4.5910   -2.5490    2.1120 C   0  0  0  0  0  0  0  0  0  0  0  0
    3.9180   -1.3660    2.3810 C   0  0  0  0  0  0  0  0  0  0  0  0
    3.2190   -0.7590    1.3830 C   0  0  0  0  0  0  0  0  0  0  0  0
    3.1530   -1.2750    0.1090 C   0  0  0  0  0  0  0  0  0  0  0  0
    2.3850   -0.5900   -0.9360 C   0  0  0  0  0  0  0  0  0  0  0  0
    1.0010   -1.1260   -1.0210 C   0  0  2  0  0  0  0  0  0  0  0  0
    0.2170   -0.4600   -2.0540 N   0  0  0  0  0  0  0  0  0  0  0  0
    0.2710   -1.0190    0.2360 C   0  0  0  0  0  0  0  0  0  0  0  0
    0.6460   -1.5990    1.2840 O   0  0  0  0  0  0  0  0  0  0  0  0
    3.8290   -2.4660   -0.1660 C   0  0  0  0  0  0  0  0  0  0  0  0
    4.5390   -3.0890    0.8350 C   0  0  0  0  0  0  0  0  0  0  0  0
    5.2730   -4.1830    3.1950 H   0  0  0  0  0  0  0  0  0  0  0  0
    3.9510   -0.9320    3.3820 H   0  0  0  0  0  0  0  0  0  0  0  0
    2.7090    0.1630    1.6260 H   0  0  0  0  0  0  0  0  0  0  0  0
    2.9160   -0.6060   -1.9100 H   0  0  0  0  0  0  0  0  0  0  0  0
    2.3230    0.4870   -0.6510 H   0  0  0  0  0  0  0  0  0  0  0  0
    1.0650   -2.1920   -1.3340 H   0  0  0  0  0  0  0  0  0  0  0  0
    0.1030   -1.0350   -2.9080 H   0  0  0  0  0  0  0  0  0  0  0  0
    0.6010    0.4590   -2.3260 H   0  0  0  0  0  0  0  0  0  0  0  0
    3.7690   -2.8660   -1.1830 H   0  0  0  0  0  0  0  0  0  0  0  0
    5.0690   -4.0090    0.6440 H   0  0  0  0  0  0  0  0  0  0  0  0
    0.5640    4.0780    3.0370 N   0  0  0  0  0  0  0  0  0  0  0  0
   -0.5790    3.2950    2.7880 C   0  0  0  0  0  0  0  0  0  0  0  0
   -1.7360    3.7500    2.9770 O   0  0  0  0  0  0  0  0  0  0  0  0
   -0.4240    1.9250    2.3010 C   0  0  0  0  0  0  0  0  0  0  0  0
   -1.7690    1.2630    2.0990 C   0  0  0  0  0  0  0  0  0  0  0  0
   -1.6170   -0.1550    1.5950 C   0  0  2  0  0  0  0  0  0  0  0  0
   -0.9320   -0.2320    0.3440 N   0  0  0  0  0  0  0  0  0  0  0  0
   -2.9860   -0.7050    1.4290 C   0  0  0  0  0  0  0  0  0  0  0  0
   -3.7420   -0.7190    2.4220 O   0  0  0  0  0  0  0  0  0  0  0  0
    1.4510    3.6240    3.2960 H   0  0  0  0  0  0  0  0  0  0  0  0
    0.5090    5.1020    2.9590 H   0  0  0  0  0  0  0  0  0  0  0  0
    0.2370    1.3050    2.9300 H   0  0  0  0  0  0  0  0  0  0  0  0
    0.0560    1.9800    1.2890 H   0  0  0  0  0  0  0  0  0  0  0  0
   -2.2780    1.2220    3.0670 H   0  0  0  0  0  0  0  0  0  0  0  0
   -2.3060    1.8270    1.3220 H   0  0  0  0  0  0  0  0  0  0  0  0
   -1.0820   -0.7530    2.3670 H   0  0  0  0  0  0  0  0  0  0  0  0
   -1.2570    0.2530   -0.5050 H   0  0  0  0  0  0  0  0  0  0  0  0
   -3.4310   -1.2020    0.1790 N   0  0  0  0  0  0  0  0  0  0  0  0
   -4.7500   -1.7450   -0.0310 C   0  0  0  0  0  0  0  0  0  0  0  0
   -4.8680   -2.1650   -1.4470 C   0  0  0  0  0  0  0  0  0  0  0  0
   -3.9030   -2.0190   -2.2370 O   0  0  0  0  0  0  0  0  0  0  0  0
   -6.0260   -2.7280   -1.9570 O   0  0  0  0  0  0  0  0  0  0  0  0
   -2.7290   -1.1520   -0.6060 H   0  0  0  0  0  0  0  0  0  0  0  0
   -4.9020   -2.6650    0.5910 H   0  0  0  0  0  0  0  0  0  0  0  0
   -5.5490   -1.0190    0.2230 H   0  0  0  0  0  0  0  0  0  0  0  0
  1 13  1  0  0  0  0
  2  3  1  0  0  0  0
  2  1  1  0  0  0  0
  3 14  1  0  0  0  0
  4 15  1  0  0  0  0
  4  3  2  0  0  0  0
  5  4  1  0  0  0  0
  6 17  1  0  0  0  0
  6  5  1  0  0  0  0
  7 18  1  6  0  0  0
  7  6  1  0  0  0  0
  7  9  1  0  0  0  0
  8  7  1  0  0  0  0
  9 29  1  0  0  0  0
  9 10  2  0  0  0  0
 11  5  2  0  0  0  0
 11 12  1  0  0  0  0
 12  2  2  0  0  0  0
 16  6  1  0  0  0  0
 19  8  1  0  0  0  0
 20  8  1  0  0  0  0
 21 11  1  0  0  0  0
 22 12  1  0  0  0  0
 23 32  1  0  0  0  0
 24 25  2  0  0  0  0
 24 23  1  0  0  0  0
 26 24  1  0  0  0  0
 26 34  1  0  0  0  0
 27 26  1  0  0  0  0
 27 36  1  0  0  0  0
 28 27  1  0  0  0  0
 28 38  1  1  0  0  0
 29 28  1  0  0  0  0
 30 28  1  0  0  0  0
 30 31  2  0  0  0  0
 33 23  1  0  0  0  0
 35 26  1  0  0  0  0
 37 27  1  0  0  0  0
 39 29  1  0  0  0  0
 40 30  1  0  0  0  0
 41 40  1  0  0  0  0
 41 47  1  0  0  0  0
 41 46  1  0  0  0  0
 42 41  1  0  0  0  0
 43 42  2  0  0  0  0
 44 42  1  0  0  0  0
 45 40  1  0  0  0  0
M  END
$$$$
