YQH.pdb
 OpenBabel07022419213D

 57 58  0  0  1  0  0  0  0  0999 V2000
    1.9840    0.9940    6.1660 O   0  0  0  0  0  0  0  0  0  0  0  0
    2.3950    0.3380    5.0200 C   0  0  0  0  0  0  0  0  0  0  0  0
    3.4670    0.8200    4.2980 C   0  0  0  0  0  0  0  0  0  0  0  0
    3.9010    0.1890    3.1520 C   0  0  0  0  0  0  0  0  0  0  0  0
    3.2580   -0.9600    2.6930 C   0  0  0  0  0  0  0  0  0  0  0  0
    3.7620   -1.6090    1.4680 C   0  0  0  0  0  0  0  0  0  0  0  0
    3.1440   -1.0890    0.1960 C   0  0  2  0  0  0  0  0  0  0  0  0
    3.4120    0.3230    0.0690 N   0  0  0  0  0  0  0  0  0  0  0  0
    1.6970   -1.3830    0.2150 C   0  0  0  0  0  0  0  0  0  0  0  0
    1.3410   -2.5780    0.3970 O   0  0  0  0  0  0  0  0  0  0  0  0
    2.1930   -1.4300    3.4180 C   0  0  0  0  0  0  0  0  0  0  0  0
    1.7760   -0.7870    4.5580 C   0  0  0  0  0  0  0  0  0  0  0  0
    1.9690    0.5150    7.0640 H   0  0  0  0  0  0  0  0  0  0  0  0
    3.9800    1.7090    4.6360 H   0  0  0  0  0  0  0  0  0  0  0  0
    4.7430    0.6200    2.6400 H   0  0  0  0  0  0  0  0  0  0  0  0
    3.5120   -2.7020    1.5160 H   0  0  0  0  0  0  0  0  0  0  0  0
    4.8710   -1.5540    1.4210 H   0  0  0  0  0  0  0  0  0  0  0  0
    3.6130   -1.5700   -0.7040 H   0  0  0  0  0  0  0  0  0  0  0  0
    4.3870    0.5730    0.2680 H   0  0  0  0  0  0  0  0  0  0  0  0
    3.1420    0.7110   -0.8440 H   0  0  0  0  0  0  0  0  0  0  0  0
    1.6730   -2.3020    3.1060 H   0  0  0  0  0  0  0  0  0  0  0  0
    0.9290   -1.1460    5.1490 H   0  0  0  0  0  0  0  0  0  0  0  0
   -1.5180    1.1530    4.6850 N   0  0  0  0  0  0  0  0  0  0  0  0
   -1.7430    1.0830    3.2850 C   0  0  0  0  0  0  0  0  0  0  0  0
   -2.6640    1.8330    2.8220 O   0  0  0  0  0  0  0  0  0  0  0  0
   -0.9530    0.1880    2.3980 C   0  0  0  0  0  0  0  0  0  0  0  0
   -1.3970    0.3120    0.9750 C   0  0  0  0  0  0  0  0  0  0  0  0
   -0.6210   -0.5840    0.0410 C   0  0  2  0  0  0  0  0  0  0  0  0
    0.7890   -0.3210    0.0290 N   0  0  0  0  0  0  0  0  0  0  0  0
   -1.1390   -0.4340   -1.3710 C   0  0  0  0  0  0  0  0  0  0  0  0
   -0.3550   -0.1260   -2.3050 O   0  0  0  0  0  0  0  0  0  0  0  0
   -1.5570    2.0900    5.1380 H   0  0  0  0  0  0  0  0  0  0  0  0
   -1.3190    0.3030    5.2450 H   0  0  0  0  0  0  0  0  0  0  0  0
   -1.0690   -0.8500    2.7700 H   0  0  0  0  0  0  0  0  0  0  0  0
    0.1460    0.4270    2.5120 H   0  0  0  0  0  0  0  0  0  0  0  0
   -1.3310    1.3550    0.6130 H   0  0  0  0  0  0  0  0  0  0  0  0
   -2.4640    0.0170    0.9240 H   0  0  0  0  0  0  0  0  0  0  0  0
   -0.8090   -1.6580    0.2740 H   0  0  0  0  0  0  0  0  0  0  0  0
    1.1490    0.6330   -0.1140 H   0  0  0  0  0  0  0  0  0  0  0  0
   -2.5160   -0.6410   -1.6440 N   0  0  0  0  0  0  0  0  0  0  0  0
   -3.0200   -0.4990   -2.9910 C   0  0  1  0  0  0  0  0  0  0  0  0
   -3.5350   -1.8260   -3.5160 C   0  0  0  0  0  0  0  0  0  0  0  0
   -2.4320   -2.7920   -3.5120 C   0  0  0  0  0  0  0  0  0  0  0  0
   -1.5480   -3.0350   -4.5280 C   0  0  0  0  0  0  0  0  0  0  0  0
   -0.6780   -3.9990   -4.1390 N   0  0  0  0  0  0  0  0  0  0  0  0
   -1.0520   -4.3330   -2.8730 C   0  0  0  0  0  0  0  0  0  0  0  0
   -2.1050   -3.6100   -2.4950 N   0  0  0  0  0  0  0  0  0  0  0  0
   -4.0740    0.5320   -2.9880 C   0  0  0  0  0  0  0  0  0  0  0  0
   -4.6540    0.8200   -4.0560 O   0  0  0  0  0  0  0  0  0  0  0  0
   -4.4380    1.1900   -1.8330 O   0  0  0  0  0  0  0  0  0  0  0  0
   -3.1650   -0.8950   -0.8690 H   0  0  0  0  0  0  0  0  0  0  0  0
   -2.1610   -0.2280   -3.6430 H   0  0  0  0  0  0  0  0  0  0  0  0
   -4.4440   -2.1620   -2.9970 H   0  0  0  0  0  0  0  0  0  0  0  0
   -3.8250   -1.6440   -4.5870 H   0  0  0  0  0  0  0  0  0  0  0  0
   -1.4810   -2.5780   -5.5130 H   0  0  0  0  0  0  0  0  0  0  0  0
    0.1140   -4.4180   -4.6620 H   0  0  0  0  0  0  0  0  0  0  0  0
   -0.5770   -5.0750   -2.2500 H   0  0  0  0  0  0  0  0  0  0  0  0
  1 13  1  0  0  0  0
  2  1  1  0  0  0  0
  3 14  1  0  0  0  0
  3  2  2  0  0  0  0
  4  3  1  0  0  0  0
  5  4  2  0  0  0  0
  5 11  1  0  0  0  0
  6 16  1  0  0  0  0
  6  5  1  0  0  0  0
  7 18  1  6  0  0  0
  7  9  1  0  0  0  0
  7  6  1  0  0  0  0
  8  7  1  0  0  0  0
  8 19  1  0  0  0  0
  9 10  2  0  0  0  0
 11 12  2  0  0  0  0
 12  2  1  0  0  0  0
 12 22  1  0  0  0  0
 15  4  1  0  0  0  0
 17  6  1  0  0  0  0
 20  8  1  0  0  0  0
 21 11  1  0  0  0  0
 23 32  1  0  0  0  0
 23 33  1  0  0  0  0
 24 23  1  0  0  0  0
 25 24  2  0  0  0  0
 26 35  1  0  0  0  0
 26 34  1  0  0  0  0
 26 24  1  0  0  0  0
 27 26  1  0  0  0  0
 28 38  1  1  0  0  0
 28 27  1  0  0  0  0
 29 28  1  0  0  0  0
 29  9  1  0  0  0  0
 30 28  1  0  0  0  0
 31 30  2  0  0  0  0
 36 27  1  0  0  0  0
 37 27  1  0  0  0  0
 39 29  1  0  0  0  0
 40 30  1  0  0  0  0
 40 51  1  0  0  0  0
 41 52  1  6  0  0  0
 41 48  1  0  0  0  0
 41 40  1  0  0  0  0
 42 43  1  0  0  0  0
 42 53  1  0  0  0  0
 42 41  1  0  0  0  0
 43 47  1  0  0  0  0
 44 45  1  0  0  0  0
 44 43  2  0  0  0  0
 45 46  1  0  0  0  0
 46 47  2  0  0  0  0
 46 57  1  0  0  0  0
 48 50  1  0  0  0  0
 49 48  2  0  0  0  0
 54 42  1  0  0  0  0
 55 44  1  0  0  0  0
 56 45  1  0  0  0  0
M  END
$$$$
