YQI.pdb
 OpenBabel07022419213D

 59 59  0  0  1  0  0  0  0  0999 V2000
    1.2280   -5.6060    1.1150 O   0  0  0  0  0  0  0  0  0  0  0  0
    1.7910   -4.3580    1.3560 C   0  0  0  0  0  0  0  0  0  0  0  0
    3.0090   -3.9950    0.8150 C   0  0  0  0  0  0  0  0  0  0  0  0
    3.5660   -2.7540    1.0550 C   0  0  0  0  0  0  0  0  0  0  0  0
    2.9360   -1.8160    1.8450 C   0  0  0  0  0  0  0  0  0  0  0  0
    3.5740   -0.5410    2.0920 C   0  0  0  0  0  0  0  0  0  0  0  0
    3.3770    0.5700    1.1420 C   0  0  2  0  0  0  0  0  0  0  0  0
    4.1800    1.6970    1.7030 N   0  0  0  0  0  0  0  0  0  0  0  0
    2.0600    1.0990    0.8990 C   0  0  0  0  0  0  0  0  0  0  0  0
    1.7480    2.2320    1.3640 O   0  0  0  0  0  0  0  0  0  0  0  0
    1.7260   -2.1630    2.3880 C   0  0  0  0  0  0  0  0  0  0  0  0
    1.1720   -3.4110    2.1430 C   0  0  0  0  0  0  0  0  0  0  0  0
    0.3920   -5.8440    1.6260 H   0  0  0  0  0  0  0  0  0  0  0  0
    3.4980   -4.7470    0.1910 H   0  0  0  0  0  0  0  0  0  0  0  0
    4.5330   -2.5490    0.5880 H   0  0  0  0  0  0  0  0  0  0  0  0
    3.2710   -0.2330    3.1440 H   0  0  0  0  0  0  0  0  0  0  0  0
    4.7020   -0.6400    2.2170 H   0  0  0  0  0  0  0  0  0  0  0  0
    3.8430    0.3520    0.1340 H   0  0  0  0  0  0  0  0  0  0  0  0
    3.5400    2.1390    2.4020 H   0  0  0  0  0  0  0  0  0  0  0  0
    4.2690    2.3610    0.9030 H   0  0  0  0  0  0  0  0  0  0  0  0
    1.1520   -1.4910    3.0240 H   0  0  0  0  0  0  0  0  0  0  0  0
    0.2180   -3.6720    2.5770 H   0  0  0  0  0  0  0  0  0  0  0  0
    1.5210    4.7800   -1.6220 N   0  0  0  0  0  0  0  0  0  0  0  0
    0.5410    3.8410   -1.2010 C   0  0  0  0  0  0  0  0  0  0  0  0
   -0.2300    4.1230   -0.2430 O   0  0  0  0  0  0  0  0  0  0  0  0
    0.5120    2.5650   -1.9540 C   0  0  0  0  0  0  0  0  0  0  0  0
   -0.4650    1.5630   -1.4720 C   0  0  0  0  0  0  0  0  0  0  0  0
   -0.2680    1.0850   -0.0510 C   0  0  2  0  0  0  0  0  0  0  0  0
    1.0060    0.4650    0.1480 N   0  0  0  0  0  0  0  0  0  0  0  0
   -1.4460    0.2650    0.2710 C   0  0  0  0  0  0  0  0  0  0  0  0
   -2.5860    0.8310    0.1580 O   0  0  0  0  0  0  0  0  0  0  0  0
    1.8560    5.4830   -0.9370 H   0  0  0  0  0  0  0  0  0  0  0  0
    1.9220    4.8030   -2.5780 H   0  0  0  0  0  0  0  0  0  0  0  0
    1.5590    2.2040   -1.9890 H   0  0  0  0  0  0  0  0  0  0  0  0
    0.1890    2.8490   -3.0000 H   0  0  0  0  0  0  0  0  0  0  0  0
   -0.5760    0.6820   -2.1310 H   0  0  0  0  0  0  0  0  0  0  0  0
   -1.4820    2.0540   -1.4830 H   0  0  0  0  0  0  0  0  0  0  0  0
   -0.2940    1.9900    0.5910 H   0  0  0  0  0  0  0  0  0  0  0  0
    1.1670   -0.4730   -0.2640 H   0  0  0  0  0  0  0  0  0  0  0  0
   -4.1430   -1.7490   -1.6820 C   0  0  0  0  0  0  0  0  0  0  0  0
   -2.9520   -2.6200   -1.3610 C   0  0  0  0  0  0  0  0  0  0  0  0
   -2.9160   -2.9780    0.1090 C   0  0  2  0  0  0  0  0  0  0  0  0
   -4.1770   -3.7230    0.4430 C   0  0  0  0  0  0  0  0  0  0  0  0
   -2.7170   -1.7660    0.9800 C   0  0  2  0  0  0  0  0  0  0  0  0
   -1.4700   -1.0730    0.6900 N   0  0  0  0  0  0  0  0  0  0  0  0
   -2.7890   -2.1670    2.4060 C   0  0  0  0  0  0  0  0  0  0  0  0
   -3.7750   -2.7860    2.8830 O   0  0  0  0  0  0  0  0  0  0  0  0
   -1.7160   -1.8430    3.2450 O   0  0  0  0  0  0  0  0  0  0  0  0
   -4.9590   -1.8780   -0.9490 H   0  0  0  0  0  0  0  0  0  0  0  0
   -3.8590   -0.6750   -1.7930 H   0  0  0  0  0  0  0  0  0  0  0  0
   -4.5840   -2.0310   -2.6780 H   0  0  0  0  0  0  0  0  0  0  0  0
   -2.0350   -2.1260   -1.7100 H   0  0  0  0  0  0  0  0  0  0  0  0
   -3.0940   -3.5700   -1.9220 H   0  0  0  0  0  0  0  0  0  0  0  0
   -2.0560   -3.6660    0.2440 H   0  0  0  0  0  0  0  0  0  0  0  0
   -4.9790   -3.0440    0.8270 H   0  0  0  0  0  0  0  0  0  0  0  0
   -4.5770   -4.1780   -0.4810 H   0  0  0  0  0  0  0  0  0  0  0  0
   -4.0340   -4.5040    1.2200 H   0  0  0  0  0  0  0  0  0  0  0  0
   -3.5660   -1.0640    0.8090 H   0  0  0  0  0  0  0  0  0  0  0  0
   -0.5490   -1.5570    0.7800 H   0  0  0  0  0  0  0  0  0  0  0  0
  1  2  1  0  0  0  0
  1 13  1  0  0  0  0
  2 12  1  0  0  0  0
  3  4  1  0  0  0  0
  3  2  2  0  0  0  0
  4  5  2  0  0  0  0
  5  6  1  0  0  0  0
  5 11  1  0  0  0  0
  6 17  1  0  0  0  0
  6 16  1  0  0  0  0
  7 18  1  6  0  0  0
  7  8  1  0  0  0  0
  7  6  1  0  0  0  0
  8 19  1  0  0  0  0
  9  7  1  0  0  0  0
  9 10  2  0  0  0  0
 11 21  1  0  0  0  0
 12 11  2  0  0  0  0
 12 22  1  0  0  0  0
 14  3  1  0  0  0  0
 15  4  1  0  0  0  0
 20  8  1  0  0  0  0
 23 24  1  0  0  0  0
 23 32  1  0  0  0  0
 24 25  2  0  0  0  0
 26 27  1  0  0  0  0
 26 24  1  0  0  0  0
 27 28  1  0  0  0  0
 28 29  1  0  0  0  0
 28 30  1  0  0  0  0
 28 38  1  1  0  0  0
 29  9  1  0  0  0  0
 30 45  1  0  0  0  0
 31 30  2  0  0  0  0
 33 23  1  0  0  0  0
 34 26  1  0  0  0  0
 35 26  1  0  0  0  0
 36 27  1  0  0  0  0
 37 27  1  0  0  0  0
 39 29  1  0  0  0  0
 40 41  1  0  0  0  0
 40 49  1  0  0  0  0
 41 42  1  0  0  0  0
 42 54  1  1  0  0  0
 42 43  1  0  0  0  0
 42 44  1  0  0  0  0
 43 55  1  0  0  0  0
 43 57  1  0  0  0  0
 44 58  1  6  0  0  0
 44 46  1  0  0  0  0
 45 59  1  0  0  0  0
 45 44  1  0  0  0  0
 46 47  2  0  0  0  0
 46 48  1  0  0  0  0
 50 40  1  0  0  0  0
 51 40  1  0  0  0  0
 52 41  1  0  0  0  0
 53 41  1  0  0  0  0
 56 43  1  0  0  0  0
M  END
$$$$
