YQK.pdb
 OpenBabel07022419213D

 61 61  0  0  1  0  0  0  0  0999 V2000
    2.6830    1.9750    6.1960 O   0  0  0  0  0  0  0  0  0  0  0  0
    3.1220    1.2990    5.0710 C   0  0  0  0  0  0  0  0  0  0  0  0
    2.6870    0.0240    4.7730 C   0  0  0  0  0  0  0  0  0  0  0  0
    3.1440   -0.6070    3.6560 C   0  0  0  0  0  0  0  0  0  0  0  0
    4.0540   -0.0220    2.7660 C   0  0  0  0  0  0  0  0  0  0  0  0
    4.5050   -0.7590    1.5810 C   0  0  0  0  0  0  0  0  0  0  0  0
    3.6810   -0.5450    0.3500 C   0  0  2  0  0  0  0  0  0  0  0  0
    3.7040    0.8540   -0.0010 N   0  0  0  0  0  0  0  0  0  0  0  0
    2.2910   -0.9980    0.4760 C   0  0  0  0  0  0  0  0  0  0  0  0
    2.0350   -2.1600    0.8510 O   0  0  0  0  0  0  0  0  0  0  0  0
    4.4760    1.2520    3.0820 C   0  0  0  0  0  0  0  0  0  0  0  0
    4.0220    1.9030    4.2100 C   0  0  0  0  0  0  0  0  0  0  0  0
    2.8570    1.5210    7.1030 H   0  0  0  0  0  0  0  0  0  0  0  0
    1.9830   -0.4460    5.4480 H   0  0  0  0  0  0  0  0  0  0  0  0
    2.7990   -1.6020    3.4310 H   0  0  0  0  0  0  0  0  0  0  0  0
    4.4500   -1.8440    1.8210 H   0  0  0  0  0  0  0  0  0  0  0  0
    5.5890   -0.5700    1.3900 H   0  0  0  0  0  0  0  0  0  0  0  0
    4.2050   -1.0860   -0.4810 H   0  0  0  0  0  0  0  0  0  0  0  0
    3.3810    1.0610   -0.9540 H   0  0  0  0  0  0  0  0  0  0  0  0
    3.2990    1.4670    0.7310 H   0  0  0  0  0  0  0  0  0  0  0  0
    5.1830    1.7410    2.4170 H   0  0  0  0  0  0  0  0  0  0  0  0
    4.3530    2.9010    4.4560 H   0  0  0  0  0  0  0  0  0  0  0  0
    0.0730    3.5190    1.8640 N   0  0  0  0  0  0  0  0  0  0  0  0
    0.0170    2.1220    1.9760 C   0  0  0  0  0  0  0  0  0  0  0  0
    1.0480    1.4820    2.3530 O   0  0  0  0  0  0  0  0  0  0  0  0
   -1.1950    1.3220    1.6820 C   0  0  0  0  0  0  0  0  0  0  0  0
   -0.9480   -0.0850    1.4410 C   0  0  0  0  0  0  0  0  0  0  0  0
   -0.1500   -0.5650    0.2970 C   0  0  2  0  0  0  0  0  0  0  0  0
    1.2030   -0.1400    0.1790 N   0  0  0  0  0  0  0  0  0  0  0  0
   -0.8830   -0.5360   -1.0030 C   0  0  0  0  0  0  0  0  0  0  0  0
   -0.3420   -0.1630   -2.0810 O   0  0  0  0  0  0  0  0  0  0  0  0
    0.9940    3.9890    1.7820 H   0  0  0  0  0  0  0  0  0  0  0  0
   -0.7840    4.1000    1.8610 H   0  0  0  0  0  0  0  0  0  0  0  0
   -1.8400    1.4400    2.6060 H   0  0  0  0  0  0  0  0  0  0  0  0
   -1.7500    1.8850    0.9130 H   0  0  0  0  0  0  0  0  0  0  0  0
   -1.9330   -0.6460    1.4400 H   0  0  0  0  0  0  0  0  0  0  0  0
   -0.4470   -0.5160    2.3680 H   0  0  0  0  0  0  0  0  0  0  0  0
   -0.0880   -1.6910    0.5020 H   0  0  0  0  0  0  0  0  0  0  0  0
    1.4840    0.8370   -0.1600 H   0  0  0  0  0  0  0  0  0  0  0  0
   -2.2440   -0.9240   -1.1350 N   0  0  0  0  0  0  0  0  0  0  0  0
   -2.9710   -0.9020   -2.3910 C   0  0  1  0  0  0  0  0  0  0  0  0
   -3.5100   -2.3280   -2.5860 C   0  0  0  0  0  0  0  0  0  0  0  0
   -2.4000   -3.3160   -2.6420 C   0  0  0  0  0  0  0  0  0  0  0  0
   -2.8940   -4.6950   -2.8590 C   0  0  0  0  0  0  0  0  0  0  0  0
   -3.8150   -5.2630   -1.8390 C   0  0  0  0  0  0  0  0  0  0  0  0
   -5.0540   -4.5800   -1.6470 N   0  0  0  0  0  0  0  0  0  0  0  0
   -4.1740   -0.0460   -2.1830 C   0  0  0  0  0  0  0  0  0  0  0  0
   -5.0060    0.1600   -3.1170 O   0  0  0  0  0  0  0  0  0  0  0  0
   -4.4460    0.5660   -0.9690 O   0  0  0  0  0  0  0  0  0  0  0  0
   -2.7750   -1.2480   -0.3010 H   0  0  0  0  0  0  0  0  0  0  0  0
   -2.3730   -0.5620   -3.2330 H   0  0  0  0  0  0  0  0  0  0  0  0
   -4.1970   -2.3530   -3.4250 H   0  0  0  0  0  0  0  0  0  0  0  0
   -4.1100   -2.4930   -1.6430 H   0  0  0  0  0  0  0  0  0  0  0  0
   -1.7000   -3.2280   -1.7790 H   0  0  0  0  0  0  0  0  0  0  0  0
   -1.7700   -3.0400   -3.5380 H   0  0  0  0  0  0  0  0  0  0  0  0
   -2.0420   -5.4190   -2.9570 H   0  0  0  0  0  0  0  0  0  0  0  0
   -3.4250   -4.7860   -3.8520 H   0  0  0  0  0  0  0  0  0  0  0  0
   -3.3230   -5.3990   -0.8490 H   0  0  0  0  0  0  0  0  0  0  0  0
   -4.0580   -6.3100   -2.1850 H   0  0  0  0  0  0  0  0  0  0  0  0
   -5.8630   -5.0440   -2.1140 H   0  0  0  0  0  0  0  0  0  0  0  0
   -5.2600   -4.3490   -0.6450 H   0  0  0  0  0  0  0  0  0  0  0  0
  1 13  1  0  0  0  0
  2  1  1  0  0  0  0
  3  2  1  0  0  0  0
  3 14  1  0  0  0  0
  4  3  2  0  0  0  0
  5 11  2  0  0  0  0
  5  4  1  0  0  0  0
  6 16  1  0  0  0  0
  6  5  1  0  0  0  0
  7 18  1  6  0  0  0
  7  9  1  0  0  0  0
  7  6  1  0  0  0  0
  8  7  1  0  0  0  0
  8 20  1  0  0  0  0
  9 10  2  0  0  0  0
 11 12  1  0  0  0  0
 12 22  1  0  0  0  0
 12  2  2  0  0  0  0
 15  4  1  0  0  0  0
 17  6  1  0  0  0  0
 19  8  1  0  0  0  0
 21 11  1  0  0  0  0
 23 24  1  0  0  0  0
 24 25  2  0  0  0  0
 26 24  1  0  0  0  0
 26 34  1  0  0  0  0
 27 26  1  0  0  0  0
 27 37  1  0  0  0  0
 28 38  1  1  0  0  0
 28 27  1  0  0  0  0
 29 28  1  0  0  0  0
 29  9  1  0  0  0  0
 30 28  1  0  0  0  0
 31 30  2  0  0  0  0
 32 23  1  0  0  0  0
 33 23  1  0  0  0  0
 35 26  1  0  0  0  0
 36 27  1  0  0  0  0
 39 29  1  0  0  0  0
 40 30  1  0  0  0  0
 40 50  1  0  0  0  0
 41 51  1  6  0  0  0
 41 47  1  0  0  0  0
 41 40  1  0  0  0  0
 42 41  1  0  0  0  0
 42 53  1  0  0  0  0
 43 42  1  0  0  0  0
 43 54  1  0  0  0  0
 44 43  1  0  0  0  0
 44 45  1  0  0  0  0
 45 46  1  0  0  0  0
 45 58  1  0  0  0  0
 46 61  1  0  0  0  0
 47 49  1  0  0  0  0
 48 47  2  0  0  0  0
 52 42  1  0  0  0  0
 55 43  1  0  0  0  0
 56 44  1  0  0  0  0
 57 44  1  0  0  0  0
 59 45  1  0  0  0  0
 60 46  1  0  0  0  0
M  END
$$$$
