YQL.pdb
 OpenBabel07022419213D

 59 59  0  0  1  0  0  0  0  0999 V2000
    3.3510    3.4640    4.6560 O   0  0  0  0  0  0  0  0  0  0  0  0
    3.2070    2.2370    3.9840 C   0  0  0  0  0  0  0  0  0  0  0  0
    2.3150    1.2850    4.4120 C   0  0  0  0  0  0  0  0  0  0  0  0
    2.1970    0.0980    3.7340 C   0  0  0  0  0  0  0  0  0  0  0  0
    2.9620   -0.1790    2.6120 C   0  0  0  0  0  0  0  0  0  0  0  0
    2.9090   -1.4220    1.8340 C   0  0  0  0  0  0  0  0  0  0  0  0
    1.9740   -1.4420    0.6840 C   0  0  2  0  0  0  0  0  0  0  0  0
    2.2490   -0.4090   -0.3160 N   0  0  0  0  0  0  0  0  0  0  0  0
    0.5790   -1.4360    1.1050 C   0  0  0  0  0  0  0  0  0  0  0  0
    0.2440   -2.2660    2.0060 O   0  0  0  0  0  0  0  0  0  0  0  0
    3.8650    0.8080    2.1950 C   0  0  0  0  0  0  0  0  0  0  0  0
    3.9750    1.9890    2.8770 C   0  0  0  0  0  0  0  0  0  0  0  0
    2.5690    3.7680    5.2470 H   0  0  0  0  0  0  0  0  0  0  0  0
    1.7230    1.4860    5.2810 H   0  0  0  0  0  0  0  0  0  0  0  0
    1.5070   -0.6700    4.0430 H   0  0  0  0  0  0  0  0  0  0  0  0
    2.5520   -2.2250    2.5470 H   0  0  0  0  0  0  0  0  0  0  0  0
    3.9190   -1.7240    1.4450 H   0  0  0  0  0  0  0  0  0  0  0  0
    2.0970   -2.4090    0.0880 H   0  0  0  0  0  0  0  0  0  0  0  0
    3.2490   -0.3320   -0.5270 H   0  0  0  0  0  0  0  0  0  0  0  0
    1.6460   -0.6280   -1.1370 H   0  0  0  0  0  0  0  0  0  0  0  0
    4.4750    0.6210    1.3230 H   0  0  0  0  0  0  0  0  0  0  0  0
    4.6740    2.7650    2.5630 H   0  0  0  0  0  0  0  0  0  0  0  0
   -0.9760    0.9880    5.0000 N   0  0  0  0  0  0  0  0  0  0  0  0
   -1.5660    0.4980    3.8040 C   0  0  0  0  0  0  0  0  0  0  0  0
   -2.1550   -0.6060    3.8980 O   0  0  0  0  0  0  0  0  0  0  0  0
   -1.4370    1.3130    2.5870 C   0  0  0  0  0  0  0  0  0  0  0  0
   -2.1430    0.7750    1.3980 C   0  0  0  0  0  0  0  0  0  0  0  0
   -1.7050   -0.5550    0.9100 C   0  0  2  0  0  0  0  0  0  0  0  0
   -0.3370   -0.5410    0.5140 N   0  0  0  0  0  0  0  0  0  0  0  0
   -2.5270   -0.9990   -0.2850 C   0  0  0  0  0  0  0  0  0  0  0  0
   -3.7740   -1.0590   -0.1490 O   0  0  0  0  0  0  0  0  0  0  0  0
   -1.1070    1.9610    5.3450 H   0  0  0  0  0  0  0  0  0  0  0  0
   -0.3820    0.3410    5.5570 H   0  0  0  0  0  0  0  0  0  0  0  0
   -0.3300    1.4430    2.4160 H   0  0  0  0  0  0  0  0  0  0  0  0
   -1.8000    2.3330    2.8450 H   0  0  0  0  0  0  0  0  0  0  0  0
   -2.0780    1.5440    0.5790 H   0  0  0  0  0  0  0  0  0  0  0  0
   -3.2450    0.7820    1.6560 H   0  0  0  0  0  0  0  0  0  0  0  0
   -1.8910   -1.2970    1.7240 H   0  0  0  0  0  0  0  0  0  0  0  0
   -0.0080    0.1240   -0.2020 H   0  0  0  0  0  0  0  0  0  0  0  0
   -0.0660   -3.6190   -2.0230 C   0  0  0  0  0  0  0  0  0  0  0  0
   -0.9490   -3.7060   -3.2380 C   0  0  0  0  0  0  0  0  0  0  0  0
   -0.1990   -3.0550   -4.3850 C   0  0  0  0  0  0  0  0  0  0  0  0
   -2.3270   -3.1790   -3.0760 C   0  0  0  0  0  0  0  0  0  0  0  0
   -2.4960   -1.7540   -2.7290 C   0  0  2  0  0  0  0  0  0  0  0  0
   -1.9040   -1.3300   -1.4930 N   0  0  0  0  0  0  0  0  0  0  0  0
   -3.8760   -1.2900   -2.9920 C   0  0  0  0  0  0  0  0  0  0  0  0
   -4.5660   -0.5050   -2.3470 O   0  0  0  0  0  0  0  0  0  0  0  0
   -4.4880   -1.8280   -4.1500 O   0  0  0  0  0  0  0  0  0  0  0  0
    0.5140   -4.5930   -1.9550 H   0  0  0  0  0  0  0  0  0  0  0  0
    0.7410   -2.8590   -2.1290 H   0  0  0  0  0  0  0  0  0  0  0  0
   -0.6070   -3.5470   -1.0670 H   0  0  0  0  0  0  0  0  0  0  0  0
   -1.0190   -4.8040   -3.5090 H   0  0  0  0  0  0  0  0  0  0  0  0
   -0.8470   -2.8130   -5.2360 H   0  0  0  0  0  0  0  0  0  0  0  0
    0.5550   -3.7940   -4.7880 H   0  0  0  0  0  0  0  0  0  0  0  0
    0.4070   -2.2090   -4.0080 H   0  0  0  0  0  0  0  0  0  0  0  0
   -2.8250   -3.8100   -2.2860 H   0  0  0  0  0  0  0  0  0  0  0  0
   -2.8580   -3.3480   -4.0560 H   0  0  0  0  0  0  0  0  0  0  0  0
   -1.8770   -1.1420   -3.5150 H   0  0  0  0  0  0  0  0  0  0  0  0
   -0.8240   -1.2330   -1.4630 H   0  0  0  0  0  0  0  0  0  0  0  0
  1 13  1  0  0  0  0
  2  3  1  0  0  0  0
  2  1  1  0  0  0  0
  3 14  1  0  0  0  0
  4 15  1  0  0  0  0
  4  3  2  0  0  0  0
  5  4  1  0  0  0  0
  6 16  1  0  0  0  0
  6  5  1  0  0  0  0
  7 18  1  6  0  0  0
  7  9  1  0  0  0  0
  7  6  1  0  0  0  0
  8  7  1  0  0  0  0
  9 10  2  0  0  0  0
 11  5  2  0  0  0  0
 11 12  1  0  0  0  0
 12  2  2  0  0  0  0
 17  6  1  0  0  0  0
 19  8  1  0  0  0  0
 20  8  1  0  0  0  0
 21 11  1  0  0  0  0
 22 12  1  0  0  0  0
 23 32  1  0  0  0  0
 23 33  1  0  0  0  0
 24 25  2  0  0  0  0
 24 23  1  0  0  0  0
 26 35  1  0  0  0  0
 26 24  1  0  0  0  0
 27 37  1  0  0  0  0
 27 26  1  0  0  0  0
 28 27  1  0  0  0  0
 28 38  1  1  0  0  0
 29 28  1  0  0  0  0
 29  9  1  0  0  0  0
 30 31  2  0  0  0  0
 30 28  1  0  0  0  0
 34 26  1  0  0  0  0
 36 27  1  0  0  0  0
 39 29  1  0  0  0  0
 40 49  1  0  0  0  0
 40 51  1  0  0  0  0
 41 43  1  0  0  0  0
 41 40  1  0  0  0  0
 42 55  1  0  0  0  0
 42 41  1  0  0  0  0
 43 44  1  0  0  0  0
 43 56  1  0  0  0  0
 44 58  1  6  0  0  0
 44 45  1  0  0  0  0
 45 59  1  0  0  0  0
 45 30  1  0  0  0  0
 46 44  1  0  0  0  0
 46 47  1  0  0  0  0
 48 46  2  0  0  0  0
 50 40  1  0  0  0  0
 52 41  1  0  0  0  0
 53 42  1  0  0  0  0
 54 42  1  0  0  0  0
 57 43  1  0  0  0  0
M  END
$$$$
