YQM.pdb
 OpenBabel07022419213D

 57 57  0  0  1  0  0  0  0  0999 V2000
    3.1900   -2.5710    5.5990 O   0  0  0  0  0  0  0  0  0  0  0  0
    3.1710   -1.9520    4.3540 C   0  0  0  0  0  0  0  0  0  0  0  0
    2.1800   -2.2070    3.4240 C   0  0  0  0  0  0  0  0  0  0  0  0
    2.1710   -1.5860    2.1920 C   0  0  0  0  0  0  0  0  0  0  0  0
    3.1480   -0.6830    1.8270 C   0  0  0  0  0  0  0  0  0  0  0  0
    3.0450   -0.0750    0.4920 C   0  0  0  0  0  0  0  0  0  0  0  0
    2.2720    1.2020    0.4300 C   0  0  2  0  0  0  0  0  0  0  0  0
    2.9190    2.1890    1.3180 N   0  0  0  0  0  0  0  0  0  0  0  0
    0.8400    1.1460    0.6180 C   0  0  0  0  0  0  0  0  0  0  0  0
    0.3370    1.7540    1.6320 O   0  0  0  0  0  0  0  0  0  0  0  0
    4.1310   -0.4180    2.7270 C   0  0  0  0  0  0  0  0  0  0  0  0
    4.1290   -1.0410    3.9480 C   0  0  0  0  0  0  0  0  0  0  0  0
    2.3290   -2.4840    6.1640 H   0  0  0  0  0  0  0  0  0  0  0  0
    1.4160   -2.9210    3.7230 H   0  0  0  0  0  0  0  0  0  0  0  0
    1.3570   -1.8260    1.4860 H   0  0  0  0  0  0  0  0  0  0  0  0
    4.0790    0.1520    0.1580 H   0  0  0  0  0  0  0  0  0  0  0  0
    2.6160   -0.7850   -0.2180 H   0  0  0  0  0  0  0  0  0  0  0  0
    2.4670    1.6150   -0.5940 H   0  0  0  0  0  0  0  0  0  0  0  0
    3.9530    2.0930    1.1500 H   0  0  0  0  0  0  0  0  0  0  0  0
    2.5870    3.1320    0.9550 H   0  0  0  0  0  0  0  0  0  0  0  0
    4.9060    0.2660    2.5020 H   0  0  0  0  0  0  0  0  0  0  0  0
    4.9120   -0.8470    4.6990 H   0  0  0  0  0  0  0  0  0  0  0  0
   -1.6840    4.8700    0.2540 N   0  0  0  0  0  0  0  0  0  0  0  0
   -2.0990    3.4910    0.2660 C   0  0  0  0  0  0  0  0  0  0  0  0
   -2.5810    3.0400    1.3210 O   0  0  0  0  0  0  0  0  0  0  0  0
   -1.9080    2.7500   -0.9890 C   0  0  0  0  0  0  0  0  0  0  0  0
   -2.2750    1.3190   -0.9650 C   0  0  0  0  0  0  0  0  0  0  0  0
   -1.5000    0.4750    0.0290 C   0  0  2  0  0  0  0  0  0  0  0  0
   -0.0970    0.4850   -0.2120 N   0  0  0  0  0  0  0  0  0  0  0  0
   -2.0080   -0.9150    0.0260 C   0  0  0  0  0  0  0  0  0  0  0  0
   -3.2430   -1.1360    0.2200 O   0  0  0  0  0  0  0  0  0  0  0  0
   -2.1280    5.5670    0.9110 H   0  0  0  0  0  0  0  0  0  0  0  0
   -0.9530    5.2410   -0.3760 H   0  0  0  0  0  0  0  0  0  0  0  0
   -0.8780    2.9590   -1.3380 H   0  0  0  0  0  0  0  0  0  0  0  0
   -2.5730    3.2540   -1.7500 H   0  0  0  0  0  0  0  0  0  0  0  0
   -2.1100    0.8560   -1.9580 H   0  0  0  0  0  0  0  0  0  0  0  0
   -3.3640    1.2410   -0.7710 H   0  0  0  0  0  0  0  0  0  0  0  0
   -1.7480    0.9110    1.0260 H   0  0  0  0  0  0  0  0  0  0  0  0
    0.2900   -0.0070   -1.0390 H   0  0  0  0  0  0  0  0  0  0  0  0
   -3.8000   -2.6360   -2.6650 C   0  0  0  0  0  0  0  0  0  0  0  0
   -2.7570   -3.9660   -3.2740 S   0  0  0  0  0  0  0  0  0  0  0  0
   -1.0860   -3.9310   -2.6550 C   0  0  0  0  0  0  0  0  0  0  0  0
   -0.9560   -4.2600   -1.2210 C   0  0  0  0  0  0  0  0  0  0  0  0
   -1.6000   -3.4010   -0.2130 C   0  0  2  0  0  0  0  0  0  0  0  0
   -1.1650   -2.0200   -0.1890 N   0  0  0  0  0  0  0  0  0  0  0  0
   -1.3630   -4.0380    1.1340 C   0  0  0  0  0  0  0  0  0  0  0  0
   -0.8620   -3.3190    2.0300 O   0  0  0  0  0  0  0  0  0  0  0  0
   -1.6750   -5.3440    1.3860 O   0  0  0  0  0  0  0  0  0  0  0  0
   -4.4260   -2.9800   -1.8270 H   0  0  0  0  0  0  0  0  0  0  0  0
   -3.1510   -1.7780   -2.4350 H   0  0  0  0  0  0  0  0  0  0  0  0
   -4.4470   -2.3030   -3.5230 H   0  0  0  0  0  0  0  0  0  0  0  0
   -0.4960   -4.7220   -3.2220 H   0  0  0  0  0  0  0  0  0  0  0  0
   -0.5680   -2.9740   -2.9360 H   0  0  0  0  0  0  0  0  0  0  0  0
   -1.4130   -5.2970   -1.0920 H   0  0  0  0  0  0  0  0  0  0  0  0
    0.1370   -4.4560   -0.9930 H   0  0  0  0  0  0  0  0  0  0  0  0
   -2.6980   -3.4180   -0.3180 H   0  0  0  0  0  0  0  0  0  0  0  0
   -0.1510   -1.8510   -0.3470 H   0  0  0  0  0  0  0  0  0  0  0  0
  1 13  1  0  0  0  0
  2  1  1  0  0  0  0
  3 14  1  0  0  0  0
  3  2  2  0  0  0  0
  4  3  1  0  0  0  0
  5  4  2  0  0  0  0
  5 11  1  0  0  0  0
  6  5  1  0  0  0  0
  7 18  1  6  0  0  0
  7  6  1  0  0  0  0
  7  9  1  0  0  0  0
  7  8  1  0  0  0  0
  9 10  2  0  0  0  0
 11 12  2  0  0  0  0
 12  2  1  0  0  0  0
 12 22  1  0  0  0  0
 15  4  1  0  0  0  0
 16  6  1  0  0  0  0
 17  6  1  0  0  0  0
 19  8  1  0  0  0  0
 20  8  1  0  0  0  0
 21 11  1  0  0  0  0
 23 24  1  0  0  0  0
 23 32  1  0  0  0  0
 24 25  2  0  0  0  0
 26 27  1  0  0  0  0
 26 24  1  0  0  0  0
 27 37  1  0  0  0  0
 27 28  1  0  0  0  0
 28 38  1  1  0  0  0
 29 28  1  0  0  0  0
 29  9  1  0  0  0  0
 30 28  1  0  0  0  0
 30 31  2  0  0  0  0
 33 23  1  0  0  0  0
 34 26  1  0  0  0  0
 35 26  1  0  0  0  0
 36 27  1  0  0  0  0
 39 29  1  0  0  0  0
 40 50  1  0  0  0  0
 40 49  1  0  0  0  0
 41 40  1  0  0  0  0
 41 42  1  0  0  0  0
 42 43  1  0  0  0  0
 43 54  1  0  0  0  0
 43 55  1  0  0  0  0
 43 44  1  0  0  0  0
 44 56  1  6  0  0  0
 44 45  1  0  0  0  0
 44 46  1  0  0  0  0
 45 30  1  0  0  0  0
 46 48  2  0  0  0  0
 46 47  1  0  0  0  0
 51 40  1  0  0  0  0
 52 42  1  0  0  0  0
 53 42  1  0  0  0  0
 57 45  1  0  0  0  0
M  END
$$$$
