YQN.pdb
 OpenBabel07022419213D

 54 54  0  0  1  0  0  0  0  0999 V2000
    1.8130    1.6440    7.3360 O   0  0  0  0  0  0  0  0  0  0  0  0
    2.0700    1.0380    6.1140 C   0  0  0  0  0  0  0  0  0  0  0  0
    2.4260   -0.2930    6.0470 C   0  0  0  0  0  0  0  0  0  0  0  0
    2.6860   -0.9160    4.8430 C   0  0  0  0  0  0  0  0  0  0  0  0
    2.5980   -0.2210    3.6400 C   0  0  0  0  0  0  0  0  0  0  0  0
    2.8920   -0.9230    2.3670 C   0  0  0  0  0  0  0  0  0  0  0  0
    1.6890   -1.6030    1.7620 C   0  0  2  0  0  0  0  0  0  0  0  0
    2.1410   -2.2310    0.5360 N   0  0  0  0  0  0  0  0  0  0  0  0
    0.6100   -0.6390    1.5490 C   0  0  0  0  0  0  0  0  0  0  0  0
    0.0600   -0.0380    2.4820 O   0  0  0  0  0  0  0  0  0  0  0  0
    2.2410    1.1070    3.7190 C   0  0  0  0  0  0  0  0  0  0  0  0
    1.9780    1.7420    4.9320 C   0  0  0  0  0  0  0  0  0  0  0  0
    0.9330    2.1650    7.4770 H   0  0  0  0  0  0  0  0  0  0  0  0
    2.4940   -0.8340    6.9870 H   0  0  0  0  0  0  0  0  0  0  0  0
    2.9670   -1.9670    4.7960 H   0  0  0  0  0  0  0  0  0  0  0  0
    3.7130   -1.6520    2.5780 H   0  0  0  0  0  0  0  0  0  0  0  0
    3.3190   -0.1730    1.6810 H   0  0  0  0  0  0  0  0  0  0  0  0
    1.3200   -2.4190    2.4200 H   0  0  0  0  0  0  0  0  0  0  0  0
    1.3920   -2.6390   -0.0290 H   0  0  0  0  0  0  0  0  0  0  0  0
    2.8690   -1.7100    0.0370 H   0  0  0  0  0  0  0  0  0  0  0  0
    2.1730    1.6640    2.7820 H   0  0  0  0  0  0  0  0  0  0  0  0
    1.7020    2.7820    4.9490 H   0  0  0  0  0  0  0  0  0  0  0  0
    0.6660    2.9060   -4.1820 N   0  0  0  0  0  0  0  0  0  0  0  0
    0.1750    2.8290   -2.8620 C   0  0  0  0  0  0  0  0  0  0  0  0
   -0.0290    3.8910   -2.2360 O   0  0  0  0  0  0  0  0  0  0  0  0
   -0.1050    1.5380   -2.1970 C   0  0  0  0  0  0  0  0  0  0  0  0
   -0.6070    1.8030   -0.8240 C   0  0  0  0  0  0  0  0  0  0  0  0
   -0.9400    0.6110   -0.0090 C   0  0  2  0  0  0  0  0  0  0  0  0
    0.1010   -0.3120    0.2510 N   0  0  0  0  0  0  0  0  0  0  0  0
   -2.1310   -0.1290   -0.5100 C   0  0  0  0  0  0  0  0  0  0  0  0
   -3.2140    0.4310   -0.8240 O   0  0  0  0  0  0  0  0  0  0  0  0
    0.0600    3.2820   -4.9310 H   0  0  0  0  0  0  0  0  0  0  0  0
    1.6230    2.5920   -4.4130 H   0  0  0  0  0  0  0  0  0  0  0  0
    0.8290    0.9510   -2.2470 H   0  0  0  0  0  0  0  0  0  0  0  0
   -0.8280    1.0030   -2.8450 H   0  0  0  0  0  0  0  0  0  0  0  0
   -1.5520    2.3880   -0.9610 H   0  0  0  0  0  0  0  0  0  0  0  0
    0.0760    2.4720   -0.2990 H   0  0  0  0  0  0  0  0  0  0  0  0
   -1.2580    1.0030    1.0080 H   0  0  0  0  0  0  0  0  0  0  0  0
    0.5470   -0.8050   -0.5590 H   0  0  0  0  0  0  0  0  0  0  0  0
   -1.3680   -4.8550   -3.2100 N   0  0  0  0  0  0  0  0  0  0  0  0
   -1.8130   -4.0620   -2.1130 C   0  0  0  0  0  0  0  0  0  0  0  0
   -1.2580   -4.2670   -1.0070 O   0  0  0  0  0  0  0  0  0  0  0  0
   -2.8710   -3.0830   -2.3580 C   0  0  0  0  0  0  0  0  0  0  0  0
   -3.2680   -2.2900   -1.1560 C   0  0  2  0  0  0  0  0  0  0  0  0
   -2.0990   -1.5460   -0.6620 N   0  0  0  0  0  0  0  0  0  0  0  0
   -3.6670   -3.2500   -0.0960 C   0  0  0  0  0  0  0  0  0  0  0  0
   -3.0500   -3.3350    0.9940 O   0  0  0  0  0  0  0  0  0  0  0  0
   -4.7510   -4.0920   -0.2870 O   0  0  0  0  0  0  0  0  0  0  0  0
   -0.3960   -4.7440   -3.5800 H   0  0  0  0  0  0  0  0  0  0  0  0
   -2.0570   -5.5310   -3.6060 H   0  0  0  0  0  0  0  0  0  0  0  0
   -3.7730   -3.6520   -2.7130 H   0  0  0  0  0  0  0  0  0  0  0  0
   -2.6370   -2.3730   -3.1770 H   0  0  0  0  0  0  0  0  0  0  0  0
   -4.1060   -1.6190   -1.3660 H   0  0  0  0  0  0  0  0  0  0  0  0
   -1.2110   -2.0220   -0.4070 H   0  0  0  0  0  0  0  0  0  0  0  0
  1 13  1  0  0  0  0
  2  1  1  0  0  0  0
  3  2  1  0  0  0  0
  3 14  1  0  0  0  0
  4  3  2  0  0  0  0
  5 11  2  0  0  0  0
  5  4  1  0  0  0  0
  6 16  1  0  0  0  0
  6  5  1  0  0  0  0
  7  6  1  0  0  0  0
  7 18  1  1  0  0  0
  8  7  1  0  0  0  0
  9  7  1  0  0  0  0
  9 10  2  0  0  0  0
 11 12  1  0  0  0  0
 12 22  1  0  0  0  0
 12  2  2  0  0  0  0
 15  4  1  0  0  0  0
 17  6  1  0  0  0  0
 19  8  1  0  0  0  0
 20  8  1  0  0  0  0
 21 11  1  0  0  0  0
 23 24  1  0  0  0  0
 24 25  2  0  0  0  0
 24 26  1  0  0  0  0
 26 27  1  0  0  0  0
 27 37  1  0  0  0  0
 27 28  1  0  0  0  0
 28 29  1  0  0  0  0
 28 38  1  1  0  0  0
 29  9  1  0  0  0  0
 30 28  1  0  0  0  0
 31 30  2  0  0  0  0
 32 23  1  0  0  0  0
 33 23  1  0  0  0  0
 34 26  1  0  0  0  0
 35 26  1  0  0  0  0
 36 27  1  0  0  0  0
 39 29  1  0  0  0  0
 40 41  1  0  0  0  0
 41 42  2  0  0  0  0
 43 41  1  0  0  0  0
 43 44  1  0  0  0  0
 44 53  1  6  0  0  0
 44 45  1  0  0  0  0
 44 46  1  0  0  0  0
 45 30  1  0  0  0  0
 45 54  1  0  0  0  0
 46 47  1  0  0  0  0
 48 46  2  0  0  0  0
 49 40  1  0  0  0  0
 50 40  1  0  0  0  0
 51 43  1  0  0  0  0
 52 43  1  0  0  0  0
M  END
$$$$
