YQP.pdb
 OpenBabel07022419213D

 54 55  0  0  1  0  0  0  0  0999 V2000
    0.9080   -2.2780    5.7690 O   0  0  0  0  0  0  0  0  0  0  0  0
    1.4890   -2.5390    4.5510 C   0  0  0  0  0  0  0  0  0  0  0  0
    0.7430   -3.1660    3.5600 C   0  0  0  0  0  0  0  0  0  0  0  0
    1.3240   -3.4290    2.3380 C   0  0  0  0  0  0  0  0  0  0  0  0
    2.6180   -3.1040    2.0280 C   0  0  0  0  0  0  0  0  0  0  0  0
    3.2680   -3.3710    0.7350 C   0  0  0  0  0  0  0  0  0  0  0  0
    3.0900   -2.2160   -0.2270 C   0  0  2  0  0  0  0  0  0  0  0  0
    3.6880   -1.0450    0.3860 N   0  0  0  0  0  0  0  0  0  0  0  0
    1.6210   -2.0350   -0.4170 C   0  0  0  0  0  0  0  0  0  0  0  0
    0.9410   -2.9710   -0.9590 O   0  0  0  0  0  0  0  0  0  0  0  0
    3.3450   -2.4750    3.0420 C   0  0  0  0  0  0  0  0  0  0  0  0
    2.7900   -2.2010    4.2710 C   0  0  0  0  0  0  0  0  0  0  0  0
    0.7740   -2.9710    6.4950 H   0  0  0  0  0  0  0  0  0  0  0  0
   -0.2720   -3.4230    3.7950 H   0  0  0  0  0  0  0  0  0  0  0  0
    0.7060   -3.9190    1.5990 H   0  0  0  0  0  0  0  0  0  0  0  0
    4.3450   -3.5640    0.9430 H   0  0  0  0  0  0  0  0  0  0  0  0
    2.7650   -4.2500    0.2750 H   0  0  0  0  0  0  0  0  0  0  0  0
    3.5950   -2.4530   -1.1870 H   0  0  0  0  0  0  0  0  0  0  0  0
    3.8650   -0.2790   -0.2700 H   0  0  0  0  0  0  0  0  0  0  0  0
    3.2310   -0.7850    1.2650 H   0  0  0  0  0  0  0  0  0  0  0  0
    4.3760   -2.1860    2.8770 H   0  0  0  0  0  0  0  0  0  0  0  0
    3.3550   -1.7140    5.0540 H   0  0  0  0  0  0  0  0  0  0  0  0
   -0.1030    2.6750    2.4560 N   0  0  0  0  0  0  0  0  0  0  0  0
   -0.9330    1.6680    1.8590 C   0  0  0  0  0  0  0  0  0  0  0  0
   -1.8290    2.0700    1.1080 O   0  0  0  0  0  0  0  0  0  0  0  0
   -0.7110    0.2700    2.1470 C   0  0  0  0  0  0  0  0  0  0  0  0
   -1.1690   -0.7100    1.1450 C   0  0  0  0  0  0  0  0  0  0  0  0
   -0.5240   -0.6820   -0.2110 C   0  0  2  0  0  0  0  0  0  0  0  0
    0.9440   -0.8560   -0.0180 N   0  0  0  0  0  0  0  0  0  0  0  0
   -0.8380    0.4920   -0.9740 C   0  0  0  0  0  0  0  0  0  0  0  0
    0.1960    1.2990   -1.0680 O   0  0  0  0  0  0  0  0  0  0  0  0
   -0.5440    3.5490    2.7860 H   0  0  0  0  0  0  0  0  0  0  0  0
    0.9230    2.5420    2.5600 H   0  0  0  0  0  0  0  0  0  0  0  0
   -1.3220    0.0480    3.0910 H   0  0  0  0  0  0  0  0  0  0  0  0
    0.3360    0.0590    2.5170 H   0  0  0  0  0  0  0  0  0  0  0  0
   -1.0850   -1.7300    1.6180 H   0  0  0  0  0  0  0  0  0  0  0  0
   -2.2900   -0.5690    1.0610 H   0  0  0  0  0  0  0  0  0  0  0  0
   -0.8060   -1.6490   -0.6930 H   0  0  0  0  0  0  0  0  0  0  0  0
    1.5140   -0.1020    0.4210 H   0  0  0  0  0  0  0  0  0  0  0  0
   -1.9920    0.9330   -1.6220 N   0  0  0  0  0  0  0  0  0  0  0  0
   -1.9630    2.2880   -2.2950 C   0  0  0  0  0  0  0  0  0  0  0  0
   -2.2500    1.8230   -3.7060 C   0  0  0  0  0  0  0  0  0  0  0  0
   -3.3250    0.7860   -3.4750 C   0  0  0  0  0  0  0  0  0  0  0  0
   -3.3070    0.5850   -1.9410 C   0  0  1  0  0  0  0  0  0  0  0  0
   -3.9590   -0.6260   -1.5730 C   0  0  0  0  0  0  0  0  0  0  0  0
   -5.2410   -0.7140   -1.7610 O   0  0  0  0  0  0  0  0  0  0  0  0
   -3.3890   -1.7220   -1.0400 O   0  0  0  0  0  0  0  0  0  0  0  0
   -1.0130    2.7810   -2.1650 H   0  0  0  0  0  0  0  0  0  0  0  0
   -2.8330    2.8270   -1.8630 H   0  0  0  0  0  0  0  0  0  0  0  0
   -2.5670    2.6300   -4.3770 H   0  0  0  0  0  0  0  0  0  0  0  0
   -1.3160    1.3150   -4.0630 H   0  0  0  0  0  0  0  0  0  0  0  0
   -4.2920    1.2080   -3.7910 H   0  0  0  0  0  0  0  0  0  0  0  0
   -3.1380   -0.1540   -4.0000 H   0  0  0  0  0  0  0  0  0  0  0  0
   -3.9810    1.4440   -1.5930 H   0  0  0  0  0  0  0  0  0  0  0  0
  1 13  1  0  0  0  0
  2  1  1  0  0  0  0
  3 14  1  0  0  0  0
  3  2  2  0  0  0  0
  4  3  1  0  0  0  0
  5  4  2  0  0  0  0
  5 11  1  0  0  0  0
  6 16  1  0  0  0  0
  6  5  1  0  0  0  0
  7 18  1  6  0  0  0
  7  8  1  0  0  0  0
  7  6  1  0  0  0  0
  8 20  1  0  0  0  0
  9  7  1  0  0  0  0
  9 29  1  0  0  0  0
 10  9  2  0  0  0  0
 11 12  2  0  0  0  0
 12  2  1  0  0  0  0
 12 22  1  0  0  0  0
 15  4  1  0  0  0  0
 17  6  1  0  0  0  0
 19  8  1  0  0  0  0
 21 11  1  0  0  0  0
 23 33  1  0  0  0  0
 23 32  1  0  0  0  0
 24 26  1  0  0  0  0
 24 23  1  0  0  0  0
 25 24  2  0  0  0  0
 26 35  1  0  0  0  0
 26 34  1  0  0  0  0
 27 36  1  0  0  0  0
 27 26  1  0  0  0  0
 28 38  1  6  0  0  0
 28 29  1  0  0  0  0
 28 27  1  0  0  0  0
 29 39  1  0  0  0  0
 30 28  1  0  0  0  0
 31 30  2  0  0  0  0
 37 27  1  0  0  0  0
 40 30  1  0  0  0  0
 41 48  1  0  0  0  0
 41 49  1  0  0  0  0
 41 40  1  0  0  0  0
 42 43  1  0  0  0  0
 42 41  1  0  0  0  0
 43 44  1  0  0  0  0
 44 40  1  0  0  0  0
 44 54  1  1  0  0  0
 44 45  1  0  0  0  0
 45 47  1  0  0  0  0
 46 45  2  0  0  0  0
 50 42  1  0  0  0  0
 51 42  1  0  0  0  0
 52 43  1  0  0  0  0
 53 43  1  0  0  0  0
M  END
$$$$
