YQQ.pdb
 OpenBabel07022419213D

 57 57  0  0  1  0  0  0  0  0999 V2000
    1.9140    1.7480    6.1130 O   0  0  0  0  0  0  0  0  0  0  0  0
    2.1480    0.6390    5.2940 C   0  0  0  0  0  0  0  0  0  0  0  0
    1.1870   -0.3250    5.0810 C   0  0  0  0  0  0  0  0  0  0  0  0
    1.3810   -1.4260    4.2830 C   0  0  0  0  0  0  0  0  0  0  0  0
    2.5980   -1.6120    3.6420 C   0  0  0  0  0  0  0  0  0  0  0  0
    2.8400   -2.7960    2.7770 C   0  0  0  0  0  0  0  0  0  0  0  0
    2.4930   -2.5580    1.3240 C   0  0  2  0  0  0  0  0  0  0  0  0
    3.2850   -1.4900    0.7990 N   0  0  0  0  0  0  0  0  0  0  0  0
    1.0610   -2.2890    1.0970 C   0  0  0  0  0  0  0  0  0  0  0  0
    0.1670   -3.0650    1.5360 O   0  0  0  0  0  0  0  0  0  0  0  0
    3.5630   -0.6500    3.8510 C   0  0  0  0  0  0  0  0  0  0  0  0
    3.3530    0.4470    4.6530 C   0  0  0  0  0  0  0  0  0  0  0  0
    1.5690    1.6350    7.0720 H   0  0  0  0  0  0  0  0  0  0  0  0
    0.2350   -0.1510    5.6020 H   0  0  0  0  0  0  0  0  0  0  0  0
    0.5840   -2.1420    4.1610 H   0  0  0  0  0  0  0  0  0  0  0  0
    2.2390   -3.6310    3.1780 H   0  0  0  0  0  0  0  0  0  0  0  0
    3.9270   -3.0050    2.8190 H   0  0  0  0  0  0  0  0  0  0  0  0
    2.8150   -3.4740    0.7150 H   0  0  0  0  0  0  0  0  0  0  0  0
    3.2500   -1.3200   -0.2010 H   0  0  0  0  0  0  0  0  0  0  0  0
    3.2270   -0.6370    1.3410 H   0  0  0  0  0  0  0  0  0  0  0  0
    4.5310   -0.7830    3.3500 H   0  0  0  0  0  0  0  0  0  0  0  0
    4.1180    1.1950    4.8090 H   0  0  0  0  0  0  0  0  0  0  0  0
    1.7280    2.7290    0.7390 N   0  0  0  0  0  0  0  0  0  0  0  0
    0.8130    1.7650    1.2320 C   0  0  0  0  0  0  0  0  0  0  0  0
    1.2060    0.9840    2.1260 O   0  0  0  0  0  0  0  0  0  0  0  0
   -0.5660    1.6620    0.7340 C   0  0  0  0  0  0  0  0  0  0  0  0
   -1.2190    0.3410    0.8530 C   0  0  0  0  0  0  0  0  0  0  0  0
   -0.6960   -0.7990    0.0860 C   0  0  2  0  0  0  0  0  0  0  0  0
    0.6630   -1.1420    0.3680 N   0  0  0  0  0  0  0  0  0  0  0  0
   -0.9710   -0.7200   -1.3740 C   0  0  0  0  0  0  0  0  0  0  0  0
   -0.0790   -0.9370   -2.2310 O   0  0  0  0  0  0  0  0  0  0  0  0
    2.6790    2.4810    0.3720 H   0  0  0  0  0  0  0  0  0  0  0  0
    1.4950    3.7520    0.7170 H   0  0  0  0  0  0  0  0  0  0  0  0
   -0.6820    2.1250   -0.2790 H   0  0  0  0  0  0  0  0  0  0  0  0
   -1.1730    2.3670    1.3880 H   0  0  0  0  0  0  0  0  0  0  0  0
   -1.1310    0.0510    1.9530 H   0  0  0  0  0  0  0  0  0  0  0  0
   -2.3250    0.4780    0.7370 H   0  0  0  0  0  0  0  0  0  0  0  0
   -1.2960   -1.7050    0.4480 H   0  0  0  0  0  0  0  0  0  0  0  0
    1.4110   -0.5230   -0.0030 H   0  0  0  0  0  0  0  0  0  0  0  0
   -1.9830   -4.4230   -2.1550 N   0  0  0  0  0  0  0  0  0  0  0  0
   -2.8270   -3.2880   -2.3470 C   0  0  0  0  0  0  0  0  0  0  0  0
   -3.3730   -2.8150   -1.3320 O   0  0  0  0  0  0  0  0  0  0  0  0
   -3.0080   -2.7550   -3.6810 C   0  0  0  0  0  0  0  0  0  0  0  0
   -3.5020   -1.3500   -3.8140 C   0  0  0  0  0  0  0  0  0  0  0  0
   -2.5760   -0.3040   -3.2650 C   0  0  2  0  0  0  0  0  0  0  0  0
   -2.2740   -0.3900   -1.8650 N   0  0  0  0  0  0  0  0  0  0  0  0
   -3.0100    1.0680   -3.6540 C   0  0  0  0  0  0  0  0  0  0  0  0
   -3.3160    1.3380   -4.8340 O   0  0  0  0  0  0  0  0  0  0  0  0
   -3.0790    2.0670   -2.7050 O   0  0  0  0  0  0  0  0  0  0  0  0
   -1.1460   -4.3710   -1.5300 H   0  0  0  0  0  0  0  0  0  0  0  0
   -2.1470   -5.3450   -2.6140 H   0  0  0  0  0  0  0  0  0  0  0  0
   -2.0710   -2.9130   -4.3070 H   0  0  0  0  0  0  0  0  0  0  0  0
   -3.7620   -3.3990   -4.2350 H   0  0  0  0  0  0  0  0  0  0  0  0
   -3.5850   -1.1530   -4.9130 H   0  0  0  0  0  0  0  0  0  0  0  0
   -4.5100   -1.3000   -3.3320 H   0  0  0  0  0  0  0  0  0  0  0  0
   -1.5890   -0.4960   -3.8080 H   0  0  0  0  0  0  0  0  0  0  0  0
   -3.0100   -0.1920   -1.1200 H   0  0  0  0  0  0  0  0  0  0  0  0
  1 13  1  0  0  0  0
  2  1  1  0  0  0  0
  3  2  1  0  0  0  0
  3 14  1  0  0  0  0
  4  3  2  0  0  0  0
  5 11  2  0  0  0  0
  5  4  1  0  0  0  0
  6 17  1  0  0  0  0
  6 16  1  0  0  0  0
  6  5  1  0  0  0  0
  7 18  1  6  0  0  0
  7  6  1  0  0  0  0
  8  7  1  0  0  0  0
  8 20  1  0  0  0  0
  9  7  1  0  0  0  0
  9 10  2  0  0  0  0
 11 12  1  0  0  0  0
 12 22  1  0  0  0  0
 12  2  2  0  0  0  0
 15  4  1  0  0  0  0
 19  8  1  0  0  0  0
 21 11  1  0  0  0  0
 23 24  1  0  0  0  0
 24 25  2  0  0  0  0
 26 27  1  0  0  0  0
 26 24  1  0  0  0  0
 26 35  1  0  0  0  0
 27 36  1  0  0  0  0
 28 29  1  0  0  0  0
 28 38  1  1  0  0  0
 28 27  1  0  0  0  0
 29  9  1  0  0  0  0
 30 28  1  0  0  0  0
 31 30  2  0  0  0  0
 32 23  1  0  0  0  0
 33 23  1  0  0  0  0
 34 26  1  0  0  0  0
 37 27  1  0  0  0  0
 39 29  1  0  0  0  0
 40 50  1  0  0  0  0
 41 40  1  0  0  0  0
 41 42  2  0  0  0  0
 43 41  1  0  0  0  0
 44 43  1  0  0  0  0
 44 55  1  0  0  0  0
 44 45  1  0  0  0  0
 45 56  1  6  0  0  0
 45 46  1  0  0  0  0
 46 30  1  0  0  0  0
 46 57  1  0  0  0  0
 47 45  1  0  0  0  0
 47 49  1  0  0  0  0
 48 47  2  0  0  0  0
 51 40  1  0  0  0  0
 52 43  1  0  0  0  0
 53 43  1  0  0  0  0
 54 44  1  0  0  0  0
M  END
$$$$
