YQR.pdb
 OpenBabel07022419213D

 63 63  0  0  1  0  0  0  0  0999 V2000
    3.7450    2.0240    4.8310 O   0  0  0  0  0  0  0  0  0  0  0  0
    3.6130    1.1820    3.7130 C   0  0  0  0  0  0  0  0  0  0  0  0
    2.3320    0.8630    3.2990 C   0  0  0  0  0  0  0  0  0  0  0  0
    2.1560    0.0320    2.1950 C   0  0  0  0  0  0  0  0  0  0  0  0
    3.2200   -0.4890    1.4950 C   0  0  0  0  0  0  0  0  0  0  0  0
    2.9580   -1.3630    0.3450 C   0  0  0  0  0  0  0  0  0  0  0  0
    2.8010   -0.6030   -0.9470 C   0  0  2  0  0  0  0  0  0  0  0  0
    3.9710    0.1740   -1.2690 N   0  0  0  0  0  0  0  0  0  0  0  0
    1.6090    0.2500   -1.0180 C   0  0  0  0  0  0  0  0  0  0  0  0
    1.7430    1.4910   -1.1780 O   0  0  0  0  0  0  0  0  0  0  0  0
    4.4840   -0.1500    1.9340 C   0  0  0  0  0  0  0  0  0  0  0  0
    4.6680    0.6720    3.0260 C   0  0  0  0  0  0  0  0  0  0  0  0
    3.0250    2.7230    4.9690 H   0  0  0  0  0  0  0  0  0  0  0  0
    1.4970    1.2760    3.8550 H   0  0  0  0  0  0  0  0  0  0  0  0
    1.1280   -0.1700    1.9300 H   0  0  0  0  0  0  0  0  0  0  0  0
    3.8440   -2.0270    0.2180 H   0  0  0  0  0  0  0  0  0  0  0  0
    2.0920   -1.9900    0.5540 H   0  0  0  0  0  0  0  0  0  0  0  0
    2.7020   -1.3490   -1.7950 H   0  0  0  0  0  0  0  0  0  0  0  0
    4.1900    0.7420   -0.4130 H   0  0  0  0  0  0  0  0  0  0  0  0
    4.8200   -0.4080   -1.4400 H   0  0  0  0  0  0  0  0  0  0  0  0
    5.3460   -0.5610    1.3830 H   0  0  0  0  0  0  0  0  0  0  0  0
    5.6740    0.9380    3.3720 H   0  0  0  0  0  0  0  0  0  0  0  0
   -3.3870    3.8180   -2.7020 N   0  0  0  0  0  0  0  0  0  0  0  0
   -2.3570    2.8440   -2.5710 C   0  0  0  0  0  0  0  0  0  0  0  0
   -1.1970    3.3020   -2.4120 O   0  0  0  0  0  0  0  0  0  0  0  0
   -2.6470    1.3960   -2.6200 C   0  0  0  0  0  0  0  0  0  0  0  0
   -1.5000    0.5000   -2.3690 C   0  0  0  0  0  0  0  0  0  0  0  0
   -0.8280    0.6530   -1.0120 C   0  0  2  0  0  0  0  0  0  0  0  0
    0.2790   -0.2880   -0.9140 N   0  0  0  0  0  0  0  0  0  0  0  0
   -1.7940    0.3640    0.0520 C   0  0  0  0  0  0  0  0  0  0  0  0
   -2.8410    1.0720    0.1190 O   0  0  0  0  0  0  0  0  0  0  0  0
   -3.3050    4.5310   -3.4530 H   0  0  0  0  0  0  0  0  0  0  0  0
   -4.2170    3.8490   -2.0820 H   0  0  0  0  0  0  0  0  0  0  0  0
   -2.9470    1.2160   -3.7120 H   0  0  0  0  0  0  0  0  0  0  0  0
   -3.5600    1.1910   -2.0250 H   0  0  0  0  0  0  0  0  0  0  0  0
   -0.7560    0.6450   -3.1870 H   0  0  0  0  0  0  0  0  0  0  0  0
   -1.8530   -0.5430   -2.4240 H   0  0  0  0  0  0  0  0  0  0  0  0
   -0.4370    1.6800   -0.9810 H   0  0  0  0  0  0  0  0  0  0  0  0
    0.1760   -1.3100   -0.7810 H   0  0  0  0  0  0  0  0  0  0  0  0
   -1.3300   -4.4750   -2.3450 N   0  0  0  0  0  0  0  0  0  0  0  0
   -0.9120   -4.3120   -0.9980 C   0  0  0  0  0  0  0  0  0  0  0  0
    0.3390   -4.5140   -0.7100 N   0  0  0  0  0  0  0  0  0  0  0  0
   -1.8610   -3.9380   -0.0170 N   0  0  0  0  0  0  0  0  0  0  0  0
   -1.4860   -3.8140    1.3750 C   0  0  0  0  0  0  0  0  0  0  0  0
   -2.6090   -3.4150    2.2560 C   0  0  0  0  0  0  0  0  0  0  0  0
   -3.3510   -2.1800    1.9980 C   0  0  0  0  0  0  0  0  0  0  0  0
   -2.6510   -0.8590    1.9970 C   0  0  2  0  0  0  0  0  0  0  0  0
   -1.6430   -0.6600    1.0240 N   0  0  0  0  0  0  0  0  0  0  0  0
   -2.1980   -0.4910    3.3850 C   0  0  0  0  0  0  0  0  0  0  0  0
   -3.0060   -0.6410    4.3260 O   0  0  0  0  0  0  0  0  0  0  0  0
   -0.9500    0.0000    3.6660 O   0  0  0  0  0  0  0  0  0  0  0  0
   -0.6580   -4.5860   -3.1330 H   0  0  0  0  0  0  0  0  0  0  0  0
   -2.3460   -4.4890   -2.5860 H   0  0  0  0  0  0  0  0  0  0  0  0
    1.0210   -4.7870   -1.4360 H   0  0  0  0  0  0  0  0  0  0  0  0
   -2.8470   -3.7480   -0.2890 H   0  0  0  0  0  0  0  0  0  0  0  0
   -0.5220   -3.3150    1.5370 H   0  0  0  0  0  0  0  0  0  0  0  0
   -1.1940   -4.9210    1.6320 H   0  0  0  0  0  0  0  0  0  0  0  0
   -2.3230   -3.5200    3.3590 H   0  0  0  0  0  0  0  0  0  0  0  0
   -3.3710   -4.2700    2.1690 H   0  0  0  0  0  0  0  0  0  0  0  0
   -3.9770   -2.2770    1.0500 H   0  0  0  0  0  0  0  0  0  0  0  0
   -4.1860   -2.0490    2.7770 H   0  0  0  0  0  0  0  0  0  0  0  0
   -3.5020   -0.1020    1.8290 H   0  0  0  0  0  0  0  0  0  0  0  0
   -0.7840   -1.2110    0.9800 H   0  0  0  0  0  0  0  0  0  0  0  0
  1 13  1  0  0  0  0
  2  1  1  0  0  0  0
  3  2  1  0  0  0  0
  3 14  1  0  0  0  0
  4  3  2  0  0  0  0
  5 11  2  0  0  0  0
  5  4  1  0  0  0  0
  6 17  1  0  0  0  0
  6  5  1  0  0  0  0
  7 18  1  6  0  0  0
  7  6  1  0  0  0  0
  8  7  1  0  0  0  0
  8 19  1  0  0  0  0
  9  7  1  0  0  0  0
  9 29  1  0  0  0  0
 10  9  2  0  0  0  0
 11 12  1  0  0  0  0
 12 22  1  0  0  0  0
 12  2  2  0  0  0  0
 15  4  1  0  0  0  0
 16  6  1  0  0  0  0
 20  8  1  0  0  0  0
 21 11  1  0  0  0  0
 23 24  1  0  0  0  0
 23 33  1  0  0  0  0
 24 25  2  0  0  0  0
 26 24  1  0  0  0  0
 26 27  1  0  0  0  0
 26 35  1  0  0  0  0
 27 28  1  0  0  0  0
 28 38  1  1  0  0  0
 28 29  1  0  0  0  0
 28 30  1  0  0  0  0
 29 39  1  0  0  0  0
 30 31  2  0  0  0  0
 30 48  1  0  0  0  0
 32 23  1  0  0  0  0
 34 26  1  0  0  0  0
 36 27  1  0  0  0  0
 37 27  1  0  0  0  0
 40 41  1  0  0  0  0
 41 42  2  0  0  0  0
 41 43  1  0  0  0  0
 43 44  1  0  0  0  0
 44 56  1  0  0  0  0
 44 57  1  0  0  0  0
 44 45  1  0  0  0  0
 45 58  1  0  0  0  0
 46 45  1  0  0  0  0
 46 61  1  0  0  0  0
 47 62  1  6  0  0  0
 47 46  1  0  0  0  0
 47 49  1  0  0  0  0
 48 47  1  0  0  0  0
 49 51  2  0  0  0  0
 49 50  1  0  0  0  0
 52 40  1  0  0  0  0
 53 40  1  0  0  0  0
 54 42  1  0  0  0  0
 55 43  1  0  0  0  0
 59 45  1  0  0  0  0
 60 46  1  0  0  0  0
 63 48  1  0  0  0  0
M  END
$$$$
