YQS.pdb
 OpenBabel07022419213D

 51 51  0  0  1  0  0  0  0  0999 V2000
    5.2490   -2.3460    4.3990 O   0  0  0  0  0  0  0  0  0  0  0  0
    4.6910   -1.9920    3.1660 C   0  0  0  0  0  0  0  0  0  0  0  0
    4.8150   -2.8290    2.0760 C   0  0  0  0  0  0  0  0  0  0  0  0
    4.2610   -2.4700    0.8660 C   0  0  0  0  0  0  0  0  0  0  0  0
    3.5640   -1.2790    0.6690 C   0  0  0  0  0  0  0  0  0  0  0  0
    3.0110   -0.9600   -0.6520 C   0  0  0  0  0  0  0  0  0  0  0  0
    1.6200   -1.5250   -0.7970 C   0  0  2  0  0  0  0  0  0  0  0  0
    1.1720   -1.1540   -2.1300 N   0  0  0  0  0  0  0  0  0  0  0  0
    0.6960   -1.0870    0.2450 C   0  0  0  0  0  0  0  0  0  0  0  0
    0.9010   -1.3750    1.4480 O   0  0  0  0  0  0  0  0  0  0  0  0
    3.4520   -0.4500    1.7800 C   0  0  0  0  0  0  0  0  0  0  0  0
    4.0070   -0.8150    2.9830 C   0  0  0  0  0  0  0  0  0  0  0  0
    4.8730   -3.1300    4.9430 H   0  0  0  0  0  0  0  0  0  0  0  0
    5.3520   -3.7600    2.2080 H   0  0  0  0  0  0  0  0  0  0  0  0
    4.3720   -3.1490    0.0210 H   0  0  0  0  0  0  0  0  0  0  0  0
    3.6680   -1.4680   -1.4080 H   0  0  0  0  0  0  0  0  0  0  0  0
    2.9900    0.1370   -0.8120 H   0  0  0  0  0  0  0  0  0  0  0  0
    1.7180   -2.6450   -0.7060 H   0  0  0  0  0  0  0  0  0  0  0  0
    0.2260   -1.4910   -2.3420 H   0  0  0  0  0  0  0  0  0  0  0  0
    1.9050   -1.4140   -2.8110 H   0  0  0  0  0  0  0  0  0  0  0  0
    2.9110    0.4830    1.6390 H   0  0  0  0  0  0  0  0  0  0  0  0
    3.8990   -0.1480    3.8190 H   0  0  0  0  0  0  0  0  0  0  0  0
    1.2510    4.1770    1.8820 N   0  0  0  0  0  0  0  0  0  0  0  0
    0.0190    3.5480    1.6090 C   0  0  0  0  0  0  0  0  0  0  0  0
   -1.0140    4.2330    1.4900 O   0  0  0  0  0  0  0  0  0  0  0  0
   -0.0290    2.0810    1.4680 C   0  0  0  0  0  0  0  0  0  0  0  0
   -1.4420    1.5900    1.1760 C   0  0  0  0  0  0  0  0  0  0  0  0
   -1.3710    0.0960    1.0530 C   0  0  2  0  0  0  0  0  0  0  0  0
   -0.4840   -0.3160   -0.0170 N   0  0  0  0  0  0  0  0  0  0  0  0
   -2.7170   -0.5250    0.9090 C   0  0  0  0  0  0  0  0  0  0  0  0
   -3.6330   -0.2930    1.7380 O   0  0  0  0  0  0  0  0  0  0  0  0
    1.9180    3.8110    2.6130 H   0  0  0  0  0  0  0  0  0  0  0  0
    1.5350    5.0210    1.3690 H   0  0  0  0  0  0  0  0  0  0  0  0
    0.3320    1.6600    2.4510 H   0  0  0  0  0  0  0  0  0  0  0  0
    0.6900    1.7300    0.7170 H   0  0  0  0  0  0  0  0  0  0  0  0
   -2.1120    1.8610    1.9910 H   0  0  0  0  0  0  0  0  0  0  0  0
   -1.7480    2.0870    0.2360 H   0  0  0  0  0  0  0  0  0  0  0  0
   -0.9510   -0.2930    2.0060 H   0  0  0  0  0  0  0  0  0  0  0  0
   -0.6620   -0.0720   -1.0160 H   0  0  0  0  0  0  0  0  0  0  0  0
   -5.1880   -0.1930   -1.6520 O   0  0  0  0  0  0  0  0  0  0  0  0
   -5.0500   -1.5620   -1.5610 C   0  0  0  0  0  0  0  0  0  0  0  0
   -4.3740   -1.9900   -0.2600 C   0  0  2  0  0  0  0  0  0  0  0  0
   -3.0420   -1.4080   -0.1630 N   0  0  0  0  0  0  0  0  0  0  0  0
   -4.2940   -3.4730   -0.2840 C   0  0  0  0  0  0  0  0  0  0  0  0
   -3.1670   -4.0050   -0.2220 O   0  0  0  0  0  0  0  0  0  0  0  0
   -5.3930   -4.2910   -0.3700 O   0  0  0  0  0  0  0  0  0  0  0  0
   -5.8460    0.0990   -0.9850 H   0  0  0  0  0  0  0  0  0  0  0  0
   -4.5380   -2.0240   -2.4250 H   0  0  0  0  0  0  0  0  0  0  0  0
   -6.0660   -1.9970   -1.5290 H   0  0  0  0  0  0  0  0  0  0  0  0
   -5.0300   -1.6710    0.5500 H   0  0  0  0  0  0  0  0  0  0  0  0
   -2.3060   -1.6130   -0.8560 H   0  0  0  0  0  0  0  0  0  0  0  0
  1 13  1  0  0  0  0
  2  1  1  0  0  0  0
  3 14  1  0  0  0  0
  3  2  2  0  0  0  0
  4  3  1  0  0  0  0
  5  4  2  0  0  0  0
  5 11  1  0  0  0  0
  6  5  1  0  0  0  0
  7 18  1  1  0  0  0
  7  6  1  0  0  0  0
  7  9  1  0  0  0  0
  8  7  1  0  0  0  0
  9 10  2  0  0  0  0
 11 12  2  0  0  0  0
 12  2  1  0  0  0  0
 12 22  1  0  0  0  0
 15  4  1  0  0  0  0
 16  6  1  0  0  0  0
 17  6  1  0  0  0  0
 19  8  1  0  0  0  0
 20  8  1  0  0  0  0
 21 11  1  0  0  0  0
 23 32  1  0  0  0  0
 24 23  1  0  0  0  0
 25 24  2  0  0  0  0
 26 24  1  0  0  0  0
 26 34  1  0  0  0  0
 27 26  1  0  0  0  0
 27 36  1  0  0  0  0
 28 27  1  0  0  0  0
 28 38  1  1  0  0  0
 29  9  1  0  0  0  0
 29 28  1  0  0  0  0
 30 28  1  0  0  0  0
 30 31  2  0  0  0  0
 33 23  1  0  0  0  0
 35 26  1  0  0  0  0
 37 27  1  0  0  0  0
 39 29  1  0  0  0  0
 40 41  1  0  0  0  0
 40 47  1  0  0  0  0
 41 49  1  0  0  0  0
 41 42  1  0  0  0  0
 42 43  1  0  0  0  0
 42 50  1  1  0  0  0
 43 30  1  0  0  0  0
 44 42  1  0  0  0  0
 44 45  1  0  0  0  0
 46 44  2  0  0  0  0
 48 41  1  0  0  0  0
 51 43  1  0  0  0  0
M  END
$$$$
