YQT.pdb
 OpenBabel07022419213D

 54 54  0  0  1  0  0  0  0  0999 V2000
    2.3340    3.4610    4.3920 O   0  0  0  0  0  0  0  0  0  0  0  0
    2.2230    2.1030    4.0570 C   0  0  0  0  0  0  0  0  0  0  0  0
    1.0750    1.3970    4.3420 C   0  0  0  0  0  0  0  0  0  0  0  0
    1.0320    0.0680    3.9860 C   0  0  0  0  0  0  0  0  0  0  0  0
    2.0870   -0.5570    3.3680 C   0  0  0  0  0  0  0  0  0  0  0  0
    2.0210   -1.9840    2.9930 C   0  0  0  0  0  0  0  0  0  0  0  0
    1.5170   -2.2490    1.6160 C   0  0  2  0  0  0  0  0  0  0  0  0
    2.3750   -1.6120    0.6420 N   0  0  0  0  0  0  0  0  0  0  0  0
    0.1110   -1.8340    1.4910 C   0  0  0  0  0  0  0  0  0  0  0  0
   -0.7280   -2.2510    2.3070 O   0  0  0  0  0  0  0  0  0  0  0  0
    3.2150    0.1840    3.1020 C   0  0  0  0  0  0  0  0  0  0  0  0
    3.3160    1.5260    3.4360 C   0  0  0  0  0  0  0  0  0  0  0  0
    2.1650    3.8140    5.3170 H   0  0  0  0  0  0  0  0  0  0  0  0
    0.2380    1.8970    4.8340 H   0  0  0  0  0  0  0  0  0  0  0  0
    0.1330   -0.4800    4.2120 H   0  0  0  0  0  0  0  0  0  0  0  0
    3.0220   -2.4870    3.1480 H   0  0  0  0  0  0  0  0  0  0  0  0
    1.3440   -2.5590    3.6930 H   0  0  0  0  0  0  0  0  0  0  0  0
    1.5390   -3.3550    1.3720 H   0  0  0  0  0  0  0  0  0  0  0  0
    2.0930   -1.7530   -0.3330 H   0  0  0  0  0  0  0  0  0  0  0  0
    3.3730   -1.7020    0.8530 H   0  0  0  0  0  0  0  0  0  0  0  0
    4.0960   -0.2390    2.6130 H   0  0  0  0  0  0  0  0  0  0  0  0
    4.2010    2.1180    3.2300 H   0  0  0  0  0  0  0  0  0  0  0  0
   -0.9230    3.6740    2.7500 N   0  0  0  0  0  0  0  0  0  0  0  0
   -1.3940    2.9900    1.6170 C   0  0  0  0  0  0  0  0  0  0  0  0
   -1.8850    3.6410    0.6670 O   0  0  0  0  0  0  0  0  0  0  0  0
   -1.2970    1.5110    1.5770 C   0  0  0  0  0  0  0  0  0  0  0  0
   -1.8560    0.9580    0.2820 C   0  0  0  0  0  0  0  0  0  0  0  0
   -1.7250   -0.5470    0.3250 C   0  0  2  0  0  0  0  0  0  0  0  0
   -0.3570   -0.9620    0.4630 N   0  0  0  0  0  0  0  0  0  0  0  0
   -2.3470   -1.1570   -0.9090 C   0  0  0  0  0  0  0  0  0  0  0  0
   -3.5400   -0.8660   -1.1360 O   0  0  0  0  0  0  0  0  0  0  0  0
   -0.2440    4.4440    2.6450 H   0  0  0  0  0  0  0  0  0  0  0  0
   -1.2470    3.4170    3.7000 H   0  0  0  0  0  0  0  0  0  0  0  0
   -0.2110    1.2610    1.6790 H   0  0  0  0  0  0  0  0  0  0  0  0
   -1.8130    1.1180    2.4750 H   0  0  0  0  0  0  0  0  0  0  0  0
   -1.2680    1.4080   -0.5380 H   0  0  0  0  0  0  0  0  0  0  0  0
   -2.9230    1.2280    0.1910 H   0  0  0  0  0  0  0  0  0  0  0  0
   -2.3730   -0.9110    1.1500 H   0  0  0  0  0  0  0  0  0  0  0  0
    0.3480   -0.6140   -0.2200 H   0  0  0  0  0  0  0  0  0  0  0  0
   -0.0270   -2.6210   -4.2350 C   0  0  0  0  0  0  0  0  0  0  0  0
   -1.4600   -2.2150   -4.1920 C   0  0  1  0  0  0  0  0  0  0  0  0
   -2.1380   -2.8620   -5.2310 O   0  0  0  0  0  0  0  0  0  0  0  0
   -2.1530   -2.5960   -2.9090 C   0  0  2  0  0  0  0  0  0  0  0  0
   -1.5770   -2.0130   -1.7400 N   0  0  0  0  0  0  0  0  0  0  0  0
   -2.2180   -4.0900   -2.8130 C   0  0  0  0  0  0  0  0  0  0  0  0
   -2.6870   -4.7970   -3.7290 O   0  0  0  0  0  0  0  0  0  0  0  0
   -1.7460   -4.7260   -1.6750 O   0  0  0  0  0  0  0  0  0  0  0  0
    0.2130   -2.9620   -5.2620 H   0  0  0  0  0  0  0  0  0  0  0  0
    0.1500   -3.5020   -3.5680 H   0  0  0  0  0  0  0  0  0  0  0  0
    0.6800   -1.7950   -4.0160 H   0  0  0  0  0  0  0  0  0  0  0  0
   -1.5380   -1.1330   -4.4010 H   0  0  0  0  0  0  0  0  0  0  0  0
   -1.5670   -3.5980   -5.6210 H   0  0  0  0  0  0  0  0  0  0  0  0
   -3.2040   -2.2570   -2.9930 H   0  0  0  0  0  0  0  0  0  0  0  0
   -0.5870   -2.1690   -1.4270 H   0  0  0  0  0  0  0  0  0  0  0  0
  1 13  1  0  0  0  0
  2  3  1  0  0  0  0
  2  1  1  0  0  0  0
  3 14  1  0  0  0  0
  4 15  1  0  0  0  0
  4  3  2  0  0  0  0
  5  4  1  0  0  0  0
  6 16  1  0  0  0  0
  6  5  1  0  0  0  0
  6 17  1  0  0  0  0
  7 18  1  6  0  0  0
  7  6  1  0  0  0  0
  8 20  1  0  0  0  0
  8  7  1  0  0  0  0
  9  7  1  0  0  0  0
  9 10  2  0  0  0  0
 11  5  2  0  0  0  0
 11 12  1  0  0  0  0
 12  2  2  0  0  0  0
 19  8  1  0  0  0  0
 21 11  1  0  0  0  0
 22 12  1  0  0  0  0
 23 33  1  0  0  0  0
 24 23  1  0  0  0  0
 25 24  2  0  0  0  0
 26 24  1  0  0  0  0
 26 34  1  0  0  0  0
 26 35  1  0  0  0  0
 27 28  1  0  0  0  0
 27 26  1  0  0  0  0
 28 29  1  0  0  0  0
 28 38  1  1  0  0  0
 29  9  1  0  0  0  0
 30 28  1  0  0  0  0
 31 30  2  0  0  0  0
 32 23  1  0  0  0  0
 36 27  1  0  0  0  0
 37 27  1  0  0  0  0
 39 29  1  0  0  0  0
 40 41  1  0  0  0  0
 40 50  1  0  0  0  0
 40 49  1  0  0  0  0
 41 51  1  6  0  0  0
 41 43  1  0  0  0  0
 42 41  1  0  0  0  0
 43 53  1  6  0  0  0
 43 45  1  0  0  0  0
 43 44  1  0  0  0  0
 44 54  1  0  0  0  0
 44 30  1  0  0  0  0
 45 47  1  0  0  0  0
 46 45  2  0  0  0  0
 48 40  1  0  0  0  0
 52 42  1  0  0  0  0
M  END
$$$$
