YQY.pdb
 OpenBabel07022419213D

 61 62  0  0  1  0  0  0  0  0999 V2000
    1.8790   -0.6590    6.5460 O   0  0  0  0  0  0  0  0  0  0  0  0
    2.2940   -0.8960    5.2270 C   0  0  0  0  0  0  0  0  0  0  0  0
    3.5880   -1.2840    4.9530 C   0  0  0  0  0  0  0  0  0  0  0  0
    4.0040   -1.5200    3.6450 C   0  0  0  0  0  0  0  0  0  0  0  0
    3.1480   -1.3760    2.5750 C   0  0  0  0  0  0  0  0  0  0  0  0
    3.6190   -1.6240    1.1870 C   0  0  0  0  0  0  0  0  0  0  0  0
    4.1100   -0.3590    0.5250 C   0  0  2  0  0  0  0  0  0  0  0  0
    5.2010    0.2510    1.2330 N   0  0  0  0  0  0  0  0  0  0  0  0
    2.9990    0.6050    0.3580 C   0  0  0  0  0  0  0  0  0  0  0  0
    2.9750    1.7450    0.8900 O   0  0  0  0  0  0  0  0  0  0  0  0
    1.8560   -0.9880    2.8530 C   0  0  0  0  0  0  0  0  0  0  0  0
    1.4360   -0.7510    4.1600 C   0  0  0  0  0  0  0  0  0  0  0  0
    2.5230   -0.2230    7.2020 H   0  0  0  0  0  0  0  0  0  0  0  0
    4.2750   -1.4010    5.7870 H   0  0  0  0  0  0  0  0  0  0  0  0
    5.0330   -1.8270    3.4410 H   0  0  0  0  0  0  0  0  0  0  0  0
    2.7910   -2.0160    0.5630 H   0  0  0  0  0  0  0  0  0  0  0  0
    4.4140   -2.3930    1.1880 H   0  0  0  0  0  0  0  0  0  0  0  0
    4.4680   -0.6340   -0.4870 H   0  0  0  0  0  0  0  0  0  0  0  0
    5.8300    0.8190    0.6670 H   0  0  0  0  0  0  0  0  0  0  0  0
    4.9820    0.5920    2.1700 H   0  0  0  0  0  0  0  0  0  0  0  0
    1.1520   -0.8580    2.0350 H   0  0  0  0  0  0  0  0  0  0  0  0
    0.4100   -0.4420    4.3840 H   0  0  0  0  0  0  0  0  0  0  0  0
   -1.5070    4.6830   -1.6160 N   0  0  0  0  0  0  0  0  0  0  0  0
   -0.3530    3.8350   -1.4550 C   0  0  0  0  0  0  0  0  0  0  0  0
    0.4730    4.1500   -0.5820 O   0  0  0  0  0  0  0  0  0  0  0  0
   -0.2730    2.6670   -2.3580 C   0  0  0  0  0  0  0  0  0  0  0  0
    0.8440    1.7310   -2.0720 C   0  0  0  0  0  0  0  0  0  0  0  0
    0.7410    1.1410   -0.6650 C   0  0  2  0  0  0  0  0  0  0  0  0
    1.8730    0.2310   -0.4600 N   0  0  0  0  0  0  0  0  0  0  0  0
   -0.5530    0.4740   -0.4200 C   0  0  0  0  0  0  0  0  0  0  0  0
   -1.6250    1.1310   -0.4670 O   0  0  0  0  0  0  0  0  0  0  0  0
   -1.4600    5.7070   -1.4030 H   0  0  0  0  0  0  0  0  0  0  0  0
   -2.4050    4.2930   -1.9450 H   0  0  0  0  0  0  0  0  0  0  0  0
   -0.0640    3.0900   -3.3870 H   0  0  0  0  0  0  0  0  0  0  0  0
   -1.2640    2.1630   -2.4440 H   0  0  0  0  0  0  0  0  0  0  0  0
    0.8460    0.8370   -2.7460 H   0  0  0  0  0  0  0  0  0  0  0  0
    1.8250    2.2070   -2.2310 H   0  0  0  0  0  0  0  0  0  0  0  0
    0.8260    1.9960    0.0240 H   0  0  0  0  0  0  0  0  0  0  0  0
    1.8990   -0.7100   -0.8990 H   0  0  0  0  0  0  0  0  0  0  0  0
   -7.3860   -4.7860   -0.9140 O   0  0  0  0  0  0  0  0  0  0  0  0
   -6.1270   -4.2060   -0.9600 C   0  0  0  0  0  0  0  0  0  0  0  0
   -5.0200   -4.8450   -0.4570 C   0  0  0  0  0  0  0  0  0  0  0  0
   -3.7530   -4.2770   -0.4960 C   0  0  0  0  0  0  0  0  0  0  0  0
   -3.5750   -3.0320   -1.0540 C   0  0  0  0  0  0  0  0  0  0  0  0
   -2.2540   -2.3850   -1.1190 C   0  0  0  0  0  0  0  0  0  0  0  0
   -1.9650   -1.4900    0.0910 C   0  0  2  0  0  0  0  0  0  0  0  0
   -0.6290   -0.9310   -0.1260 N   0  0  0  0  0  0  0  0  0  0  0  0
   -2.0750   -2.2330    1.3640 C   0  0  0  0  0  0  0  0  0  0  0  0
   -3.1920   -2.7180    1.6750 O   0  0  0  0  0  0  0  0  0  0  0  0
   -4.6970   -2.3850   -1.5650 C   0  0  0  0  0  0  0  0  0  0  0  0
   -5.9540   -2.9590   -1.5200 C   0  0  0  0  0  0  0  0  0  0  0  0
   -1.0400   -2.4430    2.2550 O   0  0  0  0  0  0  0  0  0  0  0  0
   -8.1340   -4.3840   -1.4700 H   0  0  0  0  0  0  0  0  0  0  0  0
   -5.1170   -5.8290   -0.0070 H   0  0  0  0  0  0  0  0  0  0  0  0
   -2.8880   -4.7860   -0.0990 H   0  0  0  0  0  0  0  0  0  0  0  0
   -2.2330   -1.7550   -2.0270 H   0  0  0  0  0  0  0  0  0  0  0  0
   -1.4820   -3.2010   -1.1490 H   0  0  0  0  0  0  0  0  0  0  0  0
   -2.7330   -0.6940    0.0360 H   0  0  0  0  0  0  0  0  0  0  0  0
    0.2250   -1.5220   -0.0700 H   0  0  0  0  0  0  0  0  0  0  0  0
   -4.5660   -1.3920   -2.0120 H   0  0  0  0  0  0  0  0  0  0  0  0
   -6.8400   -2.4530   -1.9210 H   0  0  0  0  0  0  0  0  0  0  0  0
  1 13  1  0  0  0  0
  2  1  1  0  0  0  0
  3  2  1  0  0  0  0
  3 14  1  0  0  0  0
  4  3  2  0  0  0  0
  5 11  2  0  0  0  0
  5  4  1  0  0  0  0
  6 17  1  0  0  0  0
  6  5  1  0  0  0  0
  7 18  1  6  0  0  0
  7  6  1  0  0  0  0
  7  8  1  0  0  0  0
  8 20  1  0  0  0  0
  9  7  1  0  0  0  0
  9 10  2  0  0  0  0
 11 12  1  0  0  0  0
 12 22  1  0  0  0  0
 12  2  2  0  0  0  0
 15  4  1  0  0  0  0
 16  6  1  0  0  0  0
 19  8  1  0  0  0  0
 21 11  1  0  0  0  0
 23 24  1  0  0  0  0
 23 32  1  0  0  0  0
 24 25  2  0  0  0  0
 26 27  1  0  0  0  0
 26 24  1  0  0  0  0
 27 28  1  0  0  0  0
 28 29  1  0  0  0  0
 28 30  1  0  0  0  0
 28 38  1  1  0  0  0
 29  9  1  0  0  0  0
 30 47  1  0  0  0  0
 31 30  2  0  0  0  0
 33 23  1  0  0  0  0
 34 26  1  0  0  0  0
 35 26  1  0  0  0  0
 36 27  1  0  0  0  0
 37 27  1  0  0  0  0
 39 29  1  0  0  0  0
 41 40  1  0  0  0  0
 41 42  1  0  0  0  0
 42 54  1  0  0  0  0
 43 42  2  0  0  0  0
 43 55  1  0  0  0  0
 44 43  1  0  0  0  0
 45 44  1  0  0  0  0
 45 46  1  0  0  0  0
 46 58  1  1  0  0  0
 46 48  1  0  0  0  0
 47 59  1  0  0  0  0
 47 46  1  0  0  0  0
 48 49  2  0  0  0  0
 48 52  1  0  0  0  0
 50 51  1  0  0  0  0
 50 44  2  0  0  0  0
 51 41  2  0  0  0  0
 53 40  1  0  0  0  0
 56 45  1  0  0  0  0
 57 45  1  0  0  0  0
 60 50  1  0  0  0  0
 61 51  1  0  0  0  0
M  END
$$$$
