YRA.pdb
 OpenBabel07022419193D

 56 56  0  0  1  0  0  0  0  0999 V2000
    4.4590   -3.2260    4.9990 O   0  0  0  0  0  0  0  0  0  0  0  0
    4.0770   -2.2730    4.0740 C   0  0  0  0  0  0  0  0  0  0  0  0
    5.0030   -1.8430    3.1430 C   0  0  0  0  0  0  0  0  0  0  0  0
    4.5880   -0.8940    2.2370 C   0  0  0  0  0  0  0  0  0  0  0  0
    3.3090   -0.3600    2.2170 C   0  0  0  0  0  0  0  0  0  0  0  0
    2.9580    0.6520    1.2190 C   0  0  0  0  0  0  0  0  0  0  0  0
    2.4450    0.0560   -0.0580 C   0  0  2  0  0  0  0  0  0  0  0  0
    2.1140    1.1090   -1.0050 N   0  0  0  0  0  0  0  0  0  0  0  0
    1.2990   -0.8710    0.1290 C   0  0  0  0  0  0  0  0  0  0  0  0
    1.3360   -1.8790    0.8630 O   0  0  0  0  0  0  0  0  0  0  0  0
    2.3990   -0.8130    3.1670 C   0  0  0  0  0  0  0  0  0  0  0  0
    2.7880   -1.7630    4.0860 C   0  0  0  0  0  0  0  0  0  0  0  0
    3.8310   -3.9040    5.3840 H   0  0  0  0  0  0  0  0  0  0  0  0
    6.0280   -2.2300    3.1120 H   0  0  0  0  0  0  0  0  0  0  0  0
    5.3050   -0.5350    1.4860 H   0  0  0  0  0  0  0  0  0  0  0  0
    2.1440    1.2860    1.6770 H   0  0  0  0  0  0  0  0  0  0  0  0
    3.8080    1.3030    0.9570 H   0  0  0  0  0  0  0  0  0  0  0  0
    3.2800   -0.5550   -0.4890 H   0  0  0  0  0  0  0  0  0  0  0  0
    2.2600    0.6850   -1.9650 H   0  0  0  0  0  0  0  0  0  0  0  0
    2.8610    1.8450   -0.9220 H   0  0  0  0  0  0  0  0  0  0  0  0
    1.3780   -0.4000    3.1690 H   0  0  0  0  0  0  0  0  0  0  0  0
    2.0830   -2.1170    4.8260 H   0  0  0  0  0  0  0  0  0  0  0  0
   -0.1050    3.4900    2.6040 N   0  0  0  0  0  0  0  0  0  0  0  0
   -0.6510    3.0490    1.3690 C   0  0  0  0  0  0  0  0  0  0  0  0
   -0.4560    3.7430    0.2760 N   0  0  0  0  0  0  0  0  0  0  0  0
   -1.4200    1.8560    1.2680 N   0  0  0  0  0  0  0  0  0  0  0  0
   -2.1180    1.5760    0.0210 C   0  0  0  0  0  0  0  0  0  0  0  0
   -2.8500    0.2950    0.1320 C   0  0  0  0  0  0  0  0  0  0  0  0
   -2.1440   -0.9410    0.4330 C   0  0  0  0  0  0  0  0  0  0  0  0
   -1.0930   -1.5110   -0.4050 C   0  0  2  0  0  0  0  0  0  0  0  0
    0.0420   -0.6430   -0.5540 N   0  0  0  0  0  0  0  0  0  0  0  0
   -1.5340   -2.1090   -1.6850 C   0  0  0  0  0  0  0  0  0  0  0  0
   -0.9810   -1.8890   -2.7930 O   0  0  0  0  0  0  0  0  0  0  0  0
   -0.6820    3.5480    3.4600 H   0  0  0  0  0  0  0  0  0  0  0  0
    0.8970    3.7560    2.6270 H   0  0  0  0  0  0  0  0  0  0  0  0
    0.1040    4.6280    0.3050 H   0  0  0  0  0  0  0  0  0  0  0  0
   -1.4590    1.2210    2.0870 H   0  0  0  0  0  0  0  0  0  0  0  0
   -1.5670    1.7950   -0.8810 H   0  0  0  0  0  0  0  0  0  0  0  0
   -2.9420    2.3800    0.0230 H   0  0  0  0  0  0  0  0  0  0  0  0
   -3.6200    0.1740   -0.7000 H   0  0  0  0  0  0  0  0  0  0  0  0
   -3.5560    0.4580    1.0170 H   0  0  0  0  0  0  0  0  0  0  0  0
   -1.6970   -0.8180    1.4780 H   0  0  0  0  0  0  0  0  0  0  0  0
   -2.9400   -1.7320    0.6410 H   0  0  0  0  0  0  0  0  0  0  0  0
   -0.7060   -2.4070    0.1950 H   0  0  0  0  0  0  0  0  0  0  0  0
    0.0410    0.1890   -1.1680 H   0  0  0  0  0  0  0  0  0  0  0  0
   -3.0050   -5.1070   -2.9420 C   0  0  0  0  0  0  0  0  0  0  0  0
   -3.0980   -3.5980   -2.9830 C   0  0  2  0  0  0  0  0  0  0  0  0
   -2.6460   -2.9990   -1.7420 N   0  0  0  0  0  0  0  0  0  0  0  0
   -4.4750   -3.1510   -3.2380 C   0  0  0  0  0  0  0  0  0  0  0  0
   -5.0820   -3.5380   -4.2550 O   0  0  0  0  0  0  0  0  0  0  0  0
   -5.1030   -2.3040   -2.3570 O   0  0  0  0  0  0  0  0  0  0  0  0
   -2.5880   -5.5340   -3.8790 H   0  0  0  0  0  0  0  0  0  0  0  0
   -4.0610   -5.4970   -2.8880 H   0  0  0  0  0  0  0  0  0  0  0  0
   -2.4630   -5.4870   -2.0730 H   0  0  0  0  0  0  0  0  0  0  0  0
   -2.4570   -3.2600   -3.8360 H   0  0  0  0  0  0  0  0  0  0  0  0
   -3.1660   -3.2380   -0.8630 H   0  0  0  0  0  0  0  0  0  0  0  0
  1 13  1  0  0  0  0
  2 12  1  0  0  0  0
  2  1  1  0  0  0  0
  3  2  2  0  0  0  0
  4  3  1  0  0  0  0
  5  4  2  0  0  0  0
  5 11  1  0  0  0  0
  6 16  1  0  0  0  0
  6  5  1  0  0  0  0
  7 18  1  6  0  0  0
  7  9  1  0  0  0  0
  7  6  1  0  0  0  0
  8 20  1  0  0  0  0
  8  7  1  0  0  0  0
  9 10  2  0  0  0  0
 11 21  1  0  0  0  0
 11 12  2  0  0  0  0
 12 22  1  0  0  0  0
 14  3  1  0  0  0  0
 15  4  1  0  0  0  0
 17  6  1  0  0  0  0
 19  8  1  0  0  0  0
 23 35  1  0  0  0  0
 23 34  1  0  0  0  0
 24 23  1  0  0  0  0
 25 36  1  0  0  0  0
 25 24  2  0  0  0  0
 26 24  1  0  0  0  0
 26 37  1  0  0  0  0
 27 39  1  0  0  0  0
 27 28  1  0  0  0  0
 27 26  1  0  0  0  0
 28 29  1  0  0  0  0
 28 41  1  0  0  0  0
 29 43  1  0  0  0  0
 29 42  1  0  0  0  0
 30 44  1  1  0  0  0
 30 29  1  0  0  0  0
 31 30  1  0  0  0  0
 31  9  1  0  0  0  0
 32 30  1  0  0  0  0
 33 32  2  0  0  0  0
 38 27  1  0  0  0  0
 40 28  1  0  0  0  0
 45 31  1  0  0  0  0
 46 53  1  0  0  0  0
 46 54  1  0  0  0  0
 47 55  1  6  0  0  0
 47 46  1  0  0  0  0
 47 48  1  0  0  0  0
 48 32  1  0  0  0  0
 48 56  1  0  0  0  0
 49 47  1  0  0  0  0
 49 51  1  0  0  0  0
 50 49  2  0  0  0  0
 52 46  1  0  0  0  0
M  END
$$$$
