YRC.pdb
 OpenBabel07022419203D

 57 57  0  0  1  0  0  0  0  0999 V2000
   -0.9330    3.0750    5.3010 O   0  0  0  0  0  0  0  0  0  0  0  0
   -0.0320    2.2040    4.6610 C   0  0  0  0  0  0  0  0  0  0  0  0
   -0.2260    0.8420    4.6560 C   0  0  0  0  0  0  0  0  0  0  0  0
    0.6720    0.0210    4.0230 C   0  0  0  0  0  0  0  0  0  0  0  0
    1.7980    0.5130    3.3700 C   0  0  0  0  0  0  0  0  0  0  0  0
    2.7670   -0.3550    2.6900 C   0  0  0  0  0  0  0  0  0  0  0  0
    2.5000   -0.6290    1.2530 C   0  0  2  0  0  0  0  0  0  0  0  0
    2.4760    0.5640    0.4400 N   0  0  0  0  0  0  0  0  0  0  0  0
    1.3280   -1.4680    0.9940 C   0  0  0  0  0  0  0  0  0  0  0  0
    1.1560   -2.5070    1.6810 O   0  0  0  0  0  0  0  0  0  0  0  0
    1.9570    1.8970    3.3990 C   0  0  0  0  0  0  0  0  0  0  0  0
    1.0720    2.7430    4.0260 C   0  0  0  0  0  0  0  0  0  0  0  0
   -1.2860    2.9150    6.2170 H   0  0  0  0  0  0  0  0  0  0  0  0
   -1.0870    0.4420    5.1530 H   0  0  0  0  0  0  0  0  0  0  0  0
    0.5440   -1.0520    4.0030 H   0  0  0  0  0  0  0  0  0  0  0  0
    3.8030    0.0580    2.7930 H   0  0  0  0  0  0  0  0  0  0  0  0
    2.7970   -1.3150    3.2660 H   0  0  0  0  0  0  0  0  0  0  0  0
    3.4030   -1.2120    0.8830 H   0  0  0  0  0  0  0  0  0  0  0  0
    3.3480    1.1250    0.6440 H   0  0  0  0  0  0  0  0  0  0  0  0
    2.4940    0.3120   -0.5670 H   0  0  0  0  0  0  0  0  0  0  0  0
    2.8420    2.2800    2.8850 H   0  0  0  0  0  0  0  0  0  0  0  0
    1.2430    3.8050    4.0180 H   0  0  0  0  0  0  0  0  0  0  0  0
   -0.0730    3.2770   -0.9280 N   0  0  0  0  0  0  0  0  0  0  0  0
   -0.8020    2.6760    0.1410 C   0  0  0  0  0  0  0  0  0  0  0  0
   -0.7170    3.2500    1.3030 N   0  0  0  0  0  0  0  0  0  0  0  0
   -1.5860    1.5070   -0.0500 N   0  0  0  0  0  0  0  0  0  0  0  0
   -1.7110    0.5900    1.0680 C   0  0  0  0  0  0  0  0  0  0  0  0
   -2.5550   -0.5950    0.7550 C   0  0  0  0  0  0  0  0  0  0  0  0
   -2.1030   -1.4570   -0.3690 C   0  0  0  0  0  0  0  0  0  0  0  0
   -0.7830   -2.0810   -0.1840 C   0  0  2  0  0  0  0  0  0  0  0  0
    0.3370   -1.1920   -0.0060 N   0  0  0  0  0  0  0  0  0  0  0  0
   -0.4340   -3.0110   -1.3160 C   0  0  0  0  0  0  0  0  0  0  0  0
    0.6680   -2.8620   -1.8560 O   0  0  0  0  0  0  0  0  0  0  0  0
    0.8410    3.7650   -0.7960 H   0  0  0  0  0  0  0  0  0  0  0  0
   -0.4920    3.2130   -1.8720 H   0  0  0  0  0  0  0  0  0  0  0  0
   -0.1580    4.0980    1.4750 H   0  0  0  0  0  0  0  0  0  0  0  0
   -2.0300    1.3650   -0.9770 H   0  0  0  0  0  0  0  0  0  0  0  0
   -2.2960    1.1820    1.8420 H   0  0  0  0  0  0  0  0  0  0  0  0
   -0.7620    0.3710    1.5420 H   0  0  0  0  0  0  0  0  0  0  0  0
   -2.6280   -1.1880    1.7120 H   0  0  0  0  0  0  0  0  0  0  0  0
   -3.6100   -0.2830    0.5630 H   0  0  0  0  0  0  0  0  0  0  0  0
   -2.9040   -2.2220   -0.5270 H   0  0  0  0  0  0  0  0  0  0  0  0
   -2.0720   -0.8160   -1.2910 H   0  0  0  0  0  0  0  0  0  0  0  0
   -0.8060   -2.7850    0.7060 H   0  0  0  0  0  0  0  0  0  0  0  0
    0.4540   -0.3350   -0.5930 H   0  0  0  0  0  0  0  0  0  0  0  0
   -1.3250   -4.0150   -1.7480 N   0  0  0  0  0  0  0  0  0  0  0  0
   -1.0340   -4.9360   -2.8190 C   0  0  1  0  0  0  0  0  0  0  0  0
   -1.3290   -4.2910   -4.1390 C   0  0  0  0  0  0  0  0  0  0  0  0
   -0.3780   -2.8050   -4.4640 S   0  0  0  0  0  0  0  0  0  0  0  0
    0.3210   -5.5270   -2.7160 C   0  0  0  0  0  0  0  0  0  0  0  0
    1.0670   -5.3200   -1.7430 O   0  0  0  0  0  0  0  0  0  0  0  0
    0.8340   -6.3550   -3.7170 O   0  0  0  0  0  0  0  0  0  0  0  0
   -2.2740   -4.0830   -1.2350 H   0  0  0  0  0  0  0  0  0  0  0  0
   -1.7250   -5.8440   -2.7240 H   0  0  0  0  0  0  0  0  0  0  0  0
   -2.4260   -4.0510   -4.1930 H   0  0  0  0  0  0  0  0  0  0  0  0
   -1.0810   -5.0150   -4.9700 H   0  0  0  0  0  0  0  0  0  0  0  0
   -1.1010   -1.8020   -5.1040 H   0  0  0  0  0  0  0  0  0  0  0  0
  1 13  1  0  0  0  0
  2  1  1  0  0  0  0
  3  2  1  0  0  0  0
  3 14  1  0  0  0  0
  4  3  2  0  0  0  0
  5 11  2  0  0  0  0
  5  4  1  0  0  0  0
  6 16  1  0  0  0  0
  6 17  1  0  0  0  0
  6  5  1  0  0  0  0
  7 18  1  6  0  0  0
  7  6  1  0  0  0  0
  8 19  1  0  0  0  0
  8  7  1  0  0  0  0
  9  7  1  0  0  0  0
  9 10  2  0  0  0  0
 11 12  1  0  0  0  0
 12  2  2  0  0  0  0
 15  4  1  0  0  0  0
 20  8  1  0  0  0  0
 21 11  1  0  0  0  0
 22 12  1  0  0  0  0
 23 34  1  0  0  0  0
 23 24  1  0  0  0  0
 24 25  2  0  0  0  0
 25 36  1  0  0  0  0
 26 24  1  0  0  0  0
 26 27  1  0  0  0  0
 27 39  1  0  0  0  0
 27 38  1  0  0  0  0
 28 27  1  0  0  0  0
 28 40  1  0  0  0  0
 29 30  1  0  0  0  0
 29 28  1  0  0  0  0
 30 31  1  0  0  0  0
 30 44  1  1  0  0  0
 31  9  1  0  0  0  0
 32 30  1  0  0  0  0
 33 32  2  0  0  0  0
 35 23  1  0  0  0  0
 37 26  1  0  0  0  0
 41 28  1  0  0  0  0
 42 29  1  0  0  0  0
 43 29  1  0  0  0  0
 45 31  1  0  0  0  0
 46 32  1  0  0  0  0
 46 53  1  0  0  0  0
 47 54  1  1  0  0  0
 47 50  1  0  0  0  0
 47 46  1  0  0  0  0
 48 47  1  0  0  0  0
 49 48  1  0  0  0  0
 50 51  1  0  0  0  0
 52 50  2  0  0  0  0
 55 48  1  0  0  0  0
 56 48  1  0  0  0  0
 57 49  1  0  0  0  0
M  END
$$$$
