YRD.pdb
 OpenBabel07022419193D

 59 59  0  0  1  0  0  0  0  0999 V2000
    0.0460    4.8900    2.6460 O   0  0  0  0  0  0  0  0  0  0  0  0
    0.9520    3.9280    2.2180 C   0  0  0  0  0  0  0  0  0  0  0  0
    1.8590    4.2340    1.2240 C   0  0  0  0  0  0  0  0  0  0  0  0
    2.7540    3.2800    0.8030 C   0  0  0  0  0  0  0  0  0  0  0  0
    2.7690    2.0010    1.3580 C   0  0  0  0  0  0  0  0  0  0  0  0
    3.7450    0.9900    0.9100 C   0  0  0  0  0  0  0  0  0  0  0  0
    3.3050    0.1610   -0.2500 C   0  0  2  0  0  0  0  0  0  0  0  0
    3.0470    1.0700   -1.3720 N   0  0  0  0  0  0  0  0  0  0  0  0
    2.1640   -0.7360   -0.0010 C   0  0  0  0  0  0  0  0  0  0  0  0
    2.2280   -1.5320    0.9870 O   0  0  0  0  0  0  0  0  0  0  0  0
    1.8660    1.6950    2.3480 C   0  0  0  0  0  0  0  0  0  0  0  0
    0.9780    2.6600    2.7580 C   0  0  0  0  0  0  0  0  0  0  0  0
    0.0240    5.1550    3.6330 H   0  0  0  0  0  0  0  0  0  0  0  0
    1.8400    5.2440    0.7940 H   0  0  0  0  0  0  0  0  0  0  0  0
    3.4700    3.4890    0.0330 H   0  0  0  0  0  0  0  0  0  0  0  0
    4.1410    0.3860    1.7560 H   0  0  0  0  0  0  0  0  0  0  0  0
    4.6390    1.5790    0.5450 H   0  0  0  0  0  0  0  0  0  0  0  0
    4.2120   -0.4580   -0.5430 H   0  0  0  0  0  0  0  0  0  0  0  0
    3.9250    1.5630   -1.6470 H   0  0  0  0  0  0  0  0  0  0  0  0
    2.7540    0.5450   -2.2330 H   0  0  0  0  0  0  0  0  0  0  0  0
    1.8910    0.6860    2.7730 H   0  0  0  0  0  0  0  0  0  0  0  0
    0.2650    2.4400    3.5370 H   0  0  0  0  0  0  0  0  0  0  0  0
   -1.7170    1.3350    5.3030 N   0  0  0  0  0  0  0  0  0  0  0  0
   -1.5110    0.2660    4.3940 C   0  0  0  0  0  0  0  0  0  0  0  0
   -1.2200   -0.9320    4.8400 N   0  0  0  0  0  0  0  0  0  0  0  0
   -1.6150    0.4710    2.9940 N   0  0  0  0  0  0  0  0  0  0  0  0
   -1.4210   -0.5960    2.0290 C   0  0  0  0  0  0  0  0  0  0  0  0
   -1.6100   -0.0050    0.6550 C   0  0  0  0  0  0  0  0  0  0  0  0
   -1.4510   -0.9770   -0.4520 C   0  0  0  0  0  0  0  0  0  0  0  0
   -0.1350   -1.6550   -0.5770 C   0  0  2  0  0  0  0  0  0  0  0  0
    0.9850   -0.7830   -0.7910 N   0  0  0  0  0  0  0  0  0  0  0  0
   -0.2680   -2.6420   -1.7070 C   0  0  0  0  0  0  0  0  0  0  0  0
    0.5510   -2.5940   -2.6680 O   0  0  0  0  0  0  0  0  0  0  0  0
   -2.6690    1.6720    5.5110 H   0  0  0  0  0  0  0  0  0  0  0  0
   -0.9100    1.7870    5.7690 H   0  0  0  0  0  0  0  0  0  0  0  0
   -1.1360   -1.1170    5.8650 H   0  0  0  0  0  0  0  0  0  0  0  0
   -1.8450    1.4560    2.6940 H   0  0  0  0  0  0  0  0  0  0  0  0
   -0.4330   -1.0260    2.2090 H   0  0  0  0  0  0  0  0  0  0  0  0
   -2.2080   -1.3520    2.2260 H   0  0  0  0  0  0  0  0  0  0  0  0
   -1.0010    0.9080    0.5040 H   0  0  0  0  0  0  0  0  0  0  0  0
   -2.6830    0.3430    0.6250 H   0  0  0  0  0  0  0  0  0  0  0  0
   -2.2410   -1.7500   -0.3800 H   0  0  0  0  0  0  0  0  0  0  0  0
   -1.6400   -0.4230   -1.4060 H   0  0  0  0  0  0  0  0  0  0  0  0
    0.0540   -2.2490    0.3390 H   0  0  0  0  0  0  0  0  0  0  0  0
    0.9390   -0.1190   -1.6010 H   0  0  0  0  0  0  0  0  0  0  0  0
   -1.2730   -3.6400   -1.7600 N   0  0  0  0  0  0  0  0  0  0  0  0
   -1.3740   -4.5800   -2.8680 C   0  0  1  0  0  0  0  0  0  0  0  0
   -1.2400   -6.0060   -2.4360 C   0  0  0  0  0  0  0  0  0  0  0  0
   -2.2840   -6.4080   -1.4670 C   0  0  0  0  0  0  0  0  0  0  0  0
   -3.1990   -5.6210   -1.0580 O   0  0  0  0  0  0  0  0  0  0  0  0
   -2.6230   -4.3330   -3.6350 C   0  0  0  0  0  0  0  0  0  0  0  0
   -2.9320   -5.0130   -4.6400 O   0  0  0  0  0  0  0  0  0  0  0  0
   -2.3090   -7.6880   -0.9540 O   0  0  0  0  0  0  0  0  0  0  0  0
   -3.4760   -3.3200   -3.2300 O   0  0  0  0  0  0  0  0  0  0  0  0
   -1.9400   -3.6670   -0.9550 H   0  0  0  0  0  0  0  0  0  0  0  0
   -0.5390   -4.3290   -3.5810 H   0  0  0  0  0  0  0  0  0  0  0  0
   -0.2260   -6.1860   -2.0440 H   0  0  0  0  0  0  0  0  0  0  0  0
   -1.3620   -6.6550   -3.3310 H   0  0  0  0  0  0  0  0  0  0  0  0
   -2.4930   -7.8680    0.0350 H   0  0  0  0  0  0  0  0  0  0  0  0
  1 13  1  0  0  0  0
  2  1  1  0  0  0  0
  2 12  1  0  0  0  0
  3  2  2  0  0  0  0
  4  3  1  0  0  0  0
  4  5  2  0  0  0  0
  5 11  1  0  0  0  0
  6  5  1  0  0  0  0
  6 16  1  0  0  0  0
  7 18  1  6  0  0  0
  7  9  1  0  0  0  0
  7  6  1  0  0  0  0
  8  7  1  0  0  0  0
  9 10  2  0  0  0  0
 11 12  2  0  0  0  0
 11 21  1  0  0  0  0
 12 22  1  0  0  0  0
 14  3  1  0  0  0  0
 15  4  1  0  0  0  0
 17  6  1  0  0  0  0
 19  8  1  0  0  0  0
 20  8  1  0  0  0  0
 23 34  1  0  0  0  0
 23 35  1  0  0  0  0
 24 25  2  0  0  0  0
 24 23  1  0  0  0  0
 25 36  1  0  0  0  0
 26 24  1  0  0  0  0
 27 38  1  0  0  0  0
 27 39  1  0  0  0  0
 27 26  1  0  0  0  0
 28 27  1  0  0  0  0
 29 42  1  0  0  0  0
 29 28  1  0  0  0  0
 30 29  1  0  0  0  0
 30 44  1  1  0  0  0
 31 30  1  0  0  0  0
 31  9  1  0  0  0  0
 32 30  1  0  0  0  0
 33 32  2  0  0  0  0
 37 26  1  0  0  0  0
 40 28  1  0  0  0  0
 41 28  1  0  0  0  0
 43 29  1  0  0  0  0
 45 31  1  0  0  0  0
 46 32  1  0  0  0  0
 46 55  1  0  0  0  0
 47 56  1  6  0  0  0
 47 48  1  0  0  0  0
 47 46  1  0  0  0  0
 48 57  1  0  0  0  0
 48 49  1  0  0  0  0
 49 50  2  0  0  0  0
 49 53  1  0  0  0  0
 51 54  1  0  0  0  0
 51 47  1  0  0  0  0
 52 51  2  0  0  0  0
 53 59  1  0  0  0  0
 58 48  1  0  0  0  0
M  END
$$$$
