YRF.pdb
 OpenBabel07022419203D

 66 67  0  0  1  0  0  0  0  0999 V2000
    1.2220   -3.1450    5.3060 O   0  0  0  0  0  0  0  0  0  0  0  0
    1.4560   -1.9500    4.6220 C   0  0  0  0  0  0  0  0  0  0  0  0
    2.7290   -1.4140    4.5190 C   0  0  0  0  0  0  0  0  0  0  0  0
    2.9140   -0.2460    3.8430 C   0  0  0  0  0  0  0  0  0  0  0  0
    1.8720    0.4670    3.2290 C   0  0  0  0  0  0  0  0  0  0  0  0
    2.1440    1.7420    2.5640 C   0  0  0  0  0  0  0  0  0  0  0  0
    2.5950    1.7010    1.1520 C   0  0  2  0  0  0  0  0  0  0  0  0
    2.8460    3.0780    0.6740 N   0  0  0  0  0  0  0  0  0  0  0  0
    1.5290    1.2020    0.2570 C   0  0  0  0  0  0  0  0  0  0  0  0
    0.7990    2.0310   -0.4050 O   0  0  0  0  0  0  0  0  0  0  0  0
    0.6210   -0.0880    3.3460 C   0  0  0  0  0  0  0  0  0  0  0  0
    0.4080   -1.2820    4.0330 C   0  0  0  0  0  0  0  0  0  0  0  0
    1.5310   -4.0330    4.9520 H   0  0  0  0  0  0  0  0  0  0  0  0
    3.5470   -1.9550    4.9910 H   0  0  0  0  0  0  0  0  0  0  0  0
    3.9070    0.1900    3.7520 H   0  0  0  0  0  0  0  0  0  0  0  0
    2.8580    2.3150    3.2180 H   0  0  0  0  0  0  0  0  0  0  0  0
    1.1700    2.3310    2.6290 H   0  0  0  0  0  0  0  0  0  0  0  0
    3.5230    1.1320    0.9870 H   0  0  0  0  0  0  0  0  0  0  0  0
    2.2080    3.7550    1.0870 H   0  0  0  0  0  0  0  0  0  0  0  0
    3.8390    3.3090    0.6550 H   0  0  0  0  0  0  0  0  0  0  0  0
   -0.2380    0.4000    2.8990 H   0  0  0  0  0  0  0  0  0  0  0  0
   -0.5640   -1.7040    4.1190 H   0  0  0  0  0  0  0  0  0  0  0  0
    1.1100    2.0520   -5.5640 N   0  0  0  0  0  0  0  0  0  0  0  0
    0.4370    0.8110   -5.5310 C   0  0  0  0  0  0  0  0  0  0  0  0
   -0.8140    0.7380   -5.8740 N   0  0  0  0  0  0  0  0  0  0  0  0
    1.0700   -0.3880   -5.1340 N   0  0  0  0  0  0  0  0  0  0  0  0
    0.3360   -1.5330   -4.6230 C   0  0  0  0  0  0  0  0  0  0  0  0
   -0.2700   -1.2110   -3.2520 C   0  0  0  0  0  0  0  0  0  0  0  0
    0.7930   -0.8610   -2.2640 C   0  0  0  0  0  0  0  0  0  0  0  0
    0.1440   -0.4970   -0.9170 C   0  0  2  0  0  0  0  0  0  0  0  0
    1.2050   -0.1630    0.0210 N   0  0  0  0  0  0  0  0  0  0  0  0
   -0.7760   -1.5050   -0.4150 C   0  0  0  0  0  0  0  0  0  0  0  0
   -1.8620   -1.8000   -1.0370 O   0  0  0  0  0  0  0  0  0  0  0  0
    1.8290    2.2100   -6.3010 H   0  0  0  0  0  0  0  0  0  0  0  0
    0.9280    2.8210   -4.8910 H   0  0  0  0  0  0  0  0  0  0  0  0
   -1.3180    1.6030   -6.1740 H   0  0  0  0  0  0  0  0  0  0  0  0
    2.1000   -0.4540   -5.2100 H   0  0  0  0  0  0  0  0  0  0  0  0
    0.9480   -2.4430   -4.6040 H   0  0  0  0  0  0  0  0  0  0  0  0
   -0.5100   -1.7180   -5.3180 H   0  0  0  0  0  0  0  0  0  0  0  0
   -0.7880   -2.1690   -2.9320 H   0  0  0  0  0  0  0  0  0  0  0  0
   -1.0330   -0.4330   -3.4240 H   0  0  0  0  0  0  0  0  0  0  0  0
    1.2790    0.0810   -2.6030 H   0  0  0  0  0  0  0  0  0  0  0  0
    1.5100   -1.6750   -2.1650 H   0  0  0  0  0  0  0  0  0  0  0  0
   -0.4540    0.4260   -1.1820 H   0  0  0  0  0  0  0  0  0  0  0  0
    1.7390   -0.8840    0.5190 H   0  0  0  0  0  0  0  0  0  0  0  0
   -0.5700   -2.2480    0.7800 N   0  0  0  0  0  0  0  0  0  0  0  0
   -1.4720   -3.2410    1.2880 C   0  0  1  0  0  0  0  0  0  0  0  0
   -2.9020   -2.8170    1.4030 C   0  0  0  0  0  0  0  0  0  0  0  0
   -3.1490   -1.6810    2.3160 C   0  0  0  0  0  0  0  0  0  0  0  0
   -3.3890   -1.9140    3.6820 C   0  0  0  0  0  0  0  0  0  0  0  0
   -3.6330   -0.8740    4.5520 C   0  0  0  0  0  0  0  0  0  0  0  0
   -3.6420    0.4270    4.0780 C   0  0  0  0  0  0  0  0  0  0  0  0
   -3.4050    0.6280    2.7410 C   0  0  0  0  0  0  0  0  0  0  0  0
   -3.1560   -0.3990    1.8360 C   0  0  0  0  0  0  0  0  0  0  0  0
   -1.3910   -4.5250    0.5900 C   0  0  0  0  0  0  0  0  0  0  0  0
   -2.1100   -5.4800    0.9170 O   0  0  0  0  0  0  0  0  0  0  0  0
   -0.4920   -4.6860   -0.4630 O   0  0  0  0  0  0  0  0  0  0  0  0
    0.3160   -2.0400    1.2910 H   0  0  0  0  0  0  0  0  0  0  0  0
   -1.1640   -3.4500    2.3710 H   0  0  0  0  0  0  0  0  0  0  0  0
   -3.4060   -2.5880    0.4550 H   0  0  0  0  0  0  0  0  0  0  0  0
   -3.4550   -3.6850    1.8480 H   0  0  0  0  0  0  0  0  0  0  0  0
   -3.3840   -2.9320    4.0640 H   0  0  0  0  0  0  0  0  0  0  0  0
   -3.8200   -1.0270    5.6060 H   0  0  0  0  0  0  0  0  0  0  0  0
   -3.8350    1.2640    4.7610 H   0  0  0  0  0  0  0  0  0  0  0  0
   -3.4050    1.6490    2.3270 H   0  0  0  0  0  0  0  0  0  0  0  0
   -2.9830   -0.1360    0.7790 H   0  0  0  0  0  0  0  0  0  0  0  0
  2  1  1  0  0  0  0
  3  2  1  0  0  0  0
  3 14  1  0  0  0  0
  4  3  2  0  0  0  0
  5 11  2  0  0  0  0
  5  4  1  0  0  0  0
  6 17  1  0  0  0  0
  6 16  1  0  0  0  0
  6  5  1  0  0  0  0
  7 18  1  6  0  0  0
  7  6  1  0  0  0  0
  8 19  1  0  0  0  0
  8  7  1  0  0  0  0
  9  7  1  0  0  0  0
 10  9  2  0  0  0  0
 11 12  1  0  0  0  0
 12 22  1  0  0  0  0
 12  2  2  0  0  0  0
 13  1  1  0  0  0  0
 15  4  1  0  0  0  0
 20  8  1  0  0  0  0
 21 11  1  0  0  0  0
 23 24  1  0  0  0  0
 23 35  1  0  0  0  0
 24 26  1  0  0  0  0
 25 24  2  0  0  0  0
 26 27  1  0  0  0  0
 27 38  1  0  0  0  0
 27 28  1  0  0  0  0
 28 40  1  0  0  0  0
 28 29  1  0  0  0  0
 29 43  1  0  0  0  0
 29 30  1  0  0  0  0
 30 44  1  6  0  0  0
 30 32  1  0  0  0  0
 30 31  1  0  0  0  0
 31  9  1  0  0  0  0
 31 45  1  0  0  0  0
 32 46  1  0  0  0  0
 33 32  2  0  0  0  0
 34 23  1  0  0  0  0
 36 25  1  0  0  0  0
 37 26  1  0  0  0  0
 39 27  1  0  0  0  0
 41 28  1  0  0  0  0
 42 29  1  0  0  0  0
 46 47  1  0  0  0  0
 46 58  1  0  0  0  0
 47 48  1  0  0  0  0
 47 59  1  1  0  0  0
 48 61  1  0  0  0  0
 48 49  1  0  0  0  0
 49 50  1  0  0  0  0
 50 62  1  0  0  0  0
 50 51  2  0  0  0  0
 51 63  1  0  0  0  0
 52 51  1  0  0  0  0
 52 64  1  0  0  0  0
 53 52  2  0  0  0  0
 54 49  2  0  0  0  0
 54 53  1  0  0  0  0
 55 56  1  0  0  0  0
 55 47  1  0  0  0  0
 57 55  2  0  0  0  0
 60 48  1  0  0  0  0
 65 53  1  0  0  0  0
 66 54  1  0  0  0  0
M  END
$$$$
