YRH.pdb
 OpenBabel07022419203D

 63 64  0  0  1  0  0  0  0  0999 V2000
    5.2090    4.1510    3.4830 O   0  0  0  0  0  0  0  0  0  0  0  0
    4.9850    3.0850    2.6140 C   0  0  0  0  0  0  0  0  0  0  0  0
    5.6680    1.9190    2.7830 C   0  0  0  0  0  0  0  0  0  0  0  0
    5.4720    0.8460    1.9450 C   0  0  0  0  0  0  0  0  0  0  0  0
    4.5650    0.8990    0.8800 C   0  0  0  0  0  0  0  0  0  0  0  0
    4.4120   -0.2820    0.0220 C   0  0  0  0  0  0  0  0  0  0  0  0
    3.3970   -1.2600    0.5020 C   0  0  2  0  0  0  0  0  0  0  0  0
    3.3410   -2.3720   -0.4290 N   0  0  0  0  0  0  0  0  0  0  0  0
    2.0710   -0.6550    0.6350 C   0  0  0  0  0  0  0  0  0  0  0  0
    1.8940    0.3110    1.4410 O   0  0  0  0  0  0  0  0  0  0  0  0
    3.8850    2.0840    0.7240 C   0  0  0  0  0  0  0  0  0  0  0  0
    4.0870    3.1700    1.5780 C   0  0  0  0  0  0  0  0  0  0  0  0
    5.5690    4.0450    4.4070 H   0  0  0  0  0  0  0  0  0  0  0  0
    6.3830    1.8090    3.5840 H   0  0  0  0  0  0  0  0  0  0  0  0
    6.0170   -0.0710    2.0870 H   0  0  0  0  0  0  0  0  0  0  0  0
    5.4150   -0.7740   -0.0420 H   0  0  0  0  0  0  0  0  0  0  0  0
    4.1570    0.0680   -1.0150 H   0  0  0  0  0  0  0  0  0  0  0  0
    3.7530   -1.6810    1.4660 H   0  0  0  0  0  0  0  0  0  0  0  0
    2.9670   -2.1170   -1.3520 H   0  0  0  0  0  0  0  0  0  0  0  0
    4.2200   -2.9110   -0.4420 H   0  0  0  0  0  0  0  0  0  0  0  0
    3.1800    2.1660   -0.0880 H   0  0  0  0  0  0  0  0  0  0  0  0
    3.5350    4.0840    1.4240 H   0  0  0  0  0  0  0  0  0  0  0  0
   -5.9010    2.1170   -0.3030 N   0  0  0  0  0  0  0  0  0  0  0  0
   -4.6230    1.9950    0.2930 C   0  0  0  0  0  0  0  0  0  0  0  0
   -4.4370    1.3200    1.3910 N   0  0  0  0  0  0  0  0  0  0  0  0
   -3.4730    2.6090   -0.2800 N   0  0  0  0  0  0  0  0  0  0  0  0
   -2.1740    1.9830   -0.2680 C   0  0  0  0  0  0  0  0  0  0  0  0
   -2.1790    0.7700   -1.1710 C   0  0  0  0  0  0  0  0  0  0  0  0
   -0.8690    0.0740   -1.2210 C   0  0  0  0  0  0  0  0  0  0  0  0
   -0.3490   -0.4470    0.0820 C   0  0  2  0  0  0  0  0  0  0  0  0
    0.9510   -1.0940   -0.0980 N   0  0  0  0  0  0  0  0  0  0  0  0
   -1.3070   -1.4260    0.6450 C   0  0  0  0  0  0  0  0  0  0  0  0
   -2.4710   -1.0650    0.9080 O   0  0  0  0  0  0  0  0  0  0  0  0
   -6.1500    3.0460   -0.7550 H   0  0  0  0  0  0  0  0  0  0  0  0
   -6.6150    1.3590   -0.3310 H   0  0  0  0  0  0  0  0  0  0  0  0
   -5.2140    0.8370    1.8850 H   0  0  0  0  0  0  0  0  0  0  0  0
   -3.6100    3.5610   -0.7270 H   0  0  0  0  0  0  0  0  0  0  0  0
   -1.4310    2.7180   -0.6090 H   0  0  0  0  0  0  0  0  0  0  0  0
   -1.9140    1.7240    0.7810 H   0  0  0  0  0  0  0  0  0  0  0  0
   -3.0130    0.1010   -0.9680 H   0  0  0  0  0  0  0  0  0  0  0  0
   -2.3620    1.1760   -2.2110 H   0  0  0  0  0  0  0  0  0  0  0  0
   -0.9950   -0.7910   -1.9380 H   0  0  0  0  0  0  0  0  0  0  0  0
   -0.1020    0.7320   -1.7280 H   0  0  0  0  0  0  0  0  0  0  0  0
   -0.2290    0.3610    0.8290 H   0  0  0  0  0  0  0  0  0  0  0  0
    1.0230   -1.8740   -0.7710 H   0  0  0  0  0  0  0  0  0  0  0  0
   -0.9610   -2.7810    0.9050 N   0  0  0  0  0  0  0  0  0  0  0  0
   -1.9300   -3.6930    1.4520 C   0  0  1  0  0  0  0  0  0  0  0  0
   -2.2120   -4.8450    0.5060 C   0  0  0  0  0  0  0  0  0  0  0  0
   -2.7430   -4.3290   -0.7800 C   0  0  0  0  0  0  0  0  0  0  0  0
   -4.0940   -4.1280   -1.0600 C   0  0  0  0  0  0  0  0  0  0  0  0
   -4.2240   -3.6530   -2.3100 N   0  0  0  0  0  0  0  0  0  0  0  0
   -2.9940   -3.5450   -2.8400 C   0  0  0  0  0  0  0  0  0  0  0  0
   -2.0970   -3.9600   -1.8990 N   0  0  0  0  0  0  0  0  0  0  0  0
   -1.5470   -4.1770    2.7910 C   0  0  0  0  0  0  0  0  0  0  0  0
   -2.2970   -4.9740    3.3880 O   0  0  0  0  0  0  0  0  0  0  0  0
   -0.3810   -3.7630    3.3850 O   0  0  0  0  0  0  0  0  0  0  0  0
    0.0020   -3.0960    0.6920 H   0  0  0  0  0  0  0  0  0  0  0  0
   -2.9090   -3.1490    1.5950 H   0  0  0  0  0  0  0  0  0  0  0  0
   -2.9150   -5.5550    0.9860 H   0  0  0  0  0  0  0  0  0  0  0  0
   -1.2710   -5.4230    0.3320 H   0  0  0  0  0  0  0  0  0  0  0  0
   -4.9110   -4.3210   -0.3790 H   0  0  0  0  0  0  0  0  0  0  0  0
   -5.1080   -3.4070   -2.8010 H   0  0  0  0  0  0  0  0  0  0  0  0
   -2.7690   -3.1860   -3.8500 H   0  0  0  0  0  0  0  0  0  0  0  0
  1 13  1  0  0  0  0
  2  3  1  0  0  0  0
  2  1  1  0  0  0  0
  3 14  1  0  0  0  0
  4 15  1  0  0  0  0
  4  3  2  0  0  0  0
  5  4  1  0  0  0  0
  6  7  1  0  0  0  0
  6  5  1  0  0  0  0
  7  9  1  0  0  0  0
  7 18  1  1  0  0  0
  8  7  1  0  0  0  0
  9 10  2  0  0  0  0
 11  5  2  0  0  0  0
 11 12  1  0  0  0  0
 12  2  2  0  0  0  0
 16  6  1  0  0  0  0
 17  6  1  0  0  0  0
 19  8  1  0  0  0  0
 20  8  1  0  0  0  0
 21 11  1  0  0  0  0
 22 12  1  0  0  0  0
 23 24  1  0  0  0  0
 24 25  2  0  0  0  0
 25 36  1  0  0  0  0
 26 27  1  0  0  0  0
 26 24  1  0  0  0  0
 27 39  1  0  0  0  0
 28 40  1  0  0  0  0
 28 27  1  0  0  0  0
 29 28  1  0  0  0  0
 29 30  1  0  0  0  0
 30 32  1  0  0  0  0
 30 44  1  1  0  0  0
 31 30  1  0  0  0  0
 31  9  1  0  0  0  0
 32 46  1  0  0  0  0
 32 33  2  0  0  0  0
 34 23  1  0  0  0  0
 35 23  1  0  0  0  0
 37 26  1  0  0  0  0
 38 27  1  0  0  0  0
 41 28  1  0  0  0  0
 42 29  1  0  0  0  0
 43 29  1  0  0  0  0
 45 31  1  0  0  0  0
 46 47  1  0  0  0  0
 47 58  1  1  0  0  0
 47 54  1  0  0  0  0
 48 59  1  0  0  0  0
 48 47  1  0  0  0  0
 49 48  1  0  0  0  0
 50 49  2  0  0  0  0
 50 61  1  0  0  0  0
 51 50  1  0  0  0  0
 52 51  1  0  0  0  0
 52 53  2  0  0  0  0
 53 49  1  0  0  0  0
 54 56  2  0  0  0  0
 54 55  1  0  0  0  0
 57 46  1  0  0  0  0
 60 48  1  0  0  0  0
 62 51  1  0  0  0  0
 63 52  1  0  0  0  0
M  END
$$$$
