YRI.pdb
 OpenBabel07022419203D

 65 65  0  0  1  0  0  0  0  0999 V2000
    3.2800   -1.8250    5.5280 O   0  0  0  0  0  0  0  0  0  0  0  0
    3.5560   -1.1270    4.3430 C   0  0  0  0  0  0  0  0  0  0  0  0
    4.0850    0.1390    4.4250 C   0  0  0  0  0  0  0  0  0  0  0  0
    4.3760    0.8740    3.2990 C   0  0  0  0  0  0  0  0  0  0  0  0
    4.1240    0.3080    2.0680 C   0  0  0  0  0  0  0  0  0  0  0  0
    4.4340    1.0520    0.8510 C   0  0  0  0  0  0  0  0  0  0  0  0
    3.3830    1.9500    0.3200 C   0  0  2  0  0  0  0  0  0  0  0  0
    3.0320    2.9460    1.2790 N   0  0  0  0  0  0  0  0  0  0  0  0
    2.2130    1.2720   -0.3130 C   0  0  0  0  0  0  0  0  0  0  0  0
    2.4100    0.3210   -1.1050 O   0  0  0  0  0  0  0  0  0  0  0  0
    3.5930   -0.9620    2.0120 C   0  0  0  0  0  0  0  0  0  0  0  0
    3.2930   -1.7170    3.1230 C   0  0  0  0  0  0  0  0  0  0  0  0
    2.5840   -2.5610    5.4990 H   0  0  0  0  0  0  0  0  0  0  0  0
    4.2940    0.6080    5.3990 H   0  0  0  0  0  0  0  0  0  0  0  0
    4.8010    1.8890    3.3850 H   0  0  0  0  0  0  0  0  0  0  0  0
    4.7590    0.3400    0.0570 H   0  0  0  0  0  0  0  0  0  0  0  0
    5.3230    1.7090    1.0860 H   0  0  0  0  0  0  0  0  0  0  0  0
    3.8790    2.5270   -0.5320 H   0  0  0  0  0  0  0  0  0  0  0  0
    2.7180    2.5820    2.1960 H   0  0  0  0  0  0  0  0  0  0  0  0
    3.6370    3.7730    1.3140 H   0  0  0  0  0  0  0  0  0  0  0  0
    3.3760   -1.4510    1.0490 H   0  0  0  0  0  0  0  0  0  0  0  0
    2.8800   -2.7060    3.0940 H   0  0  0  0  0  0  0  0  0  0  0  0
   -3.9880    0.9530    0.6950 N   0  0  0  0  0  0  0  0  0  0  0  0
   -3.9120    0.9420   -0.7170 C   0  0  0  0  0  0  0  0  0  0  0  0
   -4.5460    0.0450   -1.4070 N   0  0  0  0  0  0  0  0  0  0  0  0
   -3.1540    1.9190   -1.4130 N   0  0  0  0  0  0  0  0  0  0  0  0
   -2.5800    1.7860   -2.6930 C   0  0  0  0  0  0  0  0  0  0  0  0
   -1.3940    0.8980   -2.9040 C   0  0  0  0  0  0  0  0  0  0  0  0
   -0.2180    1.2940   -2.0660 C   0  0  0  0  0  0  0  0  0  0  0  0
   -0.2820    1.1170   -0.6010 C   0  0  2  0  0  0  0  0  0  0  0  0
    0.9300    1.7370    0.0060 N   0  0  0  0  0  0  0  0  0  0  0  0
   -0.2450   -0.3210   -0.1500 C   0  0  0  0  0  0  0  0  0  0  0  0
    0.7580   -0.7160    0.5540 O   0  0  0  0  0  0  0  0  0  0  0  0
   -4.9090    1.0280    1.2000 H   0  0  0  0  0  0  0  0  0  0  0  0
   -3.1140    0.8850    1.2620 H   0  0  0  0  0  0  0  0  0  0  0  0
   -5.1170   -0.6720   -0.9250 H   0  0  0  0  0  0  0  0  0  0  0  0
   -3.0320    2.8420   -0.8730 H   0  0  0  0  0  0  0  0  0  0  0  0
   -2.2720    2.7930   -3.1060 H   0  0  0  0  0  0  0  0  0  0  0  0
   -3.3750    1.4180   -3.4030 H   0  0  0  0  0  0  0  0  0  0  0  0
   -1.1110    1.0690   -4.0010 H   0  0  0  0  0  0  0  0  0  0  0  0
   -1.6250   -0.1770   -2.8900 H   0  0  0  0  0  0  0  0  0  0  0  0
    0.0310    2.3530   -2.3510 H   0  0  0  0  0  0  0  0  0  0  0  0
    0.6510    0.6860   -2.4440 H   0  0  0  0  0  0  0  0  0  0  0  0
   -1.1450    1.5820   -0.1600 H   0  0  0  0  0  0  0  0  0  0  0  0
    0.7730    2.5420    0.6850 H   0  0  0  0  0  0  0  0  0  0  0  0
   -2.7210   -5.4400    0.7930 C   0  0  0  0  0  0  0  0  0  0  0  0
   -2.2160   -4.3230    1.6350 C   0  0  0  0  0  0  0  0  0  0  0  0
   -2.1460   -2.9780    0.9960 C   0  0  2  0  0  0  0  0  0  0  0  0
   -3.5180   -2.5890    0.5060 C   0  0  0  0  0  0  0  0  0  0  0  0
   -1.0260   -2.7010    0.0700 C   0  0  2  0  0  0  0  0  0  0  0  0
   -1.1860   -1.3070   -0.4080 N   0  0  0  0  0  0  0  0  0  0  0  0
   -0.8010   -3.6050   -1.0430 C   0  0  0  0  0  0  0  0  0  0  0  0
   -0.8930   -3.2160   -2.2590 O   0  0  0  0  0  0  0  0  0  0  0  0
   -0.4700   -4.9280   -0.8650 O   0  0  0  0  0  0  0  0  0  0  0  0
   -3.0460   -5.1860   -0.2210 H   0  0  0  0  0  0  0  0  0  0  0  0
   -3.6650   -5.8810    1.2740 H   0  0  0  0  0  0  0  0  0  0  0  0
   -2.0080   -6.2900    0.8450 H   0  0  0  0  0  0  0  0  0  0  0  0
   -1.2220   -4.5740    2.1220 H   0  0  0  0  0  0  0  0  0  0  0  0
   -2.8940   -4.2360    2.5370 H   0  0  0  0  0  0  0  0  0  0  0  0
   -1.9940   -2.2680    1.9090 H   0  0  0  0  0  0  0  0  0  0  0  0
   -4.1910   -3.4920    0.6510 H   0  0  0  0  0  0  0  0  0  0  0  0
   -3.9430   -1.7720    1.0990 H   0  0  0  0  0  0  0  0  0  0  0  0
   -3.5380   -2.4270   -0.5940 H   0  0  0  0  0  0  0  0  0  0  0  0
   -0.0670   -2.6780    0.6700 H   0  0  0  0  0  0  0  0  0  0  0  0
   -2.0420   -1.1230   -0.9290 H   0  0  0  0  0  0  0  0  0  0  0  0
  2  3  1  0  0  0  0
  2  1  1  0  0  0  0
  3 14  1  0  0  0  0
  4 15  1  0  0  0  0
  4  3  2  0  0  0  0
  5  4  1  0  0  0  0
  6 17  1  0  0  0  0
  6  5  1  0  0  0  0
  7 18  1  6  0  0  0
  7  6  1  0  0  0  0
  7  8  1  0  0  0  0
  8 20  1  0  0  0  0
  8 19  1  0  0  0  0
  9 31  1  0  0  0  0
  9  7  1  0  0  0  0
 10  9  2  0  0  0  0
 11  5  2  0  0  0  0
 11 12  1  0  0  0  0
 12  2  2  0  0  0  0
 13  1  1  0  0  0  0
 16  6  1  0  0  0  0
 21 11  1  0  0  0  0
 22 12  1  0  0  0  0
 23 34  1  0  0  0  0
 23 35  1  0  0  0  0
 24 23  1  0  0  0  0
 25 36  1  0  0  0  0
 25 24  2  0  0  0  0
 26 37  1  0  0  0  0
 26 24  1  0  0  0  0
 27 26  1  0  0  0  0
 28 41  1  0  0  0  0
 28 27  1  0  0  0  0
 28 29  1  0  0  0  0
 29 30  1  0  0  0  0
 30 44  1  1  0  0  0
 30 32  1  0  0  0  0
 30 31  1  0  0  0  0
 31 45  1  0  0  0  0
 32 33  2  0  0  0  0
 38 27  1  0  0  0  0
 39 27  1  0  0  0  0
 40 28  1  0  0  0  0
 42 29  1  0  0  0  0
 43 29  1  0  0  0  0
 46 57  1  0  0  0  0
 46 56  1  0  0  0  0
 46 47  1  0  0  0  0
 47 58  1  0  0  0  0
 47 59  1  0  0  0  0
 48 47  1  0  0  0  0
 48 60  1  1  0  0  0
 49 61  1  0  0  0  0
 49 48  1  0  0  0  0
 49 62  1  0  0  0  0
 50 64  1  1  0  0  0
 50 48  1  0  0  0  0
 51 32  1  0  0  0  0
 51 50  1  0  0  0  0
 52 54  1  0  0  0  0
 52 50  1  0  0  0  0
 53 52  2  0  0  0  0
 55 46  1  0  0  0  0
 63 49  1  0  0  0  0
 65 51  1  0  0  0  0
M  END
$$$$
