YRL.pdb
 OpenBabel07022419203D

 65 65  0  0  1  0  0  0  0  0999 V2000
    5.1630   -0.0020    4.5740 O   0  0  0  0  0  0  0  0  0  0  0  0
    4.7710    0.1640    3.2560 C   0  0  0  0  0  0  0  0  0  0  0  0
    5.4540    0.9990    2.3950 C   0  0  0  0  0  0  0  0  0  0  0  0
    5.1120    1.1930    1.0760 C   0  0  0  0  0  0  0  0  0  0  0  0
    4.0030    0.5080    0.5690 C   0  0  0  0  0  0  0  0  0  0  0  0
    3.6410    0.6580   -0.8280 C   0  0  0  0  0  0  0  0  0  0  0  0
    2.7880    1.7980   -1.2100 C   0  0  2  0  0  0  0  0  0  0  0  0
    3.3910    3.0700   -0.8440 N   0  0  0  0  0  0  0  0  0  0  0  0
    1.3750    1.6730   -0.9240 C   0  0  0  0  0  0  0  0  0  0  0  0
    0.6880    2.7030   -0.6220 O   0  0  0  0  0  0  0  0  0  0  0  0
    3.3150   -0.3260    1.4150 C   0  0  0  0  0  0  0  0  0  0  0  0
    3.6940   -0.5020    2.7550 C   0  0  0  0  0  0  0  0  0  0  0  0
    4.9110   -0.8110    5.1350 H   0  0  0  0  0  0  0  0  0  0  0  0
    6.3200    1.5320    2.7990 H   0  0  0  0  0  0  0  0  0  0  0  0
    5.7140    1.8680    0.4920 H   0  0  0  0  0  0  0  0  0  0  0  0
    3.0580   -0.2740   -1.1390 H   0  0  0  0  0  0  0  0  0  0  0  0
    4.5810    0.5850   -1.4270 H   0  0  0  0  0  0  0  0  0  0  0  0
    2.8800    1.8010   -2.3940 H   0  0  0  0  0  0  0  0  0  0  0  0
    2.7840    3.4470   -0.0550 H   0  0  0  0  0  0  0  0  0  0  0  0
    3.4990    3.7330   -1.6230 H   0  0  0  0  0  0  0  0  0  0  0  0
    2.4490   -0.8960    1.1010 H   0  0  0  0  0  0  0  0  0  0  0  0
    3.1410   -1.1630    3.4060 H   0  0  0  0  0  0  0  0  0  0  0  0
   -3.0330    2.3530    2.4270 N   0  0  0  0  0  0  0  0  0  0  0  0
   -3.6360    2.1880    1.1720 C   0  0  0  0  0  0  0  0  0  0  0  0
   -4.7620    1.5590    1.0860 N   0  0  0  0  0  0  0  0  0  0  0  0
   -3.0820    2.6880   -0.0570 N   0  0  0  0  0  0  0  0  0  0  0  0
   -3.4060    2.2690   -1.3470 C   0  0  0  0  0  0  0  0  0  0  0  0
   -2.9920    0.9530   -1.8880 C   0  0  0  0  0  0  0  0  0  0  0  0
   -1.5500    0.6910   -2.0020 C   0  0  0  0  0  0  0  0  0  0  0  0
   -0.8430    0.5970   -0.6500 C   0  0  2  0  0  0  0  0  0  0  0  0
    0.5970    0.4640   -0.9460 N   0  0  0  0  0  0  0  0  0  0  0  0
   -1.3340   -0.5680    0.1010 C   0  0  0  0  0  0  0  0  0  0  0  0
   -2.5440   -0.5910    0.5100 O   0  0  0  0  0  0  0  0  0  0  0  0
   -3.5240    2.3280    3.3320 H   0  0  0  0  0  0  0  0  0  0  0  0
   -1.9930    2.5100    2.4690 H   0  0  0  0  0  0  0  0  0  0  0  0
   -5.1890    1.1900    1.9640 H   0  0  0  0  0  0  0  0  0  0  0  0
   -2.3600    3.4590    0.0940 H   0  0  0  0  0  0  0  0  0  0  0  0
   -4.5330    2.3100   -1.4390 H   0  0  0  0  0  0  0  0  0  0  0  0
   -3.0450    3.0490   -2.0860 H   0  0  0  0  0  0  0  0  0  0  0  0
   -3.4070    0.9350   -2.9520 H   0  0  0  0  0  0  0  0  0  0  0  0
   -3.5420    0.1060   -1.4030 H   0  0  0  0  0  0  0  0  0  0  0  0
   -1.0680    1.5640   -2.5250 H   0  0  0  0  0  0  0  0  0  0  0  0
   -1.2950   -0.1860   -2.6410 H   0  0  0  0  0  0  0  0  0  0  0  0
   -1.0140    1.5210   -0.1420 H   0  0  0  0  0  0  0  0  0  0  0  0
    1.0380   -0.4100   -1.1430 H   0  0  0  0  0  0  0  0  0  0  0  0
   -1.4690   -6.0130    1.2740 C   0  0  0  0  0  0  0  0  0  0  0  0
   -2.3590   -5.0550    0.5650 C   0  0  0  0  0  0  0  0  0  0  0  0
   -3.0190   -5.7660   -0.6240 C   0  0  0  0  0  0  0  0  0  0  0  0
   -1.7000   -3.8130    0.1700 C   0  0  0  0  0  0  0  0  0  0  0  0
   -1.2180   -2.8520    1.1920 C   0  0  2  0  0  0  0  0  0  0  0  0
   -0.5890   -1.7220    0.4360 N   0  0  0  0  0  0  0  0  0  0  0  0
   -0.4560   -3.2390    2.3230 C   0  0  0  0  0  0  0  0  0  0  0  0
    0.7310   -2.7210    2.5390 O   0  0  0  0  0  0  0  0  0  0  0  0
   -0.8010   -4.1410    3.3200 O   0  0  0  0  0  0  0  0  0  0  0  0
   -0.4200   -5.7170    1.2640 H   0  0  0  0  0  0  0  0  0  0  0  0
   -1.4750   -6.9500    0.6140 H   0  0  0  0  0  0  0  0  0  0  0  0
   -1.8450   -6.3640    2.2690 H   0  0  0  0  0  0  0  0  0  0  0  0
   -3.2750   -4.8360    1.2290 H   0  0  0  0  0  0  0  0  0  0  0  0
   -4.1110   -5.5310   -0.6780 H   0  0  0  0  0  0  0  0  0  0  0  0
   -2.5070   -5.4450   -1.5470 H   0  0  0  0  0  0  0  0  0  0  0  0
   -2.9340   -6.8490   -0.5410 H   0  0  0  0  0  0  0  0  0  0  0  0
   -2.4290   -3.2470   -0.4980 H   0  0  0  0  0  0  0  0  0  0  0  0
   -0.8430   -4.0390   -0.5530 H   0  0  0  0  0  0  0  0  0  0  0  0
   -2.1960   -2.3760    1.5870 H   0  0  0  0  0  0  0  0  0  0  0  0
    0.3950   -1.7700    0.1510 H   0  0  0  0  0  0  0  0  0  0  0  0
  1 13  1  0  0  0  0
  2  1  1  0  0  0  0
  3 14  1  0  0  0  0
  3  2  2  0  0  0  0
  4  3  1  0  0  0  0
  5  4  2  0  0  0  0
  5 11  1  0  0  0  0
  6  5  1  0  0  0  0
  7 18  1  6  0  0  0
  7  9  1  0  0  0  0
  7  8  1  0  0  0  0
  7  6  1  0  0  0  0
  8 19  1  0  0  0  0
  9 10  2  0  0  0  0
 11 12  2  0  0  0  0
 12  2  1  0  0  0  0
 12 22  1  0  0  0  0
 15  4  1  0  0  0  0
 16  6  1  0  0  0  0
 17  6  1  0  0  0  0
 20  8  1  0  0  0  0
 21 11  1  0  0  0  0
 23 35  1  0  0  0  0
 23 34  1  0  0  0  0
 24 23  1  0  0  0  0
 25 24  2  0  0  0  0
 25 36  1  0  0  0  0
 26 37  1  0  0  0  0
 26 24  1  0  0  0  0
 27 26  1  0  0  0  0
 28 41  1  0  0  0  0
 28 27  1  0  0  0  0
 29 28  1  0  0  0  0
 29 30  1  0  0  0  0
 30 44  1  1  0  0  0
 30 32  1  0  0  0  0
 31  9  1  0  0  0  0
 31 30  1  0  0  0  0
 32 51  1  0  0  0  0
 32 33  2  0  0  0  0
 38 27  1  0  0  0  0
 39 27  1  0  0  0  0
 40 28  1  0  0  0  0
 42 29  1  0  0  0  0
 43 29  1  0  0  0  0
 45 31  1  0  0  0  0
 46 57  1  0  0  0  0
 47 58  1  0  0  0  0
 47 46  1  0  0  0  0
 48 61  1  0  0  0  0
 48 47  1  0  0  0  0
 49 47  1  0  0  0  0
 49 50  1  0  0  0  0
 50 64  1  1  0  0  0
 50 52  1  0  0  0  0
 51 50  1  0  0  0  0
 52 53  2  0  0  0  0
 52 54  1  0  0  0  0
 55 46  1  0  0  0  0
 56 46  1  0  0  0  0
 59 48  1  0  0  0  0
 60 48  1  0  0  0  0
 62 49  1  0  0  0  0
 63 49  1  0  0  0  0
 65 51  1  0  0  0  0
M  END
$$$$
