YRM.pdb
 OpenBabel07022419203D

 63 63  0  0  1  0  0  0  0  0999 V2000
    6.4090   -0.4560    2.6990 O   0  0  0  0  0  0  0  0  0  0  0  0
    5.8070   -0.0680    1.5000 C   0  0  0  0  0  0  0  0  0  0  0  0
    5.7560    1.2540    1.0890 C   0  0  0  0  0  0  0  0  0  0  0  0
    5.1690    1.6480   -0.0850 C   0  0  0  0  0  0  0  0  0  0  0  0
    4.6000    0.7170   -0.9070 C   0  0  0  0  0  0  0  0  0  0  0  0
    3.9550    1.1170   -2.1920 C   0  0  0  0  0  0  0  0  0  0  0  0
    2.4940    1.4430   -2.0160 C   0  0  2  0  0  0  0  0  0  0  0  0
    2.2610    2.5210   -1.1000 N   0  0  0  0  0  0  0  0  0  0  0  0
    1.6990    0.2600   -1.5590 C   0  0  0  0  0  0  0  0  0  0  0  0
    1.7590   -0.7570   -2.2950 O   0  0  0  0  0  0  0  0  0  0  0  0
    4.6310   -0.6030   -0.5350 C   0  0  0  0  0  0  0  0  0  0  0  0
    5.2250   -0.9820    0.6480 C   0  0  0  0  0  0  0  0  0  0  0  0
    5.7410   -0.6620    3.4580 H   0  0  0  0  0  0  0  0  0  0  0  0
    6.2220    1.9840    1.7710 H   0  0  0  0  0  0  0  0  0  0  0  0
    5.1610    2.7190   -0.3540 H   0  0  0  0  0  0  0  0  0  0  0  0
    4.0220    0.2640   -2.8980 H   0  0  0  0  0  0  0  0  0  0  0  0
    4.4770    1.9670   -2.6440 H   0  0  0  0  0  0  0  0  0  0  0  0
    2.0940    1.7290   -3.0080 H   0  0  0  0  0  0  0  0  0  0  0  0
    2.7770    2.4760   -0.2210 H   0  0  0  0  0  0  0  0  0  0  0  0
    2.1280    3.4440   -1.5200 H   0  0  0  0  0  0  0  0  0  0  0  0
    4.1820   -1.3760   -1.1820 H   0  0  0  0  0  0  0  0  0  0  0  0
    5.2560   -2.0370    0.9560 H   0  0  0  0  0  0  0  0  0  0  0  0
   -2.9100    2.6610    2.4470 N   0  0  0  0  0  0  0  0  0  0  0  0
   -2.5000    1.3850    2.8920 C   0  0  0  0  0  0  0  0  0  0  0  0
   -3.2260    0.6710    3.6710 N   0  0  0  0  0  0  0  0  0  0  0  0
   -1.2340    0.8700    2.4600 N   0  0  0  0  0  0  0  0  0  0  0  0
   -0.5860   -0.1970    3.1700 C   0  0  0  0  0  0  0  0  0  0  0  0
    0.6340   -0.7550    2.5780 C   0  0  0  0  0  0  0  0  0  0  0  0
    0.6200   -1.4680    1.3040 C   0  0  0  0  0  0  0  0  0  0  0  0
    0.1860   -0.8380    0.0440 C   0  0  2  0  0  0  0  0  0  0  0  0
    0.9300    0.3040   -0.3620 N   0  0  0  0  0  0  0  0  0  0  0  0
   -1.2910   -0.7260   -0.1460 C   0  0  0  0  0  0  0  0  0  0  0  0
   -1.8550    0.2890   -0.6390 O   0  0  0  0  0  0  0  0  0  0  0  0
   -3.6840    2.6720    1.7220 H   0  0  0  0  0  0  0  0  0  0  0  0
   -2.4700    3.5270    2.8180 H   0  0  0  0  0  0  0  0  0  0  0  0
   -4.1540    0.9970    4.0150 H   0  0  0  0  0  0  0  0  0  0  0  0
   -0.8250    1.3400    1.6360 H   0  0  0  0  0  0  0  0  0  0  0  0
   -0.3050    0.2660    4.1750 H   0  0  0  0  0  0  0  0  0  0  0  0
   -1.3380   -0.9710    3.4780 H   0  0  0  0  0  0  0  0  0  0  0  0
    1.0860   -1.4790    3.3440 H   0  0  0  0  0  0  0  0  0  0  0  0
    1.4310    0.0460    2.5490 H   0  0  0  0  0  0  0  0  0  0  0  0
    0.1170   -2.4920    1.3810 H   0  0  0  0  0  0  0  0  0  0  0  0
    1.7070   -1.8050    1.1250 H   0  0  0  0  0  0  0  0  0  0  0  0
    0.4400   -1.6400   -0.7670 H   0  0  0  0  0  0  0  0  0  0  0  0
    0.9590    1.2100    0.1800 H   0  0  0  0  0  0  0  0  0  0  0  0
   -5.0990   -5.6970   -1.9940 C   0  0  0  0  0  0  0  0  0  0  0  0
   -5.5190   -4.0640   -2.6700 S   0  0  0  0  0  0  0  0  0  0  0  0
   -5.3610   -2.7880   -1.3600 C   0  0  0  0  0  0  0  0  0  0  0  0
   -3.9170   -2.7110   -1.0130 C   0  0  0  0  0  0  0  0  0  0  0  0
   -3.5710   -1.7050    0.0620 C   0  0  2  0  0  0  0  0  0  0  0  0
   -2.1360   -1.7960    0.2360 N   0  0  0  0  0  0  0  0  0  0  0  0
   -4.2900   -1.9520    1.3350 C   0  0  0  0  0  0  0  0  0  0  0  0
   -5.5450   -1.8970    1.3590 O   0  0  0  0  0  0  0  0  0  0  0  0
   -3.5580   -2.2380    2.4670 O   0  0  0  0  0  0  0  0  0  0  0  0
   -5.2690   -5.7290   -0.8900 H   0  0  0  0  0  0  0  0  0  0  0  0
   -4.0400   -5.9570   -2.1470 H   0  0  0  0  0  0  0  0  0  0  0  0
   -5.7110   -6.4880   -2.4500 H   0  0  0  0  0  0  0  0  0  0  0  0
   -6.0260   -3.1190   -0.5590 H   0  0  0  0  0  0  0  0  0  0  0  0
   -5.7520   -1.8480   -1.8220 H   0  0  0  0  0  0  0  0  0  0  0  0
   -3.3580   -2.4140   -1.9230 H   0  0  0  0  0  0  0  0  0  0  0  0
   -3.5680   -3.7330   -0.7560 H   0  0  0  0  0  0  0  0  0  0  0  0
   -3.7950   -0.7120   -0.3700 H   0  0  0  0  0  0  0  0  0  0  0  0
   -1.7600   -2.6730    0.6500 H   0  0  0  0  0  0  0  0  0  0  0  0
  1 13  1  0  0  0  0
  2  1  1  0  0  0  0
  3  2  1  0  0  0  0
  3 14  1  0  0  0  0
  4  3  2  0  0  0  0
  5 11  2  0  0  0  0
  5  4  1  0  0  0  0
  6  7  1  0  0  0  0
  6  5  1  0  0  0  0
  7 18  1  6  0  0  0
  7  9  1  0  0  0  0
  7  8  1  0  0  0  0
  8 19  1  0  0  0  0
  9 31  1  0  0  0  0
 10  9  2  0  0  0  0
 11 12  1  0  0  0  0
 12 22  1  0  0  0  0
 12  2  2  0  0  0  0
 15  4  1  0  0  0  0
 16  6  1  0  0  0  0
 17  6  1  0  0  0  0
 20  8  1  0  0  0  0
 21 11  1  0  0  0  0
 23 35  1  0  0  0  0
 23 24  1  0  0  0  0
 24 25  2  0  0  0  0
 25 36  1  0  0  0  0
 26 24  1  0  0  0  0
 26 27  1  0  0  0  0
 27 39  1  0  0  0  0
 27 38  1  0  0  0  0
 28 27  1  0  0  0  0
 28 40  1  0  0  0  0
 29 42  1  0  0  0  0
 29 28  1  0  0  0  0
 30 44  1  6  0  0  0
 30 29  1  0  0  0  0
 31 30  1  0  0  0  0
 31 45  1  0  0  0  0
 32 30  1  0  0  0  0
 32 51  1  0  0  0  0
 33 32  2  0  0  0  0
 34 23  1  0  0  0  0
 37 26  1  0  0  0  0
 41 28  1  0  0  0  0
 43 29  1  0  0  0  0
 46 55  1  0  0  0  0
 47 46  1  0  0  0  0
 47 48  1  0  0  0  0
 48 49  1  0  0  0  0
 48 58  1  0  0  0  0
 49 61  1  0  0  0  0
 49 50  1  0  0  0  0
 50 62  1  6  0  0  0
 50 51  1  0  0  0  0
 50 52  1  0  0  0  0
 51 63  1  0  0  0  0
 52 53  2  0  0  0  0
 52 54  1  0  0  0  0
 56 46  1  0  0  0  0
 57 46  1  0  0  0  0
 59 48  1  0  0  0  0
 60 49  1  0  0  0  0
M  END
$$$$
