YRN.pdb
 OpenBabel07022419193D

 60 60  0  0  1  0  0  0  0  0999 V2000
    3.2590   -1.6250    5.3440 O   0  0  0  0  0  0  0  0  0  0  0  0
    3.3290   -1.0170    4.0760 C   0  0  0  0  0  0  0  0  0  0  0  0
    3.4820    0.3460    3.9440 C   0  0  0  0  0  0  0  0  0  0  0  0
    3.5530    0.9660    2.7210 C   0  0  0  0  0  0  0  0  0  0  0  0
    3.4710    0.2220    1.5490 C   0  0  0  0  0  0  0  0  0  0  0  0
    3.5620    0.9200    0.2380 C   0  0  0  0  0  0  0  0  0  0  0  0
    2.2570    1.3760   -0.3170 C   0  0  2  0  0  0  0  0  0  0  0  0
    1.6180    2.2780    0.6090 N   0  0  0  0  0  0  0  0  0  0  0  0
    1.3220    0.3050   -0.7320 C   0  0  0  0  0  0  0  0  0  0  0  0
    1.6790   -0.5140   -1.6450 O   0  0  0  0  0  0  0  0  0  0  0  0
    3.3180   -1.1390    1.6930 C   0  0  0  0  0  0  0  0  0  0  0  0
    3.2480   -1.7480    2.9190 C   0  0  0  0  0  0  0  0  0  0  0  0
    3.2730   -1.0000    6.1350 H   0  0  0  0  0  0  0  0  0  0  0  0
    3.5470    0.9310    4.8720 H   0  0  0  0  0  0  0  0  0  0  0  0
    3.6770    2.0450    2.6500 H   0  0  0  0  0  0  0  0  0  0  0  0
    4.1150    0.2490   -0.4580 H   0  0  0  0  0  0  0  0  0  0  0  0
    4.2000    1.8150    0.3620 H   0  0  0  0  0  0  0  0  0  0  0  0
    2.5330    2.0160   -1.2230 H   0  0  0  0  0  0  0  0  0  0  0  0
    0.7310    2.6790    0.2320 H   0  0  0  0  0  0  0  0  0  0  0  0
    2.2600    3.0000    0.9850 H   0  0  0  0  0  0  0  0  0  0  0  0
    3.2550   -1.7040    0.7510 H   0  0  0  0  0  0  0  0  0  0  0  0
    3.1310   -2.8150    2.9590 H   0  0  0  0  0  0  0  0  0  0  0  0
   -4.1040    3.3280   -0.2770 N   0  0  0  0  0  0  0  0  0  0  0  0
   -4.0560    2.2090   -1.1350 C   0  0  0  0  0  0  0  0  0  0  0  0
   -5.1190    1.7410   -1.6890 N   0  0  0  0  0  0  0  0  0  0  0  0
   -2.7890    1.5650   -1.4050 N   0  0  0  0  0  0  0  0  0  0  0  0
   -2.6020    0.8010   -2.6010 C   0  0  0  0  0  0  0  0  0  0  0  0
   -1.3650    0.0270   -2.7780 C   0  0  0  0  0  0  0  0  0  0  0  0
   -1.0780   -1.1300   -1.8950 C   0  0  0  0  0  0  0  0  0  0  0  0
   -0.9710   -0.7860   -0.4600 C   0  0  2  0  0  0  0  0  0  0  0  0
    0.0360    0.1550   -0.1530 N   0  0  0  0  0  0  0  0  0  0  0  0
   -0.7810   -2.0290    0.3830 C   0  0  0  0  0  0  0  0  0  0  0  0
    0.2060   -2.0520    1.1160 O   0  0  0  0  0  0  0  0  0  0  0  0
   -4.0940    4.2940   -0.6350 H   0  0  0  0  0  0  0  0  0  0  0  0
   -4.1510    3.1820    0.7570 H   0  0  0  0  0  0  0  0  0  0  0  0
   -6.0380    2.1840   -1.5120 H   0  0  0  0  0  0  0  0  0  0  0  0
   -2.0720    1.7390   -0.7010 H   0  0  0  0  0  0  0  0  0  0  0  0
   -2.6960    1.5650   -3.4470 H   0  0  0  0  0  0  0  0  0  0  0  0
   -3.5350    0.1690   -2.7880 H   0  0  0  0  0  0  0  0  0  0  0  0
   -1.2660   -0.2440   -3.8710 H   0  0  0  0  0  0  0  0  0  0  0  0
   -0.4960    0.7670   -2.6610 H   0  0  0  0  0  0  0  0  0  0  0  0
   -1.9100   -1.8980   -2.0460 H   0  0  0  0  0  0  0  0  0  0  0  0
   -0.1470   -1.6190   -2.2940 H   0  0  0  0  0  0  0  0  0  0  0  0
   -1.9670   -0.4060   -0.1230 H   0  0  0  0  0  0  0  0  0  0  0  0
   -0.1440    0.8870    0.6260 H   0  0  0  0  0  0  0  0  0  0  0  0
    0.5900   -4.6200   -0.5150 N   0  0  0  0  0  0  0  0  0  0  0  0
    0.7260   -4.5920    0.9040 C   0  0  0  0  0  0  0  0  0  0  0  0
    1.8840   -4.6190    1.3650 O   0  0  0  0  0  0  0  0  0  0  0  0
   -0.4230   -4.5360    1.8210 C   0  0  0  0  0  0  0  0  0  0  0  0
   -1.6800   -4.3310    1.0000 C   0  0  2  0  0  0  0  0  0  0  0  0
   -1.7020   -3.0850    0.3110 N   0  0  0  0  0  0  0  0  0  0  0  0
   -2.8790   -4.5880    1.8020 C   0  0  0  0  0  0  0  0  0  0  0  0
   -3.0470   -5.6350    2.4890 O   0  0  0  0  0  0  0  0  0  0  0  0
   -3.9330   -3.6570    1.8500 O   0  0  0  0  0  0  0  0  0  0  0  0
    1.0870   -3.8760   -1.0730 H   0  0  0  0  0  0  0  0  0  0  0  0
    0.0460   -5.3080   -1.0450 H   0  0  0  0  0  0  0  0  0  0  0  0
   -0.2660   -3.7670    2.5720 H   0  0  0  0  0  0  0  0  0  0  0  0
   -0.5290   -5.5050    2.3840 H   0  0  0  0  0  0  0  0  0  0  0  0
   -1.5630   -5.1520    0.1890 H   0  0  0  0  0  0  0  0  0  0  0  0
   -2.5160   -2.8770   -0.3720 H   0  0  0  0  0  0  0  0  0  0  0  0
  1 13  1  0  0  0  0
  2  1  1  0  0  0  0
  3  2  1  0  0  0  0
  3 14  1  0  0  0  0
  4  3  2  0  0  0  0
  5 11  2  0  0  0  0
  5  4  1  0  0  0  0
  6 17  1  0  0  0  0
  6  5  1  0  0  0  0
  7 18  1  6  0  0  0
  7  6  1  0  0  0  0
  7  8  1  0  0  0  0
  8 20  1  0  0  0  0
  9  7  1  0  0  0  0
  9 31  1  0  0  0  0
 10  9  2  0  0  0  0
 11 12  1  0  0  0  0
 12 22  1  0  0  0  0
 12  2  2  0  0  0  0
 15  4  1  0  0  0  0
 16  6  1  0  0  0  0
 19  8  1  0  0  0  0
 21 11  1  0  0  0  0
 23 35  1  0  0  0  0
 24 23  1  0  0  0  0
 25 36  1  0  0  0  0
 25 24  2  0  0  0  0
 26 24  1  0  0  0  0
 26 37  1  0  0  0  0
 27 26  1  0  0  0  0
 28 41  1  0  0  0  0
 28 27  1  0  0  0  0
 28 29  1  0  0  0  0
 29 30  1  0  0  0  0
 30 31  1  0  0  0  0
 30 44  1  1  0  0  0
 30 32  1  0  0  0  0
 31 45  1  0  0  0  0
 32 33  2  0  0  0  0
 34 23  1  0  0  0  0
 38 27  1  0  0  0  0
 39 27  1  0  0  0  0
 40 28  1  0  0  0  0
 42 29  1  0  0  0  0
 43 29  1  0  0  0  0
 46 47  1  0  0  0  0
 47 48  2  0  0  0  0
 47 49  1  0  0  0  0
 49 58  1  0  0  0  0
 49 57  1  0  0  0  0
 50 59  1  6  0  0  0
 50 52  1  0  0  0  0
 50 49  1  0  0  0  0
 51 32  1  0  0  0  0
 51 50  1  0  0  0  0
 52 54  2  0  0  0  0
 52 53  1  0  0  0  0
 55 46  1  0  0  0  0
 56 46  1  0  0  0  0
 60 51  1  0  0  0  0
M  END
$$$$
