YRP.pdb
 OpenBabel07022419203D

 60 61  0  0  1  0  0  0  0  0999 V2000
   -0.6150    4.5500    2.9470 O   0  0  0  0  0  0  0  0  0  0  0  0
    0.4060    3.5830    2.9110 C   0  0  0  0  0  0  0  0  0  0  0  0
    0.1070    2.3040    3.3030 C   0  0  0  0  0  0  0  0  0  0  0  0
    1.0960    1.3650    3.2670 C   0  0  0  0  0  0  0  0  0  0  0  0
    2.3730    1.6560    2.8560 C   0  0  0  0  0  0  0  0  0  0  0  0
    3.4140    0.5930    2.8340 C   0  0  0  0  0  0  0  0  0  0  0  0
    3.4610   -0.1080    1.4970 C   0  0  2  0  0  0  0  0  0  0  0  0
    3.7660    0.8940    0.4960 N   0  0  0  0  0  0  0  0  0  0  0  0
    2.2390   -0.8680    1.1770 C   0  0  0  0  0  0  0  0  0  0  0  0
    1.8990   -1.7710    2.0010 O   0  0  0  0  0  0  0  0  0  0  0  0
    2.6460    2.9550    2.4660 C   0  0  0  0  0  0  0  0  0  0  0  0
    1.6770    3.9160    2.4900 C   0  0  0  0  0  0  0  0  0  0  0  0
   -0.6730    5.1270    3.8040 H   0  0  0  0  0  0  0  0  0  0  0  0
   -0.8890    2.0450    3.6320 H   0  0  0  0  0  0  0  0  0  0  0  0
    0.9020    0.3400    3.5690 H   0  0  0  0  0  0  0  0  0  0  0  0
    4.3980    1.0820    2.9750 H   0  0  0  0  0  0  0  0  0  0  0  0
    3.2610   -0.1240    3.6720 H   0  0  0  0  0  0  0  0  0  0  0  0
    4.3680   -0.7680    1.5450 H   0  0  0  0  0  0  0  0  0  0  0  0
    4.1390    0.5080   -0.3850 H   0  0  0  0  0  0  0  0  0  0  0  0
    3.0280    1.5980    0.3770 H   0  0  0  0  0  0  0  0  0  0  0  0
    3.6440    3.1890    2.1430 H   0  0  0  0  0  0  0  0  0  0  0  0
    1.8480    4.9430    2.1950 H   0  0  0  0  0  0  0  0  0  0  0  0
   -3.6450    1.0720    2.6970 N   0  0  0  0  0  0  0  0  0  0  0  0
   -3.8170   -0.0590    1.8550 C   0  0  0  0  0  0  0  0  0  0  0  0
   -4.8570   -0.2260    1.1120 N   0  0  0  0  0  0  0  0  0  0  0  0
   -2.7900   -1.0680    1.8210 N   0  0  0  0  0  0  0  0  0  0  0  0
   -2.7260   -1.8330    0.5600 C   0  0  0  0  0  0  0  0  0  0  0  0
   -2.2520   -0.8990   -0.5410 C   0  0  0  0  0  0  0  0  0  0  0  0
   -0.9000   -0.3660   -0.3050 C   0  0  0  0  0  0  0  0  0  0  0  0
    0.2320   -1.4130   -0.2860 C   0  0  2  0  0  0  0  0  0  0  0  0
    1.4590   -0.6400    0.0290 N   0  0  0  0  0  0  0  0  0  0  0  0
    0.3470   -1.9620   -1.6330 C   0  0  0  0  0  0  0  0  0  0  0  0
    1.1650   -1.2940   -2.3860 O   0  0  0  0  0  0  0  0  0  0  0  0
   -4.2020    1.1810    3.5490 H   0  0  0  0  0  0  0  0  0  0  0  0
   -2.9360    1.7840    2.4210 H   0  0  0  0  0  0  0  0  0  0  0  0
   -5.5940    0.5170    1.1470 H   0  0  0  0  0  0  0  0  0  0  0  0
   -2.1540   -1.2360    2.6210 H   0  0  0  0  0  0  0  0  0  0  0  0
   -2.1100   -2.7230    0.6940 H   0  0  0  0  0  0  0  0  0  0  0  0
   -3.7600   -2.1400    0.3290 H   0  0  0  0  0  0  0  0  0  0  0  0
   -2.9590   -0.0180   -0.5320 H   0  0  0  0  0  0  0  0  0  0  0  0
   -2.3460   -1.3910   -1.5040 H   0  0  0  0  0  0  0  0  0  0  0  0
   -0.8250    0.2800    0.6110 H   0  0  0  0  0  0  0  0  0  0  0  0
   -0.6710    0.3570   -1.1420 H   0  0  0  0  0  0  0  0  0  0  0  0
    0.0430   -2.1210    0.4720 H   0  0  0  0  0  0  0  0  0  0  0  0
    1.7180    0.0870   -0.6490 H   0  0  0  0  0  0  0  0  0  0  0  0
   -0.2470   -3.0660   -2.2700 N   0  0  0  0  0  0  0  0  0  0  0  0
   -0.0270   -3.3250   -3.6680 C   0  0  0  0  0  0  0  0  0  0  0  0
   -0.4470   -4.7370   -3.9170 C   0  0  0  0  0  0  0  0  0  0  0  0
   -1.3150   -5.1210   -2.7670 C   0  0  0  0  0  0  0  0  0  0  0  0
   -1.0400   -4.0820   -1.7130 C   0  0  1  0  0  0  0  0  0  0  0  0
   -0.4080   -4.7350   -0.5260 C   0  0  0  0  0  0  0  0  0  0  0  0
   -1.0830   -5.4530    0.2070 O   0  0  0  0  0  0  0  0  0  0  0  0
    0.9180   -4.5150   -0.2890 O   0  0  0  0  0  0  0  0  0  0  0  0
   -0.7120   -2.6050   -4.2120 H   0  0  0  0  0  0  0  0  0  0  0  0
    1.0250   -3.1310   -3.9740 H   0  0  0  0  0  0  0  0  0  0  0  0
   -1.0200   -4.7510   -4.8890 H   0  0  0  0  0  0  0  0  0  0  0  0
    0.4650   -5.3780   -4.0060 H   0  0  0  0  0  0  0  0  0  0  0  0
   -0.9710   -6.1260   -2.4000 H   0  0  0  0  0  0  0  0  0  0  0  0
   -2.4080   -5.1860   -3.0370 H   0  0  0  0  0  0  0  0  0  0  0  0
   -2.0360   -3.6760   -1.4210 H   0  0  0  0  0  0  0  0  0  0  0  0
  1 13  1  0  0  0  0
  2  1  1  0  0  0  0
  2  3  1  0  0  0  0
  3 14  1  0  0  0  0
  4  3  2  0  0  0  0
  4 15  1  0  0  0  0
  5  4  1  0  0  0  0
  6  5  1  0  0  0  0
  6 16  1  0  0  0  0
  6 17  1  0  0  0  0
  7 18  1  1  0  0  0
  7  6  1  0  0  0  0
  8  7  1  0  0  0  0
  9  7  1  0  0  0  0
  9 10  2  0  0  0  0
 11 12  1  0  0  0  0
 11  5  2  0  0  0  0
 12  2  2  0  0  0  0
 19  8  1  0  0  0  0
 20  8  1  0  0  0  0
 21 11  1  0  0  0  0
 22 12  1  0  0  0  0
 23 34  1  0  0  0  0
 24 23  1  0  0  0  0
 25 36  1  0  0  0  0
 25 24  2  0  0  0  0
 26 24  1  0  0  0  0
 26 37  1  0  0  0  0
 27 38  1  0  0  0  0
 27 26  1  0  0  0  0
 28 40  1  0  0  0  0
 28 29  1  0  0  0  0
 28 27  1  0  0  0  0
 29 30  1  0  0  0  0
 29 42  1  0  0  0  0
 30 31  1  0  0  0  0
 30 44  1  1  0  0  0
 31  9  1  0  0  0  0
 32 30  1  0  0  0  0
 33 32  2  0  0  0  0
 35 23  1  0  0  0  0
 39 27  1  0  0  0  0
 41 28  1  0  0  0  0
 43 29  1  0  0  0  0
 45 31  1  0  0  0  0
 46 50  1  0  0  0  0
 46 32  1  0  0  0  0
 47 46  1  0  0  0  0
 48 47  1  0  0  0  0
 48 49  1  0  0  0  0
 49 58  1  0  0  0  0
 49 50  1  0  0  0  0
 50 60  1  1  0  0  0
 50 51  1  0  0  0  0
 51 53  2  0  0  0  0
 51 52  1  0  0  0  0
 54 47  1  0  0  0  0
 55 47  1  0  0  0  0
 56 48  1  0  0  0  0
 57 48  1  0  0  0  0
 59 49  1  0  0  0  0
M  END
$$$$
