YRQ.pdb
 OpenBabel07022419203D

 63 63  0  0  1  0  0  0  0  0999 V2000
    4.6230    0.5080    4.2980 O   0  0  0  0  0  0  0  0  0  0  0  0
    4.5960    0.2260    2.9310 C   0  0  0  0  0  0  0  0  0  0  0  0
    4.0970   -0.9680    2.4610 C   0  0  0  0  0  0  0  0  0  0  0  0
    4.0870   -1.2100    1.1070 C   0  0  0  0  0  0  0  0  0  0  0  0
    4.5660   -0.2830    0.2070 C   0  0  0  0  0  0  0  0  0  0  0  0
    4.5370   -0.5680   -1.2540 C   0  0  0  0  0  0  0  0  0  0  0  0
    3.2140   -0.0770   -1.8580 C   0  0  2  0  0  0  0  0  0  0  0  0
    3.0960    1.3270   -1.6480 N   0  0  0  0  0  0  0  0  0  0  0  0
    2.0750   -0.8530   -1.3030 C   0  0  0  0  0  0  0  0  0  0  0  0
    2.1200   -2.0890   -1.5220 O   0  0  0  0  0  0  0  0  0  0  0  0
    5.0650    0.9100    0.6660 C   0  0  0  0  0  0  0  0  0  0  0  0
    5.0710    1.1440    2.0210 C   0  0  0  0  0  0  0  0  0  0  0  0
    3.7310    0.6540    4.7950 H   0  0  0  0  0  0  0  0  0  0  0  0
    3.7220   -1.6970    3.1480 H   0  0  0  0  0  0  0  0  0  0  0  0
    3.6990   -2.1410    0.7290 H   0  0  0  0  0  0  0  0  0  0  0  0
    5.3550   -0.0180   -1.7650 H   0  0  0  0  0  0  0  0  0  0  0  0
    4.6320   -1.6510   -1.4190 H   0  0  0  0  0  0  0  0  0  0  0  0
    3.2700   -0.2890   -2.9400 H   0  0  0  0  0  0  0  0  0  0  0  0
    2.3070    1.6850   -2.2120 H   0  0  0  0  0  0  0  0  0  0  0  0
    3.9620    1.7900   -2.0050 H   0  0  0  0  0  0  0  0  0  0  0  0
    5.4470    1.6470   -0.0480 H   0  0  0  0  0  0  0  0  0  0  0  0
    5.4730    2.1050    2.3760 H   0  0  0  0  0  0  0  0  0  0  0  0
   -2.8760    3.2590    0.0730 N   0  0  0  0  0  0  0  0  0  0  0  0
   -2.7170    2.3530    1.1380 C   0  0  0  0  0  0  0  0  0  0  0  0
   -3.6080    2.1440    2.0580 N   0  0  0  0  0  0  0  0  0  0  0  0
   -1.4850    1.6080    1.2060 N   0  0  0  0  0  0  0  0  0  0  0  0
   -1.1870    0.7960    2.3290 C   0  0  0  0  0  0  0  0  0  0  0  0
   -0.0160   -0.1030    2.2840 C   0  0  0  0  0  0  0  0  0  0  0  0
    0.0230   -1.2530    1.3780 C   0  0  0  0  0  0  0  0  0  0  0  0
   -0.0520   -1.0510   -0.0730 C   0  0  2  0  0  0  0  0  0  0  0  0
    1.0130   -0.2460   -0.5790 N   0  0  0  0  0  0  0  0  0  0  0  0
   -1.3800   -0.7970   -0.6040 C   0  0  0  0  0  0  0  0  0  0  0  0
   -1.6350    0.0670   -1.5010 O   0  0  0  0  0  0  0  0  0  0  0  0
   -2.4010    4.1870    0.0710 H   0  0  0  0  0  0  0  0  0  0  0  0
   -3.4760    3.0300   -0.7470 H   0  0  0  0  0  0  0  0  0  0  0  0
   -4.5090    2.6440    2.0640 H   0  0  0  0  0  0  0  0  0  0  0  0
   -0.8220    1.7210    0.4280 H   0  0  0  0  0  0  0  0  0  0  0  0
   -1.0640    1.4670    3.2500 H   0  0  0  0  0  0  0  0  0  0  0  0
   -2.0770    0.1250    2.6040 H   0  0  0  0  0  0  0  0  0  0  0  0
    0.8680    0.5700    1.9820 H   0  0  0  0  0  0  0  0  0  0  0  0
    0.2420   -0.4890    3.3190 H   0  0  0  0  0  0  0  0  0  0  0  0
    1.0390   -1.7840    1.5490 H   0  0  0  0  0  0  0  0  0  0  0  0
   -0.7570   -1.9980    1.7580 H   0  0  0  0  0  0  0  0  0  0  0  0
    0.1860   -2.1170   -0.5170 H   0  0  0  0  0  0  0  0  0  0  0  0
    1.0940    0.7930   -0.4630 H   0  0  0  0  0  0  0  0  0  0  0  0
   -2.6440   -5.4180    0.1880 N   0  0  0  0  0  0  0  0  0  0  0  0
   -2.8640   -4.3660   -0.7550 C   0  0  0  0  0  0  0  0  0  0  0  0
   -1.8600   -3.8900   -1.3460 O   0  0  0  0  0  0  0  0  0  0  0  0
   -4.1910   -3.8370   -1.0580 C   0  0  0  0  0  0  0  0  0  0  0  0
   -4.2500   -2.4210   -1.5350 C   0  0  0  0  0  0  0  0  0  0  0  0
   -3.8260   -1.3710   -0.5550 C   0  0  2  0  0  0  0  0  0  0  0  0
   -2.4860   -1.5440   -0.1110 N   0  0  0  0  0  0  0  0  0  0  0  0
   -4.8060   -1.2490    0.5410 C   0  0  0  0  0  0  0  0  0  0  0  0
   -6.0250   -1.0850    0.2870 O   0  0  0  0  0  0  0  0  0  0  0  0
   -4.4350   -1.3090    1.8740 O   0  0  0  0  0  0  0  0  0  0  0  0
   -1.7350   -5.9140    0.2150 H   0  0  0  0  0  0  0  0  0  0  0  0
   -3.3770   -5.7160    0.8690 H   0  0  0  0  0  0  0  0  0  0  0  0
   -4.8740   -3.9900   -0.1830 H   0  0  0  0  0  0  0  0  0  0  0  0
   -4.6200   -4.5180   -1.8550 H   0  0  0  0  0  0  0  0  0  0  0  0
   -3.5550   -2.3430   -2.4130 H   0  0  0  0  0  0  0  0  0  0  0  0
   -5.2980   -2.1730   -1.8780 H   0  0  0  0  0  0  0  0  0  0  0  0
   -3.8060   -0.4020   -1.1720 H   0  0  0  0  0  0  0  0  0  0  0  0
   -2.3110   -2.2580    0.6410 H   0  0  0  0  0  0  0  0  0  0  0  0
  1 13  1  0  0  0  0
  2  1  1  0  0  0  0
  3  2  1  0  0  0  0
  3 14  1  0  0  0  0
  4  3  2  0  0  0  0
  5 11  2  0  0  0  0
  5  4  1  0  0  0  0
  6  5  1  0  0  0  0
  7 18  1  6  0  0  0
  7  8  1  0  0  0  0
  7  9  1  0  0  0  0
  7  6  1  0  0  0  0
  9 31  1  0  0  0  0
 10  9  2  0  0  0  0
 11 12  1  0  0  0  0
 12 22  1  0  0  0  0
 12  2  2  0  0  0  0
 15  4  1  0  0  0  0
 16  6  1  0  0  0  0
 17  6  1  0  0  0  0
 19  8  1  0  0  0  0
 20  8  1  0  0  0  0
 21 11  1  0  0  0  0
 23 24  1  0  0  0  0
 24 26  1  0  0  0  0
 24 25  2  0  0  0  0
 25 36  1  0  0  0  0
 26 27  1  0  0  0  0
 27 39  1  0  0  0  0
 27 38  1  0  0  0  0
 28 27  1  0  0  0  0
 28 41  1  0  0  0  0
 29 42  1  0  0  0  0
 29 43  1  0  0  0  0
 29 28  1  0  0  0  0
 30 44  1  6  0  0  0
 30 29  1  0  0  0  0
 31 45  1  0  0  0  0
 31 30  1  0  0  0  0
 32 52  1  0  0  0  0
 32 30  1  0  0  0  0
 33 32  2  0  0  0  0
 34 23  1  0  0  0  0
 35 23  1  0  0  0  0
 37 26  1  0  0  0  0
 40 28  1  0  0  0  0
 46 56  1  0  0  0  0
 46 57  1  0  0  0  0
 47 46  1  0  0  0  0
 48 47  2  0  0  0  0
 49 47  1  0  0  0  0
 49 58  1  0  0  0  0
 50 49  1  0  0  0  0
 50 51  1  0  0  0  0
 51 62  1  6  0  0  0
 51 52  1  0  0  0  0
 51 53  1  0  0  0  0
 52 63  1  0  0  0  0
 53 55  1  0  0  0  0
 54 53  2  0  0  0  0
 59 49  1  0  0  0  0
 60 50  1  0  0  0  0
 61 50  1  0  0  0  0
M  END
$$$$
