YRR.pdb
 OpenBabel07022419193D

 69 69  0  0  1  0  0  0  0  0999 V2000
    2.7920   -6.0910    2.9880 O   0  0  0  0  0  0  0  0  0  0  0  0
    3.1760   -4.8370    2.4770 C   0  0  0  0  0  0  0  0  0  0  0  0
    3.3170   -4.6710    1.1270 C   0  0  0  0  0  0  0  0  0  0  0  0
    3.6980   -3.4400    0.5890 C   0  0  0  0  0  0  0  0  0  0  0  0
    3.9410   -2.3580    1.4080 C   0  0  0  0  0  0  0  0  0  0  0  0
    4.3400   -1.0990    0.8040 C   0  0  0  0  0  0  0  0  0  0  0  0
    3.2180   -0.1820    0.4240 C   0  0  2  0  0  0  0  0  0  0  0  0
    2.3960    0.2050    1.5320 N   0  0  0  0  0  0  0  0  0  0  0  0
    2.4460   -0.6500   -0.7400 C   0  0  0  0  0  0  0  0  0  0  0  0
    2.9910   -0.9720   -1.8120 O   0  0  0  0  0  0  0  0  0  0  0  0
    3.7900   -2.5580    2.7630 C   0  0  0  0  0  0  0  0  0  0  0  0
    3.4150   -3.7670    3.3020 C   0  0  0  0  0  0  0  0  0  0  0  0
    3.4110   -6.4780    3.7160 H   0  0  0  0  0  0  0  0  0  0  0  0
    3.1220   -5.5350    0.4930 H   0  0  0  0  0  0  0  0  0  0  0  0
    3.7810   -3.4090   -0.4870 H   0  0  0  0  0  0  0  0  0  0  0  0
    5.0450   -0.5280    1.4370 H   0  0  0  0  0  0  0  0  0  0  0  0
    4.9070   -1.3270   -0.1390 H   0  0  0  0  0  0  0  0  0  0  0  0
    3.7260    0.7700    0.0740 H   0  0  0  0  0  0  0  0  0  0  0  0
    1.8940    1.0920    1.2380 H   0  0  0  0  0  0  0  0  0  0  0  0
    2.9690    0.3190    2.3790 H   0  0  0  0  0  0  0  0  0  0  0  0
    3.9760   -1.7270    3.4090 H   0  0  0  0  0  0  0  0  0  0  0  0
    3.3040   -3.8990    4.3710 H   0  0  0  0  0  0  0  0  0  0  0  0
   -4.5800   -4.7010    0.5780 N   0  0  0  0  0  0  0  0  0  0  0  0
   -4.0550   -4.7980   -0.7270 C   0  0  0  0  0  0  0  0  0  0  0  0
   -4.3110   -5.7700   -1.5350 N   0  0  0  0  0  0  0  0  0  0  0  0
   -3.1820   -3.7740   -1.2100 N   0  0  0  0  0  0  0  0  0  0  0  0
   -2.2660   -4.0460   -2.2800 C   0  0  0  0  0  0  0  0  0  0  0  0
   -1.4310   -2.8140   -2.6220 C   0  0  0  0  0  0  0  0  0  0  0  0
   -0.6200   -2.3610   -1.4440 C   0  0  0  0  0  0  0  0  0  0  0  0
    0.2170   -1.1980   -1.7830 C   0  0  2  0  0  0  0  0  0  0  0  0
    1.0340   -0.7460   -0.6670 N   0  0  0  0  0  0  0  0  0  0  0  0
   -0.5870   -0.0470   -2.2190 C   0  0  0  0  0  0  0  0  0  0  0  0
   -1.3730   -0.0580   -3.2300 O   0  0  0  0  0  0  0  0  0  0  0  0
   -5.4320   -4.1340    0.8000 H   0  0  0  0  0  0  0  0  0  0  0  0
   -4.1030   -5.2100    1.3450 H   0  0  0  0  0  0  0  0  0  0  0  0
   -4.9380   -6.5520   -1.2480 H   0  0  0  0  0  0  0  0  0  0  0  0
   -3.2170   -2.8260   -0.7780 H   0  0  0  0  0  0  0  0  0  0  0  0
   -2.8620   -4.2700   -3.2070 H   0  0  0  0  0  0  0  0  0  0  0  0
   -1.6000   -4.8990   -2.1130 H   0  0  0  0  0  0  0  0  0  0  0  0
   -2.1820   -2.0780   -2.9810 H   0  0  0  0  0  0  0  0  0  0  0  0
   -0.7450   -3.0200   -3.4610 H   0  0  0  0  0  0  0  0  0  0  0  0
   -0.0470   -3.2590   -1.1130 H   0  0  0  0  0  0  0  0  0  0  0  0
   -1.3480   -2.0400   -0.6600 H   0  0  0  0  0  0  0  0  0  0  0  0
    0.8930   -1.4550   -2.6280 H   0  0  0  0  0  0  0  0  0  0  0  0
    0.5150   -0.5030    0.2000 H   0  0  0  0  0  0  0  0  0  0  0  0
   -1.7590    3.9850    5.2420 N   0  0  0  0  0  0  0  0  0  0  0  0
   -2.4620    3.9690    4.0040 C   0  0  0  0  0  0  0  0  0  0  0  0
   -3.7160    4.2680    3.9810 N   0  0  0  0  0  0  0  0  0  0  0  0
   -1.8250    3.6330    2.7860 N   0  0  0  0  0  0  0  0  0  0  0  0
   -2.5680    3.2870    1.5840 C   0  0  0  0  0  0  0  0  0  0  0  0
   -1.5980    2.9830    0.4530 C   0  0  0  0  0  0  0  0  0  0  0  0
   -2.3190    2.6230   -0.8130 C   0  0  0  0  0  0  0  0  0  0  0  0
   -1.3200    2.3210   -1.9360 C   0  0  2  0  0  0  0  0  0  0  0  0
   -0.5070    1.1960   -1.4800 N   0  0  0  0  0  0  0  0  0  0  0  0
   -0.4910    3.5060   -2.2250 C   0  0  0  0  0  0  0  0  0  0  0  0
   -1.0220    4.5530   -2.6270 O   0  0  0  0  0  0  0  0  0  0  0  0
    0.8710    3.4440   -2.0460 O   0  0  0  0  0  0  0  0  0  0  0  0
   -1.7530    4.8800    5.8170 H   0  0  0  0  0  0  0  0  0  0  0  0
   -1.2550    3.1430    5.5940 H   0  0  0  0  0  0  0  0  0  0  0  0
   -4.2130    4.5210    4.8720 H   0  0  0  0  0  0  0  0  0  0  0  0
   -0.7910    3.6350    2.7600 H   0  0  0  0  0  0  0  0  0  0  0  0
   -3.1090    4.2100    1.2790 H   0  0  0  0  0  0  0  0  0  0  0  0
   -3.2410    2.4430    1.7570 H   0  0  0  0  0  0  0  0  0  0  0  0
   -0.9640    2.1570    0.8110 H   0  0  0  0  0  0  0  0  0  0  0  0
   -0.9670    3.8700    0.2290 H   0  0  0  0  0  0  0  0  0  0  0  0
   -2.8810    1.6680   -0.6410 H   0  0  0  0  0  0  0  0  0  0  0  0
   -3.0300    3.3970   -1.1100 H   0  0  0  0  0  0  0  0  0  0  0  0
   -1.8790    2.0460   -2.8410 H   0  0  0  0  0  0  0  0  0  0  0  0
    0.1200    1.2650   -0.6540 H   0  0  0  0  0  0  0  0  0  0  0  0
  1 13  1  0  0  0  0
  2  1  1  0  0  0  0
  2 12  1  0  0  0  0
  3  2  2  0  0  0  0
  4  3  1  0  0  0  0
  4  5  2  0  0  0  0
  5 11  1  0  0  0  0
  6  5  1  0  0  0  0
  6 16  1  0  0  0  0
  7 18  1  6  0  0  0
  7  6  1  0  0  0  0
  7  8  1  0  0  0  0
  8 20  1  0  0  0  0
  9 31  1  0  0  0  0
  9  7  1  0  0  0  0
 10  9  2  0  0  0  0
 11 12  2  0  0  0  0
 11 21  1  0  0  0  0
 12 22  1  0  0  0  0
 14  3  1  0  0  0  0
 15  4  1  0  0  0  0
 17  6  1  0  0  0  0
 19  8  1  0  0  0  0
 23 34  1  0  0  0  0
 23 35  1  0  0  0  0
 24 23  1  0  0  0  0
 25 36  1  0  0  0  0
 25 24  2  0  0  0  0
 26 37  1  0  0  0  0
 26 24  1  0  0  0  0
 27 39  1  0  0  0  0
 27 26  1  0  0  0  0
 28 27  1  0  0  0  0
 28 29  1  0  0  0  0
 29 42  1  0  0  0  0
 29 43  1  0  0  0  0
 30 44  1  6  0  0  0
 30 29  1  0  0  0  0
 30 31  1  0  0  0  0
 31 45  1  0  0  0  0
 32 30  1  0  0  0  0
 32 54  1  0  0  0  0
 33 32  2  0  0  0  0
 38 27  1  0  0  0  0
 40 28  1  0  0  0  0
 41 28  1  0  0  0  0
 46 59  1  0  0  0  0
 46 58  1  0  0  0  0
 47 46  1  0  0  0  0
 48 47  2  0  0  0  0
 48 60  1  0  0  0  0
 49 47  1  0  0  0  0
 50 63  1  0  0  0  0
 50 49  1  0  0  0  0
 51 64  1  0  0  0  0
 51 50  1  0  0  0  0
 52 66  1  0  0  0  0
 52 51  1  0  0  0  0
 53 68  1  6  0  0  0
 53 54  1  0  0  0  0
 53 52  1  0  0  0  0
 54 69  1  0  0  0  0
 55 57  1  0  0  0  0
 55 53  1  0  0  0  0
 56 55  2  0  0  0  0
 61 49  1  0  0  0  0
 62 50  1  0  0  0  0
 65 51  1  0  0  0  0
 67 52  1  0  0  0  0
M  END
$$$$
