YRS.pdb
 OpenBabel07022419203D

 57 57  0  0  1  0  0  0  0  0999 V2000
    0.4440    2.6620    5.9620 O   0  0  0  0  0  0  0  0  0  0  0  0
    1.0370    2.3060    4.7630 C   0  0  0  0  0  0  0  0  0  0  0  0
    1.4750    1.0360    4.4960 C   0  0  0  0  0  0  0  0  0  0  0  0
    2.0620    0.7190    3.2930 C   0  0  0  0  0  0  0  0  0  0  0  0
    2.2350    1.6610    2.3040 C   0  0  0  0  0  0  0  0  0  0  0  0
    2.8770    1.2820    1.0360 C   0  0  0  0  0  0  0  0  0  0  0  0
    1.9910    0.8340   -0.0620 C   0  0  2  0  0  0  0  0  0  0  0  0
    1.0020    1.8340   -0.4800 N   0  0  0  0  0  0  0  0  0  0  0  0
    1.4550   -0.5140    0.0060 C   0  0  0  0  0  0  0  0  0  0  0  0
    2.1910   -1.4590    0.4030 O   0  0  0  0  0  0  0  0  0  0  0  0
    1.8030    2.9510    2.5410 C   0  0  0  0  0  0  0  0  0  0  0  0
    1.2220    3.2500    3.7450 C   0  0  0  0  0  0  0  0  0  0  0  0
    0.5150    2.0010    6.7400 H   0  0  0  0  0  0  0  0  0  0  0  0
    1.3430    0.2780    5.2780 H   0  0  0  0  0  0  0  0  0  0  0  0
    2.3990   -0.3030    3.1220 H   0  0  0  0  0  0  0  0  0  0  0  0
    3.6630    0.5130    1.1970 H   0  0  0  0  0  0  0  0  0  0  0  0
    3.4340    2.1990    0.6690 H   0  0  0  0  0  0  0  0  0  0  0  0
    2.6940    0.8190   -0.9850 H   0  0  0  0  0  0  0  0  0  0  0  0
    1.5010    2.7660   -0.6140 H   0  0  0  0  0  0  0  0  0  0  0  0
    0.7250    1.5620   -1.4710 H   0  0  0  0  0  0  0  0  0  0  0  0
    1.9180    3.7220    1.7960 H   0  0  0  0  0  0  0  0  0  0  0  0
    0.8620    4.2660    3.9750 H   0  0  0  0  0  0  0  0  0  0  0  0
   -2.5370    2.8320    0.3990 N   0  0  0  0  0  0  0  0  0  0  0  0
   -2.3360    1.9330    1.4710 C   0  0  0  0  0  0  0  0  0  0  0  0
   -2.0520    2.3530    2.6450 N   0  0  0  0  0  0  0  0  0  0  0  0
   -2.4770    0.5280    1.1900 N   0  0  0  0  0  0  0  0  0  0  0  0
   -1.6770   -0.4010    1.9850 C   0  0  0  0  0  0  0  0  0  0  0  0
   -1.9610   -1.8220    1.6590 C   0  0  0  0  0  0  0  0  0  0  0  0
   -1.7300   -2.2690    0.2720 C   0  0  0  0  0  0  0  0  0  0  0  0
   -0.3690   -2.1710   -0.3060 C   0  0  2  0  0  0  0  0  0  0  0  0
    0.0840   -0.8060   -0.3790 N   0  0  0  0  0  0  0  0  0  0  0  0
   -0.3960   -2.7740   -1.7200 C   0  0  0  0  0  0  0  0  0  0  0  0
   -0.3190   -1.9890   -2.6510 O   0  0  0  0  0  0  0  0  0  0  0  0
   -1.8850    3.6250    0.2700 H   0  0  0  0  0  0  0  0  0  0  0  0
   -3.3240    2.7370   -0.2830 H   0  0  0  0  0  0  0  0  0  0  0  0
   -1.9610    3.3800    2.8450 H   0  0  0  0  0  0  0  0  0  0  0  0
   -3.1330    0.2270    0.4400 H   0  0  0  0  0  0  0  0  0  0  0  0
   -2.0040   -0.1980    3.0400 H   0  0  0  0  0  0  0  0  0  0  0  0
   -0.6020   -0.1770    1.9230 H   0  0  0  0  0  0  0  0  0  0  0  0
   -1.4390   -2.4450    2.4280 H   0  0  0  0  0  0  0  0  0  0  0  0
   -3.0760   -2.0080    1.8840 H   0  0  0  0  0  0  0  0  0  0  0  0
   -2.0360   -3.3640    0.2380 H   0  0  0  0  0  0  0  0  0  0  0  0
   -2.4890   -1.7940   -0.4210 H   0  0  0  0  0  0  0  0  0  0  0  0
    0.4070   -2.8020    0.2130 H   0  0  0  0  0  0  0  0  0  0  0  0
   -0.5670   -0.0760   -0.7070 H   0  0  0  0  0  0  0  0  0  0  0  0
   -0.1170   -3.2110   -4.6440 O   0  0  0  0  0  0  0  0  0  0  0  0
    0.3490   -4.4500   -4.1980 C   0  0  0  0  0  0  0  0  0  0  0  0
   -0.5710   -4.9190   -3.0540 C   0  0  2  0  0  0  0  0  0  0  0  0
   -0.5040   -4.1650   -1.8520 N   0  0  0  0  0  0  0  0  0  0  0  0
   -0.4710   -6.3440   -2.7990 C   0  0  0  0  0  0  0  0  0  0  0  0
   -0.5100   -7.2500   -3.6700 O   0  0  0  0  0  0  0  0  0  0  0  0
   -0.3170   -6.8310   -1.4820 O   0  0  0  0  0  0  0  0  0  0  0  0
   -1.0800   -3.2910   -4.9320 H   0  0  0  0  0  0  0  0  0  0  0  0
    0.3630   -5.2360   -4.9550 H   0  0  0  0  0  0  0  0  0  0  0  0
    1.3940   -4.2540   -3.8530 H   0  0  0  0  0  0  0  0  0  0  0  0
   -1.6050   -4.6720   -3.5620 H   0  0  0  0  0  0  0  0  0  0  0  0
   -0.5610   -4.7440   -0.9070 H   0  0  0  0  0  0  0  0  0  0  0  0
  1 13  1  0  0  0  0
  2  1  1  0  0  0  0
  3  2  1  0  0  0  0
  3 14  1  0  0  0  0
  4  3  2  0  0  0  0
  5 11  2  0  0  0  0
  5  4  1  0  0  0  0
  6 16  1  0  0  0  0
  6  5  1  0  0  0  0
  7 18  1  6  0  0  0
  7  9  1  0  0  0  0
  7  6  1  0  0  0  0
  8  7  1  0  0  0  0
  9 10  2  0  0  0  0
 11 12  1  0  0  0  0
 12 22  1  0  0  0  0
 12  2  2  0  0  0  0
 15  4  1  0  0  0  0
 17  6  1  0  0  0  0
 19  8  1  0  0  0  0
 20  8  1  0  0  0  0
 21 11  1  0  0  0  0
 23 24  1  0  0  0  0
 24 25  2  0  0  0  0
 25 36  1  0  0  0  0
 26 24  1  0  0  0  0
 26 27  1  0  0  0  0
 27 38  1  0  0  0  0
 28 41  1  0  0  0  0
 28 27  1  0  0  0  0
 28 40  1  0  0  0  0
 29 28  1  0  0  0  0
 30 44  1  1  0  0  0
 30 29  1  0  0  0  0
 31 30  1  0  0  0  0
 31  9  1  0  0  0  0
 32 30  1  0  0  0  0
 33 32  2  0  0  0  0
 34 23  1  0  0  0  0
 35 23  1  0  0  0  0
 37 26  1  0  0  0  0
 39 27  1  0  0  0  0
 42 29  1  0  0  0  0
 43 29  1  0  0  0  0
 45 31  1  0  0  0  0
 46 47  1  0  0  0  0
 47 55  1  0  0  0  0
 47 48  1  0  0  0  0
 48 56  1  6  0  0  0
 48 50  1  0  0  0  0
 48 49  1  0  0  0  0
 49 32  1  0  0  0  0
 49 57  1  0  0  0  0
 50 52  1  0  0  0  0
 51 50  2  0  0  0  0
 53 46  1  0  0  0  0
 54 47  1  0  0  0  0
M  END
$$$$
