YRT.pdb
 OpenBabel07022419203D

 60 60  0  0  1  0  0  0  0  0999 V2000
    2.9150   -3.5060    4.4650 O   0  0  0  0  0  0  0  0  0  0  0  0
    2.7400   -2.4230    3.6380 C   0  0  0  0  0  0  0  0  0  0  0  0
    2.6710   -2.6000    2.2720 C   0  0  0  0  0  0  0  0  0  0  0  0
    2.4970   -1.5160    1.4520 C   0  0  0  0  0  0  0  0  0  0  0  0
    2.3860   -0.2420    1.9320 C   0  0  0  0  0  0  0  0  0  0  0  0
    2.2030    0.9070    1.0300 C   0  0  0  0  0  0  0  0  0  0  0  0
    0.7970    1.3350    0.7950 C   0  0  2  0  0  0  0  0  0  0  0  0
    0.2080    1.6890    2.0960 N   0  0  0  0  0  0  0  0  0  0  0  0
   -0.0640    0.4330    0.0120 C   0  0  0  0  0  0  0  0  0  0  0  0
    0.2810   -0.0940   -1.0670 O   0  0  0  0  0  0  0  0  0  0  0  0
    2.4570   -0.0600    3.3180 C   0  0  0  0  0  0  0  0  0  0  0  0
    2.6290   -1.1400    4.1170 C   0  0  0  0  0  0  0  0  0  0  0  0
    2.4720   -3.5960    5.3580 H   0  0  0  0  0  0  0  0  0  0  0  0
    2.7560   -3.5800    1.8760 H   0  0  0  0  0  0  0  0  0  0  0  0
    2.4510   -1.7370    0.3710 H   0  0  0  0  0  0  0  0  0  0  0  0
    2.7620    1.7860    1.4760 H   0  0  0  0  0  0  0  0  0  0  0  0
    2.7090    0.6770    0.0410 H   0  0  0  0  0  0  0  0  0  0  0  0
    0.8210    2.3660    0.2720 H   0  0  0  0  0  0  0  0  0  0  0  0
   -0.6380    2.2620    1.9900 H   0  0  0  0  0  0  0  0  0  0  0  0
   -0.0170    0.8290    2.6430 H   0  0  0  0  0  0  0  0  0  0  0  0
    2.3670    0.9650    3.6950 H   0  0  0  0  0  0  0  0  0  0  0  0
    2.6830   -0.9940    5.1960 H   0  0  0  0  0  0  0  0  0  0  0  0
    0.1610    4.0480   -2.6760 N   0  0  0  0  0  0  0  0  0  0  0  0
   -0.8140    3.6610   -1.7060 C   0  0  0  0  0  0  0  0  0  0  0  0
   -0.9700    4.3270   -0.5960 N   0  0  0  0  0  0  0  0  0  0  0  0
   -1.6420    2.5380   -1.9330 N   0  0  0  0  0  0  0  0  0  0  0  0
   -2.7780    2.2590   -1.0880 C   0  0  0  0  0  0  0  0  0  0  0  0
   -3.5490    1.0620   -1.5140 C   0  0  0  0  0  0  0  0  0  0  0  0
   -2.8280   -0.2430   -1.5260 C   0  0  0  0  0  0  0  0  0  0  0  0
   -2.3280   -0.7150   -0.1940 C   0  0  2  0  0  0  0  0  0  0  0  0
   -1.3920    0.1140    0.4700 N   0  0  0  0  0  0  0  0  0  0  0  0
   -2.0150   -2.1660   -0.2110 C   0  0  0  0  0  0  0  0  0  0  0  0
   -2.8390   -2.9190   -0.7890 O   0  0  0  0  0  0  0  0  0  0  0  0
    0.9800    4.6080   -2.4160 H   0  0  0  0  0  0  0  0  0  0  0  0
    0.0510    3.7630   -3.6670 H   0  0  0  0  0  0  0  0  0  0  0  0
   -0.3600    5.1560   -0.4300 H   0  0  0  0  0  0  0  0  0  0  0  0
   -1.4320    1.9000   -2.7190 H   0  0  0  0  0  0  0  0  0  0  0  0
   -2.4900    2.2350   -0.0190 H   0  0  0  0  0  0  0  0  0  0  0  0
   -3.4920    3.1350   -1.1770 H   0  0  0  0  0  0  0  0  0  0  0  0
   -4.3810    0.9430   -0.7470 H   0  0  0  0  0  0  0  0  0  0  0  0
   -4.1150    1.2380   -2.4650 H   0  0  0  0  0  0  0  0  0  0  0  0
   -3.4980   -1.0360   -1.9240 H   0  0  0  0  0  0  0  0  0  0  0  0
   -1.9590   -0.1820   -2.2340 H   0  0  0  0  0  0  0  0  0  0  0  0
   -3.2720   -0.6790    0.4760 H   0  0  0  0  0  0  0  0  0  0  0  0
   -1.6200    0.5750    1.4100 H   0  0  0  0  0  0  0  0  0  0  0  0
    0.9200   -5.8890   -0.4820 C   0  0  0  0  0  0  0  0  0  0  0  0
    0.6380   -4.4250   -0.5440 C   0  0  1  0  0  0  0  0  0  0  0  0
    0.3520   -3.9920   -1.8380 O   0  0  0  0  0  0  0  0  0  0  0  0
   -0.5720   -4.1310    0.3500 C   0  0  2  0  0  0  0  0  0  0  0  0
   -0.8630   -2.7000    0.3780 N   0  0  0  0  0  0  0  0  0  0  0  0
   -0.3400   -4.6350    1.7090 C   0  0  0  0  0  0  0  0  0  0  0  0
   -0.0730   -5.8340    1.9360 O   0  0  0  0  0  0  0  0  0  0  0  0
   -0.4160   -3.7650    2.7790 O   0  0  0  0  0  0  0  0  0  0  0  0
    1.4690   -6.1520   -1.4300 H   0  0  0  0  0  0  0  0  0  0  0  0
    1.6070   -6.1610    0.3450 H   0  0  0  0  0  0  0  0  0  0  0  0
   -0.0170   -6.4650   -0.4450 H   0  0  0  0  0  0  0  0  0  0  0  0
    1.4860   -3.8740   -0.1120 H   0  0  0  0  0  0  0  0  0  0  0  0
   -0.5930   -4.2210   -2.0200 H   0  0  0  0  0  0  0  0  0  0  0  0
   -1.4290   -4.6890   -0.0900 H   0  0  0  0  0  0  0  0  0  0  0  0
   -0.2100   -2.0410    0.8490 H   0  0  0  0  0  0  0  0  0  0  0  0
  1 13  1  0  0  0  0
  2 12  1  0  0  0  0
  2  1  1  0  0  0  0
  3  2  2  0  0  0  0
  4  5  2  0  0  0  0
  4  3  1  0  0  0  0
  5 11  1  0  0  0  0
  6 16  1  0  0  0  0
  6  5  1  0  0  0  0
  7 18  1  6  0  0  0
  7  6  1  0  0  0  0
  7  8  1  0  0  0  0
  8 20  1  0  0  0  0
  9 31  1  0  0  0  0
  9  7  1  0  0  0  0
 10  9  2  0  0  0  0
 11 21  1  0  0  0  0
 11 12  2  0  0  0  0
 12 22  1  0  0  0  0
 14  3  1  0  0  0  0
 15  4  1  0  0  0  0
 17  6  1  0  0  0  0
 19  8  1  0  0  0  0
 23 34  1  0  0  0  0
 23 24  1  0  0  0  0
 24 25  2  0  0  0  0
 25 36  1  0  0  0  0
 26 24  1  0  0  0  0
 26 27  1  0  0  0  0
 27 38  1  0  0  0  0
 28 27  1  0  0  0  0
 28 40  1  0  0  0  0
 29 28  1  0  0  0  0
 29 30  1  0  0  0  0
 30 31  1  0  0  0  0
 30 44  1  1  0  0  0
 31 45  1  0  0  0  0
 32 30  1  0  0  0  0
 32 50  1  0  0  0  0
 33 32  2  0  0  0  0
 35 23  1  0  0  0  0
 37 26  1  0  0  0  0
 39 27  1  0  0  0  0
 41 28  1  0  0  0  0
 42 29  1  0  0  0  0
 43 29  1  0  0  0  0
 46 56  1  0  0  0  0
 46 55  1  0  0  0  0
 47 46  1  0  0  0  0
 47 57  1  1  0  0  0
 47 49  1  0  0  0  0
 48 47  1  0  0  0  0
 49 59  1  6  0  0  0
 49 50  1  0  0  0  0
 49 51  1  0  0  0  0
 50 60  1  0  0  0  0
 51 52  2  0  0  0  0
 51 53  1  0  0  0  0
 54 46  1  0  0  0  0
 58 48  1  0  0  0  0
M  END
$$$$
