YRW.pdb
 OpenBabel07022419203D

 70 72  0  0  1  0  0  0  0  0999 V2000
    4.8550   -3.9760    7.5890 O   0  0  0  0  0  0  0  0  0  0  0  0
    4.3000   -3.4960    6.4000 C   0  0  0  0  0  0  0  0  0  0  0  0
    3.1580   -4.0540    5.8930 C   0  0  0  0  0  0  0  0  0  0  0  0
    2.5660   -3.6110    4.7080 C   0  0  0  0  0  0  0  0  0  0  0  0
    3.1360   -2.5610    3.9930 C   0  0  0  0  0  0  0  0  0  0  0  0
    2.5260   -2.0800    2.7270 C   0  0  0  0  0  0  0  0  0  0  0  0
    1.4590   -0.9930    3.0080 C   0  0  2  0  0  0  0  0  0  0  0  0
    0.4930   -1.6820    3.8410 N   0  0  0  0  0  0  0  0  0  0  0  0
    0.8530   -0.5650    1.7200 C   0  0  0  0  0  0  0  0  0  0  0  0
    1.1850    0.5000    1.1390 O   0  0  0  0  0  0  0  0  0  0  0  0
    4.2920   -2.0060    4.5200 C   0  0  0  0  0  0  0  0  0  0  0  0
    4.8650   -2.4610    5.6980 C   0  0  0  0  0  0  0  0  0  0  0  0
    5.0360   -4.9880    7.7100 H   0  0  0  0  0  0  0  0  0  0  0  0
    2.6800   -4.8670    6.4170 H   0  0  0  0  0  0  0  0  0  0  0  0
    1.6680   -4.0810    4.3310 H   0  0  0  0  0  0  0  0  0  0  0  0
    3.3510   -1.6810    2.0940 H   0  0  0  0  0  0  0  0  0  0  0  0
    1.9970   -2.9090    2.1850 H   0  0  0  0  0  0  0  0  0  0  0  0
    1.9470   -0.2130    3.5780 H   0  0  0  0  0  0  0  0  0  0  0  0
   -0.2130   -1.0350    4.2490 H   0  0  0  0  0  0  0  0  0  0  0  0
    0.1470   -2.5400    3.4270 H   0  0  0  0  0  0  0  0  0  0  0  0
    4.7440   -1.1800    3.9600 H   0  0  0  0  0  0  0  0  0  0  0  0
    5.7830   -1.9820    6.0660 H   0  0  0  0  0  0  0  0  0  0  0  0
    4.7330   -0.9780   -3.8610 N   0  0  0  0  0  0  0  0  0  0  0  0
    3.6410   -0.5280   -3.0140 C   0  0  0  0  0  0  0  0  0  0  0  0
    3.4690    0.6540   -2.8000 N   0  0  0  0  0  0  0  0  0  0  0  0
    2.7790   -1.5340   -2.4400 N   0  0  0  0  0  0  0  0  0  0  0  0
    1.3890   -1.2060   -2.1100 C   0  0  0  0  0  0  0  0  0  0  0  0
    0.7570   -2.4150   -1.5120 C   0  0  0  0  0  0  0  0  0  0  0  0
   -0.6620   -2.1850   -1.1380 C   0  0  0  0  0  0  0  0  0  0  0  0
   -0.8170   -1.1140   -0.1210 C   0  0  2  0  0  0  0  0  0  0  0  0
   -0.1190   -1.3680    1.1230 N   0  0  0  0  0  0  0  0  0  0  0  0
   -2.2250   -0.8350    0.2270 C   0  0  0  0  0  0  0  0  0  0  0  0
   -2.5490   -0.7270    1.4310 O   0  0  0  0  0  0  0  0  0  0  0  0
    4.5480   -1.2830   -4.8460 H   0  0  0  0  0  0  0  0  0  0  0  0
    5.7040   -1.0120   -3.5300 H   0  0  0  0  0  0  0  0  0  0  0  0
    3.2880    1.5440   -2.6010 H   0  0  0  0  0  0  0  0  0  0  0  0
    3.1900   -2.4730   -2.2830 H   0  0  0  0  0  0  0  0  0  0  0  0
    0.9020   -0.9530   -3.0730 H   0  0  0  0  0  0  0  0  0  0  0  0
    1.4230   -0.3950   -1.3900 H   0  0  0  0  0  0  0  0  0  0  0  0
    1.3690   -2.8380   -0.6830 H   0  0  0  0  0  0  0  0  0  0  0  0
    0.7510   -3.2200   -2.3060 H   0  0  0  0  0  0  0  0  0  0  0  0
   -1.2290   -3.1220   -0.9510 H   0  0  0  0  0  0  0  0  0  0  0  0
   -1.1480   -1.7740   -2.0770 H   0  0  0  0  0  0  0  0  0  0  0  0
   -0.4030   -0.1760   -0.5310 H   0  0  0  0  0  0  0  0  0  0  0  0
   -0.4270   -2.2840    1.5670 H   0  0  0  0  0  0  0  0  0  0  0  0
   -3.2340   -0.6900   -0.7920 N   0  0  0  0  0  0  0  0  0  0  0  0
   -4.5810   -0.4220   -0.3490 C   0  0  1  0  0  0  0  0  0  0  0  0
   -5.3400    0.5920   -1.0870 C   0  0  0  0  0  0  0  0  0  0  0  0
   -4.7880    1.9530   -1.1530 C   0  0  0  0  0  0  0  0  0  0  0  0
   -5.0530    3.0400   -0.3290 C   0  0  0  0  0  0  0  0  0  0  0  0
   -4.3200    4.1000   -0.7120 N   0  0  0  0  0  0  0  0  0  0  0  0
   -3.5800    3.7280   -1.7720 C   0  0  0  0  0  0  0  0  0  0  0  0
   -2.6770    4.4490   -2.5380 C   0  0  0  0  0  0  0  0  0  0  0  0
   -2.0610    3.7870   -3.6080 C   0  0  0  0  0  0  0  0  0  0  0  0
   -2.3280    2.4730   -3.9040 C   0  0  0  0  0  0  0  0  0  0  0  0
   -3.2310    1.7690   -3.1280 C   0  0  0  0  0  0  0  0  0  0  0  0
   -3.8470    2.3900   -2.0750 C   0  0  0  0  0  0  0  0  0  0  0  0
   -5.3880   -1.7020   -0.3820 C   0  0  0  0  0  0  0  0  0  0  0  0
   -6.6020   -1.7070   -0.0540 O   0  0  0  0  0  0  0  0  0  0  0  0
   -4.8130   -2.8960   -0.7730 O   0  0  0  0  0  0  0  0  0  0  0  0
   -2.9050   -0.7980   -1.7520 H   0  0  0  0  0  0  0  0  0  0  0  0
   -4.5950   -0.1610    0.7550 H   0  0  0  0  0  0  0  0  0  0  0  0
   -5.6550    0.2430   -2.1110 H   0  0  0  0  0  0  0  0  0  0  0  0
   -6.3420    0.6990   -0.5560 H   0  0  0  0  0  0  0  0  0  0  0  0
   -5.7620    2.9660    0.4820 H   0  0  0  0  0  0  0  0  0  0  0  0
   -4.3210    5.0280   -0.2790 H   0  0  0  0  0  0  0  0  0  0  0  0
   -2.4550    5.4640   -2.3350 H   0  0  0  0  0  0  0  0  0  0  0  0
   -1.3580    4.3320   -4.2170 H   0  0  0  0  0  0  0  0  0  0  0  0
   -1.8620    1.9410   -4.7330 H   0  0  0  0  0  0  0  0  0  0  0  0
   -3.4280    0.7390   -3.3960 H   0  0  0  0  0  0  0  0  0  0  0  0
  1 13  1  0  0  0  0
  2  1  1  0  0  0  0
  3  2  1  0  0  0  0
  3 14  1  0  0  0  0
  4  3  2  0  0  0  0
  5 11  2  0  0  0  0
  5  4  1  0  0  0  0
  6  7  1  0  0  0  0
  6  5  1  0  0  0  0
  7 18  1  1  0  0  0
  7  8  1  0  0  0  0
  8 19  1  0  0  0  0
  9  7  1  0  0  0  0
 10  9  2  0  0  0  0
 11 12  1  0  0  0  0
 12 22  1  0  0  0  0
 12  2  2  0  0  0  0
 15  4  1  0  0  0  0
 16  6  1  0  0  0  0
 17  6  1  0  0  0  0
 20  8  1  0  0  0  0
 21 11  1  0  0  0  0
 23 35  1  0  0  0  0
 23 24  1  0  0  0  0
 24 25  2  0  0  0  0
 24 26  1  0  0  0  0
 25 36  1  0  0  0  0
 26 37  1  0  0  0  0
 26 27  1  0  0  0  0
 27 28  1  0  0  0  0
 27 39  1  0  0  0  0
 28 29  1  0  0  0  0
 28 40  1  0  0  0  0
 29 42  1  0  0  0  0
 29 30  1  0  0  0  0
 30 44  1  6  0  0  0
 30 32  1  0  0  0  0
 30 31  1  0  0  0  0
 31 45  1  0  0  0  0
 31  9  1  0  0  0  0
 32 33  2  0  0  0  0
 34 23  1  0  0  0  0
 38 27  1  0  0  0  0
 41 28  1  0  0  0  0
 43 29  1  0  0  0  0
 46 47  1  0  0  0  0
 46 32  1  0  0  0  0
 47 62  1  1  0  0  0
 48 64  1  0  0  0  0
 48 47  1  0  0  0  0
 49 48  1  0  0  0  0
 49 50  2  0  0  0  0
 50 65  1  0  0  0  0
 51 50  1  0  0  0  0
 51 66  1  0  0  0  0
 52 51  1  0  0  0  0
 53 67  1  0  0  0  0
 53 52  2  0  0  0  0
 54 53  1  0  0  0  0
 55 54  2  0  0  0  0
 55 56  1  0  0  0  0
 56 57  2  0  0  0  0
 57 52  1  0  0  0  0
 57 49  1  0  0  0  0
 58 47  1  0  0  0  0
 58 59  1  0  0  0  0
 60 58  2  0  0  0  0
 61 46  1  0  0  0  0
 63 48  1  0  0  0  0
 68 54  1  0  0  0  0
 69 55  1  0  0  0  0
 70 56  1  0  0  0  0
M  END
$$$$
