YRY.pdb
 OpenBabel07022419203D

 67 68  0  0  1  0  0  0  0  0999 V2000
   -0.4020    5.0720    4.6900 O   0  0  0  0  0  0  0  0  0  0  0  0
    0.5960    4.1160    4.4480 C   0  0  0  0  0  0  0  0  0  0  0  0
    1.8480    4.4780    4.0090 C   0  0  0  0  0  0  0  0  0  0  0  0
    2.8090    3.4840    3.7830 C   0  0  0  0  0  0  0  0  0  0  0  0
    2.4990    2.1600    4.0000 C   0  0  0  0  0  0  0  0  0  0  0  0
    3.5140    1.1410    3.7610 C   0  0  0  0  0  0  0  0  0  0  0  0
    3.5570    0.5710    2.3840 C   0  0  2  0  0  0  0  0  0  0  0  0
    3.8120    1.6000    1.4310 N   0  0  0  0  0  0  0  0  0  0  0  0
    2.3430   -0.2120    2.1450 C   0  0  0  0  0  0  0  0  0  0  0  0
    2.0650   -1.1210    2.9800 O   0  0  0  0  0  0  0  0  0  0  0  0
    1.2490    1.8390    4.4350 C   0  0  0  0  0  0  0  0  0  0  0  0
    0.2620    2.7850    4.6730 C   0  0  0  0  0  0  0  0  0  0  0  0
   -0.3910    5.5140    5.6140 H   0  0  0  0  0  0  0  0  0  0  0  0
    2.0590    5.5230    3.8490 H   0  0  0  0  0  0  0  0  0  0  0  0
    3.7730    3.7900    3.4420 H   0  0  0  0  0  0  0  0  0  0  0  0
    3.3170    0.2780    4.4620 H   0  0  0  0  0  0  0  0  0  0  0  0
    4.5210    1.5220    4.0860 H   0  0  0  0  0  0  0  0  0  0  0  0
    4.4560   -0.1140    2.3600 H   0  0  0  0  0  0  0  0  0  0  0  0
    3.2500    2.4490    1.5190 H   0  0  0  0  0  0  0  0  0  0  0  0
    4.8050    1.8660    1.4030 H   0  0  0  0  0  0  0  0  0  0  0  0
    0.9980    0.8220    4.6060 H   0  0  0  0  0  0  0  0  0  0  0  0
   -0.7030    2.4990    5.0130 H   0  0  0  0  0  0  0  0  0  0  0  0
   -3.6040    4.1280    2.4520 N   0  0  0  0  0  0  0  0  0  0  0  0
   -3.6240    3.1530    1.4440 C   0  0  0  0  0  0  0  0  0  0  0  0
   -4.7090    2.9650    0.7730 N   0  0  0  0  0  0  0  0  0  0  0  0
   -2.4700    2.3500    1.1300 N   0  0  0  0  0  0  0  0  0  0  0  0
   -2.3710    1.6490   -0.1330 C   0  0  0  0  0  0  0  0  0  0  0  0
   -1.0810    0.9010   -0.1750 C   0  0  0  0  0  0  0  0  0  0  0  0
   -1.0150   -0.0920    0.9380 C   0  0  0  0  0  0  0  0  0  0  0  0
    0.2800   -0.8770    0.9280 C   0  0  2  0  0  0  0  0  0  0  0  0
    1.4530   -0.0450    1.0650 N   0  0  0  0  0  0  0  0  0  0  0  0
    0.3920   -1.6600   -0.3550 C   0  0  0  0  0  0  0  0  0  0  0  0
    1.3850   -1.5570   -1.1150 O   0  0  0  0  0  0  0  0  0  0  0  0
   -3.7410    5.1450    2.2450 H   0  0  0  0  0  0  0  0  0  0  0  0
   -3.4510    3.8640    3.4400 H   0  0  0  0  0  0  0  0  0  0  0  0
   -5.5820    3.5030    0.9370 H   0  0  0  0  0  0  0  0  0  0  0  0
   -1.7370    2.3210    1.8710 H   0  0  0  0  0  0  0  0  0  0  0  0
   -3.2550    0.9680   -0.1820 H   0  0  0  0  0  0  0  0  0  0  0  0
   -2.4290    2.4340   -0.9250 H   0  0  0  0  0  0  0  0  0  0  0  0
   -0.9150    0.3570   -1.1250 H   0  0  0  0  0  0  0  0  0  0  0  0
   -0.2550    1.6340   -0.0710 H   0  0  0  0  0  0  0  0  0  0  0  0
   -1.0590    0.4080    1.9320 H   0  0  0  0  0  0  0  0  0  0  0  0
   -1.8260   -0.8420    0.8200 H   0  0  0  0  0  0  0  0  0  0  0  0
    0.2020   -1.6080    1.7850 H   0  0  0  0  0  0  0  0  0  0  0  0
    1.6690    0.7000    0.3690 H   0  0  0  0  0  0  0  0  0  0  0  0
   -0.4280   -8.5480   -5.8110 O   0  0  0  0  0  0  0  0  0  0  0  0
   -0.4600   -7.6290   -4.7670 C   0  0  0  0  0  0  0  0  0  0  0  0
   -1.6690   -7.1790   -4.2760 C   0  0  0  0  0  0  0  0  0  0  0  0
   -1.7150   -6.2640   -3.2380 C   0  0  0  0  0  0  0  0  0  0  0  0
   -0.5780   -5.7610   -2.6490 C   0  0  0  0  0  0  0  0  0  0  0  0
   -0.6280   -4.7800   -1.5470 C   0  0  0  0  0  0  0  0  0  0  0  0
   -0.5720   -3.3390   -1.9960 C   0  0  2  0  0  0  0  0  0  0  0  0
   -0.6400   -2.5530   -0.7500 N   0  0  0  0  0  0  0  0  0  0  0  0
   -1.7390   -3.0610   -2.8520 C   0  0  0  0  0  0  0  0  0  0  0  0
   -2.6350   -2.2840   -2.4530 O   0  0  0  0  0  0  0  0  0  0  0  0
    0.6290   -6.2250   -3.1560 C   0  0  0  0  0  0  0  0  0  0  0  0
    0.6870   -7.1360   -4.1880 C   0  0  0  0  0  0  0  0  0  0  0  0
   -1.8370   -3.6530   -4.0830 O   0  0  0  0  0  0  0  0  0  0  0  0
   -0.7350   -9.5170   -5.6890 H   0  0  0  0  0  0  0  0  0  0  0  0
   -2.5720   -7.5720   -4.7370 H   0  0  0  0  0  0  0  0  0  0  0  0
   -2.6770   -5.9410   -2.8790 H   0  0  0  0  0  0  0  0  0  0  0  0
   -1.5250   -4.9700   -0.9020 H   0  0  0  0  0  0  0  0  0  0  0  0
    0.2400   -5.0010   -0.8590 H   0  0  0  0  0  0  0  0  0  0  0  0
    0.3910   -3.1420   -2.5170 H   0  0  0  0  0  0  0  0  0  0  0  0
   -1.4820   -2.6840   -0.1740 H   0  0  0  0  0  0  0  0  0  0  0  0
    1.5610   -5.8560   -2.7210 H   0  0  0  0  0  0  0  0  0  0  0  0
    1.6250   -7.5040   -4.5910 H   0  0  0  0  0  0  0  0  0  0  0  0
  1 13  1  0  0  0  0
  2 12  1  0  0  0  0
  2  1  1  0  0  0  0
  3  2  2  0  0  0  0
  4  5  2  0  0  0  0
  4  3  1  0  0  0  0
  5 11  1  0  0  0  0
  6  5  1  0  0  0  0
  6 17  1  0  0  0  0
  6 16  1  0  0  0  0
  7 18  1  6  0  0  0
  7  6  1  0  0  0  0
  8 19  1  0  0  0  0
  8  7  1  0  0  0  0
  9  7  1  0  0  0  0
  9 10  2  0  0  0  0
 11 21  1  0  0  0  0
 11 12  2  0  0  0  0
 12 22  1  0  0  0  0
 14  3  1  0  0  0  0
 15  4  1  0  0  0  0
 20  8  1  0  0  0  0
 23 35  1  0  0  0  0
 24 23  1  0  0  0  0
 25 36  1  0  0  0  0
 25 24  2  0  0  0  0
 26 24  1  0  0  0  0
 26 37  1  0  0  0  0
 27 26  1  0  0  0  0
 28 27  1  0  0  0  0
 28 41  1  0  0  0  0
 28 29  1  0  0  0  0
 29 42  1  0  0  0  0
 30 29  1  0  0  0  0
 30 31  1  0  0  0  0
 30 44  1  1  0  0  0
 31  9  1  0  0  0  0
 32 30  1  0  0  0  0
 33 32  2  0  0  0  0
 34 23  1  0  0  0  0
 38 27  1  0  0  0  0
 39 27  1  0  0  0  0
 40 28  1  0  0  0  0
 43 29  1  0  0  0  0
 45 31  1  0  0  0  0
 46 59  1  0  0  0  0
 46 47  1  0  0  0  0
 47 48  2  0  0  0  0
 47 57  1  0  0  0  0
 48 49  1  0  0  0  0
 49 61  1  0  0  0  0
 49 50  2  0  0  0  0
 50 51  1  0  0  0  0
 51 62  1  0  0  0  0
 51 63  1  0  0  0  0
 52 64  1  6  0  0  0
 52 51  1  0  0  0  0
 52 53  1  0  0  0  0
 53 32  1  0  0  0  0
 53 65  1  0  0  0  0
 54 55  1  0  0  0  0
 54 52  1  0  0  0  0
 56 66  1  0  0  0  0
 56 50  1  0  0  0  0
 57 56  2  0  0  0  0
 58 54  2  0  0  0  0
 60 48  1  0  0  0  0
 67 57  1  0  0  0  0
M  END
$$$$
