YSA.pdb
 OpenBabel07022419233D

 44 44  0  0  1  0  0  0  0  0999 V2000
   -1.3210   -4.9790   -1.8930 O   0  0  0  0  0  0  0  0  0  0  0  0
   -0.5270   -4.3060   -0.9910 C   0  0  0  0  0  0  0  0  0  0  0  0
    0.7770   -4.7250   -0.8430 C   0  0  0  0  0  0  0  0  0  0  0  0
    1.5660   -4.0430    0.0650 C   0  0  0  0  0  0  0  0  0  0  0  0
    1.0480   -2.9680    0.8000 C   0  0  0  0  0  0  0  0  0  0  0  0
    1.9020   -2.2480    1.7710 C   0  0  0  0  0  0  0  0  0  0  0  0
    2.6670   -1.1070    1.2100 C   0  0  2  0  0  0  0  0  0  0  0  0
    3.4460   -0.5260    2.3000 N   0  0  0  0  0  0  0  0  0  0  0  0
    1.8800   -0.0150    0.6240 C   0  0  0  0  0  0  0  0  0  0  0  0
    1.0820   -0.2400   -0.3270 O   0  0  0  0  0  0  0  0  0  0  0  0
   -0.2620   -2.5800    0.6230 C   0  0  0  0  0  0  0  0  0  0  0  0
   -1.0610   -3.2550   -0.2820 C   0  0  0  0  0  0  0  0  0  0  0  0
   -2.1000   -5.5660   -1.6260 H   0  0  0  0  0  0  0  0  0  0  0  0
    1.1730   -5.5550   -1.4130 H   0  0  0  0  0  0  0  0  0  0  0  0
    2.5990   -4.3280    0.2230 H   0  0  0  0  0  0  0  0  0  0  0  0
    2.6550   -3.0050    2.1310 H   0  0  0  0  0  0  0  0  0  0  0  0
    1.3320   -1.9810    2.7020 H   0  0  0  0  0  0  0  0  0  0  0  0
    3.4180   -1.5240    0.4930 H   0  0  0  0  0  0  0  0  0  0  0  0
    4.1900    0.1000    1.9800 H   0  0  0  0  0  0  0  0  0  0  0  0
    2.8460   -0.1780    3.0580 H   0  0  0  0  0  0  0  0  0  0  0  0
   -0.6150   -1.7490    1.2140 H   0  0  0  0  0  0  0  0  0  0  0  0
   -2.0930   -2.9210   -0.3970 H   0  0  0  0  0  0  0  0  0  0  0  0
    1.5280    1.8420   -1.8430 O   0  0  0  0  0  0  0  0  0  0  0  0
    1.6080    2.8020   -0.8800 C   0  0  0  0  0  0  0  0  0  0  0  0
    1.1980    2.4110    0.5050 C   0  0  2  0  0  0  0  0  0  0  0  0
    1.9620    1.3390    1.0750 N   0  0  0  0  0  0  0  0  0  0  0  0
   -0.2660    2.3040    0.7140 C   0  0  0  0  0  0  0  0  0  0  0  0
   -1.0370    3.1810    0.2230 O   0  0  0  0  0  0  0  0  0  0  0  0
    2.2220    2.0370   -2.5500 H   0  0  0  0  0  0  0  0  0  0  0  0
    2.6850    3.1390   -0.7940 H   0  0  0  0  0  0  0  0  0  0  0  0
    1.0790    3.7040   -1.2510 H   0  0  0  0  0  0  0  0  0  0  0  0
    1.4680    3.3270    1.1320 H   0  0  0  0  0  0  0  0  0  0  0  0
    2.6480    1.4790    1.8800 H   0  0  0  0  0  0  0  0  0  0  0  0
   -2.8670    0.0270    0.8390 C   0  0  0  0  0  0  0  0  0  0  0  0
   -2.3510    1.2160    1.6160 C   0  0  2  0  0  0  0  0  0  0  0  0
   -0.9150    1.2750    1.4400 N   0  0  0  0  0  0  0  0  0  0  0  0
   -2.7600    1.1490    3.0130 C   0  0  0  0  0  0  0  0  0  0  0  0
   -3.9680    1.0930    3.3240 O   0  0  0  0  0  0  0  0  0  0  0  0
   -1.8150    1.1460    4.0180 O   0  0  0  0  0  0  0  0  0  0  0  0
   -3.8960    0.1700    0.4600 H   0  0  0  0  0  0  0  0  0  0  0  0
   -2.2320   -0.2090   -0.0470 H   0  0  0  0  0  0  0  0  0  0  0  0
   -2.8720   -0.8680    1.4930 H   0  0  0  0  0  0  0  0  0  0  0  0
   -2.7690    2.1220    1.0860 H   0  0  0  0  0  0  0  0  0  0  0  0
   -0.3510    0.5360    1.8670 H   0  0  0  0  0  0  0  0  0  0  0  0
  1 13  1  0  0  0  0
  1  2  1  0  0  0  0
  2  3  2  0  0  0  0
  2 12  1  0  0  0  0
  3  4  1  0  0  0  0
  4 15  1  0  0  0  0
  4  5  2  0  0  0  0
  5  6  1  0  0  0  0
  6 16  1  0  0  0  0
  6 17  1  0  0  0  0
  7 18  1  6  0  0  0
  7  6  1  0  0  0  0
  7  8  1  0  0  0  0
  8 20  1  0  0  0  0
  9 26  1  0  0  0  0
  9  7  1  0  0  0  0
 10  9  2  0  0  0  0
 11  5  1  0  0  0  0
 11 21  1  0  0  0  0
 12 11  2  0  0  0  0
 14  3  1  0  0  0  0
 19  8  1  0  0  0  0
 22 12  1  0  0  0  0
 23 24  1  0  0  0  0
 24 30  1  0  0  0  0
 24 25  1  0  0  0  0
 25 27  1  0  0  0  0
 25 26  1  0  0  0  0
 25 32  1  1  0  0  0
 26 33  1  0  0  0  0
 27 36  1  0  0  0  0
 28 27  2  0  0  0  0
 29 23  1  0  0  0  0
 31 24  1  0  0  0  0
 34 42  1  0  0  0  0
 34 35  1  0  0  0  0
 35 43  1  6  0  0  0
 35 37  1  0  0  0  0
 36 35  1  0  0  0  0
 36 44  1  0  0  0  0
 37 38  2  0  0  0  0
 37 39  1  0  0  0  0
 40 34  1  0  0  0  0
 41 34  1  0  0  0  0
M  END
$$$$
