YSC.pdb
 OpenBabel07022419233D

 45 45  0  0  1  0  0  0  0  0999 V2000
    0.8040   -5.9780    2.3090 O   0  0  0  0  0  0  0  0  0  0  0  0
    1.4230   -4.9000    1.7120 C   0  0  0  0  0  0  0  0  0  0  0  0
    0.7110   -3.9020    1.1060 C   0  0  0  0  0  0  0  0  0  0  0  0
    1.3150   -2.8020    0.4950 C   0  0  0  0  0  0  0  0  0  0  0  0
    2.6860   -2.7450    0.5180 C   0  0  0  0  0  0  0  0  0  0  0  0
    3.3920   -1.6050   -0.1110 C   0  0  0  0  0  0  0  0  0  0  0  0
    3.5980   -0.4870    0.8960 C   0  0  2  0  0  0  0  0  0  0  0  0
    4.3840   -0.9460    2.0260 N   0  0  0  0  0  0  0  0  0  0  0  0
    2.3530    0.1130    1.3670 C   0  0  0  0  0  0  0  0  0  0  0  0
    2.0960    0.1270    2.5970 O   0  0  0  0  0  0  0  0  0  0  0  0
    3.4420   -3.7330    1.1190 C   0  0  0  0  0  0  0  0  0  0  0  0
    2.7980   -4.8010    1.7100 C   0  0  0  0  0  0  0  0  0  0  0  0
    1.3120   -6.4890    3.0240 H   0  0  0  0  0  0  0  0  0  0  0  0
   -0.3610   -3.9540    1.0920 H   0  0  0  0  0  0  0  0  0  0  0  0
    0.7030   -2.0430    0.0320 H   0  0  0  0  0  0  0  0  0  0  0  0
    4.3580   -1.9770   -0.4940 H   0  0  0  0  0  0  0  0  0  0  0  0
    2.8240   -1.1780   -0.9630 H   0  0  0  0  0  0  0  0  0  0  0  0
    4.2630    0.2560    0.3640 H   0  0  0  0  0  0  0  0  0  0  0  0
    3.8380   -1.6890    2.5040 H   0  0  0  0  0  0  0  0  0  0  0  0
    4.4840   -0.1640    2.6950 H   0  0  0  0  0  0  0  0  0  0  0  0
    4.5240   -3.6990    1.1440 H   0  0  0  0  0  0  0  0  0  0  0  0
    3.3650   -5.5990    2.1940 H   0  0  0  0  0  0  0  0  0  0  0  0
    0.4510    3.0070   -0.6200 O   0  0  0  0  0  0  0  0  0  0  0  0
    0.2650    2.8100    0.7520 C   0  0  0  0  0  0  0  0  0  0  0  0
    0.1580    1.2920    0.9750 C   0  0  2  0  0  0  0  0  0  0  0  0
    1.3740    0.7040    0.5200 N   0  0  0  0  0  0  0  0  0  0  0  0
   -1.0380    0.8660    0.2350 C   0  0  0  0  0  0  0  0  0  0  0  0
   -0.9000    0.0500   -0.7120 O   0  0  0  0  0  0  0  0  0  0  0  0
    0.7500    3.9530   -0.7820 H   0  0  0  0  0  0  0  0  0  0  0  0
    1.1550    3.1540    1.2770 H   0  0  0  0  0  0  0  0  0  0  0  0
   -0.6760    3.3140    1.0690 H   0  0  0  0  0  0  0  0  0  0  0  0
    0.0950    1.1810    2.0730 H   0  0  0  0  0  0  0  0  0  0  0  0
    1.5760    0.6980   -0.5030 H   0  0  0  0  0  0  0  0  0  0  0  0
   -2.3530    1.3080    0.5100 N   0  0  0  0  0  0  0  0  0  0  0  0
   -3.5300    0.8860   -0.2210 C   0  0  1  0  0  0  0  0  0  0  0  0
   -4.5700    0.3010    0.7330 C   0  0  0  0  0  0  0  0  0  0  0  0
   -3.9320   -1.1260    1.6170 S   0  0  0  0  0  0  0  0  0  0  0  0
   -4.1570    2.0650   -0.8680 C   0  0  0  0  0  0  0  0  0  0  0  0
   -5.1970    1.9780   -1.5660 O   0  0  0  0  0  0  0  0  0  0  0  0
   -3.5970    3.3220   -0.7140 O   0  0  0  0  0  0  0  0  0  0  0  0
   -2.4840    1.9840    1.2910 H   0  0  0  0  0  0  0  0  0  0  0  0
   -3.2870    0.1720   -1.0260 H   0  0  0  0  0  0  0  0  0  0  0  0
   -4.9410    1.1090    1.3950 H   0  0  0  0  0  0  0  0  0  0  0  0
   -5.4500    0.0180    0.0960 H   0  0  0  0  0  0  0  0  0  0  0  0
   -4.9560   -2.0700    1.7330 H   0  0  0  0  0  0  0  0  0  0  0  0
  1 13  1  0  0  0  0
  2  1  1  0  0  0  0
  3  2  2  0  0  0  0
  4  5  2  0  0  0  0
  4  3  1  0  0  0  0
  5 11  1  0  0  0  0
  6  5  1  0  0  0  0
  6  7  1  0  0  0  0
  7 18  1  6  0  0  0
  7  9  1  0  0  0  0
  7  8  1  0  0  0  0
  8 19  1  0  0  0  0
  8 20  1  0  0  0  0
  9 10  2  0  0  0  0
 11 21  1  0  0  0  0
 11 12  2  0  0  0  0
 12  2  1  0  0  0  0
 12 22  1  0  0  0  0
 14  3  1  0  0  0  0
 15  4  1  0  0  0  0
 16  6  1  0  0  0  0
 17  6  1  0  0  0  0
 23 24  1  0  0  0  0
 24 25  1  0  0  0  0
 24 31  1  0  0  0  0
 24 30  1  0  0  0  0
 25 32  1  1  0  0  0
 26 25  1  0  0  0  0
 26  9  1  0  0  0  0
 27 34  1  0  0  0  0
 27 25  1  0  0  0  0
 28 27  2  0  0  0  0
 29 23  1  0  0  0  0
 33 26  1  0  0  0  0
 34 41  1  0  0  0  0
 35 42  1  6  0  0  0
 35 34  1  0  0  0  0
 35 36  1  0  0  0  0
 36 43  1  0  0  0  0
 36 37  1  0  0  0  0
 37 45  1  0  0  0  0
 38 40  1  0  0  0  0
 38 35  1  0  0  0  0
 39 38  2  0  0  0  0
 44 36  1  0  0  0  0
M  END
$$$$
