YSD.pdb
 OpenBabel07022419233D

 47 47  0  0  1  0  0  0  0  0999 V2000
   -1.0050   -4.9470    1.6540 O   0  0  0  0  0  0  0  0  0  0  0  0
   -0.7910   -4.1810    0.5370 C   0  0  0  0  0  0  0  0  0  0  0  0
   -1.6470   -4.1950   -0.5470 C   0  0  0  0  0  0  0  0  0  0  0  0
   -1.3940   -3.4050   -1.6560 C   0  0  0  0  0  0  0  0  0  0  0  0
   -0.2790   -2.5740   -1.7230 C   0  0  0  0  0  0  0  0  0  0  0  0
   -0.0600   -1.7910   -2.9450 C   0  0  0  0  0  0  0  0  0  0  0  0
   -0.7530   -0.4700   -3.0040 C   0  0  2  0  0  0  0  0  0  0  0  0
   -0.4350    0.1770   -4.3100 N   0  0  0  0  0  0  0  0  0  0  0  0
   -0.4350    0.5070   -1.9710 C   0  0  0  0  0  0  0  0  0  0  0  0
    0.2010    1.5820   -2.2960 O   0  0  0  0  0  0  0  0  0  0  0  0
    0.5660   -2.5600   -0.6520 C   0  0  0  0  0  0  0  0  0  0  0  0
    0.3120   -3.3480    0.4520 C   0  0  0  0  0  0  0  0  0  0  0  0
   -0.2310   -5.4690    2.0430 H   0  0  0  0  0  0  0  0  0  0  0  0
   -2.5150   -4.8390   -0.5020 H   0  0  0  0  0  0  0  0  0  0  0  0
   -2.1140   -3.4730   -2.4680 H   0  0  0  0  0  0  0  0  0  0  0  0
    1.0360   -1.7070   -3.1640 H   0  0  0  0  0  0  0  0  0  0  0  0
   -0.4970   -2.3980   -3.7940 H   0  0  0  0  0  0  0  0  0  0  0  0
   -1.8570   -0.6860   -3.0910 H   0  0  0  0  0  0  0  0  0  0  0  0
   -0.5930    1.2020   -4.2370 H   0  0  0  0  0  0  0  0  0  0  0  0
   -1.0150   -0.2130   -5.0620 H   0  0  0  0  0  0  0  0  0  0  0  0
    1.4410   -1.9360   -0.6510 H   0  0  0  0  0  0  0  0  0  0  0  0
    0.9770   -3.3520    1.3220 H   0  0  0  0  0  0  0  0  0  0  0  0
   -1.2310    3.2730    1.6480 O   0  0  0  0  0  0  0  0  0  0  0  0
   -1.6230    2.2640    0.7830 C   0  0  0  0  0  0  0  0  0  0  0  0
   -0.3660    1.5330    0.3290 C   0  0  2  0  0  0  0  0  0  0  0  0
   -0.7370    0.4600   -0.5980 N   0  0  0  0  0  0  0  0  0  0  0  0
    0.2610    0.9080    1.5150 C   0  0  0  0  0  0  0  0  0  0  0  0
    0.3260   -0.3590    1.6510 O   0  0  0  0  0  0  0  0  0  0  0  0
   -0.8320    3.9890    1.0790 H   0  0  0  0  0  0  0  0  0  0  0  0
   -2.3020    1.5980    1.3350 H   0  0  0  0  0  0  0  0  0  0  0  0
   -2.1010    2.7530   -0.0870 H   0  0  0  0  0  0  0  0  0  0  0  0
    0.2550    2.2980   -0.1610 H   0  0  0  0  0  0  0  0  0  0  0  0
   -1.2400   -0.3500   -0.2100 H   0  0  0  0  0  0  0  0  0  0  0  0
    0.8300    1.6660    2.5720 N   0  0  0  0  0  0  0  0  0  0  0  0
    1.4410    0.9870    3.7270 C   0  0  1  0  0  0  0  0  0  0  0  0
    0.3400    0.3570    4.4900 C   0  0  0  0  0  0  0  0  0  0  0  0
    0.6920   -0.3750    5.7000 C   0  0  0  0  0  0  0  0  0  0  0  0
   -0.2760   -0.9830    6.2760 O   0  0  0  0  0  0  0  0  0  0  0  0
    2.5140    0.1230    3.2560 C   0  0  0  0  0  0  0  0  0  0  0  0
    3.1660   -0.5920    4.0460 O   0  0  0  0  0  0  0  0  0  0  0  0
    1.9100   -0.5020    6.3060 O   0  0  0  0  0  0  0  0  0  0  0  0
    2.8530    0.0610    1.9160 O   0  0  0  0  0  0  0  0  0  0  0  0
    0.8090    2.7040    2.5090 H   0  0  0  0  0  0  0  0  0  0  0  0
    1.9190    1.7840    4.3480 H   0  0  0  0  0  0  0  0  0  0  0  0
   -0.3260    1.2120    4.8320 H   0  0  0  0  0  0  0  0  0  0  0  0
   -0.3510   -0.2460    3.8520 H   0  0  0  0  0  0  0  0  0  0  0  0
    2.1250   -1.3740    6.7910 H   0  0  0  0  0  0  0  0  0  0  0  0
  1 13  1  0  0  0  0
  2  1  1  0  0  0  0
  3 14  1  0  0  0  0
  3  2  2  0  0  0  0
  4  3  1  0  0  0  0
  5  4  2  0  0  0  0
  5 11  1  0  0  0  0
  6  5  1  0  0  0  0
  7 18  1  1  0  0  0
  7  6  1  0  0  0  0
  7  9  1  0  0  0  0
  8 19  1  0  0  0  0
  8  7  1  0  0  0  0
  9 26  1  0  0  0  0
 10  9  2  0  0  0  0
 11 21  1  0  0  0  0
 11 12  2  0  0  0  0
 12  2  1  0  0  0  0
 12 22  1  0  0  0  0
 15  4  1  0  0  0  0
 16  6  1  0  0  0  0
 17  6  1  0  0  0  0
 20  8  1  0  0  0  0
 24 30  1  0  0  0  0
 24 23  1  0  0  0  0
 25 32  1  6  0  0  0
 25 24  1  0  0  0  0
 25 27  1  0  0  0  0
 26 33  1  0  0  0  0
 26 25  1  0  0  0  0
 27 28  2  0  0  0  0
 27 34  1  0  0  0  0
 29 23  1  0  0  0  0
 31 24  1  0  0  0  0
 34 35  1  0  0  0  0
 35 44  1  1  0  0  0
 35 36  1  0  0  0  0
 36 45  1  0  0  0  0
 36 37  1  0  0  0  0
 37 38  2  0  0  0  0
 37 41  1  0  0  0  0
 39 35  1  0  0  0  0
 39 40  1  0  0  0  0
 41 47  1  0  0  0  0
 42 39  2  0  0  0  0
 43 34  1  0  0  0  0
 46 36  1  0  0  0  0
M  END
$$$$
