YSE.pdb
 OpenBabel07022419233D

 50 50  0  0  1  0  0  0  0  0999 V2000
    0.4350   -4.6250    2.1380 O   0  0  0  0  0  0  0  0  0  0  0  0
    1.2430   -3.5060    1.9990 C   0  0  0  0  0  0  0  0  0  0  0  0
    2.4280   -3.5510    1.2840 C   0  0  0  0  0  0  0  0  0  0  0  0
    3.1880   -2.4300    1.1740 C   0  0  0  0  0  0  0  0  0  0  0  0
    2.8360   -1.2020    1.7540 C   0  0  0  0  0  0  0  0  0  0  0  0
    3.7640   -0.0670    1.6340 C   0  0  0  0  0  0  0  0  0  0  0  0
    3.6540    0.7130    0.3740 C   0  0  2  0  0  0  0  0  0  0  0  0
    4.7160    1.7630    0.4670 N   0  0  0  0  0  0  0  0  0  0  0  0
    2.3600    1.3820    0.2160 C   0  0  0  0  0  0  0  0  0  0  0  0
    2.3160    2.6520    0.4650 O   0  0  0  0  0  0  0  0  0  0  0  0
    1.6540   -1.2020    2.4520 C   0  0  0  0  0  0  0  0  0  0  0  0
    0.8450   -2.3220    2.5920 C   0  0  0  0  0  0  0  0  0  0  0  0
    0.2160   -5.0440    3.0430 H   0  0  0  0  0  0  0  0  0  0  0  0
    2.6990   -4.5010    0.8370 H   0  0  0  0  0  0  0  0  0  0  0  0
    4.1320   -2.4540    0.6080 H   0  0  0  0  0  0  0  0  0  0  0  0
    4.8310   -0.4000    1.7270 H   0  0  0  0  0  0  0  0  0  0  0  0
    3.5070    0.6290    2.4750 H   0  0  0  0  0  0  0  0  0  0  0  0
    3.9530    0.0930   -0.4870 H   0  0  0  0  0  0  0  0  0  0  0  0
    4.4140    2.6160   -0.0410 H   0  0  0  0  0  0  0  0  0  0  0  0
    5.6200    1.3710    0.1240 H   0  0  0  0  0  0  0  0  0  0  0  0
    1.3440   -0.2560    2.9200 H   0  0  0  0  0  0  0  0  0  0  0  0
   -0.0620   -2.2970    3.1380 H   0  0  0  0  0  0  0  0  0  0  0  0
   -1.3430    2.7960   -2.0310 O   0  0  0  0  0  0  0  0  0  0  0  0
   -0.2380    2.0060   -1.8230 C   0  0  0  0  0  0  0  0  0  0  0  0
   -0.0590    1.6820   -0.3210 C   0  0  2  0  0  0  0  0  0  0  0  0
    1.1190    0.8520   -0.1850 N   0  0  0  0  0  0  0  0  0  0  0  0
   -1.3020    1.1700    0.2250 C   0  0  0  0  0  0  0  0  0  0  0  0
   -2.3490    1.9270    0.1440 O   0  0  0  0  0  0  0  0  0  0  0  0
   -1.3640    3.5280   -1.3390 H   0  0  0  0  0  0  0  0  0  0  0  0
    0.6540    2.5510   -2.1970 H   0  0  0  0  0  0  0  0  0  0  0  0
   -0.3130    1.0710   -2.4140 H   0  0  0  0  0  0  0  0  0  0  0  0
    0.1240    2.7080    0.1200 H   0  0  0  0  0  0  0  0  0  0  0  0
    1.0840   -0.1650   -0.3790 H   0  0  0  0  0  0  0  0  0  0  0  0
   -1.5400   -0.0700    0.8470 N   0  0  0  0  0  0  0  0  0  0  0  0
   -2.8560   -0.4380    1.3460 C   0  0  1  0  0  0  0  0  0  0  0  0
   -3.2500   -1.7960    0.8210 C   0  0  0  0  0  0  0  0  0  0  0  0
   -3.2990   -1.8100   -0.6980 C   0  0  0  0  0  0  0  0  0  0  0  0
   -3.6880   -3.1530   -1.1930 C   0  0  0  0  0  0  0  0  0  0  0  0
   -3.9220   -4.0770   -0.3740 O   0  0  0  0  0  0  0  0  0  0  0  0
   -2.8720   -0.5100    2.8460 C   0  0  0  0  0  0  0  0  0  0  0  0
   -3.9410   -0.8420    3.4050 O   0  0  0  0  0  0  0  0  0  0  0  0
   -3.8100   -3.4480   -2.5380 O   0  0  0  0  0  0  0  0  0  0  0  0
   -1.7660   -0.2260    3.6190 O   0  0  0  0  0  0  0  0  0  0  0  0
   -0.7360   -0.7160    0.9260 H   0  0  0  0  0  0  0  0  0  0  0  0
   -3.5940    0.3420    1.0370 H   0  0  0  0  0  0  0  0  0  0  0  0
   -4.2150   -2.1420    1.2260 H   0  0  0  0  0  0  0  0  0  0  0  0
   -2.4900   -2.5320    1.1420 H   0  0  0  0  0  0  0  0  0  0  0  0
   -2.3400   -1.4950   -1.1340 H   0  0  0  0  0  0  0  0  0  0  0  0
   -4.0880   -1.0760   -0.9980 H   0  0  0  0  0  0  0  0  0  0  0  0
   -3.6750   -4.3970   -2.8840 H   0  0  0  0  0  0  0  0  0  0  0  0
  1 13  1  0  0  0  0
  2  1  1  0  0  0  0
  2 12  1  0  0  0  0
  3  2  2  0  0  0  0
  4  3  1  0  0  0  0
  4  5  2  0  0  0  0
  5 11  1  0  0  0  0
  6 16  1  0  0  0  0
  6  5  1  0  0  0  0
  6 17  1  0  0  0  0
  7 18  1  6  0  0  0
  7  8  1  0  0  0  0
  7  6  1  0  0  0  0
  9  7  1  0  0  0  0
  9 10  2  0  0  0  0
 11 12  2  0  0  0  0
 11 21  1  0  0  0  0
 12 22  1  0  0  0  0
 14  3  1  0  0  0  0
 15  4  1  0  0  0  0
 19  8  1  0  0  0  0
 20  8  1  0  0  0  0
 23 24  1  0  0  0  0
 23 29  1  0  0  0  0
 24 25  1  0  0  0  0
 25 26  1  0  0  0  0
 25 32  1  1  0  0  0
 25 27  1  0  0  0  0
 26  9  1  0  0  0  0
 27 34  1  0  0  0  0
 28 27  2  0  0  0  0
 30 24  1  0  0  0  0
 31 24  1  0  0  0  0
 33 26  1  0  0  0  0
 34 44  1  0  0  0  0
 34 35  1  0  0  0  0
 35 45  1  6  0  0  0
 35 40  1  0  0  0  0
 36 47  1  0  0  0  0
 36 46  1  0  0  0  0
 36 35  1  0  0  0  0
 37 36  1  0  0  0  0
 38 37  1  0  0  0  0
 38 39  2  0  0  0  0
 40 41  2  0  0  0  0
 40 43  1  0  0  0  0
 42 38  1  0  0  0  0
 48 37  1  0  0  0  0
 49 37  1  0  0  0  0
 50 42  1  0  0  0  0
M  END
$$$$
