YSF.pdb
 OpenBabel07022419233D

 54 55  0  0  1  0  0  0  0  0999 V2000
   -4.0280   -1.6870    6.2530 O   0  0  0  0  0  0  0  0  0  0  0  0
   -3.0650   -0.7730    5.8980 C   0  0  0  0  0  0  0  0  0  0  0  0
   -1.9710   -0.4410    6.6550 C   0  0  0  0  0  0  0  0  0  0  0  0
   -1.0430    0.4840    6.2400 C   0  0  0  0  0  0  0  0  0  0  0  0
   -1.1960    1.1130    5.0230 C   0  0  0  0  0  0  0  0  0  0  0  0
   -0.2690    2.1120    4.4890 C   0  0  0  0  0  0  0  0  0  0  0  0
    0.8530    1.5680    3.6700 C   0  0  2  0  0  0  0  0  0  0  0  0
    1.6590    2.7050    3.2310 N   0  0  0  0  0  0  0  0  0  0  0  0
    0.4610    0.8000    2.4900 C   0  0  0  0  0  0  0  0  0  0  0  0
   -0.2450   -0.2460    2.6590 O   0  0  0  0  0  0  0  0  0  0  0  0
   -2.3000    0.7760    4.2620 C   0  0  0  0  0  0  0  0  0  0  0  0
   -3.2250   -0.1400    4.6670 C   0  0  0  0  0  0  0  0  0  0  0  0
   -4.9960   -1.4890    6.3950 H   0  0  0  0  0  0  0  0  0  0  0  0
   -1.8380   -0.9250    7.6070 H   0  0  0  0  0  0  0  0  0  0  0  0
   -0.1800    0.7430    6.8400 H   0  0  0  0  0  0  0  0  0  0  0  0
    0.1920    2.6370    5.3640 H   0  0  0  0  0  0  0  0  0  0  0  0
   -0.7840    2.8930    3.9070 H   0  0  0  0  0  0  0  0  0  0  0  0
    1.5370    0.9370    4.2820 H   0  0  0  0  0  0  0  0  0  0  0  0
    2.5580    2.7810    3.7690 H   0  0  0  0  0  0  0  0  0  0  0  0
    1.1340    3.5980    3.2830 H   0  0  0  0  0  0  0  0  0  0  0  0
   -2.4450    1.2680    3.2860 H   0  0  0  0  0  0  0  0  0  0  0  0
   -4.0800   -0.3790    4.0430 H   0  0  0  0  0  0  0  0  0  0  0  0
    0.1650    2.2380   -1.3830 O   0  0  0  0  0  0  0  0  0  0  0  0
   -0.5140    1.1420   -0.9080 C   0  0  0  0  0  0  0  0  0  0  0  0
    0.3730    0.3040    0.0220 C   0  0  2  0  0  0  0  0  0  0  0  0
    0.7930    1.1060    1.1480 N   0  0  0  0  0  0  0  0  0  0  0  0
    1.5140   -0.1810   -0.7870 C   0  0  0  0  0  0  0  0  0  0  0  0
    2.7200    0.0910   -0.5200 O   0  0  0  0  0  0  0  0  0  0  0  0
   -0.3590    3.0590   -1.3030 H   0  0  0  0  0  0  0  0  0  0  0  0
   -0.8030    0.4920   -1.7520 H   0  0  0  0  0  0  0  0  0  0  0  0
   -1.4620    1.4110   -0.3890 H   0  0  0  0  0  0  0  0  0  0  0  0
   -0.2290   -0.5670    0.3150 H   0  0  0  0  0  0  0  0  0  0  0  0
    1.3710    1.9570    0.9760 H   0  0  0  0  0  0  0  0  0  0  0  0
    1.2130   -0.9920   -1.9160 N   0  0  0  0  0  0  0  0  0  0  0  0
    2.2240   -1.5310   -2.7900 C   0  0  1  0  0  0  0  0  0  0  0  0
    2.2230   -3.0560   -2.6490 C   0  0  0  0  0  0  0  0  0  0  0  0
    0.9050   -3.6300   -3.0180 C   0  0  0  0  0  0  0  0  0  0  0  0
   -0.0610   -3.7870   -2.0470 C   0  0  0  0  0  0  0  0  0  0  0  0
   -1.2840   -4.3160   -2.3700 C   0  0  0  0  0  0  0  0  0  0  0  0
   -1.5660   -4.7000   -3.6690 C   0  0  0  0  0  0  0  0  0  0  0  0
   -0.5900   -4.5400   -4.6410 C   0  0  0  0  0  0  0  0  0  0  0  0
    0.6400   -4.0080   -4.3170 C   0  0  0  0  0  0  0  0  0  0  0  0
    2.0270   -1.1050   -4.1840 C   0  0  0  0  0  0  0  0  0  0  0  0
    2.8540   -1.5130   -5.0570 O   0  0  0  0  0  0  0  0  0  0  0  0
    1.0050   -0.2910   -4.6190 O   0  0  0  0  0  0  0  0  0  0  0  0
    0.2050   -1.2310   -2.1540 H   0  0  0  0  0  0  0  0  0  0  0  0
    3.2370   -1.2140   -2.4540 H   0  0  0  0  0  0  0  0  0  0  0  0
    3.0080   -3.4660   -3.3140 H   0  0  0  0  0  0  0  0  0  0  0  0
    2.4230   -3.2720   -1.5790 H   0  0  0  0  0  0  0  0  0  0  0  0
    0.1320   -3.4910   -1.0080 H   0  0  0  0  0  0  0  0  0  0  0  0
   -2.0560   -4.4420   -1.5990 H   0  0  0  0  0  0  0  0  0  0  0  0
   -2.5250   -5.1150   -3.9210 H   0  0  0  0  0  0  0  0  0  0  0  0
   -0.7840   -4.8310   -5.6600 H   0  0  0  0  0  0  0  0  0  0  0  0
    1.3630   -3.9050   -5.1070 H   0  0  0  0  0  0  0  0  0  0  0  0
  1 13  1  0  0  0  0
  2  1  1  0  0  0  0
  2  3  1  0  0  0  0
  3 14  1  0  0  0  0
  4  3  2  0  0  0  0
  4 15  1  0  0  0  0
  5  4  1  0  0  0  0
  6  5  1  0  0  0  0
  6 16  1  0  0  0  0
  7 18  1  1  0  0  0
  7  6  1  0  0  0  0
  8 20  1  0  0  0  0
  8  7  1  0  0  0  0
  8 19  1  0  0  0  0
  9 10  2  0  0  0  0
  9  7  1  0  0  0  0
 11 12  1  0  0  0  0
 11  5  2  0  0  0  0
 12  2  2  0  0  0  0
 17  6  1  0  0  0  0
 21 11  1  0  0  0  0
 22 12  1  0  0  0  0
 23 29  1  0  0  0  0
 23 24  1  0  0  0  0
 24 31  1  0  0  0  0
 24 25  1  0  0  0  0
 25 32  1  1  0  0  0
 25 26  1  0  0  0  0
 26  9  1  0  0  0  0
 27 28  2  0  0  0  0
 27 25  1  0  0  0  0
 30 24  1  0  0  0  0
 33 26  1  0  0  0  0
 34 27  1  0  0  0  0
 35 36  1  0  0  0  0
 35 47  1  1  0  0  0
 35 34  1  0  0  0  0
 36 49  1  0  0  0  0
 37 36  1  0  0  0  0
 37 38  1  0  0  0  0
 38 50  1  0  0  0  0
 39 38  2  0  0  0  0
 39 51  1  0  0  0  0
 40 39  1  0  0  0  0
 41 42  1  0  0  0  0
 41 40  2  0  0  0  0
 42 37  2  0  0  0  0
 43 35  1  0  0  0  0
 44 43  2  0  0  0  0
 45 43  1  0  0  0  0
 46 34  1  0  0  0  0
 48 36  1  0  0  0  0
 52 40  1  0  0  0  0
 53 41  1  0  0  0  0
 54 42  1  0  0  0  0
M  END
$$$$
