YSG.pdb
 OpenBabel07022419233D

 41 41  0  0  1  0  0  0  0  0999 V2000
   -3.5950   -0.1160   -3.0700 O   0  0  0  0  0  0  0  0  0  0  0  0
   -2.3110   -0.6010   -2.7650 C   0  0  0  0  0  0  0  0  0  0  0  0
   -2.1290   -1.9360   -2.4720 C   0  0  0  0  0  0  0  0  0  0  0  0
   -0.8630   -2.4010   -2.1740 C   0  0  0  0  0  0  0  0  0  0  0  0
    0.2500   -1.5850   -2.1540 C   0  0  0  0  0  0  0  0  0  0  0  0
    1.5970   -2.1190   -1.8290 C   0  0  0  0  0  0  0  0  0  0  0  0
    1.8640   -2.0390   -0.3430 C   0  0  2  0  0  0  0  0  0  0  0  0
    0.8660   -2.8180    0.3480 N   0  0  0  0  0  0  0  0  0  0  0  0
    1.8060   -0.6480    0.1610 C   0  0  0  0  0  0  0  0  0  0  0  0
    2.5630    0.2650   -0.2650 O   0  0  0  0  0  0  0  0  0  0  0  0
    0.0380   -0.2490   -2.4530 C   0  0  0  0  0  0  0  0  0  0  0  0
   -1.2230    0.2390   -2.7550 C   0  0  0  0  0  0  0  0  0  0  0  0
   -4.4100   -0.6450   -2.7270 H   0  0  0  0  0  0  0  0  0  0  0  0
   -3.0090   -2.5610   -2.4910 H   0  0  0  0  0  0  0  0  0  0  0  0
   -0.7850   -3.4590   -1.9510 H   0  0  0  0  0  0  0  0  0  0  0  0
    1.6110   -3.1940   -2.1030 H   0  0  0  0  0  0  0  0  0  0  0  0
    2.3320   -1.5580   -2.4210 H   0  0  0  0  0  0  0  0  0  0  0  0
    2.8930   -2.4050   -0.1280 H   0  0  0  0  0  0  0  0  0  0  0  0
    1.0250   -2.8300    1.3600 H   0  0  0  0  0  0  0  0  0  0  0  0
   -0.0720   -2.4060    0.1580 H   0  0  0  0  0  0  0  0  0  0  0  0
    0.8890    0.4250   -2.4480 H   0  0  0  0  0  0  0  0  0  0  0  0
   -1.3310    1.3100   -2.9840 H   0  0  0  0  0  0  0  0  0  0  0  0
   -0.4860    3.0280    1.9060 O   0  0  0  0  0  0  0  0  0  0  0  0
   -0.5210    1.7400    1.3760 C   0  0  0  0  0  0  0  0  0  0  0  0
    0.8030    1.0880    1.6780 C   0  0  2  0  0  0  0  0  0  0  0  0
    0.8790   -0.2640    1.1690 N   0  0  0  0  0  0  0  0  0  0  0  0
    1.1420    1.0970    3.1040 C   0  0  0  0  0  0  0  0  0  0  0  0
    1.1270    2.1980    3.7140 O   0  0  0  0  0  0  0  0  0  0  0  0
    0.0150    3.6590    1.3640 H   0  0  0  0  0  0  0  0  0  0  0  0
   -1.3880    1.1650    1.6990 H   0  0  0  0  0  0  0  0  0  0  0  0
   -0.5960    1.8610    0.2670 H   0  0  0  0  0  0  0  0  0  0  0  0
    1.5810    1.6900    1.1310 H   0  0  0  0  0  0  0  0  0  0  0  0
    0.2220   -0.9680    1.5690 H   0  0  0  0  0  0  0  0  0  0  0  0
    1.4900   -0.0550    3.8620 N   0  0  0  0  0  0  0  0  0  0  0  0
    1.8160   -0.0020    5.2640 C   0  0  0  0  0  0  0  0  0  0  0  0
    2.1280   -1.3730    5.7400 C   0  0  0  0  0  0  0  0  0  0  0  0
    2.4470   -1.5800    6.9510 O   0  0  0  0  0  0  0  0  0  0  0  0
    2.0790   -2.4540    4.8740 O   0  0  0  0  0  0  0  0  0  0  0  0
    1.4970   -0.9610    3.3410 H   0  0  0  0  0  0  0  0  0  0  0  0
    2.7090    0.6190    5.4730 H   0  0  0  0  0  0  0  0  0  0  0  0
    0.9890    0.4590    5.8710 H   0  0  0  0  0  0  0  0  0  0  0  0
  1  2  1  0  0  0  0
  1 13  1  0  0  0  0
  2 12  2  0  0  0  0
  2  3  1  0  0  0  0
  3  4  2  0  0  0  0
  4  5  1  0  0  0  0
  4 15  1  0  0  0  0
  5  6  1  0  0  0  0
  6  7  1  0  0  0  0
  7 18  1  1  0  0  0
  7  9  1  0  0  0  0
  7  8  1  0  0  0  0
  8 19  1  0  0  0  0
  9 26  1  0  0  0  0
 10  9  2  0  0  0  0
 11 21  1  0  0  0  0
 11  5  2  0  0  0  0
 12 11  1  0  0  0  0
 14  3  1  0  0  0  0
 16  6  1  0  0  0  0
 17  6  1  0  0  0  0
 20  8  1  0  0  0  0
 22 12  1  0  0  0  0
 24 25  1  0  0  0  0
 24 30  1  0  0  0  0
 24 23  1  0  0  0  0
 25 32  1  6  0  0  0
 25 27  1  0  0  0  0
 26 33  1  0  0  0  0
 26 25  1  0  0  0  0
 27 28  2  0  0  0  0
 27 34  1  0  0  0  0
 29 23  1  0  0  0  0
 31 24  1  0  0  0  0
 34 35  1  0  0  0  0
 35 40  1  0  0  0  0
 35 36  1  0  0  0  0
 35 41  1  0  0  0  0
 36 37  1  0  0  0  0
 38 36  2  0  0  0  0
 39 34  1  0  0  0  0
M  END
$$$$
