YSN.pdb
 OpenBabel07022419233D

 48 48  0  0  1  0  0  0  0  0999 V2000
    1.2180   -5.1300    1.3080 O   0  0  0  0  0  0  0  0  0  0  0  0
    1.7050   -3.9510    0.7680 C   0  0  0  0  0  0  0  0  0  0  0  0
    1.7510   -3.7160   -0.5940 C   0  0  0  0  0  0  0  0  0  0  0  0
    2.2330   -2.5520   -1.1320 C   0  0  0  0  0  0  0  0  0  0  0  0
    2.7000   -1.5460   -0.3450 C   0  0  0  0  0  0  0  0  0  0  0  0
    3.2740   -0.2930   -0.7830 C   0  0  0  0  0  0  0  0  0  0  0  0
    2.4170    0.8700   -1.0620 C   0  0  2  0  0  0  0  0  0  0  0  0
    3.4090    1.9270   -1.4820 N   0  0  0  0  0  0  0  0  0  0  0  0
    1.7340    1.5030    0.0780 C   0  0  0  0  0  0  0  0  0  0  0  0
    2.2810    2.3520    0.8310 O   0  0  0  0  0  0  0  0  0  0  0  0
    2.6650   -1.7520    1.0390 C   0  0  0  0  0  0  0  0  0  0  0  0
    2.1780   -2.9280    1.5630 C   0  0  0  0  0  0  0  0  0  0  0  0
    1.0870   -5.1570    2.3120 H   0  0  0  0  0  0  0  0  0  0  0  0
    1.3710   -4.5400   -1.2150 H   0  0  0  0  0  0  0  0  0  0  0  0
    2.2400   -2.4370   -2.1880 H   0  0  0  0  0  0  0  0  0  0  0  0
    3.8800   -0.5320   -1.7130 H   0  0  0  0  0  0  0  0  0  0  0  0
    4.0850    0.0500   -0.0680 H   0  0  0  0  0  0  0  0  0  0  0  0
    1.7730    0.7750   -1.9710 H   0  0  0  0  0  0  0  0  0  0  0  0
    2.8710    2.7520   -1.8210 H   0  0  0  0  0  0  0  0  0  0  0  0
    3.9530    2.1840   -0.6120 H   0  0  0  0  0  0  0  0  0  0  0  0
    3.0220   -0.9890    1.7370 H   0  0  0  0  0  0  0  0  0  0  0  0
    2.1440   -3.1100    2.6480 H   0  0  0  0  0  0  0  0  0  0  0  0
   -0.4380    3.8830    0.3060 O   0  0  0  0  0  0  0  0  0  0  0  0
   -1.2400    2.9060    0.8900 C   0  0  0  0  0  0  0  0  0  0  0  0
   -0.3640    1.7460    1.4320 C   0  0  2  0  0  0  0  0  0  0  0  0
    0.3760    1.1620    0.3620 N   0  0  0  0  0  0  0  0  0  0  0  0
   -1.3010    0.8160    2.0470 C   0  0  0  0  0  0  0  0  0  0  0  0
   -2.1110    1.1870    2.9700 O   0  0  0  0  0  0  0  0  0  0  0  0
   -0.2360    4.5830    0.9640 H   0  0  0  0  0  0  0  0  0  0  0  0
   -2.0170    2.5160    0.2080 H   0  0  0  0  0  0  0  0  0  0  0  0
   -1.7660    3.3770    1.7460 H   0  0  0  0  0  0  0  0  0  0  0  0
    0.2710    2.2200    2.2100 H   0  0  0  0  0  0  0  0  0  0  0  0
   -0.0730    0.4670   -0.2550 H   0  0  0  0  0  0  0  0  0  0  0  0
   -3.8910   -0.9940   -0.9500 N   0  0  0  0  0  0  0  0  0  0  0  0
   -3.9690   -1.1270    0.4450 C   0  0  0  0  0  0  0  0  0  0  0  0
   -4.7360   -0.3460    1.0880 O   0  0  0  0  0  0  0  0  0  0  0  0
   -3.2100   -2.1180    1.1940 C   0  0  0  0  0  0  0  0  0  0  0  0
   -2.3450   -1.4570    2.2780 C   0  0  2  0  0  0  0  0  0  0  0  0
   -1.3910   -0.5480    1.6780 N   0  0  0  0  0  0  0  0  0  0  0  0
   -1.7420   -2.5380    3.0790 C   0  0  0  0  0  0  0  0  0  0  0  0
   -0.5100   -2.6850    3.2770 O   0  0  0  0  0  0  0  0  0  0  0  0
   -2.5680   -3.4890    3.6790 O   0  0  0  0  0  0  0  0  0  0  0  0
   -3.8290    0.0080   -1.3200 H   0  0  0  0  0  0  0  0  0  0  0  0
   -3.8900   -1.7550   -1.6600 H   0  0  0  0  0  0  0  0  0  0  0  0
   -3.8630   -2.8440    1.7670 H   0  0  0  0  0  0  0  0  0  0  0  0
   -2.5640   -2.7430    0.5480 H   0  0  0  0  0  0  0  0  0  0  0  0
   -3.0260   -0.8270    2.9160 H   0  0  0  0  0  0  0  0  0  0  0  0
   -0.7640   -0.9460    0.9580 H   0  0  0  0  0  0  0  0  0  0  0  0
  1 13  1  0  0  0  0
  2  1  1  0  0  0  0
  2 12  1  0  0  0  0
  3  2  2  0  0  0  0
  4  3  1  0  0  0  0
  4  5  2  0  0  0  0
  5 11  1  0  0  0  0
  6  5  1  0  0  0  0
  6 17  1  0  0  0  0
  7 18  1  6  0  0  0
  7  6  1  0  0  0  0
  7  9  1  0  0  0  0
  8  7  1  0  0  0  0
  8 20  1  0  0  0  0
  9 26  1  0  0  0  0
  9 10  2  0  0  0  0
 11 12  2  0  0  0  0
 11 21  1  0  0  0  0
 12 22  1  0  0  0  0
 14  3  1  0  0  0  0
 15  4  1  0  0  0  0
 16  6  1  0  0  0  0
 19  8  1  0  0  0  0
 23 24  1  0  0  0  0
 23 29  1  0  0  0  0
 24 25  1  0  0  0  0
 24 31  1  0  0  0  0
 25 27  1  0  0  0  0
 25 32  1  1  0  0  0
 26 25  1  0  0  0  0
 27 28  2  0  0  0  0
 30 24  1  0  0  0  0
 33 26  1  0  0  0  0
 34 35  1  0  0  0  0
 35 36  2  0  0  0  0
 35 37  1  0  0  0  0
 37 45  1  0  0  0  0
 37 38  1  0  0  0  0
 38 47  1  1  0  0  0
 38 40  1  0  0  0  0
 39 27  1  0  0  0  0
 39 38  1  0  0  0  0
 40 41  2  0  0  0  0
 40 42  1  0  0  0  0
 43 34  1  0  0  0  0
 44 34  1  0  0  0  0
 46 37  1  0  0  0  0
 48 39  1  0  0  0  0
M  END
$$$$
