YSS.pdb
 OpenBabel07022419233D

 45 45  0  0  1  0  0  0  0  0999 V2000
    3.0120   -4.6600    0.0620 O   0  0  0  0  0  0  0  0  0  0  0  0
    3.1620   -3.2650    0.0870 C   0  0  0  0  0  0  0  0  0  0  0  0
    3.7710   -2.5980   -0.9540 C   0  0  0  0  0  0  0  0  0  0  0  0
    3.9250   -1.2280   -0.9420 C   0  0  0  0  0  0  0  0  0  0  0  0
    3.4690   -0.4600    0.1300 C   0  0  0  0  0  0  0  0  0  0  0  0
    3.6880    0.9920    0.0930 C   0  0  0  0  0  0  0  0  0  0  0  0
    2.6570    1.7990   -0.6150 C   0  0  2  0  0  0  0  0  0  0  0  0
    3.0310    3.2360   -0.5610 N   0  0  0  0  0  0  0  0  0  0  0  0
    1.2830    1.7050   -0.1320 C   0  0  0  0  0  0  0  0  0  0  0  0
    0.7370    2.7080    0.4490 O   0  0  0  0  0  0  0  0  0  0  0  0
    2.8630   -1.1460    1.1590 C   0  0  0  0  0  0  0  0  0  0  0  0
    2.7070   -2.5150    1.1510 C   0  0  0  0  0  0  0  0  0  0  0  0
    2.6880   -5.1780    0.8560 H   0  0  0  0  0  0  0  0  0  0  0  0
    4.1340   -3.1580   -1.7940 H   0  0  0  0  0  0  0  0  0  0  0  0
    4.4070   -0.7160   -1.7690 H   0  0  0  0  0  0  0  0  0  0  0  0
    3.9150    1.3850    1.1150 H   0  0  0  0  0  0  0  0  0  0  0  0
    4.6630    1.1480   -0.4610 H   0  0  0  0  0  0  0  0  0  0  0  0
    2.7390    1.5380   -1.7110 H   0  0  0  0  0  0  0  0  0  0  0  0
    2.8620    3.6890   -1.4940 H   0  0  0  0  0  0  0  0  0  0  0  0
    2.3950    3.7440    0.1030 H   0  0  0  0  0  0  0  0  0  0  0  0
    2.4990   -0.5860    2.0030 H   0  0  0  0  0  0  0  0  0  0  0  0
    2.2250   -3.0530    1.9730 H   0  0  0  0  0  0  0  0  0  0  0  0
   -1.6830    1.5690   -1.7370 O   0  0  0  0  0  0  0  0  0  0  0  0
   -1.8710    0.4200   -0.9360 C   0  0  0  0  0  0  0  0  0  0  0  0
   -0.8950    0.4980    0.2190 C   0  0  2  0  0  0  0  0  0  0  0  0
    0.4840    0.5400   -0.2720 N   0  0  0  0  0  0  0  0  0  0  0  0
   -1.1430   -0.5630    1.1950 C   0  0  0  0  0  0  0  0  0  0  0  0
   -0.3010   -1.3990    1.6090 O   0  0  0  0  0  0  0  0  0  0  0  0
   -2.1320    2.3630   -1.3050 H   0  0  0  0  0  0  0  0  0  0  0  0
   -1.6990   -0.4400   -1.5860 H   0  0  0  0  0  0  0  0  0  0  0  0
   -2.8880    0.4540   -0.4930 H   0  0  0  0  0  0  0  0  0  0  0  0
   -1.0830    1.4850    0.6950 H   0  0  0  0  0  0  0  0  0  0  0  0
    0.9210   -0.2790   -0.7460 H   0  0  0  0  0  0  0  0  0  0  0  0
   -4.2930   -0.4400    3.9440 O   0  0  0  0  0  0  0  0  0  0  0  0
   -3.1610   -1.2090    4.0840 C   0  0  0  0  0  0  0  0  0  0  0  0
   -2.7460   -1.7470    2.7360 C   0  0  2  0  0  0  0  0  0  0  0  0
   -2.4540   -0.7290    1.7810 N   0  0  0  0  0  0  0  0  0  0  0  0
   -3.8060   -2.6810    2.2880 C   0  0  0  0  0  0  0  0  0  0  0  0
   -4.1100   -3.6130    3.0980 O   0  0  0  0  0  0  0  0  0  0  0  0
   -4.4220   -2.5360    1.0560 O   0  0  0  0  0  0  0  0  0  0  0  0
   -4.5070   -0.0020    4.8210 H   0  0  0  0  0  0  0  0  0  0  0  0
   -3.4430   -2.1000    4.7040 H   0  0  0  0  0  0  0  0  0  0  0  0
   -2.3310   -0.7110    4.6160 H   0  0  0  0  0  0  0  0  0  0  0  0
   -1.8180   -2.3390    2.9070 H   0  0  0  0  0  0  0  0  0  0  0  0
   -3.1890   -0.0640    1.4750 H   0  0  0  0  0  0  0  0  0  0  0  0
  1  2  1  0  0  0  0
  1 13  1  0  0  0  0
  2 12  1  0  0  0  0
  3  4  1  0  0  0  0
  3  2  2  0  0  0  0
  4  5  2  0  0  0  0
  5 11  1  0  0  0  0
  6  5  1  0  0  0  0
  6 16  1  0  0  0  0
  7 18  1  6  0  0  0
  7  8  1  0  0  0  0
  7  9  1  0  0  0  0
  7  6  1  0  0  0  0
  8 20  1  0  0  0  0
  9 10  2  0  0  0  0
 11 21  1  0  0  0  0
 12 11  2  0  0  0  0
 12 22  1  0  0  0  0
 14  3  1  0  0  0  0
 15  4  1  0  0  0  0
 17  6  1  0  0  0  0
 19  8  1  0  0  0  0
 23 29  1  0  0  0  0
 23 24  1  0  0  0  0
 24 31  1  0  0  0  0
 24 25  1  0  0  0  0
 25 32  1  1  0  0  0
 25 27  1  0  0  0  0
 26  9  1  0  0  0  0
 26 25  1  0  0  0  0
 27 28  2  0  0  0  0
 27 37  1  0  0  0  0
 30 24  1  0  0  0  0
 33 26  1  0  0  0  0
 34 35  1  0  0  0  0
 34 41  1  0  0  0  0
 35 43  1  0  0  0  0
 35 42  1  0  0  0  0
 36 44  1  1  0  0  0
 36 35  1  0  0  0  0
 37 36  1  0  0  0  0
 38 36  1  0  0  0  0
 38 39  1  0  0  0  0
 40 38  2  0  0  0  0
 45 37  1  0  0  0  0
M  END
$$$$
