YST.pdb
 OpenBabel07022419233D

 48 48  0  0  1  0  0  0  0  0999 V2000
    6.3550   -1.7440    3.7940 O   0  0  0  0  0  0  0  0  0  0  0  0
    5.5430   -1.2750    2.7470 C   0  0  0  0  0  0  0  0  0  0  0  0
    4.6940   -0.2030    2.9300 C   0  0  0  0  0  0  0  0  0  0  0  0
    3.9370    0.1850    1.8460 C   0  0  0  0  0  0  0  0  0  0  0  0
    3.9990   -0.4470    0.6160 C   0  0  0  0  0  0  0  0  0  0  0  0
    3.1620    0.0120   -0.5030 C   0  0  0  0  0  0  0  0  0  0  0  0
    1.8350   -0.6920   -0.6160 C   0  0  2  0  0  0  0  0  0  0  0  0
    1.1310   -0.1310   -1.7560 N   0  0  0  0  0  0  0  0  0  0  0  0
    1.0780   -0.5410    0.6320 C   0  0  0  0  0  0  0  0  0  0  0  0
    1.4870   -1.0280    1.7160 O   0  0  0  0  0  0  0  0  0  0  0  0
    4.8670   -1.5240    0.4740 C   0  0  0  0  0  0  0  0  0  0  0  0
    5.6340   -1.9330    1.5360 C   0  0  0  0  0  0  0  0  0  0  0  0
    6.4090   -2.7510    3.9850 H   0  0  0  0  0  0  0  0  0  0  0  0
    4.6390    0.3020    3.8970 H   0  0  0  0  0  0  0  0  0  0  0  0
    3.2680    1.0310    1.9800 H   0  0  0  0  0  0  0  0  0  0  0  0
    3.7540   -0.0950   -1.4480 H   0  0  0  0  0  0  0  0  0  0  0  0
    2.9820    1.1110   -0.3340 H   0  0  0  0  0  0  0  0  0  0  0  0
    2.0590   -1.7800   -0.7750 H   0  0  0  0  0  0  0  0  0  0  0  0
    1.6030    0.7250   -2.1160 H   0  0  0  0  0  0  0  0  0  0  0  0
    0.9510   -0.8480   -2.4980 H   0  0  0  0  0  0  0  0  0  0  0  0
    4.9190   -2.0290   -0.5030 H   0  0  0  0  0  0  0  0  0  0  0  0
    6.3230   -2.7830    1.4320 H   0  0  0  0  0  0  0  0  0  0  0  0
    0.2720    2.3180    2.5050 O   0  0  0  0  0  0  0  0  0  0  0  0
   -1.0180    1.7790    2.3330 C   0  0  0  0  0  0  0  0  0  0  0  0
   -0.8980    0.3050    1.9190 C   0  0  2  0  0  0  0  0  0  0  0  0
   -0.1750    0.1700    0.6920 N   0  0  0  0  0  0  0  0  0  0  0  0
   -2.2660   -0.2580    1.8520 C   0  0  0  0  0  0  0  0  0  0  0  0
   -2.9840   -0.1880    2.8820 O   0  0  0  0  0  0  0  0  0  0  0  0
    0.5750    2.8230    1.7320 H   0  0  0  0  0  0  0  0  0  0  0  0
   -1.6230    2.3560    1.6220 H   0  0  0  0  0  0  0  0  0  0  0  0
   -1.5040    1.8580    3.3270 H   0  0  0  0  0  0  0  0  0  0  0  0
   -0.3720   -0.1930    2.7600 H   0  0  0  0  0  0  0  0  0  0  0  0
   -0.5090    0.5690   -0.2020 H   0  0  0  0  0  0  0  0  0  0  0  0
   -4.4620   -0.6590   -1.7340 C   0  0  0  0  0  0  0  0  0  0  0  0
   -5.0300   -0.6910   -0.3410 C   0  0  1  0  0  0  0  0  0  0  0  0
   -6.2840   -1.3020   -0.3090 O   0  0  0  0  0  0  0  0  0  0  0  0
   -4.1510   -1.4200    0.6340 C   0  0  2  0  0  0  0  0  0  0  0  0
   -2.8100   -0.8710    0.6910 N   0  0  0  0  0  0  0  0  0  0  0  0
   -4.1390   -2.8790    0.4290 C   0  0  0  0  0  0  0  0  0  0  0  0
   -5.2460   -3.4690    0.3630 O   0  0  0  0  0  0  0  0  0  0  0  0
   -3.0050   -3.6630    0.3010 O   0  0  0  0  0  0  0  0  0  0  0  0
   -4.8680   -1.5720   -2.2610 H   0  0  0  0  0  0  0  0  0  0  0  0
   -3.3750   -0.6230   -1.7730 H   0  0  0  0  0  0  0  0  0  0  0  0
   -4.8540    0.2030   -2.3130 H   0  0  0  0  0  0  0  0  0  0  0  0
   -5.1510    0.3370    0.0110 H   0  0  0  0  0  0  0  0  0  0  0  0
   -6.4560   -1.8430   -1.1150 H   0  0  0  0  0  0  0  0  0  0  0  0
   -4.5950   -1.2460    1.6520 H   0  0  0  0  0  0  0  0  0  0  0  0
   -2.1610   -0.9030   -0.1490 H   0  0  0  0  0  0  0  0  0  0  0  0
  1 13  1  0  0  0  0
  2  3  1  0  0  0  0
  2  1  1  0  0  0  0
  3 14  1  0  0  0  0
  4 15  1  0  0  0  0
  4  3  2  0  0  0  0
  5  4  1  0  0  0  0
  6 17  1  0  0  0  0
  6  5  1  0  0  0  0
  7 18  1  6  0  0  0
  7  6  1  0  0  0  0
  7  9  1  0  0  0  0
  8  7  1  0  0  0  0
  9 26  1  0  0  0  0
  9 10  2  0  0  0  0
 11  5  2  0  0  0  0
 11 12  1  0  0  0  0
 12  2  2  0  0  0  0
 16  6  1  0  0  0  0
 19  8  1  0  0  0  0
 20  8  1  0  0  0  0
 21 11  1  0  0  0  0
 22 12  1  0  0  0  0
 24 23  1  0  0  0  0
 24 31  1  0  0  0  0
 25 24  1  0  0  0  0
 25 32  1  1  0  0  0
 26 25  1  0  0  0  0
 27 25  1  0  0  0  0
 27 28  2  0  0  0  0
 29 23  1  0  0  0  0
 30 24  1  0  0  0  0
 33 26  1  0  0  0  0
 34 35  1  0  0  0  0
 35 36  1  0  0  0  0
 35 45  1  1  0  0  0
 35 37  1  0  0  0  0
 37 38  1  0  0  0  0
 37 47  1  1  0  0  0
 38 27  1  0  0  0  0
 39 37  1  0  0  0  0
 40 39  1  0  0  0  0
 41 39  2  0  0  0  0
 42 34  1  0  0  0  0
 43 34  1  0  0  0  0
 44 34  1  0  0  0  0
 46 36  1  0  0  0  0
 48 38  1  0  0  0  0
M  END
$$$$
