YSV.pdb
 OpenBabel07022419233D

 50 50  0  0  1  0  0  0  0  0999 V2000
    6.3780   -3.0890    3.4020 O   0  0  0  0  0  0  0  0  0  0  0  0
    5.6520   -2.2710    2.5270 C   0  0  0  0  0  0  0  0  0  0  0  0
    4.8880   -1.2230    2.9950 C   0  0  0  0  0  0  0  0  0  0  0  0
    4.1640   -0.4020    2.1580 C   0  0  0  0  0  0  0  0  0  0  0  0
    4.2210   -0.6550    0.8030 C   0  0  0  0  0  0  0  0  0  0  0  0
    3.4430    0.2270   -0.1040 C   0  0  0  0  0  0  0  0  0  0  0  0
    2.0540   -0.2400   -0.3760 C   0  0  2  0  0  0  0  0  0  0  0  0
    1.4380    0.7210   -1.2660 N   0  0  0  0  0  0  0  0  0  0  0  0
    1.2400   -0.5430    0.7990 C   0  0  0  0  0  0  0  0  0  0  0  0
    1.6350   -1.3700    1.6570 O   0  0  0  0  0  0  0  0  0  0  0  0
    4.9860   -1.7090    0.2880 C   0  0  0  0  0  0  0  0  0  0  0  0
    5.6950   -2.5070    1.1610 C   0  0  0  0  0  0  0  0  0  0  0  0
    6.1610   -4.0770    3.3980 H   0  0  0  0  0  0  0  0  0  0  0  0
    4.8370   -1.0140    4.0740 H   0  0  0  0  0  0  0  0  0  0  0  0
    3.5610    0.4270    2.5490 H   0  0  0  0  0  0  0  0  0  0  0  0
    3.9500    0.3380   -1.0930 H   0  0  0  0  0  0  0  0  0  0  0  0
    3.3920    1.2380    0.3710 H   0  0  0  0  0  0  0  0  0  0  0  0
    2.1400   -1.1940   -0.9740 H   0  0  0  0  0  0  0  0  0  0  0  0
    2.1080    1.1780   -1.8930 H   0  0  0  0  0  0  0  0  0  0  0  0
    0.5550    0.4110   -1.6780 H   0  0  0  0  0  0  0  0  0  0  0  0
    5.0070   -1.8790   -0.7880 H   0  0  0  0  0  0  0  0  0  0  0  0
    6.2980   -3.3310    0.8120 H   0  0  0  0  0  0  0  0  0  0  0  0
   -1.5980    2.0450    2.3890 O   0  0  0  0  0  0  0  0  0  0  0  0
   -0.9870    1.0240    3.0720 C   0  0  0  0  0  0  0  0  0  0  0  0
   -0.8330   -0.2390    2.2140 C   0  0  2  0  0  0  0  0  0  0  0  0
   -0.0350    0.0630    1.0560 N   0  0  0  0  0  0  0  0  0  0  0  0
   -2.1690   -0.7710    1.8620 C   0  0  0  0  0  0  0  0  0  0  0  0
   -2.9680   -1.0760    2.7750 O   0  0  0  0  0  0  0  0  0  0  0  0
   -0.9680    2.7010    1.9970 H   0  0  0  0  0  0  0  0  0  0  0  0
   -1.4960    0.7320    4.0100 H   0  0  0  0  0  0  0  0  0  0  0  0
    0.0470    1.3320    3.3540 H   0  0  0  0  0  0  0  0  0  0  0  0
   -0.3560   -0.9860    2.8810 H   0  0  0  0  0  0  0  0  0  0  0  0
   -0.3830    0.7470    0.3650 H   0  0  0  0  0  0  0  0  0  0  0  0
   -3.5410   -0.1430   -1.9440 C   0  0  0  0  0  0  0  0  0  0  0  0
   -4.4730   -0.3720   -0.7720 C   0  0  0  0  0  0  0  0  0  0  0  0
   -4.6000    0.8620    0.0910 C   0  0  0  0  0  0  0  0  0  0  0  0
   -3.8340   -1.4510    0.0980 C   0  0  2  0  0  0  0  0  0  0  0  0
   -2.5480   -0.9370    0.5190 N   0  0  0  0  0  0  0  0  0  0  0  0
   -3.6200   -2.7040   -0.6570 C   0  0  0  0  0  0  0  0  0  0  0  0
   -2.4680   -3.1520   -0.8400 O   0  0  0  0  0  0  0  0  0  0  0  0
   -4.6790   -3.4300   -1.1920 O   0  0  0  0  0  0  0  0  0  0  0  0
   -2.7850   -0.9470   -2.0470 H   0  0  0  0  0  0  0  0  0  0  0  0
   -4.1480   -0.1260   -2.8830 H   0  0  0  0  0  0  0  0  0  0  0  0
   -2.9910    0.8120   -1.8070 H   0  0  0  0  0  0  0  0  0  0  0  0
   -5.4610   -0.7220   -1.1360 H   0  0  0  0  0  0  0  0  0  0  0  0
   -4.8100    0.5050    1.1370 H   0  0  0  0  0  0  0  0  0  0  0  0
   -5.3980    1.5410   -0.2580 H   0  0  0  0  0  0  0  0  0  0  0  0
   -3.6010    1.3320    0.1380 H   0  0  0  0  0  0  0  0  0  0  0  0
   -4.4640   -1.6900    0.9720 H   0  0  0  0  0  0  0  0  0  0  0  0
   -1.8480   -0.6690   -0.2150 H   0  0  0  0  0  0  0  0  0  0  0  0
  2  3  1  0  0  0  0
  2  1  1  0  0  0  0
  3 14  1  0  0  0  0
  4 15  1  0  0  0  0
  4  3  2  0  0  0  0
  5  4  1  0  0  0  0
  6 17  1  0  0  0  0
  6  5  1  0  0  0  0
  7 18  1  6  0  0  0
  7  6  1  0  0  0  0
  7  9  1  0  0  0  0
  8  7  1  0  0  0  0
  9 26  1  0  0  0  0
  9 10  2  0  0  0  0
 11  5  2  0  0  0  0
 11 12  1  0  0  0  0
 12  2  2  0  0  0  0
 13  1  1  0  0  0  0
 16  6  1  0  0  0  0
 19  8  1  0  0  0  0
 20  8  1  0  0  0  0
 21 11  1  0  0  0  0
 22 12  1  0  0  0  0
 23 24  1  0  0  0  0
 24 31  1  0  0  0  0
 24 30  1  0  0  0  0
 25 32  1  1  0  0  0
 25 24  1  0  0  0  0
 26 25  1  0  0  0  0
 27 25  1  0  0  0  0
 27 28  2  0  0  0  0
 29 23  1  0  0  0  0
 33 26  1  0  0  0  0
 34 44  1  0  0  0  0
 34 35  1  0  0  0  0
 35 36  1  0  0  0  0
 35 37  1  0  0  0  0
 36 48  1  0  0  0  0
 36 46  1  0  0  0  0
 37 38  1  0  0  0  0
 37 49  1  1  0  0  0
 38 27  1  0  0  0  0
 39 37  1  0  0  0  0
 40 39  1  0  0  0  0
 41 39  2  0  0  0  0
 42 34  1  0  0  0  0
 43 34  1  0  0  0  0
 45 35  1  0  0  0  0
 47 36  1  0  0  0  0
 50 38  1  0  0  0  0
M  END
$$$$
