YSW.pdb
 OpenBabel07022419233D

 58 60  0  0  1  0  0  0  0  0999 V2000
    5.4230    2.9360    5.4630 O   0  0  0  0  0  0  0  0  0  0  0  0
    4.6780    3.1510    4.3150 C   0  0  0  0  0  0  0  0  0  0  0  0
    5.3030    3.0010    3.0850 C   0  0  0  0  0  0  0  0  0  0  0  0
    4.5990    3.2050    1.9240 C   0  0  0  0  0  0  0  0  0  0  0  0
    3.2670    3.5610    1.9040 C   0  0  0  0  0  0  0  0  0  0  0  0
    2.5670    3.7800    0.6420 C   0  0  0  0  0  0  0  0  0  0  0  0
    1.9560    2.5680    0.0120 C   0  0  2  0  0  0  0  0  0  0  0  0
    1.2810    2.8840   -1.2290 N   0  0  0  0  0  0  0  0  0  0  0  0
    1.1110    1.7960    0.9500 C   0  0  0  0  0  0  0  0  0  0  0  0
    1.6540    1.4430    2.0360 O   0  0  0  0  0  0  0  0  0  0  0  0
    2.6660    3.7050    3.1570 C   0  0  0  0  0  0  0  0  0  0  0  0
    3.3510    3.5050    4.3240 C   0  0  0  0  0  0  0  0  0  0  0  0
    5.4960    2.0080    5.8930 H   0  0  0  0  0  0  0  0  0  0  0  0
    6.3590    2.7200    3.0670 H   0  0  0  0  0  0  0  0  0  0  0  0
    5.1460    3.0700    0.9760 H   0  0  0  0  0  0  0  0  0  0  0  0
    3.3150    4.2060   -0.0920 H   0  0  0  0  0  0  0  0  0  0  0  0
    1.8210    4.6090    0.7540 H   0  0  0  0  0  0  0  0  0  0  0  0
    2.7990    1.8640   -0.2680 H   0  0  0  0  0  0  0  0  0  0  0  0
    1.6500    3.7150   -1.7070 H   0  0  0  0  0  0  0  0  0  0  0  0
    1.3260    2.0410   -1.8380 H   0  0  0  0  0  0  0  0  0  0  0  0
    1.6160    3.9850    3.1440 H   0  0  0  0  0  0  0  0  0  0  0  0
    2.8530    3.6250    5.2680 H   0  0  0  0  0  0  0  0  0  0  0  0
   -3.1690    1.5450    1.1540 O   0  0  0  0  0  0  0  0  0  0  0  0
   -2.2330    1.3340    2.1320 C   0  0  0  0  0  0  0  0  0  0  0  0
   -0.9600    0.6970    1.6680 C   0  0  2  0  0  0  0  0  0  0  0  0
   -0.2540    1.4490    0.6730 N   0  0  0  0  0  0  0  0  0  0  0  0
   -1.1950   -0.7210    1.2060 C   0  0  0  0  0  0  0  0  0  0  0  0
   -1.7830   -1.5510    1.9450 O   0  0  0  0  0  0  0  0  0  0  0  0
   -2.9560    1.2010    0.2720 H   0  0  0  0  0  0  0  0  0  0  0  0
   -2.0050    2.2860    2.6350 H   0  0  0  0  0  0  0  0  0  0  0  0
   -2.6820    0.6700    2.9040 H   0  0  0  0  0  0  0  0  0  0  0  0
   -0.3040    0.5930    2.5540 H   0  0  0  0  0  0  0  0  0  0  0  0
   -0.6270    1.7710   -0.2300 H   0  0  0  0  0  0  0  0  0  0  0  0
   -0.7670   -1.1840   -0.0750 N   0  0  0  0  0  0  0  0  0  0  0  0
   -0.9920   -2.5540   -0.5080 C   0  0  1  0  0  0  0  0  0  0  0  0
   -1.9810   -2.6490   -1.6420 C   0  0  0  0  0  0  0  0  0  0  0  0
   -2.1250   -4.0860   -1.9950 C   0  0  0  0  0  0  0  0  0  0  0  0
   -1.5740   -4.7090   -3.1020 C   0  0  0  0  0  0  0  0  0  0  0  0
   -1.9050   -6.0090   -3.1070 N   0  0  0  0  0  0  0  0  0  0  0  0
   -2.6650   -6.2900   -2.0370 C   0  0  0  0  0  0  0  0  0  0  0  0
   -3.2680   -7.4380   -1.5590 C   0  0  0  0  0  0  0  0  0  0  0  0
   -4.0120   -7.4250   -0.3970 C   0  0  0  0  0  0  0  0  0  0  0  0
   -4.1400   -6.2280    0.2810 C   0  0  0  0  0  0  0  0  0  0  0  0
   -3.5530   -5.0820   -0.1720 C   0  0  0  0  0  0  0  0  0  0  0  0
   -2.8080   -5.0890   -1.3340 C   0  0  0  0  0  0  0  0  0  0  0  0
    0.2980   -3.1710   -0.8410 C   0  0  0  0  0  0  0  0  0  0  0  0
    1.3800   -2.4970   -0.7420 O   0  0  0  0  0  0  0  0  0  0  0  0
    0.4640   -4.4750   -1.2710 O   0  0  0  0  0  0  0  0  0  0  0  0
   -0.2810   -0.5020   -0.6980 H   0  0  0  0  0  0  0  0  0  0  0  0
   -1.4660   -3.1390    0.3360 H   0  0  0  0  0  0  0  0  0  0  0  0
   -2.9800   -2.3470   -1.2360 H   0  0  0  0  0  0  0  0  0  0  0  0
   -1.7240   -2.0740   -2.5310 H   0  0  0  0  0  0  0  0  0  0  0  0
   -0.9660   -4.2140   -3.8520 H   0  0  0  0  0  0  0  0  0  0  0  0
   -1.6060   -6.6860   -3.8440 H   0  0  0  0  0  0  0  0  0  0  0  0
   -3.1700   -8.3820   -2.0840 H   0  0  0  0  0  0  0  0  0  0  0  0
   -4.4850   -8.3290   -0.0220 H   0  0  0  0  0  0  0  0  0  0  0  0
   -4.7280   -6.2320    1.1940 H   0  0  0  0  0  0  0  0  0  0  0  0
   -3.6470   -4.1250    0.3560 H   0  0  0  0  0  0  0  0  0  0  0  0
  1 13  1  0  0  0  0
  2 12  1  0  0  0  0
  2  1  1  0  0  0  0
  3  2  2  0  0  0  0
  4  3  1  0  0  0  0
  5  4  2  0  0  0  0
  5 11  1  0  0  0  0
  6 17  1  0  0  0  0
  6  5  1  0  0  0  0
  7 18  1  6  0  0  0
  7  6  1  0  0  0  0
  7  9  1  0  0  0  0
  8  7  1  0  0  0  0
  9 10  2  0  0  0  0
 11 12  2  0  0  0  0
 12 22  1  0  0  0  0
 14  3  1  0  0  0  0
 15  4  1  0  0  0  0
 16  6  1  0  0  0  0
 19  8  1  0  0  0  0
 20  8  1  0  0  0  0
 21 11  1  0  0  0  0
 23 24  1  0  0  0  0
 24 30  1  0  0  0  0
 24 31  1  0  0  0  0
 25 24  1  0  0  0  0
 25 32  1  1  0  0  0
 26  9  1  0  0  0  0
 26 25  1  0  0  0  0
 27 25  1  0  0  0  0
 27 28  2  0  0  0  0
 29 23  1  0  0  0  0
 33 26  1  0  0  0  0
 34 27  1  0  0  0  0
 35 34  1  0  0  0  0
 35 50  1  1  0  0  0
 36 51  1  0  0  0  0
 36 35  1  0  0  0  0
 37 36  1  0  0  0  0
 37 45  1  0  0  0  0
 38 37  2  0  0  0  0
 39 38  1  0  0  0  0
 39 40  1  0  0  0  0
 40 41  2  0  0  0  0
 40 45  1  0  0  0  0
 41 42  1  0  0  0  0
 42 56  1  0  0  0  0
 42 43  2  0  0  0  0
 43 57  1  0  0  0  0
 44 43  1  0  0  0  0
 44 58  1  0  0  0  0
 45 44  2  0  0  0  0
 46 47  1  0  0  0  0
 46 35  1  0  0  0  0
 48 46  2  0  0  0  0
 49 34  1  0  0  0  0
 52 36  1  0  0  0  0
 53 38  1  0  0  0  0
 54 39  1  0  0  0  0
 55 41  1  0  0  0  0
M  END
$$$$
