YSY.pdb
 OpenBabel07022419233D

 55 56  0  0  1  0  0  0  0  0999 V2000
   -1.5700   -0.9440    5.7400 O   0  0  0  0  0  0  0  0  0  0  0  0
   -0.4380   -0.7090    4.9650 C   0  0  0  0  0  0  0  0  0  0  0  0
   -0.3750   -1.2250    3.6890 C   0  0  0  0  0  0  0  0  0  0  0  0
    0.7330   -0.9940    2.9320 C   0  0  0  0  0  0  0  0  0  0  0  0
    1.7930   -0.2640    3.3970 C   0  0  0  0  0  0  0  0  0  0  0  0
    3.0040   -0.0100    2.5720 C   0  0  0  0  0  0  0  0  0  0  0  0
    2.9520    1.2280    1.7600 C   0  0  2  0  0  0  0  0  0  0  0  0
    2.7780    2.4270    2.5760 N   0  0  0  0  0  0  0  0  0  0  0  0
    1.9560    1.2860    0.6900 C   0  0  0  0  0  0  0  0  0  0  0  0
    1.0760    2.1720    0.6520 O   0  0  0  0  0  0  0  0  0  0  0  0
    1.7500    0.2590    4.6660 C   0  0  0  0  0  0  0  0  0  0  0  0
    0.6360    0.0340    5.4430 C   0  0  0  0  0  0  0  0  0  0  0  0
   -2.5170   -0.9150    5.3680 H   0  0  0  0  0  0  0  0  0  0  0  0
   -1.2350   -1.8100    3.3310 H   0  0  0  0  0  0  0  0  0  0  0  0
    0.7260   -1.4310    1.9260 H   0  0  0  0  0  0  0  0  0  0  0  0
    3.8770    0.0580    3.2470 H   0  0  0  0  0  0  0  0  0  0  0  0
    3.1760   -0.8670    1.9030 H   0  0  0  0  0  0  0  0  0  0  0  0
    3.9820    1.3690    1.3060 H   0  0  0  0  0  0  0  0  0  0  0  0
    1.7820    2.5010    2.8630 H   0  0  0  0  0  0  0  0  0  0  0  0
    3.4650    2.5160    3.3260 H   0  0  0  0  0  0  0  0  0  0  0  0
    2.5890    0.8540    5.0740 H   0  0  0  0  0  0  0  0  0  0  0  0
    0.5980    0.4430    6.4400 H   0  0  0  0  0  0  0  0  0  0  0  0
    2.6700   -0.2810   -3.0210 O   0  0  0  0  0  0  0  0  0  0  0  0
    1.6760    0.6340   -2.7650 C   0  0  0  0  0  0  0  0  0  0  0  0
    1.0410    0.3020   -1.4430 C   0  0  2  0  0  0  0  0  0  0  0  0
    1.9640    0.3360   -0.3410 N   0  0  0  0  0  0  0  0  0  0  0  0
    0.4520   -1.0320   -1.5430 C   0  0  0  0  0  0  0  0  0  0  0  0
    0.7920   -1.9200   -0.7470 O   0  0  0  0  0  0  0  0  0  0  0  0
    3.1130   -0.0530   -3.8690 H   0  0  0  0  0  0  0  0  0  0  0  0
    2.0070    1.6880   -2.8320 H   0  0  0  0  0  0  0  0  0  0  0  0
    0.8920    0.5100   -3.5400 H   0  0  0  0  0  0  0  0  0  0  0  0
    0.2960    1.1210   -1.2540 H   0  0  0  0  0  0  0  0  0  0  0  0
    2.7010   -0.4010   -0.2980 H   0  0  0  0  0  0  0  0  0  0  0  0
   -3.5970   -0.5430    2.7290 O   0  0  0  0  0  0  0  0  0  0  0  0
   -3.3520   -0.9860    1.4350 C   0  0  0  0  0  0  0  0  0  0  0  0
   -3.3030   -2.3210    1.1640 C   0  0  0  0  0  0  0  0  0  0  0  0
   -3.0600   -2.7580   -0.1200 C   0  0  0  0  0  0  0  0  0  0  0  0
   -2.8570   -1.8950   -1.1780 C   0  0  0  0  0  0  0  0  0  0  0  0
   -2.6020   -2.4230   -2.5430 C   0  0  0  0  0  0  0  0  0  0  0  0
   -1.1330   -2.5940   -2.7170 C   0  0  2  0  0  0  0  0  0  0  0  0
   -0.5020   -1.3070   -2.5470 N   0  0  0  0  0  0  0  0  0  0  0  0
   -0.7210   -3.1950   -3.9790 C   0  0  0  0  0  0  0  0  0  0  0  0
    0.0760   -2.5640   -4.7150 O   0  0  0  0  0  0  0  0  0  0  0  0
   -2.9080   -0.5510   -0.8930 C   0  0  0  0  0  0  0  0  0  0  0  0
   -3.1510   -0.1030    0.3890 C   0  0  0  0  0  0  0  0  0  0  0  0
   -1.1520   -4.4330   -4.4360 O   0  0  0  0  0  0  0  0  0  0  0  0
   -4.4990   -0.2490    3.0700 H   0  0  0  0  0  0  0  0  0  0  0  0
   -3.4550   -3.0650    1.9530 H   0  0  0  0  0  0  0  0  0  0  0  0
   -3.0270   -3.8220   -0.3040 H   0  0  0  0  0  0  0  0  0  0  0  0
   -3.0620   -3.4540   -2.5880 H   0  0  0  0  0  0  0  0  0  0  0  0
   -3.0930   -1.8450   -3.3370 H   0  0  0  0  0  0  0  0  0  0  0  0
   -0.7690   -3.2780   -1.9030 H   0  0  0  0  0  0  0  0  0  0  0  0
   -0.8090   -0.5600   -3.2410 H   0  0  0  0  0  0  0  0  0  0  0  0
   -2.7590    0.1700   -1.6720 H   0  0  0  0  0  0  0  0  0  0  0  0
   -3.1930    0.9510    0.6220 H   0  0  0  0  0  0  0  0  0  0  0  0
  2 12  1  0  0  0  0
  2  1  1  0  0  0  0
  3  2  2  0  0  0  0
  4  5  2  0  0  0  0
  4  3  1  0  0  0  0
  5 11  1  0  0  0  0
  6 16  1  0  0  0  0
  6  5  1  0  0  0  0
  7 18  1  6  0  0  0
  7  6  1  0  0  0  0
  7  8  1  0  0  0  0
  8 19  1  0  0  0  0
  8 20  1  0  0  0  0
  9  7  1  0  0  0  0
 10  9  2  0  0  0  0
 11 21  1  0  0  0  0
 11 12  2  0  0  0  0
 12 22  1  0  0  0  0
 13  1  1  0  0  0  0
 14  3  1  0  0  0  0
 15  4  1  0  0  0  0
 17  6  1  0  0  0  0
 23 24  1  0  0  0  0
 24 25  1  0  0  0  0
 25 32  1  1  0  0  0
 25 26  1  0  0  0  0
 26 33  1  0  0  0  0
 26  9  1  0  0  0  0
 27 25  1  0  0  0  0
 27 28  2  0  0  0  0
 29 23  1  0  0  0  0
 30 24  1  0  0  0  0
 31 24  1  0  0  0  0
 34 47  1  0  0  0  0
 35 34  1  0  0  0  0
 36 35  1  0  0  0  0
 36 48  1  0  0  0  0
 37 36  2  0  0  0  0
 38 44  2  0  0  0  0
 38 37  1  0  0  0  0
 39 38  1  0  0  0  0
 40 41  1  0  0  0  0
 40 39  1  0  0  0  0
 40 52  1  1  0  0  0
 41 27  1  0  0  0  0
 42 40  1  0  0  0  0
 43 42  2  0  0  0  0
 44 45  1  0  0  0  0
 45 55  1  0  0  0  0
 45 35  2  0  0  0  0
 46 42  1  0  0  0  0
 49 37  1  0  0  0  0
 50 39  1  0  0  0  0
 51 39  1  0  0  0  0
 53 41  1  0  0  0  0
 54 44  1  0  0  0  0
M  END
$$$$
