YTA.pdb
 OpenBabel07022419233D

 47 47  0  0  1  0  0  0  0  0999 V2000
   -1.2830   -0.9970    6.4030 O   0  0  0  0  0  0  0  0  0  0  0  0
   -1.4580   -0.1790    5.2700 C   0  0  0  0  0  0  0  0  0  0  0  0
   -0.4050    0.5840    4.8060 C   0  0  0  0  0  0  0  0  0  0  0  0
   -0.5800    1.3800    3.7000 C   0  0  0  0  0  0  0  0  0  0  0  0
   -1.7940    1.4150    3.0630 C   0  0  0  0  0  0  0  0  0  0  0  0
   -1.9590    2.2860    1.8670 C   0  0  0  0  0  0  0  0  0  0  0  0
   -1.6140    1.5450    0.5890 C   0  0  2  0  0  0  0  0  0  0  0  0
   -2.5180    0.4150    0.5030 N   0  0  0  0  0  0  0  0  0  0  0  0
   -0.2170    1.1120    0.5380 C   0  0  0  0  0  0  0  0  0  0  0  0
    0.6970    1.9800    0.6010 O   0  0  0  0  0  0  0  0  0  0  0  0
   -2.8410    0.6540    3.5270 C   0  0  0  0  0  0  0  0  0  0  0  0
   -2.6800   -0.1420    4.6250 C   0  0  0  0  0  0  0  0  0  0  0  0
   -1.3000   -2.0040    6.3080 H   0  0  0  0  0  0  0  0  0  0  0  0
    0.5730    0.5650    5.3070 H   0  0  0  0  0  0  0  0  0  0  0  0
    0.2450    1.9960    3.3140 H   0  0  0  0  0  0  0  0  0  0  0  0
   -3.0310    2.5610    1.8130 H   0  0  0  0  0  0  0  0  0  0  0  0
   -1.3090    3.1930    1.9290 H   0  0  0  0  0  0  0  0  0  0  0  0
   -1.8370    2.2370   -0.2450 H   0  0  0  0  0  0  0  0  0  0  0  0
   -2.4550   -0.0730   -0.4280 H   0  0  0  0  0  0  0  0  0  0  0  0
   -3.4960    0.8280    0.5470 H   0  0  0  0  0  0  0  0  0  0  0  0
   -3.8050    0.6720    3.0340 H   0  0  0  0  0  0  0  0  0  0  0  0
   -3.4630   -0.7620    5.0380 H   0  0  0  0  0  0  0  0  0  0  0  0
    3.4920   -1.7550    1.3580 C   0  0  0  0  0  0  0  0  0  0  0  0
    1.9990   -1.5350    1.4940 C   0  0  1  0  0  0  0  0  0  0  0  0
    1.7910   -0.9710    2.7550 O   0  0  0  0  0  0  0  0  0  0  0  0
    1.5860   -0.6060    0.3770 C   0  0  2  0  0  0  0  0  0  0  0  0
    0.2060   -0.2440    0.4210 N   0  0  0  0  0  0  0  0  0  0  0  0
    1.8520   -1.3130   -0.9010 C   0  0  0  0  0  0  0  0  0  0  0  0
    3.0150   -1.7480   -1.1910 O   0  0  0  0  0  0  0  0  0  0  0  0
    3.7000   -2.7390    0.8440 H   0  0  0  0  0  0  0  0  0  0  0  0
    3.9800   -0.9240    0.7730 H   0  0  0  0  0  0  0  0  0  0  0  0
    3.9900   -1.7520    2.3500 H   0  0  0  0  0  0  0  0  0  0  0  0
    1.5160   -2.5230    1.3850 H   0  0  0  0  0  0  0  0  0  0  0  0
    2.2910   -0.1220    2.7780 H   0  0  0  0  0  0  0  0  0  0  0  0
    2.2680    0.2840    0.4490 H   0  0  0  0  0  0  0  0  0  0  0  0
   -0.5170   -0.9930    0.3660 H   0  0  0  0  0  0  0  0  0  0  0  0
    0.2450   -3.5230   -3.0030 C   0  0  0  0  0  0  0  0  0  0  0  0
    1.0040   -2.2050   -3.0980 C   0  0  2  0  0  0  0  0  0  0  0  0
    0.8350   -1.5310   -1.8390 N   0  0  0  0  0  0  0  0  0  0  0  0
    0.6160   -1.4040   -4.2530 C   0  0  0  0  0  0  0  0  0  0  0  0
    0.1820   -0.2400   -4.0960 O   0  0  0  0  0  0  0  0  0  0  0  0
    0.7170   -1.9060   -5.5340 O   0  0  0  0  0  0  0  0  0  0  0  0
    0.3150   -3.8730   -1.9540 H   0  0  0  0  0  0  0  0  0  0  0  0
   -0.8110   -3.4170   -3.2580 H   0  0  0  0  0  0  0  0  0  0  0  0
    0.7250   -4.2460   -3.7030 H   0  0  0  0  0  0  0  0  0  0  0  0
    2.0910   -2.5020   -3.1510 H   0  0  0  0  0  0  0  0  0  0  0  0
   -0.1400   -1.1820   -1.6270 H   0  0  0  0  0  0  0  0  0  0  0  0
  2  1  1  0  0  0  0
  3  2  1  0  0  0  0
  3 14  1  0  0  0  0
  4  3  2  0  0  0  0
  5 11  2  0  0  0  0
  5  4  1  0  0  0  0
  6 17  1  0  0  0  0
  6  5  1  0  0  0  0
  7 18  1  6  0  0  0
  7  6  1  0  0  0  0
  8 20  1  0  0  0  0
  8  7  1  0  0  0  0
  9  7  1  0  0  0  0
  9 10  2  0  0  0  0
 11 12  1  0  0  0  0
 12 22  1  0  0  0  0
 12  2  2  0  0  0  0
 13  1  1  0  0  0  0
 15  4  1  0  0  0  0
 16  6  1  0  0  0  0
 19  8  1  0  0  0  0
 21 11  1  0  0  0  0
 23 24  1  0  0  0  0
 23 32  1  0  0  0  0
 24 33  1  6  0  0  0
 24 25  1  0  0  0  0
 25 34  1  0  0  0  0
 26 27  1  0  0  0  0
 26 35  1  1  0  0  0
 26 24  1  0  0  0  0
 27  9  1  0  0  0  0
 28 26  1  0  0  0  0
 29 28  2  0  0  0  0
 30 23  1  0  0  0  0
 31 23  1  0  0  0  0
 36 27  1  0  0  0  0
 37 43  1  0  0  0  0
 38 46  1  6  0  0  0
 38 37  1  0  0  0  0
 38 39  1  0  0  0  0
 39 47  1  0  0  0  0
 39 28  1  0  0  0  0
 40 41  1  0  0  0  0
 40 38  1  0  0  0  0
 42 40  2  0  0  0  0
 44 37  1  0  0  0  0
 45 37  1  0  0  0  0
M  END
$$$$
