YTC.pdb
 OpenBabel07022419233D

 48 48  0  0  1  0  0  0  0  0999 V2000
    6.4080   -2.8200    1.6290 O   0  0  0  0  0  0  0  0  0  0  0  0
    5.4860   -1.9620    1.0230 C   0  0  0  0  0  0  0  0  0  0  0  0
    4.7690   -1.0650    1.7860 C   0  0  0  0  0  0  0  0  0  0  0  0
    3.8610   -0.2210    1.1860 C   0  0  0  0  0  0  0  0  0  0  0  0
    3.6990   -0.3060   -0.1800 C   0  0  0  0  0  0  0  0  0  0  0  0
    2.7200    0.6060   -0.8180 C   0  0  0  0  0  0  0  0  0  0  0  0
    1.3340    0.0480   -0.9170 C   0  0  2  0  0  0  0  0  0  0  0  0
    0.5120    1.0510   -1.5550 N   0  0  0  0  0  0  0  0  0  0  0  0
    0.7680   -0.4450    0.3420 C   0  0  0  0  0  0  0  0  0  0  0  0
    1.3520   -1.3340    1.0100 O   0  0  0  0  0  0  0  0  0  0  0  0
    4.4090   -1.2020   -0.9750 C   0  0  0  0  0  0  0  0  0  0  0  0
    5.3130   -2.0380   -0.3550 C   0  0  0  0  0  0  0  0  0  0  0  0
    6.1260   -3.7920    1.7740 H   0  0  0  0  0  0  0  0  0  0  0  0
    4.9260   -1.0300    2.8570 H   0  0  0  0  0  0  0  0  0  0  0  0
    3.2840    0.4990    1.7880 H   0  0  0  0  0  0  0  0  0  0  0  0
    3.0650    0.8140   -1.8540 H   0  0  0  0  0  0  0  0  0  0  0  0
    2.7330    1.5580   -0.2310 H   0  0  0  0  0  0  0  0  0  0  0  0
    1.3810   -0.8200   -1.6320 H   0  0  0  0  0  0  0  0  0  0  0  0
    0.4610    1.9380   -1.0510 H   0  0  0  0  0  0  0  0  0  0  0  0
    0.6720    1.1250   -2.5710 H   0  0  0  0  0  0  0  0  0  0  0  0
    4.2580   -1.2450   -2.0530 H   0  0  0  0  0  0  0  0  0  0  0  0
    5.8890   -2.7500   -0.9190 H   0  0  0  0  0  0  0  0  0  0  0  0
   -1.9140    1.7430    2.8090 C   0  0  0  0  0  0  0  0  0  0  0  0
   -1.0200    0.5960    3.2100 C   0  0  1  0  0  0  0  0  0  0  0  0
   -1.5150    0.0810    4.4030 O   0  0  0  0  0  0  0  0  0  0  0  0
   -0.9780   -0.4850    2.1410 C   0  0  2  0  0  0  0  0  0  0  0  0
   -0.4650    0.0370    0.8930 N   0  0  0  0  0  0  0  0  0  0  0  0
   -2.2880   -1.1400    1.9860 C   0  0  0  0  0  0  0  0  0  0  0  0
   -2.8450   -1.6340    2.9820 O   0  0  0  0  0  0  0  0  0  0  0  0
   -2.7680    1.4170    2.1850 H   0  0  0  0  0  0  0  0  0  0  0  0
   -2.3600    2.2210    3.7120 H   0  0  0  0  0  0  0  0  0  0  0  0
   -1.3460    2.5360    2.2810 H   0  0  0  0  0  0  0  0  0  0  0  0
    0.0120    0.9820    3.3450 H   0  0  0  0  0  0  0  0  0  0  0  0
   -0.8480   -0.5310    4.8180 H   0  0  0  0  0  0  0  0  0  0  0  0
   -0.2860   -1.2750    2.5610 H   0  0  0  0  0  0  0  0  0  0  0  0
   -1.0030    0.7640    0.4080 H   0  0  0  0  0  0  0  0  0  0  0  0
   -2.9110   -1.2100    0.7260 N   0  0  0  0  0  0  0  0  0  0  0  0
   -4.2010   -1.8430    0.5220 C   0  0  1  0  0  0  0  0  0  0  0  0
   -5.1960   -0.8060    0.0110 C   0  0  0  0  0  0  0  0  0  0  0  0
   -4.5100   -0.1800   -1.5630 S   0  0  0  0  0  0  0  0  0  0  0  0
   -4.0890   -2.9960   -0.4120 C   0  0  0  0  0  0  0  0  0  0  0  0
   -5.0670   -3.6990   -0.7420 O   0  0  0  0  0  0  0  0  0  0  0  0
   -2.8420   -3.3150   -0.9510 O   0  0  0  0  0  0  0  0  0  0  0  0
   -2.3970   -0.7760   -0.0820 H   0  0  0  0  0  0  0  0  0  0  0  0
   -4.5750   -2.2350    1.4850 H   0  0  0  0  0  0  0  0  0  0  0  0
   -6.1580   -1.2980   -0.2050 H   0  0  0  0  0  0  0  0  0  0  0  0
   -5.2510   -0.0260    0.7800 H   0  0  0  0  0  0  0  0  0  0  0  0
   -3.4180    0.6520   -1.2180 H   0  0  0  0  0  0  0  0  0  0  0  0
  1 13  1  0  0  0  0
  2  1  1  0  0  0  0
  2  3  1  0  0  0  0
  3 14  1  0  0  0  0
  4  3  2  0  0  0  0
  4 15  1  0  0  0  0
  5  4  1  0  0  0  0
  6 17  1  0  0  0  0
  6  5  1  0  0  0  0
  7 18  1  6  0  0  0
  7  6  1  0  0  0  0
  7  9  1  0  0  0  0
  8 19  1  0  0  0  0
  8  7  1  0  0  0  0
  9 27  1  0  0  0  0
  9 10  2  0  0  0  0
 11 12  1  0  0  0  0
 11  5  2  0  0  0  0
 12  2  2  0  0  0  0
 16  6  1  0  0  0  0
 20  8  1  0  0  0  0
 21 11  1  0  0  0  0
 22 12  1  0  0  0  0
 23 24  1  0  0  0  0
 23 31  1  0  0  0  0
 24 33  1  1  0  0  0
 24 25  1  0  0  0  0
 25 34  1  0  0  0  0
 26 35  1  1  0  0  0
 26 24  1  0  0  0  0
 27 26  1  0  0  0  0
 28 26  1  0  0  0  0
 28 29  2  0  0  0  0
 30 23  1  0  0  0  0
 32 23  1  0  0  0  0
 36 27  1  0  0  0  0
 37 28  1  0  0  0  0
 38 37  1  0  0  0  0
 38 45  1  1  0  0  0
 39 38  1  0  0  0  0
 39 47  1  0  0  0  0
 40 48  1  0  0  0  0
 40 39  1  0  0  0  0
 41 38  1  0  0  0  0
 42 41  1  0  0  0  0
 43 41  2  0  0  0  0
 44 37  1  0  0  0  0
 46 39  1  0  0  0  0
M  END
$$$$
