YTD.pdb
 OpenBabel07022419233D

 50 50  0  0  1  0  0  0  0  0999 V2000
    3.2990   -5.4600   -1.9430 O   0  0  0  0  0  0  0  0  0  0  0  0
    3.3880   -4.1720   -1.3860 C   0  0  0  0  0  0  0  0  0  0  0  0
    2.9820   -3.0620   -2.1050 C   0  0  0  0  0  0  0  0  0  0  0  0
    3.0950   -1.8290   -1.5020 C   0  0  0  0  0  0  0  0  0  0  0  0
    3.5890   -1.6450   -0.2280 C   0  0  0  0  0  0  0  0  0  0  0  0
    3.6900   -0.2920    0.3720 C   0  0  0  0  0  0  0  0  0  0  0  0
    2.4390    0.1060    1.1090 C   0  0  2  0  0  0  0  0  0  0  0  0
    2.1240   -0.7960    2.1890 N   0  0  0  0  0  0  0  0  0  0  0  0
    1.2990    0.3530    0.1970 C   0  0  0  0  0  0  0  0  0  0  0  0
    1.5230    1.1630   -0.7550 O   0  0  0  0  0  0  0  0  0  0  0  0
    3.9910   -2.7580    0.4790 C   0  0  0  0  0  0  0  0  0  0  0  0
    3.8820   -3.9920   -0.1140 C   0  0  0  0  0  0  0  0  0  0  0  0
    2.9200   -5.5810   -2.8630 H   0  0  0  0  0  0  0  0  0  0  0  0
    2.5890   -3.1970   -3.1150 H   0  0  0  0  0  0  0  0  0  0  0  0
    2.7810   -0.9220   -2.0460 H   0  0  0  0  0  0  0  0  0  0  0  0
    4.5370   -0.2390    1.0670 H   0  0  0  0  0  0  0  0  0  0  0  0
    3.8360    0.4430   -0.4550 H   0  0  0  0  0  0  0  0  0  0  0  0
    2.6750    1.0950    1.5990 H   0  0  0  0  0  0  0  0  0  0  0  0
    1.1810   -0.5720    2.5930 H   0  0  0  0  0  0  0  0  0  0  0  0
    2.8280   -0.7480    2.9640 H   0  0  0  0  0  0  0  0  0  0  0  0
    4.3860   -2.6290    1.4940 H   0  0  0  0  0  0  0  0  0  0  0  0
    4.2050   -4.8770    0.4580 H   0  0  0  0  0  0  0  0  0  0  0  0
   -2.7180   -0.7700   -2.2010 C   0  0  0  0  0  0  0  0  0  0  0  0
   -1.6480   -1.2040   -1.2250 C   0  0  1  0  0  0  0  0  0  0  0  0
   -0.7160   -1.9220   -1.9780 O   0  0  0  0  0  0  0  0  0  0  0  0
   -1.0690    0.0290   -0.5930 C   0  0  2  0  0  0  0  0  0  0  0  0
    0.0150   -0.2310    0.3070 N   0  0  0  0  0  0  0  0  0  0  0  0
   -2.1640    0.6700    0.1800 C   0  0  0  0  0  0  0  0  0  0  0  0
   -3.2570    1.0420   -0.3220 O   0  0  0  0  0  0  0  0  0  0  0  0
   -2.5460    0.2970   -2.4370 H   0  0  0  0  0  0  0  0  0  0  0  0
   -3.7370   -0.8660   -1.7790 H   0  0  0  0  0  0  0  0  0  0  0  0
   -2.7140   -1.3970   -3.1230 H   0  0  0  0  0  0  0  0  0  0  0  0
   -2.0790   -1.8230   -0.4080 H   0  0  0  0  0  0  0  0  0  0  0  0
   -1.2610   -2.5990   -2.4890 H   0  0  0  0  0  0  0  0  0  0  0  0
   -0.7650    0.7550   -1.4030 H   0  0  0  0  0  0  0  0  0  0  0  0
   -0.1540   -0.8940    1.0920 H   0  0  0  0  0  0  0  0  0  0  0  0
   -2.0360    0.9120    1.5980 N   0  0  0  0  0  0  0  0  0  0  0  0
   -3.0650    1.5240    2.3650 C   0  0  1  0  0  0  0  0  0  0  0  0
   -3.6770    0.5620    3.3400 C   0  0  0  0  0  0  0  0  0  0  0  0
   -2.6790    0.0730    4.2880 C   0  0  0  0  0  0  0  0  0  0  0  0
   -1.5040    0.4840    4.2630 O   0  0  0  0  0  0  0  0  0  0  0  0
   -2.6140    2.7230    3.1060 C   0  0  0  0  0  0  0  0  0  0  0  0
   -3.4570    3.3340    3.8050 O   0  0  0  0  0  0  0  0  0  0  0  0
   -2.9930   -0.8840    5.2770 O   0  0  0  0  0  0  0  0  0  0  0  0
   -1.3230    3.1600    3.0390 O   0  0  0  0  0  0  0  0  0  0  0  0
   -1.1460    0.6180    2.0330 H   0  0  0  0  0  0  0  0  0  0  0  0
   -3.9110    1.8530    1.6860 H   0  0  0  0  0  0  0  0  0  0  0  0
   -4.1200   -0.3280    2.8380 H   0  0  0  0  0  0  0  0  0  0  0  0
   -4.4730    1.0850    3.9350 H   0  0  0  0  0  0  0  0  0  0  0  0
   -2.2450   -1.4150    5.7010 H   0  0  0  0  0  0  0  0  0  0  0  0
  1  2  1  0  0  0  0
  2 12  1  0  0  0  0
  3  4  1  0  0  0  0
  3  2  2  0  0  0  0
  4  5  2  0  0  0  0
  5  6  1  0  0  0  0
  5 11  1  0  0  0  0
  6 16  1  0  0  0  0
  6  7  1  0  0  0  0
  7 18  1  1  0  0  0
  7  8  1  0  0  0  0
  8 19  1  0  0  0  0
  8 20  1  0  0  0  0
  9 27  1  0  0  0  0
  9  7  1  0  0  0  0
 10  9  2  0  0  0  0
 11 21  1  0  0  0  0
 12 22  1  0  0  0  0
 12 11  2  0  0  0  0
 13  1  1  0  0  0  0
 14  3  1  0  0  0  0
 15  4  1  0  0  0  0
 17  6  1  0  0  0  0
 23 31  1  0  0  0  0
 23 24  1  0  0  0  0
 24 26  1  0  0  0  0
 24 33  1  1  0  0  0
 25 24  1  0  0  0  0
 26 35  1  6  0  0  0
 26 28  1  0  0  0  0
 26 27  1  0  0  0  0
 27 36  1  0  0  0  0
 28 37  1  0  0  0  0
 29 28  2  0  0  0  0
 30 23  1  0  0  0  0
 32 23  1  0  0  0  0
 34 25  1  0  0  0  0
 37 46  1  0  0  0  0
 37 38  1  0  0  0  0
 38 47  1  6  0  0  0
 38 42  1  0  0  0  0
 38 39  1  0  0  0  0
 39 49  1  0  0  0  0
 39 40  1  0  0  0  0
 40 44  1  0  0  0  0
 41 40  2  0  0  0  0
 42 43  1  0  0  0  0
 44 50  1  0  0  0  0
 45 42  2  0  0  0  0
 48 39  1  0  0  0  0
M  END
$$$$
