YTE.pdb
 OpenBabel07022419233D

 53 53  0  0  1  0  0  0  0  0999 V2000
    1.9950   -4.8980    1.7300 O   0  0  0  0  0  0  0  0  0  0  0  0
    2.3530   -3.5790    2.0620 C   0  0  0  0  0  0  0  0  0  0  0  0
    3.6580   -3.1430    1.8870 C   0  0  0  0  0  0  0  0  0  0  0  0
    4.0180   -1.8380    2.2150 C   0  0  0  0  0  0  0  0  0  0  0  0
    3.0320   -1.0180    2.7140 C   0  0  0  0  0  0  0  0  0  0  0  0
    3.3340    0.3450    3.1440 C   0  0  0  0  0  0  0  0  0  0  0  0
    3.2690    1.3150    2.0160 C   0  0  2  0  0  0  0  0  0  0  0  0
    3.5990    2.6230    2.6280 N   0  0  0  0  0  0  0  0  0  0  0  0
    1.9180    1.4550    1.4680 C   0  0  0  0  0  0  0  0  0  0  0  0
    1.1610    2.3590    1.8820 O   0  0  0  0  0  0  0  0  0  0  0  0
    1.7120   -1.4480    2.8930 C   0  0  0  0  0  0  0  0  0  0  0  0
    1.3770   -2.7390    2.5630 C   0  0  0  0  0  0  0  0  0  0  0  0
    1.1600   -5.0190    1.1380 H   0  0  0  0  0  0  0  0  0  0  0  0
    4.3820   -3.8250    1.4960 H   0  0  0  0  0  0  0  0  0  0  0  0
    5.0490   -1.5050    2.0720 H   0  0  0  0  0  0  0  0  0  0  0  0
    2.6580    0.6530    3.9940 H   0  0  0  0  0  0  0  0  0  0  0  0
    4.3740    0.3480    3.5820 H   0  0  0  0  0  0  0  0  0  0  0  0
    3.9460    1.0920    1.1870 H   0  0  0  0  0  0  0  0  0  0  0  0
    3.5670    3.3620    1.9180 H   0  0  0  0  0  0  0  0  0  0  0  0
    4.5490    2.5180    3.0040 H   0  0  0  0  0  0  0  0  0  0  0  0
    0.9400   -0.8050    3.2820 H   0  0  0  0  0  0  0  0  0  0  0  0
    0.3610   -3.1020    2.6930 H   0  0  0  0  0  0  0  0  0  0  0  0
    1.0020    0.9110   -2.4200 C   0  0  0  0  0  0  0  0  0  0  0  0
    0.1550    1.5720   -1.3780 C   0  0  1  0  0  0  0  0  0  0  0  0
   -1.1110    1.7490   -1.9280 O   0  0  0  0  0  0  0  0  0  0  0  0
    0.0740    0.7560   -0.0910 C   0  0  2  0  0  0  0  0  0  0  0  0
    1.4260    0.5940    0.4610 N   0  0  0  0  0  0  0  0  0  0  0  0
   -0.5250   -0.5600   -0.3100 C   0  0  0  0  0  0  0  0  0  0  0  0
    0.1280   -1.6000   -0.1240 O   0  0  0  0  0  0  0  0  0  0  0  0
    0.7410    1.2400   -3.4450 H   0  0  0  0  0  0  0  0  0  0  0  0
    2.0630    1.2290   -2.2480 H   0  0  0  0  0  0  0  0  0  0  0  0
    0.9880   -0.1890   -2.3920 H   0  0  0  0  0  0  0  0  0  0  0  0
    0.5270    2.5810   -1.1070 H   0  0  0  0  0  0  0  0  0  0  0  0
   -1.0310    2.0810   -2.8600 H   0  0  0  0  0  0  0  0  0  0  0  0
   -0.4600    1.4230    0.6130 H   0  0  0  0  0  0  0  0  0  0  0  0
    2.0340   -0.1630    0.1120 H   0  0  0  0  0  0  0  0  0  0  0  0
   -1.8660   -0.6840   -0.7430 N   0  0  0  0  0  0  0  0  0  0  0  0
   -2.5400   -1.9430   -0.9940 C   0  0  1  0  0  0  0  0  0  0  0  0
   -3.6490   -2.2520   -0.0510 C   0  0  0  0  0  0  0  0  0  0  0  0
   -4.7620   -1.2280   -0.0270 C   0  0  0  0  0  0  0  0  0  0  0  0
   -5.7870   -1.6930    0.9450 C   0  0  0  0  0  0  0  0  0  0  0  0
   -6.3310   -2.8260    0.9000 O   0  0  0  0  0  0  0  0  0  0  0  0
   -2.9730   -2.1170   -2.3770 C   0  0  0  0  0  0  0  0  0  0  0  0
   -2.7510   -1.2140   -3.2450 O   0  0  0  0  0  0  0  0  0  0  0  0
   -6.2060   -0.8530    1.9980 O   0  0  0  0  0  0  0  0  0  0  0  0
   -3.6250   -3.2470   -2.7800 O   0  0  0  0  0  0  0  0  0  0  0  0
   -2.4630    0.1720   -0.9060 H   0  0  0  0  0  0  0  0  0  0  0  0
   -1.7500   -2.7300   -0.8040 H   0  0  0  0  0  0  0  0  0  0  0  0
   -4.1120   -3.1990   -0.3790 H   0  0  0  0  0  0  0  0  0  0  0  0
   -3.3200   -2.4280    0.9960 H   0  0  0  0  0  0  0  0  0  0  0  0
   -4.4340   -0.2280    0.2740 H   0  0  0  0  0  0  0  0  0  0  0  0
   -5.2600   -1.2190   -1.0290 H   0  0  0  0  0  0  0  0  0  0  0  0
   -6.6080   -1.2270    2.8630 H   0  0  0  0  0  0  0  0  0  0  0  0
  1  2  1  0  0  0  0
  2 12  1  0  0  0  0
  3  2  2  0  0  0  0
  3  4  1  0  0  0  0
  4  5  2  0  0  0  0
  5 11  1  0  0  0  0
  5  6  1  0  0  0  0
  6 17  1  0  0  0  0
  6 16  1  0  0  0  0
  7 18  1  6  0  0  0
  7  8  1  0  0  0  0
  7  6  1  0  0  0  0
  8 20  1  0  0  0  0
  9 10  2  0  0  0  0
  9  7  1  0  0  0  0
 11 21  1  0  0  0  0
 12 22  1  0  0  0  0
 12 11  2  0  0  0  0
 13  1  1  0  0  0  0
 14  3  1  0  0  0  0
 15  4  1  0  0  0  0
 19  8  1  0  0  0  0
 23 32  1  0  0  0  0
 23 31  1  0  0  0  0
 23 24  1  0  0  0  0
 24 33  1  1  0  0  0
 24 26  1  0  0  0  0
 25 24  1  0  0  0  0
 26 27  1  0  0  0  0
 26 35  1  1  0  0  0
 27  9  1  0  0  0  0
 28 29  2  0  0  0  0
 28 26  1  0  0  0  0
 30 23  1  0  0  0  0
 34 25  1  0  0  0  0
 36 27  1  0  0  0  0
 37 28  1  0  0  0  0
 38 48  1  1  0  0  0
 38 37  1  0  0  0  0
 38 39  1  0  0  0  0
 39 40  1  0  0  0  0
 39 50  1  0  0  0  0
 40 51  1  0  0  0  0
 40 41  1  0  0  0  0
 41 45  1  0  0  0  0
 42 41  2  0  0  0  0
 43 38  1  0  0  0  0
 44 43  2  0  0  0  0
 45 53  1  0  0  0  0
 46 43  1  0  0  0  0
 47 37  1  0  0  0  0
 49 39  1  0  0  0  0
 52 40  1  0  0  0  0
M  END
$$$$
