YTF.pdb
 OpenBabel07022419233D

 57 58  0  0  1  0  0  0  0  0999 V2000
    1.6480   -1.4940    5.8990 O   0  0  0  0  0  0  0  0  0  0  0  0
    2.0830   -1.1470    4.6400 C   0  0  0  0  0  0  0  0  0  0  0  0
    1.5810   -1.7910    3.5110 C   0  0  0  0  0  0  0  0  0  0  0  0
    2.0160   -1.4430    2.2490 C   0  0  0  0  0  0  0  0  0  0  0  0
    2.9530   -0.4590    2.0480 C   0  0  0  0  0  0  0  0  0  0  0  0
    3.4060   -0.0890    0.6940 C   0  0  0  0  0  0  0  0  0  0  0  0
    2.6680    1.0710    0.1260 C   0  0  2  0  0  0  0  0  0  0  0  0
    2.8370    2.2200    0.9790 N   0  0  0  0  0  0  0  0  0  0  0  0
    1.2510    0.7530   -0.1700 C   0  0  0  0  0  0  0  0  0  0  0  0
    0.9520   -0.2780   -0.8020 O   0  0  0  0  0  0  0  0  0  0  0  0
    3.4650    0.1950    3.1740 C   0  0  0  0  0  0  0  0  0  0  0  0
    3.0190   -0.1650    4.4310 C   0  0  0  0  0  0  0  0  0  0  0  0
    0.7260   -1.1980    6.2110 H   0  0  0  0  0  0  0  0  0  0  0  0
    0.8400   -2.5700    3.6550 H   0  0  0  0  0  0  0  0  0  0  0  0
    1.5860   -1.9920    1.4180 H   0  0  0  0  0  0  0  0  0  0  0  0
    4.4900    0.2230    0.7930 H   0  0  0  0  0  0  0  0  0  0  0  0
    3.3870   -0.9750    0.0030 H   0  0  0  0  0  0  0  0  0  0  0  0
    3.1860    1.3900   -0.8520 H   0  0  0  0  0  0  0  0  0  0  0  0
    3.8320    2.3860    1.1840 H   0  0  0  0  0  0  0  0  0  0  0  0
    2.3730    2.0090    1.8970 H   0  0  0  0  0  0  0  0  0  0  0  0
    4.2060    0.9790    3.0920 H   0  0  0  0  0  0  0  0  0  0  0  0
    3.4090    0.3370    5.3280 H   0  0  0  0  0  0  0  0  0  0  0  0
   -0.7610    1.5930   -2.4030 C   0  0  0  0  0  0  0  0  0  0  0  0
   -1.5810    2.1130   -1.2740 C   0  0  1  0  0  0  0  0  0  0  0  0
   -2.9500    2.0150   -1.5010 O   0  0  0  0  0  0  0  0  0  0  0  0
   -1.1840    1.4860    0.0470 C   0  0  2  0  0  0  0  0  0  0  0  0
    0.1910    1.6040    0.2430 N   0  0  0  0  0  0  0  0  0  0  0  0
   -1.9100    0.2480    0.2450 C   0  0  0  0  0  0  0  0  0  0  0  0
   -3.1470    0.2640   -0.1640 O   0  0  0  0  0  0  0  0  0  0  0  0
   -1.0750    2.0730   -3.3870 H   0  0  0  0  0  0  0  0  0  0  0  0
   -0.9200    0.5080   -2.5920 H   0  0  0  0  0  0  0  0  0  0  0  0
    0.3080    1.8710   -2.3210 H   0  0  0  0  0  0  0  0  0  0  0  0
   -1.3690    3.2200   -1.2100 H   0  0  0  0  0  0  0  0  0  0  0  0
   -3.4730    2.6970   -1.0310 H   0  0  0  0  0  0  0  0  0  0  0  0
   -1.6400    2.2660    0.8080 H   0  0  0  0  0  0  0  0  0  0  0  0
    0.5630    2.4660    0.7890 H   0  0  0  0  0  0  0  0  0  0  0  0
   -1.5370   -0.9800    0.8040 N   0  0  0  0  0  0  0  0  0  0  0  0
   -2.4370   -2.1150    0.9180 C   0  0  1  0  0  0  0  0  0  0  0  0
   -1.9750   -3.3760    0.2900 C   0  0  0  0  0  0  0  0  0  0  0  0
   -1.7240   -3.3220   -1.1620 C   0  0  0  0  0  0  0  0  0  0  0  0
   -2.7040   -3.5270   -2.1180 C   0  0  0  0  0  0  0  0  0  0  0  0
   -2.4350   -3.4850   -3.4750 C   0  0  0  0  0  0  0  0  0  0  0  0
   -1.1580   -3.2340   -3.9100 C   0  0  0  0  0  0  0  0  0  0  0  0
   -0.1580   -3.0260   -2.9910 C   0  0  0  0  0  0  0  0  0  0  0  0
   -0.4540   -3.0730   -1.6290 C   0  0  0  0  0  0  0  0  0  0  0  0
   -2.6470   -2.3630    2.3710 C   0  0  0  0  0  0  0  0  0  0  0  0
   -3.3890   -3.2950    2.7590 O   0  0  0  0  0  0  0  0  0  0  0  0
   -2.0260   -1.5680    3.3080 O   0  0  0  0  0  0  0  0  0  0  0  0
   -0.5800   -1.0740    1.1710 H   0  0  0  0  0  0  0  0  0  0  0  0
   -3.4350   -1.8760    0.4710 H   0  0  0  0  0  0  0  0  0  0  0  0
   -1.1230   -3.8430    0.8440 H   0  0  0  0  0  0  0  0  0  0  0  0
   -2.8110   -4.1270    0.4190 H   0  0  0  0  0  0  0  0  0  0  0  0
   -3.7100   -3.7250   -1.7960 H   0  0  0  0  0  0  0  0  0  0  0  0
   -3.2090   -3.6470   -4.2140 H   0  0  0  0  0  0  0  0  0  0  0  0
   -0.9350   -3.1990   -4.9630 H   0  0  0  0  0  0  0  0  0  0  0  0
    0.8460   -2.8280   -3.3440 H   0  0  0  0  0  0  0  0  0  0  0  0
    0.3510   -2.9140   -0.9310 H   0  0  0  0  0  0  0  0  0  0  0  0
  1 13  1  0  0  0  0
  2  1  1  0  0  0  0
  3 14  1  0  0  0  0
  3  2  2  0  0  0  0
  4  3  1  0  0  0  0
  5  4  2  0  0  0  0
  5 11  1  0  0  0  0
  6 16  1  0  0  0  0
  6  5  1  0  0  0  0
  7 18  1  6  0  0  0
  7  6  1  0  0  0  0
  7  8  1  0  0  0  0
  8 19  1  0  0  0  0
  8 20  1  0  0  0  0
  9  7  1  0  0  0  0
  9 27  1  0  0  0  0
 10  9  2  0  0  0  0
 11 12  2  0  0  0  0
 12  2  1  0  0  0  0
 12 22  1  0  0  0  0
 15  4  1  0  0  0  0
 17  6  1  0  0  0  0
 21 11  1  0  0  0  0
 23 32  1  0  0  0  0
 23 24  1  0  0  0  0
 24 33  1  1  0  0  0
 24 26  1  0  0  0  0
 25 24  1  0  0  0  0
 25 34  1  0  0  0  0
 26 27  1  0  0  0  0
 26 28  1  0  0  0  0
 26 35  1  1  0  0  0
 27 36  1  0  0  0  0
 28 37  1  0  0  0  0
 29 28  2  0  0  0  0
 30 23  1  0  0  0  0
 31 23  1  0  0  0  0
 37 38  1  0  0  0  0
 37 49  1  0  0  0  0
 38 50  1  6  0  0  0
 38 46  1  0  0  0  0
 39 52  1  0  0  0  0
 39 51  1  0  0  0  0
 39 38  1  0  0  0  0
 40 39  1  0  0  0  0
 41 53  1  0  0  0  0
 41 40  2  0  0  0  0
 42 41  1  0  0  0  0
 43 42  2  0  0  0  0
 43 44  1  0  0  0  0
 44 45  2  0  0  0  0
 45 40  1  0  0  0  0
 45 57  1  0  0  0  0
 46 47  2  0  0  0  0
 46 48  1  0  0  0  0
 54 42  1  0  0  0  0
 55 43  1  0  0  0  0
 56 44  1  0  0  0  0
M  END
$$$$
