YTI.pdb
 OpenBabel07022419233D

 56 56  0  0  1  0  0  0  0  0999 V2000
    0.7850   -1.9690    7.3950 O   0  0  0  0  0  0  0  0  0  0  0  0
    1.4470   -1.3740    6.3200 C   0  0  0  0  0  0  0  0  0  0  0  0
    2.7060   -1.8030    5.9550 C   0  0  0  0  0  0  0  0  0  0  0  0
    3.3750   -1.2350    4.9030 C   0  0  0  0  0  0  0  0  0  0  0  0
    2.7990   -0.2250    4.1940 C   0  0  0  0  0  0  0  0  0  0  0  0
    3.4570    0.4520    3.0480 C   0  0  0  0  0  0  0  0  0  0  0  0
    3.1930   -0.2370    1.7470 C   0  0  2  0  0  0  0  0  0  0  0  0
    3.8710    0.4920    0.6860 N   0  0  0  0  0  0  0  0  0  0  0  0
    1.7730   -0.3530    1.3910 C   0  0  0  0  0  0  0  0  0  0  0  0
    1.0160   -1.0080    2.1560 O   0  0  0  0  0  0  0  0  0  0  0  0
    1.5280    0.2070    4.5640 C   0  0  0  0  0  0  0  0  0  0  0  0
    0.8570   -0.3610    5.6170 C   0  0  0  0  0  0  0  0  0  0  0  0
   -0.1620   -2.3260    7.2640 H   0  0  0  0  0  0  0  0  0  0  0  0
    3.1730   -2.6080    6.5140 H   0  0  0  0  0  0  0  0  0  0  0  0
    4.3790   -1.5670    4.6000 H   0  0  0  0  0  0  0  0  0  0  0  0
    3.0760    1.5100    2.9550 H   0  0  0  0  0  0  0  0  0  0  0  0
    4.5630    0.4540    3.2010 H   0  0  0  0  0  0  0  0  0  0  0  0
    3.6540   -1.2430    1.7980 H   0  0  0  0  0  0  0  0  0  0  0  0
    4.8590    0.6630    1.0390 H   0  0  0  0  0  0  0  0  0  0  0  0
    3.9150   -0.1410   -0.1500 H   0  0  0  0  0  0  0  0  0  0  0  0
    1.0760    1.0190    3.9920 H   0  0  0  0  0  0  0  0  0  0  0  0
   -0.1440   -0.0010    5.8880 H   0  0  0  0  0  0  0  0  0  0  0  0
   -0.0380    2.4430   -0.8600 C   0  0  0  0  0  0  0  0  0  0  0  0
   -0.8170    1.4690   -0.0130 C   0  0  1  0  0  0  0  0  0  0  0  0
   -2.1650    1.4980   -0.2870 O   0  0  0  0  0  0  0  0  0  0  0  0
   -0.2080    0.0860   -0.0720 C   0  0  2  0  0  0  0  0  0  0  0  0
    1.1970    0.2270    0.2390 N   0  0  0  0  0  0  0  0  0  0  0  0
   -0.3790   -0.5230   -1.4400 C   0  0  0  0  0  0  0  0  0  0  0  0
    0.6320   -0.8140   -2.1280 O   0  0  0  0  0  0  0  0  0  0  0  0
   -0.7460    3.2470   -1.1750 H   0  0  0  0  0  0  0  0  0  0  0  0
    0.3870    1.9150   -1.7330 H   0  0  0  0  0  0  0  0  0  0  0  0
    0.7380    2.9340   -0.2420 H   0  0  0  0  0  0  0  0  0  0  0  0
   -0.7050    1.7940    1.0580 H   0  0  0  0  0  0  0  0  0  0  0  0
   -2.6620    1.1230    0.5080 H   0  0  0  0  0  0  0  0  0  0  0  0
   -0.6810   -0.5140    0.7090 H   0  0  0  0  0  0  0  0  0  0  0  0
    1.7960    0.7700   -0.4060 H   0  0  0  0  0  0  0  0  0  0  0  0
   -3.9460   -2.6590   -1.2070 C   0  0  0  0  0  0  0  0  0  0  0  0
   -3.8150   -2.8180   -2.6640 C   0  0  0  0  0  0  0  0  0  0  0  0
   -2.4630   -2.7300   -3.2630 C   0  0  2  0  0  0  0  0  0  0  0  0
   -1.5360   -3.7880   -2.6990 C   0  0  0  0  0  0  0  0  0  0  0  0
   -1.8320   -1.3740   -3.3100 C   0  0  2  0  0  0  0  0  0  0  0  0
   -1.6630   -0.7880   -1.9940 N   0  0  0  0  0  0  0  0  0  0  0  0
   -2.5180   -0.4520   -4.2440 C   0  0  0  0  0  0  0  0  0  0  0  0
   -2.8970    0.6930   -3.9140 O   0  0  0  0  0  0  0  0  0  0  0  0
   -2.7490   -0.8720   -5.5330 O   0  0  0  0  0  0  0  0  0  0  0  0
   -2.9990   -2.7380   -0.6410 H   0  0  0  0  0  0  0  0  0  0  0  0
   -4.4580   -1.7420   -0.8650 H   0  0  0  0  0  0  0  0  0  0  0  0
   -4.5990   -3.4910   -0.8090 H   0  0  0  0  0  0  0  0  0  0  0  0
   -4.2160   -3.8340   -2.9540 H   0  0  0  0  0  0  0  0  0  0  0  0
   -4.5080   -2.1190   -3.2230 H   0  0  0  0  0  0  0  0  0  0  0  0
   -2.6030   -3.0460   -4.3460 H   0  0  0  0  0  0  0  0  0  0  0  0
   -2.1110   -4.6210   -2.2250 H   0  0  0  0  0  0  0  0  0  0  0  0
   -0.8610   -3.3280   -1.9790 H   0  0  0  0  0  0  0  0  0  0  0  0
   -0.9100   -4.2670   -3.4800 H   0  0  0  0  0  0  0  0  0  0  0  0
   -0.7920   -1.5030   -3.7420 H   0  0  0  0  0  0  0  0  0  0  0  0
   -2.4720   -0.5300   -1.3890 H   0  0  0  0  0  0  0  0  0  0  0  0
  2  1  1  0  0  0  0
  3  2  1  0  0  0  0
  3 14  1  0  0  0  0
  4  3  2  0  0  0  0
  5 11  2  0  0  0  0
  5  4  1  0  0  0  0
  6 17  1  0  0  0  0
  6  5  1  0  0  0  0
  7 18  1  1  0  0  0
  7  6  1  0  0  0  0
  8 19  1  0  0  0  0
  8  7  1  0  0  0  0
  9  7  1  0  0  0  0
  9 10  2  0  0  0  0
 11 12  1  0  0  0  0
 12 22  1  0  0  0  0
 12  2  2  0  0  0  0
 13  1  1  0  0  0  0
 15  4  1  0  0  0  0
 16  6  1  0  0  0  0
 20  8  1  0  0  0  0
 21 11  1  0  0  0  0
 23 32  1  0  0  0  0
 23 24  1  0  0  0  0
 24 33  1  1  0  0  0
 25 24  1  0  0  0  0
 25 34  1  0  0  0  0
 26 24  1  0  0  0  0
 26 27  1  0  0  0  0
 26 35  1  1  0  0  0
 27  9  1  0  0  0  0
 28 26  1  0  0  0  0
 29 28  2  0  0  0  0
 30 23  1  0  0  0  0
 31 23  1  0  0  0  0
 36 27  1  0  0  0  0
 37 47  1  0  0  0  0
 37 48  1  0  0  0  0
 37 46  1  0  0  0  0
 38 37  1  0  0  0  0
 39 51  1  6  0  0  0
 39 40  1  0  0  0  0
 39 38  1  0  0  0  0
 40 52  1  0  0  0  0
 40 53  1  0  0  0  0
 41 55  1  6  0  0  0
 41 39  1  0  0  0  0
 41 42  1  0  0  0  0
 42 28  1  0  0  0  0
 42 56  1  0  0  0  0
 43 44  1  0  0  0  0
 43 41  1  0  0  0  0
 45 43  2  0  0  0  0
 49 38  1  0  0  0  0
 50 38  1  0  0  0  0
 54 40  1  0  0  0  0
M  END
$$$$
