YTL.pdb
 OpenBabel07022419233D

 56 56  0  0  1  0  0  0  0  0999 V2000
    3.5700   -3.9030    4.8180 O   0  0  0  0  0  0  0  0  0  0  0  0
    3.5150   -2.7210    4.1080 C   0  0  0  0  0  0  0  0  0  0  0  0
    2.9180   -2.6380    2.8540 C   0  0  0  0  0  0  0  0  0  0  0  0
    2.8800   -1.4440    2.1750 C   0  0  0  0  0  0  0  0  0  0  0  0
    3.4190   -0.2880    2.6830 C   0  0  0  0  0  0  0  0  0  0  0  0
    3.3980    1.0100    1.9870 C   0  0  0  0  0  0  0  0  0  0  0  0
    2.2130    1.8590    2.2800 C   0  0  2  0  0  0  0  0  0  0  0  0
    2.1190    2.1710    3.7090 N   0  0  0  0  0  0  0  0  0  0  0  0
    0.9390    1.4360    1.7060 C   0  0  0  0  0  0  0  0  0  0  0  0
   -0.0350    1.3300    2.5250 O   0  0  0  0  0  0  0  0  0  0  0  0
    4.0220   -0.3580    3.9410 C   0  0  0  0  0  0  0  0  0  0  0  0
    4.0530   -1.5610    4.6130 C   0  0  0  0  0  0  0  0  0  0  0  0
    2.9080   -4.1760    5.5330 H   0  0  0  0  0  0  0  0  0  0  0  0
    2.4980   -3.5640    2.4720 H   0  0  0  0  0  0  0  0  0  0  0  0
    2.4100   -1.4240    1.2080 H   0  0  0  0  0  0  0  0  0  0  0  0
    3.4540    0.8830    0.8770 H   0  0  0  0  0  0  0  0  0  0  0  0
    4.3060    1.5750    2.2680 H   0  0  0  0  0  0  0  0  0  0  0  0
    2.4380    2.8670    1.8110 H   0  0  0  0  0  0  0  0  0  0  0  0
    1.3900    2.8850    3.8570 H   0  0  0  0  0  0  0  0  0  0  0  0
    3.0570    2.5410    3.9780 H   0  0  0  0  0  0  0  0  0  0  0  0
    4.4460    0.5450    4.3460 H   0  0  0  0  0  0  0  0  0  0  0  0
    4.5270   -1.5810    5.5850 H   0  0  0  0  0  0  0  0  0  0  0  0
   -1.6500    2.9320   -0.2260 C   0  0  0  0  0  0  0  0  0  0  0  0
   -1.2330    1.7500   -1.0700 C   0  0  1  0  0  0  0  0  0  0  0  0
   -0.4900    2.0990   -2.1670 O   0  0  0  0  0  0  0  0  0  0  0  0
   -0.5880    0.7260   -0.1800 C   0  0  2  0  0  0  0  0  0  0  0  0
    0.6790    1.1390    0.3670 N   0  0  0  0  0  0  0  0  0  0  0  0
   -0.3980   -0.5750   -0.8610 C   0  0  0  0  0  0  0  0  0  0  0  0
    0.7200   -1.1480   -0.9200 O   0  0  0  0  0  0  0  0  0  0  0  0
   -2.0310    2.6540    0.7540 H   0  0  0  0  0  0  0  0  0  0  0  0
   -2.4530    3.4710   -0.7700 H   0  0  0  0  0  0  0  0  0  0  0  0
   -0.7930    3.6610   -0.1570 H   0  0  0  0  0  0  0  0  0  0  0  0
   -2.1730    1.2980   -1.4540 H   0  0  0  0  0  0  0  0  0  0  0  0
    0.0300    2.9030   -1.9670 H   0  0  0  0  0  0  0  0  0  0  0  0
   -1.2800    0.6450    0.7040 H   0  0  0  0  0  0  0  0  0  0  0  0
    1.4660    1.2200   -0.3140 H   0  0  0  0  0  0  0  0  0  0  0  0
   -4.3240   -3.3610   -2.5810 C   0  0  0  0  0  0  0  0  0  0  0  0
   -3.5430   -3.5110   -1.2940 C   0  0  0  0  0  0  0  0  0  0  0  0
   -3.9780   -2.4970   -0.2890 C   0  0  0  0  0  0  0  0  0  0  0  0
   -2.0770   -3.6440   -1.4850 C   0  0  0  0  0  0  0  0  0  0  0  0
   -1.3890   -2.5150   -2.1720 C   0  0  2  0  0  0  0  0  0  0  0  0
   -1.5160   -1.2380   -1.4900 N   0  0  0  0  0  0  0  0  0  0  0  0
   -1.6910   -2.4270   -3.5990 C   0  0  0  0  0  0  0  0  0  0  0  0
   -2.0170   -1.3370   -4.1110 O   0  0  0  0  0  0  0  0  0  0  0  0
   -1.6190   -3.5510   -4.3920 O   0  0  0  0  0  0  0  0  0  0  0  0
   -4.0660   -4.1480   -3.2970 H   0  0  0  0  0  0  0  0  0  0  0  0
   -5.4010   -3.5540   -2.2990 H   0  0  0  0  0  0  0  0  0  0  0  0
   -4.3130   -2.3390   -2.9830 H   0  0  0  0  0  0  0  0  0  0  0  0
   -3.8860   -4.5130   -0.8790 H   0  0  0  0  0  0  0  0  0  0  0  0
   -3.1460   -2.1540    0.3470 H   0  0  0  0  0  0  0  0  0  0  0  0
   -4.7610   -2.9060    0.4200 H   0  0  0  0  0  0  0  0  0  0  0  0
   -4.5240   -1.6630   -0.8050 H   0  0  0  0  0  0  0  0  0  0  0  0
   -1.6120   -3.7860   -0.4900 H   0  0  0  0  0  0  0  0  0  0  0  0
   -1.8720   -4.5630   -2.0570 H   0  0  0  0  0  0  0  0  0  0  0  0
   -0.2830   -2.7620   -2.1070 H   0  0  0  0  0  0  0  0  0  0  0  0
   -2.4210   -0.7230   -1.4180 H   0  0  0  0  0  0  0  0  0  0  0  0
  1 13  1  0  0  0  0
  2 12  1  0  0  0  0
  2  1  1  0  0  0  0
  3  2  2  0  0  0  0
  4  5  2  0  0  0  0
  4  3  1  0  0  0  0
  5 11  1  0  0  0  0
  6 17  1  0  0  0  0
  6  7  1  0  0  0  0
  6  5  1  0  0  0  0
  7 18  1  6  0  0  0
  7  8  1  0  0  0  0
  8 19  1  0  0  0  0
  8 20  1  0  0  0  0
  9  7  1  0  0  0  0
  9 10  2  0  0  0  0
 11 21  1  0  0  0  0
 11 12  2  0  0  0  0
 12 22  1  0  0  0  0
 14  3  1  0  0  0  0
 15  4  1  0  0  0  0
 16  6  1  0  0  0  0
 23 32  1  0  0  0  0
 23 30  1  0  0  0  0
 24 33  1  6  0  0  0
 24 23  1  0  0  0  0
 24 26  1  0  0  0  0
 25 34  1  0  0  0  0
 25 24  1  0  0  0  0
 26 27  1  0  0  0  0
 26 35  1  1  0  0  0
 27  9  1  0  0  0  0
 28 26  1  0  0  0  0
 29 28  2  0  0  0  0
 31 23  1  0  0  0  0
 36 27  1  0  0  0  0
 37 47  1  0  0  0  0
 37 38  1  0  0  0  0
 38 49  1  0  0  0  0
 38 39  1  0  0  0  0
 39 50  1  0  0  0  0
 39 51  1  0  0  0  0
 40 38  1  0  0  0  0
 40 53  1  0  0  0  0
 41 55  1  1  0  0  0
 41 42  1  0  0  0  0
 41 40  1  0  0  0  0
 42 56  1  0  0  0  0
 42 28  1  0  0  0  0
 43 41  1  0  0  0  0
 44 43  1  0  0  0  0
 45 43  2  0  0  0  0
 46 37  1  0  0  0  0
 48 37  1  0  0  0  0
 52 39  1  0  0  0  0
 54 40  1  0  0  0  0
M  END
$$$$
