YTM.pdb
 OpenBabel07022419233D

 54 54  0  0  1  0  0  0  0  0999 V2000
    1.8500   -2.9150    5.7570 O   0  0  0  0  0  0  0  0  0  0  0  0
    2.2170   -2.4550    4.4900 C   0  0  0  0  0  0  0  0  0  0  0  0
    1.2730   -2.3130    3.5080 C   0  0  0  0  0  0  0  0  0  0  0  0
    1.6840   -1.8590    2.2820 C   0  0  0  0  0  0  0  0  0  0  0  0
    2.9830   -1.5470    2.0120 C   0  0  0  0  0  0  0  0  0  0  0  0
    3.3660   -1.0630    0.6620 C   0  0  0  0  0  0  0  0  0  0  0  0
    3.2240    0.4510    0.6180 C   0  0  2  0  0  0  0  0  0  0  0  0
    4.1220    0.9490    1.6560 N   0  0  0  0  0  0  0  0  0  0  0  0
    1.8660    0.8950    0.9360 C   0  0  0  0  0  0  0  0  0  0  0  0
    1.5980    1.4960    2.0280 O   0  0  0  0  0  0  0  0  0  0  0  0
    3.9350   -1.6830    2.9830 C   0  0  0  0  0  0  0  0  0  0  0  0
    3.5400   -2.1410    4.2280 C   0  0  0  0  0  0  0  0  0  0  0  0
    1.3310   -2.2570    6.3530 H   0  0  0  0  0  0  0  0  0  0  0  0
    0.2320   -2.5600    3.7150 H   0  0  0  0  0  0  0  0  0  0  0  0
    0.9500   -1.7450    1.5150 H   0  0  0  0  0  0  0  0  0  0  0  0
    4.4310   -1.3320    0.5070 H   0  0  0  0  0  0  0  0  0  0  0  0
    2.7730   -1.5570   -0.1310 H   0  0  0  0  0  0  0  0  0  0  0  0
    3.5680    0.7650   -0.3860 H   0  0  0  0  0  0  0  0  0  0  0  0
    3.9190    1.9330    1.9090 H   0  0  0  0  0  0  0  0  0  0  0  0
    5.1210    0.7800    1.4110 H   0  0  0  0  0  0  0  0  0  0  0  0
    4.9940   -1.4430    2.8050 H   0  0  0  0  0  0  0  0  0  0  0  0
    4.3190   -2.2420    4.9860 H   0  0  0  0  0  0  0  0  0  0  0  0
   -0.1460    3.5690   -0.0750 C   0  0  0  0  0  0  0  0  0  0  0  0
   -0.9990    2.3660   -0.4020 C   0  0  1  0  0  0  0  0  0  0  0  0
   -1.0240    2.0930   -1.7610 O   0  0  0  0  0  0  0  0  0  0  0  0
   -0.5670    1.1540    0.4210 C   0  0  2  0  0  0  0  0  0  0  0  0
    0.7390    0.7030    0.0720 N   0  0  0  0  0  0  0  0  0  0  0  0
   -1.5710    0.0870    0.2440 C   0  0  0  0  0  0  0  0  0  0  0  0
   -2.7610    0.3830    0.5430 O   0  0  0  0  0  0  0  0  0  0  0  0
    0.7220    3.5320   -0.7910 H   0  0  0  0  0  0  0  0  0  0  0  0
    0.1800    3.5970    0.9670 H   0  0  0  0  0  0  0  0  0  0  0  0
   -0.6720    4.5250   -0.2760 H   0  0  0  0  0  0  0  0  0  0  0  0
   -2.0390    2.6070   -0.0990 H   0  0  0  0  0  0  0  0  0  0  0  0
   -0.8670    2.8980   -2.3030 H   0  0  0  0  0  0  0  0  0  0  0  0
   -0.6390    1.5100    1.4760 H   0  0  0  0  0  0  0  0  0  0  0  0
    0.9260    0.2150   -0.8260 H   0  0  0  0  0  0  0  0  0  0  0  0
   -5.8580   -1.5370   -2.4730 C   0  0  0  0  0  0  0  0  0  0  0  0
   -4.3700   -0.5440   -2.2390 S   0  0  0  0  0  0  0  0  0  0  0  0
   -2.8720   -1.4200   -2.7000 C   0  0  0  0  0  0  0  0  0  0  0  0
   -2.5740   -2.6030   -1.8040 C   0  0  0  0  0  0  0  0  0  0  0  0
   -2.3930   -2.1480   -0.3580 C   0  0  2  0  0  0  0  0  0  0  0  0
   -1.3140   -1.2200   -0.2300 N   0  0  0  0  0  0  0  0  0  0  0  0
   -2.1870   -3.3570    0.4690 C   0  0  0  0  0  0  0  0  0  0  0  0
   -3.0610   -4.2720    0.4610 O   0  0  0  0  0  0  0  0  0  0  0  0
   -1.0740   -3.5420    1.2590 O   0  0  0  0  0  0  0  0  0  0  0  0
   -6.2260   -1.9640   -1.5050 H   0  0  0  0  0  0  0  0  0  0  0  0
   -5.7390   -2.3430   -3.2190 H   0  0  0  0  0  0  0  0  0  0  0  0
   -6.6620   -0.8660   -2.8360 H   0  0  0  0  0  0  0  0  0  0  0  0
   -2.0350   -0.6940   -2.7080 H   0  0  0  0  0  0  0  0  0  0  0  0
   -2.9880   -1.7610   -3.7490 H   0  0  0  0  0  0  0  0  0  0  0  0
   -3.3370   -3.3770   -1.8730 H   0  0  0  0  0  0  0  0  0  0  0  0
   -1.6190   -3.0400   -2.1730 H   0  0  0  0  0  0  0  0  0  0  0  0
   -3.3590   -1.6820   -0.0600 H   0  0  0  0  0  0  0  0  0  0  0  0
   -0.3300   -1.4960   -0.4860 H   0  0  0  0  0  0  0  0  0  0  0  0
  1 13  1  0  0  0  0
  2  1  1  0  0  0  0
  3 14  1  0  0  0  0
  3  2  2  0  0  0  0
  4  3  1  0  0  0  0
  5  4  2  0  0  0  0
  5 11  1  0  0  0  0
  6  5  1  0  0  0  0
  7 18  1  6  0  0  0
  7  6  1  0  0  0  0
  7  9  1  0  0  0  0
  7  8  1  0  0  0  0
  8 19  1  0  0  0  0
  9 10  2  0  0  0  0
 11 12  2  0  0  0  0
 12  2  1  0  0  0  0
 12 22  1  0  0  0  0
 15  4  1  0  0  0  0
 16  6  1  0  0  0  0
 17  6  1  0  0  0  0
 20  8  1  0  0  0  0
 21 11  1  0  0  0  0
 23 31  1  0  0  0  0
 24 33  1  1  0  0  0
 24 23  1  0  0  0  0
 24 26  1  0  0  0  0
 25 24  1  0  0  0  0
 26 35  1  1  0  0  0
 27 26  1  0  0  0  0
 27  9  1  0  0  0  0
 28 26  1  0  0  0  0
 28 29  2  0  0  0  0
 30 23  1  0  0  0  0
 32 23  1  0  0  0  0
 34 25  1  0  0  0  0
 36 27  1  0  0  0  0
 37 38  1  0  0  0  0
 37 46  1  0  0  0  0
 39 38  1  0  0  0  0
 39 40  1  0  0  0  0
 40 41  1  0  0  0  0
 41 42  1  0  0  0  0
 41 53  1  1  0  0  0
 41 43  1  0  0  0  0
 42 28  1  0  0  0  0
 43 45  1  0  0  0  0
 44 43  2  0  0  0  0
 47 37  1  0  0  0  0
 48 37  1  0  0  0  0
 49 39  1  0  0  0  0
 50 39  1  0  0  0  0
 51 40  1  0  0  0  0
 52 40  1  0  0  0  0
 54 42  1  0  0  0  0
M  END
$$$$
