YTN.pdb
 OpenBabel07022419233D

 51 51  0  0  1  0  0  0  0  0999 V2000
    4.6000   -3.1150    3.1510 O   0  0  0  0  0  0  0  0  0  0  0  0
    4.0350   -2.2410    2.2480 C   0  0  0  0  0  0  0  0  0  0  0  0
    2.7000   -2.3320    1.9120 C   0  0  0  0  0  0  0  0  0  0  0  0
    2.2180   -1.4200    1.0040 C   0  0  0  0  0  0  0  0  0  0  0  0
    3.0140   -0.4480    0.4380 C   0  0  0  0  0  0  0  0  0  0  0  0
    2.4670    0.5330   -0.5510 C   0  0  0  0  0  0  0  0  0  0  0  0
    1.9070    1.7520    0.1630 C   0  0  2  0  0  0  0  0  0  0  0  0
    3.0410    2.3070    0.9170 N   0  0  0  0  0  0  0  0  0  0  0  0
    0.8470    1.4340    1.1180 C   0  0  0  0  0  0  0  0  0  0  0  0
    1.0600    1.4310    2.3480 O   0  0  0  0  0  0  0  0  0  0  0  0
    4.3390   -0.3630    0.7760 C   0  0  0  0  0  0  0  0  0  0  0  0
    4.8480   -1.2680    1.6870 C   0  0  0  0  0  0  0  0  0  0  0  0
    4.9020   -2.7940    4.0650 H   0  0  0  0  0  0  0  0  0  0  0  0
    2.0690   -3.0900    2.3510 H   0  0  0  0  0  0  0  0  0  0  0  0
    1.1880   -1.4350    0.7040 H   0  0  0  0  0  0  0  0  0  0  0  0
    3.2850    0.8790   -1.2110 H   0  0  0  0  0  0  0  0  0  0  0  0
    1.7030    0.0690   -1.1950 H   0  0  0  0  0  0  0  0  0  0  0  0
    1.6300    2.4850   -0.6080 H   0  0  0  0  0  0  0  0  0  0  0  0
    2.7510    3.2430    1.2700 H   0  0  0  0  0  0  0  0  0  0  0  0
    3.8400    2.4720    0.2420 H   0  0  0  0  0  0  0  0  0  0  0  0
    5.0020    0.3770    0.3630 H   0  0  0  0  0  0  0  0  0  0  0  0
    5.8910   -1.1980    1.9490 H   0  0  0  0  0  0  0  0  0  0  0  0
   -3.5440    2.2440    1.1600 C   0  0  0  0  0  0  0  0  0  0  0  0
   -2.5820    1.6840    2.1230 C   0  0  1  0  0  0  0  0  0  0  0  0
   -3.3880    1.0200    3.0660 O   0  0  0  0  0  0  0  0  0  0  0  0
   -1.4880    0.8110    1.7400 C   0  0  2  0  0  0  0  0  0  0  0  0
   -0.4870    1.1090    0.8390 N   0  0  0  0  0  0  0  0  0  0  0  0
   -2.0830   -0.5120    1.4160 C   0  0  0  0  0  0  0  0  0  0  0  0
   -3.0300   -0.9500    2.1590 O   0  0  0  0  0  0  0  0  0  0  0  0
   -4.3090    2.8100    1.7490 H   0  0  0  0  0  0  0  0  0  0  0  0
   -3.1450    3.0140    0.4730 H   0  0  0  0  0  0  0  0  0  0  0  0
   -4.1790    1.4870    0.6360 H   0  0  0  0  0  0  0  0  0  0  0  0
   -2.2100    2.5610    2.7050 H   0  0  0  0  0  0  0  0  0  0  0  0
   -4.0100    1.6250    3.5180 H   0  0  0  0  0  0  0  0  0  0  0  0
   -0.9460    0.5950    2.6960 H   0  0  0  0  0  0  0  0  0  0  0  0
   -0.7630    1.0890   -0.2000 H   0  0  0  0  0  0  0  0  0  0  0  0
   -1.6180   -3.4740   -3.2740 N   0  0  0  0  0  0  0  0  0  0  0  0
   -2.0560   -2.4920   -2.3800 C   0  0  0  0  0  0  0  0  0  0  0  0
   -1.6180   -1.3160   -2.5330 O   0  0  0  0  0  0  0  0  0  0  0  0
   -3.0030   -2.7190   -1.2580 C   0  0  0  0  0  0  0  0  0  0  0  0
   -2.3410   -2.6310    0.0810 C   0  0  2  0  0  0  0  0  0  0  0  0
   -1.7280   -1.3670    0.3640 N   0  0  0  0  0  0  0  0  0  0  0  0
   -1.4890   -3.8030    0.3040 C   0  0  0  0  0  0  0  0  0  0  0  0
   -0.3300   -3.6740    0.7250 O   0  0  0  0  0  0  0  0  0  0  0  0
   -1.9840   -5.0620    0.0420 O   0  0  0  0  0  0  0  0  0  0  0  0
   -2.2190   -4.2570   -3.6040 H   0  0  0  0  0  0  0  0  0  0  0  0
   -0.6430   -3.4340   -3.6360 H   0  0  0  0  0  0  0  0  0  0  0  0
   -3.3610   -3.7660   -1.3700 H   0  0  0  0  0  0  0  0  0  0  0  0
   -3.8950   -2.0820   -1.3130 H   0  0  0  0  0  0  0  0  0  0  0  0
   -3.1750   -2.7240    0.8430 H   0  0  0  0  0  0  0  0  0  0  0  0
   -0.9560   -1.0550   -0.2650 H   0  0  0  0  0  0  0  0  0  0  0  0
  1 13  1  0  0  0  0
  2  1  1  0  0  0  0
  3  2  1  0  0  0  0
  3 14  1  0  0  0  0
  4  3  2  0  0  0  0
  5 11  2  0  0  0  0
  5  4  1  0  0  0  0
  6  7  1  0  0  0  0
  6  5  1  0  0  0  0
  7 18  1  6  0  0  0
  7  8  1  0  0  0  0
  7  9  1  0  0  0  0
  8 19  1  0  0  0  0
  9 10  2  0  0  0  0
 11 12  1  0  0  0  0
 12 22  1  0  0  0  0
 12  2  2  0  0  0  0
 15  4  1  0  0  0  0
 16  6  1  0  0  0  0
 17  6  1  0  0  0  0
 20  8  1  0  0  0  0
 21 11  1  0  0  0  0
 23 30  1  0  0  0  0
 23 24  1  0  0  0  0
 24 33  1  1  0  0  0
 24 25  1  0  0  0  0
 25 34  1  0  0  0  0
 26 24  1  0  0  0  0
 26 35  1  1  0  0  0
 27  9  1  0  0  0  0
 27 26  1  0  0  0  0
 28 26  1  0  0  0  0
 28 29  2  0  0  0  0
 31 23  1  0  0  0  0
 32 23  1  0  0  0  0
 36 27  1  0  0  0  0
 37 38  1  0  0  0  0
 38 40  1  0  0  0  0
 39 38  2  0  0  0  0
 40 41  1  0  0  0  0
 41 43  1  0  0  0  0
 41 42  1  0  0  0  0
 41 50  1  1  0  0  0
 42 28  1  0  0  0  0
 43 44  1  0  0  0  0
 45 43  2  0  0  0  0
 46 37  1  0  0  0  0
 47 37  1  0  0  0  0
 48 40  1  0  0  0  0
 49 40  1  0  0  0  0
 51 42  1  0  0  0  0
M  END
$$$$
