YTP.pdb
 OpenBabel07022419233D

 51 52  0  0  1  0  0  0  0  0999 V2000
    6.4160   -2.6200    2.5920 O   0  0  0  0  0  0  0  0  0  0  0  0
    5.4740   -2.2940    1.6250 C   0  0  0  0  0  0  0  0  0  0  0  0
    5.1560   -3.1320    0.5840 C   0  0  0  0  0  0  0  0  0  0  0  0
    4.2160   -2.7570   -0.3440 C   0  0  0  0  0  0  0  0  0  0  0  0
    3.5920   -1.5430   -0.2340 C   0  0  0  0  0  0  0  0  0  0  0  0
    2.5830   -1.1300   -1.2320 C   0  0  0  0  0  0  0  0  0  0  0  0
    1.1910   -1.5710   -0.8730 C   0  0  2  0  0  0  0  0  0  0  0  0
    0.3170   -1.0940   -1.9430 N   0  0  0  0  0  0  0  0  0  0  0  0
    0.7280   -1.0890    0.4430 C   0  0  0  0  0  0  0  0  0  0  0  0
    1.3410   -1.4290    1.4770 O   0  0  0  0  0  0  0  0  0  0  0  0
    3.8980   -0.7040    0.7930 C   0  0  0  0  0  0  0  0  0  0  0  0
    4.8450   -1.0820    1.7270 C   0  0  0  0  0  0  0  0  0  0  0  0
    6.3650   -3.4150    3.1930 H   0  0  0  0  0  0  0  0  0  0  0  0
    5.6610   -4.0920    0.5110 H   0  0  0  0  0  0  0  0  0  0  0  0
    3.9390   -3.4020   -1.1870 H   0  0  0  0  0  0  0  0  0  0  0  0
    2.5780   -0.0190   -1.3460 H   0  0  0  0  0  0  0  0  0  0  0  0
    2.7980   -1.5580   -2.2390 H   0  0  0  0  0  0  0  0  0  0  0  0
    1.1770   -2.6830   -0.9190 H   0  0  0  0  0  0  0  0  0  0  0  0
   -0.0320   -1.8610   -2.5250 H   0  0  0  0  0  0  0  0  0  0  0  0
    0.7880   -0.3970   -2.5540 H   0  0  0  0  0  0  0  0  0  0  0  0
    3.4280    0.2660    0.9180 H   0  0  0  0  0  0  0  0  0  0  0  0
    5.0910   -0.4180    2.5450 H   0  0  0  0  0  0  0  0  0  0  0  0
    1.0820    1.7580    2.0270 C   0  0  0  0  0  0  0  0  0  0  0  0
   -0.4170    1.7310    2.0010 C   0  0  1  0  0  0  0  0  0  0  0  0
   -0.8660    2.5350    0.9810 O   0  0  0  0  0  0  0  0  0  0  0  0
   -0.9080    0.2620    1.7970 C   0  0  2  0  0  0  0  0  0  0  0  0
   -0.4130   -0.2350    0.5720 N   0  0  0  0  0  0  0  0  0  0  0  0
   -2.3490    0.2460    2.0380 C   0  0  0  0  0  0  0  0  0  0  0  0
   -2.7080    0.9460    3.1070 O   0  0  0  0  0  0  0  0  0  0  0  0
    1.5240    1.7230    1.0090 H   0  0  0  0  0  0  0  0  0  0  0  0
    1.3720    2.7640    2.4350 H   0  0  0  0  0  0  0  0  0  0  0  0
    1.5290    1.0150    2.7220 H   0  0  0  0  0  0  0  0  0  0  0  0
   -0.7850    2.0130    3.0040 H   0  0  0  0  0  0  0  0  0  0  0  0
   -1.6270    3.0880    1.3300 H   0  0  0  0  0  0  0  0  0  0  0  0
   -0.3610   -0.2640    2.6360 H   0  0  0  0  0  0  0  0  0  0  0  0
   -0.8860    0.0210   -0.3230 H   0  0  0  0  0  0  0  0  0  0  0  0
   -3.4120   -0.3390    1.3820 N   0  0  0  0  0  0  0  0  0  0  0  0
   -4.8500   -0.0170    1.7650 C   0  0  0  0  0  0  0  0  0  0  0  0
   -5.3180    0.4380    0.3680 C   0  0  0  0  0  0  0  0  0  0  0  0
   -4.4300   -0.3610   -0.6240 C   0  0  0  0  0  0  0  0  0  0  0  0
   -3.6940   -1.2710    0.3300 C   0  0  1  0  0  0  0  0  0  0  0  0
   -2.7340   -2.1890   -0.1640 C   0  0  0  0  0  0  0  0  0  0  0  0
   -1.9350   -2.7860    0.5960 O   0  0  0  0  0  0  0  0  0  0  0  0
   -2.5990   -2.5010   -1.5310 O   0  0  0  0  0  0  0  0  0  0  0  0
   -4.8830    0.7640    2.5070 H   0  0  0  0  0  0  0  0  0  0  0  0
   -5.2960   -0.9760    1.9860 H   0  0  0  0  0  0  0  0  0  0  0  0
   -5.1680    1.5200    0.2320 H   0  0  0  0  0  0  0  0  0  0  0  0
   -6.3780    0.2050    0.2060 H   0  0  0  0  0  0  0  0  0  0  0  0
   -5.1110   -0.9690   -1.2460 H   0  0  0  0  0  0  0  0  0  0  0  0
   -3.7790    0.3000   -1.1940 H   0  0  0  0  0  0  0  0  0  0  0  0
   -4.5860   -1.9020    0.8080 H   0  0  0  0  0  0  0  0  0  0  0  0
  1 13  1  0  0  0  0
  2 12  1  0  0  0  0
  2  1  1  0  0  0  0
  3  2  2  0  0  0  0
  4  5  2  0  0  0  0
  4  3  1  0  0  0  0
  5 11  1  0  0  0  0
  6  7  1  0  0  0  0
  6  5  1  0  0  0  0
  7 18  1  1  0  0  0
  7  9  1  0  0  0  0
  8  7  1  0  0  0  0
  9 27  1  0  0  0  0
  9 10  2  0  0  0  0
 11 21  1  0  0  0  0
 11 12  2  0  0  0  0
 12 22  1  0  0  0  0
 14  3  1  0  0  0  0
 15  4  1  0  0  0  0
 16  6  1  0  0  0  0
 17  6  1  0  0  0  0
 19  8  1  0  0  0  0
 20  8  1  0  0  0  0
 23 31  1  0  0  0  0
 23 32  1  0  0  0  0
 24 23  1  0  0  0  0
 24 33  1  1  0  0  0
 25 34  1  0  0  0  0
 25 24  1  0  0  0  0
 26 24  1  0  0  0  0
 26 28  1  0  0  0  0
 26 35  1  1  0  0  0
 27 26  1  0  0  0  0
 28 29  2  0  0  0  0
 30 23  1  0  0  0  0
 36 27  1  0  0  0  0
 37 38  1  0  0  0  0
 37 28  1  0  0  0  0
 38 46  1  0  0  0  0
 38 45  1  0  0  0  0
 39 38  1  0  0  0  0
 40 41  1  0  0  0  0
 40 39  1  0  0  0  0
 41 51  1  1  0  0  0
 41 37  1  0  0  0  0
 42 41  1  0  0  0  0
 42 43  1  0  0  0  0
 44 42  2  0  0  0  0
 47 39  1  0  0  0  0
 48 39  1  0  0  0  0
 49 40  1  0  0  0  0
 50 40  1  0  0  0  0
M  END
$$$$
