YTQ.pdb
 OpenBabel07022419233D

 54 54  0  0  1  0  0  0  0  0999 V2000
    2.9980    3.5320    0.4740 O   0  0  0  0  0  0  0  0  0  0  0  0
    2.7540    2.4240   -0.3260 C   0  0  0  0  0  0  0  0  0  0  0  0
    1.4810    2.0210   -0.6690 C   0  0  0  0  0  0  0  0  0  0  0  0
    1.2640    0.9140   -1.4670 C   0  0  0  0  0  0  0  0  0  0  0  0
    2.3000    0.1530   -1.9640 C   0  0  0  0  0  0  0  0  0  0  0  0
    2.1560   -1.0270   -2.8200 C   0  0  0  0  0  0  0  0  0  0  0  0
    2.1250   -2.3490   -2.1530 C   0  0  2  0  0  0  0  0  0  0  0  0
    1.9860   -3.3900   -3.2130 N   0  0  0  0  0  0  0  0  0  0  0  0
    1.1410   -2.5790   -1.1080 C   0  0  0  0  0  0  0  0  0  0  0  0
    0.2240   -3.4610   -1.3200 O   0  0  0  0  0  0  0  0  0  0  0  0
    3.5940    0.5620   -1.6150 C   0  0  0  0  0  0  0  0  0  0  0  0
    3.7970    1.6680   -0.8180 C   0  0  0  0  0  0  0  0  0  0  0  0
    3.4130    3.3610    1.4020 H   0  0  0  0  0  0  0  0  0  0  0  0
    0.6580    2.6150   -0.2810 H   0  0  0  0  0  0  0  0  0  0  0  0
    0.2660    0.6100   -1.7270 H   0  0  0  0  0  0  0  0  0  0  0  0
    1.3190   -0.8780   -3.5480 H   0  0  0  0  0  0  0  0  0  0  0  0
    3.0680   -1.0390   -3.4960 H   0  0  0  0  0  0  0  0  0  0  0  0
    3.1490   -2.5460   -1.7260 H   0  0  0  0  0  0  0  0  0  0  0  0
    1.0990   -3.1400   -3.6920 H   0  0  0  0  0  0  0  0  0  0  0  0
    2.7580   -3.2130   -3.9240 H   0  0  0  0  0  0  0  0  0  0  0  0
    4.4340   -0.0170   -1.9910 H   0  0  0  0  0  0  0  0  0  0  0  0
    4.8060    1.9870   -0.5470 H   0  0  0  0  0  0  0  0  0  0  0  0
   -0.2470   -3.5680    3.2880 C   0  0  0  0  0  0  0  0  0  0  0  0
    0.7340   -2.9890    2.2980 C   0  0  1  0  0  0  0  0  0  0  0  0
    1.3710   -4.1320    1.7360 O   0  0  0  0  0  0  0  0  0  0  0  0
    0.0360   -2.2660    1.1320 C   0  0  2  0  0  0  0  0  0  0  0  0
    1.0790   -1.9290    0.1490 N   0  0  0  0  0  0  0  0  0  0  0  0
   -0.6650   -1.0450    1.5640 C   0  0  0  0  0  0  0  0  0  0  0  0
   -0.2600    0.1120    1.2470 O   0  0  0  0  0  0  0  0  0  0  0  0
   -0.5340   -2.7770    4.0070 H   0  0  0  0  0  0  0  0  0  0  0  0
    0.2740   -4.3570    3.9010 H   0  0  0  0  0  0  0  0  0  0  0  0
   -1.1400   -4.0130    2.8040 H   0  0  0  0  0  0  0  0  0  0  0  0
    1.4460   -2.3360    2.8220 H   0  0  0  0  0  0  0  0  0  0  0  0
    1.6340   -4.7210    2.4850 H   0  0  0  0  0  0  0  0  0  0  0  0
   -0.6210   -3.0090    0.6630 H   0  0  0  0  0  0  0  0  0  0  0  0
    1.7650   -1.2080    0.4070 H   0  0  0  0  0  0  0  0  0  0  0  0
   -2.9160    1.4080   -1.3220 N   0  0  0  0  0  0  0  0  0  0  0  0
   -3.2200    1.2690    0.0680 C   0  0  0  0  0  0  0  0  0  0  0  0
   -2.9320    2.2460    0.7870 O   0  0  0  0  0  0  0  0  0  0  0  0
   -3.8330    0.0650    0.6290 C   0  0  0  0  0  0  0  0  0  0  0  0
   -3.8890    0.0580    2.1280 C   0  0  0  0  0  0  0  0  0  0  0  0
   -2.5390    0.1020    2.7980 C   0  0  2  0  0  0  0  0  0  0  0  0
   -1.8220   -1.0850    2.3480 N   0  0  0  0  0  0  0  0  0  0  0  0
   -2.7000    0.1550    4.2440 C   0  0  0  0  0  0  0  0  0  0  0  0
   -2.2500   -0.7490    4.9680 O   0  0  0  0  0  0  0  0  0  0  0  0
   -3.3540    1.2100    4.8300 O   0  0  0  0  0  0  0  0  0  0  0  0
   -3.4930    2.0180   -1.9100 H   0  0  0  0  0  0  0  0  0  0  0  0
   -2.1160    0.8940   -1.7370 H   0  0  0  0  0  0  0  0  0  0  0  0
   -4.9020   -0.0590    0.2870 H   0  0  0  0  0  0  0  0  0  0  0  0
   -3.2240   -0.8140    0.2760 H   0  0  0  0  0  0  0  0  0  0  0  0
   -4.5560    0.8650    2.4990 H   0  0  0  0  0  0  0  0  0  0  0  0
   -4.3980   -0.9050    2.4130 H   0  0  0  0  0  0  0  0  0  0  0  0
   -1.9730    0.9540    2.3770 H   0  0  0  0  0  0  0  0  0  0  0  0
   -2.2530   -1.9740    2.6470 H   0  0  0  0  0  0  0  0  0  0  0  0
  1 13  1  0  0  0  0
  2  1  1  0  0  0  0
  3  2  1  0  0  0  0
  3 14  1  0  0  0  0
  4  3  2  0  0  0  0
  5 11  2  0  0  0  0
  5  4  1  0  0  0  0
  6  7  1  0  0  0  0
  6  5  1  0  0  0  0
  7 18  1  1  0  0  0
  7  9  1  0  0  0  0
  8  7  1  0  0  0  0
  9 27  1  0  0  0  0
 10  9  2  0  0  0  0
 11 12  1  0  0  0  0
 12 22  1  0  0  0  0
 12  2  2  0  0  0  0
 15  4  1  0  0  0  0
 16  6  1  0  0  0  0
 17  6  1  0  0  0  0
 19  8  1  0  0  0  0
 20  8  1  0  0  0  0
 21 11  1  0  0  0  0
 23 31  1  0  0  0  0
 23 30  1  0  0  0  0
 24 33  1  1  0  0  0
 24 23  1  0  0  0  0
 25 24  1  0  0  0  0
 25 34  1  0  0  0  0
 26 35  1  6  0  0  0
 26 28  1  0  0  0  0
 26 24  1  0  0  0  0
 27 36  1  0  0  0  0
 27 26  1  0  0  0  0
 28 43  1  0  0  0  0
 29 28  2  0  0  0  0
 32 23  1  0  0  0  0
 37 38  1  0  0  0  0
 38 40  1  0  0  0  0
 38 39  2  0  0  0  0
 40 41  1  0  0  0  0
 41 52  1  0  0  0  0
 41 51  1  0  0  0  0
 41 42  1  0  0  0  0
 42 53  1  6  0  0  0
 42 44  1  0  0  0  0
 43 54  1  0  0  0  0
 43 42  1  0  0  0  0
 44 46  2  0  0  0  0
 44 45  1  0  0  0  0
 47 37  1  0  0  0  0
 48 37  1  0  0  0  0
 49 40  1  0  0  0  0
 50 40  1  0  0  0  0
M  END
$$$$
