YTS.pdb
 OpenBabel07022419233D

 48 48  0  0  1  0  0  0  0  0999 V2000
    6.4300   -3.0000    1.8220 O   0  0  0  0  0  0  0  0  0  0  0  0
    5.5600   -2.0490    1.2750 C   0  0  0  0  0  0  0  0  0  0  0  0
    4.7470   -1.2660    2.0620 C   0  0  0  0  0  0  0  0  0  0  0  0
    3.8920   -0.3310    1.5250 C   0  0  0  0  0  0  0  0  0  0  0  0
    3.8600   -0.1870    0.1560 C   0  0  0  0  0  0  0  0  0  0  0  0
    2.9460    0.8110   -0.4110 C   0  0  0  0  0  0  0  0  0  0  0  0
    1.5780    0.2840   -0.7460 C   0  0  2  0  0  0  0  0  0  0  0  0
    0.8250    1.3920   -1.2860 N   0  0  0  0  0  0  0  0  0  0  0  0
    0.8930   -0.3950    0.3630 C   0  0  0  0  0  0  0  0  0  0  0  0
    1.4420   -1.3960    0.8920 O   0  0  0  0  0  0  0  0  0  0  0  0
    4.6640   -0.9590   -0.6540 C   0  0  0  0  0  0  0  0  0  0  0  0
    5.5180   -1.8930   -0.1050 C   0  0  0  0  0  0  0  0  0  0  0  0
    6.0560   -3.9520    1.8820 H   0  0  0  0  0  0  0  0  0  0  0  0
    4.7690   -1.3770    3.1470 H   0  0  0  0  0  0  0  0  0  0  0  0
    3.2490    0.2860    2.1780 H   0  0  0  0  0  0  0  0  0  0  0  0
    3.3740    1.2170   -1.3580 H   0  0  0  0  0  0  0  0  0  0  0  0
    2.8060    1.6350    0.3220 H   0  0  0  0  0  0  0  0  0  0  0  0
    1.6980   -0.4550   -1.5790 H   0  0  0  0  0  0  0  0  0  0  0  0
    0.9970    1.5480   -2.2960 H   0  0  0  0  0  0  0  0  0  0  0  0
    0.8830    2.2490   -0.7040 H   0  0  0  0  0  0  0  0  0  0  0  0
    4.6560   -0.8620   -1.7440 H   0  0  0  0  0  0  0  0  0  0  0  0
    6.1720   -2.5270   -0.6900 H   0  0  0  0  0  0  0  0  0  0  0  0
   -2.0060    1.4120    2.8540 C   0  0  0  0  0  0  0  0  0  0  0  0
   -1.1460    0.2130    3.1930 C   0  0  1  0  0  0  0  0  0  0  0  0
   -1.7550   -0.4930    4.2250 O   0  0  0  0  0  0  0  0  0  0  0  0
   -0.9780   -0.7050    1.9770 C   0  0  2  0  0  0  0  0  0  0  0  0
   -0.3540   -0.0100    0.8950 N   0  0  0  0  0  0  0  0  0  0  0  0
   -2.3150   -1.2420    1.6410 C   0  0  0  0  0  0  0  0  0  0  0  0
   -2.9260   -1.8660    2.5400 O   0  0  0  0  0  0  0  0  0  0  0  0
   -2.7000    1.1980    2.0230 H   0  0  0  0  0  0  0  0  0  0  0  0
   -2.6330    1.6870    3.7310 H   0  0  0  0  0  0  0  0  0  0  0  0
   -1.4050    2.3070    2.5880 H   0  0  0  0  0  0  0  0  0  0  0  0
   -0.1670    0.5760    3.5140 H   0  0  0  0  0  0  0  0  0  0  0  0
   -1.1060   -0.9710    4.8030 H   0  0  0  0  0  0  0  0  0  0  0  0
   -0.3750   -1.5700    2.3430 H   0  0  0  0  0  0  0  0  0  0  0  0
   -0.8410    0.8130    0.4850 H   0  0  0  0  0  0  0  0  0  0  0  0
   -4.8440    0.1190   -1.3150 O   0  0  0  0  0  0  0  0  0  0  0  0
   -5.2790   -0.5700   -0.1860 C   0  0  0  0  0  0  0  0  0  0  0  0
   -4.2560   -1.6520    0.1240 C   0  0  2  0  0  0  0  0  0  0  0  0
   -2.9510   -1.1030    0.3830 N   0  0  0  0  0  0  0  0  0  0  0  0
   -4.2390   -2.6620   -0.9590 C   0  0  0  0  0  0  0  0  0  0  0  0
   -5.2850   -3.2520   -1.3270 O   0  0  0  0  0  0  0  0  0  0  0  0
   -3.0540   -2.9820   -1.5990 O   0  0  0  0  0  0  0  0  0  0  0  0
   -4.3560   -0.5270   -1.8720 H   0  0  0  0  0  0  0  0  0  0  0  0
   -6.2580   -1.0430   -0.3160 H   0  0  0  0  0  0  0  0  0  0  0  0
   -5.3150    0.0980    0.7010 H   0  0  0  0  0  0  0  0  0  0  0  0
   -4.6130   -2.1590    1.0440 H   0  0  0  0  0  0  0  0  0  0  0  0
   -2.4070   -0.5730   -0.3490 H   0  0  0  0  0  0  0  0  0  0  0  0
  1 13  1  0  0  0  0
  2  1  1  0  0  0  0
  2  3  1  0  0  0  0
  3 14  1  0  0  0  0
  4  3  2  0  0  0  0
  4 15  1  0  0  0  0
  5  4  1  0  0  0  0
  6  5  1  0  0  0  0
  6 17  1  0  0  0  0
  7 18  1  6  0  0  0
  7  6  1  0  0  0  0
  7  9  1  0  0  0  0
  8  7  1  0  0  0  0
  8 20  1  0  0  0  0
  9 10  2  0  0  0  0
  9 27  1  0  0  0  0
 11 12  1  0  0  0  0
 11  5  2  0  0  0  0
 12  2  2  0  0  0  0
 16  6  1  0  0  0  0
 19  8  1  0  0  0  0
 21 11  1  0  0  0  0
 22 12  1  0  0  0  0
 23 24  1  0  0  0  0
 23 31  1  0  0  0  0
 24 33  1  1  0  0  0
 24 25  1  0  0  0  0
 25 34  1  0  0  0  0
 26 35  1  1  0  0  0
 26 24  1  0  0  0  0
 27 26  1  0  0  0  0
 28 26  1  0  0  0  0
 28 29  2  0  0  0  0
 30 23  1  0  0  0  0
 32 23  1  0  0  0  0
 36 27  1  0  0  0  0
 37 38  1  0  0  0  0
 38 39  1  0  0  0  0
 38 46  1  0  0  0  0
 39 40  1  0  0  0  0
 39 47  1  1  0  0  0
 40 28  1  0  0  0  0
 41 39  1  0  0  0  0
 42 41  1  0  0  0  0
 43 41  2  0  0  0  0
 44 37  1  0  0  0  0
 45 38  1  0  0  0  0
 48 40  1  0  0  0  0
M  END
$$$$
