YTT.pdb
 OpenBabel07022419233D

 51 51  0  0  1  0  0  0  0  0999 V2000
    4.3320   -4.0980    4.0300 O   0  0  0  0  0  0  0  0  0  0  0  0
    4.1370   -3.6590    2.7060 C   0  0  0  0  0  0  0  0  0  0  0  0
    3.0670   -4.1200    1.9680 C   0  0  0  0  0  0  0  0  0  0  0  0
    2.9150   -3.6630    0.6790 C   0  0  0  0  0  0  0  0  0  0  0  0
    3.7910   -2.7730    0.1180 C   0  0  0  0  0  0  0  0  0  0  0  0
    3.5500   -2.3370   -1.2720 C   0  0  0  0  0  0  0  0  0  0  0  0
    2.6920   -1.1200   -1.3870 C   0  0  2  0  0  0  0  0  0  0  0  0
    3.2550    0.0340   -0.7220 N   0  0  0  0  0  0  0  0  0  0  0  0
    1.2770   -1.3460   -0.9840 C   0  0  0  0  0  0  0  0  0  0  0  0
    0.6510   -2.3200   -1.4760 O   0  0  0  0  0  0  0  0  0  0  0  0
    4.8420   -2.3250    0.8550 C   0  0  0  0  0  0  0  0  0  0  0  0
    5.0180   -2.7620    2.1390 C   0  0  0  0  0  0  0  0  0  0  0  0
    4.1840   -3.4820    4.8160 H   0  0  0  0  0  0  0  0  0  0  0  0
    2.3780   -4.8190    2.4070 H   0  0  0  0  0  0  0  0  0  0  0  0
    2.0570   -4.0560    0.1400 H   0  0  0  0  0  0  0  0  0  0  0  0
    4.4900   -2.1420   -1.8270 H   0  0  0  0  0  0  0  0  0  0  0  0
    3.0400   -3.1600   -1.8180 H   0  0  0  0  0  0  0  0  0  0  0  0
    2.6860   -0.8510   -2.4870 H   0  0  0  0  0  0  0  0  0  0  0  0
    2.6940    0.8640   -1.0570 H   0  0  0  0  0  0  0  0  0  0  0  0
    4.2100    0.1790   -1.1390 H   0  0  0  0  0  0  0  0  0  0  0  0
    5.5710   -1.6090    0.4440 H   0  0  0  0  0  0  0  0  0  0  0  0
    5.8350   -2.4410    2.7730 H   0  0  0  0  0  0  0  0  0  0  0  0
   -0.2560   -2.0750    2.3760 C   0  0  0  0  0  0  0  0  0  0  0  0
   -0.7950   -0.7830    1.8870 C   0  0  1  0  0  0  0  0  0  0  0  0
   -0.2940    0.3380    2.5040 O   0  0  0  0  0  0  0  0  0  0  0  0
   -0.6910   -0.6260    0.3680 C   0  0  2  0  0  0  0  0  0  0  0  0
    0.6820   -0.4480   -0.0550 N   0  0  0  0  0  0  0  0  0  0  0  0
   -1.4690    0.5940    0.0350 C   0  0  0  0  0  0  0  0  0  0  0  0
   -0.8560    1.5490   -0.5320 O   0  0  0  0  0  0  0  0  0  0  0  0
    0.3120   -1.8920    3.3350 H   0  0  0  0  0  0  0  0  0  0  0  0
    0.4270   -2.5870    1.7010 H   0  0  0  0  0  0  0  0  0  0  0  0
   -1.0580   -2.7930    2.6660 H   0  0  0  0  0  0  0  0  0  0  0  0
   -1.9060   -0.7860    2.0910 H   0  0  0  0  0  0  0  0  0  0  0  0
   -0.4470    1.1170    1.9150 H   0  0  0  0  0  0  0  0  0  0  0  0
   -1.1150   -1.5180   -0.1360 H   0  0  0  0  0  0  0  0  0  0  0  0
    1.2700    0.3390    0.3100 H   0  0  0  0  0  0  0  0  0  0  0  0
   -5.6290    0.7350   -0.2760 C   0  0  0  0  0  0  0  0  0  0  0  0
   -4.6700    1.6580   -0.9860 C   0  0  1  0  0  0  0  0  0  0  0  0
   -5.2760    2.8750   -1.2970 O   0  0  0  0  0  0  0  0  0  0  0  0
   -3.5260    1.9400   -0.0330 C   0  0  2  0  0  0  0  0  0  0  0  0
   -2.8540    0.7150    0.3290 N   0  0  0  0  0  0  0  0  0  0  0  0
   -4.0030    2.6010    1.2020 C   0  0  0  0  0  0  0  0  0  0  0  0
   -4.6300    3.7000    1.1820 O   0  0  0  0  0  0  0  0  0  0  0  0
   -3.7690    2.0200    2.4350 O   0  0  0  0  0  0  0  0  0  0  0  0
   -6.5800    1.2840   -0.1320 H   0  0  0  0  0  0  0  0  0  0  0  0
   -5.8290   -0.1450   -0.9250 H   0  0  0  0  0  0  0  0  0  0  0  0
   -5.2820    0.4400    0.7300 H   0  0  0  0  0  0  0  0  0  0  0  0
   -4.2440    1.2360   -1.8960 H   0  0  0  0  0  0  0  0  0  0  0  0
   -4.6010    3.6160   -1.2910 H   0  0  0  0  0  0  0  0  0  0  0  0
   -2.8140    2.6470   -0.5200 H   0  0  0  0  0  0  0  0  0  0  0  0
   -3.3130   -0.0880    0.7920 H   0  0  0  0  0  0  0  0  0  0  0  0
  1 13  1  0  0  0  0
  2  1  1  0  0  0  0
  3 14  1  0  0  0  0
  3  2  2  0  0  0  0
  4  3  1  0  0  0  0
  5  4  2  0  0  0  0
  5 11  1  0  0  0  0
  6  5  1  0  0  0  0
  7 18  1  6  0  0  0
  7  6  1  0  0  0  0
  7  9  1  0  0  0  0
  7  8  1  0  0  0  0
  9 27  1  0  0  0  0
 10  9  2  0  0  0  0
 11 12  2  0  0  0  0
 12  2  1  0  0  0  0
 12 22  1  0  0  0  0
 15  4  1  0  0  0  0
 16  6  1  0  0  0  0
 17  6  1  0  0  0  0
 19  8  1  0  0  0  0
 20  8  1  0  0  0  0
 21 11  1  0  0  0  0
 23 32  1  0  0  0  0
 23 30  1  0  0  0  0
 24 33  1  1  0  0  0
 24 23  1  0  0  0  0
 24 25  1  0  0  0  0
 26 35  1  6  0  0  0
 26 24  1  0  0  0  0
 27 36  1  0  0  0  0
 27 26  1  0  0  0  0
 28 41  1  0  0  0  0
 28 26  1  0  0  0  0
 29 28  2  0  0  0  0
 31 23  1  0  0  0  0
 34 25  1  0  0  0  0
 37 45  1  0  0  0  0
 37 47  1  0  0  0  0
 38 48  1  6  0  0  0
 38 37  1  0  0  0  0
 38 40  1  0  0  0  0
 39 49  1  0  0  0  0
 39 38  1  0  0  0  0
 40 50  1  6  0  0  0
 40 41  1  0  0  0  0
 40 42  1  0  0  0  0
 41 51  1  0  0  0  0
 42 44  1  0  0  0  0
 43 42  2  0  0  0  0
 46 37  1  0  0  0  0
M  END
$$$$
