YTV.pdb
 OpenBabel07022419233D

 53 53  0  0  1  0  0  0  0  0999 V2000
    1.1820    3.1600    6.4810 O   0  0  0  0  0  0  0  0  0  0  0  0
    1.7970    2.5770    5.3820 C   0  0  0  0  0  0  0  0  0  0  0  0
    1.4940    2.9500    4.0900 C   0  0  0  0  0  0  0  0  0  0  0  0
    2.1330    2.3400    3.0330 C   0  0  0  0  0  0  0  0  0  0  0  0
    3.0870    1.3470    3.1860 C   0  0  0  0  0  0  0  0  0  0  0  0
    3.7560    0.7000    2.0360 C   0  0  0  0  0  0  0  0  0  0  0  0
    3.0220   -0.5550    1.6540 C   0  0  2  0  0  0  0  0  0  0  0  0
    3.6820   -1.1950    0.5150 N   0  0  0  0  0  0  0  0  0  0  0  0
    1.6280   -0.2920    1.2460 C   0  0  0  0  0  0  0  0  0  0  0  0
    0.8150    0.1430    2.1180 O   0  0  0  0  0  0  0  0  0  0  0  0
    3.3850    0.9770    4.5010 C   0  0  0  0  0  0  0  0  0  0  0  0
    2.7420    1.5920    5.5490 C   0  0  0  0  0  0  0  0  0  0  0  0
    0.6820    2.6010    7.1720 H   0  0  0  0  0  0  0  0  0  0  0  0
    0.7550    3.7210    3.9120 H   0  0  0  0  0  0  0  0  0  0  0  0
    1.8930    2.6430    2.0020 H   0  0  0  0  0  0  0  0  0  0  0  0
    3.8940    1.3930    1.1810 H   0  0  0  0  0  0  0  0  0  0  0  0
    4.7670    0.4010    2.3890 H   0  0  0  0  0  0  0  0  0  0  0  0
    3.0590   -1.2330    2.5340 H   0  0  0  0  0  0  0  0  0  0  0  0
    3.7110   -2.2210    0.7160 H   0  0  0  0  0  0  0  0  0  0  0  0
    4.6670   -0.8330    0.5050 H   0  0  0  0  0  0  0  0  0  0  0  0
    4.1280    0.2030    4.6440 H   0  0  0  0  0  0  0  0  0  0  0  0
    2.9800    1.2990    6.5760 H   0  0  0  0  0  0  0  0  0  0  0  0
   -1.4370    1.2790   -1.9740 C   0  0  0  0  0  0  0  0  0  0  0  0
   -0.0720    0.8310   -1.5580 C   0  0  1  0  0  0  0  0  0  0  0  0
    0.5360    1.9580   -0.9520 O   0  0  0  0  0  0  0  0  0  0  0  0
   -0.2050   -0.2570   -0.5130 C   0  0  2  0  0  0  0  0  0  0  0  0
    1.1800   -0.5100   -0.0770 N   0  0  0  0  0  0  0  0  0  0  0  0
   -0.7730   -1.5100   -1.0030 C   0  0  0  0  0  0  0  0  0  0  0  0
   -0.0070   -2.5330   -1.0510 O   0  0  0  0  0  0  0  0  0  0  0  0
   -2.1080    1.3000   -1.1110 H   0  0  0  0  0  0  0  0  0  0  0  0
   -1.8190    0.6830   -2.8280 H   0  0  0  0  0  0  0  0  0  0  0  0
   -1.3380    2.3540   -2.3010 H   0  0  0  0  0  0  0  0  0  0  0  0
    0.5200    0.5360   -2.4180 H   0  0  0  0  0  0  0  0  0  0  0  0
   -0.1700    2.3900   -0.4040 H   0  0  0  0  0  0  0  0  0  0  0  0
   -0.7450    0.1100    0.3700 H   0  0  0  0  0  0  0  0  0  0  0  0
    1.8270   -0.8640   -0.8020 H   0  0  0  0  0  0  0  0  0  0  0  0
   -3.2410   -3.7540    0.3790 C   0  0  0  0  0  0  0  0  0  0  0  0
   -3.6540   -3.5830   -1.0790 C   0  0  0  0  0  0  0  0  0  0  0  0
   -3.9230   -4.9700   -1.6220 C   0  0  0  0  0  0  0  0  0  0  0  0
   -2.5170   -3.0080   -1.8960 C   0  0  2  0  0  0  0  0  0  0  0  0
   -2.0860   -1.7280   -1.4350 N   0  0  0  0  0  0  0  0  0  0  0  0
   -2.9750   -2.9240   -3.3050 C   0  0  0  0  0  0  0  0  0  0  0  0
   -2.9350   -1.8000   -3.8980 O   0  0  0  0  0  0  0  0  0  0  0  0
   -3.4460   -4.0090   -4.0170 O   0  0  0  0  0  0  0  0  0  0  0  0
   -4.1320   -4.1520    0.9090 H   0  0  0  0  0  0  0  0  0  0  0  0
   -2.4530   -4.5280    0.4590 H   0  0  0  0  0  0  0  0  0  0  0  0
   -2.9620   -2.7920    0.8280 H   0  0  0  0  0  0  0  0  0  0  0  0
   -4.5690   -2.9900   -1.1170 H   0  0  0  0  0  0  0  0  0  0  0  0
   -4.7610   -4.9770   -2.3480 H   0  0  0  0  0  0  0  0  0  0  0  0
   -3.0120   -5.3610   -2.1610 H   0  0  0  0  0  0  0  0  0  0  0  0
   -4.0850   -5.6860   -0.7900 H   0  0  0  0  0  0  0  0  0  0  0  0
   -1.7040   -3.7790   -1.8700 H   0  0  0  0  0  0  0  0  0  0  0  0
   -2.7760   -0.9510   -1.4190 H   0  0  0  0  0  0  0  0  0  0  0  0
  1 13  1  0  0  0  0
  2 12  1  0  0  0  0
  2  1  1  0  0  0  0
  3  2  2  0  0  0  0
  4  5  2  0  0  0  0
  4  3  1  0  0  0  0
  5 11  1  0  0  0  0
  6 17  1  0  0  0  0
  6  5  1  0  0  0  0
  7  6  1  0  0  0  0
  7 18  1  1  0  0  0
  8 19  1  0  0  0  0
  8  7  1  0  0  0  0
  9  7  1  0  0  0  0
  9 10  2  0  0  0  0
 11 21  1  0  0  0  0
 11 12  2  0  0  0  0
 12 22  1  0  0  0  0
 14  3  1  0  0  0  0
 15  4  1  0  0  0  0
 16  6  1  0  0  0  0
 20  8  1  0  0  0  0
 23 24  1  0  0  0  0
 23 30  1  0  0  0  0
 24 33  1  6  0  0  0
 24 25  1  0  0  0  0
 24 26  1  0  0  0  0
 25 34  1  0  0  0  0
 26 27  1  0  0  0  0
 26 35  1  1  0  0  0
 27  9  1  0  0  0  0
 28 26  1  0  0  0  0
 29 28  2  0  0  0  0
 31 23  1  0  0  0  0
 32 23  1  0  0  0  0
 36 27  1  0  0  0  0
 37 46  1  0  0  0  0
 37 47  1  0  0  0  0
 37 45  1  0  0  0  0
 38 37  1  0  0  0  0
 39 38  1  0  0  0  0
 39 51  1  0  0  0  0
 40 52  1  1  0  0  0
 40 41  1  0  0  0  0
 40 38  1  0  0  0  0
 41 53  1  0  0  0  0
 41 28  1  0  0  0  0
 42 40  1  0  0  0  0
 43 42  1  0  0  0  0
 44 42  2  0  0  0  0
 48 38  1  0  0  0  0
 49 39  1  0  0  0  0
 50 39  1  0  0  0  0
M  END
$$$$
