YTY.pdb
 OpenBabel07022419233D

 58 59  0  0  1  0  0  0  0  0999 V2000
    0.8950   -5.3250    1.0510 O   0  0  0  0  0  0  0  0  0  0  0  0
    1.5950   -4.1690    1.4070 C   0  0  0  0  0  0  0  0  0  0  0  0
    1.0930   -3.2710    2.3250 C   0  0  0  0  0  0  0  0  0  0  0  0
    1.7830   -2.1300    2.6770 C   0  0  0  0  0  0  0  0  0  0  0  0
    3.0060   -1.8410    2.1220 C   0  0  0  0  0  0  0  0  0  0  0  0
    3.7810   -0.6650    2.4600 C   0  0  0  0  0  0  0  0  0  0  0  0
    3.6630    0.5530    1.6380 C   0  0  2  0  0  0  0  0  0  0  0  0
    4.6040    1.5260    2.2800 N   0  0  0  0  0  0  0  0  0  0  0  0
    2.4050    1.2470    1.5280 C   0  0  0  0  0  0  0  0  0  0  0  0
    2.2190    2.3200    2.1670 O   0  0  0  0  0  0  0  0  0  0  0  0
    3.5190   -2.7270    1.2050 C   0  0  0  0  0  0  0  0  0  0  0  0
    2.8270   -3.8590    0.8610 C   0  0  0  0  0  0  0  0  0  0  0  0
    0.6380   -5.9460    1.8280 H   0  0  0  0  0  0  0  0  0  0  0  0
    0.1350   -3.5100    2.7520 H   0  0  0  0  0  0  0  0  0  0  0  0
    1.3100   -1.4770    3.4110 H   0  0  0  0  0  0  0  0  0  0  0  0
    4.8970   -0.8950    2.5100 H   0  0  0  0  0  0  0  0  0  0  0  0
    3.5600   -0.4530    3.5570 H   0  0  0  0  0  0  0  0  0  0  0  0
    4.1250    0.4330    0.6130 H   0  0  0  0  0  0  0  0  0  0  0  0
    4.0540    1.8960    3.1010 H   0  0  0  0  0  0  0  0  0  0  0  0
    4.7380    2.3370    1.6480 H   0  0  0  0  0  0  0  0  0  0  0  0
    4.4760   -2.5310    0.7510 H   0  0  0  0  0  0  0  0  0  0  0  0
    3.2490   -4.5620    0.1240 H   0  0  0  0  0  0  0  0  0  0  0  0
   -0.2530    1.4810   -1.7740 C   0  0  0  0  0  0  0  0  0  0  0  0
   -0.0920    2.4040   -0.5840 C   0  0  1  0  0  0  0  0  0  0  0  0
   -1.3130    3.0800   -0.4470 O   0  0  0  0  0  0  0  0  0  0  0  0
    0.1110    1.6090    0.6770 C   0  0  2  0  0  0  0  0  0  0  0  0
    1.2930    0.8510    0.7370 N   0  0  0  0  0  0  0  0  0  0  0  0
   -1.1130    0.8430    0.9230 C   0  0  0  0  0  0  0  0  0  0  0  0
   -2.2070    1.5060    0.9360 O   0  0  0  0  0  0  0  0  0  0  0  0
   -1.3380    1.2650   -1.9700 H   0  0  0  0  0  0  0  0  0  0  0  0
    0.3430    0.5520   -1.6710 H   0  0  0  0  0  0  0  0  0  0  0  0
    0.1090    1.9670   -2.7220 H   0  0  0  0  0  0  0  0  0  0  0  0
    0.6550    3.1730   -0.7640 H   0  0  0  0  0  0  0  0  0  0  0  0
   -1.3420    3.6310    0.3640 H   0  0  0  0  0  0  0  0  0  0  0  0
    0.1650    2.3890    1.4950 H   0  0  0  0  0  0  0  0  0  0  0  0
    1.3310   -0.0450    0.1610 H   0  0  0  0  0  0  0  0  0  0  0  0
   -2.6160   -0.6020   -4.8310 O   0  0  0  0  0  0  0  0  0  0  0  0
   -2.6530   -1.0460   -3.4980 C   0  0  0  0  0  0  0  0  0  0  0  0
   -3.8640   -1.0250   -2.8520 C   0  0  0  0  0  0  0  0  0  0  0  0
   -3.9270   -1.4540   -1.5470 C   0  0  0  0  0  0  0  0  0  0  0  0
   -2.7720   -1.8870   -0.9440 C   0  0  0  0  0  0  0  0  0  0  0  0
   -2.7530   -2.3710    0.4720 C   0  0  0  0  0  0  0  0  0  0  0  0
   -2.4900   -1.2120    1.3850 C   0  0  2  0  0  0  0  0  0  0  0  0
   -1.2370   -0.5430    1.1480 N   0  0  0  0  0  0  0  0  0  0  0  0
   -2.5530   -1.7340    2.7980 C   0  0  0  0  0  0  0  0  0  0  0  0
   -3.6190   -2.3490    3.0960 O   0  0  0  0  0  0  0  0  0  0  0  0
   -1.5590   -1.9020   -1.6060 C   0  0  0  0  0  0  0  0  0  0  0  0
   -1.4900   -1.4760   -2.9050 C   0  0  0  0  0  0  0  0  0  0  0  0
   -1.5440   -1.5660    3.7060 O   0  0  0  0  0  0  0  0  0  0  0  0
   -3.3240    0.0530   -5.1690 H   0  0  0  0  0  0  0  0  0  0  0  0
   -4.7690   -0.6760   -3.3560 H   0  0  0  0  0  0  0  0  0  0  0  0
   -4.8650   -1.4550   -0.9960 H   0  0  0  0  0  0  0  0  0  0  0  0
   -3.7380   -2.8060    0.6650 H   0  0  0  0  0  0  0  0  0  0  0  0
   -1.9760   -3.1710    0.5990 H   0  0  0  0  0  0  0  0  0  0  0  0
   -3.3600   -0.5180    1.3110 H   0  0  0  0  0  0  0  0  0  0  0  0
   -0.3630   -1.1030    1.1310 H   0  0  0  0  0  0  0  0  0  0  0  0
   -0.6600   -2.2530   -1.0950 H   0  0  0  0  0  0  0  0  0  0  0  0
   -0.5730   -1.4750   -3.4430 H   0  0  0  0  0  0  0  0  0  0  0  0
  1  2  1  0  0  0  0
  1 13  1  0  0  0  0
  2  3  1  0  0  0  0
  3  4  2  0  0  0  0
  3 14  1  0  0  0  0
  4 15  1  0  0  0  0
  5  6  1  0  0  0  0
  5  4  1  0  0  0  0
  6 16  1  0  0  0  0
  6 17  1  0  0  0  0
  7 18  1  6  0  0  0
  7  8  1  0  0  0  0
  7  6  1  0  0  0  0
  8 19  1  0  0  0  0
  9  7  1  0  0  0  0
  9 10  2  0  0  0  0
 11  5  2  0  0  0  0
 12 11  1  0  0  0  0
 12  2  2  0  0  0  0
 20  8  1  0  0  0  0
 21 11  1  0  0  0  0
 22 12  1  0  0  0  0
 23 31  1  0  0  0  0
 23 24  1  0  0  0  0
 24 33  1  6  0  0  0
 24 25  1  0  0  0  0
 24 26  1  0  0  0  0
 25 34  1  0  0  0  0
 26 27  1  0  0  0  0
 26 28  1  0  0  0  0
 26 35  1  1  0  0  0
 27  9  1  0  0  0  0
 28 29  2  0  0  0  0
 28 44  1  0  0  0  0
 30 23  1  0  0  0  0
 32 23  1  0  0  0  0
 36 27  1  0  0  0  0
 37 38  1  0  0  0  0
 38 48  2  0  0  0  0
 38 39  1  0  0  0  0
 39 40  2  0  0  0  0
 40 52  1  0  0  0  0
 40 41  1  0  0  0  0
 41 42  1  0  0  0  0
 42 54  1  0  0  0  0
 42 53  1  0  0  0  0
 42 43  1  0  0  0  0
 43 55  1  6  0  0  0
 43 45  1  0  0  0  0
 44 43  1  0  0  0  0
 45 46  2  0  0  0  0
 45 49  1  0  0  0  0
 47 57  1  0  0  0  0
 47 41  2  0  0  0  0
 48 47  1  0  0  0  0
 50 37  1  0  0  0  0
 51 39  1  0  0  0  0
 56 44  1  0  0  0  0
 58 48  1  0  0  0  0
M  END
$$$$
