YVD.pdb
 OpenBabel07022419233D

 52 52  0  0  1  0  0  0  0  0999 V2000
    4.5550    2.3630    4.1110 O   0  0  0  0  0  0  0  0  0  0  0  0
    4.3330    1.6450    2.9420 C   0  0  0  0  0  0  0  0  0  0  0  0
    3.9470    0.3140    2.9860 C   0  0  0  0  0  0  0  0  0  0  0  0
    3.7280   -0.4000    1.8410 C   0  0  0  0  0  0  0  0  0  0  0  0
    3.8820    0.1790    0.6160 C   0  0  0  0  0  0  0  0  0  0  0  0
    3.6420   -0.5940   -0.6510 C   0  0  0  0  0  0  0  0  0  0  0  0
    2.2290   -0.4730   -1.1500 C   0  0  2  0  0  0  0  0  0  0  0  0
    1.8660    0.8900   -1.4380 N   0  0  0  0  0  0  0  0  0  0  0  0
    1.3170   -1.1430   -0.2290 C   0  0  0  0  0  0  0  0  0  0  0  0
    1.5800   -2.3120    0.1410 O   0  0  0  0  0  0  0  0  0  0  0  0
    4.2620    1.4920    0.5250 C   0  0  0  0  0  0  0  0  0  0  0  0
    4.4820    2.2060    1.6770 C   0  0  0  0  0  0  0  0  0  0  0  0
    5.0670    2.0090    4.8930 H   0  0  0  0  0  0  0  0  0  0  0  0
    3.8210   -0.1550    3.9610 H   0  0  0  0  0  0  0  0  0  0  0  0
    3.4310   -1.4310    1.9600 H   0  0  0  0  0  0  0  0  0  0  0  0
    3.9410   -1.6490   -0.5030 H   0  0  0  0  0  0  0  0  0  0  0  0
    4.3420   -0.1990   -1.4450 H   0  0  0  0  0  0  0  0  0  0  0  0
    2.2270   -0.9910   -2.1600 H   0  0  0  0  0  0  0  0  0  0  0  0
    2.6150    1.2730   -2.0880 H   0  0  0  0  0  0  0  0  0  0  0  0
    0.9590    0.9750   -1.9040 H   0  0  0  0  0  0  0  0  0  0  0  0
    4.3940    1.9820   -0.4430 H   0  0  0  0  0  0  0  0  0  0  0  0
    4.7880    3.2620    1.6260 H   0  0  0  0  0  0  0  0  0  0  0  0
    0.3830   -0.2460    3.1200 C   0  0  0  0  0  0  0  0  0  0  0  0
   -0.9640   -0.4570    2.4620 C   0  0  0  0  0  0  0  0  0  0  0  0
   -1.8160   -1.2200    3.4520 C   0  0  0  0  0  0  0  0  0  0  0  0
   -0.7480   -1.2580    1.1980 C   0  0  2  0  0  0  0  0  0  0  0  0
    0.1250   -0.5650    0.2940 N   0  0  0  0  0  0  0  0  0  0  0  0
   -2.0600   -1.5870    0.5550 C   0  0  0  0  0  0  0  0  0  0  0  0
   -2.9040   -2.1900    1.2390 O   0  0  0  0  0  0  0  0  0  0  0  0
    0.2650    0.2010    4.1440 H   0  0  0  0  0  0  0  0  0  0  0  0
    1.0420    0.4090    2.4890 H   0  0  0  0  0  0  0  0  0  0  0  0
    0.9410   -1.1920    3.2590 H   0  0  0  0  0  0  0  0  0  0  0  0
   -1.4060    0.5370    2.2260 H   0  0  0  0  0  0  0  0  0  0  0  0
   -1.5400   -0.8390    4.4680 H   0  0  0  0  0  0  0  0  0  0  0  0
   -2.8890   -1.0550    3.3160 H   0  0  0  0  0  0  0  0  0  0  0  0
   -1.5080   -2.2790    3.4250 H   0  0  0  0  0  0  0  0  0  0  0  0
   -0.3420   -2.2440    1.5070 H   0  0  0  0  0  0  0  0  0  0  0  0
   -0.1000    0.4050   -0.0080 H   0  0  0  0  0  0  0  0  0  0  0  0
   -2.2920   -1.2060   -0.7850 N   0  0  0  0  0  0  0  0  0  0  0  0
   -3.5580   -1.4920   -1.4860 C   0  0  1  0  0  0  0  0  0  0  0  0
   -3.8040   -2.9710   -1.5430 C   0  0  0  0  0  0  0  0  0  0  0  0
   -5.0270   -3.3770   -2.2420 C   0  0  0  0  0  0  0  0  0  0  0  0
   -5.3400   -4.6030   -2.1660 O   0  0  0  0  0  0  0  0  0  0  0  0
   -4.6520   -0.8680   -0.6860 C   0  0  0  0  0  0  0  0  0  0  0  0
   -4.3840   -0.2220    0.3800 O   0  0  0  0  0  0  0  0  0  0  0  0
   -5.8720   -2.5790   -2.9720 O   0  0  0  0  0  0  0  0  0  0  0  0
   -5.9930   -0.9270   -1.0080 O   0  0  0  0  0  0  0  0  0  0  0  0
   -1.5160   -0.7040   -1.2710 H   0  0  0  0  0  0  0  0  0  0  0  0
   -3.4940   -1.0360   -2.4830 H   0  0  0  0  0  0  0  0  0  0  0  0
   -2.9590   -3.5180   -2.0260 H   0  0  0  0  0  0  0  0  0  0  0  0
   -3.8560   -3.4040   -0.5020 H   0  0  0  0  0  0  0  0  0  0  0  0
   -6.8120   -2.9140   -3.2130 H   0  0  0  0  0  0  0  0  0  0  0  0
  1 13  1  0  0  0  0
  2  3  1  0  0  0  0
  2  1  1  0  0  0  0
  3 14  1  0  0  0  0
  4 15  1  0  0  0  0
  4  3  2  0  0  0  0
  5  4  1  0  0  0  0
  6 16  1  0  0  0  0
  6  5  1  0  0  0  0
  7 18  1  6  0  0  0
  7  6  1  0  0  0  0
  7  9  1  0  0  0  0
  8  7  1  0  0  0  0
  9 10  2  0  0  0  0
  9 27  1  0  0  0  0
 11  5  2  0  0  0  0
 11 12  1  0  0  0  0
 12  2  2  0  0  0  0
 17  6  1  0  0  0  0
 19  8  1  0  0  0  0
 20  8  1  0  0  0  0
 21 11  1  0  0  0  0
 22 12  1  0  0  0  0
 23 32  1  0  0  0  0
 23 30  1  0  0  0  0
 24 23  1  0  0  0  0
 24 25  1  0  0  0  0
 25 34  1  0  0  0  0
 26 37  1  1  0  0  0
 26 24  1  0  0  0  0
 27 26  1  0  0  0  0
 28 26  1  0  0  0  0
 28 29  2  0  0  0  0
 31 23  1  0  0  0  0
 33 24  1  0  0  0  0
 35 25  1  0  0  0  0
 36 25  1  0  0  0  0
 38 27  1  0  0  0  0
 39 28  1  0  0  0  0
 40 49  1  6  0  0  0
 40 39  1  0  0  0  0
 40 44  1  0  0  0  0
 41 40  1  0  0  0  0
 41 51  1  0  0  0  0
 42 43  2  0  0  0  0
 42 41  1  0  0  0  0
 44 45  1  0  0  0  0
 46 42  1  0  0  0  0
 47 44  2  0  0  0  0
 48 39  1  0  0  0  0
 50 41  1  0  0  0  0
 52 46  1  0  0  0  0
M  END
$$$$
