YVE.pdb
 OpenBabel07022419233D

 55 55  0  0  1  0  0  0  0  0999 V2000
   -4.6120   -2.2400    0.5400 O   0  0  0  0  0  0  0  0  0  0  0  0
   -3.9870   -1.0200    0.2800 C   0  0  0  0  0  0  0  0  0  0  0  0
   -3.0240   -0.9640   -0.6990 C   0  0  0  0  0  0  0  0  0  0  0  0
   -2.3830    0.2370   -0.9810 C   0  0  0  0  0  0  0  0  0  0  0  0
   -2.6770    1.3920   -0.3100 C   0  0  0  0  0  0  0  0  0  0  0  0
   -2.0100    2.6340   -0.6240 C   0  0  0  0  0  0  0  0  0  0  0  0
   -0.8270    3.0500    0.1600 C   0  0  2  0  0  0  0  0  0  0  0  0
   -0.4510    4.3750   -0.4460 N   0  0  0  0  0  0  0  0  0  0  0  0
    0.3940    2.2610    0.0790 C   0  0  0  0  0  0  0  0  0  0  0  0
    1.3610    2.6760   -0.6420 O   0  0  0  0  0  0  0  0  0  0  0  0
   -3.6540    1.3230    0.6800 C   0  0  0  0  0  0  0  0  0  0  0  0
   -4.2920    0.1320    0.9630 C   0  0  0  0  0  0  0  0  0  0  0  0
   -4.7740   -2.5760    1.4940 H   0  0  0  0  0  0  0  0  0  0  0  0
   -2.7790   -1.8650   -1.2430 H   0  0  0  0  0  0  0  0  0  0  0  0
   -1.6300    0.1820   -1.7770 H   0  0  0  0  0  0  0  0  0  0  0  0
   -2.7770    3.4740   -0.5570 H   0  0  0  0  0  0  0  0  0  0  0  0
   -1.7390    2.6530   -1.7130 H   0  0  0  0  0  0  0  0  0  0  0  0
   -1.0920    3.3030    1.2170 H   0  0  0  0  0  0  0  0  0  0  0  0
    0.4350    4.6910    0.0310 H   0  0  0  0  0  0  0  0  0  0  0  0
   -0.1510    4.1570   -1.4440 H   0  0  0  0  0  0  0  0  0  0  0  0
   -3.9490    2.1880    1.2600 H   0  0  0  0  0  0  0  0  0  0  0  0
   -5.0630    0.0480    1.7340 H   0  0  0  0  0  0  0  0  0  0  0  0
    4.1030   -0.1230    1.7540 C   0  0  0  0  0  0  0  0  0  0  0  0
    2.7730    0.5590    1.8860 C   0  0  0  0  0  0  0  0  0  0  0  0
    3.0220    2.0380    2.1030 C   0  0  0  0  0  0  0  0  0  0  0  0
    1.9320    0.3550    0.6080 C   0  0  2  0  0  0  0  0  0  0  0  0
    0.6560    1.0170    0.7540 N   0  0  0  0  0  0  0  0  0  0  0  0
    1.7920   -1.0550    0.2980 C   0  0  0  0  0  0  0  0  0  0  0  0
    2.8300   -1.7510    0.1060 O   0  0  0  0  0  0  0  0  0  0  0  0
    4.8830    0.3220    2.4010 H   0  0  0  0  0  0  0  0  0  0  0  0
    4.4940   -0.1230    0.7280 H   0  0  0  0  0  0  0  0  0  0  0  0
    3.9710   -1.1710    2.1150 H   0  0  0  0  0  0  0  0  0  0  0  0
    2.1600    0.1920    2.7230 H   0  0  0  0  0  0  0  0  0  0  0  0
    3.8130    2.2150    2.8560 H   0  0  0  0  0  0  0  0  0  0  0  0
    2.1160    2.5740    2.4590 H   0  0  0  0  0  0  0  0  0  0  0  0
    3.4230    2.5150    1.1620 H   0  0  0  0  0  0  0  0  0  0  0  0
    2.5620    0.8630   -0.1780 H   0  0  0  0  0  0  0  0  0  0  0  0
   -0.1210    0.6500    1.3310 H   0  0  0  0  0  0  0  0  0  0  0  0
    0.5510   -1.7130    0.1950 N   0  0  0  0  0  0  0  0  0  0  0  0
    0.4680   -3.1530   -0.1240 C   0  0  1  0  0  0  0  0  0  0  0  0
   -0.4930   -3.7320    0.8530 C   0  0  0  0  0  0  0  0  0  0  0  0
   -0.7530   -5.1950    0.7410 C   0  0  0  0  0  0  0  0  0  0  0  0
    0.4990   -5.9460    0.9410 C   0  0  0  0  0  0  0  0  0  0  0  0
    1.6010   -5.4120    1.2000 O   0  0  0  0  0  0  0  0  0  0  0  0
   -0.0250   -3.3280   -1.5170 C   0  0  0  0  0  0  0  0  0  0  0  0
   -0.3120   -2.3780   -2.2770 O   0  0  0  0  0  0  0  0  0  0  0  0
    0.4760   -7.3360    0.8400 O   0  0  0  0  0  0  0  0  0  0  0  0
   -0.1790   -4.6070   -2.0180 O   0  0  0  0  0  0  0  0  0  0  0  0
   -0.3610   -1.2380    0.3440 H   0  0  0  0  0  0  0  0  0  0  0  0
    1.4900   -3.5220   -0.1020 H   0  0  0  0  0  0  0  0  0  0  0  0
   -0.1600   -3.5410    1.8980 H   0  0  0  0  0  0  0  0  0  0  0  0
   -1.4910   -3.2240    0.6960 H   0  0  0  0  0  0  0  0  0  0  0  0
   -1.4230   -5.4670    1.5940 H   0  0  0  0  0  0  0  0  0  0  0  0
   -1.2940   -5.4900   -0.1980 H   0  0  0  0  0  0  0  0  0  0  0  0
    1.3470   -7.8620    0.9390 H   0  0  0  0  0  0  0  0  0  0  0  0
  1 13  1  0  0  0  0
  2  1  1  0  0  0  0
  2 12  1  0  0  0  0
  3  2  2  0  0  0  0
  4  3  1  0  0  0  0
  4  5  2  0  0  0  0
  5 11  1  0  0  0  0
  6 16  1  0  0  0  0
  6  5  1  0  0  0  0
  6  7  1  0  0  0  0
  7 18  1  1  0  0  0
  8 19  1  0  0  0  0
  8  7  1  0  0  0  0
  9  7  1  0  0  0  0
  9 27  1  0  0  0  0
 10  9  2  0  0  0  0
 11 12  2  0  0  0  0
 11 21  1  0  0  0  0
 12 22  1  0  0  0  0
 14  3  1  0  0  0  0
 15  4  1  0  0  0  0
 17  6  1  0  0  0  0
 20  8  1  0  0  0  0
 23 24  1  0  0  0  0
 23 32  1  0  0  0  0
 23 30  1  0  0  0  0
 24 25  1  0  0  0  0
 24 33  1  0  0  0  0
 25 35  1  0  0  0  0
 25 34  1  0  0  0  0
 26 37  1  6  0  0  0
 26 27  1  0  0  0  0
 26 24  1  0  0  0  0
 27 38  1  0  0  0  0
 28 26  1  0  0  0  0
 29 28  2  0  0  0  0
 31 23  1  0  0  0  0
 36 25  1  0  0  0  0
 39 28  1  0  0  0  0
 39 49  1  0  0  0  0
 40 50  1  1  0  0  0
 40 39  1  0  0  0  0
 40 41  1  0  0  0  0
 41 51  1  0  0  0  0
 42 41  1  0  0  0  0
 42 43  1  0  0  0  0
 42 53  1  0  0  0  0
 43 44  2  0  0  0  0
 45 40  1  0  0  0  0
 46 45  2  0  0  0  0
 47 55  1  0  0  0  0
 47 43  1  0  0  0  0
 48 45  1  0  0  0  0
 52 41  1  0  0  0  0
 54 42  1  0  0  0  0
M  END
$$$$
