YVF.pdb
 OpenBabel07022419243D

 59 60  0  0  1  0  0  0  0  0999 V2000
    0.0230   -3.1460    4.9370 O   0  0  0  0  0  0  0  0  0  0  0  0
    0.8910   -2.3610    4.1950 C   0  0  0  0  0  0  0  0  0  0  0  0
    1.2470   -2.6110    2.8850 C   0  0  0  0  0  0  0  0  0  0  0  0
    2.1190   -1.8120    2.1640 C   0  0  0  0  0  0  0  0  0  0  0  0
    2.6740   -0.7050    2.7560 C   0  0  0  0  0  0  0  0  0  0  0  0
    3.6090    0.1460    1.9700 C   0  0  0  0  0  0  0  0  0  0  0  0
    2.9620    1.2700    1.2460 C   0  0  2  0  0  0  0  0  0  0  0  0
    2.2650    2.1910    2.1110 N   0  0  0  0  0  0  0  0  0  0  0  0
    2.1480    0.8840    0.0670 C   0  0  0  0  0  0  0  0  0  0  0  0
    2.6480    0.2480   -0.8870 O   0  0  0  0  0  0  0  0  0  0  0  0
    2.3510   -0.4150    4.0550 C   0  0  0  0  0  0  0  0  0  0  0  0
    1.4840   -1.2260    4.7430 C   0  0  0  0  0  0  0  0  0  0  0  0
   -0.9290   -2.9480    5.1230 H   0  0  0  0  0  0  0  0  0  0  0  0
    0.7990   -3.4960    2.4130 H   0  0  0  0  0  0  0  0  0  0  0  0
    2.3550   -2.0810    1.1200 H   0  0  0  0  0  0  0  0  0  0  0  0
    4.0980   -0.5110    1.2040 H   0  0  0  0  0  0  0  0  0  0  0  0
    4.4310    0.5260    2.5960 H   0  0  0  0  0  0  0  0  0  0  0  0
    3.8140    1.8820    0.8070 H   0  0  0  0  0  0  0  0  0  0  0  0
    1.8580    2.9970    1.6180 H   0  0  0  0  0  0  0  0  0  0  0  0
    1.6410    1.7690    2.7970 H   0  0  0  0  0  0  0  0  0  0  0  0
    2.7860    0.4710    4.5490 H   0  0  0  0  0  0  0  0  0  0  0  0
    1.2130   -1.0140    5.7770 H   0  0  0  0  0  0  0  0  0  0  0  0
    1.3150    1.4400   -2.9650 C   0  0  0  0  0  0  0  0  0  0  0  0
    0.3200    0.4720   -2.3250 C   0  0  0  0  0  0  0  0  0  0  0  0
   -0.8720    0.4330   -3.2590 C   0  0  0  0  0  0  0  0  0  0  0  0
   -0.1750    1.0160   -1.0030 C   0  0  2  0  0  0  0  0  0  0  0  0
    0.8030    1.2240   -0.0030 N   0  0  0  0  0  0  0  0  0  0  0  0
   -1.3510    0.2640   -0.5590 C   0  0  0  0  0  0  0  0  0  0  0  0
   -2.4060    0.0910   -1.2180 O   0  0  0  0  0  0  0  0  0  0  0  0
    0.8020    1.9430   -3.8360 H   0  0  0  0  0  0  0  0  0  0  0  0
    1.5500    2.2690   -2.2690 H   0  0  0  0  0  0  0  0  0  0  0  0
    2.1940    0.9510   -3.4090 H   0  0  0  0  0  0  0  0  0  0  0  0
    0.7270   -0.5360   -2.2870 H   0  0  0  0  0  0  0  0  0  0  0  0
   -1.4070   -0.5240   -3.1440 H   0  0  0  0  0  0  0  0  0  0  0  0
   -0.5420    0.5790   -4.3230 H   0  0  0  0  0  0  0  0  0  0  0  0
   -1.5720    1.2480   -2.9880 H   0  0  0  0  0  0  0  0  0  0  0  0
   -0.5110    2.0610   -1.3130 H   0  0  0  0  0  0  0  0  0  0  0  0
    0.4260    1.7440    0.8560 H   0  0  0  0  0  0  0  0  0  0  0  0
   -1.3750   -0.3650    0.7490 N   0  0  0  0  0  0  0  0  0  0  0  0
   -2.5290   -1.0980    1.1880 C   0  0  1  0  0  0  0  0  0  0  0  0
   -2.3310   -2.6020    1.0270 C   0  0  0  0  0  0  0  0  0  0  0  0
   -2.1030   -2.8910   -0.4150 C   0  0  0  0  0  0  0  0  0  0  0  0
   -3.2140   -3.1470   -1.1980 C   0  0  0  0  0  0  0  0  0  0  0  0
   -3.1250   -3.4240   -2.5370 C   0  0  0  0  0  0  0  0  0  0  0  0
   -1.8650   -3.4450   -3.1080 C   0  0  0  0  0  0  0  0  0  0  0  0
   -0.7610   -3.1950   -2.3430 C   0  0  0  0  0  0  0  0  0  0  0  0
   -0.8690   -2.9170   -1.0010 C   0  0  0  0  0  0  0  0  0  0  0  0
   -2.8460   -0.8050    2.5880 C   0  0  0  0  0  0  0  0  0  0  0  0
   -2.1220   -0.0240    3.2380 O   0  0  0  0  0  0  0  0  0  0  0  0
   -3.9450   -1.3960    3.1780 O   0  0  0  0  0  0  0  0  0  0  0  0
   -0.5490   -0.2730    1.3470 H   0  0  0  0  0  0  0  0  0  0  0  0
   -3.3780   -0.8670    0.4760 H   0  0  0  0  0  0  0  0  0  0  0  0
   -1.5130   -2.9630    1.6690 H   0  0  0  0  0  0  0  0  0  0  0  0
   -3.2680   -3.0790    1.3380 H   0  0  0  0  0  0  0  0  0  0  0  0
   -4.2190   -3.1340   -0.7640 H   0  0  0  0  0  0  0  0  0  0  0  0
   -4.0160   -3.6200   -3.1230 H   0  0  0  0  0  0  0  0  0  0  0  0
   -1.8140   -3.6660   -4.1670 H   0  0  0  0  0  0  0  0  0  0  0  0
    0.2400   -3.2090   -2.7930 H   0  0  0  0  0  0  0  0  0  0  0  0
    0.0020   -2.7170   -0.4030 H   0  0  0  0  0  0  0  0  0  0  0  0
  1 13  1  0  0  0  0
  2 12  1  0  0  0  0
  2  1  1  0  0  0  0
  3  2  2  0  0  0  0
  4  5  2  0  0  0  0
  4  3  1  0  0  0  0
  5 11  1  0  0  0  0
  6 17  1  0  0  0  0
  6  5  1  0  0  0  0
  7 18  1  6  0  0  0
  7  6  1  0  0  0  0
  7  8  1  0  0  0  0
  8 20  1  0  0  0  0
  9  7  1  0  0  0  0
 10  9  2  0  0  0  0
 11 21  1  0  0  0  0
 11 12  2  0  0  0  0
 12 22  1  0  0  0  0
 14  3  1  0  0  0  0
 15  4  1  0  0  0  0
 16  6  1  0  0  0  0
 19  8  1  0  0  0  0
 23 24  1  0  0  0  0
 23 31  1  0  0  0  0
 24 33  1  0  0  0  0
 24 26  1  0  0  0  0
 25 34  1  0  0  0  0
 25 36  1  0  0  0  0
 25 24  1  0  0  0  0
 26 37  1  6  0  0  0
 26 28  1  0  0  0  0
 26 27  1  0  0  0  0
 27  9  1  0  0  0  0
 27 38  1  0  0  0  0
 28 39  1  0  0  0  0
 29 28  2  0  0  0  0
 30 23  1  0  0  0  0
 32 23  1  0  0  0  0
 35 25  1  0  0  0  0
 39 40  1  0  0  0  0
 39 51  1  0  0  0  0
 40 52  1  6  0  0  0
 40 48  1  0  0  0  0
 41 40  1  0  0  0  0
 41 54  1  0  0  0  0
 41 53  1  0  0  0  0
 42 41  1  0  0  0  0
 43 55  1  0  0  0  0
 43 42  2  0  0  0  0
 44 43  1  0  0  0  0
 45 44  2  0  0  0  0
 45 46  1  0  0  0  0
 46 47  2  0  0  0  0
 47 42  1  0  0  0  0
 47 59  1  0  0  0  0
 48 50  2  0  0  0  0
 48 49  1  0  0  0  0
 56 44  1  0  0  0  0
 57 45  1  0  0  0  0
 58 46  1  0  0  0  0
M  END
$$$$
