YVG.pdb
 OpenBabel07022419233D

 46 46  0  0  1  0  0  0  0  0999 V2000
    1.5100   -0.7860    6.1440 O   0  0  0  0  0  0  0  0  0  0  0  0
    1.6300   -1.4510    4.9300 C   0  0  0  0  0  0  0  0  0  0  0  0
    0.5100   -1.9720    4.3430 C   0  0  0  0  0  0  0  0  0  0  0  0
    0.6330   -2.6330    3.1330 C   0  0  0  0  0  0  0  0  0  0  0  0
    1.8670   -2.7610    2.5340 C   0  0  0  0  0  0  0  0  0  0  0  0
    1.9490   -3.4770    1.2450 C   0  0  0  0  0  0  0  0  0  0  0  0
    1.7830   -2.5570    0.0490 C   0  0  2  0  0  0  0  0  0  0  0  0
    2.8330   -1.5650    0.0880 N   0  0  0  0  0  0  0  0  0  0  0  0
    0.4380   -1.9440   -0.0090 C   0  0  0  0  0  0  0  0  0  0  0  0
   -0.6230   -2.6180   -0.0190 O   0  0  0  0  0  0  0  0  0  0  0  0
    2.9760   -2.2290    3.1440 C   0  0  0  0  0  0  0  0  0  0  0  0
    2.8570   -1.5720    4.3450 C   0  0  0  0  0  0  0  0  0  0  0  0
    1.1720   -1.2400    6.9800 H   0  0  0  0  0  0  0  0  0  0  0  0
   -0.4530   -1.8520    4.8470 H   0  0  0  0  0  0  0  0  0  0  0  0
   -0.2740   -3.0310    2.7010 H   0  0  0  0  0  0  0  0  0  0  0  0
    2.9290   -3.9950    1.2240 H   0  0  0  0  0  0  0  0  0  0  0  0
    1.1850   -4.2800    1.1980 H   0  0  0  0  0  0  0  0  0  0  0  0
    1.9920   -3.1560   -0.8880 H   0  0  0  0  0  0  0  0  0  0  0  0
    2.7770   -1.0460    0.9920 H   0  0  0  0  0  0  0  0  0  0  0  0
    3.7830   -1.9870    0.0360 H   0  0  0  0  0  0  0  0  0  0  0  0
    3.9490   -2.3190    2.6910 H   0  0  0  0  0  0  0  0  0  0  0  0
    3.7090   -1.1360    4.8620 H   0  0  0  0  0  0  0  0  0  0  0  0
   -0.2430    2.1490    1.0630 C   0  0  0  0  0  0  0  0  0  0  0  0
   -1.2790    1.0350    1.0550 C   0  0  0  0  0  0  0  0  0  0  0  0
   -1.1370    0.3080    2.3720 C   0  0  0  0  0  0  0  0  0  0  0  0
   -1.0490    0.1000   -0.1200 C   0  0  2  0  0  0  0  0  0  0  0  0
    0.2610   -0.5130   -0.0610 N   0  0  0  0  0  0  0  0  0  0  0  0
   -1.1780    0.8690   -1.4090 C   0  0  0  0  0  0  0  0  0  0  0  0
   -0.2220    0.8950   -2.2220 O   0  0  0  0  0  0  0  0  0  0  0  0
   -0.6660    2.9390    1.7470 H   0  0  0  0  0  0  0  0  0  0  0  0
    0.6920    1.8140    1.5490 H   0  0  0  0  0  0  0  0  0  0  0  0
   -0.1100    2.6240    0.0920 H   0  0  0  0  0  0  0  0  0  0  0  0
   -2.2720    1.4800    1.0290 H   0  0  0  0  0  0  0  0  0  0  0  0
   -1.8120    0.7590    3.1540 H   0  0  0  0  0  0  0  0  0  0  0  0
   -0.0990    0.3750    2.7610 H   0  0  0  0  0  0  0  0  0  0  0  0
   -1.3640   -0.7510    2.2030 H   0  0  0  0  0  0  0  0  0  0  0  0
   -1.8600   -0.6530   -0.0940 H   0  0  0  0  0  0  0  0  0  0  0  0
    1.1460    0.0390   -0.0520 H   0  0  0  0  0  0  0  0  0  0  0  0
   -2.3760    1.5560   -1.6930 N   0  0  0  0  0  0  0  0  0  0  0  0
   -2.5770    2.3180   -2.9110 C   0  0  0  0  0  0  0  0  0  0  0  0
   -2.4470    1.4590   -4.1150 C   0  0  0  0  0  0  0  0  0  0  0  0
   -2.5890    1.9420   -5.2640 O   0  0  0  0  0  0  0  0  0  0  0  0
   -2.1680    0.1070   -4.0070 O   0  0  0  0  0  0  0  0  0  0  0  0
   -3.1450    1.4920   -0.9620 H   0  0  0  0  0  0  0  0  0  0  0  0
   -1.9010    3.1940   -2.9680 H   0  0  0  0  0  0  0  0  0  0  0  0
   -3.6190    2.7050   -2.9140 H   0  0  0  0  0  0  0  0  0  0  0  0
  1 13  1  0  0  0  0
  2  1  1  0  0  0  0
  3 14  1  0  0  0  0
  3  2  2  0  0  0  0
  4  3  1  0  0  0  0
  5  4  2  0  0  0  0
  5 11  1  0  0  0  0
  6  5  1  0  0  0  0
  7 18  1  6  0  0  0
  7  8  1  0  0  0  0
  7  6  1  0  0  0  0
  8 19  1  0  0  0  0
  9  7  1  0  0  0  0
 10  9  2  0  0  0  0
 11 12  2  0  0  0  0
 12 22  1  0  0  0  0
 12  2  1  0  0  0  0
 15  4  1  0  0  0  0
 16  6  1  0  0  0  0
 17  6  1  0  0  0  0
 20  8  1  0  0  0  0
 21 11  1  0  0  0  0
 23 31  1  0  0  0  0
 23 30  1  0  0  0  0
 24 23  1  0  0  0  0
 24 25  1  0  0  0  0
 25 35  1  0  0  0  0
 25 34  1  0  0  0  0
 26 37  1  1  0  0  0
 26 27  1  0  0  0  0
 26 24  1  0  0  0  0
 27 38  1  0  0  0  0
 27  9  1  0  0  0  0
 28 26  1  0  0  0  0
 29 28  2  0  0  0  0
 32 23  1  0  0  0  0
 33 24  1  0  0  0  0
 36 25  1  0  0  0  0
 39 28  1  0  0  0  0
 39 44  1  0  0  0  0
 40 39  1  0  0  0  0
 41 43  1  0  0  0  0
 41 40  1  0  0  0  0
 42 41  2  0  0  0  0
 45 40  1  0  0  0  0
 46 40  1  0  0  0  0
M  END
$$$$
