YVH.pdb
 OpenBabel07022419243D

 56 57  0  0  1  0  0  0  0  0999 V2000
    1.9860    3.7580    4.4530 O   0  0  0  0  0  0  0  0  0  0  0  0
    2.2530    2.4240    4.1590 C   0  0  0  0  0  0  0  0  0  0  0  0
    1.2900    1.5010    4.4240 C   0  0  0  0  0  0  0  0  0  0  0  0
    1.5170    0.1510    4.1450 C   0  0  0  0  0  0  0  0  0  0  0  0
    2.6780   -0.3100    3.6070 C   0  0  0  0  0  0  0  0  0  0  0  0
    2.9740   -1.7240    3.2920 C   0  0  0  0  0  0  0  0  0  0  0  0
    2.6150   -2.0950    1.8810 C   0  0  2  0  0  0  0  0  0  0  0  0
    3.3730   -1.2600    0.9770 N   0  0  0  0  0  0  0  0  0  0  0  0
    1.1570   -1.9960    1.7160 C   0  0  0  0  0  0  0  0  0  0  0  0
    0.4360   -2.5800    2.5560 O   0  0  0  0  0  0  0  0  0  0  0  0
    3.6570    0.6580    3.3420 C   0  0  0  0  0  0  0  0  0  0  0  0
    3.4410    1.9950    3.6150 C   0  0  0  0  0  0  0  0  0  0  0  0
    2.1250    4.1750    5.3580 H   0  0  0  0  0  0  0  0  0  0  0  0
    0.3380    1.8100    4.8550 H   0  0  0  0  0  0  0  0  0  0  0  0
    0.7370   -0.5400    4.3680 H   0  0  0  0  0  0  0  0  0  0  0  0
    4.0260   -1.9900    3.5350 H   0  0  0  0  0  0  0  0  0  0  0  0
    2.2720   -2.3280    3.9440 H   0  0  0  0  0  0  0  0  0  0  0  0
    2.9810   -3.1400    1.6720 H   0  0  0  0  0  0  0  0  0  0  0  0
    4.3720   -1.5100    1.0960 H   0  0  0  0  0  0  0  0  0  0  0  0
    3.1090   -1.3980   -0.0220 H   0  0  0  0  0  0  0  0  0  0  0  0
    4.6090    0.3980    2.9180 H   0  0  0  0  0  0  0  0  0  0  0  0
    4.1980    2.7340    3.4090 H   0  0  0  0  0  0  0  0  0  0  0  0
   -0.7800    0.8920    1.8040 C   0  0  0  0  0  0  0  0  0  0  0  0
   -1.2790    0.2560    0.4930 C   0  0  0  0  0  0  0  0  0  0  0  0
   -2.7450    0.5220    0.4060 C   0  0  0  0  0  0  0  0  0  0  0  0
   -0.9570   -1.2210    0.5310 C   0  0  2  0  0  0  0  0  0  0  0  0
    0.5060   -1.2940    0.6760 N   0  0  0  0  0  0  0  0  0  0  0  0
   -1.3950   -1.9490   -0.6650 C   0  0  0  0  0  0  0  0  0  0  0  0
   -0.5300   -2.4030   -1.4420 O   0  0  0  0  0  0  0  0  0  0  0  0
   -1.3170    1.8680    1.8830 H   0  0  0  0  0  0  0  0  0  0  0  0
    0.2970    1.1510    1.7100 H   0  0  0  0  0  0  0  0  0  0  0  0
   -0.9990    0.2620    2.6640 H   0  0  0  0  0  0  0  0  0  0  0  0
   -0.6970    0.7830   -0.3040 H   0  0  0  0  0  0  0  0  0  0  0  0
   -3.3000   -0.0350    1.1690 H   0  0  0  0  0  0  0  0  0  0  0  0
   -3.1460    0.4850   -0.6060 H   0  0  0  0  0  0  0  0  0  0  0  0
   -2.8710    1.6110    0.7400 H   0  0  0  0  0  0  0  0  0  0  0  0
   -1.4920   -1.6540    1.3900 H   0  0  0  0  0  0  0  0  0  0  0  0
    1.1140   -0.8090   -0.0140 H   0  0  0  0  0  0  0  0  0  0  0  0
   -2.7470   -2.1700   -0.9860 N   0  0  0  0  0  0  0  0  0  0  0  0
   -3.2520   -2.8840   -2.1360 C   0  0  1  0  0  0  0  0  0  0  0  0
   -3.4070   -2.0370   -3.3560 C   0  0  0  0  0  0  0  0  0  0  0  0
   -2.1800   -1.4130   -3.8510 C   0  0  0  0  0  0  0  0  0  0  0  0
   -1.7090   -0.1740   -3.4840 C   0  0  0  0  0  0  0  0  0  0  0  0
   -0.5640    0.0150   -4.1710 N   0  0  0  0  0  0  0  0  0  0  0  0
   -0.3170   -1.0490   -4.9380 C   0  0  0  0  0  0  0  0  0  0  0  0
   -1.2930   -1.9260   -4.7520 N   0  0  0  0  0  0  0  0  0  0  0  0
   -2.5690   -4.1720   -2.4080 C   0  0  0  0  0  0  0  0  0  0  0  0
   -1.7020   -4.6150   -1.6410 O   0  0  0  0  0  0  0  0  0  0  0  0
   -2.8900   -4.9100   -3.5320 O   0  0  0  0  0  0  0  0  0  0  0  0
   -3.5060   -1.8030   -0.3440 H   0  0  0  0  0  0  0  0  0  0  0  0
   -4.3120   -3.2190   -1.8480 H   0  0  0  0  0  0  0  0  0  0  0  0
   -4.1720   -1.2320   -3.1490 H   0  0  0  0  0  0  0  0  0  0  0  0
   -3.8590   -2.6040   -4.2080 H   0  0  0  0  0  0  0  0  0  0  0  0
   -2.1610    0.5320   -2.7770 H   0  0  0  0  0  0  0  0  0  0  0  0
   -0.0020    0.8890   -4.0710 H   0  0  0  0  0  0  0  0  0  0  0  0
    0.5230   -1.1940   -5.6010 H   0  0  0  0  0  0  0  0  0  0  0  0
  1 13  1  0  0  0  0
  2  3  1  0  0  0  0
  2  1  1  0  0  0  0
  3 14  1  0  0  0  0
  4 15  1  0  0  0  0
  4  3  2  0  0  0  0
  5  4  1  0  0  0  0
  6 16  1  0  0  0  0
  6  5  1  0  0  0  0
  6 17  1  0  0  0  0
  7 18  1  6  0  0  0
  7  6  1  0  0  0  0
  8 19  1  0  0  0  0
  8  7  1  0  0  0  0
  9  7  1  0  0  0  0
  9 10  2  0  0  0  0
 11  5  2  0  0  0  0
 11 12  1  0  0  0  0
 12  2  2  0  0  0  0
 20  8  1  0  0  0  0
 21 11  1  0  0  0  0
 22 12  1  0  0  0  0
 23 30  1  0  0  0  0
 23 32  1  0  0  0  0
 24 26  1  0  0  0  0
 24 23  1  0  0  0  0
 25 24  1  0  0  0  0
 25 36  1  0  0  0  0
 25 34  1  0  0  0  0
 26 27  1  0  0  0  0
 26 37  1  1  0  0  0
 27  9  1  0  0  0  0
 28 26  1  0  0  0  0
 29 28  2  0  0  0  0
 31 23  1  0  0  0  0
 33 24  1  0  0  0  0
 35 25  1  0  0  0  0
 38 27  1  0  0  0  0
 39 28  1  0  0  0  0
 39 50  1  0  0  0  0
 40 51  1  1  0  0  0
 40 39  1  0  0  0  0
 41 52  1  0  0  0  0
 41 40  1  0  0  0  0
 42 43  2  0  0  0  0
 42 41  1  0  0  0  0
 43 54  1  0  0  0  0
 44 55  1  0  0  0  0
 44 43  1  0  0  0  0
 45 46  2  0  0  0  0
 45 44  1  0  0  0  0
 46 42  1  0  0  0  0
 47 40  1  0  0  0  0
 47 48  1  0  0  0  0
 49 47  2  0  0  0  0
 53 41  1  0  0  0  0
 56 45  1  0  0  0  0
M  END
$$$$
