YVI.pdb
 OpenBabel07022419243D

 58 58  0  0  1  0  0  0  0  0999 V2000
    2.8710   -2.2960    5.6670 O   0  0  0  0  0  0  0  0  0  0  0  0
    3.0360   -1.8350    4.3840 C   0  0  0  0  0  0  0  0  0  0  0  0
    1.9980   -1.8950    3.4770 C   0  0  0  0  0  0  0  0  0  0  0  0
    2.1660   -1.4330    2.1920 C   0  0  0  0  0  0  0  0  0  0  0  0
    3.3690   -0.9030    1.7890 C   0  0  0  0  0  0  0  0  0  0  0  0
    3.5630   -0.4020    0.4040 C   0  0  0  0  0  0  0  0  0  0  0  0
    3.1910    1.0900    0.3260 C   0  0  2  0  0  0  0  0  0  0  0  0
    4.0750    1.7460    1.2660 N   0  0  0  0  0  0  0  0  0  0  0  0
    1.8080    1.2160    0.8200 C   0  0  0  0  0  0  0  0  0  0  0  0
    1.5610    1.6970    1.9410 O   0  0  0  0  0  0  0  0  0  0  0  0
    4.3940   -0.8550    2.7160 C   0  0  0  0  0  0  0  0  0  0  0  0
    4.2440   -1.3130    4.0070 C   0  0  0  0  0  0  0  0  0  0  0  0
    2.6210   -1.7060    6.4520 H   0  0  0  0  0  0  0  0  0  0  0  0
    1.0480   -2.3050    3.7720 H   0  0  0  0  0  0  0  0  0  0  0  0
    1.3530   -1.4850    1.5010 H   0  0  0  0  0  0  0  0  0  0  0  0
    4.6120   -0.5370    0.0960 H   0  0  0  0  0  0  0  0  0  0  0  0
    2.9140   -0.9420   -0.3330 H   0  0  0  0  0  0  0  0  0  0  0  0
    3.3250    1.4650   -0.6990 H   0  0  0  0  0  0  0  0  0  0  0  0
    3.8080    2.7640    1.4140 H   0  0  0  0  0  0  0  0  0  0  0  0
    5.0550    1.7600    0.9250 H   0  0  0  0  0  0  0  0  0  0  0  0
    5.3470   -0.4410    2.4150 H   0  0  0  0  0  0  0  0  0  0  0  0
    5.0800   -1.2540    4.7030 H   0  0  0  0  0  0  0  0  0  0  0  0
   -0.7200    3.3710   -0.0190 C   0  0  0  0  0  0  0  0  0  0  0  0
   -1.4340    2.0300   -0.1710 C   0  0  0  0  0  0  0  0  0  0  0  0
   -2.7690    2.1970    0.5230 C   0  0  0  0  0  0  0  0  0  0  0  0
   -0.6570    0.9350    0.5610 C   0  0  2  0  0  0  0  0  0  0  0  0
    0.6700    0.7950    0.0430 N   0  0  0  0  0  0  0  0  0  0  0  0
   -1.4710   -0.3030    0.5090 C   0  0  0  0  0  0  0  0  0  0  0  0
   -2.6430   -0.2980    0.9730 O   0  0  0  0  0  0  0  0  0  0  0  0
    0.2090    3.4180   -0.5860 H   0  0  0  0  0  0  0  0  0  0  0  0
   -1.4180    4.1220   -0.4790 H   0  0  0  0  0  0  0  0  0  0  0  0
   -0.6450    3.6420    1.0420 H   0  0  0  0  0  0  0  0  0  0  0  0
   -1.5150    1.7940   -1.2320 H   0  0  0  0  0  0  0  0  0  0  0  0
   -2.6510    1.9530    1.5970 H   0  0  0  0  0  0  0  0  0  0  0  0
   -3.0650    3.2760    0.4960 H   0  0  0  0  0  0  0  0  0  0  0  0
   -3.5700    1.6180    0.0230 H   0  0  0  0  0  0  0  0  0  0  0  0
   -0.6420    1.2760    1.6140 H   0  0  0  0  0  0  0  0  0  0  0  0
    0.8840    0.3960   -0.8890 H   0  0  0  0  0  0  0  0  0  0  0  0
   -3.1860   -2.4220   -3.6130 C   0  0  0  0  0  0  0  0  0  0  0  0
   -2.8620   -1.9320   -2.2200 C   0  0  0  0  0  0  0  0  0  0  0  0
   -2.1770   -3.0730   -1.4830 C   0  0  2  0  0  0  0  0  0  0  0  0
   -3.1450   -4.2380   -1.4480 C   0  0  0  0  0  0  0  0  0  0  0  0
   -1.8800   -2.6870   -0.0500 C   0  0  2  0  0  0  0  0  0  0  0  0
   -1.0050   -1.5260   -0.0440 N   0  0  0  0  0  0  0  0  0  0  0  0
   -1.2390   -3.8630    0.5890 C   0  0  0  0  0  0  0  0  0  0  0  0
   -0.0870   -3.7720    1.0440 O   0  0  0  0  0  0  0  0  0  0  0  0
   -1.8860   -5.0800    0.6990 O   0  0  0  0  0  0  0  0  0  0  0  0
   -4.2890   -2.5060   -3.6980 H   0  0  0  0  0  0  0  0  0  0  0  0
   -2.6950   -3.3850   -3.8260 H   0  0  0  0  0  0  0  0  0  0  0  0
   -2.8620   -1.6370   -4.3430 H   0  0  0  0  0  0  0  0  0  0  0  0
   -3.7720   -1.6170   -1.6930 H   0  0  0  0  0  0  0  0  0  0  0  0
   -2.1930   -1.0420   -2.2710 H   0  0  0  0  0  0  0  0  0  0  0  0
   -1.2770   -3.4080   -2.0160 H   0  0  0  0  0  0  0  0  0  0  0  0
   -2.5910   -5.2070   -1.5250 H   0  0  0  0  0  0  0  0  0  0  0  0
   -3.7350   -4.1700   -0.5130 H   0  0  0  0  0  0  0  0  0  0  0  0
   -3.8740   -4.1280   -2.2800 H   0  0  0  0  0  0  0  0  0  0  0  0
   -2.8470   -2.4370    0.4160 H   0  0  0  0  0  0  0  0  0  0  0  0
   -0.0490   -1.5370   -0.4270 H   0  0  0  0  0  0  0  0  0  0  0  0
  1 13  1  0  0  0  0
  2  1  1  0  0  0  0
  3 14  1  0  0  0  0
  3  2  2  0  0  0  0
  4  3  1  0  0  0  0
  5  4  2  0  0  0  0
  5 11  1  0  0  0  0
  6  5  1  0  0  0  0
  7 18  1  6  0  0  0
  7  6  1  0  0  0  0
  7  9  1  0  0  0  0
  7  8  1  0  0  0  0
  8 19  1  0  0  0  0
  9 10  2  0  0  0  0
 11 12  2  0  0  0  0
 12  2  1  0  0  0  0
 12 22  1  0  0  0  0
 15  4  1  0  0  0  0
 16  6  1  0  0  0  0
 17  6  1  0  0  0  0
 20  8  1  0  0  0  0
 21 11  1  0  0  0  0
 23 32  1  0  0  0  0
 24 23  1  0  0  0  0
 24 25  1  0  0  0  0
 24 26  1  0  0  0  0
 25 34  1  0  0  0  0
 26 37  1  1  0  0  0
 27 26  1  0  0  0  0
 27  9  1  0  0  0  0
 28 26  1  0  0  0  0
 28 29  2  0  0  0  0
 30 23  1  0  0  0  0
 31 23  1  0  0  0  0
 33 24  1  0  0  0  0
 35 25  1  0  0  0  0
 36 25  1  0  0  0  0
 38 27  1  0  0  0  0
 39 40  1  0  0  0  0
 40 51  1  0  0  0  0
 40 41  1  0  0  0  0
 41 53  1  6  0  0  0
 41 42  1  0  0  0  0
 41 43  1  0  0  0  0
 42 55  1  0  0  0  0
 43 44  1  0  0  0  0
 43 57  1  1  0  0  0
 43 45  1  0  0  0  0
 44 28  1  0  0  0  0
 45 47  2  0  0  0  0
 45 46  1  0  0  0  0
 48 39  1  0  0  0  0
 49 39  1  0  0  0  0
 50 39  1  0  0  0  0
 52 40  1  0  0  0  0
 54 42  1  0  0  0  0
 56 42  1  0  0  0  0
 58 44  1  0  0  0  0
M  END
$$$$
