YVK.pdb
 OpenBabel07022419243D

 60 60  0  0  1  0  0  0  0  0999 V2000
    1.2160    2.4250    7.7110 O   0  0  0  0  0  0  0  0  0  0  0  0
    1.6720    1.7200    6.6010 C   0  0  0  0  0  0  0  0  0  0  0  0
    2.0550    0.4050    6.6970 C   0  0  0  0  0  0  0  0  0  0  0  0
    2.5090   -0.3250    5.6300 C   0  0  0  0  0  0  0  0  0  0  0  0
    2.5890    0.2950    4.3780 C   0  0  0  0  0  0  0  0  0  0  0  0
    3.1060   -0.5040    3.2510 C   0  0  0  0  0  0  0  0  0  0  0  0
    1.9840   -1.2940    2.6330 C   0  0  2  0  0  0  0  0  0  0  0  0
    2.4720   -2.0960    1.5120 N   0  0  0  0  0  0  0  0  0  0  0  0
    0.9210   -0.3740    2.2060 C   0  0  0  0  0  0  0  0  0  0  0  0
    0.2320    0.3160    2.9960 O   0  0  0  0  0  0  0  0  0  0  0  0
    2.2010    1.6180    4.2900 C   0  0  0  0  0  0  0  0  0  0  0  0
    1.7460    2.3400    5.3710 C   0  0  0  0  0  0  0  0  0  0  0  0
    0.5040    2.0410    8.3190 H   0  0  0  0  0  0  0  0  0  0  0  0
    2.0040   -0.1080    7.6690 H   0  0  0  0  0  0  0  0  0  0  0  0
    2.8070   -1.3760    5.7480 H   0  0  0  0  0  0  0  0  0  0  0  0
    3.4910    0.1950    2.4710 H   0  0  0  0  0  0  0  0  0  0  0  0
    3.9330   -1.1900    3.6010 H   0  0  0  0  0  0  0  0  0  0  0  0
    1.6380   -2.0310    3.3990 H   0  0  0  0  0  0  0  0  0  0  0  0
    1.6290   -2.6110    1.1550 H   0  0  0  0  0  0  0  0  0  0  0  0
    3.0750   -2.8460    1.9660 H   0  0  0  0  0  0  0  0  0  0  0  0
    2.2640    2.1150    3.3090 H   0  0  0  0  0  0  0  0  0  0  0  0
    1.4510    3.3850    5.2520 H   0  0  0  0  0  0  0  0  0  0  0  0
    0.6810    1.3650   -1.7600 C   0  0  0  0  0  0  0  0  0  0  0  0
    0.0370    1.8190   -0.4970 C   0  0  0  0  0  0  0  0  0  0  0  0
   -1.1220    2.7710   -0.7450 C   0  0  0  0  0  0  0  0  0  0  0  0
   -0.4660    0.7140    0.3860 C   0  0  2  0  0  0  0  0  0  0  0  0
    0.5820   -0.1920    0.8130 N   0  0  0  0  0  0  0  0  0  0  0  0
   -1.5310   -0.1010   -0.2530 C   0  0  0  0  0  0  0  0  0  0  0  0
   -2.5870    0.4170   -0.7340 O   0  0  0  0  0  0  0  0  0  0  0  0
    0.5060    2.1760   -2.5270 H   0  0  0  0  0  0  0  0  0  0  0  0
    1.7950    1.3390   -1.6330 H   0  0  0  0  0  0  0  0  0  0  0  0
    0.2860    0.4450   -2.1890 H   0  0  0  0  0  0  0  0  0  0  0  0
    0.7870    2.4080    0.0820 H   0  0  0  0  0  0  0  0  0  0  0  0
   -0.7460    3.8110   -0.9170 H   0  0  0  0  0  0  0  0  0  0  0  0
   -1.7030    2.4000   -1.5940 H   0  0  0  0  0  0  0  0  0  0  0  0
   -1.7720    2.8350    0.1520 H   0  0  0  0  0  0  0  0  0  0  0  0
   -0.9420    1.2190    1.2710 H   0  0  0  0  0  0  0  0  0  0  0  0
    1.1400   -0.7550    0.1370 H   0  0  0  0  0  0  0  0  0  0  0  0
   -1.4350   -1.5160   -0.3650 N   0  0  0  0  0  0  0  0  0  0  0  0
   -2.4850   -2.2950   -0.9910 C   0  0  1  0  0  0  0  0  0  0  0  0
   -1.8940   -3.1970   -2.0610 C   0  0  0  0  0  0  0  0  0  0  0  0
   -1.2110   -2.3650   -3.1080 C   0  0  0  0  0  0  0  0  0  0  0  0
   -0.6130   -3.2220   -4.1880 C   0  0  0  0  0  0  0  0  0  0  0  0
   -1.6480   -4.0560   -4.8970 C   0  0  0  0  0  0  0  0  0  0  0  0
   -2.6580   -3.2500   -5.5280 N   0  0  0  0  0  0  0  0  0  0  0  0
   -3.0410   -3.1880    0.0870 C   0  0  0  0  0  0  0  0  0  0  0  0
   -2.6060   -3.1790    1.2670 O   0  0  0  0  0  0  0  0  0  0  0  0
   -4.0770   -4.0710   -0.1930 O   0  0  0  0  0  0  0  0  0  0  0  0
   -0.6100   -2.0370   -0.0030 H   0  0  0  0  0  0  0  0  0  0  0  0
   -3.3110   -1.6810   -1.3550 H   0  0  0  0  0  0  0  0  0  0  0  0
   -1.1670   -3.8840   -1.5670 H   0  0  0  0  0  0  0  0  0  0  0  0
   -2.6650   -3.8400   -2.5110 H   0  0  0  0  0  0  0  0  0  0  0  0
   -1.9200   -1.6660   -3.5660 H   0  0  0  0  0  0  0  0  0  0  0  0
   -0.3590   -1.8220   -2.6180 H   0  0  0  0  0  0  0  0  0  0  0  0
    0.1720   -3.8860   -3.7890 H   0  0  0  0  0  0  0  0  0  0  0  0
   -0.1320   -2.5830   -4.9520 H   0  0  0  0  0  0  0  0  0  0  0  0
   -1.1180   -4.6130   -5.7180 H   0  0  0  0  0  0  0  0  0  0  0  0
   -2.1510   -4.7880   -4.2420 H   0  0  0  0  0  0  0  0  0  0  0  0
   -3.6130   -3.6900   -5.4530 H   0  0  0  0  0  0  0  0  0  0  0  0
   -2.4290   -2.9400   -6.4820 H   0  0  0  0  0  0  0  0  0  0  0  0
  1 13  1  0  0  0  0
  2  3  1  0  0  0  0
  2  1  1  0  0  0  0
  3 14  1  0  0  0  0
  4 15  1  0  0  0  0
  4  3  2  0  0  0  0
  5  4  1  0  0  0  0
  6 17  1  0  0  0  0
  6  5  1  0  0  0  0
  7  6  1  0  0  0  0
  7 18  1  1  0  0  0
  8 20  1  0  0  0  0
  8  7  1  0  0  0  0
  9  7  1  0  0  0  0
  9 10  2  0  0  0  0
 11  5  2  0  0  0  0
 11 12  1  0  0  0  0
 12  2  2  0  0  0  0
 16  6  1  0  0  0  0
 19  8  1  0  0  0  0
 21 11  1  0  0  0  0
 22 12  1  0  0  0  0
 23 31  1  0  0  0  0
 23 24  1  0  0  0  0
 24 33  1  0  0  0  0
 24 26  1  0  0  0  0
 25 24  1  0  0  0  0
 25 36  1  0  0  0  0
 26 27  1  0  0  0  0
 26 37  1  1  0  0  0
 27  9  1  0  0  0  0
 28 26  1  0  0  0  0
 29 28  2  0  0  0  0
 30 23  1  0  0  0  0
 32 23  1  0  0  0  0
 34 25  1  0  0  0  0
 35 25  1  0  0  0  0
 38 27  1  0  0  0  0
 39 28  1  0  0  0  0
 39 49  1  0  0  0  0
 40 50  1  6  0  0  0
 40 39  1  0  0  0  0
 40 46  1  0  0  0  0
 41 51  1  0  0  0  0
 41 40  1  0  0  0  0
 42 54  1  0  0  0  0
 42 41  1  0  0  0  0
 43 55  1  0  0  0  0
 43 42  1  0  0  0  0
 44 58  1  0  0  0  0
 44 43  1  0  0  0  0
 45 59  1  0  0  0  0
 45 44  1  0  0  0  0
 46 47  1  0  0  0  0
 48 46  2  0  0  0  0
 52 41  1  0  0  0  0
 53 42  1  0  0  0  0
 56 43  1  0  0  0  0
 57 44  1  0  0  0  0
 60 45  1  0  0  0  0
M  END
$$$$
