YVL.pdb
 OpenBabel07022419243D

 58 58  0  0  1  0  0  0  0  0999 V2000
    4.4260   -3.2350    4.6660 O   0  0  0  0  0  0  0  0  0  0  0  0
    4.1690   -2.4500    3.5550 C   0  0  0  0  0  0  0  0  0  0  0  0
    2.8920   -2.3900    3.0210 C   0  0  0  0  0  0  0  0  0  0  0  0
    2.6010   -1.6190    1.9170 C   0  0  0  0  0  0  0  0  0  0  0  0
    3.5750   -0.8710    1.2930 C   0  0  0  0  0  0  0  0  0  0  0  0
    3.2500   -0.0480    0.0960 C   0  0  0  0  0  0  0  0  0  0  0  0
    2.7630    1.3390    0.5290 C   0  0  2  0  0  0  0  0  0  0  0  0
    3.8150    1.9330    1.2850 N   0  0  0  0  0  0  0  0  0  0  0  0
    1.4990    1.1780    1.2920 C   0  0  0  0  0  0  0  0  0  0  0  0
    1.3930    1.3870    2.5260 O   0  0  0  0  0  0  0  0  0  0  0  0
    4.8510   -0.9180    1.8110 C   0  0  0  0  0  0  0  0  0  0  0  0
    5.1270   -1.6940    2.9170 C   0  0  0  0  0  0  0  0  0  0  0  0
    4.1330   -2.8630    5.5770 H   0  0  0  0  0  0  0  0  0  0  0  0
    2.1100   -2.9740    3.4990 H   0  0  0  0  0  0  0  0  0  0  0  0
    1.5610   -1.6160    1.5520 H   0  0  0  0  0  0  0  0  0  0  0  0
    4.1470    0.0210   -0.5360 H   0  0  0  0  0  0  0  0  0  0  0  0
    2.4560   -0.5360   -0.4910 H   0  0  0  0  0  0  0  0  0  0  0  0
    2.5470    1.9440   -0.3720 H   0  0  0  0  0  0  0  0  0  0  0  0
    3.4810    2.5380    2.0690 H   0  0  0  0  0  0  0  0  0  0  0  0
    4.5670    2.3490    0.7280 H   0  0  0  0  0  0  0  0  0  0  0  0
    5.6650   -0.3370    1.3470 H   0  0  0  0  0  0  0  0  0  0  0  0
    6.1500   -1.7200    3.3180 H   0  0  0  0  0  0  0  0  0  0  0  0
   -1.2530    3.0420    1.5280 C   0  0  0  0  0  0  0  0  0  0  0  0
   -1.9080    1.7530    1.0910 C   0  0  0  0  0  0  0  0  0  0  0  0
   -2.3820    1.7830   -0.3200 C   0  0  0  0  0  0  0  0  0  0  0  0
   -0.9410    0.5990    1.3550 C   0  0  2  0  0  0  0  0  0  0  0  0
    0.2820    0.7600    0.6360 N   0  0  0  0  0  0  0  0  0  0  0  0
   -1.5620   -0.6940    1.0080 C   0  0  0  0  0  0  0  0  0  0  0  0
   -2.6690   -1.0120    1.5830 O   0  0  0  0  0  0  0  0  0  0  0  0
   -1.1400    3.0180    2.6390 H   0  0  0  0  0  0  0  0  0  0  0  0
   -0.2880    3.2180    1.0150 H   0  0  0  0  0  0  0  0  0  0  0  0
   -1.9050    3.9070    1.2940 H   0  0  0  0  0  0  0  0  0  0  0  0
   -2.7810    1.5880    1.7560 H   0  0  0  0  0  0  0  0  0  0  0  0
   -2.9340    2.7360   -0.4700 H   0  0  0  0  0  0  0  0  0  0  0  0
   -1.5580    1.6550   -1.0550 H   0  0  0  0  0  0  0  0  0  0  0  0
   -3.1630    0.9770   -0.4490 H   0  0  0  0  0  0  0  0  0  0  0  0
   -0.8090    0.6320    2.4600 H   0  0  0  0  0  0  0  0  0  0  0  0
    0.3630    0.5880   -0.3870 H   0  0  0  0  0  0  0  0  0  0  0  0
   -3.3580   -2.0780   -3.5580 C   0  0  0  0  0  0  0  0  0  0  0  0
   -3.0390   -1.8530   -2.0920 C   0  0  0  0  0  0  0  0  0  0  0  0
   -4.3760   -1.9210   -1.3520 C   0  0  0  0  0  0  0  0  0  0  0  0
   -2.1330   -2.9730   -1.6590 C   0  0  0  0  0  0  0  0  0  0  0  0
   -1.7330   -2.8700   -0.2020 C   0  0  2  0  0  0  0  0  0  0  0  0
   -1.0270   -1.6330    0.0680 N   0  0  0  0  0  0  0  0  0  0  0  0
   -0.8190   -4.0030    0.0470 C   0  0  0  0  0  0  0  0  0  0  0  0
    0.3530   -3.7580    0.4170 O   0  0  0  0  0  0  0  0  0  0  0  0
   -1.2080   -5.3310   -0.1140 O   0  0  0  0  0  0  0  0  0  0  0  0
   -4.1690   -1.4060   -3.9190 H   0  0  0  0  0  0  0  0  0  0  0  0
   -3.7430   -3.1320   -3.6190 H   0  0  0  0  0  0  0  0  0  0  0  0
   -2.4650   -2.0330   -4.2010 H   0  0  0  0  0  0  0  0  0  0  0  0
   -2.5820   -0.8600   -2.0150 H   0  0  0  0  0  0  0  0  0  0  0  0
   -4.4560   -2.9640   -0.9630 H   0  0  0  0  0  0  0  0  0  0  0  0
   -4.4270   -1.1670   -0.5330 H   0  0  0  0  0  0  0  0  0  0  0  0
   -5.2290   -1.7700   -2.0550 H   0  0  0  0  0  0  0  0  0  0  0  0
   -1.2450   -3.0040   -2.2870 H   0  0  0  0  0  0  0  0  0  0  0  0
   -2.7030   -3.9180   -1.7680 H   0  0  0  0  0  0  0  0  0  0  0  0
   -2.6340   -2.9190    0.4590 H   0  0  0  0  0  0  0  0  0  0  0  0
   -0.1320   -1.3790   -0.3910 H   0  0  0  0  0  0  0  0  0  0  0  0
  1 13  1  0  0  0  0
  2  1  1  0  0  0  0
  3 14  1  0  0  0  0
  3  2  1  0  0  0  0
  4  3  2  0  0  0  0
  5 11  2  0  0  0  0
  5  4  1  0  0  0  0
  6  7  1  0  0  0  0
  6  5  1  0  0  0  0
  7 18  1  6  0  0  0
  7  8  1  0  0  0  0
  7  9  1  0  0  0  0
  8 19  1  0  0  0  0
  9 10  2  0  0  0  0
 11 12  1  0  0  0  0
 12 22  1  0  0  0  0
 12  2  2  0  0  0  0
 15  4  1  0  0  0  0
 16  6  1  0  0  0  0
 17  6  1  0  0  0  0
 20  8  1  0  0  0  0
 21 11  1  0  0  0  0
 23 30  1  0  0  0  0
 24 26  1  0  0  0  0
 24 23  1  0  0  0  0
 24 33  1  0  0  0  0
 25 24  1  0  0  0  0
 26 37  1  1  0  0  0
 27  9  1  0  0  0  0
 27 26  1  0  0  0  0
 28 26  1  0  0  0  0
 28 29  2  0  0  0  0
 31 23  1  0  0  0  0
 32 23  1  0  0  0  0
 34 25  1  0  0  0  0
 35 25  1  0  0  0  0
 36 25  1  0  0  0  0
 38 27  1  0  0  0  0
 39 40  1  0  0  0  0
 40 51  1  0  0  0  0
 40 42  1  0  0  0  0
 40 41  1  0  0  0  0
 41 52  1  0  0  0  0
 41 53  1  0  0  0  0
 42 43  1  0  0  0  0
 43 45  1  0  0  0  0
 43 44  1  0  0  0  0
 43 57  1  1  0  0  0
 44 28  1  0  0  0  0
 45 46  1  0  0  0  0
 47 45  2  0  0  0  0
 48 39  1  0  0  0  0
 49 39  1  0  0  0  0
 50 39  1  0  0  0  0
 54 41  1  0  0  0  0
 55 42  1  0  0  0  0
 56 42  1  0  0  0  0
 58 44  1  0  0  0  0
M  END
$$$$
