YVN.pdb
 OpenBabel07022419233D

 53 53  0  0  1  0  0  0  0  0999 V2000
    3.2740   -4.3870    3.9080 O   0  0  0  0  0  0  0  0  0  0  0  0
    3.1600   -3.4920    2.8330 C   0  0  0  0  0  0  0  0  0  0  0  0
    1.9060   -3.0480    2.4680 C   0  0  0  0  0  0  0  0  0  0  0  0
    1.7850   -2.1570    1.3990 C   0  0  0  0  0  0  0  0  0  0  0  0
    2.9090   -1.7340    0.7240 C   0  0  0  0  0  0  0  0  0  0  0  0
    2.7720   -0.7920   -0.4180 C   0  0  0  0  0  0  0  0  0  0  0  0
    2.7930    0.6570    0.0900 C   0  0  2  0  0  0  0  0  0  0  0  0
    4.0360    0.8590    0.7620 N   0  0  0  0  0  0  0  0  0  0  0  0
    1.6060    0.8200    0.9590 C   0  0  0  0  0  0  0  0  0  0  0  0
    1.6450    0.9800    2.2040 O   0  0  0  0  0  0  0  0  0  0  0  0
    4.1650   -2.1750    1.0840 C   0  0  0  0  0  0  0  0  0  0  0  0
    4.2680   -3.0540    2.1420 C   0  0  0  0  0  0  0  0  0  0  0  0
    2.9930   -4.1330    4.8490 H   0  0  0  0  0  0  0  0  0  0  0  0
    1.0540   -3.4020    3.0190 H   0  0  0  0  0  0  0  0  0  0  0  0
    0.7870   -1.8360    1.1550 H   0  0  0  0  0  0  0  0  0  0  0  0
    3.5870   -0.9940   -1.1220 H   0  0  0  0  0  0  0  0  0  0  0  0
    1.8070   -0.9620   -0.9290 H   0  0  0  0  0  0  0  0  0  0  0  0
    2.6880    1.3460   -0.7620 H   0  0  0  0  0  0  0  0  0  0  0  0
    4.8570    0.4850    0.2830 H   0  0  0  0  0  0  0  0  0  0  0  0
    4.1370    1.7430    1.2660 H   0  0  0  0  0  0  0  0  0  0  0  0
    5.0820   -1.8790    0.5940 H   0  0  0  0  0  0  0  0  0  0  0  0
    5.2420   -3.4140    2.4430 H   0  0  0  0  0  0  0  0  0  0  0  0
   -0.4540    3.4070    1.3610 C   0  0  0  0  0  0  0  0  0  0  0  0
   -1.4990    2.3530    0.9850 C   0  0  0  0  0  0  0  0  0  0  0  0
   -2.6550    2.4990    1.9430 C   0  0  0  0  0  0  0  0  0  0  0  0
   -0.8710    0.9540    1.2020 C   0  0  2  0  0  0  0  0  0  0  0  0
    0.2910    0.8010    0.3770 N   0  0  0  0  0  0  0  0  0  0  0  0
   -1.8740   -0.0800    0.8590 C   0  0  0  0  0  0  0  0  0  0  0  0
   -2.9850   -0.1380    1.5040 O   0  0  0  0  0  0  0  0  0  0  0  0
    0.4510    3.3110    0.7130 H   0  0  0  0  0  0  0  0  0  0  0  0
   -0.1540    3.2980    2.4230 H   0  0  0  0  0  0  0  0  0  0  0  0
   -0.8740    4.4270    1.2550 H   0  0  0  0  0  0  0  0  0  0  0  0
   -1.7800    2.4950   -0.0730 H   0  0  0  0  0  0  0  0  0  0  0  0
   -2.6040    1.7790    2.7850 H   0  0  0  0  0  0  0  0  0  0  0  0
   -3.6390    2.3330    1.4500 H   0  0  0  0  0  0  0  0  0  0  0  0
   -2.6880    3.5190    2.4070 H   0  0  0  0  0  0  0  0  0  0  0  0
   -0.6650    0.9270    2.2770 H   0  0  0  0  0  0  0  0  0  0  0  0
    0.1720    0.6760   -0.6520 H   0  0  0  0  0  0  0  0  0  0  0  0
   -4.8950   -2.4930   -3.6130 N   0  0  0  0  0  0  0  0  0  0  0  0
   -4.3960   -2.5700   -2.2900 C   0  0  0  0  0  0  0  0  0  0  0  0
   -4.9180   -3.3860   -1.4690 O   0  0  0  0  0  0  0  0  0  0  0  0
   -3.2820   -1.7320   -1.8120 C   0  0  0  0  0  0  0  0  0  0  0  0
   -2.8210   -2.0410   -0.4050 C   0  0  2  0  0  0  0  0  0  0  0  0
   -1.7340   -1.0560   -0.1500 N   0  0  0  0  0  0  0  0  0  0  0  0
   -2.1990   -3.4000   -0.4110 C   0  0  0  0  0  0  0  0  0  0  0  0
   -2.8090   -4.4660   -0.5560 O   0  0  0  0  0  0  0  0  0  0  0  0
   -0.8030   -3.5420   -0.2420 O   0  0  0  0  0  0  0  0  0  0  0  0
   -4.7450   -1.6390   -4.1680 H   0  0  0  0  0  0  0  0  0  0  0  0
   -5.4070   -3.2910   -4.0170 H   0  0  0  0  0  0  0  0  0  0  0  0
   -2.4380   -1.8410   -2.5450 H   0  0  0  0  0  0  0  0  0  0  0  0
   -3.5690   -0.6430   -1.9020 H   0  0  0  0  0  0  0  0  0  0  0  0
   -3.6160   -1.9100    0.3190 H   0  0  0  0  0  0  0  0  0  0  0  0
   -0.8590   -1.0720   -0.7100 H   0  0  0  0  0  0  0  0  0  0  0  0
  1 13  1  0  0  0  0
  2  1  1  0  0  0  0
  3  2  1  0  0  0  0
  3 14  1  0  0  0  0
  4  3  2  0  0  0  0
  5 11  2  0  0  0  0
  5  4  1  0  0  0  0
  6  7  1  0  0  0  0
  6  5  1  0  0  0  0
  7 18  1  6  0  0  0
  7  8  1  0  0  0  0
  7  9  1  0  0  0  0
  8 20  1  0  0  0  0
  9 10  2  0  0  0  0
 11 12  1  0  0  0  0
 12 22  1  0  0  0  0
 12  2  2  0  0  0  0
 15  4  1  0  0  0  0
 16  6  1  0  0  0  0
 17  6  1  0  0  0  0
 19  8  1  0  0  0  0
 21 11  1  0  0  0  0
 23 31  1  0  0  0  0
 24 26  1  0  0  0  0
 24 23  1  0  0  0  0
 24 25  1  0  0  0  0
 25 36  1  0  0  0  0
 25 34  1  0  0  0  0
 26 37  1  1  0  0  0
 27  9  1  0  0  0  0
 27 26  1  0  0  0  0
 28 26  1  0  0  0  0
 28 29  2  0  0  0  0
 30 23  1  0  0  0  0
 32 23  1  0  0  0  0
 33 24  1  0  0  0  0
 35 25  1  0  0  0  0
 38 27  1  0  0  0  0
 39 40  1  0  0  0  0
 40 42  1  0  0  0  0
 40 41  2  0  0  0  0
 42 43  1  0  0  0  0
 43 44  1  0  0  0  0
 43 52  1  1  0  0  0
 44 28  1  0  0  0  0
 45 43  1  0  0  0  0
 45 47  1  0  0  0  0
 46 45  2  0  0  0  0
 48 39  1  0  0  0  0
 49 39  1  0  0  0  0
 50 42  1  0  0  0  0
 51 42  1  0  0  0  0
 53 44  1  0  0  0  0
M  END
$$$$
