YVP.pdb
 OpenBabel07022419243D

 53 54  0  0  1  0  0  0  0  0999 V2000
   -1.4100   -7.4770   -4.6170 O   0  0  0  0  0  0  0  0  0  0  0  0
   -1.3010   -6.4390   -3.6910 C   0  0  0  0  0  0  0  0  0  0  0  0
   -1.5770   -6.6710   -2.3520 C   0  0  0  0  0  0  0  0  0  0  0  0
   -1.4780   -5.6620   -1.4100 C   0  0  0  0  0  0  0  0  0  0  0  0
   -1.1010   -4.3840   -1.7660 C   0  0  0  0  0  0  0  0  0  0  0  0
   -0.9940   -3.3000   -0.7550 C   0  0  0  0  0  0  0  0  0  0  0  0
    0.4340   -3.3330   -0.2320 C   0  0  2  0  0  0  0  0  0  0  0  0
    0.6520   -4.6210    0.3480 N   0  0  0  0  0  0  0  0  0  0  0  0
    0.6860   -2.2420    0.7330 C   0  0  0  0  0  0  0  0  0  0  0  0
    1.0470   -2.5640    1.9000 O   0  0  0  0  0  0  0  0  0  0  0  0
   -0.8270   -4.1660   -3.1130 C   0  0  0  0  0  0  0  0  0  0  0  0
   -0.9250   -5.1670   -4.0480 C   0  0  0  0  0  0  0  0  0  0  0  0
   -0.6470   -8.0880   -4.8630 H   0  0  0  0  0  0  0  0  0  0  0  0
   -1.8730   -7.6810   -2.0840 H   0  0  0  0  0  0  0  0  0  0  0  0
   -1.7050   -5.8850   -0.3570 H   0  0  0  0  0  0  0  0  0  0  0  0
   -1.1380   -2.3060   -1.2630 H   0  0  0  0  0  0  0  0  0  0  0  0
   -1.7230   -3.4630    0.0410 H   0  0  0  0  0  0  0  0  0  0  0  0
    1.1260   -3.2470   -1.1110 H   0  0  0  0  0  0  0  0  0  0  0  0
    1.2500   -5.2570   -0.2090 H   0  0  0  0  0  0  0  0  0  0  0  0
    0.8750   -4.6150    1.3570 H   0  0  0  0  0  0  0  0  0  0  0  0
   -0.5280   -3.1590   -3.4060 H   0  0  0  0  0  0  0  0  0  0  0  0
   -0.7080   -4.9680   -5.0810 H   0  0  0  0  0  0  0  0  0  0  0  0
    2.6500    1.9600    1.6220 C   0  0  0  0  0  0  0  0  0  0  0  0
    2.0760    0.8300    0.8800 C   0  0  0  0  0  0  0  0  0  0  0  0
    1.8000    1.1180   -0.5760 C   0  0  0  0  0  0  0  0  0  0  0  0
    0.8210    0.1890    1.4610 C   0  0  2  0  0  0  0  0  0  0  0  0
    0.5530   -0.8820    0.4450 N   0  0  0  0  0  0  0  0  0  0  0  0
   -0.3250    1.0790    1.5350 C   0  0  0  0  0  0  0  0  0  0  0  0
   -1.1280    1.0970    0.5710 O   0  0  0  0  0  0  0  0  0  0  0  0
    1.9830    2.8000    1.8170 H   0  0  0  0  0  0  0  0  0  0  0  0
    3.5270    2.3390    1.0440 H   0  0  0  0  0  0  0  0  0  0  0  0
    3.0960    1.5680    2.5800 H   0  0  0  0  0  0  0  0  0  0  0  0
    2.8390   -0.0040    0.9030 H   0  0  0  0  0  0  0  0  0  0  0  0
    2.4710    1.9060   -0.9770 H   0  0  0  0  0  0  0  0  0  0  0  0
    0.7540    1.3920   -0.7820 H   0  0  0  0  0  0  0  0  0  0  0  0
    2.0170    0.2040   -1.1630 H   0  0  0  0  0  0  0  0  0  0  0  0
    1.1040   -0.3400    2.3730 H   0  0  0  0  0  0  0  0  0  0  0  0
    0.2580   -0.5740   -0.4980 H   0  0  0  0  0  0  0  0  0  0  0  0
   -0.6150    1.9490    2.6440 N   0  0  0  0  0  0  0  0  0  0  0  0
    0.1340    1.9730    3.8770 C   0  0  0  0  0  0  0  0  0  0  0  0
    0.1530    3.4700    4.2040 C   0  0  0  0  0  0  0  0  0  0  0  0
   -1.3160    3.8030    3.8940 C   0  0  0  0  0  0  0  0  0  0  0  0
   -1.6670    2.9170    2.7310 C   0  0  1  0  0  0  0  0  0  0  0  0
   -1.8470    3.7380    1.5040 C   0  0  0  0  0  0  0  0  0  0  0  0
   -1.0740    3.6570    0.5520 O   0  0  0  0  0  0  0  0  0  0  0  0
   -2.9270    4.6070    1.4720 O   0  0  0  0  0  0  0  0  0  0  0  0
   -0.5580    1.4920    4.6460 H   0  0  0  0  0  0  0  0  0  0  0  0
    1.1030    1.5030    3.8770 H   0  0  0  0  0  0  0  0  0  0  0  0
    0.4110    3.6680    5.2480 H   0  0  0  0  0  0  0  0  0  0  0  0
    0.7440    3.9950    3.4510 H   0  0  0  0  0  0  0  0  0  0  0  0
   -1.9290    3.5680    4.8010 H   0  0  0  0  0  0  0  0  0  0  0  0
   -1.4400    4.8720    3.6910 H   0  0  0  0  0  0  0  0  0  0  0  0
   -2.6040    2.3650    2.9770 H   0  0  0  0  0  0  0  0  0  0  0  0
  1  2  1  0  0  0  0
  2  3  1  0  0  0  0
  3 14  1  0  0  0  0
  3  4  2  0  0  0  0
  4 15  1  0  0  0  0
  5  4  1  0  0  0  0
  5  6  1  0  0  0  0
  6  7  1  0  0  0  0
  6 17  1  0  0  0  0
  7 18  1  6  0  0  0
  7  8  1  0  0  0  0
  7  9  1  0  0  0  0
  8 20  1  0  0  0  0
  9 10  2  0  0  0  0
 11  5  2  0  0  0  0
 12  2  2  0  0  0  0
 12 11  1  0  0  0  0
 13  1  1  0  0  0  0
 16  6  1  0  0  0  0
 19  8  1  0  0  0  0
 21 11  1  0  0  0  0
 22 12  1  0  0  0  0
 23 30  1  0  0  0  0
 23 32  1  0  0  0  0
 24 33  1  0  0  0  0
 24 26  1  0  0  0  0
 24 23  1  0  0  0  0
 25 24  1  0  0  0  0
 26 28  1  0  0  0  0
 26 37  1  1  0  0  0
 27  9  1  0  0  0  0
 27 26  1  0  0  0  0
 28 39  1  0  0  0  0
 29 28  2  0  0  0  0
 31 23  1  0  0  0  0
 34 25  1  0  0  0  0
 35 25  1  0  0  0  0
 36 25  1  0  0  0  0
 38 27  1  0  0  0  0
 39 43  1  0  0  0  0
 39 40  1  0  0  0  0
 40 41  1  0  0  0  0
 40 47  1  0  0  0  0
 41 49  1  0  0  0  0
 42 41  1  0  0  0  0
 42 51  1  0  0  0  0
 43 53  1  1  0  0  0
 43 42  1  0  0  0  0
 44 43  1  0  0  0  0
 45 44  2  0  0  0  0
 46 44  1  0  0  0  0
 48 40  1  0  0  0  0
 50 41  1  0  0  0  0
 52 42  1  0  0  0  0
M  END
$$$$
