YVQ.pdb
 OpenBabel07022419243D

 56 56  0  0  1  0  0  0  0  0999 V2000
   -3.9800    0.8020    3.7900 O   0  0  0  0  0  0  0  0  0  0  0  0
   -3.5440    1.1350    2.5000 C   0  0  0  0  0  0  0  0  0  0  0  0
   -3.3200    0.1810    1.5320 C   0  0  0  0  0  0  0  0  0  0  0  0
   -2.8880    0.5440    0.2640 C   0  0  0  0  0  0  0  0  0  0  0  0
   -2.6730    1.8560   -0.0620 C   0  0  0  0  0  0  0  0  0  0  0  0
   -2.2280    2.2260   -1.3910 C   0  0  0  0  0  0  0  0  0  0  0  0
   -0.7700    2.3630   -1.6280 C   0  0  2  0  0  0  0  0  0  0  0  0
   -0.6560    2.7520   -3.0620 N   0  0  0  0  0  0  0  0  0  0  0  0
    0.0650    1.1850   -1.4230 C   0  0  0  0  0  0  0  0  0  0  0  0
    0.6060    0.5860   -2.3980 O   0  0  0  0  0  0  0  0  0  0  0  0
   -2.8920    2.8220    0.8920 C   0  0  0  0  0  0  0  0  0  0  0  0
   -3.3180    2.4470    2.1400 C   0  0  0  0  0  0  0  0  0  0  0  0
   -3.8760   -0.1710    4.0530 H   0  0  0  0  0  0  0  0  0  0  0  0
   -3.4860   -0.8550    1.7790 H   0  0  0  0  0  0  0  0  0  0  0  0
   -2.7360   -0.2740   -0.4380 H   0  0  0  0  0  0  0  0  0  0  0  0
   -2.7000    3.1900   -1.6950 H   0  0  0  0  0  0  0  0  0  0  0  0
   -2.6160    1.4910   -2.1540 H   0  0  0  0  0  0  0  0  0  0  0  0
   -0.4150    3.2650   -1.0830 H   0  0  0  0  0  0  0  0  0  0  0  0
   -0.5360    1.8920   -3.6410 H   0  0  0  0  0  0  0  0  0  0  0  0
    0.0940    3.4480   -3.1930 H   0  0  0  0  0  0  0  0  0  0  0  0
   -2.7300    3.8910    0.6680 H   0  0  0  0  0  0  0  0  0  0  0  0
   -3.4880    3.2110    2.8860 H   0  0  0  0  0  0  0  0  0  0  0  0
    3.1840    0.9180   -0.1450 C   0  0  0  0  0  0  0  0  0  0  0  0
    2.4650   -0.0990    0.7460 C   0  0  0  0  0  0  0  0  0  0  0  0
    2.2160    0.5590    2.0630 C   0  0  0  0  0  0  0  0  0  0  0  0
    1.1680   -0.5200    0.0570 C   0  0  2  0  0  0  0  0  0  0  0  0
    0.3350    0.6310   -0.1400 N   0  0  0  0  0  0  0  0  0  0  0  0
    0.5320   -1.6510    0.7490 C   0  0  0  0  0  0  0  0  0  0  0  0
   -0.6530   -1.5990    1.1390 O   0  0  0  0  0  0  0  0  0  0  0  0
    3.4170    0.3760   -1.0930 H   0  0  0  0  0  0  0  0  0  0  0  0
    2.5190    1.7500   -0.4180 H   0  0  0  0  0  0  0  0  0  0  0  0
    4.1230    1.2490    0.2920 H   0  0  0  0  0  0  0  0  0  0  0  0
    3.1040   -0.9920    0.8410 H   0  0  0  0  0  0  0  0  0  0  0  0
    2.3790    1.6570    2.0460 H   0  0  0  0  0  0  0  0  0  0  0  0
    1.1880    0.4050    2.4470 H   0  0  0  0  0  0  0  0  0  0  0  0
    2.9100    0.1570    2.8450 H   0  0  0  0  0  0  0  0  0  0  0  0
    1.5160   -0.8860   -0.9550 H   0  0  0  0  0  0  0  0  0  0  0  0
   -0.0970    1.0990    0.6830 H   0  0  0  0  0  0  0  0  0  0  0  0
   -0.8310   -3.8970   -2.4460 N   0  0  0  0  0  0  0  0  0  0  0  0
    0.1120   -4.2620   -1.4560 C   0  0  0  0  0  0  0  0  0  0  0  0
    1.2480   -3.7660   -1.5620 O   0  0  0  0  0  0  0  0  0  0  0  0
   -0.2430   -5.1710   -0.3830 C   0  0  0  0  0  0  0  0  0  0  0  0
    0.5960   -5.2300    0.8290 C   0  0  0  0  0  0  0  0  0  0  0  0
    0.6930   -3.9910    1.6670 C   0  0  2  0  0  0  0  0  0  0  0  0
    1.2480   -2.8680    1.0070 N   0  0  0  0  0  0  0  0  0  0  0  0
    1.5730   -4.3330    2.8360 C   0  0  0  0  0  0  0  0  0  0  0  0
    1.3190   -5.2900    3.6010 O   0  0  0  0  0  0  0  0  0  0  0  0
    2.7200   -3.5860    3.1140 O   0  0  0  0  0  0  0  0  0  0  0  0
   -1.7490   -3.5310   -2.1590 H   0  0  0  0  0  0  0  0  0  0  0  0
   -0.5970   -3.9970   -3.4430 H   0  0  0  0  0  0  0  0  0  0  0  0
   -1.3080   -5.0390   -0.0370 H   0  0  0  0  0  0  0  0  0  0  0  0
   -0.2180   -6.2230   -0.8280 H   0  0  0  0  0  0  0  0  0  0  0  0
    0.1470   -6.0390    1.4900 H   0  0  0  0  0  0  0  0  0  0  0  0
    1.6340   -5.6280    0.6020 H   0  0  0  0  0  0  0  0  0  0  0  0
   -0.3130   -3.7640    2.1200 H   0  0  0  0  0  0  0  0  0  0  0  0
    2.2680   -2.9390    0.7110 H   0  0  0  0  0  0  0  0  0  0  0  0
  1 13  1  0  0  0  0
  2  1  1  0  0  0  0
  3 14  1  0  0  0  0
  3  2  2  0  0  0  0
  4  3  1  0  0  0  0
  5  4  2  0  0  0  0
  5 11  1  0  0  0  0
  6  5  1  0  0  0  0
  7  9  1  0  0  0  0
  7  6  1  0  0  0  0
  7 18  1  1  0  0  0
  8  7  1  0  0  0  0
  9 27  1  0  0  0  0
 10  9  2  0  0  0  0
 11 12  2  0  0  0  0
 12  2  1  0  0  0  0
 12 22  1  0  0  0  0
 15  4  1  0  0  0  0
 16  6  1  0  0  0  0
 17  6  1  0  0  0  0
 19  8  1  0  0  0  0
 20  8  1  0  0  0  0
 21 11  1  0  0  0  0
 23 32  1  0  0  0  0
 23 24  1  0  0  0  0
 24 33  1  0  0  0  0
 24 25  1  0  0  0  0
 25 35  1  0  0  0  0
 25 36  1  0  0  0  0
 26 37  1  6  0  0  0
 26 24  1  0  0  0  0
 26 28  1  0  0  0  0
 27 26  1  0  0  0  0
 27 38  1  0  0  0  0
 28 45  1  0  0  0  0
 28 29  2  0  0  0  0
 30 23  1  0  0  0  0
 31 23  1  0  0  0  0
 34 25  1  0  0  0  0
 39 49  1  0  0  0  0
 39 40  1  0  0  0  0
 40 42  1  0  0  0  0
 41 40  2  0  0  0  0
 42 51  1  0  0  0  0
 42 43  1  0  0  0  0
 43 53  1  0  0  0  0
 43 44  1  0  0  0  0
 44 55  1  1  0  0  0
 44 46  1  0  0  0  0
 45 44  1  0  0  0  0
 46 48  2  0  0  0  0
 46 47  1  0  0  0  0
 50 39  1  0  0  0  0
 52 42  1  0  0  0  0
 54 43  1  0  0  0  0
 56 45  1  0  0  0  0
M  END
$$$$
