YVR.pdb
 OpenBabel07022419233D

 62 62  0  0  1  0  0  0  0  0999 V2000
    1.7400   -0.9090    6.4990 O   0  0  0  0  0  0  0  0  0  0  0  0
    2.3310   -0.4220    5.3260 C   0  0  0  0  0  0  0  0  0  0  0  0
    2.0300   -0.9370    4.0830 C   0  0  0  0  0  0  0  0  0  0  0  0
    2.6060   -0.4650    2.9230 C   0  0  0  0  0  0  0  0  0  0  0  0
    3.5250    0.5630    2.9710 C   0  0  0  0  0  0  0  0  0  0  0  0
    4.1640    1.0910    1.7490 C   0  0  0  0  0  0  0  0  0  0  0  0
    3.4130    2.2240    1.1120 C   0  0  2  0  0  0  0  0  0  0  0  0
    3.2990    3.3190    2.0540 N   0  0  0  0  0  0  0  0  0  0  0  0
    2.0900    1.9110    0.5900 C   0  0  0  0  0  0  0  0  0  0  0  0
    1.0920    2.5420    1.0670 O   0  0  0  0  0  0  0  0  0  0  0  0
    3.8470    1.1000    4.2060 C   0  0  0  0  0  0  0  0  0  0  0  0
    3.2560    0.6070    5.3360 C   0  0  0  0  0  0  0  0  0  0  0  0
    0.7200   -1.0250    6.5020 H   0  0  0  0  0  0  0  0  0  0  0  0
    1.3060   -1.7550    3.9880 H   0  0  0  0  0  0  0  0  0  0  0  0
    2.3450   -0.9000    1.9480 H   0  0  0  0  0  0  0  0  0  0  0  0
    5.1530    1.5060    2.0560 H   0  0  0  0  0  0  0  0  0  0  0  0
    4.3660    0.2550    1.0830 H   0  0  0  0  0  0  0  0  0  0  0  0
    3.9990    2.6420    0.2370 H   0  0  0  0  0  0  0  0  0  0  0  0
    2.6180    4.0020    1.6020 H   0  0  0  0  0  0  0  0  0  0  0  0
    2.8210    2.9200    2.9120 H   0  0  0  0  0  0  0  0  0  0  0  0
    4.5810    1.9180    4.2350 H   0  0  0  0  0  0  0  0  0  0  0  0
    3.5210    1.0420    6.2970 H   0  0  0  0  0  0  0  0  0  0  0  0
    0.6620    2.7780   -2.1290 C   0  0  0  0  0  0  0  0  0  0  0  0
    0.2730    1.2930   -2.2610 C   0  0  0  0  0  0  0  0  0  0  0  0
   -1.1800    1.2750   -2.6720 C   0  0  0  0  0  0  0  0  0  0  0  0
    0.4280    0.7510   -0.8450 C   0  0  2  0  0  0  0  0  0  0  0  0
    1.8260    0.9500   -0.4190 N   0  0  0  0  0  0  0  0  0  0  0  0
    0.1370   -0.6800   -0.7270 C   0  0  0  0  0  0  0  0  0  0  0  0
    1.1000   -1.4580   -0.4090 O   0  0  0  0  0  0  0  0  0  0  0  0
    1.6770    2.8290   -1.6820 H   0  0  0  0  0  0  0  0  0  0  0  0
   -0.0450    3.2690   -1.4080 H   0  0  0  0  0  0  0  0  0  0  0  0
    0.5870    3.2660   -3.1000 H   0  0  0  0  0  0  0  0  0  0  0  0
    0.9460    0.8470   -2.9860 H   0  0  0  0  0  0  0  0  0  0  0  0
   -1.4520    0.3540   -3.2150 H   0  0  0  0  0  0  0  0  0  0  0  0
   -1.8500    1.5340   -1.8310 H   0  0  0  0  0  0  0  0  0  0  0  0
   -1.3820    2.1020   -3.4270 H   0  0  0  0  0  0  0  0  0  0  0  0
   -0.2280    1.3840   -0.2270 H   0  0  0  0  0  0  0  0  0  0  0  0
    2.6190    0.4290   -0.8160 H   0  0  0  0  0  0  0  0  0  0  0  0
   -5.8920   -2.2890   -0.7200 N   0  0  0  0  0  0  0  0  0  0  0  0
   -5.1840   -3.4820   -1.0180 C   0  0  0  0  0  0  0  0  0  0  0  0
   -4.7350   -3.6670   -2.2120 N   0  0  0  0  0  0  0  0  0  0  0  0
   -4.9500   -4.4960   -0.0670 N   0  0  0  0  0  0  0  0  0  0  0  0
   -3.6410   -5.0500    0.2030 C   0  0  0  0  0  0  0  0  0  0  0  0
   -2.7050   -4.1510    0.8990 C   0  0  0  0  0  0  0  0  0  0  0  0
   -2.2110   -2.9030    0.3640 C   0  0  0  0  0  0  0  0  0  0  0  0
   -1.2980   -2.7820   -0.7800 C   0  0  2  0  0  0  0  0  0  0  0  0
   -1.1000   -1.2990   -0.9240 N   0  0  0  0  0  0  0  0  0  0  0  0
   -1.6060   -3.2710   -2.0940 C   0  0  0  0  0  0  0  0  0  0  0  0
   -1.7090   -4.4830   -2.4130 O   0  0  0  0  0  0  0  0  0  0  0  0
   -1.8300   -2.3930   -3.1910 O   0  0  0  0  0  0  0  0  0  0  0  0
   -6.7150   -2.3000   -0.0590 H   0  0  0  0  0  0  0  0  0  0  0  0
   -5.5790   -1.4070   -1.1680 H   0  0  0  0  0  0  0  0  0  0  0  0
   -4.8800   -2.9640   -2.9560 H   0  0  0  0  0  0  0  0  0  0  0  0
   -5.8030   -4.8440    0.4740 H   0  0  0  0  0  0  0  0  0  0  0  0
   -3.8040   -5.9410    0.9240 H   0  0  0  0  0  0  0  0  0  0  0  0
   -3.2840   -5.5560   -0.7080 H   0  0  0  0  0  0  0  0  0  0  0  0
   -1.8120   -4.7360    1.3060 H   0  0  0  0  0  0  0  0  0  0  0  0
   -3.2370   -3.8900    1.8940 H   0  0  0  0  0  0  0  0  0  0  0  0
   -3.1000   -2.1610    0.2470 H   0  0  0  0  0  0  0  0  0  0  0  0
   -1.6670   -2.3660    1.2350 H   0  0  0  0  0  0  0  0  0  0  0  0
   -0.2620   -3.1640   -0.5220 H   0  0  0  0  0  0  0  0  0  0  0  0
   -1.9250   -0.7310   -1.1750 H   0  0  0  0  0  0  0  0  0  0  0  0
  1 13  1  0  0  0  0
  2 12  1  0  0  0  0
  2  1  1  0  0  0  0
  3  2  2  0  0  0  0
  4  5  2  0  0  0  0
  4  3  1  0  0  0  0
  5 11  1  0  0  0  0
  6 16  1  0  0  0  0
  6  5  1  0  0  0  0
  7 18  1  6  0  0  0
  7  6  1  0  0  0  0
  7  8  1  0  0  0  0
  8 20  1  0  0  0  0
  9 10  2  0  0  0  0
  9  7  1  0  0  0  0
 11 21  1  0  0  0  0
 11 12  2  0  0  0  0
 12 22  1  0  0  0  0
 14  3  1  0  0  0  0
 15  4  1  0  0  0  0
 17  6  1  0  0  0  0
 19  8  1  0  0  0  0
 23 30  1  0  0  0  0
 23 31  1  0  0  0  0
 24 23  1  0  0  0  0
 24 26  1  0  0  0  0
 25 24  1  0  0  0  0
 25 35  1  0  0  0  0
 26 28  1  0  0  0  0
 26 27  1  0  0  0  0
 26 37  1  1  0  0  0
 27  9  1  0  0  0  0
 28 29  2  0  0  0  0
 32 23  1  0  0  0  0
 33 24  1  0  0  0  0
 34 25  1  0  0  0  0
 36 25  1  0  0  0  0
 38 27  1  0  0  0  0
 39 51  1  0  0  0  0
 40 39  1  0  0  0  0
 40 42  1  0  0  0  0
 41 40  2  0  0  0  0
 42 43  1  0  0  0  0
 42 54  1  0  0  0  0
 43 44  1  0  0  0  0
 43 55  1  0  0  0  0
 44 57  1  0  0  0  0
 44 58  1  0  0  0  0
 45 44  1  0  0  0  0
 45 60  1  0  0  0  0
 46 61  1  1  0  0  0
 46 45  1  0  0  0  0
 47 46  1  0  0  0  0
 47 28  1  0  0  0  0
 48 46  1  0  0  0  0
 49 48  1  0  0  0  0
 50 48  2  0  0  0  0
 52 39  1  0  0  0  0
 53 41  1  0  0  0  0
 56 43  1  0  0  0  0
 59 45  1  0  0  0  0
 62 47  1  0  0  0  0
M  END
$$$$
