YVV.pdb
 OpenBabel07022419243D

 55 55  0  0  1  0  0  0  0  0999 V2000
    3.6030   -4.1260    5.5220 O   0  0  0  0  0  0  0  0  0  0  0  0
    3.7550   -3.2170    4.4720 C   0  0  0  0  0  0  0  0  0  0  0  0
    4.6510   -3.4880    3.4730 C   0  0  0  0  0  0  0  0  0  0  0  0
    4.8180   -2.6100    2.4310 C   0  0  0  0  0  0  0  0  0  0  0  0
    4.0520   -1.4520    2.4300 C   0  0  0  0  0  0  0  0  0  0  0  0
    4.2000   -0.4860    1.3390 C   0  0  0  0  0  0  0  0  0  0  0  0
    3.2960   -0.7260    0.1600 C   0  0  2  0  0  0  0  0  0  0  0  0
    3.5580    0.3070   -0.8300 N   0  0  0  0  0  0  0  0  0  0  0  0
    1.8610   -0.7450    0.4960 C   0  0  0  0  0  0  0  0  0  0  0  0
    1.4170   -1.5850    1.3280 O   0  0  0  0  0  0  0  0  0  0  0  0
    3.1420   -1.1760    3.4450 C   0  0  0  0  0  0  0  0  0  0  0  0
    2.9830   -2.0650    4.4870 C   0  0  0  0  0  0  0  0  0  0  0  0
    2.7180   -4.2300    6.0110 H   0  0  0  0  0  0  0  0  0  0  0  0
    5.2590   -4.4020    3.4670 H   0  0  0  0  0  0  0  0  0  0  0  0
    5.5140   -2.7760    1.6110 H   0  0  0  0  0  0  0  0  0  0  0  0
    3.9350    0.5360    1.7360 H   0  0  0  0  0  0  0  0  0  0  0  0
    5.2400   -0.3830    0.9760 H   0  0  0  0  0  0  0  0  0  0  0  0
    3.5280   -1.7000   -0.3360 H   0  0  0  0  0  0  0  0  0  0  0  0
    3.7300   -0.0820   -1.7830 H   0  0  0  0  0  0  0  0  0  0  0  0
    4.2880    0.9810   -0.5290 H   0  0  0  0  0  0  0  0  0  0  0  0
    2.5360   -0.2720    3.4600 H   0  0  0  0  0  0  0  0  0  0  0  0
    2.2920   -1.8700    5.2700 H   0  0  0  0  0  0  0  0  0  0  0  0
   -2.1300    1.5880    1.4910 C   0  0  0  0  0  0  0  0  0  0  0  0
   -0.7440    1.4040    0.9880 C   0  0  0  0  0  0  0  0  0  0  0  0
   -0.2710    2.5760    0.1530 C   0  0  0  0  0  0  0  0  0  0  0  0
   -0.4800    0.0890    0.2900 C   0  0  2  0  0  0  0  0  0  0  0  0
    0.9500    0.1650   -0.0950 N   0  0  0  0  0  0  0  0  0  0  0  0
   -1.3020   -0.1210   -0.9200 C   0  0  0  0  0  0  0  0  0  0  0  0
   -0.7290   -0.1150   -2.0650 O   0  0  0  0  0  0  0  0  0  0  0  0
   -2.4710    0.6630    1.9810 H   0  0  0  0  0  0  0  0  0  0  0  0
   -2.0780    2.3950    2.2810 H   0  0  0  0  0  0  0  0  0  0  0  0
   -2.8730    1.8600    0.7150 H   0  0  0  0  0  0  0  0  0  0  0  0
   -0.0640    1.3930    1.8890 H   0  0  0  0  0  0  0  0  0  0  0  0
    0.8120    2.7710    0.2960 H   0  0  0  0  0  0  0  0  0  0  0  0
   -0.4030    2.3860   -0.9410 H   0  0  0  0  0  0  0  0  0  0  0  0
   -0.8310    3.4660    0.4920 H   0  0  0  0  0  0  0  0  0  0  0  0
   -0.6310   -0.7180    1.0280 H   0  0  0  0  0  0  0  0  0  0  0  0
    1.2410    0.8840   -0.7880 H   0  0  0  0  0  0  0  0  0  0  0  0
   -5.0040   -2.1620   -0.9770 C   0  0  0  0  0  0  0  0  0  0  0  0
   -4.0930   -1.9280   -2.1370 C   0  0  0  0  0  0  0  0  0  0  0  0
   -3.0010   -2.9890   -2.2260 C   0  0  0  0  0  0  0  0  0  0  0  0
   -3.4790   -0.5320   -2.1150 C   0  0  2  0  0  0  0  0  0  0  0  0
   -2.6990   -0.3320   -0.9020 N   0  0  0  0  0  0  0  0  0  0  0  0
   -4.5830    0.4370   -2.2100 C   0  0  0  0  0  0  0  0  0  0  0  0
   -4.7450    1.2830   -1.3120 O   0  0  0  0  0  0  0  0  0  0  0  0
   -5.4380    0.4150   -3.2840 O   0  0  0  0  0  0  0  0  0  0  0  0
   -5.1330   -1.2770   -0.3200 H   0  0  0  0  0  0  0  0  0  0  0  0
   -4.5590   -2.9830   -0.3470 H   0  0  0  0  0  0  0  0  0  0  0  0
   -6.0370   -2.4600   -1.2960 H   0  0  0  0  0  0  0  0  0  0  0  0
   -4.6690   -2.0020   -3.0770 H   0  0  0  0  0  0  0  0  0  0  0  0
   -3.4750   -3.9480   -2.5180 H   0  0  0  0  0  0  0  0  0  0  0  0
   -2.1760   -2.6750   -2.8680 H   0  0  0  0  0  0  0  0  0  0  0  0
   -2.6330   -3.1330   -1.1760 H   0  0  0  0  0  0  0  0  0  0  0  0
   -2.7800   -0.4840   -2.9690 H   0  0  0  0  0  0  0  0  0  0  0  0
   -3.2300   -0.3610   -0.0100 H   0  0  0  0  0  0  0  0  0  0  0  0
  1 13  1  0  0  0  0
  2 12  1  0  0  0  0
  2  1  1  0  0  0  0
  3  2  2  0  0  0  0
  4  3  1  0  0  0  0
  5  4  2  0  0  0  0
  5 11  1  0  0  0  0
  6 16  1  0  0  0  0
  6  5  1  0  0  0  0
  7 18  1  6  0  0  0
  7  9  1  0  0  0  0
  7  6  1  0  0  0  0
  8 20  1  0  0  0  0
  8  7  1  0  0  0  0
  9 10  2  0  0  0  0
 11 21  1  0  0  0  0
 11 12  2  0  0  0  0
 12 22  1  0  0  0  0
 14  3  1  0  0  0  0
 15  4  1  0  0  0  0
 17  6  1  0  0  0  0
 19  8  1  0  0  0  0
 23 30  1  0  0  0  0
 23 31  1  0  0  0  0
 24 23  1  0  0  0  0
 24 33  1  0  0  0  0
 25 34  1  0  0  0  0
 25 36  1  0  0  0  0
 25 24  1  0  0  0  0
 26 24  1  0  0  0  0
 26 37  1  1  0  0  0
 27 26  1  0  0  0  0
 27  9  1  0  0  0  0
 28 43  1  0  0  0  0
 28 26  1  0  0  0  0
 29 28  2  0  0  0  0
 32 23  1  0  0  0  0
 35 25  1  0  0  0  0
 38 27  1  0  0  0  0
 39 48  1  0  0  0  0
 39 47  1  0  0  0  0
 40 42  1  0  0  0  0
 40 39  1  0  0  0  0
 41 40  1  0  0  0  0
 41 53  1  0  0  0  0
 42 54  1  6  0  0  0
 42 43  1  0  0  0  0
 43 55  1  0  0  0  0
 44 42  1  0  0  0  0
 44 45  1  0  0  0  0
 46 44  2  0  0  0  0
 49 39  1  0  0  0  0
 50 40  1  0  0  0  0
 51 41  1  0  0  0  0
 52 41  1  0  0  0  0
M  END
$$$$
