YVW.pdb
 OpenBabel07022419243D

 63 65  0  0  1  0  0  0  0  0999 V2000
    0.2540   -2.8970    6.8030 O   0  0  0  0  0  0  0  0  0  0  0  0
    0.9000   -2.0690    5.9090 C   0  0  0  0  0  0  0  0  0  0  0  0
    2.1920   -2.3400    5.5160 C   0  0  0  0  0  0  0  0  0  0  0  0
    2.8680   -1.5400    4.6280 C   0  0  0  0  0  0  0  0  0  0  0  0
    2.2710   -0.4000    4.0760 C   0  0  0  0  0  0  0  0  0  0  0  0
    2.9920    0.4650    3.1430 C   0  0  0  0  0  0  0  0  0  0  0  0
    2.9030    0.0180    1.7090 C   0  0  2  0  0  0  0  0  0  0  0  0
    3.6460    0.9340    0.8380 N   0  0  0  0  0  0  0  0  0  0  0  0
    1.4920    0.0560    1.2740 C   0  0  0  0  0  0  0  0  0  0  0  0
    0.6870   -0.7240    1.8210 O   0  0  0  0  0  0  0  0  0  0  0  0
    0.9630   -0.1450    4.4880 C   0  0  0  0  0  0  0  0  0  0  0  0
    0.3040   -0.9490    5.3710 C   0  0  0  0  0  0  0  0  0  0  0  0
   -0.1050   -3.7890    6.4830 H   0  0  0  0  0  0  0  0  0  0  0  0
    2.6770   -3.2210    5.9310 H   0  0  0  0  0  0  0  0  0  0  0  0
    3.8770   -1.7810    4.3420 H   0  0  0  0  0  0  0  0  0  0  0  0
    4.0440    0.5960    3.4790 H   0  0  0  0  0  0  0  0  0  0  0  0
    2.5150    1.4830    3.1820 H   0  0  0  0  0  0  0  0  0  0  0  0
    3.3060   -1.0150    1.5750 H   0  0  0  0  0  0  0  0  0  0  0  0
    4.5480    1.2050    1.2930 H   0  0  0  0  0  0  0  0  0  0  0  0
    3.9180    0.3590    0.0020 H   0  0  0  0  0  0  0  0  0  0  0  0
    0.4460    0.7400    4.0940 H   0  0  0  0  0  0  0  0  0  0  0  0
   -0.7110   -0.7130    5.6630 H   0  0  0  0  0  0  0  0  0  0  0  0
   -2.4490    2.3720   -0.0900 C   0  0  0  0  0  0  0  0  0  0  0  0
   -1.0070    2.2410    0.2110 C   0  0  0  0  0  0  0  0  0  0  0  0
   -0.7470    2.6280    1.6520 C   0  0  0  0  0  0  0  0  0  0  0  0
   -0.3760    0.9070   -0.0990 C   0  0  2  0  0  0  0  0  0  0  0  0
    1.0490    0.9440    0.2660 N   0  0  0  0  0  0  0  0  0  0  0  0
   -0.4310    0.4960   -1.4960 C   0  0  0  0  0  0  0  0  0  0  0  0
    0.6340    0.3390   -2.1430 O   0  0  0  0  0  0  0  0  0  0  0  0
   -2.6650    2.6520   -1.1410 H   0  0  0  0  0  0  0  0  0  0  0  0
   -2.8790    3.2480    0.4980 H   0  0  0  0  0  0  0  0  0  0  0  0
   -3.0660    1.5160    0.2790 H   0  0  0  0  0  0  0  0  0  0  0  0
   -0.4370    2.9950   -0.4070 H   0  0  0  0  0  0  0  0  0  0  0  0
   -0.8240    1.7180    2.3130 H   0  0  0  0  0  0  0  0  0  0  0  0
    0.2250    3.1020    1.8120 H   0  0  0  0  0  0  0  0  0  0  0  0
   -1.5300    3.3220    2.0360 H   0  0  0  0  0  0  0  0  0  0  0  0
   -0.8580    0.1600    0.5440 H   0  0  0  0  0  0  0  0  0  0  0  0
    1.7020    1.6060   -0.2060 H   0  0  0  0  0  0  0  0  0  0  0  0
   -1.6300    0.2460   -2.2100 N   0  0  0  0  0  0  0  0  0  0  0  0
   -1.6120   -0.1610   -3.6090 C   0  0  1  0  0  0  0  0  0  0  0  0
   -2.1180   -1.5410   -3.8620 C   0  0  0  0  0  0  0  0  0  0  0  0
   -1.3740   -2.6250   -3.1870 C   0  0  0  0  0  0  0  0  0  0  0  0
   -0.3950   -3.4330   -3.7470 C   0  0  0  0  0  0  0  0  0  0  0  0
    0.0470   -4.2690   -2.8030 N   0  0  0  0  0  0  0  0  0  0  0  0
   -0.6060   -4.0350   -1.6560 C   0  0  0  0  0  0  0  0  0  0  0  0
   -0.4880   -4.6580   -0.4110 C   0  0  0  0  0  0  0  0  0  0  0  0
   -1.2840   -4.2420    0.6310 C   0  0  0  0  0  0  0  0  0  0  0  0
   -2.1770   -3.2230    0.4180 C   0  0  0  0  0  0  0  0  0  0  0  0
   -2.2700   -2.6320   -0.8110 C   0  0  0  0  0  0  0  0  0  0  0  0
   -1.4980   -3.0090   -1.8830 C   0  0  0  0  0  0  0  0  0  0  0  0
   -2.4420    0.7720   -4.3920 C   0  0  0  0  0  0  0  0  0  0  0  0
   -2.5650    0.6060   -5.6190 O   0  0  0  0  0  0  0  0  0  0  0  0
   -3.0760    1.8180   -3.7720 O   0  0  0  0  0  0  0  0  0  0  0  0
   -2.5350    0.3620   -1.7050 H   0  0  0  0  0  0  0  0  0  0  0  0
   -0.5360   -0.1320   -3.9460 H   0  0  0  0  0  0  0  0  0  0  0  0
   -3.2120   -1.6010   -3.6370 H   0  0  0  0  0  0  0  0  0  0  0  0
   -2.0390   -1.7160   -4.9550 H   0  0  0  0  0  0  0  0  0  0  0  0
   -0.0600   -3.3830   -4.7680 H   0  0  0  0  0  0  0  0  0  0  0  0
    0.7960   -5.0160   -2.9070 H   0  0  0  0  0  0  0  0  0  0  0  0
    0.2080   -5.4610   -0.2280 H   0  0  0  0  0  0  0  0  0  0  0  0
   -1.1920   -4.7320    1.6110 H   0  0  0  0  0  0  0  0  0  0  0  0
   -2.8070   -2.8850    1.2200 H   0  0  0  0  0  0  0  0  0  0  0  0
   -2.9910   -1.8290   -0.9710 H   0  0  0  0  0  0  0  0  0  0  0  0
  2  1  1  0  0  0  0
  3  2  1  0  0  0  0
  3 14  1  0  0  0  0
  4  3  2  0  0  0  0
  5 11  2  0  0  0  0
  5  4  1  0  0  0  0
  6 17  1  0  0  0  0
  6 16  1  0  0  0  0
  6  5  1  0  0  0  0
  7 18  1  6  0  0  0
  7  6  1  0  0  0  0
  8 19  1  0  0  0  0
  8  7  1  0  0  0  0
  9  7  1  0  0  0  0
  9 10  2  0  0  0  0
 11 12  1  0  0  0  0
 12 22  1  0  0  0  0
 12  2  2  0  0  0  0
 13  1  1  0  0  0  0
 15  4  1  0  0  0  0
 20  8  1  0  0  0  0
 21 11  1  0  0  0  0
 23 24  1  0  0  0  0
 23 32  1  0  0  0  0
 23 31  1  0  0  0  0
 24 25  1  0  0  0  0
 25 35  1  0  0  0  0
 25 36  1  0  0  0  0
 25 34  1  0  0  0  0
 26 24  1  0  0  0  0
 26 27  1  0  0  0  0
 26 37  1  1  0  0  0
 27  9  1  0  0  0  0
 28 26  1  0  0  0  0
 29 28  2  0  0  0  0
 30 23  1  0  0  0  0
 33 24  1  0  0  0  0
 38 27  1  0  0  0  0
 39 54  1  0  0  0  0
 39 28  1  0  0  0  0
 40 55  1  6  0  0  0
 40 39  1  0  0  0  0
 41 56  1  0  0  0  0
 41 40  1  0  0  0  0
 41 42  1  0  0  0  0
 42 50  1  0  0  0  0
 43 42  2  0  0  0  0
 43 44  1  0  0  0  0
 44 45  1  0  0  0  0
 45 46  1  0  0  0  0
 46 60  1  0  0  0  0
 46 47  2  0  0  0  0
 47 61  1  0  0  0  0
 48 47  1  0  0  0  0
 48 62  1  0  0  0  0
 49 48  2  0  0  0  0
 50 45  2  0  0  0  0
 50 49  1  0  0  0  0
 51 53  1  0  0  0  0
 51 40  1  0  0  0  0
 52 51  2  0  0  0  0
 57 41  1  0  0  0  0
 58 43  1  0  0  0  0
 59 44  1  0  0  0  0
 63 49  1  0  0  0  0
M  END
$$$$
