YWA.pdb
 OpenBabel07022419233D

 57 59  0  0  1  0  0  0  0  0999 V2000
   -1.0130    0.5270    6.7200 O   0  0  0  0  0  0  0  0  0  0  0  0
    0.0540    0.6180    5.8370 C   0  0  0  0  0  0  0  0  0  0  0  0
    0.8200    1.7660    5.7640 C   0  0  0  0  0  0  0  0  0  0  0  0
    1.8870    1.8790    4.8910 C   0  0  0  0  0  0  0  0  0  0  0  0
    2.2080    0.8310    4.0690 C   0  0  0  0  0  0  0  0  0  0  0  0
    3.3380    0.9490    3.1460 C   0  0  0  0  0  0  0  0  0  0  0  0
    2.9920    1.4990    1.7970 C   0  0  2  0  0  0  0  0  0  0  0  0
    2.4320    2.8120    1.8340 N   0  0  0  0  0  0  0  0  0  0  0  0
    2.1490    0.5200    1.0630 C   0  0  0  0  0  0  0  0  0  0  0  0
    2.6190   -0.6640    1.0050 O   0  0  0  0  0  0  0  0  0  0  0  0
    1.4450   -0.3150    4.1400 C   0  0  0  0  0  0  0  0  0  0  0  0
    0.3740   -0.4360    5.0120 C   0  0  0  0  0  0  0  0  0  0  0  0
   -0.8570    0.3510    7.7250 H   0  0  0  0  0  0  0  0  0  0  0  0
    0.5760    2.6050    6.4110 H   0  0  0  0  0  0  0  0  0  0  0  0
    2.4500    2.8230    4.8890 H   0  0  0  0  0  0  0  0  0  0  0  0
    3.8410   -0.0360    2.9790 H   0  0  0  0  0  0  0  0  0  0  0  0
    4.0820    1.6420    3.6070 H   0  0  0  0  0  0  0  0  0  0  0  0
    3.9540    1.5650    1.2250 H   0  0  0  0  0  0  0  0  0  0  0  0
    1.5460    2.9020    2.3410 H   0  0  0  0  0  0  0  0  0  0  0  0
    2.5090    3.3180    0.9480 H   0  0  0  0  0  0  0  0  0  0  0  0
    1.6430   -1.1850    3.5180 H   0  0  0  0  0  0  0  0  0  0  0  0
   -0.2240   -1.3270    5.0720 H   0  0  0  0  0  0  0  0  0  0  0  0
    0.9340    0.8100    0.4650 N   0  0  0  0  0  0  0  0  0  0  0  0
    0.1800   -0.2640   -0.2450 C   0  0  1  0  0  0  0  0  0  0  0  0
   -1.0890   -0.5130    0.5090 C   0  0  0  0  0  0  0  0  0  0  0  0
   -1.8900   -1.5740   -0.0990 C   0  0  0  0  0  0  0  0  0  0  0  0
   -3.0870   -1.4010   -0.7910 C   0  0  0  0  0  0  0  0  0  0  0  0
   -3.5590   -2.6020   -1.1730 N   0  0  0  0  0  0  0  0  0  0  0  0
   -2.7030   -3.5480   -0.7490 C   0  0  0  0  0  0  0  0  0  0  0  0
   -2.7000   -4.9330   -0.8650 C   0  0  0  0  0  0  0  0  0  0  0  0
   -1.6790   -5.7010   -0.3280 C   0  0  0  0  0  0  0  0  0  0  0  0
   -0.6440   -5.0740    0.3370 C   0  0  0  0  0  0  0  0  0  0  0  0
   -0.6260   -3.6790    0.4670 C   0  0  0  0  0  0  0  0  0  0  0  0
   -1.6530   -2.9470   -0.0770 C   0  0  0  0  0  0  0  0  0  0  0  0
    0.0600    0.1100   -1.6560 C   0  0  0  0  0  0  0  0  0  0  0  0
    0.4500    1.2730   -2.0190 O   0  0  0  0  0  0  0  0  0  0  0  0
    0.5080    1.7310    0.4760 H   0  0  0  0  0  0  0  0  0  0  0  0
    0.8000   -1.1760   -0.1370 H   0  0  0  0  0  0  0  0  0  0  0  0
   -1.6760    0.4250    0.6720 H   0  0  0  0  0  0  0  0  0  0  0  0
   -0.7910   -0.8450    1.5380 H   0  0  0  0  0  0  0  0  0  0  0  0
   -3.5690   -0.4420   -0.9940 H   0  0  0  0  0  0  0  0  0  0  0  0
   -4.4510   -2.7710   -1.7140 H   0  0  0  0  0  0  0  0  0  0  0  0
   -3.5340   -5.3970   -1.3980 H   0  0  0  0  0  0  0  0  0  0  0  0
   -1.7110   -6.7890   -0.4400 H   0  0  0  0  0  0  0  0  0  0  0  0
    0.1470   -5.6800    0.7530 H   0  0  0  0  0  0  0  0  0  0  0  0
    0.1850   -3.1970    0.9880 H   0  0  0  0  0  0  0  0  0  0  0  0
    0.4680   -1.0320   -4.9260 C   0  0  0  0  0  0  0  0  0  0  0  0
   -0.5120   -0.2640   -4.0630 C   0  0  2  0  0  0  0  0  0  0  0  0
   -0.4450   -0.7020   -2.6770 N   0  0  0  0  0  0  0  0  0  0  0  0
   -1.8620   -0.4420   -4.5790 C   0  0  0  0  0  0  0  0  0  0  0  0
   -2.7740   -0.9230   -3.8920 O   0  0  0  0  0  0  0  0  0  0  0  0
   -2.1550   -0.0670   -5.8820 O   0  0  0  0  0  0  0  0  0  0  0  0
    1.3330   -0.4080   -5.2590 H   0  0  0  0  0  0  0  0  0  0  0  0
   -0.0630   -1.3140   -5.8550 H   0  0  0  0  0  0  0  0  0  0  0  0
    0.8280   -1.9470   -4.4510 H   0  0  0  0  0  0  0  0  0  0  0  0
   -0.1790    0.7990   -4.1210 H   0  0  0  0  0  0  0  0  0  0  0  0
   -0.7810   -1.6540   -2.4650 H   0  0  0  0  0  0  0  0  0  0  0  0
  1 13  1  0  0  0  0
  2  1  1  0  0  0  0
  3  2  1  0  0  0  0
  3 14  1  0  0  0  0
  4  3  2  0  0  0  0
  5 11  2  0  0  0  0
  5  4  1  0  0  0  0
  6 17  1  0  0  0  0
  6  5  1  0  0  0  0
  7 18  1  6  0  0  0
  7  8  1  0  0  0  0
  7  6  1  0  0  0  0
  8 19  1  0  0  0  0
  9  7  1  0  0  0  0
 10  9  2  0  0  0  0
 11 12  1  0  0  0  0
 12 22  1  0  0  0  0
 12  2  2  0  0  0  0
 15  4  1  0  0  0  0
 16  6  1  0  0  0  0
 20  8  1  0  0  0  0
 21 11  1  0  0  0  0
 23 37  1  0  0  0  0
 23  9  1  0  0  0  0
 24 38  1  1  0  0  0
 24 23  1  0  0  0  0
 24 25  1  0  0  0  0
 25 39  1  0  0  0  0
 25 40  1  0  0  0  0
 26 34  1  0  0  0  0
 26 25  1  0  0  0  0
 27 26  2  0  0  0  0
 28 27  1  0  0  0  0
 28 29  1  0  0  0  0
 29 34  1  0  0  0  0
 30 29  2  0  0  0  0
 30 31  1  0  0  0  0
 31 32  2  0  0  0  0
 32 33  1  0  0  0  0
 32 45  1  0  0  0  0
 33 46  1  0  0  0  0
 34 33  2  0  0  0  0
 35 24  1  0  0  0  0
 36 35  2  0  0  0  0
 41 27  1  0  0  0  0
 42 28  1  0  0  0  0
 43 30  1  0  0  0  0
 44 31  1  0  0  0  0
 47 55  1  0  0  0  0
 47 48  1  0  0  0  0
 48 56  1  6  0  0  0
 48 49  1  0  0  0  0
 49 57  1  0  0  0  0
 49 35  1  0  0  0  0
 50 48  1  0  0  0  0
 50 51  1  0  0  0  0
 52 50  2  0  0  0  0
 53 47  1  0  0  0  0
 54 47  1  0  0  0  0
M  END
$$$$
