YWC.pdb
 OpenBabel07022419233D

 58 60  0  0  1  0  0  0  0  0999 V2000
    4.1200   -2.7120    6.5460 O   0  0  0  0  0  0  0  0  0  0  0  0
    3.9180   -1.6370    5.6930 C   0  0  0  0  0  0  0  0  0  0  0  0
    4.9700   -0.8530    5.2320 C   0  0  0  0  0  0  0  0  0  0  0  0
    4.7650    0.2130    4.3850 C   0  0  0  0  0  0  0  0  0  0  0  0
    3.4970    0.5090    3.9890 C   0  0  0  0  0  0  0  0  0  0  0  0
    3.1500    1.6310    3.0860 C   0  0  0  0  0  0  0  0  0  0  0  0
    3.1540    1.2820    1.6300 C   0  0  2  0  0  0  0  0  0  0  0  0
    2.7850    2.5270    0.9310 N   0  0  0  0  0  0  0  0  0  0  0  0
    2.1090    0.2880    1.2710 C   0  0  0  0  0  0  0  0  0  0  0  0
    2.2050   -0.9070    1.6610 O   0  0  0  0  0  0  0  0  0  0  0  0
    2.4590   -0.2690    4.4470 C   0  0  0  0  0  0  0  0  0  0  0  0
    2.6320   -1.3380    5.2920 C   0  0  0  0  0  0  0  0  0  0  0  0
    3.5500   -3.5280    6.3860 H   0  0  0  0  0  0  0  0  0  0  0  0
    5.9610   -1.1300    5.5770 H   0  0  0  0  0  0  0  0  0  0  0  0
    5.5750    0.8110    4.0350 H   0  0  0  0  0  0  0  0  0  0  0  0
    3.9220    2.4180    3.2340 H   0  0  0  0  0  0  0  0  0  0  0  0
    2.1730    2.0540    3.3380 H   0  0  0  0  0  0  0  0  0  0  0  0
    4.1580    1.0150    1.2490 H   0  0  0  0  0  0  0  0  0  0  0  0
    1.9240    2.8670    1.4190 H   0  0  0  0  0  0  0  0  0  0  0  0
    3.5230    3.2470    1.0870 H   0  0  0  0  0  0  0  0  0  0  0  0
    1.4260   -0.0590    4.1500 H   0  0  0  0  0  0  0  0  0  0  0  0
    1.7940   -1.9480    5.6480 H   0  0  0  0  0  0  0  0  0  0  0  0
    0.9720    0.6110    0.4920 N   0  0  0  0  0  0  0  0  0  0  0  0
   -0.0670   -0.3910    0.1370 C   0  0  1  0  0  0  0  0  0  0  0  0
   -1.3090   -0.0840    0.8880 C   0  0  0  0  0  0  0  0  0  0  0  0
   -2.4710   -0.9330    0.6460 C   0  0  0  0  0  0  0  0  0  0  0  0
   -2.9170   -2.0250    1.3580 C   0  0  0  0  0  0  0  0  0  0  0  0
   -4.0290   -2.5190    0.7940 N   0  0  0  0  0  0  0  0  0  0  0  0
   -4.3610   -1.7870   -0.2960 C   0  0  0  0  0  0  0  0  0  0  0  0
   -5.4000   -1.8680   -1.1950 C   0  0  0  0  0  0  0  0  0  0  0  0
   -5.4750   -0.9460   -2.2080 C   0  0  0  0  0  0  0  0  0  0  0  0
   -4.5220    0.0360   -2.3140 C   0  0  0  0  0  0  0  0  0  0  0  0
   -3.4900    0.1100   -1.4160 C   0  0  0  0  0  0  0  0  0  0  0  0
   -3.3910   -0.7940   -0.3960 C   0  0  0  0  0  0  0  0  0  0  0  0
   -0.1420   -0.5770   -1.2990 C   0  0  0  0  0  0  0  0  0  0  0  0
    0.4000    0.2520   -2.1270 O   0  0  0  0  0  0  0  0  0  0  0  0
    0.8490    1.5640    0.1560 H   0  0  0  0  0  0  0  0  0  0  0  0
    0.3340   -1.3510    0.5820 H   0  0  0  0  0  0  0  0  0  0  0  0
   -1.5790    1.0090    0.7360 H   0  0  0  0  0  0  0  0  0  0  0  0
   -1.1000   -0.1690    2.0030 H   0  0  0  0  0  0  0  0  0  0  0  0
   -2.4620   -2.4510    2.2450 H   0  0  0  0  0  0  0  0  0  0  0  0
   -4.5760   -3.3370    1.1200 H   0  0  0  0  0  0  0  0  0  0  0  0
   -6.1290   -2.6260   -1.1090 H   0  0  0  0  0  0  0  0  0  0  0  0
   -6.2730   -0.9530   -2.9540 H   0  0  0  0  0  0  0  0  0  0  0  0
   -4.5540    0.7770   -3.1020 H   0  0  0  0  0  0  0  0  0  0  0  0
   -2.7140    0.8710   -1.4620 H   0  0  0  0  0  0  0  0  0  0  0  0
   -0.7910   -1.6640   -1.9540 N   0  0  0  0  0  0  0  0  0  0  0  0
   -0.8090   -1.7720   -3.4200 C   0  0  1  0  0  0  0  0  0  0  0  0
    0.3710   -2.7350   -3.7340 C   0  0  0  0  0  0  0  0  0  0  0  0
    1.8840   -1.9660   -3.0980 S   0  0  0  0  0  0  0  0  0  0  0  0
   -2.0530   -2.3060   -3.9540 C   0  0  0  0  0  0  0  0  0  0  0  0
   -2.9650   -2.6740   -3.1880 O   0  0  0  0  0  0  0  0  0  0  0  0
   -2.2430   -2.4120   -5.3170 O   0  0  0  0  0  0  0  0  0  0  0  0
   -1.2580   -2.4040   -1.3890 H   0  0  0  0  0  0  0  0  0  0  0  0
   -0.4760   -0.8290   -3.8940 H   0  0  0  0  0  0  0  0  0  0  0  0
    0.2130   -3.7100   -3.2670 H   0  0  0  0  0  0  0  0  0  0  0  0
    0.4840   -2.8080   -4.8350 H   0  0  0  0  0  0  0  0  0  0  0  0
    2.1160   -2.2970   -1.7610 H   0  0  0  0  0  0  0  0  0  0  0  0
  2  1  1  0  0  0  0
  3 14  1  0  0  0  0
  3  2  2  0  0  0  0
  4  3  1  0  0  0  0
  5  4  2  0  0  0  0
  5 11  1  0  0  0  0
  6 16  1  0  0  0  0
  6 17  1  0  0  0  0
  6  5  1  0  0  0  0
  7 18  1  6  0  0  0
  7  6  1  0  0  0  0
  8 20  1  0  0  0  0
  8 19  1  0  0  0  0
  8  7  1  0  0  0  0
  9  7  1  0  0  0  0
  9 10  2  0  0  0  0
 11 12  2  0  0  0  0
 12 22  1  0  0  0  0
 12  2  1  0  0  0  0
 13  1  1  0  0  0  0
 15  4  1  0  0  0  0
 21 11  1  0  0  0  0
 23  9  1  0  0  0  0
 24 23  1  0  0  0  0
 24 38  1  1  0  0  0
 24 25  1  0  0  0  0
 25 40  1  0  0  0  0
 26 25  1  0  0  0  0
 26 27  2  0  0  0  0
 27 41  1  0  0  0  0
 28 42  1  0  0  0  0
 28 27  1  0  0  0  0
 29 28  1  0  0  0  0
 30 43  1  0  0  0  0
 30 29  2  0  0  0  0
 31 30  1  0  0  0  0
 32 31  2  0  0  0  0
 32 33  1  0  0  0  0
 33 34  2  0  0  0  0
 34 29  1  0  0  0  0
 34 26  1  0  0  0  0
 35 24  1  0  0  0  0
 36 35  2  0  0  0  0
 37 23  1  0  0  0  0
 39 25  1  0  0  0  0
 44 31  1  0  0  0  0
 45 32  1  0  0  0  0
 46 33  1  0  0  0  0
 47 54  1  0  0  0  0
 47 35  1  0  0  0  0
 48 55  1  6  0  0  0
 48 47  1  0  0  0  0
 49 48  1  0  0  0  0
 49 56  1  0  0  0  0
 49 50  1  0  0  0  0
 50 58  1  0  0  0  0
 51 48  1  0  0  0  0
 51 52  1  0  0  0  0
 53 51  2  0  0  0  0
 57 49  1  0  0  0  0
M  END
$$$$
