YWD.pdb
 OpenBabel07022419233D

 60 62  0  0  1  0  0  0  0  0999 V2000
    3.0130   -2.2200    5.7460 O   0  0  0  0  0  0  0  0  0  0  0  0
    3.2910   -1.4730    4.6140 C   0  0  0  0  0  0  0  0  0  0  0  0
    4.4950   -1.6150    3.9740 C   0  0  0  0  0  0  0  0  0  0  0  0
    4.8310   -0.9040    2.8460 C   0  0  0  0  0  0  0  0  0  0  0  0
    3.9360    0.0180    2.2940 C   0  0  0  0  0  0  0  0  0  0  0  0
    4.3140    0.7910    1.1070 C   0  0  0  0  0  0  0  0  0  0  0  0
    4.0300    0.1450   -0.2150 C   0  0  2  0  0  0  0  0  0  0  0  0
    4.5200    1.1270   -1.2190 N   0  0  0  0  0  0  0  0  0  0  0  0
    2.5790    0.0230   -0.4910 C   0  0  0  0  0  0  0  0  0  0  0  0
    2.0120    0.8360   -1.3110 O   0  0  0  0  0  0  0  0  0  0  0  0
    2.7290    0.1550    2.9420 C   0  0  0  0  0  0  0  0  0  0  0  0
    2.4050   -0.5690    4.0770 C   0  0  0  0  0  0  0  0  0  0  0  0
    3.4820   -3.1050    5.9100 H   0  0  0  0  0  0  0  0  0  0  0  0
    5.2100   -2.3230    4.3790 H   0  0  0  0  0  0  0  0  0  0  0  0
    5.7930   -1.0240    2.3430 H   0  0  0  0  0  0  0  0  0  0  0  0
    5.4200    1.0000    1.2160 H   0  0  0  0  0  0  0  0  0  0  0  0
    3.8310    1.7870    1.2050 H   0  0  0  0  0  0  0  0  0  0  0  0
    4.5680   -0.7980   -0.3380 H   0  0  0  0  0  0  0  0  0  0  0  0
    5.3700    1.5870   -0.8800 H   0  0  0  0  0  0  0  0  0  0  0  0
    4.6210    0.6630   -2.1470 H   0  0  0  0  0  0  0  0  0  0  0  0
    2.0210    0.8750    2.5150 H   0  0  0  0  0  0  0  0  0  0  0  0
    1.4530   -0.4450    4.5690 H   0  0  0  0  0  0  0  0  0  0  0  0
    1.7410   -0.9420    0.0850 N   0  0  0  0  0  0  0  0  0  0  0  0
    0.3070   -0.9620   -0.2880 C   0  0  1  0  0  0  0  0  0  0  0  0
    0.0930   -2.1680   -1.1840 C   0  0  0  0  0  0  0  0  0  0  0  0
   -1.2860   -2.2880   -1.6370 C   0  0  0  0  0  0  0  0  0  0  0  0
   -2.2700   -3.2010   -1.2420 C   0  0  0  0  0  0  0  0  0  0  0  0
   -3.4010   -2.9810   -1.9320 N   0  0  0  0  0  0  0  0  0  0  0  0
   -3.2280   -1.9570   -2.7790 C   0  0  0  0  0  0  0  0  0  0  0  0
   -4.0890   -1.3710   -3.6840 C   0  0  0  0  0  0  0  0  0  0  0  0
   -3.6080   -0.3160   -4.4290 C   0  0  0  0  0  0  0  0  0  0  0  0
   -2.3170    0.1400   -4.2780 C   0  0  0  0  0  0  0  0  0  0  0  0
   -1.4650   -0.4560   -3.3690 C   0  0  0  0  0  0  0  0  0  0  0  0
   -1.9210   -1.5120   -2.6120 C   0  0  0  0  0  0  0  0  0  0  0  0
   -0.5140   -1.1070    0.9280 C   0  0  0  0  0  0  0  0  0  0  0  0
    0.0670   -1.4170    2.0390 O   0  0  0  0  0  0  0  0  0  0  0  0
    2.0830   -1.6310    0.7520 H   0  0  0  0  0  0  0  0  0  0  0  0
    0.0600   -0.0860   -0.9160 H   0  0  0  0  0  0  0  0  0  0  0  0
    0.4610   -3.0950   -0.6890 H   0  0  0  0  0  0  0  0  0  0  0  0
    0.7190   -1.9840   -2.1000 H   0  0  0  0  0  0  0  0  0  0  0  0
   -2.1290   -3.9560   -0.5010 H   0  0  0  0  0  0  0  0  0  0  0  0
   -4.3070   -3.5070   -1.8520 H   0  0  0  0  0  0  0  0  0  0  0  0
   -5.1100   -1.7080   -3.8250 H   0  0  0  0  0  0  0  0  0  0  0  0
   -4.2380    0.2000   -5.1690 H   0  0  0  0  0  0  0  0  0  0  0  0
   -1.9320    0.9650   -4.8570 H   0  0  0  0  0  0  0  0  0  0  0  0
   -0.4360   -0.1110   -3.2370 H   0  0  0  0  0  0  0  0  0  0  0  0
   -1.9250   -0.9180    0.9740 N   0  0  0  0  0  0  0  0  0  0  0  0
   -2.6060   -1.0750    2.2480 C   0  0  1  0  0  0  0  0  0  0  0  0
   -2.9430    0.2990    2.8320 C   0  0  0  0  0  0  0  0  0  0  0  0
   -3.8220    1.0650    1.9300 C   0  0  0  0  0  0  0  0  0  0  0  0
   -4.1720    2.2110    2.2870 O   0  0  0  0  0  0  0  0  0  0  0  0
   -3.8460   -1.8560    2.1670 C   0  0  0  0  0  0  0  0  0  0  0  0
   -4.5340   -2.1140    3.2200 O   0  0  0  0  0  0  0  0  0  0  0  0
   -4.2830    0.5960    0.7140 O   0  0  0  0  0  0  0  0  0  0  0  0
   -4.3540   -2.3570    0.9910 O   0  0  0  0  0  0  0  0  0  0  0  0
   -2.4170   -0.6680    0.0950 H   0  0  0  0  0  0  0  0  0  0  0  0
   -1.9180   -1.5220    2.9860 H   0  0  0  0  0  0  0  0  0  0  0  0
   -3.5040    0.0970    3.7680 H   0  0  0  0  0  0  0  0  0  0  0  0
   -2.0020    0.7880    3.0820 H   0  0  0  0  0  0  0  0  0  0  0  0
   -4.5820    1.2480   -0.0230 H   0  0  0  0  0  0  0  0  0  0  0  0
  1 13  1  0  0  0  0
  2  1  1  0  0  0  0
  3 14  1  0  0  0  0
  3  2  2  0  0  0  0
  4  3  1  0  0  0  0
  5  4  2  0  0  0  0
  5 11  1  0  0  0  0
  6 17  1  0  0  0  0
  6 16  1  0  0  0  0
  6  5  1  0  0  0  0
  7 18  1  6  0  0  0
  7  6  1  0  0  0  0
  8 19  1  0  0  0  0
  8  7  1  0  0  0  0
  9  7  1  0  0  0  0
  9 23  1  0  0  0  0
 10  9  2  0  0  0  0
 11 12  2  0  0  0  0
 12 22  1  0  0  0  0
 12  2  1  0  0  0  0
 15  4  1  0  0  0  0
 20  8  1  0  0  0  0
 21 11  1  0  0  0  0
 23 37  1  0  0  0  0
 24 38  1  6  0  0  0
 24 23  1  0  0  0  0
 24 35  1  0  0  0  0
 25 39  1  0  0  0  0
 25 24  1  0  0  0  0
 26 27  2  0  0  0  0
 26 25  1  0  0  0  0
 27 41  1  0  0  0  0
 28 42  1  0  0  0  0
 28 27  1  0  0  0  0
 29 34  1  0  0  0  0
 29 28  1  0  0  0  0
 30 29  2  0  0  0  0
 31 32  2  0  0  0  0
 31 30  1  0  0  0  0
 32 33  1  0  0  0  0
 33 46  1  0  0  0  0
 33 34  2  0  0  0  0
 34 26  1  0  0  0  0
 35 47  1  0  0  0  0
 35 36  2  0  0  0  0
 40 25  1  0  0  0  0
 43 30  1  0  0  0  0
 44 31  1  0  0  0  0
 45 32  1  0  0  0  0
 47 48  1  0  0  0  0
 48 49  1  0  0  0  0
 48 57  1  1  0  0  0
 49 59  1  0  0  0  0
 49 58  1  0  0  0  0
 50 51  2  0  0  0  0
 50 49  1  0  0  0  0
 52 48  1  0  0  0  0
 52 53  1  0  0  0  0
 54 50  1  0  0  0  0
 55 52  2  0  0  0  0
 56 47  1  0  0  0  0
 60 54  1  0  0  0  0
M  END
$$$$
