YWF.pdb
 OpenBabel07022419233D

 67 70  0  0  1  0  0  0  0  0999 V2000
    1.6560    1.9080    6.1200 O   0  0  0  0  0  0  0  0  0  0  0  0
    2.2680    1.1320    5.1250 C   0  0  0  0  0  0  0  0  0  0  0  0
    1.5470    0.2070    4.4020 C   0  0  0  0  0  0  0  0  0  0  0  0
    2.1480   -0.5620    3.4180 C   0  0  0  0  0  0  0  0  0  0  0  0
    3.4840   -0.4320    3.1250 C   0  0  0  0  0  0  0  0  0  0  0  0
    4.1100   -1.2470    2.0840 C   0  0  0  0  0  0  0  0  0  0  0  0
    4.0920   -0.6400    0.7210 C   0  0  2  0  0  0  0  0  0  0  0  0
    4.8030    0.6460    0.7730 N   0  0  0  0  0  0  0  0  0  0  0  0
    2.7520   -0.4740    0.1420 C   0  0  0  0  0  0  0  0  0  0  0  0
    2.2640    0.6700   -0.1380 O   0  0  0  0  0  0  0  0  0  0  0  0
    4.2060    0.4990    3.8540 C   0  0  0  0  0  0  0  0  0  0  0  0
    3.6090    1.2630    4.8320 C   0  0  0  0  0  0  0  0  0  0  0  0
    1.1220    1.4740    6.8720 H   0  0  0  0  0  0  0  0  0  0  0  0
    0.4810    0.1010    4.6340 H   0  0  0  0  0  0  0  0  0  0  0  0
    1.5160   -1.2670    2.8960 H   0  0  0  0  0  0  0  0  0  0  0  0
    3.7230   -2.3010    2.0660 H   0  0  0  0  0  0  0  0  0  0  0  0
    5.1940   -1.3660    2.3770 H   0  0  0  0  0  0  0  0  0  0  0  0
    4.7160   -1.2700    0.0380 H   0  0  0  0  0  0  0  0  0  0  0  0
    4.5300    1.2620   -0.0150 H   0  0  0  0  0  0  0  0  0  0  0  0
    5.8180    0.4820    0.8650 H   0  0  0  0  0  0  0  0  0  0  0  0
    5.2750    0.6060    3.6220 H   0  0  0  0  0  0  0  0  0  0  0  0
    4.2110    1.9790    5.3760 H   0  0  0  0  0  0  0  0  0  0  0  0
    1.9290   -1.5780   -0.1390 N   0  0  0  0  0  0  0  0  0  0  0  0
    0.5770   -1.4360   -0.7280 C   0  0  1  0  0  0  0  0  0  0  0  0
    0.7140   -1.9330   -2.1210 C   0  0  0  0  0  0  0  0  0  0  0  0
   -0.4640   -1.9050   -2.9720 C   0  0  0  0  0  0  0  0  0  0  0  0
   -1.2630   -2.9340   -3.4100 C   0  0  0  0  0  0  0  0  0  0  0  0
   -2.2340   -2.4480   -4.2010 N   0  0  0  0  0  0  0  0  0  0  0  0
   -2.0880   -1.0940   -4.2940 C   0  0  0  0  0  0  0  0  0  0  0  0
   -2.8070   -0.1230   -4.9720 C   0  0  0  0  0  0  0  0  0  0  0  0
   -2.3990    1.1900   -4.8670 C   0  0  0  0  0  0  0  0  0  0  0  0
   -1.3180    1.5530   -4.1210 C   0  0  0  0  0  0  0  0  0  0  0  0
   -0.6140    0.5760   -3.4540 C   0  0  0  0  0  0  0  0  0  0  0  0
   -0.9940   -0.7460   -3.5370 C   0  0  0  0  0  0  0  0  0  0  0  0
   -0.4280   -2.0450    0.1230 C   0  0  0  0  0  0  0  0  0  0  0  0
   -0.1220   -2.6490    1.2220 O   0  0  0  0  0  0  0  0  0  0  0  0
    2.2500   -2.5430    0.0610 H   0  0  0  0  0  0  0  0  0  0  0  0
    0.3980   -0.3310   -0.7590 H   0  0  0  0  0  0  0  0  0  0  0  0
    1.6120   -1.4760   -2.6410 H   0  0  0  0  0  0  0  0  0  0  0  0
    1.0210   -3.0200   -2.0430 H   0  0  0  0  0  0  0  0  0  0  0  0
   -1.1410   -3.9990   -3.1610 H   0  0  0  0  0  0  0  0  0  0  0  0
   -2.9860   -2.9700   -4.6800 H   0  0  0  0  0  0  0  0  0  0  0  0
   -3.6720   -0.4110   -5.5690 H   0  0  0  0  0  0  0  0  0  0  0  0
   -2.9570    1.9710   -5.3960 H   0  0  0  0  0  0  0  0  0  0  0  0
   -0.9760    2.5860   -4.0230 H   0  0  0  0  0  0  0  0  0  0  0  0
    0.2660    0.8230   -2.8420 H   0  0  0  0  0  0  0  0  0  0  0  0
   -1.8220   -2.0390   -0.1520 N   0  0  0  0  0  0  0  0  0  0  0  0
   -2.7800   -2.6540    0.7620 C   0  0  1  0  0  0  0  0  0  0  0  0
   -3.7860   -1.5740    1.1610 C   0  0  0  0  0  0  0  0  0  0  0  0
   -3.1360   -0.4230    1.8350 C   0  0  0  0  0  0  0  0  0  0  0  0
   -2.6630    0.6690    1.1070 C   0  0  0  0  0  0  0  0  0  0  0  0
   -2.0590    1.7470    1.7180 C   0  0  0  0  0  0  0  0  0  0  0  0
   -1.9040    1.7730    3.0890 C   0  0  0  0  0  0  0  0  0  0  0  0
   -2.3640    0.7040    3.8290 C   0  0  0  0  0  0  0  0  0  0  0  0
   -2.9560   -0.3480    3.2030 C   0  0  0  0  0  0  0  0  0  0  0  0
   -3.5000   -3.7250    0.0710 C   0  0  0  0  0  0  0  0  0  0  0  0
   -4.3880   -4.3930    0.6900 O   0  0  0  0  0  0  0  0  0  0  0  0
   -3.2780   -4.0670   -1.2350 O   0  0  0  0  0  0  0  0  0  0  0  0
   -2.1630   -1.5830   -1.0230 H   0  0  0  0  0  0  0  0  0  0  0  0
   -2.2740   -3.0650    1.6510 H   0  0  0  0  0  0  0  0  0  0  0  0
   -4.3480   -1.2120    0.2990 H   0  0  0  0  0  0  0  0  0  0  0  0
   -4.4610   -2.0590    1.9140 H   0  0  0  0  0  0  0  0  0  0  0  0
   -2.7630    0.6910    0.0350 H   0  0  0  0  0  0  0  0  0  0  0  0
   -1.6930    2.5990    1.1320 H   0  0  0  0  0  0  0  0  0  0  0  0
   -1.4380    2.5990    3.5910 H   0  0  0  0  0  0  0  0  0  0  0  0
   -2.2640    0.6820    4.9050 H   0  0  0  0  0  0  0  0  0  0  0  0
   -3.3110   -1.1760    3.7980 H   0  0  0  0  0  0  0  0  0  0  0  0
  1 13  1  0  0  0  0
  2  1  1  0  0  0  0
  3 14  1  0  0  0  0
  3  2  2  0  0  0  0
  4  3  1  0  0  0  0
  5  4  2  0  0  0  0
  5 11  1  0  0  0  0
  6 17  1  0  0  0  0
  6  5  1  0  0  0  0
  7 18  1  6  0  0  0
  7  8  1  0  0  0  0
  7  6  1  0  0  0  0
  8 20  1  0  0  0  0
  9  7  1  0  0  0  0
 10  9  2  0  0  0  0
 11 12  2  0  0  0  0
 12  2  1  0  0  0  0
 12 22  1  0  0  0  0
 15  4  1  0  0  0  0
 16  6  1  0  0  0  0
 19  8  1  0  0  0  0
 21 11  1  0  0  0  0
 23 37  1  0  0  0  0
 23  9  1  0  0  0  0
 24 38  1  6  0  0  0
 24 23  1  0  0  0  0
 24 35  1  0  0  0  0
 25 40  1  0  0  0  0
 25 24  1  0  0  0  0
 26 25  1  0  0  0  0
 27 41  1  0  0  0  0
 27 26  2  0  0  0  0
 28 27  1  0  0  0  0
 29 28  1  0  0  0  0
 29 34  1  0  0  0  0
 30 31  1  0  0  0  0
 30 29  2  0  0  0  0
 31 32  2  0  0  0  0
 32 45  1  0  0  0  0
 32 33  1  0  0  0  0
 33 46  1  0  0  0  0
 34 33  2  0  0  0  0
 34 26  1  0  0  0  0
 35 36  2  0  0  0  0
 39 25  1  0  0  0  0
 42 28  1  0  0  0  0
 43 30  1  0  0  0  0
 44 31  1  0  0  0  0
 47 35  1  0  0  0  0
 47 48  1  0  0  0  0
 48 49  1  0  0  0  0
 48 60  1  1  0  0  0
 49 50  1  0  0  0  0
 49 62  1  0  0  0  0
 50 55  1  0  0  0  0
 51 52  1  0  0  0  0
 51 50  2  0  0  0  0
 52 53  2  0  0  0  0
 53 65  1  0  0  0  0
 53 54  1  0  0  0  0
 54 66  1  0  0  0  0
 55 67  1  0  0  0  0
 55 54  2  0  0  0  0
 56 57  1  0  0  0  0
 56 48  1  0  0  0  0
 58 56  2  0  0  0  0
 59 47  1  0  0  0  0
 61 49  1  0  0  0  0
 63 51  1  0  0  0  0
 64 52  1  0  0  0  0
M  END
$$$$
