YWI.pdb
 OpenBabel07022419233D

 66 68  0  0  1  0  0  0  0  0999 V2000
    7.0820    2.5730    4.8630 O   0  0  0  0  0  0  0  0  0  0  0  0
    5.9890    2.1980    4.0880 C   0  0  0  0  0  0  0  0  0  0  0  0
    5.4240    3.0570    3.1630 C   0  0  0  0  0  0  0  0  0  0  0  0
    4.3460    2.6970    2.3930 C   0  0  0  0  0  0  0  0  0  0  0  0
    3.7720    1.4410    2.5130 C   0  0  0  0  0  0  0  0  0  0  0  0
    2.6050    1.0500    1.6800 C   0  0  0  0  0  0  0  0  0  0  0  0
    3.0870    0.4110    0.3960 C   0  0  2  0  0  0  0  0  0  0  0  0
    3.9060    1.3710   -0.3220 N   0  0  0  0  0  0  0  0  0  0  0  0
    1.9910   -0.0210   -0.4710 C   0  0  0  0  0  0  0  0  0  0  0  0
    1.8820    0.4540   -1.6180 O   0  0  0  0  0  0  0  0  0  0  0  0
    4.3280    0.5630    3.4400 C   0  0  0  0  0  0  0  0  0  0  0  0
    5.4070    0.9410    4.2030 C   0  0  0  0  0  0  0  0  0  0  0  0
    6.9160    2.7330    5.8600 H   0  0  0  0  0  0  0  0  0  0  0  0
    5.8380    4.0480    3.0330 H   0  0  0  0  0  0  0  0  0  0  0  0
    3.8930    3.3770    1.6560 H   0  0  0  0  0  0  0  0  0  0  0  0
    2.1040    2.0130    1.3750 H   0  0  0  0  0  0  0  0  0  0  0  0
    1.9560    0.4080    2.2750 H   0  0  0  0  0  0  0  0  0  0  0  0
    3.7180   -0.4740    0.6240 H   0  0  0  0  0  0  0  0  0  0  0  0
    4.5790    0.8740   -0.9750 H   0  0  0  0  0  0  0  0  0  0  0  0
    3.2990    2.0110   -0.8920 H   0  0  0  0  0  0  0  0  0  0  0  0
    3.8730   -0.4250    3.5320 H   0  0  0  0  0  0  0  0  0  0  0  0
    5.8400    0.2580    4.9250 H   0  0  0  0  0  0  0  0  0  0  0  0
    1.0020   -0.9790   -0.0930 N   0  0  0  0  0  0  0  0  0  0  0  0
   -0.0620   -1.3580   -1.0050 C   0  0  1  0  0  0  0  0  0  0  0  0
    0.0420   -2.8090   -1.4090 C   0  0  0  0  0  0  0  0  0  0  0  0
   -1.0740   -3.1190   -2.3360 C   0  0  0  0  0  0  0  0  0  0  0  0
   -2.2310   -3.8540   -2.0400 C   0  0  0  0  0  0  0  0  0  0  0  0
   -3.0010   -3.9270   -3.1400 N   0  0  0  0  0  0  0  0  0  0  0  0
   -2.4130   -3.2740   -4.1610 C   0  0  0  0  0  0  0  0  0  0  0  0
   -2.8210   -3.0820   -5.4640 C   0  0  0  0  0  0  0  0  0  0  0  0
   -1.9880   -2.3570   -6.2870 C   0  0  0  0  0  0  0  0  0  0  0  0
   -0.7980   -1.8530   -5.8070 C   0  0  0  0  0  0  0  0  0  0  0  0
   -0.3990   -2.0550   -4.4900 C   0  0  0  0  0  0  0  0  0  0  0  0
   -1.2240   -2.7760   -3.6640 C   0  0  0  0  0  0  0  0  0  0  0  0
   -1.3930   -1.0840   -0.4570 C   0  0  0  0  0  0  0  0  0  0  0  0
   -2.4150   -1.2840   -1.1500 O   0  0  0  0  0  0  0  0  0  0  0  0
    1.0820   -1.3850    0.8580 H   0  0  0  0  0  0  0  0  0  0  0  0
    0.0640   -0.7690   -1.9370 H   0  0  0  0  0  0  0  0  0  0  0  0
    1.0120   -2.9830   -1.9300 H   0  0  0  0  0  0  0  0  0  0  0  0
   -0.0460   -3.5020   -0.5540 H   0  0  0  0  0  0  0  0  0  0  0  0
   -2.4090   -4.2700   -1.0530 H   0  0  0  0  0  0  0  0  0  0  0  0
   -3.9260   -4.4220   -3.1940 H   0  0  0  0  0  0  0  0  0  0  0  0
   -3.7410   -3.4560   -5.8850 H   0  0  0  0  0  0  0  0  0  0  0  0
   -2.2580   -2.1700   -7.3380 H   0  0  0  0  0  0  0  0  0  0  0  0
   -0.1460   -1.2790   -6.4700 H   0  0  0  0  0  0  0  0  0  0  0  0
    0.5230   -1.6690   -4.1060 H   0  0  0  0  0  0  0  0  0  0  0  0
   -4.8470   -2.2990    4.0060 C   0  0  0  0  0  0  0  0  0  0  0  0
   -4.5470   -1.1490    3.0510 C   0  0  0  0  0  0  0  0  0  0  0  0
   -3.1860   -1.3370    2.4620 C   0  0  2  0  0  0  0  0  0  0  0  0
   -2.0760   -1.3560    3.4760 C   0  0  0  0  0  0  0  0  0  0  0  0
   -2.9130   -0.3170    1.3850 C   0  0  2  0  0  0  0  0  0  0  0  0
   -1.5730   -0.5830    0.8760 N   0  0  0  0  0  0  0  0  0  0  0  0
   -2.9490    1.0750    1.8720 C   0  0  0  0  0  0  0  0  0  0  0  0
   -3.9930    1.6200    2.3420 O   0  0  0  0  0  0  0  0  0  0  0  0
   -1.7880    1.8770    1.8330 O   0  0  0  0  0  0  0  0  0  0  0  0
   -4.3980   -3.2050    3.5250 H   0  0  0  0  0  0  0  0  0  0  0  0
   -5.9550   -2.3800    4.0540 H   0  0  0  0  0  0  0  0  0  0  0  0
   -4.4200   -2.1280    5.0100 H   0  0  0  0  0  0  0  0  0  0  0  0
   -4.6460   -0.1680    3.5990 H   0  0  0  0  0  0  0  0  0  0  0  0
   -5.3000   -1.1660    2.2590 H   0  0  0  0  0  0  0  0  0  0  0  0
   -3.1810   -2.3660    2.0000 H   0  0  0  0  0  0  0  0  0  0  0  0
   -1.8480   -0.3550    3.8740 H   0  0  0  0  0  0  0  0  0  0  0  0
   -1.1730   -1.7490    2.9540 H   0  0  0  0  0  0  0  0  0  0  0  0
   -2.3720   -2.0480    4.2970 H   0  0  0  0  0  0  0  0  0  0  0  0
   -3.6330   -0.4800    0.5440 H   0  0  0  0  0  0  0  0  0  0  0  0
   -0.7490   -0.4060    1.4910 H   0  0  0  0  0  0  0  0  0  0  0  0
  1 13  1  0  0  0  0
  2 12  1  0  0  0  0
  2  1  1  0  0  0  0
  3  2  2  0  0  0  0
  4  5  2  0  0  0  0
  4  3  1  0  0  0  0
  5 11  1  0  0  0  0
  6 17  1  0  0  0  0
  6  5  1  0  0  0  0
  7 18  1  1  0  0  0
  7  6  1  0  0  0  0
  8  7  1  0  0  0  0
  9 23  1  0  0  0  0
  9  7  1  0  0  0  0
 10  9  2  0  0  0  0
 11 21  1  0  0  0  0
 11 12  2  0  0  0  0
 12 22  1  0  0  0  0
 14  3  1  0  0  0  0
 15  4  1  0  0  0  0
 16  6  1  0  0  0  0
 19  8  1  0  0  0  0
 20  8  1  0  0  0  0
 23 37  1  0  0  0  0
 24 38  1  6  0  0  0
 24 35  1  0  0  0  0
 24 23  1  0  0  0  0
 25 24  1  0  0  0  0
 25 40  1  0  0  0  0
 26 27  2  0  0  0  0
 26 25  1  0  0  0  0
 27 41  1  0  0  0  0
 28 27  1  0  0  0  0
 29 34  1  0  0  0  0
 29 28  1  0  0  0  0
 30 29  2  0  0  0  0
 31 32  2  0  0  0  0
 31 30  1  0  0  0  0
 32 33  1  0  0  0  0
 33 46  1  0  0  0  0
 33 34  2  0  0  0  0
 34 26  1  0  0  0  0
 35 52  1  0  0  0  0
 36 35  2  0  0  0  0
 39 25  1  0  0  0  0
 42 28  1  0  0  0  0
 43 30  1  0  0  0  0
 44 31  1  0  0  0  0
 45 32  1  0  0  0  0
 47 57  1  0  0  0  0
 47 58  1  0  0  0  0
 48 59  1  0  0  0  0
 48 47  1  0  0  0  0
 49 61  1  6  0  0  0
 49 48  1  0  0  0  0
 49 50  1  0  0  0  0
 50 62  1  0  0  0  0
 50 64  1  0  0  0  0
 51 65  1  6  0  0  0
 51 53  1  0  0  0  0
 51 49  1  0  0  0  0
 52 51  1  0  0  0  0
 52 66  1  0  0  0  0
 53 54  1  0  0  0  0
 55 53  2  0  0  0  0
 56 47  1  0  0  0  0
 60 48  1  0  0  0  0
 63 50  1  0  0  0  0
M  END
$$$$
