YWK.pdb
 OpenBabel07022419233D

 68 70  0  0  1  0  0  0  0  0999 V2000
    0.7320   -5.2740    4.8340 O   0  0  0  0  0  0  0  0  0  0  0  0
    1.6480   -4.4310    4.2430 C   0  0  0  0  0  0  0  0  0  0  0  0
    1.9490   -4.5510    2.9150 C   0  0  0  0  0  0  0  0  0  0  0  0
    2.8720   -3.7160    2.2810 C   0  0  0  0  0  0  0  0  0  0  0  0
    3.5140   -2.7350    2.9940 C   0  0  0  0  0  0  0  0  0  0  0  0
    4.4830   -1.8550    2.3460 C   0  0  0  0  0  0  0  0  0  0  0  0
    3.8450   -0.6050    1.7720 C   0  0  2  0  0  0  0  0  0  0  0  0
    3.2170    0.1040    2.8650 N   0  0  0  0  0  0  0  0  0  0  0  0
    2.9160   -0.9060    0.6790 C   0  0  0  0  0  0  0  0  0  0  0  0
    3.2480   -1.4820   -0.3870 O   0  0  0  0  0  0  0  0  0  0  0  0
    3.2230   -2.6010    4.3330 C   0  0  0  0  0  0  0  0  0  0  0  0
    2.3030   -3.4340    4.9580 C   0  0  0  0  0  0  0  0  0  0  0  0
    0.9350   -5.5750    5.7800 H   0  0  0  0  0  0  0  0  0  0  0  0
    1.4640   -5.3110    2.3210 H   0  0  0  0  0  0  0  0  0  0  0  0
    3.0490   -3.8820    1.2170 H   0  0  0  0  0  0  0  0  0  0  0  0
    5.2850   -1.6010    3.0640 H   0  0  0  0  0  0  0  0  0  0  0  0
    5.0040   -2.3580    1.4790 H   0  0  0  0  0  0  0  0  0  0  0  0
    4.6280    0.0830    1.3650 H   0  0  0  0  0  0  0  0  0  0  0  0
    2.4460   -0.4590    3.3200 H   0  0  0  0  0  0  0  0  0  0  0  0
    3.8930    0.3560    3.6000 H   0  0  0  0  0  0  0  0  0  0  0  0
    3.6820   -1.8540    4.9700 H   0  0  0  0  0  0  0  0  0  0  0  0
    2.0570   -3.3510    6.0070 H   0  0  0  0  0  0  0  0  0  0  0  0
    1.5490   -0.5400    0.7990 N   0  0  0  0  0  0  0  0  0  0  0  0
    0.6120   -0.8220   -0.2620 C   0  0  1  0  0  0  0  0  0  0  0  0
   -0.2690   -1.9870    0.1620 C   0  0  0  0  0  0  0  0  0  0  0  0
   -1.2530   -2.3300   -0.8700 C   0  0  0  0  0  0  0  0  0  0  0  0
   -2.6000   -2.0490   -0.8860 C   0  0  0  0  0  0  0  0  0  0  0  0
   -3.1580   -2.5300   -2.0080 N   0  0  0  0  0  0  0  0  0  0  0  0
   -2.1790   -3.1310   -2.7390 C   0  0  0  0  0  0  0  0  0  0  0  0
   -2.2380   -3.7720   -3.9620 C   0  0  0  0  0  0  0  0  0  0  0  0
   -1.0960   -4.3030   -4.5000 C   0  0  0  0  0  0  0  0  0  0  0  0
    0.1030   -4.1900   -3.8060 C   0  0  0  0  0  0  0  0  0  0  0  0
    0.1730   -3.5550   -2.5880 C   0  0  0  0  0  0  0  0  0  0  0  0
   -0.9990   -3.0160   -2.0500 C   0  0  0  0  0  0  0  0  0  0  0  0
   -0.2720    0.3040   -0.5940 C   0  0  0  0  0  0  0  0  0  0  0  0
   -1.1470    0.2180   -1.5240 O   0  0  0  0  0  0  0  0  0  0  0  0
    1.1510   -0.0500    1.6530 H   0  0  0  0  0  0  0  0  0  0  0  0
    1.1920   -1.2210   -1.1370 H   0  0  0  0  0  0  0  0  0  0  0  0
    0.3860   -2.8610    0.3360 H   0  0  0  0  0  0  0  0  0  0  0  0
   -0.7920   -1.7450    1.1100 H   0  0  0  0  0  0  0  0  0  0  0  0
   -3.1340   -1.5140   -0.1000 H   0  0  0  0  0  0  0  0  0  0  0  0
   -4.1460   -2.4700   -2.2940 H   0  0  0  0  0  0  0  0  0  0  0  0
   -3.1860   -3.8540   -4.4960 H   0  0  0  0  0  0  0  0  0  0  0  0
   -1.1260   -4.8080   -5.4570 H   0  0  0  0  0  0  0  0  0  0  0  0
    1.0090   -4.6140   -4.2350 H   0  0  0  0  0  0  0  0  0  0  0  0
    1.0990   -3.4540   -2.0240 H   0  0  0  0  0  0  0  0  0  0  0  0
   -0.2430    1.5590    0.0680 N   0  0  0  0  0  0  0  0  0  0  0  0
   -1.1350    2.6550   -0.2840 C   0  0  1  0  0  0  0  0  0  0  0  0
   -1.9990    3.0780    0.8370 C   0  0  0  0  0  0  0  0  0  0  0  0
   -2.9310    4.1750    0.5090 C   0  0  0  0  0  0  0  0  0  0  0  0
   -3.8980    3.8800   -0.6070 C   0  0  0  0  0  0  0  0  0  0  0  0
   -4.8080    2.7330   -0.3500 C   0  0  0  0  0  0  0  0  0  0  0  0
   -4.2250    1.4690   -0.1240 N   0  0  0  0  0  0  0  0  0  0  0  0
   -0.3460    3.8200   -0.7740 C   0  0  0  0  0  0  0  0  0  0  0  0
   -0.8450    4.8900   -1.1950 O   0  0  0  0  0  0  0  0  0  0  0  0
    1.0550    3.7500   -0.7800 O   0  0  0  0  0  0  0  0  0  0  0  0
    0.4310    1.7310    0.8380 H   0  0  0  0  0  0  0  0  0  0  0  0
   -1.7570    2.2920   -1.1240 H   0  0  0  0  0  0  0  0  0  0  0  0
   -2.5470    2.2620    1.3390 H   0  0  0  0  0  0  0  0  0  0  0  0
   -1.3070    3.4860    1.6380 H   0  0  0  0  0  0  0  0  0  0  0  0
   -3.6030    4.3640    1.4140 H   0  0  0  0  0  0  0  0  0  0  0  0
   -2.4890    5.1690    0.3230 H   0  0  0  0  0  0  0  0  0  0  0  0
   -3.3840    3.8100   -1.5980 H   0  0  0  0  0  0  0  0  0  0  0  0
   -4.5440    4.7930   -0.6960 H   0  0  0  0  0  0  0  0  0  0  0  0
   -5.5140    2.6210   -1.2190 H   0  0  0  0  0  0  0  0  0  0  0  0
   -5.4700    2.9780    0.5090 H   0  0  0  0  0  0  0  0  0  0  0  0
   -4.7020    0.8550    0.5580 H   0  0  0  0  0  0  0  0  0  0  0  0
   -3.8260    0.9870   -0.9420 H   0  0  0  0  0  0  0  0  0  0  0  0
  1 13  1  0  0  0  0
  2  1  1  0  0  0  0
  2 12  1  0  0  0  0
  3  2  2  0  0  0  0
  4  3  1  0  0  0  0
  4  5  2  0  0  0  0
  5 11  1  0  0  0  0
  6  5  1  0  0  0  0
  6 16  1  0  0  0  0
  7 18  1  6  0  0  0
  7  6  1  0  0  0  0
  7  8  1  0  0  0  0
  8 19  1  0  0  0  0
  8 20  1  0  0  0  0
  9 23  1  0  0  0  0
  9  7  1  0  0  0  0
 10  9  2  0  0  0  0
 11 12  2  0  0  0  0
 11 21  1  0  0  0  0
 12 22  1  0  0  0  0
 14  3  1  0  0  0  0
 15  4  1  0  0  0  0
 17  6  1  0  0  0  0
 23 37  1  0  0  0  0
 24 38  1  6  0  0  0
 24 25  1  0  0  0  0
 24 23  1  0  0  0  0
 25 39  1  0  0  0  0
 25 40  1  0  0  0  0
 26 25  1  0  0  0  0
 27 26  2  0  0  0  0
 27 41  1  0  0  0  0
 28 27  1  0  0  0  0
 29 34  1  0  0  0  0
 29 28  1  0  0  0  0
 30 29  2  0  0  0  0
 31 30  1  0  0  0  0
 31 32  2  0  0  0  0
 32 33  1  0  0  0  0
 33 34  2  0  0  0  0
 33 46  1  0  0  0  0
 34 26  1  0  0  0  0
 35 24  1  0  0  0  0
 35 47  1  0  0  0  0
 36 35  2  0  0  0  0
 42 28  1  0  0  0  0
 43 30  1  0  0  0  0
 44 31  1  0  0  0  0
 45 32  1  0  0  0  0
 47 57  1  0  0  0  0
 48 58  1  6  0  0  0
 48 47  1  0  0  0  0
 48 49  1  0  0  0  0
 49 59  1  0  0  0  0
 49 60  1  0  0  0  0
 50 49  1  0  0  0  0
 50 61  1  0  0  0  0
 51 52  1  0  0  0  0
 51 50  1  0  0  0  0
 52 53  1  0  0  0  0
 52 66  1  0  0  0  0
 53 67  1  0  0  0  0
 54 48  1  0  0  0  0
 55 54  2  0  0  0  0
 56 54  1  0  0  0  0
 62 50  1  0  0  0  0
 63 51  1  0  0  0  0
 64 51  1  0  0  0  0
 65 52  1  0  0  0  0
 68 53  1  0  0  0  0
M  END
$$$$
