YWL.pdb
 OpenBabel07022419233D

 66 68  0  0  1  0  0  0  0  0999 V2000
    7.6820   -0.2770    4.9040 O   0  0  0  0  0  0  0  0  0  0  0  0
    6.5090   -0.1720    4.1520 C   0  0  0  0  0  0  0  0  0  0  0  0
    6.2110    0.9620    3.4260 C   0  0  0  0  0  0  0  0  0  0  0  0
    5.0530    1.0730    2.6800 C   0  0  0  0  0  0  0  0  0  0  0  0
    4.1390    0.0360    2.6330 C   0  0  0  0  0  0  0  0  0  0  0  0
    2.8920    0.1580    1.8280 C   0  0  0  0  0  0  0  0  0  0  0  0
    3.1410   -0.3540    0.4260 C   0  0  2  0  0  0  0  0  0  0  0  0
    4.1850    0.4400   -0.1460 N   0  0  0  0  0  0  0  0  0  0  0  0
    1.9220   -0.3970   -0.3900 C   0  0  0  0  0  0  0  0  0  0  0  0
    1.9050    0.2360   -1.4710 O   0  0  0  0  0  0  0  0  0  0  0  0
    4.4470   -1.0930    3.3620 C   0  0  0  0  0  0  0  0  0  0  0  0
    5.6010   -1.2070    4.1080 C   0  0  0  0  0  0  0  0  0  0  0  0
    7.7270    0.1510    5.8220 H   0  0  0  0  0  0  0  0  0  0  0  0
    6.9090    1.7900    3.4450 H   0  0  0  0  0  0  0  0  0  0  0  0
    4.8270    1.9780    2.1080 H   0  0  0  0  0  0  0  0  0  0  0  0
    2.0850   -0.4130    2.2970 H   0  0  0  0  0  0  0  0  0  0  0  0
    2.6010    1.2250    1.8170 H   0  0  0  0  0  0  0  0  0  0  0  0
    3.5070   -1.3990    0.5430 H   0  0  0  0  0  0  0  0  0  0  0  0
    4.8640   -0.0720   -0.7140 H   0  0  0  0  0  0  0  0  0  0  0  0
    3.8890    1.3570   -0.5100 H   0  0  0  0  0  0  0  0  0  0  0  0
    3.7100   -1.9000    3.3110 H   0  0  0  0  0  0  0  0  0  0  0  0
    5.8040   -2.1180    4.6680 H   0  0  0  0  0  0  0  0  0  0  0  0
    0.7410   -1.1030   -0.0590 N   0  0  0  0  0  0  0  0  0  0  0  0
   -0.4490   -1.1300   -0.8780 C   0  0  1  0  0  0  0  0  0  0  0  0
   -0.8870   -2.4550   -1.3330 C   0  0  0  0  0  0  0  0  0  0  0  0
   -2.1090   -2.3300   -2.1610 C   0  0  0  0  0  0  0  0  0  0  0  0
   -3.4250   -2.6350   -1.8100 C   0  0  0  0  0  0  0  0  0  0  0  0
   -4.2060   -2.3810   -2.8570 N   0  0  0  0  0  0  0  0  0  0  0  0
   -3.4960   -1.9220   -3.8970 C   0  0  0  0  0  0  0  0  0  0  0  0
   -3.7840   -1.5180   -5.1830 C   0  0  0  0  0  0  0  0  0  0  0  0
   -2.7860   -1.0820   -6.0440 C   0  0  0  0  0  0  0  0  0  0  0  0
   -1.4810   -1.0470   -5.6200 C   0  0  0  0  0  0  0  0  0  0  0  0
   -1.1940   -1.4470   -4.3450 C   0  0  0  0  0  0  0  0  0  0  0  0
   -2.1870   -1.8840   -3.4790 C   0  0  0  0  0  0  0  0  0  0  0  0
   -1.5810   -0.4320   -0.1900 C   0  0  0  0  0  0  0  0  0  0  0  0
   -2.7180   -0.2670   -0.6800 O   0  0  0  0  0  0  0  0  0  0  0  0
    0.7540   -1.6310    0.8420 H   0  0  0  0  0  0  0  0  0  0  0  0
   -0.2270   -0.5110   -1.7720 H   0  0  0  0  0  0  0  0  0  0  0  0
   -0.1100   -2.9020   -2.0200 H   0  0  0  0  0  0  0  0  0  0  0  0
   -1.1250   -3.1880   -0.5410 H   0  0  0  0  0  0  0  0  0  0  0  0
   -3.7600   -3.0120   -0.8580 H   0  0  0  0  0  0  0  0  0  0  0  0
   -5.2540   -2.5050   -2.9200 H   0  0  0  0  0  0  0  0  0  0  0  0
   -4.8140   -1.5490   -5.5050 H   0  0  0  0  0  0  0  0  0  0  0  0
   -3.0090   -0.7600   -7.0670 H   0  0  0  0  0  0  0  0  0  0  0  0
   -0.6680   -0.7110   -6.2670 H   0  0  0  0  0  0  0  0  0  0  0  0
   -0.1750   -1.4370   -3.9710 H   0  0  0  0  0  0  0  0  0  0  0  0
   -2.2980   -2.2870    2.4950 C   0  0  0  0  0  0  0  0  0  0  0  0
   -3.1930   -1.2770    3.1050 C   0  0  0  0  0  0  0  0  0  0  0  0
   -4.5570   -1.3940    2.4320 C   0  0  0  0  0  0  0  0  0  0  0  0
   -2.7090    0.1210    3.1530 C   0  0  0  0  0  0  0  0  0  0  0  0
   -2.4150    0.7760    1.8470 C   0  0  2  0  0  0  0  0  0  0  0  0
   -1.3810    0.0940    1.1200 N   0  0  0  0  0  0  0  0  0  0  0  0
   -1.9780    2.2000    2.0320 C   0  0  0  0  0  0  0  0  0  0  0  0
   -2.7090    3.0200    2.6440 O   0  0  0  0  0  0  0  0  0  0  0  0
   -0.7820    2.6470    1.5470 O   0  0  0  0  0  0  0  0  0  0  0  0
   -2.6020   -2.5340    1.4400 H   0  0  0  0  0  0  0  0  0  0  0  0
   -2.4360   -3.2650    3.0470 H   0  0  0  0  0  0  0  0  0  0  0  0
   -1.2460   -1.9950    2.5000 H   0  0  0  0  0  0  0  0  0  0  0  0
   -3.3840   -1.6050    4.1740 H   0  0  0  0  0  0  0  0  0  0  0  0
   -4.4410   -1.4200    1.3400 H   0  0  0  0  0  0  0  0  0  0  0  0
   -5.0120   -2.3550    2.7550 H   0  0  0  0  0  0  0  0  0  0  0  0
   -5.2400   -0.5990    2.7370 H   0  0  0  0  0  0  0  0  0  0  0  0
   -1.7640    0.1230    3.7820 H   0  0  0  0  0  0  0  0  0  0  0  0
   -3.4290    0.7800    3.6980 H   0  0  0  0  0  0  0  0  0  0  0  0
   -3.3070    0.8030    1.1730 H   0  0  0  0  0  0  0  0  0  0  0  0
   -0.4480   -0.0030    1.5760 H   0  0  0  0  0  0  0  0  0  0  0  0
  1 13  1  0  0  0  0
  2  1  1  0  0  0  0
  3 14  1  0  0  0  0
  3  2  2  0  0  0  0
  4  3  1  0  0  0  0
  5  4  2  0  0  0  0
  5 11  1  0  0  0  0
  6 16  1  0  0  0  0
  6  5  1  0  0  0  0
  7 18  1  1  0  0  0
  7  6  1  0  0  0  0
  8  7  1  0  0  0  0
  9 23  1  0  0  0  0
  9  7  1  0  0  0  0
 10  9  2  0  0  0  0
 11 12  2  0  0  0  0
 12  2  1  0  0  0  0
 12 22  1  0  0  0  0
 15  4  1  0  0  0  0
 17  6  1  0  0  0  0
 19  8  1  0  0  0  0
 20  8  1  0  0  0  0
 21 11  1  0  0  0  0
 23 37  1  0  0  0  0
 24 38  1  6  0  0  0
 24 35  1  0  0  0  0
 24 23  1  0  0  0  0
 25 24  1  0  0  0  0
 25 40  1  0  0  0  0
 26 27  2  0  0  0  0
 26 25  1  0  0  0  0
 27 41  1  0  0  0  0
 28 27  1  0  0  0  0
 29 34  1  0  0  0  0
 29 28  1  0  0  0  0
 30 29  2  0  0  0  0
 31 32  2  0  0  0  0
 31 30  1  0  0  0  0
 32 33  1  0  0  0  0
 33 46  1  0  0  0  0
 33 34  2  0  0  0  0
 34 26  1  0  0  0  0
 35 52  1  0  0  0  0
 36 35  2  0  0  0  0
 39 25  1  0  0  0  0
 42 28  1  0  0  0  0
 43 30  1  0  0  0  0
 44 31  1  0  0  0  0
 45 32  1  0  0  0  0
 47 58  1  0  0  0  0
 47 57  1  0  0  0  0
 47 48  1  0  0  0  0
 48 50  1  0  0  0  0
 48 59  1  0  0  0  0
 49 62  1  0  0  0  0
 49 61  1  0  0  0  0
 49 48  1  0  0  0  0
 50 64  1  0  0  0  0
 50 63  1  0  0  0  0
 51 65  1  6  0  0  0
 51 53  1  0  0  0  0
 51 50  1  0  0  0  0
 52 66  1  0  0  0  0
 52 51  1  0  0  0  0
 53 54  1  0  0  0  0
 55 53  2  0  0  0  0
 56 47  1  0  0  0  0
 60 49  1  0  0  0  0
M  END
$$$$
