YWM.pdb
 OpenBabel07022419233D

 64 66  0  0  1  0  0  0  0  0999 V2000
   -0.9450   -1.6050    4.8830 O   0  0  0  0  0  0  0  0  0  0  0  0
    0.1820   -1.0400    4.2970 C   0  0  0  0  0  0  0  0  0  0  0  0
    1.2820   -1.8210    3.9880 C   0  0  0  0  0  0  0  0  0  0  0  0
    2.4010   -1.2600    3.4070 C   0  0  0  0  0  0  0  0  0  0  0  0
    2.4860    0.0930    3.1050 C   0  0  0  0  0  0  0  0  0  0  0  0
    3.6960    0.6860    2.5320 C   0  0  0  0  0  0  0  0  0  0  0  0
    3.8180    0.6260    1.0460 C   0  0  2  0  0  0  0  0  0  0  0  0
    5.0980    1.2740    0.6960 N   0  0  0  0  0  0  0  0  0  0  0  0
    2.7120    1.2410    0.2870 C   0  0  0  0  0  0  0  0  0  0  0  0
    2.9650    2.4210   -0.1620 O   0  0  0  0  0  0  0  0  0  0  0  0
    1.3790    0.8590    3.4190 C   0  0  0  0  0  0  0  0  0  0  0  0
    0.2500    0.3020    4.0050 C   0  0  0  0  0  0  0  0  0  0  0  0
   -0.8380   -2.4070    5.4820 H   0  0  0  0  0  0  0  0  0  0  0  0
    1.2450   -2.8800    4.2120 H   0  0  0  0  0  0  0  0  0  0  0  0
    3.2790   -1.8510    3.1540 H   0  0  0  0  0  0  0  0  0  0  0  0
    4.5690    0.1180    2.9530 H   0  0  0  0  0  0  0  0  0  0  0  0
    3.8090    1.7450    2.8920 H   0  0  0  0  0  0  0  0  0  0  0  0
    3.9080   -0.4280    0.7390 H   0  0  0  0  0  0  0  0  0  0  0  0
    5.3640    1.9770    1.4010 H   0  0  0  0  0  0  0  0  0  0  0  0
    5.8280    0.5600    0.5110 H   0  0  0  0  0  0  0  0  0  0  0  0
    1.4190    1.9150    3.1940 H   0  0  0  0  0  0  0  0  0  0  0  0
   -0.6220    0.8960    4.2550 H   0  0  0  0  0  0  0  0  0  0  0  0
    1.4540    0.6560    0.0210 N   0  0  0  0  0  0  0  0  0  0  0  0
    0.4740    1.3980   -0.7600 C   0  0  1  0  0  0  0  0  0  0  0  0
    0.6730    1.0410   -2.2080 C   0  0  0  0  0  0  0  0  0  0  0  0
    0.5290   -0.3770   -2.5500 C   0  0  0  0  0  0  0  0  0  0  0  0
    1.5790   -1.3150   -2.5530 C   0  0  0  0  0  0  0  0  0  0  0  0
    1.0930   -2.5150   -2.8710 N   0  0  0  0  0  0  0  0  0  0  0  0
   -0.2520   -2.4570   -3.0910 C   0  0  0  0  0  0  0  0  0  0  0  0
   -1.1690   -3.4160   -3.4600 C   0  0  0  0  0  0  0  0  0  0  0  0
   -2.4760   -3.0560   -3.6410 C   0  0  0  0  0  0  0  0  0  0  0  0
   -2.8210   -1.7350   -3.4440 C   0  0  0  0  0  0  0  0  0  0  0  0
   -1.9110   -0.7700   -3.0750 C   0  0  0  0  0  0  0  0  0  0  0  0
   -0.5760   -1.1170   -2.8850 C   0  0  0  0  0  0  0  0  0  0  0  0
   -0.9000    1.2790   -0.3120 C   0  0  0  0  0  0  0  0  0  0  0  0
   -1.7920    1.9080   -0.9320 O   0  0  0  0  0  0  0  0  0  0  0  0
    1.2830   -0.2980    0.4040 H   0  0  0  0  0  0  0  0  0  0  0  0
    0.8380    2.4800   -0.7030 H   0  0  0  0  0  0  0  0  0  0  0  0
   -0.1050    1.6330   -2.7650 H   0  0  0  0  0  0  0  0  0  0  0  0
    1.6790    1.4020   -2.5390 H   0  0  0  0  0  0  0  0  0  0  0  0
    2.5940   -1.0250   -2.3210 H   0  0  0  0  0  0  0  0  0  0  0  0
    1.6570   -3.3800   -2.9420 H   0  0  0  0  0  0  0  0  0  0  0  0
   -0.8750   -4.4310   -3.6060 H   0  0  0  0  0  0  0  0  0  0  0  0
   -3.2410   -3.7900   -3.9360 H   0  0  0  0  0  0  0  0  0  0  0  0
   -3.8650   -1.4830   -3.5960 H   0  0  0  0  0  0  0  0  0  0  0  0
   -2.1890    0.2610   -2.9380 H   0  0  0  0  0  0  0  0  0  0  0  0
   -3.6350   -4.1030   -0.6580 C   0  0  0  0  0  0  0  0  0  0  0  0
   -3.9130   -2.3450   -0.2030 S   0  0  0  0  0  0  0  0  0  0  0  0
   -3.0520   -2.0600    1.3300 C   0  0  0  0  0  0  0  0  0  0  0  0
   -3.1650   -0.7180    1.9240 C   0  0  0  0  0  0  0  0  0  0  0  0
   -2.6760    0.4510    1.1750 C   0  0  2  0  0  0  0  0  0  0  0  0
   -1.2880    0.4730    0.8230 N   0  0  0  0  0  0  0  0  0  0  0  0
   -2.9510    1.6460    2.1120 C   0  0  0  0  0  0  0  0  0  0  0  0
   -4.0960    1.8520    2.5670 O   0  0  0  0  0  0  0  0  0  0  0  0
   -1.9330    2.5070    2.4610 O   0  0  0  0  0  0  0  0  0  0  0  0
   -4.2350   -4.3090   -1.5500 H   0  0  0  0  0  0  0  0  0  0  0  0
   -3.8480   -4.7780    0.2040 H   0  0  0  0  0  0  0  0  0  0  0  0
   -2.5390   -4.2040   -0.8550 H   0  0  0  0  0  0  0  0  0  0  0  0
   -1.9650   -2.3180    1.2210 H   0  0  0  0  0  0  0  0  0  0  0  0
   -3.4260   -2.8270    2.0710 H   0  0  0  0  0  0  0  0  0  0  0  0
   -4.2650   -0.5170    2.1360 H   0  0  0  0  0  0  0  0  0  0  0  0
   -2.7270   -0.7340    2.9680 H   0  0  0  0  0  0  0  0  0  0  0  0
   -3.2780    0.6460    0.2680 H   0  0  0  0  0  0  0  0  0  0  0  0
   -0.5350   -0.0540    1.3150 H   0  0  0  0  0  0  0  0  0  0  0  0
  1 13  1  0  0  0  0
  2  1  1  0  0  0  0
  3 14  1  0  0  0  0
  3  2  2  0  0  0  0
  4  3  1  0  0  0  0
  5  4  2  0  0  0  0
  5 11  1  0  0  0  0
  6 17  1  0  0  0  0
  6 16  1  0  0  0  0
  6  5  1  0  0  0  0
  7 18  1  6  0  0  0
  7  6  1  0  0  0  0
  8  7  1  0  0  0  0
  8 19  1  0  0  0  0
  9  7  1  0  0  0  0
 10  9  2  0  0  0  0
 11 12  2  0  0  0  0
 12 22  1  0  0  0  0
 12  2  1  0  0  0  0
 15  4  1  0  0  0  0
 20  8  1  0  0  0  0
 21 11  1  0  0  0  0
 23  9  1  0  0  0  0
 23 37  1  0  0  0  0
 24 38  1  1  0  0  0
 24 35  1  0  0  0  0
 24 23  1  0  0  0  0
 25 24  1  0  0  0  0
 26 25  1  0  0  0  0
 27 26  2  0  0  0  0
 27 41  1  0  0  0  0
 28 27  1  0  0  0  0
 29 34  1  0  0  0  0
 29 28  1  0  0  0  0
 30 29  2  0  0  0  0
 31 30  1  0  0  0  0
 31 32  2  0  0  0  0
 32 33  1  0  0  0  0
 33 46  1  0  0  0  0
 33 34  2  0  0  0  0
 34 26  1  0  0  0  0
 35 52  1  0  0  0  0
 36 35  2  0  0  0  0
 39 25  1  0  0  0  0
 40 25  1  0  0  0  0
 42 28  1  0  0  0  0
 43 30  1  0  0  0  0
 44 31  1  0  0  0  0
 45 32  1  0  0  0  0
 47 48  1  0  0  0  0
 47 57  1  0  0  0  0
 48 49  1  0  0  0  0
 49 50  1  0  0  0  0
 49 60  1  0  0  0  0
 50 61  1  0  0  0  0
 50 62  1  0  0  0  0
 51 63  1  6  0  0  0
 51 50  1  0  0  0  0
 51 53  1  0  0  0  0
 52 51  1  0  0  0  0
 52 64  1  0  0  0  0
 53 55  2  0  0  0  0
 53 54  1  0  0  0  0
 56 47  1  0  0  0  0
 58 47  1  0  0  0  0
 59 49  1  0  0  0  0
M  END
$$$$
