YWN.pdb
 OpenBabel07022419233D

 61 63  0  0  1  0  0  0  0  0999 V2000
    2.4810    4.1720    4.2540 O   0  0  0  0  0  0  0  0  0  0  0  0
    2.9660    3.2490    3.3090 C   0  0  0  0  0  0  0  0  0  0  0  0
    3.9120    2.3280    3.6990 C   0  0  0  0  0  0  0  0  0  0  0  0
    4.4000    1.4220    2.8000 C   0  0  0  0  0  0  0  0  0  0  0  0
    3.9700    1.3930    1.4870 C   0  0  0  0  0  0  0  0  0  0  0  0
    4.5220    0.4200    0.4910 C   0  0  0  0  0  0  0  0  0  0  0  0
    3.7360   -0.8450    0.5780 C   0  0  2  0  0  0  0  0  0  0  0  0
    4.2710   -1.7750   -0.3980 N   0  0  0  0  0  0  0  0  0  0  0  0
    2.3030   -0.7630    0.4350 C   0  0  0  0  0  0  0  0  0  0  0  0
    1.6900   -0.0750    1.3130 O   0  0  0  0  0  0  0  0  0  0  0  0
    3.0130    2.3270    1.1060 C   0  0  0  0  0  0  0  0  0  0  0  0
    2.5250    3.2400    2.0170 C   0  0  0  0  0  0  0  0  0  0  0  0
    2.1400    3.8330    5.1560 H   0  0  0  0  0  0  0  0  0  0  0  0
    4.2600    2.3390    4.7470 H   0  0  0  0  0  0  0  0  0  0  0  0
    5.1450    0.6990    3.1210 H   0  0  0  0  0  0  0  0  0  0  0  0
    5.5740    0.2350    0.8130 H   0  0  0  0  0  0  0  0  0  0  0  0
    4.5590    0.8700   -0.5060 H   0  0  0  0  0  0  0  0  0  0  0  0
    3.9330   -1.3510    1.5760 H   0  0  0  0  0  0  0  0  0  0  0  0
    5.3040   -1.8490   -0.1640 H   0  0  0  0  0  0  0  0  0  0  0  0
    3.8740   -2.7190   -0.2160 H   0  0  0  0  0  0  0  0  0  0  0  0
    2.6850    2.2960    0.0750 H   0  0  0  0  0  0  0  0  0  0  0  0
    1.7910    3.9640    1.7200 H   0  0  0  0  0  0  0  0  0  0  0  0
    1.4660   -1.3290   -0.5290 N   0  0  0  0  0  0  0  0  0  0  0  0
    0.0040   -1.1800   -0.5580 C   0  0  1  0  0  0  0  0  0  0  0  0
   -0.4620   -0.2840   -1.6260 C   0  0  0  0  0  0  0  0  0  0  0  0
   -1.9260   -0.1320   -1.6220 C   0  0  0  0  0  0  0  0  0  0  0  0
   -2.8330   -0.7060   -2.5290 C   0  0  0  0  0  0  0  0  0  0  0  0
   -4.0540   -0.3090   -2.2060 N   0  0  0  0  0  0  0  0  0  0  0  0
   -4.0360    0.4990   -1.1360 C   0  0  0  0  0  0  0  0  0  0  0  0
   -5.0210    1.1580   -0.4350 C   0  0  0  0  0  0  0  0  0  0  0  0
   -4.6750    1.9390    0.6450 C   0  0  0  0  0  0  0  0  0  0  0  0
   -3.3670    2.0900    1.0560 C   0  0  0  0  0  0  0  0  0  0  0  0
   -2.3950    1.4030    0.3180 C   0  0  0  0  0  0  0  0  0  0  0  0
   -2.7260    0.6160   -0.7670 C   0  0  0  0  0  0  0  0  0  0  0  0
   -0.5750   -2.5350   -0.5240 C   0  0  0  0  0  0  0  0  0  0  0  0
    0.2100   -3.5190   -0.7390 O   0  0  0  0  0  0  0  0  0  0  0  0
    1.8940   -1.8980   -1.2780 H   0  0  0  0  0  0  0  0  0  0  0  0
   -0.2530   -0.6740    0.3920 H   0  0  0  0  0  0  0  0  0  0  0  0
   -0.0500    0.7590   -1.4690 H   0  0  0  0  0  0  0  0  0  0  0  0
   -0.1700   -0.5360   -2.6540 H   0  0  0  0  0  0  0  0  0  0  0  0
   -2.5640   -1.3640   -3.3540 H   0  0  0  0  0  0  0  0  0  0  0  0
   -4.9380   -0.5860   -2.7170 H   0  0  0  0  0  0  0  0  0  0  0  0
   -6.0450    1.0520   -0.7390 H   0  0  0  0  0  0  0  0  0  0  0  0
   -5.4150    2.4710    1.2220 H   0  0  0  0  0  0  0  0  0  0  0  0
   -3.0900    2.7030    1.9010 H   0  0  0  0  0  0  0  0  0  0  0  0
   -1.3690    1.4790    0.5910 H   0  0  0  0  0  0  0  0  0  0  0  0
   -0.3580   -3.9090    2.4150 N   0  0  0  0  0  0  0  0  0  0  0  0
   -0.9600   -4.8910    1.5910 C   0  0  0  0  0  0  0  0  0  0  0  0
   -0.2250   -5.8630    1.2320 O   0  0  0  0  0  0  0  0  0  0  0  0
   -2.3620   -4.8780    1.1160 C   0  0  0  0  0  0  0  0  0  0  0  0
   -2.3880   -4.2510   -0.2540 C   0  0  2  0  0  0  0  0  0  0  0  0
   -1.9090   -2.8990   -0.2720 N   0  0  0  0  0  0  0  0  0  0  0  0
   -3.7250   -4.3410   -0.8140 C   0  0  0  0  0  0  0  0  0  0  0  0
   -4.3220   -5.4710   -0.9140 O   0  0  0  0  0  0  0  0  0  0  0  0
   -4.4440   -3.2290   -1.2750 O   0  0  0  0  0  0  0  0  0  0  0  0
    0.3890   -4.1990    3.0880 H   0  0  0  0  0  0  0  0  0  0  0  0
   -0.6780   -2.9150    2.3270 H   0  0  0  0  0  0  0  0  0  0  0  0
   -3.0690   -4.4100    1.8200 H   0  0  0  0  0  0  0  0  0  0  0  0
   -2.6870   -5.9300    1.0040 H   0  0  0  0  0  0  0  0  0  0  0  0
   -1.6780   -4.8640   -0.8820 H   0  0  0  0  0  0  0  0  0  0  0  0
   -2.6040   -2.1520   -0.0830 H   0  0  0  0  0  0  0  0  0  0  0  0
  1 13  1  0  0  0  0
  2  3  1  0  0  0  0
  2  1  1  0  0  0  0
  3 14  1  0  0  0  0
  4 15  1  0  0  0  0
  4  3  2  0  0  0  0
  5  4  1  0  0  0  0
  6  7  1  0  0  0  0
  6 16  1  0  0  0  0
  6  5  1  0  0  0  0
  7 18  1  1  0  0  0
  8 20  1  0  0  0  0
  8 19  1  0  0  0  0
  8  7  1  0  0  0  0
  9  7  1  0  0  0  0
  9 10  2  0  0  0  0
 11  5  2  0  0  0  0
 11 12  1  0  0  0  0
 12  2  2  0  0  0  0
 17  6  1  0  0  0  0
 21 11  1  0  0  0  0
 22 12  1  0  0  0  0
 23  9  1  0  0  0  0
 24 23  1  0  0  0  0
 24 35  1  0  0  0  0
 24 38  1  1  0  0  0
 25 26  1  0  0  0  0
 25 39  1  0  0  0  0
 25 24  1  0  0  0  0
 26 34  1  0  0  0  0
 27 28  1  0  0  0  0
 27 26  2  0  0  0  0
 28 29  1  0  0  0  0
 29 34  2  0  0  0  0
 29 30  1  0  0  0  0
 30 31  2  0  0  0  0
 31 32  1  0  0  0  0
 31 44  1  0  0  0  0
 32 45  1  0  0  0  0
 33 46  1  0  0  0  0
 33 32  2  0  0  0  0
 34 33  1  0  0  0  0
 35 52  1  0  0  0  0
 36 35  2  0  0  0  0
 37 23  1  0  0  0  0
 40 25  1  0  0  0  0
 41 27  1  0  0  0  0
 42 28  1  0  0  0  0
 43 30  1  0  0  0  0
 47 56  1  0  0  0  0
 48 47  1  0  0  0  0
 49 48  2  0  0  0  0
 50 48  1  0  0  0  0
 50 58  1  0  0  0  0
 51 60  1  6  0  0  0
 51 50  1  0  0  0  0
 52 51  1  0  0  0  0
 52 61  1  0  0  0  0
 53 51  1  0  0  0  0
 54 53  1  0  0  0  0
 55 53  2  0  0  0  0
 57 47  1  0  0  0  0
 59 50  1  0  0  0  0
M  END
$$$$
