YWP.pdb
 OpenBabel07022419233D

 61 64  0  0  1  0  0  0  0  0999 V2000
    4.8650    4.7430    2.9880 O   0  0  0  0  0  0  0  0  0  0  0  0
    4.3480    4.0500    1.8900 C   0  0  0  0  0  0  0  0  0  0  0  0
    5.1690    3.4960    0.9300 C   0  0  0  0  0  0  0  0  0  0  0  0
    4.6280    2.8200   -0.1370 C   0  0  0  0  0  0  0  0  0  0  0  0
    3.2570    2.6660   -0.2960 C   0  0  0  0  0  0  0  0  0  0  0  0
    2.7170    1.9290   -1.4720 C   0  0  0  0  0  0  0  0  0  0  0  0
    2.6200    0.4400   -1.2390 C   0  0  2  0  0  0  0  0  0  0  0  0
    2.0860   -0.1390   -2.4810 N   0  0  0  0  0  0  0  0  0  0  0  0
    1.6920    0.0770   -0.1590 C   0  0  0  0  0  0  0  0  0  0  0  0
    1.7960    0.5030    1.0370 O   0  0  0  0  0  0  0  0  0  0  0  0
    2.4380    3.2170    0.6590 C   0  0  0  0  0  0  0  0  0  0  0  0
    2.9900    3.8990    1.7360 C   0  0  0  0  0  0  0  0  0  0  0  0
    4.4640    4.7300    3.9050 H   0  0  0  0  0  0  0  0  0  0  0  0
    6.2490    3.5950    1.0170 H   0  0  0  0  0  0  0  0  0  0  0  0
    5.2520    2.3720   -0.9140 H   0  0  0  0  0  0  0  0  0  0  0  0
    3.3320    2.1370   -2.3710 H   0  0  0  0  0  0  0  0  0  0  0  0
    1.7030    2.3290   -1.6880 H   0  0  0  0  0  0  0  0  0  0  0  0
    3.6420    0.0030   -1.0820 H   0  0  0  0  0  0  0  0  0  0  0  0
    1.0990    0.2540   -2.5530 H   0  0  0  0  0  0  0  0  0  0  0  0
    2.6080    0.3820   -3.2510 H   0  0  0  0  0  0  0  0  0  0  0  0
    1.3440    3.1260    0.5660 H   0  0  0  0  0  0  0  0  0  0  0  0
    2.3160    4.3220    2.4770 H   0  0  0  0  0  0  0  0  0  0  0  0
    0.5790   -0.8010   -0.3720 N   0  0  0  0  0  0  0  0  0  0  0  0
   -0.3350   -1.1370    0.7230 C   0  0  1  0  0  0  0  0  0  0  0  0
   -1.6920   -0.9200    0.2130 C   0  0  0  0  0  0  0  0  0  0  0  0
   -2.1570   -1.6860   -0.9330 C   0  0  0  0  0  0  0  0  0  0  0  0
   -1.6440   -2.7680   -1.5910 C   0  0  0  0  0  0  0  0  0  0  0  0
   -2.4820   -3.1150   -2.6120 N   0  0  0  0  0  0  0  0  0  0  0  0
   -3.5260   -2.2700   -2.6180 C   0  0  0  0  0  0  0  0  0  0  0  0
   -4.6610   -2.1520   -3.4190 C   0  0  0  0  0  0  0  0  0  0  0  0
   -5.5940   -1.1640   -3.1930 C   0  0  0  0  0  0  0  0  0  0  0  0
   -5.4110   -0.2700   -2.1580 C   0  0  0  0  0  0  0  0  0  0  0  0
   -4.3010   -0.3760   -1.3670 C   0  0  0  0  0  0  0  0  0  0  0  0
   -3.3610   -1.3650   -1.5880 C   0  0  0  0  0  0  0  0  0  0  0  0
    0.0210   -2.4280    1.3050 C   0  0  0  0  0  0  0  0  0  0  0  0
    0.9690   -3.0780    0.7320 O   0  0  0  0  0  0  0  0  0  0  0  0
    0.4130   -1.2020   -1.3100 H   0  0  0  0  0  0  0  0  0  0  0  0
   -0.1540   -0.3860    1.5630 H   0  0  0  0  0  0  0  0  0  0  0  0
   -2.4580   -0.8540    1.0360 H   0  0  0  0  0  0  0  0  0  0  0  0
   -1.7090    0.1750   -0.1590 H   0  0  0  0  0  0  0  0  0  0  0  0
   -0.7210   -3.2580   -1.3240 H   0  0  0  0  0  0  0  0  0  0  0  0
   -2.2990   -3.9080   -3.2500 H   0  0  0  0  0  0  0  0  0  0  0  0
   -4.7520   -2.8720   -4.2050 H   0  0  0  0  0  0  0  0  0  0  0  0
   -6.4570   -1.1250   -3.8520 H   0  0  0  0  0  0  0  0  0  0  0  0
   -6.1760    0.5010   -2.0140 H   0  0  0  0  0  0  0  0  0  0  0  0
   -4.1570    0.3240   -0.5580 H   0  0  0  0  0  0  0  0  0  0  0  0
   -0.5490   -3.0600    2.4350 N   0  0  0  0  0  0  0  0  0  0  0  0
   -0.1400   -4.3980    2.9570 C   0  0  0  0  0  0  0  0  0  0  0  0
   -1.4880   -5.0900    3.0820 C   0  0  0  0  0  0  0  0  0  0  0  0
   -2.3290   -3.9690    3.6490 C   0  0  0  0  0  0  0  0  0  0  0  0
   -1.5690   -2.6740    3.3760 C   0  0  1  0  0  0  0  0  0  0  0  0
   -0.9860   -2.2300    4.6720 C   0  0  0  0  0  0  0  0  0  0  0  0
   -1.7660   -1.9630    5.6170 O   0  0  0  0  0  0  0  0  0  0  0  0
    0.3820   -2.1250    4.7950 O   0  0  0  0  0  0  0  0  0  0  0  0
    0.2800   -4.2590    3.9510 H   0  0  0  0  0  0  0  0  0  0  0  0
    0.4800   -4.9380    2.2380 H   0  0  0  0  0  0  0  0  0  0  0  0
   -1.8660   -5.4520    2.1180 H   0  0  0  0  0  0  0  0  0  0  0  0
   -1.4300   -5.9290    3.7880 H   0  0  0  0  0  0  0  0  0  0  0  0
   -2.5000   -4.1000    4.7330 H   0  0  0  0  0  0  0  0  0  0  0  0
   -3.3240   -3.9860    3.1590 H   0  0  0  0  0  0  0  0  0  0  0  0
   -2.3230   -1.9760    3.0100 H   0  0  0  0  0  0  0  0  0  0  0  0
  1 13  1  0  0  0  0
  2  1  1  0  0  0  0
  3 14  1  0  0  0  0
  3  2  2  0  0  0  0
  4  3  1  0  0  0  0
  5  4  2  0  0  0  0
  5 11  1  0  0  0  0
  6  7  1  0  0  0  0
  6  5  1  0  0  0  0
  7 18  1  1  0  0  0
  7  9  1  0  0  0  0
  8  7  1  0  0  0  0
  9 10  2  0  0  0  0
 11 12  2  0  0  0  0
 12  2  1  0  0  0  0
 12 22  1  0  0  0  0
 15  4  1  0  0  0  0
 16  6  1  0  0  0  0
 17  6  1  0  0  0  0
 19  8  1  0  0  0  0
 20  8  1  0  0  0  0
 21 11  1  0  0  0  0
 23  9  1  0  0  0  0
 23 24  1  0  0  0  0
 24 35  1  0  0  0  0
 24 38  1  1  0  0  0
 25 24  1  0  0  0  0
 25 39  1  0  0  0  0
 26 25  1  0  0  0  0
 27 41  1  0  0  0  0
 27 26  2  0  0  0  0
 28 27  1  0  0  0  0
 29 28  1  0  0  0  0
 29 34  1  0  0  0  0
 30 31  1  0  0  0  0
 30 29  2  0  0  0  0
 31 32  2  0  0  0  0
 32 45  1  0  0  0  0
 32 33  1  0  0  0  0
 33 46  1  0  0  0  0
 34 33  2  0  0  0  0
 34 26  1  0  0  0  0
 35 47  1  0  0  0  0
 36 35  2  0  0  0  0
 37 23  1  0  0  0  0
 40 25  1  0  0  0  0
 42 28  1  0  0  0  0
 43 30  1  0  0  0  0
 44 31  1  0  0  0  0
 47 48  1  0  0  0  0
 47 51  1  0  0  0  0
 48 49  1  0  0  0  0
 48 55  1  0  0  0  0
 49 50  1  0  0  0  0
 49 58  1  0  0  0  0
 50 59  1  0  0  0  0
 51 61  1  6  0  0  0
 51 50  1  0  0  0  0
 51 52  1  0  0  0  0
 52 54  2  0  0  0  0
 52 53  1  0  0  0  0
 56 48  1  0  0  0  0
 57 49  1  0  0  0  0
 60 50  1  0  0  0  0
M  END
$$$$
