YWQ.pdb
 OpenBabel07022419233D

 64 66  0  0  1  0  0  0  0  0999 V2000
    6.2130    2.2370    6.2690 O   0  0  0  0  0  0  0  0  0  0  0  0
    5.4770    1.6870    5.2260 C   0  0  0  0  0  0  0  0  0  0  0  0
    6.0460    0.9900    4.1740 C   0  0  0  0  0  0  0  0  0  0  0  0
    5.2770    0.4600    3.1600 C   0  0  0  0  0  0  0  0  0  0  0  0
    3.9110    0.5840    3.1190 C   0  0  0  0  0  0  0  0  0  0  0  0
    3.1000    0.0300    2.0160 C   0  0  0  0  0  0  0  0  0  0  0  0
    2.8560    1.0320    0.9120 C   0  0  2  0  0  0  0  0  0  0  0  0
    2.1510    2.2010    1.4410 N   0  0  0  0  0  0  0  0  0  0  0  0
    1.9560    0.3590   -0.0810 C   0  0  0  0  0  0  0  0  0  0  0  0
    2.3200    0.0750   -1.2440 O   0  0  0  0  0  0  0  0  0  0  0  0
    3.3340    1.2760    4.1620 C   0  0  0  0  0  0  0  0  0  0  0  0
    4.0850    1.8180    5.1920 C   0  0  0  0  0  0  0  0  0  0  0  0
    5.8380    2.2980    7.2240 H   0  0  0  0  0  0  0  0  0  0  0  0
    7.1360    0.8950    4.2120 H   0  0  0  0  0  0  0  0  0  0  0  0
    5.7600   -0.0770    2.3560 H   0  0  0  0  0  0  0  0  0  0  0  0
    2.1160   -0.3330    2.4340 H   0  0  0  0  0  0  0  0  0  0  0  0
    3.5950   -0.8530    1.5840 H   0  0  0  0  0  0  0  0  0  0  0  0
    3.7450    1.3690    0.3920 H   0  0  0  0  0  0  0  0  0  0  0  0
    2.6840    2.6600    2.1950 H   0  0  0  0  0  0  0  0  0  0  0  0
    1.9280    2.8370    0.6250 H   0  0  0  0  0  0  0  0  0  0  0  0
    2.2590    1.4010    4.1690 H   0  0  0  0  0  0  0  0  0  0  0  0
    3.6370    2.3680    6.0130 H   0  0  0  0  0  0  0  0  0  0  0  0
    0.6090    0.0070    0.2790 N   0  0  0  0  0  0  0  0  0  0  0  0
   -0.2200   -0.6070   -0.7150 C   0  0  1  0  0  0  0  0  0  0  0  0
   -0.1150   -2.1410   -0.6820 C   0  0  0  0  0  0  0  0  0  0  0  0
   -0.9960   -2.7380   -1.6990 C   0  0  0  0  0  0  0  0  0  0  0  0
   -2.2250   -3.3510   -1.5480 C   0  0  0  0  0  0  0  0  0  0  0  0
   -2.7020   -3.7440   -2.7390 N   0  0  0  0  0  0  0  0  0  0  0  0
   -1.8020   -3.4030   -3.7120 C   0  0  0  0  0  0  0  0  0  0  0  0
   -1.8470   -3.5960   -5.0820 C   0  0  0  0  0  0  0  0  0  0  0  0
   -0.7840   -3.1410   -5.8160 C   0  0  0  0  0  0  0  0  0  0  0  0
    0.2780   -2.5200   -5.2010 C   0  0  0  0  0  0  0  0  0  0  0  0
    0.3120   -2.3320   -3.8270 C   0  0  0  0  0  0  0  0  0  0  0  0
   -0.7590   -2.7860   -3.0560 C   0  0  0  0  0  0  0  0  0  0  0  0
   -1.6330   -0.2230   -0.6620 C   0  0  0  0  0  0  0  0  0  0  0  0
   -2.4530   -0.6050   -1.5630 O   0  0  0  0  0  0  0  0  0  0  0  0
    0.3240    0.2170    1.2480 H   0  0  0  0  0  0  0  0  0  0  0  0
    0.2040   -0.3410   -1.7340 H   0  0  0  0  0  0  0  0  0  0  0  0
   -0.2280   -2.5600    0.3100 H   0  0  0  0  0  0  0  0  0  0  0  0
    0.9380   -2.3710   -1.0300 H   0  0  0  0  0  0  0  0  0  0  0  0
   -2.7130   -3.4890   -0.6010 H   0  0  0  0  0  0  0  0  0  0  0  0
   -3.5900   -4.2300   -2.9700 H   0  0  0  0  0  0  0  0  0  0  0  0
   -2.6670   -4.0750   -5.5670 H   0  0  0  0  0  0  0  0  0  0  0  0
   -0.7610   -3.2600   -6.9170 H   0  0  0  0  0  0  0  0  0  0  0  0
    1.1060   -2.1650   -5.7880 H   0  0  0  0  0  0  0  0  0  0  0  0
    1.1190   -1.8560   -3.2960 H   0  0  0  0  0  0  0  0  0  0  0  0
   -4.8920   -3.7510    1.6730 N   0  0  0  0  0  0  0  0  0  0  0  0
   -4.8950   -2.3550    1.8630 C   0  0  0  0  0  0  0  0  0  0  0  0
   -5.5250   -1.8540    2.8220 O   0  0  0  0  0  0  0  0  0  0  0  0
   -4.1610   -1.4470    0.9450 C   0  0  0  0  0  0  0  0  0  0  0  0
   -4.3240   -0.0040    1.3290 C   0  0  0  0  0  0  0  0  0  0  0  0
   -3.5720    0.9100    0.3560 C   0  0  2  0  0  0  0  0  0  0  0  0
   -2.1490    0.5770    0.3820 N   0  0  0  0  0  0  0  0  0  0  0  0
   -3.7300    2.2880    0.8680 C   0  0  0  0  0  0  0  0  0  0  0  0
   -4.8470    2.8570    0.8890 O   0  0  0  0  0  0  0  0  0  0  0  0
   -2.6500    3.0110    1.3500 O   0  0  0  0  0  0  0  0  0  0  0  0
   -5.7250   -4.2860    1.2970 H   0  0  0  0  0  0  0  0  0  0  0  0
   -4.0440   -4.3120    1.9050 H   0  0  0  0  0  0  0  0  0  0  0  0
   -4.4940   -1.6870   -0.0900 H   0  0  0  0  0  0  0  0  0  0  0  0
   -3.0590   -1.6650    0.9890 H   0  0  0  0  0  0  0  0  0  0  0  0
   -5.3730    0.2920    1.4520 H   0  0  0  0  0  0  0  0  0  0  0  0
   -3.8200    0.1080    2.3140 H   0  0  0  0  0  0  0  0  0  0  0  0
   -4.0370    0.7570   -0.6260 H   0  0  0  0  0  0  0  0  0  0  0  0
   -1.5580    0.9460    1.1710 H   0  0  0  0  0  0  0  0  0  0  0  0
  1 13  1  0  0  0  0
  2  1  1  0  0  0  0
  3 14  1  0  0  0  0
  3  2  2  0  0  0  0
  4  3  1  0  0  0  0
  5  4  2  0  0  0  0
  5 11  1  0  0  0  0
  6 16  1  0  0  0  0
  6  5  1  0  0  0  0
  7 18  1  6  0  0  0
  7  8  1  0  0  0  0
  7  6  1  0  0  0  0
  8 19  1  0  0  0  0
  9 23  1  0  0  0  0
  9  7  1  0  0  0  0
 10  9  2  0  0  0  0
 11 21  1  0  0  0  0
 11 12  2  0  0  0  0
 12  2  1  0  0  0  0
 12 22  1  0  0  0  0
 15  4  1  0  0  0  0
 17  6  1  0  0  0  0
 20  8  1  0  0  0  0
 23 37  1  0  0  0  0
 24 38  1  6  0  0  0
 24 25  1  0  0  0  0
 24 35  1  0  0  0  0
 24 23  1  0  0  0  0
 25 39  1  0  0  0  0
 26 27  2  0  0  0  0
 26 25  1  0  0  0  0
 27 41  1  0  0  0  0
 28 27  1  0  0  0  0
 29 34  1  0  0  0  0
 29 28  1  0  0  0  0
 30 29  2  0  0  0  0
 31 32  2  0  0  0  0
 31 30  1  0  0  0  0
 32 33  1  0  0  0  0
 33 46  1  0  0  0  0
 33 34  2  0  0  0  0
 34 26  1  0  0  0  0
 35 53  1  0  0  0  0
 36 35  2  0  0  0  0
 40 25  1  0  0  0  0
 42 28  1  0  0  0  0
 43 30  1  0  0  0  0
 44 31  1  0  0  0  0
 45 32  1  0  0  0  0
 47 48  1  0  0  0  0
 47 58  1  0  0  0  0
 48 49  2  0  0  0  0
 50 60  1  0  0  0  0
 50 51  1  0  0  0  0
 50 48  1  0  0  0  0
 51 61  1  0  0  0  0
 51 62  1  0  0  0  0
 52 63  1  6  0  0  0
 52 53  1  0  0  0  0
 52 54  1  0  0  0  0
 52 51  1  0  0  0  0
 53 64  1  0  0  0  0
 54 55  2  0  0  0  0
 54 56  1  0  0  0  0
 57 47  1  0  0  0  0
 59 50  1  0  0  0  0
M  END
$$$$
