YWV.pdb
 OpenBabel07022419233D

 63 65  0  0  1  0  0  0  0  0999 V2000
    1.3170   -4.8940    2.2620 O   0  0  0  0  0  0  0  0  0  0  0  0
    2.0350   -4.0060    1.4880 C   0  0  0  0  0  0  0  0  0  0  0  0
    2.5760   -4.3500    0.2720 C   0  0  0  0  0  0  0  0  0  0  0  0
    3.2930   -3.4260   -0.4790 C   0  0  0  0  0  0  0  0  0  0  0  0
    3.4920   -2.1370   -0.0390 C   0  0  0  0  0  0  0  0  0  0  0  0
    4.2610   -1.1310   -0.7540 C   0  0  0  0  0  0  0  0  0  0  0  0
    3.5450   -0.3090   -1.7750 C   0  0  2  0  0  0  0  0  0  0  0  0
    4.5960    0.6070   -2.3050 N   0  0  0  0  0  0  0  0  0  0  0  0
    2.4620    0.4740   -1.1680 C   0  0  0  0  0  0  0  0  0  0  0  0
    2.7000    1.6910   -0.8500 O   0  0  0  0  0  0  0  0  0  0  0  0
    2.9280   -1.8170    1.2020 C   0  0  0  0  0  0  0  0  0  0  0  0
    2.2150   -2.7250    1.9540 C   0  0  0  0  0  0  0  0  0  0  0  0
    0.6090   -4.6190    2.9290 H   0  0  0  0  0  0  0  0  0  0  0  0
    2.4140   -5.3720   -0.0720 H   0  0  0  0  0  0  0  0  0  0  0  0
    3.6930   -3.7330   -1.4120 H   0  0  0  0  0  0  0  0  0  0  0  0
    4.7120   -0.4170    0.0010 H   0  0  0  0  0  0  0  0  0  0  0  0
    5.1670   -1.6360   -1.1960 H   0  0  0  0  0  0  0  0  0  0  0  0
    3.2350   -0.9090   -2.6400 H   0  0  0  0  0  0  0  0  0  0  0  0
    4.8440    1.2120   -1.4840 H   0  0  0  0  0  0  0  0  0  0  0  0
    5.4150   -0.0230   -2.4680 H   0  0  0  0  0  0  0  0  0  0  0  0
    3.0480   -0.8120    1.6090 H   0  0  0  0  0  0  0  0  0  0  0  0
    1.7850   -2.4420    2.9270 H   0  0  0  0  0  0  0  0  0  0  0  0
    1.1480    0.0330   -0.8910 N   0  0  0  0  0  0  0  0  0  0  0  0
    0.1390    0.8870   -0.2910 C   0  0  1  0  0  0  0  0  0  0  0  0
   -0.7130    1.5410   -1.3370 C   0  0  0  0  0  0  0  0  0  0  0  0
   -1.4180    0.6410   -2.2620 C   0  0  0  0  0  0  0  0  0  0  0  0
   -1.0020    0.3980   -3.5790 C   0  0  0  0  0  0  0  0  0  0  0  0
   -1.8460   -0.4580   -4.1550 N   0  0  0  0  0  0  0  0  0  0  0  0
   -2.7890   -0.7750   -3.2540 C   0  0  0  0  0  0  0  0  0  0  0  0
   -3.8770   -1.6250   -3.3900 C   0  0  0  0  0  0  0  0  0  0  0  0
   -4.7270   -1.8070   -2.3380 C   0  0  0  0  0  0  0  0  0  0  0  0
   -4.4890   -1.1390   -1.1470 C   0  0  0  0  0  0  0  0  0  0  0  0
   -3.3860   -0.2890   -1.0340 C   0  0  0  0  0  0  0  0  0  0  0  0
   -2.5340   -0.1030   -2.0840 C   0  0  0  0  0  0  0  0  0  0  0  0
   -0.5010    0.2450    0.8230 C   0  0  0  0  0  0  0  0  0  0  0  0
   -0.2980   -0.9830    1.0090 O   0  0  0  0  0  0  0  0  0  0  0  0
    0.9050   -0.9470   -1.1300 H   0  0  0  0  0  0  0  0  0  0  0  0
    0.7380    1.7670    0.1390 H   0  0  0  0  0  0  0  0  0  0  0  0
   -1.4940    2.1810   -0.8410 H   0  0  0  0  0  0  0  0  0  0  0  0
   -0.1010    2.2530   -1.9210 H   0  0  0  0  0  0  0  0  0  0  0  0
   -0.1320    0.8480   -4.0330 H   0  0  0  0  0  0  0  0  0  0  0  0
   -1.7980   -0.8350   -5.1530 H   0  0  0  0  0  0  0  0  0  0  0  0
   -4.0770   -2.1560   -4.3200 H   0  0  0  0  0  0  0  0  0  0  0  0
   -5.5820   -2.4720   -2.4350 H   0  0  0  0  0  0  0  0  0  0  0  0
   -5.1510   -1.2800   -0.3210 H   0  0  0  0  0  0  0  0  0  0  0  0
   -3.2560    0.2060   -0.0860 H   0  0  0  0  0  0  0  0  0  0  0  0
    0.1380    0.2540    4.2520 C   0  0  0  0  0  0  0  0  0  0  0  0
   -1.3320    0.5160    4.1970 C   0  0  0  0  0  0  0  0  0  0  0  0
   -1.9810   -0.3190    5.2790 C   0  0  0  0  0  0  0  0  0  0  0  0
   -1.9550    0.1280    2.8610 C   0  0  2  0  0  0  0  0  0  0  0  0
   -1.3610    0.8650    1.7700 N   0  0  0  0  0  0  0  0  0  0  0  0
   -3.3840    0.5060    2.9720 C   0  0  0  0  0  0  0  0  0  0  0  0
   -3.9390    1.3710    2.2530 O   0  0  0  0  0  0  0  0  0  0  0  0
   -4.2380   -0.0960    3.9190 O   0  0  0  0  0  0  0  0  0  0  0  0
    0.7170    0.8430    3.5160 H   0  0  0  0  0  0  0  0  0  0  0  0
    0.3950   -0.8150    4.0970 H   0  0  0  0  0  0  0  0  0  0  0  0
    0.5760    0.5000    5.2510 H   0  0  0  0  0  0  0  0  0  0  0  0
   -1.5320    1.5770    4.4470 H   0  0  0  0  0  0  0  0  0  0  0  0
   -2.8130    0.2500    5.7880 H   0  0  0  0  0  0  0  0  0  0  0  0
   -2.4370   -1.2330    4.8590 H   0  0  0  0  0  0  0  0  0  0  0  0
   -1.2650   -0.5580    6.1090 H   0  0  0  0  0  0  0  0  0  0  0  0
   -1.7840   -0.9610    2.7460 H   0  0  0  0  0  0  0  0  0  0  0  0
   -1.5680    1.8760    1.6790 H   0  0  0  0  0  0  0  0  0  0  0  0
  1 13  1  0  0  0  0
  2 12  1  0  0  0  0
  2  1  1  0  0  0  0
  3  2  2  0  0  0  0
  4  5  2  0  0  0  0
  4  3  1  0  0  0  0
  5 11  1  0  0  0  0
  6  5  1  0  0  0  0
  6 16  1  0  0  0  0
  7 18  1  6  0  0  0
  7  9  1  0  0  0  0
  7  6  1  0  0  0  0
  8  7  1  0  0  0  0
  8 19  1  0  0  0  0
  9 23  1  0  0  0  0
  9 10  2  0  0  0  0
 11 21  1  0  0  0  0
 11 12  2  0  0  0  0
 12 22  1  0  0  0  0
 14  3  1  0  0  0  0
 15  4  1  0  0  0  0
 17  6  1  0  0  0  0
 20  8  1  0  0  0  0
 23 24  1  0  0  0  0
 24 38  1  1  0  0  0
 24 35  1  0  0  0  0
 25 39  1  0  0  0  0
 25 24  1  0  0  0  0
 26 34  1  0  0  0  0
 26 25  1  0  0  0  0
 27 26  2  0  0  0  0
 28 27  1  0  0  0  0
 28 29  1  0  0  0  0
 29 34  1  0  0  0  0
 30 29  2  0  0  0  0
 30 31  1  0  0  0  0
 31 32  2  0  0  0  0
 32 33  1  0  0  0  0
 32 45  1  0  0  0  0
 33 46  1  0  0  0  0
 34 33  2  0  0  0  0
 35 36  2  0  0  0  0
 35 51  1  0  0  0  0
 37 23  1  0  0  0  0
 40 25  1  0  0  0  0
 41 27  1  0  0  0  0
 42 28  1  0  0  0  0
 43 30  1  0  0  0  0
 44 31  1  0  0  0  0
 47 57  1  0  0  0  0
 48 47  1  0  0  0  0
 48 58  1  0  0  0  0
 48 49  1  0  0  0  0
 49 59  1  0  0  0  0
 49 61  1  0  0  0  0
 50 62  1  6  0  0  0
 50 52  1  0  0  0  0
 50 48  1  0  0  0  0
 51 50  1  0  0  0  0
 52 54  1  0  0  0  0
 53 52  2  0  0  0  0
 55 47  1  0  0  0  0
 56 47  1  0  0  0  0
 60 49  1  0  0  0  0
 63 51  1  0  0  0  0
M  END
$$$$
