YYA.pdb
 OpenBabel07022419233D

 54 55  0  0  1  0  0  0  0  0999 V2000
    5.2370    0.2200    2.4420 O   0  0  0  0  0  0  0  0  0  0  0  0
    4.4160    0.8610    1.4980 C   0  0  0  0  0  0  0  0  0  0  0  0
    4.0610    0.2660    0.3090 C   0  0  0  0  0  0  0  0  0  0  0  0
    3.2590    0.8720   -0.6300 C   0  0  0  0  0  0  0  0  0  0  0  0
    2.7740    2.1370   -0.3910 C   0  0  0  0  0  0  0  0  0  0  0  0
    1.9030    2.7960   -1.4070 C   0  0  0  0  0  0  0  0  0  0  0  0
    0.4330    2.5190   -1.1860 C   0  0  2  0  0  0  0  0  0  0  0  0
   -0.0370    2.9710    0.0860 N   0  0  0  0  0  0  0  0  0  0  0  0
    0.1350    1.0870   -1.4150 C   0  0  0  0  0  0  0  0  0  0  0  0
    0.4570    0.5900   -2.5320 O   0  0  0  0  0  0  0  0  0  0  0  0
    3.1140    2.7500    0.7880 C   0  0  0  0  0  0  0  0  0  0  0  0
    3.9160    2.1270    1.7110 C   0  0  0  0  0  0  0  0  0  0  0  0
    5.0300    0.4360    3.4170 H   0  0  0  0  0  0  0  0  0  0  0  0
    4.4410   -0.7370    0.1080 H   0  0  0  0  0  0  0  0  0  0  0  0
    3.0060    0.3490   -1.5710 H   0  0  0  0  0  0  0  0  0  0  0  0
    2.1670    2.3850   -2.3830 H   0  0  0  0  0  0  0  0  0  0  0  0
    2.1040    3.8850   -1.4210 H   0  0  0  0  0  0  0  0  0  0  0  0
   -0.0930    3.1460   -1.9670 H   0  0  0  0  0  0  0  0  0  0  0  0
    0.0080    3.9810    0.2230 H   0  0  0  0  0  0  0  0  0  0  0  0
    0.1550    2.3780    0.8930 H   0  0  0  0  0  0  0  0  0  0  0  0
    2.7320    3.7610    0.9910 H   0  0  0  0  0  0  0  0  0  0  0  0
    4.1950    2.6030    2.6570 H   0  0  0  0  0  0  0  0  0  0  0  0
   -0.5170   -1.0800    5.6910 O   0  0  0  0  0  0  0  0  0  0  0  0
   -0.4350   -1.3750    4.3210 C   0  0  0  0  0  0  0  0  0  0  0  0
   -1.2620   -2.2800    3.7200 C   0  0  0  0  0  0  0  0  0  0  0  0
   -1.1280   -2.5230    2.3700 C   0  0  0  0  0  0  0  0  0  0  0  0
   -0.1960   -1.8920    1.6030 C   0  0  0  0  0  0  0  0  0  0  0  0
    0.0240   -2.0790    0.1690 C   0  0  0  0  0  0  0  0  0  0  0  0
   -0.7650   -1.1630   -0.7230 C   0  0  2  0  0  0  0  0  0  0  0  0
   -0.4810    0.2320   -0.4850 N   0  0  0  0  0  0  0  0  0  0  0  0
   -2.1960   -1.5050   -0.6510 C   0  0  0  0  0  0  0  0  0  0  0  0
   -3.1100   -0.6900   -0.3730 O   0  0  0  0  0  0  0  0  0  0  0  0
    0.6300   -0.9750    2.2550 C   0  0  0  0  0  0  0  0  0  0  0  0
    0.5270   -0.7090    3.5870 C   0  0  0  0  0  0  0  0  0  0  0  0
   -0.1650   -0.1990    6.0330 H   0  0  0  0  0  0  0  0  0  0  0  0
   -1.9970   -2.7730    4.3470 H   0  0  0  0  0  0  0  0  0  0  0  0
   -1.7800   -3.2390    1.8900 H   0  0  0  0  0  0  0  0  0  0  0  0
    1.1290   -2.0340   -0.0710 H   0  0  0  0  0  0  0  0  0  0  0  0
   -0.2630   -3.1200   -0.0860 H   0  0  0  0  0  0  0  0  0  0  0  0
   -0.4220   -1.3930   -1.7700 H   0  0  0  0  0  0  0  0  0  0  0  0
   -0.7590    0.6140    0.4450 H   0  0  0  0  0  0  0  0  0  0  0  0
    1.4030   -0.4340    1.6840 H   0  0  0  0  0  0  0  0  0  0  0  0
    1.1790    0.0110    4.0800 H   0  0  0  0  0  0  0  0  0  0  0  0
   -4.2950   -3.6820   -2.3050 C   0  0  0  0  0  0  0  0  0  0  0  0
   -3.9670   -3.2550   -0.8630 C   0  0  2  0  0  0  0  0  0  0  0  0
   -2.5800   -2.8470   -0.9130 N   0  0  0  0  0  0  0  0  0  0  0  0
   -4.2390   -4.4200   -0.0260 C   0  0  0  0  0  0  0  0  0  0  0  0
   -5.4480   -4.7970    0.0400 O   0  0  0  0  0  0  0  0  0  0  0  0
   -3.3320   -5.1550    0.7010 O   0  0  0  0  0  0  0  0  0  0  0  0
   -3.3790   -4.0700   -2.8060 H   0  0  0  0  0  0  0  0  0  0  0  0
   -5.0370   -4.5030   -2.2960 H   0  0  0  0  0  0  0  0  0  0  0  0
   -4.6220   -2.7980   -2.8540 H   0  0  0  0  0  0  0  0  0  0  0  0
   -4.6100   -2.4220   -0.5840 H   0  0  0  0  0  0  0  0  0  0  0  0
   -1.9050   -3.6160   -1.1560 H   0  0  0  0  0  0  0  0  0  0  0  0
  1 13  1  0  0  0  0
  2 12  1  0  0  0  0
  2  1  1  0  0  0  0
  3  2  2  0  0  0  0
  4  5  2  0  0  0  0
  4  3  1  0  0  0  0
  5 11  1  0  0  0  0
  6  7  1  0  0  0  0
  6  5  1  0  0  0  0
  7 18  1  6  0  0  0
  7  8  1  0  0  0  0
  8 19  1  0  0  0  0
  8 20  1  0  0  0  0
  9  7  1  0  0  0  0
  9 30  1  0  0  0  0
 10  9  2  0  0  0  0
 11 21  1  0  0  0  0
 11 12  2  0  0  0  0
 12 22  1  0  0  0  0
 14  3  1  0  0  0  0
 15  4  1  0  0  0  0
 16  6  1  0  0  0  0
 17  6  1  0  0  0  0
 23 35  1  0  0  0  0
 24 23  1  0  0  0  0
 25 24  1  0  0  0  0
 25 36  1  0  0  0  0
 26 25  2  0  0  0  0
 27 33  2  0  0  0  0
 27 26  1  0  0  0  0
 28 27  1  0  0  0  0
 29 40  1  6  0  0  0
 29 31  1  0  0  0  0
 29 30  1  0  0  0  0
 29 28  1  0  0  0  0
 30 41  1  0  0  0  0
 31 32  2  0  0  0  0
 33 34  1  0  0  0  0
 34 43  1  0  0  0  0
 34 24  2  0  0  0  0
 37 26  1  0  0  0  0
 38 28  1  0  0  0  0
 39 28  1  0  0  0  0
 42 33  1  0  0  0  0
 44 51  1  0  0  0  0
 44 45  1  0  0  0  0
 45 53  1  1  0  0  0
 45 47  1  0  0  0  0
 46 45  1  0  0  0  0
 46 31  1  0  0  0  0
 47 48  2  0  0  0  0
 47 49  1  0  0  0  0
 50 44  1  0  0  0  0
 52 44  1  0  0  0  0
 54 46  1  0  0  0  0
M  END
$$$$
