YYE.pdb
 OpenBabel07022419233D

 60 61  0  0  1  0  0  0  0  0999 V2000
    4.1020   -2.4090    4.8950 O   0  0  0  0  0  0  0  0  0  0  0  0
    3.9830   -1.7450    3.6730 C   0  0  0  0  0  0  0  0  0  0  0  0
    3.1030   -2.1860    2.6960 C   0  0  0  0  0  0  0  0  0  0  0  0
    3.0150   -1.5020    1.5050 C   0  0  0  0  0  0  0  0  0  0  0  0
    3.7660   -0.3850    1.2230 C   0  0  0  0  0  0  0  0  0  0  0  0
    3.6090    0.2850   -0.0690 C   0  0  0  0  0  0  0  0  0  0  0  0
    2.5520    1.3660   -0.0520 C   0  0  2  0  0  0  0  0  0  0  0  0
    2.8600    2.3890    0.9180 N   0  0  0  0  0  0  0  0  0  0  0  0
    1.2020    0.7940    0.1410 C   0  0  0  0  0  0  0  0  0  0  0  0
    0.4700    1.1150    1.1360 O   0  0  0  0  0  0  0  0  0  0  0  0
    4.6420    0.0410    2.2170 C   0  0  0  0  0  0  0  0  0  0  0  0
    4.7510   -0.6260    3.4240 C   0  0  0  0  0  0  0  0  0  0  0  0
    4.1150   -1.9210    5.7750 H   0  0  0  0  0  0  0  0  0  0  0  0
    2.5090   -3.0740    2.9260 H   0  0  0  0  0  0  0  0  0  0  0  0
    2.3180   -1.8790    0.7710 H   0  0  0  0  0  0  0  0  0  0  0  0
    3.3270   -0.4450   -0.8720 H   0  0  0  0  0  0  0  0  0  0  0  0
    4.5860    0.7160   -0.3660 H   0  0  0  0  0  0  0  0  0  0  0  0
    2.5620    1.8530   -1.0550 H   0  0  0  0  0  0  0  0  0  0  0  0
    2.2450    3.2090    0.7890 H   0  0  0  0  0  0  0  0  0  0  0  0
    3.8510    2.6530    0.8130 H   0  0  0  0  0  0  0  0  0  0  0  0
    5.2470    0.9050    2.0450 H   0  0  0  0  0  0  0  0  0  0  0  0
    5.4630   -0.2400    4.1690 H   0  0  0  0  0  0  0  0  0  0  0  0
   -1.9170    5.5170   -1.4560 O   0  0  0  0  0  0  0  0  0  0  0  0
   -1.8940    4.1270   -1.4540 C   0  0  0  0  0  0  0  0  0  0  0  0
   -0.9800    3.4640   -2.2610 C   0  0  0  0  0  0  0  0  0  0  0  0
   -0.9200    2.0860   -2.2920 C   0  0  0  0  0  0  0  0  0  0  0  0
   -1.7770    1.3310   -1.5120 C   0  0  0  0  0  0  0  0  0  0  0  0
   -1.6860   -0.1340   -1.5680 C   0  0  0  0  0  0  0  0  0  0  0  0
   -0.7080   -0.6820   -0.5370 C   0  0  2  0  0  0  0  0  0  0  0  0
    0.6260   -0.1470   -0.7640 N   0  0  0  0  0  0  0  0  0  0  0  0
   -0.7190   -2.1620   -0.5540 C   0  0  0  0  0  0  0  0  0  0  0  0
    0.3020   -2.8770   -0.7680 O   0  0  0  0  0  0  0  0  0  0  0  0
   -2.6720    2.0190   -0.7220 C   0  0  0  0  0  0  0  0  0  0  0  0
   -2.7470    3.3950   -0.6780 C   0  0  0  0  0  0  0  0  0  0  0  0
   -2.5930    6.0040   -0.9000 H   0  0  0  0  0  0  0  0  0  0  0  0
   -0.3070    4.0540   -2.8730 H   0  0  0  0  0  0  0  0  0  0  0  0
   -0.1950    1.6260   -2.9340 H   0  0  0  0  0  0  0  0  0  0  0  0
   -2.6600   -0.6480   -1.4450 H   0  0  0  0  0  0  0  0  0  0  0  0
   -1.2990   -0.4430   -2.5620 H   0  0  0  0  0  0  0  0  0  0  0  0
   -1.0700   -0.2960    0.4330 H   0  0  0  0  0  0  0  0  0  0  0  0
    1.1800   -0.4480   -1.5990 H   0  0  0  0  0  0  0  0  0  0  0  0
   -3.3590    1.4610   -0.0980 H   0  0  0  0  0  0  0  0  0  0  0  0
   -3.4580    3.9060   -0.0490 H   0  0  0  0  0  0  0  0  0  0  0  0
   -1.9350   -2.8910   -0.3180 N   0  0  0  0  0  0  0  0  0  0  0  0
   -2.0030   -4.3260   -0.3230 C   0  0  1  0  0  0  0  0  0  0  0  0
   -1.9730   -5.0150    0.9890 C   0  0  0  0  0  0  0  0  0  0  0  0
   -3.0070   -4.7190    1.9900 C   0  0  0  0  0  0  0  0  0  0  0  0
   -3.0610   -3.3750    2.5520 C   0  0  0  0  0  0  0  0  0  0  0  0
   -2.1540   -2.5370    2.3360 O   0  0  0  0  0  0  0  0  0  0  0  0
   -3.0810   -4.7780   -1.2160 C   0  0  0  0  0  0  0  0  0  0  0  0
   -3.7790   -3.9350   -1.8340 O   0  0  0  0  0  0  0  0  0  0  0  0
   -4.1070   -2.9210    3.3590 O   0  0  0  0  0  0  0  0  0  0  0  0
   -3.3820   -6.1160   -1.4220 O   0  0  0  0  0  0  0  0  0  0  0  0
   -2.8130   -2.3040   -0.1650 H   0  0  0  0  0  0  0  0  0  0  0  0
   -1.0330   -4.6320   -0.8750 H   0  0  0  0  0  0  0  0  0  0  0  0
   -2.0430   -6.1230    0.7660 H   0  0  0  0  0  0  0  0  0  0  0  0
   -0.9760   -4.9260    1.5040 H   0  0  0  0  0  0  0  0  0  0  0  0
   -2.7950   -5.4070    2.8720 H   0  0  0  0  0  0  0  0  0  0  0  0
   -4.0410   -5.0830    1.6800 H   0  0  0  0  0  0  0  0  0  0  0  0
   -3.9500   -2.2890    4.1480 H   0  0  0  0  0  0  0  0  0  0  0  0
  1 13  1  0  0  0  0
  2  1  1  0  0  0  0
  3 14  1  0  0  0  0
  3  2  2  0  0  0  0
  4  3  1  0  0  0  0
  5  4  2  0  0  0  0
  5 11  1  0  0  0  0
  6  7  1  0  0  0  0
  6  5  1  0  0  0  0
  7 18  1  6  0  0  0
  7  9  1  0  0  0  0
  7  8  1  0  0  0  0
  9 10  2  0  0  0  0
 11 12  2  0  0  0  0
 12  2  1  0  0  0  0
 12 22  1  0  0  0  0
 15  4  1  0  0  0  0
 16  6  1  0  0  0  0
 17  6  1  0  0  0  0
 19  8  1  0  0  0  0
 20  8  1  0  0  0  0
 21 11  1  0  0  0  0
 23 24  1  0  0  0  0
 23 35  1  0  0  0  0
 24 34  1  0  0  0  0
 25 24  2  0  0  0  0
 26 25  1  0  0  0  0
 26 27  2  0  0  0  0
 27 33  1  0  0  0  0
 28 27  1  0  0  0  0
 28 38  1  0  0  0  0
 28 29  1  0  0  0  0
 29 40  1  1  0  0  0
 30 29  1  0  0  0  0
 30  9  1  0  0  0  0
 31 29  1  0  0  0  0
 31 44  1  0  0  0  0
 32 31  2  0  0  0  0
 33 34  2  0  0  0  0
 33 42  1  0  0  0  0
 34 43  1  0  0  0  0
 36 25  1  0  0  0  0
 37 26  1  0  0  0  0
 39 28  1  0  0  0  0
 41 30  1  0  0  0  0
 44 54  1  0  0  0  0
 45 55  1  6  0  0  0
 45 44  1  0  0  0  0
 45 46  1  0  0  0  0
 46 57  1  0  0  0  0
 46 47  1  0  0  0  0
 47 48  1  0  0  0  0
 47 58  1  0  0  0  0
 48 52  1  0  0  0  0
 49 48  2  0  0  0  0
 50 45  1  0  0  0  0
 51 50  2  0  0  0  0
 52 60  1  0  0  0  0
 53 50  1  0  0  0  0
 56 46  1  0  0  0  0
 59 47  1  0  0  0  0
M  END
$$$$
