YYF.pdb
 OpenBabel07022419233D

 64 66  0  0  1  0  0  0  0  0999 V2000
    4.2070    1.0300    5.5690 O   0  0  0  0  0  0  0  0  0  0  0  0
    4.0840    1.2700    4.2020 C   0  0  0  0  0  0  0  0  0  0  0  0
    3.5470    0.2690    3.4270 C   0  0  0  0  0  0  0  0  0  0  0  0
    3.3990    0.4490    2.0540 C   0  0  0  0  0  0  0  0  0  0  0  0
    3.7800    1.6210    1.4410 C   0  0  0  0  0  0  0  0  0  0  0  0
    3.6000    1.7580   -0.0040 C   0  0  0  0  0  0  0  0  0  0  0  0
    2.2920    2.3330   -0.4250 C   0  0  2  0  0  0  0  0  0  0  0  0
    2.0730    3.6690    0.1140 N   0  0  0  0  0  0  0  0  0  0  0  0
    1.1230    1.4620   -0.2290 C   0  0  0  0  0  0  0  0  0  0  0  0
    0.1330    1.9390    0.4130 O   0  0  0  0  0  0  0  0  0  0  0  0
    4.3160    2.6160    2.2270 C   0  0  0  0  0  0  0  0  0  0  0  0
    4.4720    2.4510    3.6070 C   0  0  0  0  0  0  0  0  0  0  0  0
    3.4400    1.3330    6.1720 H   0  0  0  0  0  0  0  0  0  0  0  0
    3.2350   -0.6690    3.8720 H   0  0  0  0  0  0  0  0  0  0  0  0
    2.9710   -0.3790    1.5070 H   0  0  0  0  0  0  0  0  0  0  0  0
    3.6680    0.7350   -0.4650 H   0  0  0  0  0  0  0  0  0  0  0  0
    4.4040    2.3440   -0.4940 H   0  0  0  0  0  0  0  0  0  0  0  0
    2.3630    2.4950   -1.5420 H   0  0  0  0  0  0  0  0  0  0  0  0
    1.3200    4.1700   -0.3820 H   0  0  0  0  0  0  0  0  0  0  0  0
    2.9840    4.1890    0.0380 H   0  0  0  0  0  0  0  0  0  0  0  0
    4.6140    3.5310    1.7500 H   0  0  0  0  0  0  0  0  0  0  0  0
    4.8880    3.2170    4.2400 H   0  0  0  0  0  0  0  0  0  0  0  0
   -2.4230    4.0710   -3.8350 O   0  0  0  0  0  0  0  0  0  0  0  0
   -2.0300    2.8400   -3.3470 C   0  0  0  0  0  0  0  0  0  0  0  0
   -2.8840    2.1370   -2.5310 C   0  0  0  0  0  0  0  0  0  0  0  0
   -2.4580    0.9120   -2.0630 C   0  0  0  0  0  0  0  0  0  0  0  0
   -1.2290    0.3690   -2.3750 C   0  0  0  0  0  0  0  0  0  0  0  0
   -0.8210   -0.9580   -1.8420 C   0  0  0  0  0  0  0  0  0  0  0  0
   -0.1180   -0.7090   -0.5170 C   0  0  2  0  0  0  0  0  0  0  0  0
    1.0400    0.1290   -0.7150 N   0  0  0  0  0  0  0  0  0  0  0  0
    0.1730   -1.9740    0.1890 C   0  0  0  0  0  0  0  0  0  0  0  0
    1.3030   -2.3360    0.5870 O   0  0  0  0  0  0  0  0  0  0  0  0
   -0.3710    1.0930   -3.2050 C   0  0  0  0  0  0  0  0  0  0  0  0
   -0.7900    2.3220   -3.6780 C   0  0  0  0  0  0  0  0  0  0  0  0
   -2.2300    4.8880   -3.2390 H   0  0  0  0  0  0  0  0  0  0  0  0
   -3.8660    2.5240   -2.2560 H   0  0  0  0  0  0  0  0  0  0  0  0
   -3.1410    0.3690   -1.4210 H   0  0  0  0  0  0  0  0  0  0  0  0
   -0.1420   -1.4570   -2.5630 H   0  0  0  0  0  0  0  0  0  0  0  0
   -1.7280   -1.5510   -1.6890 H   0  0  0  0  0  0  0  0  0  0  0  0
   -0.8510   -0.1440    0.0960 H   0  0  0  0  0  0  0  0  0  0  0  0
    1.8870   -0.2230   -1.2400 H   0  0  0  0  0  0  0  0  0  0  0  0
    0.5720    0.6480   -3.4280 H   0  0  0  0  0  0  0  0  0  0  0  0
   -0.1340    2.8840   -4.3180 H   0  0  0  0  0  0  0  0  0  0  0  0
   -0.8990   -2.8870    0.4590 N   0  0  0  0  0  0  0  0  0  0  0  0
   -0.6540   -4.1370    1.1490 C   0  0  1  0  0  0  0  0  0  0  0  0
   -1.4780   -4.1650    2.4400 C   0  0  0  0  0  0  0  0  0  0  0  0
   -2.9210   -4.0480    2.1170 C   0  0  0  0  0  0  0  0  0  0  0  0
   -3.7440   -5.1290    1.8890 C   0  0  0  0  0  0  0  0  0  0  0  0
   -5.0800   -4.9460    1.5900 C   0  0  0  0  0  0  0  0  0  0  0  0
   -5.6530   -3.6950    1.5060 C   0  0  0  0  0  0  0  0  0  0  0  0
   -4.8280   -2.6030    1.7350 C   0  0  0  0  0  0  0  0  0  0  0  0
   -3.5040   -2.7880    2.0300 C   0  0  0  0  0  0  0  0  0  0  0  0
   -1.0450   -5.3160    0.3390 C   0  0  0  0  0  0  0  0  0  0  0  0
   -1.5450   -5.2420   -0.8120 O   0  0  0  0  0  0  0  0  0  0  0  0
   -0.8500   -6.5790    0.8740 O   0  0  0  0  0  0  0  0  0  0  0  0
   -1.8740   -2.6420    0.1500 H   0  0  0  0  0  0  0  0  0  0  0  0
    0.4280   -4.2020    1.3770 H   0  0  0  0  0  0  0  0  0  0  0  0
   -1.1820   -3.3530    3.1270 H   0  0  0  0  0  0  0  0  0  0  0  0
   -1.3030   -5.1260    2.9660 H   0  0  0  0  0  0  0  0  0  0  0  0
   -3.3330   -6.1500    1.9470 H   0  0  0  0  0  0  0  0  0  0  0  0
   -5.7240   -5.8160    1.4110 H   0  0  0  0  0  0  0  0  0  0  0  0
   -6.7070   -3.5570    1.2700 H   0  0  0  0  0  0  0  0  0  0  0  0
   -5.2610   -1.6040    1.6730 H   0  0  0  0  0  0  0  0  0  0  0  0
   -2.9120   -1.8850    2.1990 H   0  0  0  0  0  0  0  0  0  0  0  0
  1 13  1  0  0  0  0
  2  1  1  0  0  0  0
  3 14  1  0  0  0  0
  3  2  2  0  0  0  0
  4  3  1  0  0  0  0
  5  4  2  0  0  0  0
  5 11  1  0  0  0  0
  6  5  1  0  0  0  0
  7 18  1  6  0  0  0
  7  9  1  0  0  0  0
  7  6  1  0  0  0  0
  7  8  1  0  0  0  0
  9 10  2  0  0  0  0
 11 12  2  0  0  0  0
 12  2  1  0  0  0  0
 12 22  1  0  0  0  0
 15  4  1  0  0  0  0
 16  6  1  0  0  0  0
 17  6  1  0  0  0  0
 19  8  1  0  0  0  0
 20  8  1  0  0  0  0
 21 11  1  0  0  0  0
 23 24  1  0  0  0  0
 23 35  1  0  0  0  0
 24 25  1  0  0  0  0
 25 36  1  0  0  0  0
 25 26  2  0  0  0  0
 26 37  1  0  0  0  0
 27 26  1  0  0  0  0
 27 28  1  0  0  0  0
 28 39  1  0  0  0  0
 28 29  1  0  0  0  0
 29 40  1  1  0  0  0
 29 31  1  0  0  0  0
 30 29  1  0  0  0  0
 30  9  1  0  0  0  0
 31 44  1  0  0  0  0
 31 32  2  0  0  0  0
 33 27  2  0  0  0  0
 34 24  2  0  0  0  0
 34 33  1  0  0  0  0
 38 28  1  0  0  0  0
 41 30  1  0  0  0  0
 42 33  1  0  0  0  0
 43 34  1  0  0  0  0
 44 45  1  0  0  0  0
 45 57  1  1  0  0  0
 45 46  1  0  0  0  0
 46 59  1  0  0  0  0
 46 58  1  0  0  0  0
 47 46  1  0  0  0  0
 48 60  1  0  0  0  0
 48 47  2  0  0  0  0
 49 48  1  0  0  0  0
 50 49  2  0  0  0  0
 50 51  1  0  0  0  0
 51 52  2  0  0  0  0
 52 47  1  0  0  0  0
 52 64  1  0  0  0  0
 53 55  1  0  0  0  0
 53 45  1  0  0  0  0
 54 53  2  0  0  0  0
 56 44  1  0  0  0  0
 61 49  1  0  0  0  0
 62 50  1  0  0  0  0
 63 51  1  0  0  0  0
M  END
$$$$
