YYH.pdb
 OpenBabel07022419233D

 61 63  0  0  1  0  0  0  0  0999 V2000
    1.5990    2.0570    6.0780 O   0  0  0  0  0  0  0  0  0  0  0  0
    2.0740    1.0500    5.2190 C   0  0  0  0  0  0  0  0  0  0  0  0
    1.3520   -0.1160    5.0790 C   0  0  0  0  0  0  0  0  0  0  0  0
    1.8360   -1.0900    4.2320 C   0  0  0  0  0  0  0  0  0  0  0  0
    3.0050   -0.9460    3.5220 C   0  0  0  0  0  0  0  0  0  0  0  0
    3.4660   -2.0170    2.6390 C   0  0  0  0  0  0  0  0  0  0  0  0
    2.9680   -1.9230    1.2270 C   0  0  2  0  0  0  0  0  0  0  0  0
    3.3690   -0.7010    0.5630 N   0  0  0  0  0  0  0  0  0  0  0  0
    1.4940   -2.0800    1.1180 C   0  0  0  0  0  0  0  0  0  0  0  0
    0.9390   -3.0730    1.6360 O   0  0  0  0  0  0  0  0  0  0  0  0
    3.7190    0.2210    3.6660 C   0  0  0  0  0  0  0  0  0  0  0  0
    3.2420    1.1990    4.5120 C   0  0  0  0  0  0  0  0  0  0  0  0
    1.1720    1.7920    6.9790 H   0  0  0  0  0  0  0  0  0  0  0  0
    0.4280   -0.2330    5.6390 H   0  0  0  0  0  0  0  0  0  0  0  0
    1.2240   -2.0040    4.1540 H   0  0  0  0  0  0  0  0  0  0  0  0
    4.5720   -2.0250    2.5980 H   0  0  0  0  0  0  0  0  0  0  0  0
    3.1770   -3.0360    3.0080 H   0  0  0  0  0  0  0  0  0  0  0  0
    3.4940   -2.7500    0.6620 H   0  0  0  0  0  0  0  0  0  0  0  0
    3.4400   -0.8320   -0.4810 H   0  0  0  0  0  0  0  0  0  0  0  0
    4.2940   -0.3560    0.8820 H   0  0  0  0  0  0  0  0  0  0  0  0
    4.6560    0.4000    3.1310 H   0  0  0  0  0  0  0  0  0  0  0  0
    3.8160    2.1330    4.6260 H   0  0  0  0  0  0  0  0  0  0  0  0
    0.7220    5.0660   -0.0900 O   0  0  0  0  0  0  0  0  0  0  0  0
    0.2230    3.8030    0.2070 C   0  0  0  0  0  0  0  0  0  0  0  0
    0.8470    2.9630    1.1040 C   0  0  0  0  0  0  0  0  0  0  0  0
    0.3330    1.7120    1.3830 C   0  0  0  0  0  0  0  0  0  0  0  0
   -0.8390    1.2460    0.7690 C   0  0  0  0  0  0  0  0  0  0  0  0
   -1.3100   -0.1050    1.1380 C   0  0  0  0  0  0  0  0  0  0  0  0
   -0.7350   -1.2080    0.2900 C   0  0  2  0  0  0  0  0  0  0  0  0
    0.7030   -1.1330    0.4430 N   0  0  0  0  0  0  0  0  0  0  0  0
   -1.1980   -1.2880   -1.0770 C   0  0  0  0  0  0  0  0  0  0  0  0
   -0.3930   -1.1900   -2.0400 O   0  0  0  0  0  0  0  0  0  0  0  0
   -1.4220    2.1010   -0.1060 C   0  0  0  0  0  0  0  0  0  0  0  0
   -0.9340    3.3520   -0.4040 C   0  0  0  0  0  0  0  0  0  0  0  0
    0.4900    5.5070   -0.9810 H   0  0  0  0  0  0  0  0  0  0  0  0
    1.7680    3.2930    1.6050 H   0  0  0  0  0  0  0  0  0  0  0  0
    0.8290    1.0510    2.0930 H   0  0  0  0  0  0  0  0  0  0  0  0
   -2.4330   -0.1450    1.1650 H   0  0  0  0  0  0  0  0  0  0  0  0
   -1.0100   -0.2800    2.1930 H   0  0  0  0  0  0  0  0  0  0  0  0
   -1.0230   -2.1650    0.8300 H   0  0  0  0  0  0  0  0  0  0  0  0
    1.1860   -0.3130    0.0190 H   0  0  0  0  0  0  0  0  0  0  0  0
   -2.3290    1.7960   -0.6060 H   0  0  0  0  0  0  0  0  0  0  0  0
   -1.4190    4.0170   -1.1070 H   0  0  0  0  0  0  0  0  0  0  0  0
   -2.5630   -1.4860   -1.4180 N   0  0  0  0  0  0  0  0  0  0  0  0
   -3.0660   -1.5850   -2.7730 C   0  0  1  0  0  0  0  0  0  0  0  0
   -3.8980   -2.7950   -2.9640 C   0  0  0  0  0  0  0  0  0  0  0  0
   -3.2580   -4.0970   -2.7540 C   0  0  0  0  0  0  0  0  0  0  0  0
   -2.0000   -4.4850   -2.4440 C   0  0  0  0  0  0  0  0  0  0  0  0
   -1.9640   -5.8240   -2.3940 N   0  0  0  0  0  0  0  0  0  0  0  0
   -3.1900   -6.2720   -2.6710 C   0  0  0  0  0  0  0  0  0  0  0  0
   -4.0050   -5.2420   -2.8960 N   0  0  0  0  0  0  0  0  0  0  0  0
   -3.9260   -0.3840   -3.1150 C   0  0  0  0  0  0  0  0  0  0  0  0
   -4.4100   -0.2970   -4.2680 O   0  0  0  0  0  0  0  0  0  0  0  0
   -4.1620    0.5820   -2.1630 O   0  0  0  0  0  0  0  0  0  0  0  0
   -3.2960   -1.5710   -0.6730 H   0  0  0  0  0  0  0  0  0  0  0  0
   -2.2170   -1.5930   -3.5140 H   0  0  0  0  0  0  0  0  0  0  0  0
   -4.7550   -2.7120   -2.2240 H   0  0  0  0  0  0  0  0  0  0  0  0
   -4.4030   -2.8160   -3.9600 H   0  0  0  0  0  0  0  0  0  0  0  0
   -1.1600   -3.8100   -2.2740 H   0  0  0  0  0  0  0  0  0  0  0  0
   -1.1100   -6.3960   -2.1730 H   0  0  0  0  0  0  0  0  0  0  0  0
   -3.4700   -7.3360   -2.7040 H   0  0  0  0  0  0  0  0  0  0  0  0
  1 13  1  0  0  0  0
  2  1  1  0  0  0  0
  3  2  1  0  0  0  0
  3 14  1  0  0  0  0
  4  3  2  0  0  0  0
  5 11  2  0  0  0  0
  5  4  1  0  0  0  0
  6 17  1  0  0  0  0
  6  5  1  0  0  0  0
  7 18  1  6  0  0  0
  7  6  1  0  0  0  0
  8 20  1  0  0  0  0
  8  7  1  0  0  0  0
  9  7  1  0  0  0  0
  9 10  2  0  0  0  0
 11 12  1  0  0  0  0
 12 22  1  0  0  0  0
 12  2  2  0  0  0  0
 15  4  1  0  0  0  0
 16  6  1  0  0  0  0
 19  8  1  0  0  0  0
 21 11  1  0  0  0  0
 23 24  1  0  0  0  0
 24 25  1  0  0  0  0
 25 26  2  0  0  0  0
 25 36  1  0  0  0  0
 26 37  1  0  0  0  0
 27 28  1  0  0  0  0
 27 26  1  0  0  0  0
 28 38  1  0  0  0  0
 28 39  1  0  0  0  0
 29 30  1  0  0  0  0
 29 40  1  1  0  0  0
 29 28  1  0  0  0  0
 30  9  1  0  0  0  0
 31 29  1  0  0  0  0
 32 31  2  0  0  0  0
 33 27  2  0  0  0  0
 34 33  1  0  0  0  0
 34 24  2  0  0  0  0
 35 23  1  0  0  0  0
 41 30  1  0  0  0  0
 42 33  1  0  0  0  0
 43 34  1  0  0  0  0
 44 31  1  0  0  0  0
 44 55  1  0  0  0  0
 45 56  1  6  0  0  0
 45 44  1  0  0  0  0
 46 45  1  0  0  0  0
 46 47  1  0  0  0  0
 46 57  1  0  0  0  0
 47 48  2  0  0  0  0
 48 49  1  0  0  0  0
 48 59  1  0  0  0  0
 49 60  1  0  0  0  0
 50 49  1  0  0  0  0
 51 47  1  0  0  0  0
 51 50  2  0  0  0  0
 52 45  1  0  0  0  0
 52 54  1  0  0  0  0
 53 52  2  0  0  0  0
 58 46  1  0  0  0  0
 61 50  1  0  0  0  0
M  END
$$$$
