YYI.pdb
 OpenBabel07022419233D

 63 64  0  0  1  0  0  0  0  0999 V2000
    0.4170    3.4870    6.4350 O   0  0  0  0  0  0  0  0  0  0  0  0
    0.8630    2.4810    5.5730 C   0  0  0  0  0  0  0  0  0  0  0  0
    0.9900    1.1870    5.9830 C   0  0  0  0  0  0  0  0  0  0  0  0
    1.4270    0.1990    5.1410 C   0  0  0  0  0  0  0  0  0  0  0  0
    1.7630    0.4820    3.8120 C   0  0  0  0  0  0  0  0  0  0  0  0
    2.2380   -0.6040    2.9620 C   0  0  0  0  0  0  0  0  0  0  0  0
    1.0900   -1.3330    2.3130 C   0  0  2  0  0  0  0  0  0  0  0  0
    1.6160   -2.4160    1.4660 N   0  0  0  0  0  0  0  0  0  0  0  0
    0.2740   -0.4090    1.5170 C   0  0  0  0  0  0  0  0  0  0  0  0
   -0.3540    0.5420    2.0300 O   0  0  0  0  0  0  0  0  0  0  0  0
    1.6260    1.7940    3.4220 C   0  0  0  0  0  0  0  0  0  0  0  0
    1.1850    2.7870    4.2770 C   0  0  0  0  0  0  0  0  0  0  0  0
    0.2260    3.2970    7.4050 H   0  0  0  0  0  0  0  0  0  0  0  0
    0.7270    0.9670    7.0230 H   0  0  0  0  0  0  0  0  0  0  0  0
    1.5000   -0.8060    5.5460 H   0  0  0  0  0  0  0  0  0  0  0  0
    2.8440   -1.3590    3.5100 H   0  0  0  0  0  0  0  0  0  0  0  0
    2.9060   -0.1680    2.1770 H   0  0  0  0  0  0  0  0  0  0  0  0
    0.4990   -1.8600    3.1030 H   0  0  0  0  0  0  0  0  0  0  0  0
    2.3690   -2.0830    0.8500 H   0  0  0  0  0  0  0  0  0  0  0  0
    1.9320   -3.1720    2.1190 H   0  0  0  0  0  0  0  0  0  0  0  0
    1.8830    2.0610    2.3890 H   0  0  0  0  0  0  0  0  0  0  0  0
    1.0980    3.8020    3.9100 H   0  0  0  0  0  0  0  0  0  0  0  0
    4.6600    3.9780   -0.5900 O   0  0  0  0  0  0  0  0  0  0  0  0
    3.5290    3.2280   -0.9100 C   0  0  0  0  0  0  0  0  0  0  0  0
    2.2870    3.8500   -1.0170 C   0  0  0  0  0  0  0  0  0  0  0  0
    1.1870    3.1070   -1.3310 C   0  0  0  0  0  0  0  0  0  0  0  0
    1.2540    1.7290   -1.5520 C   0  0  0  0  0  0  0  0  0  0  0  0
    0.0960    0.9130   -1.8880 C   0  0  0  0  0  0  0  0  0  0  0  0
   -0.6370    0.3300   -0.7310 C   0  0  2  0  0  0  0  0  0  0  0  0
    0.1390   -0.5330    0.0970 N   0  0  0  0  0  0  0  0  0  0  0  0
   -1.8090   -0.4330   -1.2600 C   0  0  0  0  0  0  0  0  0  0  0  0
   -2.6070    0.1740   -2.0200 O   0  0  0  0  0  0  0  0  0  0  0  0
    2.4870    1.1160   -1.4450 C   0  0  0  0  0  0  0  0  0  0  0  0
    3.6130    1.8660   -1.1260 C   0  0  0  0  0  0  0  0  0  0  0  0
    4.6940    4.5460    0.2470 H   0  0  0  0  0  0  0  0  0  0  0  0
    2.1670    4.9030   -0.8590 H   0  0  0  0  0  0  0  0  0  0  0  0
    0.1800    3.5220   -1.4330 H   0  0  0  0  0  0  0  0  0  0  0  0
    0.3380    0.0930   -2.5960 H   0  0  0  0  0  0  0  0  0  0  0  0
   -0.6280    1.5710   -2.4480 H   0  0  0  0  0  0  0  0  0  0  0  0
   -1.0910    1.1110   -0.0620 H   0  0  0  0  0  0  0  0  0  0  0  0
    0.6560   -1.3210   -0.3450 H   0  0  0  0  0  0  0  0  0  0  0  0
    2.6170    0.0470   -1.6040 H   0  0  0  0  0  0  0  0  0  0  0  0
    4.5990    1.4240   -1.0320 H   0  0  0  0  0  0  0  0  0  0  0  0
   -4.0100   -5.7020   -2.1660 C   0  0  0  0  0  0  0  0  0  0  0  0
   -3.4880   -4.5810   -2.9970 C   0  0  0  0  0  0  0  0  0  0  0  0
   -2.6040   -3.6090   -2.3170 C   0  0  2  0  0  0  0  0  0  0  0  0
   -1.4020   -4.3070   -1.7140 C   0  0  0  0  0  0  0  0  0  0  0  0
   -3.2070   -2.5400   -1.4680 C   0  0  2  0  0  0  0  0  0  0  0  0
   -2.0550   -1.7760   -0.9530 N   0  0  0  0  0  0  0  0  0  0  0  0
   -4.0130   -3.0760   -0.3750 C   0  0  0  0  0  0  0  0  0  0  0  0
   -3.5230   -2.9750    0.8080 O   0  0  0  0  0  0  0  0  0  0  0  0
   -5.2420   -3.6740   -0.4380 O   0  0  0  0  0  0  0  0  0  0  0  0
   -3.6550   -5.6750   -1.1330 H   0  0  0  0  0  0  0  0  0  0  0  0
   -5.1170   -5.6810   -2.1660 H   0  0  0  0  0  0  0  0  0  0  0  0
   -3.6530   -6.6710   -2.6310 H   0  0  0  0  0  0  0  0  0  0  0  0
   -4.3410   -4.0090   -3.4920 H   0  0  0  0  0  0  0  0  0  0  0  0
   -2.8910   -5.0080   -3.8640 H   0  0  0  0  0  0  0  0  0  0  0  0
   -2.0870   -3.0560   -3.2290 H   0  0  0  0  0  0  0  0  0  0  0  0
   -0.5590   -3.5900   -1.6540 H   0  0  0  0  0  0  0  0  0  0  0  0
   -1.1360   -5.1390   -2.3660 H   0  0  0  0  0  0  0  0  0  0  0  0
   -1.6270   -4.7160   -0.7070 H   0  0  0  0  0  0  0  0  0  0  0  0
   -3.8170   -1.8620   -2.1320 H   0  0  0  0  0  0  0  0  0  0  0  0
   -1.3870   -2.2660   -0.3230 H   0  0  0  0  0  0  0  0  0  0  0  0
  1 13  1  0  0  0  0
  2  3  1  0  0  0  0
  2  1  1  0  0  0  0
  3 14  1  0  0  0  0
  4 15  1  0  0  0  0
  4  3  2  0  0  0  0
  5  4  1  0  0  0  0
  6 16  1  0  0  0  0
  6  5  1  0  0  0  0
  7  6  1  0  0  0  0
  7 18  1  1  0  0  0
  8 20  1  0  0  0  0
  8  7  1  0  0  0  0
  9 10  2  0  0  0  0
  9  7  1  0  0  0  0
 11  5  2  0  0  0  0
 11 12  1  0  0  0  0
 12  2  2  0  0  0  0
 17  6  1  0  0  0  0
 19  8  1  0  0  0  0
 21 11  1  0  0  0  0
 22 12  1  0  0  0  0
 23 35  1  0  0  0  0
 24 23  1  0  0  0  0
 25 24  1  0  0  0  0
 25 36  1  0  0  0  0
 26 25  2  0  0  0  0
 27 33  2  0  0  0  0
 27 26  1  0  0  0  0
 28 27  1  0  0  0  0
 28 29  1  0  0  0  0
 29 40  1  1  0  0  0
 29 30  1  0  0  0  0
 30  9  1  0  0  0  0
 31 49  1  0  0  0  0
 31 29  1  0  0  0  0
 32 31  2  0  0  0  0
 33 34  1  0  0  0  0
 34 43  1  0  0  0  0
 34 24  2  0  0  0  0
 37 26  1  0  0  0  0
 38 28  1  0  0  0  0
 39 28  1  0  0  0  0
 41 30  1  0  0  0  0
 42 33  1  0  0  0  0
 44 54  1  0  0  0  0
 44 53  1  0  0  0  0
 45 46  1  0  0  0  0
 45 44  1  0  0  0  0
 46 58  1  6  0  0  0
 46 47  1  0  0  0  0
 46 48  1  0  0  0  0
 47 59  1  0  0  0  0
 47 61  1  0  0  0  0
 48 62  1  6  0  0  0
 48 49  1  0  0  0  0
 48 50  1  0  0  0  0
 49 63  1  0  0  0  0
 50 51  1  0  0  0  0
 52 50  2  0  0  0  0
 55 44  1  0  0  0  0
 56 45  1  0  0  0  0
 57 45  1  0  0  0  0
 60 47  1  0  0  0  0
M  END
$$$$
