YYL.pdb
 OpenBabel07022419233D

 63 64  0  0  1  0  0  0  0  0999 V2000
    0.7500    4.3720    5.9190 O   0  0  0  0  0  0  0  0  0  0  0  0
    1.1570    3.2740    5.1820 C   0  0  0  0  0  0  0  0  0  0  0  0
    1.3640    2.0520    5.8110 C   0  0  0  0  0  0  0  0  0  0  0  0
    1.7650    0.9740    5.0810 C   0  0  0  0  0  0  0  0  0  0  0  0
    1.9780    1.0470    3.7150 C   0  0  0  0  0  0  0  0  0  0  0  0
    2.4200   -0.1780    3.0260 C   0  0  0  0  0  0  0  0  0  0  0  0
    1.2890   -1.0650    2.5600 C   0  0  2  0  0  0  0  0  0  0  0  0
    1.8210   -2.2460    1.8940 N   0  0  0  0  0  0  0  0  0  0  0  0
    0.3490   -0.3260    1.7030 C   0  0  0  0  0  0  0  0  0  0  0  0
   -0.2390    0.6870    2.1320 O   0  0  0  0  0  0  0  0  0  0  0  0
    1.7660    2.2670    3.1160 C   0  0  0  0  0  0  0  0  0  0  0  0
    1.3650    3.3560    3.8320 C   0  0  0  0  0  0  0  0  0  0  0  0
    0.6890    4.3260    6.9270 H   0  0  0  0  0  0  0  0  0  0  0  0
    1.2020    1.9740    6.8840 H   0  0  0  0  0  0  0  0  0  0  0  0
    1.9160    0.0420    5.5980 H   0  0  0  0  0  0  0  0  0  0  0  0
    3.1730   -0.7480    3.6160 H   0  0  0  0  0  0  0  0  0  0  0  0
    2.9940    0.1710    2.1190 H   0  0  0  0  0  0  0  0  0  0  0  0
    0.7960   -1.4610    3.4960 H   0  0  0  0  0  0  0  0  0  0  0  0
    2.7020   -2.5780    2.2920 H   0  0  0  0  0  0  0  0  0  0  0  0
    1.0940   -2.9450    1.7180 H   0  0  0  0  0  0  0  0  0  0  0  0
    1.9290    2.3540    2.0410 H   0  0  0  0  0  0  0  0  0  0  0  0
    1.1960    4.3220    3.3620 H   0  0  0  0  0  0  0  0  0  0  0  0
    4.4240    3.3600   -2.0340 O   0  0  0  0  0  0  0  0  0  0  0  0
    3.2430    2.6140   -1.9880 C   0  0  0  0  0  0  0  0  0  0  0  0
    2.0170    3.2520   -2.0260 C   0  0  0  0  0  0  0  0  0  0  0  0
    0.8460    2.4870   -1.9800 C   0  0  0  0  0  0  0  0  0  0  0  0
    0.8830    1.1190   -1.8980 C   0  0  0  0  0  0  0  0  0  0  0  0
   -0.3130    0.3040   -1.8480 C   0  0  0  0  0  0  0  0  0  0  0  0
   -0.8610    0.0030   -0.4970 C   0  0  2  0  0  0  0  0  0  0  0  0
    0.0530   -0.7040    0.3600 N   0  0  0  0  0  0  0  0  0  0  0  0
   -2.0800   -0.8620   -0.7170 C   0  0  0  0  0  0  0  0  0  0  0  0
   -2.9760   -0.3780   -1.4550 O   0  0  0  0  0  0  0  0  0  0  0  0
    2.1140    0.4940   -1.8610 C   0  0  0  0  0  0  0  0  0  0  0  0
    3.2930    1.2390   -1.9060 C   0  0  0  0  0  0  0  0  0  0  0  0
    4.3600    4.3510   -1.7500 H   0  0  0  0  0  0  0  0  0  0  0  0
    1.9460    4.3310   -2.0910 H   0  0  0  0  0  0  0  0  0  0  0  0
   -0.1180    2.9470   -2.0070 H   0  0  0  0  0  0  0  0  0  0  0  0
   -0.0990   -0.6790   -2.3420 H   0  0  0  0  0  0  0  0  0  0  0  0
   -1.0950    0.7800   -2.4780 H   0  0  0  0  0  0  0  0  0  0  0  0
   -1.2490    0.8670    0.0630 H   0  0  0  0  0  0  0  0  0  0  0  0
    0.5520   -1.5580    0.0100 H   0  0  0  0  0  0  0  0  0  0  0  0
    2.2100   -0.5820   -1.7960 H   0  0  0  0  0  0  0  0  0  0  0  0
    4.2610    0.7820   -1.8780 H   0  0  0  0  0  0  0  0  0  0  0  0
   -3.1530   -3.5810   -3.1990 C   0  0  0  0  0  0  0  0  0  0  0  0
   -2.2530   -4.2430   -2.1860 C   0  0  0  0  0  0  0  0  0  0  0  0
   -1.9720   -5.6830   -2.6110 C   0  0  0  0  0  0  0  0  0  0  0  0
   -3.0080   -4.3210   -0.8770 C   0  0  0  0  0  0  0  0  0  0  0  0
   -3.4040   -2.9540   -0.3650 C   0  0  2  0  0  0  0  0  0  0  0  0
   -2.2240   -2.1330   -0.1420 N   0  0  0  0  0  0  0  0  0  0  0  0
   -4.1290   -3.1630    0.9190 C   0  0  0  0  0  0  0  0  0  0  0  0
   -3.6640   -2.6390    1.9690 O   0  0  0  0  0  0  0  0  0  0  0  0
   -5.2800   -3.8950    1.0300 O   0  0  0  0  0  0  0  0  0  0  0  0
   -4.1950   -3.7620   -2.9040 H   0  0  0  0  0  0  0  0  0  0  0  0
   -2.9240   -2.4960   -3.2070 H   0  0  0  0  0  0  0  0  0  0  0  0
   -2.9810   -4.0450   -4.1950 H   0  0  0  0  0  0  0  0  0  0  0  0
   -1.3300   -3.6720   -2.1140 H   0  0  0  0  0  0  0  0  0  0  0  0
   -2.1400   -5.8270   -3.6870 H   0  0  0  0  0  0  0  0  0  0  0  0
   -0.8820   -5.8600   -2.4200 H   0  0  0  0  0  0  0  0  0  0  0  0
   -2.6100   -6.4000   -2.0530 H   0  0  0  0  0  0  0  0  0  0  0  0
   -3.9420   -4.8960   -0.9990 H   0  0  0  0  0  0  0  0  0  0  0  0
   -2.3670   -4.7820   -0.0970 H   0  0  0  0  0  0  0  0  0  0  0  0
   -4.1290   -2.4420   -1.0360 H   0  0  0  0  0  0  0  0  0  0  0  0
   -1.4560   -2.4780    0.4550 H   0  0  0  0  0  0  0  0  0  0  0  0
  1 13  1  0  0  0  0
  2  3  1  0  0  0  0
  2  1  1  0  0  0  0
  3 14  1  0  0  0  0
  4 15  1  0  0  0  0
  4  3  2  0  0  0  0
  5  4  1  0  0  0  0
  6 16  1  0  0  0  0
  6  5  1  0  0  0  0
  7  6  1  0  0  0  0
  7 18  1  1  0  0  0
  8 19  1  0  0  0  0
  8  7  1  0  0  0  0
  9 10  2  0  0  0  0
  9  7  1  0  0  0  0
 11  5  2  0  0  0  0
 11 12  1  0  0  0  0
 12  2  2  0  0  0  0
 17  6  1  0  0  0  0
 20  8  1  0  0  0  0
 21 11  1  0  0  0  0
 22 12  1  0  0  0  0
 23 24  1  0  0  0  0
 23 35  1  0  0  0  0
 24 34  1  0  0  0  0
 25 24  2  0  0  0  0
 25 26  1  0  0  0  0
 26 27  2  0  0  0  0
 27 33  1  0  0  0  0
 27 28  1  0  0  0  0
 28 29  1  0  0  0  0
 29 40  1  1  0  0  0
 29 30  1  0  0  0  0
 30  9  1  0  0  0  0
 31 29  1  0  0  0  0
 31 49  1  0  0  0  0
 32 31  2  0  0  0  0
 33 42  1  0  0  0  0
 34 43  1  0  0  0  0
 34 33  2  0  0  0  0
 36 25  1  0  0  0  0
 37 26  1  0  0  0  0
 38 28  1  0  0  0  0
 39 28  1  0  0  0  0
 41 30  1  0  0  0  0
 44 53  1  0  0  0  0
 44 45  1  0  0  0  0
 45 56  1  0  0  0  0
 45 47  1  0  0  0  0
 46 58  1  0  0  0  0
 46 45  1  0  0  0  0
 46 59  1  0  0  0  0
 47 48  1  0  0  0  0
 47 61  1  0  0  0  0
 48 62  1  6  0  0  0
 48 49  1  0  0  0  0
 48 50  1  0  0  0  0
 49 63  1  0  0  0  0
 50 52  2  0  0  0  0
 50 51  1  0  0  0  0
 54 44  1  0  0  0  0
 55 44  1  0  0  0  0
 57 46  1  0  0  0  0
 60 47  1  0  0  0  0
M  END
$$$$
