YYM.pdb
 OpenBabel07022419233D

 61 62  0  0  1  0  0  0  0  0999 V2000
   -0.3220    2.5270    5.0690 O   0  0  0  0  0  0  0  0  0  0  0  0
    0.4840    1.7220    4.2610 C   0  0  0  0  0  0  0  0  0  0  0  0
    0.9030    0.4740    4.6800 C   0  0  0  0  0  0  0  0  0  0  0  0
    1.6980   -0.3330    3.8960 C   0  0  0  0  0  0  0  0  0  0  0  0
    2.1170    0.0710    2.6480 C   0  0  0  0  0  0  0  0  0  0  0  0
    2.9900   -0.7810    1.8380 C   0  0  0  0  0  0  0  0  0  0  0  0
    2.3060   -1.8280    1.0110 C   0  0  2  0  0  0  0  0  0  0  0  0
    3.3300   -2.5980    0.2630 N   0  0  0  0  0  0  0  0  0  0  0  0
    1.2520   -1.3800    0.1080 C   0  0  0  0  0  0  0  0  0  0  0  0
    1.3590   -1.4660   -1.1610 O   0  0  0  0  0  0  0  0  0  0  0  0
    1.6950    1.3300    2.2270 C   0  0  0  0  0  0  0  0  0  0  0  0
    0.8960    2.1390    3.0150 C   0  0  0  0  0  0  0  0  0  0  0  0
   -1.0300    2.1040    5.6560 H   0  0  0  0  0  0  0  0  0  0  0  0
    0.5590    0.1700    5.6750 H   0  0  0  0  0  0  0  0  0  0  0  0
    1.9820   -1.3080    4.3090 H   0  0  0  0  0  0  0  0  0  0  0  0
    3.6660   -0.1370    1.2120 H   0  0  0  0  0  0  0  0  0  0  0  0
    3.6280   -1.3570    2.5830 H   0  0  0  0  0  0  0  0  0  0  0  0
    1.8740   -2.5740    1.7280 H   0  0  0  0  0  0  0  0  0  0  0  0
    3.7550   -2.0080   -0.4860 H   0  0  0  0  0  0  0  0  0  0  0  0
    4.0380   -2.8560    1.0060 H   0  0  0  0  0  0  0  0  0  0  0  0
    1.9740    1.7330    1.2750 H   0  0  0  0  0  0  0  0  0  0  0  0
    0.5780    3.1160    2.6660 H   0  0  0  0  0  0  0  0  0  0  0  0
    1.9450    5.3260   -0.8820 O   0  0  0  0  0  0  0  0  0  0  0  0
    1.3050    4.1020   -1.0150 C   0  0  0  0  0  0  0  0  0  0  0  0
   -0.0410    3.9930   -0.7840 C   0  0  0  0  0  0  0  0  0  0  0  0
   -0.6920    2.7900   -0.9100 C   0  0  0  0  0  0  0  0  0  0  0  0
   -0.0070    1.6130   -1.2830 C   0  0  0  0  0  0  0  0  0  0  0  0
   -0.7730    0.3620   -1.4370 C   0  0  0  0  0  0  0  0  0  0  0  0
   -1.0400   -0.3530   -0.1490 C   0  0  2  0  0  0  0  0  0  0  0  0
    0.0470   -0.8310    0.6140 N   0  0  0  0  0  0  0  0  0  0  0  0
   -2.1000   -1.3640   -0.3310 C   0  0  0  0  0  0  0  0  0  0  0  0
   -3.1610   -1.1130   -0.9950 O   0  0  0  0  0  0  0  0  0  0  0  0
    1.3260    1.7770   -1.5020 C   0  0  0  0  0  0  0  0  0  0  0  0
    2.0020    2.9940   -1.3770 C   0  0  0  0  0  0  0  0  0  0  0  0
    1.6850    5.9170   -0.0990 H   0  0  0  0  0  0  0  0  0  0  0  0
   -0.5690    4.9090   -0.4930 H   0  0  0  0  0  0  0  0  0  0  0  0
   -1.7500    2.7670   -0.7150 H   0  0  0  0  0  0  0  0  0  0  0  0
   -0.2950   -0.2720   -2.2220 H   0  0  0  0  0  0  0  0  0  0  0  0
   -1.7690    0.6360   -1.9120 H   0  0  0  0  0  0  0  0  0  0  0  0
   -1.4840    0.5100    0.5060 H   0  0  0  0  0  0  0  0  0  0  0  0
   -0.0890   -0.7810    1.6890 H   0  0  0  0  0  0  0  0  0  0  0  0
    1.9480    0.9590   -1.8040 H   0  0  0  0  0  0  0  0  0  0  0  0
    3.0660    3.0670   -1.5630 H   0  0  0  0  0  0  0  0  0  0  0  0
   -2.6370   -3.5650   -3.1880 C   0  0  0  0  0  0  0  0  0  0  0  0
   -2.1480   -5.2030   -2.6910 S   0  0  0  0  0  0  0  0  0  0  0  0
   -1.3990   -5.2680   -1.0710 C   0  0  0  0  0  0  0  0  0  0  0  0
   -2.3610   -5.0230    0.0190 C   0  0  0  0  0  0  0  0  0  0  0  0
   -3.0120   -3.6950    0.0660 C   0  0  2  0  0  0  0  0  0  0  0  0
   -2.0010   -2.6680    0.2200 N   0  0  0  0  0  0  0  0  0  0  0  0
   -3.7870   -3.6730    1.3920 C   0  0  0  0  0  0  0  0  0  0  0  0
   -4.7440   -4.4700    1.5660 O   0  0  0  0  0  0  0  0  0  0  0  0
   -3.4490   -2.7960    2.3910 O   0  0  0  0  0  0  0  0  0  0  0  0
   -3.7210   -3.3710   -3.0360 H   0  0  0  0  0  0  0  0  0  0  0  0
   -2.4690   -3.5050   -4.3180 H   0  0  0  0  0  0  0  0  0  0  0  0
   -1.9780   -2.7690   -2.8010 H   0  0  0  0  0  0  0  0  0  0  0  0
   -0.8530   -6.2470   -0.9250 H   0  0  0  0  0  0  0  0  0  0  0  0
   -0.5790   -4.4950   -1.0390 H   0  0  0  0  0  0  0  0  0  0  0  0
   -3.1780   -5.8000    0.0600 H   0  0  0  0  0  0  0  0  0  0  0  0
   -1.8140   -5.1490    1.0040 H   0  0  0  0  0  0  0  0  0  0  0  0
   -3.7330   -3.4480   -0.7120 H   0  0  0  0  0  0  0  0  0  0  0  0
   -1.1430   -2.9170    0.7790 H   0  0  0  0  0  0  0  0  0  0  0  0
  1 13  1  0  0  0  0
  2  3  1  0  0  0  0
  2  1  1  0  0  0  0
  3 14  1  0  0  0  0
  4 15  1  0  0  0  0
  4  3  2  0  0  0  0
  5  4  1  0  0  0  0
  6 17  1  0  0  0  0
  6  5  1  0  0  0  0
  7 18  1  1  0  0  0
  7  6  1  0  0  0  0
  8 20  1  0  0  0  0
  8  7  1  0  0  0  0
  9 30  1  0  0  0  0
  9  7  1  0  0  0  0
 10  9  2  0  0  0  0
 11  5  2  0  0  0  0
 11 12  1  0  0  0  0
 12  2  2  0  0  0  0
 16  6  1  0  0  0  0
 19  8  1  0  0  0  0
 21 11  1  0  0  0  0
 22 12  1  0  0  0  0
 23 35  1  0  0  0  0
 24 23  1  0  0  0  0
 24 25  1  0  0  0  0
 25 36  1  0  0  0  0
 26 25  2  0  0  0  0
 26 37  1  0  0  0  0
 27 26  1  0  0  0  0
 28 27  1  0  0  0  0
 28 29  1  0  0  0  0
 29 40  1  1  0  0  0
 29 30  1  0  0  0  0
 30 41  1  0  0  0  0
 31 29  1  0  0  0  0
 31 49  1  0  0  0  0
 32 31  2  0  0  0  0
 33 34  1  0  0  0  0
 33 27  2  0  0  0  0
 34 24  2  0  0  0  0
 38 28  1  0  0  0  0
 39 28  1  0  0  0  0
 42 33  1  0  0  0  0
 43 34  1  0  0  0  0
 44 53  1  0  0  0  0
 44 55  1  0  0  0  0
 44 45  1  0  0  0  0
 45 46  1  0  0  0  0
 46 57  1  0  0  0  0
 46 56  1  0  0  0  0
 46 47  1  0  0  0  0
 47 58  1  0  0  0  0
 47 48  1  0  0  0  0
 47 59  1  0  0  0  0
 48 60  1  6  0  0  0
 48 49  1  0  0  0  0
 48 50  1  0  0  0  0
 49 61  1  0  0  0  0
 50 51  2  0  0  0  0
 50 52  1  0  0  0  0
 54 44  1  0  0  0  0
M  END
$$$$
