YYN.pdb
 OpenBabel07022419233D

 58 59  0  0  1  0  0  0  0  0999 V2000
    7.6900    0.9230    4.8430 O   0  0  0  0  0  0  0  0  0  0  0  0
    6.4240    0.4680    4.4990 C   0  0  0  0  0  0  0  0  0  0  0  0
    6.1040   -0.8830    4.5240 C   0  0  0  0  0  0  0  0  0  0  0  0
    4.8370   -1.3160    4.1780 C   0  0  0  0  0  0  0  0  0  0  0  0
    3.8400   -0.4400    3.7950 C   0  0  0  0  0  0  0  0  0  0  0  0
    2.5130   -0.9510    3.4370 C   0  0  0  0  0  0  0  0  0  0  0  0
    2.3810   -1.2730    1.9640 C   0  0  2  0  0  0  0  0  0  0  0  0
    2.6090   -0.1010    1.1400 N   0  0  0  0  0  0  0  0  0  0  0  0
    0.9860   -1.7190    1.7410 C   0  0  0  0  0  0  0  0  0  0  0  0
    0.5880   -2.7370    2.3570 O   0  0  0  0  0  0  0  0  0  0  0  0
    4.1560    0.8940    3.7710 C   0  0  0  0  0  0  0  0  0  0  0  0
    5.4300    1.3450    4.1180 C   0  0  0  0  0  0  0  0  0  0  0  0
    7.8810    1.3900    5.7320 H   0  0  0  0  0  0  0  0  0  0  0  0
    6.8920   -1.5680    4.8260 H   0  0  0  0  0  0  0  0  0  0  0  0
    4.5940   -2.3870    4.2010 H   0  0  0  0  0  0  0  0  0  0  0  0
    2.2430   -1.8470    4.0040 H   0  0  0  0  0  0  0  0  0  0  0  0
    1.7140   -0.1900    3.6570 H   0  0  0  0  0  0  0  0  0  0  0  0
    3.1210   -2.0350    1.6370 H   0  0  0  0  0  0  0  0  0  0  0  0
    2.0000    0.6690    1.4390 H   0  0  0  0  0  0  0  0  0  0  0  0
    2.5100   -0.3770    0.1490 H   0  0  0  0  0  0  0  0  0  0  0  0
    3.4070    1.5880    3.4800 H   0  0  0  0  0  0  0  0  0  0  0  0
    5.6900    2.3940    4.1020 H   0  0  0  0  0  0  0  0  0  0  0  0
   -1.5650    4.6950   -1.1620 O   0  0  0  0  0  0  0  0  0  0  0  0
   -1.7100    3.4330   -0.5800 C   0  0  0  0  0  0  0  0  0  0  0  0
   -2.5820    2.5580   -1.1930 C   0  0  0  0  0  0  0  0  0  0  0  0
   -2.7170    1.3000   -0.5980 C   0  0  0  0  0  0  0  0  0  0  0  0
   -2.0330    0.9340    0.5300 C   0  0  0  0  0  0  0  0  0  0  0  0
   -2.2000   -0.3910    1.1240 C   0  0  0  0  0  0  0  0  0  0  0  0
   -1.2530   -1.4390    0.6200 C   0  0  2  0  0  0  0  0  0  0  0  0
    0.1270   -1.0390    0.8730 N   0  0  0  0  0  0  0  0  0  0  0  0
   -1.4380   -1.7920   -0.7970 C   0  0  0  0  0  0  0  0  0  0  0  0
   -0.5140   -1.6700   -1.6490 O   0  0  0  0  0  0  0  0  0  0  0  0
   -1.1760    1.8340    1.1090 C   0  0  0  0  0  0  0  0  0  0  0  0
   -1.0230    3.0740    0.5490 C   0  0  0  0  0  0  0  0  0  0  0  0
   -1.5620    5.5130   -0.5340 H   0  0  0  0  0  0  0  0  0  0  0  0
   -3.1380    2.8270   -2.0930 H   0  0  0  0  0  0  0  0  0  0  0  0
   -3.3890    0.5860   -1.0460 H   0  0  0  0  0  0  0  0  0  0  0  0
   -2.1620   -0.2760    2.2260 H   0  0  0  0  0  0  0  0  0  0  0  0
   -3.2370   -0.8020    0.9310 H   0  0  0  0  0  0  0  0  0  0  0  0
   -1.4970   -2.3710    1.2120 H   0  0  0  0  0  0  0  0  0  0  0  0
    0.4890   -0.1960    0.3770 H   0  0  0  0  0  0  0  0  0  0  0  0
   -0.6280    1.5840    1.9860 H   0  0  0  0  0  0  0  0  0  0  0  0
   -0.3510    3.8340    0.9700 H   0  0  0  0  0  0  0  0  0  0  0  0
   -3.0990   -6.1440   -4.3060 N   0  0  0  0  0  0  0  0  0  0  0  0
   -2.9680   -4.7180   -4.1340 C   0  0  0  0  0  0  0  0  0  0  0  0
   -2.9590   -4.0520   -5.1820 O   0  0  0  0  0  0  0  0  0  0  0  0
   -2.8590   -4.1600   -2.7930 C   0  0  0  0  0  0  0  0  0  0  0  0
   -2.8190   -2.6480   -2.7190 C   0  0  2  0  0  0  0  0  0  0  0  0
   -2.6750   -2.2970   -1.2840 N   0  0  0  0  0  0  0  0  0  0  0  0
   -4.0230   -1.9980   -3.2510 C   0  0  0  0  0  0  0  0  0  0  0  0
   -4.3530   -2.0740   -4.4430 O   0  0  0  0  0  0  0  0  0  0  0  0
   -4.8450   -1.2590   -2.3990 O   0  0  0  0  0  0  0  0  0  0  0  0
   -3.7240   -6.7210   -3.7170 H   0  0  0  0  0  0  0  0  0  0  0  0
   -2.5350   -6.6040   -5.0580 H   0  0  0  0  0  0  0  0  0  0  0  0
   -3.7220   -4.4910   -2.1530 H   0  0  0  0  0  0  0  0  0  0  0  0
   -1.9620   -4.5940   -2.2660 H   0  0  0  0  0  0  0  0  0  0  0  0
   -1.9230   -2.3200   -3.2370 H   0  0  0  0  0  0  0  0  0  0  0  0
   -3.4960   -2.4340   -0.6730 H   0  0  0  0  0  0  0  0  0  0  0  0
  1 13  1  0  0  0  0
  2  3  1  0  0  0  0
  2  1  1  0  0  0  0
  3 14  1  0  0  0  0
  4 15  1  0  0  0  0
  4  3  2  0  0  0  0
  5  4  1  0  0  0  0
  6 17  1  0  0  0  0
  6  5  1  0  0  0  0
  6 16  1  0  0  0  0
  7 18  1  6  0  0  0
  7  6  1  0  0  0  0
  8 19  1  0  0  0  0
  8  7  1  0  0  0  0
  9  7  1  0  0  0  0
  9 10  2  0  0  0  0
 11  5  2  0  0  0  0
 11 12  1  0  0  0  0
 12  2  2  0  0  0  0
 20  8  1  0  0  0  0
 21 11  1  0  0  0  0
 22 12  1  0  0  0  0
 23 24  1  0  0  0  0
 23 35  1  0  0  0  0
 24 34  1  0  0  0  0
 25 26  1  0  0  0  0
 25 24  2  0  0  0  0
 26 27  2  0  0  0  0
 27 33  1  0  0  0  0
 27 28  1  0  0  0  0
 28 38  1  0  0  0  0
 29 30  1  0  0  0  0
 29 28  1  0  0  0  0
 29 40  1  1  0  0  0
 30  9  1  0  0  0  0
 31 29  1  0  0  0  0
 32 31  2  0  0  0  0
 33 42  1  0  0  0  0
 34 43  1  0  0  0  0
 34 33  2  0  0  0  0
 36 25  1  0  0  0  0
 37 26  1  0  0  0  0
 39 28  1  0  0  0  0
 41 30  1  0  0  0  0
 44 45  1  0  0  0  0
 44 53  1  0  0  0  0
 45 47  1  0  0  0  0
 46 45  2  0  0  0  0
 47 48  1  0  0  0  0
 47 56  1  0  0  0  0
 47 55  1  0  0  0  0
 48 57  1  6  0  0  0
 48 49  1  0  0  0  0
 49 31  1  0  0  0  0
 49 58  1  0  0  0  0
 50 48  1  0  0  0  0
 50 52  1  0  0  0  0
 51 50  2  0  0  0  0
 54 44  1  0  0  0  0
M  END
$$$$
