YYP.pdb
 OpenBabel07022419233D

 58 60  0  0  1  0  0  0  0  0999 V2000
    2.5000    1.7860    4.8940 O   0  0  0  0  0  0  0  0  0  0  0  0
    2.9810    1.1850    3.7390 C   0  0  0  0  0  0  0  0  0  0  0  0
    2.7840   -0.1680    3.5770 C   0  0  0  0  0  0  0  0  0  0  0  0
    3.2590   -0.7720    2.4320 C   0  0  0  0  0  0  0  0  0  0  0  0
    3.9190   -0.0530    1.4590 C   0  0  0  0  0  0  0  0  0  0  0  0
    4.4470   -0.6530    0.2110 C   0  0  0  0  0  0  0  0  0  0  0  0
    3.4440   -0.6290   -0.9240 C   0  0  2  0  0  0  0  0  0  0  0  0
    3.0690    0.7350   -1.2200 N   0  0  0  0  0  0  0  0  0  0  0  0
    2.2920   -1.4610   -0.4930 C   0  0  0  0  0  0  0  0  0  0  0  0
    2.5240   -2.6650   -0.2350 O   0  0  0  0  0  0  0  0  0  0  0  0
    4.0950    1.2970    1.6580 C   0  0  0  0  0  0  0  0  0  0  0  0
    3.6360    1.9370    2.7880 C   0  0  0  0  0  0  0  0  0  0  0  0
    1.7930    1.3780    5.4800 H   0  0  0  0  0  0  0  0  0  0  0  0
    2.2590   -0.7550    4.3470 H   0  0  0  0  0  0  0  0  0  0  0  0
    3.0970   -1.8470    2.3180 H   0  0  0  0  0  0  0  0  0  0  0  0
    5.4130   -0.2050   -0.0880 H   0  0  0  0  0  0  0  0  0  0  0  0
    4.6590   -1.7450    0.4030 H   0  0  0  0  0  0  0  0  0  0  0  0
    3.9770   -1.1010   -1.7960 H   0  0  0  0  0  0  0  0  0  0  0  0
    3.9460    1.2920   -1.3180 H   0  0  0  0  0  0  0  0  0  0  0  0
    2.5830    0.7880   -2.1370 H   0  0  0  0  0  0  0  0  0  0  0  0
    4.6080    1.8800    0.9120 H   0  0  0  0  0  0  0  0  0  0  0  0
    3.7680    2.9970    2.9560 H   0  0  0  0  0  0  0  0  0  0  0  0
   -2.5210    4.1360    0.7510 O   0  0  0  0  0  0  0  0  0  0  0  0
   -2.0560    2.8200    0.9090 C   0  0  0  0  0  0  0  0  0  0  0  0
   -2.8980    1.7520    0.7080 C   0  0  0  0  0  0  0  0  0  0  0  0
   -2.4350    0.4470    0.8650 C   0  0  0  0  0  0  0  0  0  0  0  0
   -1.1370    0.1750    1.2210 C   0  0  0  0  0  0  0  0  0  0  0  0
   -0.6960   -1.2280    1.3750 C   0  0  0  0  0  0  0  0  0  0  0  0
   -0.1600   -1.7900    0.0610 C   0  0  2  0  0  0  0  0  0  0  0  0
    0.9760   -0.9580   -0.3660 N   0  0  0  0  0  0  0  0  0  0  0  0
   -1.2520   -1.7580   -0.8990 C   0  0  0  0  0  0  0  0  0  0  0  0
   -1.0640   -0.8750   -1.8510 O   0  0  0  0  0  0  0  0  0  0  0  0
   -0.3050    1.2510    1.4190 C   0  0  0  0  0  0  0  0  0  0  0  0
   -0.7520    2.5570    1.2670 C   0  0  0  0  0  0  0  0  0  0  0  0
   -1.8770    4.8810    0.5020 H   0  0  0  0  0  0  0  0  0  0  0  0
   -3.9150    1.9690    0.4280 H   0  0  0  0  0  0  0  0  0  0  0  0
   -3.1410   -0.3370    0.6940 H   0  0  0  0  0  0  0  0  0  0  0  0
    0.1070   -1.2880    2.1470 H   0  0  0  0  0  0  0  0  0  0  0  0
   -1.5140   -1.8810    1.7280 H   0  0  0  0  0  0  0  0  0  0  0  0
    0.1870   -2.8020    0.2490 H   0  0  0  0  0  0  0  0  0  0  0  0
    0.8280    0.0470   -0.5910 H   0  0  0  0  0  0  0  0  0  0  0  0
    0.7410    1.1030    1.7050 H   0  0  0  0  0  0  0  0  0  0  0  0
   -0.1050    3.3900    1.4210 H   0  0  0  0  0  0  0  0  0  0  0  0
   -2.4390   -2.4750   -0.9940 N   0  0  0  0  0  0  0  0  0  0  0  0
   -3.4030   -2.0960   -2.1080 C   0  0  0  0  0  0  0  0  0  0  0  0
   -3.6940   -3.4360   -2.7000 C   0  0  0  0  0  0  0  0  0  0  0  0
   -3.3970   -4.4540   -1.6320 C   0  0  0  0  0  0  0  0  0  0  0  0
   -3.1660   -3.5250   -0.4020 C   0  0  1  0  0  0  0  0  0  0  0  0
   -2.7080   -4.3070    0.7060 C   0  0  0  0  0  0  0  0  0  0  0  0
   -3.6250   -5.0230    1.2940 O   0  0  0  0  0  0  0  0  0  0  0  0
   -1.4790   -4.4600    1.2800 O   0  0  0  0  0  0  0  0  0  0  0  0
   -4.2900   -1.7510   -1.5520 H   0  0  0  0  0  0  0  0  0  0  0  0
   -2.9580   -1.3790   -2.7840 H   0  0  0  0  0  0  0  0  0  0  0  0
   -4.7850   -3.5420   -2.9570 H   0  0  0  0  0  0  0  0  0  0  0  0
   -3.1060   -3.6140   -3.6250 H   0  0  0  0  0  0  0  0  0  0  0  0
   -4.2140   -5.1490   -1.4430 H   0  0  0  0  0  0  0  0  0  0  0  0
   -2.4810   -4.9970   -1.8720 H   0  0  0  0  0  0  0  0  0  0  0  0
   -4.2300   -3.1520   -0.1990 H   0  0  0  0  0  0  0  0  0  0  0  0
  1 13  1  0  0  0  0
  2  1  1  0  0  0  0
  3  2  1  0  0  0  0
  3 14  1  0  0  0  0
  4  3  2  0  0  0  0
  5 11  2  0  0  0  0
  5  4  1  0  0  0  0
  6 17  1  0  0  0  0
  6  5  1  0  0  0  0
  7 18  1  6  0  0  0
  7  9  1  0  0  0  0
  7  6  1  0  0  0  0
  8  7  1  0  0  0  0
  9 30  1  0  0  0  0
  9 10  2  0  0  0  0
 11 12  1  0  0  0  0
 12 22  1  0  0  0  0
 12  2  2  0  0  0  0
 15  4  1  0  0  0  0
 16  6  1  0  0  0  0
 19  8  1  0  0  0  0
 20  8  1  0  0  0  0
 21 11  1  0  0  0  0
 23 24  1  0  0  0  0
 24 34  1  0  0  0  0
 25 26  1  0  0  0  0
 25 24  2  0  0  0  0
 26 27  2  0  0  0  0
 27 28  1  0  0  0  0
 27 33  1  0  0  0  0
 28 39  1  0  0  0  0
 28 38  1  0  0  0  0
 29 40  1  1  0  0  0
 29 28  1  0  0  0  0
 30 29  1  0  0  0  0
 31 29  1  0  0  0  0
 32 31  2  0  0  0  0
 33 42  1  0  0  0  0
 34 33  2  0  0  0  0
 34 43  1  0  0  0  0
 35 23  1  0  0  0  0
 36 25  1  0  0  0  0
 37 26  1  0  0  0  0
 41 30  1  0  0  0  0
 44 31  1  0  0  0  0
 44 48  1  0  0  0  0
 45 52  1  0  0  0  0
 45 44  1  0  0  0  0
 46 45  1  0  0  0  0
 46 47  1  0  0  0  0
 47 56  1  0  0  0  0
 47 48  1  0  0  0  0
 48 58  1  1  0  0  0
 48 49  1  0  0  0  0
 49 51  2  0  0  0  0
 49 50  1  0  0  0  0
 53 45  1  0  0  0  0
 54 46  1  0  0  0  0
 55 46  1  0  0  0  0
 57 47  1  0  0  0  0
M  END
$$$$
