YYQ.pdb
 OpenBabel07022419233D

 61 62  0  0  1  0  0  0  0  0999 V2000
    6.5090   -3.2220    6.1560 O   0  0  0  0  0  0  0  0  0  0  0  0
    5.5250   -2.4850    5.4670 C   0  0  0  0  0  0  0  0  0  0  0  0
    4.5860   -1.7560    6.1770 C   0  0  0  0  0  0  0  0  0  0  0  0
    3.6090   -1.0250    5.4910 C   0  0  0  0  0  0  0  0  0  0  0  0
    3.5590   -1.0150    4.1220 C   0  0  0  0  0  0  0  0  0  0  0  0
    2.5580   -0.2630    3.3720 C   0  0  0  0  0  0  0  0  0  0  0  0
    1.2850   -1.0340    3.0730 C   0  0  2  0  0  0  0  0  0  0  0  0
    1.7050   -2.2050    2.2810 N   0  0  0  0  0  0  0  0  0  0  0  0
    0.4650   -0.1220    2.2120 C   0  0  0  0  0  0  0  0  0  0  0  0
    0.0850    0.9430    2.7580 O   0  0  0  0  0  0  0  0  0  0  0  0
    4.5070   -1.7510    3.4450 C   0  0  0  0  0  0  0  0  0  0  0  0
    5.4780   -2.4770    4.1080 C   0  0  0  0  0  0  0  0  0  0  0  0
    7.1020   -2.6870    6.8130 H   0  0  0  0  0  0  0  0  0  0  0  0
    4.6270   -1.7660    7.2620 H   0  0  0  0  0  0  0  0  0  0  0  0
    2.8970   -0.4710    6.0790 H   0  0  0  0  0  0  0  0  0  0  0  0
    2.9830    0.1230    2.4110 H   0  0  0  0  0  0  0  0  0  0  0  0
    2.2910    0.6750    3.9390 H   0  0  0  0  0  0  0  0  0  0  0  0
    0.7630   -1.3570    3.9690 H   0  0  0  0  0  0  0  0  0  0  0  0
    2.1680   -2.9050    2.8640 H   0  0  0  0  0  0  0  0  0  0  0  0
    2.2200   -1.9200    1.4370 H   0  0  0  0  0  0  0  0  0  0  0  0
    4.5120   -1.7770    2.3670 H   0  0  0  0  0  0  0  0  0  0  0  0
    6.2330   -3.0620    3.5610 H   0  0  0  0  0  0  0  0  0  0  0  0
   -2.7390    4.4930   -4.5110 O   0  0  0  0  0  0  0  0  0  0  0  0
   -2.0390    3.6360   -3.6740 C   0  0  0  0  0  0  0  0  0  0  0  0
   -1.2720    4.0940   -2.6200 C   0  0  0  0  0  0  0  0  0  0  0  0
   -0.6110    3.1740   -1.8390 C   0  0  0  0  0  0  0  0  0  0  0  0
   -0.6820    1.8130   -2.0670 C   0  0  0  0  0  0  0  0  0  0  0  0
    0.0750    0.9060   -1.1760 C   0  0  0  0  0  0  0  0  0  0  0  0
   -0.6700    0.4850    0.0490 C   0  0  2  0  0  0  0  0  0  0  0  0
    0.1280   -0.4120    0.8850 N   0  0  0  0  0  0  0  0  0  0  0  0
   -1.9550   -0.1700   -0.2600 C   0  0  0  0  0  0  0  0  0  0  0  0
   -2.8250    0.4200   -0.9410 O   0  0  0  0  0  0  0  0  0  0  0  0
   -1.4580    1.3900   -3.1300 C   0  0  0  0  0  0  0  0  0  0  0  0
   -2.1410    2.2870   -3.9410 C   0  0  0  0  0  0  0  0  0  0  0  0
   -3.5500    4.9570   -4.1150 H   0  0  0  0  0  0  0  0  0  0  0  0
   -1.2110    5.1570   -2.4350 H   0  0  0  0  0  0  0  0  0  0  0  0
   -0.0090    3.5230   -1.0130 H   0  0  0  0  0  0  0  0  0  0  0  0
    1.0960    1.2780   -0.9600 H   0  0  0  0  0  0  0  0  0  0  0  0
    0.2520   -0.0260   -1.7950 H   0  0  0  0  0  0  0  0  0  0  0  0
   -0.8830    1.4240    0.6430 H   0  0  0  0  0  0  0  0  0  0  0  0
    0.4610   -1.3080    0.4690 H   0  0  0  0  0  0  0  0  0  0  0  0
   -1.5240    0.3170   -3.3320 H   0  0  0  0  0  0  0  0  0  0  0  0
   -2.7340    1.9020   -4.7600 H   0  0  0  0  0  0  0  0  0  0  0  0
   -2.3630   -2.3720   -4.3440 N   0  0  0  0  0  0  0  0  0  0  0  0
   -3.0050   -2.5680   -3.1020 C   0  0  0  0  0  0  0  0  0  0  0  0
   -4.1500   -2.0380   -2.9460 O   0  0  0  0  0  0  0  0  0  0  0  0
   -2.4300   -3.3400   -2.0020 C   0  0  0  0  0  0  0  0  0  0  0  0
   -3.2590   -3.4000   -0.7640 C   0  0  0  0  0  0  0  0  0  0  0  0
   -3.5400   -2.0720   -0.1390 C   0  0  2  0  0  0  0  0  0  0  0  0
   -2.2380   -1.4780    0.2030 N   0  0  0  0  0  0  0  0  0  0  0  0
   -4.2610   -2.3200    1.1540 C   0  0  0  0  0  0  0  0  0  0  0  0
   -3.7280   -2.0310    2.2560 O   0  0  0  0  0  0  0  0  0  0  0  0
   -5.5310   -2.8720    1.1880 O   0  0  0  0  0  0  0  0  0  0  0  0
   -1.6940   -3.0660   -4.7210 H   0  0  0  0  0  0  0  0  0  0  0  0
   -2.5590   -1.5040   -4.9100 H   0  0  0  0  0  0  0  0  0  0  0  0
   -1.4200   -2.9250   -1.7740 H   0  0  0  0  0  0  0  0  0  0  0  0
   -2.2860   -4.3960   -2.3490 H   0  0  0  0  0  0  0  0  0  0  0  0
   -2.6720   -3.9950   -0.0140 H   0  0  0  0  0  0  0  0  0  0  0  0
   -4.1740   -3.9960   -0.9570 H   0  0  0  0  0  0  0  0  0  0  0  0
   -4.1490   -1.3880   -0.7220 H   0  0  0  0  0  0  0  0  0  0  0  0
   -1.5650   -2.0400    0.7770 H   0  0  0  0  0  0  0  0  0  0  0  0
  1 13  1  0  0  0  0
  2  1  1  0  0  0  0
  2  3  1  0  0  0  0
  3 14  1  0  0  0  0
  4 15  1  0  0  0  0
  4  3  2  0  0  0  0
  5  4  1  0  0  0  0
  6 17  1  0  0  0  0
  6  5  1  0  0  0  0
  7  6  1  0  0  0  0
  7 18  1  1  0  0  0
  8 19  1  0  0  0  0
  8  7  1  0  0  0  0
  9 10  2  0  0  0  0
  9  7  1  0  0  0  0
 11 12  1  0  0  0  0
 11  5  2  0  0  0  0
 12  2  2  0  0  0  0
 16  6  1  0  0  0  0
 20  8  1  0  0  0  0
 21 11  1  0  0  0  0
 22 12  1  0  0  0  0
 23 35  1  0  0  0  0
 23 24  1  0  0  0  0
 24 25  1  0  0  0  0
 25 36  1  0  0  0  0
 25 26  2  0  0  0  0
 26 37  1  0  0  0  0
 27 26  1  0  0  0  0
 27 28  1  0  0  0  0
 28 38  1  0  0  0  0
 28 29  1  0  0  0  0
 29 40  1  1  0  0  0
 29 30  1  0  0  0  0
 30  9  1  0  0  0  0
 31 29  1  0  0  0  0
 31 50  1  0  0  0  0
 32 31  2  0  0  0  0
 33 27  2  0  0  0  0
 34 24  2  0  0  0  0
 34 33  1  0  0  0  0
 39 28  1  0  0  0  0
 41 30  1  0  0  0  0
 42 33  1  0  0  0  0
 43 34  1  0  0  0  0
 44 45  1  0  0  0  0
 45 46  2  0  0  0  0
 45 47  1  0  0  0  0
 47 56  1  0  0  0  0
 47 48  1  0  0  0  0
 48 49  1  0  0  0  0
 48 58  1  0  0  0  0
 49 60  1  6  0  0  0
 49 50  1  0  0  0  0
 49 51  1  0  0  0  0
 50 61  1  0  0  0  0
 51 53  2  0  0  0  0
 51 52  1  0  0  0  0
 54 44  1  0  0  0  0
 55 44  1  0  0  0  0
 57 47  1  0  0  0  0
 59 48  1  0  0  0  0
M  END
$$$$
