YYR.pdb
 OpenBabel07022419233D

 67 68  0  0  1  0  0  0  0  0999 V2000
    0.0870   -6.3760    2.6600 O   0  0  0  0  0  0  0  0  0  0  0  0
    1.0730   -5.4980    2.1790 C   0  0  0  0  0  0  0  0  0  0  0  0
    1.9590   -4.8930    3.0430 C   0  0  0  0  0  0  0  0  0  0  0  0
    2.9320   -4.0250    2.5610 C   0  0  0  0  0  0  0  0  0  0  0  0
    3.0490   -3.7380    1.2210 C   0  0  0  0  0  0  0  0  0  0  0  0
    4.0990   -2.8150    0.7790 C   0  0  0  0  0  0  0  0  0  0  0  0
    3.6610   -1.3690    0.7650 C   0  0  2  0  0  0  0  0  0  0  0  0
    3.2570   -0.8840    2.0380 N   0  0  0  0  0  0  0  0  0  0  0  0
    2.5890   -1.1830   -0.2400 C   0  0  0  0  0  0  0  0  0  0  0  0
    2.8140   -1.4640   -1.4720 O   0  0  0  0  0  0  0  0  0  0  0  0
    2.1490   -4.3580    0.3600 C   0  0  0  0  0  0  0  0  0  0  0  0
    1.1840   -5.2180    0.8390 C   0  0  0  0  0  0  0  0  0  0  0  0
    0.0980   -6.6690    3.6190 H   0  0  0  0  0  0  0  0  0  0  0  0
    1.8730   -5.1130    4.0970 H   0  0  0  0  0  0  0  0  0  0  0  0
    3.5850   -3.5930    3.2980 H   0  0  0  0  0  0  0  0  0  0  0  0
    4.4840   -3.0600   -0.2330 H   0  0  0  0  0  0  0  0  0  0  0  0
    4.9790   -2.9210    1.4640 H   0  0  0  0  0  0  0  0  0  0  0  0
    4.5340   -0.7700    0.3970 H   0  0  0  0  0  0  0  0  0  0  0  0
    2.3360   -1.1440    2.3850 H   0  0  0  0  0  0  0  0  0  0  0  0
    4.0160   -0.8960    2.7590 H   0  0  0  0  0  0  0  0  0  0  0  0
    2.1980   -4.1680   -0.6850 H   0  0  0  0  0  0  0  0  0  0  0  0
    0.4970   -5.6850    0.1400 H   0  0  0  0  0  0  0  0  0  0  0  0
   -4.3670   -0.9370   -5.2850 O   0  0  0  0  0  0  0  0  0  0  0  0
   -3.5000   -1.0910   -4.2170 C   0  0  0  0  0  0  0  0  0  0  0  0
   -3.7450   -0.5020   -2.9750 C   0  0  0  0  0  0  0  0  0  0  0  0
   -2.9060   -0.6390   -1.8980 C   0  0  0  0  0  0  0  0  0  0  0  0
   -1.7580   -1.3870   -2.0170 C   0  0  0  0  0  0  0  0  0  0  0  0
   -0.7890   -1.5850   -0.9140 C   0  0  0  0  0  0  0  0  0  0  0  0
    0.2930   -0.5490   -1.0190 C   0  0  2  0  0  0  0  0  0  0  0  0
    1.2840   -0.7040    0.0410 N   0  0  0  0  0  0  0  0  0  0  0  0
   -0.2000    0.8460   -1.0770 C   0  0  0  0  0  0  0  0  0  0  0  0
   -1.0150    1.2970   -1.9110 O   0  0  0  0  0  0  0  0  0  0  0  0
   -1.4970   -1.9830   -3.2480 C   0  0  0  0  0  0  0  0  0  0  0  0
   -2.3520   -1.8320   -4.3120 C   0  0  0  0  0  0  0  0  0  0  0  0
   -4.9630   -0.1220   -5.4250 H   0  0  0  0  0  0  0  0  0  0  0  0
   -4.6690    0.0860   -2.9200 H   0  0  0  0  0  0  0  0  0  0  0  0
   -3.1480   -0.1670   -0.9800 H   0  0  0  0  0  0  0  0  0  0  0  0
   -1.2970   -1.5790    0.0720 H   0  0  0  0  0  0  0  0  0  0  0  0
   -0.3020   -2.5740   -1.0500 H   0  0  0  0  0  0  0  0  0  0  0  0
    0.8100   -0.7650   -1.9930 H   0  0  0  0  0  0  0  0  0  0  0  0
    1.0360   -0.4620    1.0220 H   0  0  0  0  0  0  0  0  0  0  0  0
   -0.5840   -2.5750   -3.3350 H   0  0  0  0  0  0  0  0  0  0  0  0
   -2.0930   -2.3220   -5.2460 H   0  0  0  0  0  0  0  0  0  0  0  0
   -3.7890   -0.8700    3.8990 N   0  0  0  0  0  0  0  0  0  0  0  0
   -2.5650   -0.2230    3.5900 C   0  0  0  0  0  0  0  0  0  0  0  0
   -1.4510   -0.8720    3.7600 N   0  0  0  0  0  0  0  0  0  0  0  0
   -2.4960    1.0950    3.1050 N   0  0  0  0  0  0  0  0  0  0  0  0
   -1.3260    1.5790    2.3390 C   0  0  0  0  0  0  0  0  0  0  0  0
   -1.5270    2.9940    1.9700 C   0  0  0  0  0  0  0  0  0  0  0  0
   -0.4760    3.7000    1.2180 C   0  0  0  0  0  0  0  0  0  0  0  0
   -0.1820    3.1710   -0.1230 C   0  0  2  0  0  0  0  0  0  0  0  0
    0.2750    1.8100   -0.1010 N   0  0  0  0  0  0  0  0  0  0  0  0
    0.8280    4.0350   -0.8470 C   0  0  0  0  0  0  0  0  0  0  0  0
    1.8590    3.5260   -1.3020 O   0  0  0  0  0  0  0  0  0  0  0  0
    0.5790    5.3800   -0.9880 O   0  0  0  0  0  0  0  0  0  0  0  0
   -4.2610   -1.4130    3.1440 H   0  0  0  0  0  0  0  0  0  0  0  0
   -4.2410   -0.8320    4.8330 H   0  0  0  0  0  0  0  0  0  0  0  0
   -1.4640   -1.8710    4.1250 H   0  0  0  0  0  0  0  0  0  0  0  0
   -3.2770    1.7470    3.2870 H   0  0  0  0  0  0  0  0  0  0  0  0
   -1.1650    0.9030    1.5150 H   0  0  0  0  0  0  0  0  0  0  0  0
   -0.4660    1.4300    3.0500 H   0  0  0  0  0  0  0  0  0  0  0  0
   -2.5230    3.0430    1.4260 H   0  0  0  0  0  0  0  0  0  0  0  0
   -1.6840    3.5590    2.9330 H   0  0  0  0  0  0  0  0  0  0  0  0
   -0.7330    4.8050    1.1240 H   0  0  0  0  0  0  0  0  0  0  0  0
    0.4840    3.7580    1.8310 H   0  0  0  0  0  0  0  0  0  0  0  0
   -1.1020    3.1820   -0.7600 H   0  0  0  0  0  0  0  0  0  0  0  0
    0.9580    1.5360    0.6340 H   0  0  0  0  0  0  0  0  0  0  0  0
  1 13  1  0  0  0  0
  2  1  1  0  0  0  0
  2  3  1  0  0  0  0
  3 14  1  0  0  0  0
  4  3  2  0  0  0  0
  4 15  1  0  0  0  0
  5  4  1  0  0  0  0
  6  5  1  0  0  0  0
  6 17  1  0  0  0  0
  7 18  1  6  0  0  0
  7  6  1  0  0  0  0
  7  8  1  0  0  0  0
  8 19  1  0  0  0  0
  8 20  1  0  0  0  0
  9 30  1  0  0  0  0
  9  7  1  0  0  0  0
 10  9  2  0  0  0  0
 11 12  1  0  0  0  0
 11  5  2  0  0  0  0
 12  2  2  0  0  0  0
 16  6  1  0  0  0  0
 21 11  1  0  0  0  0
 22 12  1  0  0  0  0
 23 24  1  0  0  0  0
 24 25  1  0  0  0  0
 25 36  1  0  0  0  0
 25 26  2  0  0  0  0
 26 37  1  0  0  0  0
 27 26  1  0  0  0  0
 27 28  1  0  0  0  0
 28 38  1  0  0  0  0
 29 40  1  6  0  0  0
 29 28  1  0  0  0  0
 29 30  1  0  0  0  0
 30 41  1  0  0  0  0
 31 29  1  0  0  0  0
 31 52  1  0  0  0  0
 32 31  2  0  0  0  0
 33 27  2  0  0  0  0
 34 24  2  0  0  0  0
 34 33  1  0  0  0  0
 35 23  1  0  0  0  0
 39 28  1  0  0  0  0
 42 33  1  0  0  0  0
 43 34  1  0  0  0  0
 44 57  1  0  0  0  0
 45 46  2  0  0  0  0
 45 44  1  0  0  0  0
 46 58  1  0  0  0  0
 47 59  1  0  0  0  0
 47 45  1  0  0  0  0
 48 61  1  0  0  0  0
 48 47  1  0  0  0  0
 49 48  1  0  0  0  0
 49 63  1  0  0  0  0
 50 65  1  0  0  0  0
 50 49  1  0  0  0  0
 51 66  1  6  0  0  0
 51 52  1  0  0  0  0
 51 50  1  0  0  0  0
 52 67  1  0  0  0  0
 53 51  1  0  0  0  0
 54 53  2  0  0  0  0
 55 53  1  0  0  0  0
 56 44  1  0  0  0  0
 60 48  1  0  0  0  0
 62 49  1  0  0  0  0
 64 50  1  0  0  0  0
M  END
$$$$
