WWE.pdb
     RDKit          3D

 38 41  0  0  1  0  0  0  0  0999 V2000
   29.0873  -20.8299  -15.2562 N   0  0  0  0  0  0  0  0  0  0  0  0
   28.0684  -20.1288  -14.5054 C   0  0  1  0  0  0  0  0  0  0  0  0
   27.1067  -19.3654  -15.4189 C   0  0  0  0  0  0  0  0  0  0  0  0
   27.8264  -18.1996  -15.9803 C   0  0  0  0  0  0  0  0  0  0  0  0
   28.7233  -18.2054  -17.0404 C   0  0  0  0  0  0  0  0  0  0  0  0
   29.1514  -16.9308  -17.2363 N   0  0  0  0  0  0  0  0  0  0  0  0
   28.5794  -16.1092  -16.3629 C   0  0  0  0  0  0  0  0  0  0  0  0
   28.6365  -14.7659  -16.0953 C   0  0  0  0  0  0  0  0  0  0  0  0
   27.8866  -14.2123  -15.0685 C   0  0  0  0  0  0  0  0  0  0  0  0
   27.0652  -14.9813  -14.2866 C   0  0  0  0  0  0  0  0  0  0  0  0
   27.0097  -16.3423  -14.5605 C   0  0  0  0  0  0  0  0  0  0  0  0
   27.7446  -16.8904  -15.5676 C   0  0  0  0  0  0  0  0  0  0  0  0
   27.2294  -21.1856  -13.8611 C   0  0  0  0  0  0  0  0  0  0  0  0
   26.9515  -22.2511  -14.4576 O   0  0  0  0  0  0  0  0  0  0  0  0
   26.6889  -21.0572  -12.5427 N   0  0  0  0  0  0  0  0  0  0  0  0
   25.6011  -21.8977  -12.1109 C   0  0  1  0  0  0  0  0  0  0  0  0
   25.7586  -22.2318  -10.6527 C   0  0  0  0  0  0  0  0  0  0  0  0
   26.1762  -21.0919   -9.8240 C   0  0  0  0  0  0  0  0  0  0  0  0
   25.3617  -20.0205   -9.4966 C   0  0  0  0  0  0  0  0  0  0  0  0
   26.0795  -19.2261   -8.6921 N   0  0  0  0  0  0  0  0  0  0  0  0
   27.3055  -19.7289   -8.4895 C   0  0  0  0  0  0  0  0  0  0  0  0
   28.4096  -19.3097   -7.7691 C   0  0  0  0  0  0  0  0  0  0  0  0
   29.5564  -20.0685   -7.7716 C   0  0  0  0  0  0  0  0  0  0  0  0
   29.6583  -21.2472   -8.4721 C   0  0  0  0  0  0  0  0  0  0  0  0
   28.5576  -21.6597   -9.1878 C   0  0  0  0  0  0  0  0  0  0  0  0
   27.3967  -20.9104   -9.1941 C   0  0  0  0  0  0  0  0  0  0  0  0
   24.2940  -21.1723  -12.2524 C   0  0  0  0  0  0  0  0  0  0  0  0
   24.3260  -19.9274  -12.0862 O   0  0  0  0  0  0  0  0  0  0  0  0
   23.0698  -21.7674  -12.5529 N   0  0  0  0  0  0  0  0  0  0  0  0
   21.8878  -20.9569  -12.8249 C   0  0  1  0  0  0  0  0  0  0  0  0
   21.4163  -21.1593  -14.2157 C   0  0  0  0  0  0  0  0  0  0  0  0
   20.3274  -22.1285  -14.4596 C   0  0  0  0  0  0  0  0  0  0  0  0
   20.3450  -22.7709  -15.7908 C   0  0  0  0  0  0  0  0  0  0  0  0
   21.3782  -23.3600  -16.1697 O   0  0  0  0  0  0  0  0  0  0  0  0
   20.9368  -21.0207  -11.7430 C   0  0  0  0  0  0  0  0  0  0  0  0
   20.0934  -20.0660  -11.6408 O   0  0  0  0  0  0  0  0  0  0  0  0
   19.2168  -22.7184  -16.6194 O   0  0  0  0  0  0  0  0  0  0  0  0
   20.8411  -22.0186  -10.7881 O   0  0  0  0  0  0  0  0  0  0  0  0
  2  1  1  6
  3  2  1  0
  4  5  2  0
  4  3  1  0
  6  5  1  0
  7 12  2  0
  7  6  1  0
  8  7  1  0
  9 10  1  0
  9  8  2  0
 10 11  2  0
 11 12  1  0
 12  4  1  0
 13  2  1  0
 14 13  2  0
 15 13  1  0
 16 15  1  0
 16 17  1  1
 18 19  2  0
 18 17  1  0
 20 19  1  0
 21 26  2  0
 21 20  1  0
 22 21  1  0
 23 24  1  0
 23 22  2  0
 24 25  2  0
 25 26  1  0
 26 18  1  0
 27 29  1  0
 27 16  1  0
 28 27  2  0
 30 29  1  0
 30 31  1  6
 31 32  1  0
 32 33  1  0
 33 37  1  0
 34 33  2  0
 35 38  1  0
 35 30  1  0
 36 35  2  0
M  END
$$$$
