WWE.pdb
     RDKit          3D

 38 41  0  0  1  0  0  0  0  0999 V2000
   27.5214  -21.3504  -14.7931 N   0  0  0  0  0  0  0  0  0  0  0  0
   27.2243  -20.2493  -13.9029 C   0  0  1  0  0  0  0  0  0  0  0  0
   25.8957  -19.5738  -14.2504 C   0  0  0  0  0  0  0  0  0  0  0  0
   26.0121  -18.9903  -15.6063 C   0  0  0  0  0  0  0  0  0  0  0  0
   25.1620  -19.2073  -16.6827 C   0  0  0  0  0  0  0  0  0  0  0  0
   25.6228  -18.4824  -17.7354 N   0  0  0  0  0  0  0  0  0  0  0  0
   26.7187  -17.8132  -17.3946 C   0  0  0  0  0  0  0  0  0  0  0  0
   27.5839  -16.9583  -18.0269 C   0  0  0  0  0  0  0  0  0  0  0  0
   28.6733  -16.4233  -17.3560 C   0  0  0  0  0  0  0  0  0  0  0  0
   28.9257  -16.7265  -16.0439 C   0  0  0  0  0  0  0  0  0  0  0  0
   28.0469  -17.5932  -15.4060 C   0  0  0  0  0  0  0  0  0  0  0  0
   26.9759  -18.1213  -16.0609 C   0  0  0  0  0  0  0  0  0  0  0  0
   27.0057  -20.8561  -12.5540 C   0  0  0  0  0  0  0  0  0  0  0  0
   26.3409  -21.9080  -12.4121 O   0  0  0  0  0  0  0  0  0  0  0  0
   27.5263  -20.2877  -11.3487 N   0  0  0  0  0  0  0  0  0  0  0  0
   26.8883  -20.5428  -10.0821 C   0  0  1  0  0  0  0  0  0  0  0  0
   27.3454  -19.5333   -9.0649 C   0  0  0  0  0  0  0  0  0  0  0  0
   26.9365  -19.8497   -7.6890 C   0  0  0  0  0  0  0  0  0  0  0  0
   25.6227  -19.8983   -7.2530 C   0  0  0  0  0  0  0  0  0  0  0  0
   25.6600  -20.2692   -5.9668 N   0  0  0  0  0  0  0  0  0  0  0  0
   26.9224  -20.4580   -5.5574 C   0  0  0  0  0  0  0  0  0  0  0  0
   27.4983  -20.8260   -4.3546 C   0  0  0  0  0  0  0  0  0  0  0  0
   28.8661  -20.9240   -4.2527 C   0  0  0  0  0  0  0  0  0  0  0  0
   29.7040  -20.6667   -5.3120 C   0  0  0  0  0  0  0  0  0  0  0  0
   29.1265  -20.3002   -6.5062 C   0  0  0  0  0  0  0  0  0  0  0  0
   27.7537  -20.1994   -6.6263 C   0  0  0  0  0  0  0  0  0  0  0  0
   25.3998  -20.3901  -10.2082 C   0  0  0  0  0  0  0  0  0  0  0  0
   24.9926  -19.3531  -10.7888 O   0  0  0  0  0  0  0  0  0  0  0  0
   24.4532  -21.3000   -9.7399 N   0  0  0  0  0  0  0  0  0  0  0  0
   23.0261  -21.0598   -9.9235 C   0  0  1  0  0  0  0  0  0  0  0  0
   22.5680  -21.5729  -11.2367 C   0  0  0  0  0  0  0  0  0  0  0  0
   21.1271  -21.5053  -11.5591 C   0  0  0  0  0  0  0  0  0  0  0  0
   20.6809  -22.4160  -12.6346 C   0  0  0  0  0  0  0  0  0  0  0  0
   21.5265  -23.1105  -13.2351 O   0  0  0  0  0  0  0  0  0  0  0  0
   22.2733  -21.3876   -8.7382 C   0  0  0  0  0  0  0  0  0  0  0  0
   22.8817  -22.0178   -7.8076 O   0  0  0  0  0  0  0  0  0  0  0  0
   19.3255  -22.4982  -12.9783 O   0  0  0  0  0  0  0  0  0  0  0  0
   20.9423  -21.0907   -8.4993 O   0  0  0  0  0  0  0  0  0  0  0  0
  2  1  1  6
  3  2  1  0
  4  5  2  0
  4  3  1  0
  6  5  1  0
  7 12  2  0
  7  6  1  0
  8  7  1  0
  9 10  1  0
  9  8  2  0
 10 11  2  0
 11 12  1  0
 12  4  1  0
 13  2  1  0
 14 13  2  0
 15 13  1  0
 16 15  1  0
 16 17  1  1
 18 19  2  0
 18 17  1  0
 20 19  1  0
 21 26  2  0
 21 20  1  0
 22 21  1  0
 23 24  1  0
 23 22  2  0
 24 25  2  0
 25 26  1  0
 26 18  1  0
 27 29  1  0
 27 16  1  0
 28 27  2  0
 30 29  1  0
 30 31  1  6
 31 32  1  0
 32 33  1  0
 33 37  1  0
 34 33  2  0
 35 38  1  0
 35 30  1  0
 36 35  2  0
M  END
$$$$
