WWE.pdb
     RDKit          3D

 38 41  0  0  1  0  0  0  0  0999 V2000
   26.8709  -19.1193  -17.6206 N   0  0  0  0  0  0  0  0  0  0  0  0
   26.6059  -18.3434  -16.4286 C   0  0  1  0  0  0  0  0  0  0  0  0
   25.4272  -17.3859  -16.6183 C   0  0  0  0  0  0  0  0  0  0  0  0
   25.9177  -16.1793  -17.3225 C   0  0  0  0  0  0  0  0  0  0  0  0
   25.7271  -15.8601  -18.6605 C   0  0  0  0  0  0  0  0  0  0  0  0
   26.3345  -14.6684  -18.8993 N   0  0  0  0  0  0  0  0  0  0  0  0
   26.9023  -14.2059  -17.7908 C   0  0  0  0  0  0  0  0  0  0  0  0
   27.6308  -13.0958  -17.4501 C   0  0  0  0  0  0  0  0  0  0  0  0
   28.0952  -12.9190  -16.1554 C   0  0  0  0  0  0  0  0  0  0  0  0
   27.8457  -13.8410  -15.1730 C   0  0  0  0  0  0  0  0  0  0  0  0
   27.1071  -14.9649  -15.5216 C   0  0  0  0  0  0  0  0  0  0  0  0
   26.6493  -15.1429  -16.7920 C   0  0  0  0  0  0  0  0  0  0  0  0
   26.1454  -19.3198  -15.3941 C   0  0  0  0  0  0  0  0  0  0  0  0
   25.2835  -20.1897  -15.6564 O   0  0  0  0  0  0  0  0  0  0  0  0
   26.6428  -19.3285  -14.0527 N   0  0  0  0  0  0  0  0  0  0  0  0
   26.0215  -20.1504  -13.0453 C   0  0  1  0  0  0  0  0  0  0  0  0
   26.7105  -19.9501  -11.7232 C   0  0  0  0  0  0  0  0  0  0  0  0
   26.1330  -20.7407  -10.6268 C   0  0  0  0  0  0  0  0  0  0  0  0
   25.6852  -22.0454  -10.7523 C   0  0  0  0  0  0  0  0  0  0  0  0
   25.2855  -22.4315   -9.5339 N   0  0  0  0  0  0  0  0  0  0  0  0
   25.4512  -21.4469   -8.6393 C   0  0  0  0  0  0  0  0  0  0  0  0
   25.1964  -21.3255   -7.2850 C   0  0  0  0  0  0  0  0  0  0  0  0
   25.4774  -20.1443   -6.6393 C   0  0  0  0  0  0  0  0  0  0  0  0
   26.0093  -19.0569   -7.2912 C   0  0  0  0  0  0  0  0  0  0  0  0
   26.2602  -19.1823   -8.6385 C   0  0  0  0  0  0  0  0  0  0  0  0
   25.9860  -20.3628   -9.3021 C   0  0  0  0  0  0  0  0  0  0  0  0
   24.5879  -19.7465  -12.8545 C   0  0  0  0  0  0  0  0  0  0  0  0
   24.3388  -18.5179  -12.9368 O   0  0  0  0  0  0  0  0  0  0  0  0
   23.5310  -20.6194  -12.6008 N   0  0  0  0  0  0  0  0  0  0  0  0
   22.1729  -20.1200  -12.4159 C   0  0  1  0  0  0  0  0  0  0  0  0
   21.6868  -19.4431  -13.6419 C   0  0  0  0  0  0  0  0  0  0  0  0
   21.2035  -20.2742  -14.7646 C   0  0  0  0  0  0  0  0  0  0  0  0
   21.7540  -19.9205  -16.0901 C   0  0  0  0  0  0  0  0  0  0  0  0
   22.4453  -20.7575  -16.7061 O   0  0  0  0  0  0  0  0  0  0  0  0
   21.3299  -21.0944  -11.7685 C   0  0  0  0  0  0  0  0  0  0  0  0
   21.5910  -22.3289  -11.9711 O   0  0  0  0  0  0  0  0  0  0  0  0
   21.5053  -18.6603  -16.6488 O   0  0  0  0  0  0  0  0  0  0  0  0
   20.2512  -20.8308  -10.9418 O   0  0  0  0  0  0  0  0  0  0  0  0
  2  1  1  6
  3  2  1  0
  4  5  2  0
  4  3  1  0
  6  5  1  0
  7 12  2  0
  7  6  1  0
  8  7  1  0
  9 10  1  0
  9  8  2  0
 10 11  2  0
 11 12  1  0
 12  4  1  0
 13  2  1  0
 14 13  2  0
 15 13  1  0
 16 15  1  0
 16 17  1  1
 18 19  2  0
 18 17  1  0
 20 19  1  0
 21 26  2  0
 21 20  1  0
 22 21  1  0
 23 24  1  0
 23 22  2  0
 24 25  2  0
 25 26  1  0
 26 18  1  0
 27 29  1  0
 27 16  1  0
 28 27  2  0
 30 29  1  0
 30 31  1  6
 31 32  1  0
 32 33  1  0
 33 37  1  0
 34 33  2  0
 35 38  1  0
 35 30  1  0
 36 35  2  0
M  END
$$$$
