WWE.pdb
     RDKit          3D

 38 41  0  0  1  0  0  0  0  0999 V2000
   26.6927  -21.8608  -14.9467 N   0  0  0  0  0  0  0  0  0  0  0  0
   26.9725  -20.7245  -14.0960 C   0  0  1  0  0  0  0  0  0  0  0  0
   26.0981  -19.5180  -14.4454 C   0  0  0  0  0  0  0  0  0  0  0  0
   26.5244  -19.0023  -15.7663 C   0  0  0  0  0  0  0  0  0  0  0  0
   25.7255  -18.8208  -16.8874 C   0  0  0  0  0  0  0  0  0  0  0  0
   26.5055  -18.3268  -17.8843 N   0  0  0  0  0  0  0  0  0  0  0  0
   27.7579  -18.1810  -17.4654 C   0  0  0  0  0  0  0  0  0  0  0  0
   28.9343  -17.7468  -18.0191 C   0  0  0  0  0  0  0  0  0  0  0  0
   30.1059  -17.7285  -17.2774 C   0  0  0  0  0  0  0  0  0  0  0  0
   30.1330  -18.1411  -15.9711 C   0  0  0  0  0  0  0  0  0  0  0  0
   28.9389  -18.5805  -15.4130 C   0  0  0  0  0  0  0  0  0  0  0  0
   27.7860  -18.6006  -16.1377 C   0  0  0  0  0  0  0  0  0  0  0  0
   26.5450  -21.1234  -12.7199 C   0  0  0  0  0  0  0  0  0  0  0  0
   25.5976  -21.9218  -12.5372 O   0  0  0  0  0  0  0  0  0  0  0  0
   27.1722  -20.6279  -11.5333 N   0  0  0  0  0  0  0  0  0  0  0  0
   26.5922  -20.8777  -10.2381 C   0  0  1  0  0  0  0  0  0  0  0  0
   27.4372  -20.2443   -9.1668 C   0  0  0  0  0  0  0  0  0  0  0  0
   26.9230  -20.4506   -7.8054 C   0  0  0  0  0  0  0  0  0  0  0  0
   25.7546  -21.1302   -7.5031 C   0  0  0  0  0  0  0  0  0  0  0  0
   25.6590  -21.1514   -6.1676 N   0  0  0  0  0  0  0  0  0  0  0  0
   26.6987  -20.5226   -5.6012 C   0  0  0  0  0  0  0  0  0  0  0  0
   27.0674  -20.2599   -4.2940 C   0  0  0  0  0  0  0  0  0  0  0  0
   28.2234  -19.5610   -4.0367 C   0  0  0  0  0  0  0  0  0  0  0  0
   29.0448  -19.1013   -5.0388 C   0  0  0  0  0  0  0  0  0  0  0  0
   28.6734  -19.3645   -6.3376 C   0  0  0  0  0  0  0  0  0  0  0  0
   27.5164  -20.0675   -6.6136 C   0  0  0  0  0  0  0  0  0  0  0  0
   25.2311  -20.2501  -10.1467 C   0  0  0  0  0  0  0  0  0  0  0  0
   25.1735  -19.0112  -10.3469 O   0  0  0  0  0  0  0  0  0  0  0  0
   24.0470  -20.9295   -9.8645 N   0  0  0  0  0  0  0  0  0  0  0  0
   22.7504  -20.3433  -10.1859 C   0  0  1  0  0  0  0  0  0  0  0  0
   22.3895  -20.6009  -11.6004 C   0  0  0  0  0  0  0  0  0  0  0  0
   21.0662  -20.1554  -12.0853 C   0  0  0  0  0  0  0  0  0  0  0  0
   20.7706  -20.4849  -13.4956 C   0  0  0  0  0  0  0  0  0  0  0  0
   20.0989  -19.6862  -14.1804 O   0  0  0  0  0  0  0  0  0  0  0  0
   21.7779  -20.6012   -9.1531 C   0  0  0  0  0  0  0  0  0  0  0  0
   21.9271  -21.6593   -8.4521 O   0  0  0  0  0  0  0  0  0  0  0  0
   21.2366  -21.6802  -14.0581 O   0  0  0  0  0  0  0  0  0  0  0  0
   20.6829  -19.8149   -8.8379 O   0  0  0  0  0  0  0  0  0  0  0  0
  2  1  1  6
  3  2  1  0
  4  5  2  0
  4  3  1  0
  6  5  1  0
  7 12  2  0
  7  6  1  0
  8  7  1  0
  9 10  1  0
  9  8  2  0
 10 11  2  0
 11 12  1  0
 12  4  1  0
 13  2  1  0
 14 13  2  0
 15 13  1  0
 16 15  1  0
 16 17  1  1
 18 19  2  0
 18 17  1  0
 20 19  1  0
 21 26  2  0
 21 20  1  0
 22 21  1  0
 23 24  1  0
 23 22  2  0
 24 25  2  0
 25 26  1  0
 26 18  1  0
 27 29  1  0
 27 16  1  0
 28 27  2  0
 30 29  1  0
 30 31  1  6
 31 32  1  0
 32 33  1  0
 33 37  1  0
 34 33  2  0
 35 38  1  0
 35 30  1  0
 36 35  2  0
M  END
$$$$
