WWE.pdb
     RDKit          3D

 38 41  0  0  1  0  0  0  0  0999 V2000
   28.7789  -21.5105  -13.2701 N   0  0  0  0  0  0  0  0  0  0  0  0
   27.8421  -20.4442  -12.9901 C   0  0  1  0  0  0  0  0  0  0  0  0
   26.9556  -20.1285  -14.1971 C   0  0  0  0  0  0  0  0  0  0  0  0
   27.7655  -19.3799  -15.1849 C   0  0  0  0  0  0  0  0  0  0  0  0
   28.4655  -19.9091  -16.2612 C   0  0  0  0  0  0  0  0  0  0  0  0
   29.0696  -18.8830  -16.9156 N   0  0  0  0  0  0  0  0  0  0  0  0
   28.7960  -17.7271  -16.3205 C   0  0  0  0  0  0  0  0  0  0  0  0
   29.1261  -16.4130  -16.5288 C   0  0  0  0  0  0  0  0  0  0  0  0
   28.6581  -15.4190  -15.6826 C   0  0  0  0  0  0  0  0  0  0  0  0
   27.8532  -15.7097  -14.6125 C   0  0  0  0  0  0  0  0  0  0  0  0
   27.5206  -17.0425  -14.4043 C   0  0  0  0  0  0  0  0  0  0  0  0
   27.9782  -18.0222  -15.2325 C   0  0  0  0  0  0  0  0  0  0  0  0
   26.9053  -20.9787  -11.9545 C   0  0  0  0  0  0  0  0  0  0  0  0
   26.4459  -22.1414  -12.0287 O   0  0  0  0  0  0  0  0  0  0  0  0
   26.4697  -20.2138  -10.8266 N   0  0  0  0  0  0  0  0  0  0  0  0
   25.5283  -20.7656   -9.8855 C   0  0  1  0  0  0  0  0  0  0  0  0
   25.6292  -20.0382   -8.5727 C   0  0  0  0  0  0  0  0  0  0  0  0
   26.9508  -20.1397   -7.9375 C   0  0  0  0  0  0  0  0  0  0  0  0
   28.1540  -20.1177   -8.6233 C   0  0  0  0  0  0  0  0  0  0  0  0
   29.1218  -20.1780   -7.6997 N   0  0  0  0  0  0  0  0  0  0  0  0
   28.6044  -20.2389   -6.4645 C   0  0  0  0  0  0  0  0  0  0  0  0
   29.1506  -20.3224   -5.1963 C   0  0  0  0  0  0  0  0  0  0  0  0
   28.3248  -20.3809   -4.0983 C   0  0  0  0  0  0  0  0  0  0  0  0
   26.9542  -20.3611   -4.2056 C   0  0  0  0  0  0  0  0  0  0  0  0
   26.4155  -20.2789   -5.4693 C   0  0  0  0  0  0  0  0  0  0  0  0
   27.2311  -20.2169   -6.5830 C   0  0  0  0  0  0  0  0  0  0  0  0
   24.1237  -20.5759  -10.3813 C   0  0  0  0  0  0  0  0  0  0  0  0
   23.9189  -19.5704  -11.1060 O   0  0  0  0  0  0  0  0  0  0  0  0
   23.0498  -21.4205  -10.1045 N   0  0  0  0  0  0  0  0  0  0  0  0
   21.7383  -21.1867  -10.6989 C   0  0  1  0  0  0  0  0  0  0  0  0
   20.9047  -22.4111  -10.6395 C   0  0  0  0  0  0  0  0  0  0  0  0
   19.8647  -22.5088   -9.5938 C   0  0  0  0  0  0  0  0  0  0  0  0
   19.0711  -23.7558   -9.6120 C   0  0  0  0  0  0  0  0  0  0  0  0
   19.3205  -24.6245  -10.4728 O   0  0  0  0  0  0  0  0  0  0  0  0
   21.1751  -19.9302  -10.2708 C   0  0  0  0  0  0  0  0  0  0  0  0
   21.7625  -19.3139   -9.3177 O   0  0  0  0  0  0  0  0  0  0  0  0
   18.0493  -23.9607   -8.6761 O   0  0  0  0  0  0  0  0  0  0  0  0
   20.0485  -19.3137  -10.7878 O   0  0  0  0  0  0  0  0  0  0  0  0
  2  1  1  6
  3  2  1  0
  4  5  2  0
  4  3  1  0
  6  5  1  0
  7 12  2  0
  7  6  1  0
  8  7  1  0
  9 10  1  0
  9  8  2  0
 10 11  2  0
 11 12  1  0
 12  4  1  0
 13  2  1  0
 14 13  2  0
 15 13  1  0
 16 15  1  0
 16 17  1  1
 18 19  2  0
 18 17  1  0
 20 19  1  0
 21 26  2  0
 21 20  1  0
 22 21  1  0
 23 24  1  0
 23 22  2  0
 24 25  2  0
 25 26  1  0
 26 18  1  0
 27 29  1  0
 27 16  1  0
 28 27  2  0
 30 29  1  0
 30 31  1  1
 31 32  1  0
 32 33  1  0
 33 37  1  0
 34 33  2  0
 35 38  1  0
 35 30  1  0
 36 35  2  0
M  END
$$$$
