WWE.pdb
     RDKit          3D

 38 41  0  0  1  0  0  0  0  0999 V2000
   26.3722  -21.4777  -13.7584 N   0  0  0  0  0  0  0  0  0  0  0  0
   25.3189  -20.7244  -13.1131 C   0  0  1  0  0  0  0  0  0  0  0  0
   23.9541  -20.9811  -13.7562 C   0  0  0  0  0  0  0  0  0  0  0  0
   23.9045  -20.2553  -15.0458 C   0  0  0  0  0  0  0  0  0  0  0  0
   24.5715  -20.5902  -16.2168 C   0  0  0  0  0  0  0  0  0  0  0  0
   24.2512  -19.6681  -17.1620 N   0  0  0  0  0  0  0  0  0  0  0  0
   23.4168  -18.7624  -16.6634 C   0  0  0  0  0  0  0  0  0  0  0  0
   22.7882  -17.6401  -17.1373 C   0  0  0  0  0  0  0  0  0  0  0  0
   21.9569  -16.8907  -16.3185 C   0  0  0  0  0  0  0  0  0  0  0  0
   21.7331  -17.2404  -15.0127 C   0  0  0  0  0  0  0  0  0  0  0  0
   22.3717  -18.3784  -14.5356 C   0  0  0  0  0  0  0  0  0  0  0  0
   23.1893  -19.1172  -15.3360 C   0  0  0  0  0  0  0  0  0  0  0  0
   25.2023  -21.2791  -11.7295 C   0  0  0  0  0  0  0  0  0  0  0  0
   25.2220  -22.5134  -11.5181 O   0  0  0  0  0  0  0  0  0  0  0  0
   25.0577  -20.4562  -10.5682 N   0  0  0  0  0  0  0  0  0  0  0  0
   24.8853  -21.0488   -9.2661 C   0  0  1  0  0  0  0  0  0  0  0  0
   25.4458  -20.1369   -8.2092 C   0  0  0  0  0  0  0  0  0  0  0  0
   26.8935  -20.2858   -8.0032 C   0  0  0  0  0  0  0  0  0  0  0  0
   27.7427  -20.9602   -8.8648 C   0  0  0  0  0  0  0  0  0  0  0  0
   28.9782  -20.8285   -8.3652 N   0  0  0  0  0  0  0  0  0  0  0  0
   28.9648  -20.1102   -7.2334 C   0  0  0  0  0  0  0  0  0  0  0  0
   29.9408  -19.7025   -6.3418 C   0  0  0  0  0  0  0  0  0  0  0  0
   29.5918  -18.9613   -5.2374 C   0  0  0  0  0  0  0  0  0  0  0  0
   28.2917  -18.6008   -4.9730 C   0  0  0  0  0  0  0  0  0  0  0  0
   27.3242  -19.0094   -5.8624 C   0  0  0  0  0  0  0  0  0  0  0  0
   27.6580  -19.7527   -6.9783 C   0  0  0  0  0  0  0  0  0  0  0  0
   23.4252  -21.2222   -8.9616 C   0  0  0  0  0  0  0  0  0  0  0  0
   22.6320  -20.4783   -9.5905 O   0  0  0  0  0  0  0  0  0  0  0  0
   22.8940  -22.1343   -8.0510 N   0  0  0  0  0  0  0  0  0  0  0  0
   21.4520  -22.2632   -7.8720 C   0  0  1  0  0  0  0  0  0  0  0  0
   21.1248  -23.4572   -7.0567 C   0  0  0  0  0  0  0  0  0  0  0  0
   19.7031  -23.8036   -6.8482 C   0  0  0  0  0  0  0  0  0  0  0  0
   19.3817  -24.3633   -5.5184 C   0  0  0  0  0  0  0  0  0  0  0  0
   20.2141  -25.0989   -4.9492 O   0  0  0  0  0  0  0  0  0  0  0  0
   20.8399  -20.9990   -7.5462 C   0  0  0  0  0  0  0  0  0  0  0  0
   21.4979  -20.2000   -6.7965 O   0  0  0  0  0  0  0  0  0  0  0  0
   18.1567  -24.0741   -4.9037 O   0  0  0  0  0  0  0  0  0  0  0  0
   19.5968  -20.5540   -7.9624 O   0  0  0  0  0  0  0  0  0  0  0  0
  2  1  1  6
  3  2  1  0
  4  5  2  0
  4  3  1  0
  6  5  1  0
  7 12  2  0
  7  6  1  0
  8  7  1  0
  9 10  1  0
  9  8  2  0
 10 11  2  0
 11 12  1  0
 12  4  1  0
 13  2  1  0
 14 13  2  0
 15 13  1  0
 16 15  1  0
 16 17  1  1
 18 19  2  0
 18 17  1  0
 20 19  1  0
 21 26  2  0
 21 20  1  0
 22 21  1  0
 23 24  1  0
 23 22  2  0
 24 25  2  0
 25 26  1  0
 26 18  1  0
 27 29  1  0
 27 16  1  0
 28 27  2  0
 30 29  1  0
 30 31  1  1
 31 32  1  0
 32 33  1  0
 33 37  1  0
 34 33  2  0
 35 38  1  0
 35 30  1  0
 36 35  2  0
M  END
$$$$
