WWE.pdb
     RDKit          3D

 38 41  0  0  1  0  0  0  0  0999 V2000
   17.2668  -17.2510    2.7931 N   0  0  0  0  0  0  0  0  0  0  0  0
   16.7188  -16.4931    3.8970 C   0  0  1  0  0  0  0  0  0  0  0  0
   16.1269  -17.4009    4.9776 C   0  0  0  0  0  0  0  0  0  0  0  0
   15.0560  -18.2177    4.3626 C   0  0  0  0  0  0  0  0  0  0  0  0
   14.0291  -17.7658    3.5443 C   0  0  0  0  0  0  0  0  0  0  0  0
   13.2686  -18.8359    3.1938 N   0  0  0  0  0  0  0  0  0  0  0  0
   13.7500  -19.9470    3.7403 C   0  0  0  0  0  0  0  0  0  0  0  0
   13.4017  -21.2728    3.7390 C   0  0  0  0  0  0  0  0  0  0  0  0
   14.1451  -22.2047    4.4474 C   0  0  0  0  0  0  0  0  0  0  0  0
   15.2493  -21.8390    5.1716 C   0  0  0  0  0  0  0  0  0  0  0  0
   15.5996  -20.4945    5.1709 C   0  0  0  0  0  0  0  0  0  0  0  0
   14.8722  -19.5757    4.4769 C   0  0  0  0  0  0  0  0  0  0  0  0
   17.8815  -15.8209    4.5541 C   0  0  0  0  0  0  0  0  0  0  0  0
   18.9380  -16.4444    4.8062 O   0  0  0  0  0  0  0  0  0  0  0  0
   17.8708  -14.4432    4.9399 N   0  0  0  0  0  0  0  0  0  0  0  0
   19.0027  -13.8621    5.6163 C   0  0  1  0  0  0  0  0  0  0  0  0
   18.8032  -12.3789    5.7685 C   0  0  0  0  0  0  0  0  0  0  0  0
   19.9474  -11.6852    6.3767 C   0  0  0  0  0  0  0  0  0  0  0  0
   21.2201  -11.6451    5.8315 C   0  0  0  0  0  0  0  0  0  0  0  0
   21.9602  -10.8794    6.6434 N   0  0  0  0  0  0  0  0  0  0  0  0
   21.2326  -10.4305    7.6760 C   0  0  0  0  0  0  0  0  0  0  0  0
   21.5092   -9.6347    8.7732 C   0  0  0  0  0  0  0  0  0  0  0  0
   20.5177   -9.3583    9.6852 C   0  0  0  0  0  0  0  0  0  0  0  0
   19.2394   -9.8474    9.5544 C   0  0  0  0  0  0  0  0  0  0  0  0
   18.9693  -10.6393    8.4617 C   0  0  0  0  0  0  0  0  0  0  0  0
   19.9534  -10.9247    7.5347 C   0  0  0  0  0  0  0  0  0  0  0  0
   19.1294  -14.4285    7.0011 C   0  0  0  0  0  0  0  0  0  0  0  0
   18.0568  -14.7344    7.5791 O   0  0  0  0  0  0  0  0  0  0  0  0
   20.3288  -14.6396    7.6795 N   0  0  0  0  0  0  0  0  0  0  0  0
   20.3448  -15.2520    9.0034 C   0  0  1  0  0  0  0  0  0  0  0  0
   21.3154  -16.3713    9.0568 C   0  0  0  0  0  0  0  0  0  0  0  0
   21.4901  -17.0958   10.3331 C   0  0  0  0  0  0  0  0  0  0  0  0
   22.2798  -18.3423   10.2446 C   0  0  0  0  0  0  0  0  0  0  0  0
   22.7792  -18.6710    9.1489 O   0  0  0  0  0  0  0  0  0  0  0  0
   20.3560  -14.2600   10.0498 C   0  0  0  0  0  0  0  0  0  0  0  0
   20.4910  -13.0374    9.7031 O   0  0  0  0  0  0  0  0  0  0  0  0
   22.4647  -19.1473   11.3759 O   0  0  0  0  0  0  0  0  0  0  0  0
   20.2374  -14.4950   11.4089 O   0  0  0  0  0  0  0  0  0  0  0  0
  2  1  1  6
  3  2  1  0
  4  5  2  0
  4  3  1  0
  6  5  1  0
  7 12  2  0
  7  6  1  0
  8  7  1  0
  9 10  1  0
  9  8  2  0
 10 11  2  0
 11 12  1  0
 12  4  1  0
 13  2  1  0
 14 13  2  0
 15 13  1  0
 16 15  1  0
 16 17  1  1
 18 19  2  0
 18 17  1  0
 20 19  1  0
 21 26  2  0
 21 20  1  0
 22 21  1  0
 23 24  1  0
 23 22  2  0
 24 25  2  0
 25 26  1  0
 26 18  1  0
 27 29  1  0
 27 16  1  0
 28 27  2  0
 30 29  1  0
 30 31  1  6
 31 32  1  0
 32 33  1  0
 33 37  1  0
 34 33  2  0
 35 38  1  0
 35 30  1  0
 36 35  2  0
M  END
$$$$
