WWE.pdb
     RDKit          3D

 38 41  0  0  1  0  0  0  0  0999 V2000
   27.5161  -20.6374  -17.1831 N   0  0  0  0  0  0  0  0  0  0  0  0
   27.7668  -19.7601  -16.0602 C   0  0  1  0  0  0  0  0  0  0  0  0
   27.0815  -18.4022  -16.2297 C   0  0  0  0  0  0  0  0  0  0  0  0
   27.6668  -17.7310  -17.4126 C   0  0  0  0  0  0  0  0  0  0  0  0
   26.9880  -17.2870  -18.5396 C   0  0  0  0  0  0  0  0  0  0  0  0
   27.8942  -16.7272  -19.3832 N   0  0  0  0  0  0  0  0  0  0  0  0
   29.1141  -16.7867  -18.8606 C   0  0  0  0  0  0  0  0  0  0  0  0
   30.3698  -16.3995  -19.2511 C   0  0  0  0  0  0  0  0  0  0  0  0
   31.4698  -16.6270  -18.4380 C   0  0  0  0  0  0  0  0  0  0  0  0
   31.3453  -17.2438  -17.2208 C   0  0  0  0  0  0  0  0  0  0  0  0
   30.0713  -17.6350  -16.8280 C   0  0  0  0  0  0  0  0  0  0  0  0
   28.9881  -17.4140  -17.6235 C   0  0  0  0  0  0  0  0  0  0  0  0
   27.0887  -20.3889  -14.8853 C   0  0  0  0  0  0  0  0  0  0  0  0
   26.1117  -21.1588  -15.0314 O   0  0  0  0  0  0  0  0  0  0  0  0
   27.4957  -20.1578  -13.5333 N   0  0  0  0  0  0  0  0  0  0  0  0
   26.7297  -20.6909  -12.4354 C   0  0  1  0  0  0  0  0  0  0  0  0
   27.4355  -20.4153  -11.1359 C   0  0  0  0  0  0  0  0  0  0  0  0
   26.6182  -20.6917   -9.9459 C   0  0  0  0  0  0  0  0  0  0  0  0
   25.6322  -21.6622   -9.8801 C   0  0  0  0  0  0  0  0  0  0  0  0
   25.1592  -21.6426   -8.6274 N   0  0  0  0  0  0  0  0  0  0  0  0
   25.7860  -20.7138   -7.8915 C   0  0  0  0  0  0  0  0  0  0  0  0
   25.6744  -20.2906   -6.5792 C   0  0  0  0  0  0  0  0  0  0  0  0
   26.4801  -19.2769   -6.1165 C   0  0  0  0  0  0  0  0  0  0  0  0
   27.4090  -18.6517   -6.9145 C   0  0  0  0  0  0  0  0  0  0  0  0
   27.5158  -19.0757   -8.2194 C   0  0  0  0  0  0  0  0  0  0  0  0
   26.7155  -20.0946   -8.6996 C   0  0  0  0  0  0  0  0  0  0  0  0
   25.3918  -20.0137  -12.3561 C   0  0  0  0  0  0  0  0  0  0  0  0
   25.3929  -18.7620  -12.4627 O   0  0  0  0  0  0  0  0  0  0  0  0
   24.1697  -20.6606  -12.1795 N   0  0  0  0  0  0  0  0  0  0  0  0
   22.9190  -19.9101  -12.1598 C   0  0  1  0  0  0  0  0  0  0  0  0
   22.4762  -19.5839  -13.5365 C   0  0  0  0  0  0  0  0  0  0  0  0
   22.7980  -20.5296  -14.6258 C   0  0  0  0  0  0  0  0  0  0  0  0
   22.0717  -20.2990  -15.8925 C   0  0  0  0  0  0  0  0  0  0  0  0
   21.1952  -19.4116  -15.9398 O   0  0  0  0  0  0  0  0  0  0  0  0
   21.9720  -20.4758  -11.2313 C   0  0  0  0  0  0  0  0  0  0  0  0
   22.2096  -21.6505  -10.7875 O   0  0  0  0  0  0  0  0  0  0  0  0
   22.3614  -21.0678  -17.0270 O   0  0  0  0  0  0  0  0  0  0  0  0
   20.8153  -19.8744  -10.7653 O   0  0  0  0  0  0  0  0  0  0  0  0
  2  1  1  6
  3  2  1  0
  4  5  2  0
  4  3  1  0
  6  5  1  0
  7 12  2  0
  7  6  1  0
  8  7  1  0
  9 10  1  0
  9  8  2  0
 10 11  2  0
 11 12  1  0
 12  4  1  0
 13  2  1  0
 14 13  2  0
 15 13  1  0
 16 15  1  0
 16 17  1  1
 18 19  2  0
 18 17  1  0
 20 19  1  0
 21 26  2  0
 21 20  1  0
 22 21  1  0
 23 24  1  0
 23 22  2  0
 24 25  2  0
 25 26  1  0
 26 18  1  0
 27 29  1  0
 27 16  1  0
 28 27  2  0
 30 29  1  0
 30 31  1  6
 31 32  1  0
 32 33  1  0
 33 37  1  0
 34 33  2  0
 35 38  1  0
 35 30  1  0
 36 35  2  0
M  END
$$$$
