WWE.pdb
     RDKit          3D

 38 41  0  0  1  0  0  0  0  0999 V2000
   27.4820  -21.6620  -10.8781 N   0  0  0  0  0  0  0  0  0  0  0  0
   26.5768  -21.1821   -9.8566 C   0  0  1  0  0  0  0  0  0  0  0  0
   27.1892  -20.0438   -9.0371 C   0  0  0  0  0  0  0  0  0  0  0  0
   28.4404  -20.5378   -8.4184 C   0  0  0  0  0  0  0  0  0  0  0  0
   29.4284  -21.2985   -9.0296 C   0  0  0  0  0  0  0  0  0  0  0  0
   30.4046  -21.5340   -8.1143 N   0  0  0  0  0  0  0  0  0  0  0  0
   30.0985  -20.9672   -6.9524 C   0  0  0  0  0  0  0  0  0  0  0  0
   30.6852  -20.8825   -5.7163 C   0  0  0  0  0  0  0  0  0  0  0  0
   30.0701  -20.1927   -4.6824 C   0  0  0  0  0  0  0  0  0  0  0  0
   28.8601  -19.5733   -4.8549 C   0  0  0  0  0  0  0  0  0  0  0  0
   28.2683  -19.6611   -6.1088 C   0  0  0  0  0  0  0  0  0  0  0  0
   28.8685  -20.3378   -7.1271 C   0  0  0  0  0  0  0  0  0  0  0  0
   25.4281  -20.5583  -10.5825 C   0  0  0  0  0  0  0  0  0  0  0  0
   25.4724  -19.3696  -10.9743 O   0  0  0  0  0  0  0  0  0  0  0  0
   24.2151  -21.2592  -10.8731 N   0  0  0  0  0  0  0  0  0  0  0  0
   23.1248  -20.5931  -11.5394 C   0  0  1  0  0  0  0  0  0  0  0  0
   23.6010  -20.0033  -12.8386 C   0  0  0  0  0  0  0  0  0  0  0  0
   22.5345  -19.3772  -13.6329 C   0  0  0  0  0  0  0  0  0  0  0  0
   22.4751  -19.3932  -15.0167 C   0  0  0  0  0  0  0  0  0  0  0  0
   21.3389  -18.7720  -15.3580 N   0  0  0  0  0  0  0  0  0  0  0  0
   20.6715  -18.3594  -14.2711 C   0  0  0  0  0  0  0  0  0  0  0  0
   19.4835  -17.6788  -14.0731 C   0  0  0  0  0  0  0  0  0  0  0  0
   19.0659  -17.3890  -12.7954 C   0  0  0  0  0  0  0  0  0  0  0  0
   19.7899  -17.7507  -11.6840 C   0  0  0  0  0  0  0  0  0  0  0  0
   20.9715  -18.4268  -11.8860 C   0  0  0  0  0  0  0  0  0  0  0  0
   21.4044  -18.7280  -13.1631 C   0  0  0  0  0  0  0  0  0  0  0  0
   22.0425  -21.5770  -11.8789 C   0  0  0  0  0  0  0  0  0  0  0  0
   22.4198  -22.6925  -12.3167 O   0  0  0  0  0  0  0  0  0  0  0  0
   20.6739  -21.3492  -11.7432 N   0  0  0  0  0  0  0  0  0  0  0  0
   19.7033  -22.3838  -12.0834 C   0  0  1  0  0  0  0  0  0  0  0  0
   18.4356  -22.1844  -11.3413 C   0  0  0  0  0  0  0  0  0  0  0  0
   17.9963  -23.2329  -10.3968 C   0  0  0  0  0  0  0  0  0  0  0  0
   16.6485  -23.0361   -9.8225 C   0  0  0  0  0  0  0  0  0  0  0  0
   15.9450  -22.0887  -10.2293 O   0  0  0  0  0  0  0  0  0  0  0  0
   19.6569  -22.6249  -13.5043 C   0  0  0  0  0  0  0  0  0  0  0  0
   19.6110  -21.6065  -14.2750 O   0  0  0  0  0  0  0  0  0  0  0  0
   16.1658  -23.9007   -8.8318 O   0  0  0  0  0  0  0  0  0  0  0  0
   19.6536  -23.8596  -14.1306 O   0  0  0  0  0  0  0  0  0  0  0  0
  2  1  1  6
  3  2  1  0
  4  5  2  0
  4  3  1  0
  6  5  1  0
  7 12  2  0
  7  6  1  0
  8  7  1  0
  9 10  1  0
  9  8  2  0
 10 11  2  0
 11 12  1  0
 12  4  1  0
 13  2  1  0
 14 13  2  0
 15 13  1  0
 16 15  1  0
 16 17  1  6
 18 19  2  0
 18 17  1  0
 20 19  1  0
 21 26  2  0
 21 20  1  0
 22 21  1  0
 23 24  1  0
 23 22  2  0
 24 25  2  0
 25 26  1  0
 26 18  1  0
 27 29  1  0
 27 16  1  0
 28 27  2  0
 30 29  1  0
 30 31  1  6
 31 32  1  0
 32 33  1  0
 33 37  1  0
 34 33  2  0
 35 38  1  0
 35 30  1  0
 36 35  2  0
M  END
$$$$
