WWE.pdb
     RDKit          3D

 38 41  0  0  1  0  0  0  0  0999 V2000
   26.5709  -19.8507  -12.1232 N   0  0  0  0  0  0  0  0  0  0  0  0
   26.2773  -21.2037  -11.7033 C   0  0  1  0  0  0  0  0  0  0  0  0
   25.5045  -21.2390  -10.3827 C   0  0  0  0  0  0  0  0  0  0  0  0
   26.3423  -20.6081   -9.3375 C   0  0  0  0  0  0  0  0  0  0  0  0
   25.9955  -19.5354   -8.5266 C   0  0  0  0  0  0  0  0  0  0  0  0
   27.0450  -19.2731   -7.7044 N   0  0  0  0  0  0  0  0  0  0  0  0
   28.0435  -20.1167   -7.9420 C   0  0  0  0  0  0  0  0  0  0  0  0
   29.3040  -20.3127   -7.4401 C   0  0  0  0  0  0  0  0  0  0  0  0
   30.1196  -21.3181   -7.9372 C   0  0  0  0  0  0  0  0  0  0  0  0
   29.7002  -22.1489   -8.9428 C   0  0  0  0  0  0  0  0  0  0  0  0
   28.4222  -21.9475   -9.4493 C   0  0  0  0  0  0  0  0  0  0  0  0
   27.6177  -20.9612   -8.9643 C   0  0  0  0  0  0  0  0  0  0  0  0
   25.3281  -21.7546  -12.7189 C   0  0  0  0  0  0  0  0  0  0  0  0
   24.5402  -21.0103  -13.3463 O   0  0  0  0  0  0  0  0  0  0  0  0
   25.2489  -23.1468  -13.0389 N   0  0  0  0  0  0  0  0  0  0  0  0
   24.3546  -23.6131  -14.0680 C   0  0  1  0  0  0  0  0  0  0  0  0
   24.2821  -25.1154  -14.0426 C   0  0  0  0  0  0  0  0  0  0  0  0
   23.4097  -25.6855  -15.0791 C   0  0  0  0  0  0  0  0  0  0  0  0
   22.0736  -25.9999  -14.8934 C   0  0  0  0  0  0  0  0  0  0  0  0
   21.6164  -26.4392  -16.0729 N   0  0  0  0  0  0  0  0  0  0  0  0
   22.5851  -26.4246  -16.9994 C   0  0  0  0  0  0  0  0  0  0  0  0
   22.6425  -26.7764  -18.3361 C   0  0  0  0  0  0  0  0  0  0  0  0
   23.8248  -26.6496  -19.0267 C   0  0  0  0  0  0  0  0  0  0  0  0
   24.9754  -26.1813  -18.4375 C   0  0  0  0  0  0  0  0  0  0  0  0
   24.9136  -25.8334  -17.1074 C   0  0  0  0  0  0  0  0  0  0  0  0
   23.7330  -25.9524  -16.3995 C   0  0  0  0  0  0  0  0  0  0  0  0
   22.9634  -23.1061  -13.8186 C   0  0  0  0  0  0  0  0  0  0  0  0
   22.6649  -22.8612  -12.6231 O   0  0  0  0  0  0  0  0  0  0  0  0
   21.9968  -22.8875  -14.7990 N   0  0  0  0  0  0  0  0  0  0  0  0
   20.7179  -22.2689  -14.4676 C   0  0  1  0  0  0  0  0  0  0  0  0
   20.6516  -20.8814  -14.9855 C   0  0  0  0  0  0  0  0  0  0  0  0
   19.3875  -20.1302  -14.8357 C   0  0  0  0  0  0  0  0  0  0  0  0
   19.2086  -19.0075  -15.7804 C   0  0  0  0  0  0  0  0  0  0  0  0
   20.1503  -18.6905  -16.5360 O   0  0  0  0  0  0  0  0  0  0  0  0
   19.6139  -23.1642  -14.7096 C   0  0  0  0  0  0  0  0  0  0  0  0
   19.6310  -23.8441  -15.7916 O   0  0  0  0  0  0  0  0  0  0  0  0
   17.9976  -18.3051  -15.8271 O   0  0  0  0  0  0  0  0  0  0  0  0
   18.5207  -23.3658  -13.8843 O   0  0  0  0  0  0  0  0  0  0  0  0
  2  1  1  6
  3  2  1  0
  4  5  2  0
  4  3  1  0
  6  5  1  0
  7 12  2  0
  7  6  1  0
  8  7  1  0
  9 10  1  0
  9  8  2  0
 10 11  2  0
 11 12  1  0
 12  4  1  0
 13  2  1  0
 14 13  2  0
 15 13  1  0
 16 15  1  0
 16 17  1  1
 18 19  2  0
 18 17  1  0
 20 19  1  0
 21 26  2  0
 21 20  1  0
 22 21  1  0
 23 24  1  0
 23 22  2  0
 24 25  2  0
 25 26  1  0
 26 18  1  0
 27 29  1  0
 27 16  1  0
 28 27  2  0
 30 29  1  0
 30 31  1  6
 31 32  1  0
 32 33  1  0
 33 37  1  0
 34 33  2  0
 35 38  1  0
 35 30  1  0
 36 35  2  0
M  END
$$$$
