WWE.pdb
     RDKit          3D

 38 41  0  0  1  0  0  0  0  0999 V2000
   28.0303  -21.7742  -14.8315 N   0  0  0  0  0  0  0  0  0  0  0  0
   27.6800  -20.5226  -14.1960 C   0  0  1  0  0  0  0  0  0  0  0  0
   26.5881  -19.7752  -14.9650 C   0  0  0  0  0  0  0  0  0  0  0  0
   27.2412  -18.8106  -15.8791 C   0  0  0  0  0  0  0  0  0  0  0  0
   27.8732  -19.0988  -17.0815 C   0  0  0  0  0  0  0  0  0  0  0  0
   28.3330  -17.9324  -17.6052 N   0  0  0  0  0  0  0  0  0  0  0  0
   28.0310  -16.9139  -16.8073 C   0  0  0  0  0  0  0  0  0  0  0  0
   28.2396  -15.5591  -16.8225 C   0  0  0  0  0  0  0  0  0  0  0  0
   27.7809  -14.7568  -15.7886 C   0  0  0  0  0  0  0  0  0  0  0  0
   27.1061  -15.2835  -14.7187 C   0  0  0  0  0  0  0  0  0  0  0  0
   26.8964  -16.6569  -14.7065 C   0  0  0  0  0  0  0  0  0  0  0  0
   27.3453  -17.4488  -15.7195 C   0  0  0  0  0  0  0  0  0  0  0  0
   27.0502  -20.8849  -12.8891 C   0  0  0  0  0  0  0  0  0  0  0  0
   26.2069  -21.8070  -12.8051 O   0  0  0  0  0  0  0  0  0  0  0  0
   27.3558  -20.2143  -11.6628 N   0  0  0  0  0  0  0  0  0  0  0  0
   26.6597  -20.5541  -10.4478 C   0  0  1  0  0  0  0  0  0  0  0  0
   27.2334  -19.7783   -9.2938 C   0  0  0  0  0  0  0  0  0  0  0  0
   26.7869  -20.2552   -7.9771 C   0  0  0  0  0  0  0  0  0  0  0  0
   25.6324  -20.9887   -7.7590 C   0  0  0  0  0  0  0  0  0  0  0  0
   25.6033  -21.2765   -6.4515 N   0  0  0  0  0  0  0  0  0  0  0  0
   26.6722  -20.7668   -5.8233 C   0  0  0  0  0  0  0  0  0  0  0  0
   27.1065  -20.7678   -4.5098 C   0  0  0  0  0  0  0  0  0  0  0  0
   28.2765  -20.1271   -4.1758 C   0  0  0  0  0  0  0  0  0  0  0  0
   29.0488  -19.4717   -5.1054 C   0  0  0  0  0  0  0  0  0  0  0  0
   28.6122  -19.4728   -6.4106 C   0  0  0  0  0  0  0  0  0  0  0  0
   27.4402  -20.1138   -6.7637 C   0  0  0  0  0  0  0  0  0  0  0  0
   25.2115  -20.1714  -10.5523 C   0  0  0  0  0  0  0  0  0  0  0  0
   24.9512  -18.9451  -10.4701 O   0  0  0  0  0  0  0  0  0  0  0  0
   24.1534  -21.0605  -10.7343 N   0  0  0  0  0  0  0  0  0  0  0  0
   22.7757  -20.5851  -10.7975 C   0  0  1  0  0  0  0  0  0  0  0  0
   22.1752  -20.8782  -12.1207 C   0  0  0  0  0  0  0  0  0  0  0  0
   22.9622  -20.5817  -13.3362 C   0  0  0  0  0  0  0  0  0  0  0  0
   22.6899  -21.4632  -14.4911 C   0  0  0  0  0  0  0  0  0  0  0  0
   21.9130  -22.4299  -14.3503 O   0  0  0  0  0  0  0  0  0  0  0  0
   22.0415  -20.9176   -9.6019 C   0  0  0  0  0  0  0  0  0  0  0  0
   20.8261  -20.5295   -9.5281 O   0  0  0  0  0  0  0  0  0  0  0  0
   23.2974  -21.2188  -15.7294 O   0  0  0  0  0  0  0  0  0  0  0  0
   22.5209  -21.6197   -8.5093 O   0  0  0  0  0  0  0  0  0  0  0  0
  2  1  1  6
  3  2  1  0
  4  5  2  0
  4  3  1  0
  6  5  1  0
  7 12  2  0
  7  6  1  0
  8  7  1  0
  9 10  1  0
  9  8  2  0
 10 11  2  0
 11 12  1  0
 12  4  1  0
 13  2  1  0
 14 13  2  0
 15 13  1  0
 16 15  1  0
 16 17  1  1
 18 19  2  0
 18 17  1  0
 20 19  1  0
 21 26  2  0
 21 20  1  0
 22 21  1  0
 23 24  1  0
 23 22  2  0
 24 25  2  0
 25 26  1  0
 26 18  1  0
 27 29  1  0
 27 16  1  0
 28 27  2  0
 30 29  1  0
 30 31  1  6
 31 32  1  0
 32 33  1  0
 33 37  1  0
 34 33  2  0
 35 38  1  0
 35 30  1  0
 36 35  2  0
M  END
$$$$
