WWE.pdb
     RDKit          3D

 38 41  0  0  1  0  0  0  0  0999 V2000
   28.2450  -21.3515  -15.0125 N   0  0  0  0  0  0  0  0  0  0  0  0
   26.9805  -20.6575  -14.9006 C   0  0  1  0  0  0  0  0  0  0  0  0
   26.0234  -21.0232  -16.0375 C   0  0  0  0  0  0  0  0  0  0  0  0
   26.1280  -19.9824  -17.0854 C   0  0  0  0  0  0  0  0  0  0  0  0
   26.9247  -20.0214  -18.2221 C   0  0  0  0  0  0  0  0  0  0  0  0
   26.7215  -18.8722  -18.9180 N   0  0  0  0  0  0  0  0  0  0  0  0
   25.8398  -18.1000  -18.2923 C   0  0  0  0  0  0  0  0  0  0  0  0
   25.2767  -16.8707  -18.5178 C   0  0  0  0  0  0  0  0  0  0  0  0
   24.3601  -16.3335  -17.6266 C   0  0  0  0  0  0  0  0  0  0  0  0
   23.9841  -17.0060  -16.4936 C   0  0  0  0  0  0  0  0  0  0  0  0
   24.5567  -18.2517  -16.2681 C   0  0  0  0  0  0  0  0  0  0  0  0
   25.4576  -18.7831  -17.1404 C   0  0  0  0  0  0  0  0  0  0  0  0
   26.3275  -21.1857  -13.6635 C   0  0  0  0  0  0  0  0  0  0  0  0
   26.2369  -22.4162  -13.4486 O   0  0  0  0  0  0  0  0  0  0  0  0
   25.7648  -20.3401  -12.6559 N   0  0  0  0  0  0  0  0  0  0  0  0
   25.1594  -20.9063  -11.4773 C   0  0  1  0  0  0  0  0  0  0  0  0
   25.6084  -20.1507  -10.2565 C   0  0  0  0  0  0  0  0  0  0  0  0
   26.9350  -20.5499   -9.7656 C   0  0  0  0  0  0  0  0  0  0  0  0
   27.8315  -21.3311  -10.4759 C   0  0  0  0  0  0  0  0  0  0  0  0
   28.9350  -21.4272   -9.7234 N   0  0  0  0  0  0  0  0  0  0  0  0
   28.7926  -20.7534   -8.5732 C   0  0  0  0  0  0  0  0  0  0  0  0
   29.6057  -20.5461   -7.4733 C   0  0  0  0  0  0  0  0  0  0  0  0
   29.1495  -19.7919   -6.4179 C   0  0  0  0  0  0  0  0  0  0  0  0
   27.8973  -19.2244   -6.4050 C   0  0  0  0  0  0  0  0  0  0  0  0
   27.0918  -19.4341   -7.5010 C   0  0  0  0  0  0  0  0  0  0  0  0
   27.5356  -20.1874   -8.5709 C   0  0  0  0  0  0  0  0  0  0  0  0
   23.6651  -20.7756  -11.5448 C   0  0  0  0  0  0  0  0  0  0  0  0
   23.1793  -19.6989  -11.1169 O   0  0  0  0  0  0  0  0  0  0  0  0
   22.7926  -21.7425  -12.0419 N   0  0  0  0  0  0  0  0  0  0  0  0
   21.3556  -21.4982  -12.1001 C   0  0  1  0  0  0  0  0  0  0  0  0
   20.7631  -22.1129  -13.3120 C   0  0  0  0  0  0  0  0  0  0  0  0
   21.3448  -21.7815  -14.6297 C   0  0  0  0  0  0  0  0  0  0  0  0
   20.7434  -20.6124  -15.3055 C   0  0  0  0  0  0  0  0  0  0  0  0
   19.6658  -20.1493  -14.8786 O   0  0  0  0  0  0  0  0  0  0  0  0
   20.7257  -21.7147  -10.8212 C   0  0  0  0  0  0  0  0  0  0  0  0
   19.4739  -21.4733  -10.7310 O   0  0  0  0  0  0  0  0  0  0  0  0
   21.3734  -20.0311  -16.4134 O   0  0  0  0  0  0  0  0  0  0  0  0
   21.3420  -22.1596   -9.6641 O   0  0  0  0  0  0  0  0  0  0  0  0
  2  1  1  6
  3  2  1  0
  4  5  2  0
  4  3  1  0
  6  5  1  0
  7 12  2  0
  7  6  1  0
  8  7  1  0
  9 10  1  0
  9  8  2  0
 10 11  2  0
 11 12  1  0
 12  4  1  0
 13  2  1  0
 14 13  2  0
 15 13  1  0
 16 15  1  0
 16 17  1  1
 18 19  2  0
 18 17  1  0
 20 19  1  0
 21 26  2  0
 21 20  1  0
 22 21  1  0
 23 24  1  0
 23 22  2  0
 24 25  2  0
 25 26  1  0
 26 18  1  0
 27 29  1  0
 27 16  1  0
 28 27  2  0
 30 29  1  0
 30 31  1  6
 31 32  1  0
 32 33  1  0
 33 37  1  0
 34 33  2  0
 35 38  1  0
 35 30  1  0
 36 35  2  0
M  END
$$$$
