KDQ.pdb
     RDKit          3D

 27 26  0  0  1  0  0  0  0  0999 V2000
    5.6894  -17.2985   20.7290 N   0  0  0  0  0  0  0  0  0  0  0  0
    6.9270  -16.5738   20.7466 C   0  0  1  0  0  0  0  0  0  0  0  0
    6.7148  -15.1120   20.7411 C   0  0  0  0  0  0  0  0  0  0  0  0
    7.2836  -14.4362   19.5469 C   0  0  0  0  0  0  0  0  0  0  0  0
    8.0628  -13.1855   19.7568 C   0  0  0  0  0  0  0  0  0  0  0  0
    8.4347  -12.5381   18.4185 C   0  0  0  0  0  0  0  0  0  0  0  0
    9.1444  -11.3115   18.5808 N   0  0  0  0  0  0  0  0  0  0  0  0
    7.7985  -17.0207   21.8888 C   0  0  0  0  0  0  0  0  0  0  0  0
    7.2692  -17.4522   22.9626 O   0  0  0  0  0  0  0  0  0  0  0  0
    9.2155  -16.9917   21.8468 N   0  0  0  0  0  0  0  0  0  0  0  0
   10.0076  -17.3725   23.0059 C   0  0  1  0  0  0  0  0  0  0  0  0
   11.4649  -17.5061   22.6647 C   0  0  0  0  0  0  0  0  0  0  0  0
   12.2764  -17.9784   23.8157 C   0  0  0  0  0  0  0  0  0  0  0  0
   11.7224  -18.6764   24.7019 O   0  0  0  0  0  0  0  0  0  0  0  0
    9.8021  -16.4254   24.1315 C   0  0  0  0  0  0  0  0  0  0  0  0
   10.1799  -15.2482   23.9616 O   0  0  0  0  0  0  0  0  0  0  0  0
   13.6320  -17.6958   23.9858 O   0  0  0  0  0  0  0  0  0  0  0  0
    6.9509  -12.8528   25.5007 N   0  0  0  0  0  0  0  0  0  0  0  0
    7.0616  -13.0613   26.8897 C   0  0  0  0  0  0  0  0  0  0  0  0
    7.0084  -12.0085   27.6200 O   0  0  0  0  0  0  0  0  0  0  0  0
    7.2319  -14.4034   27.5244 C   0  0  0  0  0  0  0  0  0  0  0  0
    7.4973  -15.4509   26.4834 C   0  0  0  0  0  0  0  0  0  0  0  0
    8.9767  -15.7726   26.3626 C   0  0  2  0  0  0  0  0  0  0  0  0
    9.2122  -16.7877   25.3577 N   0  0  0  0  0  0  0  0  0  0  0  0
    9.4825  -16.2771   27.6688 C   0  0  0  0  0  0  0  0  0  0  0  0
   10.1993  -17.4597   27.7565 O   0  0  0  0  0  0  0  0  0  0  0  0
    9.2699  -15.6393   28.7275 O   0  0  0  0  0  0  0  0  0  0  0  0
  2  1  1  1
  2  3  1  0
  3  4  1  0
  4  5  1  0
  5  6  1  0
  7  6  1  0
  8  2  1  0
  9  8  2  0
 10  8  1  0
 11 12  1  6
 11 10  1  0
 12 13  1  0
 13 14  2  0
 13 17  1  0
 15 24  1  0
 15 11  1  0
 16 15  2  0
 19 18  1  0
 20 19  2  0
 21 19  1  0
 22 21  1  0
 23 22  1  1
 23 24  1  0
 25 23  1  0
 25 26  1  0
 27 25  2  0
M  END
$$$$
