KDQ.pdb
     RDKit          3D

 27 26  0  0  1  0  0  0  0  0999 V2000
    9.5496  -12.5350   19.4976 N   0  0  0  0  0  0  0  0  0  0  0  0
    8.3781  -13.2865   19.8441 C   0  0  1  0  0  0  0  0  0  0  0  0
    7.4219  -13.3734   18.7215 C   0  0  0  0  0  0  0  0  0  0  0  0
    7.9985  -13.9915   17.5000 C   0  0  0  0  0  0  0  0  0  0  0  0
    7.1093  -14.1665   16.3192 C   0  0  0  0  0  0  0  0  0  0  0  0
    7.8406  -14.8881   15.1822 C   0  0  0  0  0  0  0  0  0  0  0  0
    6.9770  -15.2162   14.0954 N   0  0  0  0  0  0  0  0  0  0  0  0
    8.7459  -14.6402   20.3881 C   0  0  0  0  0  0  0  0  0  0  0  0
    7.8354  -15.4363   20.7837 O   0  0  0  0  0  0  0  0  0  0  0  0
   10.0823  -15.1021   20.4930 N   0  0  0  0  0  0  0  0  0  0  0  0
   10.3919  -16.3544   21.1650 C   0  0  1  0  0  0  0  0  0  0  0  0
   11.0893  -17.3202   20.2491 C   0  0  0  0  0  0  0  0  0  0  0  0
   11.0293  -18.7185   20.7464 C   0  0  0  0  0  0  0  0  0  0  0  0
   10.8717  -18.9177   21.9772 O   0  0  0  0  0  0  0  0  0  0  0  0
   11.1799  -16.1196   22.4020 C   0  0  0  0  0  0  0  0  0  0  0  0
   12.2493  -15.4870   22.2847 O   0  0  0  0  0  0  0  0  0  0  0  0
   11.1389  -19.8448   19.9302 O   0  0  0  0  0  0  0  0  0  0  0  0
    9.5224  -16.8305   28.6037 N   0  0  0  0  0  0  0  0  0  0  0  0
   10.8182  -16.2779   28.5785 C   0  0  0  0  0  0  0  0  0  0  0  0
   11.3222  -15.9801   29.7195 O   0  0  0  0  0  0  0  0  0  0  0  0
   11.6004  -16.0331   27.3290 C   0  0  0  0  0  0  0  0  0  0  0  0
   10.8064  -16.4345   26.1209 C   0  0  0  0  0  0  0  0  0  0  0  0
   11.5846  -16.2285   24.8329 C   0  0  2  0  0  0  0  0  0  0  0  0
   10.7838  -16.5695   23.6762 N   0  0  0  0  0  0  0  0  0  0  0  0
   12.7942  -17.0965   24.8404 C   0  0  0  0  0  0  0  0  0  0  0  0
   12.7303  -18.4260   24.4548 O   0  0  0  0  0  0  0  0  0  0  0  0
   13.9067  -16.6417   25.1986 O   0  0  0  0  0  0  0  0  0  0  0  0
  2  1  1  6
  2  3  1  0
  3  4  1  0
  4  5  1  0
  5  6  1  0
  7  6  1  0
  8  2  1  0
  9  8  2  0
 10  8  1  0
 11 12  1  6
 11 10  1  0
 12 13  1  0
 13 14  2  0
 13 17  1  0
 15 24  1  0
 15 11  1  0
 16 15  2  0
 19 18  1  0
 20 19  2  0
 21 19  1  0
 22 21  1  0
 23 22  1  1
 23 24  1  0
 25 23  1  0
 25 26  1  0
 27 25  2  0
M  END
$$$$
