KDQ.pdb
     RDKit          3D

 27 26  0  0  1  0  0  0  0  0999 V2000
    8.7126  -12.6594   21.0680 N   0  0  0  0  0  0  0  0  0  0  0  0
    7.6309  -13.5906   20.9267 C   0  0  1  0  0  0  0  0  0  0  0  0
    7.0820  -13.6004   19.5553 C   0  0  0  0  0  0  0  0  0  0  0  0
    8.1251  -13.6880   18.5014 C   0  0  0  0  0  0  0  0  0  0  0  0
    7.6820  -13.7183   17.0807 C   0  0  0  0  0  0  0  0  0  0  0  0
    8.8764  -13.8870   16.1356 C   0  0  0  0  0  0  0  0  0  0  0  0
    8.4896  -13.9210   14.7631 N   0  0  0  0  0  0  0  0  0  0  0  0
    8.0359  -14.9634   21.3903 C   0  0  0  0  0  0  0  0  0  0  0  0
    7.5529  -15.9953   20.8232 O   0  0  0  0  0  0  0  0  0  0  0  0
    8.9487  -15.1910   22.4512 N   0  0  0  0  0  0  0  0  0  0  0  0
    9.4178  -16.5324   22.7616 C   0  0  1  0  0  0  0  0  0  0  0  0
    9.9153  -17.2457   21.5363 C   0  0  0  0  0  0  0  0  0  0  0  0
   10.3930  -18.6203   21.8342 C   0  0  0  0  0  0  0  0  0  0  0  0
    9.8706  -19.2498   22.7882 O   0  0  0  0  0  0  0  0  0  0  0  0
   10.4518  -16.5066   23.8276 C   0  0  0  0  0  0  0  0  0  0  0  0
   11.5700  -16.0419   23.5253 O   0  0  0  0  0  0  0  0  0  0  0  0
   11.3983  -19.2717   21.1188 O   0  0  0  0  0  0  0  0  0  0  0  0
    6.0553  -13.7886   25.6569 N   0  0  0  0  0  0  0  0  0  0  0  0
    7.1192  -13.4380   26.5114 C   0  0  0  0  0  0  0  0  0  0  0  0
    7.1512  -12.2140   26.8926 O   0  0  0  0  0  0  0  0  0  0  0  0
    8.1711  -14.3929   26.9748 C   0  0  0  0  0  0  0  0  0  0  0  0
    8.6140  -15.2793   25.8482 C   0  0  0  0  0  0  0  0  0  0  0  0
    9.8908  -16.0310   26.1822 C   0  0  2  0  0  0  0  0  0  0  0  0
   10.2329  -16.9734   25.1379 N   0  0  0  0  0  0  0  0  0  0  0  0
    9.7047  -16.7838   27.4531 C   0  0  0  0  0  0  0  0  0  0  0  0
   10.3273  -16.3852   28.6252 O   0  0  0  0  0  0  0  0  0  0  0  0
    8.9753  -17.8032   27.4928 O   0  0  0  0  0  0  0  0  0  0  0  0
  2  1  1  6
  2  3  1  0
  3  4  1  0
  4  5  1  0
  5  6  1  0
  7  6  1  0
  8  2  1  0
  9  8  2  0
 10  8  1  0
 11 12  1  6
 11 10  1  0
 12 13  1  0
 13 14  2  0
 13 17  1  0
 15 24  1  0
 15 11  1  0
 16 15  2  0
 19 18  1  0
 20 19  2  0
 21 19  1  0
 22 21  1  0
 23 22  1  6
 23 24  1  0
 25 23  1  0
 25 26  1  0
 27 25  2  0
M  END
$$$$
