KDQ.pdb
     RDKit          3D

 27 26  0  0  1  0  0  0  0  0999 V2000
    8.9947  -21.0338   21.6296 N   0  0  0  0  0  0  0  0  0  0  0  0
    9.1094  -22.3219   22.2500 C   0  0  1  0  0  0  0  0  0  0  0  0
    9.4394  -23.3808   21.2744 C   0  0  0  0  0  0  0  0  0  0  0  0
    8.6600  -23.2870   20.0134 C   0  0  0  0  0  0  0  0  0  0  0  0
    8.9788  -24.2474   18.9219 C   0  0  0  0  0  0  0  0  0  0  0  0
    8.0702  -24.0225   17.7086 C   0  0  0  0  0  0  0  0  0  0  0  0
    8.3869  -24.8859   16.6183 N   0  0  0  0  0  0  0  0  0  0  0  0
   10.0778  -22.2828   23.4009 C   0  0  0  0  0  0  0  0  0  0  0  0
   10.2173  -23.3016   24.1506 O   0  0  0  0  0  0  0  0  0  0  0  0
   10.8701  -21.1499   23.7158 N   0  0  0  0  0  0  0  0  0  0  0  0
   11.8144  -21.1796   24.8218 C   0  0  1  0  0  0  0  0  0  0  0  0
   12.9772  -20.2576   24.5860 C   0  0  0  0  0  0  0  0  0  0  0  0
   13.8681  -20.7343   23.4972 C   0  0  0  0  0  0  0  0  0  0  0  0
   13.7326  -20.2475   22.3466 O   0  0  0  0  0  0  0  0  0  0  0  0
   11.1410  -20.8793   26.1112 C   0  0  0  0  0  0  0  0  0  0  0  0
   10.4532  -19.8394   26.1659 O   0  0  0  0  0  0  0  0  0  0  0  0
   14.8597  -21.7015   23.6644 O   0  0  0  0  0  0  0  0  0  0  0  0
   10.2227  -24.5336   31.3256 N   0  0  0  0  0  0  0  0  0  0  0  0
   11.4955  -24.1308   30.8754 C   0  0  0  0  0  0  0  0  0  0  0  0
   12.4912  -24.7788   31.3583 O   0  0  0  0  0  0  0  0  0  0  0  0
   11.7269  -23.0243   29.8980 C   0  0  0  0  0  0  0  0  0  0  0  0
   10.4221  -22.4458   29.4354 C   0  0  0  0  0  0  0  0  0  0  0  0
   10.6212  -21.2739   28.4901 C   0  0  2  0  0  0  0  0  0  0  0  0
   11.2412  -21.6978   27.2526 N   0  0  0  0  0  0  0  0  0  0  0  0
   11.5015  -20.2610   29.1348 C   0  0  0  0  0  0  0  0  0  0  0  0
   12.7835  -20.0181   28.6682 O   0  0  0  0  0  0  0  0  0  0  0  0
   11.1008  -19.5997   30.1222 O   0  0  0  0  0  0  0  0  0  0  0  0
  2  1  1  6
  2  3  1  0
  3  4  1  0
  4  5  1  0
  5  6  1  0
  7  6  1  0
  8  2  1  0
  9  8  2  0
 10  8  1  0
 11 12  1  6
 11 10  1  0
 12 13  1  0
 13 14  2  0
 13 17  1  0
 15 24  1  0
 15 11  1  0
 16 15  2  0
 19 18  1  0
 20 19  2  0
 21 19  1  0
 22 21  1  0
 23 22  1  1
 23 24  1  0
 25 23  1  0
 25 26  1  0
 27 25  2  0
M  END
$$$$
