KDQ.pdb
     RDKit          3D

 27 26  0  0  1  0  0  0  0  0999 V2000
    7.1059  -17.8413   21.3214 N   0  0  0  0  0  0  0  0  0  0  0  0
    8.2099  -16.9772   21.0183 C   0  0  1  0  0  0  0  0  0  0  0  0
    7.8045  -15.5580   20.9597 C   0  0  0  0  0  0  0  0  0  0  0  0
    7.7355  -15.0192   19.5772 C   0  0  0  0  0  0  0  0  0  0  0  0
    7.4695  -13.5647   19.4067 C   0  0  0  0  0  0  0  0  0  0  0  0
    7.2907  -13.2080   17.9271 C   0  0  0  0  0  0  0  0  0  0  0  0
    7.0222  -11.8217   17.7254 N   0  0  0  0  0  0  0  0  0  0  0  0
    9.3525  -17.2067   21.9699 C   0  0  0  0  0  0  0  0  0  0  0  0
    9.3602  -18.2350   22.7195 O   0  0  0  0  0  0  0  0  0  0  0  0
   10.4562  -16.3248   22.0909 N   0  0  0  0  0  0  0  0  0  0  0  0
   11.5682  -16.6330   22.9765 C   0  0  1  0  0  0  0  0  0  0  0  0
   12.8041  -15.8620   22.6075 C   0  0  0  0  0  0  0  0  0  0  0  0
   13.9894  -16.2754   23.4015 C   0  0  0  0  0  0  0  0  0  0  0  0
   14.8383  -15.4053   23.7207 O   0  0  0  0  0  0  0  0  0  0  0  0
   11.1996  -16.4122   24.3983 C   0  0  0  0  0  0  0  0  0  0  0  0
   12.0936  -16.5845   25.2519 O   0  0  0  0  0  0  0  0  0  0  0  0
   14.2315  -17.5831   23.8233 O   0  0  0  0  0  0  0  0  0  0  0  0
    5.9374  -13.6452   26.7065 N   0  0  0  0  0  0  0  0  0  0  0  0
    7.1724  -13.0191   26.9667 C   0  0  0  0  0  0  0  0  0  0  0  0
    7.1141  -11.7815   27.2977 O   0  0  0  0  0  0  0  0  0  0  0  0
    8.4958  -13.7073   26.8773 C   0  0  0  0  0  0  0  0  0  0  0  0
    8.3213  -15.1361   26.4539 C   0  0  0  0  0  0  0  0  0  0  0  0
    9.6530  -15.8313   26.2302 C   0  0  2  0  0  0  0  0  0  0  0  0
    9.9127  -16.0254   24.8193 N   0  0  0  0  0  0  0  0  0  0  0  0
    9.6338  -17.1643   26.8930 C   0  0  0  0  0  0  0  0  0  0  0  0
    9.6187  -17.2831   28.2735 O   0  0  0  0  0  0  0  0  0  0  0  0
    9.6311  -18.2179   26.2128 O   0  0  0  0  0  0  0  0  0  0  0  0
  2  1  1  1
  2  3  1  0
  3  4  1  0
  4  5  1  0
  5  6  1  0
  7  6  1  0
  8  2  1  0
  9  8  2  0
 10  8  1  0
 11 12  1  6
 11 10  1  0
 12 13  1  0
 13 14  2  0
 13 17  1  0
 15 24  1  0
 15 11  1  0
 16 15  2  0
 19 18  1  0
 20 19  2  0
 21 19  1  0
 22 21  1  0
 23 22  1  6
 23 24  1  0
 25 23  1  0
 25 26  1  0
 27 25  2  0
M  END
$$$$
