KDQ.pdb
     RDKit          3D

 27 26  0  0  1  0  0  0  0  0999 V2000
    9.1953  -16.4095   20.5965 N   0  0  0  0  0  0  0  0  0  0  0  0
    8.6927  -15.5030   21.5880 C   0  0  1  0  0  0  0  0  0  0  0  0
    7.3419  -15.0074   21.2536 C   0  0  0  0  0  0  0  0  0  0  0  0
    7.3265  -14.0563   20.1128 C   0  0  0  0  0  0  0  0  0  0  0  0
    8.0697  -12.7752   20.2611 C   0  0  0  0  0  0  0  0  0  0  0  0
    8.6164  -12.2971   18.9118 C   0  0  0  0  0  0  0  0  0  0  0  0
    9.2671  -11.0309   19.0009 N   0  0  0  0  0  0  0  0  0  0  0  0
    8.7532  -16.1161   22.9607 C   0  0  0  0  0  0  0  0  0  0  0  0
    7.7656  -15.9987   23.7546 O   0  0  0  0  0  0  0  0  0  0  0  0
    9.8735  -16.8386   23.4438 N   0  0  0  0  0  0  0  0  0  0  0  0
    9.8950  -17.3710   24.7973 C   0  0  1  0  0  0  0  0  0  0  0  0
   10.4187  -18.7789   24.8335 C   0  0  0  0  0  0  0  0  0  0  0  0
   11.6196  -18.9602   23.9782 C   0  0  0  0  0  0  0  0  0  0  0  0
   11.7724  -20.0501   23.3714 O   0  0  0  0  0  0  0  0  0  0  0  0
   10.6633  -16.4863   25.7102 C   0  0  0  0  0  0  0  0  0  0  0  0
   11.3465  -17.0383   26.5969 O   0  0  0  0  0  0  0  0  0  0  0  0
   12.6067  -17.9905   23.7995 O   0  0  0  0  0  0  0  0  0  0  0  0
    5.9639  -13.0831   25.5942 N   0  0  0  0  0  0  0  0  0  0  0  0
    6.5454  -12.6722   26.8099 C   0  0  0  0  0  0  0  0  0  0  0  0
    5.8487  -11.8614   27.5181 O   0  0  0  0  0  0  0  0  0  0  0  0
    7.8866  -13.1224   27.2913 C   0  0  0  0  0  0  0  0  0  0  0  0
    8.6288  -13.8346   26.1991 C   0  0  0  0  0  0  0  0  0  0  0  0
    9.9988  -14.3065   26.6545 C   0  0  2  0  0  0  0  0  0  0  0  0
   10.6562  -15.0809   25.6232 N   0  0  0  0  0  0  0  0  0  0  0  0
    9.8514  -15.1623   27.8639 C   0  0  0  0  0  0  0  0  0  0  0  0
   10.2519  -16.4889   27.8618 O   0  0  0  0  0  0  0  0  0  0  0  0
    9.3578  -14.6995   28.9198 O   0  0  0  0  0  0  0  0  0  0  0  0
  2  1  1  6
  2  3  1  0
  3  4  1  0
  4  5  1  0
  5  6  1  0
  7  6  1  0
  8  2  1  0
  9  8  2  0
 10  8  1  0
 11 12  1  6
 11 10  1  0
 12 13  1  0
 13 14  2  0
 13 17  1  0
 15 24  1  0
 15 11  1  0
 16 15  2  0
 19 18  1  0
 20 19  2  0
 21 19  1  0
 22 21  1  0
 23 22  1  6
 23 24  1  0
 25 23  1  0
 25 26  1  0
 27 25  2  0
M  END
$$$$
