KDQ.pdb
     RDKit          3D

 27 26  0  0  1  0  0  0  0  0999 V2000
    8.2174  -13.0698   16.9646 N   0  0  0  0  0  0  0  0  0  0  0  0
    8.9498  -12.8846   18.1838 C   0  0  1  0  0  0  0  0  0  0  0  0
    8.0590  -12.6190   19.3319 C   0  0  0  0  0  0  0  0  0  0  0  0
    6.9945  -13.6407   19.5033 C   0  0  0  0  0  0  0  0  0  0  0  0
    7.1119  -14.5871   20.6461 C   0  0  0  0  0  0  0  0  0  0  0  0
    5.8968  -15.5182   20.7161 C   0  0  0  0  0  0  0  0  0  0  0  0
    6.0399  -16.5334   21.7079 N   0  0  0  0  0  0  0  0  0  0  0  0
    9.8792  -14.0405   18.4366 C   0  0  0  0  0  0  0  0  0  0  0  0
   10.2299  -14.7975   17.4757 O   0  0  0  0  0  0  0  0  0  0  0  0
   10.4065  -14.3525   19.7153 N   0  0  0  0  0  0  0  0  0  0  0  0
   11.4660  -15.3371   19.8693 C   0  0  1  0  0  0  0  0  0  0  0  0
   12.5885  -15.1035   18.8980 C   0  0  0  0  0  0  0  0  0  0  0  0
   13.2280  -16.3687   18.4544 C   0  0  0  0  0  0  0  0  0  0  0  0
   13.4507  -17.2660   19.3057 O   0  0  0  0  0  0  0  0  0  0  0  0
   11.9632  -15.3768   21.2684 C   0  0  0  0  0  0  0  0  0  0  0  0
   12.3243  -14.2951   21.7755 O   0  0  0  0  0  0  0  0  0  0  0  0
   13.6066  -16.6346   17.1381 O   0  0  0  0  0  0  0  0  0  0  0  0
    8.1205  -15.6611   21.6456 N   0  0  0  0  0  0  0  0  0  0  0  0
    8.4714  -14.8462   22.7401 C   0  0  0  0  0  0  0  0  0  0  0  0
    7.8515  -13.7269   22.8263 O   0  0  0  0  0  0  0  0  0  0  0  0
    9.4945  -15.2148   23.7649 C   0  0  0  0  0  0  0  0  0  0  0  0
   10.0665  -16.5717   23.4769 C   0  0  0  0  0  0  0  0  0  0  0  0
   11.5835  -16.5476   23.4061 C   0  0  2  0  0  0  0  0  0  0  0  0
   12.0446  -16.5558   22.0339 N   0  0  0  0  0  0  0  0  0  0  0  0
   12.1309  -17.7494   24.0938 C   0  0  0  0  0  0  0  0  0  0  0  0
   12.8009  -18.7390   23.3925 O   0  0  0  0  0  0  0  0  0  0  0  0
   11.9973  -17.8951   25.3323 O   0  0  0  0  0  0  0  0  0  0  0  0
  2  1  1  6
  2  3  1  0
  3  4  1  0
  4  5  1  0
  5  6  1  0
  7  6  1  0
  8  2  1  0
  9  8  2  0
 10  8  1  0
 11 12  1  6
 11 10  1  0
 12 13  1  0
 13 14  2  0
 13 17  1  0
 15 24  1  0
 15 11  1  0
 16 15  2  0
 19 18  1  0
 20 19  2  0
 21 19  1  0
 22 21  1  0
 23 22  1  6
 23 24  1  0
 25 23  1  0
 25 26  1  0
 27 25  2  0
M  END
$$$$
