GMP.pdb
     RDKit          3D

 20 20  0  0  1  0  0  0  0  0999 V2000
   28.6920  -18.1776  -16.1321 N   0  0  0  0  0  0  0  0  0  0  0  0
   27.8539  -17.8572  -14.9951 C   0  0  0  0  0  0  0  0  0  0  0  0
   27.3804  -19.1254  -14.3440 C   0  0  0  0  0  0  0  0  0  0  0  0
   27.4826  -20.2263  -14.9355 O   0  0  0  0  0  0  0  0  0  0  0  0
   26.4698  -19.4031   -7.7327 C   0  0  0  0  0  0  0  0  0  0  0  0
   25.8811  -20.9839   -8.3023 S   0  0  0  0  0  0  0  0  0  0  0  0
   25.7584  -21.1578  -10.0827 C   0  0  0  0  0  0  0  0  0  0  0  0
   26.2976  -20.0135  -10.8807 C   0  0  0  0  0  0  0  0  0  0  0  0
   26.2229  -20.2074  -12.3682 C   0  0  2  0  0  0  0  0  0  0  0  0
   26.8187  -19.0707  -13.0595 N   0  0  0  0  0  0  0  0  0  0  0  0
   24.8771  -20.4773  -12.8581 C   0  0  0  0  0  0  0  0  0  0  0  0
   24.1127  -19.4234  -12.9503 O   0  0  0  0  0  0  0  0  0  0  0  0
   24.2598  -21.6685  -13.2482 N   0  0  0  0  0  0  0  0  0  0  0  0
   24.9455  -22.9785  -13.1109 C   0  0  0  0  0  0  0  0  0  0  0  0
   24.3478  -23.6879  -14.3342 C   0  0  0  0  0  0  0  0  0  0  0  0
   22.8900  -23.4131  -14.0415 C   0  0  0  0  0  0  0  0  0  0  0  0
   22.9633  -21.8766  -13.8130 C   0  0  1  0  0  0  0  0  0  0  0  0
   21.8311  -21.4835  -12.9454 C   0  0  0  0  0  0  0  0  0  0  0  0
   20.5771  -21.3498  -13.5146 O   0  0  0  0  0  0  0  0  0  0  0  0
   21.9827  -21.2725  -11.7258 O   0  0  0  0  0  0  0  0  0  0  0  0
  2  1  1  0
  3  2  1  0
  3 10  1  0
  4  3  2  0
  5  6  1  0
  7  6  1  0
  8  7  1  0
  9 11  1  0
  9  8  1  1
  9 10  1  0
 11 13  1  0
 12 11  2  0
 13 14  1  0
 13 17  1  0
 14 15  1  0
 15 16  1  0
 17 16  1  0
 17 18  1  1
 18 19  1  0
 20 18  2  0
M  END
$$$$
