GMP.pdb
     RDKit          3D

 20 20  0  0  1  0  0  0  0  0999 V2000
   36.7425   -9.6031  -16.0044 N   0  0  0  0  0  0  0  0  0  0  0  0
   37.6390  -10.2768  -15.0877 C   0  0  0  0  0  0  0  0  0  0  0  0
   37.2878   -9.9066  -13.6750 C   0  0  0  0  0  0  0  0  0  0  0  0
   36.4783   -8.9787  -13.4379 O   0  0  0  0  0  0  0  0  0  0  0  0
   36.8338  -12.6996   -6.2652 C   0  0  0  0  0  0  0  0  0  0  0  0
   37.1562  -12.9313   -8.0008 S   0  0  0  0  0  0  0  0  0  0  0  0
   37.3154  -11.4228   -8.9570 C   0  0  0  0  0  0  0  0  0  0  0  0
   37.4984  -11.6096  -10.4296 C   0  0  0  0  0  0  0  0  0  0  0  0
   37.6385  -10.3295  -11.2026 C   0  0  2  0  0  0  0  0  0  0  0  0
   37.8753  -10.6108  -12.6132 N   0  0  0  0  0  0  0  0  0  0  0  0
   38.6507   -9.4281  -10.6667 C   0  0  0  0  0  0  0  0  0  0  0  0
   39.8720   -9.7048  -11.0348 O   0  0  0  0  0  0  0  0  0  0  0  0
   38.5435   -8.3166   -9.8269 N   0  0  0  0  0  0  0  0  0  0  0  0
   37.2215   -7.7639   -9.4370 C   0  0  0  0  0  0  0  0  0  0  0  0
   37.6052   -6.2807   -9.3372 C   0  0  0  0  0  0  0  0  0  0  0  0
   38.8051   -6.4376   -8.4306 C   0  0  0  0  0  0  0  0  0  0  0  0
   39.5745   -7.5366   -9.2172 C   0  0  1  0  0  0  0  0  0  0  0  0
   40.4353   -8.2708   -8.2639 C   0  0  0  0  0  0  0  0  0  0  0  0
   41.7869   -7.9765   -8.2314 O   0  0  0  0  0  0  0  0  0  0  0  0
   39.9726   -9.1395   -7.4982 O   0  0  0  0  0  0  0  0  0  0  0  0
  2  1  1  0
  3  2  1  0
  3 10  1  0
  4  3  2  0
  5  6  1  0
  7  6  1  0
  8  7  1  0
  9 11  1  0
  9  8  1  1
  9 10  1  0
 11 13  1  0
 12 11  2  0
 13 14  1  0
 13 17  1  0
 14 15  1  0
 15 16  1  0
 17 16  1  0
 17 18  1  1
 18 19  1  0
 20 18  2  0
M  END
$$$$
