GMP.pdb
     RDKit          3D

 20 20  0  0  1  0  0  0  0  0999 V2000
   18.6819  -11.7224  -19.1007 N   0  0  0  0  0  0  0  0  0  0  0  0
   18.5415  -10.2995  -19.3323 C   0  0  0  0  0  0  0  0  0  0  0  0
   18.6236   -9.5649  -18.0247 C   0  0  0  0  0  0  0  0  0  0  0  0
   17.5849   -9.2865  -17.3797 O   0  0  0  0  0  0  0  0  0  0  0  0
   24.0085  -10.5712  -14.2633 C   0  0  0  0  0  0  0  0  0  0  0  0
   22.8039   -9.7450  -13.2453 S   0  0  0  0  0  0  0  0  0  0  0  0
   21.5396   -8.8401  -14.1385 C   0  0  0  0  0  0  0  0  0  0  0  0
   21.2262   -9.3529  -15.5081 C   0  0  0  0  0  0  0  0  0  0  0  0
   20.1075   -8.6270  -16.1992 C   0  0  2  0  0  0  0  0  0  0  0  0
   19.8794   -9.1889  -17.5248 N   0  0  0  0  0  0  0  0  0  0  0  0
   20.2958   -7.1832  -16.2628 C   0  0  0  0  0  0  0  0  0  0  0  0
   21.1833   -6.7906  -17.1356 O   0  0  0  0  0  0  0  0  0  0  0  0
   19.6913   -6.1426  -15.5528 N   0  0  0  0  0  0  0  0  0  0  0  0
   18.5512   -6.3903  -14.6341 C   0  0  0  0  0  0  0  0  0  0  0  0
   17.7960   -5.0685  -14.8324 C   0  0  0  0  0  0  0  0  0  0  0  0
   18.9530   -4.1287  -14.5792 C   0  0  0  0  0  0  0  0  0  0  0  0
   19.9981   -4.7465  -15.5512 C   0  0  1  0  0  0  0  0  0  0  0  0
   21.3494   -4.4022  -15.0571 C   0  0  0  0  0  0  0  0  0  0  0  0
   21.9025   -3.1910  -15.4335 O   0  0  0  0  0  0  0  0  0  0  0  0
   21.9926   -5.1727  -14.3170 O   0  0  0  0  0  0  0  0  0  0  0  0
  2  1  1  0
  3  2  1  0
  3 10  1  0
  4  3  2  0
  5  6  1  0
  7  6  1  0
  8  7  1  0
  9 11  1  0
  9  8  1  6
  9 10  1  0
 11 13  1  0
 12 11  2  0
 13 14  1  0
 13 17  1  0
 14 15  1  0
 15 16  1  0
 17 16  1  0
 17 18  1  1
 18 19  1  0
 20 18  2  0
M  END
$$$$
