GMP.pdb
     RDKit          3D

 20 20  0  0  1  0  0  0  0  0999 V2000
   21.5187  -32.5702   -2.5718 N   0  0  0  0  0  0  0  0  0  0  0  0
   22.7828  -32.0864   -3.0872 C   0  0  0  0  0  0  0  0  0  0  0  0
   23.7199  -33.2423   -3.2920 C   0  0  0  0  0  0  0  0  0  0  0  0
   23.3732  -34.4094   -2.9918 O   0  0  0  0  0  0  0  0  0  0  0  0
   25.9685  -32.2183   -9.3729 C   0  0  0  0  0  0  0  0  0  0  0  0
   26.9329  -32.7181   -7.9623 S   0  0  0  0  0  0  0  0  0  0  0  0
   25.9847  -33.1666   -6.5079 C   0  0  0  0  0  0  0  0  0  0  0  0
   26.7853  -33.6488   -5.3402 C   0  0  0  0  0  0  0  0  0  0  0  0
   25.9623  -34.0492   -4.1493 C   0  0  2  0  0  0  0  0  0  0  0  0
   24.9960  -33.0069   -3.8256 N   0  0  0  0  0  0  0  0  0  0  0  0
   26.7565  -34.4139   -2.9829 C   0  0  0  0  0  0  0  0  0  0  0  0
   27.2360  -33.3998   -2.3156 O   0  0  0  0  0  0  0  0  0  0  0  0
   27.0950  -35.6609   -2.4515 N   0  0  0  0  0  0  0  0  0  0  0  0
   26.5424  -36.9194   -3.0137 C   0  0  0  0  0  0  0  0  0  0  0  0
   26.4699  -37.7444   -1.7210 C   0  0  0  0  0  0  0  0  0  0  0  0
   27.8926  -37.5279   -1.2569 C   0  0  0  0  0  0  0  0  0  0  0  0
   27.9582  -35.9774   -1.3570 C   0  0  1  0  0  0  0  0  0  0  0  0
   29.3729  -35.5852   -1.5407 C   0  0  0  0  0  0  0  0  0  0  0  0
   30.2205  -35.6363   -0.4482 O   0  0  0  0  0  0  0  0  0  0  0  0
   29.8115  -35.2137   -2.6472 O   0  0  0  0  0  0  0  0  0  0  0  0
  2  1  1  0
  3  2  1  0
  3 10  1  0
  4  3  2  0
  5  6  1  0
  7  6  1  0
  8  7  1  0
  9 11  1  0
  9  8  1  6
  9 10  1  0
 11 13  1  0
 12 11  2  0
 13 14  1  0
 13 17  1  0
 14 15  1  0
 15 16  1  0
 17 16  1  0
 17 18  1  6
 18 19  1  0
 20 18  2  0
M  END
$$$$
