GMP.pdb
     RDKit          3D

 20 20  0  0  1  0  0  0  0  0999 V2000
   28.7571  -18.2015  -16.4286 N   0  0  0  0  0  0  0  0  0  0  0  0
   27.7762  -17.8956  -15.4078 C   0  0  0  0  0  0  0  0  0  0  0  0
   27.2823  -19.1699  -14.7846 C   0  0  0  0  0  0  0  0  0  0  0  0
   27.3684  -20.2593  -15.3994 O   0  0  0  0  0  0  0  0  0  0  0  0
   26.2256  -19.5508   -8.0959 C   0  0  0  0  0  0  0  0  0  0  0  0
   25.9232  -21.1655   -8.7825 S   0  0  0  0  0  0  0  0  0  0  0  0
   25.5650  -21.1946  -10.5392 C   0  0  0  0  0  0  0  0  0  0  0  0
   26.1284  -20.0574  -11.3306 C   0  0  0  0  0  0  0  0  0  0  0  0
   26.1478  -20.2868  -12.8149 C   0  0  2  0  0  0  0  0  0  0  0  0
   26.7195  -19.1340  -13.4999 N   0  0  0  0  0  0  0  0  0  0  0  0
   24.8480  -20.6406  -13.3711 C   0  0  0  0  0  0  0  0  0  0  0  0
   24.0593  -19.6246  -13.5936 O   0  0  0  0  0  0  0  0  0  0  0  0
   24.2964  -21.8788  -13.7099 N   0  0  0  0  0  0  0  0  0  0  0  0
   25.0300  -23.1470  -13.4675 C   0  0  0  0  0  0  0  0  0  0  0  0
   24.5107  -23.9536  -14.6661 C   0  0  0  0  0  0  0  0  0  0  0  0
   23.0325  -23.7259  -14.4444 C   0  0  0  0  0  0  0  0  0  0  0  0
   23.0328  -22.1768  -14.3080 C   0  0  1  0  0  0  0  0  0  0  0  0
   21.8522  -21.7826  -13.5082 C   0  0  0  0  0  0  0  0  0  0  0  0
   20.6260  -21.6872  -14.1420 O   0  0  0  0  0  0  0  0  0  0  0  0
   21.9391  -21.5373  -12.2887 O   0  0  0  0  0  0  0  0  0  0  0  0
  2  1  1  0
  3  2  1  0
  3 10  1  0
  4  3  2  0
  5  6  1  0
  7  6  1  0
  8  7  1  0
  9 11  1  0
  9  8  1  1
  9 10  1  0
 11 13  1  0
 12 11  2  0
 13 14  1  0
 13 17  1  0
 14 15  1  0
 15 16  1  0
 17 16  1  0
 17 18  1  1
 18 19  1  0
 20 18  2  0
M  END
$$$$
