GMP.pdb
     RDKit          3D

 20 20  0  0  1  0  0  0  0  0999 V2000
   19.9509  -20.3490  -13.8246 N   0  0  0  0  0  0  0  0  0  0  0  0
   21.0482  -21.2554  -13.5561 C   0  0  0  0  0  0  0  0  0  0  0  0
   22.2898  -20.4677  -13.2491 C   0  0  0  0  0  0  0  0  0  0  0  0
   22.3099  -19.2220  -13.3908 O   0  0  0  0  0  0  0  0  0  0  0  0
   26.7476  -19.7638   -8.1558 C   0  0  0  0  0  0  0  0  0  0  0  0
   25.3774  -20.8484   -8.4964 S   0  0  0  0  0  0  0  0  0  0  0  0
   24.5537  -20.5704  -10.0647 C   0  0  0  0  0  0  0  0  0  0  0  0
   25.3263  -20.9762  -11.2792 C   0  0  0  0  0  0  0  0  0  0  0  0
   24.7311  -20.5073  -12.5761 C   0  0  2  0  0  0  0  0  0  0  0  0
   23.4365  -21.1393  -12.7990 N   0  0  0  0  0  0  0  0  0  0  0  0
   25.6108  -20.6861  -13.7242 C   0  0  0  0  0  0  0  0  0  0  0  0
   25.4621  -21.8225  -14.3488 O   0  0  0  0  0  0  0  0  0  0  0  0
   26.5872  -19.8528  -14.2759 N   0  0  0  0  0  0  0  0  0  0  0  0
   26.9297  -18.5458  -13.6597 C   0  0  0  0  0  0  0  0  0  0  0  0
   27.2745  -17.7654  -14.9360 C   0  0  0  0  0  0  0  0  0  0  0  0
   28.2551  -18.7543  -15.5250 C   0  0  0  0  0  0  0  0  0  0  0  0
   27.3933  -20.0460  -15.4404 C   0  0  1  0  0  0  0  0  0  0  0  0
   28.3067  -21.2086  -15.3846 C   0  0  0  0  0  0  0  0  0  0  0  0
   28.8727  -21.6620  -16.5629 O   0  0  0  0  0  0  0  0  0  0  0  0
   28.5734  -21.7813  -14.3096 O   0  0  0  0  0  0  0  0  0  0  0  0
  2  1  1  0
  3  2  1  0
  3 10  1  0
  4  3  2  0
  5  6  1  0
  7  6  1  0
  8  7  1  0
  9 11  1  0
  9  8  1  1
  9 10  1  0
 11 13  1  0
 12 11  2  0
 13 14  1  0
 13 17  1  0
 14 15  1  0
 15 16  1  0
 17 16  1  0
 17 18  1  1
 18 19  1  0
 20 18  2  0
M  END
$$$$
