GMP.pdb
     RDKit          3D

 20 20  0  0  1  0  0  0  0  0999 V2000
   20.0835  -20.5653  -13.0200 N   0  0  0  0  0  0  0  0  0  0  0  0
   21.2268  -21.4534  -12.9757 C   0  0  0  0  0  0  0  0  0  0  0  0
   22.4921  -20.6453  -12.9310 C   0  0  0  0  0  0  0  0  0  0  0  0
   22.4781  -19.4179  -13.1875 O   0  0  0  0  0  0  0  0  0  0  0  0
   27.9798  -20.9830   -8.9630 C   0  0  0  0  0  0  0  0  0  0  0  0
   26.2581  -20.6941   -8.6136 S   0  0  0  0  0  0  0  0  0  0  0  0
   25.2099  -20.4875  -10.0537 C   0  0  0  0  0  0  0  0  0  0  0  0
   25.7616  -21.0265  -11.3350 C   0  0  0  0  0  0  0  0  0  0  0  0
   24.9972  -20.6129  -12.5600 C   0  0  2  0  0  0  0  0  0  0  0  0
   23.6999  -21.2766  -12.5978 N   0  0  0  0  0  0  0  0  0  0  0  0
   25.7294  -20.8132  -13.8041 C   0  0  0  0  0  0  0  0  0  0  0  0
   25.5686  -21.9908  -14.3437 O   0  0  0  0  0  0  0  0  0  0  0  0
   26.5746  -19.9643  -14.5232 N   0  0  0  0  0  0  0  0  0  0  0  0
   26.8209  -18.5656  -14.0894 C   0  0  0  0  0  0  0  0  0  0  0  0
   26.9957  -17.9169  -15.4698 C   0  0  0  0  0  0  0  0  0  0  0  0
   28.0313  -18.8725  -16.0182 C   0  0  0  0  0  0  0  0  0  0  0  0
   27.3157  -20.2203  -15.7184 C   0  0  1  0  0  0  0  0  0  0  0  0
   28.3463  -21.2755  -15.6031 C   0  0  0  0  0  0  0  0  0  0  0  0
   28.8345  -21.8526  -16.7620 O   0  0  0  0  0  0  0  0  0  0  0  0
   28.7785  -21.6510  -14.4953 O   0  0  0  0  0  0  0  0  0  0  0  0
  2  1  1  0
  3  2  1  0
  3 10  1  0
  4  3  2  0
  5  6  1  0
  7  6  1  0
  8  7  1  0
  9 11  1  0
  9  8  1  1
  9 10  1  0
 11 13  1  0
 12 11  2  0
 13 14  1  0
 13 17  1  0
 14 15  1  0
 15 16  1  0
 17 16  1  0
 17 18  1  1
 18 19  1  0
 20 18  2  0
M  END
$$$$
