GMP.pdb
     RDKit          3D

 20 20  0  0  1  0  0  0  0  0999 V2000
   27.6361  -20.7778  -19.6139 N   0  0  0  0  0  0  0  0  0  0  0  0
   26.4298  -20.5360  -18.8497 C   0  0  0  0  0  0  0  0  0  0  0  0
   26.7790  -20.3521  -17.4004 C   0  0  0  0  0  0  0  0  0  0  0  0
   27.8438  -20.8213  -16.9332 O   0  0  0  0  0  0  0  0  0  0  0  0
   25.0967  -14.7247  -15.1912 C   0  0  0  0  0  0  0  0  0  0  0  0
   26.7836  -15.2690  -15.3588 S   0  0  0  0  0  0  0  0  0  0  0  0
   26.9989  -17.0358  -15.5761 C   0  0  0  0  0  0  0  0  0  0  0  0
   25.9945  -17.8979  -14.8797 C   0  0  0  0  0  0  0  0  0  0  0  0
   26.1431  -19.3668  -15.1556 C   0  0  2  0  0  0  0  0  0  0  0  0
   25.8997  -19.6463  -16.5654 N   0  0  0  0  0  0  0  0  0  0  0  0
   25.3189  -20.2110  -14.2999 C   0  0  0  0  0  0  0  0  0  0  0  0
   24.1756  -20.5606  -14.8234 O   0  0  0  0  0  0  0  0  0  0  0  0
   25.5382  -20.7138  -13.0149 N   0  0  0  0  0  0  0  0  0  0  0  0
   26.8467  -20.5523  -12.3316 C   0  0  0  0  0  0  0  0  0  0  0  0
   26.8583  -21.8615  -11.5299 C   0  0  0  0  0  0  0  0  0  0  0  0
   25.4970  -21.7227  -10.8866 C   0  0  0  0  0  0  0  0  0  0  0  0
   24.6469  -21.4275  -12.1549 C   0  0  1  0  0  0  0  0  0  0  0  0
   23.4415  -20.6769  -11.7393 C   0  0  0  0  0  0  0  0  0  0  0  0
   22.3690  -21.3818  -11.2226 O   0  0  0  0  0  0  0  0  0  0  0  0
   23.3736  -19.4362  -11.8445 O   0  0  0  0  0  0  0  0  0  0  0  0
  2  1  1  0
  3  2  1  0
  3 10  1  0
  4  3  2  0
  5  6  1  0
  7  6  1  0
  8  7  1  0
  9 11  1  0
  9  8  1  6
  9 10  1  0
 11 13  1  0
 12 11  2  0
 13 14  1  0
 13 17  1  0
 14 15  1  0
 15 16  1  0
 17 16  1  0
 17 18  1  1
 18 19  1  0
 20 18  2  0
M  END
$$$$
