GMP.pdb
     RDKit          3D

 20 20  0  0  1  0  0  0  0  0999 V2000
   24.1746  -20.2433   -8.9725 N   0  0  0  0  0  0  0  0  0  0  0  0
   24.9870  -21.2207   -9.6671 C   0  0  0  0  0  0  0  0  0  0  0  0
   25.9438  -20.5187  -10.5881 C   0  0  0  0  0  0  0  0  0  0  0  0
   25.8567  -19.2829  -10.7818 O   0  0  0  0  0  0  0  0  0  0  0  0
   31.5575  -23.2508   -9.7513 C   0  0  0  0  0  0  0  0  0  0  0  0
   31.5884  -21.6362  -10.5009 S   0  0  0  0  0  0  0  0  0  0  0  0
   29.9818  -20.8855  -10.7662 C   0  0  0  0  0  0  0  0  0  0  0  0
   29.2528  -21.3394  -11.9907 C   0  0  0  0  0  0  0  0  0  0  0  0
   27.9052  -20.7034  -12.1795 C   0  0  2  0  0  0  0  0  0  0  0  0
   26.9439  -21.2597  -11.2355 N   0  0  0  0  0  0  0  0  0  0  0  0
   27.4070  -20.7790  -13.5471 C   0  0  0  0  0  0  0  0  0  0  0  0
   26.7582  -21.8764  -13.8272 O   0  0  0  0  0  0  0  0  0  0  0  0
   27.5011  -19.8811  -14.6134 N   0  0  0  0  0  0  0  0  0  0  0  0
   28.1030  -18.5344  -14.4424 C   0  0  0  0  0  0  0  0  0  0  0  0
   27.2442  -17.7612  -15.4531 C   0  0  0  0  0  0  0  0  0  0  0  0
   27.4422  -18.6790  -16.6383 C   0  0  0  0  0  0  0  0  0  0  0  0
   27.0803  -20.0361  -15.9706 C   0  0  1  0  0  0  0  0  0  0  0  0
   27.7612  -21.1158  -16.7187 C   0  0  0  0  0  0  0  0  0  0  0  0
   27.1126  -21.6799  -17.8028 O   0  0  0  0  0  0  0  0  0  0  0  0
   28.8946  -21.5229  -16.3953 O   0  0  0  0  0  0  0  0  0  0  0  0
  2  1  1  0
  3  2  1  0
  3 10  1  0
  4  3  2  0
  5  6  1  0
  7  6  1  0
  8  7  1  0
  9 11  1  0
  9  8  1  6
  9 10  1  0
 11 13  1  0
 12 11  2  0
 13 14  1  0
 13 17  1  0
 14 15  1  0
 15 16  1  0
 17 16  1  0
 17 18  1  6
 18 19  1  0
 20 18  2  0
M  END
$$$$
