GMP.pdb
     RDKit          3D

 20 20  0  0  1  0  0  0  0  0999 V2000
   22.0921  -19.8159  -17.8667 N   0  0  0  0  0  0  0  0  0  0  0  0
   22.3093  -18.4684  -18.3511 C   0  0  0  0  0  0  0  0  0  0  0  0
   21.9564  -17.4821  -17.2744 C   0  0  0  0  0  0  0  0  0  0  0  0
   21.0242  -17.7182  -16.4697 O   0  0  0  0  0  0  0  0  0  0  0  0
   27.1047  -14.5426  -14.8248 C   0  0  0  0  0  0  0  0  0  0  0  0
   26.2254  -15.9796  -15.4010 S   0  0  0  0  0  0  0  0  0  0  0  0
   24.4802  -16.0231  -14.9916 C   0  0  0  0  0  0  0  0  0  0  0  0
   23.6757  -14.8587  -15.4750 C   0  0  0  0  0  0  0  0  0  0  0  0
   22.4142  -15.2360  -16.1977 C   0  0  2  0  0  0  0  0  0  0  0  0
   22.6819  -16.2855  -17.1733 N   0  0  0  0  0  0  0  0  0  0  0  0
   21.7295  -14.1057  -16.8124 C   0  0  0  0  0  0  0  0  0  0  0  0
   22.1243  -13.8276  -18.0250 O   0  0  0  0  0  0  0  0  0  0  0  0
   20.7219  -13.2658  -16.3313 N   0  0  0  0  0  0  0  0  0  0  0  0
   20.0397  -13.5340  -15.0398 C   0  0  0  0  0  0  0  0  0  0  0  0
   18.6475  -12.9900  -15.3901 C   0  0  0  0  0  0  0  0  0  0  0  0
   19.0777  -11.6342  -15.9030 C   0  0  0  0  0  0  0  0  0  0  0  0
   20.1721  -12.0816  -16.9132 C   0  0  1  0  0  0  0  0  0  0  0  0
   21.1279  -10.9653  -17.0841 C   0  0  0  0  0  0  0  0  0  0  0  0
   20.7408   -9.8732  -17.8404 O   0  0  0  0  0  0  0  0  0  0  0  0
   22.2622  -10.9887  -16.5666 O   0  0  0  0  0  0  0  0  0  0  0  0
  2  1  1  0
  3  2  1  0
  3 10  1  0
  4  3  2  0
  5  6  1  0
  7  6  1  0
  8  7  1  0
  9 11  1  0
  9  8  1  6
  9 10  1  0
 11 13  1  0
 12 11  2  0
 13 14  1  0
 13 17  1  0
 14 15  1  0
 15 16  1  0
 17 16  1  0
 17 18  1  1
 18 19  1  0
 20 18  2  0
M  END
$$$$
