GMP.pdb
     RDKit          3D

 20 20  0  0  1  0  0  0  0  0999 V2000
   28.9005  -18.1470  -15.9568 N   0  0  0  0  0  0  0  0  0  0  0  0
   27.8634  -17.8259  -14.9981 C   0  0  0  0  0  0  0  0  0  0  0  0
   27.3836  -19.0845  -14.3333 C   0  0  0  0  0  0  0  0  0  0  0  0
   27.5519  -20.2013  -14.8781 O   0  0  0  0  0  0  0  0  0  0  0  0
   26.8055  -19.7337   -7.6724 C   0  0  0  0  0  0  0  0  0  0  0  0
   25.4932  -20.7389   -8.3337 S   0  0  0  0  0  0  0  0  0  0  0  0
   25.5581  -21.0128  -10.1046 C   0  0  0  0  0  0  0  0  0  0  0  0
   26.1405  -19.8943  -10.9088 C   0  0  0  0  0  0  0  0  0  0  0  0
   26.1419  -20.1342  -12.3915 C   0  0  2  0  0  0  0  0  0  0  0  0
   26.7409  -19.0029  -13.0888 N   0  0  0  0  0  0  0  0  0  0  0  0
   24.8282  -20.4545  -12.9354 C   0  0  0  0  0  0  0  0  0  0  0  0
   24.0218  -19.4335  -13.0401 O   0  0  0  0  0  0  0  0  0  0  0  0
   24.2791  -21.6648  -13.3663 N   0  0  0  0  0  0  0  0  0  0  0  0
   25.0782  -22.9163  -13.3841 C   0  0  0  0  0  0  0  0  0  0  0  0
   24.4390  -23.5879  -14.6078 C   0  0  0  0  0  0  0  0  0  0  0  0
   22.9937  -23.4625  -14.1817 C   0  0  0  0  0  0  0  0  0  0  0  0
   22.9607  -21.9452  -13.8422 C   0  0  1  0  0  0  0  0  0  0  0  0
   21.8777  -21.7142  -12.8611 C   0  0  0  0  0  0  0  0  0  0  0  0
   20.5726  -21.6595  -13.3173 O   0  0  0  0  0  0  0  0  0  0  0  0
   22.1148  -21.5692  -11.6455 O   0  0  0  0  0  0  0  0  0  0  0  0
  2  1  1  0
  3  2  1  0
  3 10  1  0
  4  3  2  0
  5  6  1  0
  7  6  1  0
  8  7  1  0
  9 11  1  0
  9  8  1  1
  9 10  1  0
 11 13  1  0
 12 11  2  0
 13 14  1  0
 13 17  1  0
 14 15  1  0
 15 16  1  0
 17 16  1  0
 17 18  1  1
 18 19  1  0
 20 18  2  0
M  END
$$$$
