GMP.pdb
     RDKit          3D

 20 20  0  0  1  0  0  0  0  0999 V2000
   20.1855  -19.7488  -15.0365 N   0  0  0  0  0  0  0  0  0  0  0  0
   21.0134  -20.7699  -14.4285 C   0  0  0  0  0  0  0  0  0  0  0  0
   22.3560  -20.1916  -14.0833 C   0  0  0  0  0  0  0  0  0  0  0  0
   22.6445  -19.0114  -14.3939 O   0  0  0  0  0  0  0  0  0  0  0  0
   25.4888  -20.3748   -8.5235 C   0  0  0  0  0  0  0  0  0  0  0  0
   26.7623  -21.0273   -9.5829 S   0  0  0  0  0  0  0  0  0  0  0  0
   26.4647  -20.8400  -11.3412 C   0  0  0  0  0  0  0  0  0  0  0  0
   25.1093  -21.2603  -11.8137 C   0  0  0  0  0  0  0  0  0  0  0  0
   24.6418  -20.5568  -13.0556 C   0  0  2  0  0  0  0  0  0  0  0  0
   23.2933  -20.9857  -13.4056 N   0  0  0  0  0  0  0  0  0  0  0  0
   25.5506  -20.6961  -14.1864 C   0  0  0  0  0  0  0  0  0  0  0  0
   25.4102  -21.8048  -14.8608 O   0  0  0  0  0  0  0  0  0  0  0  0
   26.5476  -19.8494  -14.6775 N   0  0  0  0  0  0  0  0  0  0  0  0
   26.8778  -18.5678  -14.0040 C   0  0  0  0  0  0  0  0  0  0  0  0
   27.2654  -17.7438  -15.2400 C   0  0  0  0  0  0  0  0  0  0  0  0
   28.2586  -18.7167  -15.8345 C   0  0  0  0  0  0  0  0  0  0  0  0
   27.3880  -20.0054  -15.8232 C   0  0  1  0  0  0  0  0  0  0  0  0
   28.2934  -21.1748  -15.7820 C   0  0  0  0  0  0  0  0  0  0  0  0
   28.9202  -21.5674  -16.9513 O   0  0  0  0  0  0  0  0  0  0  0  0
   28.5004  -21.8064  -14.7269 O   0  0  0  0  0  0  0  0  0  0  0  0
  2  1  1  0
  3  2  1  0
  3 10  1  0
  4  3  2  0
  5  6  1  0
  7  6  1  0
  8  7  1  0
  9 11  1  0
  9  8  1  1
  9 10  1  0
 11 13  1  0
 12 11  2  0
 13 14  1  0
 13 17  1  0
 14 15  1  0
 15 16  1  0
 17 16  1  0
 17 18  1  1
 18 19  1  0
 20 18  2  0
M  END
$$$$
