GMP.pdb
     RDKit          3D

 20 20  0  0  1  0  0  0  0  0999 V2000
   31.4149  -22.2783  -10.8006 N   0  0  0  0  0  0  0  0  0  0  0  0
   30.6328  -21.0729  -10.6187 C   0  0  0  0  0  0  0  0  0  0  0  0
   29.2845  -21.4259  -10.0585 C   0  0  0  0  0  0  0  0  0  0  0  0
   28.9460  -22.6240   -9.9096 O   0  0  0  0  0  0  0  0  0  0  0  0
   28.6304  -20.4238   -3.8995 C   0  0  0  0  0  0  0  0  0  0  0  0
   27.5443  -19.7885   -5.1592 S   0  0  0  0  0  0  0  0  0  0  0  0
   27.7276  -20.5401   -6.7769 C   0  0  0  0  0  0  0  0  0  0  0  0
   26.8744  -19.9576   -7.8584 C   0  0  0  0  0  0  0  0  0  0  0  0
   27.0456  -20.6105   -9.2002 C   0  0  2  0  0  0  0  0  0  0  0  0
   28.3986  -20.3988   -9.6996 N   0  0  0  0  0  0  0  0  0  0  0  0
   26.0499  -20.2019  -10.1830 C   0  0  0  0  0  0  0  0  0  0  0  0
   25.8372  -18.9152  -10.2357 O   0  0  0  0  0  0  0  0  0  0  0  0
   25.2817  -20.9468  -11.0814 N   0  0  0  0  0  0  0  0  0  0  0  0
   25.5605  -22.3832  -11.3350 C   0  0  0  0  0  0  0  0  0  0  0  0
   25.1491  -22.4469  -12.8127 C   0  0  0  0  0  0  0  0  0  0  0  0
   23.7809  -21.8183  -12.6742 C   0  0  0  0  0  0  0  0  0  0  0  0
   24.1698  -20.5382  -11.8813 C   0  0  1  0  0  0  0  0  0  0  0  0
   22.9833  -20.0866  -11.1215 C   0  0  0  0  0  0  0  0  0  0  0  0
   22.0233  -19.3373  -11.7782 O   0  0  0  0  0  0  0  0  0  0  0  0
   22.8331  -20.3642   -9.9151 O   0  0  0  0  0  0  0  0  0  0  0  0
  2  1  1  0
  3  2  1  0
  3 10  1  0
  4  3  2  0
  5  6  1  0
  7  6  1  0
  8  7  1  0
  9 11  1  0
  9  8  1  1
  9 10  1  0
 11 13  1  0
 12 11  2  0
 13 14  1  0
 13 17  1  0
 14 15  1  0
 15 16  1  0
 17 16  1  0
 17 18  1  1
 18 19  1  0
 20 18  2  0
M  END
$$$$
