GMP.pdb
     RDKit          3D

 20 20  0  0  1  0  0  0  0  0999 V2000
   29.8975  -21.1721  -15.2301 N   0  0  0  0  0  0  0  0  0  0  0  0
   29.1329  -20.1592  -14.5322 C   0  0  0  0  0  0  0  0  0  0  0  0
   28.0616  -20.8142  -13.7078 C   0  0  0  0  0  0  0  0  0  0  0  0
   27.6231  -21.9489  -14.0117 O   0  0  0  0  0  0  0  0  0  0  0  0
   27.2612  -20.1200   -7.1638 C   0  0  0  0  0  0  0  0  0  0  0  0
   25.9791  -21.0648   -7.9597 S   0  0  0  0  0  0  0  0  0  0  0  0
   25.3688  -20.3796   -9.5003 C   0  0  0  0  0  0  0  0  0  0  0  0
   26.4175  -19.8954  -10.4504 C   0  0  0  0  0  0  0  0  0  0  0  0
   26.4555  -20.6334  -11.7580 C   0  0  2  0  0  0  0  0  0  0  0  0
   27.5504  -20.1437  -12.5864 N   0  0  0  0  0  0  0  0  0  0  0  0
   25.1917  -20.6073  -12.4835 C   0  0  0  0  0  0  0  0  0  0  0  0
   24.8487  -19.4304  -12.9318 O   0  0  0  0  0  0  0  0  0  0  0  0
   24.2809  -21.6230  -12.7852 N   0  0  0  0  0  0  0  0  0  0  0  0
   24.5816  -23.0470  -12.4905 C   0  0  0  0  0  0  0  0  0  0  0  0
   23.8362  -23.6945  -13.6662 C   0  0  0  0  0  0  0  0  0  0  0  0
   22.5031  -23.0087  -13.4694 C   0  0  0  0  0  0  0  0  0  0  0  0
   22.9874  -21.5332  -13.3870 C   0  0  1  0  0  0  0  0  0  0  0  0
   21.9891  -20.7612  -12.6149 C   0  0  0  0  0  0  0  0  0  0  0  0
   20.8423  -20.3322  -13.2594 O   0  0  0  0  0  0  0  0  0  0  0  0
   22.1584  -20.4923  -11.4091 O   0  0  0  0  0  0  0  0  0  0  0  0
  2  1  1  0
  3  2  1  0
  3 10  1  0
  4  3  2  0
  5  6  1  0
  7  6  1  0
  8  7  1  0
  9 11  1  0
  9  8  1  1
  9 10  1  0
 11 13  1  0
 12 11  2  0
 13 14  1  0
 13 17  1  0
 14 15  1  0
 15 16  1  0
 17 16  1  0
 17 18  1  1
 18 19  1  0
 20 18  2  0
M  END
$$$$
