GMP.pdb
     RDKit          3D

 20 20  0  0  1  0  0  0  0  0999 V2000
   22.2613  -15.4285  -15.5172 N   0  0  0  0  0  0  0  0  0  0  0  0
   22.3277  -16.8185  -15.9188 C   0  0  0  0  0  0  0  0  0  0  0  0
   23.5073  -17.4775  -15.2627 C   0  0  0  0  0  0  0  0  0  0  0  0
   24.6483  -16.9617  -15.3288 O   0  0  0  0  0  0  0  0  0  0  0  0
   25.4085  -19.4628   -9.5394 C   0  0  0  0  0  0  0  0  0  0  0  0
   24.6500  -20.9065  -10.2538 S   0  0  0  0  0  0  0  0  0  0  0  0
   24.8230  -21.0605  -12.0319 C   0  0  0  0  0  0  0  0  0  0  0  0
   23.8038  -20.3270  -12.8444 C   0  0  0  0  0  0  0  0  0  0  0  0
   24.3840  -19.4150  -13.8873 C   0  0  2  0  0  0  0  0  0  0  0  0
   23.3237  -18.6834  -14.5695 N   0  0  0  0  0  0  0  0  0  0  0  0
   25.2559  -20.0916  -14.8392 C   0  0  0  0  0  0  0  0  0  0  0  0
   24.6282  -20.7594  -15.7686 O   0  0  0  0  0  0  0  0  0  0  0  0
   26.6486  -20.1508  -14.9329 N   0  0  0  0  0  0  0  0  0  0  0  0
   27.5219  -19.4408  -13.9641 C   0  0  0  0  0  0  0  0  0  0  0  0
   28.6876  -19.0986  -14.9028 C   0  0  0  0  0  0  0  0  0  0  0  0
   28.9204  -20.4856  -15.4582 C   0  0  0  0  0  0  0  0  0  0  0  0
   27.4663  -20.8343  -15.8854 C   0  0  1  0  0  0  0  0  0  0  0  0
   27.3261  -22.3072  -15.8895 C   0  0  0  0  0  0  0  0  0  0  0  0
   26.6235  -22.9075  -14.8598 O   0  0  0  0  0  0  0  0  0  0  0  0
   27.8229  -23.0102  -16.7918 O   0  0  0  0  0  0  0  0  0  0  0  0
  2  1  1  0
  3  2  1  0
  3 10  1  0
  4  3  2  0
  5  6  1  0
  7  6  1  0
  8  7  1  0
  9 11  1  0
  9  8  1  1
  9 10  1  0
 11 13  1  0
 12 11  2  0
 13 14  1  0
 13 17  1  0
 14 15  1  0
 15 16  1  0
 17 16  1  0
 17 18  1  1
 18 19  1  0
 20 18  2  0
M  END
$$$$
