GMP.pdb
     RDKit          3D

 20 20  0  0  1  0  0  0  0  0999 V2000
   29.1060  -21.2350  -16.5169 N   0  0  0  0  0  0  0  0  0  0  0  0
   28.5466  -20.3265  -15.5373 C   0  0  0  0  0  0  0  0  0  0  0  0
   27.5090  -21.0420  -14.7201 C   0  0  0  0  0  0  0  0  0  0  0  0
   26.9766  -22.0963  -15.1412 O   0  0  0  0  0  0  0  0  0  0  0  0
   26.1351  -19.3820   -8.0264 C   0  0  0  0  0  0  0  0  0  0  0  0
   25.8093  -21.0773   -8.4621 S   0  0  0  0  0  0  0  0  0  0  0  0
   25.4398  -21.3643  -10.1931 C   0  0  0  0  0  0  0  0  0  0  0  0
   26.4216  -20.7915  -11.1652 C   0  0  0  0  0  0  0  0  0  0  0  0
   26.1190  -21.0995  -12.6038 C   0  0  2  0  0  0  0  0  0  0  0  0
   27.1361  -20.5198  -13.4725 N   0  0  0  0  0  0  0  0  0  0  0  0
   24.7800  -20.7020  -13.0199 C   0  0  0  0  0  0  0  0  0  0  0  0
   24.5839  -19.4120  -13.0539 O   0  0  0  0  0  0  0  0  0  0  0  0
   23.6668  -21.4606  -13.3906 N   0  0  0  0  0  0  0  0  0  0  0  0
   23.7299  -22.9420  -13.4717 C   0  0  0  0  0  0  0  0  0  0  0  0
   22.7429  -23.1581  -14.6276 C   0  0  0  0  0  0  0  0  0  0  0  0
   21.5937  -22.3467  -14.0732 C   0  0  0  0  0  0  0  0  0  0  0  0
   22.3505  -21.0289  -13.7432 C   0  0  1  0  0  0  0  0  0  0  0  0
   21.6122  -20.3279  -12.6697 C   0  0  0  0  0  0  0  0  0  0  0  0
   22.0373  -20.4861  -11.3625 O   0  0  0  0  0  0  0  0  0  0  0  0
   20.6259  -19.6059  -12.9164 O   0  0  0  0  0  0  0  0  0  0  0  0
  2  1  1  0
  3  2  1  0
  3 10  1  0
  4  3  2  0
  5  6  1  0
  7  6  1  0
  8  7  1  0
  9 11  1  0
  9  8  1  1
  9 10  1  0
 11 13  1  0
 12 11  2  0
 13 14  1  0
 13 17  1  0
 14 15  1  0
 15 16  1  0
 17 16  1  0
 17 18  1  1
 18 19  1  0
 20 18  2  0
M  END
$$$$
