GMP.pdb
     RDKit          3D

 20 20  0  0  1  0  0  0  0  0999 V2000
   17.9154   -3.2906  -13.3440 N   0  0  0  0  0  0  0  0  0  0  0  0
   16.5434   -3.7299  -13.1942 C   0  0  0  0  0  0  0  0  0  0  0  0
   16.4511   -4.7221  -12.0702 C   0  0  0  0  0  0  0  0  0  0  0  0
   17.3657   -5.5577  -11.8763 O   0  0  0  0  0  0  0  0  0  0  0  0
   11.9298   -6.7435   -5.7513 C   0  0  0  0  0  0  0  0  0  0  0  0
   12.4253   -5.5611   -6.9868 S   0  0  0  0  0  0  0  0  0  0  0  0
   13.6806   -6.1330   -8.1325 C   0  0  0  0  0  0  0  0  0  0  0  0
   14.0629   -5.1641   -9.2058 C   0  0  0  0  0  0  0  0  0  0  0  0
   15.0512   -5.7018  -10.2008 C   0  0  2  0  0  0  0  0  0  0  0  0
   15.3266   -4.7082  -11.2314 N   0  0  0  0  0  0  0  0  0  0  0  0
   14.6586   -6.9767  -10.7878 C   0  0  0  0  0  0  0  0  0  0  0  0
   13.6407   -6.9076  -11.6019 O   0  0  0  0  0  0  0  0  0  0  0  0
   15.1817   -8.2629  -10.6327 N   0  0  0  0  0  0  0  0  0  0  0  0
   16.3749   -8.5180   -9.7861 C   0  0  0  0  0  0  0  0  0  0  0  0
   16.9854   -9.6804  -10.5817 C   0  0  0  0  0  0  0  0  0  0  0  0
   15.7501  -10.5487  -10.6610 C   0  0  0  0  0  0  0  0  0  0  0  0
   14.7365   -9.4983  -11.1973 C   0  0  1  0  0  0  0  0  0  0  0  0
   13.3770   -9.9187  -10.7924 C   0  0  0  0  0  0  0  0  0  0  0  0
   12.7700  -10.9509  -11.4856 O   0  0  0  0  0  0  0  0  0  0  0  0
   12.7742   -9.3677   -9.8501 O   0  0  0  0  0  0  0  0  0  0  0  0
  2  1  1  0
  3  2  1  0
  3 10  1  0
  4  3  2  0
  5  6  1  0
  7  6  1  0
  8  7  1  0
  9 11  1  0
  9  8  1  1
  9 10  1  0
 11 13  1  0
 12 11  2  0
 13 14  1  0
 13 17  1  0
 14 15  1  0
 15 16  1  0
 17 16  1  0
 17 18  1  1
 18 19  1  0
 20 18  2  0
M  END
$$$$
