NFI.pdb
     RDKit          3D

 28 28  0  0  1  0  0  0  0  0999 V2000
   14.8566  -11.3559  -17.0430 N   0  0  0  0  0  0  0  0  0  0  0  0
   15.5611  -10.3357  -16.3701 C   0  0  0  0  0  0  0  0  0  0  0  0
   15.8787   -9.3003  -16.9817 O   0  0  0  0  0  0  0  0  0  0  0  0
   15.9181  -10.4935  -14.9539 C   0  0  0  0  0  0  0  0  0  0  0  0
   17.3112  -10.0296  -14.7240 C   0  0  2  0  0  0  0  0  0  0  0  0
   18.3139  -10.9777  -15.1647 N   0  0  0  0  0  0  0  0  0  0  0  0
   17.5798   -9.5170  -13.3614 C   0  0  0  0  0  0  0  0  0  0  0  0
   17.5224  -10.3549  -12.4094 O   0  0  0  0  0  0  0  0  0  0  0  0
   17.8855   -8.1519  -13.1475 N   0  0  0  0  0  0  0  0  0  0  0  0
   18.1729   -7.6795  -11.7985 C   0  0  1  0  0  0  0  0  0  0  0  0
   19.5058   -6.9817  -11.8378 C   0  0  0  0  0  0  0  0  0  0  0  0
   20.6661   -7.8371  -12.0334 C   0  0  0  0  0  0  0  0  0  0  0  0
   21.2796   -7.9896  -13.2639 C   0  0  0  0  0  0  0  0  0  0  0  0
   22.3811   -8.8073  -13.4225 C   0  0  0  0  0  0  0  0  0  0  0  0
   22.9157   -9.5048  -12.3626 C   0  0  0  0  0  0  0  0  0  0  0  0
   22.3000   -9.3517  -11.1257 C   0  0  0  0  0  0  0  0  0  0  0  0
   21.1943   -8.5330  -10.9597 C   0  0  0  0  0  0  0  0  0  0  0  0
   17.1472   -6.7384  -11.3222 C   0  0  0  0  0  0  0  0  0  0  0  0
   16.7962   -5.8082  -12.0521 O   0  0  0  0  0  0  0  0  0  0  0  0
   13.0589   -8.4650   -8.0608 C   0  0  0  0  0  0  0  0  0  0  0  0
   13.9422   -7.7785   -9.0535 C   0  0  0  0  0  0  0  0  0  0  0  0
   14.6146   -6.5356   -8.5249 C   0  0  2  0  0  0  0  0  0  0  0  0
   13.5826   -5.5295   -8.0510 C   0  0  0  0  0  0  0  0  0  0  0  0
   15.6146   -5.9302   -9.4632 C   0  0  2  0  0  0  0  0  0  0  0  0
   16.5358   -6.8704  -10.0196 N   0  0  0  0  0  0  0  0  0  0  0  0
   16.2302   -4.6735   -9.0000 C   0  0  0  0  0  0  0  0  0  0  0  0
   17.5344   -4.6087   -8.4629 O   0  0  0  0  0  0  0  0  0  0  0  0
   15.6519   -3.5568   -9.0422 O   0  0  0  0  0  0  0  0  0  0  0  0
  1  2  1  0
  2  3  2  0
  4  2  1  0
  4  5  1  0
  5  6  1  1
  7  5  1  0
  7  8  2  0
  9  7  1  0
 10  9  1  0
 11 12  1  0
 10 11  1  6
 12 13  2  0
 12 17  1  0
 13 14  1  0
 14 15  2  0
 16 15  1  0
 17 16  2  0
 18 10  1  0
 19 18  2  0
 21 20  1  0
 22 21  1  0
 22 23  1  6
 24 22  1  0
 24 25  1  1
 25 18  1  0
 26 24  1  0
 27 26  1  0
 28 26  2  0
M  END
$$$$
