NFI.pdb
     RDKit          3D

 28 28  0  0  1  0  0  0  0  0999 V2000
   25.8689  -20.8074  -16.1944 N   0  0  0  0  0  0  0  0  0  0  0  0
   26.3511  -20.0754  -15.0892 C   0  0  0  0  0  0  0  0  0  0  0  0
   27.0363  -19.0548  -15.2784 O   0  0  0  0  0  0  0  0  0  0  0  0
   26.0457  -20.5146  -13.7210 C   0  0  0  0  0  0  0  0  0  0  0  0
   27.3002  -20.6444  -12.9348 C   0  0  2  0  0  0  0  0  0  0  0  0
   28.2885  -21.4965  -13.5640 N   0  0  0  0  0  0  0  0  0  0  0  0
   27.1070  -20.9668  -11.5029 C   0  0  0  0  0  0  0  0  0  0  0  0
   26.3649  -21.9605  -11.2315 O   0  0  0  0  0  0  0  0  0  0  0  0
   27.7289  -20.1921  -10.4950 N   0  0  0  0  0  0  0  0  0  0  0  0
   27.4689  -20.4907   -9.0919 C   0  0  1  0  0  0  0  0  0  0  0  0
   28.4194  -19.6629   -8.2694 C   0  0  0  0  0  0  0  0  0  0  0  0
   28.2925  -19.7948   -6.8262 C   0  0  0  0  0  0  0  0  0  0  0  0
   28.6699  -20.9395   -6.1472 C   0  0  0  0  0  0  0  0  0  0  0  0
   28.5401  -21.0386   -4.7759 C   0  0  0  0  0  0  0  0  0  0  0  0
   28.0303  -20.0022   -4.0265 C   0  0  0  0  0  0  0  0  0  0  0  0
   27.6513  -18.8515   -4.7080 C   0  0  0  0  0  0  0  0  0  0  0  0
   27.7787  -18.7455   -6.0839 C   0  0  0  0  0  0  0  0  0  0  0  0
   26.0861  -20.1603   -8.7131 C   0  0  0  0  0  0  0  0  0  0  0  0
   25.6396  -19.0411   -8.9762 O   0  0  0  0  0  0  0  0  0  0  0  0
   22.6273  -20.5597  -11.4424 C   0  0  0  0  0  0  0  0  0  0  0  0
   23.3670  -20.2391  -10.1826 C   0  0  0  0  0  0  0  0  0  0  0  0
   22.9707  -21.0899   -9.0013 C   0  0  2  0  0  0  0  0  0  0  0  0
   21.4967  -20.9157   -8.6871 C   0  0  0  0  0  0  0  0  0  0  0  0
   23.8385  -20.9075   -7.7927 C   0  0  2  0  0  0  0  0  0  0  0  0
   25.2314  -21.1104   -8.0388 N   0  0  0  0  0  0  0  0  0  0  0  0
   23.3383  -21.5404   -6.5589 C   0  0  0  0  0  0  0  0  0  0  0  0
   22.1941  -21.0827   -5.8695 O   0  0  0  0  0  0  0  0  0  0  0  0
   23.8830  -22.5361   -6.0157 O   0  0  0  0  0  0  0  0  0  0  0  0
  1  2  1  0
  2  3  2  0
  4  2  1  0
  4  5  1  0
  5  6  1  6
  7  5  1  0
  7  8  2  0
  9  7  1  0
 10  9  1  0
 11 12  1  0
 10 11  1  1
 12 13  2  0
 12 17  1  0
 13 14  1  0
 14 15  2  0
 16 15  1  0
 17 16  2  0
 18 10  1  0
 19 18  2  0
 21 20  1  0
 22 21  1  0
 22 23  1  1
 24 22  1  0
 24 25  1  6
 25 18  1  0
 26 24  1  0
 27 26  1  0
 28 26  2  0
M  END
$$$$
