NFI.pdb
     RDKit          3D

 28 28  0  0  1  0  0  0  0  0999 V2000
   29.0815  -19.9894  -19.5504 N   0  0  0  0  0  0  0  0  0  0  0  0
   28.0146  -19.4914  -18.7735 C   0  0  0  0  0  0  0  0  0  0  0  0
   27.8708  -18.2631  -18.6405 O   0  0  0  0  0  0  0  0  0  0  0  0
   27.0768  -20.4174  -18.1247 C   0  0  0  0  0  0  0  0  0  0  0  0
   27.7986  -21.2731  -17.1473 C   0  0  2  0  0  0  0  0  0  0  0  0
   28.3534  -22.4757  -17.7343 N   0  0  0  0  0  0  0  0  0  0  0  0
   27.0596  -21.5464  -15.8940 C   0  0  0  0  0  0  0  0  0  0  0  0
   26.2977  -22.5618  -15.8847 O   0  0  0  0  0  0  0  0  0  0  0  0
   27.2074  -20.7037  -14.7667 N   0  0  0  0  0  0  0  0  0  0  0  0
   26.4381  -20.9737  -13.5581 C   0  0  1  0  0  0  0  0  0  0  0  0
   27.1422  -20.2972  -12.4129 C   0  0  0  0  0  0  0  0  0  0  0  0
   26.5230  -20.4508  -11.1055 C   0  0  0  0  0  0  0  0  0  0  0  0
   25.5664  -19.5732  -10.6271 C   0  0  0  0  0  0  0  0  0  0  0  0
   24.9930  -19.7424   -9.3823 C   0  0  0  0  0  0  0  0  0  0  0  0
   25.3485  -20.7918   -8.5650 C   0  0  0  0  0  0  0  0  0  0  0  0
   26.3092  -21.6742   -9.0452 C   0  0  0  0  0  0  0  0  0  0  0  0
   26.8887  -21.5102  -10.2933 C   0  0  0  0  0  0  0  0  0  0  0  0
   25.0661  -20.4522  -13.6593 C   0  0  0  0  0  0  0  0  0  0  0  0
   24.8749  -19.3564  -14.1923 O   0  0  0  0  0  0  0  0  0  0  0  0
   20.0049  -20.8424  -16.1863 C   0  0  0  0  0  0  0  0  0  0  0  0
   20.5709  -20.5770  -14.8276 C   0  0  0  0  0  0  0  0  0  0  0  0
   21.9657  -21.1152  -14.6246 C   0  0  2  0  0  0  0  0  0  0  0  0
   22.0120  -22.6038  -14.9135 C   0  0  0  0  0  0  0  0  0  0  0  0
   22.5711  -20.7712  -13.2972 C   0  0  2  0  0  0  0  0  0  0  0  0
   23.9305  -21.1869  -13.1509 N   0  0  0  0  0  0  0  0  0  0  0  0
   21.7188  -21.0488  -12.1270 C   0  0  0  0  0  0  0  0  0  0  0  0
   22.1515  -21.8206  -11.0266 O   0  0  0  0  0  0  0  0  0  0  0  0
   20.5398  -20.6259  -12.0070 O   0  0  0  0  0  0  0  0  0  0  0  0
  1  2  1  0
  2  3  2  0
  4  2  1  0
  4  5  1  0
  5  6  1  6
  7  5  1  0
  7  8  2  0
  9  7  1  0
 10  9  1  0
 11 12  1  0
 10 11  1  1
 12 13  2  0
 12 17  1  0
 13 14  1  0
 14 15  2  0
 16 15  1  0
 17 16  2  0
 18 10  1  0
 19 18  2  0
 21 20  1  0
 22 21  1  0
 22 23  1  1
 24 22  1  0
 24 25  1  1
 25 18  1  0
 26 24  1  0
 27 26  1  0
 28 26  2  0
M  END
$$$$
