NFI.pdb
     RDKit          3D

 28 28  0  0  1  0  0  0  0  0999 V2000
   15.4813  -10.3773  -18.1298 N   0  0  0  0  0  0  0  0  0  0  0  0
   16.3150   -9.4306  -17.4986 C   0  0  0  0  0  0  0  0  0  0  0  0
   16.8187   -8.5108  -18.1674 O   0  0  0  0  0  0  0  0  0  0  0  0
   16.5874   -9.5286  -16.0583 C   0  0  0  0  0  0  0  0  0  0  0  0
   18.0279   -9.2767  -15.7931 C   0  0  2  0  0  0  0  0  0  0  0  0
   18.8963  -10.3262  -16.2864 N   0  0  0  0  0  0  0  0  0  0  0  0
   18.3462   -8.8895  -14.4002 C   0  0  0  0  0  0  0  0  0  0  0  0
   18.0025   -9.6992  -13.4847 O   0  0  0  0  0  0  0  0  0  0  0  0
   19.0042   -7.6684  -14.1194 N   0  0  0  0  0  0  0  0  0  0  0  0
   19.3683   -7.3442  -12.7455 C   0  0  1  0  0  0  0  0  0  0  0  0
   20.8287   -6.9806  -12.7382 C   0  0  0  0  0  0  0  0  0  0  0  0
   21.7573   -8.0721  -12.9883 C   0  0  0  0  0  0  0  0  0  0  0  0
   22.3130   -8.3063  -14.2335 C   0  0  0  0  0  0  0  0  0  0  0  0
   23.1932   -9.3492  -14.4440 C   0  0  0  0  0  0  0  0  0  0  0  0
   23.5557  -10.1996  -13.4237 C   0  0  0  0  0  0  0  0  0  0  0  0
   22.9981   -9.9647  -12.1722 C   0  0  0  0  0  0  0  0  0  0  0  0
   22.1140   -8.9200  -11.9541 C   0  0  0  0  0  0  0  0  0  0  0  0
   18.5844   -6.2116  -12.2283 C   0  0  0  0  0  0  0  0  0  0  0  0
   18.2973   -5.2810  -12.9851 O   0  0  0  0  0  0  0  0  0  0  0  0
   13.7157   -3.9275  -11.3153 C   0  0  0  0  0  0  0  0  0  0  0  0
   15.0206   -3.9955  -10.5877 C   0  0  0  0  0  0  0  0  0  0  0  0
   15.9107   -5.1333  -11.0227 C   0  0  2  0  0  0  0  0  0  0  0  0
   15.1747   -6.4562  -10.9240 C   0  0  0  0  0  0  0  0  0  0  0  0
   17.2439   -5.1682  -10.3383 C   0  0  2  0  0  0  0  0  0  0  0  0
   18.1390   -6.1552  -10.8549 N   0  0  0  0  0  0  0  0  0  0  0  0
   17.1967   -5.0978   -8.8667 C   0  0  0  0  0  0  0  0  0  0  0  0
   17.7707   -6.0807   -8.0312 O   0  0  0  0  0  0  0  0  0  0  0  0
   16.6449   -4.1627   -8.2307 O   0  0  0  0  0  0  0  0  0  0  0  0
  1  2  1  0
  2  3  2  0
  4  2  1  0
  4  5  1  0
  5  6  1  1
  7  5  1  0
  7  8  2  0
  9  7  1  0
 10  9  1  0
 11 12  1  0
 10 11  1  6
 12 13  2  0
 12 17  1  0
 13 14  1  0
 14 15  2  0
 16 15  1  0
 17 16  2  0
 18 10  1  0
 19 18  2  0
 21 20  1  0
 22 21  1  0
 22 23  1  1
 24 22  1  0
 24 25  1  1
 25 18  1  0
 26 24  1  0
 27 26  1  0
 28 26  2  0
M  END
$$$$
