NFI.pdb
     RDKit          3D

 28 28  0  0  1  0  0  0  0  0999 V2000
   29.5767  -18.0771  -14.7037 N   0  0  0  0  0  0  0  0  0  0  0  0
   28.3906  -18.3011  -15.4337 C   0  0  0  0  0  0  0  0  0  0  0  0
   28.1389  -17.5999  -16.4297 O   0  0  0  0  0  0  0  0  0  0  0  0
   27.4567  -19.3575  -15.0214 C   0  0  0  0  0  0  0  0  0  0  0  0
   27.9348  -20.0015  -13.7702 C   0  0  2  0  0  0  0  0  0  0  0  0
   29.1209  -20.8121  -13.9568 N   0  0  0  0  0  0  0  0  0  0  0  0
   26.8889  -20.7029  -12.9921 C   0  0  0  0  0  0  0  0  0  0  0  0
   26.5250  -21.8436  -13.4142 O   0  0  0  0  0  0  0  0  0  0  0  0
   26.3308  -20.1143  -11.8324 N   0  0  0  0  0  0  0  0  0  0  0  0
   25.2412  -20.7865  -11.1350 C   0  0  1  0  0  0  0  0  0  0  0  0
   25.2658  -20.3228   -9.7034 C   0  0  0  0  0  0  0  0  0  0  0  0
   26.5653  -20.3455   -9.0498 C   0  0  0  0  0  0  0  0  0  0  0  0
   26.9164  -19.4453   -8.0597 C   0  0  0  0  0  0  0  0  0  0  0  0
   28.1567  -19.4892   -7.4541 C   0  0  0  0  0  0  0  0  0  0  0  0
   29.0959  -20.4311   -7.8094 C   0  0  0  0  0  0  0  0  0  0  0  0
   28.7436  -21.3363   -8.8038 C   0  0  0  0  0  0  0  0  0  0  0  0
   27.5009  -21.2976   -9.4157 C   0  0  0  0  0  0  0  0  0  0  0  0
   23.9342  -20.4611  -11.7272 C   0  0  0  0  0  0  0  0  0  0  0  0
   23.5991  -19.2792  -11.8373 O   0  0  0  0  0  0  0  0  0  0  0  0
   22.7407  -21.7883  -16.5091 C   0  0  0  0  0  0  0  0  0  0  0  0
   22.7992  -21.2477  -15.1158 C   0  0  0  0  0  0  0  0  0  0  0  0
   21.6754  -21.7164  -14.2249 C   0  0  2  0  0  0  0  0  0  0  0  0
   20.3298  -21.4109  -14.8555 C   0  0  0  0  0  0  0  0  0  0  0  0
   21.7676  -21.2297  -12.8101 C   0  0  2  0  0  0  0  0  0  0  0  0
   23.0266  -21.4878  -12.1854 N   0  0  0  0  0  0  0  0  0  0  0  0
   20.5957  -21.5255  -11.9663 C   0  0  0  0  0  0  0  0  0  0  0  0
   19.4199  -20.7437  -11.9822 O   0  0  0  0  0  0  0  0  0  0  0  0
   20.5406  -22.4931  -11.1638 O   0  0  0  0  0  0  0  0  0  0  0  0
  1  2  1  0
  2  3  2  0
  4  2  1  0
  4  5  1  0
  5  6  1  6
  7  5  1  0
  7  8  2  0
  9  7  1  0
 10  9  1  0
 11 12  1  0
 10 11  1  1
 12 13  2  0
 12 17  1  0
 13 14  1  0
 14 15  2  0
 16 15  1  0
 17 16  2  0
 18 10  1  0
 19 18  2  0
 21 20  1  0
 22 21  1  0
 22 23  1  6
 24 22  1  0
 24 25  1  1
 25 18  1  0
 26 24  1  0
 27 26  1  0
 28 26  2  0
M  END
$$$$
