NFI.pdb
     RDKit          3D

 28 28  0  0  1  0  0  0  0  0999 V2000
   27.9365  -23.8854  -19.2802 N   0  0  0  0  0  0  0  0  0  0  0  0
   28.3371  -23.0066  -18.2520 C   0  0  0  0  0  0  0  0  0  0  0  0
   29.1259  -22.0794  -18.5071 O   0  0  0  0  0  0  0  0  0  0  0  0
   27.8257  -23.1840  -16.8863 C   0  0  0  0  0  0  0  0  0  0  0  0
   27.2706  -21.9022  -16.3788 C   0  0  2  0  0  0  0  0  0  0  0  0
   28.2035  -20.7971  -16.4637 N   0  0  0  0  0  0  0  0  0  0  0  0
   26.6171  -21.9881  -15.0533 C   0  0  0  0  0  0  0  0  0  0  0  0
   25.7392  -22.8926  -14.9018 O   0  0  0  0  0  0  0  0  0  0  0  0
   26.9669  -21.0946  -14.0131 N   0  0  0  0  0  0  0  0  0  0  0  0
   26.2839  -21.1802  -12.7280 C   0  0  1  0  0  0  0  0  0  0  0  0
   27.1848  -20.5596  -11.6944 C   0  0  0  0  0  0  0  0  0  0  0  0
   26.6304  -20.4439  -10.3544 C   0  0  0  0  0  0  0  0  0  0  0  0
   26.7012  -21.4693   -9.4283 C   0  0  0  0  0  0  0  0  0  0  0  0
   26.1676  -21.3333   -8.1619 C   0  0  0  0  0  0  0  0  0  0  0  0
   25.5433  -20.1714   -7.7671 C   0  0  0  0  0  0  0  0  0  0  0  0
   25.4722  -19.1405   -8.6969 C   0  0  0  0  0  0  0  0  0  0  0  0
   26.0053  -19.2705   -9.9695 C   0  0  0  0  0  0  0  0  0  0  0  0
   25.0001  -20.4618  -12.7459 C   0  0  0  0  0  0  0  0  0  0  0  0
   24.9777  -19.2745  -13.0790 O   0  0  0  0  0  0  0  0  0  0  0  0
   20.4236  -19.0597  -15.4481 C   0  0  0  0  0  0  0  0  0  0  0  0
   20.7901  -19.4083  -14.0406 C   0  0  0  0  0  0  0  0  0  0  0  0
   22.0551  -20.2210  -13.9159 C   0  0  2  0  0  0  0  0  0  0  0  0
   21.9645  -21.4834  -14.7525 C   0  0  0  0  0  0  0  0  0  0  0  0
   22.4708  -20.5000  -12.5030 C   0  0  2  0  0  0  0  0  0  0  0  0
   23.7590  -21.1068  -12.3831 N   0  0  0  0  0  0  0  0  0  0  0  0
   21.4308  -21.1021  -11.6493 C   0  0  0  0  0  0  0  0  0  0  0  0
   20.3778  -20.3549  -11.0777 O   0  0  0  0  0  0  0  0  0  0  0  0
   21.3904  -22.3254  -11.3573 O   0  0  0  0  0  0  0  0  0  0  0  0
  1  2  1  0
  2  3  2  0
  4  2  1  0
  4  5  1  0
  5  6  1  1
  7  5  1  0
  7  8  2  0
  9  7  1  0
 10  9  1  0
 11 12  1  0
 10 11  1  1
 12 13  2  0
 12 17  1  0
 13 14  1  0
 14 15  2  0
 16 15  1  0
 17 16  2  0
 18 10  1  0
 19 18  2  0
 21 20  1  0
 22 21  1  0
 22 23  1  6
 24 22  1  0
 24 25  1  6
 25 18  1  0
 26 24  1  0
 27 26  1  0
 28 26  2  0
M  END
$$$$
