NFI.pdb
     RDKit          3D

 28 28  0  0  1  0  0  0  0  0999 V2000
   19.9974  -14.3370  -20.0005 N   0  0  0  0  0  0  0  0  0  0  0  0
   20.8156  -13.1887  -19.9598 C   0  0  0  0  0  0  0  0  0  0  0  0
   21.5182  -12.8981  -20.9441 O   0  0  0  0  0  0  0  0  0  0  0  0
   20.8384  -12.3388  -18.7617 C   0  0  0  0  0  0  0  0  0  0  0  0
   22.2403  -12.1110  -18.3243 C   0  0  2  0  0  0  0  0  0  0  0  0
   22.9188  -13.3226  -17.9115 N   0  0  0  0  0  0  0  0  0  0  0  0
   22.4184  -11.0066  -17.3547 C   0  0  0  0  0  0  0  0  0  0  0  0
   22.0128  -11.2104  -16.1690 O   0  0  0  0  0  0  0  0  0  0  0  0
   23.0156   -9.7855  -17.7483 N   0  0  0  0  0  0  0  0  0  0  0  0
   23.2277   -8.7345  -16.7604 C   0  0  1  0  0  0  0  0  0  0  0  0
   24.6459   -8.2532  -16.9090 C   0  0  0  0  0  0  0  0  0  0  0  0
   25.6831   -9.2217  -16.5891 C   0  0  0  0  0  0  0  0  0  0  0  0
   25.8918   -9.6923  -15.3049 C   0  0  0  0  0  0  0  0  0  0  0  0
   26.8831  -10.6129  -15.0281 C   0  0  0  0  0  0  0  0  0  0  0  0
   27.7052  -11.1020  -16.0183 C   0  0  0  0  0  0  0  0  0  0  0  0
   27.4959  -10.6300  -17.3090 C   0  0  0  0  0  0  0  0  0  0  0  0
   26.5031   -9.7060  -17.5936 C   0  0  0  0  0  0  0  0  0  0  0  0
   22.3085   -7.6038  -16.9639 C   0  0  0  0  0  0  0  0  0  0  0  0
   22.2674   -7.0504  -18.0654 O   0  0  0  0  0  0  0  0  0  0  0  0
   16.8456   -5.7930  -17.2291 C   0  0  0  0  0  0  0  0  0  0  0  0
   18.1795   -5.3521  -16.7162 C   0  0  0  0  0  0  0  0  0  0  0  0
   19.1299   -6.4849  -16.4161 C   0  0  2  0  0  0  0  0  0  0  0  0
   18.5347   -7.4232  -15.3831 C   0  0  0  0  0  0  0  0  0  0  0  0
   20.5175   -6.0455  -16.0574 C   0  0  2  0  0  0  0  0  0  0  0  0
   21.4489   -7.1190  -15.9085 N   0  0  0  0  0  0  0  0  0  0  0  0
   20.5984   -5.0170  -15.0045 C   0  0  0  0  0  0  0  0  0  0  0  0
   21.2505   -5.2299  -13.7703 O   0  0  0  0  0  0  0  0  0  0  0  0
   20.0971   -3.8679  -15.1123 O   0  0  0  0  0  0  0  0  0  0  0  0
  1  2  1  0
  2  3  2  0
  4  2  1  0
  4  5  1  0
  5  6  1  1
  7  5  1  0
  7  8  2  0
  9  7  1  0
 10  9  1  0
 11 12  1  0
 10 11  1  6
 12 13  2  0
 12 17  1  0
 13 14  1  0
 14 15  2  0
 16 15  1  0
 17 16  2  0
 18 10  1  0
 19 18  2  0
 21 20  1  0
 22 21  1  0
 22 23  1  1
 24 22  1  0
 24 25  1  1
 25 18  1  0
 26 24  1  0
 27 26  1  0
 28 26  2  0
M  END
$$$$
