NFI.pdb
     RDKit          3D

 28 28  0  0  1  0  0  0  0  0999 V2000
   26.9956  -24.0128  -18.4115 N   0  0  0  0  0  0  0  0  0  0  0  0
   27.6892  -24.5334  -17.2990 C   0  0  0  0  0  0  0  0  0  0  0  0
   27.8105  -25.7645  -17.1700 O   0  0  0  0  0  0  0  0  0  0  0  0
   28.2668  -23.6273  -16.2972 C   0  0  0  0  0  0  0  0  0  0  0  0
   27.8466  -22.2284  -16.5719 C   0  0  2  0  0  0  0  0  0  0  0  0
   28.4756  -21.6583  -17.7458 N   0  0  0  0  0  0  0  0  0  0  0  0
   27.9038  -21.3205  -15.4041 C   0  0  0  0  0  0  0  0  0  0  0  0
   28.9944  -20.7002  -15.2100 O   0  0  0  0  0  0  0  0  0  0  0  0
   26.7844  -21.1626  -14.5528 N   0  0  0  0  0  0  0  0  0  0  0  0
   26.8641  -20.2520  -13.4171 C   0  0  1  0  0  0  0  0  0  0  0  0
   26.1469  -18.9858  -13.8010 C   0  0  0  0  0  0  0  0  0  0  0  0
   24.8246  -19.1553  -14.3833 C   0  0  0  0  0  0  0  0  0  0  0  0
   24.6151  -19.2176  -15.7494 C   0  0  0  0  0  0  0  0  0  0  0  0
   23.3492  -19.3801  -16.2767 C   0  0  0  0  0  0  0  0  0  0  0  0
   22.2421  -19.4879  -15.4652 C   0  0  0  0  0  0  0  0  0  0  0  0
   22.4519  -19.4259  -14.0924 C   0  0  0  0  0  0  0  0  0  0  0  0
   23.7195  -19.2627  -13.5568 C   0  0  0  0  0  0  0  0  0  0  0  0
   26.2313  -20.8226  -12.2176 C   0  0  0  0  0  0  0  0  0  0  0  0
   25.3886  -21.7139  -12.3461 O   0  0  0  0  0  0  0  0  0  0  0  0
   27.2054  -18.8999   -6.6048 C   0  0  0  0  0  0  0  0  0  0  0  0
   26.5867  -19.1406   -7.9449 C   0  0  0  0  0  0  0  0  0  0  0  0
   26.7263  -20.5580   -8.4430 C   0  0  2  0  0  0  0  0  0  0  0  0
   28.1894  -20.9396   -8.5671 C   0  0  0  0  0  0  0  0  0  0  0  0
   25.9510  -20.8507   -9.6921 C   0  0  2  0  0  0  0  0  0  0  0  0
   26.5676  -20.3687  -10.8877 N   0  0  0  0  0  0  0  0  0  0  0  0
   24.5019  -20.5943   -9.6067 C   0  0  0  0  0  0  0  0  0  0  0  0
   23.6520  -21.2772   -8.7094 O   0  0  0  0  0  0  0  0  0  0  0  0
   23.8998  -19.7511  -10.3205 O   0  0  0  0  0  0  0  0  0  0  0  0
  1  2  1  0
  2  3  2  0
  4  2  1  0
  4  5  1  0
  5  6  1  6
  7  5  1  0
  7  8  2  0
  9  7  1  0
 10  9  1  0
 11 12  1  0
 10 11  1  6
 12 13  2  0
 12 17  1  0
 13 14  1  0
 14 15  2  0
 16 15  1  0
 17 16  2  0
 18 10  1  0
 19 18  2  0
 21 20  1  0
 22 21  1  0
 22 23  1  6
 24 22  1  0
 24 25  1  6
 25 18  1  0
 26 24  1  0
 27 26  1  0
 28 26  2  0
M  END
$$$$
