NFI.pdb
     RDKit          3D

 28 28  0  0  1  0  0  0  0  0999 V2000
   30.8627  -37.5245   -7.0735 N   0  0  0  0  0  0  0  0  0  0  0  0
   31.4423  -38.5465   -6.2928 C   0  0  0  0  0  0  0  0  0  0  0  0
   31.0678  -39.7231   -6.4427 O   0  0  0  0  0  0  0  0  0  0  0  0
   32.4835  -38.2246   -5.3078 C   0  0  0  0  0  0  0  0  0  0  0  0
   32.7551  -36.7635   -5.3114 C   0  0  2  0  0  0  0  0  0  0  0  0
   33.8977  -36.3882   -4.5037 N   0  0  0  0  0  0  0  0  0  0  0  0
   31.5743  -35.9100   -5.0492 C   0  0  0  0  0  0  0  0  0  0  0  0
   31.3381  -35.6103   -3.8383 O   0  0  0  0  0  0  0  0  0  0  0  0
   30.7565  -35.4573   -6.1118 N   0  0  0  0  0  0  0  0  0  0  0  0
   29.5625  -34.6734   -5.8200 C   0  0  1  0  0  0  0  0  0  0  0  0
   29.3587  -33.7165   -6.9636 C   0  0  0  0  0  0  0  0  0  0  0  0
   28.1090  -32.9718   -6.9548 C   0  0  0  0  0  0  0  0  0  0  0  0
   27.4373  -32.6584   -5.7867 C   0  0  0  0  0  0  0  0  0  0  0  0
   26.2527  -31.9490   -5.8059 C   0  0  0  0  0  0  0  0  0  0  0  0
   25.6903  -31.5230   -6.9883 C   0  0  0  0  0  0  0  0  0  0  0  0
   26.3649  -31.8371   -8.1624 C   0  0  0  0  0  0  0  0  0  0  0  0
   27.5540  -32.5489   -8.1502 C   0  0  0  0  0  0  0  0  0  0  0  0
   28.3717  -35.5269   -5.6843 C   0  0  0  0  0  0  0  0  0  0  0  0
   28.0820  -36.3074   -6.5944 O   0  0  0  0  0  0  0  0  0  0  0  0
   27.7716  -39.4917   -2.7641 C   0  0  0  0  0  0  0  0  0  0  0  0
   27.6291  -38.3460   -3.7149 C   0  0  0  0  0  0  0  0  0  0  0  0
   26.5018  -37.4015   -3.3779 C   0  0  2  0  0  0  0  0  0  0  0  0
   25.2078  -38.1658   -3.1699 C   0  0  0  0  0  0  0  0  0  0  0  0
   26.3449  -36.2624   -4.3396 C   0  0  2  0  0  0  0  0  0  0  0  0
   27.5270  -35.4785   -4.5130 N   0  0  0  0  0  0  0  0  0  0  0  0
   25.1081  -35.4754   -4.1848 C   0  0  0  0  0  0  0  0  0  0  0  0
   23.9278  -35.7474   -4.9105 O   0  0  0  0  0  0  0  0  0  0  0  0
   24.9965  -34.4994   -3.3984 O   0  0  0  0  0  0  0  0  0  0  0  0
  1  2  1  0
  2  3  2  0
  4  2  1  0
  4  5  1  0
  5  6  1  1
  7  5  1  0
  7  8  2  0
  9  7  1  0
 10  9  1  0
 11 12  1  0
 10 11  1  6
 12 13  2  0
 12 17  1  0
 13 14  1  0
 14 15  2  0
 16 15  1  0
 17 16  2  0
 18 10  1  0
 19 18  2  0
 21 20  1  0
 22 21  1  0
 22 23  1  6
 24 22  1  0
 24 25  1  1
 25 18  1  0
 26 24  1  0
 27 26  1  0
 28 26  2  0
M  END
$$$$
