NFI.pdb
     RDKit          3D

 28 28  0  0  1  0  0  0  0  0999 V2000
   27.1387  -21.2473  -19.9822 N   0  0  0  0  0  0  0  0  0  0  0  0
   27.9793  -21.8638  -19.0318 C   0  0  0  0  0  0  0  0  0  0  0  0
   29.1777  -22.0569  -19.3032 O   0  0  0  0  0  0  0  0  0  0  0  0
   27.4437  -22.2758  -17.7274 C   0  0  0  0  0  0  0  0  0  0  0  0
   27.2710  -21.0895  -16.8490 C   0  0  2  0  0  0  0  0  0  0  0  0
   28.5094  -20.3880  -16.5787 N   0  0  0  0  0  0  0  0  0  0  0  0
   26.4815  -21.3338  -15.6208 C   0  0  0  0  0  0  0  0  0  0  0  0
   25.9930  -22.4961  -15.4721 O   0  0  0  0  0  0  0  0  0  0  0  0
   26.2897  -20.3071  -14.6659 N   0  0  0  0  0  0  0  0  0  0  0  0
   25.4718  -20.5622  -13.4864 C   0  0  1  0  0  0  0  0  0  0  0  0
   25.9135  -19.6037  -12.4134 C   0  0  0  0  0  0  0  0  0  0  0  0
   26.0744  -20.1687  -11.0826 C   0  0  0  0  0  0  0  0  0  0  0  0
   27.1493  -20.9688  -10.7385 C   0  0  0  0  0  0  0  0  0  0  0  0
   27.2791  -21.4920   -9.4671 C   0  0  0  0  0  0  0  0  0  0  0  0
   26.3447  -21.2390   -8.4881 C   0  0  0  0  0  0  0  0  0  0  0  0
   25.2645  -20.4348   -8.8330 C   0  0  0  0  0  0  0  0  0  0  0  0
   25.1282  -19.9068  -10.1070 C   0  0  0  0  0  0  0  0  0  0  0  0
   24.0414  -20.3554  -13.7619 C   0  0  0  0  0  0  0  0  0  0  0  0
   23.6852  -19.3490  -14.3794 O   0  0  0  0  0  0  0  0  0  0  0  0
   20.1893  -24.3099  -15.1942 C   0  0  0  0  0  0  0  0  0  0  0  0
   20.8862  -23.4579  -14.1817 C   0  0  0  0  0  0  0  0  0  0  0  0
   21.0623  -22.0197  -14.6022 C   0  0  2  0  0  0  0  0  0  0  0  0
   21.8379  -21.9338  -15.9032 C   0  0  0  0  0  0  0  0  0  0  0  0
   21.6324  -21.1323  -13.5370 C   0  0  2  0  0  0  0  0  0  0  0  0
   23.0362  -21.2989  -13.3288 N   0  0  0  0  0  0  0  0  0  0  0  0
   20.8377  -21.0473  -12.2984 C   0  0  0  0  0  0  0  0  0  0  0  0
   19.4763  -20.6727  -12.2826 O   0  0  0  0  0  0  0  0  0  0  0  0
   21.2991  -21.2990  -11.1552 O   0  0  0  0  0  0  0  0  0  0  0  0
  1  2  1  0
  2  3  2  0
  4  2  1  0
  4  5  1  0
  5  6  1  1
  7  5  1  0
  7  8  2  0
  9  7  1  0
 10  9  1  0
 11 12  1  0
 10 11  1  1
 12 13  2  0
 12 17  1  0
 13 14  1  0
 14 15  2  0
 16 15  1  0
 17 16  2  0
 18 10  1  0
 19 18  2  0
 21 20  1  0
 22 21  1  0
 22 23  1  6
 24 22  1  0
 24 25  1  1
 25 18  1  0
 26 24  1  0
 27 26  1  0
 28 26  2  0
M  END
$$$$
