NFI.pdb
     RDKit          3D

 28 28  0  0  1  0  0  0  0  0999 V2000
   27.1465  -18.6625  -19.8983 N   0  0  0  0  0  0  0  0  0  0  0  0
   28.4228  -18.3402  -19.3911 C   0  0  0  0  0  0  0  0  0  0  0  0
   28.7514  -17.1473  -19.2639 O   0  0  0  0  0  0  0  0  0  0  0  0
   29.3599  -19.4068  -19.0139 C   0  0  0  0  0  0  0  0  0  0  0  0
   28.7135  -20.3374  -18.0521 C   0  0  2  0  0  0  0  0  0  0  0  0
   27.7520  -21.2276  -18.6700 N   0  0  0  0  0  0  0  0  0  0  0  0
   28.1837  -19.6975  -16.8269 C   0  0  0  0  0  0  0  0  0  0  0  0
   28.9822  -18.9598  -16.1712 O   0  0  0  0  0  0  0  0  0  0  0  0
   26.8450  -19.9089  -16.4194 N   0  0  0  0  0  0  0  0  0  0  0  0
   26.3291  -19.2128  -15.2469 C   0  0  1  0  0  0  0  0  0  0  0  0
   25.2650  -18.2589  -15.7188 C   0  0  0  0  0  0  0  0  0  0  0  0
   25.7247  -16.9340  -16.1059 C   0  0  0  0  0  0  0  0  0  0  0  0
   25.7318  -16.5031  -17.4205 C   0  0  0  0  0  0  0  0  0  0  0  0
   26.1724  -15.2394  -17.7611 C   0  0  0  0  0  0  0  0  0  0  0  0
   26.6225  -14.3548  -16.8069 C   0  0  0  0  0  0  0  0  0  0  0  0
   26.6151  -14.7869  -15.4857 C   0  0  0  0  0  0  0  0  0  0  0  0
   26.1745  -16.0537  -15.1371 C   0  0  0  0  0  0  0  0  0  0  0  0
   25.7441  -20.1480  -14.2733 C   0  0  0  0  0  0  0  0  0  0  0  0
   25.3113  -21.2345  -14.6651 O   0  0  0  0  0  0  0  0  0  0  0  0
   26.0416  -21.3286   -8.1335 C   0  0  0  0  0  0  0  0  0  0  0  0
   25.4032  -21.5315   -9.4707 C   0  0  0  0  0  0  0  0  0  0  0  0
   25.8790  -20.5718  -10.5332 C   0  0  2  0  0  0  0  0  0  0  0  0
   25.8155  -19.1420  -10.0298 C   0  0  0  0  0  0  0  0  0  0  0  0
   25.2053  -20.7407  -11.8617 C   0  0  2  0  0  0  0  0  0  0  0  0
   25.6600  -19.8315  -12.8659 N   0  0  0  0  0  0  0  0  0  0  0  0
   23.7418  -20.9078  -11.8071 C   0  0  0  0  0  0  0  0  0  0  0  0
   23.1196  -22.1210  -11.4398 O   0  0  0  0  0  0  0  0  0  0  0  0
   22.9246  -19.9910  -12.0812 O   0  0  0  0  0  0  0  0  0  0  0  0
  1  2  1  0
  2  3  2  0
  4  2  1  0
  4  5  1  0
  5  6  1  6
  7  5  1  0
  7  8  2  0
  9  7  1  0
 10  9  1  0
 11 12  1  0
 10 11  1  6
 12 13  2  0
 12 17  1  0
 13 14  1  0
 14 15  2  0
 16 15  1  0
 17 16  2  0
 18 10  1  0
 19 18  2  0
 21 20  1  0
 22 21  1  0
 22 23  1  1
 24 22  1  0
 24 25  1  6
 25 18  1  0
 26 24  1  0
 27 26  1  0
 28 26  2  0
M  END
$$$$
