NFI.pdb
     RDKit          3D

 28 28  0  0  1  0  0  0  0  0999 V2000
   28.2227  -17.0926  -16.8011 N   0  0  0  0  0  0  0  0  0  0  0  0
   28.4759  -17.8588  -15.6442 C   0  0  0  0  0  0  0  0  0  0  0  0
   29.6144  -17.8597  -15.1433 O   0  0  0  0  0  0  0  0  0  0  0  0
   27.4012  -18.6517  -15.0322 C   0  0  0  0  0  0  0  0  0  0  0  0
   27.8370  -20.0634  -14.8711 C   0  0  2  0  0  0  0  0  0  0  0  0
   28.3632  -20.6461  -16.0886 N   0  0  0  0  0  0  0  0  0  0  0  0
   26.8544  -20.9458  -14.2023 C   0  0  0  0  0  0  0  0  0  0  0  0
   26.1115  -21.6521  -14.9513 O   0  0  0  0  0  0  0  0  0  0  0  0
   26.7607  -20.9881  -12.7908 N   0  0  0  0  0  0  0  0  0  0  0  0
   25.6714  -21.7249  -12.1616 C   0  0  1  0  0  0  0  0  0  0  0  0
   26.1785  -22.2444  -10.8433 C   0  0  0  0  0  0  0  0  0  0  0  0
   26.7277  -21.2487   -9.9360 C   0  0  0  0  0  0  0  0  0  0  0  0
   25.9328  -20.4803   -9.1043 C   0  0  0  0  0  0  0  0  0  0  0  0
   26.4797  -19.5423   -8.2512 C   0  0  0  0  0  0  0  0  0  0  0  0
   27.8392  -19.3325   -8.1916 C   0  0  0  0  0  0  0  0  0  0  0  0
   28.6386  -20.1045   -9.0266 C   0  0  0  0  0  0  0  0  0  0  0  0
   28.0962  -21.0473   -9.8853 C   0  0  0  0  0  0  0  0  0  0  0  0
   24.4998  -20.8667  -11.9259 C   0  0  0  0  0  0  0  0  0  0  0  0
   24.6700  -19.6910  -11.5942 O   0  0  0  0  0  0  0  0  0  0  0  0
   21.6518  -18.4509  -15.8171 C   0  0  0  0  0  0  0  0  0  0  0  0
   21.3410  -19.0447  -14.4801 C   0  0  0  0  0  0  0  0  0  0  0  0
   22.3878  -20.0062  -13.9740 C   0  0  2  0  0  0  0  0  0  0  0  0
   22.7035  -21.0546  -15.0242 C   0  0  0  0  0  0  0  0  0  0  0  0
   22.0741  -20.6108  -12.6387 C   0  0  2  0  0  0  0  0  0  0  0  0
   23.1497  -21.3609  -12.0709 N   0  0  0  0  0  0  0  0  0  0  0  0
   20.7558  -21.2627  -12.5382 C   0  0  0  0  0  0  0  0  0  0  0  0
   19.5527  -20.5425  -12.3717 O   0  0  0  0  0  0  0  0  0  0  0  0
   20.5881  -22.5086  -12.5915 O   0  0  0  0  0  0  0  0  0  0  0  0
  1  2  1  0
  2  3  2  0
  4  2  1  0
  4  5  1  0
  5  6  1  6
  7  5  1  0
  7  8  2  0
  9  7  1  0
 10  9  1  0
 11 12  1  0
 10 11  1  1
 12 13  2  0
 12 17  1  0
 13 14  1  0
 14 15  2  0
 16 15  1  0
 17 16  2  0
 18 10  1  0
 19 18  2  0
 21 20  1  0
 22 21  1  0
 22 23  1  6
 24 22  1  0
 24 25  1  6
 25 18  1  0
 26 24  1  0
 27 26  1  0
 28 26  2  0
M  END
$$$$
