NFI.pdb
     RDKit          3D

 28 28  0  0  1  0  0  0  0  0999 V2000
   19.0652  -22.5184  -12.9600 N   0  0  0  0  0  0  0  0  0  0  0  0
   19.9881  -22.4480  -14.0245 C   0  0  0  0  0  0  0  0  0  0  0  0
   19.7671  -23.0784  -15.0737 O   0  0  0  0  0  0  0  0  0  0  0  0
   21.2043  -21.6341  -13.8964 C   0  0  0  0  0  0  0  0  0  0  0  0
   21.2354  -20.9686  -12.5679 C   0  0  2  0  0  0  0  0  0  0  0  0
   20.1805  -19.9920  -12.3883 N   0  0  0  0  0  0  0  0  0  0  0  0
   22.5608  -20.4481  -12.1631 C   0  0  0  0  0  0  0  0  0  0  0  0
   22.8623  -19.2772  -12.5503 O   0  0  0  0  0  0  0  0  0  0  0  0
   23.4398  -21.2333  -11.3798 N   0  0  0  0  0  0  0  0  0  0  0  0
   24.7847  -20.7468  -11.0974 C   0  0  1  0  0  0  0  0  0  0  0  0
   25.2973  -21.5020   -9.9008 C   0  0  0  0  0  0  0  0  0  0  0  0
   26.5807  -21.0641   -9.3742 C   0  0  0  0  0  0  0  0  0  0  0  0
   26.6983  -20.0262   -8.4671 C   0  0  0  0  0  0  0  0  0  0  0  0
   27.9290  -19.6307   -7.9815 C   0  0  0  0  0  0  0  0  0  0  0  0
   29.0911  -20.2530   -8.3790 C   0  0  0  0  0  0  0  0  0  0  0  0
   28.9738  -21.2964   -9.2901 C   0  0  0  0  0  0  0  0  0  0  0  0
   27.7418  -21.6981   -9.7814 C   0  0  0  0  0  0  0  0  0  0  0  0
   25.6922  -20.9669  -12.2344 C   0  0  0  0  0  0  0  0  0  0  0  0
   25.7394  -22.0808  -12.7618 O   0  0  0  0  0  0  0  0  0  0  0  0
   27.0754  -16.3822  -15.2058 C   0  0  0  0  0  0  0  0  0  0  0  0
   26.6305  -17.7602  -14.8316 C   0  0  0  0  0  0  0  0  0  0  0  0
   27.7603  -18.7065  -14.5082 C   0  0  2  0  0  0  0  0  0  0  0  0
   28.6808  -18.8687  -15.7032 C   0  0  0  0  0  0  0  0  0  0  0  0
   27.3182  -20.0230  -13.9440 C   0  0  2  0  0  0  0  0  0  0  0  0
   26.5341  -19.9139  -12.7544 N   0  0  0  0  0  0  0  0  0  0  0  0
   28.3579  -21.0669  -13.8961 C   0  0  0  0  0  0  0  0  0  0  0  0
   29.1976  -21.2648  -12.7782 O   0  0  0  0  0  0  0  0  0  0  0  0
   28.5868  -21.8670  -14.8399 O   0  0  0  0  0  0  0  0  0  0  0  0
  1  2  1  0
  2  3  2  0
  4  2  1  0
  4  5  1  0
  5  6  1  6
  7  5  1  0
  7  8  2  0
  9  7  1  0
 10  9  1  0
 11 12  1  0
 10 11  1  1
 12 13  2  0
 12 17  1  0
 13 14  1  0
 14 15  2  0
 16 15  1  0
 17 16  2  0
 18 10  1  0
 19 18  2  0
 21 20  1  0
 22 21  1  0
 22 23  1  6
 24 22  1  0
 24 25  1  1
 25 18  1  0
 26 24  1  0
 27 26  1  0
 28 26  2  0
M  END
$$$$
