FEW.pdb
     RDKit          3D

 35 37  0  0  1  0  0  0  0  0999 V2000
    6.2574  -18.3698   20.8923 N   0  0  0  0  0  0  0  0  0  0  0  0
    6.9772  -17.1298   21.0436 C   0  0  1  0  0  0  0  0  0  0  0  0
    6.0700  -16.0389   21.6201 C   0  0  0  0  0  0  0  0  0  0  0  0
    6.6973  -14.7020   21.4522 C   0  0  0  0  0  0  0  0  0  0  0  0
    6.9848  -13.9120   22.5454 C   0  0  0  0  0  0  0  0  0  0  0  0
    7.5695  -12.6680   22.3876 C   0  0  0  0  0  0  0  0  0  0  0  0
    7.8836  -12.1789   21.1255 C   0  0  0  0  0  0  0  0  0  0  0  0
    7.6041  -12.9513   20.0336 C   0  0  0  0  0  0  0  0  0  0  0  0
    7.0229  -14.1858   20.2046 C   0  0  0  0  0  0  0  0  0  0  0  0
    8.0508  -17.3286   22.0779 C   0  0  0  0  0  0  0  0  0  0  0  0
    7.7875  -17.9370   23.1544 O   0  0  0  0  0  0  0  0  0  0  0  0
    9.3664  -16.8481   21.8796 N   0  0  0  0  0  0  0  0  0  0  0  0
   10.4410  -17.2199   22.8391 C   0  0  1  0  0  0  0  0  0  0  0  0
   11.7537  -17.0861   22.1247 C   0  0  0  0  0  0  0  0  0  0  0  0
   12.9704  -17.5037   22.8455 C   0  0  0  0  0  0  0  0  0  0  0  0
   14.1522  -17.3518   21.9132 C   0  0  0  0  0  0  0  0  0  0  0  0
   14.9289  -16.3683   21.9662 O   0  0  0  0  0  0  0  0  0  0  0  0
   10.2912  -16.3940   24.0431 C   0  0  0  0  0  0  0  0  0  0  0  0
   10.5502  -15.1379   24.0275 O   0  0  0  0  0  0  0  0  0  0  0  0
   14.3899  -18.3281   20.9669 O   0  0  0  0  0  0  0  0  0  0  0  0
    9.8571  -16.8880   25.2900 N   0  0  0  0  0  0  0  0  0  0  0  0
   10.6133  -16.6573   26.5261 C   0  0  1  0  0  0  0  0  0  0  0  0
    9.9951  -15.4618   27.2641 C   0  0  0  0  0  0  0  0  0  0  0  0
    8.6397  -15.1808   26.7267 C   0  0  0  0  0  0  0  0  0  0  0  0
    7.6583  -16.1026   26.3433 C   0  0  0  0  0  0  0  0  0  0  0  0
    6.5746  -15.4274   25.9107 N   0  0  0  0  0  0  0  0  0  0  0  0
    6.7913  -14.1033   25.9892 C   0  0  0  0  0  0  0  0  0  0  0  0
    6.0007  -13.0200   25.6701 C   0  0  0  0  0  0  0  0  0  0  0  0
    6.4797  -11.7331   25.8524 C   0  0  0  0  0  0  0  0  0  0  0  0
    7.7435  -11.5984   26.3518 C   0  0  0  0  0  0  0  0  0  0  0  0
    8.5242  -12.6694   26.6670 C   0  0  0  0  0  0  0  0  0  0  0  0
    8.0632  -13.9488   26.4918 C   0  0  0  0  0  0  0  0  0  0  0  0
   10.4608  -17.8298   27.4252 C   0  0  0  0  0  0  0  0  0  0  0  0
   11.1440  -17.9521   28.6195 O   0  0  0  0  0  0  0  0  0  0  0  0
    9.6879  -18.7767   27.1282 O   0  0  0  0  0  0  0  0  0  0  0  0
  2  1  1  1
  2  3  1  0
  3  4  1  0
  4  9  1  0
  5  4  2  0
  5  6  1  0
  6  7  2  0
  7  8  1  0
  9  8  2  0
 10 11  2  0
 10  2  1  0
 12 10  1  0
 13 12  1  0
 13 14  1  6
 15 14  1  0
 16 15  1  0
 17 16  2  0
 18 13  1  0
 19 18  2  0
 20 16  1  0
 21 18  1  0
 22 21  1  0
 22 23  1  1
 23 24  1  0
 24 25  2  0
 24 32  1  0
 25 26  1  0
 26 27  1  0
 27 28  2  0
 28 29  1  0
 30 29  2  0
 31 30  1  0
 32 31  2  0
 32 27  1  0
 33 22  1  0
 34 33  1  0
 35 33  2  0
M  END
$$$$
