FEW.pdb
     RDKit          3D

 35 37  0  0  1  0  0  0  0  0999 V2000
    6.0490  -18.0122   21.0108 N   0  0  0  0  0  0  0  0  0  0  0  0
    6.9630  -16.8981   20.9655 C   0  0  1  0  0  0  0  0  0  0  0  0
    6.2627  -15.6005   21.3793 C   0  0  0  0  0  0  0  0  0  0  0  0
    7.1449  -14.4320   21.1234 C   0  0  0  0  0  0  0  0  0  0  0  0
    7.5361  -14.1070   19.8415 C   0  0  0  0  0  0  0  0  0  0  0  0
    8.3567  -13.0186   19.6046 C   0  0  0  0  0  0  0  0  0  0  0  0
    8.8101  -12.2223   20.6493 C   0  0  0  0  0  0  0  0  0  0  0  0
    8.4301  -12.5330   21.9245 C   0  0  0  0  0  0  0  0  0  0  0  0
    7.6141  -13.6176   22.1459 C   0  0  0  0  0  0  0  0  0  0  0  0
    8.0259  -17.1148   22.0072 C   0  0  0  0  0  0  0  0  0  0  0  0
    7.7254  -17.6367   23.1189 O   0  0  0  0  0  0  0  0  0  0  0  0
    9.3723  -16.7470   21.7772 N   0  0  0  0  0  0  0  0  0  0  0  0
   10.4399  -17.2466   22.6851 C   0  0  1  0  0  0  0  0  0  0  0  0
   11.7392  -17.1806   21.9375 C   0  0  0  0  0  0  0  0  0  0  0  0
   12.9436  -17.6993   22.6120 C   0  0  0  0  0  0  0  0  0  0  0  0
   14.1269  -17.5055   21.6894 C   0  0  0  0  0  0  0  0  0  0  0  0
   14.4449  -18.3486   20.8169 O   0  0  0  0  0  0  0  0  0  0  0  0
   10.3883  -16.4707   23.9298 C   0  0  0  0  0  0  0  0  0  0  0  0
   10.6230  -15.2097   23.9406 O   0  0  0  0  0  0  0  0  0  0  0  0
   14.8888  -16.3605   21.8072 O   0  0  0  0  0  0  0  0  0  0  0  0
   10.0805  -17.0208   25.1907 N   0  0  0  0  0  0  0  0  0  0  0  0
   10.3766  -16.3151   26.4426 C   0  0  1  0  0  0  0  0  0  0  0  0
    9.2042  -16.5211   27.4116 C   0  0  0  0  0  0  0  0  0  0  0  0
    7.9384  -16.0734   26.7775 C   0  0  0  0  0  0  0  0  0  0  0  0
    6.9368  -16.8654   26.2037 C   0  0  0  0  0  0  0  0  0  0  0  0
    5.9589  -16.0605   25.7419 N   0  0  0  0  0  0  0  0  0  0  0  0
    6.2649  -14.7740   25.9823 C   0  0  0  0  0  0  0  0  0  0  0  0
    5.5962  -13.6009   25.7052 C   0  0  0  0  0  0  0  0  0  0  0  0
    6.1485  -12.3840   26.0700 C   0  0  0  0  0  0  0  0  0  0  0  0
    7.3587  -12.4080   26.7020 C   0  0  0  0  0  0  0  0  0  0  0  0
    8.0189  -13.5678   26.9756 C   0  0  0  0  0  0  0  0  0  0  0  0
    7.4843  -14.7794   26.6204 C   0  0  0  0  0  0  0  0  0  0  0  0
   11.5661  -16.9288   27.0867 C   0  0  0  0  0  0  0  0  0  0  0  0
   12.2148  -18.0317   26.5660 O   0  0  0  0  0  0  0  0  0  0  0  0
   12.0389  -16.4589   28.1533 O   0  0  0  0  0  0  0  0  0  0  0  0
  2  1  1  1
  2  3  1  0
  3  4  1  0
  4  9  1  0
  5  4  2  0
  5  6  1  0
  6  7  2  0
  7  8  1  0
  9  8  2  0
 10 11  2  0
 10  2  1  0
 12 10  1  0
 13 12  1  0
 13 14  1  6
 15 14  1  0
 16 15  1  0
 17 16  2  0
 18 13  1  0
 19 18  2  0
 20 16  1  0
 21 18  1  0
 22 21  1  0
 22 23  1  1
 23 24  1  0
 24 25  2  0
 24 32  1  0
 25 26  1  0
 26 27  1  0
 27 28  2  0
 28 29  1  0
 30 29  2  0
 31 30  1  0
 32 31  2  0
 32 27  1  0
 33 22  1  0
 34 33  1  0
 35 33  2  0
M  END
$$$$
