FEW.pdb
     RDKit          3D

 35 37  0  0  1  0  0  0  0  0999 V2000
    6.7342  -17.5116   20.7651 N   0  0  0  0  0  0  0  0  0  0  0  0
    8.1388  -17.3739   20.4708 C   0  0  1  0  0  0  0  0  0  0  0  0
    8.4234  -16.0364   19.7810 C   0  0  0  0  0  0  0  0  0  0  0  0
    7.8914  -14.9115   20.5937 C   0  0  0  0  0  0  0  0  0  0  0  0
    8.6779  -14.2857   21.5380 C   0  0  0  0  0  0  0  0  0  0  0  0
    8.1816  -13.2381   22.2933 C   0  0  0  0  0  0  0  0  0  0  0  0
    6.8785  -12.7866   22.1231 C   0  0  0  0  0  0  0  0  0  0  0  0
    6.0882  -13.3977   21.1909 C   0  0  0  0  0  0  0  0  0  0  0  0
    6.5940  -14.4377   20.4470 C   0  0  0  0  0  0  0  0  0  0  0  0
    8.8909  -17.3075   21.7715 C   0  0  0  0  0  0  0  0  0  0  0  0
    8.3063  -17.5922   22.8558 O   0  0  0  0  0  0  0  0  0  0  0  0
   10.2536  -16.9306   21.8191 N   0  0  0  0  0  0  0  0  0  0  0  0
   11.0584  -17.2219   23.0361 C   0  0  1  0  0  0  0  0  0  0  0  0
   12.4942  -16.9313   22.7111 C   0  0  0  0  0  0  0  0  0  0  0  0
   13.5076  -17.2697   23.7275 C   0  0  0  0  0  0  0  0  0  0  0  0
   14.8727  -16.9306   23.1703 C   0  0  0  0  0  0  0  0  0  0  0  0
   15.4557  -17.6569   22.3301 O   0  0  0  0  0  0  0  0  0  0  0  0
   10.4976  -16.4555   24.1552 C   0  0  0  0  0  0  0  0  0  0  0  0
   10.4963  -15.1728   24.1517 O   0  0  0  0  0  0  0  0  0  0  0  0
   15.5052  -15.7809   23.5984 O   0  0  0  0  0  0  0  0  0  0  0  0
    9.9209  -17.0395   25.3013 N   0  0  0  0  0  0  0  0  0  0  0  0
   10.1663  -16.5168   26.6501 C   0  0  1  0  0  0  0  0  0  0  0  0
    8.8166  -16.3232   27.3549 C   0  0  0  0  0  0  0  0  0  0  0  0
    7.9081  -15.5205   26.4975 C   0  0  0  0  0  0  0  0  0  0  0  0
    7.0138  -15.9813   25.5241 C   0  0  0  0  0  0  0  0  0  0  0  0
    6.3824  -14.9222   24.9792 N   0  0  0  0  0  0  0  0  0  0  0  0
    6.8157  -13.7825   25.5448 C   0  0  0  0  0  0  0  0  0  0  0  0
    6.4796  -12.4627   25.3319 C   0  0  0  0  0  0  0  0  0  0  0  0
    7.0924  -11.4625   26.0688 C   0  0  0  0  0  0  0  0  0  0  0  0
    8.0226  -11.8437   26.9928 C   0  0  0  0  0  0  0  0  0  0  0  0
    8.3543  -13.1482   27.2027 C   0  0  0  0  0  0  0  0  0  0  0  0
    7.7560  -14.1487   26.4808 C   0  0  0  0  0  0  0  0  0  0  0  0
   10.9129  -17.5265   27.4435 C   0  0  0  0  0  0  0  0  0  0  0  0
   11.2582  -18.7669   26.9429 O   0  0  0  0  0  0  0  0  0  0  0  0
   11.2670  -17.2870   28.6264 O   0  0  0  0  0  0  0  0  0  0  0  0
  2  1  1  1
  2  3  1  0
  3  4  1  0
  4  9  1  0
  5  4  2  0
  5  6  1  0
  6  7  2  0
  7  8  1  0
  9  8  2  0
 10 11  2  0
 10  2  1  0
 12 10  1  0
 13 12  1  0
 13 14  1  6
 15 14  1  0
 16 15  1  0
 17 16  2  0
 18 13  1  0
 19 18  2  0
 20 16  1  0
 21 18  1  0
 22 21  1  0
 22 23  1  1
 23 24  1  0
 24 25  2  0
 24 32  1  0
 25 26  1  0
 26 27  1  0
 27 28  2  0
 28 29  1  0
 30 29  2  0
 31 30  1  0
 32 31  2  0
 32 27  1  0
 33 22  1  0
 34 33  1  0
 35 33  2  0
M  END
$$$$
