FEW.pdb
     RDKit          3D

 35 37  0  0  1  0  0  0  0  0999 V2000
    6.4466  -18.5437   21.1952 N   0  0  0  0  0  0  0  0  0  0  0  0
    7.1128  -17.2671   21.1239 C   0  0  1  0  0  0  0  0  0  0  0  0
    6.2597  -16.1697   21.7670 C   0  0  0  0  0  0  0  0  0  0  0  0
    6.8495  -14.8320   21.4991 C   0  0  0  0  0  0  0  0  0  0  0  0
    7.2880  -14.0311   22.5327 C   0  0  0  0  0  0  0  0  0  0  0  0
    7.8375  -12.7865   22.2818 C   0  0  0  0  0  0  0  0  0  0  0  0
    7.9636  -12.3075   20.9835 C   0  0  0  0  0  0  0  0  0  0  0  0
    7.5331  -13.0907   19.9499 C   0  0  0  0  0  0  0  0  0  0  0  0
    6.9889  -14.3258   20.2133 C   0  0  0  0  0  0  0  0  0  0  0  0
    8.3573  -17.3346   21.9655 C   0  0  0  0  0  0  0  0  0  0  0  0
    8.4486  -18.1892   22.8928 O   0  0  0  0  0  0  0  0  0  0  0  0
    9.4455  -16.4575   21.7476 N   0  0  0  0  0  0  0  0  0  0  0  0
   10.8197  -16.8744   22.1370 C   0  0  1  0  0  0  0  0  0  0  0  0
   11.7835  -16.1584   21.2371 C   0  0  0  0  0  0  0  0  0  0  0  0
   13.2210  -16.4330   21.4177 C   0  0  0  0  0  0  0  0  0  0  0  0
   13.9962  -15.5722   20.4445 C   0  0  0  0  0  0  0  0  0  0  0  0
   14.8989  -14.7840   20.8149 O   0  0  0  0  0  0  0  0  0  0  0  0
   10.9899  -16.6210   23.5726 C   0  0  0  0  0  0  0  0  0  0  0  0
   12.1486  -16.4083   24.0801 O   0  0  0  0  0  0  0  0  0  0  0  0
   13.7041  -15.6526   19.0979 O   0  0  0  0  0  0  0  0  0  0  0  0
    9.9280  -16.5838   24.4990 N   0  0  0  0  0  0  0  0  0  0  0  0
   10.1550  -16.4184   25.9390 C   0  0  1  0  0  0  0  0  0  0  0  0
    8.8296  -16.6561   26.6757 C   0  0  0  0  0  0  0  0  0  0  0  0
    7.8076  -15.6875   26.2043 C   0  0  0  0  0  0  0  0  0  0  0  0
    6.7266  -15.9264   25.3476 C   0  0  0  0  0  0  0  0  0  0  0  0
    6.0462  -14.7753   25.1766 N   0  0  0  0  0  0  0  0  0  0  0  0
    6.6245  -13.7859   25.8787 C   0  0  0  0  0  0  0  0  0  0  0  0
    6.3073  -12.4524   26.0242 C   0  0  0  0  0  0  0  0  0  0  0  0
    7.0888  -11.6361   26.8254 C   0  0  0  0  0  0  0  0  0  0  0  0
    8.1617  -12.2079   27.4469 C   0  0  0  0  0  0  0  0  0  0  0  0
    8.4747  -13.5259   27.3028 C   0  0  0  0  0  0  0  0  0  0  0  0
    7.7102  -14.3456   26.5130 C   0  0  0  0  0  0  0  0  0  0  0  0
   11.0935  -17.4667   26.4153 C   0  0  0  0  0  0  0  0  0  0  0  0
   11.5426  -17.5338   27.7199 O   0  0  0  0  0  0  0  0  0  0  0  0
   11.5251  -18.3523   25.6333 O   0  0  0  0  0  0  0  0  0  0  0  0
  2  1  1  1
  2  3  1  0
  3  4  1  0
  4  9  1  0
  5  4  2  0
  5  6  1  0
  6  7  2  0
  7  8  1  0
  9  8  2  0
 10 11  2  0
 10  2  1  0
 12 10  1  0
 13 12  1  0
 13 14  1  6
 15 14  1  0
 16 15  1  0
 17 16  2  0
 18 13  1  0
 19 18  2  0
 20 16  1  0
 21 18  1  0
 22 21  1  0
 22 23  1  1
 23 24  1  0
 24 25  2  0
 24 32  1  0
 25 26  1  0
 26 27  1  0
 27 28  2  0
 28 29  1  0
 30 29  2  0
 31 30  1  0
 32 31  2  0
 32 27  1  0
 33 22  1  0
 34 33  1  0
 35 33  2  0
M  END
$$$$
