FEW.pdb
     RDKit          3D

 35 37  0  0  1  0  0  0  0  0999 V2000
    6.2980  -17.4886   20.9173 N   0  0  0  0  0  0  0  0  0  0  0  0
    7.6819  -17.3161   20.5517 C   0  0  1  0  0  0  0  0  0  0  0  0
    7.8824  -16.0126   19.7732 C   0  0  0  0  0  0  0  0  0  0  0  0
    7.4270  -14.8516   20.5817 C   0  0  0  0  0  0  0  0  0  0  0  0
    6.8786  -15.0321   21.8342 C   0  0  0  0  0  0  0  0  0  0  0  0
    6.4558  -13.9504   22.5861 C   0  0  0  0  0  0  0  0  0  0  0  0
    6.5709  -12.6528   22.1025 C   0  0  0  0  0  0  0  0  0  0  0  0
    7.1125  -12.4596   20.8629 C   0  0  0  0  0  0  0  0  0  0  0  0
    7.5287  -13.5435   20.1261 C   0  0  0  0  0  0  0  0  0  0  0  0
    8.4864  -17.1439   21.8107 C   0  0  0  0  0  0  0  0  0  0  0  0
    8.1347  -17.7340   22.8721 O   0  0  0  0  0  0  0  0  0  0  0  0
    9.6425  -16.3293   21.8436 N   0  0  0  0  0  0  0  0  0  0  0  0
   10.8886  -16.8407   22.4756 C   0  0  1  0  0  0  0  0  0  0  0  0
   12.0453  -16.3724   21.6424 C   0  0  0  0  0  0  0  0  0  0  0  0
   12.2183  -16.9792   20.3096 C   0  0  0  0  0  0  0  0  0  0  0  0
   13.0168  -18.2546   20.4670 C   0  0  0  0  0  0  0  0  0  0  0  0
   14.0965  -18.2981   21.1040 O   0  0  0  0  0  0  0  0  0  0  0  0
   10.9061  -16.4090   23.8782 C   0  0  0  0  0  0  0  0  0  0  0  0
   11.8284  -15.6397   24.3284 O   0  0  0  0  0  0  0  0  0  0  0  0
   12.5452  -19.4167   19.8905 O   0  0  0  0  0  0  0  0  0  0  0  0
    9.9376  -16.7838   24.8315 N   0  0  0  0  0  0  0  0  0  0  0  0
   10.1271  -16.5522   26.2679 C   0  0  1  0  0  0  0  0  0  0  0  0
    8.7661  -16.6691   26.9679 C   0  0  0  0  0  0  0  0  0  0  0  0
    7.8142  -15.6859   26.3917 C   0  0  0  0  0  0  0  0  0  0  0  0
    6.6943  -15.9403   25.5913 C   0  0  0  0  0  0  0  0  0  0  0  0
    6.1058  -14.7671   25.2835 N   0  0  0  0  0  0  0  0  0  0  0  0
    6.7822  -13.7485   25.8414 C   0  0  0  0  0  0  0  0  0  0  0  0
    6.5792  -12.3852   25.8176 C   0  0  0  0  0  0  0  0  0  0  0  0
    7.4465  -11.5421   26.4928 C   0  0  0  0  0  0  0  0  0  0  0  0
    8.4857  -12.1183   27.1655 C   0  0  0  0  0  0  0  0  0  0  0  0
    8.6857  -13.4656   27.1887 C   0  0  0  0  0  0  0  0  0  0  0  0
    7.8354  -14.3121   26.5249 C   0  0  0  0  0  0  0  0  0  0  0  0
   10.9833  -17.6263   26.8333 C   0  0  0  0  0  0  0  0  0  0  0  0
   11.4239  -18.7032   26.0887 O   0  0  0  0  0  0  0  0  0  0  0  0
   11.3480  -17.5970   28.0367 O   0  0  0  0  0  0  0  0  0  0  0  0
  2  1  1  1
  2  3  1  0
  3  4  1  0
  4  9  1  0
  5  4  2  0
  5  6  1  0
  6  7  2  0
  7  8  1  0
  9  8  2  0
 10 11  2  0
 10  2  1  0
 12 10  1  0
 13 12  1  0
 13 14  1  6
 15 14  1  0
 16 15  1  0
 17 16  2  0
 18 13  1  0
 19 18  2  0
 20 16  1  0
 21 18  1  0
 22 21  1  0
 22 23  1  1
 23 24  1  0
 24 25  2  0
 24 32  1  0
 25 26  1  0
 26 27  1  0
 27 28  2  0
 28 29  1  0
 30 29  2  0
 31 30  1  0
 32 31  2  0
 32 27  1  0
 33 22  1  0
 34 33  1  0
 35 33  2  0
M  END
$$$$
