FEW.pdb
     RDKit          3D

 35 37  0  0  1  0  0  0  0  0999 V2000
    5.8381  -18.6796   23.0978 N   0  0  0  0  0  0  0  0  0  0  0  0
    6.5962  -17.4670   23.2810 C   0  0  1  0  0  0  0  0  0  0  0  0
    6.1906  -16.7605   24.5779 C   0  0  0  0  0  0  0  0  0  0  0  0
    6.7317  -15.3765   24.6042 C   0  0  0  0  0  0  0  0  0  0  0  0
    6.6178  -14.5926   25.7331 C   0  0  0  0  0  0  0  0  0  0  0  0
    7.1227  -13.3046   25.7564 C   0  0  0  0  0  0  0  0  0  0  0  0
    7.7581  -12.7640   24.6452 C   0  0  0  0  0  0  0  0  0  0  0  0
    7.8778  -13.5298   23.5199 C   0  0  0  0  0  0  0  0  0  0  0  0
    7.3715  -14.8083   23.5102 C   0  0  0  0  0  0  0  0  0  0  0  0
    8.0409  -17.8365   23.4757 C   0  0  0  0  0  0  0  0  0  0  0  0
    8.3560  -18.7519   24.2889 O   0  0  0  0  0  0  0  0  0  0  0  0
    9.0739  -17.1808   22.7656 N   0  0  0  0  0  0  0  0  0  0  0  0
   10.4780  -17.6543   22.8995 C   0  0  1  0  0  0  0  0  0  0  0  0
   11.2025  -17.2890   21.6373 C   0  0  0  0  0  0  0  0  0  0  0  0
   12.6095  -17.7118   21.5095 C   0  0  0  0  0  0  0  0  0  0  0  0
   13.1196  -17.2661   20.1566 C   0  0  0  0  0  0  0  0  0  0  0  0
   14.3429  -17.1587   19.9010 O   0  0  0  0  0  0  0  0  0  0  0  0
   11.0392  -17.0927   24.1339 C   0  0  0  0  0  0  0  0  0  0  0  0
   11.4910  -15.8929   24.1764 O   0  0  0  0  0  0  0  0  0  0  0  0
   12.2104  -16.9652   19.1627 O   0  0  0  0  0  0  0  0  0  0  0  0
   11.1269  -17.7960   25.3525 N   0  0  0  0  0  0  0  0  0  0  0  0
   12.0127  -17.3645   26.4397 C   0  0  1  0  0  0  0  0  0  0  0  0
   11.2211  -17.3826   27.7546 C   0  0  0  0  0  0  0  0  0  0  0  0
    9.9702  -16.5969   27.6035 C   0  0  0  0  0  0  0  0  0  0  0  0
    8.7068  -17.0576   27.2147 C   0  0  0  0  0  0  0  0  0  0  0  0
    7.8498  -16.0170   27.2051 N   0  0  0  0  0  0  0  0  0  0  0  0
    8.4850  -14.8897   27.5687 C   0  0  0  0  0  0  0  0  0  0  0  0
    8.0476  -13.5899   27.7080 C   0  0  0  0  0  0  0  0  0  0  0  0
    8.9304  -12.5989   28.1050 C   0  0  0  0  0  0  0  0  0  0  0  0
   10.2228  -12.9687   28.3447 C   0  0  0  0  0  0  0  0  0  0  0  0
   10.6544  -14.2535   28.2070 C   0  0  0  0  0  0  0  0  0  0  0  0
    9.7918  -15.2445   27.8148 C   0  0  0  0  0  0  0  0  0  0  0  0
   13.1144  -18.3478   26.5997 C   0  0  0  0  0  0  0  0  0  0  0  0
   13.1608  -19.5408   25.9048 O   0  0  0  0  0  0  0  0  0  0  0  0
   14.0677  -18.1285   27.3904 O   0  0  0  0  0  0  0  0  0  0  0  0
  2  1  1  1
  2  3  1  0
  3  4  1  0
  4  9  1  0
  5  4  2  0
  5  6  1  0
  6  7  2  0
  7  8  1  0
  9  8  2  0
 10 11  2  0
 10  2  1  0
 12 10  1  0
 13 12  1  0
 13 14  1  6
 15 14  1  0
 16 15  1  0
 17 16  2  0
 18 13  1  0
 19 18  2  0
 20 16  1  0
 21 18  1  0
 22 21  1  0
 22 23  1  1
 23 24  1  0
 24 25  2  0
 24 32  1  0
 25 26  1  0
 26 27  1  0
 27 28  2  0
 28 29  1  0
 30 29  2  0
 31 30  1  0
 32 31  2  0
 32 27  1  0
 33 22  1  0
 34 33  1  0
 35 33  2  0
M  END
$$$$
