FEW.pdb
     RDKit          3D

 35 37  0  0  1  0  0  0  0  0999 V2000
    6.2168  -18.7478   22.0613 N   0  0  0  0  0  0  0  0  0  0  0  0
    6.9294  -17.5090   21.8714 C   0  0  1  0  0  0  0  0  0  0  0  0
    6.2359  -16.3614   22.6114 C   0  0  0  0  0  0  0  0  0  0  0  0
    6.7584  -15.0519   22.1412 C   0  0  0  0  0  0  0  0  0  0  0  0
    6.7271  -14.7154   20.8041 C   0  0  0  0  0  0  0  0  0  0  0  0
    7.2131  -13.4957   20.3679 C   0  0  0  0  0  0  0  0  0  0  0  0
    7.7461  -12.5755   21.2623 C   0  0  0  0  0  0  0  0  0  0  0  0
    7.7832  -12.8960   22.5901 C   0  0  0  0  0  0  0  0  0  0  0  0
    7.2968  -14.1117   23.0102 C   0  0  0  0  0  0  0  0  0  0  0  0
    8.2781  -17.6335   22.5250 C   0  0  0  0  0  0  0  0  0  0  0  0
    8.4977  -18.5655   23.3506 O   0  0  0  0  0  0  0  0  0  0  0  0
    9.3246  -16.7255   22.2396 N   0  0  0  0  0  0  0  0  0  0  0  0
   10.7307  -17.0962   22.5546 C   0  0  1  0  0  0  0  0  0  0  0  0
   11.6246  -16.2867   21.6618 C   0  0  0  0  0  0  0  0  0  0  0  0
   13.0813  -16.4403   21.8313 C   0  0  0  0  0  0  0  0  0  0  0  0
   13.6829  -16.7903   20.4880 C   0  0  0  0  0  0  0  0  0  0  0  0
   13.9057  -15.9274   19.6053 O   0  0  0  0  0  0  0  0  0  0  0  0
   10.9450  -16.9131   23.9950 C   0  0  0  0  0  0  0  0  0  0  0  0
   12.1145  -17.0082   24.5133 O   0  0  0  0  0  0  0  0  0  0  0  0
   14.0006  -18.1060   20.2176 O   0  0  0  0  0  0  0  0  0  0  0  0
    9.9179  -16.6197   24.9148 N   0  0  0  0  0  0  0  0  0  0  0  0
   10.1788  -16.4586   26.3497 C   0  0  1  0  0  0  0  0  0  0  0  0
    8.8372  -16.4547   27.0954 C   0  0  0  0  0  0  0  0  0  0  0  0
    7.9129  -15.4755   26.4696 C   0  0  0  0  0  0  0  0  0  0  0  0
    6.8065  -15.7374   25.6531 C   0  0  0  0  0  0  0  0  0  0  0  0
    6.2427  -14.5655   25.2977 N   0  0  0  0  0  0  0  0  0  0  0  0
    6.9225  -13.5406   25.8397 C   0  0  0  0  0  0  0  0  0  0  0  0
    6.7409  -12.1758   25.7708 C   0  0  0  0  0  0  0  0  0  0  0  0
    7.6064  -11.3256   26.4394 C   0  0  0  0  0  0  0  0  0  0  0  0
    8.6222  -11.8964   27.1512 C   0  0  0  0  0  0  0  0  0  0  0  0
    8.8011  -13.2452   27.2189 C   0  0  0  0  0  0  0  0  0  0  0  0
    7.9523  -14.0988   26.5623 C   0  0  0  0  0  0  0  0  0  0  0  0
   10.9336  -17.6360   26.8502 C   0  0  0  0  0  0  0  0  0  0  0  0
   11.3611  -17.7510   28.1587 O   0  0  0  0  0  0  0  0  0  0  0  0
   11.2191  -18.5939   26.0867 O   0  0  0  0  0  0  0  0  0  0  0  0
  2  1  1  1
  2  3  1  0
  3  4  1  0
  4  9  1  0
  5  4  2  0
  5  6  1  0
  6  7  2  0
  7  8  1  0
  9  8  2  0
 10 11  2  0
 10  2  1  0
 12 10  1  0
 13 12  1  0
 13 14  1  6
 15 14  1  0
 16 15  1  0
 17 16  2  0
 18 13  1  0
 19 18  2  0
 20 16  1  0
 21 18  1  0
 22 21  1  0
 22 23  1  1
 23 24  1  0
 24 25  2  0
 24 32  1  0
 25 26  1  0
 26 27  1  0
 27 28  2  0
 28 29  1  0
 30 29  2  0
 31 30  1  0
 32 31  2  0
 32 27  1  0
 33 22  1  0
 34 33  1  0
 35 33  2  0
M  END
$$$$
