FEW.pdb
     RDKit          3D

 35 37  0  0  1  0  0  0  0  0999 V2000
    5.7677  -18.0473   21.5909 N   0  0  0  0  0  0  0  0  0  0  0  0
    6.6867  -16.9654   21.3387 C   0  0  1  0  0  0  0  0  0  0  0  0
    6.0588  -15.6186   21.7094 C   0  0  0  0  0  0  0  0  0  0  0  0
    6.9150  -14.5003   21.2343 C   0  0  0  0  0  0  0  0  0  0  0  0
    7.0904  -14.2655   19.8867 C   0  0  0  0  0  0  0  0  0  0  0  0
    7.8871  -13.2237   19.4459 C   0  0  0  0  0  0  0  0  0  0  0  0
    8.5327  -12.3850   20.3463 C   0  0  0  0  0  0  0  0  0  0  0  0
    8.3675  -12.6064   21.6845 C   0  0  0  0  0  0  0  0  0  0  0  0
    7.5730  -13.6453   22.1090 C   0  0  0  0  0  0  0  0  0  0  0  0
    7.8605  -17.1150   22.2668 C   0  0  0  0  0  0  0  0  0  0  0  0
    7.6804  -17.4978   23.4583 O   0  0  0  0  0  0  0  0  0  0  0  0
    9.1802  -16.8364   21.8405 N   0  0  0  0  0  0  0  0  0  0  0  0
   10.3304  -17.2049   22.7094 C   0  0  1  0  0  0  0  0  0  0  0  0
   11.5822  -17.0449   21.8975 C   0  0  0  0  0  0  0  0  0  0  0  0
   12.8557  -17.4584   22.5153 C   0  0  0  0  0  0  0  0  0  0  0  0
   13.9593  -17.2812   21.4957 C   0  0  0  0  0  0  0  0  0  0  0  0
   14.5615  -18.2534   20.9804 O   0  0  0  0  0  0  0  0  0  0  0  0
   10.2639  -16.3955   23.9319 C   0  0  0  0  0  0  0  0  0  0  0  0
   10.2846  -15.1138   23.8859 O   0  0  0  0  0  0  0  0  0  0  0  0
   14.3216  -16.0051   21.1143 O   0  0  0  0  0  0  0  0  0  0  0  0
   10.1688  -16.9344   25.2311 N   0  0  0  0  0  0  0  0  0  0  0  0
   10.6191  -16.1960   26.4163 C   0  0  1  0  0  0  0  0  0  0  0  0
    9.5303  -16.2866   27.4944 C   0  0  0  0  0  0  0  0  0  0  0  0
    8.2609  -15.7116   26.9817 C   0  0  0  0  0  0  0  0  0  0  0  0
    7.2120  -16.3794   26.3387 C   0  0  0  0  0  0  0  0  0  0  0  0
    6.2491  -15.4854   26.0370 N   0  0  0  0  0  0  0  0  0  0  0  0
    6.6100  -14.2582   26.4492 C   0  0  0  0  0  0  0  0  0  0  0  0
    5.9758  -13.0367   26.3713 C   0  0  0  0  0  0  0  0  0  0  0  0
    6.5845  -11.9041   26.8868 C   0  0  0  0  0  0  0  0  0  0  0  0
    7.8137  -12.0582   27.4610 C   0  0  0  0  0  0  0  0  0  0  0  0
    8.4399  -13.2656   27.5377 C   0  0  0  0  0  0  0  0  0  0  0  0
    7.8494  -14.3950   27.0317 C   0  0  0  0  0  0  0  0  0  0  0  0
   11.8246  -16.8550   26.9810 C   0  0  0  0  0  0  0  0  0  0  0  0
   12.3731  -18.0025   26.4420 O   0  0  0  0  0  0  0  0  0  0  0  0
   12.4049  -16.3846   27.9929 O   0  0  0  0  0  0  0  0  0  0  0  0
  2  1  1  1
  2  3  1  0
  3  4  1  0
  4  9  1  0
  5  4  2  0
  5  6  1  0
  6  7  2  0
  7  8  1  0
  9  8  2  0
 10 11  2  0
 10  2  1  0
 12 10  1  0
 13 12  1  0
 13 14  1  6
 15 14  1  0
 16 15  1  0
 17 16  2  0
 18 13  1  0
 19 18  2  0
 20 16  1  0
 21 18  1  0
 22 21  1  0
 22 23  1  1
 23 24  1  0
 24 25  2  0
 24 32  1  0
 25 26  1  0
 26 27  1  0
 27 28  2  0
 28 29  1  0
 30 29  2  0
 31 30  1  0
 32 31  2  0
 32 27  1  0
 33 22  1  0
 34 33  1  0
 35 33  2  0
M  END
$$$$
