FEW.pdb
     RDKit          3D

 35 37  0  0  1  0  0  0  0  0999 V2000
   11.3811  -19.8085   28.2089 N   0  0  0  0  0  0  0  0  0  0  0  0
   10.7646  -18.9668   27.2139 C   0  0  1  0  0  0  0  0  0  0  0  0
   11.4508  -17.5988   27.1552 C   0  0  0  0  0  0  0  0  0  0  0  0
   10.8723  -16.6855   28.1751 C   0  0  0  0  0  0  0  0  0  0  0  0
   11.0723  -16.9090   29.5212 C   0  0  0  0  0  0  0  0  0  0  0  0
   10.5338  -16.0575   30.4694 C   0  0  0  0  0  0  0  0  0  0  0  0
    9.7770  -14.9542   30.0942 C   0  0  0  0  0  0  0  0  0  0  0  0
    9.5709  -14.7210   28.7637 C   0  0  0  0  0  0  0  0  0  0  0  0
   10.1119  -15.5751   27.8317 C   0  0  0  0  0  0  0  0  0  0  0  0
   11.0037  -19.5793   25.8614 C   0  0  0  0  0  0  0  0  0  0  0  0
   12.0872  -20.1862   25.6241 O   0  0  0  0  0  0  0  0  0  0  0  0
   10.0382  -19.4959   24.8309 N   0  0  0  0  0  0  0  0  0  0  0  0
   10.3898  -18.8445   23.5402 C   0  0  1  0  0  0  0  0  0  0  0  0
   10.2524  -19.8757   22.4590 C   0  0  0  0  0  0  0  0  0  0  0  0
   10.6038  -19.4759   21.0838 C   0  0  0  0  0  0  0  0  0  0  0  0
   10.3214  -20.6419   20.1619 C   0  0  0  0  0  0  0  0  0  0  0  0
   11.0928  -20.9617   19.2260 O   0  0  0  0  0  0  0  0  0  0  0  0
    9.5520  -17.6498   23.3825 C   0  0  0  0  0  0  0  0  0  0  0  0
    8.3731  -17.5901   23.8845 O   0  0  0  0  0  0  0  0  0  0  0  0
    9.1741  -21.3851   20.3526 O   0  0  0  0  0  0  0  0  0  0  0  0
    9.9540  -16.4897   22.6898 N   0  0  0  0  0  0  0  0  0  0  0  0
   10.6658  -15.3922   23.3544 C   0  0  1  0  0  0  0  0  0  0  0  0
   10.2798  -15.3848   24.8399 C   0  0  0  0  0  0  0  0  0  0  0  0
    8.8387  -15.0584   24.9870 C   0  0  0  0  0  0  0  0  0  0  0  0
    7.7664  -15.9462   25.1342 C   0  0  0  0  0  0  0  0  0  0  0  0
    6.6255  -15.2353   25.2349 N   0  0  0  0  0  0  0  0  0  0  0  0
    6.8907  -13.9197   25.1613 C   0  0  0  0  0  0  0  0  0  0  0  0
    6.0733  -12.8109   25.2129 C   0  0  0  0  0  0  0  0  0  0  0  0
    6.6180  -11.5414   25.1101 C   0  0  0  0  0  0  0  0  0  0  0  0
    7.9719  -11.4494   24.9590 C   0  0  0  0  0  0  0  0  0  0  0  0
    8.7791  -12.5456   24.9081 C   0  0  0  0  0  0  0  0  0  0  0  0
    8.2540  -13.8082   25.0085 C   0  0  0  0  0  0  0  0  0  0  0  0
   12.1281  -15.6481   23.3022 C   0  0  0  0  0  0  0  0  0  0  0  0
   12.7230  -16.7262   23.9283 O   0  0  0  0  0  0  0  0  0  0  0  0
   12.8978  -14.8773   22.6732 O   0  0  0  0  0  0  0  0  0  0  0  0
  2  1  1  1
  2  3  1  0
  3  4  1  0
  4  9  1  0
  5  4  2  0
  5  6  1  0
  6  7  2  0
  7  8  1  0
  9  8  2  0
 10 11  2  0
 10  2  1  0
 12 10  1  0
 13 12  1  0
 13 14  1  6
 15 14  1  0
 16 15  1  0
 17 16  2  0
 18 13  1  0
 19 18  2  0
 20 16  1  0
 21 18  1  0
 22 21  1  0
 22 23  1  1
 23 24  1  0
 24 25  2  0
 24 32  1  0
 25 26  1  0
 26 27  1  0
 27 28  2  0
 28 29  1  0
 30 29  2  0
 31 30  1  0
 32 31  2  0
 32 27  1  0
 33 22  1  0
 34 33  1  0
 35 33  2  0
M  END
$$$$
