FEW.pdb
     RDKit          3D

 35 37  0  0  1  0  0  0  0  0999 V2000
    6.6359  -18.7529   21.0017 N   0  0  0  0  0  0  0  0  0  0  0  0
    7.1758  -17.4236   21.1435 C   0  0  1  0  0  0  0  0  0  0  0  0
    6.2513  -16.5468   21.9934 C   0  0  0  0  0  0  0  0  0  0  0  0
    6.7328  -15.1407   21.9991 C   0  0  0  0  0  0  0  0  0  0  0  0
    7.2668  -14.5793   23.1400 C   0  0  0  0  0  0  0  0  0  0  0  0
    7.7153  -13.2705   23.1436 C   0  0  0  0  0  0  0  0  0  0  0  0
    7.6413  -12.4846   22.0000 C   0  0  0  0  0  0  0  0  0  0  0  0
    7.1144  -13.0283   20.8626 C   0  0  0  0  0  0  0  0  0  0  0  0
    6.6723  -14.3304   20.8727 C   0  0  0  0  0  0  0  0  0  0  0  0
    8.4554  -17.5134   21.9285 C   0  0  0  0  0  0  0  0  0  0  0  0
    8.6558  -18.4931   22.7021 O   0  0  0  0  0  0  0  0  0  0  0  0
    9.4569  -16.5196   21.8259 N   0  0  0  0  0  0  0  0  0  0  0  0
   10.8625  -16.8474   22.1874 C   0  0  1  0  0  0  0  0  0  0  0  0
   11.7602  -16.0131   21.3216 C   0  0  0  0  0  0  0  0  0  0  0  0
   13.2091  -16.0621   21.5913 C   0  0  0  0  0  0  0  0  0  0  0  0
   13.9322  -15.4212   20.4270 C   0  0  0  0  0  0  0  0  0  0  0  0
   14.2933  -14.2201   20.4384 O   0  0  0  0  0  0  0  0  0  0  0  0
   11.0244  -16.6554   23.6334 C   0  0  0  0  0  0  0  0  0  0  0  0
   12.1852  -16.6406   24.1790 O   0  0  0  0  0  0  0  0  0  0  0  0
   14.2076  -16.1811   19.3082 O   0  0  0  0  0  0  0  0  0  0  0  0
    9.9525  -16.4699   24.5299 N   0  0  0  0  0  0  0  0  0  0  0  0
   10.1658  -16.2391   25.9631 C   0  0  1  0  0  0  0  0  0  0  0  0
    8.8181  -16.3655   26.6868 C   0  0  0  0  0  0  0  0  0  0  0  0
    7.8246  -15.4501   26.0703 C   0  0  0  0  0  0  0  0  0  0  0  0
    6.6199  -15.7861   25.4413 C   0  0  0  0  0  0  0  0  0  0  0  0
    6.0200  -14.6544   25.0210 N   0  0  0  0  0  0  0  0  0  0  0  0
    6.7694  -13.5856   25.3413 C   0  0  0  0  0  0  0  0  0  0  0  0
    6.5865  -12.2357   25.1301 C   0  0  0  0  0  0  0  0  0  0  0  0
    7.5357  -11.3289   25.5725 C   0  0  0  0  0  0  0  0  0  0  0  0
    8.6330  -11.8303   26.2120 C   0  0  0  0  0  0  0  0  0  0  0  0
    8.8130  -13.1644   26.4204 C   0  0  0  0  0  0  0  0  0  0  0  0
    7.8819  -14.0735   25.9881 C   0  0  0  0  0  0  0  0  0  0  0  0
   11.0384  -17.3087   26.5117 C   0  0  0  0  0  0  0  0  0  0  0  0
   11.5322  -18.3424   25.7398 O   0  0  0  0  0  0  0  0  0  0  0  0
   11.3686  -17.3154   27.7254 O   0  0  0  0  0  0  0  0  0  0  0  0
  2  1  1  1
  2  3  1  0
  3  4  1  0
  4  9  1  0
  5  4  2  0
  5  6  1  0
  6  7  2  0
  7  8  1  0
  9  8  2  0
 10 11  2  0
 10  2  1  0
 12 10  1  0
 13 12  1  0
 13 14  1  6
 15 14  1  0
 16 15  1  0
 17 16  2  0
 18 13  1  0
 19 18  2  0
 20 16  1  0
 21 18  1  0
 22 21  1  0
 22 23  1  1
 23 24  1  0
 24 25  2  0
 24 32  1  0
 25 26  1  0
 26 27  1  0
 27 28  2  0
 28 29  1  0
 30 29  2  0
 31 30  1  0
 32 31  2  0
 32 27  1  0
 33 22  1  0
 34 33  1  0
 35 33  2  0
M  END
$$$$
