FEW.pdb
     RDKit          3D

 35 37  0  0  1  0  0  0  0  0999 V2000
    6.5791  -17.8920   21.1548 N   0  0  0  0  0  0  0  0  0  0  0  0
    7.4993  -16.7855   21.2410 C   0  0  1  0  0  0  0  0  0  0  0  0
    6.8186  -15.5556   21.8489 C   0  0  0  0  0  0  0  0  0  0  0  0
    7.2462  -14.3228   21.1374 C   0  0  0  0  0  0  0  0  0  0  0  0
    8.1478  -13.4506   21.7106 C   0  0  0  0  0  0  0  0  0  0  0  0
    8.5456  -12.3038   21.0467 C   0  0  0  0  0  0  0  0  0  0  0  0
    8.0495  -11.9975   19.7854 C   0  0  0  0  0  0  0  0  0  0  0  0
    7.1555  -12.8530   19.2058 C   0  0  0  0  0  0  0  0  0  0  0  0
    6.7686  -13.9894   19.8766 C   0  0  0  0  0  0  0  0  0  0  0  0
    8.5865  -17.1484   22.2148 C   0  0  0  0  0  0  0  0  0  0  0  0
    8.3163  -17.8470   23.2334 O   0  0  0  0  0  0  0  0  0  0  0  0
    9.9226  -16.7255   22.0226 N   0  0  0  0  0  0  0  0  0  0  0  0
   10.9645  -17.0935   23.0189 C   0  0  1  0  0  0  0  0  0  0  0  0
   12.3031  -16.8883   22.3728 C   0  0  0  0  0  0  0  0  0  0  0  0
   13.5008  -17.2648   23.1462 C   0  0  0  0  0  0  0  0  0  0  0  0
   14.7206  -17.0170   22.2860 C   0  0  0  0  0  0  0  0  0  0  0  0
   15.3131  -17.9398   21.6773 O   0  0  0  0  0  0  0  0  0  0  0  0
   10.7288  -16.3170   24.2419 C   0  0  0  0  0  0  0  0  0  0  0  0
   10.8588  -15.0411   24.2580 O   0  0  0  0  0  0  0  0  0  0  0  0
   15.2041  -15.7301   22.1625 O   0  0  0  0  0  0  0  0  0  0  0  0
   10.3445  -16.8831   25.4744 N   0  0  0  0  0  0  0  0  0  0  0  0
   10.8948  -16.4165   26.7520 C   0  0  1  0  0  0  0  0  0  0  0  0
   10.2858  -15.0457   27.0777 C   0  0  0  0  0  0  0  0  0  0  0  0
    8.8168  -15.0806   26.8639 C   0  0  0  0  0  0  0  0  0  0  0  0
    7.9991  -16.2037   26.6919 C   0  0  0  0  0  0  0  0  0  0  0  0
    6.7260  -15.7921   26.5273 N   0  0  0  0  0  0  0  0  0  0  0  0
    6.6615  -14.4507   26.5820 C   0  0  0  0  0  0  0  0  0  0  0  0
    5.6035  -13.5741   26.4705 C   0  0  0  0  0  0  0  0  0  0  0  0
    5.8196  -12.2092   26.5668 C   0  0  0  0  0  0  0  0  0  0  0  0
    7.1027  -11.7896   26.7726 C   0  0  0  0  0  0  0  0  0  0  0  0
    8.1477  -12.6565   26.8827 C   0  0  0  0  0  0  0  0  0  0  0  0
    7.9487  -14.0100   26.7894 C   0  0  0  0  0  0  0  0  0  0  0  0
   10.4676  -17.3343   27.8391 C   0  0  0  0  0  0  0  0  0  0  0  0
   10.8658  -17.1768   29.1524 O   0  0  0  0  0  0  0  0  0  0  0  0
    9.7114  -18.3109   27.6015 O   0  0  0  0  0  0  0  0  0  0  0  0
  2  1  1  1
  2  3  1  0
  3  4  1  0
  4  9  1  0
  5  4  2  0
  5  6  1  0
  6  7  2  0
  7  8  1  0
  9  8  2  0
 10 11  2  0
 10  2  1  0
 12 10  1  0
 13 12  1  0
 13 14  1  6
 15 14  1  0
 16 15  1  0
 17 16  2  0
 18 13  1  0
 19 18  2  0
 20 16  1  0
 21 18  1  0
 22 21  1  0
 22 23  1  1
 23 24  1  0
 24 25  2  0
 24 32  1  0
 25 26  1  0
 26 27  1  0
 27 28  2  0
 28 29  1  0
 30 29  2  0
 31 30  1  0
 32 31  2  0
 32 27  1  0
 33 22  1  0
 34 33  1  0
 35 33  2  0
M  END
$$$$
