FEW.pdb
     RDKit          3D

 35 37  0  0  1  0  0  0  0  0999 V2000
    9.1705  -19.8866   27.5023 N   0  0  0  0  0  0  0  0  0  0  0  0
    8.3194  -18.8984   26.8877 C   0  0  1  0  0  0  0  0  0  0  0  0
    9.0056  -17.5295   26.8584 C   0  0  0  0  0  0  0  0  0  0  0  0
    9.2418  -17.0393   28.2415 C   0  0  0  0  0  0  0  0  0  0  0  0
    8.2328  -17.0573   29.1815 C   0  0  0  0  0  0  0  0  0  0  0  0
    8.4544  -16.6015   30.4689 C   0  0  0  0  0  0  0  0  0  0  0  0
    9.6976  -16.1131   30.8520 C   0  0  0  0  0  0  0  0  0  0  0  0
   10.7063  -16.0896   29.9306 C   0  0  0  0  0  0  0  0  0  0  0  0
   10.4726  -16.5456   28.6545 C   0  0  0  0  0  0  0  0  0  0  0  0
    8.1306  -19.2689   25.4424 C   0  0  0  0  0  0  0  0  0  0  0  0
    9.1010  -19.7284   24.7749 O   0  0  0  0  0  0  0  0  0  0  0  0
    6.8808  -19.1167   24.7974 N   0  0  0  0  0  0  0  0  0  0  0  0
    6.8308  -18.6623   23.3815 C   0  0  1  0  0  0  0  0  0  0  0  0
    5.4338  -18.8863   22.8819 C   0  0  0  0  0  0  0  0  0  0  0  0
    5.1429  -18.5295   21.4810 C   0  0  0  0  0  0  0  0  0  0  0  0
    3.7282  -18.9617   21.1633 C   0  0  0  0  0  0  0  0  0  0  0  0
    2.9908  -19.5237   22.0081 O   0  0  0  0  0  0  0  0  0  0  0  0
    7.3061  -17.2748   23.3246 C   0  0  0  0  0  0  0  0  0  0  0  0
    6.5973  -16.3073   23.7793 O   0  0  0  0  0  0  0  0  0  0  0  0
    3.2246  -18.7319   19.8989 O   0  0  0  0  0  0  0  0  0  0  0  0
    8.5500  -16.8881   22.7858 N   0  0  0  0  0  0  0  0  0  0  0  0
    8.9806  -15.4860   22.7466 C   0  0  1  0  0  0  0  0  0  0  0  0
    9.3781  -15.0545   24.1650 C   0  0  0  0  0  0  0  0  0  0  0  0
    8.1720  -14.6367   24.9238 C   0  0  0  0  0  0  0  0  0  0  0  0
    7.2026  -15.4545   25.5162 C   0  0  0  0  0  0  0  0  0  0  0  0
    6.2762  -14.6719   26.1053 N   0  0  0  0  0  0  0  0  0  0  0  0
    6.5858  -13.3757   25.9313 C   0  0  0  0  0  0  0  0  0  0  0  0
    5.9602  -12.2166   26.3381 C   0  0  0  0  0  0  0  0  0  0  0  0
    6.5045  -10.9840   26.0165 C   0  0  0  0  0  0  0  0  0  0  0  0
    7.6632  -10.9787   25.2941 C   0  0  0  0  0  0  0  0  0  0  0  0
    8.2810  -12.1245   24.8924 C   0  0  0  0  0  0  0  0  0  0  0  0
    7.7536  -13.3514   25.2035 C   0  0  0  0  0  0  0  0  0  0  0  0
   10.2049  -15.3679   21.9137 C   0  0  0  0  0  0  0  0  0  0  0  0
   10.8888  -16.4649   21.4270 O   0  0  0  0  0  0  0  0  0  0  0  0
   10.6765  -14.2413   21.6128 O   0  0  0  0  0  0  0  0  0  0  0  0
  2  1  1  6
  2  3  1  0
  3  4  1  0
  4  9  1  0
  5  4  2  0
  5  6  1  0
  6  7  2  0
  7  8  1  0
  9  8  2  0
 10 11  2  0
 10  2  1  0
 12 10  1  0
 13 12  1  0
 13 14  1  1
 15 14  1  0
 16 15  1  0
 17 16  2  0
 18 13  1  0
 19 18  2  0
 20 16  1  0
 21 18  1  0
 22 21  1  0
 22 23  1  1
 23 24  1  0
 24 25  2  0
 24 32  1  0
 25 26  1  0
 26 27  1  0
 27 28  2  0
 28 29  1  0
 30 29  2  0
 31 30  1  0
 32 31  2  0
 32 27  1  0
 33 22  1  0
 34 33  1  0
 35 33  2  0
M  END
$$$$
