FEW.pdb
     RDKit          3D

 35 37  0  0  1  0  0  0  0  0999 V2000
    6.7151  -15.7899   22.7885 N   0  0  0  0  0  0  0  0  0  0  0  0
    6.5111  -16.7994   21.7795 C   0  0  1  0  0  0  0  0  0  0  0  0
    5.9720  -16.1785   20.4875 C   0  0  0  0  0  0  0  0  0  0  0  0
    6.7519  -14.9642   20.1322 C   0  0  0  0  0  0  0  0  0  0  0  0
    7.4256  -14.8810   18.9316 C   0  0  0  0  0  0  0  0  0  0  0  0
    8.1506  -13.7497   18.6019 C   0  0  0  0  0  0  0  0  0  0  0  0
    8.2213  -12.6661   19.4689 C   0  0  0  0  0  0  0  0  0  0  0  0
    7.5586  -12.7353   20.6618 C   0  0  0  0  0  0  0  0  0  0  0  0
    6.8417  -13.8655   20.9771 C   0  0  0  0  0  0  0  0  0  0  0  0
    7.8503  -17.3724   21.4054 C   0  0  0  0  0  0  0  0  0  0  0  0
    7.9375  -18.5691   21.0068 O   0  0  0  0  0  0  0  0  0  0  0  0
    9.0333  -16.6012   21.4871 N   0  0  0  0  0  0  0  0  0  0  0  0
   10.3384  -17.2739   21.7283 C   0  0  1  0  0  0  0  0  0  0  0  0
   11.1815  -17.0820   20.5019 C   0  0  0  0  0  0  0  0  0  0  0  0
   12.5730  -17.5679   20.5457 C   0  0  0  0  0  0  0  0  0  0  0  0
   13.0342  -17.8202   19.1270 C   0  0  0  0  0  0  0  0  0  0  0  0
   13.2635  -18.9730   18.6891 O   0  0  0  0  0  0  0  0  0  0  0  0
   10.9072  -16.7453   22.9737 C   0  0  0  0  0  0  0  0  0  0  0  0
   11.5538  -15.6377   22.9950 O   0  0  0  0  0  0  0  0  0  0  0  0
   13.2112  -16.7462   18.2782 O   0  0  0  0  0  0  0  0  0  0  0  0
   10.7955  -17.3834   24.2257 N   0  0  0  0  0  0  0  0  0  0  0  0
   10.7097  -16.6283   25.4808 C   0  0  1  0  0  0  0  0  0  0  0  0
    9.2294  -16.3998   25.8163 C   0  0  0  0  0  0  0  0  0  0  0  0
    9.0989  -15.3063   26.8123 C   0  0  0  0  0  0  0  0  0  0  0  0
    9.6743  -15.2300   28.0862 C   0  0  0  0  0  0  0  0  0  0  0  0
    9.3013  -14.0694   28.6616 N   0  0  0  0  0  0  0  0  0  0  0  0
    8.5068  -13.3738   27.8302 C   0  0  0  0  0  0  0  0  0  0  0  0
    7.8827  -12.1515   27.9602 C   0  0  0  0  0  0  0  0  0  0  0  0
    7.1030  -11.6567   26.9276 C   0  0  0  0  0  0  0  0  0  0  0  0
    6.9888  -12.4240   25.8038 C   0  0  0  0  0  0  0  0  0  0  0  0
    7.6059  -13.6318   25.6761 C   0  0  0  0  0  0  0  0  0  0  0  0
    8.3806  -14.1340   26.6899 C   0  0  0  0  0  0  0  0  0  0  0  0
   11.2697  -17.4446   26.5883 C   0  0  0  0  0  0  0  0  0  0  0  0
   11.8988  -16.8884   27.6851 O   0  0  0  0  0  0  0  0  0  0  0  0
   11.1916  -18.6999   26.5703 O   0  0  0  0  0  0  0  0  0  0  0  0
  2  1  1  1
  2  3  1  0
  3  4  1  0
  4  9  1  0
  5  4  2  0
  5  6  1  0
  6  7  2  0
  7  8  1  0
  9  8  2  0
 10 11  2  0
 10  2  1  0
 12 10  1  0
 13 12  1  0
 13 14  1  6
 15 14  1  0
 16 15  1  0
 17 16  2  0
 18 13  1  0
 19 18  2  0
 20 16  1  0
 21 18  1  0
 22 21  1  0
 22 23  1  1
 23 24  1  0
 24 25  2  0
 24 32  1  0
 25 26  1  0
 26 27  1  0
 27 28  2  0
 28 29  1  0
 30 29  2  0
 31 30  1  0
 32 31  2  0
 32 27  1  0
 33 22  1  0
 34 33  1  0
 35 33  2  0
M  END
$$$$
