FEW.pdb
     RDKit          3D

 35 37  0  0  1  0  0  0  0  0999 V2000
    6.0557  -18.9269   21.5235 N   0  0  0  0  0  0  0  0  0  0  0  0
    6.7695  -17.6747   21.4909 C   0  0  1  0  0  0  0  0  0  0  0  0
    6.0588  -16.6190   22.3430 C   0  0  0  0  0  0  0  0  0  0  0  0
    6.6548  -15.2778   22.1085 C   0  0  0  0  0  0  0  0  0  0  0  0
    6.9623  -14.8524   20.8332 C   0  0  0  0  0  0  0  0  0  0  0  0
    7.5163  -13.6033   20.6162 C   0  0  0  0  0  0  0  0  0  0  0  0
    7.7787  -12.7422   21.6748 C   0  0  0  0  0  0  0  0  0  0  0  0
    7.4789  -13.1511   22.9437 C   0  0  0  0  0  0  0  0  0  0  0  0
    6.9286  -14.3951   23.1452 C   0  0  0  0  0  0  0  0  0  0  0  0
    8.1050  -17.8735   22.1533 C   0  0  0  0  0  0  0  0  0  0  0  0
    8.2440  -18.7601   23.0438 O   0  0  0  0  0  0  0  0  0  0  0  0
    9.2275  -17.0864   21.8047 N   0  0  0  0  0  0  0  0  0  0  0  0
   10.5966  -17.5632   22.1395 C   0  0  1  0  0  0  0  0  0  0  0  0
   11.5398  -16.9817   21.1278 C   0  0  0  0  0  0  0  0  0  0  0  0
   12.9717  -17.3083   21.2605 C   0  0  0  0  0  0  0  0  0  0  0  0
   13.7168  -16.6577   20.1157 C   0  0  0  0  0  0  0  0  0  0  0  0
   14.9197  -16.3139   20.2050 O   0  0  0  0  0  0  0  0  0  0  0  0
   10.8780  -17.2152   23.5373 C   0  0  0  0  0  0  0  0  0  0  0  0
   11.9965  -17.5167   24.0881 O   0  0  0  0  0  0  0  0  0  0  0  0
   13.0538  -16.4314   18.9264 O   0  0  0  0  0  0  0  0  0  0  0  0
    9.9750  -16.5335   24.3781 N   0  0  0  0  0  0  0  0  0  0  0  0
   10.3123  -16.1813   25.7619 C   0  0  1  0  0  0  0  0  0  0  0  0
    9.0430  -16.2858   26.6186 C   0  0  0  0  0  0  0  0  0  0  0  0
    7.9904  -15.3904   26.0754 C   0  0  0  0  0  0  0  0  0  0  0  0
    6.7372  -15.7475   25.5640 C   0  0  0  0  0  0  0  0  0  0  0  0
    6.0923  -14.6290   25.1763 N   0  0  0  0  0  0  0  0  0  0  0  0
    6.8581  -13.5487   25.4065 C   0  0  0  0  0  0  0  0  0  0  0  0
    6.6454  -12.2048   25.1853 C   0  0  0  0  0  0  0  0  0  0  0  0
    7.6225  -11.2825   25.5223 C   0  0  0  0  0  0  0  0  0  0  0  0
    8.7770  -11.7629   26.0708 C   0  0  0  0  0  0  0  0  0  0  0  0
    8.9864  -13.0912   26.2891 C   0  0  0  0  0  0  0  0  0  0  0  0
    8.0283  -14.0153   25.9605 C   0  0  0  0  0  0  0  0  0  0  0  0
   11.2693  -17.1783   26.3066 C   0  0  0  0  0  0  0  0  0  0  0  0
   11.1588  -18.5336   26.0635 O   0  0  0  0  0  0  0  0  0  0  0  0
   12.2375  -16.8203   27.0253 O   0  0  0  0  0  0  0  0  0  0  0  0
  2  1  1  1
  2  3  1  0
  3  4  1  0
  4  9  1  0
  5  4  2  0
  5  6  1  0
  6  7  2  0
  7  8  1  0
  9  8  2  0
 10 11  2  0
 10  2  1  0
 12 10  1  0
 13 12  1  0
 13 14  1  6
 15 14  1  0
 16 15  1  0
 17 16  2  0
 18 13  1  0
 19 18  2  0
 20 16  1  0
 21 18  1  0
 22 21  1  0
 22 23  1  1
 23 24  1  0
 24 25  2  0
 24 32  1  0
 25 26  1  0
 26 27  1  0
 27 28  2  0
 28 29  1  0
 30 29  2  0
 31 30  1  0
 32 31  2  0
 32 27  1  0
 33 22  1  0
 34 33  1  0
 35 33  2  0
M  END
$$$$
