FEW.pdb
     RDKit          3D

 35 37  0  0  1  0  0  0  0  0999 V2000
    8.4010  -17.1989   17.5478 N   0  0  0  0  0  0  0  0  0  0  0  0
    8.6198  -16.1548   18.5177 C   0  0  1  0  0  0  0  0  0  0  0  0
    7.6040  -15.0225   18.3392 C   0  0  0  0  0  0  0  0  0  0  0  0
    7.7681  -14.0064   19.4114 C   0  0  0  0  0  0  0  0  0  0  0  0
    8.5957  -12.9174   19.2348 C   0  0  0  0  0  0  0  0  0  0  0  0
    8.7469  -11.9719   20.2334 C   0  0  0  0  0  0  0  0  0  0  0  0
    8.0706  -12.0913   21.4414 C   0  0  0  0  0  0  0  0  0  0  0  0
    7.2473  -13.1654   21.6297 C   0  0  0  0  0  0  0  0  0  0  0  0
    7.1061  -14.0978   20.6289 C   0  0  0  0  0  0  0  0  0  0  0  0
    8.3417  -16.7135   19.8860 C   0  0  0  0  0  0  0  0  0  0  0  0
    7.2192  -17.2372   20.1396 O   0  0  0  0  0  0  0  0  0  0  0  0
    9.3130  -16.6704   20.9135 N   0  0  0  0  0  0  0  0  0  0  0  0
    9.0331  -17.3205   22.2222 C   0  0  1  0  0  0  0  0  0  0  0  0
    9.3405  -18.7821   22.0781 C   0  0  0  0  0  0  0  0  0  0  0  0
   10.5190  -19.1572   21.2750 C   0  0  0  0  0  0  0  0  0  0  0  0
   11.1707  -20.3611   21.9192 C   0  0  0  0  0  0  0  0  0  0  0  0
   10.7083  -20.9050   22.9504 O   0  0  0  0  0  0  0  0  0  0  0  0
    9.7941  -16.6154   23.2604 C   0  0  0  0  0  0  0  0  0  0  0  0
   10.6564  -15.7146   22.9602 O   0  0  0  0  0  0  0  0  0  0  0  0
   12.3169  -20.8849   21.3560 O   0  0  0  0  0  0  0  0  0  0  0  0
    9.6494  -16.8514   24.6426 N   0  0  0  0  0  0  0  0  0  0  0  0
   10.6516  -16.4083   25.6183 C   0  0  1  0  0  0  0  0  0  0  0  0
   10.1474  -15.1243   26.2915 C   0  0  0  0  0  0  0  0  0  0  0  0
    8.6660  -15.0596   26.2132 C   0  0  0  0  0  0  0  0  0  0  0  0
    7.7662  -16.1197   26.0514 C   0  0  0  0  0  0  0  0  0  0  0  0
    6.5124  -15.6248   26.0303 N   0  0  0  0  0  0  0  0  0  0  0  0
    6.5389  -14.2884   26.1703 C   0  0  0  0  0  0  0  0  0  0  0  0
    5.5334  -13.3462   26.2096 C   0  0  0  0  0  0  0  0  0  0  0  0
    5.8439  -12.0053   26.3663 C   0  0  0  0  0  0  0  0  0  0  0  0
    7.1644  -11.6754   26.4767 C   0  0  0  0  0  0  0  0  0  0  0  0
    8.1576  -12.6071   26.4377 C   0  0  0  0  0  0  0  0  0  0  0  0
    7.8649  -13.9377   26.2832 C   0  0  0  0  0  0  0  0  0  0  0  0
   10.7773  -17.4246   26.6944 C   0  0  0  0  0  0  0  0  0  0  0  0
   11.7270  -17.3437   27.6942 O   0  0  0  0  0  0  0  0  0  0  0  0
   10.0083  -18.4190   26.7382 O   0  0  0  0  0  0  0  0  0  0  0  0
  2  1  1  6
  2  3  1  0
  3  4  1  0
  4  9  1  0
  5  4  2  0
  5  6  1  0
  6  7  2  0
  7  8  1  0
  9  8  2  0
 10 11  2  0
 10  2  1  0
 12 10  1  0
 13 12  1  0
 13 14  1  6
 15 14  1  0
 16 15  1  0
 17 16  2  0
 18 13  1  0
 19 18  2  0
 20 16  1  0
 21 18  1  0
 22 21  1  0
 22 23  1  1
 23 24  1  0
 24 25  2  0
 24 32  1  0
 25 26  1  0
 26 27  1  0
 27 28  2  0
 28 29  1  0
 30 29  2  0
 31 30  1  0
 32 31  2  0
 32 27  1  0
 33 22  1  0
 34 33  1  0
 35 33  2  0
M  END
$$$$
