AHG.pdb
     RDKit          3D

 20 20  0  0  1  0  0  0  0  0999 V2000
   10.8752  -19.3561   19.8037 C   0  0  0  0  0  0  0  0  0  0  0  0
   10.2005  -18.2543   19.0173 C   0  0  2  0  0  0  0  0  0  0  0  0
   10.8394  -18.0241   17.7445 N   0  0  0  0  0  0  0  0  0  0  0  0
   10.3057  -16.9974   19.8283 C   0  0  0  0  0  0  0  0  0  0  0  0
   11.4185  -16.3983   19.9423 O   0  0  0  0  0  0  0  0  0  0  0  0
    9.1846  -16.4327   20.4925 N   0  0  0  0  0  0  0  0  0  0  0  0
    9.3226  -15.1587   21.2368 C   0  0  1  0  0  0  0  0  0  0  0  0
    8.0820  -14.3722   20.9394 C   0  0  0  0  0  0  0  0  0  0  0  0
    7.8343  -14.0571   19.5310 C   0  0  0  0  0  0  0  0  0  0  0  0
    8.3136  -12.9824   18.8059 C   0  0  0  0  0  0  0  0  0  0  0  0
    7.8661  -13.0349   17.5354 N   0  0  0  0  0  0  0  0  0  0  0  0
    7.1037  -14.1349   17.4403 C   0  0  0  0  0  0  0  0  0  0  0  0
    7.0789  -14.7542   18.6324 N   0  0  0  0  0  0  0  0  0  0  0  0
    9.5875  -15.4204   22.6527 C   0  0  0  0  0  0  0  0  0  0  0  0
    9.6296  -14.4323   23.4474 O   0  0  0  0  0  0  0  0  0  0  0  0
    9.8038  -16.6896   23.2408 N   0  0  0  0  0  0  0  0  0  0  0  0
    9.9579  -16.8316   24.6914 C   0  0  0  0  0  0  0  0  0  0  0  0
   11.3504  -17.1540   25.0525 C   0  0  0  0  0  0  0  0  0  0  0  0
   12.2943  -17.2686   24.2294 O   0  0  0  0  0  0  0  0  0  0  0  0
   11.6507  -17.3464   26.3929 O   0  0  0  0  0  0  0  0  0  0  0  0
  2  1  1  1
  2  4  1  0
  2  3  1  0
  4  5  2  0
  6  7  1  0
  6  4  1  0
  7  8  1  1
  9  8  1  0
 10  9  2  0
 11 10  1  0
 12 11  1  0
 12 13  2  0
 13  9  1  0
 14 15  2  0
 14  7  1  0
 16 14  1  0
 17 16  1  0
 18 17  1  0
 19 18  2  0
 20 18  1  0
M  END
$$$$
