AHG.pdb
     RDKit          3D

 20 20  0  0  1  0  0  0  0  0999 V2000
    8.1141  -19.8938   20.2175 C   0  0  0  0  0  0  0  0  0  0  0  0
    7.7396  -18.6870   19.3862 C   0  0  2  0  0  0  0  0  0  0  0  0
    8.0923  -18.8520   17.9971 N   0  0  0  0  0  0  0  0  0  0  0  0
    8.5046  -17.5164   19.9277 C   0  0  0  0  0  0  0  0  0  0  0  0
    9.7223  -17.3450   19.6147 O   0  0  0  0  0  0  0  0  0  0  0  0
    7.9103  -16.5654   20.7991 N   0  0  0  0  0  0  0  0  0  0  0  0
    8.6943  -15.4042   21.2820 C   0  0  1  0  0  0  0  0  0  0  0  0
    7.8382  -14.1990   21.0359 C   0  0  0  0  0  0  0  0  0  0  0  0
    7.6450  -13.8138   19.6364 C   0  0  0  0  0  0  0  0  0  0  0  0
    8.3707  -12.8944   18.9024 C   0  0  0  0  0  0  0  0  0  0  0  0
    7.8919  -12.8131   17.6449 N   0  0  0  0  0  0  0  0  0  0  0  0
    6.8651  -13.6732   17.5669 C   0  0  0  0  0  0  0  0  0  0  0  0
    6.7097  -14.2778   18.7568 N   0  0  0  0  0  0  0  0  0  0  0  0
    9.1168  -15.6140   22.6680 C   0  0  0  0  0  0  0  0  0  0  0  0
    8.2294  -15.5956   23.5746 O   0  0  0  0  0  0  0  0  0  0  0  0
   10.4414  -15.8428   23.1114 N   0  0  0  0  0  0  0  0  0  0  0  0
   10.7287  -16.1013   24.5252 C   0  0  0  0  0  0  0  0  0  0  0  0
   12.1764  -16.2551   24.7574 C   0  0  0  0  0  0  0  0  0  0  0  0
   13.0526  -16.2230   23.8558 O   0  0  0  0  0  0  0  0  0  0  0  0
   12.6130  -16.4494   26.0595 O   0  0  0  0  0  0  0  0  0  0  0  0
  2  1  1  1
  2  4  1  0
  2  3  1  0
  4  5  2  0
  6  7  1  0
  6  4  1  0
  7  8  1  1
  9  8  1  0
 10  9  2  0
 11 10  1  0
 12 11  1  0
 12 13  2  0
 13  9  1  0
 14 15  2  0
 14  7  1  0
 16 14  1  0
 17 16  1  0
 18 17  1  0
 19 18  2  0
 20 18  1  0
M  END
$$$$
