AHG.pdb
     RDKit          3D

 20 20  0  0  1  0  0  0  0  0999 V2000
    8.8707  -19.7977   19.6945 C   0  0  0  0  0  0  0  0  0  0  0  0
    8.8480  -18.5427   18.8507 C   0  0  2  0  0  0  0  0  0  0  0  0
    9.7898  -18.6031   17.7595 N   0  0  0  0  0  0  0  0  0  0  0  0
    9.2346  -17.3990   19.7402 C   0  0  0  0  0  0  0  0  0  0  0  0
   10.4427  -17.0161   19.8050 O   0  0  0  0  0  0  0  0  0  0  0  0
    8.2827  -16.7068   20.5348 N   0  0  0  0  0  0  0  0  0  0  0  0
    8.6693  -15.4695   21.2531 C   0  0  1  0  0  0  0  0  0  0  0  0
    7.6218  -14.4527   20.9142 C   0  0  0  0  0  0  0  0  0  0  0  0
    7.5395  -14.0478   19.5094 C   0  0  0  0  0  0  0  0  0  0  0  0
    8.0836  -12.9232   18.9181 C   0  0  0  0  0  0  0  0  0  0  0  0
    7.7929  -12.8962   17.6020 N   0  0  0  0  0  0  0  0  0  0  0  0
    7.0667  -13.9947   17.3450 C   0  0  0  0  0  0  0  0  0  0  0  0
    6.9097  -14.6915   18.4831 N   0  0  0  0  0  0  0  0  0  0  0  0
    8.8541  -15.7435   22.6794 C   0  0  0  0  0  0  0  0  0  0  0  0
    7.8233  -15.9590   23.3870 O   0  0  0  0  0  0  0  0  0  0  0  0
   10.0909  -15.7968   23.3658 N   0  0  0  0  0  0  0  0  0  0  0  0
   10.1555  -16.2061   24.7717 C   0  0  0  0  0  0  0  0  0  0  0  0
   11.5506  -16.2917   25.2404 C   0  0  0  0  0  0  0  0  0  0  0  0
   12.5597  -16.0501   24.5298 O   0  0  0  0  0  0  0  0  0  0  0  0
   11.7765  -16.6645   26.5572 O   0  0  0  0  0  0  0  0  0  0  0  0
  2  1  1  1
  2  4  1  0
  2  3  1  0
  4  5  2  0
  6  7  1  0
  6  4  1  0
  7  8  1  1
  9  8  1  0
 10  9  2  0
 11 10  1  0
 12 11  1  0
 12 13  2  0
 13  9  1  0
 14 15  2  0
 14  7  1  0
 16 14  1  0
 17 16  1  0
 18 17  1  0
 19 18  2  0
 20 18  1  0
M  END
$$$$
