AHG.pdb
     RDKit          3D

 20 20  0  0  1  0  0  0  0  0999 V2000
   11.3325  -19.6043   18.1594 C   0  0  0  0  0  0  0  0  0  0  0  0
   10.8103  -18.3225   17.5496 C   0  0  2  0  0  0  0  0  0  0  0  0
   11.4390  -18.0254   16.2856 N   0  0  0  0  0  0  0  0  0  0  0  0
   11.1295  -17.2110   18.5042 C   0  0  0  0  0  0  0  0  0  0  0  0
   12.1435  -16.4723   18.3134 O   0  0  0  0  0  0  0  0  0  0  0  0
   10.3253  -16.9412   19.6432 N   0  0  0  0  0  0  0  0  0  0  0  0
   10.6946  -15.8500   20.5755 C   0  0  1  0  0  0  0  0  0  0  0  0
    9.4050  -15.2083   20.9892 C   0  0  0  0  0  0  0  0  0  0  0  0
    8.7487  -14.3642   19.9886 C   0  0  0  0  0  0  0  0  0  0  0  0
    9.1866  -14.0668   18.7118 C   0  0  0  0  0  0  0  0  0  0  0  0
    8.3082  -13.2547   18.0903 N   0  0  0  0  0  0  0  0  0  0  0  0
    7.3107  -13.0292   18.9588 C   0  0  0  0  0  0  0  0  0  0  0  0
    7.5664  -13.6906   20.1000 N   0  0  0  0  0  0  0  0  0  0  0  0
   11.5271  -16.3672   21.6630 C   0  0  0  0  0  0  0  0  0  0  0  0
   11.0704  -17.3187   22.3672 O   0  0  0  0  0  0  0  0  0  0  0  0
   12.8184  -15.9078   22.0169 N   0  0  0  0  0  0  0  0  0  0  0  0
   13.5386  -16.4866   23.1547 C   0  0  0  0  0  0  0  0  0  0  0  0
   14.8478  -15.8365   23.3457 C   0  0  0  0  0  0  0  0  0  0  0  0
   15.3357  -14.9709   22.5748 O   0  0  0  0  0  0  0  0  0  0  0  0
   15.6028  -16.1986   24.4516 O   0  0  0  0  0  0  0  0  0  0  0  0
  2  1  1  1
  2  4  1  0
  2  3  1  0
  4  5  2  0
  6  7  1  0
  6  4  1  0
  7  8  1  1
  9  8  1  0
 10  9  2  0
 11 10  1  0
 12 11  1  0
 12 13  2  0
 13  9  1  0
 14 15  2  0
 14  7  1  0
 16 14  1  0
 17 16  1  0
 18 17  1  0
 19 18  2  0
 20 18  1  0
M  END
$$$$
