AHG.pdb
     RDKit          3D

 20 20  0  0  1  0  0  0  0  0999 V2000
    7.8363  -15.1602   19.3411 C   0  0  0  0  0  0  0  0  0  0  0  0
    7.6132  -13.8667   20.0925 C   0  0  2  0  0  0  0  0  0  0  0  0
    8.1939  -12.7347   19.4123 N   0  0  0  0  0  0  0  0  0  0  0  0
    8.2819  -14.0043   21.4277 C   0  0  0  0  0  0  0  0  0  0  0  0
    9.4396  -13.5209   21.6187 O   0  0  0  0  0  0  0  0  0  0  0  0
    7.6600  -14.6697   22.5173 N   0  0  0  0  0  0  0  0  0  0  0  0
    8.4082  -14.9003   23.7756 C   0  0  1  0  0  0  0  0  0  0  0  0
    7.3743  -15.0074   24.8552 C   0  0  0  0  0  0  0  0  0  0  0  0
    6.8954  -13.7458   25.4239 C   0  0  0  0  0  0  0  0  0  0  0  0
    7.3816  -12.4729   25.1921 C   0  0  0  0  0  0  0  0  0  0  0  0
    6.6790  -11.5650   25.8987 N   0  0  0  0  0  0  0  0  0  0  0  0
    5.7462  -12.2459   26.5816 C   0  0  0  0  0  0  0  0  0  0  0  0
    5.8684  -13.5546   26.3030 N   0  0  0  0  0  0  0  0  0  0  0  0
    9.3037  -16.0499   23.6340 C   0  0  0  0  0  0  0  0  0  0  0  0
    8.8999  -17.0447   22.9580 O   0  0  0  0  0  0  0  0  0  0  0  0
   10.6031  -16.1685   24.1828 N   0  0  0  0  0  0  0  0  0  0  0  0
   11.3895  -17.3917   24.0001 C   0  0  0  0  0  0  0  0  0  0  0  0
   12.5344  -17.1621   23.1003 C   0  0  0  0  0  0  0  0  0  0  0  0
   12.4386  -16.8146   21.8954 O   0  0  0  0  0  0  0  0  0  0  0  0
   13.8124  -17.3395   23.6095 O   0  0  0  0  0  0  0  0  0  0  0  0
  2  1  1  6
  2  4  1  0
  2  3  1  0
  4  5  2  0
  6  7  1  0
  6  4  1  0
  7  8  1  1
  9  8  1  0
 10  9  2  0
 11 10  1  0
 12 11  1  0
 12 13  2  0
 13  9  1  0
 14 15  2  0
 14  7  1  0
 16 14  1  0
 17 16  1  0
 18 17  1  0
 19 18  2  0
 20 18  1  0
M  END
$$$$
