AHG.pdb
     RDKit          3D

 20 20  0  0  1  0  0  0  0  0999 V2000
    9.6926  -19.8569   19.3942 C   0  0  0  0  0  0  0  0  0  0  0  0
    8.8791  -18.5926   19.2287 C   0  0  2  0  0  0  0  0  0  0  0  0
    8.6479  -18.2717   17.8413 N   0  0  0  0  0  0  0  0  0  0  0  0
    9.6635  -17.4726   19.8442 C   0  0  0  0  0  0  0  0  0  0  0  0
   10.8059  -17.1621   19.3872 O   0  0  0  0  0  0  0  0  0  0  0  0
    9.1710  -16.7237   20.9458 N   0  0  0  0  0  0  0  0  0  0  0  0
    9.9225  -15.5473   21.4435 C   0  0  1  0  0  0  0  0  0  0  0  0
    8.9129  -14.4511   21.6016 C   0  0  0  0  0  0  0  0  0  0  0  0
    8.2977  -13.9516   20.3701 C   0  0  0  0  0  0  0  0  0  0  0  0
    8.8843  -13.1866   19.3795 C   0  0  0  0  0  0  0  0  0  0  0  0
    7.9960  -12.9235   18.4003 N   0  0  0  0  0  0  0  0  0  0  0  0
    6.8446  -13.5138   18.7553 C   0  0  0  0  0  0  0  0  0  0  0  0
    7.0163  -14.1329   19.9354 N   0  0  0  0  0  0  0  0  0  0  0  0
   10.6785  -15.8964   22.6477 C   0  0  0  0  0  0  0  0  0  0  0  0
   10.0334  -16.2820   23.6698 O   0  0  0  0  0  0  0  0  0  0  0  0
   12.0858  -15.8498   22.7926 N   0  0  0  0  0  0  0  0  0  0  0  0
   12.7291  -16.2698   24.0408 C   0  0  0  0  0  0  0  0  0  0  0  0
   14.1937  -16.1201   23.9644 C   0  0  0  0  0  0  0  0  0  0  0  0
   14.8153  -15.6676   22.9692 O   0  0  0  0  0  0  0  0  0  0  0  0
   14.9485  -16.5028   25.0634 O   0  0  0  0  0  0  0  0  0  0  0  0
  2  1  1  6
  2  4  1  0
  2  3  1  0
  4  5  2  0
  6  7  1  0
  6  4  1  0
  7  8  1  1
  9  8  1  0
 10  9  2  0
 11 10  1  0
 12 11  1  0
 12 13  2  0
 13  9  1  0
 14 15  2  0
 14  7  1  0
 16 14  1  0
 17 16  1  0
 18 17  1  0
 19 18  2  0
 20 18  1  0
M  END
$$$$
