AHG.pdb
     RDKit          3D

 20 20  0  0  1  0  0  0  0  0999 V2000
    7.9986  -12.1750   19.6303 C   0  0  0  0  0  0  0  0  0  0  0  0
    8.3085  -13.0626   18.4456 C   0  0  2  0  0  0  0  0  0  0  0  0
    7.1225  -13.4130   17.7027 N   0  0  0  0  0  0  0  0  0  0  0  0
    8.9165  -14.3250   18.9798 C   0  0  0  0  0  0  0  0  0  0  0  0
    8.1901  -15.3395   19.2112 O   0  0  0  0  0  0  0  0  0  0  0  0
   10.3070  -14.4384   19.2455 N   0  0  0  0  0  0  0  0  0  0  0  0
   10.8770  -15.7294   19.6979 C   0  0  1  0  0  0  0  0  0  0  0  0
   12.0012  -16.0355   18.7552 C   0  0  0  0  0  0  0  0  0  0  0  0
   11.6209  -16.4747   17.4111 C   0  0  0  0  0  0  0  0  0  0  0  0
   10.5137  -17.2160   17.0431 C   0  0  0  0  0  0  0  0  0  0  0  0
   10.5070  -17.4220   15.7109 N   0  0  0  0  0  0  0  0  0  0  0  0
   11.6011  -16.8187   15.2220 C   0  0  0  0  0  0  0  0  0  0  0  0
   12.2752  -16.2479   16.2345 N   0  0  0  0  0  0  0  0  0  0  0  0
   11.2347  -15.6609   21.1159 C   0  0  0  0  0  0  0  0  0  0  0  0
   11.9913  -14.7170   21.4985 O   0  0  0  0  0  0  0  0  0  0  0  0
   10.8127  -16.5566   22.1275 N   0  0  0  0  0  0  0  0  0  0  0  0
   11.1539  -16.3206   23.5332 C   0  0  0  0  0  0  0  0  0  0  0  0
   12.4458  -16.9396   23.8813 C   0  0  0  0  0  0  0  0  0  0  0  0
   13.2619  -17.4085   23.0472 O   0  0  0  0  0  0  0  0  0  0  0  0
   12.7950  -17.0148   25.2216 O   0  0  0  0  0  0  0  0  0  0  0  0
  2  1  1  1
  2  4  1  0
  2  3  1  0
  4  5  2  0
  6  7  1  0
  6  4  1  0
  7  8  1  6
  9  8  1  0
 10  9  2  0
 11 10  1  0
 12 11  1  0
 12 13  2  0
 13  9  1  0
 14 15  2  0
 14  7  1  0
 16 14  1  0
 17 16  1  0
 18 17  1  0
 19 18  2  0
 20 18  1  0
M  END
$$$$
