AHG.pdb
     RDKit          3D

 20 20  0  0  1  0  0  0  0  0999 V2000
    8.9596  -18.7066   17.7612 C   0  0  0  0  0  0  0  0  0  0  0  0
    9.2690  -18.8908   19.2301 C   0  0  2  0  0  0  0  0  0  0  0  0
    8.1482  -19.4331   19.9588 N   0  0  0  0  0  0  0  0  0  0  0  0
    9.5834  -17.5373   19.7938 C   0  0  0  0  0  0  0  0  0  0  0  0
   10.5542  -16.8606   19.3355 O   0  0  0  0  0  0  0  0  0  0  0  0
    8.8221  -16.9636   20.8466 N   0  0  0  0  0  0  0  0  0  0  0  0
    9.2664  -15.7033   21.4872 C   0  0  1  0  0  0  0  0  0  0  0  0
    8.1220  -14.7456   21.3481 C   0  0  0  0  0  0  0  0  0  0  0  0
    7.8997  -14.1883   20.0123 C   0  0  0  0  0  0  0  0  0  0  0  0
    8.6452  -14.4048   18.8687 C   0  0  0  0  0  0  0  0  0  0  0  0
    8.1271  -13.7163   17.8320 N   0  0  0  0  0  0  0  0  0  0  0  0
    7.0553  -13.0603   18.3019 C   0  0  0  0  0  0  0  0  0  0  0  0
    6.9112  -13.3374   19.6088 N   0  0  0  0  0  0  0  0  0  0  0  0
    9.7216  -15.9584   22.8551 C   0  0  0  0  0  0  0  0  0  0  0  0
    8.9020  -16.4778   23.6726 O   0  0  0  0  0  0  0  0  0  0  0  0
   11.0103  -15.6823   23.3713 N   0  0  0  0  0  0  0  0  0  0  0  0
   11.3620  -16.0365   24.7493 C   0  0  0  0  0  0  0  0  0  0  0  0
   12.1566  -17.2773   24.7964 C   0  0  0  0  0  0  0  0  0  0  0  0
   13.4118  -17.3207   24.8606 O   0  0  0  0  0  0  0  0  0  0  0  0
   11.4808  -18.4883   24.7685 O   0  0  0  0  0  0  0  0  0  0  0  0
  2  1  1  6
  2  4  1  0
  2  3  1  0
  4  5  2  0
  6  7  1  0
  6  4  1  0
  7  8  1  1
  9  8  1  0
 10  9  2  0
 11 10  1  0
 12 11  1  0
 12 13  2  0
 13  9  1  0
 14 15  2  0
 14  7  1  0
 16 14  1  0
 17 16  1  0
 18 17  1  0
 19 18  2  0
 20 18  1  0
M  END
$$$$
