AHG.pdb
     RDKit          3D

 20 20  0  0  1  0  0  0  0  0999 V2000
   13.3285  -17.1590   16.4274 C   0  0  0  0  0  0  0  0  0  0  0  0
   12.7496  -15.7617   16.4209 C   0  0  2  0  0  0  0  0  0  0  0  0
   13.5891  -14.8279   15.7107 N   0  0  0  0  0  0  0  0  0  0  0  0
   12.6517  -15.3119   17.8481 C   0  0  0  0  0  0  0  0  0  0  0  0
   13.5699  -14.6024   18.3619 O   0  0  0  0  0  0  0  0  0  0  0  0
   11.5470  -15.6540   18.6723 N   0  0  0  0  0  0  0  0  0  0  0  0
   11.4556  -15.1261   20.0540 C   0  0  1  0  0  0  0  0  0  0  0  0
    9.9926  -15.0539   20.3708 C   0  0  0  0  0  0  0  0  0  0  0  0
    9.2099  -14.0786   19.6088 C   0  0  0  0  0  0  0  0  0  0  0  0
    9.6748  -13.1266   18.7210 C   0  0  0  0  0  0  0  0  0  0  0  0
    8.6484  -12.4129   18.2165 N   0  0  0  0  0  0  0  0  0  0  0  0
    7.5294  -12.8999   18.7738 C   0  0  0  0  0  0  0  0  0  0  0  0
    7.8565  -13.8993   19.6103 N   0  0  0  0  0  0  0  0  0  0  0  0
   12.2660  -15.9365   20.9650 C   0  0  0  0  0  0  0  0  0  0  0  0
   12.1158  -17.1961   20.9417 O   0  0  0  0  0  0  0  0  0  0  0  0
   13.2229  -15.4503   21.8879 N   0  0  0  0  0  0  0  0  0  0  0  0
   14.0611  -16.3719   22.6601 C   0  0  0  0  0  0  0  0  0  0  0  0
   15.0886  -15.6449   23.4276 C   0  0  0  0  0  0  0  0  0  0  0  0
   15.9979  -14.9416   22.9177 O   0  0  0  0  0  0  0  0  0  0  0  0
   15.0586  -15.7371   24.8113 O   0  0  0  0  0  0  0  0  0  0  0  0
  2  1  1  1
  2  4  1  0
  2  3  1  0
  4  5  2  0
  6  7  1  0
  6  4  1  0
  7  8  1  1
  9  8  1  0
 10  9  2  0
 11 10  1  0
 12 11  1  0
 12 13  2  0
 13  9  1  0
 14 15  2  0
 14  7  1  0
 16 14  1  0
 17 16  1  0
 18 17  1  0
 19 18  2  0
 20 18  1  0
M  END
$$$$
