AHG.pdb
     RDKit          3D

 20 20  0  0  1  0  0  0  0  0999 V2000
    8.6141  -20.5483   18.1208 C   0  0  0  0  0  0  0  0  0  0  0  0
    8.0449  -19.4140   17.2981 C   0  0  2  0  0  0  0  0  0  0  0  0
    8.2988  -19.5833   15.8881 N   0  0  0  0  0  0  0  0  0  0  0  0
    8.7204  -18.1530   17.7476 C   0  0  0  0  0  0  0  0  0  0  0  0
    9.8814  -17.8614   17.3264 O   0  0  0  0  0  0  0  0  0  0  0  0
    8.1015  -17.2461   18.6484 N   0  0  0  0  0  0  0  0  0  0  0  0
    8.7598  -15.9610   18.9827 C   0  0  1  0  0  0  0  0  0  0  0  0
    7.6554  -14.9577   19.1237 C   0  0  0  0  0  0  0  0  0  0  0  0
    8.0528  -13.6054   19.5209 C   0  0  0  0  0  0  0  0  0  0  0  0
    7.6192  -12.8818   20.6158 C   0  0  0  0  0  0  0  0  0  0  0  0
    8.2132  -11.6720   20.6455 N   0  0  0  0  0  0  0  0  0  0  0  0
    9.0243  -11.6145   19.5782 C   0  0  0  0  0  0  0  0  0  0  0  0
    8.9345  -12.7697   18.8979 N   0  0  0  0  0  0  0  0  0  0  0  0
    9.6289  -16.1209   20.1500 C   0  0  0  0  0  0  0  0  0  0  0  0
    9.1567  -16.7026   21.1738 O   0  0  0  0  0  0  0  0  0  0  0  0
   10.9719  -15.6866   20.2565 N   0  0  0  0  0  0  0  0  0  0  0  0
   11.7178  -15.8444   21.5082 C   0  0  0  0  0  0  0  0  0  0  0  0
   13.0852  -15.3068   21.3875 C   0  0  0  0  0  0  0  0  0  0  0  0
   13.5810  -14.8449   20.3280 O   0  0  0  0  0  0  0  0  0  0  0  0
   13.8899  -15.3061   22.5173 O   0  0  0  0  0  0  0  0  0  0  0  0
  2  1  1  1
  2  4  1  0
  2  3  1  0
  4  5  2  0
  6  7  1  0
  6  4  1  0
  7  8  1  1
  9  8  1  0
 10  9  2  0
 11 10  1  0
 12 11  1  0
 12 13  2  0
 13  9  1  0
 14 15  2  0
 14  7  1  0
 16 14  1  0
 17 16  1  0
 18 17  1  0
 19 18  2  0
 20 18  1  0
M  END
$$$$
