AHG.pdb
     RDKit          3D

 20 20  0  0  1  0  0  0  0  0999 V2000
    9.5200  -17.7499   16.6975 C   0  0  0  0  0  0  0  0  0  0  0  0
   10.0811  -18.1888   18.0317 C   0  0  2  0  0  0  0  0  0  0  0  0
    9.1393  -18.9812   18.7843 N   0  0  0  0  0  0  0  0  0  0  0  0
   10.3842  -16.9489   18.8188 C   0  0  0  0  0  0  0  0  0  0  0  0
   11.2115  -16.0942   18.3768 O   0  0  0  0  0  0  0  0  0  0  0  0
    9.7697  -16.6818   20.0709 N   0  0  0  0  0  0  0  0  0  0  0  0
   10.1736  -15.4954   20.8619 C   0  0  1  0  0  0  0  0  0  0  0  0
    8.9213  -14.7021   21.0822 C   0  0  0  0  0  0  0  0  0  0  0  0
    8.2805  -14.1534   19.8853 C   0  0  0  0  0  0  0  0  0  0  0  0
    7.1119  -14.5762   19.2801 C   0  0  0  0  0  0  0  0  0  0  0  0
    6.8435  -13.8209   18.1963 N   0  0  0  0  0  0  0  0  0  0  0  0
    7.8308  -12.9173   18.1019 C   0  0  0  0  0  0  0  0  0  0  0  0
    8.6973  -13.1092   19.1107 N   0  0  0  0  0  0  0  0  0  0  0  0
   10.8886  -15.9072   22.0713 C   0  0  0  0  0  0  0  0  0  0  0  0
   10.2377  -16.5149   22.9750 O   0  0  0  0  0  0  0  0  0  0  0  0
   12.2617  -15.6954   22.3422 N   0  0  0  0  0  0  0  0  0  0  0  0
   12.8789  -16.2218   23.5629 C   0  0  0  0  0  0  0  0  0  0  0  0
   14.3202  -15.9158   23.6084 C   0  0  0  0  0  0  0  0  0  0  0  0
   14.9575  -15.3363   22.6920 O   0  0  0  0  0  0  0  0  0  0  0  0
   15.0329  -16.2895   24.7382 O   0  0  0  0  0  0  0  0  0  0  0  0
  2  1  1  6
  2  4  1  0
  2  3  1  0
  4  5  2  0
  6  7  1  0
  6  4  1  0
  7  8  1  1
  9  8  1  0
 10  9  2  0
 11 10  1  0
 12 11  1  0
 12 13  2  0
 13  9  1  0
 14 15  2  0
 14  7  1  0
 16 14  1  0
 17 16  1  0
 18 17  1  0
 19 18  2  0
 20 18  1  0
M  END
$$$$
