AHG.pdb
     RDKit          3D

 20 20  0  0  1  0  0  0  0  0999 V2000
    9.8740  -19.4766   18.6964 C   0  0  0  0  0  0  0  0  0  0  0  0
    9.0378  -18.2408   18.4487 C   0  0  2  0  0  0  0  0  0  0  0  0
    9.1948  -17.7374   17.1058 N   0  0  0  0  0  0  0  0  0  0  0  0
    9.5082  -17.1841   19.4030 C   0  0  0  0  0  0  0  0  0  0  0  0
   10.4784  -16.4265   19.0946 O   0  0  0  0  0  0  0  0  0  0  0  0
    8.8995  -16.9886   20.6711 N   0  0  0  0  0  0  0  0  0  0  0  0
    9.4273  -15.9629   21.6016 C   0  0  1  0  0  0  0  0  0  0  0  0
    8.2967  -15.0107   21.8483 C   0  0  0  0  0  0  0  0  0  0  0  0
    7.8555  -14.2143   20.7013 C   0  0  0  0  0  0  0  0  0  0  0  0
    6.6337  -14.2609   20.0567 C   0  0  0  0  0  0  0  0  0  0  0  0
    6.6030  -13.3740   19.0420 N   0  0  0  0  0  0  0  0  0  0  0  0
    7.7955  -12.7591   19.0311 C   0  0  0  0  0  0  0  0  0  0  0  0
    8.5532  -13.2568   20.0229 N   0  0  0  0  0  0  0  0  0  0  0  0
    9.9976  -16.5977   22.7913 C   0  0  0  0  0  0  0  0  0  0  0  0
    9.2433  -17.3332   23.4981 O   0  0  0  0  0  0  0  0  0  0  0  0
   11.3333  -16.4754   23.2435 N   0  0  0  0  0  0  0  0  0  0  0  0
   11.7921  -17.1879   24.4393 C   0  0  0  0  0  0  0  0  0  0  0  0
   13.1786  -16.8216   24.7812 C   0  0  0  0  0  0  0  0  0  0  0  0
   13.8962  -16.0351   24.1118 O   0  0  0  0  0  0  0  0  0  0  0  0
   13.7404  -17.3789   25.9204 O   0  0  0  0  0  0  0  0  0  0  0  0
  2  1  1  6
  2  4  1  0
  2  3  1  0
  4  5  2  0
  6  7  1  0
  6  4  1  0
  7  8  1  1
  9  8  1  0
 10  9  2  0
 11 10  1  0
 12 11  1  0
 12 13  2  0
 13  9  1  0
 14 15  2  0
 14  7  1  0
 16 14  1  0
 17 16  1  0
 18 17  1  0
 19 18  2  0
 20 18  1  0
M  END
$$$$
