AHG.pdb
     RDKit          3D

 20 20  0  0  1  0  0  0  0  0999 V2000
   12.2829  -18.8613   17.7820 C   0  0  0  0  0  0  0  0  0  0  0  0
   10.9663  -18.1375   17.9566 C   0  0  2  0  0  0  0  0  0  0  0  0
   10.4702  -17.6020   16.7123 N   0  0  0  0  0  0  0  0  0  0  0  0
   11.2062  -16.9938   18.8963 C   0  0  0  0  0  0  0  0  0  0  0  0
   12.2135  -16.2374   18.7429 O   0  0  0  0  0  0  0  0  0  0  0  0
   10.3321  -16.7120   19.9795 N   0  0  0  0  0  0  0  0  0  0  0  0
   10.6037  -15.5653   20.8782 C   0  0  1  0  0  0  0  0  0  0  0  0
    9.2772  -14.9127   21.1246 C   0  0  0  0  0  0  0  0  0  0  0  0
    8.7008  -14.1683   20.0031 C   0  0  0  0  0  0  0  0  0  0  0  0
    9.2780  -13.9037   18.7754 C   0  0  0  0  0  0  0  0  0  0  0  0
    8.4353  -13.1884   18.0037 N   0  0  0  0  0  0  0  0  0  0  0  0
    7.3224  -12.9924   18.7271 C   0  0  0  0  0  0  0  0  0  0  0  0
    7.4727  -13.5766   19.9277 N   0  0  0  0  0  0  0  0  0  0  0  0
   11.3265  -16.0110   22.0708 C   0  0  0  0  0  0  0  0  0  0  0  0
   10.6939  -16.6889   22.9367 O   0  0  0  0  0  0  0  0  0  0  0  0
   12.6886  -15.7608   22.3636 N   0  0  0  0  0  0  0  0  0  0  0  0
   13.3065  -16.2890   23.5831 C   0  0  0  0  0  0  0  0  0  0  0  0
   14.7366  -15.9379   23.6535 C   0  0  0  0  0  0  0  0  0  0  0  0
   15.3564  -15.2843   22.7759 O   0  0  0  0  0  0  0  0  0  0  0  0
   15.4583  -16.3534   24.7627 O   0  0  0  0  0  0  0  0  0  0  0  0
  2  1  1  6
  2  4  1  0
  2  3  1  0
  4  5  2  0
  6  7  1  0
  6  4  1  0
  7  8  1  1
  9  8  1  0
 10  9  2  0
 11 10  1  0
 12 11  1  0
 12 13  2  0
 13  9  1  0
 14 15  2  0
 14  7  1  0
 16 14  1  0
 17 16  1  0
 18 17  1  0
 19 18  2  0
 20 18  1  0
M  END
$$$$
