WFQ.pdb
     RDKit          3D

 35 37  0  0  1  0  0  0  0  0999 V2000
   36.8745  -24.4726    5.4107 N   0  0  0  0  0  0  0  0  0  0  0  0
   35.8993  -23.9656    6.3655 C   0  0  1  0  0  0  0  0  0  0  0  0
   34.5390  -24.5016    6.0733 C   0  0  0  0  0  0  0  0  0  0  0  0
   33.8053  -23.7981    5.0037 C   0  0  0  0  0  0  0  0  0  0  0  0
   33.6930  -24.2859    3.6994 C   0  0  0  0  0  0  0  0  0  0  0  0
   32.9541  -23.4419    3.0031 N   0  0  0  0  0  0  0  0  0  0  0  0
   32.5516  -22.3921    3.7693 C   0  0  0  0  0  0  0  0  0  0  0  0
   31.7882  -21.2859    3.4798 C   0  0  0  0  0  0  0  0  0  0  0  0
   31.5370  -20.3575    4.4581 C   0  0  0  0  0  0  0  0  0  0  0  0
   32.0635  -20.5661    5.7107 C   0  0  0  0  0  0  0  0  0  0  0  0
   32.8262  -21.6769    5.9901 C   0  0  0  0  0  0  0  0  0  0  0  0
   33.0971  -22.6328    5.0256 C   0  0  0  0  0  0  0  0  0  0  0  0
   36.2780  -24.1652    7.7647 C   0  0  0  0  0  0  0  0  0  0  0  0
   36.8748  -25.2106    8.1805 O   0  0  0  0  0  0  0  0  0  0  0  0
   35.9575  -23.1203    8.6942 N   0  0  0  0  0  0  0  0  0  0  0  0
   36.2641  -23.2793   10.1031 C   0  0  1  0  0  0  0  0  0  0  0  0
   36.4630  -21.9115   10.7376 C   0  0  0  0  0  0  0  0  0  0  0  0
   36.7126  -21.9840   12.1857 C   0  0  0  0  0  0  0  0  0  0  0  0
   37.9819  -22.2495   12.6363 C   0  0  0  0  0  0  0  0  0  0  0  0
   38.2365  -22.3230   13.9900 C   0  0  0  0  0  0  0  0  0  0  0  0
   37.2185  -22.1305   14.9016 C   0  0  0  0  0  0  0  0  0  0  0  0
   35.9381  -21.8633   14.4764 C   0  0  0  0  0  0  0  0  0  0  0  0
   35.7171  -21.7964   13.1107 C   0  0  0  0  0  0  0  0  0  0  0  0
   35.1954  -24.0440   10.7400 C   0  0  0  0  0  0  0  0  0  0  0  0
   33.9931  -23.7441   10.5334 O   0  0  0  0  0  0  0  0  0  0  0  0
   33.4857  -28.6970    9.1591 N   0  0  0  0  0  0  0  0  0  0  0  0
   34.4216  -29.0816   10.1552 C   0  0  0  0  0  0  0  0  0  0  0  0
   35.0277  -30.1809   10.0307 O   0  0  0  0  0  0  0  0  0  0  0  0
   34.6982  -28.2269   11.3143 C   0  0  0  0  0  0  0  0  0  0  0  0
   33.9519  -26.9545   11.2729 C   0  0  0  0  0  0  0  0  0  0  0  0
   34.3211  -25.8805   12.2545 C   0  0  2  0  0  0  0  0  0  0  0  0
   35.4213  -25.1521   11.6143 N   0  0  0  0  0  0  0  0  0  0  0  0
   34.5531  -26.2421   13.6294 C   0  0  0  0  0  0  0  0  0  0  0  0
   35.8386  -26.0919   14.1898 O   0  0  0  0  0  0  0  0  0  0  0  0
   33.6864  -26.7095   14.4211 O   0  0  0  0  0  0  0  0  0  0  0  0
  2  1  1  6
  3  2  1  0
  4  3  1  0
  4  5  2  0
  6  5  1  0
  7  6  1  0
  8  7  2  0
  9  8  1  0
 10  9  2  0
 10 11  1  0
 11 12  2  0
 12  7  1  0
 12  4  1  0
 13 14  2  0
 13  2  1  0
 15 13  1  0
 16 15  1  0
 16 17  1  1
 18 19  2  0
 18 17  1  0
 20 19  1  0
 21 20  2  0
 22 21  1  0
 22 23  2  0
 23 18  1  0
 24 25  2  0
 24 16  1  0
 26 27  1  0
 27 28  2  0
 29 27  1  0
 29 30  1  0
 31 30  1  6
 31 32  1  0
 32 24  1  0
 33 31  1  0
 34 33  1  0
 35 33  2  0
M  END
$$$$
