WFQ.pdb
     RDKit          3D

 35 37  0  0  1  0  0  0  0  0999 V2000
   21.8895  -19.3294  -13.2827 N   0  0  0  0  0  0  0  0  0  0  0  0
   22.5467  -20.3898  -12.5320 C   0  0  1  0  0  0  0  0  0  0  0  0
   22.2415  -21.7260  -13.1189 C   0  0  0  0  0  0  0  0  0  0  0  0
   20.8056  -22.0326  -13.2651 C   0  0  0  0  0  0  0  0  0  0  0  0
   20.1781  -22.2040  -14.5015 C   0  0  0  0  0  0  0  0  0  0  0  0
   18.9086  -22.4954  -14.2855 N   0  0  0  0  0  0  0  0  0  0  0  0
   18.6316  -22.5321  -12.9539 C   0  0  0  0  0  0  0  0  0  0  0  0
   17.4674  -22.7823  -12.2667 C   0  0  0  0  0  0  0  0  0  0  0  0
   17.4655  -22.7458  -10.8953 C   0  0  0  0  0  0  0  0  0  0  0  0
   18.6419  -22.4564  -10.2455 C   0  0  0  0  0  0  0  0  0  0  0  0
   19.8018  -22.2076  -10.9429 C   0  0  0  0  0  0  0  0  0  0  0  0
   19.8374  -22.2378  -12.3267 C   0  0  0  0  0  0  0  0  0  0  0  0
   23.9843  -20.1865  -12.3504 C   0  0  0  0  0  0  0  0  0  0  0  0
   24.6885  -19.4686  -13.1318 O   0  0  0  0  0  0  0  0  0  0  0  0
   24.6090  -20.8304  -11.2307 N   0  0  0  0  0  0  0  0  0  0  0  0
   26.0548  -20.9219  -11.1566 C   0  0  1  0  0  0  0  0  0  0  0  0
   26.4519  -21.7000   -9.9117 C   0  0  0  0  0  0  0  0  0  0  0  0
   27.0437  -20.8472   -8.8691 C   0  0  0  0  0  0  0  0  0  0  0  0
   26.2469  -19.9495   -8.2029 C   0  0  0  0  0  0  0  0  0  0  0  0
   26.7828  -19.1399   -7.2230 C   0  0  0  0  0  0  0  0  0  0  0  0
   28.1228  -19.2255   -6.9047 C   0  0  0  0  0  0  0  0  0  0  0  0
   28.9427  -20.1163   -7.5571 C   0  0  0  0  0  0  0  0  0  0  0  0
   28.3726  -20.9141   -8.5354 C   0  0  0  0  0  0  0  0  0  0  0  0
   26.5573  -21.5321  -12.3845 C   0  0  0  0  0  0  0  0  0  0  0  0
   26.1897  -22.6875  -12.7133 O   0  0  0  0  0  0  0  0  0  0  0  0
   23.7435  -21.1285  -16.5877 N   0  0  0  0  0  0  0  0  0  0  0  0
   24.5270  -22.3003  -16.7586 C   0  0  0  0  0  0  0  0  0  0  0  0
   24.1743  -23.1492  -17.6222 O   0  0  0  0  0  0  0  0  0  0  0  0
   25.7332  -22.5360  -15.9586 C   0  0  0  0  0  0  0  0  0  0  0  0
   26.0919  -21.3783  -15.1167 C   0  0  0  0  0  0  0  0  0  0  0  0
   27.5264  -21.2138  -14.7062 C   0  0  2  0  0  0  0  0  0  0  0  0
   27.4707  -20.8898  -13.2770 N   0  0  0  0  0  0  0  0  0  0  0  0
   28.3818  -20.3585  -15.4884 C   0  0  0  0  0  0  0  0  0  0  0  0
   29.0061  -20.8589  -16.6499 O   0  0  0  0  0  0  0  0  0  0  0  0
   28.6506  -19.1522  -15.2260 O   0  0  0  0  0  0  0  0  0  0  0  0
  2  1  1  6
  3  2  1  0
  4  3  1  0
  4  5  2  0
  6  5  1  0
  7  6  1  0
  8  7  2  0
  9  8  1  0
 10  9  2  0
 10 11  1  0
 11 12  2  0
 12  7  1  0
 12  4  1  0
 13 14  2  0
 13  2  1  0
 15 13  1  0
 16 15  1  0
 16 17  1  1
 18 19  2  0
 18 17  1  0
 20 19  1  0
 21 20  2  0
 22 21  1  0
 22 23  2  0
 23 18  1  0
 24 25  2  0
 24 16  1  0
 26 27  1  0
 27 28  2  0
 29 27  1  0
 29 30  1  0
 31 30  1  6
 31 32  1  0
 32 24  1  0
 33 31  1  0
 34 33  1  0
 35 33  2  0
M  END
$$$$
