WFQ.pdb
     RDKit          3D

 35 37  0  0  1  0  0  0  0  0999 V2000
   18.9326   -7.6490  -12.6510 N   0  0  0  0  0  0  0  0  0  0  0  0
   17.8560   -6.6708  -12.7114 C   0  0  1  0  0  0  0  0  0  0  0  0
   16.6035   -7.2885  -13.2338 C   0  0  0  0  0  0  0  0  0  0  0  0
   16.7016   -7.8469  -14.5961 C   0  0  0  0  0  0  0  0  0  0  0  0
   16.8268   -9.2130  -14.8598 C   0  0  0  0  0  0  0  0  0  0  0  0
   16.8591   -9.3815  -16.1689 N   0  0  0  0  0  0  0  0  0  0  0  0
   16.7623   -8.1913  -16.8210 C   0  0  0  0  0  0  0  0  0  0  0  0
   16.7589   -7.8774  -18.1595 C   0  0  0  0  0  0  0  0  0  0  0  0
   16.6560   -6.5664  -18.5508 C   0  0  0  0  0  0  0  0  0  0  0  0
   16.5589   -5.5981  -17.5798 C   0  0  0  0  0  0  0  0  0  0  0  0
   16.5631   -5.9231  -16.2427 C   0  0  0  0  0  0  0  0  0  0  0  0
   16.6644   -7.2361  -15.8150 C   0  0  0  0  0  0  0  0  0  0  0  0
   17.6314   -5.9556  -11.4548 C   0  0  0  0  0  0  0  0  0  0  0  0
   17.5137   -6.5445  -10.3318 O   0  0  0  0  0  0  0  0  0  0  0  0
   17.5483   -4.5244  -11.5119 N   0  0  0  0  0  0  0  0  0  0  0  0
   17.3018   -3.7602  -10.3038 C   0  0  1  0  0  0  0  0  0  0  0  0
   17.7576   -2.3239  -10.5089 C   0  0  0  0  0  0  0  0  0  0  0  0
   17.4597   -1.4596   -9.3561 C   0  0  0  0  0  0  0  0  0  0  0  0
   18.2984   -1.4759   -8.2695 C   0  0  0  0  0  0  0  0  0  0  0  0
   18.0359   -0.6740   -7.1781 C   0  0  0  0  0  0  0  0  0  0  0  0
   16.9292    0.1503   -7.1697 C   0  0  0  0  0  0  0  0  0  0  0  0
   16.0731    0.1854   -8.2455 C   0  0  0  0  0  0  0  0  0  0  0  0
   16.3659   -0.6322   -9.3247 C   0  0  0  0  0  0  0  0  0  0  0  0
   15.8858   -3.8566   -9.9597 C   0  0  0  0  0  0  0  0  0  0  0  0
   15.0077   -3.7013  -10.8445 O   0  0  0  0  0  0  0  0  0  0  0  0
   13.5274   -8.5161   -7.8741 N   0  0  0  0  0  0  0  0  0  0  0  0
   12.4314   -7.6960   -7.4969 C   0  0  0  0  0  0  0  0  0  0  0  0
   11.4046   -8.2388   -7.0048 O   0  0  0  0  0  0  0  0  0  0  0  0
   12.4744   -6.2397   -7.6627 C   0  0  0  0  0  0  0  0  0  0  0  0
   13.8075   -5.7531   -8.0675 C   0  0  0  0  0  0  0  0  0  0  0  0
   13.9754   -4.2881   -8.3489 C   0  0  2  0  0  0  0  0  0  0  0  0
   15.4033   -4.1256   -8.6413 N   0  0  0  0  0  0  0  0  0  0  0  0
   13.4355   -3.3325   -7.4159 C   0  0  0  0  0  0  0  0  0  0  0  0
   12.1834   -2.7336   -7.6665 O   0  0  0  0  0  0  0  0  0  0  0  0
   13.9965   -2.9506   -6.3502 O   0  0  0  0  0  0  0  0  0  0  0  0
  2  1  1  1
  3  2  1  0
  4  3  1  0
  4  5  2  0
  6  5  1  0
  7  6  1  0
  8  7  2  0
  9  8  1  0
 10  9  2  0
 10 11  1  0
 11 12  2  0
 12  7  1  0
 12  4  1  0
 13 14  2  0
 13  2  1  0
 15 13  1  0
 16 15  1  0
 16 17  1  6
 18 19  2  0
 18 17  1  0
 20 19  1  0
 21 20  2  0
 22 21  1  0
 22 23  2  0
 23 18  1  0
 24 25  2  0
 24 16  1  0
 26 27  1  0
 27 28  2  0
 29 27  1  0
 29 30  1  0
 31 30  1  1
 31 32  1  0
 32 24  1  0
 33 31  1  0
 34 33  1  0
 35 33  2  0
M  END
$$$$
