WFQ.pdb
     RDKit          3D

 35 37  0  0  1  0  0  0  0  0999 V2000
   25.9093  -22.0167  -12.8904 N   0  0  0  0  0  0  0  0  0  0  0  0
   26.1551  -20.8649  -12.0344 C   0  0  1  0  0  0  0  0  0  0  0  0
   25.1938  -19.7648  -12.3324 C   0  0  0  0  0  0  0  0  0  0  0  0
   25.2628  -19.2276  -13.7050 C   0  0  0  0  0  0  0  0  0  0  0  0
   24.1357  -18.9951  -14.4970 C   0  0  0  0  0  0  0  0  0  0  0  0
   24.5355  -18.4886  -15.6489 N   0  0  0  0  0  0  0  0  0  0  0  0
   25.8896  -18.3617  -15.6873 C   0  0  0  0  0  0  0  0  0  0  0  0
   26.7391  -17.8976  -16.6636 C   0  0  0  0  0  0  0  0  0  0  0  0
   28.0926  -17.8874  -16.4393 C   0  0  0  0  0  0  0  0  0  0  0  0
   28.5605  -18.3475  -15.2314 C   0  0  0  0  0  0  0  0  0  0  0  0
   27.7016  -18.8098  -14.2607 C   0  0  0  0  0  0  0  0  0  0  0  0
   26.3308  -18.8322  -14.4553 C   0  0  0  0  0  0  0  0  0  0  0  0
   26.1980  -21.1835  -10.6069 C   0  0  0  0  0  0  0  0  0  0  0  0
   25.6200  -22.2010  -10.1046 O   0  0  0  0  0  0  0  0  0  0  0  0
   26.9352  -20.2983   -9.7516 N   0  0  0  0  0  0  0  0  0  0  0  0
   27.0861  -20.6053   -8.3420 C   0  0  1  0  0  0  0  0  0  0  0  0
   28.1600  -19.7127   -7.7393 C   0  0  0  0  0  0  0  0  0  0  0  0
   28.3471  -19.9376   -6.2975 C   0  0  0  0  0  0  0  0  0  0  0  0
   27.8770  -19.0059   -5.4055 C   0  0  0  0  0  0  0  0  0  0  0  0
   28.0437  -19.1974   -4.0496 C   0  0  0  0  0  0  0  0  0  0  0  0
   28.6836  -20.3259   -3.5791 C   0  0  0  0  0  0  0  0  0  0  0  0
   29.1639  -21.2744   -4.4515 C   0  0  0  0  0  0  0  0  0  0  0  0
   28.9799  -21.0511   -5.8061 C   0  0  0  0  0  0  0  0  0  0  0  0
   25.7932  -20.4538   -7.6802 C   0  0  0  0  0  0  0  0  0  0  0  0
   25.1089  -19.4155   -7.8585 O   0  0  0  0  0  0  0  0  0  0  0  0
   20.9602  -23.6539   -7.6037 N   0  0  0  0  0  0  0  0  0  0  0  0
   20.9894  -22.2967   -8.0202 C   0  0  0  0  0  0  0  0  0  0  0  0
   20.1360  -21.8978   -8.8591 O   0  0  0  0  0  0  0  0  0  0  0  0
   21.9830  -21.3566   -7.4917 C   0  0  0  0  0  0  0  0  0  0  0  0
   22.9537  -22.0043   -6.5883 C   0  0  0  0  0  0  0  0  0  0  0  0
   24.0409  -21.1605   -5.9888 C   0  0  2  0  0  0  0  0  0  0  0  0
   25.2233  -21.4357   -6.8115 N   0  0  0  0  0  0  0  0  0  0  0  0
   24.2652  -21.2190   -4.5670 C   0  0  0  0  0  0  0  0  0  0  0  0
   23.4072  -20.5240   -3.6895 O   0  0  0  0  0  0  0  0  0  0  0  0
   25.1991  -21.8513   -3.9973 O   0  0  0  0  0  0  0  0  0  0  0  0
  2  1  1  6
  3  2  1  0
  4  3  1  0
  4  5  2  0
  6  5  1  0
  7  6  1  0
  8  7  2  0
  9  8  1  0
 10  9  2  0
 10 11  1  0
 11 12  2  0
 12  7  1  0
 12  4  1  0
 13 14  2  0
 13  2  1  0
 15 13  1  0
 16 15  1  0
 16 17  1  1
 18 19  2  0
 18 17  1  0
 20 19  1  0
 21 20  2  0
 22 21  1  0
 22 23  2  0
 23 18  1  0
 24 25  2  0
 24 16  1  0
 26 27  1  0
 27 28  2  0
 29 27  1  0
 29 30  1  0
 31 30  1  6
 31 32  1  0
 32 24  1  0
 33 31  1  0
 34 33  1  0
 35 33  2  0
M  END
$$$$
