WFQ.pdb
     RDKit          3D

 35 37  0  0  1  0  0  0  0  0999 V2000
   26.7393  -20.8474  -15.4670 N   0  0  0  0  0  0  0  0  0  0  0  0
   25.6910  -20.2906  -14.6239 C   0  0  1  0  0  0  0  0  0  0  0  0
   26.2555  -19.3192  -13.6436 C   0  0  0  0  0  0  0  0  0  0  0  0
   27.0073  -19.9224  -12.5264 C   0  0  0  0  0  0  0  0  0  0  0  0
   28.4021  -19.9908  -12.4866 C   0  0  0  0  0  0  0  0  0  0  0  0
   28.7574  -20.5568  -11.3480 N   0  0  0  0  0  0  0  0  0  0  0  0
   27.6688  -20.8830  -10.5997 C   0  0  0  0  0  0  0  0  0  0  0  0
   27.5495  -21.4846   -9.3692 C   0  0  0  0  0  0  0  0  0  0  0  0
   26.3041  -21.7082   -8.8389 C   0  0  0  0  0  0  0  0  0  0  0  0
   25.2032  -21.3190   -9.5643 C   0  0  0  0  0  0  0  0  0  0  0  0
   25.3336  -20.7175  -10.7950 C   0  0  0  0  0  0  0  0  0  0  0  0
   26.5757  -20.4767  -11.3574 C   0  0  0  0  0  0  0  0  0  0  0  0
   24.5659  -19.7255  -15.3694 C   0  0  0  0  0  0  0  0  0  0  0  0
   24.6543  -18.6564  -16.0558 O   0  0  0  0  0  0  0  0  0  0  0  0
   23.3154  -20.4268  -15.3155 N   0  0  0  0  0  0  0  0  0  0  0  0
   22.1984  -19.9879  -16.1303 C   0  0  1  0  0  0  0  0  0  0  0  0
   22.1965  -20.7527  -17.4449 C   0  0  0  0  0  0  0  0  0  0  0  0
   23.0840  -20.1554  -18.4549 C   0  0  0  0  0  0  0  0  0  0  0  0
   22.6098  -19.1429  -19.2515 C   0  0  0  0  0  0  0  0  0  0  0  0
   23.4255  -18.5704  -20.2054 C   0  0  0  0  0  0  0  0  0  0  0  0
   24.7235  -19.0103  -20.3665 C   0  0  0  0  0  0  0  0  0  0  0  0
   25.2230  -20.0231  -19.5815 C   0  0  0  0  0  0  0  0  0  0  0  0
   24.3775  -20.5758  -18.6337 C   0  0  0  0  0  0  0  0  0  0  0  0
   20.9603  -20.1639  -15.3762 C   0  0  0  0  0  0  0  0  0  0  0  0
   20.7957  -21.1819  -14.6588 O   0  0  0  0  0  0  0  0  0  0  0  0
   15.9714  -16.1486  -14.5285 N   0  0  0  0  0  0  0  0  0  0  0  0
   16.9982  -16.1125  -13.5484 C   0  0  0  0  0  0  0  0  0  0  0  0
   16.9840  -15.1940  -12.6839 O   0  0  0  0  0  0  0  0  0  0  0  0
   18.0633  -17.1200  -13.5204 C   0  0  0  0  0  0  0  0  0  0  0  0
   17.9743  -18.0722  -14.6444 C   0  0  0  0  0  0  0  0  0  0  0  0
   18.7024  -19.3798  -14.5289 C   0  0  2  0  0  0  0  0  0  0  0  0
   19.8788  -19.2293  -15.3916 N   0  0  0  0  0  0  0  0  0  0  0  0
   17.9684  -20.6054  -14.7139 C   0  0  0  0  0  0  0  0  0  0  0  0
   17.5256  -21.3372  -13.5924 O   0  0  0  0  0  0  0  0  0  0  0  0
   17.6726  -21.1221  -15.8283 O   0  0  0  0  0  0  0  0  0  0  0  0
  2  1  1  6
  3  2  1  0
  4  3  1  0
  4  5  2  0
  6  5  1  0
  7  6  1  0
  8  7  2  0
  9  8  1  0
 10  9  2  0
 10 11  1  0
 11 12  2  0
 12  7  1  0
 12  4  1  0
 13 14  2  0
 13  2  1  0
 15 13  1  0
 16 15  1  0
 16 17  1  6
 18 19  2  0
 18 17  1  0
 20 19  1  0
 21 20  2  0
 22 21  1  0
 22 23  2  0
 23 18  1  0
 24 25  2  0
 24 16  1  0
 26 27  1  0
 27 28  2  0
 29 27  1  0
 29 30  1  0
 31 30  1  6
 31 32  1  0
 32 24  1  0
 33 31  1  0
 34 33  1  0
 35 33  2  0
M  END
$$$$
