WFQ.pdb
     RDKit          3D

 35 37  0  0  1  0  0  0  0  0999 V2000
   20.1311  -11.3535  -16.8222 N   0  0  0  0  0  0  0  0  0  0  0  0
   19.9886   -9.9057  -16.8800 C   0  0  1  0  0  0  0  0  0  0  0  0
   19.0555   -9.5053  -17.9718 C   0  0  0  0  0  0  0  0  0  0  0  0
   19.5139   -9.8274  -19.3369 C   0  0  0  0  0  0  0  0  0  0  0  0
   19.6230  -11.1324  -19.8234 C   0  0  0  0  0  0  0  0  0  0  0  0
   20.0281  -11.0747  -21.0787 N   0  0  0  0  0  0  0  0  0  0  0  0
   20.2043   -9.7867  -21.4803 C   0  0  0  0  0  0  0  0  0  0  0  0
   20.6151   -9.2480  -22.6766 C   0  0  0  0  0  0  0  0  0  0  0  0
   20.7164   -7.8863  -22.8106 C   0  0  0  0  0  0  0  0  0  0  0  0
   20.4005   -7.0959  -21.7312 C   0  0  0  0  0  0  0  0  0  0  0  0
   19.9902   -7.6453  -20.5381 C   0  0  0  0  0  0  0  0  0  0  0  0
   19.8764   -9.0151  -20.3707 C   0  0  0  0  0  0  0  0  0  0  0  0
   19.6307   -9.2921  -15.6008 C   0  0  0  0  0  0  0  0  0  0  0  0
   18.6754   -9.7133  -14.8715 O   0  0  0  0  0  0  0  0  0  0  0  0
   20.4079   -8.1681  -15.1638 N   0  0  0  0  0  0  0  0  0  0  0  0
   20.0504   -7.4642  -13.9469 C   0  0  1  0  0  0  0  0  0  0  0  0
   21.2988   -6.8577  -13.3249 C   0  0  0  0  0  0  0  0  0  0  0  0
   21.0038   -6.0207  -12.1515 C   0  0  0  0  0  0  0  0  0  0  0  0
   21.0079   -4.6542  -12.2826 C   0  0  0  0  0  0  0  0  0  0  0  0
   20.7351   -3.8518  -11.1942 C   0  0  0  0  0  0  0  0  0  0  0  0
   20.4562   -4.4155   -9.9659 C   0  0  0  0  0  0  0  0  0  0  0  0
   20.4457   -5.7816   -9.8077 C   0  0  0  0  0  0  0  0  0  0  0  0
   20.7238   -6.5579  -10.9207 C   0  0  0  0  0  0  0  0  0  0  0  0
   19.0339   -6.4626  -14.2569 C   0  0  0  0  0  0  0  0  0  0  0  0
   19.1369   -5.7552  -15.2899 O   0  0  0  0  0  0  0  0  0  0  0  0
   13.1563   -7.1514  -13.2012 N   0  0  0  0  0  0  0  0  0  0  0  0
   13.1225   -5.7674  -13.5170 C   0  0  0  0  0  0  0  0  0  0  0  0
   12.0046   -5.1921  -13.6179 O   0  0  0  0  0  0  0  0  0  0  0  0
   14.3554   -5.0000  -13.7204 C   0  0  0  0  0  0  0  0  0  0  0  0
   15.5705   -5.8084  -13.5016 C   0  0  0  0  0  0  0  0  0  0  0  0
   16.9048   -5.1745  -13.7683 C   0  0  2  0  0  0  0  0  0  0  0  0
   17.8845   -6.2164  -13.4435 N   0  0  0  0  0  0  0  0  0  0  0  0
   17.1873   -3.8800  -13.2032 C   0  0  0  0  0  0  0  0  0  0  0  0
   17.3699   -2.7666  -14.0495 O   0  0  0  0  0  0  0  0  0  0  0  0
   17.3021   -3.6270  -11.9706 O   0  0  0  0  0  0  0  0  0  0  0  0
  2  1  1  1
  3  2  1  0
  4  3  1  0
  4  5  2  0
  6  5  1  0
  7  6  1  0
  8  7  2  0
  9  8  1  0
 10  9  2  0
 10 11  1  0
 11 12  2  0
 12  7  1  0
 12  4  1  0
 13 14  2  0
 13  2  1  0
 15 13  1  0
 16 15  1  0
 16 17  1  6
 18 19  2  0
 18 17  1  0
 20 19  1  0
 21 20  2  0
 22 21  1  0
 22 23  2  0
 23 18  1  0
 24 25  2  0
 24 16  1  0
 26 27  1  0
 27 28  2  0
 29 27  1  0
 29 30  1  0
 31 30  1  1
 31 32  1  0
 32 24  1  0
 33 31  1  0
 34 33  1  0
 35 33  2  0
M  END
$$$$
