WFQ.pdb
     RDKit          3D

 35 37  0  0  1  0  0  0  0  0999 V2000
   26.7753  -21.2914  -13.6207 N   0  0  0  0  0  0  0  0  0  0  0  0
   25.8881  -20.7074  -12.6250 C   0  0  1  0  0  0  0  0  0  0  0  0
   24.4599  -20.9634  -12.9684 C   0  0  0  0  0  0  0  0  0  0  0  0
   24.0109  -20.3866  -14.2502 C   0  0  0  0  0  0  0  0  0  0  0  0
   24.3449  -20.9259  -15.4948 C   0  0  0  0  0  0  0  0  0  0  0  0
   23.7648  -20.1982  -16.4314 N   0  0  0  0  0  0  0  0  0  0  0  0
   23.0452  -19.1794  -15.8879 C   0  0  0  0  0  0  0  0  0  0  0  0
   22.2931  -18.1813  -16.4609 C   0  0  0  0  0  0  0  0  0  0  0  0
   21.6662  -17.2581  -15.6628 C   0  0  0  0  0  0  0  0  0  0  0  0
   21.8126  -17.3626  -14.3000 C   0  0  0  0  0  0  0  0  0  0  0  0
   22.5676  -18.3657  -13.7365 C   0  0  0  0  0  0  0  0  0  0  0  0
   23.2119  -19.3132  -14.5138 C   0  0  0  0  0  0  0  0  0  0  0  0
   26.1994  -21.0976  -11.2496 C   0  0  0  0  0  0  0  0  0  0  0  0
   26.1371  -22.3011  -10.8379 O   0  0  0  0  0  0  0  0  0  0  0  0
   26.5962  -20.0615  -10.3398 N   0  0  0  0  0  0  0  0  0  0  0  0
   26.8214  -20.3682   -8.9400 C   0  0  1  0  0  0  0  0  0  0  0  0
   27.9861  -19.5403   -8.4192 C   0  0  0  0  0  0  0  0  0  0  0  0
   28.1452  -19.6325   -6.9595 C   0  0  0  0  0  0  0  0  0  0  0  0
   27.6148  -18.6489   -6.1623 C   0  0  0  0  0  0  0  0  0  0  0  0
   27.7542  -18.7162   -4.7915 C   0  0  0  0  0  0  0  0  0  0  0  0
   28.4274  -19.7717   -4.2110 C   0  0  0  0  0  0  0  0  0  0  0  0
   28.9683  -20.7700   -4.9871 C   0  0  0  0  0  0  0  0  0  0  0  0
   28.8101  -20.6717   -6.3597 C   0  0  0  0  0  0  0  0  0  0  0  0
   25.5872  -20.1320   -8.1959 C   0  0  0  0  0  0  0  0  0  0  0  0
   24.8546  -19.1520   -8.4803 O   0  0  0  0  0  0  0  0  0  0  0  0
   21.6945  -21.4491  -10.4693 N   0  0  0  0  0  0  0  0  0  0  0  0
   20.8938  -21.3859   -9.2984 C   0  0  0  0  0  0  0  0  0  0  0  0
   19.6401  -21.4675   -9.4117 O   0  0  0  0  0  0  0  0  0  0  0  0
   21.4946  -21.2344   -7.9693 C   0  0  0  0  0  0  0  0  0  0  0  0
   22.9601  -21.0697   -8.0237 C   0  0  0  0  0  0  0  0  0  0  0  0
   23.7197  -21.0228   -6.7298 C   0  0  2  0  0  0  0  0  0  0  0  0
   25.1302  -20.9639   -7.1271 N   0  0  0  0  0  0  0  0  0  0  0  0
   23.4181  -21.9929   -5.7086 C   0  0  0  0  0  0  0  0  0  0  0  0
   22.4559  -21.6989   -4.7201 O   0  0  0  0  0  0  0  0  0  0  0  0
   23.9565  -23.1304   -5.5955 O   0  0  0  0  0  0  0  0  0  0  0  0
  2  1  1  6
  3  2  1  0
  4  3  1  0
  4  5  2  0
  6  5  1  0
  7  6  1  0
  8  7  2  0
  9  8  1  0
 10  9  2  0
 10 11  1  0
 11 12  2  0
 12  7  1  0
 12  4  1  0
 13 14  2  0
 13  2  1  0
 15 13  1  0
 16 15  1  0
 16 17  1  1
 18 19  2  0
 18 17  1  0
 20 19  1  0
 21 20  2  0
 22 21  1  0
 22 23  2  0
 23 18  1  0
 24 25  2  0
 24 16  1  0
 26 27  1  0
 27 28  2  0
 29 27  1  0
 29 30  1  0
 31 30  1  6
 31 32  1  0
 32 24  1  0
 33 31  1  0
 34 33  1  0
 35 33  2  0
M  END
$$$$
