WFQ.pdb
     RDKit          3D

 35 37  0  0  1  0  0  0  0  0999 V2000
   28.7278  -20.6467  -14.5403 N   0  0  0  0  0  0  0  0  0  0  0  0
   27.5610  -20.0026  -13.9541 C   0  0  1  0  0  0  0  0  0  0  0  0
   26.6561  -19.4728  -15.0140 C   0  0  0  0  0  0  0  0  0  0  0  0
   27.2267  -18.3934  -15.8427 C   0  0  0  0  0  0  0  0  0  0  0  0
   27.6931  -18.5888  -17.1450 C   0  0  0  0  0  0  0  0  0  0  0  0
   28.1082  -17.4271  -17.6155 N   0  0  0  0  0  0  0  0  0  0  0  0
   27.9496  -16.4380  -16.6948 C   0  0  0  0  0  0  0  0  0  0  0  0
   28.2409  -15.0949  -16.7334 C   0  0  0  0  0  0  0  0  0  0  0  0
   27.9820  -14.3107  -15.6378 C   0  0  0  0  0  0  0  0  0  0  0  0
   27.4337  -14.9009  -14.5239 C   0  0  0  0  0  0  0  0  0  0  0  0
   27.1458  -16.2462  -14.4957 C   0  0  0  0  0  0  0  0  0  0  0  0
   27.3938  -17.0646  -15.5847 C   0  0  0  0  0  0  0  0  0  0  0  0
   26.8445  -20.8358  -12.9880 C   0  0  0  0  0  0  0  0  0  0  0  0
   26.7290  -22.0982  -13.1104 O   0  0  0  0  0  0  0  0  0  0  0  0
   26.2566  -20.1811  -11.8548 N   0  0  0  0  0  0  0  0  0  0  0  0
   25.2355  -20.8534  -11.0739 C   0  0  1  0  0  0  0  0  0  0  0  0
   25.2185  -20.2857   -9.6631 C   0  0  0  0  0  0  0  0  0  0  0  0
   26.4909  -20.4844   -8.9517 C   0  0  0  0  0  0  0  0  0  0  0  0
   26.8722  -19.5804   -7.9915 C   0  0  0  0  0  0  0  0  0  0  0  0
   28.0621  -19.7481   -7.3140 C   0  0  0  0  0  0  0  0  0  0  0  0
   28.8781  -20.8247   -7.5956 C   0  0  0  0  0  0  0  0  0  0  0  0
   28.5194  -21.7447   -8.5530 C   0  0  0  0  0  0  0  0  0  0  0  0
   27.3185  -21.5465   -9.2143 C   0  0  0  0  0  0  0  0  0  0  0  0
   23.9492  -20.7141  -11.7510 C   0  0  0  0  0  0  0  0  0  0  0  0
   23.6401  -19.6301  -12.3056 O   0  0  0  0  0  0  0  0  0  0  0  0
   21.1870  -25.4691  -14.3501 N   0  0  0  0  0  0  0  0  0  0  0  0
   20.1355  -24.5270  -14.5011 C   0  0  0  0  0  0  0  0  0  0  0  0
   19.0765  -24.8836  -15.0864 O   0  0  0  0  0  0  0  0  0  0  0  0
   20.2559  -23.1589  -13.9872 C   0  0  0  0  0  0  0  0  0  0  0  0
   21.5111  -22.9400  -13.2427 C   0  0  0  0  0  0  0  0  0  0  0  0
   21.7285  -21.6057  -12.5903 C   0  0  2  0  0  0  0  0  0  0  0  0
   22.9765  -21.7582  -11.8355 N   0  0  0  0  0  0  0  0  0  0  0  0
   20.6455  -21.0043  -11.8550 C   0  0  0  0  0  0  0  0  0  0  0  0
   20.5604  -21.1787  -10.4580 O   0  0  0  0  0  0  0  0  0  0  0  0
   19.7154  -20.3107  -12.3553 O   0  0  0  0  0  0  0  0  0  0  0  0
  2  1  1  6
  3  2  1  0
  4  3  1  0
  4  5  2  0
  6  5  1  0
  7  6  1  0
  8  7  2  0
  9  8  1  0
 10  9  2  0
 10 11  1  0
 11 12  2  0
 12  7  1  0
 12  4  1  0
 13 14  2  0
 13  2  1  0
 15 13  1  0
 16 15  1  0
 16 17  1  1
 18 19  2  0
 18 17  1  0
 20 19  1  0
 21 20  2  0
 22 21  1  0
 22 23  2  0
 23 18  1  0
 24 25  2  0
 24 16  1  0
 26 27  1  0
 27 28  2  0
 29 27  1  0
 29 30  1  0
 31 30  1  1
 31 32  1  0
 32 24  1  0
 33 31  1  0
 34 33  1  0
 35 33  2  0
M  END
$$$$
