WFQ.pdb
     RDKit          3D

 35 37  0  0  1  0  0  0  0  0999 V2000
   25.1367  -12.8832  -19.7169 N   0  0  0  0  0  0  0  0  0  0  0  0
   24.1796  -11.7962  -19.5686 C   0  0  1  0  0  0  0  0  0  0  0  0
   22.9080  -12.1045  -20.2836 C   0  0  0  0  0  0  0  0  0  0  0  0
   23.0479  -12.3513  -21.7317 C   0  0  0  0  0  0  0  0  0  0  0  0
   23.0151  -11.3364  -22.6911 C   0  0  0  0  0  0  0  0  0  0  0  0
   23.1975  -11.8828  -23.8792 N   0  0  0  0  0  0  0  0  0  0  0  0
   23.3541  -13.2309  -23.7822 C   0  0  0  0  0  0  0  0  0  0  0  0
   23.5591  -14.2004  -24.7352 C   0  0  0  0  0  0  0  0  0  0  0  0
   23.6759  -15.5136  -24.3558 C   0  0  0  0  0  0  0  0  0  0  0  0
   23.5827  -15.8206  -23.0191 C   0  0  0  0  0  0  0  0  0  0  0  0
   23.3775  -14.8425  -22.0731 C   0  0  0  0  0  0  0  0  0  0  0  0
   23.2565  -13.5083  -22.4230 C   0  0  0  0  0  0  0  0  0  0  0  0
   23.9447  -11.3961  -18.1809 C   0  0  0  0  0  0  0  0  0  0  0  0
   23.6881  -12.2285  -17.2519 O   0  0  0  0  0  0  0  0  0  0  0  0
   24.0165   -9.9966  -17.8728 N   0  0  0  0  0  0  0  0  0  0  0  0
   23.9399   -9.5492  -16.4950 C   0  0  1  0  0  0  0  0  0  0  0  0
   25.2784   -8.9606  -16.0765 C   0  0  0  0  0  0  0  0  0  0  0  0
   26.3555   -9.9620  -16.0361 C   0  0  0  0  0  0  0  0  0  0  0  0
   27.3558   -9.9111  -16.9749 C   0  0  0  0  0  0  0  0  0  0  0  0
   28.3741  -10.8415  -16.9550 C   0  0  0  0  0  0  0  0  0  0  0  0
   28.3956  -11.8300  -15.9923 C   0  0  0  0  0  0  0  0  0  0  0  0
   27.4056  -11.9032  -15.0405 C   0  0  0  0  0  0  0  0  0  0  0  0
   26.3982  -10.9536  -15.0891 C   0  0  0  0  0  0  0  0  0  0  0  0
   22.8414   -8.5959  -16.3640 C   0  0  0  0  0  0  0  0  0  0  0  0
   22.6913   -7.6828  -17.2136 O   0  0  0  0  0  0  0  0  0  0  0  0
   17.5154   -9.1898  -13.0245 N   0  0  0  0  0  0  0  0  0  0  0  0
   17.7946   -9.7321  -14.3067 C   0  0  0  0  0  0  0  0  0  0  0  0
   17.0476  -10.6418  -14.7600 O   0  0  0  0  0  0  0  0  0  0  0  0
   18.9241   -9.2524  -15.1096 C   0  0  0  0  0  0  0  0  0  0  0  0
   19.7481   -8.2588  -14.3943 C   0  0  0  0  0  0  0  0  0  0  0  0
   20.8615   -7.5858  -15.1432 C   0  0  2  0  0  0  0  0  0  0  0  0
   21.8854   -8.6238  -15.3017 N   0  0  0  0  0  0  0  0  0  0  0  0
   21.3532   -6.3172  -14.6700 C   0  0  0  0  0  0  0  0  0  0  0  0
   20.8556   -5.1186  -15.2222 O   0  0  0  0  0  0  0  0  0  0  0  0
   22.2310   -6.1584  -13.7752 O   0  0  0  0  0  0  0  0  0  0  0  0
  2  1  1  1
  3  2  1  0
  4  3  1  0
  4  5  2  0
  6  5  1  0
  7  6  1  0
  8  7  2  0
  9  8  1  0
 10  9  2  0
 10 11  1  0
 11 12  2  0
 12  7  1  0
 12  4  1  0
 13 14  2  0
 13  2  1  0
 15 13  1  0
 16 15  1  0
 16 17  1  6
 18 19  2  0
 18 17  1  0
 20 19  1  0
 21 20  2  0
 22 21  1  0
 22 23  2  0
 23 18  1  0
 24 25  2  0
 24 16  1  0
 26 27  1  0
 27 28  2  0
 29 27  1  0
 29 30  1  0
 31 30  1  1
 31 32  1  0
 32 24  1  0
 33 31  1  0
 34 33  1  0
 35 33  2  0
M  END
$$$$
