WFQ.pdb
     RDKit          3D

 35 37  0  0  1  0  0  0  0  0999 V2000
   27.4002  -21.2152  -13.6820 N   0  0  0  0  0  0  0  0  0  0  0  0
   27.0099  -20.3478  -12.5797 C   0  0  1  0  0  0  0  0  0  0  0  0
   25.6890  -19.7094  -12.8460 C   0  0  0  0  0  0  0  0  0  0  0  0
   25.6985  -18.6596  -13.8829 C   0  0  0  0  0  0  0  0  0  0  0  0
   26.7528  -17.7595  -14.0559 C   0  0  0  0  0  0  0  0  0  0  0  0
   26.4658  -16.9761  -15.0792 N   0  0  0  0  0  0  0  0  0  0  0  0
   25.2588  -17.2954  -15.6201 C   0  0  0  0  0  0  0  0  0  0  0  0
   24.5569  -16.7605  -16.6743 C   0  0  0  0  0  0  0  0  0  0  0  0
   23.3314  -17.2788  -17.0087 C   0  0  0  0  0  0  0  0  0  0  0  0
   22.8396  -18.3283  -16.2696 C   0  0  0  0  0  0  0  0  0  0  0  0
   23.5504  -18.8565  -15.2163 C   0  0  0  0  0  0  0  0  0  0  0  0
   24.7900  -18.3571  -14.8541 C   0  0  0  0  0  0  0  0  0  0  0  0
   27.0504  -20.9971  -11.2691 C   0  0  0  0  0  0  0  0  0  0  0  0
   26.5099  -22.1265  -11.0365 O   0  0  0  0  0  0  0  0  0  0  0  0
   27.7405  -20.3152  -10.2121 N   0  0  0  0  0  0  0  0  0  0  0  0
   27.4576  -20.6426   -8.8275 C   0  0  1  0  0  0  0  0  0  0  0  0
   28.3489  -19.8127   -7.9165 C   0  0  0  0  0  0  0  0  0  0  0  0
   28.0773  -20.0409   -6.4887 C   0  0  0  0  0  0  0  0  0  0  0  0
   28.1169  -21.3206   -5.9934 C   0  0  0  0  0  0  0  0  0  0  0  0
   27.8640  -21.5559   -4.6578 C   0  0  0  0  0  0  0  0  0  0  0  0
   27.5694  -20.5079   -3.8097 C   0  0  0  0  0  0  0  0  0  0  0  0
   27.5233  -19.2166   -4.2806 C   0  0  0  0  0  0  0  0  0  0  0  0
   27.7822  -19.0156   -5.6265 C   0  0  0  0  0  0  0  0  0  0  0  0
   26.0362  -20.4299   -8.5684 C   0  0  0  0  0  0  0  0  0  0  0  0
   25.4922  -19.3412   -8.8800 O   0  0  0  0  0  0  0  0  0  0  0  0
   22.1428  -20.8940  -11.6838 N   0  0  0  0  0  0  0  0  0  0  0  0
   21.2229  -20.9124  -10.6022 C   0  0  0  0  0  0  0  0  0  0  0  0
   19.9870  -20.8779  -10.8521 O   0  0  0  0  0  0  0  0  0  0  0  0
   21.6811  -20.9762   -9.2107 C   0  0  0  0  0  0  0  0  0  0  0  0
   23.1479  -21.0963   -9.1005 C   0  0  0  0  0  0  0  0  0  0  0  0
   23.7561  -21.1565   -7.7294 C   0  0  2  0  0  0  0  0  0  0  0  0
   25.1823  -21.4043   -7.9646 N   0  0  0  0  0  0  0  0  0  0  0  0
   23.1501  -22.0035   -6.7343 C   0  0  0  0  0  0  0  0  0  0  0  0
   22.0834  -21.5169   -5.9503 O   0  0  0  0  0  0  0  0  0  0  0  0
   23.4957  -23.1902   -6.4723 O   0  0  0  0  0  0  0  0  0  0  0  0
  2  1  1  6
  3  2  1  0
  4  3  1  0
  4  5  2  0
  6  5  1  0
  7  6  1  0
  8  7  2  0
  9  8  1  0
 10  9  2  0
 10 11  1  0
 11 12  2  0
 12  7  1  0
 12  4  1  0
 13 14  2  0
 13  2  1  0
 15 13  1  0
 16 15  1  0
 16 17  1  1
 18 19  2  0
 18 17  1  0
 20 19  1  0
 21 20  2  0
 22 21  1  0
 22 23  2  0
 23 18  1  0
 24 25  2  0
 24 16  1  0
 26 27  1  0
 27 28  2  0
 29 27  1  0
 29 30  1  0
 31 30  1  6
 31 32  1  0
 32 24  1  0
 33 31  1  0
 34 33  1  0
 35 33  2  0
M  END
$$$$
