WFQ.pdb
     RDKit          3D

 35 37  0  0  1  0  0  0  0  0999 V2000
   27.0099  -20.7726  -18.5891 N   0  0  0  0  0  0  0  0  0  0  0  0
   26.5773  -19.8921  -17.5133 C   0  0  1  0  0  0  0  0  0  0  0  0
   25.5717  -18.9063  -18.0034 C   0  0  0  0  0  0  0  0  0  0  0  0
   26.1084  -17.8473  -18.8797 C   0  0  0  0  0  0  0  0  0  0  0  0
   25.5313  -17.4955  -20.1024 C   0  0  0  0  0  0  0  0  0  0  0  0
   26.2292  -16.5013  -20.6196 N   0  0  0  0  0  0  0  0  0  0  0  0
   27.2636  -16.1513  -19.8078 C   0  0  0  0  0  0  0  0  0  0  0  0
   28.2428  -15.1944  -19.9322 C   0  0  0  0  0  0  0  0  0  0  0  0
   29.1894  -15.0576  -18.9486 C   0  0  0  0  0  0  0  0  0  0  0  0
   29.1271  -15.8921  -17.8581 C   0  0  0  0  0  0  0  0  0  0  0  0
   28.1427  -16.8467  -17.7432 C   0  0  0  0  0  0  0  0  0  0  0  0
   27.1723  -17.0096  -18.7174 C   0  0  0  0  0  0  0  0  0  0  0  0
   26.1157  -20.5972  -16.3172 C   0  0  0  0  0  0  0  0  0  0  0  0
   25.6273  -21.7729  -16.3491 O   0  0  0  0  0  0  0  0  0  0  0  0
   26.2323  -19.9166  -15.0596 N   0  0  0  0  0  0  0  0  0  0  0  0
   25.7525  -20.5457  -13.8437 C   0  0  1  0  0  0  0  0  0  0  0  0
   26.3697  -19.8560  -12.6368 C   0  0  0  0  0  0  0  0  0  0  0  0
   25.9115  -20.4224  -11.3586 C   0  0  0  0  0  0  0  0  0  0  0  0
   24.8935  -19.8040  -10.6761 C   0  0  0  0  0  0  0  0  0  0  0  0
   24.4503  -20.3185   -9.4753 C   0  0  0  0  0  0  0  0  0  0  0  0
   25.0259  -21.4578   -8.9509 C   0  0  0  0  0  0  0  0  0  0  0  0
   26.0472  -22.0964   -9.6147 C   0  0  0  0  0  0  0  0  0  0  0  0
   26.4681  -21.5535  -10.8175 C   0  0  0  0  0  0  0  0  0  0  0  0
   24.2928  -20.5033  -13.8293 C   0  0  0  0  0  0  0  0  0  0  0  0
   23.6865  -19.4615  -14.1831 O   0  0  0  0  0  0  0  0  0  0  0  0
   20.3291  -22.9364  -16.3150 N   0  0  0  0  0  0  0  0  0  0  0  0
   19.4871  -23.0428  -15.1766 C   0  0  0  0  0  0  0  0  0  0  0  0
   18.2413  -23.1427  -15.3467 O   0  0  0  0  0  0  0  0  0  0  0  0
   20.0371  -23.0447  -13.8172 C   0  0  0  0  0  0  0  0  0  0  0  0
   21.4963  -22.8256  -13.7944 C   0  0  0  0  0  0  0  0  0  0  0  0
   22.0086  -21.4898  -13.3398 C   0  0  2  0  0  0  0  0  0  0  0  0
   23.4683  -21.6001  -13.4287 N   0  0  0  0  0  0  0  0  0  0  0  0
   21.5169  -20.9385  -12.1032 C   0  0  0  0  0  0  0  0  0  0  0  0
   20.4030  -20.0734  -12.1114 O   0  0  0  0  0  0  0  0  0  0  0  0
   22.0072  -21.1524  -10.9585 O   0  0  0  0  0  0  0  0  0  0  0  0
  2  1  1  6
  3  2  1  0
  4  3  1  0
  4  5  2  0
  6  5  1  0
  7  6  1  0
  8  7  2  0
  9  8  1  0
 10  9  2  0
 10 11  1  0
 11 12  2  0
 12  7  1  0
 12  4  1  0
 13 14  2  0
 13  2  1  0
 15 13  1  0
 16 15  1  0
 16 17  1  1
 18 19  2  0
 18 17  1  0
 20 19  1  0
 21 20  2  0
 22 21  1  0
 22 23  2  0
 23 18  1  0
 24 25  2  0
 24 16  1  0
 26 27  1  0
 27 28  2  0
 29 27  1  0
 29 30  1  0
 31 30  1  1
 31 32  1  0
 32 24  1  0
 33 31  1  0
 34 33  1  0
 35 33  2  0
M  END
$$$$
