WFQ.pdb
     RDKit          3D

 35 37  0  0  1  0  0  0  0  0999 V2000
   25.8416  -23.0252  -12.3583 N   0  0  0  0  0  0  0  0  0  0  0  0
   25.3263  -21.7819  -11.8029 C   0  0  1  0  0  0  0  0  0  0  0  0
   26.2949  -20.6664  -12.0043 C   0  0  0  0  0  0  0  0  0  0  0  0
   27.5018  -20.7245  -11.1573 C   0  0  0  0  0  0  0  0  0  0  0  0
   28.7832  -20.9626  -11.6602 C   0  0  0  0  0  0  0  0  0  0  0  0
   29.6377  -20.9214  -10.6546 N   0  0  0  0  0  0  0  0  0  0  0  0
   29.0024  -20.6658   -9.4789 C   0  0  0  0  0  0  0  0  0  0  0  0
   29.4710  -20.5405   -8.1925 C   0  0  0  0  0  0  0  0  0  0  0  0
   28.5926  -20.2850   -7.1701 C   0  0  0  0  0  0  0  0  0  0  0  0
   27.2565  -20.1615   -7.4691 C   0  0  0  0  0  0  0  0  0  0  0  0
   26.7978  -20.2886   -8.7602 C   0  0  0  0  0  0  0  0  0  0  0  0
   27.6582  -20.5452   -9.8143 C   0  0  0  0  0  0  0  0  0  0  0  0
   23.9842  -21.4333  -12.2702 C   0  0  0  0  0  0  0  0  0  0  0  0
   23.4682  -21.9212  -13.3273 O   0  0  0  0  0  0  0  0  0  0  0  0
   23.2294  -20.5006  -11.4835 N   0  0  0  0  0  0  0  0  0  0  0  0
   21.8320  -20.2558  -11.7861 C   0  0  1  0  0  0  0  0  0  0  0  0
   21.1990  -19.4595  -10.6555 C   0  0  0  0  0  0  0  0  0  0  0  0
   19.7555  -19.2471  -10.8445 C   0  0  0  0  0  0  0  0  0  0  0  0
   19.3160  -18.0683  -11.3939 C   0  0  0  0  0  0  0  0  0  0  0  0
   17.9665  -17.8492  -11.5783 C   0  0  0  0  0  0  0  0  0  0  0  0
   17.0483  -18.8121  -11.2123 C   0  0  0  0  0  0  0  0  0  0  0  0
   17.4623  -20.0015  -10.6597 C   0  0  0  0  0  0  0  0  0  0  0  0
   18.8240  -20.1892  -10.4885 C   0  0  0  0  0  0  0  0  0  0  0  0
   21.7356  -19.5756  -13.0748 C   0  0  0  0  0  0  0  0  0  0  0  0
   22.7701  -19.1414  -13.6400 O   0  0  0  0  0  0  0  0  0  0  0  0
   22.3704  -23.0696  -16.4120 N   0  0  0  0  0  0  0  0  0  0  0  0
   23.1368  -21.8744  -16.4257 C   0  0  0  0  0  0  0  0  0  0  0  0
   24.3388  -21.9250  -16.8047 O   0  0  0  0  0  0  0  0  0  0  0  0
   22.5579  -20.5909  -16.0157 C   0  0  0  0  0  0  0  0  0  0  0  0
   21.1544  -20.7151  -15.5766 C   0  0  0  0  0  0  0  0  0  0  0  0
   20.4036  -19.4624  -15.2297 C   0  0  2  0  0  0  0  0  0  0  0  0
   20.5059  -19.3581  -13.7704 N   0  0  0  0  0  0  0  0  0  0  0  0
   19.0769  -19.2754  -15.7588 C   0  0  0  0  0  0  0  0  0  0  0  0
   18.8963  -19.0270  -17.1354 O   0  0  0  0  0  0  0  0  0  0  0  0
   18.0081  -19.3040  -15.0856 O   0  0  0  0  0  0  0  0  0  0  0  0
  2  1  1  6
  3  2  1  0
  4  3  1  0
  4  5  2  0
  6  5  1  0
  7  6  1  0
  8  7  2  0
  9  8  1  0
 10  9  2  0
 10 11  1  0
 11 12  2  0
 12  7  1  0
 12  4  1  0
 13 14  2  0
 13  2  1  0
 15 13  1  0
 16 15  1  0
 16 17  1  1
 18 19  2  0
 18 17  1  0
 20 19  1  0
 21 20  2  0
 22 21  1  0
 22 23  2  0
 23 18  1  0
 24 25  2  0
 24 16  1  0
 26 27  1  0
 27 28  2  0
 29 27  1  0
 29 30  1  0
 31 30  1  1
 31 32  1  0
 32 24  1  0
 33 31  1  0
 34 33  1  0
 35 33  2  0
M  END
$$$$
