WFQ.pdb
     RDKit          3D

 35 37  0  0  1  0  0  0  0  0999 V2000
   21.3828  -20.2056  -14.4046 N   0  0  0  0  0  0  0  0  0  0  0  0
   22.3423  -19.7775  -15.4125 C   0  0  1  0  0  0  0  0  0  0  0  0
   21.7266  -18.7968  -16.3518 C   0  0  0  0  0  0  0  0  0  0  0  0
   20.4384  -19.2147  -16.9377 C   0  0  0  0  0  0  0  0  0  0  0  0
   19.2024  -18.7327  -16.4999 C   0  0  0  0  0  0  0  0  0  0  0  0
   18.2577  -19.2764  -17.2449 N   0  0  0  0  0  0  0  0  0  0  0  0
   18.7872  -20.1135  -18.1778 C   0  0  0  0  0  0  0  0  0  0  0  0
   18.2018  -20.8903  -19.1494 C   0  0  0  0  0  0  0  0  0  0  0  0
   18.9867  -21.6635  -19.9669 C   0  0  0  0  0  0  0  0  0  0  0  0
   20.3490  -21.6361  -19.7852 C   0  0  0  0  0  0  0  0  0  0  0  0
   20.9249  -20.8549  -18.8096 C   0  0  0  0  0  0  0  0  0  0  0  0
   20.1612  -20.0626  -17.9693 C   0  0  0  0  0  0  0  0  0  0  0  0
   23.6060  -19.2885  -14.8604 C   0  0  0  0  0  0  0  0  0  0  0  0
   24.1895  -18.2390  -15.2846 O   0  0  0  0  0  0  0  0  0  0  0  0
   24.1958  -20.0380  -13.7885 N   0  0  0  0  0  0  0  0  0  0  0  0
   25.6387  -20.1113  -13.6587 C   0  0  1  0  0  0  0  0  0  0  0  0
   26.0043  -20.4178  -12.2146 C   0  0  0  0  0  0  0  0  0  0  0  0
   27.4517  -20.5919  -12.0161 C   0  0  0  0  0  0  0  0  0  0  0  0
   27.9158  -21.7429  -11.4294 C   0  0  0  0  0  0  0  0  0  0  0  0
   29.2691  -21.9249  -11.2331 C   0  0  0  0  0  0  0  0  0  0  0  0
   30.1665  -20.9524  -11.6246 C   0  0  0  0  0  0  0  0  0  0  0  0
   29.7276  -19.7902  -12.2145 C   0  0  0  0  0  0  0  0  0  0  0  0
   28.3628  -19.6396  -12.3968 C   0  0  0  0  0  0  0  0  0  0  0  0
   26.1509  -21.1108  -14.5921 C   0  0  0  0  0  0  0  0  0  0  0  0
   25.7270  -22.2926  -14.5492 O   0  0  0  0  0  0  0  0  0  0  0  0
   29.2997  -22.0013  -19.7259 N   0  0  0  0  0  0  0  0  0  0  0  0
   29.0139  -20.6417  -19.4325 C   0  0  0  0  0  0  0  0  0  0  0  0
   29.6267  -19.7393  -20.0658 O   0  0  0  0  0  0  0  0  0  0  0  0
   28.0219  -20.2714  -18.4180 C   0  0  0  0  0  0  0  0  0  0  0  0
   27.3212  -21.4417  -17.8547 C   0  0  0  0  0  0  0  0  0  0  0  0
   27.6766  -21.8831  -16.4647 C   0  0  2  0  0  0  0  0  0  0  0  0
   27.1359  -20.8366  -15.5911 N   0  0  0  0  0  0  0  0  0  0  0  0
   29.0359  -22.2665  -16.1809 C   0  0  0  0  0  0  0  0  0  0  0  0
   29.8555  -21.4273  -15.3978 O   0  0  0  0  0  0  0  0  0  0  0  0
   29.6000  -23.3220  -16.5860 O   0  0  0  0  0  0  0  0  0  0  0  0
  2  1  1  1
  3  2  1  0
  4  3  1  0
  4  5  2  0
  6  5  1  0
  7  6  1  0
  8  7  2  0
  9  8  1  0
 10  9  2  0
 10 11  1  0
 11 12  2  0
 12  7  1  0
 12  4  1  0
 13 14  2  0
 13  2  1  0
 15 13  1  0
 16 15  1  0
 16 17  1  1
 18 19  2  0
 18 17  1  0
 20 19  1  0
 21 20  2  0
 22 21  1  0
 22 23  2  0
 23 18  1  0
 24 25  2  0
 24 16  1  0
 26 27  1  0
 27 28  2  0
 29 27  1  0
 29 30  1  0
 31 30  1  6
 31 32  1  0
 32 24  1  0
 33 31  1  0
 34 33  1  0
 35 33  2  0
M  END
$$$$
