SNH.pdb
     RDKit          3D

 25 25  0  0  1  0  0  0  0  0999 V2000
    9.2166  -12.1157   19.6082 O   0  0  0  0  0  0  0  0  0  0  0  0
    9.9170  -12.8188   18.6045 C   0  0  0  0  0  0  0  0  0  0  0  0
    9.1223  -14.0839   18.3500 C   0  0  2  0  0  0  0  0  0  0  0  0
    7.7874  -13.7802   17.8946 N   0  0  0  0  0  0  0  0  0  0  0  0
    9.1011  -14.9713   19.5181 C   0  0  0  0  0  0  0  0  0  0  0  0
    8.0031  -15.1073   20.1463 O   0  0  0  0  0  0  0  0  0  0  0  0
   10.5670  -19.8141   20.4604 N   0  0  0  0  0  0  0  0  0  0  0  0
   11.1606  -18.5701   20.0931 C   0  0  0  0  0  0  0  0  0  0  0  0
   11.5134  -18.4066   18.9178 O   0  0  0  0  0  0  0  0  0  0  0  0
   11.3430  -17.5131   21.1021 C   0  0  0  0  0  0  0  0  0  0  0  0
   10.2225  -16.5283   21.0502 C   0  0  2  0  0  0  0  0  0  0  0  0
   10.2814  -15.6521   19.9231 N   0  0  0  0  0  0  0  0  0  0  0  0
   10.2420  -15.7674   22.3464 C   0  0  0  0  0  0  0  0  0  0  0  0
   11.0601  -14.8334   22.5434 O   0  0  0  0  0  0  0  0  0  0  0  0
    9.3457  -16.0652   23.3993 N   0  0  0  0  0  0  0  0  0  0  0  0
    9.2687  -15.2074   24.6205 C   0  0  1  0  0  0  0  0  0  0  0  0
    7.8299  -14.8039   24.6859 C   0  0  0  0  0  0  0  0  0  0  0  0
    7.4089  -14.0078   25.8350 C   0  0  0  0  0  0  0  0  0  0  0  0
    8.1316  -13.4536   26.8578 C   0  0  0  0  0  0  0  0  0  0  0  0
    7.2738  -12.7531   27.6416 N   0  0  0  0  0  0  0  0  0  0  0  0
    6.0656  -12.8706   27.1196 C   0  0  0  0  0  0  0  0  0  0  0  0
    6.1208  -13.6200   26.0327 N   0  0  0  0  0  0  0  0  0  0  0  0
    9.6009  -16.1042   25.7816 C   0  0  0  0  0  0  0  0  0  0  0  0
    9.8787  -15.5168   27.0289 O   0  0  0  0  0  0  0  0  0  0  0  0
    9.6376  -17.3140   25.6810 O   0  0  0  0  0  0  0  0  0  0  0  0
  1  2  1  0
  2  3  1  0
  3  5  1  0
  3  4  1  1
  5  6  2  0
  7  8  1  0
  8 10  1  0
  9  8  2  0
 11 10  1  1
 11 13  1  0
 12 11  1  0
 12  5  1  0
 13 15  1  0
 14 13  2  0
 15 16  1  0
 16 23  1  0
 16 17  1  1
 18 17  1  0
 19 18  2  0
 20 19  1  0
 21 20  1  0
 21 22  2  0
 22 18  1  0
 23 25  2  0
 23 24  1  0
M  END
$$$$
