SNH.pdb
     RDKit          3D

 25 25  0  0  1  0  0  0  0  0999 V2000
    6.5291  -22.4805   19.3590 O   0  0  0  0  0  0  0  0  0  0  0  0
    6.1694  -21.2424   18.7844 C   0  0  0  0  0  0  0  0  0  0  0  0
    6.9225  -21.1574   17.4720 C   0  0  2  0  0  0  0  0  0  0  0  0
    6.4964  -22.1881   16.5568 N   0  0  0  0  0  0  0  0  0  0  0  0
    8.3769  -21.1787   17.6635 C   0  0  0  0  0  0  0  0  0  0  0  0
    8.8590  -22.0143   18.4931 O   0  0  0  0  0  0  0  0  0  0  0  0
    9.2456  -18.4526   15.7362 N   0  0  0  0  0  0  0  0  0  0  0  0
   10.5920  -18.6921   15.3303 C   0  0  0  0  0  0  0  0  0  0  0  0
   11.0521  -18.0348   14.3877 O   0  0  0  0  0  0  0  0  0  0  0  0
   11.4041  -19.7032   16.0281 C   0  0  0  0  0  0  0  0  0  0  0  0
   10.6241  -20.3484   17.1250 C   0  0  2  0  0  0  0  0  0  0  0  0
    9.2092  -20.2851   16.9359 N   0  0  0  0  0  0  0  0  0  0  0  0
   11.0422  -19.6914   18.4107 C   0  0  0  0  0  0  0  0  0  0  0  0
   10.5588  -18.5871   18.7674 O   0  0  0  0  0  0  0  0  0  0  0  0
   11.9939  -20.2818   19.2746 N   0  0  0  0  0  0  0  0  0  0  0  0
   12.3429  -19.6598   20.5877 C   0  0  1  0  0  0  0  0  0  0  0  0
   11.8927  -20.6701   21.5947 C   0  0  0  0  0  0  0  0  0  0  0  0
   10.5287  -20.5493   22.1012 C   0  0  0  0  0  0  0  0  0  0  0  0
    9.5729  -19.5916   21.8896 C   0  0  0  0  0  0  0  0  0  0  0  0
    8.4466  -19.9768   22.5408 N   0  0  0  0  0  0  0  0  0  0  0  0
    8.6991  -21.1315   23.1315 C   0  0  0  0  0  0  0  0  0  0  0  0
    9.9443  -21.4968   22.8819 N   0  0  0  0  0  0  0  0  0  0  0  0
   13.8429  -19.5490   20.6111 C   0  0  0  0  0  0  0  0  0  0  0  0
   14.5648  -19.9314   19.4662 O   0  0  0  0  0  0  0  0  0  0  0  0
   14.4513  -19.1424   21.5803 O   0  0  0  0  0  0  0  0  0  0  0  0
  1  2  1  0
  2  3  1  0
  3  5  1  0
  3  4  1  6
  5  6  2  0
  7  8  1  0
  8 10  1  0
  9  8  2  0
 11 10  1  6
 11 13  1  0
 12 11  1  0
 12  5  1  0
 13 15  1  0
 14 13  2  0
 15 16  1  0
 16 23  1  0
 16 17  1  1
 18 17  1  0
 19 18  2  0
 20 19  1  0
 21 20  1  0
 21 22  2  0
 22 18  1  0
 23 25  2  0
 23 24  1  0
M  END
$$$$
