SNH.pdb
     RDKit          3D

 25 25  0  0  1  0  0  0  0  0999 V2000
   10.1966  -14.9793   15.8292 O   0  0  0  0  0  0  0  0  0  0  0  0
   10.4948  -16.2538   15.3008 C   0  0  0  0  0  0  0  0  0  0  0  0
    9.3347  -17.1480   15.6896 C   0  0  2  0  0  0  0  0  0  0  0  0
    8.1125  -16.7274   15.0486 N   0  0  0  0  0  0  0  0  0  0  0  0
    9.1710  -17.2451   17.1443 C   0  0  0  0  0  0  0  0  0  0  0  0
    8.0953  -16.7988   17.6564 O   0  0  0  0  0  0  0  0  0  0  0  0
   10.9528  -21.2744   18.5794 N   0  0  0  0  0  0  0  0  0  0  0  0
   10.1569  -20.4429   19.4221 C   0  0  0  0  0  0  0  0  0  0  0  0
    9.0145  -20.8183   19.7157 O   0  0  0  0  0  0  0  0  0  0  0  0
   10.6974  -19.1682   19.9237 C   0  0  0  0  0  0  0  0  0  0  0  0
    9.9578  -18.0101   19.3409 C   0  0  2  0  0  0  0  0  0  0  0  0
   10.1940  -17.8235   17.9441 N   0  0  0  0  0  0  0  0  0  0  0  0
   10.3427  -16.7940   20.1362 C   0  0  0  0  0  0  0  0  0  0  0  0
   10.8029  -15.7663   19.5769 O   0  0  0  0  0  0  0  0  0  0  0  0
   10.2059  -16.7492   21.5432 N   0  0  0  0  0  0  0  0  0  0  0  0
   10.0670  -15.4508   22.2697 C   0  0  1  0  0  0  0  0  0  0  0  0
    8.6892  -14.9875   21.9172 C   0  0  0  0  0  0  0  0  0  0  0  0
    8.5506  -14.1291   20.7444 C   0  0  0  0  0  0  0  0  0  0  0  0
    9.4767  -13.6954   19.8334 C   0  0  0  0  0  0  0  0  0  0  0  0
    8.8255  -12.9657   18.8931 N   0  0  0  0  0  0  0  0  0  0  0  0
    7.5434  -12.9513   19.2126 C   0  0  0  0  0  0  0  0  0  0  0  0
    7.3528  -13.6441   20.3216 N   0  0  0  0  0  0  0  0  0  0  0  0
   10.1345  -15.7837   23.7351 C   0  0  0  0  0  0  0  0  0  0  0  0
   10.7495  -14.8671   24.6068 O   0  0  0  0  0  0  0  0  0  0  0  0
    9.6782  -16.8126   24.1914 O   0  0  0  0  0  0  0  0  0  0  0  0
  1  2  1  0
  2  3  1  0
  3  5  1  0
  3  4  1  6
  5  6  2  0
  7  8  1  0
  8 10  1  0
  9  8  2  0
 11 10  1  1
 11 13  1  0
 12 11  1  0
 12  5  1  0
 13 15  1  0
 14 13  2  0
 15 16  1  0
 16 23  1  0
 16 17  1  1
 18 17  1  0
 19 18  2  0
 20 19  1  0
 21 20  1  0
 21 22  2  0
 22 18  1  0
 23 25  2  0
 23 24  1  0
M  END
$$$$
