SNH.pdb
     RDKit          3D

 25 25  0  0  1  0  0  0  0  0999 V2000
   10.2191  -15.6425   13.3520 O   0  0  0  0  0  0  0  0  0  0  0  0
   10.4581  -16.2301   14.6129 C   0  0  0  0  0  0  0  0  0  0  0  0
    9.2376  -17.0757   14.9168 C   0  0  2  0  0  0  0  0  0  0  0  0
    8.0407  -16.4805   14.3738 N   0  0  0  0  0  0  0  0  0  0  0  0
    9.0958  -17.3519   16.3506 C   0  0  0  0  0  0  0  0  0  0  0  0
    8.0640  -16.9060   16.9467 O   0  0  0  0  0  0  0  0  0  0  0  0
    8.9056  -21.5268   19.3250 N   0  0  0  0  0  0  0  0  0  0  0  0
    9.7632  -20.8554   18.4038 C   0  0  0  0  0  0  0  0  0  0  0  0
    9.8302  -21.2771   17.2419 O   0  0  0  0  0  0  0  0  0  0  0  0
   10.5455  -19.6869   18.8413 C   0  0  0  0  0  0  0  0  0  0  0  0
    9.8872  -18.4162   18.4171 C   0  0  2  0  0  0  0  0  0  0  0  0
   10.0912  -18.0973   17.0393 N   0  0  0  0  0  0  0  0  0  0  0  0
   10.4001  -17.3295   19.3202 C   0  0  0  0  0  0  0  0  0  0  0  0
   11.4406  -16.6827   19.0383 O   0  0  0  0  0  0  0  0  0  0  0  0
    9.7395  -16.9857   20.5226 N   0  0  0  0  0  0  0  0  0  0  0  0
   10.2471  -15.8895   21.4023 C   0  0  1  0  0  0  0  0  0  0  0  0
    9.0452  -15.0300   21.6349 C   0  0  0  0  0  0  0  0  0  0  0  0
    8.6716  -14.0993   20.5739 C   0  0  0  0  0  0  0  0  0  0  0  0
    9.2653  -13.8219   19.3714 C   0  0  0  0  0  0  0  0  0  0  0  0
    8.4866  -12.9214   18.7207 N   0  0  0  0  0  0  0  0  0  0  0  0
    7.4491  -12.6544   19.4943 C   0  0  0  0  0  0  0  0  0  0  0  0
    7.5374  -13.3505   20.6139 N   0  0  0  0  0  0  0  0  0  0  0  0
   10.6619  -16.5467   22.6902 C   0  0  0  0  0  0  0  0  0  0  0  0
   11.3737  -15.7868   23.6358 O   0  0  0  0  0  0  0  0  0  0  0  0
   10.4049  -17.7066   22.9423 O   0  0  0  0  0  0  0  0  0  0  0  0
  1  2  1  0
  2  3  1  0
  3  5  1  0
  3  4  1  1
  5  6  2  0
  7  8  1  0
  8 10  1  0
  9  8  2  0
 11 10  1  1
 11 13  1  0
 12 11  1  0
 12  5  1  0
 13 15  1  0
 14 13  2  0
 15 16  1  0
 16 23  1  0
 16 17  1  1
 18 17  1  0
 19 18  2  0
 20 19  1  0
 21 20  1  0
 21 22  2  0
 22 18  1  0
 23 25  2  0
 23 24  1  0
M  END
$$$$
