SNH.pdb
     RDKit          3D

 25 25  0  0  1  0  0  0  0  0999 V2000
   11.9344  -21.7804   17.3101 O   0  0  0  0  0  0  0  0  0  0  0  0
   10.8473  -21.2274   18.0207 C   0  0  0  0  0  0  0  0  0  0  0  0
    9.8838  -22.3715   18.2650 C   0  0  2  0  0  0  0  0  0  0  0  0
    8.5845  -22.0896   17.7049 N   0  0  0  0  0  0  0  0  0  0  0  0
    9.7897  -22.7250   19.6857 C   0  0  0  0  0  0  0  0  0  0  0  0
    8.9408  -22.1042   20.4018 O   0  0  0  0  0  0  0  0  0  0  0  0
    9.4669  -26.2539   23.7694 N   0  0  0  0  0  0  0  0  0  0  0  0
   10.7418  -25.7630   23.3588 C   0  0  0  0  0  0  0  0  0  0  0  0
   11.6232  -25.6153   24.2153 O   0  0  0  0  0  0  0  0  0  0  0  0
   10.9881  -25.4434   21.9425 C   0  0  0  0  0  0  0  0  0  0  0  0
   10.4961  -24.0734   21.6124 C   0  0  2  0  0  0  0  0  0  0  0  0
   10.6296  -23.7339   20.2309 N   0  0  0  0  0  0  0  0  0  0  0  0
   11.2412  -23.1113   22.4949 C   0  0  0  0  0  0  0  0  0  0  0  0
   12.3294  -22.5983   22.1297 O   0  0  0  0  0  0  0  0  0  0  0  0
   10.7556  -22.7402   23.7704 N   0  0  0  0  0  0  0  0  0  0  0  0
   11.4088  -21.6570   24.5659 C   0  0  1  0  0  0  0  0  0  0  0  0
   10.4582  -20.5074   24.4560 C   0  0  0  0  0  0  0  0  0  0  0  0
   10.5351  -19.6872   23.2507 C   0  0  0  0  0  0  0  0  0  0  0  0
   11.5497  -19.5086   22.3483 C   0  0  0  0  0  0  0  0  0  0  0  0
   11.0945  -18.6897   21.3671 N   0  0  0  0  0  0  0  0  0  0  0  0
    9.8434  -18.3758   21.6539 C   0  0  0  0  0  0  0  0  0  0  0  0
    9.4839  -18.9636   22.7815 N   0  0  0  0  0  0  0  0  0  0  0  0
   11.4514  -22.1505   25.9863 C   0  0  0  0  0  0  0  0  0  0  0  0
   10.2367  -22.4063   26.6475 O   0  0  0  0  0  0  0  0  0  0  0  0
   12.4941  -22.3354   26.5810 O   0  0  0  0  0  0  0  0  0  0  0  0
  1  2  1  0
  2  3  1  0
  3  5  1  0
  3  4  1  1
  5  6  2  0
  7  8  1  0
  8 10  1  0
  9  8  2  0
 11 10  1  6
 11 13  1  0
 12 11  1  0
 12  5  1  0
 13 15  1  0
 14 13  2  0
 15 16  1  0
 16 23  1  0
 16 17  1  1
 18 17  1  0
 19 18  2  0
 20 19  1  0
 21 20  1  0
 21 22  2  0
 22 18  1  0
 23 25  2  0
 23 24  1  0
M  END
$$$$
