SNH.pdb
     RDKit          3D

 25 25  0  0  1  0  0  0  0  0999 V2000
    7.6571  -15.5727   13.0447 O   0  0  0  0  0  0  0  0  0  0  0  0
    7.7461  -16.2765   14.2650 C   0  0  0  0  0  0  0  0  0  0  0  0
    9.0017  -15.7712   14.9469 C   0  0  2  0  0  0  0  0  0  0  0  0
   10.1285  -15.7867   14.0459 N   0  0  0  0  0  0  0  0  0  0  0  0
    9.2949  -16.5029   16.1843 C   0  0  0  0  0  0  0  0  0  0  0  0
    8.3915  -16.5517   17.0788 O   0  0  0  0  0  0  0  0  0  0  0  0
   10.9587  -19.8541   19.4316 N   0  0  0  0  0  0  0  0  0  0  0  0
   12.1600  -19.4660   18.7675 C   0  0  0  0  0  0  0  0  0  0  0  0
   13.2384  -19.9004   19.1927 O   0  0  0  0  0  0  0  0  0  0  0  0
   12.1017  -18.5671   17.6025 C   0  0  0  0  0  0  0  0  0  0  0  0
   10.8443  -17.7628   17.6129 C   0  0  2  0  0  0  0  0  0  0  0  0
   10.5563  -17.1333   16.3629 N   0  0  0  0  0  0  0  0  0  0  0  0
   10.9709  -16.7584   18.7241 C   0  0  0  0  0  0  0  0  0  0  0  0
   11.6593  -15.7155   18.5867 O   0  0  0  0  0  0  0  0  0  0  0  0
   10.3250  -16.9388   19.9694 N   0  0  0  0  0  0  0  0  0  0  0  0
   10.4442  -15.9252   21.0609 C   0  0  1  0  0  0  0  0  0  0  0  0
    9.0714  -15.3393   21.1584 C   0  0  0  0  0  0  0  0  0  0  0  0
    8.7459  -14.2408   20.2534 C   0  0  0  0  0  0  0  0  0  0  0  0
    9.4976  -13.6112   19.2973 C   0  0  0  0  0  0  0  0  0  0  0  0
    8.7087  -12.6920   18.6862 N   0  0  0  0  0  0  0  0  0  0  0  0
    7.5128  -12.7540   19.2451 C   0  0  0  0  0  0  0  0  0  0  0  0
    7.5099  -13.6778   20.1899 N   0  0  0  0  0  0  0  0  0  0  0  0
   10.7604  -16.6962   22.3132 C   0  0  0  0  0  0  0  0  0  0  0  0
   11.1139  -15.9828   23.4726 O   0  0  0  0  0  0  0  0  0  0  0  0
   10.7216  -17.9092   22.3591 O   0  0  0  0  0  0  0  0  0  0  0  0
  1  2  1  0
  2  3  1  0
  3  5  1  0
  3  4  1  6
  5  6  2  0
  7  8  1  0
  8 10  1  0
  9  8  2  0
 11 10  1  6
 11 13  1  0
 12 11  1  0
 12  5  1  0
 13 15  1  0
 14 13  2  0
 15 16  1  0
 16 23  1  0
 16 17  1  1
 18 17  1  0
 19 18  2  0
 20 19  1  0
 21 20  1  0
 21 22  2  0
 22 18  1  0
 23 25  2  0
 23 24  1  0
M  END
$$$$
