SNH.pdb
     RDKit          3D

 25 25  0  0  1  0  0  0  0  0999 V2000
   10.8646  -14.2051   39.2979 O   0  0  0  0  0  0  0  0  0  0  0  0
   12.1579  -13.7178   39.0107 C   0  0  0  0  0  0  0  0  0  0  0  0
   13.0509  -14.2230   40.1261 C   0  0  2  0  0  0  0  0  0  0  0  0
   12.7556  -15.5974   40.4505 N   0  0  0  0  0  0  0  0  0  0  0  0
   12.9920  -13.3669   41.3161 C   0  0  0  0  0  0  0  0  0  0  0  0
   12.3101  -13.7715   42.3110 O   0  0  0  0  0  0  0  0  0  0  0  0
   16.4518  -10.7299   43.9223 N   0  0  0  0  0  0  0  0  0  0  0  0
   15.8981  -10.5259   42.6235 C   0  0  0  0  0  0  0  0  0  0  0  0
   16.6241  -10.7008   41.6362 O   0  0  0  0  0  0  0  0  0  0  0  0
   14.4912  -10.1161   42.4773 C   0  0  0  0  0  0  0  0  0  0  0  0
   13.5854  -11.3021   42.5050 C   0  0  2  0  0  0  0  0  0  0  0  0
   13.6824  -12.1246   41.3406 N   0  0  0  0  0  0  0  0  0  0  0  0
   12.1877  -10.7866   42.7057 C   0  0  0  0  0  0  0  0  0  0  0  0
   11.5238  -10.3099   41.7504 O   0  0  0  0  0  0  0  0  0  0  0  0
   11.5576  -10.8136   43.9716 N   0  0  0  0  0  0  0  0  0  0  0  0
   10.1592  -10.3197   44.1546 C   0  0  1  0  0  0  0  0  0  0  0  0
    9.4399  -11.4891   44.7480 C   0  0  0  0  0  0  0  0  0  0  0  0
    8.8123  -12.4290   43.8237 C   0  0  0  0  0  0  0  0  0  0  0  0
    8.7366  -12.4299   42.4562 C   0  0  0  0  0  0  0  0  0  0  0  0
    8.0958  -13.5636   42.0757 N   0  0  0  0  0  0  0  0  0  0  0  0
    7.7887  -14.2380   43.1697 C   0  0  0  0  0  0  0  0  0  0  0  0
    8.2092  -13.5766   44.2336 N   0  0  0  0  0  0  0  0  0  0  0  0
   10.2391   -9.2049   45.1614 C   0  0  0  0  0  0  0  0  0  0  0  0
    9.0582   -8.5244   45.5085 O   0  0  0  0  0  0  0  0  0  0  0  0
   11.2838   -8.8722   45.6838 O   0  0  0  0  0  0  0  0  0  0  0  0
  1  2  1  0
  2  3  1  0
  3  5  1  0
  3  4  1  1
  5  6  2  0
  7  8  1  0
  8 10  1  0
  9  8  2  0
 11 10  1  6
 11 13  1  0
 12 11  1  0
 12  5  1  0
 13 15  1  0
 14 13  2  0
 15 16  1  0
 16 23  1  0
 16 17  1  1
 18 17  1  0
 19 18  2  0
 20 19  1  0
 21 20  1  0
 21 22  2  0
 22 18  1  0
 23 25  2  0
 23 24  1  0
M  END
$$$$
