SNH.pdb
     RDKit          3D

 25 25  0  0  1  0  0  0  0  0999 V2000
    7.8255  -19.7345   18.5706 O   0  0  0  0  0  0  0  0  0  0  0  0
    6.9396  -18.8287   17.9484 C   0  0  0  0  0  0  0  0  0  0  0  0
    7.8116  -17.7775   17.2915 C   0  0  2  0  0  0  0  0  0  0  0  0
    8.6577  -18.3589   16.2778 N   0  0  0  0  0  0  0  0  0  0  0  0
    8.5943  -17.0143   18.2699 C   0  0  0  0  0  0  0  0  0  0  0  0
    9.8407  -17.2543   18.3571 O   0  0  0  0  0  0  0  0  0  0  0  0
    6.5619  -12.4926   19.4799 N   0  0  0  0  0  0  0  0  0  0  0  0
    7.8286  -13.1420   19.5734 C   0  0  0  0  0  0  0  0  0  0  0  0
    8.7077  -12.8458   18.7538 O   0  0  0  0  0  0  0  0  0  0  0  0
    8.0694  -14.1412   20.6280 C   0  0  0  0  0  0  0  0  0  0  0  0
    8.7415  -15.3520   20.0710 C   0  0  2  0  0  0  0  0  0  0  0  0
    7.9634  -16.0387   19.0889 N   0  0  0  0  0  0  0  0  0  0  0  0
    9.0810  -16.2433   21.2329 C   0  0  0  0  0  0  0  0  0  0  0  0
    8.1877  -16.8659   21.8614 O   0  0  0  0  0  0  0  0  0  0  0  0
   10.4139  -16.4222   21.6709 N   0  0  0  0  0  0  0  0  0  0  0  0
   10.7330  -17.2567   22.8687 C   0  0  1  0  0  0  0  0  0  0  0  0
   11.9131  -18.0682   22.4371 C   0  0  0  0  0  0  0  0  0  0  0  0
   11.6608  -19.1947   21.5434 C   0  0  0  0  0  0  0  0  0  0  0  0
   10.5450  -19.9686   21.3655 C   0  0  0  0  0  0  0  0  0  0  0  0
   10.8036  -20.8481   20.3653 N   0  0  0  0  0  0  0  0  0  0  0  0
   12.0347  -20.6233   19.9411 C   0  0  0  0  0  0  0  0  0  0  0  0
   12.5709  -19.6338   20.6335 N   0  0  0  0  0  0  0  0  0  0  0  0
   11.1428  -16.2946   23.9500 C   0  0  0  0  0  0  0  0  0  0  0  0
   11.4104  -16.7994   25.2352 O   0  0  0  0  0  0  0  0  0  0  0  0
   11.2507  -15.1010   23.7537 O   0  0  0  0  0  0  0  0  0  0  0  0
  1  2  1  0
  2  3  1  0
  3  5  1  0
  3  4  1  6
  5  6  2  0
  7  8  1  0
  8 10  1  0
  9  8  2  0
 11 10  1  1
 11 13  1  0
 12 11  1  0
 12  5  1  0
 13 15  1  0
 14 13  2  0
 15 16  1  0
 16 23  1  0
 16 17  1  6
 18 17  1  0
 19 18  2  0
 20 19  1  0
 21 20  1  0
 21 22  2  0
 22 18  1  0
 23 25  2  0
 23 24  1  0
M  END
$$$$
