SNH.pdb
     RDKit          3D

 25 25  0  0  1  0  0  0  0  0999 V2000
   10.1402  -12.3280   19.1292 O   0  0  0  0  0  0  0  0  0  0  0  0
   10.2825  -13.4440   18.2767 C   0  0  0  0  0  0  0  0  0  0  0  0
    8.9625  -14.1860   18.3375 C   0  0  2  0  0  0  0  0  0  0  0  0
    7.8511  -13.2960   18.1038 N   0  0  0  0  0  0  0  0  0  0  0  0
    8.7996  -14.9286   19.5922 C   0  0  0  0  0  0  0  0  0  0  0  0
    7.8228  -14.6210   20.3471 O   0  0  0  0  0  0  0  0  0  0  0  0
   10.9580  -19.2503   23.2096 N   0  0  0  0  0  0  0  0  0  0  0  0
    9.9229  -18.8173   22.3288 C   0  0  0  0  0  0  0  0  0  0  0  0
    8.7531  -19.1233   22.5942 O   0  0  0  0  0  0  0  0  0  0  0  0
   10.2551  -18.0238   21.1335 C   0  0  0  0  0  0  0  0  0  0  0  0
    9.4374  -16.7763   21.0783 C   0  0  2  0  0  0  0  0  0  0  0  0
    9.7152  -15.9589   19.9397 N   0  0  0  0  0  0  0  0  0  0  0  0
    9.6738  -16.0352   22.3646 C   0  0  0  0  0  0  0  0  0  0  0  0
   10.7462  -15.4129   22.5724 O   0  0  0  0  0  0  0  0  0  0  0  0
    8.7060  -16.0036   23.3955 N   0  0  0  0  0  0  0  0  0  0  0  0
    8.7721  -14.9914   24.4929 C   0  0  1  0  0  0  0  0  0  0  0  0
    7.3421  -14.6192   24.7248 C   0  0  0  0  0  0  0  0  0  0  0  0
    7.0705  -13.5985   25.7327 C   0  0  0  0  0  0  0  0  0  0  0  0
    7.9175  -12.8657   26.5208 C   0  0  0  0  0  0  0  0  0  0  0  0
    7.1658  -12.0025   27.2492 N   0  0  0  0  0  0  0  0  0  0  0  0
    5.9006  -12.1956   26.9206 C   0  0  0  0  0  0  0  0  0  0  0  0
    5.8173  -13.1499   26.0104 N   0  0  0  0  0  0  0  0  0  0  0  0
    9.3130  -15.7151   25.6956 C   0  0  0  0  0  0  0  0  0  0  0  0
    9.6277  -17.0805   25.5754 O   0  0  0  0  0  0  0  0  0  0  0  0
    9.4871  -15.1641   26.7639 O   0  0  0  0  0  0  0  0  0  0  0  0
  1  2  1  0
  2  3  1  0
  3  5  1  0
  3  4  1  1
  5  6  2  0
  7  8  1  0
  8 10  1  0
  9  8  2  0
 11 10  1  1
 11 13  1  0
 12 11  1  0
 12  5  1  0
 13 15  1  0
 14 13  2  0
 15 16  1  0
 16 23  1  0
 16 17  1  1
 18 17  1  0
 19 18  2  0
 20 19  1  0
 21 20  1  0
 21 22  2  0
 22 18  1  0
 23 25  2  0
 23 24  1  0
M  END
$$$$
