SNH.pdb
     RDKit          3D

 25 25  0  0  1  0  0  0  0  0999 V2000
    9.0387  -15.2590   14.4848 O   0  0  0  0  0  0  0  0  0  0  0  0
    9.9901  -15.8855   15.3184 C   0  0  0  0  0  0  0  0  0  0  0  0
    9.4297  -17.2582   15.6321 C   0  0  2  0  0  0  0  0  0  0  0  0
    8.4553  -17.6626   14.6480 N   0  0  0  0  0  0  0  0  0  0  0  0
    8.8835  -17.3381   16.9914 C   0  0  0  0  0  0  0  0  0  0  0  0
    7.8052  -16.7105   17.2407 O   0  0  0  0  0  0  0  0  0  0  0  0
   10.3942  -21.1275   20.5032 N   0  0  0  0  0  0  0  0  0  0  0  0
    9.7065  -20.5481   19.3959 C   0  0  0  0  0  0  0  0  0  0  0  0
   10.0810  -20.8337   18.2511 O   0  0  0  0  0  0  0  0  0  0  0  0
    8.5771  -19.6316   19.6265 C   0  0  0  0  0  0  0  0  0  0  0  0
    8.9500  -18.2288   19.2786 C   0  0  2  0  0  0  0  0  0  0  0  0
    9.5517  -18.0988   17.9892 N   0  0  0  0  0  0  0  0  0  0  0  0
    9.8578  -17.7294   20.3677 C   0  0  0  0  0  0  0  0  0  0  0  0
    9.9445  -18.3263   21.4708 O   0  0  0  0  0  0  0  0  0  0  0  0
   10.6525  -16.5711   20.2032 N   0  0  0  0  0  0  0  0  0  0  0  0
   10.6863  -15.4976   21.2422 C   0  0  1  0  0  0  0  0  0  0  0  0
    9.2522  -15.1013   21.3960 C   0  0  0  0  0  0  0  0  0  0  0  0
    8.6859  -14.2255   20.3744 C   0  0  0  0  0  0  0  0  0  0  0  0
    9.2132  -13.7542   19.2016 C   0  0  0  0  0  0  0  0  0  0  0  0
    8.2550  -13.0231   18.5786 N   0  0  0  0  0  0  0  0  0  0  0  0
    7.1752  -13.0442   19.3399 C   0  0  0  0  0  0  0  0  0  0  0  0
    7.4090  -13.7609   20.4251 N   0  0  0  0  0  0  0  0  0  0  0  0
   11.1727  -16.1546   22.5050 C   0  0  0  0  0  0  0  0  0  0  0  0
   11.3044  -17.5547   22.5286 O   0  0  0  0  0  0  0  0  0  0  0  0
   11.4551  -15.5213   23.5021 O   0  0  0  0  0  0  0  0  0  0  0  0
  1  2  1  0
  2  3  1  0
  3  5  1  0
  3  4  1  6
  5  6  2  0
  7  8  1  0
  8 10  1  0
  9  8  2  0
 11 10  1  1
 11 13  1  0
 12 11  1  0
 12  5  1  0
 13 15  1  0
 14 13  2  0
 15 16  1  0
 16 23  1  0
 16 17  1  1
 18 17  1  0
 19 18  2  0
 20 19  1  0
 21 20  1  0
 21 22  2  0
 22 18  1  0
 23 25  2  0
 23 24  1  0
M  END
$$$$
