SNH.pdb
     RDKit          3D

 25 25  0  0  1  0  0  0  0  0999 V2000
   12.4503  -19.1355   15.0243 O   0  0  0  0  0  0  0  0  0  0  0  0
   12.1671  -17.8086   15.4134 C   0  0  0  0  0  0  0  0  0  0  0  0
   13.2737  -16.9565   14.8250 C   0  0  2  0  0  0  0  0  0  0  0  0
   13.6889  -17.4553   13.5365 N   0  0  0  0  0  0  0  0  0  0  0  0
   14.4133  -16.8173   15.7384 C   0  0  0  0  0  0  0  0  0  0  0  0
   15.5830  -16.8041   15.2380 O   0  0  0  0  0  0  0  0  0  0  0  0
   15.9811  -13.4926   17.2682 N   0  0  0  0  0  0  0  0  0  0  0  0
   14.8872  -13.8901   18.0929 C   0  0  0  0  0  0  0  0  0  0  0  0
   13.8876  -13.1616   18.1422 O   0  0  0  0  0  0  0  0  0  0  0  0
   14.9611  -15.1431   18.8630 C   0  0  0  0  0  0  0  0  0  0  0  0
   15.2868  -16.2965   17.9734 C   0  0  2  0  0  0  0  0  0  0  0  0
   14.1999  -16.7016   17.1390 N   0  0  0  0  0  0  0  0  0  0  0  0
   15.7560  -17.4182   18.8572 C   0  0  0  0  0  0  0  0  0  0  0  0
   16.7626  -17.2880   19.5991 O   0  0  0  0  0  0  0  0  0  0  0  0
   15.0906  -18.6657   18.8954 N   0  0  0  0  0  0  0  0  0  0  0  0
   15.5523  -19.7657   19.7953 C   0  0  1  0  0  0  0  0  0  0  0  0
   16.9471  -20.0460   19.3337 C   0  0  0  0  0  0  0  0  0  0  0  0
   17.1057  -20.6913   18.0338 C   0  0  0  0  0  0  0  0  0  0  0  0
   16.2130  -20.8909   17.0145 C   0  0  0  0  0  0  0  0  0  0  0  0
   16.8757  -21.4871   15.9917 N   0  0  0  0  0  0  0  0  0  0  0  0
   18.1325  -21.6480   16.3669 C   0  0  0  0  0  0  0  0  0  0  0  0
   18.2958  -21.1773   17.5908 N   0  0  0  0  0  0  0  0  0  0  0  0
   15.5805  -19.1852   21.1828 C   0  0  0  0  0  0  0  0  0  0  0  0
   15.9995  -17.8528   21.3475 O   0  0  0  0  0  0  0  0  0  0  0  0
   15.2554  -19.8240   22.1632 O   0  0  0  0  0  0  0  0  0  0  0  0
  1  2  1  0
  2  3  1  0
  3  5  1  0
  3  4  1  6
  5  6  2  0
  7  8  1  0
  8 10  1  0
  9  8  2  0
 11 10  1  1
 11 13  1  0
 12 11  1  0
 12  5  1  0
 13 15  1  0
 14 13  2  0
 15 16  1  0
 16 23  1  0
 16 17  1  6
 18 17  1  0
 19 18  2  0
 20 19  1  0
 21 20  1  0
 21 22  2  0
 22 18  1  0
 23 25  2  0
 23 24  1  0
M  END
$$$$
