SNH.pdb
     RDKit          3D

 25 25  0  0  1  0  0  0  0  0999 V2000
    8.9847  -14.8465   15.2547 O   0  0  0  0  0  0  0  0  0  0  0  0
    9.5347  -14.8848   16.5541 C   0  0  0  0  0  0  0  0  0  0  0  0
    8.4812  -14.2955   17.4703 C   0  0  2  0  0  0  0  0  0  0  0  0
    8.1442  -12.9478   17.0810 N   0  0  0  0  0  0  0  0  0  0  0  0
    8.8721  -14.3635   18.8827 C   0  0  0  0  0  0  0  0  0  0  0  0
    9.7269  -13.5226   19.3081 O   0  0  0  0  0  0  0  0  0  0  0  0
    5.5569  -15.5943   21.3410 N   0  0  0  0  0  0  0  0  0  0  0  0
    6.6699  -15.4534   22.2220 C   0  0  0  0  0  0  0  0  0  0  0  0
    6.5725  -14.6745   23.1792 O   0  0  0  0  0  0  0  0  0  0  0  0
    7.9014  -16.2252   21.9843 C   0  0  0  0  0  0  0  0  0  0  0  0
    8.8189  -15.4932   21.0622 C   0  0  2  0  0  0  0  0  0  0  0  0
    8.3031  -15.3461   19.7379 N   0  0  0  0  0  0  0  0  0  0  0  0
   10.1306  -16.2274   21.0686 C   0  0  0  0  0  0  0  0  0  0  0  0
   10.3030  -17.2630   20.3770 O   0  0  0  0  0  0  0  0  0  0  0  0
   11.2262  -15.7899   21.8487 N   0  0  0  0  0  0  0  0  0  0  0  0
   12.5006  -16.5682   21.9049 C   0  0  1  0  0  0  0  0  0  0  0  0
   13.5424  -15.5828   21.4796 C   0  0  0  0  0  0  0  0  0  0  0  0
   13.6860  -15.3355   20.0479 C   0  0  0  0  0  0  0  0  0  0  0  0
   13.4465  -16.1429   18.9679 C   0  0  0  0  0  0  0  0  0  0  0  0
   13.6772  -15.4160   17.8457 N   0  0  0  0  0  0  0  0  0  0  0  0
   14.0446  -14.2035   18.2210 C   0  0  0  0  0  0  0  0  0  0  0  0
   14.0573  -14.1301   19.5402 N   0  0  0  0  0  0  0  0  0  0  0  0
   12.7028  -16.9334   23.3500 C   0  0  0  0  0  0  0  0  0  0  0  0
   13.8261  -17.7042   23.6995 O   0  0  0  0  0  0  0  0  0  0  0  0
   11.9331  -16.5876   24.2235 O   0  0  0  0  0  0  0  0  0  0  0  0
  1  2  1  0
  2  3  1  0
  3  5  1  0
  3  4  1  6
  5  6  2  0
  7  8  1  0
  8 10  1  0
  9  8  2  0
 11 10  1  1
 11 13  1  0
 12 11  1  0
 12  5  1  0
 13 15  1  0
 14 13  2  0
 15 16  1  0
 16 23  1  0
 16 17  1  1
 18 17  1  0
 19 18  2  0
 20 19  1  0
 21 20  1  0
 21 22  2  0
 22 18  1  0
 23 25  2  0
 23 24  1  0
M  END
$$$$
