ATC.pdb
     RDKit          3D

 19 18  0  0  1  0  0  0  0  0999 V2000
   14.7050   -9.3099  -15.7802 C   0  0  0  0  0  0  0  0  0  0  0  0
   15.7287   -9.9931  -16.6817 C   0  0  2  0  0  0  0  0  0  0  0  0
   15.3893  -11.3769  -16.9075 N   0  0  0  0  0  0  0  0  0  0  0  0
   17.0615   -9.9099  -16.0314 C   0  0  0  0  0  0  0  0  0  0  0  0
   17.3435  -10.6578  -15.0615 O   0  0  0  0  0  0  0  0  0  0  0  0
   20.1942  -10.5498  -17.5404 C   0  0  0  0  0  0  0  0  0  0  0  0
   20.3741   -9.1122  -17.0637 C   0  0  1  0  0  0  0  0  0  0  0  0
   20.1244   -8.2142  -18.0987 O   0  0  0  0  0  0  0  0  0  0  0  0
   19.3675   -8.8745  -15.9384 C   0  0  2  0  0  0  0  0  0  0  0  0
   18.0476   -8.9909  -16.4824 N   0  0  0  0  0  0  0  0  0  0  0  0
   19.6493   -7.5498  -15.3560 C   0  0  0  0  0  0  0  0  0  0  0  0
   19.0062   -6.4964  -15.5831 O   0  0  0  0  0  0  0  0  0  0  0  0
   20.7404   -7.4317  -14.4558 N   0  0  0  0  0  0  0  0  0  0  0  0
   21.0444   -6.2096  -13.8059 C   0  0  1  0  0  0  0  0  0  0  0  0
   21.5348   -6.3327  -12.4005 C   0  0  0  0  0  0  0  0  0  0  0  0
   20.2733   -7.2010  -11.4304 S   0  0  0  0  0  0  0  0  0  0  0  0
   22.0838   -5.5033  -14.5940 C   0  0  0  0  0  0  0  0  0  0  0  0
   22.4559   -4.1875  -14.2687 O   0  0  0  0  0  0  0  0  0  0  0  0
   22.6458   -6.0624  -15.5578 O   0  0  0  0  0  0  0  0  0  0  0  0
  2  3  1  0
  2  4  1  0
  2  1  1  1
  4 10  1  0
  5  4  2  0
  7  8  1  0
  7  6  1  6
  9  7  1  0
  9 10  1  6
 11 13  1  0
 11  9  1  0
 12 11  2  0
 14 13  1  0
 14 17  1  0
 14 15  1  1
 16 15  1  0
 17 18  1  0
 19 17  2  0
M  END
$$$$
