ATC.pdb
     RDKit          3D

 19 18  0  0  1  0  0  0  0  0999 V2000
   15.5812  -10.3117  -10.4611 C   0  0  0  0  0  0  0  0  0  0  0  0
   15.2164  -10.5664  -11.9204 C   0  0  2  0  0  0  0  0  0  0  0  0
   14.7344  -11.9123  -12.1142 N   0  0  0  0  0  0  0  0  0  0  0  0
   16.4255  -10.3485  -12.7550 C   0  0  0  0  0  0  0  0  0  0  0  0
   17.2936  -11.2507  -12.8645 O   0  0  0  0  0  0  0  0  0  0  0  0
   16.7773   -9.7554  -16.2417 C   0  0  0  0  0  0  0  0  0  0  0  0
   17.3649   -8.4819  -15.6425 C   0  0  1  0  0  0  0  0  0  0  0  0
   16.4119   -7.4668  -15.6093 O   0  0  0  0  0  0  0  0  0  0  0  0
   17.8019   -8.8079  -14.2146 C   0  0  2  0  0  0  0  0  0  0  0  0
   16.6346   -9.1250  -13.4476 N   0  0  0  0  0  0  0  0  0  0  0  0
   18.5487   -7.6469  -13.6973 C   0  0  0  0  0  0  0  0  0  0  0  0
   18.1425   -6.8430  -12.8234 O   0  0  0  0  0  0  0  0  0  0  0  0
   19.8447   -7.3967  -14.2195 N   0  0  0  0  0  0  0  0  0  0  0  0
   20.6014   -6.2634  -13.8305 C   0  0  1  0  0  0  0  0  0  0  0  0
   21.8872   -6.5577  -13.1299 C   0  0  0  0  0  0  0  0  0  0  0  0
   22.7124   -4.9848  -12.7681 S   0  0  0  0  0  0  0  0  0  0  0  0
   20.9116   -5.4661  -15.0423 C   0  0  0  0  0  0  0  0  0  0  0  0
   20.9046   -4.0614  -14.9944 O   0  0  0  0  0  0  0  0  0  0  0  0
   21.1836   -6.0259  -16.1240 O   0  0  0  0  0  0  0  0  0  0  0  0
  2  3  1  0
  2  4  1  0
  2  1  1  1
  4 10  1  0
  5  4  2  0
  7  8  1  0
  7  6  1  1
  9  7  1  0
  9 10  1  1
 11 13  1  0
 11  9  1  0
 12 11  2  0
 14 13  1  0
 14 17  1  0
 14 15  1  6
 16 15  1  0
 17 18  1  0
 19 17  2  0
M  END
$$$$
