ATC.pdb
     RDKit          3D

 19 18  0  0  1  0  0  0  0  0999 V2000
   25.5413  -20.5639   -8.5489 C   0  0  0  0  0  0  0  0  0  0  0  0
   24.1276  -20.4391   -9.1086 C   0  0  2  0  0  0  0  0  0  0  0  0
   23.1957  -21.2546   -8.3685 N   0  0  0  0  0  0  0  0  0  0  0  0
   24.1421  -20.8696  -10.5300 C   0  0  0  0  0  0  0  0  0  0  0  0
   23.9604  -22.0763  -10.8308 O   0  0  0  0  0  0  0  0  0  0  0  0
   22.5078  -21.9519  -12.5229 C   0  0  0  0  0  0  0  0  0  0  0  0
   22.7488  -20.6203  -13.2265 C   0  0  1  0  0  0  0  0  0  0  0  0
   21.9132  -19.6320  -12.7119 O   0  0  0  0  0  0  0  0  0  0  0  0
   24.2047  -20.2281  -12.9760 C   0  0  2  0  0  0  0  0  0  0  0  0
   24.3598  -19.9387  -11.5818 N   0  0  0  0  0  0  0  0  0  0  0  0
   24.5192  -19.0855  -13.8528 C   0  0  0  0  0  0  0  0  0  0  0  0
   24.1741  -17.8946  -13.6589 O   0  0  0  0  0  0  0  0  0  0  0  0
   25.2790  -19.3305  -15.0265 N   0  0  0  0  0  0  0  0  0  0  0  0
   25.7862  -18.2737  -15.8230 C   0  0  1  0  0  0  0  0  0  0  0  0
   27.2222  -18.3953  -16.2149 C   0  0  0  0  0  0  0  0  0  0  0  0
   28.2129  -18.5628  -14.7061 S   0  0  0  0  0  0  0  0  0  0  0  0
   24.9777  -18.1897  -17.0638 C   0  0  0  0  0  0  0  0  0  0  0  0
   25.1633  -17.1289  -17.9670 O   0  0  0  0  0  0  0  0  0  0  0  0
   24.1200  -19.0567  -17.3283 O   0  0  0  0  0  0  0  0  0  0  0  0
  2  3  1  0
  2  4  1  0
  2  1  1  1
  4 10  1  0
  5  4  2  0
  7  8  1  0
  7  6  1  1
  9  7  1  0
  9 10  1  1
 11 13  1  0
 11  9  1  0
 12 11  2  0
 14 13  1  0
 14 17  1  0
 14 15  1  6
 16 15  1  0
 17 18  1  0
 19 17  2  0
M  END
$$$$
