ATC.pdb
     RDKit          3D

 19 18  0  0  1  0  0  0  0  0999 V2000
   21.8657  -16.5455  -15.7824 C   0  0  0  0  0  0  0  0  0  0  0  0
   21.2659  -15.3183  -16.4621 C   0  0  2  0  0  0  0  0  0  0  0  0
   21.9739  -14.9915  -17.6758 N   0  0  0  0  0  0  0  0  0  0  0  0
   21.3417  -14.1721  -15.5206 C   0  0  0  0  0  0  0  0  0  0  0  0
   20.8153  -14.2486  -14.3820 O   0  0  0  0  0  0  0  0  0  0  0  0
   24.2313  -12.3597  -14.1943 C   0  0  0  0  0  0  0  0  0  0  0  0
   23.4581  -11.2897  -14.9582 C   0  0  1  0  0  0  0  0  0  0  0  0
   23.9935  -11.1082  -16.2310 O   0  0  0  0  0  0  0  0  0  0  0  0
   22.0135  -11.7727  -15.0849 C   0  0  2  0  0  0  0  0  0  0  0  0
   22.0053  -12.9664  -15.8763 N   0  0  0  0  0  0  0  0  0  0  0  0
   21.2222  -10.6742  -15.6684 C   0  0  0  0  0  0  0  0  0  0  0  0
   20.7957  -10.6228  -16.8476 O   0  0  0  0  0  0  0  0  0  0  0  0
   20.9024   -9.5657  -14.8415 N   0  0  0  0  0  0  0  0  0  0  0  0
   20.1721   -8.4541  -15.3308 C   0  0  1  0  0  0  0  0  0  0  0  0
   18.7020   -8.4840  -15.0688 C   0  0  0  0  0  0  0  0  0  0  0  0
   18.0016   -6.8876  -15.5654 S   0  0  0  0  0  0  0  0  0  0  0  0
   20.7225   -7.2216  -14.7155 C   0  0  0  0  0  0  0  0  0  0  0  0
   20.6770   -5.9974  -15.4045 O   0  0  0  0  0  0  0  0  0  0  0  0
   21.2348   -7.2486  -13.5779 O   0  0  0  0  0  0  0  0  0  0  0  0
  2  3  1  0
  2  4  1  0
  2  1  1  1
  4 10  1  0
  5  4  2  0
  7  8  1  0
  7  6  1  6
  9  7  1  0
  9 10  1  6
 11 13  1  0
 11  9  1  0
 12 11  2  0
 14 13  1  0
 14 17  1  0
 14 15  1  1
 16 15  1  0
 17 18  1  0
 19 17  2  0
M  END
$$$$
