ATC.pdb
     RDKit          3D

 19 18  0  0  1  0  0  0  0  0999 V2000
   19.3728  -13.4493  -18.2543 C   0  0  0  0  0  0  0  0  0  0  0  0
   19.0961  -12.4320  -17.1515 C   0  0  2  0  0  0  0  0  0  0  0  0
   17.8182  -11.7892  -17.3384 N   0  0  0  0  0  0  0  0  0  0  0  0
   20.1726  -11.4089  -17.1712 C   0  0  0  0  0  0  0  0  0  0  0  0
   21.3713  -11.7436  -16.9959 O   0  0  0  0  0  0  0  0  0  0  0  0
   21.1579   -9.1204  -19.8326 C   0  0  0  0  0  0  0  0  0  0  0  0
   20.7091   -8.2026  -18.7001 C   0  0  1  0  0  0  0  0  0  0  0  0
   19.3772   -7.8303  -18.8649 O   0  0  0  0  0  0  0  0  0  0  0  0
   20.8548   -8.9833  -17.3942 C   0  0  2  0  0  0  0  0  0  0  0  0
   19.8818  -10.0343  -17.3867 N   0  0  0  0  0  0  0  0  0  0  0  0
   20.6995   -8.0295  -16.2809 C   0  0  0  0  0  0  0  0  0  0  0  0
   19.6431   -7.8186  -15.6370 O   0  0  0  0  0  0  0  0  0  0  0  0
   21.8322   -7.2713  -15.8848 N   0  0  0  0  0  0  0  0  0  0  0  0
   21.7705   -6.3335  -14.8241 C   0  0  1  0  0  0  0  0  0  0  0  0
   22.4505   -6.7460  -13.5600 C   0  0  0  0  0  0  0  0  0  0  0  0
   22.4403   -5.3360  -12.4207 S   0  0  0  0  0  0  0  0  0  0  0  0
   22.3852   -5.0636  -15.2823 C   0  0  0  0  0  0  0  0  0  0  0  0
   22.0540   -3.8456  -14.6640 O   0  0  0  0  0  0  0  0  0  0  0  0
   23.2057   -5.0530  -16.2225 O   0  0  0  0  0  0  0  0  0  0  0  0
  2  3  1  0
  2  4  1  0
  2  1  1  6
  4 10  1  0
  5  4  2  0
  7  8  1  0
  7  6  1  6
  9  7  1  0
  9 10  1  1
 11 13  1  0
 11  9  1  0
 12 11  2  0
 14 13  1  0
 14 17  1  0
 14 15  1  1
 16 15  1  0
 17 18  1  0
 19 17  2  0
M  END
$$$$
