ATC.pdb
     RDKit          3D

 19 18  0  0  1  0  0  0  0  0999 V2000
   14.5591  -12.3700  -15.4918 C   0  0  0  0  0  0  0  0  0  0  0  0
   15.5646  -12.9395  -16.4880 C   0  0  2  0  0  0  0  0  0  0  0  0
   15.4915  -14.3792  -16.5433 N   0  0  0  0  0  0  0  0  0  0  0  0
   16.9292  -12.5287  -16.0696 C   0  0  0  0  0  0  0  0  0  0  0  0
   17.5520  -13.1863  -15.1982 O   0  0  0  0  0  0  0  0  0  0  0  0
   19.8880  -12.2198  -18.0934 C   0  0  0  0  0  0  0  0  0  0  0  0
   19.7100  -10.8081  -17.5442 C   0  0  1  0  0  0  0  0  0  0  0  0
   19.0499   -9.9995  -18.4662 O   0  0  0  0  0  0  0  0  0  0  0  0
   18.8661  -10.9148  -16.2743 C   0  0  2  0  0  0  0  0  0  0  0  0
   17.5648  -11.3909  -16.6368 N   0  0  0  0  0  0  0  0  0  0  0  0
   18.8496   -9.5874  -15.6331 C   0  0  0  0  0  0  0  0  0  0  0  0
   17.9209   -8.7469  -15.7095 O   0  0  0  0  0  0  0  0  0  0  0  0
   19.9737   -9.2046  -14.8554 N   0  0  0  0  0  0  0  0  0  0  0  0
   20.0799   -7.9141  -14.2795 C   0  0  1  0  0  0  0  0  0  0  0  0
   20.7100   -7.8631  -12.9264 C   0  0  0  0  0  0  0  0  0  0  0  0
   19.5558   -8.5895  -11.7321 S   0  0  0  0  0  0  0  0  0  0  0  0
   20.8781   -7.0567  -15.1897 C   0  0  0  0  0  0  0  0  0  0  0  0
   20.9773   -5.6731  -14.9637 O   0  0  0  0  0  0  0  0  0  0  0  0
   21.4746   -7.5465  -16.1703 O   0  0  0  0  0  0  0  0  0  0  0  0
  2  3  1  0
  2  4  1  0
  2  1  1  1
  4 10  1  0
  5  4  2  0
  7  8  1  0
  7  6  1  6
  9  7  1  0
  9 10  1  6
 11 13  1  0
 11  9  1  0
 12 11  2  0
 14 13  1  0
 14 17  1  0
 14 15  1  1
 16 15  1  0
 17 18  1  0
 19 17  2  0
M  END
$$$$
