ATC.pdb
     RDKit          3D

 19 18  0  0  1  0  0  0  0  0999 V2000
   17.6758  -13.0544  -17.0079 C   0  0  0  0  0  0  0  0  0  0  0  0
   18.0833  -12.3202  -15.7342 C   0  0  2  0  0  0  0  0  0  0  0  0
   16.9424  -12.0584  -14.8909 N   0  0  0  0  0  0  0  0  0  0  0  0
   18.7238  -11.0350  -16.1136 C   0  0  0  0  0  0  0  0  0  0  0  0
   19.7947  -11.0282  -16.7715 O   0  0  0  0  0  0  0  0  0  0  0  0
   17.0074   -8.3068  -17.9472 C   0  0  0  0  0  0  0  0  0  0  0  0
   17.4975   -7.6621  -16.6548 C   0  0  1  0  0  0  0  0  0  0  0  0
   16.4847   -7.6408  -15.6990 O   0  0  0  0  0  0  0  0  0  0  0  0
   18.6609   -8.5064  -16.1355 C   0  0  2  0  0  0  0  0  0  0  0  0
   18.1502   -9.7871  -15.7475 N   0  0  0  0  0  0  0  0  0  0  0  0
   19.2947   -7.7658  -15.0294 C   0  0  0  0  0  0  0  0  0  0  0  0
   19.1855   -8.0347  -13.8085 O   0  0  0  0  0  0  0  0  0  0  0  0
   20.1050   -6.6455  -15.3504 N   0  0  0  0  0  0  0  0  0  0  0  0
   20.7855   -5.9045  -14.3523 C   0  0  1  0  0  0  0  0  0  0  0  0
   22.1755   -6.3589  -14.0488 C   0  0  0  0  0  0  0  0  0  0  0  0
   22.9363   -5.1561  -12.9262 S   0  0  0  0  0  0  0  0  0  0  0  0
   20.8502   -4.4860  -14.7813 C   0  0  0  0  0  0  0  0  0  0  0  0
   20.7775   -3.4493  -13.8350 O   0  0  0  0  0  0  0  0  0  0  0  0
   20.9702   -4.1873  -15.9871 O   0  0  0  0  0  0  0  0  0  0  0  0
  2  3  1  0
  2  4  1  0
  2  1  1  6
  4 10  1  0
  5  4  2  0
  7  8  1  0
  7  6  1  6
  9  7  1  0
  9 10  1  1
 11 13  1  0
 11  9  1  0
 12 11  2  0
 14 13  1  0
 14 17  1  0
 14 15  1  6
 16 15  1  0
 17 18  1  0
 19 17  2  0
M  END
$$$$
