ATC.pdb
     RDKit          3D

 19 18  0  0  1  0  0  0  0  0999 V2000
   23.1072  -14.1783  -18.5416 C   0  0  0  0  0  0  0  0  0  0  0  0
   24.1864  -13.1028  -18.6207 C   0  0  2  0  0  0  0  0  0  0  0  0
   25.5056  -13.6848  -18.6674 N   0  0  0  0  0  0  0  0  0  0  0  0
   24.0724  -12.2298  -17.4244 C   0  0  0  0  0  0  0  0  0  0  0  0
   23.7071  -12.7078  -16.3210 O   0  0  0  0  0  0  0  0  0  0  0  0
   26.6331  -10.1657  -15.8769 C   0  0  0  0  0  0  0  0  0  0  0  0
   25.5554   -9.1563  -16.2589 C   0  0  1  0  0  0  0  0  0  0  0  0
   25.8610   -8.5434  -17.4716 O   0  0  0  0  0  0  0  0  0  0  0  0
   24.2408   -9.9230  -16.4005 C   0  0  2  0  0  0  0  0  0  0  0  0
   24.3702  -10.8416  -17.4917 N   0  0  0  0  0  0  0  0  0  0  0  0
   23.1626   -8.9351  -16.5874 C   0  0  0  0  0  0  0  0  0  0  0  0
   22.6825   -8.5722  -17.6886 O   0  0  0  0  0  0  0  0  0  0  0  0
   22.6026   -8.3276  -15.4332 N   0  0  0  0  0  0  0  0  0  0  0  0
   21.5105   -7.4284  -15.5169 C   0  0  1  0  0  0  0  0  0  0  0  0
   20.4415   -7.6170  -14.4912 C   0  0  0  0  0  0  0  0  0  0  0  0
   19.8094   -9.3102  -14.6310 S   0  0  0  0  0  0  0  0  0  0  0  0
   22.0293   -6.0445  -15.3894 C   0  0  0  0  0  0  0  0  0  0  0  0
   21.1673   -4.9429  -15.5263 O   0  0  0  0  0  0  0  0  0  0  0  0
   23.2374   -5.8332  -15.1589 O   0  0  0  0  0  0  0  0  0  0  0  0
  2  3  1  0
  2  4  1  0
  2  1  1  1
  4 10  1  0
  5  4  2  0
  7  8  1  0
  7  6  1  6
  9  7  1  0
  9 10  1  6
 11 13  1  0
 11  9  1  0
 12 11  2  0
 14 13  1  0
 14 17  1  0
 14 15  1  1
 16 15  1  0
 17 18  1  0
 19 17  2  0
M  END
$$$$
