ATC.pdb
     RDKit          3D

 19 18  0  0  1  0  0  0  0  0999 V2000
   23.4914  -15.8864  -20.4914 C   0  0  0  0  0  0  0  0  0  0  0  0
   23.4621  -15.3685  -19.0567 C   0  0  2  0  0  0  0  0  0  0  0  0
   22.1689  -15.5727  -18.4507 N   0  0  0  0  0  0  0  0  0  0  0  0
   23.7784  -13.9174  -19.0713 C   0  0  0  0  0  0  0  0  0  0  0  0
   24.8763  -13.5105  -19.5282 O   0  0  0  0  0  0  0  0  0  0  0  0
   21.8806  -11.2873  -20.7540 C   0  0  0  0  0  0  0  0  0  0  0  0
   21.8443  -10.8966  -19.2802 C   0  0  1  0  0  0  0  0  0  0  0  0
   20.6824  -11.3673  -18.6733 O   0  0  0  0  0  0  0  0  0  0  0  0
   23.0578  -11.5375  -18.6074 C   0  0  2  0  0  0  0  0  0  0  0  0
   22.8578  -12.9554  -18.5739 N   0  0  0  0  0  0  0  0  0  0  0  0
   23.2026  -10.9318  -17.2711 C   0  0  0  0  0  0  0  0  0  0  0  0
   22.6601  -11.3422  -16.2166 O   0  0  0  0  0  0  0  0  0  0  0  0
   24.0240   -9.7814  -17.1421 N   0  0  0  0  0  0  0  0  0  0  0  0
   24.2518   -9.1623  -15.8878 C   0  0  1  0  0  0  0  0  0  0  0  0
   25.5341   -8.4063  -15.7667 C   0  0  0  0  0  0  0  0  0  0  0  0
   26.9049   -9.5874  -15.8767 S   0  0  0  0  0  0  0  0  0  0  0  0
   23.1374   -8.2210  -15.6182 C   0  0  0  0  0  0  0  0  0  0  0  0
   22.1527   -7.9819  -16.5922 O   0  0  0  0  0  0  0  0  0  0  0  0
   23.0536   -7.6256  -14.5247 O   0  0  0  0  0  0  0  0  0  0  0  0
  2  3  1  0
  2  4  1  0
  2  1  1  6
  4 10  1  0
  5  4  2  0
  7  8  1  0
  7  6  1  6
  9  7  1  0
  9 10  1  1
 11 13  1  0
 11  9  1  0
 12 11  2  0
 14 13  1  0
 14 17  1  0
 14 15  1  6
 16 15  1  0
 17 18  1  0
 19 17  2  0
M  END
$$$$
