ATC.pdb
     RDKit          3D

 19 18  0  0  1  0  0  0  0  0999 V2000
   23.1289  -20.1096   -9.4288 C   0  0  0  0  0  0  0  0  0  0  0  0
   24.0151  -21.2462   -9.9293 C   0  0  2  0  0  0  0  0  0  0  0  0
   24.7545  -21.8509   -8.8482 N   0  0  0  0  0  0  0  0  0  0  0  0
   24.9636  -20.6994  -10.9329 C   0  0  0  0  0  0  0  0  0  0  0  0
   26.0700  -20.2262  -10.5704 O   0  0  0  0  0  0  0  0  0  0  0  0
   26.2012  -22.4570  -13.9761 C   0  0  0  0  0  0  0  0  0  0  0  0
   25.5319  -21.1896  -14.4977 C   0  0  1  0  0  0  0  0  0  0  0  0
   24.2271  -21.4534  -14.9073 O   0  0  0  0  0  0  0  0  0  0  0  0
   25.5040  -20.1816  -13.3492 C   0  0  2  0  0  0  0  0  0  0  0  0
   24.6510  -20.6952  -12.3195 N   0  0  0  0  0  0  0  0  0  0  0  0
   25.0531  -18.8892  -13.8967 C   0  0  0  0  0  0  0  0  0  0  0  0
   23.8814  -18.4420  -13.8525 O   0  0  0  0  0  0  0  0  0  0  0  0
   26.0125  -18.0603  -14.5350 N   0  0  0  0  0  0  0  0  0  0  0  0
   25.6695  -16.7921  -15.0662 C   0  0  1  0  0  0  0  0  0  0  0  0
   26.8022  -15.8309  -15.2199 C   0  0  0  0  0  0  0  0  0  0  0  0
   26.1514  -14.2890  -15.9161 S   0  0  0  0  0  0  0  0  0  0  0  0
   25.0533  -16.9917  -16.4007 C   0  0  0  0  0  0  0  0  0  0  0  0
   23.9595  -16.2082  -16.8071 O   0  0  0  0  0  0  0  0  0  0  0  0
   25.4932  -17.8567  -17.1854 O   0  0  0  0  0  0  0  0  0  0  0  0
  2  3  1  0
  2  4  1  0
  2  1  1  1
  4 10  1  0
  5  4  2  0
  7  8  1  0
  7  6  1  1
  9  7  1  0
  9 10  1  1
 11 13  1  0
 11  9  1  0
 12 11  2  0
 14 13  1  0
 14 17  1  0
 14 15  1  6
 16 15  1  0
 17 18  1  0
 19 17  2  0
M  END
$$$$
