ATC.pdb
     RDKit          3D

 19 18  0  0  1  0  0  0  0  0999 V2000
   20.0510  -13.8535  -17.1091 C   0  0  0  0  0  0  0  0  0  0  0  0
   19.8747  -12.3839  -17.4793 C   0  0  2  0  0  0  0  0  0  0  0  0
   20.5472  -12.0694  -18.7162 N   0  0  0  0  0  0  0  0  0  0  0  0
   20.4350  -11.5503  -16.3852 C   0  0  0  0  0  0  0  0  0  0  0  0
   19.9848  -11.6495  -15.2159 O   0  0  0  0  0  0  0  0  0  0  0  0
   23.9077  -11.2386  -15.2284 C   0  0  0  0  0  0  0  0  0  0  0  0
   23.5431   -9.8273  -15.6773 C   0  0  1  0  0  0  0  0  0  0  0  0
   23.9977   -9.5883  -16.9719 O   0  0  0  0  0  0  0  0  0  0  0  0
   22.0187   -9.7192  -15.6520 C   0  0  2  0  0  0  0  0  0  0  0  0
   21.4866  -10.6247  -16.6259 N   0  0  0  0  0  0  0  0  0  0  0  0
   21.6640   -8.3104  -15.9025 C   0  0  0  0  0  0  0  0  0  0  0  0
   21.0849   -7.8700  -16.9251 O   0  0  0  0  0  0  0  0  0  0  0  0
   21.9976   -7.3490  -14.9129 N   0  0  0  0  0  0  0  0  0  0  0  0
   21.6280   -5.9867  -15.0394 C   0  0  1  0  0  0  0  0  0  0  0  0
   20.1595   -5.7211  -15.0988 C   0  0  0  0  0  0  0  0  0  0  0  0
   19.9045   -3.9264  -15.1070 S   0  0  0  0  0  0  0  0  0  0  0  0
   22.1829   -5.2394  -13.8844 C   0  0  0  0  0  0  0  0  0  0  0  0
   22.6722   -3.9320  -14.0480 O   0  0  0  0  0  0  0  0  0  0  0  0
   22.2254   -5.7559  -12.7492 O   0  0  0  0  0  0  0  0  0  0  0  0
  2  3  1  0
  2  4  1  0
  2  1  1  1
  4 10  1  0
  5  4  2  0
  7  8  1  0
  7  6  1  6
  9  7  1  0
  9 10  1  6
 11 13  1  0
 11  9  1  0
 12 11  2  0
 14 13  1  0
 14 17  1  0
 14 15  1  1
 16 15  1  0
 17 18  1  0
 19 17  2  0
M  END
$$$$
