VHN.pdb
     RDKit          3D

 26 26  0  0  1  0  0  0  0  0999 V2000
    8.9037  -13.3592   21.5956 C   0  0  0  0  0  0  0  0  0  0  0  0
    7.7567  -13.7422   20.6734 C   0  0  1  0  0  0  0  0  0  0  0  0
    7.1553  -12.5108   20.0432 C   0  0  0  0  0  0  0  0  0  0  0  0
    8.1704  -14.7334   19.6359 C   0  0  2  0  0  0  0  0  0  0  0  0
    7.0676  -14.9866   18.7559 N   0  0  0  0  0  0  0  0  0  0  0  0
    8.7068  -15.9891   20.2204 C   0  0  0  0  0  0  0  0  0  0  0  0
    7.9134  -16.8924   20.5843 O   0  0  0  0  0  0  0  0  0  0  0  0
   10.1087  -16.1747   20.3705 N   0  0  0  0  0  0  0  0  0  0  0  0
   10.7540  -17.3561   20.8575 C   0  0  1  0  0  0  0  0  0  0  0  0
   11.8751  -17.8414   20.0033 C   0  0  0  0  0  0  0  0  0  0  0  0
   11.4137  -18.4932   18.7596 C   0  0  0  0  0  0  0  0  0  0  0  0
   10.2082  -19.0937   18.5628 C   0  0  0  0  0  0  0  0  0  0  0  0
   10.1977  -19.5540   17.3026 N   0  0  0  0  0  0  0  0  0  0  0  0
   11.3559  -19.2671   16.6897 C   0  0  0  0  0  0  0  0  0  0  0  0
   12.1053  -18.6116   17.5923 N   0  0  0  0  0  0  0  0  0  0  0  0
   11.1169  -17.2820   22.3145 C   0  0  0  0  0  0  0  0  0  0  0  0
   11.6469  -16.2227   22.7249 O   0  0  0  0  0  0  0  0  0  0  0  0
   10.6019  -18.2513   27.7625 N   0  0  0  0  0  0  0  0  0  0  0  0
   11.1335  -19.2156   26.8297 C   0  0  0  0  0  0  0  0  0  0  0  0
   12.0149  -19.9668   27.3270 O   0  0  0  0  0  0  0  0  0  0  0  0
   10.6620  -19.2765   25.4475 C   0  0  0  0  0  0  0  0  0  0  0  0
   11.2974  -18.2436   24.5834 C   0  0  2  0  0  0  0  0  0  0  0  0
   10.8722  -18.3612   23.1931 N   0  0  0  0  0  0  0  0  0  0  0  0
   12.7603  -18.2686   24.6659 C   0  0  0  0  0  0  0  0  0  0  0  0
   13.5561  -17.4771   25.4421 O   0  0  0  0  0  0  0  0  0  0  0  0
   13.3699  -19.1233   23.9328 O   0  0  0  0  0  0  0  0  0  0  0  0
  2  1  1  6
  2  3  1  0
  4  2  1  0
  4  5  1  1
  6  4  1  0
  7  6  2  0
  8  6  1  0
  9  8  1  0
  9 10  1  6
 10 11  1  0
 11 12  2  0
 12 13  1  0
 14 13  1  0
 15 11  1  0
 15 14  2  0
 16 23  1  0
 16  9  1  0
 17 16  2  0
 19 18  1  0
 19 20  2  0
 22 21  1  1
 21 19  1  0
 22 24  1  0
 22 23  1  0
 24 25  1  0
 26 24  2  0
M  END
$$$$
