VHN.pdb
     RDKit          3D

 26 26  0  0  1  0  0  0  0  0999 V2000
    8.6591  -13.6554   19.4317 C   0  0  0  0  0  0  0  0  0  0  0  0
    7.8640  -14.2881   20.5631 C   0  0  1  0  0  0  0  0  0  0  0  0
    6.5814  -13.5284   20.7933 C   0  0  0  0  0  0  0  0  0  0  0  0
    7.5983  -15.7385   20.3271 C   0  0  2  0  0  0  0  0  0  0  0  0
    6.9703  -15.9035   19.0491 N   0  0  0  0  0  0  0  0  0  0  0  0
    6.8030  -16.3631   21.4151 C   0  0  0  0  0  0  0  0  0  0  0  0
    5.6951  -15.8666   21.7371 O   0  0  0  0  0  0  0  0  0  0  0  0
    7.2867  -17.5160   22.0928 N   0  0  0  0  0  0  0  0  0  0  0  0
    6.6182  -18.2139   23.1488 C   0  0  1  0  0  0  0  0  0  0  0  0
    5.7044  -19.2978   22.6881 C   0  0  0  0  0  0  0  0  0  0  0  0
    4.5915  -18.7994   21.8529 C   0  0  0  0  0  0  0  0  0  0  0  0
    3.4311  -18.2471   22.3012 C   0  0  0  0  0  0  0  0  0  0  0  0
    2.7002  -17.9336   21.2207 N   0  0  0  0  0  0  0  0  0  0  0  0
    3.3557  -18.2674   20.0990 C   0  0  0  0  0  0  0  0  0  0  0  0
    4.5240  -18.8022   20.4927 N   0  0  0  0  0  0  0  0  0  0  0  0
    7.5398  -18.6537   24.2522 C   0  0  0  0  0  0  0  0  0  0  0  0
    7.0226  -19.2080   25.2506 O   0  0  0  0  0  0  0  0  0  0  0  0
   11.3985  -16.4857   23.6646 N   0  0  0  0  0  0  0  0  0  0  0  0
   10.4486  -15.7229   24.4381 C   0  0  0  0  0  0  0  0  0  0  0  0
   10.5347  -14.4783   24.2590 O   0  0  0  0  0  0  0  0  0  0  0  0
    9.4956  -16.3776   25.3323 C   0  0  0  0  0  0  0  0  0  0  0  0
    9.6251  -17.8610   25.3143 C   0  0  2  0  0  0  0  0  0  0  0  0
    8.9362  -18.4532   24.1731 N   0  0  0  0  0  0  0  0  0  0  0  0
    9.1586  -18.4779   26.5591 C   0  0  0  0  0  0  0  0  0  0  0  0
    9.9249  -18.9177   27.5992 O   0  0  0  0  0  0  0  0  0  0  0  0
    7.8942  -18.6259   26.6969 O   0  0  0  0  0  0  0  0  0  0  0  0
  2  1  1  6
  2  3  1  0
  4  2  1  0
  4  5  1  6
  6  4  1  0
  7  6  2  0
  8  6  1  0
  9  8  1  0
  9 10  1  6
 10 11  1  0
 11 12  2  0
 12 13  1  0
 14 13  1  0
 15 11  1  0
 15 14  2  0
 16 23  1  0
 16  9  1  0
 17 16  2  0
 19 18  1  0
 19 20  2  0
 22 21  1  1
 21 19  1  0
 22 24  1  0
 22 23  1  0
 24 25  1  0
 26 24  2  0
M  END
$$$$
