VHN.pdb
     RDKit          3D

 26 26  0  0  1  0  0  0  0  0999 V2000
    9.2587  -20.2130   19.6534 C   0  0  0  0  0  0  0  0  0  0  0  0
    9.6799  -19.7273   18.2752 C   0  0  1  0  0  0  0  0  0  0  0  0
    9.1508  -20.6520   17.2076 C   0  0  0  0  0  0  0  0  0  0  0  0
    9.2660  -18.3152   18.0211 C   0  0  2  0  0  0  0  0  0  0  0  0
    9.6581  -17.9377   16.6950 N   0  0  0  0  0  0  0  0  0  0  0  0
    9.7900  -17.3692   19.0395 C   0  0  0  0  0  0  0  0  0  0  0  0
   10.9530  -16.9102   18.9195 O   0  0  0  0  0  0  0  0  0  0  0  0
    8.9857  -16.9812   20.1462 N   0  0  0  0  0  0  0  0  0  0  0  0
    9.3870  -16.1211   21.2178 C   0  0  1  0  0  0  0  0  0  0  0  0
    8.4737  -14.9673   21.4558 C   0  0  0  0  0  0  0  0  0  0  0  0
    8.2888  -14.1201   20.2590 C   0  0  0  0  0  0  0  0  0  0  0  0
    9.0390  -13.0386   19.9125 C   0  0  0  0  0  0  0  0  0  0  0  0
    8.5369  -12.5619   18.7633 N   0  0  0  0  0  0  0  0  0  0  0  0
    7.4920  -13.3032   18.3657 C   0  0  0  0  0  0  0  0  0  0  0  0
    7.3410  -14.2653   19.2918 N   0  0  0  0  0  0  0  0  0  0  0  0
    9.7382  -16.8605   22.4788 C   0  0  0  0  0  0  0  0  0  0  0  0
    8.8918  -17.6676   22.9302 O   0  0  0  0  0  0  0  0  0  0  0  0
   13.2212  -19.6941   23.0984 N   0  0  0  0  0  0  0  0  0  0  0  0
   13.3702  -18.2806   23.3481 C   0  0  0  0  0  0  0  0  0  0  0  0
   14.0767  -17.6875   22.4893 O   0  0  0  0  0  0  0  0  0  0  0  0
   12.7413  -17.6420   24.5027 C   0  0  0  0  0  0  0  0  0  0  0  0
   11.2756  -17.4527   24.3202 C   0  0  2  0  0  0  0  0  0  0  0  0
   10.9733  -16.6585   23.1347 N   0  0  0  0  0  0  0  0  0  0  0  0
   10.6374  -16.8602   25.4989 C   0  0  0  0  0  0  0  0  0  0  0  0
    9.9425  -15.6872   25.5583 O   0  0  0  0  0  0  0  0  0  0  0  0
   10.7366  -17.5055   26.6004 O   0  0  0  0  0  0  0  0  0  0  0  0
  2  1  1  1
  2  3  1  0
  4  2  1  0
  4  5  1  6
  6  4  1  0
  7  6  2  0
  8  6  1  0
  9  8  1  0
  9 10  1  1
 10 11  1  0
 11 12  2  0
 12 13  1  0
 14 13  1  0
 15 11  1  0
 15 14  2  0
 16 23  1  0
 16  9  1  0
 17 16  2  0
 19 18  1  0
 19 20  2  0
 22 21  1  1
 21 19  1  0
 22 24  1  0
 22 23  1  0
 24 25  1  0
 26 24  2  0
M  END
$$$$
