VHN.pdb
     RDKit          3D

 26 26  0  0  1  0  0  0  0  0999 V2000
    8.2411  -13.1071   18.3091 C   0  0  0  0  0  0  0  0  0  0  0  0
    8.4220  -13.0961   19.8191 C   0  0  1  0  0  0  0  0  0  0  0  0
    7.3724  -12.2288   20.4680 C   0  0  0  0  0  0  0  0  0  0  0  0
    8.4213  -14.4719   20.3999 C   0  0  2  0  0  0  0  0  0  0  0  0
    7.2011  -15.1354   20.0453 N   0  0  0  0  0  0  0  0  0  0  0  0
    8.6432  -14.4772   21.8686 C   0  0  0  0  0  0  0  0  0  0  0  0
    8.6938  -13.3881   22.4923 O   0  0  0  0  0  0  0  0  0  0  0  0
    8.7985  -15.7039   22.5711 N   0  0  0  0  0  0  0  0  0  0  0  0
    9.0491  -15.8449   23.9734 C   0  0  1  0  0  0  0  0  0  0  0  0
    7.8222  -15.8525   24.8200 C   0  0  0  0  0  0  0  0  0  0  0  0
    7.2886  -14.4982   25.0765 C   0  0  0  0  0  0  0  0  0  0  0  0
    7.8040  -13.3269   24.6130 C   0  0  0  0  0  0  0  0  0  0  0  0
    7.0217  -12.3406   25.0767 N   0  0  0  0  0  0  0  0  0  0  0  0
    6.0250  -12.8438   25.8202 C   0  0  0  0  0  0  0  0  0  0  0  0
    6.1925  -14.1773   25.8183 N   0  0  0  0  0  0  0  0  0  0  0  0
    9.9950  -16.9661   24.3022 C   0  0  0  0  0  0  0  0  0  0  0  0
    9.8095  -18.0655   23.7292 O   0  0  0  0  0  0  0  0  0  0  0  0
   13.2317  -17.6756   23.2453 N   0  0  0  0  0  0  0  0  0  0  0  0
   13.9493  -17.5246   24.4882 C   0  0  0  0  0  0  0  0  0  0  0  0
   15.1765  -17.2804   24.3366 O   0  0  0  0  0  0  0  0  0  0  0  0
   13.2725  -17.6521   25.7774 C   0  0  0  0  0  0  0  0  0  0  0  0
   11.8237  -17.9634   25.6313 C   0  0  2  0  0  0  0  0  0  0  0  0
   11.0549  -16.7938   25.2206 N   0  0  0  0  0  0  0  0  0  0  0  0
   11.2501  -18.5399   26.8504 C   0  0  0  0  0  0  0  0  0  0  0  0
   10.3101  -17.9785   27.6649 O   0  0  0  0  0  0  0  0  0  0  0  0
   11.6702  -19.6979   27.1998 O   0  0  0  0  0  0  0  0  0  0  0  0
  2  1  1  6
  2  3  1  0
  4  2  1  0
  4  5  1  1
  6  4  1  0
  7  6  2  0
  8  6  1  0
  9  8  1  0
  9 10  1  1
 10 11  1  0
 11 12  2  0
 12 13  1  0
 14 13  1  0
 15 11  1  0
 15 14  2  0
 16 23  1  0
 16  9  1  0
 17 16  2  0
 19 18  1  0
 19 20  2  0
 22 21  1  1
 21 19  1  0
 22 24  1  0
 22 23  1  0
 24 25  1  0
 26 24  2  0
M  END
$$$$
