VHN.pdb
     RDKit          3D

 26 26  0  0  1  0  0  0  0  0999 V2000
    7.3438  -19.6936   16.6963 C   0  0  0  0  0  0  0  0  0  0  0  0
    7.8932  -19.0519   17.9609 C   0  0  1  0  0  0  0  0  0  0  0  0
    9.2664  -19.5931   18.2712 C   0  0  0  0  0  0  0  0  0  0  0  0
    7.9051  -17.5608   17.8806 C   0  0  2  0  0  0  0  0  0  0  0  0
    8.6984  -17.1530   16.7585 N   0  0  0  0  0  0  0  0  0  0  0  0
    8.3633  -16.9197   19.1397 C   0  0  0  0  0  0  0  0  0  0  0  0
    9.5928  -16.8430   19.3850 O   0  0  0  0  0  0  0  0  0  0  0  0
    7.4216  -16.3940   20.0667 N   0  0  0  0  0  0  0  0  0  0  0  0
    7.7197  -15.8789   21.3686 C   0  0  1  0  0  0  0  0  0  0  0  0
    6.5399  -15.3367   22.1008 C   0  0  0  0  0  0  0  0  0  0  0  0
    6.8791  -14.8253   23.4454 C   0  0  0  0  0  0  0  0  0  0  0  0
    8.1251  -14.7448   23.9871 C   0  0  0  0  0  0  0  0  0  0  0  0
    7.9879  -14.2270   25.2171 N   0  0  0  0  0  0  0  0  0  0  0  0
    6.6964  -13.9748   25.4776 C   0  0  0  0  0  0  0  0  0  0  0  0
    6.0136  -14.3455   24.3810 N   0  0  0  0  0  0  0  0  0  0  0  0
    8.5506  -16.8118   22.2051 C   0  0  0  0  0  0  0  0  0  0  0  0
    8.1252  -17.9803   22.3632 O   0  0  0  0  0  0  0  0  0  0  0  0
   11.9879  -15.0564   23.0189 N   0  0  0  0  0  0  0  0  0  0  0  0
   12.6092  -16.3451   22.8304 C   0  0  0  0  0  0  0  0  0  0  0  0
   13.8061  -16.2769   22.4416 O   0  0  0  0  0  0  0  0  0  0  0  0
   11.8778  -17.5858   23.0799 C   0  0  0  0  0  0  0  0  0  0  0  0
   10.5095  -17.3422   23.6145 C   0  0  2  0  0  0  0  0  0  0  0  0
    9.7656  -16.3938   22.7929 N   0  0  0  0  0  0  0  0  0  0  0  0
   10.5260  -16.8944   25.0097 C   0  0  0  0  0  0  0  0  0  0  0  0
   10.0008  -15.7389   25.5112 O   0  0  0  0  0  0  0  0  0  0  0  0
   11.0936  -17.6641   25.8612 O   0  0  0  0  0  0  0  0  0  0  0  0
  2  1  1  6
  2  3  1  0
  4  2  1  0
  4  5  1  6
  6  4  1  0
  7  6  2  0
  8  6  1  0
  9  8  1  0
  9 10  1  1
 10 11  1  0
 11 12  2  0
 12 13  1  0
 14 13  1  0
 15 11  1  0
 15 14  2  0
 16 23  1  0
 16  9  1  0
 17 16  2  0
 19 18  1  0
 19 20  2  0
 22 21  1  6
 21 19  1  0
 22 24  1  0
 22 23  1  0
 24 25  1  0
 26 24  2  0
M  END
$$$$
