VHN.pdb
     RDKit          3D

 26 26  0  0  1  0  0  0  0  0999 V2000
    8.5637  -12.2342   26.0246 C   0  0  0  0  0  0  0  0  0  0  0  0
    7.2213  -12.7637   26.5047 C   0  0  1  0  0  0  0  0  0  0  0  0
    6.3808  -11.6405   27.0587 C   0  0  0  0  0  0  0  0  0  0  0  0
    6.4912  -13.5090   25.4363 C   0  0  2  0  0  0  0  0  0  0  0  0
    5.2648  -14.0236   25.9708 N   0  0  0  0  0  0  0  0  0  0  0  0
    7.3130  -14.5801   24.8168 C   0  0  0  0  0  0  0  0  0  0  0  0
    7.2801  -15.7416   25.2939 O   0  0  0  0  0  0  0  0  0  0  0  0
    8.1346  -14.2998   23.6904 N   0  0  0  0  0  0  0  0  0  0  0  0
    8.9590  -15.2410   22.9948 C   0  0  1  0  0  0  0  0  0  0  0  0
    9.4650  -14.7603   21.6776 C   0  0  0  0  0  0  0  0  0  0  0  0
    8.3816  -14.4104   20.7351 C   0  0  0  0  0  0  0  0  0  0  0  0
    8.0748  -13.1628   20.2859 C   0  0  0  0  0  0  0  0  0  0  0  0
    7.0312  -13.2891   19.4523 N   0  0  0  0  0  0  0  0  0  0  0  0
    6.6626  -14.5751   19.3551 C   0  0  0  0  0  0  0  0  0  0  0  0
    7.4987  -15.2657   20.1488 N   0  0  0  0  0  0  0  0  0  0  0  0
   10.0374  -15.8407   23.8536 C   0  0  0  0  0  0  0  0  0  0  0  0
   10.8207  -15.0516   24.4326 O   0  0  0  0  0  0  0  0  0  0  0  0
   13.1380  -18.9979   26.4699 N   0  0  0  0  0  0  0  0  0  0  0  0
   11.8275  -19.5970   26.3910 C   0  0  0  0  0  0  0  0  0  0  0  0
   11.7272  -20.6786   27.0302 O   0  0  0  0  0  0  0  0  0  0  0  0
   10.7495  -18.9702   25.6286 C   0  0  0  0  0  0  0  0  0  0  0  0
   11.2012  -17.7531   24.8993 C   0  0  2  0  0  0  0  0  0  0  0  0
   10.1683  -17.2393   24.0067 N   0  0  0  0  0  0  0  0  0  0  0  0
   12.4438  -17.9762   24.1552 C   0  0  0  0  0  0  0  0  0  0  0  0
   13.7087  -17.6416   24.5430 O   0  0  0  0  0  0  0  0  0  0  0  0
   12.3437  -18.5472   23.0135 O   0  0  0  0  0  0  0  0  0  0  0  0
  2  1  1  6
  2  3  1  0
  4  2  1  0
  4  5  1  1
  6  4  1  0
  7  6  2  0
  8  6  1  0
  9  8  1  0
  9 10  1  6
 10 11  1  0
 11 12  2  0
 12 13  1  0
 14 13  1  0
 15 11  1  0
 15 14  2  0
 16 23  1  0
 16  9  1  0
 17 16  2  0
 19 18  1  0
 19 20  2  0
 22 21  1  6
 21 19  1  0
 22 24  1  0
 22 23  1  0
 24 25  1  0
 26 24  2  0
M  END
$$$$
