VHN.pdb
     RDKit          3D

 26 26  0  0  1  0  0  0  0  0999 V2000
    8.9079  -20.3878   16.9809 C   0  0  0  0  0  0  0  0  0  0  0  0
    9.6011  -19.5490   18.0433 C   0  0  1  0  0  0  0  0  0  0  0  0
   11.0636  -19.9087   18.1256 C   0  0  0  0  0  0  0  0  0  0  0  0
    9.4164  -18.0843   17.8185 C   0  0  2  0  0  0  0  0  0  0  0  0
    9.9462  -17.7314   16.5341 N   0  0  0  0  0  0  0  0  0  0  0  0
   10.0050  -17.2564   18.9022 C   0  0  0  0  0  0  0  0  0  0  0  0
   11.1916  -16.8567   18.8026 O   0  0  0  0  0  0  0  0  0  0  0  0
    9.2360  -16.9147   20.0486 N   0  0  0  0  0  0  0  0  0  0  0  0
    9.7033  -16.1866   21.1891 C   0  0  1  0  0  0  0  0  0  0  0  0
    8.6443  -15.4214   21.9068 C   0  0  0  0  0  0  0  0  0  0  0  0
    7.8853  -14.5145   21.0203 C   0  0  0  0  0  0  0  0  0  0  0  0
    8.1792  -13.2121   20.7560 C   0  0  0  0  0  0  0  0  0  0  0  0
    7.2427  -12.7605   19.9081 N   0  0  0  0  0  0  0  0  0  0  0  0
    6.3618  -13.7311   19.6232 C   0  0  0  0  0  0  0  0  0  0  0  0
    6.7613  -14.8138   20.3119 N   0  0  0  0  0  0  0  0  0  0  0  0
   10.5612  -17.0067   22.1119 C   0  0  0  0  0  0  0  0  0  0  0  0
   10.7105  -18.2204   21.8358 O   0  0  0  0  0  0  0  0  0  0  0  0
   15.3327  -18.3332   22.8869 N   0  0  0  0  0  0  0  0  0  0  0  0
   14.8797  -17.0123   23.2509 C   0  0  0  0  0  0  0  0  0  0  0  0
   15.7018  -16.3743   23.9619 O   0  0  0  0  0  0  0  0  0  0  0  0
   13.5806  -16.5061   22.8120 C   0  0  0  0  0  0  0  0  0  0  0  0
   12.4658  -16.9664   23.6853 C   0  0  2  0  0  0  0  0  0  0  0  0
   11.1787  -16.4375   23.2482 N   0  0  0  0  0  0  0  0  0  0  0  0
   12.6903  -16.6412   25.0965 C   0  0  0  0  0  0  0  0  0  0  0  0
   11.9296  -15.8294   25.8868 O   0  0  0  0  0  0  0  0  0  0  0  0
   13.7102  -17.1715   25.6606 O   0  0  0  0  0  0  0  0  0  0  0  0
  2  1  1  6
  2  3  1  0
  4  2  1  0
  4  5  1  6
  6  4  1  0
  7  6  2  0
  8  6  1  0
  9  8  1  0
  9 10  1  1
 10 11  1  0
 11 12  2  0
 12 13  1  0
 14 13  1  0
 15 11  1  0
 15 14  2  0
 16 23  1  0
 16  9  1  0
 17 16  2  0
 19 18  1  0
 19 20  2  0
 22 21  1  6
 21 19  1  0
 22 24  1  0
 22 23  1  0
 24 25  1  0
 26 24  2  0
M  END
$$$$
