VHN.pdb
     RDKit          3D

 26 26  0  0  1  0  0  0  0  0999 V2000
    7.3130  -13.4857   13.3494 C   0  0  0  0  0  0  0  0  0  0  0  0
    8.0741  -14.5191   14.1653 C   0  0  1  0  0  0  0  0  0  0  0  0
    9.5603  -14.2890   14.0504 C   0  0  0  0  0  0  0  0  0  0  0  0
    7.6398  -14.5450   15.5938 C   0  0  2  0  0  0  0  0  0  0  0  0
    7.8115  -13.2415   16.1651 N   0  0  0  0  0  0  0  0  0  0  0  0
    8.3353  -15.5894   16.3886 C   0  0  0  0  0  0  0  0  0  0  0  0
    9.2807  -15.2636   17.1488 O   0  0  0  0  0  0  0  0  0  0  0  0
    7.9391  -16.9519   16.2945 N   0  0  0  0  0  0  0  0  0  0  0  0
    8.4973  -18.0437   17.0332 C   0  0  1  0  0  0  0  0  0  0  0  0
    7.7112  -19.3077   16.9515 C   0  0  0  0  0  0  0  0  0  0  0  0
    8.2406  -20.3750   17.8262 C   0  0  0  0  0  0  0  0  0  0  0  0
    8.1461  -20.4270   19.1830 C   0  0  0  0  0  0  0  0  0  0  0  0
    8.7548  -21.5555   19.5779 N   0  0  0  0  0  0  0  0  0  0  0  0
    9.2341  -22.2243   18.5186 C   0  0  0  0  0  0  0  0  0  0  0  0
    8.9149  -21.4925   17.4375 N   0  0  0  0  0  0  0  0  0  0  0  0
    9.9650  -18.2488   16.7802 C   0  0  0  0  0  0  0  0  0  0  0  0
   10.3657  -18.1563   15.5960 O   0  0  0  0  0  0  0  0  0  0  0  0
   15.5670  -18.6821   19.2736 N   0  0  0  0  0  0  0  0  0  0  0  0
   14.5840  -18.4260   18.2487 C   0  0  0  0  0  0  0  0  0  0  0  0
   15.0674  -18.3776   17.0858 O   0  0  0  0  0  0  0  0  0  0  0  0
   13.1713  -18.2462   18.5780 C   0  0  0  0  0  0  0  0  0  0  0  0
   12.2684  -18.7621   17.5121 C   0  0  2  0  0  0  0  0  0  0  0  0
   10.8636  -18.5348   17.8324 N   0  0  0  0  0  0  0  0  0  0  0  0
   12.4958  -20.1811   17.2252 C   0  0  0  0  0  0  0  0  0  0  0  0
   11.6464  -21.2194   17.4754 O   0  0  0  0  0  0  0  0  0  0  0  0
   13.6116  -20.4929   16.6799 O   0  0  0  0  0  0  0  0  0  0  0  0
  2  1  1  6
  2  3  1  0
  4  2  1  0
  4  5  1  1
  6  4  1  0
  7  6  2  0
  8  6  1  0
  9  8  1  0
  9 10  1  6
 10 11  1  0
 11 12  2  0
 12 13  1  0
 14 13  1  0
 15 11  1  0
 15 14  2  0
 16 23  1  0
 16  9  1  0
 17 16  2  0
 19 18  1  0
 19 20  2  0
 22 21  1  1
 21 19  1  0
 22 24  1  0
 22 23  1  0
 24 25  1  0
 26 24  2  0
M  END
$$$$
