VHN.pdb
     RDKit          3D

 26 26  0  0  1  0  0  0  0  0999 V2000
    8.1609  -11.6086   25.7213 C   0  0  0  0  0  0  0  0  0  0  0  0
    6.9721  -12.0820   26.5432 C   0  0  1  0  0  0  0  0  0  0  0  0
    6.3007  -10.9123   27.2186 C   0  0  0  0  0  0  0  0  0  0  0  0
    5.9979  -12.8686   25.7296 C   0  0  2  0  0  0  0  0  0  0  0  0
    4.9297  -13.3179   26.5732 N   0  0  0  0  0  0  0  0  0  0  0  0
    6.6339  -13.9958   25.0006 C   0  0  0  0  0  0  0  0  0  0  0  0
    6.7495  -15.1124   25.5641 O   0  0  0  0  0  0  0  0  0  0  0  0
    7.1115  -13.8192   23.6728 N   0  0  0  0  0  0  0  0  0  0  0  0
    7.7241  -14.8243   22.8581 C   0  0  1  0  0  0  0  0  0  0  0  0
    7.6984  -14.5318   21.3966 C   0  0  0  0  0  0  0  0  0  0  0  0
    8.1885  -15.6571   20.5733 C   0  0  0  0  0  0  0  0  0  0  0  0
    7.4368  -16.4506   19.7622 C   0  0  0  0  0  0  0  0  0  0  0  0
    8.2678  -17.3430   19.2029 N   0  0  0  0  0  0  0  0  0  0  0  0
    9.5239  -17.1450   19.6302 C   0  0  0  0  0  0  0  0  0  0  0  0
    9.4718  -16.1027   20.4768 N   0  0  0  0  0  0  0  0  0  0  0  0
    9.0817  -15.2456   23.3478 C   0  0  0  0  0  0  0  0  0  0  0  0
    9.8731  -14.3417   23.7055 O   0  0  0  0  0  0  0  0  0  0  0  0
   13.1093  -17.8069   25.2004 N   0  0  0  0  0  0  0  0  0  0  0  0
   11.8750  -18.4389   25.5999 C   0  0  0  0  0  0  0  0  0  0  0  0
   12.0304  -19.3640   26.4416 O   0  0  0  0  0  0  0  0  0  0  0  0
   10.5894  -18.0111   25.0516 C   0  0  0  0  0  0  0  0  0  0  0  0
   10.7371  -16.9555   24.0117 C   0  0  2  0  0  0  0  0  0  0  0  0
    9.4572  -16.6066   23.4055 N   0  0  0  0  0  0  0  0  0  0  0  0
   11.7018  -17.3256   22.9725 C   0  0  0  0  0  0  0  0  0  0  0  0
   11.4779  -17.4005   21.6284 O   0  0  0  0  0  0  0  0  0  0  0  0
   12.8891  -17.6129   23.3565 O   0  0  0  0  0  0  0  0  0  0  0  0
  2  1  1  6
  2  3  1  0
  4  2  1  0
  4  5  1  1
  6  4  1  0
  7  6  2  0
  8  6  1  0
  9  8  1  0
  9 10  1  6
 10 11  1  0
 11 12  2  0
 12 13  1  0
 14 13  1  0
 15 11  1  0
 15 14  2  0
 16 23  1  0
 16  9  1  0
 17 16  2  0
 19 18  1  0
 19 20  2  0
 22 21  1  1
 21 19  1  0
 22 24  1  0
 22 23  1  0
 24 25  1  0
 26 24  2  0
M  END
$$$$
