VHN.pdb
     RDKit          3D

 26 26  0  0  1  0  0  0  0  0999 V2000
    9.3895  -13.0979   20.5883 C   0  0  0  0  0  0  0  0  0  0  0  0
    8.5681  -13.8115   19.5259 C   0  0  1  0  0  0  0  0  0  0  0  0
    7.3199  -13.0257   19.2105 C   0  0  0  0  0  0  0  0  0  0  0  0
    9.3588  -14.0893   18.2899 C   0  0  2  0  0  0  0  0  0  0  0  0
    8.4946  -14.6413   17.2884 N   0  0  0  0  0  0  0  0  0  0  0  0
   10.5349  -14.9609   18.5422 C   0  0  0  0  0  0  0  0  0  0  0  0
   10.4025  -16.2092   18.4986 O   0  0  0  0  0  0  0  0  0  0  0  0
   11.8059  -14.3927   18.8321 N   0  0  0  0  0  0  0  0  0  0  0  0
   12.9778  -15.1114   19.2314 C   0  0  1  0  0  0  0  0  0  0  0  0
   14.2578  -14.5155   18.7533 C   0  0  0  0  0  0  0  0  0  0  0  0
   14.6600  -15.0050   17.4179 C   0  0  0  0  0  0  0  0  0  0  0  0
   14.6546  -16.2996   16.9980 C   0  0  0  0  0  0  0  0  0  0  0  0
   15.0905  -16.3047   15.7292 N   0  0  0  0  0  0  0  0  0  0  0  0
   15.3734  -15.0569   15.3263 C   0  0  0  0  0  0  0  0  0  0  0  0
   15.1064  -14.2559   16.3719 N   0  0  0  0  0  0  0  0  0  0  0  0
   13.0006  -15.4521   20.6955 C   0  0  0  0  0  0  0  0  0  0  0  0
   13.1316  -14.5057   21.5070 O   0  0  0  0  0  0  0  0  0  0  0  0
   10.3003  -18.9080   21.4631 N   0  0  0  0  0  0  0  0  0  0  0  0
   10.8295  -18.2450   22.6305 C   0  0  0  0  0  0  0  0  0  0  0  0
    9.9557  -17.6385   23.3066 O   0  0  0  0  0  0  0  0  0  0  0  0
   12.2532  -18.3005   22.9567 C   0  0  0  0  0  0  0  0  0  0  0  0
   12.9730  -17.0535   22.5769 C   0  0  2  0  0  0  0  0  0  0  0  0
   12.8792  -16.7858   21.1461 N   0  0  0  0  0  0  0  0  0  0  0  0
   14.3776  -17.0696   22.9946 C   0  0  0  0  0  0  0  0  0  0  0  0
   14.8578  -17.1260   24.2708 O   0  0  0  0  0  0  0  0  0  0  0  0
   15.2607  -17.0258   22.0684 O   0  0  0  0  0  0  0  0  0  0  0  0
  2  1  1  1
  2  3  1  0
  4  2  1  0
  4  5  1  6
  6  4  1  0
  7  6  2  0
  8  6  1  0
  9  8  1  0
  9 10  1  1
 10 11  1  0
 11 12  2  0
 12 13  1  0
 14 13  1  0
 15 11  1  0
 15 14  2  0
 16 23  1  0
 16  9  1  0
 17 16  2  0
 19 18  1  0
 19 20  2  0
 22 21  1  6
 21 19  1  0
 22 24  1  0
 22 23  1  0
 24 25  1  0
 26 24  2  0
M  END
$$$$
