VHN.pdb
     RDKit          3D

 26 26  0  0  1  0  0  0  0  0999 V2000
    7.1403  -18.2045   20.7289 C   0  0  0  0  0  0  0  0  0  0  0  0
    8.3187  -17.8705   19.8275 C   0  0  1  0  0  0  0  0  0  0  0  0
    8.0553  -18.3450   18.4203 C   0  0  0  0  0  0  0  0  0  0  0  0
    8.6575  -16.4163   19.8533 C   0  0  2  0  0  0  0  0  0  0  0  0
    9.7658  -16.1723   18.9776 N   0  0  0  0  0  0  0  0  0  0  0  0
    8.9188  -15.9100   21.2250 C   0  0  0  0  0  0  0  0  0  0  0  0
   10.0038  -16.1890   21.7930 O   0  0  0  0  0  0  0  0  0  0  0  0
    7.9512  -15.1138   21.8975 N   0  0  0  0  0  0  0  0  0  0  0  0
    8.0390  -14.6432   23.2465 C   0  0  1  0  0  0  0  0  0  0  0  0
    7.0532  -13.5800   23.5928 C   0  0  0  0  0  0  0  0  0  0  0  0
    7.1499  -13.1382   24.9999 C   0  0  0  0  0  0  0  0  0  0  0  0
    6.1599  -13.1925   25.9323 C   0  0  0  0  0  0  0  0  0  0  0  0
    6.6633  -12.6943   27.0717 N   0  0  0  0  0  0  0  0  0  0  0  0
    7.9407  -12.3243   26.8969 C   0  0  0  0  0  0  0  0  0  0  0  0
    8.2387  -12.5999   25.6158 N   0  0  0  0  0  0  0  0  0  0  0  0
    8.0899  -15.7491   24.2636 C   0  0  0  0  0  0  0  0  0  0  0  0
    7.2632  -16.6837   24.1429 O   0  0  0  0  0  0  0  0  0  0  0  0
   11.7855  -19.4690   26.1155 N   0  0  0  0  0  0  0  0  0  0  0  0
   10.3970  -19.1871   25.8416 C   0  0  0  0  0  0  0  0  0  0  0  0
    9.6076  -20.0694   26.2737 O   0  0  0  0  0  0  0  0  0  0  0  0
    9.9932  -17.9782   25.1262 C   0  0  0  0  0  0  0  0  0  0  0  0
    9.3152  -16.9921   26.0125 C   0  0  2  0  0  0  0  0  0  0  0  0
    9.0311  -15.7416   25.3174 N   0  0  0  0  0  0  0  0  0  0  0  0
   10.0752  -16.7259   27.2369 C   0  0  0  0  0  0  0  0  0  0  0  0
   10.6616  -15.5496   27.6041 O   0  0  0  0  0  0  0  0  0  0  0  0
   10.2106  -17.6970   28.0603 O   0  0  0  0  0  0  0  0  0  0  0  0
  2  1  1  1
  2  3  1  0
  4  2  1  0
  4  5  1  6
  6  4  1  0
  7  6  2  0
  8  6  1  0
  9  8  1  0
  9 10  1  1
 10 11  1  0
 11 12  2  0
 12 13  1  0
 14 13  1  0
 15 11  1  0
 15 14  2  0
 16 23  1  0
 16  9  1  0
 17 16  2  0
 19 18  1  0
 19 20  2  0
 22 21  1  6
 21 19  1  0
 22 24  1  0
 22 23  1  0
 24 25  1  0
 26 24  2  0
M  END
$$$$
