VHN.pdb
     RDKit          3D

 26 26  0  0  1  0  0  0  0  0999 V2000
    8.5030  -11.8846   19.6650 C   0  0  0  0  0  0  0  0  0  0  0  0
    8.5049  -13.2518   20.3311 C   0  0  1  0  0  0  0  0  0  0  0  0
    7.1226  -13.5974   20.8258 C   0  0  0  0  0  0  0  0  0  0  0  0
    9.0405  -14.3185   19.4338 C   0  0  2  0  0  0  0  0  0  0  0  0
    8.2368  -14.3889   18.2489 N   0  0  0  0  0  0  0  0  0  0  0  0
    9.1446  -15.6387   20.1066 C   0  0  0  0  0  0  0  0  0  0  0  0
    8.2365  -16.4911   19.9440 O   0  0  0  0  0  0  0  0  0  0  0  0
   10.2623  -15.9427   20.9316 N   0  0  0  0  0  0  0  0  0  0  0  0
   10.4826  -17.1721   21.6309 C   0  0  1  0  0  0  0  0  0  0  0  0
   11.6066  -17.9919   21.0954 C   0  0  0  0  0  0  0  0  0  0  0  0
   11.3213  -18.5630   19.7624 C   0  0  0  0  0  0  0  0  0  0  0  0
   10.7687  -19.7805   19.5079 C   0  0  0  0  0  0  0  0  0  0  0  0
   10.6848  -19.9049   18.1747 N   0  0  0  0  0  0  0  0  0  0  0  0
   11.1655  -18.8077   17.5710 C   0  0  0  0  0  0  0  0  0  0  0  0
   11.5580  -17.9802   18.5545 N   0  0  0  0  0  0  0  0  0  0  0  0
   10.5356  -17.0094   23.1246 C   0  0  0  0  0  0  0  0  0  0  0  0
   11.2293  -16.0695   23.5792 O   0  0  0  0  0  0  0  0  0  0  0  0
    6.6179  -18.5350   24.7825 N   0  0  0  0  0  0  0  0  0  0  0  0
    7.4573  -17.7314   25.6381 C   0  0  0  0  0  0  0  0  0  0  0  0
    6.9792  -16.5928   25.8899 O   0  0  0  0  0  0  0  0  0  0  0  0
    8.7343  -18.2347   26.1405 C   0  0  0  0  0  0  0  0  0  0  0  0
    9.8996  -17.6438   25.4263 C   0  0  2  0  0  0  0  0  0  0  0  0
    9.8323  -17.8788   23.9883 N   0  0  0  0  0  0  0  0  0  0  0  0
   11.1802  -18.1217   25.9549 C   0  0  0  0  0  0  0  0  0  0  0  0
   11.7443  -17.8089   27.1575 O   0  0  0  0  0  0  0  0  0  0  0  0
   11.8530  -18.9214   25.2150 O   0  0  0  0  0  0  0  0  0  0  0  0
  2  1  1  6
  2  3  1  0
  4  2  1  0
  4  5  1  6
  6  4  1  0
  7  6  2  0
  8  6  1  0
  9  8  1  0
  9 10  1  6
 10 11  1  0
 11 12  2  0
 12 13  1  0
 14 13  1  0
 15 11  1  0
 15 14  2  0
 16 23  1  0
 16  9  1  0
 17 16  2  0
 19 18  1  0
 19 20  2  0
 22 21  1  1
 21 19  1  0
 22 24  1  0
 22 23  1  0
 24 25  1  0
 26 24  2  0
M  END
$$$$
