VHN.pdb
     RDKit          3D

 26 26  0  0  1  0  0  0  0  0999 V2000
    8.4862  -11.8582   19.1608 C   0  0  0  0  0  0  0  0  0  0  0  0
    8.6401  -13.0891   20.0406 C   0  0  1  0  0  0  0  0  0  0  0  0
    7.3601  -13.3632   20.7898 C   0  0  0  0  0  0  0  0  0  0  0  0
    9.0806  -14.2876   19.2662 C   0  0  2  0  0  0  0  0  0  0  0  0
    8.1022  -14.5898   18.2633 N   0  0  0  0  0  0  0  0  0  0  0  0
    9.3611  -15.4616   20.1319 C   0  0  0  0  0  0  0  0  0  0  0  0
    8.5150  -16.3861   20.2166 O   0  0  0  0  0  0  0  0  0  0  0  0
   10.5777  -15.5452   20.8636 N   0  0  0  0  0  0  0  0  0  0  0  0
   10.9800  -16.6299   21.7066 C   0  0  1  0  0  0  0  0  0  0  0  0
   11.3900  -17.8606   20.9723 C   0  0  0  0  0  0  0  0  0  0  0  0
   10.2758  -18.4913   20.2339 C   0  0  0  0  0  0  0  0  0  0  0  0
    9.8230  -18.1373   19.0002 C   0  0  0  0  0  0  0  0  0  0  0  0
    8.8051  -18.9590   18.7026 N   0  0  0  0  0  0  0  0  0  0  0  0
    8.5940  -19.8249   19.7052 C   0  0  0  0  0  0  0  0  0  0  0  0
    9.5042  -19.5335   20.6500 N   0  0  0  0  0  0  0  0  0  0  0  0
   11.9626  -16.2275   22.7710 C   0  0  0  0  0  0  0  0  0  0  0  0
   13.1089  -15.8830   22.3986 O   0  0  0  0  0  0  0  0  0  0  0  0
   13.5819  -19.1063   26.5627 N   0  0  0  0  0  0  0  0  0  0  0  0
   12.3625  -19.4658   25.8797 C   0  0  0  0  0  0  0  0  0  0  0  0
   11.9943  -20.6520   26.0939 O   0  0  0  0  0  0  0  0  0  0  0  0
   11.6566  -18.5090   25.0297 C   0  0  0  0  0  0  0  0  0  0  0  0
   12.2969  -17.1645   25.0327 C   0  0  2  0  0  0  0  0  0  0  0  0
   11.6136  -16.2349   24.1401 N   0  0  0  0  0  0  0  0  0  0  0  0
   13.7231  -17.2239   24.7013 C   0  0  0  0  0  0  0  0  0  0  0  0
   14.7643  -16.7622   25.4531 O   0  0  0  0  0  0  0  0  0  0  0  0
   14.0391  -17.7663   23.5853 O   0  0  0  0  0  0  0  0  0  0  0  0
  2  1  1  6
  2  3  1  0
  4  2  1  0
  4  5  1  6
  6  4  1  0
  7  6  2  0
  8  6  1  0
  9  8  1  0
  9 10  1  6
 10 11  1  0
 11 12  2  0
 12 13  1  0
 14 13  1  0
 15 11  1  0
 15 14  2  0
 16 23  1  0
 16  9  1  0
 17 16  2  0
 19 18  1  0
 19 20  2  0
 22 21  1  6
 21 19  1  0
 22 24  1  0
 22 23  1  0
 24 25  1  0
 26 24  2  0
M  END
$$$$
