IYT.pdb
     RDKit          3D

 28 28  0  0  1  0  0  0  0  0999 V2000
    7.9205  -11.6876   20.2184 C   0  0  0  0  0  0  0  0  0  0  0  0
    7.8278  -13.0842   20.7712 C   0  0  0  0  0  0  0  0  0  0  0  0
    8.3876  -14.1102   19.8053 C   0  0  2  0  0  0  0  0  0  0  0  0
    7.6399  -14.1480   18.5076 C   0  0  0  0  0  0  0  0  0  0  0  0
    8.4364  -15.4253   20.5130 C   0  0  2  0  0  0  0  0  0  0  0  0
    7.0753  -15.8751   20.7336 N   0  0  0  0  0  0  0  0  0  0  0  0
    9.2080  -15.3704   21.7804 C   0  0  0  0  0  0  0  0  0  0  0  0
   10.4400  -15.1170   21.7437 O   0  0  0  0  0  0  0  0  0  0  0  0
   10.6461  -15.0779   30.6746 O   0  0  0  0  0  0  0  0  0  0  0  0
   10.1302  -15.0888   29.3826 C   0  0  0  0  0  0  0  0  0  0  0  0
    9.6052  -16.2328   28.8183 C   0  0  0  0  0  0  0  0  0  0  0  0
    9.1046  -16.1972   27.5340 C   0  0  0  0  0  0  0  0  0  0  0  0
    9.0942  -15.0613   26.7558 C   0  0  0  0  0  0  0  0  0  0  0  0
    8.5598  -15.0274   25.3886 C   0  0  0  0  0  0  0  0  0  0  0  0
    9.4300  -15.5421   24.3046 C   0  0  2  0  0  0  0  0  0  0  0  0
    8.6334  -15.5892   23.0486 N   0  0  0  0  0  0  0  0  0  0  0  0
   10.0517  -16.8360   24.4375 C   0  0  0  0  0  0  0  0  0  0  0  0
    9.3160  -17.8929   24.3953 O   0  0  0  0  0  0  0  0  0  0  0  0
    9.6292  -13.9191   27.3465 C   0  0  0  0  0  0  0  0  0  0  0  0
   10.1377  -13.9275   28.6326 C   0  0  0  0  0  0  0  0  0  0  0  0
   12.1036  -18.7161   22.2137 C   0  0  0  0  0  0  0  0  0  0  0  0
   12.8444  -18.8225   23.5282 C   0  0  1  0  0  0  0  0  0  0  0  0
   13.8630  -17.8611   23.4931 O   0  0  0  0  0  0  0  0  0  0  0  0
   11.9201  -18.4953   24.6896 C   0  0  2  0  0  0  0  0  0  0  0  0
   11.4369  -17.1386   24.6126 N   0  0  0  0  0  0  0  0  0  0  0  0
   12.5633  -18.7314   25.9858 C   0  0  0  0  0  0  0  0  0  0  0  0
   13.0483  -17.7141   26.7652 O   0  0  0  0  0  0  0  0  0  0  0  0
   12.6835  -19.9082   26.4149 O   0  0  0  0  0  0  0  0  0  0  0  0
  2  3  1  0
  2  1  1  0
  3  4  1  6
  5  3  1  0
  5  6  1  1
  7  5  1  0
  8  7  2  0
  9 10  1  0
 10 11  2  0
 10 20  1  0
 11 12  1  0
 12 13  2  0
 13 14  1  0
 15 14  1  1
 15 16  1  0
 16  7  1  0
 17 15  1  0
 17 18  2  0
 19 13  1  0
 20 19  2  0
 22 24  1  0
 22 21  1  6
 23 22  1  0
 24 25  1  1
 25 17  1  0
 26 24  1  0
 27 26  1  0
 28 26  2  0
M  END
$$$$
