IYT.pdb
     RDKit          3D

 28 28  0  0  1  0  0  0  0  0999 V2000
    2.1140  -18.3579   20.6074 C   0  0  0  0  0  0  0  0  0  0  0  0
    3.0986  -18.5367   21.7314 C   0  0  0  0  0  0  0  0  0  0  0  0
    4.4654  -17.9851   21.3754 C   0  0  2  0  0  0  0  0  0  0  0  0
    4.9525  -18.4679   20.0434 C   0  0  0  0  0  0  0  0  0  0  0  0
    5.3919  -18.2949   22.5060 C   0  0  2  0  0  0  0  0  0  0  0  0
    4.7551  -17.8847   23.7429 N   0  0  0  0  0  0  0  0  0  0  0  0
    6.7291  -17.6700   22.3442 C   0  0  0  0  0  0  0  0  0  0  0  0
    7.4934  -18.0732   21.4294 O   0  0  0  0  0  0  0  0  0  0  0  0
    7.2678  -12.2980   17.7296 O   0  0  0  0  0  0  0  0  0  0  0  0
    7.5438  -12.8401   18.9808 C   0  0  0  0  0  0  0  0  0  0  0  0
    8.8299  -13.1493   19.3722 C   0  0  0  0  0  0  0  0  0  0  0  0
    9.0569  -13.6851   20.6222 C   0  0  0  0  0  0  0  0  0  0  0  0
    8.0544  -13.9390   21.5314 C   0  0  0  0  0  0  0  0  0  0  0  0
    8.3002  -14.5094   22.8619 C   0  0  0  0  0  0  0  0  0  0  0  0
    8.5205  -15.9729   22.9450 C   0  0  2  0  0  0  0  0  0  0  0  0
    7.2050  -16.6313   23.1695 N   0  0  0  0  0  0  0  0  0  0  0  0
    9.4152  -16.5079   23.9409 C   0  0  0  0  0  0  0  0  0  0  0  0
    8.9832  -16.6865   25.1415 O   0  0  0  0  0  0  0  0  0  0  0  0
    6.7648  -13.6189   21.1142 C   0  0  0  0  0  0  0  0  0  0  0  0
    6.5097  -13.0806   19.8660 C   0  0  0  0  0  0  0  0  0  0  0  0
   12.3870  -20.0713   25.0492 C   0  0  0  0  0  0  0  0  0  0  0  0
   11.6502  -19.1649   24.0881 C   0  0  1  0  0  0  0  0  0  0  0  0
   10.3976  -19.7516   23.8644 O   0  0  0  0  0  0  0  0  0  0  0  0
   11.4307  -17.7949   24.7086 C   0  0  2  0  0  0  0  0  0  0  0  0
   10.7813  -16.8963   23.7861 N   0  0  0  0  0  0  0  0  0  0  0  0
   12.6826  -17.2056   25.1937 C   0  0  0  0  0  0  0  0  0  0  0  0
   13.1196  -17.3595   26.4833 O   0  0  0  0  0  0  0  0  0  0  0  0
   13.3960  -16.5285   24.4089 O   0  0  0  0  0  0  0  0  0  0  0  0
  2  3  1  0
  2  1  1  0
  3  4  1  6
  5  3  1  0
  5  6  1  1
  7  5  1  0
  8  7  2  0
  9 10  1  0
 10 11  2  0
 10 20  1  0
 11 12  1  0
 12 13  2  0
 13 14  1  0
 15 14  1  1
 15 16  1  0
 16  7  1  0
 17 15  1  0
 17 18  2  0
 19 13  1  0
 20 19  2  0
 22 24  1  0
 22 21  1  1
 23 22  1  0
 24 25  1  6
 25 17  1  0
 26 24  1  0
 27 26  1  0
 28 26  2  0
M  END
$$$$
