IYT.pdb
     RDKit          3D

 28 28  0  0  1  0  0  0  0  0999 V2000
    7.0644  -13.2607   16.3635 C   0  0  0  0  0  0  0  0  0  0  0  0
    7.7938  -14.3463   17.1079 C   0  0  0  0  0  0  0  0  0  0  0  0
    7.9755  -14.0000   18.5729 C   0  0  2  0  0  0  0  0  0  0  0  0
    8.7203  -12.7156   18.7732 C   0  0  0  0  0  0  0  0  0  0  0  0
    8.6065  -15.1756   19.2456 C   0  0  2  0  0  0  0  0  0  0  0  0
    7.7369  -16.3229   19.0693 N   0  0  0  0  0  0  0  0  0  0  0  0
    8.9049  -14.9288   20.6790 C   0  0  0  0  0  0  0  0  0  0  0  0
    9.9959  -14.3898   20.9996 O   0  0  0  0  0  0  0  0  0  0  0  0
    7.3047  -12.9231   29.2411 O   0  0  0  0  0  0  0  0  0  0  0  0
    7.2559  -13.2651   27.8934 C   0  0  0  0  0  0  0  0  0  0  0  0
    6.7501  -14.4759   27.4679 C   0  0  0  0  0  0  0  0  0  0  0  0
    6.7212  -14.7727   26.1217 C   0  0  0  0  0  0  0  0  0  0  0  0
    7.1775  -13.9144   25.1464 C   0  0  0  0  0  0  0  0  0  0  0  0
    7.1447  -14.2341   23.7136 C   0  0  0  0  0  0  0  0  0  0  0  0
    8.3136  -14.9497   23.1489 C   0  0  2  0  0  0  0  0  0  0  0  0
    8.0229  -15.2682   21.7246 N   0  0  0  0  0  0  0  0  0  0  0  0
    8.7630  -16.1786   23.7541 C   0  0  0  0  0  0  0  0  0  0  0  0
    7.9874  -17.2073   23.7360 O   0  0  0  0  0  0  0  0  0  0  0  0
    7.6835  -12.6986   25.5997 C   0  0  0  0  0  0  0  0  0  0  0  0
    7.7240  -12.3760   26.9440 C   0  0  0  0  0  0  0  0  0  0  0  0
   11.2791  -18.5494   22.8089 C   0  0  0  0  0  0  0  0  0  0  0  0
   11.5356  -18.3531   24.2867 C   0  0  1  0  0  0  0  0  0  0  0  0
   12.6036  -17.4524   24.3918 O   0  0  0  0  0  0  0  0  0  0  0  0
   10.3221  -17.7343   24.9611 C   0  0  2  0  0  0  0  0  0  0  0  0
   10.0092  -16.4427   24.4008 N   0  0  0  0  0  0  0  0  0  0  0  0
   10.4962  -17.6282   26.4130 C   0  0  0  0  0  0  0  0  0  0  0  0
   10.5884  -18.7263   27.2274 O   0  0  0  0  0  0  0  0  0  0  0  0
   10.5651  -16.4920   26.9494 O   0  0  0  0  0  0  0  0  0  0  0  0
  2  3  1  0
  2  1  1  0
  3  4  1  6
  5  3  1  0
  5  6  1  1
  7  5  1  0
  8  7  2  0
  9 10  1  0
 10 11  2  0
 10 20  1  0
 11 12  1  0
 12 13  2  0
 13 14  1  0
 15 14  1  1
 15 16  1  0
 16  7  1  0
 17 15  1  0
 17 18  2  0
 19 13  1  0
 20 19  2  0
 22 24  1  0
 22 21  1  6
 23 22  1  0
 24 25  1  6
 25 17  1  0
 26 24  1  0
 27 26  1  0
 28 26  2  0
M  END
$$$$
