IYT.pdb
     RDKit          3D

 28 28  0  0  1  0  0  0  0  0999 V2000
    2.3797  -18.4879   20.2986 C   0  0  0  0  0  0  0  0  0  0  0  0
    3.1684  -18.5065   21.5802 C   0  0  0  0  0  0  0  0  0  0  0  0
    4.6489  -18.2912   21.3332 C   0  0  2  0  0  0  0  0  0  0  0  0
    5.1901  -19.1860   20.2604 C   0  0  0  0  0  0  0  0  0  0  0  0
    5.3548  -18.4237   22.6435 C   0  0  2  0  0  0  0  0  0  0  0  0
    4.4603  -17.9702   23.6913 N   0  0  0  0  0  0  0  0  0  0  0  0
    6.6504  -17.6991   22.6769 C   0  0  0  0  0  0  0  0  0  0  0  0
    7.6620  -18.2158   22.1355 O   0  0  0  0  0  0  0  0  0  0  0  0
    7.8574  -12.9857   17.4164 O   0  0  0  0  0  0  0  0  0  0  0  0
    7.8887  -13.3216   18.7661 C   0  0  0  0  0  0  0  0  0  0  0  0
    8.9624  -13.9814   19.3271 C   0  0  0  0  0  0  0  0  0  0  0  0
    8.9503  -14.2943   20.6699 C   0  0  0  0  0  0  0  0  0  0  0  0
    7.9062  -13.9821   21.5115 C   0  0  0  0  0  0  0  0  0  0  0  0
    7.8973  -14.3169   22.9412 C   0  0  0  0  0  0  0  0  0  0  0  0
    8.1291  -15.7337   23.3100 C   0  0  2  0  0  0  0  0  0  0  0  0
    6.8204  -16.4417   23.2905 N   0  0  0  0  0  0  0  0  0  0  0  0
    8.7430  -16.0542   24.5745 C   0  0  0  0  0  0  0  0  0  0  0  0
    8.0007  -16.1687   25.6213 O   0  0  0  0  0  0  0  0  0  0  0  0
    6.8338  -13.3164   20.9229 C   0  0  0  0  0  0  0  0  0  0  0  0
    6.8205  -12.9907   19.5789 C   0  0  0  0  0  0  0  0  0  0  0  0
    8.4150  -18.2135   26.1078 C   0  0  0  0  0  0  0  0  0  0  0  0
    9.9214  -18.3208   26.1943 C   0  0  1  0  0  0  0  0  0  0  0  0
   10.3299  -19.1083   25.1098 O   0  0  0  0  0  0  0  0  0  0  0  0
   10.5627  -16.9498   26.0560 C   0  0  2  0  0  0  0  0  0  0  0  0
   10.1253  -16.2820   24.8548 N   0  0  0  0  0  0  0  0  0  0  0  0
   12.0266  -17.0230   26.0907 C   0  0  0  0  0  0  0  0  0  0  0  0
   12.7193  -17.4245   27.2028 O   0  0  0  0  0  0  0  0  0  0  0  0
   12.6892  -16.7081   25.0684 O   0  0  0  0  0  0  0  0  0  0  0  0
  2  3  1  0
  2  1  1  0
  3  4  1  6
  5  3  1  0
  5  6  1  1
  7  5  1  0
  8  7  2  0
  9 10  1  0
 10 11  2  0
 10 20  1  0
 11 12  1  0
 12 13  2  0
 13 14  1  0
 15 14  1  1
 15 16  1  0
 16  7  1  0
 17 15  1  0
 17 18  2  0
 19 13  1  0
 20 19  2  0
 22 24  1  0
 22 21  1  6
 23 22  1  0
 24 25  1  6
 25 17  1  0
 26 24  1  0
 27 26  1  0
 28 26  2  0
M  END
$$$$
