IYT.pdb
     RDKit          3D

 28 28  0  0  1  0  0  0  0  0999 V2000
   10.7796  -20.4561   18.3915 C   0  0  0  0  0  0  0  0  0  0  0  0
   10.0457  -19.1423   18.3987 C   0  0  0  0  0  0  0  0  0  0  0  0
   10.1244  -18.4610   19.7510 C   0  0  2  0  0  0  0  0  0  0  0  0
    9.5429  -19.2954   20.8512 C   0  0  0  0  0  0  0  0  0  0  0  0
    9.4965  -17.1114   19.6201 C   0  0  2  0  0  0  0  0  0  0  0  0
   10.1095  -16.4305   18.4957 N   0  0  0  0  0  0  0  0  0  0  0  0
    9.5905  -16.3079   20.8652 C   0  0  0  0  0  0  0  0  0  0  0  0
   10.7092  -15.8629   21.2310 O   0  0  0  0  0  0  0  0  0  0  0  0
    6.6727  -11.5778   27.9604 O   0  0  0  0  0  0  0  0  0  0  0  0
    6.8466  -12.2661   26.7640 C   0  0  0  0  0  0  0  0  0  0  0  0
    6.2844  -13.5075   26.5503 C   0  0  0  0  0  0  0  0  0  0  0  0
    6.4833  -14.1534   25.3484 C   0  0  0  0  0  0  0  0  0  0  0  0
    7.2280  -13.6247   24.3180 C   0  0  0  0  0  0  0  0  0  0  0  0
    7.4372  -14.3156   23.0393 C   0  0  0  0  0  0  0  0  0  0  0  0
    8.6038  -15.2246   22.9396 C   0  0  2  0  0  0  0  0  0  0  0  0
    8.4803  -16.0067   21.6797 N   0  0  0  0  0  0  0  0  0  0  0  0
    8.8578  -16.1827   23.9865 C   0  0  0  0  0  0  0  0  0  0  0  0
    8.0484  -17.1733   24.1405 O   0  0  0  0  0  0  0  0  0  0  0  0
    7.7856  -12.3709   24.5567 C   0  0  0  0  0  0  0  0  0  0  0  0
    7.6017  -11.7016   25.7529 C   0  0  0  0  0  0  0  0  0  0  0  0
   10.8732  -18.8927   24.2347 C   0  0  0  0  0  0  0  0  0  0  0  0
   11.1713  -18.2188   25.5558 C   0  0  1  0  0  0  0  0  0  0  0  0
   12.3568  -17.4938   25.3772 O   0  0  0  0  0  0  0  0  0  0  0  0
   10.0649  -17.2415   25.9178 C   0  0  2  0  0  0  0  0  0  0  0  0
    9.9340  -16.2026   24.9259 N   0  0  0  0  0  0  0  0  0  0  0  0
   10.2662  -16.6524   27.2452 C   0  0  0  0  0  0  0  0  0  0  0  0
   10.2969  -17.4052   28.3898 O   0  0  0  0  0  0  0  0  0  0  0  0
   10.4179  -15.4082   27.3566 O   0  0  0  0  0  0  0  0  0  0  0  0
  2  3  1  0
  2  1  1  0
  3  4  1  1
  5  3  1  0
  5  6  1  6
  7  5  1  0
  8  7  2  0
  9 10  1  0
 10 11  2  0
 10 20  1  0
 11 12  1  0
 12 13  2  0
 13 14  1  0
 15 14  1  1
 15 16  1  0
 16  7  1  0
 17 15  1  0
 17 18  2  0
 19 13  1  0
 20 19  2  0
 22 24  1  0
 22 21  1  6
 23 22  1  0
 24 25  1  6
 25 17  1  0
 26 24  1  0
 27 26  1  0
 28 26  2  0
M  END
$$$$
