IYT.pdb
     RDKit          3D

 28 28  0  0  1  0  0  0  0  0999 V2000
    6.5117  -12.4155   18.4297 C   0  0  0  0  0  0  0  0  0  0  0  0
    6.8716  -13.7488   19.0278 C   0  0  0  0  0  0  0  0  0  0  0  0
    7.7050  -13.5951   20.2851 C   0  0  2  0  0  0  0  0  0  0  0  0
    8.9481  -12.7905   20.0578 C   0  0  0  0  0  0  0  0  0  0  0  0
    7.9614  -14.9614   20.8332 C   0  0  2  0  0  0  0  0  0  0  0  0
    6.6836  -15.6082   21.0620 N   0  0  0  0  0  0  0  0  0  0  0  0
    8.7946  -14.9432   22.0621 C   0  0  0  0  0  0  0  0  0  0  0  0
   10.0192  -14.6671   21.9749 O   0  0  0  0  0  0  0  0  0  0  0  0
   10.7744  -15.0277   30.8476 O   0  0  0  0  0  0  0  0  0  0  0  0
   10.1801  -14.9789   29.5907 C   0  0  0  0  0  0  0  0  0  0  0  0
    9.5146  -16.0634   29.0579 C   0  0  0  0  0  0  0  0  0  0  0  0
    8.9402  -15.9699   27.8079 C   0  0  0  0  0  0  0  0  0  0  0  0
    8.9892  -14.8317   27.0345 C   0  0  0  0  0  0  0  0  0  0  0  0
    8.3760  -14.7360   25.7038 C   0  0  0  0  0  0  0  0  0  0  0  0
    9.1545  -15.2597   24.5562 C   0  0  2  0  0  0  0  0  0  0  0  0
    8.2877  -15.2219   23.3473 N   0  0  0  0  0  0  0  0  0  0  0  0
    9.7101  -16.5888   24.6135 C   0  0  0  0  0  0  0  0  0  0  0  0
    8.9144  -17.6022   24.6118 O   0  0  0  0  0  0  0  0  0  0  0  0
    9.6662  -13.7502   27.5930 C   0  0  0  0  0  0  0  0  0  0  0  0
   10.2510  -13.8174   28.8444 C   0  0  0  0  0  0  0  0  0  0  0  0
   11.5578  -18.5232   22.2277 C   0  0  0  0  0  0  0  0  0  0  0  0
   12.3410  -18.7222   23.5064 C   0  0  1  0  0  0  0  0  0  0  0  0
   13.4306  -17.8433   23.4499 O   0  0  0  0  0  0  0  0  0  0  0  0
   11.4939  -18.3540   24.7136 C   0  0  2  0  0  0  0  0  0  0  0  0
   11.0854  -16.9716   24.6690 N   0  0  0  0  0  0  0  0  0  0  0  0
   12.1845  -18.6380   25.9754 C   0  0  0  0  0  0  0  0  0  0  0  0
   12.4636  -19.9128   26.3933 O   0  0  0  0  0  0  0  0  0  0  0  0
   12.5419  -17.6858   26.7163 O   0  0  0  0  0  0  0  0  0  0  0  0
  2  3  1  0
  2  1  1  0
  3  4  1  6
  5  3  1  0
  5  6  1  1
  7  5  1  0
  8  7  2  0
  9 10  1  0
 10 11  2  0
 10 20  1  0
 11 12  1  0
 12 13  2  0
 13 14  1  0
 15 14  1  1
 15 16  1  0
 16  7  1  0
 17 15  1  0
 17 18  2  0
 19 13  1  0
 20 19  2  0
 22 24  1  0
 22 21  1  6
 23 22  1  0
 24 25  1  6
 25 17  1  0
 26 24  1  0
 27 26  1  0
 28 26  2  0
M  END
$$$$
