IYT.pdb
     RDKit          3D

 28 28  0  0  1  0  0  0  0  0999 V2000
    7.2183  -11.9573   20.8165 C   0  0  0  0  0  0  0  0  0  0  0  0
    7.1034  -13.4072   21.2028 C   0  0  0  0  0  0  0  0  0  0  0  0
    8.3291  -14.1986   20.7897 C   0  0  2  0  0  0  0  0  0  0  0  0
    8.6354  -14.0657   19.3292 C   0  0  0  0  0  0  0  0  0  0  0  0
    8.1350  -15.6100   21.2403 C   0  0  2  0  0  0  0  0  0  0  0  0
    6.9578  -16.1415   20.5806 N   0  0  0  0  0  0  0  0  0  0  0  0
    8.0405  -15.7366   22.7167 C   0  0  0  0  0  0  0  0  0  0  0  0
    7.0401  -16.3054   23.2257 O   0  0  0  0  0  0  0  0  0  0  0  0
    5.9151  -10.2896   27.0802 O   0  0  0  0  0  0  0  0  0  0  0  0
    6.3701  -11.5544   26.7215 C   0  0  0  0  0  0  0  0  0  0  0  0
    7.6936  -11.9178   26.8596 C   0  0  0  0  0  0  0  0  0  0  0  0
    8.1002  -13.1828   26.4911 C   0  0  0  0  0  0  0  0  0  0  0  0
    7.2464  -14.1343   25.9796 C   0  0  0  0  0  0  0  0  0  0  0  0
    7.6831  -15.4806   25.5886 C   0  0  0  0  0  0  0  0  0  0  0  0
    9.0541  -15.6196   25.0425 C   0  0  2  0  0  0  0  0  0  0  0  0
    9.0229  -15.2488   23.6017 N   0  0  0  0  0  0  0  0  0  0  0  0
    9.7305  -16.8906   25.1180 C   0  0  0  0  0  0  0  0  0  0  0  0
    9.7407  -17.5306   26.2361 O   0  0  0  0  0  0  0  0  0  0  0  0
    5.9156  -13.7448   25.8494 C   0  0  0  0  0  0  0  0  0  0  0  0
    5.4816  -12.4825   26.2114 C   0  0  0  0  0  0  0  0  0  0  0  0
   12.1990  -20.8186   23.2688 C   0  0  0  0  0  0  0  0  0  0  0  0
   11.5853  -19.4596   23.0145 C   0  0  1  0  0  0  0  0  0  0  0  0
   10.4937  -19.6663   22.1609 O   0  0  0  0  0  0  0  0  0  0  0  0
   11.0691  -18.8564   24.3107 C   0  0  2  0  0  0  0  0  0  0  0  0
   10.4237  -17.5872   24.0810 N   0  0  0  0  0  0  0  0  0  0  0  0
   12.1324  -18.7108   25.3096 C   0  0  0  0  0  0  0  0  0  0  0  0
   12.9061  -17.5839   25.4049 O   0  0  0  0  0  0  0  0  0  0  0  0
   12.3575  -19.6477   26.1188 O   0  0  0  0  0  0  0  0  0  0  0  0
  2  3  1  0
  2  1  1  0
  3  4  1  6
  5  3  1  0
  5  6  1  6
  7  5  1  0
  8  7  2  0
  9 10  1  0
 10 11  2  0
 10 20  1  0
 11 12  1  0
 12 13  2  0
 13 14  1  0
 15 14  1  6
 15 16  1  0
 16  7  1  0
 17 15  1  0
 17 18  2  0
 19 13  1  0
 20 19  2  0
 22 24  1  0
 22 21  1  1
 23 22  1  0
 24 25  1  6
 25 17  1  0
 26 24  1  0
 27 26  1  0
 28 26  2  0
M  END
$$$$
