IYT.pdb
     RDKit          3D

 28 28  0  0  1  0  0  0  0  0999 V2000
    6.6328  -16.1267   17.3486 C   0  0  0  0  0  0  0  0  0  0  0  0
    6.6637  -14.9037   18.2249 C   0  0  0  0  0  0  0  0  0  0  0  0
    7.4836  -15.1311   19.4799 C   0  0  2  0  0  0  0  0  0  0  0  0
    7.1007  -16.3888   20.1983 C   0  0  0  0  0  0  0  0  0  0  0  0
    7.3825  -13.9002   20.3211 C   0  0  2  0  0  0  0  0  0  0  0  0
    7.7006  -12.7537   19.4917 N   0  0  0  0  0  0  0  0  0  0  0  0
    8.2407  -13.9564   21.5315 C   0  0  0  0  0  0  0  0  0  0  0  0
    9.4808  -13.7747   21.4193 O   0  0  0  0  0  0  0  0  0  0  0  0
   10.2407  -14.9455   30.2764 O   0  0  0  0  0  0  0  0  0  0  0  0
    9.6691  -14.6734   29.0376 C   0  0  0  0  0  0  0  0  0  0  0  0
    9.8094  -13.4452   28.4255 C   0  0  0  0  0  0  0  0  0  0  0  0
    9.2253  -13.2199   27.1969 C   0  0  0  0  0  0  0  0  0  0  0  0
    8.4900  -14.1684   26.5218 C   0  0  0  0  0  0  0  0  0  0  0  0
    7.8699  -13.9247   25.2134 C   0  0  0  0  0  0  0  0  0  0  0  0
    8.6300  -14.3427   24.0114 C   0  0  2  0  0  0  0  0  0  0  0  0
    7.7413  -14.2059   22.8257 N   0  0  0  0  0  0  0  0  0  0  0  0
    9.1924  -15.6685   23.9438 C   0  0  0  0  0  0  0  0  0  0  0  0
    8.4118  -16.6711   23.7303 O   0  0  0  0  0  0  0  0  0  0  0  0
    8.3621  -15.4002   27.1591 C   0  0  0  0  0  0  0  0  0  0  0  0
    8.9376  -15.6523   28.3912 C   0  0  0  0  0  0  0  0  0  0  0  0
   12.5906  -19.0609   23.0283 C   0  0  0  0  0  0  0  0  0  0  0  0
   12.1048  -17.6285   23.0123 C   0  0  1  0  0  0  0  0  0  0  0  0
   11.6014  -17.3904   21.7267 O   0  0  0  0  0  0  0  0  0  0  0  0
   10.9740  -17.4375   24.0099 C   0  0  2  0  0  0  0  0  0  0  0  0
   10.5603  -16.0576   24.0797 N   0  0  0  0  0  0  0  0  0  0  0  0
   11.3315  -17.9276   25.3447 C   0  0  0  0  0  0  0  0  0  0  0  0
   12.0888  -17.1956   26.2212 O   0  0  0  0  0  0  0  0  0  0  0  0
   10.9362  -19.0629   25.7164 O   0  0  0  0  0  0  0  0  0  0  0  0
  2  3  1  0
  2  1  1  0
  3  4  1  1
  5  3  1  0
  5  6  1  6
  7  5  1  0
  8  7  2  0
  9 10  1  0
 10 11  2  0
 10 20  1  0
 11 12  1  0
 12 13  2  0
 13 14  1  0
 15 14  1  1
 15 16  1  0
 16  7  1  0
 17 15  1  0
 17 18  2  0
 19 13  1  0
 20 19  2  0
 22 24  1  0
 22 21  1  6
 23 22  1  0
 24 25  1  1
 25 17  1  0
 26 24  1  0
 27 26  1  0
 28 26  2  0
M  END
$$$$
