IYT.pdb
     RDKit          3D

 28 28  0  0  1  0  0  0  0  0999 V2000
    6.6530  -12.0222   18.6384 C   0  0  0  0  0  0  0  0  0  0  0  0
    6.9494  -13.4188   19.1142 C   0  0  0  0  0  0  0  0  0  0  0  0
    7.7821  -13.4169   20.3813 C   0  0  2  0  0  0  0  0  0  0  0  0
    9.0485  -12.6295   20.2374 C   0  0  0  0  0  0  0  0  0  0  0  0
    7.9975  -14.8383   20.7887 C   0  0  2  0  0  0  0  0  0  0  0  0
    6.7009  -15.4592   20.9806 N   0  0  0  0  0  0  0  0  0  0  0  0
    8.8524  -14.9696   21.9957 C   0  0  0  0  0  0  0  0  0  0  0  0
   10.0940  -14.7907   21.8964 O   0  0  0  0  0  0  0  0  0  0  0  0
   10.7205  -15.4067   30.8037 O   0  0  0  0  0  0  0  0  0  0  0  0
   10.1544  -15.2591   29.5415 C   0  0  0  0  0  0  0  0  0  0  0  0
   10.1509  -14.0471   28.8828 C   0  0  0  0  0  0  0  0  0  0  0  0
    9.5784  -13.9470   27.6324 C   0  0  0  0  0  0  0  0  0  0  0  0
    8.9930  -15.0088   26.9797 C   0  0  0  0  0  0  0  0  0  0  0  0
    8.3845  -14.8983   25.6480 C   0  0  0  0  0  0  0  0  0  0  0  0
    9.2077  -15.3126   24.4870 C   0  0  2  0  0  0  0  0  0  0  0  0
    8.3481  -15.2888   23.2725 N   0  0  0  0  0  0  0  0  0  0  0  0
    9.8619  -16.5973   24.4938 C   0  0  0  0  0  0  0  0  0  0  0  0
    9.1449  -17.6668   24.4491 O   0  0  0  0  0  0  0  0  0  0  0  0
    9.0085  -16.2218   27.6640 C   0  0  0  0  0  0  0  0  0  0  0  0
    9.5760  -16.3494   28.9187 C   0  0  0  0  0  0  0  0  0  0  0  0
   11.5117  -18.6861   22.2063 C   0  0  0  0  0  0  0  0  0  0  0  0
   12.4813  -18.6469   23.3668 C   0  0  1  0  0  0  0  0  0  0  0  0
   13.4408  -17.6748   23.0547 O   0  0  0  0  0  0  0  0  0  0  0  0
   11.7706  -18.2229   24.6417 C   0  0  2  0  0  0  0  0  0  0  0  0
   11.2621  -16.8772   24.5391 N   0  0  0  0  0  0  0  0  0  0  0  0
   12.6346  -18.3498   25.8194 C   0  0  0  0  0  0  0  0  0  0  0  0
   13.0381  -19.5634   26.3114 O   0  0  0  0  0  0  0  0  0  0  0  0
   13.0304  -17.3142   26.4145 O   0  0  0  0  0  0  0  0  0  0  0  0
  2  3  1  0
  2  1  1  0
  3  4  1  6
  5  3  1  0
  5  6  1  1
  7  5  1  0
  8  7  2  0
  9 10  1  0
 10 11  2  0
 10 20  1  0
 11 12  1  0
 12 13  2  0
 13 14  1  0
 15 14  1  1
 15 16  1  0
 16  7  1  0
 17 15  1  0
 17 18  2  0
 19 13  1  0
 20 19  2  0
 22 24  1  0
 22 21  1  6
 23 22  1  0
 24 25  1  6
 25 17  1  0
 26 24  1  0
 27 26  1  0
 28 26  2  0
M  END
$$$$
