IYT.pdb
     RDKit          3D

 28 28  0  0  1  0  0  0  0  0999 V2000
    7.8246  -15.0892   16.2992 C   0  0  0  0  0  0  0  0  0  0  0  0
    7.5467  -14.1784   17.4645 C   0  0  0  0  0  0  0  0  0  0  0  0
    8.2724  -14.6295   18.7171 C   0  0  2  0  0  0  0  0  0  0  0  0
    8.0954  -16.0919   18.9904 C   0  0  0  0  0  0  0  0  0  0  0  0
    7.8353  -13.7476   19.8413 C   0  0  2  0  0  0  0  0  0  0  0  0
    8.1135  -12.3718   19.4762 N   0  0  0  0  0  0  0  0  0  0  0  0
    8.4644  -14.1091   21.1367 C   0  0  0  0  0  0  0  0  0  0  0  0
    9.6633  -13.7929   21.3514 O   0  0  0  0  0  0  0  0  0  0  0  0
    6.3701  -10.5938   27.6001 O   0  0  0  0  0  0  0  0  0  0  0  0
    6.5979  -11.7284   26.8279 C   0  0  0  0  0  0  0  0  0  0  0  0
    5.7152  -12.1303   25.8470 C   0  0  0  0  0  0  0  0  0  0  0  0
    5.9817  -13.2619   25.1056 C   0  0  0  0  0  0  0  0  0  0  0  0
    7.1038  -14.0392   25.2858 C   0  0  0  0  0  0  0  0  0  0  0  0
    7.3842  -15.2435   24.4939 C   0  0  0  0  0  0  0  0  0  0  0  0
    8.4372  -15.1454   23.4553 C   0  0  2  0  0  0  0  0  0  0  0  0
    7.7872  -14.7992   22.1622 N   0  0  0  0  0  0  0  0  0  0  0  0
    9.2893  -16.2774   23.1889 C   0  0  0  0  0  0  0  0  0  0  0  0
    8.9431  -17.1234   22.2809 O   0  0  0  0  0  0  0  0  0  0  0  0
    7.9801  -13.6140   26.2814 C   0  0  0  0  0  0  0  0  0  0  0  0
    7.7367  -12.4831   27.0392 C   0  0  0  0  0  0  0  0  0  0  0  0
   13.1364  -18.5398   21.8811 C   0  0  0  0  0  0  0  0  0  0  0  0
   12.1695  -17.4148   22.1768 C   0  0  1  0  0  0  0  0  0  0  0  0
   11.3295  -17.3047   21.0609 O   0  0  0  0  0  0  0  0  0  0  0  0
   11.3131  -17.7516   23.3866 C   0  0  2  0  0  0  0  0  0  0  0  0
   10.5301  -16.6169   23.8103 N   0  0  0  0  0  0  0  0  0  0  0  0
   12.1165  -18.2584   24.5034 C   0  0  0  0  0  0  0  0  0  0  0  0
   12.1101  -17.6733   25.7424 O   0  0  0  0  0  0  0  0  0  0  0  0
   12.8467  -19.2693   24.3353 O   0  0  0  0  0  0  0  0  0  0  0  0
  2  3  1  0
  2  1  1  0
  3  4  1  1
  5  3  1  0
  5  6  1  6
  7  5  1  0
  8  7  2  0
  9 10  1  0
 10 11  2  0
 10 20  1  0
 11 12  1  0
 12 13  2  0
 13 14  1  0
 15 14  1  1
 15 16  1  0
 16  7  1  0
 17 15  1  0
 17 18  2  0
 19 13  1  0
 20 19  2  0
 22 24  1  0
 22 21  1  6
 23 22  1  0
 24 25  1  1
 25 17  1  0
 26 24  1  0
 27 26  1  0
 28 26  2  0
M  END
$$$$
