IYT.pdb
     RDKit          3D

 28 28  0  0  1  0  0  0  0  0999 V2000
    8.6212  -22.4088   19.2064 C   0  0  0  0  0  0  0  0  0  0  0  0
    8.1479  -20.9878   19.0602 C   0  0  0  0  0  0  0  0  0  0  0  0
    9.0118  -20.0229   19.8487 C   0  0  2  0  0  0  0  0  0  0  0  0
    9.1792  -20.4361   21.2790 C   0  0  0  0  0  0  0  0  0  0  0  0
    8.4392  -18.6532   19.6786 C   0  0  2  0  0  0  0  0  0  0  0  0
    8.3917  -18.3516   18.2608 N   0  0  0  0  0  0  0  0  0  0  0  0
    9.1871  -17.6171   20.4349 C   0  0  0  0  0  0  0  0  0  0  0  0
   10.3139  -17.2412   20.0197 O   0  0  0  0  0  0  0  0  0  0  0  0
    7.3174  -11.8807   17.9133 O   0  0  0  0  0  0  0  0  0  0  0  0
    7.6304  -12.6058   19.0586 C   0  0  0  0  0  0  0  0  0  0  0  0
    6.6816  -13.3459   19.7332 C   0  0  0  0  0  0  0  0  0  0  0  0
    7.0369  -14.0495   20.8645 C   0  0  0  0  0  0  0  0  0  0  0  0
    8.3138  -14.0618   21.3796 C   0  0  0  0  0  0  0  0  0  0  0  0
    8.6882  -14.8128   22.5846 C   0  0  0  0  0  0  0  0  0  0  0  0
    9.5029  -16.0369   22.3980 C   0  0  2  0  0  0  0  0  0  0  0  0
    8.7023  -17.0160   21.6140 N   0  0  0  0  0  0  0  0  0  0  0  0
    9.9993  -16.7501   23.5485 C   0  0  0  0  0  0  0  0  0  0  0  0
    9.1782  -17.0790   24.4852 O   0  0  0  0  0  0  0  0  0  0  0  0
    9.2542  -13.3077   20.6820 C   0  0  0  0  0  0  0  0  0  0  0  0
    8.9244  -12.5929   19.5449 C   0  0  0  0  0  0  0  0  0  0  0  0
   11.0259  -20.1086   23.8506 C   0  0  0  0  0  0  0  0  0  0  0  0
   12.1328  -19.3656   24.5654 C   0  0  1  0  0  0  0  0  0  0  0  0
   13.1814  -19.2279   23.6464 O   0  0  0  0  0  0  0  0  0  0  0  0
   11.6680  -17.9761   24.9698 C   0  0  2  0  0  0  0  0  0  0  0  0
   11.3366  -17.1750   23.8172 N   0  0  0  0  0  0  0  0  0  0  0  0
   12.6607  -17.2853   25.7987 C   0  0  0  0  0  0  0  0  0  0  0  0
   13.0436  -17.7474   27.0306 O   0  0  0  0  0  0  0  0  0  0  0  0
   13.1919  -16.2250   25.3783 O   0  0  0  0  0  0  0  0  0  0  0  0
  2  3  1  0
  2  1  1  0
  3  4  1  1
  5  3  1  0
  5  6  1  6
  7  5  1  0
  8  7  2  0
  9 10  1  0
 10 11  2  0
 10 20  1  0
 11 12  1  0
 12 13  2  0
 13 14  1  0
 15 14  1  1
 15 16  1  0
 16  7  1  0
 17 15  1  0
 17 18  2  0
 19 13  1  0
 20 19  2  0
 22 24  1  0
 22 21  1  6
 23 22  1  0
 24 25  1  6
 25 17  1  0
 26 24  1  0
 27 26  1  0
 28 26  2  0
M  END
$$$$
