IYT.pdb
     RDKit          3D

 28 28  0  0  1  0  0  0  0  0999 V2000
    6.9773  -12.2493   18.5171 C   0  0  0  0  0  0  0  0  0  0  0  0
    6.8988  -13.6484   19.0659 C   0  0  0  0  0  0  0  0  0  0  0  0
    8.0320  -13.9391   20.0304 C   0  0  2  0  0  0  0  0  0  0  0  0
    9.1760  -14.6526   19.3770 C   0  0  0  0  0  0  0  0  0  0  0  0
    7.4585  -14.6648   21.2040 C   0  0  2  0  0  0  0  0  0  0  0  0
    6.1017  -14.1961   21.4113 N   0  0  0  0  0  0  0  0  0  0  0  0
    8.2822  -14.5201   22.4308 C   0  0  0  0  0  0  0  0  0  0  0  0
    9.0930  -13.5621   22.5218 O   0  0  0  0  0  0  0  0  0  0  0  0
   10.9983  -15.0534   30.9050 O   0  0  0  0  0  0  0  0  0  0  0  0
   10.3456  -15.0429   29.6764 C   0  0  0  0  0  0  0  0  0  0  0  0
    9.7104  -16.1624   29.1803 C   0  0  0  0  0  0  0  0  0  0  0  0
    9.0758  -16.1063   27.9575 C   0  0  0  0  0  0  0  0  0  0  0  0
    9.0336  -14.9727   27.1768 C   0  0  0  0  0  0  0  0  0  0  0  0
    8.3564  -14.9169   25.8752 C   0  0  0  0  0  0  0  0  0  0  0  0
    9.1381  -15.3233   24.6831 C   0  0  2  0  0  0  0  0  0  0  0  0
    8.2103  -15.4084   23.5228 N   0  0  0  0  0  0  0  0  0  0  0  0
    9.8793  -16.5597   24.6992 C   0  0  0  0  0  0  0  0  0  0  0  0
    9.2397  -17.6758   24.6268 O   0  0  0  0  0  0  0  0  0  0  0  0
    9.6815  -13.8555   27.6981 C   0  0  0  0  0  0  0  0  0  0  0  0
   10.3254  -13.8849   28.9217 C   0  0  0  0  0  0  0  0  0  0  0  0
   11.8438  -18.4023   22.3758 C   0  0  0  0  0  0  0  0  0  0  0  0
   12.7250  -18.3416   23.6038 C   0  0  1  0  0  0  0  0  0  0  0  0
   13.6099  -17.2729   23.4095 O   0  0  0  0  0  0  0  0  0  0  0  0
   11.8938  -18.0528   24.8431 C   0  0  2  0  0  0  0  0  0  0  0  0
   11.2938  -16.7427   24.7818 N   0  0  0  0  0  0  0  0  0  0  0  0
   12.6774  -18.1942   26.0743 C   0  0  0  0  0  0  0  0  0  0  0  0
   13.1493  -19.4032   26.5138 O   0  0  0  0  0  0  0  0  0  0  0  0
   12.9356  -17.1761   26.7671 O   0  0  0  0  0  0  0  0  0  0  0  0
  2  3  1  0
  2  1  1  0
  3  4  1  6
  5  3  1  0
  5  6  1  1
  7  5  1  0
  8  7  2  0
  9 10  1  0
 10 11  2  0
 10 20  1  0
 11 12  1  0
 12 13  2  0
 13 14  1  0
 15 14  1  1
 15 16  1  0
 16  7  1  0
 17 15  1  0
 17 18  2  0
 19 13  1  0
 20 19  2  0
 22 24  1  0
 22 21  1  6
 23 22  1  0
 24 25  1  6
 25 17  1  0
 26 24  1  0
 27 26  1  0
 28 26  2  0
M  END
$$$$
