IYT.pdb
     RDKit          3D

 28 28  0  0  1  0  0  0  0  0999 V2000
    7.2835  -12.5925   18.5725 C   0  0  0  0  0  0  0  0  0  0  0  0
    7.7051  -13.9458   19.0779 C   0  0  0  0  0  0  0  0  0  0  0  0
    8.1837  -13.8858   20.5154 C   0  0  2  0  0  0  0  0  0  0  0  0
    9.2675  -12.8718   20.7199 C   0  0  0  0  0  0  0  0  0  0  0  0
    8.5660  -15.2702   20.9280 C   0  0  2  0  0  0  0  0  0  0  0  0
    7.4633  -16.1595   20.6169 N   0  0  0  0  0  0  0  0  0  0  0  0
    8.9557  -15.3593   22.3579 C   0  0  0  0  0  0  0  0  0  0  0  0
   10.0524  -14.8684   22.7317 O   0  0  0  0  0  0  0  0  0  0  0  0
    6.3036  -10.2540   26.6333 O   0  0  0  0  0  0  0  0  0  0  0  0
    6.5972  -11.5905   26.3821 C   0  0  0  0  0  0  0  0  0  0  0  0
    7.8809  -12.0143   26.1078 C   0  0  0  0  0  0  0  0  0  0  0  0
    8.1259  -13.3493   25.8648 C   0  0  0  0  0  0  0  0  0  0  0  0
    7.1441  -14.3147   25.8786 C   0  0  0  0  0  0  0  0  0  0  0  0
    7.4091  -15.7356   25.6197 C   0  0  0  0  0  0  0  0  0  0  0  0
    8.5761  -16.0662   24.7677 C   0  0  2  0  0  0  0  0  0  0  0  0
    8.1560  -15.9729   23.3432 N   0  0  0  0  0  0  0  0  0  0  0  0
    9.2314  -17.3421   24.9129 C   0  0  0  0  0  0  0  0  0  0  0  0
    8.5626  -18.4202   24.6880 O   0  0  0  0  0  0  0  0  0  0  0  0
    5.8565  -13.8633   26.1577 C   0  0  0  0  0  0  0  0  0  0  0  0
    5.5836  -12.5302   26.4050 C   0  0  0  0  0  0  0  0  0  0  0  0
   12.0088  -18.9679   23.1335 C   0  0  0  0  0  0  0  0  0  0  0  0
   12.3230  -19.1870   24.5969 C   0  0  1  0  0  0  0  0  0  0  0  0
   13.2903  -18.2353   24.9459 O   0  0  0  0  0  0  0  0  0  0  0  0
   11.0880  -18.9461   25.4496 C   0  0  2  0  0  0  0  0  0  0  0  0
   10.5861  -17.6043   25.2831 N   0  0  0  0  0  0  0  0  0  0  0  0
   11.3385  -19.2211   26.8678 C   0  0  0  0  0  0  0  0  0  0  0  0
   11.5637  -20.4854   27.3458 O   0  0  0  0  0  0  0  0  0  0  0  0
   11.3504  -18.2709   27.6926 O   0  0  0  0  0  0  0  0  0  0  0  0
  2  3  1  0
  2  1  1  0
  3  4  1  6
  5  3  1  0
  5  6  1  1
  7  5  1  0
  8  7  2  0
  9 10  1  0
 10 11  2  0
 10 20  1  0
 11 12  1  0
 12 13  2  0
 13 14  1  0
 15 14  1  1
 15 16  1  0
 16  7  1  0
 17 15  1  0
 17 18  2  0
 19 13  1  0
 20 19  2  0
 22 24  1  0
 22 21  1  6
 23 22  1  0
 24 25  1  1
 25 17  1  0
 26 24  1  0
 27 26  1  0
 28 26  2  0
M  END
$$$$
