IYT.pdb
     RDKit          3D

 28 28  0  0  1  0  0  0  0  0999 V2000
   10.0111  -14.2619   29.8349 C   0  0  0  0  0  0  0  0  0  0  0  0
    8.9044  -15.0482   29.1855 C   0  0  0  0  0  0  0  0  0  0  0  0
    9.0947  -15.1539   27.6849 C   0  0  2  0  0  0  0  0  0  0  0  0
    9.4409  -13.8399   27.0541 C   0  0  0  0  0  0  0  0  0  0  0  0
    7.8720  -15.7950   27.1133 C   0  0  2  0  0  0  0  0  0  0  0  0
    7.6645  -17.0626   27.7868 N   0  0  0  0  0  0  0  0  0  0  0  0
    7.9434  -15.9622   25.6396 C   0  0  0  0  0  0  0  0  0  0  0  0
    8.1001  -17.1128   25.1547 O   0  0  0  0  0  0  0  0  0  0  0  0
    7.4305  -13.7561   16.9223 O   0  0  0  0  0  0  0  0  0  0  0  0
    7.4013  -13.7807   18.3130 C   0  0  0  0  0  0  0  0  0  0  0  0
    8.0467  -12.8261   19.0713 C   0  0  0  0  0  0  0  0  0  0  0  0
    7.9910  -12.8897   20.4476 C   0  0  0  0  0  0  0  0  0  0  0  0
    7.3134  -13.8725   21.1340 C   0  0  0  0  0  0  0  0  0  0  0  0
    7.2561  -13.9366   22.5998 C   0  0  0  0  0  0  0  0  0  0  0  0
    7.9322  -15.0797   23.2581 C   0  0  2  0  0  0  0  0  0  0  0  0
    7.8443  -14.8890   24.7313 N   0  0  0  0  0  0  0  0  0  0  0  0
    9.3170  -15.3571   22.9686 C   0  0  0  0  0  0  0  0  0  0  0  0
   10.2326  -14.7578   23.6488 O   0  0  0  0  0  0  0  0  0  0  0  0
    6.6698  -14.8248   20.3476 C   0  0  0  0  0  0  0  0  0  0  0  0
    6.7100  -14.7842   18.9658 C   0  0  0  0  0  0  0  0  0  0  0  0
   10.6791  -18.9257   21.2003 C   0  0  0  0  0  0  0  0  0  0  0  0
   11.4175  -18.1175   22.2442 C   0  0  1  0  0  0  0  0  0  0  0  0
   12.7757  -18.4338   22.1090 O   0  0  0  0  0  0  0  0  0  0  0  0
   11.2467  -16.6294   21.9860 C   0  0  2  0  0  0  0  0  0  0  0  0
    9.8553  -16.2498   21.9917 N   0  0  0  0  0  0  0  0  0  0  0  0
   11.8803  -16.2143   20.7307 C   0  0  0  0  0  0  0  0  0  0  0  0
   13.2386  -16.2250   20.5507 O   0  0  0  0  0  0  0  0  0  0  0  0
   11.1638  -15.8298   19.7703 O   0  0  0  0  0  0  0  0  0  0  0  0
  2  3  1  0
  2  1  1  0
  3  4  1  6
  5  3  1  0
  5  6  1  1
  7  5  1  0
  8  7  2  0
  9 10  1  0
 10 11  2  0
 10 20  1  0
 11 12  1  0
 12 13  2  0
 13 14  1  0
 15 14  1  6
 15 16  1  0
 16  7  1  0
 17 15  1  0
 17 18  2  0
 19 13  1  0
 20 19  2  0
 22 24  1  0
 22 21  1  6
 23 22  1  0
 24 25  1  6
 25 17  1  0
 26 24  1  0
 27 26  1  0
 28 26  2  0
M  END
$$$$
