SHG.pdb
     RDKit          3D

 21 21  0  0  1  0  0  0  0  0999 V2000
   23.4189  -10.3239  -20.6840 O   0  0  0  0  0  0  0  0  0  0  0  0
   22.4450   -9.5759  -20.0456 C   0  0  0  0  0  0  0  0  0  0  0  0
   21.5639  -10.4196  -19.1566 C   0  0  2  0  0  0  0  0  0  0  0  0
   20.6760  -11.1724  -19.9836 N   0  0  0  0  0  0  0  0  0  0  0  0
   20.8561   -9.6036  -18.1365 C   0  0  0  0  0  0  0  0  0  0  0  0
   19.8434   -8.9447  -18.4884 O   0  0  0  0  0  0  0  0  0  0  0  0
   21.2384   -9.5101  -16.7850 N   0  0  0  0  0  0  0  0  0  0  0  0
   20.6329   -8.7228  -15.7606 C   0  0  1  0  0  0  0  0  0  0  0  0
   20.1467   -9.6209  -14.6606 C   0  0  0  0  0  0  0  0  0  0  0  0
   18.9633  -10.4063  -14.9357 C   0  0  0  0  0  0  0  0  0  0  0  0
   18.1428  -10.4085  -16.0264 C   0  0  0  0  0  0  0  0  0  0  0  0
   17.1526  -11.3054  -15.8142 N   0  0  0  0  0  0  0  0  0  0  0  0
   17.3559  -11.8534  -14.6059 C   0  0  0  0  0  0  0  0  0  0  0  0
   18.4493  -11.3175  -14.0631 N   0  0  0  0  0  0  0  0  0  0  0  0
   21.6284   -7.7586  -15.1556 C   0  0  0  0  0  0  0  0  0  0  0  0
   22.8410   -8.0782  -15.0832 O   0  0  0  0  0  0  0  0  0  0  0  0
   21.2380   -6.4861  -14.6585 N   0  0  0  0  0  0  0  0  0  0  0  0
   22.1600   -5.5368  -14.0956 C   0  0  0  0  0  0  0  0  0  0  0  0
   21.5192   -4.3078  -13.6079 C   0  0  0  0  0  0  0  0  0  0  0  0
   20.3201   -4.1081  -13.9113 O   0  0  0  0  0  0  0  0  0  0  0  0
   22.1498   -3.3521  -12.8341 O   0  0  0  0  0  0  0  0  0  0  0  0
  2  3  1  0
  2  1  1  0
  3  4  1  6
  3  5  1  0
  5  6  2  0
  7  5  1  0
  7  8  1  0
  8 15  1  0
  8  9  1  1
 10  9  1  0
 11 10  2  0
 12 13  1  0
 12 11  1  0
 13 14  2  0
 14 10  1  0
 15 16  2  0
 17 15  1  0
 17 18  1  0
 19 21  1  0
 19 18  1  0
 20 19  2  0
M  END
$$$$
