SHG.pdb
     RDKit          3D

 21 21  0  0  1  0  0  0  0  0999 V2000
   25.9883  -10.0924  -18.6350 O   0  0  0  0  0  0  0  0  0  0  0  0
   24.8860   -9.3581  -18.2333 C   0  0  0  0  0  0  0  0  0  0  0  0
   23.7259  -10.2366  -17.8322 C   0  0  2  0  0  0  0  0  0  0  0  0
   23.3537  -11.0349  -18.9562 N   0  0  0  0  0  0  0  0  0  0  0  0
   22.5943   -9.4483  -17.2794 C   0  0  0  0  0  0  0  0  0  0  0  0
   21.7568   -8.9544  -18.0782 O   0  0  0  0  0  0  0  0  0  0  0  0
   22.3847   -9.2084  -15.9082 N   0  0  0  0  0  0  0  0  0  0  0  0
   21.2941   -8.5169  -15.3015 C   0  0  1  0  0  0  0  0  0  0  0  0
   20.5317   -9.4614  -14.4184 C   0  0  0  0  0  0  0  0  0  0  0  0
   19.6588  -10.4085  -15.0773 C   0  0  0  0  0  0  0  0  0  0  0  0
   19.4035  -10.5931  -16.4053 C   0  0  0  0  0  0  0  0  0  0  0  0
   18.4989  -11.5910  -16.5316 N   0  0  0  0  0  0  0  0  0  0  0  0
   18.1960  -12.0205  -15.2965 C   0  0  0  0  0  0  0  0  0  0  0  0
   18.8916  -11.3125  -14.4065 N   0  0  0  0  0  0  0  0  0  0  0  0
   21.7859   -7.3792  -14.4351 C   0  0  0  0  0  0  0  0  0  0  0  0
   22.8422   -7.5143  -13.7690 O   0  0  0  0  0  0  0  0  0  0  0  0
   21.0877   -6.1450  -14.3447 N   0  0  0  0  0  0  0  0  0  0  0  0
   21.6053   -4.9881  -13.6653 C   0  0  0  0  0  0  0  0  0  0  0  0
   22.2358   -4.0089  -14.5614 C   0  0  0  0  0  0  0  0  0  0  0  0
   22.6858   -4.4172  -15.6571 O   0  0  0  0  0  0  0  0  0  0  0  0
   22.3677   -2.6627  -14.2785 O   0  0  0  0  0  0  0  0  0  0  0  0
  2  3  1  0
  2  1  1  0
  3  4  1  6
  3  5  1  0
  5  6  2  0
  7  5  1  0
  7  8  1  0
  8 15  1  0
  8  9  1  1
 10  9  1  0
 11 10  2  0
 12 13  1  0
 12 11  1  0
 13 14  2  0
 14 10  1  0
 15 16  2  0
 17 15  1  0
 17 18  1  0
 19 21  1  0
 19 18  1  0
 20 19  2  0
M  END
$$$$
