SHG.pdb
     RDKit          3D

 21 21  0  0  1  0  0  0  0  0999 V2000
   14.6369  -23.9438  -13.9700 O   0  0  0  0  0  0  0  0  0  0  0  0
   15.6674  -24.1680  -13.0737 C   0  0  0  0  0  0  0  0  0  0  0  0
   16.9664  -23.5455  -13.5247 C   0  0  2  0  0  0  0  0  0  0  0  0
   17.3219  -24.1071  -14.7886 N   0  0  0  0  0  0  0  0  0  0  0  0
   18.0369  -23.6874  -12.5043 C   0  0  0  0  0  0  0  0  0  0  0  0
   19.0083  -24.4481  -12.7516 O   0  0  0  0  0  0  0  0  0  0  0  0
   18.0471  -23.0249  -11.2623 N   0  0  0  0  0  0  0  0  0  0  0  0
   19.0990  -22.9962  -10.2988 C   0  0  1  0  0  0  0  0  0  0  0  0
   19.7435  -21.6406  -10.3017 C   0  0  0  0  0  0  0  0  0  0  0  0
   20.3966  -21.2322  -11.5264 C   0  0  0  0  0  0  0  0  0  0  0  0
   21.5576  -21.6721  -12.0932 C   0  0  0  0  0  0  0  0  0  0  0  0
   21.7679  -20.9740  -13.2327 N   0  0  0  0  0  0  0  0  0  0  0  0
   20.7496  -20.1106  -13.3713 C   0  0  0  0  0  0  0  0  0  0  0  0
   19.9120  -20.2566  -12.3445 N   0  0  0  0  0  0  0  0  0  0  0  0
   18.5672  -23.2451   -8.9052 C   0  0  0  0  0  0  0  0  0  0  0  0
   17.4556  -22.7676   -8.5676 O   0  0  0  0  0  0  0  0  0  0  0  0
   19.2882  -24.0101   -7.9493 N   0  0  0  0  0  0  0  0  0  0  0  0
   18.8434  -24.2138   -6.5970 C   0  0  0  0  0  0  0  0  0  0  0  0
   18.0670  -25.4471   -6.4093 C   0  0  0  0  0  0  0  0  0  0  0  0
   17.8236  -26.1493   -7.4180 O   0  0  0  0  0  0  0  0  0  0  0  0
   17.5841  -25.8886   -5.1921 O   0  0  0  0  0  0  0  0  0  0  0  0
  2  3  1  0
  2  1  1  0
  3  4  1  6
  3  5  1  0
  5  6  2  0
  7  5  1  0
  7  8  1  0
  8 15  1  0
  8  9  1  1
 10  9  1  0
 11 10  2  0
 12 13  1  0
 12 11  1  0
 13 14  2  0
 14 10  1  0
 15 16  2  0
 17 15  1  0
 17 18  1  0
 19 21  1  0
 19 18  1  0
 20 19  2  0
M  END
$$$$
