SHG.pdb
     RDKit          3D

 21 21  0  0  1  0  0  0  0  0999 V2000
   42.7759   -5.9628   -8.9226 O   0  0  0  0  0  0  0  0  0  0  0  0
   43.3015   -7.2424   -8.8787 C   0  0  0  0  0  0  0  0  0  0  0  0
   42.4242   -8.1974   -8.1061 C   0  0  2  0  0  0  0  0  0  0  0  0
   43.0647   -9.4732   -8.0728 N   0  0  0  0  0  0  0  0  0  0  0  0
   41.0442   -8.2543   -8.6535 C   0  0  0  0  0  0  0  0  0  0  0  0
   40.7848   -9.1011   -9.5474 O   0  0  0  0  0  0  0  0  0  0  0  0
   39.9881   -7.4196   -8.2416 N   0  0  0  0  0  0  0  0  0  0  0  0
   38.6568   -7.3821   -8.7532 C   0  0  1  0  0  0  0  0  0  0  0  0
   37.6982   -7.8274   -7.6875 C   0  0  0  0  0  0  0  0  0  0  0  0
   37.7616   -9.2181   -7.2938 C   0  0  0  0  0  0  0  0  0  0  0  0
   38.0249   -9.7768   -6.0767 C   0  0  0  0  0  0  0  0  0  0  0  0
   37.9905  -11.1227   -6.2081 N   0  0  0  0  0  0  0  0  0  0  0  0
   37.7095  -11.3963   -7.4918 C   0  0  0  0  0  0  0  0  0  0  0  0
   37.5685  -10.2515   -8.1602 N   0  0  0  0  0  0  0  0  0  0  0  0
   38.2688   -5.9775   -9.1575 C   0  0  0  0  0  0  0  0  0  0  0  0
   38.6091   -5.0054   -8.4385 O   0  0  0  0  0  0  0  0  0  0  0  0
   37.5229   -5.7121  -10.3373 N   0  0  0  0  0  0  0  0  0  0  0  0
   37.2079   -4.3859  -10.7958 C   0  0  0  0  0  0  0  0  0  0  0  0
   38.3064   -3.7353  -11.5233 C   0  0  0  0  0  0  0  0  0  0  0  0
   38.0770   -2.6339  -12.0747 O   0  0  0  0  0  0  0  0  0  0  0  0
   39.5809   -4.2560  -11.6424 O   0  0  0  0  0  0  0  0  0  0  0  0
  2  3  1  0
  2  1  1  0
  3  4  1  6
  3  5  1  0
  5  6  2  0
  7  5  1  0
  7  8  1  0
  8 15  1  0
  8  9  1  1
 10  9  1  0
 11 10  2  0
 12 13  1  0
 12 11  1  0
 13 14  2  0
 14 10  1  0
 15 16  2  0
 17 15  1  0
 17 18  1  0
 19 21  1  0
 19 18  1  0
 20 19  2  0
M  END
$$$$
