SHG.pdb
     RDKit          3D

 21 21  0  0  1  0  0  0  0  0999 V2000
   21.7880  -10.7441    6.2138 O   0  0  0  0  0  0  0  0  0  0  0  0
   20.9260  -11.6688    6.7772 C   0  0  0  0  0  0  0  0  0  0  0  0
   19.4811  -11.3819    6.4481 C   0  0  2  0  0  0  0  0  0  0  0  0
   18.9997  -10.3885    7.3540 N   0  0  0  0  0  0  0  0  0  0  0  0
   18.6537  -12.6160    6.4460 C   0  0  0  0  0  0  0  0  0  0  0  0
   17.7260  -12.7210    7.2897 O   0  0  0  0  0  0  0  0  0  0  0  0
   18.8317  -13.6935    5.5579 N   0  0  0  0  0  0  0  0  0  0  0  0
   18.0941  -14.9139    5.5097 C   0  0  1  0  0  0  0  0  0  0  0  0
   17.7816  -15.2538    4.0815 C   0  0  0  0  0  0  0  0  0  0  0  0
   17.0400  -16.4741    3.8493 C   0  0  0  0  0  0  0  0  0  0  0  0
   16.6060  -17.4211    4.7312 C   0  0  0  0  0  0  0  0  0  0  0  0
   15.9699  -18.3921    4.0365 N   0  0  0  0  0  0  0  0  0  0  0  0
   16.0091  -18.0520    2.7386 C   0  0  0  0  0  0  0  0  0  0  0  0
   16.6544  -16.8925    2.6115 N   0  0  0  0  0  0  0  0  0  0  0  0
   18.8977  -16.0583    6.0854 C   0  0  0  0  0  0  0  0  0  0  0  0
   20.0517  -16.2919    5.6480 O   0  0  0  0  0  0  0  0  0  0  0  0
   18.3889  -16.8915    7.1177 N   0  0  0  0  0  0  0  0  0  0  0  0
   19.1566  -17.9302    7.7502 C   0  0  0  0  0  0  0  0  0  0  0  0
   18.7827  -19.2855    7.3229 C   0  0  0  0  0  0  0  0  0  0  0  0
   18.3536  -19.4379    6.1558 O   0  0  0  0  0  0  0  0  0  0  0  0
   18.8718  -20.4091    8.1225 O   0  0  0  0  0  0  0  0  0  0  0  0
  2  3  1  0
  2  1  1  0
  3  4  1  1
  3  5  1  0
  5  6  2  0
  7  5  1  0
  7  8  1  0
  8 15  1  0
  8  9  1  6
 10  9  1  0
 11 10  2  0
 12 13  1  0
 12 11  1  0
 13 14  2  0
 14 10  1  0
 15 16  2  0
 17 15  1  0
 17 18  1  0
 19 21  1  0
 19 18  1  0
 20 19  2  0
M  END
$$$$
