SHG.pdb
     RDKit          3D

 21 21  0  0  1  0  0  0  0  0999 V2000
   20.0978  -13.7403  -19.0360 O   0  0  0  0  0  0  0  0  0  0  0  0
   20.2867  -13.1377  -17.8044 C   0  0  0  0  0  0  0  0  0  0  0  0
   21.6586  -12.5227  -17.6704 C   0  0  2  0  0  0  0  0  0  0  0  0
   22.6342  -13.5460  -17.8712 N   0  0  0  0  0  0  0  0  0  0  0  0
   21.8252  -11.8065  -16.3793 C   0  0  0  0  0  0  0  0  0  0  0  0
   21.5470  -12.4139  -15.3129 O   0  0  0  0  0  0  0  0  0  0  0  0
   22.2779  -10.4793  -16.2566 N   0  0  0  0  0  0  0  0  0  0  0  0
   22.4730   -9.7327  -15.0566 C   0  0  1  0  0  0  0  0  0  0  0  0
   23.7592  -10.1546  -14.4080 C   0  0  0  0  0  0  0  0  0  0  0  0
   24.9300  -10.2075  -15.2563 C   0  0  0  0  0  0  0  0  0  0  0  0
   25.0574   -9.9764  -16.5953 C   0  0  0  0  0  0  0  0  0  0  0  0
   26.3515  -10.1669  -16.9405 N   0  0  0  0  0  0  0  0  0  0  0  0
   27.0194  -10.5127  -15.8287 C   0  0  0  0  0  0  0  0  0  0  0  0
   26.1701  -10.5410  -14.8015 N   0  0  0  0  0  0  0  0  0  0  0  0
   22.5732   -8.2520  -15.3473 C   0  0  0  0  0  0  0  0  0  0  0  0
   22.9382   -7.8633  -16.4846 O   0  0  0  0  0  0  0  0  0  0  0  0
   22.2656   -7.2696  -14.3680 N   0  0  0  0  0  0  0  0  0  0  0  0
   22.2383   -5.8579  -14.6411 C   0  0  0  0  0  0  0  0  0  0  0  0
   23.5705   -5.2647  -14.8214 C   0  0  0  0  0  0  0  0  0  0  0  0
   23.6467   -4.0240  -14.9776 O   0  0  0  0  0  0  0  0  0  0  0  0
   24.7509   -5.9833  -14.8309 O   0  0  0  0  0  0  0  0  0  0  0  0
  2  3  1  0
  2  1  1  0
  3  4  1  1
  3  5  1  0
  5  6  2  0
  7  5  1  0
  7  8  1  0
  8 15  1  0
  8  9  1  6
 10  9  1  0
 11 10  2  0
 12 13  1  0
 12 11  1  0
 13 14  2  0
 14 10  1  0
 15 16  2  0
 17 15  1  0
 17 18  1  0
 19 21  1  0
 19 18  1  0
 20 19  2  0
M  END
$$$$
