SHG.pdb
     RDKit          3D

 21 21  0  0  1  0  0  0  0  0999 V2000
   17.7325  -13.0404  -18.5930 O   0  0  0  0  0  0  0  0  0  0  0  0
   18.4641  -12.8669  -17.4310 C   0  0  0  0  0  0  0  0  0  0  0  0
   19.6382  -13.8116  -17.3452 C   0  0  2  0  0  0  0  0  0  0  0  0
   19.1840  -15.0481  -16.7939 N   0  0  0  0  0  0  0  0  0  0  0  0
   20.7747  -13.2221  -16.5914 C   0  0  0  0  0  0  0  0  0  0  0  0
   20.8525  -13.4358  -15.3537 O   0  0  0  0  0  0  0  0  0  0  0  0
   21.7869  -12.4302  -17.1656 N   0  0  0  0  0  0  0  0  0  0  0  0
   22.8680  -11.7801  -16.4992 C   0  0  1  0  0  0  0  0  0  0  0  0
   24.1403  -12.0183  -17.2592 C   0  0  0  0  0  0  0  0  0  0  0  0
   25.3667  -11.5761  -16.6318 C   0  0  0  0  0  0  0  0  0  0  0  0
   26.1592  -12.2001  -15.7125 C   0  0  0  0  0  0  0  0  0  0  0  0
   27.1919  -11.3797  -15.4117 N   0  0  0  0  0  0  0  0  0  0  0  0
   27.0419  -10.2594  -16.1356 C   0  0  0  0  0  0  0  0  0  0  0  0
   25.9403  -10.3653  -16.8788 N   0  0  0  0  0  0  0  0  0  0  0  0
   22.6479  -10.2853  -16.4357 C   0  0  0  0  0  0  0  0  0  0  0  0
   22.1382   -9.6880  -17.4160 O   0  0  0  0  0  0  0  0  0  0  0  0
   23.0012   -9.5198  -15.2919 N   0  0  0  0  0  0  0  0  0  0  0  0
   22.9845   -8.0821  -15.2629 C   0  0  0  0  0  0  0  0  0  0  0  0
   21.7330   -7.5157  -14.7412 C   0  0  0  0  0  0  0  0  0  0  0  0
   20.7750   -8.2958  -14.5329 O   0  0  0  0  0  0  0  0  0  0  0  0
   21.5381   -6.1762  -14.4630 O   0  0  0  0  0  0  0  0  0  0  0  0
  2  3  1  0
  2  1  1  0
  3  4  1  1
  3  5  1  0
  5  6  2  0
  7  5  1  0
  7  8  1  0
  8 15  1  0
  8  9  1  6
 10  9  1  0
 11 10  2  0
 12 13  1  0
 12 11  1  0
 13 14  2  0
 14 10  1  0
 15 16  2  0
 17 15  1  0
 17 18  1  0
 19 21  1  0
 19 18  1  0
 20 19  2  0
M  END
$$$$
