SHG.pdb
     RDKit          3D

 21 21  0  0  1  0  0  0  0  0999 V2000
   25.2992  -10.6586  -17.7119 O   0  0  0  0  0  0  0  0  0  0  0  0
   24.2879   -9.7393  -17.4937 C   0  0  0  0  0  0  0  0  0  0  0  0
   22.9248  -10.3858  -17.4450 C   0  0  2  0  0  0  0  0  0  0  0  0
   22.6419  -10.9413  -18.7298 N   0  0  0  0  0  0  0  0  0  0  0  0
   21.8766   -9.4430  -16.9762 C   0  0  0  0  0  0  0  0  0  0  0  0
   20.7918   -9.3834  -17.6113 O   0  0  0  0  0  0  0  0  0  0  0  0
   22.0068   -8.5981  -15.8579 N   0  0  0  0  0  0  0  0  0  0  0  0
   21.0414   -7.6849  -15.3387 C   0  0  1  0  0  0  0  0  0  0  0  0
   19.9471   -8.4497  -14.6526 C   0  0  0  0  0  0  0  0  0  0  0  0
   18.9162   -9.0118  -15.4977 C   0  0  0  0  0  0  0  0  0  0  0  0
   18.7078   -8.8761  -16.8397 C   0  0  0  0  0  0  0  0  0  0  0  0
   17.6007   -9.5784  -17.1731 N   0  0  0  0  0  0  0  0  0  0  0  0
   17.1272  -10.1430  -16.0512 C   0  0  0  0  0  0  0  0  0  0  0  0
   17.9147   -9.8077  -15.0292 N   0  0  0  0  0  0  0  0  0  0  0  0
   21.6621   -6.7604  -14.3156 C   0  0  0  0  0  0  0  0  0  0  0  0
   22.3272   -7.2401  -13.3642 O   0  0  0  0  0  0  0  0  0  0  0  0
   21.5193   -5.3487  -14.3911 N   0  0  0  0  0  0  0  0  0  0  0  0
   22.1724   -4.4356  -13.4924 C   0  0  0  0  0  0  0  0  0  0  0  0
   21.8146   -3.0281  -13.7162 C   0  0  0  0  0  0  0  0  0  0  0  0
   21.0874   -2.7541  -14.6989 O   0  0  0  0  0  0  0  0  0  0  0  0
   22.2263   -1.9804  -12.9145 O   0  0  0  0  0  0  0  0  0  0  0  0
  2  3  1  0
  2  1  1  0
  3  4  1  6
  3  5  1  0
  5  6  2  0
  7  5  1  0
  7  8  1  0
  8 15  1  0
  8  9  1  1
 10  9  1  0
 11 10  2  0
 12 13  1  0
 12 11  1  0
 13 14  2  0
 14 10  1  0
 15 16  2  0
 17 15  1  0
 17 18  1  0
 19 21  1  0
 19 18  1  0
 20 19  2  0
M  END
$$$$
