SHG.pdb
     RDKit          3D

 21 21  0  0  1  0  0  0  0  0999 V2000
   21.8873  -10.2769  -14.9423 O   0  0  0  0  0  0  0  0  0  0  0  0
   20.6412  -10.0984  -14.3673 C   0  0  0  0  0  0  0  0  0  0  0  0
   20.3092   -8.6410  -14.1570 C   0  0  2  0  0  0  0  0  0  0  0  0
   21.3109   -8.0658  -13.3174 N   0  0  0  0  0  0  0  0  0  0  0  0
   18.9324   -8.4526  -13.6313 C   0  0  0  0  0  0  0  0  0  0  0  0
   17.9666   -8.9176  -14.2906 O   0  0  0  0  0  0  0  0  0  0  0  0
   18.6214   -7.7829  -12.4329 N   0  0  0  0  0  0  0  0  0  0  0  0
   17.3282   -7.5358  -11.8832 C   0  0  1  0  0  0  0  0  0  0  0  0
   17.3831   -7.6798  -10.3901 C   0  0  0  0  0  0  0  0  0  0  0  0
   16.1489   -7.4586   -9.6682 C   0  0  0  0  0  0  0  0  0  0  0  0
   14.8851   -7.2377  -10.1336 C   0  0  0  0  0  0  0  0  0  0  0  0
   14.0628   -7.0685   -9.0729 N   0  0  0  0  0  0  0  0  0  0  0  0
   14.8076   -7.1826   -7.9621 C   0  0  0  0  0  0  0  0  0  0  0  0
   16.0730   -7.4189   -8.3086 N   0  0  0  0  0  0  0  0  0  0  0  0
   16.8671   -6.1284  -12.1888 C   0  0  0  0  0  0  0  0  0  0  0  0
   15.7209   -5.7570  -11.8340 O   0  0  0  0  0  0  0  0  0  0  0  0
   17.6938   -5.1966  -12.8724 N   0  0  0  0  0  0  0  0  0  0  0  0
   17.2907   -3.8495  -13.1736 C   0  0  0  0  0  0  0  0  0  0  0  0
   16.5666   -3.7192  -14.4456 C   0  0  0  0  0  0  0  0  0  0  0  0
   15.5957   -4.4838  -14.6518 O   0  0  0  0  0  0  0  0  0  0  0  0
   16.8834   -2.8079  -15.4350 O   0  0  0  0  0  0  0  0  0  0  0  0
  2  3  1  0
  2  1  1  0
  3  4  1  1
  3  5  1  0
  5  6  2  0
  7  5  1  0
  7  8  1  0
  8 15  1  0
  8  9  1  1
 10  9  1  0
 11 10  2  0
 12 13  1  0
 12 11  1  0
 13 14  2  0
 14 10  1  0
 15 16  2  0
 17 15  1  0
 17 18  1  0
 19 21  1  0
 19 18  1  0
 20 19  2  0
M  END
$$$$
