SHG.pdb
     RDKit          3D

 21 21  0  0  1  0  0  0  0  0999 V2000
   25.8586  -19.5883  -19.3595 O   0  0  0  0  0  0  0  0  0  0  0  0
   26.4673  -18.6441  -18.5511 C   0  0  0  0  0  0  0  0  0  0  0  0
   27.1630  -19.2665  -17.3649 C   0  0  2  0  0  0  0  0  0  0  0  0
   28.2360  -20.0775  -17.8446 N   0  0  0  0  0  0  0  0  0  0  0  0
   26.2188  -20.0097  -16.4912 C   0  0  0  0  0  0  0  0  0  0  0  0
   26.3782  -21.2498  -16.3488 O   0  0  0  0  0  0  0  0  0  0  0  0
   25.1423  -19.4227  -15.7996 N   0  0  0  0  0  0  0  0  0  0  0  0
   24.2157  -20.0637  -14.9244 C   0  0  1  0  0  0  0  0  0  0  0  0
   24.5232  -19.6843  -13.5050 C   0  0  0  0  0  0  0  0  0  0  0  0
   25.7385  -20.2239  -12.9349 C   0  0  0  0  0  0  0  0  0  0  0  0
   25.9283  -21.3213  -12.1460 C   0  0  0  0  0  0  0  0  0  0  0  0
   27.2448  -21.4103  -11.8476 N   0  0  0  0  0  0  0  0  0  0  0  0
   27.8647  -20.3799  -12.4441 C   0  0  0  0  0  0  0  0  0  0  0  0
   26.9637  -19.6536  -13.1058 N   0  0  0  0  0  0  0  0  0  0  0  0
   22.7984  -19.6248  -15.2168 C   0  0  0  0  0  0  0  0  0  0  0  0
   22.5718  -18.4386  -15.5622 O   0  0  0  0  0  0  0  0  0  0  0  0
   21.6972  -20.5169  -15.1140 N   0  0  0  0  0  0  0  0  0  0  0  0
   20.3568  -20.1714  -15.5038 C   0  0  0  0  0  0  0  0  0  0  0  0
   19.6539  -19.3317  -14.5240 C   0  0  0  0  0  0  0  0  0  0  0  0
   19.5307  -19.7669  -13.3557 O   0  0  0  0  0  0  0  0  0  0  0  0
   19.1167  -18.0893  -14.8027 O   0  0  0  0  0  0  0  0  0  0  0  0
  2  3  1  0
  2  1  1  0
  3  4  1  6
  3  5  1  0
  5  6  2  0
  7  5  1  0
  7  8  1  0
  8 15  1  0
  8  9  1  1
 10  9  1  0
 11 10  2  0
 12 13  1  0
 12 11  1  0
 13 14  2  0
 14 10  1  0
 15 16  2  0
 17 15  1  0
 17 18  1  0
 19 21  1  0
 19 18  1  0
 20 19  2  0
M  END
$$$$
