SHG.pdb
     RDKit          3D

 21 21  0  0  1  0  0  0  0  0999 V2000
   16.7598  -25.6957   -3.8979 O   0  0  0  0  0  0  0  0  0  0  0  0
   16.3527  -24.7810   -2.9424 C   0  0  0  0  0  0  0  0  0  0  0  0
   14.9482  -24.2840   -3.1847 C   0  0  2  0  0  0  0  0  0  0  0  0
   14.8436  -23.8715   -4.5478 N   0  0  0  0  0  0  0  0  0  0  0  0
   14.5596  -23.2193   -2.2241 C   0  0  0  0  0  0  0  0  0  0  0  0
   14.0836  -22.1452   -2.6749 O   0  0  0  0  0  0  0  0  0  0  0  0
   14.6854  -23.3226   -0.8258 N   0  0  0  0  0  0  0  0  0  0  0  0
   14.2765  -22.3738    0.1582 C   0  0  1  0  0  0  0  0  0  0  0  0
   13.1523  -22.9479    0.9704 C   0  0  0  0  0  0  0  0  0  0  0  0
   11.9095  -23.2021    0.2747 C   0  0  0  0  0  0  0  0  0  0  0  0
   11.0449  -22.3343   -0.3272 C   0  0  0  0  0  0  0  0  0  0  0  0
   10.0082  -23.0437   -0.8292 N   0  0  0  0  0  0  0  0  0  0  0  0
   10.2266  -24.3366   -0.5419 C   0  0  0  0  0  0  0  0  0  0  0  0
   11.3747  -24.4462    0.1266 N   0  0  0  0  0  0  0  0  0  0  0  0
   15.4084  -22.0537    1.1085 C   0  0  0  0  0  0  0  0  0  0  0  0
   16.2295  -22.9501    1.4246 O   0  0  0  0  0  0  0  0  0  0  0  0
   15.5805  -20.7580    1.6656 N   0  0  0  0  0  0  0  0  0  0  0  0
   16.6791  -20.4021    2.5228 C   0  0  0  0  0  0  0  0  0  0  0  0
   16.4459  -20.7083    3.9409 C   0  0  0  0  0  0  0  0  0  0  0  0
   15.3665  -21.2617    4.2544 O   0  0  0  0  0  0  0  0  0  0  0  0
   17.3383  -20.4270    4.9578 O   0  0  0  0  0  0  0  0  0  0  0  0
  2  3  1  0
  2  1  1  0
  3  4  1  6
  3  5  1  0
  5  6  2  0
  7  5  1  0
  7  8  1  0
  8 15  1  0
  8  9  1  1
 10  9  1  0
 11 10  2  0
 12 13  1  0
 12 11  1  0
 13 14  2  0
 14 10  1  0
 15 16  2  0
 17 15  1  0
 17 18  1  0
 19 21  1  0
 19 18  1  0
 20 19  2  0
M  END
$$$$
