SHG.pdb
     RDKit          3D

 21 21  0  0  1  0  0  0  0  0999 V2000
   24.9382  -11.7285  -18.1548 O   0  0  0  0  0  0  0  0  0  0  0  0
   24.0539  -10.7626  -18.6027 C   0  0  0  0  0  0  0  0  0  0  0  0
   23.8771   -9.6406  -17.6085 C   0  0  2  0  0  0  0  0  0  0  0  0
   23.8074  -10.2045  -16.2983 N   0  0  0  0  0  0  0  0  0  0  0  0
   22.7075   -8.7846  -17.9354 C   0  0  0  0  0  0  0  0  0  0  0  0
   22.6680   -8.2222  -19.0604 O   0  0  0  0  0  0  0  0  0  0  0  0
   21.6233   -8.5514  -17.0686 N   0  0  0  0  0  0  0  0  0  0  0  0
   20.4314   -7.8165  -17.3423 C   0  0  1  0  0  0  0  0  0  0  0  0
   19.2502   -8.7413  -17.2910 C   0  0  0  0  0  0  0  0  0  0  0  0
   19.0908   -9.6570  -18.3997 C   0  0  0  0  0  0  0  0  0  0  0  0
   18.9976   -9.4094  -19.7387 C   0  0  0  0  0  0  0  0  0  0  0  0
   18.8387  -10.5892  -20.3811 N   0  0  0  0  0  0  0  0  0  0  0  0
   18.8329  -11.5577  -19.4517 C   0  0  0  0  0  0  0  0  0  0  0  0
   18.9848  -11.0065  -18.2475 N   0  0  0  0  0  0  0  0  0  0  0  0
   20.2093   -6.7355  -16.3083 C   0  0  0  0  0  0  0  0  0  0  0  0
   19.2170   -5.9719  -16.4079 O   0  0  0  0  0  0  0  0  0  0  0  0
   21.0939   -6.5483  -15.2123 N   0  0  0  0  0  0  0  0  0  0  0  0
   20.8430   -5.6253  -14.1384 C   0  0  0  0  0  0  0  0  0  0  0  0
   21.9220   -5.5694  -13.1425 C   0  0  0  0  0  0  0  0  0  0  0  0
   22.8839   -4.7964  -13.3588 O   0  0  0  0  0  0  0  0  0  0  0  0
   21.9499   -6.3135  -11.9784 O   0  0  0  0  0  0  0  0  0  0  0  0
  2  3  1  0
  2  1  1  0
  3  4  1  1
  3  5  1  0
  5  6  2  0
  7  5  1  0
  7  8  1  0
  8 15  1  0
  8  9  1  1
 10  9  1  0
 11 10  2  0
 12 13  1  0
 12 11  1  0
 13 14  2  0
 14 10  1  0
 15 16  2  0
 17 15  1  0
 17 18  1  0
 19 21  1  0
 19 18  1  0
 20 19  2  0
M  END
$$$$
