DWQ.pdb
     RDKit          3D

 32 33  0  0  1  0  0  0  0  0999 V2000
   11.2046  -16.4423   19.0012 N   0  0  0  0  0  0  0  0  0  0  0  0
   10.5654  -17.3431   19.9164 C   0  0  1  0  0  0  0  0  0  0  0  0
   11.3405  -18.6258   19.9645 C   0  0  0  0  0  0  0  0  0  0  0  0
   11.3632  -19.1781   18.5839 C   0  0  0  0  0  0  0  0  0  0  0  0
   12.3187  -19.8786   18.1467 O   0  0  0  0  0  0  0  0  0  0  0  0
   10.3737  -16.7079   21.2406 C   0  0  0  0  0  0  0  0  0  0  0  0
   11.3921  -16.2974   21.8760 O   0  0  0  0  0  0  0  0  0  0  0  0
   10.3252  -18.9561   17.6799 O   0  0  0  0  0  0  0  0  0  0  0  0
    9.1238  -16.5245   21.8520 N   0  0  0  0  0  0  0  0  0  0  0  0
    8.9590  -16.0891   23.2538 C   0  0  1  0  0  0  0  0  0  0  0  0
    7.6127  -15.4676   23.3140 C   0  0  0  0  0  0  0  0  0  0  0  0
    7.1060  -15.0371   24.6083 C   0  0  0  0  0  0  0  0  0  0  0  0
    6.3946  -15.7950   25.5567 C   0  0  0  0  0  0  0  0  0  0  0  0
    6.0999  -15.0037   26.5905 N   0  0  0  0  0  0  0  0  0  0  0  0
    6.5908  -13.7562   26.3574 C   0  0  0  0  0  0  0  0  0  0  0  0
    6.5572  -12.6057   27.1139 C   0  0  0  0  0  0  0  0  0  0  0  0
    7.1456  -11.4295   26.6750 C   0  0  0  0  0  0  0  0  0  0  0  0
    7.7808  -11.3997   25.4566 C   0  0  0  0  0  0  0  0  0  0  0  0
    7.8019  -12.5612   24.7169 C   0  0  0  0  0  0  0  0  0  0  0  0
    7.2274  -13.7519   25.1187 C   0  0  0  0  0  0  0  0  0  0  0  0
    9.2626  -17.1395   24.2144 C   0  0  0  0  0  0  0  0  0  0  0  0
    9.1473  -18.3536   23.9071 O   0  0  0  0  0  0  0  0  0  0  0  0
   12.3669  -21.4613   26.2795 N   0  0  0  0  0  0  0  0  0  0  0  0
   12.8525  -20.3188   25.6197 C   0  0  0  0  0  0  0  0  0  0  0  0
   13.3499  -20.4196   24.4791 O   0  0  0  0  0  0  0  0  0  0  0  0
   12.8046  -18.9372   26.2314 C   0  0  0  0  0  0  0  0  0  0  0  0
   11.8514  -18.0591   25.4802 C   0  0  0  0  0  0  0  0  0  0  0  0
   10.6123  -17.8090   26.2496 C   0  0  2  0  0  0  0  0  0  0  0  0
    9.7056  -16.9004   25.5510 N   0  0  0  0  0  0  0  0  0  0  0  0
   10.8016  -17.3626   27.6513 C   0  0  0  0  0  0  0  0  0  0  0  0
   10.0146  -17.9182   28.6891 O   0  0  0  0  0  0  0  0  0  0  0  0
   11.6223  -16.5043   28.0425 O   0  0  0  0  0  0  0  0  0  0  0  0
  2  1  1  6
  2  3  1  0
  4  3  1  0
  4  8  1  0
  5  4  2  0
  6  7  2  0
  6  2  1  0
  9  6  1  0
 10  9  1  0
 10 11  1  6
 11 12  1  0
 12 13  2  0
 12 20  1  0
 13 14  1  0
 14 15  1  0
 15 16  2  0
 16 17  1  0
 18 17  2  0
 19 18  1  0
 20 19  2  0
 20 15  1  0
 21 10  1  0
 22 21  2  0
 23 24  1  0
 24 25  2  0
 26 24  1  0
 26 27  1  0
 28 27  1  6
 28 29  1  0
 29 21  1  0
 30 28  1  0
 31 30  1  0
 32 30  2  0
M  END
$$$$
