DWQ.pdb
     RDKit          3D

 32 33  0  0  1  0  0  0  0  0999 V2000
    9.5339  -15.5102   17.9134 N   0  0  0  0  0  0  0  0  0  0  0  0
    9.5892  -16.5807   18.8667 C   0  0  1  0  0  0  0  0  0  0  0  0
   10.7530  -17.4683   18.5410 C   0  0  0  0  0  0  0  0  0  0  0  0
   10.5455  -17.9763   17.1588 C   0  0  0  0  0  0  0  0  0  0  0  0
    9.3977  -18.1921   16.6782 O   0  0  0  0  0  0  0  0  0  0  0  0
    9.6025  -16.0581   20.2525 C   0  0  0  0  0  0  0  0  0  0  0  0
   10.6502  -15.4849   20.6807 O   0  0  0  0  0  0  0  0  0  0  0  0
   11.6108  -18.2480   16.3014 O   0  0  0  0  0  0  0  0  0  0  0  0
    8.5195  -16.1533   21.1400 N   0  0  0  0  0  0  0  0  0  0  0  0
    8.5789  -15.7099   22.5478 C   0  0  1  0  0  0  0  0  0  0  0  0
    7.1921  -15.3067   22.8890 C   0  0  0  0  0  0  0  0  0  0  0  0
    6.8918  -14.9595   24.2698 C   0  0  0  0  0  0  0  0  0  0  0  0
    6.5029  -15.8178   25.3148 C   0  0  0  0  0  0  0  0  0  0  0  0
    6.3027  -15.0815   26.4100 N   0  0  0  0  0  0  0  0  0  0  0  0
    6.5457  -13.7735   26.1243 C   0  0  0  0  0  0  0  0  0  0  0  0
    6.4901  -12.6422   26.9079 C   0  0  0  0  0  0  0  0  0  0  0  0
    6.7977  -11.3896   26.3993 C   0  0  0  0  0  0  0  0  0  0  0  0
    7.1686  -11.2623   25.0820 C   0  0  0  0  0  0  0  0  0  0  0  0
    7.2170  -12.4064   24.3170 C   0  0  0  0  0  0  0  0  0  0  0  0
    6.9177  -13.6712   24.7861 C   0  0  0  0  0  0  0  0  0  0  0  0
    9.2374  -16.6719   23.4191 C   0  0  0  0  0  0  0  0  0  0  0  0
    9.2609  -17.8965   23.1339 O   0  0  0  0  0  0  0  0  0  0  0  0
   14.2901  -18.4922   23.3538 N   0  0  0  0  0  0  0  0  0  0  0  0
   14.0066  -17.1269   23.5328 C   0  0  0  0  0  0  0  0  0  0  0  0
   14.7402  -16.2624   23.0103 O   0  0  0  0  0  0  0  0  0  0  0  0
   12.8307  -16.6341   24.3450 C   0  0  0  0  0  0  0  0  0  0  0  0
   11.8773  -17.7542   24.6285 C   0  0  0  0  0  0  0  0  0  0  0  0
   10.6978  -17.2912   25.3929 C   0  0  2  0  0  0  0  0  0  0  0  0
    9.8973  -16.3291   24.6386 N   0  0  0  0  0  0  0  0  0  0  0  0
   10.9742  -16.7693   26.7533 C   0  0  0  0  0  0  0  0  0  0  0  0
   10.4963  -15.4931   27.1381 O   0  0  0  0  0  0  0  0  0  0  0  0
   11.6165  -17.3603   27.6485 O   0  0  0  0  0  0  0  0  0  0  0  0
  2  1  1  6
  2  3  1  0
  4  3  1  0
  4  8  1  0
  5  4  2  0
  6  7  2  0
  6  2  1  0
  9  6  1  0
 10  9  1  0
 10 11  1  1
 11 12  1  0
 12 13  2  0
 12 20  1  0
 13 14  1  0
 14 15  1  0
 15 16  2  0
 16 17  1  0
 18 17  2  0
 19 18  1  0
 20 19  2  0
 20 15  1  0
 21 10  1  0
 22 21  2  0
 23 24  1  0
 24 25  2  0
 26 24  1  0
 26 27  1  0
 28 27  1  6
 28 29  1  0
 29 21  1  0
 30 28  1  0
 31 30  1  0
 32 30  2  0
M  END
$$$$
