DWQ.pdb
     RDKit          3D

 32 33  0  0  1  0  0  0  0  0999 V2000
    9.7759  -15.9851   19.7995 N   0  0  0  0  0  0  0  0  0  0  0  0
   10.6902  -16.7441   20.6030 C   0  0  1  0  0  0  0  0  0  0  0  0
   12.0627  -16.6499   20.0065 C   0  0  0  0  0  0  0  0  0  0  0  0
   12.1702  -17.7199   18.9794 C   0  0  0  0  0  0  0  0  0  0  0  0
   11.2260  -18.5203   18.7290 O   0  0  0  0  0  0  0  0  0  0  0  0
   10.6229  -16.3266   22.0225 C   0  0  0  0  0  0  0  0  0  0  0  0
   11.2435  -15.2806   22.3831 O   0  0  0  0  0  0  0  0  0  0  0  0
   13.3267  -17.9083   18.2238 O   0  0  0  0  0  0  0  0  0  0  0  0
    9.9086  -17.0179   23.0132 N   0  0  0  0  0  0  0  0  0  0  0  0
    9.8247  -16.5705   24.4185 C   0  0  1  0  0  0  0  0  0  0  0  0
    8.3812  -16.6220   24.7591 C   0  0  0  0  0  0  0  0  0  0  0  0
    7.5577  -15.4597   24.4617 C   0  0  0  0  0  0  0  0  0  0  0  0
    6.6603  -15.2835   23.3924 C   0  0  0  0  0  0  0  0  0  0  0  0
    6.1347  -14.0599   23.4830 N   0  0  0  0  0  0  0  0  0  0  0  0
    6.6520  -13.4266   24.5706 C   0  0  0  0  0  0  0  0  0  0  0  0
    6.4236  -12.1720   25.0911 C   0  0  0  0  0  0  0  0  0  0  0  0
    7.0657  -11.7331   26.2389 C   0  0  0  0  0  0  0  0  0  0  0  0
    7.9539  -12.5623   26.8812 C   0  0  0  0  0  0  0  0  0  0  0  0
    8.1673  -13.8119   26.3431 C   0  0  0  0  0  0  0  0  0  0  0  0
    7.5482  -14.2855   25.2022 C   0  0  0  0  0  0  0  0  0  0  0  0
   10.7517  -17.2719   25.2943 C   0  0  0  0  0  0  0  0  0  0  0  0
   11.0652  -18.4711   25.0812 O   0  0  0  0  0  0  0  0  0  0  0  0
   12.1695  -16.9894   31.4970 N   0  0  0  0  0  0  0  0  0  0  0  0
   11.0282  -16.5323   30.8151 C   0  0  0  0  0  0  0  0  0  0  0  0
   10.0001  -16.2249   31.4532 O   0  0  0  0  0  0  0  0  0  0  0  0
   10.9752  -16.3887   29.3111 C   0  0  0  0  0  0  0  0  0  0  0  0
   12.2913  -16.7572   28.6981 C   0  0  0  0  0  0  0  0  0  0  0  0
   12.1180  -17.4763   27.4164 C   0  0  2  0  0  0  0  0  0  0  0  0
   11.3727  -16.6857   26.4391 N   0  0  0  0  0  0  0  0  0  0  0  0
   11.5434  -18.8402   27.5138 C   0  0  0  0  0  0  0  0  0  0  0  0
   12.3881  -19.9562   27.7282 O   0  0  0  0  0  0  0  0  0  0  0  0
   10.3313  -19.1329   27.4233 O   0  0  0  0  0  0  0  0  0  0  0  0
  2  1  1  6
  2  3  1  0
  4  3  1  0
  4  8  1  0
  5  4  2  0
  6  7  2  0
  6  2  1  0
  9  6  1  0
 10  9  1  0
 10 11  1  1
 11 12  1  0
 12 13  2  0
 12 20  1  0
 13 14  1  0
 14 15  1  0
 15 16  2  0
 16 17  1  0
 18 17  2  0
 19 18  1  0
 20 19  2  0
 20 15  1  0
 21 10  1  0
 22 21  2  0
 23 24  1  0
 24 25  2  0
 26 24  1  0
 26 27  1  0
 28 27  1  1
 28 29  1  0
 29 21  1  0
 30 28  1  0
 31 30  1  0
 32 30  2  0
M  END
$$$$
