DWQ.pdb
     RDKit          3D

 32 33  0  0  1  0  0  0  0  0999 V2000
    9.5639  -18.0740   19.5298 N   0  0  0  0  0  0  0  0  0  0  0  0
   10.6725  -17.1937   19.7616 C   0  0  1  0  0  0  0  0  0  0  0  0
   10.9899  -16.4594   18.4933 C   0  0  0  0  0  0  0  0  0  0  0  0
   11.4664  -17.4673   17.5091 C   0  0  0  0  0  0  0  0  0  0  0  0
   10.7962  -17.7926   16.4894 O   0  0  0  0  0  0  0  0  0  0  0  0
   10.4140  -16.3072   20.9196 C   0  0  0  0  0  0  0  0  0  0  0  0
   11.3018  -15.4661   21.2570 O   0  0  0  0  0  0  0  0  0  0  0  0
   12.6900  -18.1205   17.6507 O   0  0  0  0  0  0  0  0  0  0  0  0
    9.2362  -16.3319   21.6823 N   0  0  0  0  0  0  0  0  0  0  0  0
    9.0126  -15.4733   22.8633 C   0  0  1  0  0  0  0  0  0  0  0  0
    7.6092  -15.7294   23.2722 C   0  0  0  0  0  0  0  0  0  0  0  0
    7.1374  -15.1576   24.5244 C   0  0  0  0  0  0  0  0  0  0  0  0
    6.5784  -15.8285   25.6277 C   0  0  0  0  0  0  0  0  0  0  0  0
    6.2591  -14.9209   26.5529 N   0  0  0  0  0  0  0  0  0  0  0  0
    6.5875  -13.6807   26.0997 C   0  0  0  0  0  0  0  0  0  0  0  0
    6.4685  -12.4362   26.6777 C   0  0  0  0  0  0  0  0  0  0  0  0
    6.8889  -11.2878   26.0245 C   0  0  0  0  0  0  0  0  0  0  0  0
    7.4397  -11.3821   24.7688 C   0  0  0  0  0  0  0  0  0  0  0  0
    7.5487  -12.6360   24.2099 C   0  0  0  0  0  0  0  0  0  0  0  0
    7.1413  -13.8030   24.8276 C   0  0  0  0  0  0  0  0  0  0  0  0
   10.0490  -15.6177   23.8751 C   0  0  0  0  0  0  0  0  0  0  0  0
   10.7711  -14.6435   24.2085 O   0  0  0  0  0  0  0  0  0  0  0  0
   11.2021  -14.6292   29.1486 N   0  0  0  0  0  0  0  0  0  0  0  0
   10.3045  -15.6982   28.9807 C   0  0  0  0  0  0  0  0  0  0  0  0
    9.5110  -15.9980   29.8966 O   0  0  0  0  0  0  0  0  0  0  0  0
   10.2453  -16.5274   27.7180 C   0  0  0  0  0  0  0  0  0  0  0  0
   11.1840  -15.9846   26.6845 C   0  0  0  0  0  0  0  0  0  0  0  0
   11.3866  -16.9386   25.5715 C   0  0  2  0  0  0  0  0  0  0  0  0
   10.3346  -16.8367   24.5622 N   0  0  0  0  0  0  0  0  0  0  0  0
   11.5820  -18.3556   25.9632 C   0  0  0  0  0  0  0  0  0  0  0  0
   12.7209  -18.7376   26.7130 O   0  0  0  0  0  0  0  0  0  0  0  0
   10.8134  -19.3037   25.6918 O   0  0  0  0  0  0  0  0  0  0  0  0
  2  1  1  6
  2  3  1  0
  4  3  1  0
  4  8  1  0
  5  4  2  0
  6  7  2  0
  6  2  1  0
  9  6  1  0
 10  9  1  0
 10 11  1  1
 11 12  1  0
 12 13  2  0
 12 20  1  0
 13 14  1  0
 14 15  1  0
 15 16  2  0
 16 17  1  0
 18 17  2  0
 19 18  1  0
 20 19  2  0
 20 15  1  0
 21 10  1  0
 22 21  2  0
 23 24  1  0
 24 25  2  0
 26 24  1  0
 26 27  1  0
 28 27  1  1
 28 29  1  0
 29 21  1  0
 30 28  1  0
 31 30  1  0
 32 30  2  0
M  END
$$$$
