DWQ.pdb
     RDKit          3D

 32 33  0  0  1  0  0  0  0  0999 V2000
    9.8825  -17.1131   19.1963 N   0  0  0  0  0  0  0  0  0  0  0  0
   11.0375  -17.0981   20.0469 C   0  0  1  0  0  0  0  0  0  0  0  0
   12.1610  -16.4035   19.3371 C   0  0  0  0  0  0  0  0  0  0  0  0
   12.3438  -17.0867   18.0290 C   0  0  0  0  0  0  0  0  0  0  0  0
   11.5022  -16.9984   17.0915 O   0  0  0  0  0  0  0  0  0  0  0  0
   10.7147  -16.5182   21.3711 C   0  0  0  0  0  0  0  0  0  0  0  0
   11.6538  -16.0322   22.0720 O   0  0  0  0  0  0  0  0  0  0  0  0
   13.4621  -17.8723   17.7532 O   0  0  0  0  0  0  0  0  0  0  0  0
    9.4215  -16.4671   21.9138 N   0  0  0  0  0  0  0  0  0  0  0  0
    9.1326  -16.0086   23.2880 C   0  0  1  0  0  0  0  0  0  0  0  0
    7.8419  -15.2823   23.1940 C   0  0  0  0  0  0  0  0  0  0  0  0
    7.1702  -14.9016   24.4275 C   0  0  0  0  0  0  0  0  0  0  0  0
    6.3885  -15.7092   25.2740 C   0  0  0  0  0  0  0  0  0  0  0  0
    5.9412  -14.9535   26.2793 N   0  0  0  0  0  0  0  0  0  0  0  0
    6.3996  -13.6816   26.1255 C   0  0  0  0  0  0  0  0  0  0  0  0
    6.2274  -12.5501   26.8917 C   0  0  0  0  0  0  0  0  0  0  0  0
    6.8095  -11.3408   26.5437 C   0  0  0  0  0  0  0  0  0  0  0  0
    7.5793  -11.2579   25.4082 C   0  0  0  0  0  0  0  0  0  0  0  0
    7.7377  -12.4013   24.6570 C   0  0  0  0  0  0  0  0  0  0  0  0
    7.1743  -13.6236   24.9695 C   0  0  0  0  0  0  0  0  0  0  0  0
    9.2401  -17.0719   24.2761 C   0  0  0  0  0  0  0  0  0  0  0  0
    8.9560  -18.2615   23.9833 O   0  0  0  0  0  0  0  0  0  0  0  0
   14.4915  -18.4427   24.5472 N   0  0  0  0  0  0  0  0  0  0  0  0
   13.8799  -19.3882   25.3888 C   0  0  0  0  0  0  0  0  0  0  0  0
   14.3357  -20.5482   25.4611 O   0  0  0  0  0  0  0  0  0  0  0  0
   12.6676  -19.0697   26.2340 C   0  0  0  0  0  0  0  0  0  0  0  0
   11.7418  -18.1459   25.5037 C   0  0  0  0  0  0  0  0  0  0  0  0
   10.5499  -17.8095   26.3138 C   0  0  2  0  0  0  0  0  0  0  0  0
    9.6642  -16.8729   25.6253 N   0  0  0  0  0  0  0  0  0  0  0  0
   10.8195  -17.3362   27.6933 C   0  0  0  0  0  0  0  0  0  0  0  0
   11.4025  -18.2077   28.6449 O   0  0  0  0  0  0  0  0  0  0  0  0
   10.5772  -16.1924   28.1361 O   0  0  0  0  0  0  0  0  0  0  0  0
  2  1  1  6
  2  3  1  0
  4  3  1  0
  4  8  1  0
  5  4  2  0
  6  7  2  0
  6  2  1  0
  9  6  1  0
 10  9  1  0
 10 11  1  6
 11 12  1  0
 12 13  2  0
 12 20  1  0
 13 14  1  0
 14 15  1  0
 15 16  2  0
 16 17  1  0
 18 17  2  0
 19 18  1  0
 20 19  2  0
 20 15  1  0
 21 10  1  0
 22 21  2  0
 23 24  1  0
 24 25  2  0
 26 24  1  0
 26 27  1  0
 28 27  1  6
 28 29  1  0
 29 21  1  0
 30 28  1  0
 31 30  1  0
 32 30  2  0
M  END
$$$$
