DWQ.pdb
     RDKit          3D

 32 33  0  0  1  0  0  0  0  0999 V2000
    9.5491  -18.1075   19.2291 N   0  0  0  0  0  0  0  0  0  0  0  0
   10.6525  -17.2110   19.4199 C   0  0  1  0  0  0  0  0  0  0  0  0
   10.8766  -16.4327   18.1580 C   0  0  0  0  0  0  0  0  0  0  0  0
   11.3029  -17.4016   17.1135 C   0  0  0  0  0  0  0  0  0  0  0  0
   10.5085  -18.2332   16.5917 O   0  0  0  0  0  0  0  0  0  0  0  0
   10.4487  -16.3650   20.6184 C   0  0  0  0  0  0  0  0  0  0  0  0
   11.2790  -15.4370   20.8613 O   0  0  0  0  0  0  0  0  0  0  0  0
   12.6139  -17.4535   16.6416 O   0  0  0  0  0  0  0  0  0  0  0  0
    9.3836  -16.5197   21.5192 N   0  0  0  0  0  0  0  0  0  0  0  0
    9.2749  -15.7712   22.7880 C   0  0  1  0  0  0  0  0  0  0  0  0
    7.8222  -15.5360   22.9793 C   0  0  0  0  0  0  0  0  0  0  0  0
    7.3646  -15.0422   24.2693 C   0  0  0  0  0  0  0  0  0  0  0  0
    6.8159  -15.7792   25.3349 C   0  0  0  0  0  0  0  0  0  0  0  0
    6.5080  -14.9301   26.3177 N   0  0  0  0  0  0  0  0  0  0  0  0
    6.8339  -13.6647   25.9385 C   0  0  0  0  0  0  0  0  0  0  0  0
    6.7232  -12.4581   26.5936 C   0  0  0  0  0  0  0  0  0  0  0  0
    7.1390  -11.2721   26.0081 C   0  0  0  0  0  0  0  0  0  0  0  0
    7.6764  -11.2893   24.7433 C   0  0  0  0  0  0  0  0  0  0  0  0
    7.7772  -12.5065   24.1068 C   0  0  0  0  0  0  0  0  0  0  0  0
    7.3741  -13.7089   24.6556 C   0  0  0  0  0  0  0  0  0  0  0  0
   10.0088  -16.3939   23.8797 C   0  0  0  0  0  0  0  0  0  0  0  0
    9.7098  -17.5446   24.2900 O   0  0  0  0  0  0  0  0  0  0  0  0
    8.8617  -14.6177   28.9566 N   0  0  0  0  0  0  0  0  0  0  0  0
    9.9530  -15.4225   29.3279 C   0  0  0  0  0  0  0  0  0  0  0  0
   10.1651  -15.6710   30.5328 O   0  0  0  0  0  0  0  0  0  0  0  0
   10.9100  -16.0200   28.3217 C   0  0  0  0  0  0  0  0  0  0  0  0
   10.5913  -15.5398   26.9390 C   0  0  0  0  0  0  0  0  0  0  0  0
   11.4800  -16.1522   25.9265 C   0  0  2  0  0  0  0  0  0  0  0  0
   11.1009  -15.7795   24.5652 N   0  0  0  0  0  0  0  0  0  0  0  0
   11.6527  -17.6221   26.0234 C   0  0  0  0  0  0  0  0  0  0  0  0
   12.8060  -18.2417   25.4840 O   0  0  0  0  0  0  0  0  0  0  0  0
   10.8517  -18.4205   26.5566 O   0  0  0  0  0  0  0  0  0  0  0  0
  2  1  1  6
  2  3  1  0
  4  3  1  0
  4  8  1  0
  5  4  2  0
  6  7  2  0
  6  2  1  0
  9  6  1  0
 10  9  1  0
 10 11  1  1
 11 12  1  0
 12 13  2  0
 12 20  1  0
 13 14  1  0
 14 15  1  0
 15 16  2  0
 16 17  1  0
 18 17  2  0
 19 18  1  0
 20 19  2  0
 20 15  1  0
 21 10  1  0
 22 21  2  0
 23 24  1  0
 24 25  2  0
 26 24  1  0
 26 27  1  0
 28 27  1  1
 28 29  1  0
 29 21  1  0
 30 28  1  0
 31 30  1  0
 32 30  2  0
M  END
$$$$
