DWQ.pdb
     RDKit          3D

 32 33  0  0  1  0  0  0  0  0999 V2000
    6.4848  -15.9388   20.7198 N   0  0  0  0  0  0  0  0  0  0  0  0
    7.9113  -16.0772   20.6595 C   0  0  1  0  0  0  0  0  0  0  0  0
    8.4445  -15.1953   19.5702 C   0  0  0  0  0  0  0  0  0  0  0  0
    8.1425  -15.8633   18.2763 C   0  0  0  0  0  0  0  0  0  0  0  0
    8.1080  -15.2383   17.1795 O   0  0  0  0  0  0  0  0  0  0  0  0
    8.5255  -15.8317   21.9848 C   0  0  0  0  0  0  0  0  0  0  0  0
    9.2537  -14.8047   22.1414 O   0  0  0  0  0  0  0  0  0  0  0  0
    7.8769  -17.2294   18.1919 O   0  0  0  0  0  0  0  0  0  0  0  0
    8.3554  -16.6688   23.0984 N   0  0  0  0  0  0  0  0  0  0  0  0
    9.1184  -16.5186   24.3542 C   0  0  1  0  0  0  0  0  0  0  0  0
    8.1049  -16.5790   25.4365 C   0  0  0  0  0  0  0  0  0  0  0  0
    7.1354  -15.4987   25.5384 C   0  0  0  0  0  0  0  0  0  0  0  0
    5.7528  -15.5474   25.2820 C   0  0  0  0  0  0  0  0  0  0  0  0
    5.2474  -14.3267   25.4728 N   0  0  0  0  0  0  0  0  0  0  0  0
    6.2447  -13.4793   25.8451 C   0  0  0  0  0  0  0  0  0  0  0  0
    6.2332  -12.1389   26.1620 C   0  0  0  0  0  0  0  0  0  0  0  0
    7.3892  -11.4696   26.5333 C   0  0  0  0  0  0  0  0  0  0  0  0
    8.5816  -12.1507   26.5899 C   0  0  0  0  0  0  0  0  0  0  0  0
    8.5700  -13.4899   26.2686 C   0  0  0  0  0  0  0  0  0  0  0  0
    7.4404  -14.1919   25.8938 C   0  0  0  0  0  0  0  0  0  0  0  0
   10.2548  -17.4240   24.4403 C   0  0  0  0  0  0  0  0  0  0  0  0
   10.6092  -18.1169   23.4525 O   0  0  0  0  0  0  0  0  0  0  0  0
   16.5581  -16.4034   23.6814 N   0  0  0  0  0  0  0  0  0  0  0  0
   15.4049  -17.1518   23.3875 C   0  0  0  0  0  0  0  0  0  0  0  0
   14.9878  -17.2222   22.2129 O   0  0  0  0  0  0  0  0  0  0  0  0
   14.6203  -17.8963   24.4437 C   0  0  0  0  0  0  0  0  0  0  0  0
   13.2340  -17.3412   24.5619 C   0  0  0  0  0  0  0  0  0  0  0  0
   12.4292  -18.0813   25.5591 C   0  0  2  0  0  0  0  0  0  0  0  0
   11.0486  -17.6052   25.6137 N   0  0  0  0  0  0  0  0  0  0  0  0
   12.9994  -18.1500   26.9265 C   0  0  0  0  0  0  0  0  0  0  0  0
   14.1167  -18.9784   27.1924 O   0  0  0  0  0  0  0  0  0  0  0  0
   12.5831  -17.5254   27.9263 O   0  0  0  0  0  0  0  0  0  0  0  0
  2  1  1  1
  2  3  1  0
  4  3  1  0
  4  8  1  0
  5  4  2  0
  6  7  2  0
  6  2  1  0
  9  6  1  0
 10  9  1  0
 10 11  1  1
 11 12  1  0
 12 13  2  0
 12 20  1  0
 13 14  1  0
 14 15  1  0
 15 16  2  0
 16 17  1  0
 18 17  2  0
 19 18  1  0
 20 19  2  0
 20 15  1  0
 21 10  1  0
 22 21  2  0
 23 24  1  0
 24 25  2  0
 26 24  1  0
 26 27  1  0
 28 27  1  6
 28 29  1  0
 29 21  1  0
 30 28  1  0
 31 30  1  0
 32 30  2  0
M  END
$$$$
