DWQ.pdb
     RDKit          3D

 32 33  0  0  1  0  0  0  0  0999 V2000
    7.1619  -15.8813   20.3893 N   0  0  0  0  0  0  0  0  0  0  0  0
    8.0690  -16.8799   20.8768 C   0  0  1  0  0  0  0  0  0  0  0  0
    8.9009  -17.3860   19.7365 C   0  0  0  0  0  0  0  0  0  0  0  0
    7.9658  -17.9442   18.7237 C   0  0  0  0  0  0  0  0  0  0  0  0
    7.8560  -17.4638   17.5609 O   0  0  0  0  0  0  0  0  0  0  0  0
    8.8628  -16.3658   22.0166 C   0  0  0  0  0  0  0  0  0  0  0  0
    9.6284  -15.3715   21.8306 O   0  0  0  0  0  0  0  0  0  0  0  0
    7.1467  -19.0392   18.9955 O   0  0  0  0  0  0  0  0  0  0  0  0
    8.8266  -16.9097   23.3099 N   0  0  0  0  0  0  0  0  0  0  0  0
    9.6714  -16.4258   24.4208 C   0  0  1  0  0  0  0  0  0  0  0  0
    8.7862  -16.4229   25.6119 C   0  0  0  0  0  0  0  0  0  0  0  0
    7.6785  -15.4799   25.6491 C   0  0  0  0  0  0  0  0  0  0  0  0
    6.3054  -15.7491   25.5011 C   0  0  0  0  0  0  0  0  0  0  0  0
    5.6410  -14.5938   25.5754 N   0  0  0  0  0  0  0  0  0  0  0  0
    6.5249  -13.5772   25.7670 C   0  0  0  0  0  0  0  0  0  0  0  0
    6.3380  -12.2206   25.9155 C   0  0  0  0  0  0  0  0  0  0  0  0
    7.4043  -11.3576   26.1167 C   0  0  0  0  0  0  0  0  0  0  0  0
    8.6835  -11.8573   26.1710 C   0  0  0  0  0  0  0  0  0  0  0  0
    8.8470  -13.2164   26.0196 C   0  0  0  0  0  0  0  0  0  0  0  0
    7.8113  -14.1084   25.8170 C   0  0  0  0  0  0  0  0  0  0  0  0
   10.9385  -17.1348   24.5215 C   0  0  0  0  0  0  0  0  0  0  0  0
   10.9793  -18.3916   24.5454 O   0  0  0  0  0  0  0  0  0  0  0  0
   17.3976  -15.2116   24.2036 N   0  0  0  0  0  0  0  0  0  0  0  0
   17.0194  -16.4126   23.5783 C   0  0  0  0  0  0  0  0  0  0  0  0
   17.6458  -16.8212   22.5787 O   0  0  0  0  0  0  0  0  0  0  0  0
   15.8647  -17.2599   24.0623 C   0  0  0  0  0  0  0  0  0  0  0  0
   14.5958  -16.4639   24.0801 C   0  0  0  0  0  0  0  0  0  0  0  0
   13.4659  -17.2439   24.6322 C   0  0  2  0  0  0  0  0  0  0  0  0
   12.2123  -16.4935   24.5996 N   0  0  0  0  0  0  0  0  0  0  0  0
   13.6789  -17.8226   25.9811 C   0  0  0  0  0  0  0  0  0  0  0  0
   14.0775  -19.1740   26.1224 O   0  0  0  0  0  0  0  0  0  0  0  0
   13.5389  -17.2199   27.0675 O   0  0  0  0  0  0  0  0  0  0  0  0
  2  1  1  6
  2  3  1  0
  4  3  1  0
  4  8  1  0
  5  4  2  0
  6  7  2  0
  6  2  1  0
  9  6  1  0
 10  9  1  0
 10 11  1  1
 11 12  1  0
 12 13  2  0
 12 20  1  0
 13 14  1  0
 14 15  1  0
 15 16  2  0
 16 17  1  0
 18 17  2  0
 19 18  1  0
 20 19  2  0
 20 15  1  0
 21 10  1  0
 22 21  2  0
 23 24  1  0
 24 25  2  0
 26 24  1  0
 26 27  1  0
 28 27  1  1
 28 29  1  0
 29 21  1  0
 30 28  1  0
 31 30  1  0
 32 30  2  0
M  END
$$$$
