DWQ.pdb
     RDKit          3D

 32 33  0  0  1  0  0  0  0  0999 V2000
    8.1040  -16.8439   21.2399 N   0  0  0  0  0  0  0  0  0  0  0  0
    9.4731  -17.1018   21.5818 C   0  0  1  0  0  0  0  0  0  0  0  0
   10.3642  -16.4240   20.5843 C   0  0  0  0  0  0  0  0  0  0  0  0
   10.2394  -17.1707   19.3043 C   0  0  0  0  0  0  0  0  0  0  0  0
    9.2089  -17.1072   18.5770 O   0  0  0  0  0  0  0  0  0  0  0  0
    9.7500  -16.7249   22.9871 C   0  0  0  0  0  0  0  0  0  0  0  0
   10.4530  -15.6944   23.2176 O   0  0  0  0  0  0  0  0  0  0  0  0
   11.2579  -17.9926   18.8236 O   0  0  0  0  0  0  0  0  0  0  0  0
    9.2809  -17.4391   24.1005 N   0  0  0  0  0  0  0  0  0  0  0  0
    9.5769  -17.0575   25.4965 C   0  0  1  0  0  0  0  0  0  0  0  0
    8.2542  -16.8134   26.1234 C   0  0  0  0  0  0  0  0  0  0  0  0
    7.4171  -15.7527   25.5834 C   0  0  0  0  0  0  0  0  0  0  0  0
    6.3508  -15.8683   24.6726 C   0  0  0  0  0  0  0  0  0  0  0  0
    5.8761  -14.6456   24.4249 N   0  0  0  0  0  0  0  0  0  0  0  0
    6.5892  -13.7323   25.1383 C   0  0  0  0  0  0  0  0  0  0  0  0
    6.4828  -12.3623   25.2322 C   0  0  0  0  0  0  0  0  0  0  0  0
    7.3250  -11.6219   26.0475 C   0  0  0  0  0  0  0  0  0  0  0  0
    8.2933  -12.2605   26.7846 C   0  0  0  0  0  0  0  0  0  0  0  0
    8.3820  -13.6305   26.6750 C   0  0  0  0  0  0  0  0  0  0  0  0
    7.5629  -14.4032   25.8742 C   0  0  0  0  0  0  0  0  0  0  0  0
   10.4790  -17.9869   26.1605 C   0  0  0  0  0  0  0  0  0  0  0  0
   10.1660  -19.1947   26.3183 O   0  0  0  0  0  0  0  0  0  0  0  0
   16.0041  -16.6122   26.0327 N   0  0  0  0  0  0  0  0  0  0  0  0
   15.6822  -17.8413   25.4311 C   0  0  0  0  0  0  0  0  0  0  0  0
   16.2321  -18.1770   24.3618 O   0  0  0  0  0  0  0  0  0  0  0  0
   14.6795  -18.8055   26.0232 C   0  0  0  0  0  0  0  0  0  0  0  0
   14.0544  -18.2276   27.2557 C   0  0  0  0  0  0  0  0  0  0  0  0
   12.6232  -18.5873   27.3660 C   0  0  2  0  0  0  0  0  0  0  0  0
   11.7611  -17.6288   26.6779 N   0  0  0  0  0  0  0  0  0  0  0  0
   12.1222  -18.8283   28.7410 C   0  0  0  0  0  0  0  0  0  0  0  0
   12.7980  -19.7301   29.5984 O   0  0  0  0  0  0  0  0  0  0  0  0
   11.1156  -18.2965   29.2579 O   0  0  0  0  0  0  0  0  0  0  0  0
  2  1  1  6
  2  3  1  0
  4  3  1  0
  4  8  1  0
  5  4  2  0
  6  7  2  0
  6  2  1  0
  9  6  1  0
 10  9  1  0
 10 11  1  1
 11 12  1  0
 12 13  2  0
 12 20  1  0
 13 14  1  0
 14 15  1  0
 15 16  2  0
 16 17  1  0
 18 17  2  0
 19 18  1  0
 20 19  2  0
 20 15  1  0
 21 10  1  0
 22 21  2  0
 23 24  1  0
 24 25  2  0
 26 24  1  0
 26 27  1  0
 28 27  1  1
 28 29  1  0
 29 21  1  0
 30 28  1  0
 31 30  1  0
 32 30  2  0
M  END
$$$$
