DWQ.pdb
     RDKit          3D

 32 33  0  0  1  0  0  0  0  0999 V2000
    9.2910  -17.5839   20.2006 N   0  0  0  0  0  0  0  0  0  0  0  0
   10.5515  -17.0012   20.5602 C   0  0  1  0  0  0  0  0  0  0  0  0
   10.9685  -16.0353   19.4918 C   0  0  0  0  0  0  0  0  0  0  0  0
   11.5924  -16.8294   18.4002 C   0  0  0  0  0  0  0  0  0  0  0  0
   11.2469  -18.0156   18.1384 O   0  0  0  0  0  0  0  0  0  0  0  0
   10.4953  -16.4083   21.9163 C   0  0  0  0  0  0  0  0  0  0  0  0
   11.4789  -15.7188   22.3244 O   0  0  0  0  0  0  0  0  0  0  0  0
   12.6040  -16.3118   17.5923 O   0  0  0  0  0  0  0  0  0  0  0  0
    9.4122  -16.5575   22.7963 N   0  0  0  0  0  0  0  0  0  0  0  0
    9.4243  -16.0739   24.1920 C   0  0  1  0  0  0  0  0  0  0  0  0
    8.1330  -16.5205   24.7711 C   0  0  0  0  0  0  0  0  0  0  0  0
    7.1460  -15.5109   25.1231 C   0  0  0  0  0  0  0  0  0  0  0  0
    5.7742  -15.6916   25.3791 C   0  0  0  0  0  0  0  0  0  0  0  0
    5.2349  -14.4983   25.6377 N   0  0  0  0  0  0  0  0  0  0  0  0
    6.1997  -13.5418   25.5619 C   0  0  0  0  0  0  0  0  0  0  0  0
    6.1510  -12.1786   25.7529 C   0  0  0  0  0  0  0  0  0  0  0  0
    7.2830  -11.3869   25.6342 C   0  0  0  0  0  0  0  0  0  0  0  0
    8.4886  -11.9662   25.3186 C   0  0  0  0  0  0  0  0  0  0  0  0
    8.5141  -13.3304   25.1316 C   0  0  0  0  0  0  0  0  0  0  0  0
    7.4092  -14.1529   25.2403 C   0  0  0  0  0  0  0  0  0  0  0  0
   10.6433  -16.4265   24.9049 C   0  0  0  0  0  0  0  0  0  0  0  0
   11.6306  -15.6477   24.9276 O   0  0  0  0  0  0  0  0  0  0  0  0
   11.9116  -14.9546   29.7673 N   0  0  0  0  0  0  0  0  0  0  0  0
   10.8697  -15.8950   29.6871 C   0  0  0  0  0  0  0  0  0  0  0  0
    9.9789  -15.9171   30.5615 O   0  0  0  0  0  0  0  0  0  0  0  0
   10.7653  -16.9088   28.5705 C   0  0  0  0  0  0  0  0  0  0  0  0
   11.9163  -16.7708   27.6218 C   0  0  0  0  0  0  0  0  0  0  0  0
   11.9077  -17.8315   26.5899 C   0  0  2  0  0  0  0  0  0  0  0  0
   10.8283  -17.6477   25.6221 N   0  0  0  0  0  0  0  0  0  0  0  0
   11.9064  -19.2253   27.0967 C   0  0  0  0  0  0  0  0  0  0  0  0
   12.9552  -19.6814   27.9316 O   0  0  0  0  0  0  0  0  0  0  0  0
   11.0369  -20.0913   26.8575 O   0  0  0  0  0  0  0  0  0  0  0  0
  2  1  1  6
  2  3  1  0
  4  3  1  0
  4  8  1  0
  5  4  2  0
  6  7  2  0
  6  2  1  0
  9  6  1  0
 10  9  1  0
 10 11  1  1
 11 12  1  0
 12 13  2  0
 12 20  1  0
 13 14  1  0
 14 15  1  0
 15 16  2  0
 16 17  1  0
 18 17  2  0
 19 18  1  0
 20 19  2  0
 20 15  1  0
 21 10  1  0
 22 21  2  0
 23 24  1  0
 24 25  2  0
 26 24  1  0
 26 27  1  0
 28 27  1  1
 28 29  1  0
 29 21  1  0
 30 28  1  0
 31 30  1  0
 32 30  2  0
M  END
$$$$
