FWQ.pdb
     RDKit          3D

 35 37  0  0  1  0  0  0  0  0999 V2000
    8.8609  -15.4044   19.9809 N   0  0  0  0  0  0  0  0  0  0  0  0
    8.8710  -16.6425   20.7442 C   0  0  1  0  0  0  0  0  0  0  0  0
    9.6571  -17.6499   19.9553 C   0  0  0  0  0  0  0  0  0  0  0  0
    8.8568  -17.9524   18.7384 C   0  0  0  0  0  0  0  0  0  0  0  0
    9.4176  -17.6950   17.4901 C   0  0  0  0  0  0  0  0  0  0  0  0
    8.7630  -17.9444   16.3063 C   0  0  0  0  0  0  0  0  0  0  0  0
    7.4959  -18.4724   16.3255 C   0  0  0  0  0  0  0  0  0  0  0  0
    6.9297  -18.7322   17.5670 C   0  0  0  0  0  0  0  0  0  0  0  0
    7.5925  -18.4788   18.7391 C   0  0  0  0  0  0  0  0  0  0  0  0
    9.3833  -16.3725   22.0956 C   0  0  0  0  0  0  0  0  0  0  0  0
   10.4455  -15.7205   22.2482 O   0  0  0  0  0  0  0  0  0  0  0  0
    8.6826  -16.8382   23.2557 N   0  0  0  0  0  0  0  0  0  0  0  0
    9.1231  -16.6136   24.6188 C   0  0  1  0  0  0  0  0  0  0  0  0
    7.9382  -16.4550   25.5197 C   0  0  0  0  0  0  0  0  0  0  0  0
    7.1574  -15.2389   25.2858 C   0  0  0  0  0  0  0  0  0  0  0  0
    5.9860  -15.0391   24.6002 C   0  0  0  0  0  0  0  0  0  0  0  0
    5.6755  -13.7416   24.6586 N   0  0  0  0  0  0  0  0  0  0  0  0
    6.6219  -13.0736   25.3732 C   0  0  0  0  0  0  0  0  0  0  0  0
    6.7693  -11.7356   25.7396 C   0  0  0  0  0  0  0  0  0  0  0  0
    7.8572  -11.3712   26.4989 C   0  0  0  0  0  0  0  0  0  0  0  0
    8.8252  -12.2547   26.9276 C   0  0  0  0  0  0  0  0  0  0  0  0
    8.6639  -13.5923   26.5518 C   0  0  0  0  0  0  0  0  0  0  0  0
    7.5630  -13.9831   25.7785 C   0  0  0  0  0  0  0  0  0  0  0  0
   10.1015  -17.6367   25.0062 C   0  0  0  0  0  0  0  0  0  0  0  0
    9.9485  -18.8606   24.6934 O   0  0  0  0  0  0  0  0  0  0  0  0
   16.8671  -18.7774   26.8313 N   0  0  0  0  0  0  0  0  0  0  0  0
   15.9595  -18.6233   25.7732 C   0  0  0  0  0  0  0  0  0  0  0  0
   16.3550  -18.1125   24.6720 O   0  0  0  0  0  0  0  0  0  0  0  0
   14.5610  -19.0458   25.9008 C   0  0  0  0  0  0  0  0  0  0  0  0
   13.5649  -17.9665   26.1257 C   0  0  0  0  0  0  0  0  0  0  0  0
   12.1671  -18.4327   26.2589 C   0  0  2  0  0  0  0  0  0  0  0  0
   11.2766  -17.3569   25.7451 N   0  0  0  0  0  0  0  0  0  0  0  0
   11.7319  -18.7395   27.6026 C   0  0  0  0  0  0  0  0  0  0  0  0
   10.9279  -18.0928   28.3317 O   0  0  0  0  0  0  0  0  0  0  0  0
   12.2373  -19.9002   28.2407 O   0  0  0  0  0  0  0  0  0  0  0  0
  2  1  1  6
  2  3  1  0
  4  3  1  0
  5  4  2  0
  6  5  1  0
  7  8  1  0
  7  6  2  0
  8  9  2  0
  9  4  1  0
 10  2  1  0
 11 10  2  0
 12 10  1  0
 13 24  1  0
 13 12  1  0
 13 14  1  1
 15 14  1  0
 16 15  2  0
 17 18  1  0
 17 16  1  0
 18 23  2  0
 19 20  2  0
 19 18  1  0
 20 21  1  0
 21 22  2  0
 23 22  1  0
 23 15  1  0
 24 32  1  0
 25 24  2  0
 26 27  1  0
 27 29  1  0
 28 27  2  0
 30 29  1  0
 31 30  1  1
 31 33  1  0
 32 31  1  0
 33 34  2  0
 33 35  1  0
M  END
$$$$
