FWQ.pdb
     RDKit          3D

 35 37  0  0  1  0  0  0  0  0999 V2000
    8.1843  -18.0962   21.5567 N   0  0  0  0  0  0  0  0  0  0  0  0
    8.5196  -16.6952   21.3561 C   0  0  1  0  0  0  0  0  0  0  0  0
    7.2322  -15.9505   21.1490 C   0  0  0  0  0  0  0  0  0  0  0  0
    7.6031  -14.5735   20.7255 C   0  0  0  0  0  0  0  0  0  0  0  0
    7.3423  -13.5158   21.5928 C   0  0  0  0  0  0  0  0  0  0  0  0
    7.6516  -12.2083   21.2979 C   0  0  0  0  0  0  0  0  0  0  0  0
    8.2466  -11.9018   20.0993 C   0  0  0  0  0  0  0  0  0  0  0  0
    8.5103  -12.9516   19.2287 C   0  0  0  0  0  0  0  0  0  0  0  0
    8.1967  -14.2498   19.5345 C   0  0  0  0  0  0  0  0  0  0  0  0
    9.3349  -16.2272   22.4866 C   0  0  0  0  0  0  0  0  0  0  0  0
   10.1798  -15.3138   22.3187 O   0  0  0  0  0  0  0  0  0  0  0  0
    9.1777  -16.7950   23.7930 N   0  0  0  0  0  0  0  0  0  0  0  0
    9.9365  -16.3824   24.9578 C   0  0  1  0  0  0  0  0  0  0  0  0
    9.0693  -16.4315   26.1769 C   0  0  0  0  0  0  0  0  0  0  0  0
    7.8181  -15.6803   26.0615 C   0  0  0  0  0  0  0  0  0  0  0  0
    6.5333  -16.1014   25.8291 C   0  0  0  0  0  0  0  0  0  0  0  0
    5.7346  -15.0317   25.7979 N   0  0  0  0  0  0  0  0  0  0  0  0
    6.4675  -13.9038   26.0065 C   0  0  0  0  0  0  0  0  0  0  0  0
    6.1320  -12.5520   26.0848 C   0  0  0  0  0  0  0  0  0  0  0  0
    7.1273  -11.6340   26.3292 C   0  0  0  0  0  0  0  0  0  0  0  0
    8.4537  -11.9678   26.5044 C   0  0  0  0  0  0  0  0  0  0  0  0
    8.7743  -13.3268   26.4225 C   0  0  0  0  0  0  0  0  0  0  0  0
    7.7751  -14.2767   26.1740 C   0  0  0  0  0  0  0  0  0  0  0  0
   11.1977  -17.1298   25.0270 C   0  0  0  0  0  0  0  0  0  0  0  0
   11.8882  -17.1788   26.0947 O   0  0  0  0  0  0  0  0  0  0  0  0
   12.2922  -19.2045   20.0966 N   0  0  0  0  0  0  0  0  0  0  0  0
   11.5520  -19.9769   21.0035 C   0  0  0  0  0  0  0  0  0  0  0  0
   10.4853  -20.5593   20.6127 O   0  0  0  0  0  0  0  0  0  0  0  0
   11.9827  -20.1387   22.3960 C   0  0  0  0  0  0  0  0  0  0  0  0
   13.1962  -19.3834   22.8019 C   0  0  0  0  0  0  0  0  0  0  0  0
   13.0390  -18.5742   24.0305 C   0  0  2  0  0  0  0  0  0  0  0  0
   11.7440  -17.8473   23.9353 N   0  0  0  0  0  0  0  0  0  0  0  0
   14.0657  -17.5848   24.2675 C   0  0  0  0  0  0  0  0  0  0  0  0
   13.9460  -16.3279   24.3118 O   0  0  0  0  0  0  0  0  0  0  0  0
   15.3990  -18.0157   24.4829 O   0  0  0  0  0  0  0  0  0  0  0  0
  2  1  1  1
  2  3  1  0
  4  3  1  0
  5  4  2  0
  6  5  1  0
  7  8  1  0
  7  6  2  0
  8  9  2  0
  9  4  1  0
 10  2  1  0
 11 10  2  0
 12 10  1  0
 13 24  1  0
 13 12  1  0
 13 14  1  1
 15 14  1  0
 16 15  2  0
 17 18  1  0
 17 16  1  0
 18 23  2  0
 19 20  2  0
 19 18  1  0
 20 21  1  0
 21 22  2  0
 23 22  1  0
 23 15  1  0
 24 32  1  0
 25 24  2  0
 26 27  1  0
 27 29  1  0
 28 27  2  0
 30 29  1  0
 31 30  1  6
 31 33  1  0
 32 31  1  0
 33 34  2  0
 33 35  1  0
M  END
$$$$
