FWQ.pdb
     RDKit          3D

 35 37  0  0  1  0  0  0  0  0999 V2000
    7.2245  -17.1459   21.4519 N   0  0  0  0  0  0  0  0  0  0  0  0
    8.5541  -16.9485   20.8964 C   0  0  1  0  0  0  0  0  0  0  0  0
    8.4023  -16.1250   19.6498 C   0  0  0  0  0  0  0  0  0  0  0  0
    8.1101  -14.7355   20.0935 C   0  0  0  0  0  0  0  0  0  0  0  0
    6.8861  -14.4734   20.7033 C   0  0  0  0  0  0  0  0  0  0  0  0
    6.5226  -13.2254   21.1535 C   0  0  0  0  0  0  0  0  0  0  0  0
    7.3877  -12.1694   21.0085 C   0  0  0  0  0  0  0  0  0  0  0  0
    8.6109  -12.4228   20.4013 C   0  0  0  0  0  0  0  0  0  0  0  0
    8.9606  -13.6708   19.9568 C   0  0  0  0  0  0  0  0  0  0  0  0
    9.4259  -16.3646   21.9263 C   0  0  0  0  0  0  0  0  0  0  0  0
   10.3959  -15.6398   21.5939 O   0  0  0  0  0  0  0  0  0  0  0  0
    9.1836  -16.6035   23.3184 N   0  0  0  0  0  0  0  0  0  0  0  0
    9.9927  -16.0593   24.3917 C   0  0  1  0  0  0  0  0  0  0  0  0
    9.2653  -16.1833   25.6940 C   0  0  0  0  0  0  0  0  0  0  0  0
    7.9652  -15.5111   25.7286 C   0  0  0  0  0  0  0  0  0  0  0  0
    6.6950  -15.9976   25.5500 C   0  0  0  0  0  0  0  0  0  0  0  0
    5.8321  -14.9850   25.6642 N   0  0  0  0  0  0  0  0  0  0  0  0
    6.5078  -13.8307   25.9169 C   0  0  0  0  0  0  0  0  0  0  0  0
    6.0967  -12.5151   26.1321 C   0  0  0  0  0  0  0  0  0  0  0  0
    7.0491  -11.5549   26.3846 C   0  0  0  0  0  0  0  0  0  0  0  0
    8.4028  -11.8117   26.4396 C   0  0  0  0  0  0  0  0  0  0  0  0
    8.7993  -13.1351   26.2212 C   0  0  0  0  0  0  0  0  0  0  0  0
    7.8446  -14.1271   25.9622 C   0  0  0  0  0  0  0  0  0  0  0  0
   11.3427  -16.6331   24.3444 C   0  0  0  0  0  0  0  0  0  0  0  0
   11.5356  -17.8908   24.3583 O   0  0  0  0  0  0  0  0  0  0  0  0
   14.7289  -14.4898   20.0303 N   0  0  0  0  0  0  0  0  0  0  0  0
   15.7741  -15.1023   20.7369 C   0  0  0  0  0  0  0  0  0  0  0  0
   16.9142  -15.2439   20.1801 O   0  0  0  0  0  0  0  0  0  0  0  0
   15.5886  -15.5784   22.1115 C   0  0  0  0  0  0  0  0  0  0  0  0
   14.2708  -15.2919   22.7354 C   0  0  0  0  0  0  0  0  0  0  0  0
   13.7699  -16.3523   23.6375 C   0  0  2  0  0  0  0  0  0  0  0  0
   12.5232  -15.8539   24.2792 N   0  0  0  0  0  0  0  0  0  0  0  0
   14.6658  -16.7491   24.7000 C   0  0  0  0  0  0  0  0  0  0  0  0
   15.7784  -17.3403   24.6057 O   0  0  0  0  0  0  0  0  0  0  0  0
   14.3065  -16.4695   26.0426 O   0  0  0  0  0  0  0  0  0  0  0  0
  2  1  1  1
  2  3  1  0
  4  3  1  0
  5  4  2  0
  6  5  1  0
  7  8  1  0
  7  6  2  0
  8  9  2  0
  9  4  1  0
 10  2  1  0
 11 10  2  0
 12 10  1  0
 13 24  1  0
 13 12  1  0
 13 14  1  1
 15 14  1  0
 16 15  2  0
 17 18  1  0
 17 16  1  0
 18 23  2  0
 19 20  2  0
 19 18  1  0
 20 21  1  0
 21 22  2  0
 23 22  1  0
 23 15  1  0
 24 32  1  0
 25 24  2  0
 26 27  1  0
 27 29  1  0
 28 27  2  0
 30 29  1  0
 31 30  1  1
 31 33  1  0
 32 31  1  0
 33 34  2  0
 33 35  1  0
M  END
$$$$
