FWQ.pdb
     RDKit          3D

 35 37  0  0  1  0  0  0  0  0999 V2000
    8.2217  -17.5478   21.3322 N   0  0  0  0  0  0  0  0  0  0  0  0
    9.4917  -16.8464   21.2302 C   0  0  1  0  0  0  0  0  0  0  0  0
    9.3535  -15.8236   20.1394 C   0  0  0  0  0  0  0  0  0  0  0  0
    8.3545  -14.8295   20.6154 C   0  0  0  0  0  0  0  0  0  0  0  0
    8.7918  -13.5488   20.9432 C   0  0  0  0  0  0  0  0  0  0  0  0
    7.9480  -12.5571   21.3868 C   0  0  0  0  0  0  0  0  0  0  0  0
    6.6061  -12.8133   21.5222 C   0  0  0  0  0  0  0  0  0  0  0  0
    6.1620  -14.0885   21.1969 C   0  0  0  0  0  0  0  0  0  0  0  0
    7.0132  -15.0677   20.7564 C   0  0  0  0  0  0  0  0  0  0  0  0
    9.8519  -16.3056   22.5491 C   0  0  0  0  0  0  0  0  0  0  0  0
   10.7790  -15.4653   22.6539 O   0  0  0  0  0  0  0  0  0  0  0  0
    9.1533  -16.7184   23.7304 N   0  0  0  0  0  0  0  0  0  0  0  0
    9.6616  -16.5518   25.0781 C   0  0  1  0  0  0  0  0  0  0  0  0
    8.5248  -16.4954   26.0503 C   0  0  0  0  0  0  0  0  0  0  0  0
    7.4725  -15.5406   25.6977 C   0  0  0  0  0  0  0  0  0  0  0  0
    6.2615  -15.7230   25.0793 C   0  0  0  0  0  0  0  0  0  0  0  0
    5.6583  -14.5369   24.9679 N   0  0  0  0  0  0  0  0  0  0  0  0
    6.4486  -13.5665   25.5033 C   0  0  0  0  0  0  0  0  0  0  0  0
    6.2924  -12.1887   25.6556 C   0  0  0  0  0  0  0  0  0  0  0  0
    7.2929  -11.4709   26.2694 C   0  0  0  0  0  0  0  0  0  0  0  0
    8.4566  -12.0327   26.7509 C   0  0  0  0  0  0  0  0  0  0  0  0
    8.5987  -13.4149   26.5903 C   0  0  0  0  0  0  0  0  0  0  0  0
    7.5912  -14.1631   25.9675 C   0  0  0  0  0  0  0  0  0  0  0  0
   10.7007  -17.5517   25.3509 C   0  0  0  0  0  0  0  0  0  0  0  0
   10.4398  -18.7968   25.3785 O   0  0  0  0  0  0  0  0  0  0  0  0
   16.5504  -17.0394   22.7837 N   0  0  0  0  0  0  0  0  0  0  0  0
   15.7847  -16.5697   23.8607 C   0  0  0  0  0  0  0  0  0  0  0  0
   16.1980  -15.5714   24.5409 O   0  0  0  0  0  0  0  0  0  0  0  0
   14.5089  -17.1973   24.2200 C   0  0  0  0  0  0  0  0  0  0  0  0
   14.4016  -17.7252   25.6047 C   0  0  0  0  0  0  0  0  0  0  0  0
   13.0673  -18.2545   25.9633 C   0  0  2  0  0  0  0  0  0  0  0  0
   12.0558  -17.2251   25.6006 N   0  0  0  0  0  0  0  0  0  0  0  0
   12.8707  -18.5705   27.3600 C   0  0  0  0  0  0  0  0  0  0  0  0
   13.4168  -19.4845   28.0400 O   0  0  0  0  0  0  0  0  0  0  0  0
   11.9596  -17.7935   28.1189 O   0  0  0  0  0  0  0  0  0  0  0  0
  2  1  1  1
  2  3  1  0
  4  3  1  0
  5  4  2  0
  6  5  1  0
  7  8  1  0
  7  6  2  0
  8  9  2  0
  9  4  1  0
 10  2  1  0
 11 10  2  0
 12 10  1  0
 13 24  1  0
 13 12  1  0
 13 14  1  1
 15 14  1  0
 16 15  2  0
 17 18  1  0
 17 16  1  0
 18 23  2  0
 19 20  2  0
 19 18  1  0
 20 21  1  0
 21 22  2  0
 23 22  1  0
 23 15  1  0
 24 32  1  0
 25 24  2  0
 26 27  1  0
 27 29  1  0
 28 27  2  0
 30 29  1  0
 31 30  1  1
 31 33  1  0
 32 31  1  0
 33 34  2  0
 33 35  1  0
M  END
$$$$
