FWQ.pdb
     RDKit          3D

 35 37  0  0  1  0  0  0  0  0999 V2000
   11.9930  -15.1354   19.2416 N   0  0  0  0  0  0  0  0  0  0  0  0
   10.6241  -15.4947   19.5773 C   0  0  1  0  0  0  0  0  0  0  0  0
   10.3627  -16.8560   18.9997 C   0  0  0  0  0  0  0  0  0  0  0  0
   10.0616  -16.6530   17.5571 C   0  0  0  0  0  0  0  0  0  0  0  0
    8.8168  -16.1404   17.2011 C   0  0  0  0  0  0  0  0  0  0  0  0
    8.4434  -15.9109   15.8973 C   0  0  0  0  0  0  0  0  0  0  0  0
    9.3191  -16.1906   14.8777 C   0  0  0  0  0  0  0  0  0  0  0  0
   10.5631  -16.7020   15.2247 C   0  0  0  0  0  0  0  0  0  0  0  0
   10.9225  -16.9264   16.5277 C   0  0  0  0  0  0  0  0  0  0  0  0
   10.4403  -15.3897   21.0322 C   0  0  0  0  0  0  0  0  0  0  0  0
   11.4187  -15.1254   21.7735 O   0  0  0  0  0  0  0  0  0  0  0  0
    9.1503  -15.5784   21.6273 N   0  0  0  0  0  0  0  0  0  0  0  0
    8.8591  -15.3546   23.0300 C   0  0  1  0  0  0  0  0  0  0  0  0
    7.4342  -14.9268   23.1948 C   0  0  0  0  0  0  0  0  0  0  0  0
    7.0105  -14.7528   24.5853 C   0  0  0  0  0  0  0  0  0  0  0  0
    6.3578  -15.6038   25.4408 C   0  0  0  0  0  0  0  0  0  0  0  0
    6.1820  -14.9802   26.6084 N   0  0  0  0  0  0  0  0  0  0  0  0
    6.7080  -13.7264   26.5444 C   0  0  0  0  0  0  0  0  0  0  0  0
    6.8039  -12.6864   27.4691 C   0  0  0  0  0  0  0  0  0  0  0  0
    7.4249  -11.5180   27.0923 C   0  0  0  0  0  0  0  0  0  0  0  0
    7.9667  -11.3049   25.8422 C   0  0  0  0  0  0  0  0  0  0  0  0
    7.8623  -12.3566   24.9261 C   0  0  0  0  0  0  0  0  0  0  0  0
    7.2331  -13.5540   25.2908 C   0  0  0  0  0  0  0  0  0  0  0  0
    9.2854  -16.5136   23.8232 C   0  0  0  0  0  0  0  0  0  0  0  0
    9.0259  -17.7049   23.4592 O   0  0  0  0  0  0  0  0  0  0  0  0
   13.1605  -18.4881   21.9397 N   0  0  0  0  0  0  0  0  0  0  0  0
   13.4191  -18.4531   23.3177 C   0  0  0  0  0  0  0  0  0  0  0  0
   14.5912  -18.1635   23.7326 O   0  0  0  0  0  0  0  0  0  0  0  0
   12.3657  -18.7346   24.2983 C   0  0  0  0  0  0  0  0  0  0  0  0
   12.0519  -17.6452   25.2588 C   0  0  0  0  0  0  0  0  0  0  0  0
   10.6377  -17.5888   25.6899 C   0  0  2  0  0  0  0  0  0  0  0  0
   10.0083  -16.4094   25.0363 N   0  0  0  0  0  0  0  0  0  0  0  0
   10.4188  -17.4541   27.1123 C   0  0  0  0  0  0  0  0  0  0  0  0
    9.8075  -16.5346   27.7264 O   0  0  0  0  0  0  0  0  0  0  0  0
   10.9327  -18.4469   27.9840 O   0  0  0  0  0  0  0  0  0  0  0  0
  2  1  1  1
  2  3  1  0
  4  3  1  0
  5  4  2  0
  6  5  1  0
  7  8  1  0
  7  6  2  0
  8  9  2  0
  9  4  1  0
 10  2  1  0
 11 10  2  0
 12 10  1  0
 13 24  1  0
 13 12  1  0
 13 14  1  6
 15 14  1  0
 16 15  2  0
 17 18  1  0
 17 16  1  0
 18 23  2  0
 19 20  2  0
 19 18  1  0
 20 21  1  0
 21 22  2  0
 23 22  1  0
 23 15  1  0
 24 32  1  0
 25 24  2  0
 26 27  1  0
 27 29  1  0
 28 27  2  0
 30 29  1  0
 31 30  1  1
 31 33  1  0
 32 31  1  0
 33 34  2  0
 33 35  1  0
M  END
$$$$
