FWQ.pdb
     RDKit          3D

 35 37  0  0  1  0  0  0  0  0999 V2000
    7.8072  -15.5282   21.9395 N   0  0  0  0  0  0  0  0  0  0  0  0
    9.2596  -15.5757   21.8792 C   0  0  1  0  0  0  0  0  0  0  0  0
    9.7192  -14.3457   21.1505 C   0  0  0  0  0  0  0  0  0  0  0  0
    8.6667  -14.0297   20.1478 C   0  0  0  0  0  0  0  0  0  0  0  0
    8.0192  -12.7994   20.2255 C   0  0  0  0  0  0  0  0  0  0  0  0
    7.0374  -12.4098   19.3444 C   0  0  0  0  0  0  0  0  0  0  0  0
    6.6575  -13.2532   18.3300 C   0  0  0  0  0  0  0  0  0  0  0  0
    7.2990  -14.4823   18.2456 C   0  0  0  0  0  0  0  0  0  0  0  0
    8.2754  -14.8584   19.1302 C   0  0  0  0  0  0  0  0  0  0  0  0
    9.7946  -15.7299   23.2399 C   0  0  0  0  0  0  0  0  0  0  0  0
   10.8126  -15.0855   23.5935 O   0  0  0  0  0  0  0  0  0  0  0  0
    9.1659  -16.6061   24.1837 N   0  0  0  0  0  0  0  0  0  0  0  0
    9.6153  -16.7899   25.5500 C   0  0  1  0  0  0  0  0  0  0  0  0
    8.4452  -16.7514   26.4829 C   0  0  0  0  0  0  0  0  0  0  0  0
    7.4525  -15.7225   26.1680 C   0  0  0  0  0  0  0  0  0  0  0  0
    6.2335  -15.8084   25.5445 C   0  0  0  0  0  0  0  0  0  0  0  0
    5.7026  -14.5849   25.4788 N   0  0  0  0  0  0  0  0  0  0  0  0
    6.5490  -13.6847   26.0497 C   0  0  0  0  0  0  0  0  0  0  0  0
    6.4756  -12.3067   26.2543 C   0  0  0  0  0  0  0  0  0  0  0  0
    7.5167  -11.6740   26.8937 C   0  0  0  0  0  0  0  0  0  0  0  0
    8.6440  -12.3225   27.3522 C   0  0  0  0  0  0  0  0  0  0  0  0
    8.7031  -13.7035   27.1392 C   0  0  0  0  0  0  0  0  0  0  0  0
    7.6533  -14.3658   26.4896 C   0  0  0  0  0  0  0  0  0  0  0  0
   10.4796  -17.9725   25.6404 C   0  0  0  0  0  0  0  0  0  0  0  0
    9.9987  -19.1487   25.7072 O   0  0  0  0  0  0  0  0  0  0  0  0
   14.3200  -17.5342   22.1415 N   0  0  0  0  0  0  0  0  0  0  0  0
   14.9481  -17.1909   23.3475 C   0  0  0  0  0  0  0  0  0  0  0  0
   15.7897  -16.2311   23.3698 O   0  0  0  0  0  0  0  0  0  0  0  0
   14.6518  -17.9077   24.5922 C   0  0  0  0  0  0  0  0  0  0  0  0
   13.6719  -19.0203   24.4941 C   0  0  0  0  0  0  0  0  0  0  0  0
   12.7443  -19.1306   25.6414 C   0  0  2  0  0  0  0  0  0  0  0  0
   11.8941  -17.9094   25.6596 N   0  0  0  0  0  0  0  0  0  0  0  0
   13.3637  -19.2370   26.9430 C   0  0  0  0  0  0  0  0  0  0  0  0
   14.0289  -20.2010   27.4167 O   0  0  0  0  0  0  0  0  0  0  0  0
   13.2441  -18.1554   27.8517 O   0  0  0  0  0  0  0  0  0  0  0  0
  2  1  1  1
  2  3  1  0
  4  3  1  0
  5  4  2  0
  6  5  1  0
  7  8  1  0
  7  6  2  0
  8  9  2  0
  9  4  1  0
 10  2  1  0
 11 10  2  0
 12 10  1  0
 13 24  1  0
 13 12  1  0
 13 14  1  1
 15 14  1  0
 16 15  2  0
 17 18  1  0
 17 16  1  0
 18 23  2  0
 19 20  2  0
 19 18  1  0
 20 21  1  0
 21 22  2  0
 23 22  1  0
 23 15  1  0
 24 32  1  0
 25 24  2  0
 26 27  1  0
 27 29  1  0
 28 27  2  0
 30 29  1  0
 31 30  1  6
 31 33  1  0
 32 31  1  0
 33 34  2  0
 33 35  1  0
M  END
$$$$
