FWQ.pdb
     RDKit          3D

 35 37  0  0  1  0  0  0  0  0999 V2000
    8.5328  -16.0244   21.4436 N   0  0  0  0  0  0  0  0  0  0  0  0
    9.8945  -15.6157   21.7504 C   0  0  1  0  0  0  0  0  0  0  0  0
    9.9860  -14.1373   21.5039 C   0  0  0  0  0  0  0  0  0  0  0  0
    8.7240  -13.7430   20.8221 C   0  0  0  0  0  0  0  0  0  0  0  0
    8.7658  -13.4417   19.4633 C   0  0  0  0  0  0  0  0  0  0  0  0
    7.6550  -13.0726   18.7408 C   0  0  0  0  0  0  0  0  0  0  0  0
    6.4338  -12.9893   19.3624 C   0  0  0  0  0  0  0  0  0  0  0  0
    6.3838  -13.2886   20.7178 C   0  0  0  0  0  0  0  0  0  0  0  0
    7.4980  -13.6547   21.4261 C   0  0  0  0  0  0  0  0  0  0  0  0
   10.2300  -16.0412   23.1172 C   0  0  0  0  0  0  0  0  0  0  0  0
   11.3722  -15.8128   23.5858 O   0  0  0  0  0  0  0  0  0  0  0  0
    9.2656  -16.7132   23.9371 N   0  0  0  0  0  0  0  0  0  0  0  0
    9.4473  -16.9897   25.3489 C   0  0  1  0  0  0  0  0  0  0  0  0
    8.1250  -16.9623   26.0498 C   0  0  0  0  0  0  0  0  0  0  0  0
    7.3000  -15.7927   25.7421 C   0  0  0  0  0  0  0  0  0  0  0  0
    6.0896  -15.6871   25.1050 C   0  0  0  0  0  0  0  0  0  0  0  0
    5.7471  -14.3975   25.0544 N   0  0  0  0  0  0  0  0  0  0  0  0
    6.7106  -13.6417   25.6486 C   0  0  0  0  0  0  0  0  0  0  0  0
    6.8400  -12.2713   25.8754 C   0  0  0  0  0  0  0  0  0  0  0  0
    7.9554  -11.8100   26.5357 C   0  0  0  0  0  0  0  0  0  0  0  0
    8.9682  -12.6255   26.9946 C   0  0  0  0  0  0  0  0  0  0  0  0
    8.8243  -13.9967   26.7593 C   0  0  0  0  0  0  0  0  0  0  0  0
    7.6959  -14.4859   26.0883 C   0  0  0  0  0  0  0  0  0  0  0  0
   10.2503  -18.2057   25.5239 C   0  0  0  0  0  0  0  0  0  0  0  0
    9.9392  -19.3002   24.9543 O   0  0  0  0  0  0  0  0  0  0  0  0
   16.3012  -18.6335   25.1422 N   0  0  0  0  0  0  0  0  0  0  0  0
   15.9870  -19.8894   25.6815 C   0  0  0  0  0  0  0  0  0  0  0  0
   16.9110  -20.7551   25.8450 O   0  0  0  0  0  0  0  0  0  0  0  0
   14.6150  -20.2295   26.0722 C   0  0  0  0  0  0  0  0  0  0  0  0
   13.5916  -19.1712   25.8714 C   0  0  0  0  0  0  0  0  0  0  0  0
   12.2544  -19.4921   26.4174 C   0  0  2  0  0  0  0  0  0  0  0  0
   11.4171  -18.2655   26.3238 N   0  0  0  0  0  0  0  0  0  0  0  0
   12.2252  -19.9229   27.7967 C   0  0  0  0  0  0  0  0  0  0  0  0
   12.1807  -21.1023   28.2475 O   0  0  0  0  0  0  0  0  0  0  0  0
   12.2446  -18.9450   28.8229 O   0  0  0  0  0  0  0  0  0  0  0  0
  2  1  1  1
  2  3  1  0
  4  3  1  0
  5  4  2  0
  6  5  1  0
  7  8  1  0
  7  6  2  0
  8  9  2  0
  9  4  1  0
 10  2  1  0
 11 10  2  0
 12 10  1  0
 13 24  1  0
 13 12  1  0
 13 14  1  6
 15 14  1  0
 16 15  2  0
 17 18  1  0
 17 16  1  0
 18 23  2  0
 19 20  2  0
 19 18  1  0
 20 21  1  0
 21 22  2  0
 23 22  1  0
 23 15  1  0
 24 32  1  0
 25 24  2  0
 26 27  1  0
 27 29  1  0
 28 27  2  0
 30 29  1  0
 31 30  1  1
 31 33  1  0
 32 31  1  0
 33 34  2  0
 33 35  1  0
M  END
$$$$
