FWQ.pdb
     RDKit          3D

 35 37  0  0  1  0  0  0  0  0999 V2000
    7.3352  -16.8195   20.3538 N   0  0  0  0  0  0  0  0  0  0  0  0
    7.3344  -17.1713   21.7651 C   0  0  1  0  0  0  0  0  0  0  0  0
    7.4897  -18.6622   21.8563 C   0  0  0  0  0  0  0  0  0  0  0  0
    6.2559  -19.2528   21.2717 C   0  0  0  0  0  0  0  0  0  0  0  0
    5.0985  -19.2813   22.0454 C   0  0  0  0  0  0  0  0  0  0  0  0
    3.9064  -19.7998   21.5957 C   0  0  0  0  0  0  0  0  0  0  0  0
    3.8240  -20.3205   20.3281 C   0  0  0  0  0  0  0  0  0  0  0  0
    4.9742  -20.2955   19.5499 C   0  0  0  0  0  0  0  0  0  0  0  0
    6.1558  -19.7762   20.0101 C   0  0  0  0  0  0  0  0  0  0  0  0
    8.3725  -16.3935   22.4572 C   0  0  0  0  0  0  0  0  0  0  0  0
    9.2017  -15.7210   21.7963 O   0  0  0  0  0  0  0  0  0  0  0  0
    8.4535  -16.3821   23.8880 N   0  0  0  0  0  0  0  0  0  0  0  0
    9.3946  -15.5795   24.6447 C   0  0  1  0  0  0  0  0  0  0  0  0
    8.8444  -15.2952   26.0075 C   0  0  0  0  0  0  0  0  0  0  0  0
    7.5063  -14.7012   26.0092 C   0  0  0  0  0  0  0  0  0  0  0  0
    6.2634  -15.2820   26.0062 C   0  0  0  0  0  0  0  0  0  0  0  0
    5.3425  -14.3150   25.9959 N   0  0  0  0  0  0  0  0  0  0  0  0
    5.9527  -13.0983   25.9926 C   0  0  0  0  0  0  0  0  0  0  0  0
    5.4674  -11.7905   25.9971 C   0  0  0  0  0  0  0  0  0  0  0  0
    6.3662  -10.7488   26.0096 C   0  0  0  0  0  0  0  0  0  0  0  0
    7.7350  -10.9157   26.0181 C   0  0  0  0  0  0  0  0  0  0  0  0
    8.2061  -12.2326   26.0130 C   0  0  0  0  0  0  0  0  0  0  0  0
    7.3067  -13.3067   25.9999 C   0  0  0  0  0  0  0  0  0  0  0  0
   10.7284  -16.1898   24.5970 C   0  0  0  0  0  0  0  0  0  0  0  0
   11.7374  -15.6352   25.1388 O   0  0  0  0  0  0  0  0  0  0  0  0
   10.4968  -21.1711   26.4250 N   0  0  0  0  0  0  0  0  0  0  0  0
   11.7075  -21.5831   25.8491 C   0  0  0  0  0  0  0  0  0  0  0  0
   12.3343  -22.5796   26.3430 O   0  0  0  0  0  0  0  0  0  0  0  0
   12.2684  -20.8967   24.6808 C   0  0  0  0  0  0  0  0  0  0  0  0
   11.4699  -19.7698   24.1330 C   0  0  0  0  0  0  0  0  0  0  0  0
   11.9395  -18.4257   24.5355 C   0  0  2  0  0  0  0  0  0  0  0  0
   11.0029  -17.4235   23.9585 N   0  0  0  0  0  0  0  0  0  0  0  0
   13.2693  -18.0669   24.0973 C   0  0  0  0  0  0  0  0  0  0  0  0
   14.3666  -18.6183   24.3941 O   0  0  0  0  0  0  0  0  0  0  0  0
   13.4304  -16.9625   23.2230 O   0  0  0  0  0  0  0  0  0  0  0  0
  2  1  1  6
  2  3  1  0
  4  3  1  0
  5  4  2  0
  6  5  1  0
  7  8  1  0
  7  6  2  0
  8  9  2  0
  9  4  1  0
 10  2  1  0
 11 10  2  0
 12 10  1  0
 13 24  1  0
 13 12  1  0
 13 14  1  1
 15 14  1  0
 16 15  2  0
 17 18  1  0
 17 16  1  0
 18 23  2  0
 19 20  2  0
 19 18  1  0
 20 21  1  0
 21 22  2  0
 23 22  1  0
 23 15  1  0
 24 32  1  0
 25 24  2  0
 26 27  1  0
 27 29  1  0
 28 27  2  0
 30 29  1  0
 31 30  1  6
 31 33  1  0
 32 31  1  0
 33 34  2  0
 33 35  1  0
M  END
$$$$
