FWQ.pdb
     RDKit          3D

 35 37  0  0  1  0  0  0  0  0999 V2000
    8.5707  -16.9793   18.4003 N   0  0  0  0  0  0  0  0  0  0  0  0
    8.3789  -17.7801   19.5993 C   0  0  1  0  0  0  0  0  0  0  0  0
    9.1665  -19.0466   19.4241 C   0  0  0  0  0  0  0  0  0  0  0  0
    8.4577  -19.8461   18.3890 C   0  0  0  0  0  0  0  0  0  0  0  0
    9.1548  -20.2231   17.2441 C   0  0  0  0  0  0  0  0  0  0  0  0
    8.5924  -20.9665   16.2325 C   0  0  0  0  0  0  0  0  0  0  0  0
    7.2839  -21.3703   16.3291 C   0  0  0  0  0  0  0  0  0  0  0  0
    6.5818  -20.9983   17.4684 C   0  0  0  0  0  0  0  0  0  0  0  0
    7.1538  -20.2572   18.4689 C   0  0  0  0  0  0  0  0  0  0  0  0
    8.7413  -16.9793   20.7779 C   0  0  0  0  0  0  0  0  0  0  0  0
    9.8473  -16.3865   20.8211 O   0  0  0  0  0  0  0  0  0  0  0  0
    7.8439  -16.8549   21.8883 N   0  0  0  0  0  0  0  0  0  0  0  0
    8.1746  -16.1884   23.1328 C   0  0  1  0  0  0  0  0  0  0  0  0
    6.9224  -15.8463   23.8783 C   0  0  0  0  0  0  0  0  0  0  0  0
    7.1435  -15.3359   25.2325 C   0  0  0  0  0  0  0  0  0  0  0  0
    7.3673  -15.9918   26.4165 C   0  0  0  0  0  0  0  0  0  0  0  0
    7.4969  -15.0841   27.3872 N   0  0  0  0  0  0  0  0  0  0  0  0
    7.3635  -13.8329   26.8682 C   0  0  0  0  0  0  0  0  0  0  0  0
    7.4254  -12.5578   27.4307 C   0  0  0  0  0  0  0  0  0  0  0  0
    7.2611  -11.4630   26.6138 C   0  0  0  0  0  0  0  0  0  0  0  0
    7.0361  -11.5451   25.2558 C   0  0  0  0  0  0  0  0  0  0  0  0
    6.9762  -12.8301   24.7068 C   0  0  0  0  0  0  0  0  0  0  0  0
    7.1407  -13.9573   25.5222 C   0  0  0  0  0  0  0  0  0  0  0  0
    9.1770  -16.9671   23.8695 C   0  0  0  0  0  0  0  0  0  0  0  0
    9.0478  -18.2195   24.0537 O   0  0  0  0  0  0  0  0  0  0  0  0
   15.0533  -16.3181   21.9811 N   0  0  0  0  0  0  0  0  0  0  0  0
   14.5680  -15.9917   23.2559 C   0  0  0  0  0  0  0  0  0  0  0  0
   15.3896  -15.6936   24.1866 O   0  0  0  0  0  0  0  0  0  0  0  0
   13.1300  -15.9766   23.5433 C   0  0  0  0  0  0  0  0  0  0  0  0
   12.5081  -17.2882   23.8605 C   0  0  0  0  0  0  0  0  0  0  0  0
   11.4768  -17.2437   24.9204 C   0  0  2  0  0  0  0  0  0  0  0  0
   10.3512  -16.4049   24.4266 N   0  0  0  0  0  0  0  0  0  0  0  0
   11.8990  -16.6869   26.1856 C   0  0  0  0  0  0  0  0  0  0  0  0
   12.8424  -17.0700   26.9334 O   0  0  0  0  0  0  0  0  0  0  0  0
   11.2045  -15.5677   26.7101 O   0  0  0  0  0  0  0  0  0  0  0  0
  2  1  1  6
  2  3  1  0
  4  3  1  0
  5  4  2  0
  6  5  1  0
  7  8  1  0
  7  6  2  0
  8  9  2  0
  9  4  1  0
 10  2  1  0
 11 10  2  0
 12 10  1  0
 13 24  1  0
 13 12  1  0
 13 14  1  1
 15 14  1  0
 16 15  2  0
 17 18  1  0
 17 16  1  0
 18 23  2  0
 19 20  2  0
 19 18  1  0
 20 21  1  0
 21 22  2  0
 23 22  1  0
 23 15  1  0
 24 32  1  0
 25 24  2  0
 26 27  1  0
 27 29  1  0
 28 27  2  0
 30 29  1  0
 31 30  1  6
 31 33  1  0
 32 31  1  0
 33 34  2  0
 33 35  1  0
M  END
$$$$
