FWQ.pdb
     RDKit          3D

 35 37  0  0  1  0  0  0  0  0999 V2000
    7.4299  -17.3988   21.3024 N   0  0  0  0  0  0  0  0  0  0  0  0
    8.8068  -16.9654   21.1244 C   0  0  1  0  0  0  0  0  0  0  0  0
    8.8282  -15.9979   19.9762 C   0  0  0  0  0  0  0  0  0  0  0  0
    8.0422  -14.8110   20.4080 C   0  0  0  0  0  0  0  0  0  0  0  0
    7.9422  -13.7257   19.5414 C   0  0  0  0  0  0  0  0  0  0  0  0
    7.2352  -12.5852   19.8438 C   0  0  0  0  0  0  0  0  0  0  0  0
    6.5870  -12.4840   21.0497 C   0  0  0  0  0  0  0  0  0  0  0  0
    6.6818  -13.5627   21.9196 C   0  0  0  0  0  0  0  0  0  0  0  0
    7.3897  -14.6932   21.6063 C   0  0  0  0  0  0  0  0  0  0  0  0
    9.3137  -16.4325   22.3975 C   0  0  0  0  0  0  0  0  0  0  0  0
   10.1964  -15.5396   22.4000 O   0  0  0  0  0  0  0  0  0  0  0  0
    8.8095  -16.9129   23.6500 N   0  0  0  0  0  0  0  0  0  0  0  0
    9.4794  -16.7289   24.9228 C   0  0  1  0  0  0  0  0  0  0  0  0
    8.4681  -16.5554   26.0127 C   0  0  0  0  0  0  0  0  0  0  0  0
    7.4712  -15.5149   25.7546 C   0  0  0  0  0  0  0  0  0  0  0  0
    6.2069  -15.5903   25.2274 C   0  0  0  0  0  0  0  0  0  0  0  0
    5.6925  -14.3589   25.1788 N   0  0  0  0  0  0  0  0  0  0  0  0
    6.5947  -13.4638   25.6663 C   0  0  0  0  0  0  0  0  0  0  0  0
    6.5596  -12.0813   25.8494 C   0  0  0  0  0  0  0  0  0  0  0  0
    7.6566  -11.4558   26.3956 C   0  0  0  0  0  0  0  0  0  0  0  0
    8.8049  -12.1158   26.7793 C   0  0  0  0  0  0  0  0  0  0  0  0
    8.8251  -13.5013   26.5890 C   0  0  0  0  0  0  0  0  0  0  0  0
    7.7180  -14.1564   26.0340 C   0  0  0  0  0  0  0  0  0  0  0  0
   10.4763  -17.7871   25.1240 C   0  0  0  0  0  0  0  0  0  0  0  0
   10.1822  -19.0175   24.9876 O   0  0  0  0  0  0  0  0  0  0  0  0
   17.2602  -17.2894   24.3464 N   0  0  0  0  0  0  0  0  0  0  0  0
   15.9395  -16.8178   24.3686 C   0  0  0  0  0  0  0  0  0  0  0  0
   15.5830  -15.9013   23.5545 O   0  0  0  0  0  0  0  0  0  0  0  0
   14.9513  -17.3628   25.3050 C   0  0  0  0  0  0  0  0  0  0  0  0
   13.9667  -18.3212   24.7394 C   0  0  0  0  0  0  0  0  0  0  0  0
   12.8233  -18.6291   25.6265 C   0  0  2  0  0  0  0  0  0  0  0  0
   11.8241  -17.5364   25.4786 N   0  0  0  0  0  0  0  0  0  0  0  0
   13.1309  -18.7365   27.0346 C   0  0  0  0  0  0  0  0  0  0  0  0
   12.7248  -18.0063   27.9823 O   0  0  0  0  0  0  0  0  0  0  0  0
   13.9950  -19.7716   27.4726 O   0  0  0  0  0  0  0  0  0  0  0  0
  2  1  1  1
  2  3  1  0
  4  3  1  0
  5  4  2  0
  6  5  1  0
  7  8  1  0
  7  6  2  0
  8  9  2  0
  9  4  1  0
 10  2  1  0
 11 10  2  0
 12 10  1  0
 13 24  1  0
 13 12  1  0
 13 14  1  1
 15 14  1  0
 16 15  2  0
 17 18  1  0
 17 16  1  0
 18 23  2  0
 19 20  2  0
 19 18  1  0
 20 21  1  0
 21 22  2  0
 23 22  1  0
 23 15  1  0
 24 32  1  0
 25 24  2  0
 26 27  1  0
 27 29  1  0
 28 27  2  0
 30 29  1  0
 31 30  1  6
 31 33  1  0
 32 31  1  0
 33 34  2  0
 33 35  1  0
M  END
$$$$
