FWQ.pdb
     RDKit          3D

 35 37  0  0  1  0  0  0  0  0999 V2000
   11.2504  -15.4747   19.2515 N   0  0  0  0  0  0  0  0  0  0  0  0
   10.0013  -15.2331   19.9565 C   0  0  1  0  0  0  0  0  0  0  0  0
    8.9029  -15.8706   19.1552 C   0  0  0  0  0  0  0  0  0  0  0  0
    8.3172  -14.7958   18.3097 C   0  0  0  0  0  0  0  0  0  0  0  0
    8.3531  -14.9418   16.9254 C   0  0  0  0  0  0  0  0  0  0  0  0
    7.8346  -14.0089   16.0576 C   0  0  0  0  0  0  0  0  0  0  0  0
    7.2473  -12.8705   16.5512 C   0  0  0  0  0  0  0  0  0  0  0  0
    7.2072  -12.7176   17.9312 C   0  0  0  0  0  0  0  0  0  0  0  0
    7.7279  -13.6545   18.7848 C   0  0  0  0  0  0  0  0  0  0  0  0
   10.1256  -15.7178   21.3390 C   0  0  0  0  0  0  0  0  0  0  0  0
   11.2595  -15.9489   21.8262 O   0  0  0  0  0  0  0  0  0  0  0  0
    8.9650  -15.9276   22.1532 N   0  0  0  0  0  0  0  0  0  0  0  0
    8.8687  -15.5462   23.5488 C   0  0  1  0  0  0  0  0  0  0  0  0
    7.5069  -14.9948   23.8356 C   0  0  0  0  0  0  0  0  0  0  0  0
    7.2515  -14.7157   25.2499 C   0  0  0  0  0  0  0  0  0  0  0  0
    7.0175  -15.5593   26.3061 C   0  0  0  0  0  0  0  0  0  0  0  0
    6.8267  -14.8232   27.4037 N   0  0  0  0  0  0  0  0  0  0  0  0
    6.9306  -13.5015   27.0954 C   0  0  0  0  0  0  0  0  0  0  0  0
    6.8343  -12.3364   27.8565 C   0  0  0  0  0  0  0  0  0  0  0  0
    7.0094  -11.1213   27.2355 C   0  0  0  0  0  0  0  0  0  0  0  0
    7.2777  -10.9778   25.8905 C   0  0  0  0  0  0  0  0  0  0  0  0
    7.3707  -12.1549   25.1407 C   0  0  0  0  0  0  0  0  0  0  0  0
    7.1952  -13.4018   25.7548 C   0  0  0  0  0  0  0  0  0  0  0  0
    9.3153  -16.6519   24.4043 C   0  0  0  0  0  0  0  0  0  0  0  0
    9.2733  -16.5742   25.6737 O   0  0  0  0  0  0  0  0  0  0  0  0
   13.0016  -20.3707   21.1678 N   0  0  0  0  0  0  0  0  0  0  0  0
   12.9224  -20.5393   22.5579 C   0  0  0  0  0  0  0  0  0  0  0  0
   13.4764  -21.5519   23.1033 O   0  0  0  0  0  0  0  0  0  0  0  0
   12.2211  -19.5688   23.4046 C   0  0  0  0  0  0  0  0  0  0  0  0
   10.9183  -20.0073   23.9688 C   0  0  0  0  0  0  0  0  0  0  0  0
   10.2298  -18.9927   24.7967 C   0  0  2  0  0  0  0  0  0  0  0  0
    9.8199  -17.8761   23.9025 N   0  0  0  0  0  0  0  0  0  0  0  0
   11.0134  -18.4160   25.8655 C   0  0  0  0  0  0  0  0  0  0  0  0
   11.1784  -18.8538   27.0391 O   0  0  0  0  0  0  0  0  0  0  0  0
   11.7084  -17.2028   25.6310 O   0  0  0  0  0  0  0  0  0  0  0  0
  2  1  1  6
  2  3  1  0
  4  3  1  0
  5  4  2  0
  6  5  1  0
  7  8  1  0
  7  6  2  0
  8  9  2  0
  9  4  1  0
 10  2  1  0
 11 10  2  0
 12 10  1  0
 13 24  1  0
 13 12  1  0
 13 14  1  1
 15 14  1  0
 16 15  2  0
 17 18  1  0
 17 16  1  0
 18 23  2  0
 19 20  2  0
 19 18  1  0
 20 21  1  0
 21 22  2  0
 23 22  1  0
 23 15  1  0
 24 32  1  0
 25 24  2  0
 26 27  1  0
 27 29  1  0
 28 27  2  0
 30 29  1  0
 31 30  1  6
 31 33  1  0
 32 31  1  0
 33 34  2  0
 33 35  1  0
M  END
$$$$
