AGK.pdb
     RDKit          3D

 19 18  0  0  1  0  0  0  0  0999 V2000
    4.6585  -18.5304   20.3668 C   0  0  0  0  0  0  0  0  0  0  0  0
    6.0778  -18.9469   20.6914 C   0  0  2  0  0  0  0  0  0  0  0  0
    6.2583  -19.1962   22.1017 N   0  0  0  0  0  0  0  0  0  0  0  0
    7.0100  -17.8864   20.2757 C   0  0  0  0  0  0  0  0  0  0  0  0
    7.1195  -17.6252   19.0534 O   0  0  0  0  0  0  0  0  0  0  0  0
    7.7741  -17.1650   21.2040 N   0  0  0  0  0  0  0  0  0  0  0  0
    8.5816  -16.0654   20.7542 C   0  0  0  0  0  0  0  0  0  0  0  0
    9.2523  -15.4776   21.9435 C   0  0  0  0  0  0  0  0  0  0  0  0
   10.1438  -14.5929   21.8389 O   0  0  0  0  0  0  0  0  0  0  0  0
    8.9365  -15.8707   23.2763 N   0  0  0  0  0  0  0  0  0  0  0  0
    9.0107  -14.9494   24.3968 C   0  0  1  0  0  0  0  0  0  0  0  0
    7.7468  -14.2037   24.6291 C   0  0  0  0  0  0  0  0  0  0  0  0
    7.7048  -13.2643   25.7717 C   0  0  0  0  0  0  0  0  0  0  0  0
    6.4326  -12.5123   25.9763 C   0  0  0  0  0  0  0  0  0  0  0  0
    6.5806  -11.6230   27.2254 C   0  0  0  0  0  0  0  0  0  0  0  0
    5.2950  -10.9950   27.4680 N   0  0  0  0  0  0  0  0  0  0  0  0
    9.5150  -15.7123   25.5600 C   0  0  0  0  0  0  0  0  0  0  0  0
    9.7204  -15.1299   26.6523 O   0  0  0  0  0  0  0  0  0  0  0  0
    9.7797  -17.0721   25.4991 O   0  0  0  0  0  0  0  0  0  0  0  0
  2  1  1  1
  3  2  1  0
  4  5  2  0
  4  2  1  0
  6  4  1  0
  7  6  1  0
  8  7  1  0
  9  8  2  0
 10  8  1  0
 11 12  1  1
 11 10  1  0
 12 13  1  0
 13 14  1  0
 14 15  1  0
 15 16  1  0
 17 11  1  0
 18 17  2  0
 19 17  1  0
M  END
$$$$
