AGK.pdb
     RDKit          3D

 19 18  0  0  1  0  0  0  0  0999 V2000
    7.4872  -13.3325   18.5970 C   0  0  0  0  0  0  0  0  0  0  0  0
    7.6768  -14.7031   19.2121 C   0  0  2  0  0  0  0  0  0  0  0  0
    6.6423  -15.0132   20.1699 N   0  0  0  0  0  0  0  0  0  0  0  0
    8.9820  -14.7629   19.8899 C   0  0  0  0  0  0  0  0  0  0  0  0
   10.0251  -14.7199   19.1941 O   0  0  0  0  0  0  0  0  0  0  0  0
    9.0893  -14.8660   21.2841 N   0  0  0  0  0  0  0  0  0  0  0  0
   10.3837  -14.7876   21.9023 C   0  0  0  0  0  0  0  0  0  0  0  0
   10.2425  -15.2393   23.3115 C   0  0  0  0  0  0  0  0  0  0  0  0
   11.2425  -15.4513   24.0487 O   0  0  0  0  0  0  0  0  0  0  0  0
    8.9751  -15.4627   23.9236 N   0  0  0  0  0  0  0  0  0  0  0  0
    8.8373  -15.7665   25.3372 C   0  0  1  0  0  0  0  0  0  0  0  0
    7.6630  -15.1101   25.9676 C   0  0  0  0  0  0  0  0  0  0  0  0
    7.7075  -13.6407   26.1372 C   0  0  0  0  0  0  0  0  0  0  0  0
    6.5142  -13.0005   26.7632 C   0  0  0  0  0  0  0  0  0  0  0  0
    6.7527  -11.4804   26.8389 C   0  0  0  0  0  0  0  0  0  0  0  0
    5.5859  -10.8871   27.4655 N   0  0  0  0  0  0  0  0  0  0  0  0
    8.8863  -17.2387   25.4768 C   0  0  0  0  0  0  0  0  0  0  0  0
    8.7002  -17.9715   24.4753 O   0  0  0  0  0  0  0  0  0  0  0  0
    9.1320  -17.8627   26.6905 O   0  0  0  0  0  0  0  0  0  0  0  0
  2  1  1  1
  3  2  1  0
  4  5  2  0
  4  2  1  0
  6  4  1  0
  7  6  1  0
  8  7  1  0
  9  8  2  0
 10  8  1  0
 11 12  1  6
 11 10  1  0
 12 13  1  0
 13 14  1  0
 14 15  1  0
 15 16  1  0
 17 11  1  0
 18 17  2  0
 19 17  1  0
M  END
$$$$
