AGK.pdb
     RDKit          3D

 19 18  0  0  1  0  0  0  0  0999 V2000
    8.9318  -12.2573   19.5276 C   0  0  0  0  0  0  0  0  0  0  0  0
    8.3482  -13.5538   19.0064 C   0  0  2  0  0  0  0  0  0  0  0  0
    6.9164  -13.4740   18.8417 N   0  0  0  0  0  0  0  0  0  0  0  0
    8.6560  -14.6452   19.9450 C   0  0  0  0  0  0  0  0  0  0  0  0
    9.8274  -15.0927   19.9858 O   0  0  0  0  0  0  0  0  0  0  0  0
    7.6804  -15.1944   20.7891 N   0  0  0  0  0  0  0  0  0  0  0  0
    8.0325  -16.2729   21.6703 C   0  0  0  0  0  0  0  0  0  0  0  0
    8.6817  -15.6851   22.8714 C   0  0  0  0  0  0  0  0  0  0  0  0
    9.7684  -15.0506   22.8006 O   0  0  0  0  0  0  0  0  0  0  0  0
    8.1248  -15.7971   24.1783 N   0  0  0  0  0  0  0  0  0  0  0  0
    8.8036  -15.2913   25.3586 C   0  0  1  0  0  0  0  0  0  0  0  0
    7.8841  -14.6604   26.3403 C   0  0  0  0  0  0  0  0  0  0  0  0
    7.2683  -13.3666   25.9703 C   0  0  0  0  0  0  0  0  0  0  0  0
    6.4132  -12.7105   27.0017 C   0  0  0  0  0  0  0  0  0  0  0  0
    5.8759  -11.3860   26.4273 C   0  0  0  0  0  0  0  0  0  0  0  0
    5.0815  -10.7522   27.4632 N   0  0  0  0  0  0  0  0  0  0  0  0
    9.6357  -16.3923   25.8922 C   0  0  0  0  0  0  0  0  0  0  0  0
    9.3649  -17.5825   25.6015 O   0  0  0  0  0  0  0  0  0  0  0  0
   10.7256  -16.1668   26.7195 O   0  0  0  0  0  0  0  0  0  0  0  0
  2  1  1  1
  3  2  1  0
  4  5  2  0
  4  2  1  0
  6  4  1  0
  7  6  1  0
  8  7  1  0
  9  8  2  0
 10  8  1  0
 11 12  1  1
 11 10  1  0
 12 13  1  0
 13 14  1  0
 14 15  1  0
 15 16  1  0
 17 11  1  0
 18 17  2  0
 19 17  1  0
M  END
$$$$
