AGK.pdb
     RDKit          3D

 19 18  0  0  1  0  0  0  0  0999 V2000
    7.6384  -18.5280   16.3106 C   0  0  0  0  0  0  0  0  0  0  0  0
    8.1914  -18.5671   17.7198 C   0  0  2  0  0  0  0  0  0  0  0  0
    7.2350  -19.0996   18.6607 N   0  0  0  0  0  0  0  0  0  0  0  0
    8.5623  -17.2065   18.1417 C   0  0  0  0  0  0  0  0  0  0  0  0
    9.6220  -16.7048   17.6951 O   0  0  0  0  0  0  0  0  0  0  0  0
    7.7673  -16.4612   19.0239 N   0  0  0  0  0  0  0  0  0  0  0  0
    8.0887  -15.0838   19.2752 C   0  0  0  0  0  0  0  0  0  0  0  0
    9.0994  -15.0442   20.3646 C   0  0  0  0  0  0  0  0  0  0  0  0
    9.5212  -13.9585   20.8458 O   0  0  0  0  0  0  0  0  0  0  0  0
    9.6584  -16.2233   20.9374 N   0  0  0  0  0  0  0  0  0  0  0  0
   10.5445  -16.1840   22.0876 C   0  0  1  0  0  0  0  0  0  0  0  0
   10.2470  -17.2349   23.0947 C   0  0  0  0  0  0  0  0  0  0  0  0
   11.2129  -17.4180   24.2008 C   0  0  0  0  0  0  0  0  0  0  0  0
   10.9950  -18.5921   25.0951 C   0  0  0  0  0  0  0  0  0  0  0  0
   12.0534  -18.5631   26.2140 C   0  0  0  0  0  0  0  0  0  0  0  0
   11.6734  -19.5587   27.1991 N   0  0  0  0  0  0  0  0  0  0  0  0
   11.9318  -16.1790   21.5732 C   0  0  0  0  0  0  0  0  0  0  0  0
   12.2249  -16.8426   20.5493 O   0  0  0  0  0  0  0  0  0  0  0  0
   12.9486  -15.4606   22.1839 O   0  0  0  0  0  0  0  0  0  0  0  0
  2  1  1  6
  3  2  1  0
  4  5  2  0
  4  2  1  0
  6  4  1  0
  7  6  1  0
  8  7  1  0
  9  8  2  0
 10  8  1  0
 11 12  1  1
 11 10  1  0
 12 13  1  0
 13 14  1  0
 14 15  1  0
 15 16  1  0
 17 11  1  0
 18 17  2  0
 19 17  1  0
M  END
$$$$
