AGK.pdb
     RDKit          3D

 19 18  0  0  1  0  0  0  0  0999 V2000
    7.1908  -12.5592   18.6024 C   0  0  0  0  0  0  0  0  0  0  0  0
    8.4770  -13.2922   18.9208 C   0  0  2  0  0  0  0  0  0  0  0  0
    8.8568  -14.2001   17.8648 N   0  0  0  0  0  0  0  0  0  0  0  0
    8.3120  -14.0587   20.1666 C   0  0  0  0  0  0  0  0  0  0  0  0
    8.0055  -13.4439   21.2164 O   0  0  0  0  0  0  0  0  0  0  0  0
    8.4874  -15.4491   20.2104 N   0  0  0  0  0  0  0  0  0  0  0  0
    8.2010  -16.1610   21.4249 C   0  0  0  0  0  0  0  0  0  0  0  0
    9.3792  -16.0238   22.3209 C   0  0  0  0  0  0  0  0  0  0  0  0
   10.3904  -15.3453   21.9961 O   0  0  0  0  0  0  0  0  0  0  0  0
    9.4476  -16.6458   23.6012 N   0  0  0  0  0  0  0  0  0  0  0  0
   10.3686  -16.2021   24.6329 C   0  0  1  0  0  0  0  0  0  0  0  0
    9.6906  -15.7958   25.8908 C   0  0  0  0  0  0  0  0  0  0  0  0
   10.5408  -15.3295   27.0087 C   0  0  0  0  0  0  0  0  0  0  0  0
    9.8453  -14.9839   28.2824 C   0  0  0  0  0  0  0  0  0  0  0  0
   10.9014  -14.5697   29.3245 C   0  0  0  0  0  0  0  0  0  0  0  0
   10.1926  -14.0803   30.4925 N   0  0  0  0  0  0  0  0  0  0  0  0
   11.3987  -17.2535   24.7837 C   0  0  0  0  0  0  0  0  0  0  0  0
   11.0717  -18.4643   24.7422 O   0  0  0  0  0  0  0  0  0  0  0  0
   12.7400  -16.9583   24.9753 O   0  0  0  0  0  0  0  0  0  0  0  0
  2  1  1  6
  3  2  1  0
  4  5  2  0
  4  2  1  0
  6  4  1  0
  7  6  1  0
  8  7  1  0
  9  8  2  0
 10  8  1  0
 11 12  1  1
 11 10  1  0
 12 13  1  0
 13 14  1  0
 14 15  1  0
 15 16  1  0
 17 11  1  0
 18 17  2  0
 19 17  1  0
M  END
$$$$
