AGK.pdb
     RDKit          3D

 19 18  0  0  1  0  0  0  0  0999 V2000
    8.5283  -12.7188   18.6455 C   0  0  0  0  0  0  0  0  0  0  0  0
    8.5875  -13.9799   19.4816 C   0  0  2  0  0  0  0  0  0  0  0  0
    7.5840  -14.9387   19.0848 N   0  0  0  0  0  0  0  0  0  0  0  0
    8.3832  -13.6412   20.8995 C   0  0  0  0  0  0  0  0  0  0  0  0
    9.2997  -13.0449   21.5148 O   0  0  0  0  0  0  0  0  0  0  0  0
    7.1988  -13.9656   21.5761 N   0  0  0  0  0  0  0  0  0  0  0  0
    7.0241  -13.5459   22.9388 C   0  0  0  0  0  0  0  0  0  0  0  0
    7.1508  -14.7478   23.8043 C   0  0  0  0  0  0  0  0  0  0  0  0
    6.8267  -14.7316   25.0221 O   0  0  0  0  0  0  0  0  0  0  0  0
    7.6443  -15.9943   23.3210 N   0  0  0  0  0  0  0  0  0  0  0  0
    7.6353  -17.2004   24.1302 C   0  0  1  0  0  0  0  0  0  0  0  0
    6.8119  -18.2919   23.5489 C   0  0  0  0  0  0  0  0  0  0  0  0
    5.5417  -17.9161   22.8891 C   0  0  0  0  0  0  0  0  0  0  0  0
    4.8344  -18.9901   22.1330 C   0  0  0  0  0  0  0  0  0  0  0  0
    3.4871  -18.4357   21.6325 C   0  0  0  0  0  0  0  0  0  0  0  0
    2.9204  -19.4188   20.7279 N   0  0  0  0  0  0  0  0  0  0  0  0
    9.0451  -17.5540   24.4073 C   0  0  0  0  0  0  0  0  0  0  0  0
    9.3168  -18.4298   25.2638 O   0  0  0  0  0  0  0  0  0  0  0  0
   10.1062  -16.9481   23.7515 O   0  0  0  0  0  0  0  0  0  0  0  0
  2  1  1  6
  3  2  1  0
  4  5  2  0
  4  2  1  0
  6  4  1  0
  7  6  1  0
  8  7  1  0
  9  8  2  0
 10  8  1  0
 11 12  1  6
 11 10  1  0
 12 13  1  0
 13 14  1  0
 14 15  1  0
 15 16  1  0
 17 11  1  0
 18 17  2  0
 19 17  1  0
M  END
$$$$
