AGK.pdb
     RDKit          3D

 19 18  0  0  1  0  0  0  0  0999 V2000
    7.5581  -17.0913   17.8972 C   0  0  0  0  0  0  0  0  0  0  0  0
    7.6627  -17.5487   19.3370 C   0  0  2  0  0  0  0  0  0  0  0  0
    6.5965  -18.4535   19.6951 N   0  0  0  0  0  0  0  0  0  0  0  0
    7.6109  -16.3800   20.2304 C   0  0  0  0  0  0  0  0  0  0  0  0
    8.5727  -15.5744   20.2254 O   0  0  0  0  0  0  0  0  0  0  0  0
    6.5218  -16.1451   21.0816 N   0  0  0  0  0  0  0  0  0  0  0  0
    6.5529  -15.0230   21.9781 C   0  0  0  0  0  0  0  0  0  0  0  0
    6.9914  -15.5172   23.3097 C   0  0  0  0  0  0  0  0  0  0  0  0
    6.2340  -15.4866   24.3165 O   0  0  0  0  0  0  0  0  0  0  0  0
    8.2902  -16.0566   23.5397 N   0  0  0  0  0  0  0  0  0  0  0  0
    8.7035  -16.5620   24.8372 C   0  0  1  0  0  0  0  0  0  0  0  0
    8.9623  -18.0250   24.8427 C   0  0  0  0  0  0  0  0  0  0  0  0
    7.8508  -18.9167   25.2418 C   0  0  0  0  0  0  0  0  0  0  0  0
    8.1103  -20.3843   25.1753 C   0  0  0  0  0  0  0  0  0  0  0  0
    6.8164  -21.1316   25.5502 C   0  0  0  0  0  0  0  0  0  0  0  0
    7.1048  -22.5530   25.5027 N   0  0  0  0  0  0  0  0  0  0  0  0
    9.8307  -15.7212   25.2973 C   0  0  0  0  0  0  0  0  0  0  0  0
   10.5660  -15.1431   24.4608 O   0  0  0  0  0  0  0  0  0  0  0  0
   10.1217  -15.5382   26.6407 O   0  0  0  0  0  0  0  0  0  0  0  0
  2  1  1  6
  3  2  1  0
  4  5  2  0
  4  2  1  0
  6  4  1  0
  7  6  1  0
  8  7  1  0
  9  8  2  0
 10  8  1  0
 11 12  1  6
 11 10  1  0
 12 13  1  0
 13 14  1  0
 14 15  1  0
 15 16  1  0
 17 11  1  0
 18 17  2  0
 19 17  1  0
M  END
$$$$
