AGK.pdb
     RDKit          3D

 19 18  0  0  1  0  0  0  0  0999 V2000
    7.6424  -19.7246   15.8290 C   0  0  0  0  0  0  0  0  0  0  0  0
    8.8655  -18.9427   16.2599 C   0  0  2  0  0  0  0  0  0  0  0  0
   10.0910  -19.6061   15.8834 N   0  0  0  0  0  0  0  0  0  0  0  0
    8.8509  -18.7709   17.7218 C   0  0  0  0  0  0  0  0  0  0  0  0
    7.9342  -18.0883   18.2393 O   0  0  0  0  0  0  0  0  0  0  0  0
    9.8284  -19.3465   18.5458 N   0  0  0  0  0  0  0  0  0  0  0  0
    9.6899  -19.2630   19.9732 C   0  0  0  0  0  0  0  0  0  0  0  0
   10.4788  -18.0922   20.4387 C   0  0  0  0  0  0  0  0  0  0  0  0
   11.3037  -17.5021   19.6906 O   0  0  0  0  0  0  0  0  0  0  0  0
   10.3585  -17.5587   21.7546 N   0  0  0  0  0  0  0  0  0  0  0  0
   10.8294  -16.2289   22.1004 C   0  0  1  0  0  0  0  0  0  0  0  0
    9.7671  -15.1926   22.0304 C   0  0  0  0  0  0  0  0  0  0  0  0
    9.3771  -14.6994   20.6908 C   0  0  0  0  0  0  0  0  0  0  0  0
    8.2533  -13.7196   20.6369 C   0  0  0  0  0  0  0  0  0  0  0  0
    8.0447  -13.2883   19.1728 C   0  0  0  0  0  0  0  0  0  0  0  0
    6.8458  -12.4720   19.1257 N   0  0  0  0  0  0  0  0  0  0  0  0
   11.5226  -16.3334   23.4034 C   0  0  0  0  0  0  0  0  0  0  0  0
   11.2059  -17.2383   24.2129 O   0  0  0  0  0  0  0  0  0  0  0  0
   12.5283  -15.4574   23.7829 O   0  0  0  0  0  0  0  0  0  0  0  0
  2  1  1  1
  3  2  1  0
  4  5  2  0
  4  2  1  0
  6  4  1  0
  7  6  1  0
  8  7  1  0
  9  8  2  0
 10  8  1  0
 11 12  1  1
 11 10  1  0
 12 13  1  0
 13 14  1  0
 14 15  1  0
 15 16  1  0
 17 11  1  0
 18 17  2  0
 19 17  1  0
M  END
$$$$
