AGK.pdb
     RDKit          3D

 19 18  0  0  1  0  0  0  0  0999 V2000
    6.7454  -19.5470   20.0059 C   0  0  0  0  0  0  0  0  0  0  0  0
    8.2135  -19.1818   20.0710 C   0  0  2  0  0  0  0  0  0  0  0  0
    8.8087  -19.5588   21.3308 N   0  0  0  0  0  0  0  0  0  0  0  0
    8.3685  -17.7291   19.8910 C   0  0  0  0  0  0  0  0  0  0  0  0
    7.9504  -17.2051   18.8304 O   0  0  0  0  0  0  0  0  0  0  0  0
    8.9673  -16.9206   20.8676 N   0  0  0  0  0  0  0  0  0  0  0  0
    8.9944  -15.4956   20.6879 C   0  0  0  0  0  0  0  0  0  0  0  0
    9.7009  -14.9038   21.8542 C   0  0  0  0  0  0  0  0  0  0  0  0
    9.9479  -13.6703   21.9304 O   0  0  0  0  0  0  0  0  0  0  0  0
   10.1455  -15.6844   22.9605 N   0  0  0  0  0  0  0  0  0  0  0  0
    9.7199  -15.4153   24.3228 C   0  0  1  0  0  0  0  0  0  0  0  0
    8.3543  -14.8365   24.4084 C   0  0  0  0  0  0  0  0  0  0  0  0
    8.1723  -13.6285   25.2436 C   0  0  0  0  0  0  0  0  0  0  0  0
    6.7676  -13.2157   25.5301 C   0  0  0  0  0  0  0  0  0  0  0  0
    6.7928  -12.0271   26.5098 C   0  0  0  0  0  0  0  0  0  0  0  0
    5.4161  -11.6579   26.7824 N   0  0  0  0  0  0  0  0  0  0  0  0
    9.9280  -16.6563   25.1012 C   0  0  0  0  0  0  0  0  0  0  0  0
    9.7690  -17.7748   24.5551 O   0  0  0  0  0  0  0  0  0  0  0  0
   10.2973  -16.6426   26.4377 O   0  0  0  0  0  0  0  0  0  0  0  0
  2  1  1  1
  3  2  1  0
  4  5  2  0
  4  2  1  0
  6  4  1  0
  7  6  1  0
  8  7  1  0
  9  8  2  0
 10  8  1  0
 11 12  1  6
 11 10  1  0
 12 13  1  0
 13 14  1  0
 14 15  1  0
 15 16  1  0
 17 11  1  0
 18 17  2  0
 19 17  1  0
M  END
$$$$
