AGK.pdb
     RDKit          3D

 19 18  0  0  1  0  0  0  0  0999 V2000
    7.6622  -13.1154   18.7151 C   0  0  0  0  0  0  0  0  0  0  0  0
    8.0602  -14.2187   19.6729 C   0  0  2  0  0  0  0  0  0  0  0  0
    7.1983  -15.3708   19.5578 N   0  0  0  0  0  0  0  0  0  0  0  0
    7.9974  -13.7175   21.0555 C   0  0  0  0  0  0  0  0  0  0  0  0
    8.8877  -12.9269   21.4511 O   0  0  0  0  0  0  0  0  0  0  0  0
    6.9752  -14.0982   21.9364 N   0  0  0  0  0  0  0  0  0  0  0  0
    6.9622  -13.5752   23.2743 C   0  0  0  0  0  0  0  0  0  0  0  0
    7.6075  -14.5789   24.1610 C   0  0  0  0  0  0  0  0  0  0  0  0
    7.6105  -14.4585   25.4155 O   0  0  0  0  0  0  0  0  0  0  0  0
    8.2635  -15.7396   23.6580 N   0  0  0  0  0  0  0  0  0  0  0  0
    8.8172  -16.7596   24.5314 C   0  0  1  0  0  0  0  0  0  0  0  0
    8.4760  -18.1427   24.1098 C   0  0  0  0  0  0  0  0  0  0  0  0
    7.0475  -18.4596   23.8885 C   0  0  0  0  0  0  0  0  0  0  0  0
    6.7312  -19.8381   23.4137 C   0  0  0  0  0  0  0  0  0  0  0  0
    5.2214  -19.9246   23.1205 C   0  0  0  0  0  0  0  0  0  0  0  0
    4.9550  -21.2506   22.5943 N   0  0  0  0  0  0  0  0  0  0  0  0
   10.2640  -16.4818   24.6689 C   0  0  0  0  0  0  0  0  0  0  0  0
   10.9037  -16.9478   25.6426 O   0  0  0  0  0  0  0  0  0  0  0  0
   10.9635  -15.7111   23.7525 O   0  0  0  0  0  0  0  0  0  0  0  0
  2  1  1  6
  3  2  1  0
  4  5  2  0
  4  2  1  0
  6  4  1  0
  7  6  1  0
  8  7  1  0
  9  8  2  0
 10  8  1  0
 11 12  1  6
 11 10  1  0
 12 13  1  0
 13 14  1  0
 14 15  1  0
 15 16  1  0
 17 11  1  0
 18 17  2  0
 19 17  1  0
M  END
$$$$
