LAV.pdb
     RDKit          3D

 21 20  0  0  1  0  0  0  0  0999 V2000
    9.3464  -13.3597   18.7469 C   0  0  0  0  0  0  0  0  0  0  0  0
    7.8708  -13.3603   18.9261 C   0  0  2  0  0  0  0  0  0  0  0  0
    7.3736  -11.9156   18.7540 C   0  0  0  0  0  0  0  0  0  0  0  0
    7.3080  -13.9917   20.1276 C   0  0  0  0  0  0  0  0  0  0  0  0
    7.7449  -15.3647   20.4881 C   0  0  2  0  0  0  0  0  0  0  0  0
    6.9288  -16.3086   19.6791 N   0  0  0  0  0  0  0  0  0  0  0  0
    7.7254  -15.7607   21.8871 C   0  0  0  0  0  0  0  0  0  0  0  0
    6.6691  -15.7329   22.5531 O   0  0  0  0  0  0  0  0  0  0  0  0
    9.7759  -17.7504   24.2898 C   0  0  0  0  0  0  0  0  0  0  0  0
    8.8848  -16.5659   23.9871 C   0  0  2  0  0  0  0  0  0  0  0  0
    8.8824  -16.2049   22.6048 N   0  0  0  0  0  0  0  0  0  0  0  0
    9.2760  -15.4132   24.8656 C   0  0  0  0  0  0  0  0  0  0  0  0
   10.2289  -14.6573   24.5502 O   0  0  0  0  0  0  0  0  0  0  0  0
    7.2796  -12.5097   25.8521 C   0  0  0  0  0  0  0  0  0  0  0  0
    7.7976  -13.1035   27.1188 C   0  0  1  0  0  0  0  0  0  0  0  0
    6.6801  -13.8731   27.7863 C   0  0  0  0  0  0  0  0  0  0  0  0
    8.9846  -14.0152   26.8929 C   0  0  2  0  0  0  0  0  0  0  0  0
    8.5877  -15.1310   26.0847 N   0  0  0  0  0  0  0  0  0  0  0  0
    9.5509  -14.4472   28.1993 C   0  0  0  0  0  0  0  0  0  0  0  0
   10.2580  -13.5459   29.0170 O   0  0  0  0  0  0  0  0  0  0  0  0
    9.4197  -15.6223   28.6161 O   0  0  0  0  0  0  0  0  0  0  0  0
  2  1  1  1
  3  2  1  0
  4  2  1  0
  5  4  1  0
  5  7  1  0
  5  6  1  6
  7  8  2  0
  7 11  1  0
 10  9  1  6
 10 12  1  0
 11 10  1  0
 12 18  1  0
 12 13  2  0
 15 17  1  0
 15 14  1  6
 16 15  1  0
 17 19  1  0
 17 18  1  1
 19 20  1  0
 21 19  2  0
M  END
$$$$
