LAV.pdb
     RDKit          3D

 21 20  0  0  1  0  0  0  0  0999 V2000
    6.1842  -11.7554   25.2321 C   0  0  0  0  0  0  0  0  0  0  0  0
    7.0098  -12.5982   24.3279 C   0  0  2  0  0  0  0  0  0  0  0  0
    7.9563  -11.6692   23.5499 C   0  0  0  0  0  0  0  0  0  0  0  0
    6.3309  -13.5529   23.4408 C   0  0  0  0  0  0  0  0  0  0  0  0
    7.1195  -14.6577   22.8379 C   0  0  2  0  0  0  0  0  0  0  0  0
    6.2154  -15.3796   21.9037 N   0  0  0  0  0  0  0  0  0  0  0  0
    7.7856  -15.6038   23.7187 C   0  0  0  0  0  0  0  0  0  0  0  0
    7.1619  -16.1925   24.6267 O   0  0  0  0  0  0  0  0  0  0  0  0
   10.7195  -17.8430   23.5763 C   0  0  0  0  0  0  0  0  0  0  0  0
    9.8164  -16.9509   24.3993 C   0  0  2  0  0  0  0  0  0  0  0  0
    9.1758  -15.9349   23.6257 N   0  0  0  0  0  0  0  0  0  0  0  0
   10.5982  -16.3734   25.5434 C   0  0  0  0  0  0  0  0  0  0  0  0
   11.5174  -15.5412   25.3404 O   0  0  0  0  0  0  0  0  0  0  0  0
    9.9562  -14.0843   28.0230 C   0  0  0  0  0  0  0  0  0  0  0  0
   10.4177  -15.2702   28.8018 C   0  0  1  0  0  0  0  0  0  0  0  0
    9.2133  -15.9405   29.4237 C   0  0  0  0  0  0  0  0  0  0  0  0
   11.1774  -16.2662   27.9522 C   0  0  2  0  0  0  0  0  0  0  0  0
   10.3318  -16.7428   26.8969 N   0  0  0  0  0  0  0  0  0  0  0  0
   11.6871  -17.3762   28.8019 C   0  0  0  0  0  0  0  0  0  0  0  0
   12.7659  -17.1781   29.6839 O   0  0  0  0  0  0  0  0  0  0  0  0
   11.1772  -18.5209   28.7632 O   0  0  0  0  0  0  0  0  0  0  0  0
  2  1  1  6
  3  2  1  0
  4  2  1  0
  5  4  1  0
  5  7  1  0
  5  6  1  6
  7  8  2  0
  7 11  1  0
 10  9  1  6
 10 12  1  0
 11 10  1  0
 12 18  1  0
 12 13  2  0
 15 17  1  0
 15 14  1  6
 16 15  1  0
 17 19  1  0
 17 18  1  6
 19 20  1  0
 21 19  2  0
M  END
$$$$
