LAV.pdb
     RDKit          3D

 21 20  0  0  1  0  0  0  0  0999 V2000
    9.3456  -13.8222   18.4193 C   0  0  0  0  0  0  0  0  0  0  0  0
    7.9317  -13.7033   18.8621 C   0  0  2  0  0  0  0  0  0  0  0  0
    7.4662  -12.2662   18.5751 C   0  0  0  0  0  0  0  0  0  0  0  0
    7.5827  -14.1282   20.2248 C   0  0  0  0  0  0  0  0  0  0  0  0
    7.9476  -15.4992   20.6643 C   0  0  2  0  0  0  0  0  0  0  0  0
    7.0971  -16.4450   19.8938 N   0  0  0  0  0  0  0  0  0  0  0  0
    7.8906  -15.8181   22.0819 C   0  0  0  0  0  0  0  0  0  0  0  0
    6.8268  -15.7101   22.7274 O   0  0  0  0  0  0  0  0  0  0  0  0
    9.7420  -17.9217   24.5079 C   0  0  0  0  0  0  0  0  0  0  0  0
    8.9593  -16.6606   24.2150 C   0  0  2  0  0  0  0  0  0  0  0  0
    9.0168  -16.2713   22.8416 N   0  0  0  0  0  0  0  0  0  0  0  0
    9.4260  -15.5636   25.1275 C   0  0  0  0  0  0  0  0  0  0  0  0
   10.5162  -14.9741   24.9208 O   0  0  0  0  0  0  0  0  0  0  0  0
    7.9065  -12.3077   26.1344 C   0  0  0  0  0  0  0  0  0  0  0  0
    8.1858  -13.0725   27.3845 C   0  0  1  0  0  0  0  0  0  0  0  0
    6.8862  -13.6462   27.9026 C   0  0  0  0  0  0  0  0  0  0  0  0
    9.1904  -14.1852   27.1753 C   0  0  2  0  0  0  0  0  0  0  0  0
    8.6572  -15.1490   26.2573 N   0  0  0  0  0  0  0  0  0  0  0  0
    9.5492  -14.7998   28.4820 C   0  0  0  0  0  0  0  0  0  0  0  0
   10.3467  -14.1092   29.4138 O   0  0  0  0  0  0  0  0  0  0  0  0
    9.1566  -15.9477   28.7983 O   0  0  0  0  0  0  0  0  0  0  0  0
  2  1  1  1
  3  2  1  0
  4  2  1  0
  5  4  1  0
  5  7  1  0
  5  6  1  6
  7  8  2  0
  7 11  1  0
 10  9  1  6
 10 12  1  0
 11 10  1  0
 12 18  1  0
 12 13  2  0
 15 17  1  0
 15 14  1  6
 16 15  1  0
 17 19  1  0
 17 18  1  6
 19 20  1  0
 21 19  2  0
M  END
$$$$
