LAV.pdb
     RDKit          3D

 21 20  0  0  1  0  0  0  0  0999 V2000
    9.4988  -13.5344   19.3180 C   0  0  0  0  0  0  0  0  0  0  0  0
    8.0286  -13.6042   19.1107 C   0  0  2  0  0  0  0  0  0  0  0  0
    7.5164  -12.1736   18.8759 C   0  0  0  0  0  0  0  0  0  0  0  0
    7.2116  -14.3211   20.0996 C   0  0  0  0  0  0  0  0  0  0  0  0
    7.6914  -15.6293   20.6136 C   0  0  2  0  0  0  0  0  0  0  0  0
    7.0099  -16.6862   19.8199 N   0  0  0  0  0  0  0  0  0  0  0  0
    7.5645  -15.9122   22.0343 C   0  0  0  0  0  0  0  0  0  0  0  0
    6.4864  -15.7275   22.6373 O   0  0  0  0  0  0  0  0  0  0  0  0
    9.0224  -18.1076   24.5780 C   0  0  0  0  0  0  0  0  0  0  0  0
    8.5152  -16.7245   24.2340 C   0  0  2  0  0  0  0  0  0  0  0  0
    8.6336  -16.4133   22.8446 N   0  0  0  0  0  0  0  0  0  0  0  0
    9.2123  -15.7117   25.0955 C   0  0  0  0  0  0  0  0  0  0  0  0
   10.3838  -15.3406   24.8337 O   0  0  0  0  0  0  0  0  0  0  0  0
    8.3163  -12.1966   25.9368 C   0  0  0  0  0  0  0  0  0  0  0  0
    8.4818  -12.9370   27.2214 C   0  0  1  0  0  0  0  0  0  0  0  0
    7.1122  -13.2698   27.7693 C   0  0  0  0  0  0  0  0  0  0  0  0
    9.2930  -14.2050   27.0634 C   0  0  2  0  0  0  0  0  0  0  0  0
    8.5784  -15.1340   26.2374 N   0  0  0  0  0  0  0  0  0  0  0  0
    9.6094  -14.7772   28.4000 C   0  0  0  0  0  0  0  0  0  0  0  0
   10.5393  -14.1549   29.2538 O   0  0  0  0  0  0  0  0  0  0  0  0
    9.0625  -15.8277   28.8114 O   0  0  0  0  0  0  0  0  0  0  0  0
  2  1  1  1
  3  2  1  0
  4  2  1  0
  5  4  1  0
  5  7  1  0
  5  6  1  6
  7  8  2  0
  7 11  1  0
 10  9  1  6
 10 12  1  0
 11 10  1  0
 12 18  1  0
 12 13  2  0
 15 17  1  0
 15 14  1  6
 16 15  1  0
 17 19  1  0
 17 18  1  6
 19 20  1  0
 21 19  2  0
M  END
$$$$
