LAV.pdb
     RDKit          3D

 21 20  0  0  1  0  0  0  0  0999 V2000
    9.7894  -13.5735   19.0290 C   0  0  0  0  0  0  0  0  0  0  0  0
    8.3578  -13.7159   18.6553 C   0  0  2  0  0  0  0  0  0  0  0  0
    7.8329  -12.3264   18.2584 C   0  0  0  0  0  0  0  0  0  0  0  0
    7.4506  -14.3956   19.5902 C   0  0  0  0  0  0  0  0  0  0  0  0
    7.9421  -15.5871   20.3285 C   0  0  2  0  0  0  0  0  0  0  0  0
    7.5778  -16.7814   19.5208 N   0  0  0  0  0  0  0  0  0  0  0  0
    7.5288  -15.7739   21.7100 C   0  0  0  0  0  0  0  0  0  0  0  0
    6.4931  -15.2355   22.1544 O   0  0  0  0  0  0  0  0  0  0  0  0
    8.2524  -18.1486   24.5356 C   0  0  0  0  0  0  0  0  0  0  0  0
    7.8371  -16.7942   24.0049 C   0  0  2  0  0  0  0  0  0  0  0  0
    8.2520  -16.5690   22.6564 N   0  0  0  0  0  0  0  0  0  0  0  0
    8.3380  -15.7236   24.9305 C   0  0  0  0  0  0  0  0  0  0  0  0
    9.5330  -15.3385   24.8830 O   0  0  0  0  0  0  0  0  0  0  0  0
    7.3387  -12.1029   28.1319 C   0  0  0  0  0  0  0  0  0  0  0  0
    6.8688  -13.2128   27.2527 C   0  0  1  0  0  0  0  0  0  0  0  0
    6.1375  -12.6184   26.0701 C   0  0  0  0  0  0  0  0  0  0  0  0
    8.0016  -14.0912   26.7666 C   0  0  2  0  0  0  0  0  0  0  0  0
    7.4847  -15.1047   25.8939 N   0  0  0  0  0  0  0  0  0  0  0  0
    8.7288  -14.6733   27.9269 C   0  0  0  0  0  0  0  0  0  0  0  0
    9.7754  -13.9711   28.5535 O   0  0  0  0  0  0  0  0  0  0  0  0
    8.4373  -15.8031   28.3856 O   0  0  0  0  0  0  0  0  0  0  0  0
  2  1  1  1
  3  2  1  0
  4  2  1  0
  5  4  1  0
  5  7  1  0
  5  6  1  6
  7  8  2  0
  7 11  1  0
 10  9  1  1
 10 12  1  0
 11 10  1  0
 12 18  1  0
 12 13  2  0
 15 17  1  0
 15 14  1  1
 16 15  1  0
 17 19  1  0
 17 18  1  6
 19 20  1  0
 21 19  2  0
M  END
$$$$
