LAV.pdb
     RDKit          3D

 21 20  0  0  1  0  0  0  0  0999 V2000
    7.5221  -12.2803   19.8806 C   0  0  0  0  0  0  0  0  0  0  0  0
    8.2105  -13.5907   20.0160 C   0  0  2  0  0  0  0  0  0  0  0  0
    9.6649  -13.4104   19.5508 C   0  0  0  0  0  0  0  0  0  0  0  0
    7.5882  -14.7781   19.4144 C   0  0  0  0  0  0  0  0  0  0  0  0
    7.8391  -16.1077   20.0268 C   0  0  2  0  0  0  0  0  0  0  0  0
    7.0723  -17.1049   19.2337 N   0  0  0  0  0  0  0  0  0  0  0  0
    7.5727  -16.2866   21.4450 C   0  0  0  0  0  0  0  0  0  0  0  0
    6.4242  -16.1346   21.9121 O   0  0  0  0  0  0  0  0  0  0  0  0
    8.9434  -18.1485   24.3076 C   0  0  0  0  0  0  0  0  0  0  0  0
    8.3184  -16.8713   23.7912 C   0  0  2  0  0  0  0  0  0  0  0  0
    8.5746  -16.6425   22.4044 N   0  0  0  0  0  0  0  0  0  0  0  0
    8.7697  -15.7190   24.6410 C   0  0  0  0  0  0  0  0  0  0  0  0
    9.8836  -15.1718   24.4453 O   0  0  0  0  0  0  0  0  0  0  0  0
    7.5568  -11.9725   27.5534 C   0  0  0  0  0  0  0  0  0  0  0  0
    7.1832  -13.2220   26.8290 C   0  0  1  0  0  0  0  0  0  0  0  0
    6.3912  -12.8494   25.5959 C   0  0  0  0  0  0  0  0  0  0  0  0
    8.3874  -14.0498   26.4345 C   0  0  2  0  0  0  0  0  0  0  0  0
    7.9589  -15.2023   25.6970 N   0  0  0  0  0  0  0  0  0  0  0  0
    9.1683  -14.4220   27.6452 C   0  0  0  0  0  0  0  0  0  0  0  0
   10.1117  -13.5372   28.2003 O   0  0  0  0  0  0  0  0  0  0  0  0
    9.0151  -15.5303   28.2110 O   0  0  0  0  0  0  0  0  0  0  0  0
  2  1  1  6
  3  2  1  0
  4  2  1  0
  5  4  1  0
  5  7  1  0
  5  6  1  6
  7  8  2  0
  7 11  1  0
 10  9  1  1
 10 12  1  0
 11 10  1  0
 12 18  1  0
 12 13  2  0
 15 17  1  0
 15 14  1  6
 16 15  1  0
 17 19  1  0
 17 18  1  1
 19 20  1  0
 21 19  2  0
M  END
$$$$
