LAV.pdb
     RDKit          3D

 21 20  0  0  1  0  0  0  0  0999 V2000
    8.7191  -12.1921   19.3821 C   0  0  0  0  0  0  0  0  0  0  0  0
    8.2863  -13.5296   18.8992 C   0  0  2  0  0  0  0  0  0  0  0  0
    7.8359  -13.3806   17.4367 C   0  0  0  0  0  0  0  0  0  0  0  0
    7.3097  -14.2838   19.6970 C   0  0  0  0  0  0  0  0  0  0  0  0
    7.7112  -15.5929   20.2724 C   0  0  2  0  0  0  0  0  0  0  0  0
    6.9261  -16.6392   19.5651 N   0  0  0  0  0  0  0  0  0  0  0  0
    7.6157  -15.7841   21.7106 C   0  0  0  0  0  0  0  0  0  0  0  0
    6.5172  -15.7161   22.3012 O   0  0  0  0  0  0  0  0  0  0  0  0
    9.5178  -17.5701   24.3254 C   0  0  0  0  0  0  0  0  0  0  0  0
    8.6471  -16.3948   23.9390 C   0  0  2  0  0  0  0  0  0  0  0  0
    8.7404  -16.0595   22.5533 N   0  0  0  0  0  0  0  0  0  0  0  0
    8.9733  -15.2245   24.8209 C   0  0  0  0  0  0  0  0  0  0  0  0
   10.0218  -14.5556   24.6420 O   0  0  0  0  0  0  0  0  0  0  0  0
    6.9299  -12.1468   25.8153 C   0  0  0  0  0  0  0  0  0  0  0  0
    7.3753  -12.8507   27.0530 C   0  0  1  0  0  0  0  0  0  0  0  0
    6.2009  -13.6097   27.6286 C   0  0  0  0  0  0  0  0  0  0  0  0
    8.5264  -13.8007   26.8014 C   0  0  2  0  0  0  0  0  0  0  0  0
    8.1132  -14.8271   25.8895 N   0  0  0  0  0  0  0  0  0  0  0  0
    9.0133  -14.3635   28.0899 C   0  0  0  0  0  0  0  0  0  0  0  0
    8.8993  -15.7381   28.3702 O   0  0  0  0  0  0  0  0  0  0  0  0
    9.5393  -13.6383   28.9669 O   0  0  0  0  0  0  0  0  0  0  0  0
  2  1  1  1
  3  2  1  0
  4  2  1  0
  5  4  1  0
  5  7  1  0
  5  6  1  6
  7  8  2  0
  7 11  1  0
 10  9  1  6
 10 12  1  0
 11 10  1  0
 12 18  1  0
 12 13  2  0
 15 17  1  0
 15 14  1  6
 16 15  1  0
 17 19  1  0
 17 18  1  6
 19 20  1  0
 21 19  2  0
M  END
$$$$
