LAV.pdb
     RDKit          3D

 21 20  0  0  1  0  0  0  0  0999 V2000
    7.6991  -12.0198   19.3359 C   0  0  0  0  0  0  0  0  0  0  0  0
    8.3458  -13.2781   19.7921 C   0  0  2  0  0  0  0  0  0  0  0  0
    9.8665  -13.0516   19.7995 C   0  0  0  0  0  0  0  0  0  0  0  0
    7.9845  -14.5368   19.1256 C   0  0  0  0  0  0  0  0  0  0  0  0
    8.3030  -15.8220   19.7984 C   0  0  2  0  0  0  0  0  0  0  0  0
    7.8423  -16.9118   18.8976 N   0  0  0  0  0  0  0  0  0  0  0  0
    7.8088  -16.0471   21.1473 C   0  0  0  0  0  0  0  0  0  0  0  0
    6.5857  -16.0299   21.3998 O   0  0  0  0  0  0  0  0  0  0  0  0
    8.5153  -17.8500   24.1727 C   0  0  0  0  0  0  0  0  0  0  0  0
    8.1877  -16.4842   23.6106 C   0  0  2  0  0  0  0  0  0  0  0  0
    8.6563  -16.3010   22.2734 N   0  0  0  0  0  0  0  0  0  0  0  0
    8.7136  -15.4269   24.5375 C   0  0  0  0  0  0  0  0  0  0  0  0
    9.9278  -15.1040   24.5235 O   0  0  0  0  0  0  0  0  0  0  0  0
    7.1028  -11.8878   25.2552 C   0  0  0  0  0  0  0  0  0  0  0  0
    7.3791  -12.6375   26.5151 C   0  0  1  0  0  0  0  0  0  0  0  0
    6.0818  -13.2235   27.0253 C   0  0  0  0  0  0  0  0  0  0  0  0
    8.4003  -13.7386   26.3266 C   0  0  2  0  0  0  0  0  0  0  0  0
    7.8633  -14.7508   25.4645 N   0  0  0  0  0  0  0  0  0  0  0  0
    8.8049  -14.2899   27.6481 C   0  0  0  0  0  0  0  0  0  0  0  0
    9.6331  -13.5555   28.5176 O   0  0  0  0  0  0  0  0  0  0  0  0
    8.4251  -15.4212   28.0325 O   0  0  0  0  0  0  0  0  0  0  0  0
  2  1  1  6
  3  2  1  0
  4  2  1  0
  5  4  1  0
  5  7  1  0
  5  6  1  6
  7  8  2  0
  7 11  1  0
 10  9  1  1
 10 12  1  0
 11 10  1  0
 12 18  1  0
 12 13  2  0
 15 17  1  0
 15 14  1  6
 16 15  1  0
 17 19  1  0
 17 18  1  6
 19 20  1  0
 21 19  2  0
M  END
$$$$
