LAV.pdb
     RDKit          3D

 21 20  0  0  1  0  0  0  0  0999 V2000
    9.4370  -13.8426   19.8719 C   0  0  0  0  0  0  0  0  0  0  0  0
    8.1906  -13.8525   19.0622 C   0  0  2  0  0  0  0  0  0  0  0  0
    7.7566  -12.3935   18.8455 C   0  0  0  0  0  0  0  0  0  0  0  0
    7.0708  -14.6952   19.5042 C   0  0  0  0  0  0  0  0  0  0  0  0
    7.3614  -15.9143   20.3013 C   0  0  2  0  0  0  0  0  0  0  0  0
    6.7480  -17.0621   19.5819 N   0  0  0  0  0  0  0  0  0  0  0  0
    6.9776  -15.9415   21.7035 C   0  0  0  0  0  0  0  0  0  0  0  0
    5.8540  -15.5420   22.0750 O   0  0  0  0  0  0  0  0  0  0  0  0
    7.6649  -17.8420   24.7436 C   0  0  0  0  0  0  0  0  0  0  0  0
    7.4555  -16.4750   24.1303 C   0  0  2  0  0  0  0  0  0  0  0  0
    7.8294  -16.4151   22.7528 N   0  0  0  0  0  0  0  0  0  0  0  0
    8.1781  -15.4467   24.9514 C   0  0  0  0  0  0  0  0  0  0  0  0
    9.4030  -15.2279   24.7769 O   0  0  0  0  0  0  0  0  0  0  0  0
    7.0803  -11.7600   25.6565 C   0  0  0  0  0  0  0  0  0  0  0  0
    7.3709  -12.4827   26.9289 C   0  0  1  0  0  0  0  0  0  0  0  0
    6.0608  -12.8813   27.5704 C   0  0  0  0  0  0  0  0  0  0  0  0
    8.2334  -13.7088   26.7194 C   0  0  2  0  0  0  0  0  0  0  0  0
    7.5092  -14.6820   25.9550 N   0  0  0  0  0  0  0  0  0  0  0  0
    8.6772  -14.2498   28.0325 C   0  0  0  0  0  0  0  0  0  0  0  0
    9.6570  -13.5878   28.7960 O   0  0  0  0  0  0  0  0  0  0  0  0
    8.1976  -15.3081   28.5033 O   0  0  0  0  0  0  0  0  0  0  0  0
  2  1  1  1
  3  2  1  0
  4  2  1  0
  5  4  1  0
  5  7  1  0
  5  6  1  6
  7  8  2  0
  7 11  1  0
 10  9  1  1
 10 12  1  0
 11 10  1  0
 12 18  1  0
 12 13  2  0
 15 17  1  0
 15 14  1  6
 16 15  1  0
 17 19  1  0
 17 18  1  1
 19 20  1  0
 21 19  2  0
M  END
$$$$
