LAV.pdb
     RDKit          3D

 21 20  0  0  1  0  0  0  0  0999 V2000
    7.6356  -12.6597   25.1733 C   0  0  0  0  0  0  0  0  0  0  0  0
    6.3955  -13.3551   25.6070 C   0  0  2  0  0  0  0  0  0  0  0  0
    5.8768  -12.6509   26.8715 C   0  0  0  0  0  0  0  0  0  0  0  0
    6.4275  -14.8152   25.7695 C   0  0  0  0  0  0  0  0  0  0  0  0
    6.8230  -15.6574   24.6118 C   0  0  2  0  0  0  0  0  0  0  0  0
    5.7723  -16.6972   24.4497 N   0  0  0  0  0  0  0  0  0  0  0  0
    8.1398  -16.2743   24.6126 C   0  0  0  0  0  0  0  0  0  0  0  0
    8.3889  -17.2672   25.3283 O   0  0  0  0  0  0  0  0  0  0  0  0
   11.4083  -15.8905   22.6750 C   0  0  0  0  0  0  0  0  0  0  0  0
   10.5221  -16.4324   23.7749 C   0  0  2  0  0  0  0  0  0  0  0  0
    9.2360  -15.8115   23.8159 N   0  0  0  0  0  0  0  0  0  0  0  0
   11.2388  -16.3219   25.0894 C   0  0  0  0  0  0  0  0  0  0  0  0
   12.3999  -16.7808   25.2305 O   0  0  0  0  0  0  0  0  0  0  0  0
   11.1557  -13.1758   27.4158 C   0  0  0  0  0  0  0  0  0  0  0  0
   10.9605  -14.4086   28.2330 C   0  0  1  0  0  0  0  0  0  0  0  0
    9.5159  -14.4735   28.6752 C   0  0  0  0  0  0  0  0  0  0  0  0
   11.3239  -15.6706   27.4806 C   0  0  2  0  0  0  0  0  0  0  0  0
   10.6359  -15.6964   26.2229 N   0  0  0  0  0  0  0  0  0  0  0  0
   11.0124  -16.8659   28.3103 C   0  0  0  0  0  0  0  0  0  0  0  0
   11.7331  -17.1390   29.4881 O   0  0  0  0  0  0  0  0  0  0  0  0
   10.1026  -17.6677   27.9924 O   0  0  0  0  0  0  0  0  0  0  0  0
  2  1  1  1
  3  2  1  0
  4  2  1  0
  5  4  1  0
  5  7  1  0
  5  6  1  1
  7  8  2  0
  7 11  1  0
 10  9  1  6
 10 12  1  0
 11 10  1  0
 12 18  1  0
 12 13  2  0
 15 17  1  0
 15 14  1  6
 16 15  1  0
 17 19  1  0
 17 18  1  6
 19 20  1  0
 21 19  2  0
M  END
$$$$
