LAV.pdb
     RDKit          3D

 21 20  0  0  1  0  0  0  0  0999 V2000
    9.6577  -13.2582   19.1275 C   0  0  0  0  0  0  0  0  0  0  0  0
    8.2077  -13.4317   19.4043 C   0  0  2  0  0  0  0  0  0  0  0  0
    7.5490  -12.0431   19.3604 C   0  0  0  0  0  0  0  0  0  0  0  0
    7.8046  -14.1896   20.5969 C   0  0  0  0  0  0  0  0  0  0  0  0
    8.3207  -15.5705   20.7778 C   0  0  2  0  0  0  0  0  0  0  0  0
    7.4981  -16.4600   19.9155 N   0  0  0  0  0  0  0  0  0  0  0  0
    8.4030  -16.1163   22.1230 C   0  0  0  0  0  0  0  0  0  0  0  0
    7.4002  -16.1597   22.8664 O   0  0  0  0  0  0  0  0  0  0  0  0
   10.4990  -18.5157   24.0028 C   0  0  0  0  0  0  0  0  0  0  0  0
    9.6876  -17.2389   23.9916 C   0  0  2  0  0  0  0  0  0  0  0  0
    9.6064  -16.6374   22.6983 N   0  0  0  0  0  0  0  0  0  0  0  0
   10.2403  -16.2907   25.0159 C   0  0  0  0  0  0  0  0  0  0  0  0
   11.3388  -15.7098   24.8295 O   0  0  0  0  0  0  0  0  0  0  0  0
    9.8893  -13.3195   28.8161 C   0  0  0  0  0  0  0  0  0  0  0  0
    9.2841  -14.1421   27.7286 C   0  0  1  0  0  0  0  0  0  0  0  0
    8.9605  -13.2386   26.5600 C   0  0  0  0  0  0  0  0  0  0  0  0
   10.1911  -15.2650   27.2731 C   0  0  2  0  0  0  0  0  0  0  0  0
    9.5467  -16.0125   26.2329 N   0  0  0  0  0  0  0  0  0  0  0  0
   10.5585  -16.1245   28.4308 C   0  0  0  0  0  0  0  0  0  0  0  0
    9.9462  -17.3764   28.6280 O   0  0  0  0  0  0  0  0  0  0  0  0
   11.4212  -15.7668   29.2672 O   0  0  0  0  0  0  0  0  0  0  0  0
  2  1  1  1
  3  2  1  0
  4  2  1  0
  5  4  1  0
  5  7  1  0
  5  6  1  6
  7  8  2  0
  7 11  1  0
 10  9  1  6
 10 12  1  0
 11 10  1  0
 12 18  1  0
 12 13  2  0
 15 17  1  0
 15 14  1  1
 16 15  1  0
 17 19  1  0
 17 18  1  6
 19 20  1  0
 21 19  2  0
M  END
$$$$
