LAV.pdb
     RDKit          3D

 21 20  0  0  1  0  0  0  0  0999 V2000
    5.5687  -13.1369   26.7313 C   0  0  0  0  0  0  0  0  0  0  0  0
    6.7862  -13.1482   25.8787 C   0  0  2  0  0  0  0  0  0  0  0  0
    7.2948  -11.7018   25.7627 C   0  0  0  0  0  0  0  0  0  0  0  0
    6.7221  -13.8110   24.5688 C   0  0  0  0  0  0  0  0  0  0  0  0
    6.7335  -15.2952   24.5145 C   0  0  2  0  0  0  0  0  0  0  0  0
    5.8040  -15.7774   25.5703 N   0  0  0  0  0  0  0  0  0  0  0  0
    8.0072  -15.9894   24.6159 C   0  0  0  0  0  0  0  0  0  0  0  0
    8.1803  -16.9064   25.4461 O   0  0  0  0  0  0  0  0  0  0  0  0
   11.3129  -16.0297   22.6987 C   0  0  0  0  0  0  0  0  0  0  0  0
   10.3557  -16.4476   23.7932 C   0  0  2  0  0  0  0  0  0  0  0  0
    9.1433  -15.6918   23.7964 N   0  0  0  0  0  0  0  0  0  0  0  0
   11.0584  -16.3834   25.1183 C   0  0  0  0  0  0  0  0  0  0  0  0
   12.2099  -16.8657   25.2607 O   0  0  0  0  0  0  0  0  0  0  0  0
   10.6515  -13.2952   27.6076 C   0  0  0  0  0  0  0  0  0  0  0  0
   10.6416  -14.5900   28.3485 C   0  0  1  0  0  0  0  0  0  0  0  0
    9.2295  -14.8747   28.8087 C   0  0  0  0  0  0  0  0  0  0  0  0
   11.1511  -15.7443   27.5124 C   0  0  2  0  0  0  0  0  0  0  0  0
   10.4526  -15.7774   26.2607 N   0  0  0  0  0  0  0  0  0  0  0  0
   11.0074  -17.0202   28.2643 C   0  0  0  0  0  0  0  0  0  0  0  0
   10.1222  -18.0236   27.8277 O   0  0  0  0  0  0  0  0  0  0  0  0
   11.6655  -17.2463   29.3072 O   0  0  0  0  0  0  0  0  0  0  0  0
  2  1  1  6
  3  2  1  0
  4  2  1  0
  5  4  1  0
  5  7  1  0
  5  6  1  1
  7  8  2  0
  7 11  1  0
 10  9  1  6
 10 12  1  0
 11 10  1  0
 12 18  1  0
 12 13  2  0
 15 17  1  0
 15 14  1  6
 16 15  1  0
 17 19  1  0
 17 18  1  6
 19 20  1  0
 21 19  2  0
M  END
$$$$
