PEQ.pdb
     RDKit          3D

 26 26  0  0  1  0  0  0  0  0999 V2000
    8.8644  -13.6557   18.6508 N   0  0  0  0  0  0  0  0  0  0  0  0
    7.8073  -13.6664   17.6831 C   0  0  0  0  0  0  0  0  0  0  0  0
    6.6208  -13.1475   18.4374 C   0  0  0  0  0  0  0  0  0  0  0  0
    6.7896  -13.8498   19.7872 C   0  0  0  0  0  0  0  0  0  0  0  0
    8.2850  -13.7880   19.9605 C   0  0  1  0  0  0  0  0  0  0  0  0
    8.8280  -14.9879   20.6550 C   0  0  0  0  0  0  0  0  0  0  0  0
    8.3051  -15.4931   21.6680 O   0  0  0  0  0  0  0  0  0  0  0  0
   10.0027  -15.6009   20.1492 N   0  0  0  0  0  0  0  0  0  0  0  0
   10.5124  -16.8446   20.7200 C   0  0  1  0  0  0  0  0  0  0  0  0
   11.4059  -17.5556   19.7431 C   0  0  0  0  0  0  0  0  0  0  0  0
   11.9175  -18.8691   20.2132 C   0  0  0  0  0  0  0  0  0  0  0  0
   12.7612  -19.4619   19.1384 C   0  0  0  0  0  0  0  0  0  0  0  0
   12.2998  -19.6582   17.9928 O   0  0  0  0  0  0  0  0  0  0  0  0
   11.1262  -16.5419   22.0154 C   0  0  0  0  0  0  0  0  0  0  0  0
   11.7868  -15.4855   22.2464 O   0  0  0  0  0  0  0  0  0  0  0  0
   14.1016  -19.8149   19.3918 O   0  0  0  0  0  0  0  0  0  0  0  0
    9.5642  -19.2824   27.6059 N   0  0  0  0  0  0  0  0  0  0  0  0
   10.5964  -18.3699   27.9390 C   0  0  0  0  0  0  0  0  0  0  0  0
   10.8758  -18.2626   29.1825 O   0  0  0  0  0  0  0  0  0  0  0  0
   11.2856  -17.6151   26.8808 C   0  0  0  0  0  0  0  0  0  0  0  0
   10.8286  -17.8330   25.4917 C   0  0  0  0  0  0  0  0  0  0  0  0
   11.5668  -17.0924   24.4567 C   0  0  2  0  0  0  0  0  0  0  0  0
   11.0163  -17.4334   23.1161 N   0  0  0  0  0  0  0  0  0  0  0  0
   12.9949  -17.2556   24.4012 C   0  0  0  0  0  0  0  0  0  0  0  0
   13.5080  -18.1981   23.7168 O   0  0  0  0  0  0  0  0  0  0  0  0
   13.8961  -16.4374   25.0458 O   0  0  0  0  0  0  0  0  0  0  0  0
  1  2  1  0
  1  5  1  0
  2  3  1  0
  3  4  1  0
  5  4  1  0
  6  7  2  0
  5  6  1  6
  8  6  1  0
  9  8  1  0
  9 10  1  6
 11 10  1  0
 12 11  1  0
 13 12  2  0
 14  9  1  0
 15 14  2  0
 16 12  1  0
 18 17  1  0
 19 18  2  0
 20 18  1  0
 22 21  1  1
 21 20  1  0
 22 23  1  0
 23 14  1  0
 24 22  1  0
 25 24  2  0
 26 24  1  0
M  END
$$$$
