PEQ.pdb
     RDKit          3D

 26 26  0  0  1  0  0  0  0  0999 V2000
    9.2869  -14.2592   18.8794 N   0  0  0  0  0  0  0  0  0  0  0  0
    8.4346  -14.3559   17.7312 C   0  0  0  0  0  0  0  0  0  0  0  0
    7.4448  -13.2467   17.9207 C   0  0  0  0  0  0  0  0  0  0  0  0
    7.1653  -13.3440   19.4227 C   0  0  0  0  0  0  0  0  0  0  0  0
    8.5396  -13.6610   19.9528 C   0  0  1  0  0  0  0  0  0  0  0  0
    8.4997  -14.5682   21.1328 C   0  0  0  0  0  0  0  0  0  0  0  0
    7.6989  -14.4331   22.0790 O   0  0  0  0  0  0  0  0  0  0  0  0
    9.4155  -15.6492   21.1989 N   0  0  0  0  0  0  0  0  0  0  0  0
    9.4220  -16.5663   22.3351 C   0  0  1  0  0  0  0  0  0  0  0  0
   10.2742  -17.7700   22.0471 C   0  0  0  0  0  0  0  0  0  0  0  0
   10.2829  -18.7953   23.1226 C   0  0  0  0  0  0  0  0  0  0  0  0
   11.2133  -19.8894   22.7275 C   0  0  0  0  0  0  0  0  0  0  0  0
   12.4521  -19.7196   22.7490 O   0  0  0  0  0  0  0  0  0  0  0  0
    9.7967  -15.8138   23.5351 C   0  0  0  0  0  0  0  0  0  0  0  0
   10.5859  -14.8226   23.5209 O   0  0  0  0  0  0  0  0  0  0  0  0
   10.7143  -21.1426   22.3201 O   0  0  0  0  0  0  0  0  0  0  0  0
    5.6428  -12.7410   25.6867 N   0  0  0  0  0  0  0  0  0  0  0  0
    6.5433  -12.5522   26.7650 C   0  0  0  0  0  0  0  0  0  0  0  0
    6.2361  -11.6368   27.6038 O   0  0  0  0  0  0  0  0  0  0  0  0
    7.7475  -13.3899   26.8776 C   0  0  0  0  0  0  0  0  0  0  0  0
    7.9866  -14.3734   25.7999 C   0  0  0  0  0  0  0  0  0  0  0  0
    9.2218  -15.1631   25.9233 C   0  0  2  0  0  0  0  0  0  0  0  0
    9.2872  -16.1565   24.8163 N   0  0  0  0  0  0  0  0  0  0  0  0
    9.4527  -15.8635   27.1583 C   0  0  0  0  0  0  0  0  0  0  0  0
    9.2417  -17.1164   27.2358 O   0  0  0  0  0  0  0  0  0  0  0  0
    9.9124  -15.2709   28.3136 O   0  0  0  0  0  0  0  0  0  0  0  0
  1  2  1  0
  1  5  1  0
  2  3  1  0
  3  4  1  0
  5  4  1  0
  6  7  2  0
  5  6  1  1
  8  6  1  0
  9  8  1  0
  9 10  1  6
 11 10  1  0
 12 11  1  0
 13 12  2  0
 14  9  1  0
 15 14  2  0
 16 12  1  0
 18 17  1  0
 19 18  2  0
 20 18  1  0
 22 21  1  1
 21 20  1  0
 22 23  1  0
 23 14  1  0
 24 22  1  0
 25 24  2  0
 26 24  1  0
M  END
$$$$
