PEQ.pdb
     RDKit          3D

 26 26  0  0  1  0  0  0  0  0999 V2000
    9.2518  -14.2170   18.9272 N   0  0  0  0  0  0  0  0  0  0  0  0
    8.2297  -14.0361   17.9390 C   0  0  0  0  0  0  0  0  0  0  0  0
    7.4593  -12.8475   18.4284 C   0  0  0  0  0  0  0  0  0  0  0  0
    7.4007  -13.1235   19.9331 C   0  0  0  0  0  0  0  0  0  0  0  0
    8.7760  -13.6884   20.1773 C   0  0  1  0  0  0  0  0  0  0  0  0
    8.7800  -14.7435   21.2279 C   0  0  0  0  0  0  0  0  0  0  0  0
    8.2313  -14.6109   22.3397 O   0  0  0  0  0  0  0  0  0  0  0  0
    9.4393  -15.9715   20.9650 N   0  0  0  0  0  0  0  0  0  0  0  0
    9.4982  -17.0285   21.9708 C   0  0  1  0  0  0  0  0  0  0  0  0
    9.9566  -18.3232   21.3609 C   0  0  0  0  0  0  0  0  0  0  0  0
    9.9719  -19.4778   22.2960 C   0  0  0  0  0  0  0  0  0  0  0  0
   10.3970  -20.6915   21.5443 C   0  0  0  0  0  0  0  0  0  0  0  0
   11.1947  -21.5130   22.0469 O   0  0  0  0  0  0  0  0  0  0  0  0
   10.3069  -16.5522   23.0958 C   0  0  0  0  0  0  0  0  0  0  0  0
   11.3878  -15.9058   22.9560 O   0  0  0  0  0  0  0  0  0  0  0  0
    9.9068  -20.9393   20.2467 O   0  0  0  0  0  0  0  0  0  0  0  0
   10.0307  -13.8325   29.8213 N   0  0  0  0  0  0  0  0  0  0  0  0
    9.8108  -13.8842   28.4220 C   0  0  0  0  0  0  0  0  0  0  0  0
    8.9160  -13.0950   27.9613 O   0  0  0  0  0  0  0  0  0  0  0  0
   10.5957  -14.8040   27.5839 C   0  0  0  0  0  0  0  0  0  0  0  0
    9.9415  -15.3304   26.3670 C   0  0  0  0  0  0  0  0  0  0  0  0
   10.7322  -16.2961   25.5880 C   0  0  2  0  0  0  0  0  0  0  0  0
    9.9206  -16.7908   24.4421 N   0  0  0  0  0  0  0  0  0  0  0  0
   11.2659  -17.4407   26.2767 C   0  0  0  0  0  0  0  0  0  0  0  0
   10.6783  -18.5673   26.2021 O   0  0  0  0  0  0  0  0  0  0  0  0
   12.4149  -17.4246   27.0362 O   0  0  0  0  0  0  0  0  0  0  0  0
  1  2  1  0
  1  5  1  0
  2  3  1  0
  3  4  1  0
  5  4  1  0
  6  7  2  0
  5  6  1  1
  8  6  1  0
  9  8  1  0
  9 10  1  6
 11 10  1  0
 12 11  1  0
 13 12  2  0
 14  9  1  0
 15 14  2  0
 16 12  1  0
 18 17  1  0
 19 18  2  0
 20 18  1  0
 22 21  1  1
 21 20  1  0
 22 23  1  0
 23 14  1  0
 24 22  1  0
 25 24  2  0
 26 24  1  0
M  END
$$$$
