PEQ.pdb
     RDKit          3D

 26 26  0  0  1  0  0  0  0  0999 V2000
    8.6972  -14.8560   19.0314 N   0  0  0  0  0  0  0  0  0  0  0  0
    7.9282  -14.5699   17.8563 C   0  0  0  0  0  0  0  0  0  0  0  0
    7.7041  -13.0895   17.9220 C   0  0  0  0  0  0  0  0  0  0  0  0
    7.4194  -12.8925   19.4132 C   0  0  0  0  0  0  0  0  0  0  0  0
    8.3992  -13.8598   20.0251 C   0  0  1  0  0  0  0  0  0  0  0  0
    7.8729  -14.4965   21.2639 C   0  0  0  0  0  0  0  0  0  0  0  0
    7.4790  -13.8519   22.2560 O   0  0  0  0  0  0  0  0  0  0  0  0
    7.8096  -15.9116   21.3349 N   0  0  0  0  0  0  0  0  0  0  0  0
    7.2907  -16.5867   22.5212 C   0  0  1  0  0  0  0  0  0  0  0  0
    7.0149  -18.0360   22.2350 C   0  0  0  0  0  0  0  0  0  0  0  0
    6.6204  -18.8381   23.4220 C   0  0  0  0  0  0  0  0  0  0  0  0
    6.3875  -20.2440   22.9884 C   0  0  0  0  0  0  0  0  0  0  0  0
    7.0147  -20.7317   22.0227 O   0  0  0  0  0  0  0  0  0  0  0  0
    8.2103  -16.3383   23.6344 C   0  0  0  0  0  0  0  0  0  0  0  0
    9.4715  -16.3922   23.5250 O   0  0  0  0  0  0  0  0  0  0  0  0
    5.4521  -21.0558   23.6603 O   0  0  0  0  0  0  0  0  0  0  0  0
    8.2242  -11.4056   26.7843 N   0  0  0  0  0  0  0  0  0  0  0  0
    7.0698  -12.2082   26.6044 C   0  0  0  0  0  0  0  0  0  0  0  0
    5.9482  -11.5935   26.6092 O   0  0  0  0  0  0  0  0  0  0  0  0
    7.2016  -13.6617   26.4188 C   0  0  0  0  0  0  0  0  0  0  0  0
    8.5719  -14.2030   26.2951 C   0  0  0  0  0  0  0  0  0  0  0  0
    8.6628  -15.6488   26.0379 C   0  0  2  0  0  0  0  0  0  0  0  0
    7.7342  -16.0147   24.9333 N   0  0  0  0  0  0  0  0  0  0  0  0
    8.4165  -16.5449   27.1359 C   0  0  0  0  0  0  0  0  0  0  0  0
    9.1453  -16.4994   28.1785 O   0  0  0  0  0  0  0  0  0  0  0  0
    7.4088  -17.4836   27.1619 O   0  0  0  0  0  0  0  0  0  0  0  0
  1  2  1  0
  1  5  1  0
  2  3  1  0
  3  4  1  0
  5  4  1  0
  6  7  2  0
  5  6  1  1
  8  6  1  0
  9  8  1  0
  9 10  1  6
 11 10  1  0
 12 11  1  0
 13 12  2  0
 14  9  1  0
 15 14  2  0
 16 12  1  0
 18 17  1  0
 19 18  2  0
 20 18  1  0
 22 21  1  1
 21 20  1  0
 22 23  1  0
 23 14  1  0
 24 22  1  0
 25 24  2  0
 26 24  1  0
M  END
$$$$
