PEQ.pdb
     RDKit          3D

 26 26  0  0  1  0  0  0  0  0999 V2000
    9.3322  -14.2822   18.7456 N   0  0  0  0  0  0  0  0  0  0  0  0
    8.4778  -14.3400   17.5964 C   0  0  0  0  0  0  0  0  0  0  0  0
    7.4869  -13.2395   17.8264 C   0  0  0  0  0  0  0  0  0  0  0  0
    7.2106  -13.3893   19.3247 C   0  0  0  0  0  0  0  0  0  0  0  0
    8.5864  -13.7226   19.8407 C   0  0  1  0  0  0  0  0  0  0  0  0
    8.5500  -14.6704   20.9884 C   0  0  0  0  0  0  0  0  0  0  0  0
    7.6880  -14.6298   21.8884 O   0  0  0  0  0  0  0  0  0  0  0  0
    9.5427  -15.6795   21.0772 N   0  0  0  0  0  0  0  0  0  0  0  0
    9.5932  -16.5925   22.2156 C   0  0  1  0  0  0  0  0  0  0  0  0
   10.6237  -17.6643   21.9974 C   0  0  0  0  0  0  0  0  0  0  0  0
   10.2968  -18.6273   20.9141 C   0  0  0  0  0  0  0  0  0  0  0  0
   11.4288  -19.5852   20.7733 C   0  0  0  0  0  0  0  0  0  0  0  0
   11.6479  -20.1673   19.6884 O   0  0  0  0  0  0  0  0  0  0  0  0
    9.7701  -15.8011   23.4359 C   0  0  0  0  0  0  0  0  0  0  0  0
   10.7013  -14.9561   23.5926 O   0  0  0  0  0  0  0  0  0  0  0  0
   12.2788  -19.8558   21.8641 O   0  0  0  0  0  0  0  0  0  0  0  0
    5.4710  -12.4476   25.9073 N   0  0  0  0  0  0  0  0  0  0  0  0
    6.4676  -12.3512   26.9106 C   0  0  0  0  0  0  0  0  0  0  0  0
    6.2773  -11.4643   27.8123 O   0  0  0  0  0  0  0  0  0  0  0  0
    7.6350  -13.2461   26.8813 C   0  0  0  0  0  0  0  0  0  0  0  0
    7.7441  -14.1729   25.7346 C   0  0  0  0  0  0  0  0  0  0  0  0
    8.9525  -15.0119   25.7087 C   0  0  2  0  0  0  0  0  0  0  0  0
    8.8894  -15.9353   24.5427 N   0  0  0  0  0  0  0  0  0  0  0  0
    9.2528  -15.7963   26.8765 C   0  0  0  0  0  0  0  0  0  0  0  0
    9.0521  -17.0532   26.8754 O   0  0  0  0  0  0  0  0  0  0  0  0
    9.7711  -15.2834   28.0450 O   0  0  0  0  0  0  0  0  0  0  0  0
  1  2  1  0
  1  5  1  0
  2  3  1  0
  3  4  1  0
  5  4  1  0
  6  7  2  0
  5  6  1  1
  8  6  1  0
  9  8  1  0
  9 10  1  6
 11 10  1  0
 12 11  1  0
 13 12  2  0
 14  9  1  0
 15 14  2  0
 16 12  1  0
 18 17  1  0
 19 18  2  0
 20 18  1  0
 22 21  1  1
 21 20  1  0
 22 23  1  0
 23 14  1  0
 24 22  1  0
 25 24  2  0
 26 24  1  0
M  END
$$$$
