PEQ.pdb
     RDKit          3D

 26 26  0  0  1  0  0  0  0  0999 V2000
    9.2743  -14.1658   18.5733 N   0  0  0  0  0  0  0  0  0  0  0  0
    8.4715  -14.1050   17.3876 C   0  0  0  0  0  0  0  0  0  0  0  0
    7.5495  -12.9494   17.6336 C   0  0  0  0  0  0  0  0  0  0  0  0
    7.1951  -13.1539   19.1088 C   0  0  0  0  0  0  0  0  0  0  0  0
    8.5194  -13.6099   19.6640 C   0  0  1  0  0  0  0  0  0  0  0  0
    8.3651  -14.6088   20.7573 C   0  0  0  0  0  0  0  0  0  0  0  0
    7.4903  -14.5319   21.6425 O   0  0  0  0  0  0  0  0  0  0  0  0
    9.2535  -15.7133   20.8085 N   0  0  0  0  0  0  0  0  0  0  0  0
    9.2366  -16.6458   21.9321 C   0  0  1  0  0  0  0  0  0  0  0  0
   10.0924  -17.8471   21.6441 C   0  0  0  0  0  0  0  0  0  0  0  0
    9.5294  -18.7819   20.6356 C   0  0  0  0  0  0  0  0  0  0  0  0
   10.5011  -19.8905   20.4218 C   0  0  0  0  0  0  0  0  0  0  0  0
   10.2597  -20.8099   19.6092 O   0  0  0  0  0  0  0  0  0  0  0  0
    9.5892  -15.9104   23.1492 C   0  0  0  0  0  0  0  0  0  0  0  0
   10.5445  -15.0803   23.2126 O   0  0  0  0  0  0  0  0  0  0  0  0
   11.7167  -19.9255   21.1335 O   0  0  0  0  0  0  0  0  0  0  0  0
    5.5663  -12.6198   26.0276 N   0  0  0  0  0  0  0  0  0  0  0  0
    6.6776  -12.4673   26.8941 C   0  0  0  0  0  0  0  0  0  0  0  0
    6.5764  -11.5579   27.7878 O   0  0  0  0  0  0  0  0  0  0  0  0
    7.8574  -13.3332   26.7426 C   0  0  0  0  0  0  0  0  0  0  0  0
    7.8519  -14.2868   25.6128 C   0  0  0  0  0  0  0  0  0  0  0  0
    9.0326  -15.1588   25.5119 C   0  0  2  0  0  0  0  0  0  0  0  0
    8.8662  -16.0865   24.3595 N   0  0  0  0  0  0  0  0  0  0  0  0
    9.3896  -15.9448   26.6625 C   0  0  0  0  0  0  0  0  0  0  0  0
    9.1530  -17.1953   26.6851 O   0  0  0  0  0  0  0  0  0  0  0  0
   10.0016  -15.4406   27.7887 O   0  0  0  0  0  0  0  0  0  0  0  0
  1  2  1  0
  1  5  1  0
  2  3  1  0
  3  4  1  0
  5  4  1  0
  6  7  2  0
  5  6  1  1
  8  6  1  0
  9  8  1  0
  9 10  1  6
 11 10  1  0
 12 11  1  0
 13 12  2  0
 14  9  1  0
 15 14  2  0
 16 12  1  0
 18 17  1  0
 19 18  2  0
 20 18  1  0
 22 21  1  1
 21 20  1  0
 22 23  1  0
 23 14  1  0
 24 22  1  0
 25 24  2  0
 26 24  1  0
M  END
$$$$
