PEQ.pdb
     RDKit          3D

 26 26  0  0  1  0  0  0  0  0999 V2000
    9.3085  -14.1305   18.9368 N   0  0  0  0  0  0  0  0  0  0  0  0
    8.5324  -14.1917   17.7334 C   0  0  0  0  0  0  0  0  0  0  0  0
    7.4954  -13.1255   17.9169 C   0  0  0  0  0  0  0  0  0  0  0  0
    7.1273  -13.3120   19.3912 C   0  0  0  0  0  0  0  0  0  0  0  0
    8.4764  -13.6143   19.9902 C   0  0  1  0  0  0  0  0  0  0  0  0
    8.3949  -14.5844   21.1167 C   0  0  0  0  0  0  0  0  0  0  0  0
    7.6061  -14.4631   22.0748 O   0  0  0  0  0  0  0  0  0  0  0  0
    9.2544  -15.7127   21.1146 N   0  0  0  0  0  0  0  0  0  0  0  0
    9.2695  -16.6538   22.2310 C   0  0  1  0  0  0  0  0  0  0  0  0
   10.0954  -17.8647   21.8996 C   0  0  0  0  0  0  0  0  0  0  0  0
   11.5520  -17.6037   21.7650 C   0  0  0  0  0  0  0  0  0  0  0  0
   12.2956  -18.7894   22.2750 C   0  0  0  0  0  0  0  0  0  0  0  0
   13.1886  -18.6649   23.1416 O   0  0  0  0  0  0  0  0  0  0  0  0
    9.6816  -15.9332   23.4382 C   0  0  0  0  0  0  0  0  0  0  0  0
   10.5729  -15.0325   23.4450 O   0  0  0  0  0  0  0  0  0  0  0  0
   12.0066  -20.0801   21.7892 O   0  0  0  0  0  0  0  0  0  0  0  0
    6.9496  -11.8270   25.1245 N   0  0  0  0  0  0  0  0  0  0  0  0
    6.9129  -12.6338   26.2893 C   0  0  0  0  0  0  0  0  0  0  0  0
    6.3470  -12.1199   27.3147 O   0  0  0  0  0  0  0  0  0  0  0  0
    7.4986  -13.9833   26.2725 C   0  0  0  0  0  0  0  0  0  0  0  0
    8.9164  -14.0969   25.8689 C   0  0  0  0  0  0  0  0  0  0  0  0
    9.4864  -15.4520   25.9257 C   0  0  2  0  0  0  0  0  0  0  0  0
    9.0947  -16.2057   24.7031 N   0  0  0  0  0  0  0  0  0  0  0  0
    9.1699  -16.2684   27.0670 C   0  0  0  0  0  0  0  0  0  0  0  0
    8.4872  -17.3334   26.9260 O   0  0  0  0  0  0  0  0  0  0  0  0
    9.5679  -15.9901   28.3560 O   0  0  0  0  0  0  0  0  0  0  0  0
  1  2  1  0
  1  5  1  0
  2  3  1  0
  3  4  1  0
  5  4  1  0
  6  7  2  0
  5  6  1  1
  8  6  1  0
  9  8  1  0
  9 10  1  6
 11 10  1  0
 12 11  1  0
 13 12  2  0
 14  9  1  0
 15 14  2  0
 16 12  1  0
 18 17  1  0
 19 18  2  0
 20 18  1  0
 22 21  1  1
 21 20  1  0
 22 23  1  0
 23 14  1  0
 24 22  1  0
 25 24  2  0
 26 24  1  0
M  END
$$$$
