PEQ.pdb
     RDKit          3D

 26 26  0  0  1  0  0  0  0  0999 V2000
    9.1442  -14.1561   18.7744 N   0  0  0  0  0  0  0  0  0  0  0  0
    8.0385  -14.1477   17.8627 C   0  0  0  0  0  0  0  0  0  0  0  0
    7.1340  -13.0806   18.4006 C   0  0  0  0  0  0  0  0  0  0  0  0
    7.2257  -13.3374   19.9070 C   0  0  0  0  0  0  0  0  0  0  0  0
    8.6846  -13.6846   20.0530 C   0  0  1  0  0  0  0  0  0  0  0  0
    8.9235  -14.7096   21.1063 C   0  0  0  0  0  0  0  0  0  0  0  0
    8.3496  -14.7066   22.2133 O   0  0  0  0  0  0  0  0  0  0  0  0
    9.8510  -15.7520   20.8520 N   0  0  0  0  0  0  0  0  0  0  0  0
   10.0434  -16.8419   21.8045 C   0  0  1  0  0  0  0  0  0  0  0  0
   10.7198  -18.0129   21.1491 C   0  0  0  0  0  0  0  0  0  0  0  0
   10.8743  -19.2068   22.0201 C   0  0  0  0  0  0  0  0  0  0  0  0
   11.5063  -20.2959   21.2245 C   0  0  0  0  0  0  0  0  0  0  0  0
   10.9943  -20.6912   20.1542 O   0  0  0  0  0  0  0  0  0  0  0  0
   10.7299  -16.3096   22.9843 C   0  0  0  0  0  0  0  0  0  0  0  0
   11.7625  -15.5778   22.9217 O   0  0  0  0  0  0  0  0  0  0  0  0
   12.6986  -20.9051   21.6635 O   0  0  0  0  0  0  0  0  0  0  0  0
    9.7813  -14.2608   29.9488 N   0  0  0  0  0  0  0  0  0  0  0  0
    9.6122  -14.1670   28.5446 C   0  0  0  0  0  0  0  0  0  0  0  0
    8.6191  -13.4695   28.1407 O   0  0  0  0  0  0  0  0  0  0  0  0
   10.5542  -14.8440   27.6398 C   0  0  0  0  0  0  0  0  0  0  0  0
   10.0090  -15.3667   26.3687 C   0  0  0  0  0  0  0  0  0  0  0  0
   10.9739  -16.0606   25.5014 C   0  0  2  0  0  0  0  0  0  0  0  0
   10.2702  -16.5871   24.2997 N   0  0  0  0  0  0  0  0  0  0  0  0
   11.7388  -17.1372   26.0714 C   0  0  0  0  0  0  0  0  0  0  0  0
   12.6800  -16.8925   26.8926 O   0  0  0  0  0  0  0  0  0  0  0  0
   11.5249  -18.4707   25.8008 O   0  0  0  0  0  0  0  0  0  0  0  0
  1  2  1  0
  1  5  1  0
  2  3  1  0
  3  4  1  0
  5  4  1  0
  6  7  2  0
  5  6  1  1
  8  6  1  0
  9  8  1  0
  9 10  1  6
 11 10  1  0
 12 11  1  0
 13 12  2  0
 14  9  1  0
 15 14  2  0
 16 12  1  0
 18 17  1  0
 19 18  2  0
 20 18  1  0
 22 21  1  1
 21 20  1  0
 22 23  1  0
 23 14  1  0
 24 22  1  0
 25 24  2  0
 26 24  1  0
M  END
$$$$
