PEQ.pdb
     RDKit          3D

 26 26  0  0  1  0  0  0  0  0999 V2000
    9.2827  -14.1208   19.1936 N   0  0  0  0  0  0  0  0  0  0  0  0
    8.4674  -14.1727   18.0161 C   0  0  0  0  0  0  0  0  0  0  0  0
    7.3916  -13.1621   18.2759 C   0  0  0  0  0  0  0  0  0  0  0  0
    7.0853  -13.4193   19.7536 C   0  0  0  0  0  0  0  0  0  0  0  0
    8.4670  -13.6821   20.2940 C   0  0  1  0  0  0  0  0  0  0  0  0
    8.4689  -14.6958   21.3845 C   0  0  0  0  0  0  0  0  0  0  0  0
    7.6221  -14.7252   22.2993 O   0  0  0  0  0  0  0  0  0  0  0  0
    9.4820  -15.6884   21.3975 N   0  0  0  0  0  0  0  0  0  0  0  0
    9.6187  -16.6147   22.5180 C   0  0  1  0  0  0  0  0  0  0  0  0
   10.6452  -17.6704   22.2180 C   0  0  0  0  0  0  0  0  0  0  0  0
   10.4625  -18.3601   20.9146 C   0  0  0  0  0  0  0  0  0  0  0  0
   11.6111  -19.2843   20.7018 C   0  0  0  0  0  0  0  0  0  0  0  0
   11.7561  -20.3043   21.4107 O   0  0  0  0  0  0  0  0  0  0  0  0
    9.8666  -15.8364   23.7343 C   0  0  0  0  0  0  0  0  0  0  0  0
   10.7294  -14.9114   23.8089 O   0  0  0  0  0  0  0  0  0  0  0  0
   12.5611  -19.0269   19.6935 O   0  0  0  0  0  0  0  0  0  0  0  0
    7.0785  -11.6413   26.3432 N   0  0  0  0  0  0  0  0  0  0  0  0
    6.4071  -12.8889   26.3005 C   0  0  0  0  0  0  0  0  0  0  0  0
    5.1289  -12.8428   26.3022 O   0  0  0  0  0  0  0  0  0  0  0  0
    7.1772  -14.1415   26.2504 C   0  0  0  0  0  0  0  0  0  0  0  0
    8.6442  -14.0245   26.1078 C   0  0  0  0  0  0  0  0  0  0  0  0
    9.3914  -15.2904   26.1701 C   0  0  2  0  0  0  0  0  0  0  0  0
    9.1390  -16.0759   24.9309 N   0  0  0  0  0  0  0  0  0  0  0  0
    9.1580  -16.1555   27.2955 C   0  0  0  0  0  0  0  0  0  0  0  0
    9.3675  -15.7396   28.4801 O   0  0  0  0  0  0  0  0  0  0  0  0
    8.6975  -17.4500   27.1983 O   0  0  0  0  0  0  0  0  0  0  0  0
  1  2  1  0
  1  5  1  0
  2  3  1  0
  3  4  1  0
  5  4  1  0
  6  7  2  0
  5  6  1  1
  8  6  1  0
  9  8  1  0
  9 10  1  6
 11 10  1  0
 12 11  1  0
 13 12  2  0
 14  9  1  0
 15 14  2  0
 16 12  1  0
 18 17  1  0
 19 18  2  0
 20 18  1  0
 22 21  1  1
 21 20  1  0
 22 23  1  0
 23 14  1  0
 24 22  1  0
 25 24  2  0
 26 24  1  0
M  END
$$$$
