PEQ.pdb
     RDKit          3D

 26 26  0  0  1  0  0  0  0  0999 V2000
    9.2966  -14.4495   18.7342 N   0  0  0  0  0  0  0  0  0  0  0  0
    8.4464  -14.4966   17.5814 C   0  0  0  0  0  0  0  0  0  0  0  0
    7.5881  -13.2753   17.7147 C   0  0  0  0  0  0  0  0  0  0  0  0
    7.2896  -13.2776   19.2162 C   0  0  0  0  0  0  0  0  0  0  0  0
    8.6153  -13.7262   19.7740 C   0  0  1  0  0  0  0  0  0  0  0  0
    8.4647  -14.5731   20.9893 C   0  0  0  0  0  0  0  0  0  0  0  0
    7.6989  -14.2940   21.9330 O   0  0  0  0  0  0  0  0  0  0  0  0
    9.2265  -15.7649   21.0943 N   0  0  0  0  0  0  0  0  0  0  0  0
    9.1250  -16.6261   22.2691 C   0  0  1  0  0  0  0  0  0  0  0  0
    9.9197  -17.8873   22.0790 C   0  0  0  0  0  0  0  0  0  0  0  0
    9.8245  -18.8554   23.2022 C   0  0  0  0  0  0  0  0  0  0  0  0
   10.6999  -20.0217   22.8987 C   0  0  0  0  0  0  0  0  0  0  0  0
   11.9189  -20.0010   23.1775 O   0  0  0  0  0  0  0  0  0  0  0  0
    9.4834  -15.8395   23.4520 C   0  0  0  0  0  0  0  0  0  0  0  0
   10.5289  -15.1275   23.5279 O   0  0  0  0  0  0  0  0  0  0  0  0
   10.1701  -21.1763   22.2891 O   0  0  0  0  0  0  0  0  0  0  0  0
    5.3031  -12.4401   26.3296 N   0  0  0  0  0  0  0  0  0  0  0  0
    6.4476  -12.2148   27.1350 C   0  0  0  0  0  0  0  0  0  0  0  0
    6.3536  -11.2778   28.0004 O   0  0  0  0  0  0  0  0  0  0  0  0
    7.6517  -13.0410   26.9560 C   0  0  0  0  0  0  0  0  0  0  0  0
    7.6294  -14.0352   25.8619 C   0  0  0  0  0  0  0  0  0  0  0  0
    8.8592  -14.8258   25.6970 C   0  0  2  0  0  0  0  0  0  0  0  0
    8.6631  -15.8262   24.6120 N   0  0  0  0  0  0  0  0  0  0  0  0
    9.3735  -15.5189   26.8478 C   0  0  0  0  0  0  0  0  0  0  0  0
    9.8226  -14.8658   27.8438 O   0  0  0  0  0  0  0  0  0  0  0  0
    9.4150  -16.8898   26.9751 O   0  0  0  0  0  0  0  0  0  0  0  0
  1  2  1  0
  1  5  1  0
  2  3  1  0
  3  4  1  0
  5  4  1  0
  6  7  2  0
  5  6  1  1
  8  6  1  0
  9  8  1  0
  9 10  1  6
 11 10  1  0
 12 11  1  0
 13 12  2  0
 14  9  1  0
 15 14  2  0
 16 12  1  0
 18 17  1  0
 19 18  2  0
 20 18  1  0
 22 21  1  1
 21 20  1  0
 22 23  1  0
 23 14  1  0
 24 22  1  0
 25 24  2  0
 26 24  1  0
M  END
$$$$
