PEQ.pdb
     RDKit          3D

 26 26  0  0  1  0  0  0  0  0999 V2000
    9.2927  -14.2139   19.0070 N   0  0  0  0  0  0  0  0  0  0  0  0
    8.4654  -14.2908   17.8393 C   0  0  0  0  0  0  0  0  0  0  0  0
    7.5238  -13.1341   17.9860 C   0  0  0  0  0  0  0  0  0  0  0  0
    7.2033  -13.1927   19.4818 C   0  0  0  0  0  0  0  0  0  0  0  0
    8.5479  -13.5637   20.0515 C   0  0  1  0  0  0  0  0  0  0  0  0
    8.4368  -14.4478   21.2443 C   0  0  0  0  0  0  0  0  0  0  0  0
    7.6773  -14.2158   22.2056 O   0  0  0  0  0  0  0  0  0  0  0  0
    9.2313  -15.6212   21.3055 N   0  0  0  0  0  0  0  0  0  0  0  0
    9.1727  -16.5147   22.4589 C   0  0  1  0  0  0  0  0  0  0  0  0
    9.8746  -17.8113   22.1682 C   0  0  0  0  0  0  0  0  0  0  0  0
   11.2253  -17.6639   21.5667 C   0  0  0  0  0  0  0  0  0  0  0  0
   11.8647  -19.0076   21.5013 C   0  0  0  0  0  0  0  0  0  0  0  0
   12.8379  -19.2933   22.2329 O   0  0  0  0  0  0  0  0  0  0  0  0
    9.6691  -15.7900   23.6314 C   0  0  0  0  0  0  0  0  0  0  0  0
   10.4544  -14.7981   23.5597 O   0  0  0  0  0  0  0  0  0  0  0  0
   11.3840  -19.9877   20.6104 O   0  0  0  0  0  0  0  0  0  0  0  0
    5.8929  -12.5869   26.1399 N   0  0  0  0  0  0  0  0  0  0  0  0
    6.9474  -12.3745   27.0629 C   0  0  0  0  0  0  0  0  0  0  0  0
    6.8259  -11.3631   27.8363 O   0  0  0  0  0  0  0  0  0  0  0  0
    8.0944  -13.2951   27.0993 C   0  0  0  0  0  0  0  0  0  0  0  0
    8.1688  -14.3203   26.0365 C   0  0  0  0  0  0  0  0  0  0  0  0
    9.3492  -15.1974   26.0817 C   0  0  2  0  0  0  0  0  0  0  0  0
    9.2925  -16.1627   24.9497 N   0  0  0  0  0  0  0  0  0  0  0  0
    9.5867  -15.9453   27.2873 C   0  0  0  0  0  0  0  0  0  0  0  0
    9.1658  -17.1417   27.3948 O   0  0  0  0  0  0  0  0  0  0  0  0
   10.2695  -15.4604   28.3808 O   0  0  0  0  0  0  0  0  0  0  0  0
  1  2  1  0
  1  5  1  0
  2  3  1  0
  3  4  1  0
  5  4  1  0
  6  7  2  0
  5  6  1  1
  8  6  1  0
  9  8  1  0
  9 10  1  6
 11 10  1  0
 12 11  1  0
 13 12  2  0
 14  9  1  0
 15 14  2  0
 16 12  1  0
 18 17  1  0
 19 18  2  0
 20 18  1  0
 22 21  1  1
 21 20  1  0
 22 23  1  0
 23 14  1  0
 24 22  1  0
 25 24  2  0
 26 24  1  0
M  END
$$$$
