PEQ.pdb
     RDKit          3D

 26 26  0  0  1  0  0  0  0  0999 V2000
       nan       nan       nan N   0  0  0  0  0  0  0  0  0  0  0  0
       nan       nan       nan C   0  0  0  0  0  0  0  0  0  0  0  0
       nan       nan       nan C   0  0  0  0  0  0  0  0  0  0  0  0
       nan       nan       nan C   0  0  0  0  0  0  0  0  0  0  0  0
       nan       nan       nan C   0  0  0  0  0  0  0  0  0  0  0  0
       nan       nan       nan C   0  0  0  0  0  0  0  0  0  0  0  0
       nan       nan       nan O   0  0  0  0  0  0  0  0  0  0  0  0
       nan       nan       nan N   0  0  0  0  0  0  0  0  0  0  0  0
       nan       nan       nan C   0  0  0  0  0  0  0  0  0  0  0  0
       nan       nan       nan C   0  0  0  0  0  0  0  0  0  0  0  0
       nan       nan       nan C   0  0  0  0  0  0  0  0  0  0  0  0
       nan       nan       nan C   0  0  0  0  0  0  0  0  0  0  0  0
       nan       nan       nan O   0  0  0  0  0  0  0  0  0  0  0  0
       nan       nan       nan C   0  0  0  0  0  0  0  0  0  0  0  0
       nan       nan       nan O   0  0  0  0  0  0  0  0  0  0  0  0
       nan       nan       nan O   0  0  0  0  0  0  0  0  0  0  0  0
       nan       nan       nan N   0  0  0  0  0  0  0  0  0  0  0  0
       nan       nan       nan C   0  0  0  0  0  0  0  0  0  0  0  0
       nan       nan       nan O   0  0  0  0  0  0  0  0  0  0  0  0
       nan       nan       nan C   0  0  0  0  0  0  0  0  0  0  0  0
       nan       nan       nan C   0  0  0  0  0  0  0  0  0  0  0  0
       nan       nan       nan C   0  0  0  0  0  0  0  0  0  0  0  0
       nan       nan       nan N   0  0  0  0  0  0  0  0  0  0  0  0
       nan       nan       nan C   0  0  0  0  0  0  0  0  0  0  0  0
       nan       nan       nan O   0  0  0  0  0  0  0  0  0  0  0  0
       nan       nan       nan O   0  0  0  0  0  0  0  0  0  0  0  0
  1  2  1  0
  1  5  1  0
  2  3  1  0
  3  4  1  0
  5  4  1  0
  6  7  2  0
  5  6  1  1
  8  6  1  0
  9  8  1  0
  9 10  1  6
 11 10  1  0
 12 11  1  0
 13 12  2  0
 14  9  1  0
 15 14  2  0
 16 12  1  0
 18 17  1  0
 19 18  2  0
 20 18  1  0
 22 21  1  6
 21 20  1  0
 22 23  1  0
 23 14  1  0
 24 22  1  0
 25 24  2  0
 26 24  1  0
M  END
$$$$
