PEQ.pdb
     RDKit          3D

 26 26  0  0  1  0  0  0  0  0999 V2000
    9.1409  -14.1941   19.0478 N   0  0  0  0  0  0  0  0  0  0  0  0
    8.2624  -14.1321   17.9171 C   0  0  0  0  0  0  0  0  0  0  0  0
    7.4404  -12.9036   18.1644 C   0  0  0  0  0  0  0  0  0  0  0  0
    7.1779  -13.0129   19.6686 C   0  0  0  0  0  0  0  0  0  0  0  0
    8.5042  -13.5354   20.1565 C   0  0  1  0  0  0  0  0  0  0  0  0
    8.3602  -14.4684   21.3079 C   0  0  0  0  0  0  0  0  0  0  0  0
    7.7708  -14.1715   22.3658 O   0  0  0  0  0  0  0  0  0  0  0  0
    8.9181  -15.7689   21.2116 N   0  0  0  0  0  0  0  0  0  0  0  0
    8.8827  -16.6924   22.3421 C   0  0  1  0  0  0  0  0  0  0  0  0
    9.3091  -18.0706   21.9214 C   0  0  0  0  0  0  0  0  0  0  0  0
    9.3099  -19.0794   23.0124 C   0  0  0  0  0  0  0  0  0  0  0  0
    9.7563  -20.3849   22.4511 C   0  0  0  0  0  0  0  0  0  0  0  0
    8.9279  -21.2690   22.1411 O   0  0  0  0  0  0  0  0  0  0  0  0
    9.6597  -16.1106   23.4395 C   0  0  0  0  0  0  0  0  0  0  0  0
   10.5703  -15.2459   23.2698 O   0  0  0  0  0  0  0  0  0  0  0  0
   11.1264  -20.6511   22.2573 O   0  0  0  0  0  0  0  0  0  0  0  0
    5.8412  -13.0102   25.5951 N   0  0  0  0  0  0  0  0  0  0  0  0
    6.7287  -12.8311   26.6857 C   0  0  0  0  0  0  0  0  0  0  0  0
    6.4075  -11.9285   27.5330 O   0  0  0  0  0  0  0  0  0  0  0  0
    7.9360  -13.6640   26.8007 C   0  0  0  0  0  0  0  0  0  0  0  0
    8.1871  -14.6388   25.7177 C   0  0  0  0  0  0  0  0  0  0  0  0
    9.3817  -15.4810   25.8856 C   0  0  2  0  0  0  0  0  0  0  0  0
    9.4353  -16.4883   24.7906 N   0  0  0  0  0  0  0  0  0  0  0  0
    9.5447  -16.1775   27.1336 C   0  0  0  0  0  0  0  0  0  0  0  0
    9.8874  -15.5440   28.1831 O   0  0  0  0  0  0  0  0  0  0  0  0
    9.3434  -17.5298   27.3009 O   0  0  0  0  0  0  0  0  0  0  0  0
  1  2  1  0
  1  5  1  0
  2  3  1  0
  3  4  1  0
  5  4  1  0
  6  7  2  0
  5  6  1  1
  8  6  1  0
  9  8  1  0
  9 10  1  6
 11 10  1  0
 12 11  1  0
 13 12  2  0
 14  9  1  0
 15 14  2  0
 16 12  1  0
 18 17  1  0
 19 18  2  0
 20 18  1  0
 22 21  1  1
 21 20  1  0
 22 23  1  0
 23 14  1  0
 24 22  1  0
 25 24  2  0
 26 24  1  0
M  END
$$$$
