PEQ.pdb
     RDKit          3D

 26 26  0  0  1  0  0  0  0  0999 V2000
    9.3256  -13.9929   19.0383 N   0  0  0  0  0  0  0  0  0  0  0  0
    8.2547  -13.9280   18.0881 C   0  0  0  0  0  0  0  0  0  0  0  0
    7.2775  -12.9760   18.7086 C   0  0  0  0  0  0  0  0  0  0  0  0
    7.3276  -13.4055   20.1771 C   0  0  0  0  0  0  0  0  0  0  0  0
    8.7962  -13.6989   20.3428 C   0  0  1  0  0  0  0  0  0  0  0  0
    9.0492  -14.8294   21.2781 C   0  0  0  0  0  0  0  0  0  0  0  0
    8.4694  -14.9597   22.3743 O   0  0  0  0  0  0  0  0  0  0  0  0
    9.9981  -15.8199   20.9171 N   0  0  0  0  0  0  0  0  0  0  0  0
   10.3054  -16.9337   21.8099 C   0  0  1  0  0  0  0  0  0  0  0  0
   11.1570  -17.9582   21.1147 C   0  0  0  0  0  0  0  0  0  0  0  0
   11.4135  -19.1904   21.9046 C   0  0  0  0  0  0  0  0  0  0  0  0
   12.2811  -20.0966   21.1016 C   0  0  0  0  0  0  0  0  0  0  0  0
   11.8342  -21.1662   20.6323 O   0  0  0  0  0  0  0  0  0  0  0  0
   10.8726  -16.3919   23.0473 C   0  0  0  0  0  0  0  0  0  0  0  0
   11.7746  -15.5022   23.0723 O   0  0  0  0  0  0  0  0  0  0  0  0
   13.6281  -19.7657   20.8538 O   0  0  0  0  0  0  0  0  0  0  0  0
    8.4311  -13.3556   27.4109 N   0  0  0  0  0  0  0  0  0  0  0  0
    9.6211  -13.7461   28.0746 C   0  0  0  0  0  0  0  0  0  0  0  0
    9.8405  -13.1989   29.2096 O   0  0  0  0  0  0  0  0  0  0  0  0
   10.5207  -14.7341   27.4588 C   0  0  0  0  0  0  0  0  0  0  0  0
   10.1007  -15.3122   26.1644 C   0  0  0  0  0  0  0  0  0  0  0  0
   11.0206  -16.3021   25.5826 C   0  0  2  0  0  0  0  0  0  0  0  0
   10.4370  -16.8403   24.3232 N   0  0  0  0  0  0  0  0  0  0  0  0
   11.4123  -17.4193   26.3996 C   0  0  0  0  0  0  0  0  0  0  0  0
   12.2531  -17.2626   27.3423 O   0  0  0  0  0  0  0  0  0  0  0  0
   10.9270  -18.6996   26.2497 O   0  0  0  0  0  0  0  0  0  0  0  0
  1  2  1  0
  1  5  1  0
  2  3  1  0
  3  4  1  0
  5  4  1  0
  6  7  2  0
  5  6  1  1
  8  6  1  0
  9  8  1  0
  9 10  1  6
 11 10  1  0
 12 11  1  0
 13 12  2  0
 14  9  1  0
 15 14  2  0
 16 12  1  0
 18 17  1  0
 19 18  2  0
 20 18  1  0
 22 21  1  1
 21 20  1  0
 22 23  1  0
 23 14  1  0
 24 22  1  0
 25 24  2  0
 26 24  1  0
M  END
$$$$
