PEQ.pdb
     RDKit          3D

 26 26  0  0  1  0  0  0  0  0999 V2000
    9.1367  -14.1414   18.9673 N   0  0  0  0  0  0  0  0  0  0  0  0
    8.2599  -14.1746   17.8341 C   0  0  0  0  0  0  0  0  0  0  0  0
    7.2944  -13.0575   18.0907 C   0  0  0  0  0  0  0  0  0  0  0  0
    7.0435  -13.2134   19.5928 C   0  0  0  0  0  0  0  0  0  0  0  0
    8.4222  -13.5762   20.0802 C   0  0  1  0  0  0  0  0  0  0  0  0
    8.3897  -14.5318   21.2217 C   0  0  0  0  0  0  0  0  0  0  0  0
    7.6266  -14.4103   22.2004 O   0  0  0  0  0  0  0  0  0  0  0  0
    9.2679  -15.6455   21.2100 N   0  0  0  0  0  0  0  0  0  0  0  0
    9.3266  -16.5739   22.3354 C   0  0  1  0  0  0  0  0  0  0  0  0
   10.1035  -17.8078   21.9719 C   0  0  0  0  0  0  0  0  0  0  0  0
   10.1615  -18.8407   23.0385 C   0  0  0  0  0  0  0  0  0  0  0  0
   10.8991  -20.0236   22.5139 C   0  0  0  0  0  0  0  0  0  0  0  0
   12.1127  -19.9474   22.2216 O   0  0  0  0  0  0  0  0  0  0  0  0
    9.8255  -15.8497   23.5072 C   0  0  0  0  0  0  0  0  0  0  0  0
   10.5104  -14.7862   23.4327 O   0  0  0  0  0  0  0  0  0  0  0  0
   10.2418  -21.2572   22.3357 O   0  0  0  0  0  0  0  0  0  0  0  0
    6.0904  -12.6660   25.4557 N   0  0  0  0  0  0  0  0  0  0  0  0
    6.8998  -12.5614   26.6145 C   0  0  0  0  0  0  0  0  0  0  0  0
    6.5974  -11.6256   27.4322 O   0  0  0  0  0  0  0  0  0  0  0  0
    8.0105  -13.5024   26.8277 C   0  0  0  0  0  0  0  0  0  0  0  0
    8.3022  -14.4576   25.7375 C   0  0  0  0  0  0  0  0  0  0  0  0
    9.4413  -15.3591   25.9708 C   0  0  2  0  0  0  0  0  0  0  0  0
    9.5665  -16.3049   24.8279 N   0  0  0  0  0  0  0  0  0  0  0  0
    9.4519  -16.1307   27.1847 C   0  0  0  0  0  0  0  0  0  0  0  0
    8.9212  -17.2872   27.2158 O   0  0  0  0  0  0  0  0  0  0  0  0
   10.0207  -15.7115   28.3671 O   0  0  0  0  0  0  0  0  0  0  0  0
  1  2  1  0
  1  5  1  0
  2  3  1  0
  3  4  1  0
  5  4  1  0
  6  7  2  0
  5  6  1  1
  8  6  1  0
  9  8  1  0
  9 10  1  6
 11 10  1  0
 12 11  1  0
 13 12  2  0
 14  9  1  0
 15 14  2  0
 16 12  1  0
 18 17  1  0
 19 18  2  0
 20 18  1  0
 22 21  1  6
 21 20  1  0
 22 23  1  0
 23 14  1  0
 24 22  1  0
 25 24  2  0
 26 24  1  0
M  END
$$$$
