PEQ.pdb
     RDKit          3D

 26 26  0  0  1  0  0  0  0  0999 V2000
    9.1650  -14.3951   19.1953 N   0  0  0  0  0  0  0  0  0  0  0  0
    8.2683  -14.4217   18.0775 C   0  0  0  0  0  0  0  0  0  0  0  0
    7.4342  -13.1890   18.2532 C   0  0  0  0  0  0  0  0  0  0  0  0
    7.1965  -13.1976   19.7655 C   0  0  0  0  0  0  0  0  0  0  0  0
    8.5369  -13.6693   20.2664 C   0  0  1  0  0  0  0  0  0  0  0  0
    8.4230  -14.5225   21.4813 C   0  0  0  0  0  0  0  0  0  0  0  0
    7.6628  -14.2646   22.4355 O   0  0  0  0  0  0  0  0  0  0  0  0
    9.2153  -15.6953   21.5734 N   0  0  0  0  0  0  0  0  0  0  0  0
    9.1651  -16.5507   22.7557 C   0  0  1  0  0  0  0  0  0  0  0  0
    9.8892  -17.8447   22.5117 C   0  0  0  0  0  0  0  0  0  0  0  0
    9.8345  -18.8084   23.6414 C   0  0  0  0  0  0  0  0  0  0  0  0
   10.6137  -20.0218   23.2681 C   0  0  0  0  0  0  0  0  0  0  0  0
   10.0426  -21.0412   22.8225 O   0  0  0  0  0  0  0  0  0  0  0  0
    9.6439  -15.7793   23.9056 C   0  0  0  0  0  0  0  0  0  0  0  0
   10.7794  -15.2186   23.9478 O   0  0  0  0  0  0  0  0  0  0  0  0
   12.0154  -20.0455   23.4100 O   0  0  0  0  0  0  0  0  0  0  0  0
    6.7134  -11.5316   26.9720 N   0  0  0  0  0  0  0  0  0  0  0  0
    6.3069  -12.5678   26.0944 C   0  0  0  0  0  0  0  0  0  0  0  0
    5.1467  -12.4420   25.5709 O   0  0  0  0  0  0  0  0  0  0  0  0
    7.2043  -13.7018   25.8239 C   0  0  0  0  0  0  0  0  0  0  0  0
    8.5005  -13.7191   26.5351 C   0  0  0  0  0  0  0  0  0  0  0  0
    9.3565  -14.8852   26.2669 C   0  0  2  0  0  0  0  0  0  0  0  0
    8.8471  -15.6087   25.0696 N   0  0  0  0  0  0  0  0  0  0  0  0
    9.5333  -15.8476   27.3212 C   0  0  0  0  0  0  0  0  0  0  0  0
    9.1267  -17.0447   27.1736 O   0  0  0  0  0  0  0  0  0  0  0  0
   10.1406  -15.5762   28.5274 O   0  0  0  0  0  0  0  0  0  0  0  0
  1  2  1  0
  1  5  1  0
  2  3  1  0
  3  4  1  0
  5  4  1  0
  6  7  2  0
  5  6  1  1
  8  6  1  0
  9  8  1  0
  9 10  1  6
 11 10  1  0
 12 11  1  0
 13 12  2  0
 14  9  1  0
 15 14  2  0
 16 12  1  0
 18 17  1  0
 19 18  2  0
 20 18  1  0
 22 21  1  1
 21 20  1  0
 22 23  1  0
 23 14  1  0
 24 22  1  0
 25 24  2  0
 26 24  1  0
M  END
$$$$
