PEQ.pdb
     RDKit          3D

 26 26  0  0  1  0  0  0  0  0999 V2000
    9.2857  -14.3582   18.5299 N   0  0  0  0  0  0  0  0  0  0  0  0
    8.4612  -14.3722   17.3578 C   0  0  0  0  0  0  0  0  0  0  0  0
    7.5368  -13.2087   17.5516 C   0  0  0  0  0  0  0  0  0  0  0  0
    7.2104  -13.3266   19.0427 C   0  0  0  0  0  0  0  0  0  0  0  0
    8.5474  -13.7421   19.5994 C   0  0  1  0  0  0  0  0  0  0  0  0
    8.4191  -14.6749   20.7528 C   0  0  0  0  0  0  0  0  0  0  0  0
    7.5488  -14.5600   21.6384 O   0  0  0  0  0  0  0  0  0  0  0  0
    9.3284  -15.7577   20.8645 N   0  0  0  0  0  0  0  0  0  0  0  0
    9.3072  -16.6464   22.0230 C   0  0  1  0  0  0  0  0  0  0  0  0
   10.2597  -17.7935   21.8355 C   0  0  0  0  0  0  0  0  0  0  0  0
    9.7238  -19.1177   22.2446 C   0  0  0  0  0  0  0  0  0  0  0  0
   10.0924  -20.1201   21.2063 C   0  0  0  0  0  0  0  0  0  0  0  0
   11.2345  -20.1286   20.6970 O   0  0  0  0  0  0  0  0  0  0  0  0
    9.5333  -15.8428   23.2269 C   0  0  0  0  0  0  0  0  0  0  0  0
   10.4555  -14.9797   23.3287 O   0  0  0  0  0  0  0  0  0  0  0  0
    9.1579  -21.0827   20.7754 O   0  0  0  0  0  0  0  0  0  0  0  0
    6.3892  -11.3398   27.8108 N   0  0  0  0  0  0  0  0  0  0  0  0
    6.4733  -12.3014   26.7729 C   0  0  0  0  0  0  0  0  0  0  0  0
    5.5427  -12.2689   25.8960 O   0  0  0  0  0  0  0  0  0  0  0  0
    7.5897  -13.2591   26.7412 C   0  0  0  0  0  0  0  0  0  0  0  0
    7.6530  -14.1813   25.5873 C   0  0  0  0  0  0  0  0  0  0  0  0
    8.8320  -15.0602   25.5406 C   0  0  2  0  0  0  0  0  0  0  0  0
    8.7148  -15.9847   24.3796 N   0  0  0  0  0  0  0  0  0  0  0  0
    9.1293  -15.8505   26.7051 C   0  0  0  0  0  0  0  0  0  0  0  0
    8.8971  -17.1021   26.7089 O   0  0  0  0  0  0  0  0  0  0  0  0
    9.6772  -15.3494   27.8653 O   0  0  0  0  0  0  0  0  0  0  0  0
  1  2  1  0
  1  5  1  0
  2  3  1  0
  3  4  1  0
  5  4  1  0
  6  7  2  0
  5  6  1  1
  8  6  1  0
  9  8  1  0
  9 10  1  6
 11 10  1  0
 12 11  1  0
 13 12  2  0
 14  9  1  0
 15 14  2  0
 16 12  1  0
 18 17  1  0
 19 18  2  0
 20 18  1  0
 22 21  1  1
 21 20  1  0
 22 23  1  0
 23 14  1  0
 24 22  1  0
 25 24  2  0
 26 24  1  0
M  END
$$$$
