CWH.pdb
     RDKit          3D

 31 33  0  0  1  0  0  0  0  0999 V2000
   28.3399  -23.8412  -17.4006 N   0  0  0  0  0  0  0  0  0  0  0  0
   27.8829  -22.4616  -17.2009 C   0  0  1  0  0  0  0  0  0  0  0  0
   26.8734  -22.1206  -18.2826 C   0  0  0  0  0  0  0  0  0  0  0  0
   27.7353  -21.7216  -19.8094 S   0  0  0  0  0  0  0  0  0  0  0  0
   27.3698  -22.2762  -15.8330 C   0  0  0  0  0  0  0  0  0  0  0  0
   26.8287  -23.2857  -15.2763 O   0  0  0  0  0  0  0  0  0  0  0  0
   27.4167  -21.0894  -15.0688 N   0  0  0  0  0  0  0  0  0  0  0  0
   26.7971  -21.0185  -13.7824 C   0  0  1  0  0  0  0  0  0  0  0  0
   27.4651  -20.0669  -12.8131 C   0  0  0  0  0  0  0  0  0  0  0  0
   26.8815  -20.1584  -11.4404 C   0  0  0  0  0  0  0  0  0  0  0  0
   25.5367  -19.8998  -11.1624 C   0  0  0  0  0  0  0  0  0  0  0  0
   25.3789  -20.1017   -9.8568 N   0  0  0  0  0  0  0  0  0  0  0  0
   26.5275  -20.4701   -9.2834 C   0  0  0  0  0  0  0  0  0  0  0  0
   26.8801  -20.7796   -7.9935 C   0  0  0  0  0  0  0  0  0  0  0  0
   28.1659  -21.1265   -7.6677 C   0  0  0  0  0  0  0  0  0  0  0  0
   29.1068  -21.1568   -8.6811 C   0  0  0  0  0  0  0  0  0  0  0  0
   28.7904  -20.8521   -9.9913 C   0  0  0  0  0  0  0  0  0  0  0  0
   27.4831  -20.5094  -10.2707 C   0  0  0  0  0  0  0  0  0  0  0  0
   25.3402  -20.7659  -13.8564 C   0  0  0  0  0  0  0  0  0  0  0  0
   24.8366  -19.7121  -14.3237 O   0  0  0  0  0  0  0  0  0  0  0  0
   24.4399  -21.7534  -13.3797 N   0  0  0  0  0  0  0  0  0  0  0  0
   23.0042  -21.5805  -13.5743 C   0  0  1  0  0  0  0  0  0  0  0  0
   22.3247  -22.8432  -13.0900 C   0  0  0  0  0  0  0  0  0  0  0  0
   20.8624  -22.7869  -13.1856 C   0  0  0  0  0  0  0  0  0  0  0  0
   20.1074  -21.7270  -13.6606 C   0  0  0  0  0  0  0  0  0  0  0  0
   18.8258  -22.0850  -13.5763 N   0  0  0  0  0  0  0  0  0  0  0  0
   18.7563  -23.3170  -13.0712 C   0  0  0  0  0  0  0  0  0  0  0  0
   20.0066  -23.7678  -12.8231 N   0  0  0  0  0  0  0  0  0  0  0  0
   22.5576  -20.3924  -12.8263 C   0  0  0  0  0  0  0  0  0  0  0  0
   22.9380  -20.2718  -11.4954 O   0  0  0  0  0  0  0  0  0  0  0  0
   21.8525  -19.4800  -13.3188 O   0  0  0  0  0  0  0  0  0  0  0  0
  2  1  1  1
  3  2  1  0
  4  3  1  0
  5  6  2  0
  5  2  1  0
  7  5  1  0
  8  9  1  1
  8  7  1  0
 10 18  1  0
 10  9  1  0
 11 10  2  0
 12 11  1  0
 12 13  1  0
 13 14  1  0
 13 18  2  0
 14 15  2  0
 15 16  1  0
 17 16  2  0
 18 17  1  0
 19  8  1  0
 20 19  2  0
 21 19  1  0
 22 29  1  0
 22 21  1  0
 22 23  1  1
 24 23  1  0
 25 24  2  0
 26 27  1  0
 26 25  1  0
 27 28  2  0
 28 24  1  0
 29 30  1  0
 31 29  2  0
M  END
$$$$
