CWH.pdb
     RDKit          3D

 31 33  0  0  1  0  0  0  0  0999 V2000
   22.5453  -22.0452  -13.8041 N   0  0  0  0  0  0  0  0  0  0  0  0
   22.6357  -20.9606  -12.8204 C   0  0  1  0  0  0  0  0  0  0  0  0
   22.8630  -21.5658  -11.4465 C   0  0  0  0  0  0  0  0  0  0  0  0
   21.3648  -21.4136  -10.4639 S   0  0  0  0  0  0  0  0  0  0  0  0
   23.6658  -19.9848  -13.2149 C   0  0  0  0  0  0  0  0  0  0  0  0
   23.4025  -18.7544  -13.0187 O   0  0  0  0  0  0  0  0  0  0  0  0
   24.9233  -20.2726  -13.7899 N   0  0  0  0  0  0  0  0  0  0  0  0
   25.8484  -19.2265  -14.0957 C   0  0  1  0  0  0  0  0  0  0  0  0
   27.1548  -19.2985  -13.3343 C   0  0  0  0  0  0  0  0  0  0  0  0
   27.0908  -20.2630  -12.1946 C   0  0  0  0  0  0  0  0  0  0  0  0
   27.3411  -21.6306  -12.3351 C   0  0  0  0  0  0  0  0  0  0  0  0
   27.2167  -22.1604  -11.1210 N   0  0  0  0  0  0  0  0  0  0  0  0
   26.9047  -21.2278  -10.2173 C   0  0  0  0  0  0  0  0  0  0  0  0
   26.6684  -21.2669   -8.8659 C   0  0  0  0  0  0  0  0  0  0  0  0
   26.3505  -20.1336   -8.1628 C   0  0  0  0  0  0  0  0  0  0  0  0
   26.2732  -18.9394   -8.8566 C   0  0  0  0  0  0  0  0  0  0  0  0
   26.5044  -18.8598  -10.2166 C   0  0  0  0  0  0  0  0  0  0  0  0
   26.8218  -20.0269  -10.8811 C   0  0  0  0  0  0  0  0  0  0  0  0
   26.0878  -19.0738  -15.5487 C   0  0  0  0  0  0  0  0  0  0  0  0
   26.2830  -20.0402  -16.3300 O   0  0  0  0  0  0  0  0  0  0  0  0
   26.1025  -17.7737  -16.1164 N   0  0  0  0  0  0  0  0  0  0  0  0
   25.3979  -17.5211  -17.3689 C   0  0  1  0  0  0  0  0  0  0  0  0
   23.9403  -17.8627  -17.1472 C   0  0  0  0  0  0  0  0  0  0  0  0
   23.1177  -17.6990  -18.3501 C   0  0  0  0  0  0  0  0  0  0  0  0
   23.1905  -18.4560  -19.5080 C   0  0  0  0  0  0  0  0  0  0  0  0
   22.2729  -17.9801  -20.3503 N   0  0  0  0  0  0  0  0  0  0  0  0
   21.6378  -16.9646  -19.7645 C   0  0  0  0  0  0  0  0  0  0  0  0
   22.1468  -16.7758  -18.5263 N   0  0  0  0  0  0  0  0  0  0  0  0
   25.5819  -16.1092  -17.7474 C   0  0  0  0  0  0  0  0  0  0  0  0
   25.6736  -15.7971  -19.0982 O   0  0  0  0  0  0  0  0  0  0  0  0
   25.6612  -15.1684  -16.9222 O   0  0  0  0  0  0  0  0  0  0  0  0
  2  1  1  6
  3  2  1  0
  4  3  1  0
  5  6  2  0
  5  2  1  0
  7  5  1  0
  8  9  1  1
  8  7  1  0
 10 18  1  0
 10  9  1  0
 11 10  2  0
 12 11  1  0
 12 13  1  0
 13 14  1  0
 13 18  2  0
 14 15  2  0
 15 16  1  0
 17 16  2  0
 18 17  1  0
 19  8  1  0
 20 19  2  0
 21 19  1  0
 22 29  1  0
 22 21  1  0
 22 23  1  1
 24 23  1  0
 25 24  2  0
 26 27  1  0
 26 25  1  0
 27 28  2  0
 28 24  1  0
 29 30  1  0
 31 29  2  0
M  END
$$$$
