CWH.pdb
     RDKit          3D

 31 33  0  0  1  0  0  0  0  0999 V2000
   28.2926  -24.3018  -16.6126 N   0  0  0  0  0  0  0  0  0  0  0  0
   27.4353  -23.1321  -16.8344 C   0  0  1  0  0  0  0  0  0  0  0  0
   26.4541  -23.4507  -17.9485 C   0  0  0  0  0  0  0  0  0  0  0  0
   25.3556  -22.0505  -18.2050 S   0  0  0  0  0  0  0  0  0  0  0  0
   26.7895  -22.7146  -15.5785 C   0  0  0  0  0  0  0  0  0  0  0  0
   26.4515  -23.6364  -14.7674 O   0  0  0  0  0  0  0  0  0  0  0  0
   26.5055  -21.3909  -15.1762 N   0  0  0  0  0  0  0  0  0  0  0  0
   25.7936  -21.1274  -13.9648 C   0  0  1  0  0  0  0  0  0  0  0  0
   26.3090  -19.9424  -13.1763 C   0  0  0  0  0  0  0  0  0  0  0  0
   27.1982  -20.3585  -12.0497 C   0  0  0  0  0  0  0  0  0  0  0  0
   28.5537  -20.6553  -12.2146 C   0  0  0  0  0  0  0  0  0  0  0  0
   29.0201  -20.9590  -11.0061 N   0  0  0  0  0  0  0  0  0  0  0  0
   28.0581  -20.8773  -10.0833 C   0  0  0  0  0  0  0  0  0  0  0  0
   28.0313  -21.0938   -8.7282 C   0  0  0  0  0  0  0  0  0  0  0  0
   26.8777  -20.9427   -8.0028 C   0  0  0  0  0  0  0  0  0  0  0  0
   25.7315  -20.5632   -8.6778 C   0  0  0  0  0  0  0  0  0  0  0  0
   25.7187  -20.3359  -10.0407 C   0  0  0  0  0  0  0  0  0  0  0  0
   26.9042  -20.4999  -10.7280 C   0  0  0  0  0  0  0  0  0  0  0  0
   24.3293  -21.0373  -14.1636 C   0  0  0  0  0  0  0  0  0  0  0  0
   23.7908  -20.4363  -15.1287 O   0  0  0  0  0  0  0  0  0  0  0  0
   23.4627  -21.6559  -13.2259 N   0  0  0  0  0  0  0  0  0  0  0  0
   22.0177  -21.5807  -13.4143 C   0  0  1  0  0  0  0  0  0  0  0  0
   21.3816  -22.5509  -12.4424 C   0  0  0  0  0  0  0  0  0  0  0  0
   19.9165  -22.5544  -12.5031 C   0  0  0  0  0  0  0  0  0  0  0  0
   19.1221  -21.7398  -13.2935 C   0  0  0  0  0  0  0  0  0  0  0  0
   17.8528  -22.0654  -13.0470 N   0  0  0  0  0  0  0  0  0  0  0  0
   17.8284  -23.0434  -12.1410 C   0  0  0  0  0  0  0  0  0  0  0  0
   19.0960  -23.3593  -11.7925 N   0  0  0  0  0  0  0  0  0  0  0  0
   21.5742  -20.1953  -13.1802 C   0  0  0  0  0  0  0  0  0  0  0  0
   20.5482  -19.6910  -13.9699 O   0  0  0  0  0  0  0  0  0  0  0  0
   22.0677  -19.4407  -12.3089 O   0  0  0  0  0  0  0  0  0  0  0  0
  2  1  1  1
  3  2  1  0
  4  3  1  0
  5  6  2  0
  5  2  1  0
  7  5  1  0
  8  9  1  6
  8  7  1  0
 10 18  1  0
 10  9  1  0
 11 10  2  0
 12 11  1  0
 12 13  1  0
 13 14  1  0
 13 18  2  0
 14 15  2  0
 15 16  1  0
 17 16  2  0
 18 17  1  0
 19  8  1  0
 20 19  2  0
 21 19  1  0
 22 29  1  0
 22 21  1  0
 22 23  1  1
 24 23  1  0
 25 24  2  0
 26 27  1  0
 26 25  1  0
 27 28  2  0
 28 24  1  0
 29 30  1  0
 31 29  2  0
M  END
$$$$
