CWH.pdb
     RDKit          3D

 31 33  0  0  1  0  0  0  0  0999 V2000
   28.9278  -21.1228  -15.0057 N   0  0  0  0  0  0  0  0  0  0  0  0
   28.2463  -20.0678  -14.2476 C   0  0  1  0  0  0  0  0  0  0  0  0
   27.7607  -19.0058  -15.2181 C   0  0  0  0  0  0  0  0  0  0  0  0
   26.8028  -17.7693  -14.3311 S   0  0  0  0  0  0  0  0  0  0  0  0
   27.1772  -20.6369  -13.4097 C   0  0  0  0  0  0  0  0  0  0  0  0
   26.4840  -21.5775  -13.9161 O   0  0  0  0  0  0  0  0  0  0  0  0
   26.8393  -20.2475  -12.0949 N   0  0  0  0  0  0  0  0  0  0  0  0
   25.7277  -20.8370  -11.4163 C   0  0  1  0  0  0  0  0  0  0  0  0
   25.7188  -20.6229   -9.9178 C   0  0  0  0  0  0  0  0  0  0  0  0
   27.0639  -20.8504   -9.3077 C   0  0  0  0  0  0  0  0  0  0  0  0
   28.0939  -21.5334   -9.9599 C   0  0  0  0  0  0  0  0  0  0  0  0
   29.1351  -21.5196   -9.1317 N   0  0  0  0  0  0  0  0  0  0  0  0
   28.8416  -20.8769   -7.9984 C   0  0  0  0  0  0  0  0  0  0  0  0
   29.5548  -20.6039   -6.8579 C   0  0  0  0  0  0  0  0  0  0  0  0
   28.9955  -19.9151   -5.8127 C   0  0  0  0  0  0  0  0  0  0  0  0
   27.6823  -19.4988   -5.9382 C   0  0  0  0  0  0  0  0  0  0  0  0
   26.9321  -19.7542   -7.0702 C   0  0  0  0  0  0  0  0  0  0  0  0
   27.5385  -20.4502   -8.0961 C   0  0  0  0  0  0  0  0  0  0  0  0
   24.4245  -20.4674  -12.0137 C   0  0  0  0  0  0  0  0  0  0  0  0
   24.0463  -19.2800  -12.1858 O   0  0  0  0  0  0  0  0  0  0  0  0
   23.5337  -21.4927  -12.4238 N   0  0  0  0  0  0  0  0  0  0  0  0
   22.2953  -21.1450  -13.1125 C   0  0  1  0  0  0  0  0  0  0  0  0
   21.8277  -22.3772  -13.8566 C   0  0  0  0  0  0  0  0  0  0  0  0
   21.2869  -22.0799  -15.1868 C   0  0  0  0  0  0  0  0  0  0  0  0
   21.1116  -20.8235  -15.7437 C   0  0  0  0  0  0  0  0  0  0  0  0
   20.5966  -20.9986  -16.9611 N   0  0  0  0  0  0  0  0  0  0  0  0
   20.4465  -22.3053  -17.1801 C   0  0  0  0  0  0  0  0  0  0  0  0
   20.8682  -22.9903  -16.0934 N   0  0  0  0  0  0  0  0  0  0  0  0
   21.3050  -20.6911  -12.1205 C   0  0  0  0  0  0  0  0  0  0  0  0
   20.4270  -19.6774  -12.4841 O   0  0  0  0  0  0  0  0  0  0  0  0
   21.2057  -21.1651  -10.9639 O   0  0  0  0  0  0  0  0  0  0  0  0
  2  1  1  6
  3  2  1  0
  4  3  1  0
  5  6  2  0
  5  2  1  0
  7  5  1  0
  8  9  1  1
  8  7  1  0
 10 18  1  0
 10  9  1  0
 11 10  2  0
 12 11  1  0
 12 13  1  0
 13 14  1  0
 13 18  2  0
 14 15  2  0
 15 16  1  0
 17 16  2  0
 18 17  1  0
 19  8  1  0
 20 19  2  0
 21 19  1  0
 22 29  1  0
 22 21  1  0
 22 23  1  1
 24 23  1  0
 25 24  2  0
 26 27  1  0
 26 25  1  0
 27 28  2  0
 28 24  1  0
 29 30  1  0
 31 29  2  0
M  END
$$$$
