CWH.pdb
     RDKit          3D

 31 33  0  0  1  0  0  0  0  0999 V2000
   29.1695  -21.2840  -14.9975 N   0  0  0  0  0  0  0  0  0  0  0  0
   28.6159  -20.2121  -14.1627 C   0  0  1  0  0  0  0  0  0  0  0  0
   28.2755  -19.0286  -15.0509 C   0  0  0  0  0  0  0  0  0  0  0  0
   27.6602  -17.6732  -14.0421 S   0  0  0  0  0  0  0  0  0  0  0  0
   27.4761  -20.7050  -13.3711 C   0  0  0  0  0  0  0  0  0  0  0  0
   26.7270  -21.5782  -13.9171 O   0  0  0  0  0  0  0  0  0  0  0  0
   27.1258  -20.3096  -12.0613 N   0  0  0  0  0  0  0  0  0  0  0  0
   26.0004  -20.8872  -11.3953 C   0  0  1  0  0  0  0  0  0  0  0  0
   25.9570  -20.6404   -9.9025 C   0  0  0  0  0  0  0  0  0  0  0  0
   27.2503  -20.9824   -9.2366 C   0  0  0  0  0  0  0  0  0  0  0  0
   28.2410  -21.7590   -9.8432 C   0  0  0  0  0  0  0  0  0  0  0  0
   29.2446  -21.8321   -8.9728 N   0  0  0  0  0  0  0  0  0  0  0  0
   28.9636  -21.1576   -7.8549 C   0  0  0  0  0  0  0  0  0  0  0  0
   29.6512  -20.9411   -6.6869 C   0  0  0  0  0  0  0  0  0  0  0  0
   29.1134  -20.1977   -5.6681 C   0  0  0  0  0  0  0  0  0  0  0  0
   27.8489  -19.6671   -5.8492 C   0  0  0  0  0  0  0  0  0  0  0  0
   27.1257  -19.8628   -7.0103 C   0  0  0  0  0  0  0  0  0  0  0  0
   27.7089  -20.6173   -8.0078 C   0  0  0  0  0  0  0  0  0  0  0  0
   24.7102  -20.5344  -12.0301 C   0  0  0  0  0  0  0  0  0  0  0  0
   24.2967  -19.3538  -12.1632 O   0  0  0  0  0  0  0  0  0  0  0  0
   23.8747  -21.5689  -12.5247 N   0  0  0  0  0  0  0  0  0  0  0  0
   22.5799  -21.2379  -13.1104 C   0  0  1  0  0  0  0  0  0  0  0  0
   22.1020  -22.4544  -13.8734 C   0  0  0  0  0  0  0  0  0  0  0  0
   20.7751  -22.2779  -14.4723 C   0  0  0  0  0  0  0  0  0  0  0  0
   20.4411  -21.4030  -15.4933 C   0  0  0  0  0  0  0  0  0  0  0  0
   19.1394  -21.5580  -15.7371 N   0  0  0  0  0  0  0  0  0  0  0  0
   18.6558  -22.4882  -14.9133 C   0  0  0  0  0  0  0  0  0  0  0  0
   19.6532  -22.9452  -14.1232 N   0  0  0  0  0  0  0  0  0  0  0  0
   21.6477  -20.8611  -12.0336 C   0  0  0  0  0  0  0  0  0  0  0  0
   20.5547  -20.0669  -12.3580 O   0  0  0  0  0  0  0  0  0  0  0  0
   21.7806  -21.2144  -10.8379 O   0  0  0  0  0  0  0  0  0  0  0  0
  2  1  1  6
  3  2  1  0
  4  3  1  0
  5  6  2  0
  5  2  1  0
  7  5  1  0
  8  9  1  1
  8  7  1  0
 10 18  1  0
 10  9  1  0
 11 10  2  0
 12 11  1  0
 12 13  1  0
 13 14  1  0
 13 18  2  0
 14 15  2  0
 15 16  1  0
 17 16  2  0
 18 17  1  0
 19  8  1  0
 20 19  2  0
 21 19  1  0
 22 29  1  0
 22 21  1  0
 22 23  1  1
 24 23  1  0
 25 24  2  0
 26 27  1  0
 26 25  1  0
 27 28  2  0
 28 24  1  0
 29 30  1  0
 31 29  2  0
M  END
$$$$
