CWH.pdb
     RDKit          3D

 31 33  0  0  1  0  0  0  0  0999 V2000
   28.7336  -21.2913  -14.2480 N   0  0  0  0  0  0  0  0  0  0  0  0
   28.8204  -20.8149  -12.8632 C   0  0  1  0  0  0  0  0  0  0  0  0
   29.0302  -19.3112  -12.8770 C   0  0  0  0  0  0  0  0  0  0  0  0
   28.5076  -18.6426  -14.4622 S   0  0  0  0  0  0  0  0  0  0  0  0
   27.6406  -21.2407  -12.0915 C   0  0  0  0  0  0  0  0  0  0  0  0
   26.7303  -21.8670  -12.7246 O   0  0  0  0  0  0  0  0  0  0  0  0
   27.4125  -21.0275  -10.7141 N   0  0  0  0  0  0  0  0  0  0  0  0
   26.1839  -21.4271  -10.1020 C   0  0  1  0  0  0  0  0  0  0  0  0
   26.2687  -21.6515   -8.6074 C   0  0  0  0  0  0  0  0  0  0  0  0
   26.8330  -20.4679   -7.8906 C   0  0  0  0  0  0  0  0  0  0  0  0
   26.6314  -19.1509   -8.3119 C   0  0  0  0  0  0  0  0  0  0  0  0
   27.2539  -18.3757   -7.4279 N   0  0  0  0  0  0  0  0  0  0  0  0
   27.8381  -19.1050   -6.4737 C   0  0  0  0  0  0  0  0  0  0  0  0
   28.5875  -18.7854   -5.3691 C   0  0  0  0  0  0  0  0  0  0  0  0
   29.0862  -19.7555   -4.5385 C   0  0  0  0  0  0  0  0  0  0  0  0
   28.8124  -21.0763   -4.8452 C   0  0  0  0  0  0  0  0  0  0  0  0
   28.0619  -21.4377   -5.9477 C   0  0  0  0  0  0  0  0  0  0  0  0
   27.5808  -20.4260   -6.7537 C   0  0  0  0  0  0  0  0  0  0  0  0
   25.0524  -20.5351  -10.4423 C   0  0  0  0  0  0  0  0  0  0  0  0
   25.1667  -19.2932  -10.6070 O   0  0  0  0  0  0  0  0  0  0  0  0
   23.7551  -21.0885  -10.5970 N   0  0  0  0  0  0  0  0  0  0  0  0
   22.7832  -20.4279  -11.4617 C   0  0  1  0  0  0  0  0  0  0  0  0
   23.0832  -20.8459  -12.8851 C   0  0  0  0  0  0  0  0  0  0  0  0
   22.1669  -20.2570  -13.8669 C   0  0  0  0  0  0  0  0  0  0  0  0
   21.1912  -20.9252  -14.5885 C   0  0  0  0  0  0  0  0  0  0  0  0
   20.5865  -20.0249  -15.3642 N   0  0  0  0  0  0  0  0  0  0  0  0
   21.1447  -18.8325  -15.1538 C   0  0  0  0  0  0  0  0  0  0  0  0
   22.1246  -18.9562  -14.2304 N   0  0  0  0  0  0  0  0  0  0  0  0
   21.4253  -20.8207  -11.0464 C   0  0  0  0  0  0  0  0  0  0  0  0
   20.3756  -19.9543  -11.3257 O   0  0  0  0  0  0  0  0  0  0  0  0
   21.1579  -21.8930  -10.4540 O   0  0  0  0  0  0  0  0  0  0  0  0
  2  1  1  6
  3  2  1  0
  4  3  1  0
  5  6  2  0
  5  2  1  0
  7  5  1  0
  8  9  1  1
  8  7  1  0
 10 18  1  0
 10  9  1  0
 11 10  2  0
 12 11  1  0
 12 13  1  0
 13 14  1  0
 13 18  2  0
 14 15  2  0
 15 16  1  0
 17 16  2  0
 18 17  1  0
 19  8  1  0
 20 19  2  0
 21 19  1  0
 22 29  1  0
 22 21  1  0
 22 23  1  6
 24 23  1  0
 25 24  2  0
 26 27  1  0
 26 25  1  0
 27 28  2  0
 28 24  1  0
 29 30  1  0
 31 29  2  0
M  END
$$$$
