CWH.pdb
     RDKit          3D

 31 33  0  0  1  0  0  0  0  0999 V2000
   28.8138  -22.4997  -16.3731 N   0  0  0  0  0  0  0  0  0  0  0  0
   28.0343  -21.2604  -16.2804 C   0  0  1  0  0  0  0  0  0  0  0  0
   27.3029  -21.0448  -17.5934 C   0  0  0  0  0  0  0  0  0  0  0  0
   28.4952  -20.7757  -18.9122 S   0  0  0  0  0  0  0  0  0  0  0  0
   27.1459  -21.2909  -15.1063 C   0  0  0  0  0  0  0  0  0  0  0  0
   26.8065  -22.4371  -14.6672 O   0  0  0  0  0  0  0  0  0  0  0  0
   26.6292  -20.1754  -14.4110 N   0  0  0  0  0  0  0  0  0  0  0  0
   25.7091  -20.3446  -13.3301 C   0  0  1  0  0  0  0  0  0  0  0  0
   25.9549  -19.4351  -12.1453 C   0  0  0  0  0  0  0  0  0  0  0  0
   26.6961  -20.1269  -11.0475 C   0  0  0  0  0  0  0  0  0  0  0  0
   26.0998  -20.5036   -9.8412 C   0  0  0  0  0  0  0  0  0  0  0  0
   27.0470  -21.1070   -9.1279 N   0  0  0  0  0  0  0  0  0  0  0  0
   28.2043  -21.1411   -9.7937 C   0  0  0  0  0  0  0  0  0  0  0  0
   29.4495  -21.6348   -9.4945 C   0  0  0  0  0  0  0  0  0  0  0  0
   30.4924  -21.5272  -10.3780 C   0  0  0  0  0  0  0  0  0  0  0  0
   30.2552  -20.9027  -11.5893 C   0  0  0  0  0  0  0  0  0  0  0  0
   29.0158  -20.3934  -11.9269 C   0  0  0  0  0  0  0  0  0  0  0  0
   27.9970  -20.5260  -11.0055 C   0  0  0  0  0  0  0  0  0  0  0  0
   24.2941  -20.2847  -13.7616 C   0  0  0  0  0  0  0  0  0  0  0  0
   23.7731  -19.2800  -14.3108 O   0  0  0  0  0  0  0  0  0  0  0  0
   23.4576  -21.4119  -13.5552 N   0  0  0  0  0  0  0  0  0  0  0  0
   22.0366  -21.3290  -13.8756 C   0  0  1  0  0  0  0  0  0  0  0  0
   21.6971  -22.5186  -14.7474 C   0  0  0  0  0  0  0  0  0  0  0  0
   22.3248  -22.4640  -16.0716 C   0  0  0  0  0  0  0  0  0  0  0  0
   23.3004  -23.3192  -16.5574 C   0  0  0  0  0  0  0  0  0  0  0  0
   23.5932  -22.9225  -17.7963 N   0  0  0  0  0  0  0  0  0  0  0  0
   22.8427  -21.8620  -18.0963 C   0  0  0  0  0  0  0  0  0  0  0  0
   22.0515  -21.5635  -17.0413 N   0  0  0  0  0  0  0  0  0  0  0  0
   21.2611  -21.3243  -12.6229 C   0  0  0  0  0  0  0  0  0  0  0  0
   21.9045  -21.6990  -11.4497 O   0  0  0  0  0  0  0  0  0  0  0  0
   20.0516  -21.0019  -12.5502 O   0  0  0  0  0  0  0  0  0  0  0  0
  2  1  1  6
  3  2  1  0
  4  3  1  0
  5  6  2  0
  5  2  1  0
  7  5  1  0
  8  9  1  1
  8  7  1  0
 10 18  1  0
 10  9  1  0
 11 10  2  0
 12 11  1  0
 12 13  1  0
 13 14  1  0
 13 18  2  0
 14 15  2  0
 15 16  1  0
 17 16  2  0
 18 17  1  0
 19  8  1  0
 20 19  2  0
 21 19  1  0
 22 29  1  0
 22 21  1  0
 22 23  1  6
 24 23  1  0
 25 24  2  0
 26 27  1  0
 26 25  1  0
 27 28  2  0
 28 24  1  0
 29 30  1  0
 31 29  2  0
M  END
$$$$
