CWH.pdb
     RDKit          3D

 31 33  0  0  1  0  0  0  0  0999 V2000
   25.9974  -17.6249  -13.6940 N   0  0  0  0  0  0  0  0  0  0  0  0
   26.2395  -19.0680  -13.7990 C   0  0  1  0  0  0  0  0  0  0  0  0
   27.4597  -19.2956  -14.6735 C   0  0  0  0  0  0  0  0  0  0  0  0
   28.2543  -17.7210  -15.0237 S   0  0  0  0  0  0  0  0  0  0  0  0
   26.3480  -19.6761  -12.4621 C   0  0  0  0  0  0  0  0  0  0  0  0
   26.3228  -20.9479  -12.4011 O   0  0  0  0  0  0  0  0  0  0  0  0
   26.4795  -18.9924  -11.2333 N   0  0  0  0  0  0  0  0  0  0  0  0
   26.5957  -19.7093  -10.0019 C   0  0  1  0  0  0  0  0  0  0  0  0
   27.6684  -19.1892   -9.0690 C   0  0  0  0  0  0  0  0  0  0  0  0
   27.8192  -20.0427   -7.8516 C   0  0  0  0  0  0  0  0  0  0  0  0
   27.8150  -21.4394   -7.8915 C   0  0  0  0  0  0  0  0  0  0  0  0
   27.9943  -21.8502   -6.6388 N   0  0  0  0  0  0  0  0  0  0  0  0
   28.1119  -20.8145   -5.8038 C   0  0  0  0  0  0  0  0  0  0  0  0
   28.2985  -20.7138   -4.4477 C   0  0  0  0  0  0  0  0  0  0  0  0
   28.3780  -19.4946   -3.8257 C   0  0  0  0  0  0  0  0  0  0  0  0
   28.2640  -18.3587   -4.6068 C   0  0  0  0  0  0  0  0  0  0  0  0
   28.0758  -18.4192   -5.9744 C   0  0  0  0  0  0  0  0  0  0  0  0
   28.0029  -19.6689   -6.5555 C   0  0  0  0  0  0  0  0  0  0  0  0
   25.3030  -19.8571   -9.2957 C   0  0  0  0  0  0  0  0  0  0  0  0
   24.5376  -18.8946   -9.0304 O   0  0  0  0  0  0  0  0  0  0  0  0
   24.8808  -21.1476   -8.8843 N   0  0  0  0  0  0  0  0  0  0  0  0
   23.6256  -21.3026   -8.1568 C   0  0  1  0  0  0  0  0  0  0  0  0
   22.7749  -22.2918   -8.9238 C   0  0  0  0  0  0  0  0  0  0  0  0
   21.4742  -22.5459   -8.2960 C   0  0  0  0  0  0  0  0  0  0  0  0
   21.0700  -22.1284   -7.0384 C   0  0  0  0  0  0  0  0  0  0  0  0
   19.8243  -22.5679   -6.8570 N   0  0  0  0  0  0  0  0  0  0  0  0
   19.4421  -23.2370   -7.9451 C   0  0  0  0  0  0  0  0  0  0  0  0
   20.4498  -23.2341   -8.8465 N   0  0  0  0  0  0  0  0  0  0  0  0
   23.9169  -21.7694   -6.7901 C   0  0  0  0  0  0  0  0  0  0  0  0
   23.4615  -21.0048   -5.7229 O   0  0  0  0  0  0  0  0  0  0  0  0
   24.5529  -22.8182   -6.5298 O   0  0  0  0  0  0  0  0  0  0  0  0
  2  1  1  1
  3  2  1  0
  4  3  1  0
  5  6  2  0
  5  2  1  0
  7  5  1  0
  8  9  1  1
  8  7  1  0
 10 18  1  0
 10  9  1  0
 11 10  2  0
 12 11  1  0
 12 13  1  0
 13 14  1  0
 13 18  2  0
 14 15  2  0
 15 16  1  0
 17 16  2  0
 18 17  1  0
 19  8  1  0
 20 19  2  0
 21 19  1  0
 22 29  1  0
 22 21  1  0
 22 23  1  6
 24 23  1  0
 25 24  2  0
 26 27  1  0
 26 25  1  0
 27 28  2  0
 28 24  1  0
 29 30  1  0
 31 29  2  0
M  END
$$$$
