CWH.pdb
     RDKit          3D

 31 33  0  0  1  0  0  0  0  0999 V2000
   28.6757  -22.5520  -15.3899 N   0  0  0  0  0  0  0  0  0  0  0  0
   27.8495  -21.3678  -15.1306 C   0  0  1  0  0  0  0  0  0  0  0  0
   27.1663  -20.9572  -16.4228 C   0  0  0  0  0  0  0  0  0  0  0  0
   26.0785  -19.5592  -16.1136 S   0  0  0  0  0  0  0  0  0  0  0  0
   26.9146  -21.6184  -14.0206 C   0  0  0  0  0  0  0  0  0  0  0  0
   26.2909  -22.7287  -14.0290 O   0  0  0  0  0  0  0  0  0  0  0  0
   26.6368  -20.7518  -12.9406 N   0  0  0  0  0  0  0  0  0  0  0  0
   25.6043  -21.0569  -12.0001 C   0  0  1  0  0  0  0  0  0  0  0  0
   25.7919  -20.4325  -10.6340 C   0  0  0  0  0  0  0  0  0  0  0  0
   27.0440  -20.9019   -9.9667 C   0  0  0  0  0  0  0  0  0  0  0  0
   28.0071  -21.6831  -10.6106 C   0  0  0  0  0  0  0  0  0  0  0  0
   28.9790  -21.8847   -9.7245 N   0  0  0  0  0  0  0  0  0  0  0  0
   28.7032  -21.2878   -8.5620 C   0  0  0  0  0  0  0  0  0  0  0  0
   29.3670  -21.2069   -7.3634 C   0  0  0  0  0  0  0  0  0  0  0  0
   28.8418  -20.5185   -6.3004 C   0  0  0  0  0  0  0  0  0  0  0  0
   27.6148  -19.9023   -6.4684 C   0  0  0  0  0  0  0  0  0  0  0  0
   26.9164  -19.9609   -7.6594 C   0  0  0  0  0  0  0  0  0  0  0  0
   27.4858  -20.6649   -8.7010 C   0  0  0  0  0  0  0  0  0  0  0  0
   24.2466  -20.7877  -12.5256 C   0  0  0  0  0  0  0  0  0  0  0  0
   23.8697  -19.6628  -12.9442 O   0  0  0  0  0  0  0  0  0  0  0  0
   23.2983  -21.8421  -12.5701 N   0  0  0  0  0  0  0  0  0  0  0  0
   21.9566  -21.5896  -13.0847 C   0  0  1  0  0  0  0  0  0  0  0  0
   21.2723  -22.9298  -13.2465 C   0  0  0  0  0  0  0  0  0  0  0  0
   19.9062  -22.8232  -13.7689 C   0  0  0  0  0  0  0  0  0  0  0  0
   19.5301  -22.2899  -14.9910 C   0  0  0  0  0  0  0  0  0  0  0  0
   18.2026  -22.3854  -15.0727 N   0  0  0  0  0  0  0  0  0  0  0  0
   17.7434  -22.9531  -13.9571 C   0  0  0  0  0  0  0  0  0  0  0  0
   18.7828  -23.2311  -13.1384 N   0  0  0  0  0  0  0  0  0  0  0  0
   21.2377  -20.7137  -12.1431 C   0  0  0  0  0  0  0  0  0  0  0  0
   20.3278  -19.7993  -12.6593 O   0  0  0  0  0  0  0  0  0  0  0  0
   21.3974  -20.7428  -10.8998 O   0  0  0  0  0  0  0  0  0  0  0  0
  2  1  1  6
  3  2  1  0
  4  3  1  0
  5  6  2  0
  5  2  1  0
  7  5  1  0
  8  9  1  1
  8  7  1  0
 10 18  1  0
 10  9  1  0
 11 10  2  0
 12 11  1  0
 12 13  1  0
 13 14  1  0
 13 18  2  0
 14 15  2  0
 15 16  1  0
 17 16  2  0
 18 17  1  0
 19  8  1  0
 20 19  2  0
 21 19  1  0
 22 29  1  0
 22 21  1  0
 22 23  1  1
 24 23  1  0
 25 24  2  0
 26 27  1  0
 26 25  1  0
 27 28  2  0
 28 24  1  0
 29 30  1  0
 31 29  2  0
M  END
$$$$
