CWH.pdb
     RDKit          3D

 31 33  0  0  1  0  0  0  0  0999 V2000
   28.7809  -21.3886  -14.7790 N   0  0  0  0  0  0  0  0  0  0  0  0
   28.2317  -20.3132  -13.9459 C   0  0  1  0  0  0  0  0  0  0  0  0
   27.6614  -19.2368  -14.8523 C   0  0  0  0  0  0  0  0  0  0  0  0
   28.9998  -18.4017  -15.7151 S   0  0  0  0  0  0  0  0  0  0  0  0
   27.2589  -20.8492  -12.9790 C   0  0  0  0  0  0  0  0  0  0  0  0
   26.5406  -21.8281  -13.3631 O   0  0  0  0  0  0  0  0  0  0  0  0
   27.0389  -20.3896  -11.6618 N   0  0  0  0  0  0  0  0  0  0  0  0
   25.9087  -20.8337  -10.9074 C   0  0  1  0  0  0  0  0  0  0  0  0
   25.9240  -20.4248   -9.4500 C   0  0  0  0  0  0  0  0  0  0  0  0
   27.2240  -20.7477   -8.7874 C   0  0  0  0  0  0  0  0  0  0  0  0
   28.2509  -21.4526   -9.4208 C   0  0  0  0  0  0  0  0  0  0  0  0
   29.2486  -21.5290   -8.5438 N   0  0  0  0  0  0  0  0  0  0  0  0
   28.9301  -20.9234   -7.3969 C   0  0  0  0  0  0  0  0  0  0  0  0
   29.5975  -20.7384   -6.2119 C   0  0  0  0  0  0  0  0  0  0  0  0
   29.0206  -20.0693   -5.1635 C   0  0  0  0  0  0  0  0  0  0  0  0
   27.7373  -19.5813   -5.3322 C   0  0  0  0  0  0  0  0  0  0  0  0
   27.0334  -19.7472   -6.5097 C   0  0  0  0  0  0  0  0  0  0  0  0
   27.6560  -20.4268   -7.5369 C   0  0  0  0  0  0  0  0  0  0  0  0
   24.6175  -20.4866  -11.5432 C   0  0  0  0  0  0  0  0  0  0  0  0
   24.3459  -19.3444  -11.9951 O   0  0  0  0  0  0  0  0  0  0  0  0
   23.6130  -21.4815  -11.6618 N   0  0  0  0  0  0  0  0  0  0  0  0
   22.3101  -21.1340  -12.2192 C   0  0  1  0  0  0  0  0  0  0  0  0
   22.0395  -22.0821  -13.3673 C   0  0  0  0  0  0  0  0  0  0  0  0
   22.6018  -21.6237  -14.6417 C   0  0  0  0  0  0  0  0  0  0  0  0
   23.2988  -20.4464  -14.8594 C   0  0  0  0  0  0  0  0  0  0  0  0
   23.6311  -20.4163  -16.1503 N   0  0  0  0  0  0  0  0  0  0  0  0
   23.1710  -21.5210  -16.7383 C   0  0  0  0  0  0  0  0  0  0  0  0
   22.5313  -22.2804  -15.8206 N   0  0  0  0  0  0  0  0  0  0  0  0
   21.2903  -21.2436  -11.1615 C   0  0  0  0  0  0  0  0  0  0  0  0
   19.9872  -20.8674  -11.4629 O   0  0  0  0  0  0  0  0  0  0  0  0
   21.5272  -21.6571  -10.0017 O   0  0  0  0  0  0  0  0  0  0  0  0
  2  1  1  6
  3  2  1  0
  4  3  1  0
  5  6  2  0
  5  2  1  0
  7  5  1  0
  8  9  1  1
  8  7  1  0
 10 18  1  0
 10  9  1  0
 11 10  2  0
 12 11  1  0
 12 13  1  0
 13 14  1  0
 13 18  2  0
 14 15  2  0
 15 16  1  0
 17 16  2  0
 18 17  1  0
 19  8  1  0
 20 19  2  0
 21 19  1  0
 22 29  1  0
 22 21  1  0
 22 23  1  6
 24 23  1  0
 25 24  2  0
 26 27  1  0
 26 25  1  0
 27 28  2  0
 28 24  1  0
 29 30  1  0
 31 29  2  0
M  END
$$$$
