CWH.pdb
     RDKit          3D

 31 33  0  0  1  0  0  0  0  0999 V2000
   17.8905  -23.0961    2.6975 N   0  0  0  0  0  0  0  0  0  0  0  0
   17.4903  -22.8322    4.0840 C   0  0  1  0  0  0  0  0  0  0  0  0
   18.2575  -23.7692    4.9999 C   0  0  0  0  0  0  0  0  0  0  0  0
   17.8383  -25.4735    4.6092 S   0  0  0  0  0  0  0  0  0  0  0  0
   17.6652  -21.4076    4.4139 C   0  0  0  0  0  0  0  0  0  0  0  0
   18.8391  -20.9271    4.2998 O   0  0  0  0  0  0  0  0  0  0  0  0
   16.6610  -20.5128    4.8447 N   0  0  0  0  0  0  0  0  0  0  0  0
   16.9449  -19.1243    5.0322 C   0  0  1  0  0  0  0  0  0  0  0  0
   16.2519  -18.2017    4.0524 C   0  0  0  0  0  0  0  0  0  0  0  0
   17.1139  -17.8795    2.8749 C   0  0  0  0  0  0  0  0  0  0  0  0
   17.3987  -18.7983    1.8614 C   0  0  0  0  0  0  0  0  0  0  0  0
   18.1651  -18.1592    0.9814 N   0  0  0  0  0  0  0  0  0  0  0  0
   18.3890  -16.8989    1.3625 C   0  0  0  0  0  0  0  0  0  0  0  0
   19.1040  -15.8622    0.8166 C   0  0  0  0  0  0  0  0  0  0  0  0
   19.1782  -14.6411    1.4355 C   0  0  0  0  0  0  0  0  0  0  0  0
   18.5082  -14.4794    2.6348 C   0  0  0  0  0  0  0  0  0  0  0  0
   17.7781  -15.4987    3.2157 C   0  0  0  0  0  0  0  0  0  0  0  0
   17.7322  -16.7095    2.5551 C   0  0  0  0  0  0  0  0  0  0  0  0
   16.7327  -18.6748    6.4267 C   0  0  0  0  0  0  0  0  0  0  0  0
   15.7744  -19.0577    7.1461 O   0  0  0  0  0  0  0  0  0  0  0  0
   17.6487  -17.7603    7.0078 N   0  0  0  0  0  0  0  0  0  0  0  0
   17.3692  -17.1894    8.3211 C   0  0  1  0  0  0  0  0  0  0  0  0
   18.6594  -17.2150    9.1118 C   0  0  0  0  0  0  0  0  0  0  0  0
   18.5027  -16.7431   10.4914 C   0  0  0  0  0  0  0  0  0  0  0  0
   17.3286  -16.3111   11.0866 C   0  0  0  0  0  0  0  0  0  0  0  0
   17.6230  -15.9720   12.3420 N   0  0  0  0  0  0  0  0  0  0  0  0
   18.9246  -16.1752   12.5479 C   0  0  0  0  0  0  0  0  0  0  0  0
   19.4857  -16.6522   11.4141 N   0  0  0  0  0  0  0  0  0  0  0  0
   16.8546  -15.8195    8.1500 C   0  0  0  0  0  0  0  0  0  0  0  0
   16.1841  -15.2310    9.2151 O   0  0  0  0  0  0  0  0  0  0  0  0
   16.9850  -15.1497    7.0980 O   0  0  0  0  0  0  0  0  0  0  0  0
  2  1  1  6
  3  2  1  0
  4  3  1  0
  5  6  2  0
  5  2  1  0
  7  5  1  0
  8  9  1  6
  8  7  1  0
 10 18  1  0
 10  9  1  0
 11 10  2  0
 12 11  1  0
 12 13  1  0
 13 14  1  0
 13 18  2  0
 14 15  2  0
 15 16  1  0
 17 16  2  0
 18 17  1  0
 19  8  1  0
 20 19  2  0
 21 19  1  0
 22 29  1  0
 22 21  1  0
 22 23  1  1
 24 23  1  0
 25 24  2  0
 26 27  1  0
 26 25  1  0
 27 28  2  0
 28 24  1  0
 29 30  1  0
 31 29  2  0
M  END
$$$$
