CWH.pdb
     RDKit          3D

 31 33  0  0  1  0  0  0  0  0999 V2000
   28.5588  -24.0005  -16.5627 N   0  0  0  0  0  0  0  0  0  0  0  0
   27.7560  -22.7911  -16.7743 C   0  0  1  0  0  0  0  0  0  0  0  0
   26.9212  -22.9732  -18.0295 C   0  0  0  0  0  0  0  0  0  0  0  0
   27.0140  -21.4873  -19.0379 S   0  0  0  0  0  0  0  0  0  0  0  0
   26.9607  -22.4779  -15.5751 C   0  0  0  0  0  0  0  0  0  0  0  0
   26.3228  -23.4396  -15.0364 O   0  0  0  0  0  0  0  0  0  0  0  0
   26.8318  -21.2155  -14.9551 N   0  0  0  0  0  0  0  0  0  0  0  0
   25.9590  -21.0307  -13.8381 C   0  0  1  0  0  0  0  0  0  0  0  0
   26.3535  -19.9015  -12.9104 C   0  0  0  0  0  0  0  0  0  0  0  0
   27.3566  -20.3340  -11.8905 C   0  0  0  0  0  0  0  0  0  0  0  0
   28.6752  -20.6693  -12.2089 C   0  0  0  0  0  0  0  0  0  0  0  0
   29.2710  -20.9772  -11.0598 N   0  0  0  0  0  0  0  0  0  0  0  0
   28.4257  -20.8623  -10.0322 C   0  0  0  0  0  0  0  0  0  0  0  0
   28.5512  -21.0683   -8.6811 C   0  0  0  0  0  0  0  0  0  0  0  0
   27.4944  -20.8803   -7.8281 C   0  0  0  0  0  0  0  0  0  0  0  0
   26.2878  -20.4741   -8.3690 C   0  0  0  0  0  0  0  0  0  0  0  0
   26.1223  -20.2561   -9.7235 C   0  0  0  0  0  0  0  0  0  0  0  0
   27.2149  -20.4578  -10.5422 C   0  0  0  0  0  0  0  0  0  0  0  0
   24.5351  -20.9242  -14.2294 C   0  0  0  0  0  0  0  0  0  0  0  0
   24.1252  -20.2246  -15.1912 O   0  0  0  0  0  0  0  0  0  0  0  0
   23.5579  -21.6428  -13.4934 N   0  0  0  0  0  0  0  0  0  0  0  0
   22.1472  -21.5151  -13.8435 C   0  0  1  0  0  0  0  0  0  0  0  0
   21.3837  -22.5425  -13.0360 C   0  0  0  0  0  0  0  0  0  0  0  0
   19.9369  -22.5060  -13.2722 C   0  0  0  0  0  0  0  0  0  0  0  0
   19.2243  -21.4778  -13.8676 C   0  0  0  0  0  0  0  0  0  0  0  0
   17.9426  -21.8446  -13.8877 N   0  0  0  0  0  0  0  0  0  0  0  0
   17.8324  -23.0516  -13.3320 C   0  0  0  0  0  0  0  0  0  0  0  0
   19.0560  -23.4771  -12.9451 N   0  0  0  0  0  0  0  0  0  0  0  0
   21.7018  -20.1416  -13.5505 C   0  0  0  0  0  0  0  0  0  0  0  0
   22.1868  -19.5234  -12.4045 O   0  0  0  0  0  0  0  0  0  0  0  0
   20.9089  -19.4939  -14.2744 O   0  0  0  0  0  0  0  0  0  0  0  0
  2  1  1  1
  3  2  1  0
  4  3  1  0
  5  6  2  0
  5  2  1  0
  7  5  1  0
  8  9  1  6
  8  7  1  0
 10 18  1  0
 10  9  1  0
 11 10  2  0
 12 11  1  0
 12 13  1  0
 13 14  1  0
 13 18  2  0
 14 15  2  0
 15 16  1  0
 17 16  2  0
 18 17  1  0
 19  8  1  0
 20 19  2  0
 21 19  1  0
 22 29  1  0
 22 21  1  0
 22 23  1  1
 24 23  1  0
 25 24  2  0
 26 27  1  0
 26 25  1  0
 27 28  2  0
 28 24  1  0
 29 30  1  0
 31 29  2  0
M  END
$$$$
