CWH.pdb
     RDKit          3D

 31 33  0  0  1  0  0  0  0  0999 V2000
   27.9784  -22.8332  -16.8664 N   0  0  0  0  0  0  0  0  0  0  0  0
   27.8722  -21.5122  -16.2373 C   0  0  1  0  0  0  0  0  0  0  0  0
   27.1211  -20.5842  -17.1754 C   0  0  0  0  0  0  0  0  0  0  0  0
   28.1222  -20.2588  -18.6331 S   0  0  0  0  0  0  0  0  0  0  0  0
   27.2648  -21.6201  -14.9000 C   0  0  0  0  0  0  0  0  0  0  0  0
   26.2095  -22.3257  -14.7990 O   0  0  0  0  0  0  0  0  0  0  0  0
   27.7340  -21.0206  -13.7104 N   0  0  0  0  0  0  0  0  0  0  0  0
   27.0252  -21.1779  -12.4789 C   0  0  1  0  0  0  0  0  0  0  0  0
   27.8587  -20.9412  -11.2376 C   0  0  0  0  0  0  0  0  0  0  0  0
   27.0183  -20.8298  -10.0069 C   0  0  0  0  0  0  0  0  0  0  0  0
   25.6643  -21.1733   -9.9717 C   0  0  0  0  0  0  0  0  0  0  0  0
   25.2588  -20.9690   -8.7211 N   0  0  0  0  0  0  0  0  0  0  0  0
   26.2579  -20.5194   -7.9574 C   0  0  0  0  0  0  0  0  0  0  0  0
   26.3461  -20.1618   -6.6352 C   0  0  0  0  0  0  0  0  0  0  0  0
   27.5226  -19.7130   -6.0930 C   0  0  0  0  0  0  0  0  0  0  0  0
   28.6282  -19.6289   -6.9200 C   0  0  0  0  0  0  0  0  0  0  0  0
   28.5791  -19.9799   -8.2557 C   0  0  0  0  0  0  0  0  0  0  0  0
   27.3730  -20.4267   -8.7559 C   0  0  0  0  0  0  0  0  0  0  0  0
   25.7685  -20.3965  -12.4322 C   0  0  0  0  0  0  0  0  0  0  0  0
   25.7279  -19.1394  -12.4076 O   0  0  0  0  0  0  0  0  0  0  0  0
   24.5261  -21.0813  -12.4135 N   0  0  0  0  0  0  0  0  0  0  0  0
   23.2822  -20.3312  -12.5511 C   0  0  1  0  0  0  0  0  0  0  0  0
   22.6096  -20.7963  -13.8246 C   0  0  0  0  0  0  0  0  0  0  0  0
   23.0465  -20.0573  -15.0135 C   0  0  0  0  0  0  0  0  0  0  0  0
   23.9446  -19.0029  -15.0450 C   0  0  0  0  0  0  0  0  0  0  0  0
   24.0620  -18.6210  -16.3171 N   0  0  0  0  0  0  0  0  0  0  0  0
   23.2775  -19.3916  -17.0711 C   0  0  0  0  0  0  0  0  0  0  0  0
   22.6411  -20.2863  -16.2820 N   0  0  0  0  0  0  0  0  0  0  0  0
   22.4425  -20.5715  -11.3646 C   0  0  0  0  0  0  0  0  0  0  0  0
   21.4144  -19.6766  -11.0944 O   0  0  0  0  0  0  0  0  0  0  0  0
   22.5992  -21.5375  -10.5807 O   0  0  0  0  0  0  0  0  0  0  0  0
  2  1  1  6
  3  2  1  0
  4  3  1  0
  5  6  2  0
  5  2  1  0
  7  5  1  0
  8  9  1  1
  8  7  1  0
 10 18  1  0
 10  9  1  0
 11 10  2  0
 12 11  1  0
 12 13  1  0
 13 14  1  0
 13 18  2  0
 14 15  2  0
 15 16  1  0
 17 16  2  0
 18 17  1  0
 19  8  1  0
 20 19  2  0
 21 19  1  0
 22 29  1  0
 22 21  1  0
 22 23  1  6
 24 23  1  0
 25 24  2  0
 26 27  1  0
 26 25  1  0
 27 28  2  0
 28 24  1  0
 29 30  1  0
 31 29  2  0
M  END
$$$$
