CWH.pdb
     RDKit          3D

 31 33  0  0  1  0  0  0  0  0999 V2000
   28.8512  -20.6845  -15.0577 N   0  0  0  0  0  0  0  0  0  0  0  0
   28.1390  -19.7221  -14.2099 C   0  0  1  0  0  0  0  0  0  0  0  0
   27.5546  -18.6336  -15.0924 C   0  0  0  0  0  0  0  0  0  0  0  0
   28.8083  -17.3887  -15.4268 S   0  0  0  0  0  0  0  0  0  0  0  0
   27.1386  -20.4063  -13.3732 C   0  0  0  0  0  0  0  0  0  0  0  0
   26.6066  -21.4595  -13.8522 O   0  0  0  0  0  0  0  0  0  0  0  0
   26.7061  -20.0151  -12.0869 N   0  0  0  0  0  0  0  0  0  0  0  0
   25.7133  -20.7670  -11.3850 C   0  0  1  0  0  0  0  0  0  0  0  0
   25.7184  -20.5703   -9.8841 C   0  0  0  0  0  0  0  0  0  0  0  0
   27.0702  -20.8001   -9.2899 C   0  0  0  0  0  0  0  0  0  0  0  0
   28.0929  -21.4805   -9.9561 C   0  0  0  0  0  0  0  0  0  0  0  0
   29.1432  -21.4699   -9.1395 N   0  0  0  0  0  0  0  0  0  0  0  0
   28.8623  -20.8317   -8.0004 C   0  0  0  0  0  0  0  0  0  0  0  0
   29.5881  -20.5633   -6.8669 C   0  0  0  0  0  0  0  0  0  0  0  0
   29.0404  -19.8786   -5.8128 C   0  0  0  0  0  0  0  0  0  0  0  0
   27.7259  -19.4619   -5.9221 C   0  0  0  0  0  0  0  0  0  0  0  0
   26.9632  -19.7128   -7.0468 C   0  0  0  0  0  0  0  0  0  0  0  0
   27.5582  -20.4047   -8.0821 C   0  0  0  0  0  0  0  0  0  0  0  0
   24.3528  -20.5865  -11.9401 C   0  0  0  0  0  0  0  0  0  0  0  0
   23.7719  -19.4733  -12.0179 O   0  0  0  0  0  0  0  0  0  0  0  0
   23.6428  -21.7180  -12.4182 N   0  0  0  0  0  0  0  0  0  0  0  0
   22.3220  -21.5471  -13.0141 C   0  0  1  0  0  0  0  0  0  0  0  0
   21.9102  -22.8817  -13.5970 C   0  0  0  0  0  0  0  0  0  0  0  0
   20.5911  -22.8519  -14.2369 C   0  0  0  0  0  0  0  0  0  0  0  0
   20.0891  -21.8444  -15.0445 C   0  0  0  0  0  0  0  0  0  0  0  0
   18.8621  -22.2102  -15.4169 N   0  0  0  0  0  0  0  0  0  0  0  0
   18.5850  -23.3970  -14.8759 C   0  0  0  0  0  0  0  0  0  0  0  0
   19.6429  -23.8100  -14.1423 N   0  0  0  0  0  0  0  0  0  0  0  0
   21.3831  -21.0852  -11.9769 C   0  0  0  0  0  0  0  0  0  0  0  0
   21.3425  -21.7758  -10.7719 O   0  0  0  0  0  0  0  0  0  0  0  0
   20.6154  -20.1035  -12.1154 O   0  0  0  0  0  0  0  0  0  0  0  0
  2  1  1  6
  3  2  1  0
  4  3  1  0
  5  6  2  0
  5  2  1  0
  7  5  1  0
  8  9  1  1
  8  7  1  0
 10 18  1  0
 10  9  1  0
 11 10  2  0
 12 11  1  0
 12 13  1  0
 13 14  1  0
 13 18  2  0
 14 15  2  0
 15 16  1  0
 17 16  2  0
 18 17  1  0
 19  8  1  0
 20 19  2  0
 21 19  1  0
 22 29  1  0
 22 21  1  0
 22 23  1  1
 24 23  1  0
 25 24  2  0
 26 27  1  0
 26 25  1  0
 27 28  2  0
 28 24  1  0
 29 30  1  0
 31 29  2  0
M  END
$$$$
