SEQ.pdb
     RDKit          3D

 25 24  0  0  1  0  0  0  0  0999 V2000
   22.2057  -21.7216   -7.9334 O   0  0  0  0  0  0  0  0  0  0  0  0
   22.4443  -20.9292   -9.0728 C   0  0  0  0  0  0  0  0  0  0  0  0
   23.9435  -20.9555   -9.3170 C   0  0  2  0  0  0  0  0  0  0  0  0
   24.6654  -20.2750   -8.2667 N   0  0  0  0  0  0  0  0  0  0  0  0
   24.2164  -20.4220  -10.6732 C   0  0  0  0  0  0  0  0  0  0  0  0
   24.0829  -19.1700  -10.8814 O   0  0  0  0  0  0  0  0  0  0  0  0
   24.6200  -21.2234  -11.7680 N   0  0  0  0  0  0  0  0  0  0  0  0
   24.7818  -20.5666  -13.0776 C   0  0  1  0  0  0  0  0  0  0  0  0
   25.7851  -21.4722  -13.8076 C   0  0  0  0  0  0  0  0  0  0  0  0
   26.0549  -20.8048  -15.1432 C   0  0  0  0  0  0  0  0  0  0  0  0
   27.0817  -21.5337  -15.9347 C   0  0  0  0  0  0  0  0  0  0  0  0
   28.1071  -20.9908  -16.4144 O   0  0  0  0  0  0  0  0  0  0  0  0
   23.5140  -20.4963  -13.8150 C   0  0  0  0  0  0  0  0  0  0  0  0
   22.7656  -21.4891  -13.8841 O   0  0  0  0  0  0  0  0  0  0  0  0
   26.8694  -22.8871  -16.1408 O   0  0  0  0  0  0  0  0  0  0  0  0
   19.7241  -16.5992  -13.8682 N   0  0  0  0  0  0  0  0  0  0  0  0
   19.3653  -16.8828  -15.2234 C   0  0  0  0  0  0  0  0  0  0  0  0
   18.2194  -16.7064  -15.6350 O   0  0  0  0  0  0  0  0  0  0  0  0
   20.4008  -17.4047  -16.1690 C   0  0  0  0  0  0  0  0  0  0  0  0
   21.7266  -17.6068  -15.4959 C   0  0  0  0  0  0  0  0  0  0  0  0
   21.8626  -19.1034  -15.1460 C   0  0  2  0  0  0  0  0  0  0  0  0
   23.1422  -19.2801  -14.4451 N   0  0  0  0  0  0  0  0  0  0  0  0
   21.7693  -19.9425  -16.3242 C   0  0  0  0  0  0  0  0  0  0  0  0
   20.4909  -20.4715  -16.6458 O   0  0  0  0  0  0  0  0  0  0  0  0
   22.6862  -20.2691  -17.1087 O   0  0  0  0  0  0  0  0  0  0  0  0
  1  2  1  0
  2  3  1  0
  3  5  1  0
  3  4  1  1
  5  6  2  0
  7  8  1  0
  7  5  1  0
  8  9  1  6
  9 10  1  0
 10 11  1  0
 11 12  2  0
 11 15  1  0
 13  8  1  0
 14 13  2  0
 16 17  1  0
 17 19  1  0
 18 17  2  0
 19 20  1  0
 21 20  1  6
 21 23  1  0
 21 22  1  0
 22 13  1  0
 23 24  1  0
 25 23  2  0
M  END
$$$$
