SEQ.pdb
     RDKit          3D

 25 24  0  0  1  0  0  0  0  0999 V2000
   14.1563   -8.5851  -14.7213 O   0  0  0  0  0  0  0  0  0  0  0  0
   15.5068   -8.2680  -14.4792 C   0  0  0  0  0  0  0  0  0  0  0  0
   16.2078   -9.5726  -14.1404 C   0  0  2  0  0  0  0  0  0  0  0  0
   15.7045  -10.1433  -12.9123 N   0  0  0  0  0  0  0  0  0  0  0  0
   17.6723   -9.3414  -14.1367 C   0  0  0  0  0  0  0  0  0  0  0  0
   18.2320   -8.9511  -13.0582 O   0  0  0  0  0  0  0  0  0  0  0  0
   18.5016   -9.5271  -15.2687 N   0  0  0  0  0  0  0  0  0  0  0  0
   19.9253   -9.1662  -15.1443 C   0  0  1  0  0  0  0  0  0  0  0  0
   20.5996   -9.9945  -16.2482 C   0  0  0  0  0  0  0  0  0  0  0  0
   22.0928   -9.7987  -16.0640 C   0  0  0  0  0  0  0  0  0  0  0  0
   22.8812  -10.4905  -17.1185 C   0  0  0  0  0  0  0  0  0  0  0  0
   23.2298  -11.6947  -17.0511 O   0  0  0  0  0  0  0  0  0  0  0  0
   20.1473   -7.7314  -15.3631 C   0  0  0  0  0  0  0  0  0  0  0  0
   19.6363   -7.1531  -16.3403 O   0  0  0  0  0  0  0  0  0  0  0  0
   23.2397   -9.7399  -18.2264 O   0  0  0  0  0  0  0  0  0  0  0  0
   17.5714   -3.4484  -15.1322 N   0  0  0  0  0  0  0  0  0  0  0  0
   18.7509   -2.6822  -14.8727 C   0  0  0  0  0  0  0  0  0  0  0  0
   18.7552   -1.4559  -14.9718 O   0  0  0  0  0  0  0  0  0  0  0  0
   20.0120   -3.3793  -14.4694 C   0  0  0  0  0  0  0  0  0  0  0  0
   19.8112   -4.8578  -14.3098 C   0  0  0  0  0  0  0  0  0  0  0  0
   21.1668   -5.5538  -14.5518 C   0  0  2  0  0  0  0  0  0  0  0  0
   20.9464   -7.0029  -14.4437 N   0  0  0  0  0  0  0  0  0  0  0  0
   22.1830   -5.0895  -13.6283 C   0  0  0  0  0  0  0  0  0  0  0  0
   22.7704   -3.8233  -13.8912 O   0  0  0  0  0  0  0  0  0  0  0  0
   22.6195   -5.6710  -12.6114 O   0  0  0  0  0  0  0  0  0  0  0  0
  1  2  1  0
  2  3  1  0
  3  5  1  0
  3  4  1  1
  5  6  2  0
  7  8  1  0
  7  5  1  0
  8  9  1  6
  9 10  1  0
 10 11  1  0
 11 12  2  0
 11 15  1  0
 13  8  1  0
 14 13  2  0
 16 17  1  0
 17 19  1  0
 18 17  2  0
 19 20  1  0
 21 20  1  1
 21 23  1  0
 21 22  1  0
 22 13  1  0
 23 24  1  0
 25 23  2  0
M  END
$$$$
