SEQ.pdb
     RDKit          3D

 25 24  0  0  1  0  0  0  0  0999 V2000
   15.0237  -12.4074  -14.1553 O   0  0  0  0  0  0  0  0  0  0  0  0
   16.2908  -12.0992  -14.6869 C   0  0  0  0  0  0  0  0  0  0  0  0
   16.1539  -12.1494  -16.1992 C   0  0  2  0  0  0  0  0  0  0  0  0
   16.2217  -13.5049  -16.6945 N   0  0  0  0  0  0  0  0  0  0  0  0
   17.1601  -11.2416  -16.8006 C   0  0  0  0  0  0  0  0  0  0  0  0
   18.1800  -11.7474  -17.3773 O   0  0  0  0  0  0  0  0  0  0  0  0
   17.0617   -9.8298  -16.7751 N   0  0  0  0  0  0  0  0  0  0  0  0
   18.0778   -9.0566  -17.5116 C   0  0  1  0  0  0  0  0  0  0  0  0
   17.2968   -8.4926  -18.7081 C   0  0  0  0  0  0  0  0  0  0  0  0
   18.3012   -7.7051  -19.5285 C   0  0  0  0  0  0  0  0  0  0  0  0
   17.6720   -7.0575  -20.7104 C   0  0  0  0  0  0  0  0  0  0  0  0
   17.5193   -7.6274  -21.8186 O   0  0  0  0  0  0  0  0  0  0  0  0
   18.6353   -7.9698  -16.6969 C   0  0  0  0  0  0  0  0  0  0  0  0
   17.8913   -7.0999  -16.2066 O   0  0  0  0  0  0  0  0  0  0  0  0
   17.2405   -5.7506  -20.5528 O   0  0  0  0  0  0  0  0  0  0  0  0
   23.2930   -8.7149  -12.7892 N   0  0  0  0  0  0  0  0  0  0  0  0
   21.8886   -8.6660  -12.5225 C   0  0  0  0  0  0  0  0  0  0  0  0
   21.4206   -9.0844  -11.4645 O   0  0  0  0  0  0  0  0  0  0  0  0
   20.9606   -8.0933  -13.5471 C   0  0  0  0  0  0  0  0  0  0  0  0
   21.6999   -7.5485  -14.7338 C   0  0  0  0  0  0  0  0  0  0  0  0
   20.6751   -6.8680  -15.6651 C   0  0  2  0  0  0  0  0  0  0  0  0
   20.0347   -7.9219  -16.4645 N   0  0  0  0  0  0  0  0  0  0  0  0
   21.2934   -5.8557  -16.4981 C   0  0  0  0  0  0  0  0  0  0  0  0
   21.7681   -4.6834  -15.8519 O   0  0  0  0  0  0  0  0  0  0  0  0
   21.4651   -5.8801  -17.7361 O   0  0  0  0  0  0  0  0  0  0  0  0
  1  2  1  0
  2  3  1  0
  3  5  1  0
  3  4  1  6
  5  6  2  0
  7  8  1  0
  7  5  1  0
  8  9  1  6
  9 10  1  0
 10 11  1  0
 11 12  2  0
 11 15  1  0
 13  8  1  0
 14 13  2  0
 16 17  1  0
 17 19  1  0
 18 17  2  0
 19 20  1  0
 21 20  1  1
 21 23  1  0
 21 22  1  0
 22 13  1  0
 23 24  1  0
 25 23  2  0
M  END
$$$$
