SEQ.pdb
     RDKit          3D

 25 24  0  0  1  0  0  0  0  0999 V2000
   13.5219   -8.1489  -15.6247 O   0  0  0  0  0  0  0  0  0  0  0  0
   14.7273   -8.0757  -14.9003 C   0  0  0  0  0  0  0  0  0  0  0  0
   15.4315   -9.4088  -15.0885 C   0  0  2  0  0  0  0  0  0  0  0  0
   14.7936  -10.4590  -14.3286 N   0  0  0  0  0  0  0  0  0  0  0  0
   16.8713   -9.2366  -14.7794 C   0  0  0  0  0  0  0  0  0  0  0  0
   17.2274   -9.0908  -13.5625 O   0  0  0  0  0  0  0  0  0  0  0  0
   17.8911   -9.2220  -15.7610 N   0  0  0  0  0  0  0  0  0  0  0  0
   19.2794   -9.0248  -15.3069 C   0  0  1  0  0  0  0  0  0  0  0  0
   20.0998   -9.8656  -16.2966 C   0  0  0  0  0  0  0  0  0  0  0  0
   20.0543  -11.2890  -15.7731 C   0  0  0  0  0  0  0  0  0  0  0  0
   20.8482  -12.2206  -16.6180 C   0  0  0  0  0  0  0  0  0  0  0  0
   21.5098  -11.8592  -17.6220 O   0  0  0  0  0  0  0  0  0  0  0  0
   19.6801   -7.6136  -15.3680 C   0  0  0  0  0  0  0  0  0  0  0  0
   19.1431   -6.8374  -16.1803 O   0  0  0  0  0  0  0  0  0  0  0  0
   20.8384  -13.5577  -16.2556 O   0  0  0  0  0  0  0  0  0  0  0  0
   19.5120   -3.5050  -16.4584 N   0  0  0  0  0  0  0  0  0  0  0  0
   20.0403   -2.7508  -15.3640 C   0  0  0  0  0  0  0  0  0  0  0  0
   20.2657   -1.5455  -15.4639 O   0  0  0  0  0  0  0  0  0  0  0  0
   20.3268   -3.4347  -14.0643 C   0  0  0  0  0  0  0  0  0  0  0  0
   19.8975   -4.8724  -14.0785 C   0  0  0  0  0  0  0  0  0  0  0  0
   21.1206   -5.7334  -14.4575 C   0  0  2  0  0  0  0  0  0  0  0  0
   20.6835   -7.1363  -14.4849 N   0  0  0  0  0  0  0  0  0  0  0  0
   22.2274   -5.5280  -13.5445 C   0  0  0  0  0  0  0  0  0  0  0  0
   23.1149   -4.4563  -13.8296 O   0  0  0  0  0  0  0  0  0  0  0  0
   22.5091   -6.1856  -12.5193 O   0  0  0  0  0  0  0  0  0  0  0  0
  1  2  1  0
  2  3  1  0
  3  5  1  0
  3  4  1  1
  5  6  2  0
  7  8  1  0
  7  5  1  0
  8  9  1  6
  9 10  1  0
 10 11  1  0
 11 12  2  0
 11 15  1  0
 13  8  1  0
 14 13  2  0
 16 17  1  0
 17 19  1  0
 18 17  2  0
 19 20  1  0
 21 20  1  1
 21 23  1  0
 21 22  1  0
 22 13  1  0
 23 24  1  0
 25 23  2  0
M  END
$$$$
