SEQ.pdb
     RDKit          3D

 25 24  0  0  1  0  0  0  0  0999 V2000
   16.7344  -11.8525  -16.8511 O   0  0  0  0  0  0  0  0  0  0  0  0
   17.7617  -11.0923  -16.2595 C   0  0  0  0  0  0  0  0  0  0  0  0
   19.0241  -11.9346  -16.3296 C   0  0  2  0  0  0  0  0  0  0  0  0
   18.9014  -13.1430  -15.5473 N   0  0  0  0  0  0  0  0  0  0  0  0
   20.1830  -11.0913  -15.9501 C   0  0  0  0  0  0  0  0  0  0  0  0
   20.2531  -10.6402  -14.7583 O   0  0  0  0  0  0  0  0  0  0  0  0
   21.2313  -10.7482  -16.8373 N   0  0  0  0  0  0  0  0  0  0  0  0
   22.3296   -9.9158  -16.3144 C   0  0  1  0  0  0  0  0  0  0  0  0
   23.5909  -10.6521  -16.7901 C   0  0  0  0  0  0  0  0  0  0  0  0
   24.7662   -9.8470  -16.2680 C   0  0  0  0  0  0  0  0  0  0  0  0
   26.0707  -10.4563  -16.6414 C   0  0  0  0  0  0  0  0  0  0  0  0
   26.3686  -11.6557  -16.4203 O   0  0  0  0  0  0  0  0  0  0  0  0
   22.2888   -8.5520  -16.8569 C   0  0  0  0  0  0  0  0  0  0  0  0
   22.1036   -8.3595  -18.0731 O   0  0  0  0  0  0  0  0  0  0  0  0
   26.9916   -9.6309  -17.2657 O   0  0  0  0  0  0  0  0  0  0  0  0
   21.2806   -3.3143  -13.3397 N   0  0  0  0  0  0  0  0  0  0  0  0
   21.5306   -2.8089  -14.6541 C   0  0  0  0  0  0  0  0  0  0  0  0
   21.4554   -1.6069  -14.9053 O   0  0  0  0  0  0  0  0  0  0  0  0
   21.8941   -3.7560  -15.7540 C   0  0  0  0  0  0  0  0  0  0  0  0
   21.9517   -5.1773  -15.2765 C   0  0  0  0  0  0  0  0  0  0  0  0
   22.4544   -6.0540  -16.4424 C   0  0  2  0  0  0  0  0  0  0  0  0
   22.4554   -7.4489  -15.9795 N   0  0  0  0  0  0  0  0  0  0  0  0
   23.7624   -5.6355  -16.9058 C   0  0  0  0  0  0  0  0  0  0  0  0
   23.8115   -4.5475  -17.8175 O   0  0  0  0  0  0  0  0  0  0  0  0
   24.8750   -6.1183  -16.6026 O   0  0  0  0  0  0  0  0  0  0  0  0
  1  2  1  0
  2  3  1  0
  3  5  1  0
  3  4  1  1
  5  6  2  0
  7  8  1  0
  7  5  1  0
  8  9  1  6
  9 10  1  0
 10 11  1  0
 11 12  2  0
 11 15  1  0
 13  8  1  0
 14 13  2  0
 16 17  1  0
 17 19  1  0
 18 17  2  0
 19 20  1  0
 21 20  1  1
 21 23  1  0
 21 22  1  0
 22 13  1  0
 23 24  1  0
 25 23  2  0
M  END
$$$$
