SEQ.pdb
     RDKit          3D

 25 24  0  0  1  0  0  0  0  0999 V2000
   25.9691  -11.5438  -15.0139 O   0  0  0  0  0  0  0  0  0  0  0  0
   24.9847  -10.5647  -15.2491 C   0  0  0  0  0  0  0  0  0  0  0  0
   24.0864  -11.1039  -16.3493 C   0  0  2  0  0  0  0  0  0  0  0  0
   24.7837  -11.1878  -17.6118 N   0  0  0  0  0  0  0  0  0  0  0  0
   22.8509  -10.2859  -16.4014 C   0  0  0  0  0  0  0  0  0  0  0  0
   22.8415   -9.2282  -17.1157 O   0  0  0  0  0  0  0  0  0  0  0  0
   21.6643  -10.6062  -15.6993 N   0  0  0  0  0  0  0  0  0  0  0  0
   20.4878   -9.7432  -15.9082 C   0  0  1  0  0  0  0  0  0  0  0  0
   19.3181  -10.6143  -15.4260 C   0  0  0  0  0  0  0  0  0  0  0  0
   19.0269  -11.5848  -16.5553 C   0  0  0  0  0  0  0  0  0  0  0  0
   17.8778  -12.4762  -16.2434 C   0  0  0  0  0  0  0  0  0  0  0  0
   16.6859  -12.2019  -16.5265 O   0  0  0  0  0  0  0  0  0  0  0  0
   20.5709   -8.5050  -15.1235 C   0  0  0  0  0  0  0  0  0  0  0  0
   20.9364   -8.5327  -13.9334 O   0  0  0  0  0  0  0  0  0  0  0  0
   18.1670  -13.6698  -15.6024 O   0  0  0  0  0  0  0  0  0  0  0  0
   23.2611   -3.8762  -15.4772 N   0  0  0  0  0  0  0  0  0  0  0  0
   22.1490   -3.1029  -15.0181 C   0  0  0  0  0  0  0  0  0  0  0  0
   22.3087   -2.0367  -14.4254 O   0  0  0  0  0  0  0  0  0  0  0  0
   20.7563   -3.5933  -15.2612 C   0  0  0  0  0  0  0  0  0  0  0  0
   20.7409   -4.9048  -15.9902 C   0  0  0  0  0  0  0  0  0  0  0  0
   20.2472   -5.9906  -15.0116 C   0  0  2  0  0  0  0  0  0  0  0  0
   20.2374   -7.2691  -15.7365 N   0  0  0  0  0  0  0  0  0  0  0  0
   18.9451   -5.6688  -14.4624 C   0  0  0  0  0  0  0  0  0  0  0  0
   18.9146   -5.0274  -13.1954 O   0  0  0  0  0  0  0  0  0  0  0  0
   17.8230   -5.8881  -14.9680 O   0  0  0  0  0  0  0  0  0  0  0  0
  1  2  1  0
  2  3  1  0
  3  5  1  0
  3  4  1  6
  5  6  2  0
  7  8  1  0
  7  5  1  0
  8  9  1  1
  9 10  1  0
 10 11  1  0
 11 12  2  0
 11 15  1  0
 13  8  1  0
 14 13  2  0
 16 17  1  0
 17 19  1  0
 18 17  2  0
 19 20  1  0
 21 20  1  6
 21 23  1  0
 21 22  1  0
 22 13  1  0
 23 24  1  0
 25 23  2  0
M  END
$$$$
