SEQ.pdb
     RDKit          3D

 25 24  0  0  1  0  0  0  0  0999 V2000
   11.4892  -13.0775  -11.5022 O   0  0  0  0  0  0  0  0  0  0  0  0
   12.7022  -12.5114  -11.0647 C   0  0  0  0  0  0  0  0  0  0  0  0
   13.7946  -13.0766  -11.9565 C   0  0  2  0  0  0  0  0  0  0  0  0
   14.1808  -14.4070  -11.5462 N   0  0  0  0  0  0  0  0  0  0  0  0
   14.9211  -12.1136  -12.0011 C   0  0  0  0  0  0  0  0  0  0  0  0
   15.6428  -11.9605  -10.9598 O   0  0  0  0  0  0  0  0  0  0  0  0
   15.2518  -11.3411  -13.1402 N   0  0  0  0  0  0  0  0  0  0  0  0
   16.4317  -10.4618  -13.0553 C   0  0  1  0  0  0  0  0  0  0  0  0
   16.9561  -10.4304  -14.4987 C   0  0  0  0  0  0  0  0  0  0  0  0
   17.8271  -11.6632  -14.6534 C   0  0  0  0  0  0  0  0  0  0  0  0
   18.3692  -11.7948  -16.0322 C   0  0  0  0  0  0  0  0  0  0  0  0
   17.7874  -12.4187  -16.9533 O   0  0  0  0  0  0  0  0  0  0  0  0
   16.0762   -9.1110  -12.6028 C   0  0  0  0  0  0  0  0  0  0  0  0
   14.9757   -8.6116  -12.9029 O   0  0  0  0  0  0  0  0  0  0  0  0
   19.5875  -11.1865  -16.2869 O   0  0  0  0  0  0  0  0  0  0  0  0
   14.4949   -5.2781   -7.4709 N   0  0  0  0  0  0  0  0  0  0  0  0
   15.8035   -5.6943   -7.8709 C   0  0  0  0  0  0  0  0  0  0  0  0
   16.6465   -6.0443   -7.0460 O   0  0  0  0  0  0  0  0  0  0  0  0
   16.1634   -5.7090   -9.3232 C   0  0  0  0  0  0  0  0  0  0  0  0
   16.3823   -7.1026   -9.8345 C   0  0  0  0  0  0  0  0  0  0  0  0
   16.7313   -7.0128  -11.3348 C   0  0  2  0  0  0  0  0  0  0  0  0
   16.9975   -8.3777  -11.8103 N   0  0  0  0  0  0  0  0  0  0  0  0
   17.8529   -6.1266  -11.5746 C   0  0  0  0  0  0  0  0  0  0  0  0
   19.1087   -6.7285  -11.8539 O   0  0  0  0  0  0  0  0  0  0  0  0
   17.8592   -4.8765  -11.5658 O   0  0  0  0  0  0  0  0  0  0  0  0
  1  2  1  0
  2  3  1  0
  3  5  1  0
  3  4  1  1
  5  6  2  0
  7  8  1  0
  7  5  1  0
  8  9  1  6
  9 10  1  0
 10 11  1  0
 11 12  2  0
 11 15  1  0
 13  8  1  0
 14 13  2  0
 16 17  1  0
 17 19  1  0
 18 17  2  0
 19 20  1  0
 21 20  1  1
 21 23  1  0
 21 22  1  0
 22 13  1  0
 23 24  1  0
 25 23  2  0
M  END
$$$$
