SEQ.pdb
     RDKit          3D

 25 24  0  0  1  0  0  0  0  0999 V2000
   27.7902  -16.4839  -17.7585 O   0  0  0  0  0  0  0  0  0  0  0  0
   26.5781  -17.1311  -18.0669 C   0  0  0  0  0  0  0  0  0  0  0  0
   26.6598  -18.5226  -17.4626 C   0  0  2  0  0  0  0  0  0  0  0  0
   27.4547  -19.4110  -18.2788 N   0  0  0  0  0  0  0  0  0  0  0  0
   25.2845  -19.0144  -17.2075 C   0  0  0  0  0  0  0  0  0  0  0  0
   24.7083  -19.7234  -18.0986 O   0  0  0  0  0  0  0  0  0  0  0  0
   24.5585  -18.7435  -16.0230 N   0  0  0  0  0  0  0  0  0  0  0  0
   23.2067  -19.3179  -15.8988 C   0  0  1  0  0  0  0  0  0  0  0  0
   23.0826  -19.6129  -14.3965 C   0  0  0  0  0  0  0  0  0  0  0  0
   21.7230  -20.2598  -14.2090 C   0  0  0  0  0  0  0  0  0  0  0  0
   21.4544  -20.5925  -12.7844 C   0  0  0  0  0  0  0  0  0  0  0  0
   22.3009  -20.4622  -11.8665 O   0  0  0  0  0  0  0  0  0  0  0  0
   22.1688  -18.3729  -16.3297 C   0  0  0  0  0  0  0  0  0  0  0  0
   22.2267  -17.1740  -15.9983 O   0  0  0  0  0  0  0  0  0  0  0  0
   20.1911  -21.0733  -12.4810 O   0  0  0  0  0  0  0  0  0  0  0  0
   19.1192  -15.5771  -20.0577 N   0  0  0  0  0  0  0  0  0  0  0  0
   20.5019  -15.9224  -20.1783 C   0  0  0  0  0  0  0  0  0  0  0  0
   21.3145  -15.1516  -20.6873 O   0  0  0  0  0  0  0  0  0  0  0  0
   20.9798  -17.2482  -19.6754 C   0  0  0  0  0  0  0  0  0  0  0  0
   19.8656  -18.0603  -19.0834 C   0  0  0  0  0  0  0  0  0  0  0  0
   19.9774  -17.9778  -17.5467 C   0  0  2  0  0  0  0  0  0  0  0  0
   21.0977  -18.8366  -17.1373 N   0  0  0  0  0  0  0  0  0  0  0  0
   18.7387  -18.3553  -16.8956 C   0  0  0  0  0  0  0  0  0  0  0  0
   18.2543  -19.6694  -17.1322 O   0  0  0  0  0  0  0  0  0  0  0  0
   18.0262  -17.6603  -16.1392 O   0  0  0  0  0  0  0  0  0  0  0  0
  1  2  1  0
  2  3  1  0
  3  5  1  0
  3  4  1  6
  5  6  2  0
  7  8  1  0
  7  5  1  0
  8  9  1  1
  9 10  1  0
 10 11  1  0
 11 12  2  0
 11 15  1  0
 13  8  1  0
 14 13  2  0
 16 17  1  0
 17 19  1  0
 18 17  2  0
 19 20  1  0
 21 20  1  6
 21 23  1  0
 21 22  1  0
 22 13  1  0
 23 24  1  0
 25 23  2  0
M  END
$$$$
