SEQ.pdb
     RDKit          3D

 25 24  0  0  1  0  0  0  0  0999 V2000
   13.9080  -13.7968  -12.7566 O   0  0  0  0  0  0  0  0  0  0  0  0
   14.7575  -12.7932  -13.2608 C   0  0  0  0  0  0  0  0  0  0  0  0
   15.2366  -13.2696  -14.6216 C   0  0  2  0  0  0  0  0  0  0  0  0
   15.8477  -14.5764  -14.5427 N   0  0  0  0  0  0  0  0  0  0  0  0
   16.1178  -12.2315  -15.2084 C   0  0  0  0  0  0  0  0  0  0  0  0
   17.3790  -12.3250  -15.0374 O   0  0  0  0  0  0  0  0  0  0  0  0
   15.6435  -11.1269  -15.9558 N   0  0  0  0  0  0  0  0  0  0  0  0
   16.6383  -10.1747  -16.4813 C   0  0  1  0  0  0  0  0  0  0  0  0
   15.9487   -9.5894  -17.7228 C   0  0  0  0  0  0  0  0  0  0  0  0
   16.9613   -8.6584  -18.3630 C   0  0  0  0  0  0  0  0  0  0  0  0
   16.4207   -7.9976  -19.5810 C   0  0  0  0  0  0  0  0  0  0  0  0
   16.5477   -6.7724  -19.8240 O   0  0  0  0  0  0  0  0  0  0  0  0
   16.9480   -9.1161  -15.5121 C   0  0  0  0  0  0  0  0  0  0  0  0
   16.0715   -8.6915  -14.7363 O   0  0  0  0  0  0  0  0  0  0  0  0
   15.7414   -8.8024  -20.4810 O   0  0  0  0  0  0  0  0  0  0  0  0
   22.8979   -6.7688  -14.6378 N   0  0  0  0  0  0  0  0  0  0  0  0
   22.0763   -6.0076  -13.7483 C   0  0  0  0  0  0  0  0  0  0  0  0
   22.5358   -5.0780  -13.0863 O   0  0  0  0  0  0  0  0  0  0  0  0
   20.6237   -6.3415  -13.6148 C   0  0  0  0  0  0  0  0  0  0  0  0
   20.2001   -7.4069  -14.5829 C   0  0  0  0  0  0  0  0  0  0  0  0
   18.6657   -7.5463  -14.4998 C   0  0  2  0  0  0  0  0  0  0  0  0
   18.2624   -8.5829  -15.4605 N   0  0  0  0  0  0  0  0  0  0  0  0
   17.9961   -6.2854  -14.7496 C   0  0  0  0  0  0  0  0  0  0  0  0
   17.4918   -5.5829  -13.6228 O   0  0  0  0  0  0  0  0  0  0  0  0
   17.7992   -5.7254  -15.8498 O   0  0  0  0  0  0  0  0  0  0  0  0
  1  2  1  0
  2  3  1  0
  3  5  1  0
  3  4  1  1
  5  6  2  0
  7  8  1  0
  7  5  1  0
  8  9  1  6
  9 10  1  0
 10 11  1  0
 11 12  2  0
 11 15  1  0
 13  8  1  0
 14 13  2  0
 16 17  1  0
 17 19  1  0
 18 17  2  0
 19 20  1  0
 21 20  1  6
 21 23  1  0
 21 22  1  0
 22 13  1  0
 23 24  1  0
 25 23  2  0
M  END
$$$$
