SEQ.pdb
     RDKit          3D

 25 24  0  0  1  0  0  0  0  0999 V2000
   14.1454  -12.1097  -15.4993 O   0  0  0  0  0  0  0  0  0  0  0  0
   14.6748  -11.1024  -14.6696 C   0  0  0  0  0  0  0  0  0  0  0  0
   16.1120  -11.4938  -14.3702 C   0  0  2  0  0  0  0  0  0  0  0  0
   16.1951  -12.8207  -13.8049 N   0  0  0  0  0  0  0  0  0  0  0  0
   16.7270  -10.4432  -13.5238 C   0  0  0  0  0  0  0  0  0  0  0  0
   16.4047  -10.3782  -12.2906 O   0  0  0  0  0  0  0  0  0  0  0  0
   17.6611   -9.4934  -14.0022 N   0  0  0  0  0  0  0  0  0  0  0  0
   18.1830   -8.5006  -13.0458 C   0  0  1  0  0  0  0  0  0  0  0  0
   19.2925   -7.7931  -13.8381 C   0  0  0  0  0  0  0  0  0  0  0  0
   19.9289   -6.8074  -12.8760 C   0  0  0  0  0  0  0  0  0  0  0  0
   21.0623   -6.0721  -13.4981 C   0  0  0  0  0  0  0  0  0  0  0  0
   21.0088   -5.5408  -14.6344 O   0  0  0  0  0  0  0  0  0  0  0  0
   17.1494   -7.5434  -12.6319 C   0  0  0  0  0  0  0  0  0  0  0  0
   16.3200   -7.1118  -13.4544 O   0  0  0  0  0  0  0  0  0  0  0  0
   22.2322   -5.9849  -12.7612 O   0  0  0  0  0  0  0  0  0  0  0  0
   14.4535   -7.4060   -6.9920 N   0  0  0  0  0  0  0  0  0  0  0  0
   13.9947   -6.1874   -7.5837 C   0  0  0  0  0  0  0  0  0  0  0  0
   13.1290   -5.4983   -7.0460 O   0  0  0  0  0  0  0  0  0  0  0  0
   14.5764   -5.7321   -8.8850 C   0  0  0  0  0  0  0  0  0  0  0  0
   15.5855   -6.7046   -9.4211 C   0  0  0  0  0  0  0  0  0  0  0  0
   16.0894   -6.1719  -10.7786 C   0  0  2  0  0  0  0  0  0  0  0  0
   17.0973   -7.1172  -11.2791 N   0  0  0  0  0  0  0  0  0  0  0  0
   16.6163   -4.8262  -10.6670 C   0  0  0  0  0  0  0  0  0  0  0  0
   18.0280   -4.6753  -10.7109 O   0  0  0  0  0  0  0  0  0  0  0  0
   15.9773   -3.7602  -10.5328 O   0  0  0  0  0  0  0  0  0  0  0  0
  1  2  1  0
  2  3  1  0
  3  5  1  0
  3  4  1  1
  5  6  2  0
  7  8  1  0
  7  5  1  0
  8  9  1  6
  9 10  1  0
 10 11  1  0
 11 12  2  0
 11 15  1  0
 13  8  1  0
 14 13  2  0
 16 17  1  0
 17 19  1  0
 18 17  2  0
 19 20  1  0
 21 20  1  1
 21 23  1  0
 21 22  1  0
 22 13  1  0
 23 24  1  0
 25 23  2  0
M  END
$$$$
