SEQ.pdb
     RDKit          3D

 25 24  0  0  1  0  0  0  0  0999 V2000
   26.5319  -16.5929  -17.6053 O   0  0  0  0  0  0  0  0  0  0  0  0
   26.5446  -17.3509  -16.4185 C   0  0  0  0  0  0  0  0  0  0  0  0
   27.4118  -18.5689  -16.6876 C   0  0  2  0  0  0  0  0  0  0  0  0
   27.0258  -19.2372  -17.9090 N   0  0  0  0  0  0  0  0  0  0  0  0
   27.3880  -19.4461  -15.4924 C   0  0  0  0  0  0  0  0  0  0  0  0
   26.3618  -20.1755  -15.2835 O   0  0  0  0  0  0  0  0  0  0  0  0
   28.4446  -19.5270  -14.5540 N   0  0  0  0  0  0  0  0  0  0  0  0
   28.2741  -20.4324  -13.4034 C   0  0  1  0  0  0  0  0  0  0  0  0
   29.7079  -20.6239  -12.8866 C   0  0  0  0  0  0  0  0  0  0  0  0
   29.5944  -21.5079  -11.6586 C   0  0  0  0  0  0  0  0  0  0  0  0
   30.9231  -21.8064  -11.0605 C   0  0  0  0  0  0  0  0  0  0  0  0
   32.0018  -21.3207  -11.4808 O   0  0  0  0  0  0  0  0  0  0  0  0
   27.4221  -19.8417  -12.3637 C   0  0  0  0  0  0  0  0  0  0  0  0
   27.5166  -18.6333  -12.0783 O   0  0  0  0  0  0  0  0  0  0  0  0
   30.9432  -22.6738   -9.9805 O   0  0  0  0  0  0  0  0  0  0  0  0
   22.0389  -19.7145  -12.9868 N   0  0  0  0  0  0  0  0  0  0  0  0
   22.2215  -20.9124  -12.2270 C   0  0  0  0  0  0  0  0  0  0  0  0
   21.4568  -21.8692  -12.3424 O   0  0  0  0  0  0  0  0  0  0  0  0
   23.3666  -21.0135  -11.2690 C   0  0  0  0  0  0  0  0  0  0  0  0
   24.2410  -19.7946  -11.3069 C   0  0  0  0  0  0  0  0  0  0  0  0
   25.5860  -20.1496  -10.6394 C   0  0  2  0  0  0  0  0  0  0  0  0
   26.4799  -20.6605  -11.6881 N   0  0  0  0  0  0  0  0  0  0  0  0
   25.4167  -21.1018   -9.5598 C   0  0  0  0  0  0  0  0  0  0  0  0
   24.7038  -20.6634   -8.4122 O   0  0  0  0  0  0  0  0  0  0  0  0
   25.8261  -22.2818   -9.5057 O   0  0  0  0  0  0  0  0  0  0  0  0
  1  2  1  0
  2  3  1  0
  3  5  1  0
  3  4  1  6
  5  6  2  0
  7  8  1  0
  7  5  1  0
  8  9  1  1
  9 10  1  0
 10 11  1  0
 11 12  2  0
 11 15  1  0
 13  8  1  0
 14 13  2  0
 16 17  1  0
 17 19  1  0
 18 17  2  0
 19 20  1  0
 21 20  1  6
 21 23  1  0
 21 22  1  0
 22 13  1  0
 23 24  1  0
 25 23  2  0
M  END
$$$$
