SEQ.pdb
     RDKit          3D

 25 24  0  0  1  0  0  0  0  0999 V2000
   16.2910  -14.9980  -15.1184 O   0  0  0  0  0  0  0  0  0  0  0  0
   16.3885  -13.8396  -15.9131 C   0  0  0  0  0  0  0  0  0  0  0  0
   17.8697  -13.5893  -16.1405 C   0  0  2  0  0  0  0  0  0  0  0  0
   18.6828  -14.6100  -15.5204 N   0  0  0  0  0  0  0  0  0  0  0  0
   18.1956  -12.2128  -15.6961 C   0  0  0  0  0  0  0  0  0  0  0  0
   18.7544  -12.0477  -14.5607 O   0  0  0  0  0  0  0  0  0  0  0  0
   17.9219  -11.0532  -16.4604 N   0  0  0  0  0  0  0  0  0  0  0  0
   18.3740   -9.7558  -15.9266 C   0  0  1  0  0  0  0  0  0  0  0  0
   18.7980   -8.9825  -17.1842 C   0  0  0  0  0  0  0  0  0  0  0  0
   19.3643   -7.6636  -16.6922 C   0  0  0  0  0  0  0  0  0  0  0  0
   19.8653   -6.8193  -17.8095 C   0  0  0  0  0  0  0  0  0  0  0  0
   19.2261   -6.6164  -18.8709 O   0  0  0  0  0  0  0  0  0  0  0  0
   17.2975   -9.0492  -15.2211 C   0  0  0  0  0  0  0  0  0  0  0  0
   16.1114   -9.1874  -15.5742 O   0  0  0  0  0  0  0  0  0  0  0  0
   21.1115   -6.2371  -17.6445 O   0  0  0  0  0  0  0  0  0  0  0  0
   15.7433   -7.6433   -8.7362 N   0  0  0  0  0  0  0  0  0  0  0  0
   15.0820   -8.1074   -9.9164 C   0  0  0  0  0  0  0  0  0  0  0  0
   14.2771   -9.0371   -9.8783 O   0  0  0  0  0  0  0  0  0  0  0  0
   15.3684   -7.4524  -11.2309 C   0  0  0  0  0  0  0  0  0  0  0  0
   16.3804   -8.2175  -12.0321 C   0  0  0  0  0  0  0  0  0  0  0  0
   16.6046   -7.4674  -13.3617 C   0  0  2  0  0  0  0  0  0  0  0  0
   17.6194   -8.2092  -14.1233 N   0  0  0  0  0  0  0  0  0  0  0  0
   16.9916   -6.0878  -13.1431 C   0  0  0  0  0  0  0  0  0  0  0  0
   18.3813   -5.8100  -13.0477 O   0  0  0  0  0  0  0  0  0  0  0  0
   16.2466   -5.0912  -13.0234 O   0  0  0  0  0  0  0  0  0  0  0  0
  1  2  1  0
  2  3  1  0
  3  5  1  0
  3  4  1  1
  5  6  2  0
  7  8  1  0
  7  5  1  0
  8  9  1  6
  9 10  1  0
 10 11  1  0
 11 12  2  0
 11 15  1  0
 13  8  1  0
 14 13  2  0
 16 17  1  0
 17 19  1  0
 18 17  2  0
 19 20  1  0
 21 20  1  1
 21 23  1  0
 21 22  1  0
 22 13  1  0
 23 24  1  0
 25 23  2  0
M  END
$$$$
