SEQ.pdb
     RDKit          3D

 25 24  0  0  1  0  0  0  0  0999 V2000
   23.8160    1.8881  -11.4123 O   0  0  0  0  0  0  0  0  0  0  0  0
   24.6244    2.3732  -10.3662 C   0  0  0  0  0  0  0  0  0  0  0  0
   24.3410    1.5013   -9.1548 C   0  0  2  0  0  0  0  0  0  0  0  0
   22.9235    1.3944   -8.8964 N   0  0  0  0  0  0  0  0  0  0  0  0
   25.1220    2.0141   -8.0035 C   0  0  0  0  0  0  0  0  0  0  0  0
   26.3446    2.3336   -8.1815 O   0  0  0  0  0  0  0  0  0  0  0  0
   24.5917    2.1733   -6.7008 N   0  0  0  0  0  0  0  0  0  0  0  0
   25.4577    2.7840   -5.6762 C   0  0  1  0  0  0  0  0  0  0  0  0
   25.5184    4.2603   -6.0964 C   0  0  0  0  0  0  0  0  0  0  0  0
   26.4080    4.9480   -5.0777 C   0  0  0  0  0  0  0  0  0  0  0  0
   26.5930    6.3921   -5.3822 C   0  0  0  0  0  0  0  0  0  0  0  0
   25.8467    7.2992   -4.9389 O   0  0  0  0  0  0  0  0  0  0  0  0
   24.8894    2.6507   -4.3290 C   0  0  0  0  0  0  0  0  0  0  0  0
   23.6630    2.7625   -4.1450 O   0  0  0  0  0  0  0  0  0  0  0  0
   27.6555    6.7276   -6.2054 O   0  0  0  0  0  0  0  0  0  0  0  0
   25.6045   -1.9463   -0.6536 N   0  0  0  0  0  0  0  0  0  0  0  0
   24.9707   -1.0144    0.2270 C   0  0  0  0  0  0  0  0  0  0  0  0
   24.5646   -1.3540    1.3376 O   0  0  0  0  0  0  0  0  0  0  0  0
   24.7948    0.4079   -0.2033 C   0  0  0  0  0  0  0  0  0  0  0  0
   25.3442    0.6517   -1.5782 C   0  0  0  0  0  0  0  0  0  0  0  0
   25.2597    2.1652   -1.8659 C   0  0  2  0  0  0  0  0  0  0  0  0
   25.7516    2.3845   -3.2334 N   0  0  0  0  0  0  0  0  0  0  0  0
   26.0017    2.9408   -0.8919 C   0  0  0  0  0  0  0  0  0  0  0  0
   25.4306    3.0775    0.4014 O   0  0  0  0  0  0  0  0  0  0  0  0
   27.0999    3.5180   -1.0456 O   0  0  0  0  0  0  0  0  0  0  0  0
  1  2  1  0
  2  3  1  0
  3  5  1  0
  3  4  1  1
  5  6  2  0
  7  8  1  0
  7  5  1  0
  8  9  1  6
  9 10  1  0
 10 11  1  0
 11 12  2  0
 11 15  1  0
 13  8  1  0
 14 13  2  0
 16 17  1  0
 17 19  1  0
 18 17  2  0
 19 20  1  0
 21 20  1  1
 21 23  1  0
 21 22  1  0
 22 13  1  0
 23 24  1  0
 25 23  2  0
M  END
$$$$
