SEQ.pdb
     RDKit          3D

 25 24  0  0  1  0  0  0  0  0999 V2000
   24.2639  -12.2035  -19.2201 O   0  0  0  0  0  0  0  0  0  0  0  0
   23.5598  -10.9921  -19.0788 C   0  0  0  0  0  0  0  0  0  0  0  0
   22.1895  -11.3452  -18.5261 C   0  0  2  0  0  0  0  0  0  0  0  0
   21.3796  -12.0281  -19.5085 N   0  0  0  0  0  0  0  0  0  0  0  0
   21.5620  -10.1166  -17.9830 C   0  0  0  0  0  0  0  0  0  0  0  0
   21.2204   -9.1899  -18.7913 O   0  0  0  0  0  0  0  0  0  0  0  0
   21.3149   -9.9014  -16.6059 N   0  0  0  0  0  0  0  0  0  0  0  0
   20.5380   -8.7079  -16.2254 C   0  0  1  0  0  0  0  0  0  0  0  0
   19.5691   -9.2398  -15.1587 C   0  0  0  0  0  0  0  0  0  0  0  0
   18.2529   -9.4817  -15.8737 C   0  0  0  0  0  0  0  0  0  0  0  0
   17.1970   -9.9738  -14.9489 C   0  0  0  0  0  0  0  0  0  0  0  0
   16.1422   -9.3417  -14.6957 O   0  0  0  0  0  0  0  0  0  0  0  0
   21.3937   -7.6523  -15.6692 C   0  0  0  0  0  0  0  0  0  0  0  0
   22.3350   -7.9368  -14.9054 O   0  0  0  0  0  0  0  0  0  0  0  0
   17.4159  -11.2010  -14.3445 O   0  0  0  0  0  0  0  0  0  0  0  0
   22.0669   -1.8370  -18.0327 N   0  0  0  0  0  0  0  0  0  0  0  0
   22.5530   -1.6754  -16.6972 C   0  0  0  0  0  0  0  0  0  0  0  0
   23.1392   -0.6523  -16.3463 O   0  0  0  0  0  0  0  0  0  0  0  0
   22.3467   -2.7695  -15.6975 C   0  0  0  0  0  0  0  0  0  0  0  0
   21.5775   -3.9214  -16.2748 C   0  0  0  0  0  0  0  0  0  0  0  0
   21.8852   -5.1744  -15.4286 C   0  0  2  0  0  0  0  0  0  0  0  0
   21.1436   -6.2990  -16.0164 N   0  0  0  0  0  0  0  0  0  0  0  0
   21.5523   -4.9761  -14.0320 C   0  0  0  0  0  0  0  0  0  0  0  0
   20.2709   -5.4116  -13.6011 O   0  0  0  0  0  0  0  0  0  0  0  0
   22.2599   -4.4599  -13.1399 O   0  0  0  0  0  0  0  0  0  0  0  0
  1  2  1  0
  2  3  1  0
  3  5  1  0
  3  4  1  6
  5  6  2  0
  7  8  1  0
  7  5  1  0
  8  9  1  1
  9 10  1  0
 10 11  1  0
 11 12  2  0
 11 15  1  0
 13  8  1  0
 14 13  2  0
 16 17  1  0
 17 19  1  0
 18 17  2  0
 19 20  1  0
 21 20  1  6
 21 23  1  0
 21 22  1  0
 22 13  1  0
 23 24  1  0
 25 23  2  0
M  END
$$$$
