SEQ.pdb
     RDKit          3D

 25 24  0  0  1  0  0  0  0  0999 V2000
   24.6945  -11.9260  -17.4170 O   0  0  0  0  0  0  0  0  0  0  0  0
   26.0410  -11.5670  -17.2139 C   0  0  0  0  0  0  0  0  0  0  0  0
   26.8457  -12.2548  -18.3036 C   0  0  2  0  0  0  0  0  0  0  0  0
   26.8692  -13.6881  -18.1229 N   0  0  0  0  0  0  0  0  0  0  0  0
   28.1922  -11.6374  -18.3654 C   0  0  0  0  0  0  0  0  0  0  0  0
   29.1104  -12.0828  -17.5990 O   0  0  0  0  0  0  0  0  0  0  0  0
   28.5298  -10.5697  -19.2313 N   0  0  0  0  0  0  0  0  0  0  0  0
   29.9404  -10.1451  -19.2813 C   0  0  1  0  0  0  0  0  0  0  0  0
   30.2074   -9.9758  -20.7845 C   0  0  0  0  0  0  0  0  0  0  0  0
   31.6910   -9.6860  -20.9150 C   0  0  0  0  0  0  0  0  0  0  0  0
   32.1002   -9.4945  -22.3321 C   0  0  0  0  0  0  0  0  0  0  0  0
   32.2782   -8.3696  -22.8604 O   0  0  0  0  0  0  0  0  0  0  0  0
   30.1565   -8.8790  -18.5699 C   0  0  0  0  0  0  0  0  0  0  0  0
   29.2947   -7.9807  -18.5996 O   0  0  0  0  0  0  0  0  0  0  0  0
   32.2870  -10.6389  -23.0902 O   0  0  0  0  0  0  0  0  0  0  0  0
   35.3101   -7.7598  -14.8481 N   0  0  0  0  0  0  0  0  0  0  0  0
   34.5278   -6.5670  -14.7440 C   0  0  0  0  0  0  0  0  0  0  0  0
   34.8769   -5.6303  -14.0268 O   0  0  0  0  0  0  0  0  0  0  0  0
   33.2556   -6.4464  -15.5225 C   0  0  0  0  0  0  0  0  0  0  0  0
   32.9978   -7.6574  -16.3702 C   0  0  0  0  0  0  0  0  0  0  0  0
   31.6590   -7.4488  -17.1082 C   0  0  2  0  0  0  0  0  0  0  0  0
   31.3576   -8.6884  -17.8381 N   0  0  0  0  0  0  0  0  0  0  0  0
   31.7028   -6.2982  -17.9885 C   0  0  0  0  0  0  0  0  0  0  0  0
   31.1614   -5.0813  -17.4949 O   0  0  0  0  0  0  0  0  0  0  0  0
   32.1627   -6.2367  -19.1493 O   0  0  0  0  0  0  0  0  0  0  0  0
  1  2  1  0
  2  3  1  0
  3  5  1  0
  3  4  1  1
  5  6  2  0
  7  8  1  0
  7  5  1  0
  8  9  1  6
  9 10  1  0
 10 11  1  0
 11 12  2  0
 11 15  1  0
 13  8  1  0
 14 13  2  0
 16 17  1  0
 17 19  1  0
 18 17  2  0
 19 20  1  0
 21 20  1  6
 21 23  1  0
 21 22  1  0
 22 13  1  0
 23 24  1  0
 25 23  2  0
M  END
$$$$
