MSY.pdb
     RDKit          3D

 27 27  0  0  1  0  0  0  0  0999 V2000
   21.1400  -18.1788  -18.0264 C   0  0  0  0  0  0  0  0  0  0  0  0
   20.9495  -16.4089  -17.8304 S   0  0  0  0  0  0  0  0  0  0  0  0
   19.7486  -15.6750  -18.9403 C   0  0  0  0  0  0  0  0  0  0  0  0
   19.6333  -14.1929  -18.8611 C   0  0  0  0  0  0  0  0  0  0  0  0
   19.3579  -13.6505  -17.4965 C   0  0  2  0  0  0  0  0  0  0  0  0
   17.9997  -13.9615  -17.0734 N   0  0  0  0  0  0  0  0  0  0  0  0
   19.4525  -12.1562  -17.5527 C   0  0  0  0  0  0  0  0  0  0  0  0
   20.5293  -11.5566  -17.8563 O   0  0  0  0  0  0  0  0  0  0  0  0
   16.1928   -9.7623  -16.3696 O   0  0  0  0  0  0  0  0  0  0  0  0
   17.0197   -9.2496  -17.3618 C   0  0  0  0  0  0  0  0  0  0  0  0
   18.3944   -9.8829  -17.3576 C   0  0  2  0  0  0  0  0  0  0  0  0
   18.3331  -11.3208  -17.2673 N   0  0  0  0  0  0  0  0  0  0  0  0
   19.1353   -9.2794  -16.2202 C   0  0  0  0  0  0  0  0  0  0  0  0
   19.0159   -9.8199  -15.0912 O   0  0  0  0  0  0  0  0  0  0  0  0
   24.1516  -12.7816  -15.6237 O   0  0  0  0  0  0  0  0  0  0  0  0
   23.6480  -11.4956  -15.6144 C   0  0  0  0  0  0  0  0  0  0  0  0
   23.3935  -10.8110  -16.7845 C   0  0  0  0  0  0  0  0  0  0  0  0
   22.8912   -9.5309  -16.6980 C   0  0  0  0  0  0  0  0  0  0  0  0
   22.6470   -8.9445  -15.4478 C   0  0  0  0  0  0  0  0  0  0  0  0
   22.1308   -7.5627  -15.3566 C   0  0  0  0  0  0  0  0  0  0  0  0
   20.6480   -7.5871  -15.1263 C   0  0  2  0  0  0  0  0  0  0  0  0
   19.9637   -8.1436  -16.3148 N   0  0  0  0  0  0  0  0  0  0  0  0
   20.0765   -6.2539  -14.8922 C   0  0  0  0  0  0  0  0  0  0  0  0
   20.3762   -5.5134  -13.7644 O   0  0  0  0  0  0  0  0  0  0  0  0
   22.9073   -9.6434  -14.2786 C   0  0  0  0  0  0  0  0  0  0  0  0
   23.4095  -10.9233  -14.3702 C   0  0  0  0  0  0  0  0  0  0  0  0
   19.2854   -5.7349  -15.7157 O   0  0  0  0  0  0  0  0  0  0  0  0
  2  1  1  0
  3  2  1  0
  4  3  1  0
  5  7  1  0
  5  4  1  0
  5  6  1  6
  7  8  2  0
  9 10  1  0
 11 10  1  1
 11 12  1  0
 12  7  1  0
 13 11  1  0
 14 13  2  0
 16 15  1  0
 16 26  2  0
 17 16  1  0
 18 17  2  0
 18 19  1  0
 19 25  2  0
 20 19  1  0
 21 20  1  6
 21 22  1  0
 22 13  1  0
 23 24  1  0
 23 21  1  0
 25 26  1  0
 27 23  2  0
M  END
$$$$
