MSY.pdb
     RDKit          3D

 27 27  0  0  1  0  0  0  0  0999 V2000
   31.3434  -23.9511  -21.9136 C   0  0  0  0  0  0  0  0  0  0  0  0
   32.2164  -25.1483  -20.9076 S   0  0  0  0  0  0  0  0  0  0  0  0
   32.9064  -26.5185  -21.8346 C   0  0  0  0  0  0  0  0  0  0  0  0
   33.5993  -27.5526  -21.0182 C   0  0  0  0  0  0  0  0  0  0  0  0
   32.7058  -28.3813  -20.1538 C   0  0  2  0  0  0  0  0  0  0  0  0
   32.4617  -27.7290  -18.8751 N   0  0  0  0  0  0  0  0  0  0  0  0
   33.4067  -29.6693  -19.8454 C   0  0  0  0  0  0  0  0  0  0  0  0
   33.8920  -30.4108  -20.7542 O   0  0  0  0  0  0  0  0  0  0  0  0
   34.9408  -30.3203  -16.0934 O   0  0  0  0  0  0  0  0  0  0  0  0
   35.3805  -31.0958  -17.1595 C   0  0  0  0  0  0  0  0  0  0  0  0
   34.2968  -31.3383  -18.1878 C   0  0  2  0  0  0  0  0  0  0  0  0
   33.5685  -30.1357  -18.5080 N   0  0  0  0  0  0  0  0  0  0  0  0
   33.4158  -32.3979  -17.6329 C   0  0  0  0  0  0  0  0  0  0  0  0
   32.3054  -32.0470  -17.1588 O   0  0  0  0  0  0  0  0  0  0  0  0
   27.6148  -31.8780  -15.0415 O   0  0  0  0  0  0  0  0  0  0  0  0
   28.5570  -32.6378  -15.7068 C   0  0  0  0  0  0  0  0  0  0  0  0
   28.6870  -33.9915  -15.4763 C   0  0  0  0  0  0  0  0  0  0  0  0
   29.6492  -34.6855  -16.1771 C   0  0  0  0  0  0  0  0  0  0  0  0
   30.4727  -34.0255  -17.1004 C   0  0  0  0  0  0  0  0  0  0  0  0
   31.5202  -34.7668  -17.8336 C   0  0  0  0  0  0  0  0  0  0  0  0
   32.7942  -34.7667  -17.0402 C   0  0  2  0  0  0  0  0  0  0  0  0
   33.7346  -33.7700  -17.5993 N   0  0  0  0  0  0  0  0  0  0  0  0
   33.4874  -36.0621  -17.0581 C   0  0  0  0  0  0  0  0  0  0  0  0
   32.9323  -37.2005  -16.5050 O   0  0  0  0  0  0  0  0  0  0  0  0
   30.3321  -32.6639  -17.3229 C   0  0  0  0  0  0  0  0  0  0  0  0
   29.3684  -31.9742  -16.6198 C   0  0  0  0  0  0  0  0  0  0  0  0
   34.6216  -36.1821  -17.5800 O   0  0  0  0  0  0  0  0  0  0  0  0
  2  1  1  0
  3  2  1  0
  4  3  1  0
  5  7  1  0
  5  4  1  0
  5  6  1  1
  7  8  2  0
  9 10  1  0
 11 10  1  1
 11 12  1  0
 12  7  1  0
 13 11  1  0
 14 13  2  0
 16 15  1  0
 16 26  2  0
 17 16  1  0
 18 17  2  0
 18 19  1  0
 19 25  2  0
 20 19  1  0
 21 20  1  6
 21 22  1  0
 22 13  1  0
 23 24  1  0
 23 21  1  0
 25 26  1  0
 27 23  2  0
M  END
$$$$
