MSY.pdb
     RDKit          3D

 27 27  0  0  1  0  0  0  0  0999 V2000
   22.2028  -27.7040  -18.6105 C   0  0  0  0  0  0  0  0  0  0  0  0
   21.7312  -26.5604  -17.3154 S   0  0  0  0  0  0  0  0  0  0  0  0
   23.0904  -26.0379  -16.2702 C   0  0  0  0  0  0  0  0  0  0  0  0
   22.7467  -25.0132  -15.2466 C   0  0  0  0  0  0  0  0  0  0  0  0
   21.2841  -24.7855  -15.0436 C   0  0  2  0  0  0  0  0  0  0  0  0
   20.7749  -23.7884  -15.9747 N   0  0  0  0  0  0  0  0  0  0  0  0
   21.0780  -24.2260  -13.6690 C   0  0  0  0  0  0  0  0  0  0  0  0
   21.5880  -24.7604  -12.6367 O   0  0  0  0  0  0  0  0  0  0  0  0
   18.3150  -21.1232  -13.0117 O   0  0  0  0  0  0  0  0  0  0  0  0
   19.4267  -21.1407  -12.1781 C   0  0  0  0  0  0  0  0  0  0  0  0
   20.0950  -22.4978  -12.1287 C   0  0  2  0  0  0  0  0  0  0  0  0
   20.2943  -23.0568  -13.4429 N   0  0  0  0  0  0  0  0  0  0  0  0
   19.2388  -23.3608  -11.2748 C   0  0  0  0  0  0  0  0  0  0  0  0
   18.4100  -24.1129  -11.8478 O   0  0  0  0  0  0  0  0  0  0  0  0
   15.0648  -27.1014   -4.5472 O   0  0  0  0  0  0  0  0  0  0  0  0
   15.9965  -26.4714   -5.3489 C   0  0  0  0  0  0  0  0  0  0  0  0
   16.6957  -27.1576   -6.3198 C   0  0  0  0  0  0  0  0  0  0  0  0
   17.6098  -26.4633   -7.0822 C   0  0  0  0  0  0  0  0  0  0  0  0
   17.8189  -25.0930   -6.8708 C   0  0  0  0  0  0  0  0  0  0  0  0
   18.8169  -24.3550   -7.6732 C   0  0  0  0  0  0  0  0  0  0  0  0
   18.3245  -24.2017   -9.0826 C   0  0  2  0  0  0  0  0  0  0  0  0
   19.2882  -23.3979   -9.8672 N   0  0  0  0  0  0  0  0  0  0  0  0
   17.0278  -23.5166   -9.1716 C   0  0  0  0  0  0  0  0  0  0  0  0
   16.9279  -22.1632   -9.4328 O   0  0  0  0  0  0  0  0  0  0  0  0
   17.1096  -24.4145   -5.8911 C   0  0  0  0  0  0  0  0  0  0  0  0
   16.1965  -25.1131   -5.1313 C   0  0  0  0  0  0  0  0  0  0  0  0
   15.9527  -24.1422   -9.0097 O   0  0  0  0  0  0  0  0  0  0  0  0
  2  1  1  0
  3  2  1  0
  4  3  1  0
  5  7  1  0
  5  4  1  0
  5  6  1  6
  7  8  2  0
  9 10  1  0
 11 10  1  6
 11 12  1  0
 12  7  1  0
 13 11  1  0
 14 13  2  0
 16 15  1  0
 16 26  2  0
 17 16  1  0
 18 17  2  0
 18 19  1  0
 19 25  2  0
 20 19  1  0
 21 20  1  1
 21 22  1  0
 22 13  1  0
 23 24  1  0
 23 21  1  0
 25 26  1  0
 27 23  2  0
M  END
$$$$
