MSY.pdb
     RDKit          3D

 27 27  0  0  1  0  0  0  0  0999 V2000
   15.1014  -14.5605  -19.1939 C   0  0  0  0  0  0  0  0  0  0  0  0
   16.0355  -13.8250  -17.8545 S   0  0  0  0  0  0  0  0  0  0  0  0
   15.4178  -12.2287  -17.3223 C   0  0  0  0  0  0  0  0  0  0  0  0
   16.2185  -11.5600  -16.2603 C   0  0  0  0  0  0  0  0  0  0  0  0
   17.6977  -11.7346  -16.3770 C   0  0  2  0  0  0  0  0  0  0  0  0
   18.1276  -12.9843  -15.7656 N   0  0  0  0  0  0  0  0  0  0  0  0
   18.3666  -10.6353  -15.6093 C   0  0  0  0  0  0  0  0  0  0  0  0
   18.9717  -10.8455  -14.5135 O   0  0  0  0  0  0  0  0  0  0  0  0
   21.2947   -7.5991  -14.6127 O   0  0  0  0  0  0  0  0  0  0  0  0
   20.5775   -8.5787  -15.2889 C   0  0  0  0  0  0  0  0  0  0  0  0
   19.1079   -8.2398  -15.4160 C   0  0  2  0  0  0  0  0  0  0  0  0
   18.3605   -9.2859  -16.0690 N   0  0  0  0  0  0  0  0  0  0  0  0
   19.0324   -6.9517  -16.1523 C   0  0  0  0  0  0  0  0  0  0  0  0
   19.3662   -6.9500  -17.3645 O   0  0  0  0  0  0  0  0  0  0  0  0
   13.7978   -6.8641  -19.7285 O   0  0  0  0  0  0  0  0  0  0  0  0
   14.6425   -6.1093  -18.9383 C   0  0  0  0  0  0  0  0  0  0  0  0
   15.5153   -5.1919  -19.4851 C   0  0  0  0  0  0  0  0  0  0  0  0
   16.3283   -4.4744  -18.6349 C   0  0  0  0  0  0  0  0  0  0  0  0
   16.2648   -4.6771  -17.2488 C   0  0  0  0  0  0  0  0  0  0  0  0
   17.1544   -3.9239  -16.3401 C   0  0  0  0  0  0  0  0  0  0  0  0
   18.5421   -4.4925  -16.3990 C   0  0  2  0  0  0  0  0  0  0  0  0
   18.6132   -5.7297  -15.5899 N   0  0  0  0  0  0  0  0  0  0  0  0
   19.5647   -3.5795  -15.8704 C   0  0  0  0  0  0  0  0  0  0  0  0
   19.7688   -2.3190  -16.3993 O   0  0  0  0  0  0  0  0  0  0  0  0
   15.3830   -5.6027  -16.7114 C   0  0  0  0  0  0  0  0  0  0  0  0
   14.5719   -6.3178  -17.5658 C   0  0  0  0  0  0  0  0  0  0  0  0
   20.2991   -3.9158  -14.9108 O   0  0  0  0  0  0  0  0  0  0  0  0
  2  1  1  0
  3  2  1  0
  4  3  1  0
  5  7  1  0
  5  4  1  0
  5  6  1  1
  7  8  2  0
  9 10  1  0
 11 10  1  6
 11 12  1  0
 12  7  1  0
 13 11  1  0
 14 13  2  0
 16 15  1  0
 16 26  2  0
 17 16  1  0
 18 17  2  0
 18 19  1  0
 19 25  2  0
 20 19  1  0
 21 20  1  1
 21 22  1  0
 22 13  1  0
 23 24  1  0
 23 21  1  0
 25 26  1  0
 27 23  2  0
M  END
$$$$
