MSY.pdb
     RDKit          3D

 27 27  0  0  1  0  0  0  0  0999 V2000
   27.6533  -13.2820  -19.6897 C   0  0  0  0  0  0  0  0  0  0  0  0
   26.3412  -13.9256  -20.7248 S   0  0  0  0  0  0  0  0  0  0  0  0
   25.3102  -12.6623  -21.4691 C   0  0  0  0  0  0  0  0  0  0  0  0
   24.8424  -11.5965  -20.5412 C   0  0  0  0  0  0  0  0  0  0  0  0
   23.7673  -12.0109  -19.5902 C   0  0  2  0  0  0  0  0  0  0  0  0
   22.8719  -12.9822  -20.2026 N   0  0  0  0  0  0  0  0  0  0  0  0
   22.9320  -10.8096  -19.2668 C   0  0  0  0  0  0  0  0  0  0  0  0
   22.9921   -9.7398  -19.9474 O   0  0  0  0  0  0  0  0  0  0  0  0
   18.9304   -8.8091  -17.9104 O   0  0  0  0  0  0  0  0  0  0  0  0
   19.7395   -9.8938  -18.2266 C   0  0  0  0  0  0  0  0  0  0  0  0
   21.1899   -9.6633  -17.8609 C   0  0  2  0  0  0  0  0  0  0  0  0
   22.0192  -10.8013  -18.1718 N   0  0  0  0  0  0  0  0  0  0  0  0
   21.2139   -9.3293  -16.4135 C   0  0  0  0  0  0  0  0  0  0  0  0
   21.1436  -10.2789  -15.5924 O   0  0  0  0  0  0  0  0  0  0  0  0
   24.2019   -2.7110  -16.7455 O   0  0  0  0  0  0  0  0  0  0  0  0
   23.8709   -3.8918  -16.1101 C   0  0  0  0  0  0  0  0  0  0  0  0
   24.2486   -5.1166  -16.6198 C   0  0  0  0  0  0  0  0  0  0  0  0
   23.8829   -6.2530  -15.9316 C   0  0  0  0  0  0  0  0  0  0  0  0
   23.1449   -6.1592  -14.7429 C   0  0  0  0  0  0  0  0  0  0  0  0
   22.7329   -7.3800  -14.0188 C   0  0  0  0  0  0  0  0  0  0  0  0
   21.3461   -7.7752  -14.4346 C   0  0  2  0  0  0  0  0  0  0  0  0
   21.3101   -8.0234  -15.8932 N   0  0  0  0  0  0  0  0  0  0  0  0
   20.3408   -6.7409  -14.1544 C   0  0  0  0  0  0  0  0  0  0  0  0
   19.9950   -6.3821  -12.8654 O   0  0  0  0  0  0  0  0  0  0  0  0
   22.7711   -4.9216  -14.2411 C   0  0  0  0  0  0  0  0  0  0  0  0
   23.1393   -3.7881  -14.9328 C   0  0  0  0  0  0  0  0  0  0  0  0
   19.7521   -6.1412  -15.0856 O   0  0  0  0  0  0  0  0  0  0  0  0
  2  1  1  0
  3  2  1  0
  4  3  1  0
  5  7  1  0
  5  4  1  0
  5  6  1  6
  7  8  2  0
  9 10  1  0
 11 10  1  1
 11 12  1  0
 12  7  1  0
 13 11  1  0
 14 13  2  0
 16 15  1  0
 16 26  2  0
 17 16  1  0
 18 17  2  0
 18 19  1  0
 19 25  2  0
 20 19  1  0
 21 20  1  6
 21 22  1  0
 22 13  1  0
 23 24  1  0
 23 21  1  0
 25 26  1  0
 27 23  2  0
M  END
$$$$
