MSY.pdb
     RDKit          3D

 27 27  0  0  1  0  0  0  0  0999 V2000
   16.3737    1.9929  -12.5330 C   0  0  0  0  0  0  0  0  0  0  0  0
   14.9268    1.2911  -13.3212 S   0  0  0  0  0  0  0  0  0  0  0  0
   15.1121    1.0217  -15.0836 C   0  0  0  0  0  0  0  0  0  0  0  0
   16.3656    0.3304  -15.4920 C   0  0  0  0  0  0  0  0  0  0  0  0
   16.5854    0.2350  -16.9667 C   0  0  2  0  0  0  0  0  0  0  0  0
   15.3420   -0.0626  -17.6636 N   0  0  0  0  0  0  0  0  0  0  0  0
   17.5073   -0.9154  -17.2347 C   0  0  0  0  0  0  0  0  0  0  0  0
   17.0852   -2.1055  -17.3645 O   0  0  0  0  0  0  0  0  0  0  0  0
   21.6899   -0.3330  -17.3986 O   0  0  0  0  0  0  0  0  0  0  0  0
   21.1416   -1.3096  -18.2213 C   0  0  0  0  0  0  0  0  0  0  0  0
   19.8068   -1.8132  -17.7159 C   0  0  2  0  0  0  0  0  0  0  0  0
   18.9161   -0.7366  -17.3598 N   0  0  0  0  0  0  0  0  0  0  0  0
   20.0990   -2.7051  -16.5644 C   0  0  0  0  0  0  0  0  0  0  0  0
   19.9107   -2.2487  -15.4080 O   0  0  0  0  0  0  0  0  0  0  0  0
   21.8965   -9.4665  -11.3313 O   0  0  0  0  0  0  0  0  0  0  0  0
   21.5907   -8.6711  -12.4182 C   0  0  0  0  0  0  0  0  0  0  0  0
   20.3636   -8.0527  -12.5383 C   0  0  0  0  0  0  0  0  0  0  0  0
   20.1292   -7.2737  -13.6504 C   0  0  0  0  0  0  0  0  0  0  0  0
   21.1182   -7.1177  -14.6321 C   0  0  0  0  0  0  0  0  0  0  0  0
   20.8565   -6.3011  -15.8359 C   0  0  0  0  0  0  0  0  0  0  0  0
   20.8634   -4.8445  -15.4746 C   0  0  2  0  0  0  0  0  0  0  0  0
   20.5724   -4.0277  -16.6740 N   0  0  0  0  0  0  0  0  0  0  0  0
   22.1565   -4.3842  -14.9503 C   0  0  0  0  0  0  0  0  0  0  0  0
   22.4268   -4.3401  -13.5957 O   0  0  0  0  0  0  0  0  0  0  0  0
   22.3479   -7.7450  -14.4997 C   0  0  0  0  0  0  0  0  0  0  0  0
   22.5777   -8.5229  -13.3857 C   0  0  0  0  0  0  0  0  0  0  0  0
   23.0711   -4.0083  -15.7220 O   0  0  0  0  0  0  0  0  0  0  0  0
  2  1  1  0
  3  2  1  0
  4  3  1  0
  5  7  1  0
  5  4  1  0
  5  6  1  6
  7  8  2  0
  9 10  1  0
 11 10  1  1
 11 12  1  0
 12  7  1  0
 13 11  1  0
 14 13  2  0
 16 15  1  0
 16 26  2  0
 17 16  1  0
 18 17  2  0
 18 19  1  0
 19 25  2  0
 20 19  1  0
 21 20  1  6
 21 22  1  0
 22 13  1  0
 23 24  1  0
 23 21  1  0
 25 26  1  0
 27 23  2  0
M  END
$$$$
