MSY.pdb
     RDKit          3D

 27 27  0  0  1  0  0  0  0  0999 V2000
   31.4308  -20.7794   -8.1072 C   0  0  0  0  0  0  0  0  0  0  0  0
   32.3119  -21.8855   -9.2061 S   0  0  0  0  0  0  0  0  0  0  0  0
   31.3823  -22.3640  -10.6620 C   0  0  0  0  0  0  0  0  0  0  0  0
   30.1363  -21.5863  -10.9037 C   0  0  0  0  0  0  0  0  0  0  0  0
   29.3413  -22.0164  -12.0934 C   0  0  2  0  0  0  0  0  0  0  0  0
   30.2102  -22.3246  -13.2205 N   0  0  0  0  0  0  0  0  0  0  0  0
   28.4774  -20.8707  -12.5252 C   0  0  0  0  0  0  0  0  0  0  0  0
   27.8725  -20.1273  -11.6929 O   0  0  0  0  0  0  0  0  0  0  0  0
   27.2948  -20.5713  -16.5607 O   0  0  0  0  0  0  0  0  0  0  0  0
   27.3449  -19.3821  -15.8435 C   0  0  0  0  0  0  0  0  0  0  0  0
   27.2945  -19.6030  -14.3471 C   0  0  2  0  0  0  0  0  0  0  0  0
   28.2860  -20.5503  -13.9011 N   0  0  0  0  0  0  0  0  0  0  0  0
   25.9122  -20.0453  -14.0304 C   0  0  0  0  0  0  0  0  0  0  0  0
   25.7624  -20.8749  -13.0975 O   0  0  0  0  0  0  0  0  0  0  0  0
   17.8394  -20.8541  -11.5367 O   0  0  0  0  0  0  0  0  0  0  0  0
   19.1251  -20.4911  -11.8872 C   0  0  0  0  0  0  0  0  0  0  0  0
   19.3854  -19.3170  -12.5626 C   0  0  0  0  0  0  0  0  0  0  0  0
   20.6932  -19.0200  -12.8793 C   0  0  0  0  0  0  0  0  0  0  0  0
   21.7290  -19.8944  -12.5206 C   0  0  0  0  0  0  0  0  0  0  0  0
   23.1285  -19.5860  -12.8821 C   0  0  0  0  0  0  0  0  0  0  0  0
   23.4053  -20.0446  -14.2841 C   0  0  2  0  0  0  0  0  0  0  0  0
   24.7548  -19.6020  -14.7006 N   0  0  0  0  0  0  0  0  0  0  0  0
   22.4578  -19.5032  -15.2680 C   0  0  0  0  0  0  0  0  0  0  0  0
   21.3394  -20.2056  -15.6752 O   0  0  0  0  0  0  0  0  0  0  0  0
   21.4541  -21.0721  -11.8417 C   0  0  0  0  0  0  0  0  0  0  0  0
   20.1447  -21.3646  -11.5272 C   0  0  0  0  0  0  0  0  0  0  0  0
   22.6331  -18.3721  -15.7811 O   0  0  0  0  0  0  0  0  0  0  0  0
  2  1  1  0
  3  2  1  0
  4  3  1  0
  5  7  1  0
  5  4  1  0
  5  6  1  6
  7  8  2  0
  9 10  1  0
 11 10  1  6
 11 12  1  0
 12  7  1  0
 13 11  1  0
 14 13  2  0
 16 15  1  0
 16 26  2  0
 17 16  1  0
 18 17  2  0
 18 19  1  0
 19 25  2  0
 20 19  1  0
 21 20  1  1
 21 22  1  0
 22 13  1  0
 23 24  1  0
 23 21  1  0
 25 26  1  0
 27 23  2  0
M  END
$$$$
