MSY.pdb
     RDKit          3D

 27 27  0  0  1  0  0  0  0  0999 V2000
   27.7732  -12.7534  -15.4373 C   0  0  0  0  0  0  0  0  0  0  0  0
   27.2355  -14.4617  -15.4420 S   0  0  0  0  0  0  0  0  0  0  0  0
   25.7161  -14.7479  -16.3489 C   0  0  0  0  0  0  0  0  0  0  0  0
   24.8577  -13.5476  -16.5445 C   0  0  0  0  0  0  0  0  0  0  0  0
   23.6029  -13.7851  -17.3200 C   0  0  2  0  0  0  0  0  0  0  0  0
   23.8999  -14.2524  -18.6667 N   0  0  0  0  0  0  0  0  0  0  0  0
   22.8863  -12.4781  -17.4734 C   0  0  0  0  0  0  0  0  0  0  0  0
   23.2024  -11.6331  -18.3663 O   0  0  0  0  0  0  0  0  0  0  0  0
   19.2877  -12.2933  -15.8997 O   0  0  0  0  0  0  0  0  0  0  0  0
   19.6665  -10.9866  -16.1829 C   0  0  0  0  0  0  0  0  0  0  0  0
   21.0384  -10.9034  -16.8168 C   0  0  2  0  0  0  0  0  0  0  0  0
   21.8045  -12.1094  -16.6213 N   0  0  0  0  0  0  0  0  0  0  0  0
   21.7050   -9.7128  -16.2293 C   0  0  0  0  0  0  0  0  0  0  0  0
   22.2248   -9.8352  -15.0910 O   0  0  0  0  0  0  0  0  0  0  0  0
   27.3729  -10.9832  -17.8231 O   0  0  0  0  0  0  0  0  0  0  0  0
   26.4248   -9.9871  -17.6947 C   0  0  0  0  0  0  0  0  0  0  0  0
   25.4649   -9.7745  -18.6622 C   0  0  0  0  0  0  0  0  0  0  0  0
   24.5510   -8.7621  -18.4662 C   0  0  0  0  0  0  0  0  0  0  0  0
   24.6012   -7.9713  -17.3094 C   0  0  0  0  0  0  0  0  0  0  0  0
   23.6350   -6.8704  -17.1121 C   0  0  0  0  0  0  0  0  0  0  0  0
   22.5169   -7.3276  -16.2214 C   0  0  2  0  0  0  0  0  0  0  0  0
   21.7972   -8.4543  -16.8562 N   0  0  0  0  0  0  0  0  0  0  0  0
   21.5203   -6.2802  -15.9594 C   0  0  0  0  0  0  0  0  0  0  0  0
   20.2280   -6.3577  -16.4431 O   0  0  0  0  0  0  0  0  0  0  0  0
   25.5715   -8.1951  -16.3441 C   0  0  0  0  0  0  0  0  0  0  0  0
   26.4832   -9.2087  -16.5445 C   0  0  0  0  0  0  0  0  0  0  0  0
   21.8105   -5.2655  -15.2815 O   0  0  0  0  0  0  0  0  0  0  0  0
  2  1  1  0
  3  2  1  0
  4  3  1  0
  5  7  1  0
  5  4  1  0
  5  6  1  6
  7  8  2  0
  9 10  1  0
 11 10  1  1
 11 12  1  0
 12  7  1  0
 13 11  1  0
 14 13  2  0
 16 15  1  0
 16 26  2  0
 17 16  1  0
 18 17  2  0
 18 19  1  0
 19 25  2  0
 20 19  1  0
 21 20  1  6
 21 22  1  0
 22 13  1  0
 23 24  1  0
 23 21  1  0
 25 26  1  0
 27 23  2  0
M  END
$$$$
