MSY.pdb
     RDKit          3D

 27 27  0  0  1  0  0  0  0  0999 V2000
   23.7764  -15.3621  -25.3515 C   0  0  0  0  0  0  0  0  0  0  0  0
   25.0291  -15.6033  -26.6085 S   0  0  0  0  0  0  0  0  0  0  0  0
   26.3465  -16.7180  -26.1240 C   0  0  0  0  0  0  0  0  0  0  0  0
   26.0741  -17.5323  -24.9080 C   0  0  0  0  0  0  0  0  0  0  0  0
   27.2170  -18.3722  -24.4383 C   0  0  2  0  0  0  0  0  0  0  0  0
   27.6218  -19.3257  -25.4617 N   0  0  0  0  0  0  0  0  0  0  0  0
   26.7590  -19.1810  -23.2630 C   0  0  0  0  0  0  0  0  0  0  0  0
   25.8879  -20.0980  -23.3701 O   0  0  0  0  0  0  0  0  0  0  0  0
   28.9561  -20.0803  -19.8144 O   0  0  0  0  0  0  0  0  0  0  0  0
   27.7022  -19.5207  -19.6006 C   0  0  0  0  0  0  0  0  0  0  0  0
   26.7868  -19.6713  -20.7964 C   0  0  2  0  0  0  0  0  0  0  0  0
   27.2786  -18.9647  -21.9532 N   0  0  0  0  0  0  0  0  0  0  0  0
   25.4488  -19.1874  -20.3692 C   0  0  0  0  0  0  0  0  0  0  0  0
   25.1433  -17.9977  -20.6382 O   0  0  0  0  0  0  0  0  0  0  0  0
   17.1484  -17.5593  -19.8224 O   0  0  0  0  0  0  0  0  0  0  0  0
   18.4697  -17.9003  -20.0363 C   0  0  0  0  0  0  0  0  0  0  0  0
   19.4629  -16.9447  -20.0886 C   0  0  0  0  0  0  0  0  0  0  0  0
   20.7591  -17.3589  -20.3054 C   0  0  0  0  0  0  0  0  0  0  0  0
   21.0541  -18.7200  -20.4680 C   0  0  0  0  0  0  0  0  0  0  0  0
   22.4414  -19.1603  -20.7243 C   0  0  0  0  0  0  0  0  0  0  0  0
   23.1289  -19.4603  -19.4244 C   0  0  2  0  0  0  0  0  0  0  0  0
   24.4955  -19.9661  -19.6835 N   0  0  0  0  0  0  0  0  0  0  0  0
   22.4401  -20.4852  -18.6282 C   0  0  0  0  0  0  0  0  0  0  0  0
   21.3431  -20.1903  -17.8411 O   0  0  0  0  0  0  0  0  0  0  0  0
   20.0463  -19.6711  -20.4134 C   0  0  0  0  0  0  0  0  0  0  0  0
   18.7516  -19.2520  -20.1963 C   0  0  0  0  0  0  0  0  0  0  0  0
   22.8287  -21.6779  -18.6327 O   0  0  0  0  0  0  0  0  0  0  0  0
  2  1  1  0
  3  2  1  0
  4  3  1  0
  5  7  1  0
  5  4  1  0
  5  6  1  6
  7  8  2  0
  9 10  1  0
 11 10  1  1
 11 12  1  0
 12  7  1  0
 13 11  1  0
 14 13  2  0
 16 15  1  0
 16 26  2  0
 17 16  1  0
 18 17  2  0
 18 19  1  0
 19 25  2  0
 20 19  1  0
 21 20  1  6
 21 22  1  0
 22 13  1  0
 23 24  1  0
 23 21  1  0
 25 26  1  0
 27 23  2  0
M  END
$$$$
