MSY.pdb
     RDKit          3D

 27 27  0  0  1  0  0  0  0  0999 V2000
   30.0508  -15.5321  -18.0485 C   0  0  0  0  0  0  0  0  0  0  0  0
   28.4972  -15.9924  -17.2860 S   0  0  0  0  0  0  0  0  0  0  0  0
   27.7831  -14.7145  -16.2516 C   0  0  0  0  0  0  0  0  0  0  0  0
   26.5646  -15.1159  -15.4966 C   0  0  0  0  0  0  0  0  0  0  0  0
   25.6700  -16.0814  -16.2036 C   0  0  2  0  0  0  0  0  0  0  0  0
   25.0631  -15.4701  -17.3776 N   0  0  0  0  0  0  0  0  0  0  0  0
   24.5436  -16.4439  -15.2845 C   0  0  0  0  0  0  0  0  0  0  0  0
   24.7416  -16.9469  -14.1360 O   0  0  0  0  0  0  0  0  0  0  0  0
   20.5403  -15.9836  -16.5404 O   0  0  0  0  0  0  0  0  0  0  0  0
   20.7941  -15.9204  -15.1756 C   0  0  0  0  0  0  0  0  0  0  0  0
   22.0832  -16.6141  -14.7913 C   0  0  2  0  0  0  0  0  0  0  0  0
   23.1804  -16.2429  -15.6502 N   0  0  0  0  0  0  0  0  0  0  0  0
   21.8072  -18.0733  -14.8311 C   0  0  0  0  0  0  0  0  0  0  0  0
   22.0706  -18.6900  -15.8947 O   0  0  0  0  0  0  0  0  0  0  0  0
   19.6476  -26.3163  -12.8249 O   0  0  0  0  0  0  0  0  0  0  0  0
   20.1029  -25.0124  -12.8085 C   0  0  0  0  0  0  0  0  0  0  0  0
   21.2906  -24.6545  -13.4115 C   0  0  0  0  0  0  0  0  0  0  0  0
   21.6817  -23.3344  -13.3551 C   0  0  0  0  0  0  0  0  0  0  0  0
   20.8868  -22.3835  -12.6992 C   0  0  0  0  0  0  0  0  0  0  0  0
   21.3194  -20.9726  -12.6190 C   0  0  0  0  0  0  0  0  0  0  0  0
   20.9804  -20.2625  -13.8970 C   0  0  2  0  0  0  0  0  0  0  0  0
   21.2710  -18.8176  -13.7616 N   0  0  0  0  0  0  0  0  0  0  0  0
   19.5627  -20.3784  -14.2652 C   0  0  0  0  0  0  0  0  0  0  0  0
   19.0972  -21.3858  -15.0889 O   0  0  0  0  0  0  0  0  0  0  0  0
   19.6946  -22.7563  -12.0967 C   0  0  0  0  0  0  0  0  0  0  0  0
   19.3077  -24.0775  -12.1558 C   0  0  0  0  0  0  0  0  0  0  0  0
   18.7148  -19.5566  -13.8422 O   0  0  0  0  0  0  0  0  0  0  0  0
  2  1  1  0
  3  2  1  0
  4  3  1  0
  5  7  1  0
  5  4  1  0
  5  6  1  6
  7  8  2  0
  9 10  1  0
 11 10  1  6
 11 12  1  0
 12  7  1  0
 13 11  1  0
 14 13  2  0
 16 15  1  0
 16 26  2  0
 17 16  1  0
 18 17  2  0
 18 19  1  0
 19 25  2  0
 20 19  1  0
 21 20  1  1
 21 22  1  0
 22 13  1  0
 23 24  1  0
 23 21  1  0
 25 26  1  0
 27 23  2  0
M  END
$$$$
