MSY.pdb
     RDKit          3D

 27 27  0  0  1  0  0  0  0  0999 V2000
   18.9917  -22.8932  -16.9916 C   0  0  0  0  0  0  0  0  0  0  0  0
   20.2550  -21.6724  -17.3393 S   0  0  0  0  0  0  0  0  0  0  0  0
   21.4435  -22.1826  -18.5803 C   0  0  0  0  0  0  0  0  0  0  0  0
   21.6390  -23.6529  -18.7057 C   0  0  0  0  0  0  0  0  0  0  0  0
   22.9956  -24.1472  -18.3217 C   0  0  2  0  0  0  0  0  0  0  0  0
   24.0399  -23.3096  -18.8945 N   0  0  0  0  0  0  0  0  0  0  0  0
   23.1833  -25.5154  -18.9030 C   0  0  0  0  0  0  0  0  0  0  0  0
   22.4581  -26.5006  -18.5644 O   0  0  0  0  0  0  0  0  0  0  0  0
   26.3240  -26.2968  -21.6458 O   0  0  0  0  0  0  0  0  0  0  0  0
   25.1632  -27.0554  -21.7372 C   0  0  0  0  0  0  0  0  0  0  0  0
   24.3945  -27.1011  -20.4342 C   0  0  2  0  0  0  0  0  0  0  0  0
   24.1915  -25.7882  -19.8734 N   0  0  0  0  0  0  0  0  0  0  0  0
   25.1594  -27.9897  -19.5220 C   0  0  0  0  0  0  0  0  0  0  0  0
   25.7262  -27.4628  -18.5309 O   0  0  0  0  0  0  0  0  0  0  0  0
   27.8704  -33.6817  -13.8352 O   0  0  0  0  0  0  0  0  0  0  0  0
   27.2237  -32.8344  -14.7135 C   0  0  0  0  0  0  0  0  0  0  0  0
   26.1597  -33.2631  -15.4794 C   0  0  0  0  0  0  0  0  0  0  0  0
   25.5631  -32.3619  -16.3341 C   0  0  0  0  0  0  0  0  0  0  0  0
   26.0313  -31.0428  -16.4181 C   0  0  0  0  0  0  0  0  0  0  0  0
   25.4056  -30.0840  -17.3528 C   0  0  0  0  0  0  0  0  0  0  0  0
   26.0402  -30.2054  -18.7075 C   0  0  2  0  0  0  0  0  0  0  0  0
   25.2960  -29.3823  -19.6868 N   0  0  0  0  0  0  0  0  0  0  0  0
   26.0438  -31.5810  -19.2239 C   0  0  0  0  0  0  0  0  0  0  0  0
   27.0696  -32.4659  -18.9508 O   0  0  0  0  0  0  0  0  0  0  0  0
   27.1021  -30.6241  -15.6428 C   0  0  0  0  0  0  0  0  0  0  0  0
   27.6954  -31.5290  -14.7895 C   0  0  0  0  0  0  0  0  0  0  0  0
   25.1064  -32.0057  -19.9410 O   0  0  0  0  0  0  0  0  0  0  0  0
  2  1  1  0
  3  2  1  0
  4  3  1  0
  5  7  1  0
  5  4  1  0
  5  6  1  6
  7  8  2  0
  9 10  1  0
 11 10  1  6
 11 12  1  0
 12  7  1  0
 13 11  1  0
 14 13  2  0
 16 15  1  0
 16 26  2  0
 17 16  1  0
 18 17  2  0
 18 19  1  0
 19 25  2  0
 20 19  1  0
 21 20  1  1
 21 22  1  0
 22 13  1  0
 23 24  1  0
 23 21  1  0
 25 26  1  0
 27 23  2  0
M  END
$$$$
