MSY.pdb
     RDKit          3D

 27 27  0  0  1  0  0  0  0  0999 V2000
   27.8098  -15.8646  -19.7119 C   0  0  0  0  0  0  0  0  0  0  0  0
   26.4552  -16.6834  -20.5497 S   0  0  0  0  0  0  0  0  0  0  0  0
   25.4240  -15.5843  -21.5201 C   0  0  0  0  0  0  0  0  0  0  0  0
   25.2485  -14.2171  -20.9580 C   0  0  0  0  0  0  0  0  0  0  0  0
   23.8322  -13.8094  -20.7130 C   0  0  2  0  0  0  0  0  0  0  0  0
   23.0591  -13.8334  -21.9467 N   0  0  0  0  0  0  0  0  0  0  0  0
   23.8239  -12.3893  -20.2352 C   0  0  0  0  0  0  0  0  0  0  0  0
   24.3834  -12.0358  -19.1520 O   0  0  0  0  0  0  0  0  0  0  0  0
   21.2929   -9.4300  -21.9511 O   0  0  0  0  0  0  0  0  0  0  0  0
   22.5725   -9.0492  -21.5655 C   0  0  0  0  0  0  0  0  0  0  0  0
   23.1688   -9.9791  -20.5309 C   0  0  2  0  0  0  0  0  0  0  0  0
   23.1845  -11.3512  -20.9741 N   0  0  0  0  0  0  0  0  0  0  0  0
   22.3726   -9.7984  -19.2899 C   0  0  0  0  0  0  0  0  0  0  0  0
   21.4336  -10.6064  -19.0741 O   0  0  0  0  0  0  0  0  0  0  0  0
   19.5434   -8.3990  -11.2412 O   0  0  0  0  0  0  0  0  0  0  0  0
   20.2527   -8.6339  -12.4028 C   0  0  0  0  0  0  0  0  0  0  0  0
   20.1595   -9.8344  -13.0757 C   0  0  0  0  0  0  0  0  0  0  0  0
   20.8964   -9.9975  -14.2286 C   0  0  0  0  0  0  0  0  0  0  0  0
   21.7188   -8.9644  -14.7004 C   0  0  0  0  0  0  0  0  0  0  0  0
   22.5268   -9.1498  -15.9239 C   0  0  0  0  0  0  0  0  0  0  0  0
   21.7554   -8.6750  -17.1206 C   0  0  2  0  0  0  0  0  0  0  0  0
   22.5936   -8.7858  -18.3353 N   0  0  0  0  0  0  0  0  0  0  0  0
   21.3370   -7.2702  -17.0195 C   0  0  0  0  0  0  0  0  0  0  0  0
   20.1341   -6.9009  -16.4479 O   0  0  0  0  0  0  0  0  0  0  0  0
   21.8039   -7.7621  -14.0145 C   0  0  0  0  0  0  0  0  0  0  0  0
   21.0650   -7.6037  -12.8621 C   0  0  0  0  0  0  0  0  0  0  0  0
   22.0636   -6.3453  -17.4552 O   0  0  0  0  0  0  0  0  0  0  0  0
  2  1  1  0
  3  2  1  0
  4  3  1  0
  5  7  1  0
  5  4  1  0
  5  6  1  6
  7  8  2  0
  9 10  1  0
 11 10  1  6
 11 12  1  0
 12  7  1  0
 13 11  1  0
 14 13  2  0
 16 15  1  0
 16 26  2  0
 17 16  1  0
 18 17  2  0
 18 19  1  0
 19 25  2  0
 20 19  1  0
 21 20  1  1
 21 22  1  0
 22 13  1  0
 23 24  1  0
 23 21  1  0
 25 26  1  0
 27 23  2  0
M  END
$$$$
