FLY.pdb
     RDKit          3D

 32 33  0  0  1  0  0  0  0  0999 V2000
   11.1954  -16.2473   21.3656 N   0  0  0  0  0  0  0  0  0  0  0  0
    9.9879  -15.5999   21.8526 C   0  0  1  0  0  0  0  0  0  0  0  0
    8.7564  -16.2521   21.2618 C   0  0  0  0  0  0  0  0  0  0  0  0
    8.0134  -15.1534   20.5483 C   0  0  0  0  0  0  0  0  0  0  0  0
    8.5152  -14.6480   19.3624 C   0  0  0  0  0  0  0  0  0  0  0  0
    7.8653  -13.6452   18.6790 C   0  0  0  0  0  0  0  0  0  0  0  0
    6.6889  -13.1183   19.1671 C   0  0  0  0  0  0  0  0  0  0  0  0
    6.2008  -13.6372   20.3572 C   0  0  0  0  0  0  0  0  0  0  0  0
    6.8551  -14.6489   21.0481 C   0  0  0  0  0  0  0  0  0  0  0  0
    9.9821  -15.7329   23.3487 C   0  0  0  0  0  0  0  0  0  0  0  0
   10.9682  -16.2473   23.9658 O   0  0  0  0  0  0  0  0  0  0  0  0
    8.3057  -12.0936   26.6385 C   0  0  0  0  0  0  0  0  0  0  0  0
    7.4645  -13.0764   25.9036 C   0  0  2  0  0  0  0  0  0  0  0  0
    5.9913  -12.8205   26.3141 C   0  0  0  0  0  0  0  0  0  0  0  0
    7.7133  -14.5084   26.0414 C   0  0  0  0  0  0  0  0  0  0  0  0
    8.9483  -15.1652   25.5629 C   0  0  2  0  0  0  0  0  0  0  0  0
    8.8520  -15.2726   24.0670 N   0  0  0  0  0  0  0  0  0  0  0  0
    9.0965  -16.5432   26.0604 C   0  0  0  0  0  0  0  0  0  0  0  0
    8.2112  -17.4077   25.8895 O   0  0  0  0  0  0  0  0  0  0  0  0
   11.7381  -19.5377   21.2624 O   0  0  0  0  0  0  0  0  0  0  0  0
   11.6842  -19.4183   22.6421 C   0  0  0  0  0  0  0  0  0  0  0  0
   12.7411  -18.8377   23.3288 C   0  0  0  0  0  0  0  0  0  0  0  0
   12.6945  -18.7164   24.6948 C   0  0  0  0  0  0  0  0  0  0  0  0
   11.6241  -19.1518   25.4500 C   0  0  0  0  0  0  0  0  0  0  0  0
   11.5811  -19.0395   26.9196 C   0  0  0  0  0  0  0  0  0  0  0  0
   10.3621  -18.3159   27.3675 C   0  0  2  0  0  0  0  0  0  0  0  0
   10.2499  -16.9964   26.7692 N   0  0  0  0  0  0  0  0  0  0  0  0
   10.1728  -18.1842   28.8100 C   0  0  0  0  0  0  0  0  0  0  0  0
   10.1470  -19.1965   29.5528 O   0  0  0  0  0  0  0  0  0  0  0  0
   10.5806  -19.7279   24.7449 C   0  0  0  0  0  0  0  0  0  0  0  0
   10.6129  -19.8566   23.3740 C   0  0  0  0  0  0  0  0  0  0  0  0
   10.0200  -16.9555   29.3934 O   0  0  0  0  0  0  0  0  0  0  0  0
  2  3  1  0
  2  1  1  6
  4  5  2  0
  4  3  1  0
  6  5  1  0
  7  6  2  0
  8  7  1  0
  8  9  2  0
  9  4  1  0
 10  2  1  0
 11 10  2  0
 13 12  1  1
 14 13  1  0
 15 13  1  0
 16 15  1  1
 16 17  1  0
 17 10  1  0
 18 16  1  0
 18 19  2  0
 20 21  1  0
 21 31  2  0
 22 21  1  0
 22 23  2  0
 23 24  1  0
 24 30  2  0
 24 25  1  0
 26 25  1  1
 26 27  1  0
 27 18  1  0
 28 26  1  0
 29 28  2  0
 31 30  1  0
 32 28  1  0
M  END
$$$$
