FLY.pdb
     RDKit          3D

 32 33  0  0  1  0  0  0  0  0999 V2000
    7.2173  -18.8592   22.7502 N   0  0  0  0  0  0  0  0  0  0  0  0
    7.9410  -19.2901   21.5649 C   0  0  1  0  0  0  0  0  0  0  0  0
    6.9854  -19.8276   20.5213 C   0  0  0  0  0  0  0  0  0  0  0  0
    5.8243  -18.8689   20.4965 C   0  0  0  0  0  0  0  0  0  0  0  0
    4.8607  -18.9374   21.4867 C   0  0  0  0  0  0  0  0  0  0  0  0
    3.7853  -18.0782   21.5005 C   0  0  0  0  0  0  0  0  0  0  0  0
    3.6446  -17.1218   20.5181 C   0  0  0  0  0  0  0  0  0  0  0  0
    4.6202  -17.0678   19.5335 C   0  0  0  0  0  0  0  0  0  0  0  0
    5.7059  -17.9338   19.5179 C   0  0  0  0  0  0  0  0  0  0  0  0
    8.6773  -18.0944   21.0318 C   0  0  0  0  0  0  0  0  0  0  0  0
    9.3295  -18.1575   19.9416 O   0  0  0  0  0  0  0  0  0  0  0  0
    8.3297  -14.1486   18.5690 C   0  0  0  0  0  0  0  0  0  0  0  0
    7.6289  -14.3595   19.8644 C   0  0  2  0  0  0  0  0  0  0  0  0
    6.7304  -13.1198   20.1098 C   0  0  0  0  0  0  0  0  0  0  0  0
    8.3928  -14.5932   21.0863 C   0  0  0  0  0  0  0  0  0  0  0  0
    9.3714  -15.6919   21.2316 C   0  0  2  0  0  0  0  0  0  0  0  0
    8.6332  -16.8859   21.7683 N   0  0  0  0  0  0  0  0  0  0  0  0
   10.4292  -15.3939   22.2116 C   0  0  0  0  0  0  0  0  0  0  0  0
   10.8450  -14.2319   22.4043 O   0  0  0  0  0  0  0  0  0  0  0  0
    9.6606  -15.3506   30.6093 O   0  0  0  0  0  0  0  0  0  0  0  0
    9.9090  -15.2896   29.2471 C   0  0  0  0  0  0  0  0  0  0  0  0
   11.1983  -15.0603   28.7880 C   0  0  0  0  0  0  0  0  0  0  0  0
   11.4516  -14.9985   27.4408 C   0  0  0  0  0  0  0  0  0  0  0  0
   10.4679  -15.1561   26.4851 C   0  0  0  0  0  0  0  0  0  0  0  0
   10.7352  -15.0708   25.0375 C   0  0  0  0  0  0  0  0  0  0  0  0
   11.0159  -16.4130   24.4633 C   0  0  2  0  0  0  0  0  0  0  0  0
   11.0567  -16.3967   23.0108 N   0  0  0  0  0  0  0  0  0  0  0  0
   10.1385  -17.5017   24.8863 C   0  0  0  0  0  0  0  0  0  0  0  0
    9.0854  -17.7646   24.2546 O   0  0  0  0  0  0  0  0  0  0  0  0
    9.1890  -15.3839   26.9650 C   0  0  0  0  0  0  0  0  0  0  0  0
    8.9193  -15.4485   28.3141 C   0  0  0  0  0  0  0  0  0  0  0  0
   10.4390  -18.2668   25.9807 O   0  0  0  0  0  0  0  0  0  0  0  0
  2  3  1  0
  2  1  1  1
  4  5  2  0
  4  3  1  0
  6  5  1  0
  7  6  2  0
  8  7  1  0
  8  9  2  0
  9  4  1  0
 10  2  1  0
 11 10  2  0
 13 12  1  6
 14 13  1  0
 15 13  1  0
 16 15  1  1
 16 17  1  0
 17 10  1  0
 18 16  1  0
 18 19  2  0
 20 21  1  0
 21 31  2  0
 22 21  1  0
 22 23  2  0
 23 24  1  0
 24 30  2  0
 24 25  1  0
 26 25  1  6
 26 27  1  0
 27 18  1  0
 28 26  1  0
 29 28  2  0
 31 30  1  0
 32 28  1  0
M  END
$$$$
