FLY.pdb
     RDKit          3D

 32 33  0  0  1  0  0  0  0  0999 V2000
    6.6159  -16.3607   25.8039 N   0  0  0  0  0  0  0  0  0  0  0  0
    7.1983  -15.2556   25.0597 C   0  0  1  0  0  0  0  0  0  0  0  0
    8.1848  -14.4938   25.9186 C   0  0  0  0  0  0  0  0  0  0  0  0
    7.4433  -13.2815   26.4169 C   0  0  0  0  0  0  0  0  0  0  0  0
    6.0662  -13.2258   26.2967 C   0  0  0  0  0  0  0  0  0  0  0  0
    5.3516  -12.1365   26.7414 C   0  0  0  0  0  0  0  0  0  0  0  0
    5.9998  -11.0674   27.3216 C   0  0  0  0  0  0  0  0  0  0  0  0
    7.3804  -11.1406   27.4337 C   0  0  0  0  0  0  0  0  0  0  0  0
    8.1031  -12.2388   26.9857 C   0  0  0  0  0  0  0  0  0  0  0  0
    7.8913  -15.8397   23.8619 C   0  0  0  0  0  0  0  0  0  0  0  0
    7.6644  -17.0347   23.4903 O   0  0  0  0  0  0  0  0  0  0  0  0
    6.7929  -14.1497   20.0266 C   0  0  0  0  0  0  0  0  0  0  0  0
    7.9811  -13.5096   20.6530 C   0  0  2  0  0  0  0  0  0  0  0  0
    8.3738  -12.2994   19.7667 C   0  0  0  0  0  0  0  0  0  0  0  0
    9.1942  -14.2849   20.8951 C   0  0  0  0  0  0  0  0  0  0  0  0
    9.2339  -15.4724   21.7748 C   0  0  2  0  0  0  0  0  0  0  0  0
    8.8088  -15.0319   23.1473 N   0  0  0  0  0  0  0  0  0  0  0  0
   10.5885  -16.0293   21.9282 C   0  0  0  0  0  0  0  0  0  0  0  0
   10.9576  -17.0518   21.3131 O   0  0  0  0  0  0  0  0  0  0  0  0
   11.3993  -16.2692   30.5377 O   0  0  0  0  0  0  0  0  0  0  0  0
   11.1830  -16.1158   29.1774 C   0  0  0  0  0  0  0  0  0  0  0  0
   11.2059  -14.8490   28.6111 C   0  0  0  0  0  0  0  0  0  0  0  0
   10.9924  -14.6897   27.2651 C   0  0  0  0  0  0  0  0  0  0  0  0
   10.7485  -15.7491   26.4142 C   0  0  0  0  0  0  0  0  0  0  0  0
   10.4999  -15.5775   24.9709 C   0  0  0  0  0  0  0  0  0  0  0  0
   11.7391  -15.8049   24.1817 C   0  0  2  0  0  0  0  0  0  0  0  0
   11.5768  -15.4520   22.7815 N   0  0  0  0  0  0  0  0  0  0  0  0
   12.3243  -17.1414   24.2541 C   0  0  0  0  0  0  0  0  0  0  0  0
   13.4018  -17.3420   24.8674 O   0  0  0  0  0  0  0  0  0  0  0  0
   10.7301  -17.0038   26.9998 C   0  0  0  0  0  0  0  0  0  0  0  0
   10.9426  -17.1796   28.3493 C   0  0  0  0  0  0  0  0  0  0  0  0
   11.7157  -18.2126   23.6579 O   0  0  0  0  0  0  0  0  0  0  0  0
  2  3  1  0
  2  1  1  1
  4  5  2  0
  4  3  1  0
  6  5  1  0
  7  6  2  0
  8  7  1  0
  8  9  2  0
  9  4  1  0
 10  2  1  0
 11 10  2  0
 13 12  1  6
 14 13  1  0
 15 13  1  0
 16 15  1  6
 16 17  1  0
 17 10  1  0
 18 16  1  0
 18 19  2  0
 20 21  1  0
 21 31  2  0
 22 21  1  0
 22 23  2  0
 23 24  1  0
 24 30  2  0
 24 25  1  0
 26 25  1  1
 26 27  1  0
 27 18  1  0
 28 26  1  0
 29 28  2  0
 31 30  1  0
 32 28  1  0
M  END
$$$$
