FLY.pdb
     RDKit          3D

 32 33  0  0  1  0  0  0  0  0999 V2000
    7.8311  -17.0924   21.6723 N   0  0  0  0  0  0  0  0  0  0  0  0
    9.2595  -16.8211   21.6488 C   0  0  1  0  0  0  0  0  0  0  0  0
    9.6517  -16.1338   20.3584 C   0  0  0  0  0  0  0  0  0  0  0  0
    8.9044  -14.8264   20.3471 C   0  0  0  0  0  0  0  0  0  0  0  0
    7.5210  -14.8305   20.3437 C   0  0  0  0  0  0  0  0  0  0  0  0
    6.8011  -13.6572   20.3352 C   0  0  0  0  0  0  0  0  0  0  0  0
    7.4501  -12.4413   20.3298 C   0  0  0  0  0  0  0  0  0  0  0  0
    8.8371  -12.4565   20.3332 C   0  0  0  0  0  0  0  0  0  0  0  0
    9.5651  -13.6393   20.3418 C   0  0  0  0  0  0  0  0  0  0  0  0
    9.5659  -15.9380   22.8245 C   0  0  0  0  0  0  0  0  0  0  0  0
   10.7399  -15.4893   23.0200 O   0  0  0  0  0  0  0  0  0  0  0  0
    6.3548  -12.3899   26.7748 C   0  0  0  0  0  0  0  0  0  0  0  0
    7.6160  -13.1046   26.4395 C   0  0  2  0  0  0  0  0  0  0  0  0
    8.7261  -12.0331   26.2844 C   0  0  0  0  0  0  0  0  0  0  0  0
    7.6819  -13.9736   25.2682 C   0  0  0  0  0  0  0  0  0  0  0  0
    8.8509  -14.8226   24.9548 C   0  0  2  0  0  0  0  0  0  0  0  0
    8.5183  -15.6104   23.7189 N   0  0  0  0  0  0  0  0  0  0  0  0
    9.1387  -15.8149   26.0040 C   0  0  0  0  0  0  0  0  0  0  0  0
    8.3038  -16.6792   26.3449 O   0  0  0  0  0  0  0  0  0  0  0  0
   12.0012  -19.9845   22.2263 O   0  0  0  0  0  0  0  0  0  0  0  0
   11.9947  -19.4022   23.4840 C   0  0  0  0  0  0  0  0  0  0  0  0
   12.5442  -18.1409   23.6659 C   0  0  0  0  0  0  0  0  0  0  0  0
   12.5413  -17.5584   24.9083 C   0  0  0  0  0  0  0  0  0  0  0  0
   12.0070  -18.1728   26.0231 C   0  0  0  0  0  0  0  0  0  0  0  0
   12.0205  -17.5562   27.3625 C   0  0  0  0  0  0  0  0  0  0  0  0
   10.7191  -16.9053   27.6671 C   0  0  2  0  0  0  0  0  0  0  0  0
   10.3800  -15.8685   26.7071 N   0  0  0  0  0  0  0  0  0  0  0  0
   10.5616  -16.3561   29.0116 C   0  0  0  0  0  0  0  0  0  0  0  0
   10.2863  -15.1432   29.1854 O   0  0  0  0  0  0  0  0  0  0  0  0
   11.4640  -19.4304   25.8192 C   0  0  0  0  0  0  0  0  0  0  0  0
   11.4596  -20.0279   24.5782 C   0  0  0  0  0  0  0  0  0  0  0  0
   10.7077  -17.1466   30.1194 O   0  0  0  0  0  0  0  0  0  0  0  0
  2  3  1  0
  2  1  1  6
  4  5  2  0
  4  3  1  0
  6  5  1  0
  7  6  2  0
  8  7  1  0
  8  9  2  0
  9  4  1  0
 10  2  1  0
 11 10  2  0
 13 12  1  6
 14 13  1  0
 15 13  1  0
 16 15  1  1
 16 17  1  0
 17 10  1  0
 18 16  1  0
 18 19  2  0
 20 21  1  0
 21 31  2  0
 22 21  1  0
 22 23  2  0
 23 24  1  0
 24 30  2  0
 24 25  1  0
 26 25  1  6
 26 27  1  0
 27 18  1  0
 28 26  1  0
 29 28  2  0
 31 30  1  0
 32 28  1  0
M  END
$$$$
