FLY.pdb
     RDKit          3D

 32 33  0  0  1  0  0  0  0  0999 V2000
    8.1002  -18.4771   26.6488 N   0  0  0  0  0  0  0  0  0  0  0  0
    8.5335  -17.1827   26.1475 C   0  0  1  0  0  0  0  0  0  0  0  0
    9.9645  -16.9039   26.5545 C   0  0  0  0  0  0  0  0  0  0  0  0
    9.9233  -15.6233   27.3459 C   0  0  0  0  0  0  0  0  0  0  0  0
    9.4390  -14.4702   26.7547 C   0  0  0  0  0  0  0  0  0  0  0  0
    9.3831  -13.2804   27.4446 C   0  0  0  0  0  0  0  0  0  0  0  0
    9.8130  -13.2122   28.7524 C   0  0  0  0  0  0  0  0  0  0  0  0
   10.2953  -14.3779   29.3288 C   0  0  0  0  0  0  0  0  0  0  0  0
   10.3525  -15.5794   28.6343 C   0  0  0  0  0  0  0  0  0  0  0  0
    8.4145  -17.2206   24.6508 C   0  0  0  0  0  0  0  0  0  0  0  0
    8.3144  -18.3251   24.0281 O   0  0  0  0  0  0  0  0  0  0  0  0
    7.5359  -12.8849   20.2074 C   0  0  0  0  0  0  0  0  0  0  0  0
    7.6695  -14.3121   20.6064 C   0  0  2  0  0  0  0  0  0  0  0  0
    6.3864  -15.0445   20.1357 C   0  0  0  0  0  0  0  0  0  0  0  0
    7.8873  -14.6692   22.0051 C   0  0  0  0  0  0  0  0  0  0  0  0
    8.2380  -16.0359   22.4465 C   0  0  2  0  0  0  0  0  0  0  0  0
    8.4153  -15.9970   23.9383 N   0  0  0  0  0  0  0  0  0  0  0  0
    9.5207  -16.5062   21.8970 C   0  0  0  0  0  0  0  0  0  0  0  0
    9.5782  -17.3661   20.9928 O   0  0  0  0  0  0  0  0  0  0  0  0
    9.4162  -13.0936   16.7823 O   0  0  0  0  0  0  0  0  0  0  0  0
   10.1938  -13.5810   17.8209 C   0  0  0  0  0  0  0  0  0  0  0  0
   10.4199  -12.7971   18.9435 C   0  0  0  0  0  0  0  0  0  0  0  0
   11.1888  -13.2731   19.9754 C   0  0  0  0  0  0  0  0  0  0  0  0
   11.7690  -14.5257   19.9621 C   0  0  0  0  0  0  0  0  0  0  0  0
   12.6113  -15.0310   21.0619 C   0  0  0  0  0  0  0  0  0  0  0  0
   12.0379  -16.2691   21.6521 C   0  0  2  0  0  0  0  0  0  0  0  0
   10.7861  -16.0229   22.3478 N   0  0  0  0  0  0  0  0  0  0  0  0
   12.9114  -17.0375   22.5357 C   0  0  0  0  0  0  0  0  0  0  0  0
   14.1071  -17.2631   22.2249 O   0  0  0  0  0  0  0  0  0  0  0  0
   11.5306  -15.2910   18.8329 C   0  0  0  0  0  0  0  0  0  0  0  0
   10.7611  -14.8269   17.7891 C   0  0  0  0  0  0  0  0  0  0  0  0
   12.4533  -17.5319   23.7270 O   0  0  0  0  0  0  0  0  0  0  0  0
  2  3  1  0
  2  1  1  1
  4  5  2  0
  4  3  1  0
  6  5  1  0
  7  6  2  0
  8  7  1  0
  8  9  2  0
  9  4  1  0
 10  2  1  0
 11 10  2  0
 13 12  1  1
 14 13  1  0
 15 13  1  0
 16 15  1  6
 16 17  1  0
 17 10  1  0
 18 16  1  0
 18 19  2  0
 20 21  1  0
 21 31  2  0
 22 21  1  0
 22 23  2  0
 23 24  1  0
 24 30  2  0
 24 25  1  0
 26 25  1  1
 26 27  1  0
 27 18  1  0
 28 26  1  0
 29 28  2  0
 31 30  1  0
 32 28  1  0
M  END
$$$$
