FLY.pdb
     RDKit          3D

 32 33  0  0  1  0  0  0  0  0999 V2000
    5.7354  -17.5638   25.0610 N   0  0  0  0  0  0  0  0  0  0  0  0
    6.3703  -16.2556   25.0602 C   0  0  1  0  0  0  0  0  0  0  0  0
    6.8237  -15.8807   26.4548 C   0  0  0  0  0  0  0  0  0  0  0  0
    6.6485  -14.3883   26.5551 C   0  0  0  0  0  0  0  0  0  0  0  0
    7.7590  -13.5651   26.5017 C   0  0  0  0  0  0  0  0  0  0  0  0
    7.6410  -12.1963   26.5881 C   0  0  0  0  0  0  0  0  0  0  0  0
    6.4012  -11.6113   26.7311 C   0  0  0  0  0  0  0  0  0  0  0  0
    5.2992  -12.4521   26.7828 C   0  0  0  0  0  0  0  0  0  0  0  0
    5.4163  -13.8334   26.6959 C   0  0  0  0  0  0  0  0  0  0  0  0
    7.5482  -16.3314   24.1312 C   0  0  0  0  0  0  0  0  0  0  0  0
    8.2523  -17.3874   24.0489 O   0  0  0  0  0  0  0  0  0  0  0  0
    6.9047  -14.6124   19.9198 C   0  0  0  0  0  0  0  0  0  0  0  0
    7.6412  -13.7271   20.8619 C   0  0  2  0  0  0  0  0  0  0  0  0
    7.9021  -12.3869   20.1269 C   0  0  0  0  0  0  0  0  0  0  0  0
    8.9089  -14.1602   21.4423 C   0  0  0  0  0  0  0  0  0  0  0  0
    9.0219  -15.2911   22.3878 C   0  0  2  0  0  0  0  0  0  0  0  0
    7.8646  -15.1991   23.3421 N   0  0  0  0  0  0  0  0  0  0  0  0
   10.2376  -15.2286   23.2163 C   0  0  0  0  0  0  0  0  0  0  0  0
   10.2553  -14.6507   24.3236 O   0  0  0  0  0  0  0  0  0  0  0  0
   10.5376  -14.0064   29.3876 O   0  0  0  0  0  0  0  0  0  0  0  0
   10.8751  -14.7569   28.2723 C   0  0  0  0  0  0  0  0  0  0  0  0
   10.1874  -15.9294   27.9927 C   0  0  0  0  0  0  0  0  0  0  0  0
   10.5163  -16.6775   26.8904 C   0  0  0  0  0  0  0  0  0  0  0  0
   11.5230  -16.3210   26.0156 C   0  0  0  0  0  0  0  0  0  0  0  0
   11.8902  -17.1338   24.8414 C   0  0  0  0  0  0  0  0  0  0  0  0
   12.4783  -16.2909   23.7673 C   0  0  2  0  0  0  0  0  0  0  0  0
   11.4785  -15.8164   22.8256 N   0  0  0  0  0  0  0  0  0  0  0  0
   13.5833  -16.8735   23.0100 C   0  0  0  0  0  0  0  0  0  0  0  0
   13.4225  -17.2565   21.8248 O   0  0  0  0  0  0  0  0  0  0  0  0
   12.1961  -15.1479   26.3133 C   0  0  0  0  0  0  0  0  0  0  0  0
   11.8774  -14.3865   27.4160 C   0  0  0  0  0  0  0  0  0  0  0  0
   14.8245  -17.0174   23.5686 O   0  0  0  0  0  0  0  0  0  0  0  0
  2  3  1  0
  2  1  1  1
  4  5  2  0
  4  3  1  0
  6  5  1  0
  7  6  2  0
  8  7  1  0
  8  9  2  0
  9  4  1  0
 10  2  1  0
 11 10  2  0
 13 12  1  6
 14 13  1  0
 15 13  1  0
 16 15  1  6
 16 17  1  0
 17 10  1  0
 18 16  1  0
 18 19  2  0
 20 21  1  0
 21 31  2  0
 22 21  1  0
 22 23  2  0
 23 24  1  0
 24 30  2  0
 24 25  1  0
 26 25  1  1
 26 27  1  0
 27 18  1  0
 28 26  1  0
 29 28  2  0
 31 30  1  0
 32 28  1  0
M  END
$$$$
