FLY.pdb
     RDKit          3D

 32 33  0  0  1  0  0  0  0  0999 V2000
    7.0419  -12.2975   19.4276 N   0  0  0  0  0  0  0  0  0  0  0  0
    7.1127  -13.6446   19.9706 C   0  0  1  0  0  0  0  0  0  0  0  0
    7.8088  -14.5756   19.0011 C   0  0  0  0  0  0  0  0  0  0  0  0
    7.6916  -15.9525   19.5997 C   0  0  0  0  0  0  0  0  0  0  0  0
    8.3454  -17.0151   19.0020 C   0  0  0  0  0  0  0  0  0  0  0  0
    8.2648  -18.2883   19.5190 C   0  0  0  0  0  0  0  0  0  0  0  0
    7.5234  -18.5338   20.6547 C   0  0  0  0  0  0  0  0  0  0  0  0
    6.8747  -17.4566   21.2404 C   0  0  0  0  0  0  0  0  0  0  0  0
    6.9548  -16.1713   20.7202 C   0  0  0  0  0  0  0  0  0  0  0  0
    7.8785  -13.5667   21.2604 C   0  0  0  0  0  0  0  0  0  0  0  0
    9.1067  -13.2367   21.2756 O   0  0  0  0  0  0  0  0  0  0  0  0
    8.2684  -13.3620   26.9133 C   0  0  0  0  0  0  0  0  0  0  0  0
    7.4636  -12.4986   26.0074 C   0  0  2  0  0  0  0  0  0  0  0  0
    6.1878  -12.0796   26.7828 C   0  0  0  0  0  0  0  0  0  0  0  0
    7.0376  -12.9949   24.7022 C   0  0  0  0  0  0  0  0  0  0  0  0
    7.9449  -13.6908   23.7651 C   0  0  2  0  0  0  0  0  0  0  0  0
    7.2054  -13.8687   22.4690 N   0  0  0  0  0  0  0  0  0  0  0  0
    8.3078  -15.0451   24.2151 C   0  0  0  0  0  0  0  0  0  0  0  0
    7.4445  -15.9047   24.4910 O   0  0  0  0  0  0  0  0  0  0  0  0
   14.0319  -14.9981   20.1052 O   0  0  0  0  0  0  0  0  0  0  0  0
   13.1362  -15.6545   20.9346 C   0  0  0  0  0  0  0  0  0  0  0  0
   11.7909  -15.7060   20.5980 C   0  0  0  0  0  0  0  0  0  0  0  0
   10.8985  -16.3540   21.4145 C   0  0  0  0  0  0  0  0  0  0  0  0
   11.2723  -16.9774   22.5881 C   0  0  0  0  0  0  0  0  0  0  0  0
   10.3114  -17.6575   23.4761 C   0  0  0  0  0  0  0  0  0  0  0  0
   10.0352  -16.8459   24.6906 C   0  0  2  0  0  0  0  0  0  0  0  0
    9.6589  -15.4794   24.3701 N   0  0  0  0  0  0  0  0  0  0  0  0
   11.0864  -16.8074   25.7043 C   0  0  0  0  0  0  0  0  0  0  0  0
   11.5064  -15.7140   26.1576 O   0  0  0  0  0  0  0  0  0  0  0  0
   12.6189  -16.9139   22.9048 C   0  0  0  0  0  0  0  0  0  0  0  0
   13.5265  -16.2672   22.0953 C   0  0  0  0  0  0  0  0  0  0  0  0
   11.6422  -17.9600   26.1901 O   0  0  0  0  0  0  0  0  0  0  0  0
  2  3  1  0
  2  1  1  6
  4  5  2  0
  4  3  1  0
  6  5  1  0
  7  6  2  0
  8  7  1  0
  8  9  2  0
  9  4  1  0
 10  2  1  0
 11 10  2  0
 13 12  1  1
 14 13  1  0
 15 13  1  0
 16 15  1  1
 16 17  1  0
 17 10  1  0
 18 16  1  0
 18 19  2  0
 20 21  1  0
 21 31  2  0
 22 21  1  0
 22 23  2  0
 23 24  1  0
 24 30  2  0
 24 25  1  0
 26 25  1  6
 26 27  1  0
 27 18  1  0
 28 26  1  0
 29 28  2  0
 31 30  1  0
 32 28  1  0
M  END
$$$$
