FLY.pdb
     RDKit          3D

 32 33  0  0  1  0  0  0  0  0999 V2000
    5.9184  -17.8321   24.7450 N   0  0  0  0  0  0  0  0  0  0  0  0
    6.6095  -16.5540   24.6898 C   0  0  1  0  0  0  0  0  0  0  0  0
    7.2342  -16.2260   26.0289 C   0  0  0  0  0  0  0  0  0  0  0  0
    7.2837  -14.7225   26.1006 C   0  0  0  0  0  0  0  0  0  0  0  0
    6.1266  -14.0129   26.3678 C   0  0  0  0  0  0  0  0  0  0  0  0
    6.1304  -12.6384   26.4433 C   0  0  0  0  0  0  0  0  0  0  0  0
    7.2990  -11.9331   26.2524 C   0  0  0  0  0  0  0  0  0  0  0  0
    8.4492  -12.6611   25.9856 C   0  0  0  0  0  0  0  0  0  0  0  0
    8.4474  -14.0479   25.9089 C   0  0  0  0  0  0  0  0  0  0  0  0
    7.6703  -16.6650   23.6323 C   0  0  0  0  0  0  0  0  0  0  0  0
    8.1152  -17.7987   23.2654 O   0  0  0  0  0  0  0  0  0  0  0  0
    7.0486  -14.2104   19.4987 C   0  0  0  0  0  0  0  0  0  0  0  0
    7.8071  -13.5942   20.6206 C   0  0  2  0  0  0  0  0  0  0  0  0
    8.2233  -12.1704   20.1689 C   0  0  0  0  0  0  0  0  0  0  0  0
    8.9987  -14.2489   21.1522 C   0  0  0  0  0  0  0  0  0  0  0  0
    8.9751  -15.5870   21.7805 C   0  0  2  0  0  0  0  0  0  0  0  0
    8.1711  -15.4777   23.0455 N   0  0  0  0  0  0  0  0  0  0  0  0
   10.3107  -16.0550   22.1871 C   0  0  0  0  0  0  0  0  0  0  0  0
   10.7619  -17.1630   21.8278 O   0  0  0  0  0  0  0  0  0  0  0  0
   11.4121  -15.9602   30.7875 O   0  0  0  0  0  0  0  0  0  0  0  0
   11.1320  -15.8065   29.4389 C   0  0  0  0  0  0  0  0  0  0  0  0
   11.0707  -14.5356   28.8848 C   0  0  0  0  0  0  0  0  0  0  0  0
   10.7938  -14.3759   27.5504 C   0  0  0  0  0  0  0  0  0  0  0  0
   10.5652  -15.4390   26.6998 C   0  0  0  0  0  0  0  0  0  0  0  0
   10.2485  -15.2680   25.2698 C   0  0  0  0  0  0  0  0  0  0  0  0
   11.4272  -15.5769   24.4181 C   0  0  2  0  0  0  0  0  0  0  0  0
   11.1868  -15.2893   23.0142 N   0  0  0  0  0  0  0  0  0  0  0  0
   11.9742  -16.9273   24.5235 C   0  0  0  0  0  0  0  0  0  0  0  0
   11.6157  -17.8328   23.7305 O   0  0  0  0  0  0  0  0  0  0  0  0
   10.6311  -16.6978   27.2732 C   0  0  0  0  0  0  0  0  0  0  0  0
   10.9081  -16.8739   28.6109 C   0  0  0  0  0  0  0  0  0  0  0  0
   12.8931  -17.2444   25.4871 O   0  0  0  0  0  0  0  0  0  0  0  0
  2  3  1  0
  2  1  1  1
  4  5  2  0
  4  3  1  0
  6  5  1  0
  7  6  2  0
  8  7  1  0
  8  9  2  0
  9  4  1  0
 10  2  1  0
 11 10  2  0
 13 12  1  6
 14 13  1  0
 15 13  1  0
 16 15  1  1
 16 17  1  0
 17 10  1  0
 18 16  1  0
 18 19  2  0
 20 21  1  0
 21 31  2  0
 22 21  1  0
 22 23  2  0
 23 24  1  0
 24 30  2  0
 24 25  1  0
 26 25  1  1
 26 27  1  0
 27 18  1  0
 28 26  1  0
 29 28  2  0
 31 30  1  0
 32 28  1  0
M  END
$$$$
