RAA.pdb
     RDKit          3D

 22 21  0  0  1  0  0  0  0  0999 V2000
   21.8058  -21.4286   -8.9084 N   0  0  0  0  0  0  0  0  0  0  0  0
   22.6841  -21.5004   -7.7984 C   0  0  0  0  0  0  0  0  0  0  0  0
   22.2653  -22.1205   -6.7451 N   0  0  0  0  0  0  0  0  0  0  0  0
   23.9677  -20.9395   -7.7811 N   0  0  0  0  0  0  0  0  0  0  0  0
   24.4775  -20.1305   -8.8760 C   0  0  0  0  0  0  0  0  0  0  0  0
   24.7610  -21.0364  -10.0636 C   0  0  0  0  0  0  0  0  0  0  0  0
   25.3149  -20.2379  -11.1980 C   0  0  0  0  0  0  0  0  0  0  0  0
   25.5515  -21.0870  -12.4079 C   0  0  2  0  0  0  0  0  0  0  0  0
   26.6829  -21.9912  -12.1299 N   0  0  0  0  0  0  0  0  0  0  0  0
   25.8205  -20.2669  -13.5913 C   0  0  0  0  0  0  0  0  0  0  0  0
   26.9014  -19.6772  -13.7530 O   0  0  0  0  0  0  0  0  0  0  0  0
   22.8083  -22.2324   -5.8655 C   0  0  0  0  0  0  0  0  0  0  0  0
   24.0943  -19.8826  -16.8563 C   0  0  1  0  0  0  0  0  0  0  0  0
   25.0641  -19.3856  -15.7950 N   0  0  0  0  0  0  0  0  0  0  0  0
   24.7995  -20.1455  -14.5890 C   0  0  0  0  0  0  0  0  0  0  0  0
   24.8421  -17.9574  -15.5001 O   0  0  0  0  0  0  0  0  0  0  0  0
   23.9555  -17.6092  -14.7177 C   0  0  0  0  0  0  0  0  0  0  0  0
   26.6635  -14.8548  -15.2740 C   0  0  2  0  0  0  0  0  0  0  0  0
   25.4226  -15.5358  -15.8017 N   0  0  0  0  0  0  0  0  0  0  0  0
   25.6425  -16.9224  -16.1058 C   0  0  0  0  0  0  0  0  0  0  0  0
   25.0092  -14.8230  -17.0307 O   0  0  0  0  0  0  0  0  0  0  0  0
   24.6368  -13.6286  -16.9487 O   0  0  0  0  0  0  0  0  0  0  0  0
  1  2  1  0
  2  4  1  0
  3  2  2  0
  4  5  1  0
  5  6  1  0
  6  7  1  0
  7  8  1  0
  8 10  1  0
  8  9  1  1
 10 14  1  0
 10 11  2  0
 13 15  1  0
 13 12  1  6
 14 13  1  0
 15 16  2  0
 18 17  1  1
 19 18  1  0
 19 15  1  0
 20 22  1  0
 20 18  1  0
 21 20  2  0
M  END
$$$$
