RAA.pdb
     RDKit          3D

 22 21  0  0  1  0  0  0  0  0999 V2000
   13.1274  -13.1312  -10.4295 N   0  0  0  0  0  0  0  0  0  0  0  0
   12.4637  -13.1438  -11.6817 C   0  0  0  0  0  0  0  0  0  0  0  0
   11.3566  -13.8049  -11.7638 N   0  0  0  0  0  0  0  0  0  0  0  0
   12.9393  -12.4867  -12.8239 N   0  0  0  0  0  0  0  0  0  0  0  0
   14.1062  -11.6203  -12.7932 C   0  0  0  0  0  0  0  0  0  0  0  0
   14.3811  -11.1190  -14.2020 C   0  0  0  0  0  0  0  0  0  0  0  0
   15.6766  -10.3763  -14.2393 C   0  0  0  0  0  0  0  0  0  0  0  0
   15.9569   -9.8220  -15.6012 C   0  0  2  0  0  0  0  0  0  0  0  0
   16.2666  -10.9436  -16.5073 N   0  0  0  0  0  0  0  0  0  0  0  0
   17.0609   -8.8599  -15.5691 C   0  0  0  0  0  0  0  0  0  0  0  0
   18.2322   -9.1920  -15.8141 O   0  0  0  0  0  0  0  0  0  0  0  0
   10.7858  -13.9041  -12.6271 C   0  0  0  0  0  0  0  0  0  0  0  0
   17.1265   -5.1323  -15.2500 C   0  0  1  0  0  0  0  0  0  0  0  0
   17.8002   -6.4862  -15.4131 N   0  0  0  0  0  0  0  0  0  0  0  0
   16.7726   -7.4949  -15.2434 C   0  0  0  0  0  0  0  0  0  0  0  0
   18.8294   -6.6955  -14.3773 O   0  0  0  0  0  0  0  0  0  0  0  0
   18.5669   -7.3254  -13.3509 C   0  0  0  0  0  0  0  0  0  0  0  0
   22.0999   -7.5347  -13.8562 C   0  0  2  0  0  0  0  0  0  0  0  0
   21.1643   -6.4006  -13.5091 N   0  0  0  0  0  0  0  0  0  0  0  0
   20.1681   -6.1795  -14.5202 C   0  0  0  0  0  0  0  0  0  0  0  0
   21.9824   -5.1780  -13.3500 O   0  0  0  0  0  0  0  0  0  0  0  0
   21.9153   -4.2798  -14.2222 O   0  0  0  0  0  0  0  0  0  0  0  0
  1  2  1  0
  2  4  1  0
  3  2  2  0
  4  5  1  0
  5  6  1  0
  6  7  1  0
  7  8  1  0
  8 10  1  0
  8  9  1  6
 10 14  1  0
 10 11  2  0
 13 15  1  0
 13 12  1  6
 14 13  1  0
 15 16  2  0
 18 17  1  1
 19 18  1  0
 19 15  1  0
 20 22  1  0
 20 18  1  0
 21 20  2  0
M  END
$$$$
