RAA.pdb
     RDKit          3D

 22 21  0  0  1  0  0  0  0  0999 V2000
   22.8301  -20.0353  -10.3141 N   0  0  0  0  0  0  0  0  0  0  0  0
   23.8187  -20.7229   -9.5667 C   0  0  0  0  0  0  0  0  0  0  0  0
   23.7852  -20.6032   -8.2806 N   0  0  0  0  0  0  0  0  0  0  0  0
   24.8208  -21.5155  -10.1411 N   0  0  0  0  0  0  0  0  0  0  0  0
   25.9934  -20.9429  -10.7817 C   0  0  0  0  0  0  0  0  0  0  0  0
   25.5667  -20.2799  -12.0816 C   0  0  0  0  0  0  0  0  0  0  0  0
   26.7632  -19.7647  -12.8125 C   0  0  0  0  0  0  0  0  0  0  0  0
   27.2185  -20.7207  -13.8706 C   0  0  2  0  0  0  0  0  0  0  0  0
   28.5651  -21.2050  -13.5143 N   0  0  0  0  0  0  0  0  0  0  0  0
   27.2262  -20.0898  -15.1924 C   0  0  0  0  0  0  0  0  0  0  0  0
   28.1219  -19.3043  -15.5429 O   0  0  0  0  0  0  0  0  0  0  0  0
   24.4065  -21.1112   -7.6197 C   0  0  0  0  0  0  0  0  0  0  0  0
   25.6742  -20.9472  -18.3757 C   0  0  1  0  0  0  0  0  0  0  0  0
   26.2027  -19.8605  -17.4519 N   0  0  0  0  0  0  0  0  0  0  0  0
   26.1632  -20.3929  -16.1039 C   0  0  0  0  0  0  0  0  0  0  0  0
   25.3469  -18.6600  -17.5004 O   0  0  0  0  0  0  0  0  0  0  0  0
   24.3797  -18.5485  -16.7445 C   0  0  0  0  0  0  0  0  0  0  0  0
   25.3470  -15.2775  -19.2215 C   0  0  2  0  0  0  0  0  0  0  0  0
   24.7163  -16.4538  -18.5140 N   0  0  0  0  0  0  0  0  0  0  0  0
   25.6026  -17.5805  -18.4212 C   0  0  0  0  0  0  0  0  0  0  0  0
   23.5089  -16.8403  -19.2770 O   0  0  0  0  0  0  0  0  0  0  0  0
   23.5510  -17.8517  -20.0168 O   0  0  0  0  0  0  0  0  0  0  0  0
  1  2  1  0
  2  4  1  0
  3  2  2  0
  4  5  1  0
  5  6  1  0
  6  7  1  0
  7  8  1  0
  8 10  1  0
  8  9  1  1
 10 14  1  0
 10 11  2  0
 13 15  1  0
 13 12  1  6
 14 13  1  0
 15 16  2  0
 18 17  1  1
 19 18  1  0
 19 15  1  0
 20 22  1  0
 20 18  1  0
 21 20  2  0
M  END
$$$$
