RAA.pdb
     RDKit          3D

 22 21  0  0  1  0  0  0  0  0999 V2000
   28.4247   -5.2018  -20.6813 N   0  0  0  0  0  0  0  0  0  0  0  0
   28.3266   -6.5690  -20.3210 C   0  0  0  0  0  0  0  0  0  0  0  0
   27.6303   -7.3401  -21.0891 N   0  0  0  0  0  0  0  0  0  0  0  0
   28.9360   -7.1233  -19.1880 N   0  0  0  0  0  0  0  0  0  0  0  0
   29.7357   -6.3304  -18.2688 C   0  0  0  0  0  0  0  0  0  0  0  0
   31.1862   -6.7736  -18.3740 C   0  0  0  0  0  0  0  0  0  0  0  0
   31.5078   -7.7424  -17.2834 C   0  0  0  0  0  0  0  0  0  0  0  0
   32.9536   -8.1300  -17.2970 C   0  0  2  0  0  0  0  0  0  0  0  0
   33.0502   -9.5608  -17.6410 N   0  0  0  0  0  0  0  0  0  0  0  0
   33.5902   -7.8620  -16.0053 C   0  0  0  0  0  0  0  0  0  0  0  0
   33.5980   -8.6990  -15.0879 O   0  0  0  0  0  0  0  0  0  0  0  0
   27.4955   -8.3606  -20.9428 C   0  0  0  0  0  0  0  0  0  0  0  0
   36.1445   -7.3463  -14.6018 C   0  0  2  0  0  0  0  0  0  0  0  0
   34.9870   -6.3595  -14.5925 N   0  0  0  0  0  0  0  0  0  0  0  0
   34.2211   -6.5921  -15.8013 C   0  0  0  0  0  0  0  0  0  0  0  0
   35.4756   -4.9678  -14.6149 O   0  0  0  0  0  0  0  0  0  0  0  0
   36.2336   -4.5551  -13.7348 C   0  0  0  0  0  0  0  0  0  0  0  0
   35.5360   -2.0459  -17.0029 C   0  0  2  0  0  0  0  0  0  0  0  0
   35.5241   -2.6740  -15.6291 N   0  0  0  0  0  0  0  0  0  0  0  0
   35.0929   -4.0441  -15.6536 C   0  0  0  0  0  0  0  0  0  0  0  0
   34.6020   -1.8839  -14.7836 O   0  0  0  0  0  0  0  0  0  0  0  0
   33.3811   -2.1688  -14.7792 O   0  0  0  0  0  0  0  0  0  0  0  0
  1  2  1  0
  2  4  1  0
  3  2  2  0
  4  5  1  0
  5  6  1  0
  6  7  1  0
  7  8  1  0
  8 10  1  0
  8  9  1  1
 10 14  1  0
 10 11  2  0
 13 15  1  0
 13 12  1  1
 14 13  1  0
 15 16  2  0
 18 17  1  6
 19 18  1  0
 19 15  1  0
 20 22  1  0
 20 18  1  0
 21 20  2  0
M  END
$$$$
