RAA.pdb
     RDKit          3D

 22 21  0  0  1  0  0  0  0  0999 V2000
   11.7403   -6.9147   -8.3634 N   0  0  0  0  0  0  0  0  0  0  0  0
   11.7151   -8.2323   -8.8850 C   0  0  0  0  0  0  0  0  0  0  0  0
   10.5840   -8.8568   -8.8746 N   0  0  0  0  0  0  0  0  0  0  0  0
   12.8390   -8.8880   -9.4040 N   0  0  0  0  0  0  0  0  0  0  0  0
   14.1522   -8.2659   -9.4450 C   0  0  0  0  0  0  0  0  0  0  0  0
   15.1245   -9.2186  -10.1220 C   0  0  0  0  0  0  0  0  0  0  0  0
   16.4320   -8.5360  -10.3582 C   0  0  0  0  0  0  0  0  0  0  0  0
   17.4065   -9.4341  -11.0543 C   0  0  2  0  0  0  0  0  0  0  0  0
   17.5633  -10.6628  -10.2538 N   0  0  0  0  0  0  0  0  0  0  0  0
   18.6985   -8.7718  -11.2479 C   0  0  0  0  0  0  0  0  0  0  0  0
   19.4708   -8.5437  -10.3025 O   0  0  0  0  0  0  0  0  0  0  0  0
   10.4389   -9.8300   -9.2104 C   0  0  0  0  0  0  0  0  0  0  0  0
   21.2344   -8.6438  -13.5611 C   0  0  2  0  0  0  0  0  0  0  0  0
   20.3368   -7.6933  -12.7835 N   0  0  0  0  0  0  0  0  0  0  0  0
   19.0759   -8.3772  -12.5725 C   0  0  0  0  0  0  0  0  0  0  0  0
   20.0727   -6.4632  -13.5536 O   0  0  0  0  0  0  0  0  0  0  0  0
   19.1667   -6.4285  -14.3886 C   0  0  0  0  0  0  0  0  0  0  0  0
   21.1816   -2.8380  -13.4639 C   0  0  2  0  0  0  0  0  0  0  0  0
   20.5608   -4.0627  -14.0939 N   0  0  0  0  0  0  0  0  0  0  0  0
   20.8523   -5.2652  -13.3641 C   0  0  0  0  0  0  0  0  0  0  0  0
   21.0971   -4.1799  -15.4680 O   0  0  0  0  0  0  0  0  0  0  0  0
   21.8979   -5.1071  -15.7346 O   0  0  0  0  0  0  0  0  0  0  0  0
  1  2  1  0
  2  4  1  0
  3  2  2  0
  4  5  1  0
  5  6  1  0
  6  7  1  0
  7  8  1  0
  8 10  1  0
  8  9  1  1
 10 14  1  0
 10 11  2  0
 13 15  1  0
 13 12  1  1
 14 13  1  0
 15 16  2  0
 18 17  1  1
 19 18  1  0
 19 15  1  0
 20 22  1  0
 20 18  1  0
 21 20  2  0
M  END
$$$$
