RAA.pdb
     RDKit          3D

 22 21  0  0  1  0  0  0  0  0999 V2000
   22.6189  -21.1158   -6.7861 N   0  0  0  0  0  0  0  0  0  0  0  0
   22.3573  -21.5545   -8.1082 C   0  0  0  0  0  0  0  0  0  0  0  0
   21.1236  -21.7490   -8.4394 N   0  0  0  0  0  0  0  0  0  0  0  0
   23.3538  -21.7879   -9.0647 N   0  0  0  0  0  0  0  0  0  0  0  0
   24.7538  -21.4830   -8.8194 C   0  0  0  0  0  0  0  0  0  0  0  0
   25.1053  -20.1877   -9.5336 C   0  0  0  0  0  0  0  0  0  0  0  0
   26.2713  -20.4022  -10.4423 C   0  0  0  0  0  0  0  0  0  0  0  0
   25.8633  -21.0757  -11.7154 C   0  0  2  0  0  0  0  0  0  0  0  0
   26.1661  -22.5145  -11.6004 N   0  0  0  0  0  0  0  0  0  0  0  0
   26.5474  -20.4915  -12.8713 C   0  0  0  0  0  0  0  0  0  0  0  0
   27.6327  -20.9300  -13.2861 O   0  0  0  0  0  0  0  0  0  0  0  0
   20.8042  -22.0961   -9.3659 C   0  0  0  0  0  0  0  0  0  0  0  0
   26.3490  -19.9553  -15.8208 C   0  0  1  0  0  0  0  0  0  0  0  0
   26.5241  -18.8739  -14.7655 N   0  0  0  0  0  0  0  0  0  0  0  0
   25.9394  -19.3792  -13.5388 C   0  0  0  0  0  0  0  0  0  0  0  0
   25.8092  -17.6408  -15.1453 O   0  0  0  0  0  0  0  0  0  0  0  0
   24.5928  -17.6572  -15.3438 C   0  0  0  0  0  0  0  0  0  0  0  0
   26.6739  -13.9581  -15.6235 C   0  0  2  0  0  0  0  0  0  0  0  0
   25.7735  -15.1703  -15.5780 N   0  0  0  0  0  0  0  0  0  0  0  0
   26.4937  -16.3811  -15.2976 C   0  0  0  0  0  0  0  0  0  0  0  0
   25.1121  -15.2863  -16.8965 O   0  0  0  0  0  0  0  0  0  0  0  0
   25.5556  -16.1087  -17.7326 O   0  0  0  0  0  0  0  0  0  0  0  0
  1  2  1  0
  2  4  1  0
  3  2  2  0
  4  5  1  0
  5  6  1  0
  6  7  1  0
  7  8  1  0
  8 10  1  0
  8  9  1  1
 10 14  1  0
 10 11  2  0
 13 15  1  0
 13 12  1  1
 14 13  1  0
 15 16  2  0
 18 17  1  1
 19 18  1  0
 19 15  1  0
 20 22  1  0
 20 18  1  0
 21 20  2  0
M  END
$$$$
