RAA.pdb
     RDKit          3D

 22 21  0  0  1  0  0  0  0  0999 V2000
   11.9829   -8.5314  -14.5674 N   0  0  0  0  0  0  0  0  0  0  0  0
   12.6540   -9.6691  -15.0814 C   0  0  0  0  0  0  0  0  0  0  0  0
   12.0549  -10.3502  -16.0015 N   0  0  0  0  0  0  0  0  0  0  0  0
   13.9176  -10.0916  -14.6489 N   0  0  0  0  0  0  0  0  0  0  0  0
   14.8954   -9.1727  -14.0896 C   0  0  0  0  0  0  0  0  0  0  0  0
   16.1585   -9.2280  -14.9340 C   0  0  0  0  0  0  0  0  0  0  0  0
   17.1333   -8.1964  -14.4684 C   0  0  0  0  0  0  0  0  0  0  0  0
   18.1656   -8.7831  -13.5568 C   0  0  2  0  0  0  0  0  0  0  0  0
   17.5293   -9.0789  -12.2597 N   0  0  0  0  0  0  0  0  0  0  0  0
   19.3020   -7.8754  -13.3830 C   0  0  0  0  0  0  0  0  0  0  0  0
   19.2779   -6.9370  -12.5699 O   0  0  0  0  0  0  0  0  0  0  0  0
   12.4600  -11.1729  -16.4913 C   0  0  0  0  0  0  0  0  0  0  0  0
   22.7884   -7.8623  -14.7309 C   0  0  1  0  0  0  0  0  0  0  0  0
   21.6189   -7.2094  -14.0100 N   0  0  0  0  0  0  0  0  0  0  0  0
   20.4743   -8.0828  -14.1800 C   0  0  0  0  0  0  0  0  0  0  0  0
   21.2936   -5.8991  -14.6044 O   0  0  0  0  0  0  0  0  0  0  0  0
   20.5825   -5.8254  -15.6086 C   0  0  0  0  0  0  0  0  0  0  0  0
   21.4267   -2.2821  -13.5986 C   0  0  2  0  0  0  0  0  0  0  0  0
   21.4446   -3.3953  -14.6196 N   0  0  0  0  0  0  0  0  0  0  0  0
   21.7863   -4.6659  -14.0432 C   0  0  0  0  0  0  0  0  0  0  0  0
   22.4431   -3.0398  -15.6521 O   0  0  0  0  0  0  0  0  0  0  0  0
   23.4712   -3.7465  -15.7771 O   0  0  0  0  0  0  0  0  0  0  0  0
  1  2  1  0
  2  4  1  0
  3  2  2  0
  4  5  1  0
  5  6  1  0
  6  7  1  0
  7  8  1  0
  8 10  1  0
  8  9  1  1
 10 14  1  0
 10 11  2  0
 13 15  1  0
 13 12  1  1
 14 13  1  0
 15 16  2  0
 18 17  1  1
 19 18  1  0
 19 15  1  0
 20 22  1  0
 20 18  1  0
 21 20  2  0
M  END
$$$$
