RAA.pdb
     RDKit          3D

 22 21  0  0  1  0  0  0  0  0999 V2000
   18.7566  -13.5346    4.0356 N   0  0  0  0  0  0  0  0  0  0  0  0
   17.3908  -13.4209    3.6745 C   0  0  0  0  0  0  0  0  0  0  0  0
   17.0485  -12.4112    2.9447 N   0  0  0  0  0  0  0  0  0  0  0  0
   16.4020  -14.3337    4.0636 N   0  0  0  0  0  0  0  0  0  0  0  0
   16.7150  -15.5654    4.7694 C   0  0  0  0  0  0  0  0  0  0  0  0
   16.4519  -16.7414    3.8425 C   0  0  0  0  0  0  0  0  0  0  0  0
   16.8107  -18.0219    4.5227 C   0  0  0  0  0  0  0  0  0  0  0  0
   16.5717  -19.2044    3.6365 C   0  0  2  0  0  0  0  0  0  0  0  0
   15.1571  -19.1973    3.2197 N   0  0  0  0  0  0  0  0  0  0  0  0
   16.9067  -20.4576    4.3167 C   0  0  0  0  0  0  0  0  0  0  0  0
   16.0330  -21.2347    4.7350 O   0  0  0  0  0  0  0  0  0  0  0  0
   16.0800  -12.2095    2.6251 C   0  0  0  0  0  0  0  0  0  0  0  0
   19.4449  -22.8800    4.5343 C   0  0  1  0  0  0  0  0  0  0  0  0
   18.6481  -21.8921    5.3726 N   0  0  0  0  0  0  0  0  0  0  0  0
   18.2878  -20.7902    4.5019 C   0  0  0  0  0  0  0  0  0  0  0  0
   19.4621  -21.3587    6.4812 O   0  0  0  0  0  0  0  0  0  0  0  0
   20.1329  -20.3356    6.3307 C   0  0  0  0  0  0  0  0  0  0  0  0
   21.7656  -21.3044    8.4172 C   0  0  1  0  0  0  0  0  0  0  0  0
   20.3249  -21.4883    8.8330 N   0  0  0  0  0  0  0  0  0  0  0  0
   19.5064  -22.0026    7.7704 C   0  0  0  0  0  0  0  0  0  0  0  0
   19.8088  -20.1675    9.2553 O   0  0  0  0  0  0  0  0  0  0  0  0
   18.8710  -19.6427    8.6094 O   0  0  0  0  0  0  0  0  0  0  0  0
  1  2  1  0
  2  4  1  0
  3  2  2  0
  4  5  1  0
  5  6  1  0
  6  7  1  0
  7  8  1  0
  8 10  1  0
  8  9  1  1
 10 14  1  0
 10 11  2  0
 13 15  1  0
 13 12  1  6
 14 13  1  0
 15 16  2  0
 18 17  1  1
 19 18  1  0
 19 15  1  0
 20 22  1  0
 20 18  1  0
 21 20  2  0
M  END
$$$$
