RAA.pdb
     RDKit          3D

 22 21  0  0  1  0  0  0  0  0999 V2000
   19.2689  -10.2959  -16.6005 N   0  0  0  0  0  0  0  0  0  0  0  0
   18.8207  -11.1979  -15.6035 C   0  0  0  0  0  0  0  0  0  0  0  0
   18.4551  -12.3767  -15.9859 N   0  0  0  0  0  0  0  0  0  0  0  0
   18.7515  -10.8832  -14.2402 N   0  0  0  0  0  0  0  0  0  0  0  0
   18.0702   -9.6964  -13.7497 C   0  0  0  0  0  0  0  0  0  0  0  0
   17.0679  -10.1120  -12.6849 C   0  0  0  0  0  0  0  0  0  0  0  0
   16.4350   -8.9038  -12.0756 C   0  0  0  0  0  0  0  0  0  0  0  0
   15.6111   -9.2567  -10.8767 C   0  0  2  0  0  0  0  0  0  0  0  0
   14.5430  -10.1813  -11.2998 N   0  0  0  0  0  0  0  0  0  0  0  0
   15.0446   -8.0613  -10.2478 C   0  0  0  0  0  0  0  0  0  0  0  0
   13.9635   -7.5727  -10.6148 O   0  0  0  0  0  0  0  0  0  0  0  0
   18.1474  -13.1394  -15.3499 C   0  0  0  0  0  0  0  0  0  0  0  0
   15.5623   -6.5086   -6.9868 C   0  0  2  0  0  0  0  0  0  0  0  0
   15.1607   -6.3462   -8.4449 N   0  0  0  0  0  0  0  0  0  0  0  0
   15.7664   -7.4416   -9.1766 C   0  0  0  0  0  0  0  0  0  0  0  0
   15.6745   -5.0795   -8.9992 O   0  0  0  0  0  0  0  0  0  0  0  0
   16.8789   -4.9329   -9.2163 C   0  0  0  0  0  0  0  0  0  0  0  0
   14.2697   -1.9228  -10.5392 C   0  0  2  0  0  0  0  0  0  0  0  0
   15.3184   -2.7345   -9.8156 N   0  0  0  0  0  0  0  0  0  0  0  0
   14.8012   -3.9743   -9.3069 C   0  0  0  0  0  0  0  0  0  0  0  0
   15.8224   -1.9145   -8.6918 O   0  0  0  0  0  0  0  0  0  0  0  0
   16.4233   -0.8422   -8.9389 O   0  0  0  0  0  0  0  0  0  0  0  0
  1  2  1  0
  2  4  1  0
  3  2  2  0
  4  5  1  0
  5  6  1  0
  6  7  1  0
  7  8  1  0
  8 10  1  0
  8  9  1  6
 10 14  1  0
 10 11  2  0
 13 15  1  0
 13 12  1  1
 14 13  1  0
 15 16  2  0
 18 17  1  6
 19 18  1  0
 19 15  1  0
 20 22  1  0
 20 18  1  0
 21 20  2  0
M  END
$$$$
