RAA.pdb
     RDKit          3D

 22 21  0  0  1  0  0  0  0  0999 V2000
   15.7814  -15.3237  -13.0773 N   0  0  0  0  0  0  0  0  0  0  0  0
   15.6186  -14.7612  -14.3680 C   0  0  0  0  0  0  0  0  0  0  0  0
   14.5616  -15.0912  -15.0339 N   0  0  0  0  0  0  0  0  0  0  0  0
   16.5332  -13.8775  -14.9554 N   0  0  0  0  0  0  0  0  0  0  0  0
   16.9206  -12.6265  -14.3246 C   0  0  0  0  0  0  0  0  0  0  0  0
   16.6740  -11.4882  -15.3018 C   0  0  0  0  0  0  0  0  0  0  0  0
   17.1783  -10.2031  -14.7314 C   0  0  0  0  0  0  0  0  0  0  0  0
   16.2040   -9.6081  -13.7632 C   0  0  2  0  0  0  0  0  0  0  0  0
   14.8980   -9.4776  -14.4356 N   0  0  0  0  0  0  0  0  0  0  0  0
   16.6670   -8.3086  -13.2706 C   0  0  0  0  0  0  0  0  0  0  0  0
   16.5491   -7.2696  -13.9405 O   0  0  0  0  0  0  0  0  0  0  0  0
   14.3083  -14.7181  -15.9707 C   0  0  0  0  0  0  0  0  0  0  0  0
   17.9152   -7.1555   -9.9462 C   0  0  2  0  0  0  0  0  0  0  0  0
   17.6680   -6.9563  -11.4338 N   0  0  0  0  0  0  0  0  0  0  0  0
   17.2742   -8.2425  -11.9747 C   0  0  0  0  0  0  0  0  0  0  0  0
   18.8976   -6.5214  -12.1228 O   0  0  0  0  0  0  0  0  0  0  0  0
   19.7635   -7.3405  -12.4369 C   0  0  0  0  0  0  0  0  0  0  0  0
   20.2353   -3.3043  -13.6521 C   0  0  2  0  0  0  0  0  0  0  0  0
   20.3104   -4.7358  -13.1755 N   0  0  0  0  0  0  0  0  0  0  0  0
   19.1353   -5.1384  -12.4540 C   0  0  0  0  0  0  0  0  0  0  0  0
   21.4925   -4.8525  -12.2934 O   0  0  0  0  0  0  0  0  0  0  0  0
   22.6295   -4.6013  -12.7584 O   0  0  0  0  0  0  0  0  0  0  0  0
  1  2  1  0
  2  4  1  0
  3  2  2  0
  4  5  1  0
  5  6  1  0
  6  7  1  0
  7  8  1  0
  8 10  1  0
  8  9  1  6
 10 14  1  0
 10 11  2  0
 13 15  1  0
 13 12  1  1
 14 13  1  0
 15 16  2  0
 18 17  1  6
 19 18  1  0
 19 15  1  0
 20 22  1  0
 20 18  1  0
 21 20  2  0
M  END
$$$$
