RAA.pdb
     RDKit          3D

 22 21  0  0  1  0  0  0  0  0999 V2000
   27.8722  -13.0570  -17.7934 N   0  0  0  0  0  0  0  0  0  0  0  0
   28.4703  -12.0785  -16.9607 C   0  0  0  0  0  0  0  0  0  0  0  0
   29.6629  -11.6848  -17.2640 N   0  0  0  0  0  0  0  0  0  0  0  0
   27.8454  -11.5223  -15.8370 N   0  0  0  0  0  0  0  0  0  0  0  0
   26.5016  -11.8978  -15.4290 C   0  0  0  0  0  0  0  0  0  0  0  0
   25.5423  -11.6013  -16.5706 C   0  0  0  0  0  0  0  0  0  0  0  0
   24.6373  -10.4719  -16.2009 C   0  0  0  0  0  0  0  0  0  0  0  0
   23.2545  -10.9517  -15.8873 C   0  0  2  0  0  0  0  0  0  0  0  0
   22.7558  -11.7249  -17.0399 N   0  0  0  0  0  0  0  0  0  0  0  0
   22.3576   -9.8340  -15.5843 C   0  0  0  0  0  0  0  0  0  0  0  0
   21.9559   -9.0540  -16.4633 O   0  0  0  0  0  0  0  0  0  0  0  0
   30.1967  -10.9548  -16.7511 C   0  0  0  0  0  0  0  0  0  0  0  0
   20.5129   -8.8139  -12.4968 C   0  0  1  0  0  0  0  0  0  0  0  0
   21.0097   -8.5702  -13.9137 N   0  0  0  0  0  0  0  0  0  0  0  0
   21.9352   -9.6407  -14.2291 C   0  0  0  0  0  0  0  0  0  0  0  0
   21.7343   -7.2889  -14.0092 O   0  0  0  0  0  0  0  0  0  0  0  0
   22.9204   -7.2135  -13.6825 C   0  0  0  0  0  0  0  0  0  0  0  0
   21.4134   -4.1588  -15.9630 C   0  0  2  0  0  0  0  0  0  0  0  0
   21.8443   -4.8825  -14.7090 N   0  0  0  0  0  0  0  0  0  0  0  0
   21.0945   -6.0868  -14.4829 C   0  0  0  0  0  0  0  0  0  0  0  0
   21.6467   -3.9598  -13.5693 O   0  0  0  0  0  0  0  0  0  0  0  0
   20.6976   -4.1630  -12.7757 O   0  0  0  0  0  0  0  0  0  0  0  0
  1  2  1  0
  2  4  1  0
  3  2  2  0
  4  5  1  0
  5  6  1  0
  6  7  1  0
  7  8  1  0
  8 10  1  0
  8  9  1  6
 10 14  1  0
 10 11  2  0
 13 15  1  0
 13 12  1  6
 14 13  1  0
 15 16  2  0
 18 17  1  6
 19 18  1  0
 19 15  1  0
 20 22  1  0
 20 18  1  0
 21 20  2  0
M  END
$$$$
