RAA.pdb
     RDKit          3D

 22 21  0  0  1  0  0  0  0  0999 V2000
   18.2280  -12.8922  -18.0197 N   0  0  0  0  0  0  0  0  0  0  0  0
   18.0870  -13.7182  -16.8767 C   0  0  0  0  0  0  0  0  0  0  0  0
   17.7066  -14.9385  -17.0654 N   0  0  0  0  0  0  0  0  0  0  0  0
   18.3335  -13.2870  -15.5668 N   0  0  0  0  0  0  0  0  0  0  0  0
   18.7346  -11.9240  -15.2594 C   0  0  0  0  0  0  0  0  0  0  0  0
   17.6126  -11.2448  -14.4906 C   0  0  0  0  0  0  0  0  0  0  0  0
   18.0233   -9.8641  -14.0952 C   0  0  0  0  0  0  0  0  0  0  0  0
   16.8982   -9.1162  -13.4505 C   0  0  2  0  0  0  0  0  0  0  0  0
   15.7740   -9.0518  -14.4029 N   0  0  0  0  0  0  0  0  0  0  0  0
   17.3140   -7.7712  -13.0459 C   0  0  0  0  0  0  0  0  0  0  0  0
   17.4243   -6.8417  -13.8620 O   0  0  0  0  0  0  0  0  0  0  0  0
   17.6255  -15.6582  -16.3195 C   0  0  0  0  0  0  0  0  0  0  0  0
   17.9384   -6.1980   -9.7081 C   0  0  1  0  0  0  0  0  0  0  0  0
   17.9481   -6.1894  -11.2291 N   0  0  0  0  0  0  0  0  0  0  0  0
   17.6012   -7.5284  -11.6635 C   0  0  0  0  0  0  0  0  0  0  0  0
   19.2901   -5.8671  -11.7496 O   0  0  0  0  0  0  0  0  0  0  0  0
   20.2007   -6.6958  -11.6916 C   0  0  0  0  0  0  0  0  0  0  0  0
   21.2211   -5.2215  -14.0567 C   0  0  2  0  0  0  0  0  0  0  0  0
   20.8820   -4.3082  -12.9021 N   0  0  0  0  0  0  0  0  0  0  0  0
   19.5893   -4.5867  -12.3409 C   0  0  0  0  0  0  0  0  0  0  0  0
   20.9087   -2.9181  -13.4082 O   0  0  0  0  0  0  0  0  0  0  0  0
   19.8323   -2.2828  -13.5070 O   0  0  0  0  0  0  0  0  0  0  0  0
  1  2  1  0
  2  4  1  0
  3  2  2  0
  4  5  1  0
  5  6  1  0
  6  7  1  0
  7  8  1  0
  8 10  1  0
  8  9  1  6
 10 14  1  0
 10 11  2  0
 13 15  1  0
 13 12  1  6
 14 13  1  0
 15 16  2  0
 18 17  1  1
 19 18  1  0
 19 15  1  0
 20 22  1  0
 20 18  1  0
 21 20  2  0
M  END
$$$$
