RAA.pdb
     RDKit          3D

 22 21  0  0  1  0  0  0  0  0999 V2000
   28.3539  -13.3569  -15.9166 N   0  0  0  0  0  0  0  0  0  0  0  0
   28.4382  -12.1469  -16.6497 C   0  0  0  0  0  0  0  0  0  0  0  0
   29.2529  -12.1118  -17.6520 N   0  0  0  0  0  0  0  0  0  0  0  0
   27.6951  -10.9982  -16.3482 N   0  0  0  0  0  0  0  0  0  0  0  0
   26.7119  -10.9668  -15.2779 C   0  0  0  0  0  0  0  0  0  0  0  0
   25.3209  -11.0232  -15.8889 C   0  0  0  0  0  0  0  0  0  0  0  0
   24.2849  -10.9460  -14.8156 C   0  0  0  0  0  0  0  0  0  0  0  0
   22.8995  -10.9716  -15.3818 C   0  0  2  0  0  0  0  0  0  0  0  0
   22.7502  -12.1920  -16.1962 N   0  0  0  0  0  0  0  0  0  0  0  0
   22.6282   -9.7759  -16.1831 C   0  0  0  0  0  0  0  0  0  0  0  0
   22.6405   -9.7975  -17.4247 O   0  0  0  0  0  0  0  0  0  0  0  0
   29.3878  -11.2945  -18.2803 C   0  0  0  0  0  0  0  0  0  0  0  0
   20.4194   -7.5690  -16.5356 C   0  0  2  0  0  0  0  0  0  0  0  0
   21.9068   -7.3932  -16.2700 N   0  0  0  0  0  0  0  0  0  0  0  0
   22.3408   -8.5464  -15.5060 C   0  0  0  0  0  0  0  0  0  0  0  0
   22.1632   -6.1829  -15.4667 O   0  0  0  0  0  0  0  0  0  0  0  0
   22.0137   -6.1990  -14.2433 C   0  0  0  0  0  0  0  0  0  0  0  0
   23.3397   -2.6114  -16.0974 C   0  0  2  0  0  0  0  0  0  0  0  0
   22.8100   -3.7664  -15.2805 N   0  0  0  0  0  0  0  0  0  0  0  0
   22.5944   -4.9466  -16.0705 C   0  0  0  0  0  0  0  0  0  0  0  0
   21.5283   -3.3378  -14.6779 O   0  0  0  0  0  0  0  0  0  0  0  0
   20.4535   -3.6398  -15.2484 O   0  0  0  0  0  0  0  0  0  0  0  0
  1  2  1  0
  2  4  1  0
  3  2  2  0
  4  5  1  0
  5  6  1  0
  6  7  1  0
  7  8  1  0
  8 10  1  0
  8  9  1  6
 10 14  1  0
 10 11  2  0
 13 15  1  0
 13 12  1  6
 14 13  1  0
 15 16  2  0
 18 17  1  1
 19 18  1  0
 19 15  1  0
 20 22  1  0
 20 18  1  0
 21 20  2  0
M  END
$$$$
