RAA.pdb
     RDKit          3D

 22 21  0  0  1  0  0  0  0  0999 V2000
   26.2321  -20.7770   -9.4956 N   0  0  0  0  0  0  0  0  0  0  0  0
   25.2351  -21.2584  -10.3804 C   0  0  0  0  0  0  0  0  0  0  0  0
   24.0092  -21.2238   -9.9738 N   0  0  0  0  0  0  0  0  0  0  0  0
   25.5044  -21.7661  -11.6580 N   0  0  0  0  0  0  0  0  0  0  0  0
   26.7717  -21.5402  -12.3332 C   0  0  0  0  0  0  0  0  0  0  0  0
   26.4989  -21.2348  -13.7974 C   0  0  0  0  0  0  0  0  0  0  0  0
   25.6483  -20.0127  -13.9173 C   0  0  0  0  0  0  0  0  0  0  0  0
   26.4218  -18.8520  -14.4607 C   0  0  2  0  0  0  0  0  0  0  0  0
   27.6377  -18.6780  -13.6445 N   0  0  0  0  0  0  0  0  0  0  0  0
   25.6173  -17.6280  -14.4619 C   0  0  0  0  0  0  0  0  0  0  0  0
   24.8490  -17.3431  -13.5287 O   0  0  0  0  0  0  0  0  0  0  0  0
   23.1847  -21.4935  -10.5469 C   0  0  0  0  0  0  0  0  0  0  0  0
   25.8904  -14.4448  -16.2317 C   0  0  2  0  0  0  0  0  0  0  0  0
   24.9994  -15.4817  -15.5649 N   0  0  0  0  0  0  0  0  0  0  0  0
   25.7251  -16.7368  -15.5784 C   0  0  0  0  0  0  0  0  0  0  0  0
   23.7437  -15.6652  -16.3170 O   0  0  0  0  0  0  0  0  0  0  0  0
   23.6989  -16.4250  -17.2866 C   0  0  0  0  0  0  0  0  0  0  0  0
   20.0899  -14.7631  -15.9094 C   0  0  2  0  0  0  0  0  0  0  0  0
   21.3165  -15.1588  -16.6973 N   0  0  0  0  0  0  0  0  0  0  0  0
   22.5319  -14.9735  -15.9543 C   0  0  0  0  0  0  0  0  0  0  0  0
   21.3542  -14.3221  -17.9171 O   0  0  0  0  0  0  0  0  0  0  0  0
   22.2652  -13.4705  -18.0464 O   0  0  0  0  0  0  0  0  0  0  0  0
  1  2  1  0
  2  4  1  0
  3  2  2  0
  4  5  1  0
  5  6  1  0
  6  7  1  0
  7  8  1  0
  8 10  1  0
  8  9  1  1
 10 14  1  0
 10 11  2  0
 13 15  1  0
 13 12  1  1
 14 13  1  0
 15 16  2  0
 18 17  1  1
 19 18  1  0
 19 15  1  0
 20 22  1  0
 20 18  1  0
 21 20  2  0
M  END
$$$$
