FLM.pdb
     RDKit          3D

 28 28  0  0  1  0  0  0  0  0999 V2000
    5.6573  -18.3674   23.3828 N   0  0  0  0  0  0  0  0  0  0  0  0
    5.9473  -16.9335   23.5575 C   0  0  1  0  0  0  0  0  0  0  0  0
    6.1117  -16.6844   25.0455 C   0  0  0  0  0  0  0  0  0  0  0  0
    6.3553  -15.2648   25.3638 C   0  0  0  0  0  0  0  0  0  0  0  0
    6.2422  -14.2755   24.4251 C   0  0  0  0  0  0  0  0  0  0  0  0
    6.4600  -12.9309   24.7161 C   0  0  0  0  0  0  0  0  0  0  0  0
    6.8035  -12.6031   26.0128 C   0  0  0  0  0  0  0  0  0  0  0  0
    6.9205  -13.5853   26.9658 C   0  0  0  0  0  0  0  0  0  0  0  0
    6.6988  -14.9323   26.6574 C   0  0  0  0  0  0  0  0  0  0  0  0
    7.2815  -16.6962   22.9571 C   0  0  0  0  0  0  0  0  0  0  0  0
    8.1779  -17.5658   23.0495 O   0  0  0  0  0  0  0  0  0  0  0  0
    7.5935  -12.1604   20.0417 C   0  0  0  0  0  0  0  0  0  0  0  0
    7.6364  -13.6407   20.4575 C   0  0  1  0  0  0  0  0  0  0  0  0
    7.4305  -14.4357   19.1900 C   0  0  0  0  0  0  0  0  0  0  0  0
    9.0003  -13.9825   21.0063 C   0  0  0  0  0  0  0  0  0  0  0  0
    8.9661  -15.3154   21.6871 C   0  0  2  0  0  0  0  0  0  0  0  0
    7.6263  -15.5067   22.2573 N   0  0  0  0  0  0  0  0  0  0  0  0
    9.9845  -15.4750   22.7287 C   0  0  0  0  0  0  0  0  0  0  0  0
   11.1992  -15.4037   22.3798 O   0  0  0  0  0  0  0  0  0  0  0  0
   11.3434  -13.5421   29.9228 C   0  0  0  0  0  0  0  0  0  0  0  0
   10.4474  -14.9501   29.1658 S   0  0  0  0  0  0  0  0  0  0  0  0
   11.2035  -15.2373   27.5250 C   0  0  0  0  0  0  0  0  0  0  0  0
   10.1426  -15.2868   26.4540 C   0  0  0  0  0  0  0  0  0  0  0  0
   10.7435  -15.6215   25.1383 C   0  0  2  0  0  0  0  0  0  0  0  0
    9.7216  -15.7035   24.0891 N   0  0  0  0  0  0  0  0  0  0  0  0
   11.5987  -16.7858   25.1519 C   0  0  0  0  0  0  0  0  0  0  0  0
   11.0756  -17.8987   24.7766 O   0  0  0  0  0  0  0  0  0  0  0  0
   12.9234  -16.8811   25.5127 O   0  0  0  0  0  0  0  0  0  0  0  0
  2  1  1  1
  3  2  1  0
  4  9  2  0
  4  3  1  0
  5  4  1  0
  6  7  1  0
  6  5  2  0
  7  8  2  0
  8  9  1  0
 10 17  1  0
 10  2  1  0
 11 10  2  0
 13 12  1  6
 14 13  1  0
 16 15  1  1
 15 13  1  0
 16 17  1  0
 18 16  1  0
 19 18  2  0
 21 20  1  0
 21 22  1  0
 22 23  1  0
 24 23  1  1
 24 26  1  0
 24 25  1  0
 25 18  1  0
 26 28  1  0
 27 26  2  0
M  END
$$$$
