FLM.pdb
     RDKit          3D

 28 28  0  0  1  0  0  0  0  0999 V2000
    8.1248  -16.5605   25.4491 N   0  0  0  0  0  0  0  0  0  0  0  0
    6.9606  -17.0785   24.7095 C   0  0  1  0  0  0  0  0  0  0  0  0
    5.7348  -16.3514   25.2312 C   0  0  0  0  0  0  0  0  0  0  0  0
    5.9889  -14.9236   25.5009 C   0  0  0  0  0  0  0  0  0  0  0  0
    6.6009  -14.4940   26.6470 C   0  0  0  0  0  0  0  0  0  0  0  0
    6.8551  -13.1496   26.9083 C   0  0  0  0  0  0  0  0  0  0  0  0
    6.4653  -12.2271   25.9575 C   0  0  0  0  0  0  0  0  0  0  0  0
    5.8503  -12.6435   24.8022 C   0  0  0  0  0  0  0  0  0  0  0  0
    5.6014  -13.9983   24.5546 C   0  0  0  0  0  0  0  0  0  0  0  0
    7.1241  -16.6398   23.3033 C   0  0  0  0  0  0  0  0  0  0  0  0
    6.1763  -16.0838   22.7024 O   0  0  0  0  0  0  0  0  0  0  0  0
    7.2102  -12.5262   21.4006 C   0  0  0  0  0  0  0  0  0  0  0  0
    7.7501  -13.9553   21.2215 C   0  0  1  0  0  0  0  0  0  0  0  0
    8.7958  -13.8726   20.1348 C   0  0  0  0  0  0  0  0  0  0  0  0
    8.4300  -14.4120   22.4894 C   0  0  0  0  0  0  0  0  0  0  0  0
    9.1967  -15.6736   22.2411 C   0  0  2  0  0  0  0  0  0  0  0  0
    8.3263  -16.8119   22.5626 N   0  0  0  0  0  0  0  0  0  0  0  0
   10.4475  -15.7659   22.9991 C   0  0  0  0  0  0  0  0  0  0  0  0
   11.4887  -15.2685   22.4788 O   0  0  0  0  0  0  0  0  0  0  0  0
   11.2128  -15.3935   29.2266 C   0  0  0  0  0  0  0  0  0  0  0  0
   11.6806  -14.0372   28.0865 S   0  0  0  0  0  0  0  0  0  0  0  0
   11.4728  -14.6801   26.3865 C   0  0  0  0  0  0  0  0  0  0  0  0
   11.8782  -16.1312   26.3155 C   0  0  0  0  0  0  0  0  0  0  0  0
   11.8810  -16.6046   24.9084 C   0  0  2  0  0  0  0  0  0  0  0  0
   10.5864  -16.3656   24.2612 N   0  0  0  0  0  0  0  0  0  0  0  0
   12.3263  -17.9684   24.7386 C   0  0  0  0  0  0  0  0  0  0  0  0
   13.4799  -18.2699   25.2199 O   0  0  0  0  0  0  0  0  0  0  0  0
   11.6812  -19.0184   24.1261 O   0  0  0  0  0  0  0  0  0  0  0  0
  2  1  1  1
  3  2  1  0
  4  9  2  0
  4  3  1  0
  5  4  1  0
  6  7  1  0
  6  5  2  0
  7  8  2  0
  8  9  1  0
 10 17  1  0
 10  2  1  0
 11 10  2  0
 13 12  1  1
 14 13  1  0
 16 15  1  1
 15 13  1  0
 16 17  1  0
 18 16  1  0
 19 18  2  0
 21 20  1  0
 21 22  1  0
 22 23  1  0
 24 23  1  1
 24 26  1  0
 24 25  1  0
 25 18  1  0
 26 28  1  0
 27 26  2  0
M  END
$$$$
