FLM.pdb
     RDKit          3D

 28 28  0  0  1  0  0  0  0  0999 V2000
    5.5033  -18.1005   24.0673 N   0  0  0  0  0  0  0  0  0  0  0  0
    6.0070  -16.7210   24.1847 C   0  0  1  0  0  0  0  0  0  0  0  0
    6.3820  -16.4997   25.6385 C   0  0  0  0  0  0  0  0  0  0  0  0
    6.8893  -15.1390   25.8971 C   0  0  0  0  0  0  0  0  0  0  0  0
    8.2257  -14.8657   26.0061 C   0  0  0  0  0  0  0  0  0  0  0  0
    8.7171  -13.5835   26.2402 C   0  0  0  0  0  0  0  0  0  0  0  0
    7.8001  -12.5584   26.3643 C   0  0  0  0  0  0  0  0  0  0  0  0
    6.4555  -12.8176   26.2569 C   0  0  0  0  0  0  0  0  0  0  0  0
    5.9776  -14.1118   26.0220 C   0  0  0  0  0  0  0  0  0  0  0  0
    7.2791  -16.6697   23.4258 C   0  0  0  0  0  0  0  0  0  0  0  0
    8.0647  -17.6448   23.4460 O   0  0  0  0  0  0  0  0  0  0  0  0
    7.7284  -12.4044   20.1410 C   0  0  0  0  0  0  0  0  0  0  0  0
    7.6699  -13.8286   20.7191 C   0  0  1  0  0  0  0  0  0  0  0  0
    7.2189  -14.7200   19.5863 C   0  0  0  0  0  0  0  0  0  0  0  0
    9.0503  -14.2712   21.1398 C   0  0  0  0  0  0  0  0  0  0  0  0
    8.9689  -15.5356   21.9372 C   0  0  2  0  0  0  0  0  0  0  0  0
    7.6836  -15.5498   22.6475 N   0  0  0  0  0  0  0  0  0  0  0  0
   10.0713  -15.7093   22.8869 C   0  0  0  0  0  0  0  0  0  0  0  0
   11.2496  -15.7234   22.4243 O   0  0  0  0  0  0  0  0  0  0  0  0
   10.1180  -13.4637   29.1819 C   0  0  0  0  0  0  0  0  0  0  0  0
   11.1388  -14.9846   29.2348 S   0  0  0  0  0  0  0  0  0  0  0  0
   11.7366  -15.2799   27.5313 C   0  0  0  0  0  0  0  0  0  0  0  0
   10.5778  -15.3545   26.5686 C   0  0  0  0  0  0  0  0  0  0  0  0
   11.0430  -15.7740   25.2225 C   0  0  2  0  0  0  0  0  0  0  0  0
    9.9267  -15.8639   24.2750 N   0  0  0  0  0  0  0  0  0  0  0  0
   11.8538  -16.9697   25.2173 C   0  0  0  0  0  0  0  0  0  0  0  0
   12.9599  -16.9277   25.8715 O   0  0  0  0  0  0  0  0  0  0  0  0
   11.6096  -18.1770   24.6035 O   0  0  0  0  0  0  0  0  0  0  0  0
  2  1  1  1
  3  2  1  0
  4  9  2  0
  4  3  1  0
  5  4  1  0
  6  7  1  0
  6  5  2  0
  7  8  2  0
  8  9  1  0
 10 17  1  0
 10  2  1  0
 11 10  2  0
 13 12  1  6
 14 13  1  0
 16 15  1  1
 15 13  1  0
 16 17  1  0
 18 16  1  0
 19 18  2  0
 21 20  1  0
 21 22  1  0
 22 23  1  0
 24 23  1  1
 24 26  1  0
 24 25  1  0
 25 18  1  0
 26 28  1  0
 27 26  2  0
M  END
$$$$
