FLM.pdb
     RDKit          3D

 28 28  0  0  1  0  0  0  0  0999 V2000
    6.2173  -18.3768   24.7000 N   0  0  0  0  0  0  0  0  0  0  0  0
    6.2917  -16.9079   24.6129 C   0  0  1  0  0  0  0  0  0  0  0  0
    6.5055  -16.3827   26.0207 C   0  0  0  0  0  0  0  0  0  0  0  0
    6.2975  -14.9261   26.1249 C   0  0  0  0  0  0  0  0  0  0  0  0
    5.0493  -14.3657   26.1456 C   0  0  0  0  0  0  0  0  0  0  0  0
    4.8402  -12.9928   26.2537 C   0  0  0  0  0  0  0  0  0  0  0  0
    5.9531  -12.1800   26.3429 C   0  0  0  0  0  0  0  0  0  0  0  0
    7.2123  -12.7284   26.3238 C   0  0  0  0  0  0  0  0  0  0  0  0
    7.4057  -14.1101   26.2141 C   0  0  0  0  0  0  0  0  0  0  0  0
    7.5340  -16.5911   23.8692 C   0  0  0  0  0  0  0  0  0  0  0  0
    8.5967  -17.2007   24.1289 O   0  0  0  0  0  0  0  0  0  0  0  0
    7.9410  -11.9096   20.8732 C   0  0  0  0  0  0  0  0  0  0  0  0
    7.7294  -13.4043   21.1683 C   0  0  1  0  0  0  0  0  0  0  0  0
    7.4441  -14.0558   19.8359 C   0  0  0  0  0  0  0  0  0  0  0  0
    8.9995  -14.0057   21.7192 C   0  0  0  0  0  0  0  0  0  0  0  0
    8.8021  -15.4618   22.0053 C   0  0  2  0  0  0  0  0  0  0  0  0
    7.6051  -15.6080   22.8435 N   0  0  0  0  0  0  0  0  0  0  0  0
    9.9516  -16.0997   22.6528 C   0  0  0  0  0  0  0  0  0  0  0  0
    9.8037  -17.2809   23.0831 O   0  0  0  0  0  0  0  0  0  0  0  0
   11.3834  -12.9758   28.6226 C   0  0  0  0  0  0  0  0  0  0  0  0
   10.9677  -14.5495   27.7807 S   0  0  0  0  0  0  0  0  0  0  0  0
   11.6781  -14.4525   26.0977 C   0  0  0  0  0  0  0  0  0  0  0  0
   11.2472  -15.6386   25.2714 C   0  0  0  0  0  0  0  0  0  0  0  0
   12.0457  -15.7233   24.0227 C   0  0  2  0  0  0  0  0  0  0  0  0
   11.2097  -15.5039   22.8375 N   0  0  0  0  0  0  0  0  0  0  0  0
   12.8452  -16.9209   23.9059 C   0  0  0  0  0  0  0  0  0  0  0  0
   12.2560  -17.9754   23.4654 O   0  0  0  0  0  0  0  0  0  0  0  0
   14.1771  -17.1032   24.2004 O   0  0  0  0  0  0  0  0  0  0  0  0
  2  1  1  1
  3  2  1  0
  4  9  2  0
  4  3  1  0
  5  4  1  0
  6  7  1  0
  6  5  2  0
  7  8  2  0
  8  9  1  0
 10 17  1  0
 10  2  1  0
 11 10  2  0
 13 12  1  6
 14 13  1  0
 16 15  1  1
 15 13  1  0
 16 17  1  0
 18 16  1  0
 19 18  2  0
 21 20  1  0
 21 22  1  0
 22 23  1  0
 24 23  1  1
 24 26  1  0
 24 25  1  0
 25 18  1  0
 26 28  1  0
 27 26  2  0
M  END
$$$$
