FLM.pdb
     RDKit          3D

 28 28  0  0  1  0  0  0  0  0999 V2000
    5.8207  -18.1908   24.0269 N   0  0  0  0  0  0  0  0  0  0  0  0
    6.1512  -16.7598   24.1439 C   0  0  1  0  0  0  0  0  0  0  0  0
    6.3688  -16.4659   25.6169 C   0  0  0  0  0  0  0  0  0  0  0  0
    6.5930  -15.0331   25.8867 C   0  0  0  0  0  0  0  0  0  0  0  0
    7.8368  -14.5239   26.1439 C   0  0  0  0  0  0  0  0  0  0  0  0
    8.0623  -13.1715   26.3903 C   0  0  0  0  0  0  0  0  0  0  0  0
    6.9711  -12.3255   26.3692 C   0  0  0  0  0  0  0  0  0  0  0  0
    5.7166  -12.8224   26.1121 C   0  0  0  0  0  0  0  0  0  0  0  0
    5.5065  -14.1842   25.8670 C   0  0  0  0  0  0  0  0  0  0  0  0
    7.4710  -16.5766   23.4949 C   0  0  0  0  0  0  0  0  0  0  0  0
    8.3188  -17.4980   23.5197 O   0  0  0  0  0  0  0  0  0  0  0  0
    7.8538  -12.0281   20.5631 C   0  0  0  0  0  0  0  0  0  0  0  0
    7.8030  -13.4871   21.0474 C   0  0  1  0  0  0  0  0  0  0  0  0
    7.3410  -14.3033   19.8636 C   0  0  0  0  0  0  0  0  0  0  0  0
    9.1883  -13.9537   21.4237 C   0  0  0  0  0  0  0  0  0  0  0  0
    9.1219  -15.2959   22.0835 C   0  0  2  0  0  0  0  0  0  0  0  0
    7.8549  -15.3841   22.8209 N   0  0  0  0  0  0  0  0  0  0  0  0
   10.2473  -15.5716   22.9806 C   0  0  0  0  0  0  0  0  0  0  0  0
   11.4048  -15.6304   22.4715 O   0  0  0  0  0  0  0  0  0  0  0  0
   10.7276  -13.3185   29.0367 C   0  0  0  0  0  0  0  0  0  0  0  0
   11.6994  -14.8606   29.2259 S   0  0  0  0  0  0  0  0  0  0  0  0
   12.1473  -15.4135   27.5407 C   0  0  0  0  0  0  0  0  0  0  0  0
   10.9584  -15.3165   26.6175 C   0  0  0  0  0  0  0  0  0  0  0  0
   11.3030  -15.8261   25.2664 C   0  0  2  0  0  0  0  0  0  0  0  0
   10.1460  -15.7785   24.3658 N   0  0  0  0  0  0  0  0  0  0  0  0
   11.9380  -17.1237   25.2621 C   0  0  0  0  0  0  0  0  0  0  0  0
   11.2065  -18.1304   24.9389 O   0  0  0  0  0  0  0  0  0  0  0  0
   13.2424  -17.4486   25.5568 O   0  0  0  0  0  0  0  0  0  0  0  0
  2  1  1  1
  3  2  1  0
  4  9  2  0
  4  3  1  0
  5  4  1  0
  6  7  1  0
  6  5  2  0
  7  8  2  0
  8  9  1  0
 10 17  1  0
 10  2  1  0
 11 10  2  0
 13 12  1  6
 14 13  1  0
 16 15  1  1
 15 13  1  0
 16 17  1  0
 18 16  1  0
 19 18  2  0
 21 20  1  0
 21 22  1  0
 22 23  1  0
 24 23  1  1
 24 26  1  0
 24 25  1  0
 25 18  1  0
 26 28  1  0
 27 26  2  0
M  END
$$$$
