FLM.pdb
     RDKit          3D

 28 28  0  0  1  0  0  0  0  0999 V2000
    5.9217  -18.0795   24.7225 N   0  0  0  0  0  0  0  0  0  0  0  0
    6.3174  -16.6611   24.6770 C   0  0  1  0  0  0  0  0  0  0  0  0
    6.6044  -16.2267   26.1026 C   0  0  0  0  0  0  0  0  0  0  0  0
    6.8094  -14.7712   26.2262 C   0  0  0  0  0  0  0  0  0  0  0  0
    8.0518  -14.2185   26.3796 C   0  0  0  0  0  0  0  0  0  0  0  0
    8.2587  -12.8453   26.4874 C   0  0  0  0  0  0  0  0  0  0  0  0
    7.1498  -12.0239   26.4346 C   0  0  0  0  0  0  0  0  0  0  0  0
    5.8965  -12.5644   26.2806 C   0  0  0  0  0  0  0  0  0  0  0  0
    5.7052  -13.9466   26.1743 C   0  0  0  0  0  0  0  0  0  0  0  0
    7.6177  -16.6078   23.9676 C   0  0  0  0  0  0  0  0  0  0  0  0
    8.4173  -17.5687   24.0444 O   0  0  0  0  0  0  0  0  0  0  0  0
    7.9709  -12.3916   20.7470 C   0  0  0  0  0  0  0  0  0  0  0  0
    7.9141  -13.8280   21.2942 C   0  0  1  0  0  0  0  0  0  0  0  0
    7.2464  -14.6562   20.2221 C   0  0  0  0  0  0  0  0  0  0  0  0
    9.3128  -14.3601   21.4913 C   0  0  0  0  0  0  0  0  0  0  0  0
    9.2953  -15.5316   22.4233 C   0  0  2  0  0  0  0  0  0  0  0  0
    8.0349  -15.5016   23.1765 N   0  0  0  0  0  0  0  0  0  0  0  0
   10.4329  -15.5716   23.3462 C   0  0  0  0  0  0  0  0  0  0  0  0
   11.1516  -14.5337   23.4395 O   0  0  0  0  0  0  0  0  0  0  0  0
   10.8551  -13.7925   28.5447 C   0  0  0  0  0  0  0  0  0  0  0  0
    9.6725  -15.0288   27.8882 S   0  0  0  0  0  0  0  0  0  0  0  0
   10.6685  -16.3620   27.1286 C   0  0  0  0  0  0  0  0  0  0  0  0
   11.7171  -15.7833   26.2118 C   0  0  0  0  0  0  0  0  0  0  0  0
   11.9446  -16.6770   25.0482 C   0  0  2  0  0  0  0  0  0  0  0  0
   10.7939  -16.6734   24.1383 N   0  0  0  0  0  0  0  0  0  0  0  0
   12.3537  -18.0179   25.3969 C   0  0  0  0  0  0  0  0  0  0  0  0
   11.5637  -18.9751   25.0608 O   0  0  0  0  0  0  0  0  0  0  0  0
   13.4930  -18.4322   26.0482 O   0  0  0  0  0  0  0  0  0  0  0  0
  2  1  1  1
  3  2  1  0
  4  9  2  0
  4  3  1  0
  5  4  1  0
  6  7  1  0
  6  5  2  0
  7  8  2  0
  8  9  1  0
 10 17  1  0
 10  2  1  0
 11 10  2  0
 13 12  1  6
 14 13  1  0
 16 15  1  1
 15 13  1  0
 16 17  1  0
 18 16  1  0
 19 18  2  0
 21 20  1  0
 21 22  1  0
 22 23  1  0
 24 23  1  1
 24 26  1  0
 24 25  1  0
 25 18  1  0
 26 28  1  0
 27 26  2  0
M  END
$$$$
