FLM.pdb
     RDKit          3D

 28 28  0  0  1  0  0  0  0  0999 V2000
    5.9635  -18.6989   23.3677 N   0  0  0  0  0  0  0  0  0  0  0  0
    6.1065  -17.2764   23.7234 C   0  0  1  0  0  0  0  0  0  0  0  0
    6.2263  -17.1989   25.2343 C   0  0  0  0  0  0  0  0  0  0  0  0
    6.2890  -15.8118   25.7322 C   0  0  0  0  0  0  0  0  0  0  0  0
    7.3074  -15.3673   26.5308 C   0  0  0  0  0  0  0  0  0  0  0  0
    7.3826  -14.0575   26.9989 C   0  0  0  0  0  0  0  0  0  0  0  0
    6.3769  -13.1862   26.6296 C   0  0  0  0  0  0  0  0  0  0  0  0
    5.3484  -13.6181   25.8281 C   0  0  0  0  0  0  0  0  0  0  0  0
    5.2869  -14.9378   25.3664 C   0  0  0  0  0  0  0  0  0  0  0  0
    7.4178  -16.8373   23.1899 C   0  0  0  0  0  0  0  0  0  0  0  0
    8.3975  -17.6173   23.2052 O   0  0  0  0  0  0  0  0  0  0  0  0
    7.0987  -14.3009   19.8802 C   0  0  0  0  0  0  0  0  0  0  0  0
    8.4578  -13.6210   20.1181 C   0  0  1  0  0  0  0  0  0  0  0  0
    8.2411  -12.1508   19.8484 C   0  0  0  0  0  0  0  0  0  0  0  0
    8.8653  -13.7752   21.5632 C   0  0  0  0  0  0  0  0  0  0  0  0
    8.8986  -15.2234   21.9409 C   0  0  2  0  0  0  0  0  0  0  0  0
    7.6485  -15.5453   22.6412 N   0  0  0  0  0  0  0  0  0  0  0  0
   10.0497  -15.5936   22.7689 C   0  0  0  0  0  0  0  0  0  0  0  0
   11.1456  -15.8296   22.1811 O   0  0  0  0  0  0  0  0  0  0  0  0
   11.4732  -12.8935   28.2884 C   0  0  0  0  0  0  0  0  0  0  0  0
   12.2758  -14.4939   28.6792 S   0  0  0  0  0  0  0  0  0  0  0  0
   12.3704  -15.4344   27.1131 C   0  0  0  0  0  0  0  0  0  0  0  0
   11.1951  -15.1068   26.2263 C   0  0  0  0  0  0  0  0  0  0  0  0
   11.2424  -15.9095   24.9783 C   0  0  2  0  0  0  0  0  0  0  0  0
   10.0358  -15.7101   24.1682 N   0  0  0  0  0  0  0  0  0  0  0  0
   11.5321  -17.3103   25.1804 C   0  0  0  0  0  0  0  0  0  0  0  0
   10.6208  -18.1501   24.8379 O   0  0  0  0  0  0  0  0  0  0  0  0
   12.6680  -17.8926   25.6948 O   0  0  0  0  0  0  0  0  0  0  0  0
  2  1  1  1
  3  2  1  0
  4  9  2  0
  4  3  1  0
  5  4  1  0
  6  7  1  0
  6  5  2  0
  7  8  2  0
  8  9  1  0
 10 17  1  0
 10  2  1  0
 11 10  2  0
 13 12  1  1
 14 13  1  0
 16 15  1  1
 15 13  1  0
 16 17  1  0
 18 16  1  0
 19 18  2  0
 21 20  1  0
 21 22  1  0
 22 23  1  0
 24 23  1  1
 24 26  1  0
 24 25  1  0
 25 18  1  0
 26 28  1  0
 27 26  2  0
M  END
$$$$
