FLM.pdb
     RDKit          3D

 28 28  0  0  1  0  0  0  0  0999 V2000
   11.0382  -16.7834   22.4432 N   0  0  0  0  0  0  0  0  0  0  0  0
    9.9641  -15.7752   22.4187 C   0  0  1  0  0  0  0  0  0  0  0  0
    8.9182  -16.2541   21.4287 C   0  0  0  0  0  0  0  0  0  0  0  0
    8.1745  -15.1452   20.8018 C   0  0  0  0  0  0  0  0  0  0  0  0
    8.8017  -14.0425   20.2887 C   0  0  0  0  0  0  0  0  0  0  0  0
    8.1111  -12.9939   19.6857 C   0  0  0  0  0  0  0  0  0  0  0  0
    6.7355  -13.0906   19.6123 C   0  0  0  0  0  0  0  0  0  0  0  0
    6.0922  -14.1916   20.1228 C   0  0  0  0  0  0  0  0  0  0  0  0
    6.8006  -15.2369   20.7263 C   0  0  0  0  0  0  0  0  0  0  0  0
    9.3128  -15.8194   23.7493 C   0  0  0  0  0  0  0  0  0  0  0  0
    9.7809  -16.5452   24.6563 O   0  0  0  0  0  0  0  0  0  0  0  0
    5.8282  -11.6694   25.3991 C   0  0  0  0  0  0  0  0  0  0  0  0
    6.9987  -12.6668   25.3673 C   0  0  1  0  0  0  0  0  0  0  0  0
    7.8338  -12.3683   26.5899 C   0  0  0  0  0  0  0  0  0  0  0  0
    6.4772  -14.0777   25.4916 C   0  0  0  0  0  0  0  0  0  0  0  0
    7.6100  -15.0553   25.4447 C   0  0  2  0  0  0  0  0  0  0  0  0
    8.1516  -15.0670   24.0797 N   0  0  0  0  0  0  0  0  0  0  0  0
    7.2381  -16.4133   25.8508 C   0  0  0  0  0  0  0  0  0  0  0  0
    6.1784  -16.9040   25.3623 O   0  0  0  0  0  0  0  0  0  0  0  0
   10.9233  -21.2903   23.4473 C   0  0  0  0  0  0  0  0  0  0  0  0
    9.1717  -20.8813   23.7975 S   0  0  0  0  0  0  0  0  0  0  0  0
    9.1606  -19.8571   25.3133 C   0  0  0  0  0  0  0  0  0  0  0  0
    7.7653  -19.3690   25.6129 C   0  0  0  0  0  0  0  0  0  0  0  0
    7.7293  -18.6562   26.9147 C   0  0  2  0  0  0  0  0  0  0  0  0
    7.9639  -17.2183   26.7436 N   0  0  0  0  0  0  0  0  0  0  0  0
    8.5839  -19.2260   27.9307 C   0  0  0  0  0  0  0  0  0  0  0  0
    8.2722  -20.3944   28.3676 O   0  0  0  0  0  0  0  0  0  0  0  0
    9.7112  -18.6913   28.5114 O   0  0  0  0  0  0  0  0  0  0  0  0
  2  1  1  1
  3  2  1  0
  4  9  2  0
  4  3  1  0
  5  4  1  0
  6  7  1  0
  6  5  2  0
  7  8  2  0
  8  9  1  0
 10 17  1  0
 10  2  1  0
 11 10  2  0
 13 12  1  1
 14 13  1  0
 16 15  1  6
 15 13  1  0
 16 17  1  0
 18 16  1  0
 19 18  2  0
 21 20  1  0
 21 22  1  0
 22 23  1  0
 24 23  1  6
 24 26  1  0
 24 25  1  0
 25 18  1  0
 26 28  1  0
 27 26  2  0
M  END
$$$$
