FLM.pdb
     RDKit          3D

 28 28  0  0  1  0  0  0  0  0999 V2000
    5.7942  -18.6392   23.9247 N   0  0  0  0  0  0  0  0  0  0  0  0
    6.2230  -17.2381   24.0787 C   0  0  1  0  0  0  0  0  0  0  0  0
    6.5292  -17.0190   25.5489 C   0  0  0  0  0  0  0  0  0  0  0  0
    6.7326  -15.5970   25.8845 C   0  0  0  0  0  0  0  0  0  0  0  0
    7.7801  -15.1705   26.6548 C   0  0  0  0  0  0  0  0  0  0  0  0
    7.9881  -13.8298   26.9700 C   0  0  0  0  0  0  0  0  0  0  0  0
    7.0877  -12.9076   26.4741 C   0  0  0  0  0  0  0  0  0  0  0  0
    6.0316  -13.3209   25.6992 C   0  0  0  0  0  0  0  0  0  0  0  0
    5.8361  -14.6722   25.3918 C   0  0  0  0  0  0  0  0  0  0  0  0
    7.5196  -17.1130   23.3717 C   0  0  0  0  0  0  0  0  0  0  0  0
    8.3325  -18.0657   23.3728 O   0  0  0  0  0  0  0  0  0  0  0  0
    8.3588  -12.3126   20.9595 C   0  0  0  0  0  0  0  0  0  0  0  0
    8.0873  -13.7223   21.5117 C   0  0  1  0  0  0  0  0  0  0  0  0
    6.7827  -14.1675   20.8943 C   0  0  0  0  0  0  0  0  0  0  0  0
    9.1678  -14.6719   21.0544 C   0  0  0  0  0  0  0  0  0  0  0  0
    9.1799  -15.8967   21.9151 C   0  0  2  0  0  0  0  0  0  0  0  0
    7.9186  -15.9442   22.6658 N   0  0  0  0  0  0  0  0  0  0  0  0
   10.3175  -15.9622   22.8366 C   0  0  0  0  0  0  0  0  0  0  0  0
   11.4711  -15.7435   22.3636 O   0  0  0  0  0  0  0  0  0  0  0  0
    9.5047  -13.0926   28.9095 C   0  0  0  0  0  0  0  0  0  0  0  0
   10.2243  -14.7566   28.6425 S   0  0  0  0  0  0  0  0  0  0  0  0
   10.5448  -14.9124   26.8482 C   0  0  0  0  0  0  0  0  0  0  0  0
   11.0224  -16.3036   26.5140 C   0  0  0  0  0  0  0  0  0  0  0  0
   11.4019  -16.3957   25.0816 C   0  0  2  0  0  0  0  0  0  0  0  0
   10.2322  -16.2509   24.2082 N   0  0  0  0  0  0  0  0  0  0  0  0
   12.1858  -17.5619   24.7459 C   0  0  0  0  0  0  0  0  0  0  0  0
   11.5712  -18.5314   24.1668 O   0  0  0  0  0  0  0  0  0  0  0  0
   13.5261  -17.7922   24.9565 O   0  0  0  0  0  0  0  0  0  0  0  0
  2  1  1  1
  3  2  1  0
  4  9  2  0
  4  3  1  0
  5  4  1  0
  6  7  1  0
  6  5  2  0
  7  8  2  0
  8  9  1  0
 10 17  1  0
 10  2  1  0
 11 10  2  0
 13 12  1  6
 14 13  1  0
 16 15  1  1
 15 13  1  0
 16 17  1  0
 18 16  1  0
 19 18  2  0
 21 20  1  0
 21 22  1  0
 22 23  1  0
 24 23  1  1
 24 26  1  0
 24 25  1  0
 25 18  1  0
 26 28  1  0
 27 26  2  0
M  END
$$$$
