FLM.pdb
     RDKit          3D

 28 28  0  0  1  0  0  0  0  0999 V2000
    5.5772  -18.3333   23.6835 N   0  0  0  0  0  0  0  0  0  0  0  0
    6.0415  -16.9555   23.9214 C   0  0  1  0  0  0  0  0  0  0  0  0
    6.4466  -16.8616   25.3810 C   0  0  0  0  0  0  0  0  0  0  0  0
    6.9142  -15.5146   25.7588 C   0  0  0  0  0  0  0  0  0  0  0  0
    6.5709  -14.3960   25.0492 C   0  0  0  0  0  0  0  0  0  0  0  0
    6.9980  -13.1180   25.4019 C   0  0  0  0  0  0  0  0  0  0  0  0
    7.8012  -12.9961   26.5186 C   0  0  0  0  0  0  0  0  0  0  0  0
    8.1538  -14.1099   27.2409 C   0  0  0  0  0  0  0  0  0  0  0  0
    7.7167  -15.3875   26.8731 C   0  0  0  0  0  0  0  0  0  0  0  0
    7.2917  -16.7905   23.1425 C   0  0  0  0  0  0  0  0  0  0  0  0
    8.0443  -17.7715   22.9436 O   0  0  0  0  0  0  0  0  0  0  0  0
    7.6558  -12.4352   19.8782 C   0  0  0  0  0  0  0  0  0  0  0  0
    7.7089  -13.8761   20.4138 C   0  0  1  0  0  0  0  0  0  0  0  0
    7.7175  -14.7725   19.1982 C   0  0  0  0  0  0  0  0  0  0  0  0
    8.9980  -14.0989   21.1668 C   0  0  0  0  0  0  0  0  0  0  0  0
    8.9761  -15.4310   21.8494 C   0  0  2  0  0  0  0  0  0  0  0  0
    7.7104  -15.5508   22.5845 N   0  0  0  0  0  0  0  0  0  0  0  0
   10.1073  -15.6517   22.7546 C   0  0  0  0  0  0  0  0  0  0  0  0
   11.2733  -15.4889   22.2895 O   0  0  0  0  0  0  0  0  0  0  0  0
    9.4399  -13.4450   28.5629 C   0  0  0  0  0  0  0  0  0  0  0  0
   10.1716  -15.0957   28.8758 S   0  0  0  0  0  0  0  0  0  0  0  0
   10.1508  -15.9940   27.2824 C   0  0  0  0  0  0  0  0  0  0  0  0
   10.8816  -15.2089   26.2218 C   0  0  0  0  0  0  0  0  0  0  0  0
   11.1392  -16.0554   25.0297 C   0  0  2  0  0  0  0  0  0  0  0  0
   10.0029  -16.0326   24.1021 N   0  0  0  0  0  0  0  0  0  0  0  0
   11.5609  -17.4031   25.3346 C   0  0  0  0  0  0  0  0  0  0  0  0
   12.6317  -17.5354   26.0339 O   0  0  0  0  0  0  0  0  0  0  0  0
   10.9696  -18.5945   24.9815 O   0  0  0  0  0  0  0  0  0  0  0  0
  2  1  1  1
  3  2  1  0
  4  9  2  0
  4  3  1  0
  5  4  1  0
  6  7  1  0
  6  5  2  0
  7  8  2  0
  8  9  1  0
 10 17  1  0
 10  2  1  0
 11 10  2  0
 13 12  1  6
 14 13  1  0
 16 15  1  1
 15 13  1  0
 16 17  1  0
 18 16  1  0
 19 18  2  0
 21 20  1  0
 21 22  1  0
 22 23  1  0
 24 23  1  1
 24 26  1  0
 24 25  1  0
 25 18  1  0
 26 28  1  0
 27 26  2  0
M  END
$$$$
