FLM.pdb
     RDKit          3D

 28 28  0  0  1  0  0  0  0  0999 V2000
    8.4494  -18.6165   20.2888 N   0  0  0  0  0  0  0  0  0  0  0  0
    9.8816  -18.2719   20.2635 C   0  0  1  0  0  0  0  0  0  0  0  0
   10.3076  -18.2200   18.8078 C   0  0  0  0  0  0  0  0  0  0  0  0
   10.4102  -19.5575   18.1943 C   0  0  0  0  0  0  0  0  0  0  0  0
   10.8181  -20.6562   18.9007 C   0  0  0  0  0  0  0  0  0  0  0  0
   10.9093  -21.9258   18.3349 C   0  0  0  0  0  0  0  0  0  0  0  0
   10.5689  -22.0602   17.0034 C   0  0  0  0  0  0  0  0  0  0  0  0
   10.1573  -20.9663   16.2818 C   0  0  0  0  0  0  0  0  0  0  0  0
   10.0715  -19.6969   16.8647 C   0  0  0  0  0  0  0  0  0  0  0  0
    9.9907  -16.8823   20.7675 C   0  0  0  0  0  0  0  0  0  0  0  0
   11.0966  -16.2945   20.7606 O   0  0  0  0  0  0  0  0  0  0  0  0
    6.5464  -13.2927   19.2625 C   0  0  0  0  0  0  0  0  0  0  0  0
    7.8543  -13.9337   19.7567 C   0  0  1  0  0  0  0  0  0  0  0  0
    8.9663  -13.0235   19.2916 C   0  0  0  0  0  0  0  0  0  0  0  0
    7.8758  -13.9630   21.2657 C   0  0  0  0  0  0  0  0  0  0  0  0
    9.0439  -14.7631   21.7522 C   0  0  2  0  0  0  0  0  0  0  0  0
    8.8866  -16.1434   21.2759 N   0  0  0  0  0  0  0  0  0  0  0  0
    9.2071  -14.7481   23.2084 C   0  0  0  0  0  0  0  0  0  0  0  0
    9.5190  -13.6494   23.7542 O   0  0  0  0  0  0  0  0  0  0  0  0
    6.9043  -11.0991   27.0568 C   0  0  0  0  0  0  0  0  0  0  0  0
    6.5497  -12.8884   26.8813 S   0  0  0  0  0  0  0  0  0  0  0  0
    8.0886  -13.6763   26.2834 C   0  0  0  0  0  0  0  0  0  0  0  0
    7.8798  -15.1554   26.0737 C   0  0  0  0  0  0  0  0  0  0  0  0
    9.1047  -15.7820   25.5159 C   0  0  2  0  0  0  0  0  0  0  0  0
    9.0467  -15.8591   24.0521 N   0  0  0  0  0  0  0  0  0  0  0  0
    9.4486  -17.0528   26.1107 C   0  0  0  0  0  0  0  0  0  0  0  0
    9.4069  -17.1271   27.3936 O   0  0  0  0  0  0  0  0  0  0  0  0
    9.8198  -18.2246   25.4918 O   0  0  0  0  0  0  0  0  0  0  0  0
  2  1  1  6
  3  2  1  0
  4  9  2  0
  4  3  1  0
  5  4  1  0
  6  7  1  0
  6  5  2  0
  7  8  2  0
  8  9  1  0
 10 17  1  0
 10  2  1  0
 11 10  2  0
 13 12  1  1
 14 13  1  0
 16 15  1  1
 15 13  1  0
 16 17  1  0
 18 16  1  0
 19 18  2  0
 21 20  1  0
 21 22  1  0
 22 23  1  0
 24 23  1  1
 24 26  1  0
 24 25  1  0
 25 18  1  0
 26 28  1  0
 27 26  2  0
M  END
$$$$
