VEA.pdb
     RDKit          3D

 22 21  0  0  1  0  0  0  0  0999 V2000
   -1.2370  -25.3127   30.0534 C   0  0  0  0  0  0  0  0  0  0  0  0
   -1.4598  -26.7928   29.8340 C   0  0  2  0  0  0  0  0  0  0  0  0
   -0.4131  -27.2929   28.8630 C   0  0  0  0  0  0  0  0  0  0  0  0
   -2.8213  -27.0773   29.2434 C   0  0  2  0  0  0  0  0  0  0  0  0
   -2.9515  -26.6155   27.8968 N   0  0  0  0  0  0  0  0  0  0  0  0
   -3.9220  -26.5755   30.0696 C   0  0  0  0  0  0  0  0  0  0  0  0
   -4.0763  -26.8675   31.2894 O   0  0  0  0  0  0  0  0  0  0  0  0
   -4.8941  -25.7069   29.5032 N   0  0  0  0  0  0  0  0  0  0  0  0
   -6.0598  -25.2428   30.2695 C   0  0  1  0  0  0  0  0  0  0  0  0
   -6.2983  -23.8313   29.8533 C   0  0  0  0  0  0  0  0  0  0  0  0
   -7.4297  -23.1329   30.5202 C   0  0  0  0  0  0  0  0  0  0  0  0
   -7.6473  -21.7438   30.1075 C   0  0  0  0  0  0  0  0  0  0  0  0
   -7.0985  -20.7864   30.7069 O   0  0  0  0  0  0  0  0  0  0  0  0
   -7.2215  -26.1383   30.0323 C   0  0  0  0  0  0  0  0  0  0  0  0
   -7.5363  -26.5541   28.8907 O   0  0  0  0  0  0  0  0  0  0  0  0
   -8.4704  -21.3936   29.0316 O   0  0  0  0  0  0  0  0  0  0  0  0
   -9.6571  -27.9912   32.2400 C   0  0  0  0  0  0  0  0  0  0  0  0
   -9.1046  -27.5028   30.9274 C   0  0  2  0  0  0  0  0  0  0  0  0
   -8.0098  -26.5432   31.1338 N   0  0  0  0  0  0  0  0  0  0  0  0
  -10.1756  -26.8516   30.1223 C   0  0  0  0  0  0  0  0  0  0  0  0
  -10.2636  -25.6024   30.1808 O   0  0  0  0  0  0  0  0  0  0  0  0
  -11.0589  -27.5843   29.3260 O   0  0  0  0  0  0  0  0  0  0  0  0
  2  1  1  6
  2  3  1  0
  2  4  1  0
  4  6  1  0
  4  5  1  6
  6  8  1  0
  6  7  2  0
  8  9  1  0
  9 14  1  0
 10 11  1  0
  9 10  1  6
 12 16  1  0
 12 11  1  0
 13 12  2  0
 14 19  1  0
 14 15  2  0
 18 17  1  1
 18 20  1  0
 19 18  1  0
 20 22  1  0
 21 20  2  0
M  END
$$$$
