VEA.pdb
     RDKit          3D

 22 21  0  0  1  0  0  0  0  0999 V2000
    7.3000  -12.6205   21.2617 C   0  0  0  0  0  0  0  0  0  0  0  0
    8.3705  -13.3257   20.4585 C   0  0  2  0  0  0  0  0  0  0  0  0
    8.3379  -12.7869   19.0453 C   0  0  0  0  0  0  0  0  0  0  0  0
    8.1390  -14.8178   20.3968 C   0  0  2  0  0  0  0  0  0  0  0  0
    6.9881  -15.1711   19.6259 N   0  0  0  0  0  0  0  0  0  0  0  0
    8.0870  -15.4461   21.7191 C   0  0  0  0  0  0  0  0  0  0  0  0
    7.0156  -15.6684   22.3512 O   0  0  0  0  0  0  0  0  0  0  0  0
    9.2905  -15.8435   22.3624 N   0  0  0  0  0  0  0  0  0  0  0  0
    9.3056  -16.3207   23.7529 C   0  0  1  0  0  0  0  0  0  0  0  0
   10.2479  -17.4754   23.7882 C   0  0  0  0  0  0  0  0  0  0  0  0
   10.3965  -18.1610   25.0998 C   0  0  0  0  0  0  0  0  0  0  0  0
   11.3264  -19.2934   25.1200 C   0  0  0  0  0  0  0  0  0  0  0  0
   11.4496  -20.0605   24.1333 O   0  0  0  0  0  0  0  0  0  0  0  0
    9.6824  -15.2159   24.6722 C   0  0  0  0  0  0  0  0  0  0  0  0
   10.7138  -14.5195   24.5098 O   0  0  0  0  0  0  0  0  0  0  0  0
   12.1302  -19.5934   26.2251 O   0  0  0  0  0  0  0  0  0  0  0  0
    7.9829  -12.9675   26.9726 C   0  0  0  0  0  0  0  0  0  0  0  0
    9.1899  -13.8165   26.6742 C   0  0  2  0  0  0  0  0  0  0  0  0
    8.8491  -14.9314   25.7782 N   0  0  0  0  0  0  0  0  0  0  0  0
    9.7645  -14.3648   27.9346 C   0  0  0  0  0  0  0  0  0  0  0  0
    9.6906  -15.6036   28.1122 O   0  0  0  0  0  0  0  0  0  0  0  0
   10.3671  -13.5493   28.8954 O   0  0  0  0  0  0  0  0  0  0  0  0
  2  1  1  1
  2  3  1  0
  2  4  1  0
  4  6  1  0
  4  5  1  1
  6  8  1  0
  6  7  2  0
  8  9  1  0
  9 14  1  0
 10 11  1  0
  9 10  1  6
 12 16  1  0
 12 11  1  0
 13 12  2  0
 14 19  1  0
 14 15  2  0
 18 17  1  1
 18 20  1  0
 19 18  1  0
 20 22  1  0
 21 20  2  0
M  END
$$$$
