VEA.pdb
     RDKit          3D

 22 21  0  0  1  0  0  0  0  0999 V2000
    7.4677  -11.9771   24.2068 C   0  0  0  0  0  0  0  0  0  0  0  0
    6.3821  -12.2702   25.2188 C   0  0  2  0  0  0  0  0  0  0  0  0
    6.9013  -11.9072   26.5925 C   0  0  0  0  0  0  0  0  0  0  0  0
    6.0030  -13.7330   25.2322 C   0  0  2  0  0  0  0  0  0  0  0  0
    4.8889  -14.0114   26.0836 N   0  0  0  0  0  0  0  0  0  0  0  0
    7.1284  -14.6151   25.5502 C   0  0  0  0  0  0  0  0  0  0  0  0
    7.3594  -15.0731   26.7051 O   0  0  0  0  0  0  0  0  0  0  0  0
    8.0365  -15.0018   24.5274 N   0  0  0  0  0  0  0  0  0  0  0  0
    9.1198  -15.9644   24.7752 C   0  0  1  0  0  0  0  0  0  0  0  0
    9.8015  -16.1725   23.4659 C   0  0  0  0  0  0  0  0  0  0  0  0
    9.0795  -17.0173   22.4773 C   0  0  0  0  0  0  0  0  0  0  0  0
    9.7705  -17.2302   21.2027 C   0  0  0  0  0  0  0  0  0  0  0  0
   11.0205  -17.3353   21.1422 O   0  0  0  0  0  0  0  0  0  0  0  0
   10.0217  -15.4606   25.8432 C   0  0  0  0  0  0  0  0  0  0  0  0
   10.5750  -14.3353   25.7897 O   0  0  0  0  0  0  0  0  0  0  0  0
    9.0941  -17.3298   19.9821 O   0  0  0  0  0  0  0  0  0  0  0  0
   10.3693  -14.6587   28.8149 C   0  0  0  0  0  0  0  0  0  0  0  0
   11.0884  -15.7557   28.0757 C   0  0  2  0  0  0  0  0  0  0  0  0
   10.2718  -16.2773   26.9697 N   0  0  0  0  0  0  0  0  0  0  0  0
   11.4230  -16.8739   29.0014 C   0  0  0  0  0  0  0  0  0  0  0  0
   10.8738  -17.9813   28.7920 O   0  0  0  0  0  0  0  0  0  0  0  0
   12.3113  -16.7177   30.0680 O   0  0  0  0  0  0  0  0  0  0  0  0
  2  1  1  6
  2  3  1  0
  2  4  1  0
  4  6  1  0
  4  5  1  1
  6  8  1  0
  6  7  2  0
  8  9  1  0
  9 14  1  0
 10 11  1  0
  9 10  1  6
 12 16  1  0
 12 11  1  0
 13 12  2  0
 14 19  1  0
 14 15  2  0
 18 17  1  1
 18 20  1  0
 19 18  1  0
 20 22  1  0
 21 20  2  0
M  END
$$$$
