VEA.pdb
     RDKit          3D

 22 21  0  0  1  0  0  0  0  0999 V2000
    7.2812  -12.6076   20.4070 C   0  0  0  0  0  0  0  0  0  0  0  0
    8.3777  -13.4891   19.8510 C   0  0  2  0  0  0  0  0  0  0  0  0
    8.5045  -13.2136   18.3690 C   0  0  0  0  0  0  0  0  0  0  0  0
    8.0671  -14.9571   20.0302 C   0  0  2  0  0  0  0  0  0  0  0  0
    6.9903  -15.4033   19.2025 N   0  0  0  0  0  0  0  0  0  0  0  0
    7.8316  -15.3280   21.4276 C   0  0  0  0  0  0  0  0  0  0  0  0
    6.7013  -15.2713   21.9900 O   0  0  0  0  0  0  0  0  0  0  0  0
    8.9117  -15.7832   22.2316 N   0  0  0  0  0  0  0  0  0  0  0  0
    8.7393  -16.0944   23.6581 C   0  0  1  0  0  0  0  0  0  0  0  0
    9.7748  -17.1137   23.9915 C   0  0  0  0  0  0  0  0  0  0  0  0
    9.7715  -17.6189   25.3904 C   0  0  0  0  0  0  0  0  0  0  0  0
   10.7843  -18.6318   25.6997 C   0  0  0  0  0  0  0  0  0  0  0  0
   10.4667  -19.7734   26.1157 O   0  0  0  0  0  0  0  0  0  0  0  0
    8.8401  -14.8548   24.4712 C   0  0  0  0  0  0  0  0  0  0  0  0
    9.8263  -14.0810   24.4100 O   0  0  0  0  0  0  0  0  0  0  0  0
   12.1563  -18.3996   25.5547 O   0  0  0  0  0  0  0  0  0  0  0  0
    6.4943  -12.6927   26.3554 C   0  0  0  0  0  0  0  0  0  0  0  0
    7.8601  -13.2901   26.1446 C   0  0  2  0  0  0  0  0  0  0  0  0
    7.7847  -14.5267   25.3528 N   0  0  0  0  0  0  0  0  0  0  0  0
    8.5040  -13.5906   27.4540 C   0  0  0  0  0  0  0  0  0  0  0  0
    8.7007  -12.6299   28.2351 O   0  0  0  0  0  0  0  0  0  0  0  0
    8.8823  -14.8849   27.8187 O   0  0  0  0  0  0  0  0  0  0  0  0
  2  1  1  6
  2  3  1  0
  2  4  1  0
  4  6  1  0
  4  5  1  6
  6  8  1  0
  6  7  2  0
  8  9  1  0
  9 14  1  0
 10 11  1  0
  9 10  1  1
 12 16  1  0
 12 11  1  0
 13 12  2  0
 14 19  1  0
 14 15  2  0
 18 17  1  1
 18 20  1  0
 19 18  1  0
 20 22  1  0
 21 20  2  0
M  END
$$$$
