VEA.pdb
     RDKit          3D

 22 21  0  0  1  0  0  0  0  0999 V2000
    7.4253  -13.1457   21.0070 C   0  0  0  0  0  0  0  0  0  0  0  0
    8.4442  -13.2855   19.8976 C   0  0  2  0  0  0  0  0  0  0  0  0
    8.0851  -12.3127   18.7961 C   0  0  0  0  0  0  0  0  0  0  0  0
    8.4513  -14.6776   19.3098 C   0  0  2  0  0  0  0  0  0  0  0  0
    7.2241  -15.0128   18.6576 N   0  0  0  0  0  0  0  0  0  0  0  0
    8.8174  -15.7099   20.2825 C   0  0  0  0  0  0  0  0  0  0  0  0
    7.9799  -16.4494   20.8730 O   0  0  0  0  0  0  0  0  0  0  0  0
   10.1843  -15.9234   20.6084 N   0  0  0  0  0  0  0  0  0  0  0  0
   10.6002  -16.9532   21.5718 C   0  0  1  0  0  0  0  0  0  0  0  0
   11.9225  -17.4559   21.1014 C   0  0  0  0  0  0  0  0  0  0  0  0
   12.5144  -18.5749   21.8821 C   0  0  0  0  0  0  0  0  0  0  0  0
   13.8328  -19.0312   21.4338 C   0  0  0  0  0  0  0  0  0  0  0  0
   14.8315  -19.0042   22.1947 O   0  0  0  0  0  0  0  0  0  0  0  0
   10.6318  -16.3895   22.9462 C   0  0  0  0  0  0  0  0  0  0  0  0
   11.4202  -15.4742   23.2867 O   0  0  0  0  0  0  0  0  0  0  0  0
   14.0662  -19.5218   20.1445 O   0  0  0  0  0  0  0  0  0  0  0  0
    8.3851  -16.1161   25.8097 C   0  0  0  0  0  0  0  0  0  0  0  0
    9.7743  -16.3659   25.2857 C   0  0  2  0  0  0  0  0  0  0  0  0
    9.7393  -16.9004   23.9164 N   0  0  0  0  0  0  0  0  0  0  0  0
   10.4963  -17.3283   26.1642 C   0  0  0  0  0  0  0  0  0  0  0  0
   10.6470  -17.0109   27.3677 O   0  0  0  0  0  0  0  0  0  0  0  0
   10.9945  -18.5430   25.6875 O   0  0  0  0  0  0  0  0  0  0  0  0
  2  1  1  1
  2  3  1  0
  2  4  1  0
  4  6  1  0
  4  5  1  1
  6  8  1  0
  6  7  2  0
  8  9  1  0
  9 14  1  0
 10 11  1  0
  9 10  1  6
 12 16  1  0
 12 11  1  0
 13 12  2  0
 14 19  1  0
 14 15  2  0
 18 17  1  1
 18 20  1  0
 19 18  1  0
 20 22  1  0
 21 20  2  0
M  END
$$$$
