VEA.pdb
     RDKit          3D

 22 21  0  0  1  0  0  0  0  0999 V2000
    7.4809  -11.8393   26.9404 C   0  0  0  0  0  0  0  0  0  0  0  0
    6.9690  -12.0230   25.5287 C   0  0  2  0  0  0  0  0  0  0  0  0
    6.0144  -10.8916   25.2175 C   0  0  0  0  0  0  0  0  0  0  0  0
    6.2214  -13.3259   25.3644 C   0  0  2  0  0  0  0  0  0  0  0  0
    5.0750  -13.4207   26.2133 N   0  0  0  0  0  0  0  0  0  0  0  0
    7.0783  -14.5036   25.5212 C   0  0  0  0  0  0  0  0  0  0  0  0
    7.1353  -15.1973   26.5760 O   0  0  0  0  0  0  0  0  0  0  0  0
    7.9093  -14.9232   24.4471 N   0  0  0  0  0  0  0  0  0  0  0  0
    8.8845  -16.0126   24.6009 C   0  0  1  0  0  0  0  0  0  0  0  0
    9.4465  -16.2650   23.2434 C   0  0  0  0  0  0  0  0  0  0  0  0
   10.4569  -17.3520   23.1434 C   0  0  0  0  0  0  0  0  0  0  0  0
   11.0353  -17.5576   21.8128 C   0  0  0  0  0  0  0  0  0  0  0  0
   11.8702  -16.7547   21.3277 O   0  0  0  0  0  0  0  0  0  0  0  0
    9.9101  -15.6465   25.6118 C   0  0  0  0  0  0  0  0  0  0  0  0
   10.6406  -14.6320   25.5011 O   0  0  0  0  0  0  0  0  0  0  0  0
   10.7014  -18.6481   21.0023 O   0  0  0  0  0  0  0  0  0  0  0  0
   10.4158  -14.9834   28.6736 C   0  0  0  0  0  0  0  0  0  0  0  0
   11.0094  -16.0634   27.8087 C   0  0  2  0  0  0  0  0  0  0  0  0
   10.0757  -16.4706   26.7485 N   0  0  0  0  0  0  0  0  0  0  0  0
   11.3594  -17.2550   28.6315 C   0  0  0  0  0  0  0  0  0  0  0  0
   10.7908  -18.3369   28.3525 O   0  0  0  0  0  0  0  0  0  0  0  0
   12.2823  -17.1927   29.6782 O   0  0  0  0  0  0  0  0  0  0  0  0
  2  1  1  1
  2  3  1  0
  2  4  1  0
  4  6  1  0
  4  5  1  1
  6  8  1  0
  6  7  2  0
  8  9  1  0
  9 14  1  0
 10 11  1  0
  9 10  1  6
 12 16  1  0
 12 11  1  0
 13 12  2  0
 14 19  1  0
 14 15  2  0
 18 17  1  1
 18 20  1  0
 19 18  1  0
 20 22  1  0
 21 20  2  0
M  END
$$$$
