VEA.pdb
     RDKit          3D

 22 21  0  0  1  0  0  0  0  0999 V2000
    7.4743  -12.4939   20.7572 C   0  0  0  0  0  0  0  0  0  0  0  0
    8.6459  -13.2200   20.1337 C   0  0  2  0  0  0  0  0  0  0  0  0
    8.7617  -12.7848   18.6896 C   0  0  0  0  0  0  0  0  0  0  0  0
    8.4586  -14.7193   20.1581 C   0  0  2  0  0  0  0  0  0  0  0  0
    7.4191  -15.1647   19.2835 N   0  0  0  0  0  0  0  0  0  0  0  0
    8.2601  -15.2514   21.5084 C   0  0  0  0  0  0  0  0  0  0  0  0
    7.1290  -15.3685   22.0596 O   0  0  0  0  0  0  0  0  0  0  0  0
    9.3801  -15.6718   22.2760 N   0  0  0  0  0  0  0  0  0  0  0  0
    9.2288  -16.2266   23.6290 C   0  0  1  0  0  0  0  0  0  0  0  0
   10.1517  -17.3947   23.7072 C   0  0  0  0  0  0  0  0  0  0  0  0
   10.1608  -18.1385   24.9953 C   0  0  0  0  0  0  0  0  0  0  0  0
   11.1279  -19.2357   25.0854 C   0  0  0  0  0  0  0  0  0  0  0  0
   10.7992  -20.4233   24.8431 O   0  0  0  0  0  0  0  0  0  0  0  0
    9.5038  -15.1807   24.6480 C   0  0  0  0  0  0  0  0  0  0  0  0
   10.6036  -14.5812   24.7258 O   0  0  0  0  0  0  0  0  0  0  0  0
   12.4660  -19.0381   25.4429 O   0  0  0  0  0  0  0  0  0  0  0  0
    7.4998  -13.1576   27.0620 C   0  0  0  0  0  0  0  0  0  0  0  0
    8.7638  -13.8433   26.6159 C   0  0  2  0  0  0  0  0  0  0  0  0
    8.4888  -14.8413   25.5718 N   0  0  0  0  0  0  0  0  0  0  0  0
    9.4251  -14.5164   27.7688 C   0  0  0  0  0  0  0  0  0  0  0  0
    9.4051  -15.7696   27.7951 O   0  0  0  0  0  0  0  0  0  0  0  0
   10.0493  -13.7994   28.7922 O   0  0  0  0  0  0  0  0  0  0  0  0
  2  1  1  6
  2  3  1  0
  2  4  1  0
  4  6  1  0
  4  5  1  6
  6  8  1  0
  6  7  2  0
  8  9  1  0
  9 14  1  0
 10 11  1  0
  9 10  1  1
 12 16  1  0
 12 11  1  0
 13 12  2  0
 14 19  1  0
 14 15  2  0
 18 17  1  1
 18 20  1  0
 19 18  1  0
 20 22  1  0
 21 20  2  0
M  END
$$$$
