VEA.pdb
     RDKit          3D

 22 21  0  0  1  0  0  0  0  0999 V2000
    7.5267  -12.9676   20.8216 C   0  0  0  0  0  0  0  0  0  0  0  0
    8.5694  -13.2404   19.7601 C   0  0  2  0  0  0  0  0  0  0  0  0
    8.2913  -12.3398   18.5770 C   0  0  0  0  0  0  0  0  0  0  0  0
    8.5248  -14.6726   19.2800 C   0  0  2  0  0  0  0  0  0  0  0  0
    7.3067  -14.9957   18.6051 N   0  0  0  0  0  0  0  0  0  0  0  0
    8.7994  -15.6433   20.3421 C   0  0  0  0  0  0  0  0  0  0  0  0
    7.9007  -16.2609   20.9808 O   0  0  0  0  0  0  0  0  0  0  0  0
   10.1422  -15.9354   20.7051 N   0  0  0  0  0  0  0  0  0  0  0  0
   10.4681  -16.9408   21.7271 C   0  0  1  0  0  0  0  0  0  0  0  0
   11.7957  -17.5047   21.3501 C   0  0  0  0  0  0  0  0  0  0  0  0
   12.3133  -18.5985   22.2149 C   0  0  0  0  0  0  0  0  0  0  0  0
   13.6151  -19.1489   21.8277 C   0  0  0  0  0  0  0  0  0  0  0  0
   14.6680  -18.8375   22.4374 O   0  0  0  0  0  0  0  0  0  0  0  0
   10.4442  -16.3263   23.0798 C   0  0  0  0  0  0  0  0  0  0  0  0
   11.1350  -15.3230   23.3820 O   0  0  0  0  0  0  0  0  0  0  0  0
   13.7721  -20.0470   20.7665 O   0  0  0  0  0  0  0  0  0  0  0  0
    8.2335  -16.0590   25.9295 C   0  0  0  0  0  0  0  0  0  0  0  0
    9.6284  -16.3343   25.4342 C   0  0  2  0  0  0  0  0  0  0  0  0
    9.6107  -16.8899   24.0730 N   0  0  0  0  0  0  0  0  0  0  0  0
   10.3226  -17.2916   26.3403 C   0  0  0  0  0  0  0  0  0  0  0  0
   10.6085  -18.4212   25.8777 O   0  0  0  0  0  0  0  0  0  0  0  0
   10.6520  -16.9651   27.6579 O   0  0  0  0  0  0  0  0  0  0  0  0
  2  1  1  1
  2  3  1  0
  2  4  1  0
  4  6  1  0
  4  5  1  1
  6  8  1  0
  6  7  2  0
  8  9  1  0
  9 14  1  0
 10 11  1  0
  9 10  1  6
 12 16  1  0
 12 11  1  0
 13 12  2  0
 14 19  1  0
 14 15  2  0
 18 17  1  1
 18 20  1  0
 19 18  1  0
 20 22  1  0
 21 20  2  0
M  END
$$$$
