VEA.pdb
     RDKit          3D

 22 21  0  0  1  0  0  0  0  0999 V2000
    7.4118  -12.6951   21.2892 C   0  0  0  0  0  0  0  0  0  0  0  0
    8.5253  -13.3912   20.5381 C   0  0  2  0  0  0  0  0  0  0  0  0
    8.5169  -12.8966   19.1086 C   0  0  0  0  0  0  0  0  0  0  0  0
    8.3402  -14.8908   20.5166 C   0  0  2  0  0  0  0  0  0  0  0  0
    7.1725  -15.2972   19.7991 N   0  0  0  0  0  0  0  0  0  0  0  0
    8.3600  -15.4912   21.8526 C   0  0  0  0  0  0  0  0  0  0  0  0
    7.3202  -15.7682   22.5153 O   0  0  0  0  0  0  0  0  0  0  0  0
    9.6014  -15.7953   22.4744 N   0  0  0  0  0  0  0  0  0  0  0  0
    9.6705  -16.4320   23.7977 C   0  0  1  0  0  0  0  0  0  0  0  0
   10.6189  -17.5743   23.6628 C   0  0  0  0  0  0  0  0  0  0  0  0
   10.8568  -18.3782   24.8914 C   0  0  0  0  0  0  0  0  0  0  0  0
   11.7536  -19.5262   24.7326 C   0  0  0  0  0  0  0  0  0  0  0  0
   11.3290  -20.7062   24.7996 O   0  0  0  0  0  0  0  0  0  0  0  0
   10.0761  -15.4392   24.8262 C   0  0  0  0  0  0  0  0  0  0  0  0
   11.1200  -14.7492   24.7293 O   0  0  0  0  0  0  0  0  0  0  0  0
   13.1260  -19.3882   24.4986 O   0  0  0  0  0  0  0  0  0  0  0  0
    8.4780  -13.3842   27.3473 C   0  0  0  0  0  0  0  0  0  0  0  0
    9.6396  -14.2701   26.9829 C   0  0  2  0  0  0  0  0  0  0  0  0
    9.2568  -15.2587   25.9641 N   0  0  0  0  0  0  0  0  0  0  0  0
   10.1461  -14.9854   28.1875 C   0  0  0  0  0  0  0  0  0  0  0  0
    9.9888  -16.2285   28.2299 O   0  0  0  0  0  0  0  0  0  0  0  0
   10.7750  -14.3177   29.2410 O   0  0  0  0  0  0  0  0  0  0  0  0
  2  1  1  1
  2  3  1  0
  2  4  1  0
  4  6  1  0
  4  5  1  1
  6  8  1  0
  6  7  2  0
  8  9  1  0
  9 14  1  0
 10 11  1  0
  9 10  1  6
 12 16  1  0
 12 11  1  0
 13 12  2  0
 14 19  1  0
 14 15  2  0
 18 17  1  1
 18 20  1  0
 19 18  1  0
 20 22  1  0
 21 20  2  0
M  END
$$$$
