VEA.pdb
     RDKit          3D

 22 21  0  0  1  0  0  0  0  0999 V2000
    7.7499  -13.2243   20.4837 C   0  0  0  0  0  0  0  0  0  0  0  0
    8.8872  -13.0735   19.4976 C   0  0  2  0  0  0  0  0  0  0  0  0
    8.6012  -11.8745   18.6208 C   0  0  0  0  0  0  0  0  0  0  0  0
    9.0247  -14.2851   18.6049 C   0  0  2  0  0  0  0  0  0  0  0  0
    7.8936  -14.4798   17.7527 N   0  0  0  0  0  0  0  0  0  0  0  0
    9.3305  -15.5119   19.3448 C   0  0  0  0  0  0  0  0  0  0  0  0
    8.4931  -16.4348   19.5543 O   0  0  0  0  0  0  0  0  0  0  0  0
   10.6342  -15.7138   19.8738 N   0  0  0  0  0  0  0  0  0  0  0  0
   10.9806  -16.9169   20.6446 C   0  0  1  0  0  0  0  0  0  0  0  0
   12.1223  -17.5564   19.9305 C   0  0  0  0  0  0  0  0  0  0  0  0
   13.4014  -16.7973   19.9261 C   0  0  0  0  0  0  0  0  0  0  0  0
   14.5097  -17.4293   19.2053 C   0  0  0  0  0  0  0  0  0  0  0  0
   15.5832  -17.7303   19.7835 O   0  0  0  0  0  0  0  0  0  0  0  0
   11.2861  -16.5554   22.0531 C   0  0  0  0  0  0  0  0  0  0  0  0
   11.9401  -15.5305   22.3645 O   0  0  0  0  0  0  0  0  0  0  0  0
   14.4488  -17.7367   17.8418 O   0  0  0  0  0  0  0  0  0  0  0  0
    9.7911  -16.9237   25.2692 C   0  0  0  0  0  0  0  0  0  0  0  0
   11.0762  -17.0246   24.4914 C   0  0  2  0  0  0  0  0  0  0  0  0
   10.8241  -17.3965   23.0914 N   0  0  0  0  0  0  0  0  0  0  0  0
   11.9791  -18.0368   25.1076 C   0  0  0  0  0  0  0  0  0  0  0  0
   12.2127  -19.0787   24.4506 O   0  0  0  0  0  0  0  0  0  0  0  0
   12.5544  -17.8534   26.3671 O   0  0  0  0  0  0  0  0  0  0  0  0
  2  1  1  1
  2  3  1  0
  2  4  1  0
  4  6  1  0
  4  5  1  1
  6  8  1  0
  6  7  2  0
  8  9  1  0
  9 14  1  0
 10 11  1  0
  9 10  1  6
 12 16  1  0
 12 11  1  0
 13 12  2  0
 14 19  1  0
 14 15  2  0
 18 17  1  1
 18 20  1  0
 19 18  1  0
 20 22  1  0
 21 20  2  0
M  END
$$$$
