VEA.pdb
     RDKit          3D

 22 21  0  0  1  0  0  0  0  0999 V2000
    7.4461  -12.7158   21.9546 C   0  0  0  0  0  0  0  0  0  0  0  0
    8.3020  -13.4719   20.9625 C   0  0  2  0  0  0  0  0  0  0  0  0
    7.9579  -12.9881   19.5711 C   0  0  0  0  0  0  0  0  0  0  0  0
    8.0483  -14.9606   21.0174 C   0  0  2  0  0  0  0  0  0  0  0  0
    6.7430  -15.3201   20.5586 N   0  0  0  0  0  0  0  0  0  0  0  0
    8.3086  -15.5392   22.3377 C   0  0  0  0  0  0  0  0  0  0  0  0
    7.4151  -15.7321   23.2104 O   0  0  0  0  0  0  0  0  0  0  0  0
    9.6304  -15.9191   22.6967 N   0  0  0  0  0  0  0  0  0  0  0  0
    9.9383  -16.5121   24.0063 C   0  0  1  0  0  0  0  0  0  0  0  0
   11.0618  -17.4654   23.7796 C   0  0  0  0  0  0  0  0  0  0  0  0
   10.7096  -18.7482   23.1141 C   0  0  0  0  0  0  0  0  0  0  0  0
   11.8405  -19.6156   22.7737 C   0  0  0  0  0  0  0  0  0  0  0  0
   13.0074  -19.3559   23.1585 O   0  0  0  0  0  0  0  0  0  0  0  0
   10.2512  -15.4463   24.9932 C   0  0  0  0  0  0  0  0  0  0  0  0
   10.9968  -14.4724   24.7272 O   0  0  0  0  0  0  0  0  0  0  0  0
   11.6997  -20.7773   22.0068 O   0  0  0  0  0  0  0  0  0  0  0  0
    8.9909  -13.4631   27.4244 C   0  0  0  0  0  0  0  0  0  0  0  0
   10.0536  -14.5223   27.2989 C   0  0  2  0  0  0  0  0  0  0  0  0
    9.6892  -15.5259   26.2880 N   0  0  0  0  0  0  0  0  0  0  0  0
   10.2649  -15.2045   28.6062 C   0  0  0  0  0  0  0  0  0  0  0  0
    9.9696  -16.4208   28.6775 O   0  0  0  0  0  0  0  0  0  0  0  0
   10.7713  -14.5351   29.7227 O   0  0  0  0  0  0  0  0  0  0  0  0
  2  1  1  1
  2  3  1  0
  2  4  1  0
  4  6  1  0
  4  5  1  1
  6  8  1  0
  6  7  2  0
  8  9  1  0
  9 14  1  0
 10 11  1  0
  9 10  1  6
 12 16  1  0
 12 11  1  0
 13 12  2  0
 14 19  1  0
 14 15  2  0
 18 17  1  1
 18 20  1  0
 19 18  1  0
 20 22  1  0
 21 20  2  0
M  END
$$$$
