VEA.pdb
     RDKit          3D

 22 21  0  0  1  0  0  0  0  0999 V2000
    7.2639  -14.7448   19.7299 C   0  0  0  0  0  0  0  0  0  0  0  0
    7.8515  -13.4398   20.2203 C   0  0  2  0  0  0  0  0  0  0  0  0
    8.1579  -12.5742   19.0181 C   0  0  0  0  0  0  0  0  0  0  0  0
    9.1373  -13.6519   20.9853 C   0  0  2  0  0  0  0  0  0  0  0  0
   10.1556  -14.2766   20.2002 N   0  0  0  0  0  0  0  0  0  0  0  0
    8.9434  -14.3720   22.2462 C   0  0  0  0  0  0  0  0  0  0  0  0
    7.9976  -14.1392   23.0514 O   0  0  0  0  0  0  0  0  0  0  0  0
    9.8504  -15.3998   22.6219 N   0  0  0  0  0  0  0  0  0  0  0  0
    9.6509  -16.2045   23.8360 C   0  0  1  0  0  0  0  0  0  0  0  0
   10.3263  -17.5101   23.5875 C   0  0  0  0  0  0  0  0  0  0  0  0
    9.7927  -18.3206   22.4603 C   0  0  0  0  0  0  0  0  0  0  0  0
   10.4973  -19.5781   22.1961 C   0  0  0  0  0  0  0  0  0  0  0  0
   10.1754  -20.6458   22.7737 O   0  0  0  0  0  0  0  0  0  0  0  0
   10.1720  -15.4808   25.0245 C   0  0  0  0  0  0  0  0  0  0  0  0
   11.3554  -15.0704   25.1046 O   0  0  0  0  0  0  0  0  0  0  0  0
   11.5627  -19.6740   21.2944 O   0  0  0  0  0  0  0  0  0  0  0  0
    8.8346  -13.4794   27.7610 C   0  0  0  0  0  0  0  0  0  0  0  0
    9.8086  -14.5306   27.2992 C   0  0  2  0  0  0  0  0  0  0  0  0
    9.3044  -15.2409   26.1146 N   0  0  0  0  0  0  0  0  0  0  0  0
   10.0625  -15.5177   28.3857 C   0  0  0  0  0  0  0  0  0  0  0  0
    9.6779  -16.6959   28.1972 O   0  0  0  0  0  0  0  0  0  0  0  0
   10.7023  -15.1666   29.5767 O   0  0  0  0  0  0  0  0  0  0  0  0
  2  1  1  6
  2  3  1  0
  2  4  1  0
  4  6  1  0
  4  5  1  6
  6  8  1  0
  6  7  2  0
  8  9  1  0
  9 14  1  0
 10 11  1  0
  9 10  1  6
 12 16  1  0
 12 11  1  0
 13 12  2  0
 14 19  1  0
 14 15  2  0
 18 17  1  1
 18 20  1  0
 19 18  1  0
 20 22  1  0
 21 20  2  0
M  END
$$$$
