VEA.pdb
     RDKit          3D

 22 21  0  0  1  0  0  0  0  0999 V2000
    9.3046  -12.4656   20.2719 C   0  0  0  0  0  0  0  0  0  0  0  0
    8.4316  -13.2411   19.3100 C   0  0  2  0  0  0  0  0  0  0  0  0
    6.9894  -12.8628   19.5653 C   0  0  0  0  0  0  0  0  0  0  0  0
    8.5662  -14.7337   19.5035 C   0  0  2  0  0  0  0  0  0  0  0  0
    7.8582  -15.4888   18.5175 N   0  0  0  0  0  0  0  0  0  0  0  0
    8.1994  -15.1735   20.8518 C   0  0  0  0  0  0  0  0  0  0  0  0
    7.0341  -15.5340   21.1819 O   0  0  0  0  0  0  0  0  0  0  0  0
    9.1833  -15.2113   21.8769 N   0  0  0  0  0  0  0  0  0  0  0  0
    8.8752  -15.6967   23.2300 C   0  0  1  0  0  0  0  0  0  0  0  0
    9.9094  -16.7210   23.5521 C   0  0  0  0  0  0  0  0  0  0  0  0
    9.8330  -17.3263   24.9086 C   0  0  0  0  0  0  0  0  0  0  0  0
   10.8689  -18.3151   25.2194 C   0  0  0  0  0  0  0  0  0  0  0  0
   10.6737  -19.5449   25.0565 O   0  0  0  0  0  0  0  0  0  0  0  0
    8.8417  -14.5619   24.1887 C   0  0  0  0  0  0  0  0  0  0  0  0
    9.8199  -13.7965   24.3691 O   0  0  0  0  0  0  0  0  0  0  0  0
   12.1297  -17.9615   25.7122 O   0  0  0  0  0  0  0  0  0  0  0  0
    6.1593  -12.8133   26.1486 C   0  0  0  0  0  0  0  0  0  0  0  0
    7.5877  -13.1629   25.8255 C   0  0  2  0  0  0  0  0  0  0  0  0
    7.6622  -14.3284   24.9322 N   0  0  0  0  0  0  0  0  0  0  0  0
    8.3458  -13.4584   27.0734 C   0  0  0  0  0  0  0  0  0  0  0  0
    8.6482  -14.6545   27.2961 O   0  0  0  0  0  0  0  0  0  0  0  0
    8.7162  -12.4577   27.9748 O   0  0  0  0  0  0  0  0  0  0  0  0
  2  1  1  1
  2  3  1  0
  2  4  1  0
  4  6  1  0
  4  5  1  6
  6  8  1  0
  6  7  2  0
  8  9  1  0
  9 14  1  0
 10 11  1  0
  9 10  1  1
 12 16  1  0
 12 11  1  0
 13 12  2  0
 14 19  1  0
 14 15  2  0
 18 17  1  1
 18 20  1  0
 19 18  1  0
 20 22  1  0
 21 20  2  0
M  END
$$$$
