VEA.pdb
     RDKit          3D

 22 21  0  0  1  0  0  0  0  0999 V2000
    7.1909  -12.6880   20.3759 C   0  0  0  0  0  0  0  0  0  0  0  0
    8.4410  -13.3722   19.8682 C   0  0  2  0  0  0  0  0  0  0  0  0
    8.6081  -13.0326   18.4036 C   0  0  0  0  0  0  0  0  0  0  0  0
    8.3522  -14.8755   19.9938 C   0  0  2  0  0  0  0  0  0  0  0  0
    7.4270  -15.4574   19.0724 N   0  0  0  0  0  0  0  0  0  0  0  0
    8.0696  -15.3221   21.3600 C   0  0  0  0  0  0  0  0  0  0  0  0
    6.9123  -15.6006   21.7844 O   0  0  0  0  0  0  0  0  0  0  0  0
    9.1323  -15.4631   22.2934 N   0  0  0  0  0  0  0  0  0  0  0  0
    8.8861  -15.7915   23.7052 C   0  0  1  0  0  0  0  0  0  0  0  0
    9.9714  -16.7292   24.1115 C   0  0  0  0  0  0  0  0  0  0  0  0
   10.0677  -17.9959   23.3379 C   0  0  0  0  0  0  0  0  0  0  0  0
   11.2059  -18.8563   23.6720 C   0  0  0  0  0  0  0  0  0  0  0  0
   11.8175  -19.5091   22.7906 O   0  0  0  0  0  0  0  0  0  0  0  0
    8.8344  -14.5506   24.5208 C   0  0  0  0  0  0  0  0  0  0  0  0
    9.7553  -13.6978   24.5185 O   0  0  0  0  0  0  0  0  0  0  0  0
   11.6828  -19.0076   24.9786 O   0  0  0  0  0  0  0  0  0  0  0  0
    6.2218  -12.6192   26.3187 C   0  0  0  0  0  0  0  0  0  0  0  0
    7.6416  -13.0914   26.1508 C   0  0  2  0  0  0  0  0  0  0  0  0
    7.7039  -14.3138   25.3361 N   0  0  0  0  0  0  0  0  0  0  0  0
    8.2604  -13.3610   27.4789 C   0  0  0  0  0  0  0  0  0  0  0  0
    8.4979  -14.5562   27.7737 O   0  0  0  0  0  0  0  0  0  0  0  0
    8.5727  -12.3377   28.3769 O   0  0  0  0  0  0  0  0  0  0  0  0
  2  1  1  6
  2  3  1  0
  2  4  1  0
  4  6  1  0
  4  5  1  6
  6  8  1  0
  6  7  2  0
  8  9  1  0
  9 14  1  0
 10 11  1  0
  9 10  1  1
 12 16  1  0
 12 11  1  0
 13 12  2  0
 14 19  1  0
 14 15  2  0
 18 17  1  1
 18 20  1  0
 19 18  1  0
 20 22  1  0
 21 20  2  0
M  END
$$$$
