VEA.pdb
     RDKit          3D

 22 21  0  0  1  0  0  0  0  0999 V2000
    7.8341  -12.6382   18.4369 C   0  0  0  0  0  0  0  0  0  0  0  0
    7.5819  -13.2891   19.7790 C   0  0  2  0  0  0  0  0  0  0  0  0
    8.3457  -12.5183   20.8330 C   0  0  0  0  0  0  0  0  0  0  0  0
    8.0582  -14.7229   19.8095 C   0  0  2  0  0  0  0  0  0  0  0  0
    7.4012  -15.5483   18.8448 N   0  0  0  0  0  0  0  0  0  0  0  0
    7.9809  -15.3256   21.1424 C   0  0  0  0  0  0  0  0  0  0  0  0
    6.9041  -15.7136   21.6781 O   0  0  0  0  0  0  0  0  0  0  0  0
    9.1640  -15.5017   21.9100 N   0  0  0  0  0  0  0  0  0  0  0  0
    9.1266  -16.0235   23.2840 C   0  0  1  0  0  0  0  0  0  0  0  0
   10.2549  -16.9917   23.3942 C   0  0  0  0  0  0  0  0  0  0  0  0
   10.4812  -17.5850   24.7392 C   0  0  0  0  0  0  0  0  0  0  0  0
   11.6712  -18.4308   24.8654 C   0  0  0  0  0  0  0  0  0  0  0  0
   11.9957  -18.9494   25.9622 O   0  0  0  0  0  0  0  0  0  0  0  0
    9.2024  -14.9067   24.2611 C   0  0  0  0  0  0  0  0  0  0  0  0
   10.1486  -14.0823   24.2778 O   0  0  0  0  0  0  0  0  0  0  0  0
   12.5161  -18.7149   23.7871 O   0  0  0  0  0  0  0  0  0  0  0  0
    6.7899  -13.0331   26.2869 C   0  0  0  0  0  0  0  0  0  0  0  0
    8.1748  -13.5987   26.1164 C   0  0  2  0  0  0  0  0  0  0  0  0
    8.1690  -14.7601   25.2147 N   0  0  0  0  0  0  0  0  0  0  0  0
    8.7344  -14.0101   27.4344 C   0  0  0  0  0  0  0  0  0  0  0  0
    8.8685  -13.1210   28.3080 O   0  0  0  0  0  0  0  0  0  0  0  0
    9.1023  -15.3294   27.7085 O   0  0  0  0  0  0  0  0  0  0  0  0
  2  1  1  6
  2  3  1  0
  2  4  1  0
  4  6  1  0
  4  5  1  6
  6  8  1  0
  6  7  2  0
  8  9  1  0
  9 14  1  0
 10 11  1  0
  9 10  1  1
 12 16  1  0
 12 11  1  0
 13 12  2  0
 14 19  1  0
 14 15  2  0
 18 17  1  1
 18 20  1  0
 19 18  1  0
 20 22  1  0
 21 20  2  0
M  END
$$$$
