VEA.pdb
     RDKit          3D

 22 21  0  0  1  0  0  0  0  0999 V2000
    9.2159  -12.5570   20.5821 C   0  0  0  0  0  0  0  0  0  0  0  0
    8.2575  -13.2795   19.6613 C   0  0  2  0  0  0  0  0  0  0  0  0
    6.8452  -12.9711   20.1072 C   0  0  0  0  0  0  0  0  0  0  0  0
    8.4483  -14.7777   19.7108 C   0  0  2  0  0  0  0  0  0  0  0  0
    7.6237  -15.4751   18.7742 N   0  0  0  0  0  0  0  0  0  0  0  0
    8.2844  -15.3334   21.0563 C   0  0  0  0  0  0  0  0  0  0  0  0
    7.1697  -15.6678   21.5488 O   0  0  0  0  0  0  0  0  0  0  0  0
    9.4214  -15.5231   21.8878 N   0  0  0  0  0  0  0  0  0  0  0  0
    9.3030  -16.0500   23.2552 C   0  0  1  0  0  0  0  0  0  0  0  0
   10.2242  -17.2194   23.3337 C   0  0  0  0  0  0  0  0  0  0  0  0
   10.3603  -17.8589   24.6697 C   0  0  0  0  0  0  0  0  0  0  0  0
   11.2548  -19.0181   24.7281 C   0  0  0  0  0  0  0  0  0  0  0  0
   11.0716  -20.0269   24.0029 O   0  0  0  0  0  0  0  0  0  0  0  0
    9.6069  -14.9846   24.2455 C   0  0  0  0  0  0  0  0  0  0  0  0
   10.6900  -14.3505   24.2496 O   0  0  0  0  0  0  0  0  0  0  0  0
   12.3595  -19.0797   25.5843 O   0  0  0  0  0  0  0  0  0  0  0  0
    7.7977  -12.8532   26.6537 C   0  0  0  0  0  0  0  0  0  0  0  0
    8.9792  -13.7149   26.2955 C   0  0  2  0  0  0  0  0  0  0  0  0
    8.6404  -14.6664   25.2270 N   0  0  0  0  0  0  0  0  0  0  0  0
    9.4511  -14.4723   27.4884 C   0  0  0  0  0  0  0  0  0  0  0  0
    9.7953  -13.8089   28.4949 O   0  0  0  0  0  0  0  0  0  0  0  0
    9.5159  -15.8675   27.5074 O   0  0  0  0  0  0  0  0  0  0  0  0
  2  1  1  1
  2  3  1  0
  2  4  1  0
  4  6  1  0
  4  5  1  6
  6  8  1  0
  6  7  2  0
  8  9  1  0
  9 14  1  0
 10 11  1  0
  9 10  1  6
 12 16  1  0
 12 11  1  0
 13 12  2  0
 14 19  1  0
 14 15  2  0
 18 17  1  1
 18 20  1  0
 19 18  1  0
 20 22  1  0
 21 20  2  0
M  END
$$$$
