VEA.pdb
     RDKit          3D

 22 21  0  0  1  0  0  0  0  0999 V2000
    7.5073  -13.0532   20.2258 C   0  0  0  0  0  0  0  0  0  0  0  0
    8.6841  -13.2113   19.2884 C   0  0  2  0  0  0  0  0  0  0  0  0
    8.5341  -12.2114   18.1632 C   0  0  0  0  0  0  0  0  0  0  0  0
    8.7410  -14.5943   18.6822 C   0  0  2  0  0  0  0  0  0  0  0  0
    7.6795  -14.8406   17.7569 N   0  0  0  0  0  0  0  0  0  0  0  0
    8.8080  -15.6591   19.6859 C   0  0  0  0  0  0  0  0  0  0  0  0
    7.7936  -16.2486   20.1555 O   0  0  0  0  0  0  0  0  0  0  0  0
   10.0690  -16.0828   20.1863 N   0  0  0  0  0  0  0  0  0  0  0  0
   10.1818  -17.0798   21.2610 C   0  0  1  0  0  0  0  0  0  0  0  0
   11.2897  -17.9959   20.8665 C   0  0  0  0  0  0  0  0  0  0  0  0
   12.6496  -17.3957   20.8131 C   0  0  0  0  0  0  0  0  0  0  0  0
   13.7248  -18.3009   20.3983 C   0  0  0  0  0  0  0  0  0  0  0  0
   14.8367  -18.3120   20.9821 O   0  0  0  0  0  0  0  0  0  0  0  0
   10.4020  -16.4062   22.5670 C   0  0  0  0  0  0  0  0  0  0  0  0
   11.2538  -15.4985   22.7276 O   0  0  0  0  0  0  0  0  0  0  0  0
   13.5882  -19.2029   19.3375 O   0  0  0  0  0  0  0  0  0  0  0  0
    8.6716  -15.3039   25.3805 C   0  0  0  0  0  0  0  0  0  0  0  0
    9.8470  -16.1567   24.9833 C   0  0  2  0  0  0  0  0  0  0  0  0
    9.6233  -16.7989   23.6797 N   0  0  0  0  0  0  0  0  0  0  0  0
   10.0949  -17.2101   26.0072 C   0  0  0  0  0  0  0  0  0  0  0  0
    9.8972  -18.4013   25.6702 O   0  0  0  0  0  0  0  0  0  0  0  0
   10.5311  -16.9057   27.2988 O   0  0  0  0  0  0  0  0  0  0  0  0
  2  1  1  1
  2  3  1  0
  2  4  1  0
  4  6  1  0
  4  5  1  1
  6  8  1  0
  6  7  2  0
  8  9  1  0
  9 14  1  0
 10 11  1  0
  9 10  1  6
 12 16  1  0
 12 11  1  0
 13 12  2  0
 14 19  1  0
 14 15  2  0
 18 17  1  1
 18 20  1  0
 19 18  1  0
 20 22  1  0
 21 20  2  0
M  END
$$$$
