CNF.pdb
     RDKit          3D

 26 26  0  0  1  0  0  0  0  0999 V2000
    8.3966  -14.4614   17.7387 N   0  0  0  0  0  0  0  0  0  0  0  0
    9.1109  -14.5401   19.0191 C   0  0  1  0  0  0  0  0  0  0  0  0
    9.3456  -13.0909   19.4380 C   0  0  0  0  0  0  0  0  0  0  0  0
    7.7109  -12.3313   19.6533 S   0  0  0  0  0  0  0  0  0  0  0  0
    8.2501  -15.1820   20.0495 C   0  0  0  0  0  0  0  0  0  0  0  0
    7.0314  -15.4274   19.7986 O   0  0  0  0  0  0  0  0  0  0  0  0
    6.3514  -18.9601   22.1524 N   0  0  0  0  0  0  0  0  0  0  0  0
    7.7722  -18.9655   22.0274 C   0  0  0  0  0  0  0  0  0  0  0  0
    8.3780  -19.9939   22.3710 O   0  0  0  0  0  0  0  0  0  0  0  0
    8.4801  -17.8077   21.5161 C   0  0  0  0  0  0  0  0  0  0  0  0
    8.2408  -16.4991   22.1761 C   0  0  2  0  0  0  0  0  0  0  0  0
    8.8546  -15.4945   21.2913 N   0  0  0  0  0  0  0  0  0  0  0  0
    8.7928  -16.3211   23.5175 C   0  0  0  0  0  0  0  0  0  0  0  0
   10.0625  -16.2262   23.6756 O   0  0  0  0  0  0  0  0  0  0  0  0
    8.0589  -16.2336   24.7276 N   0  0  0  0  0  0  0  0  0  0  0  0
    8.6747  -16.1217   26.0368 C   0  0  1  0  0  0  0  0  0  0  0  0
    7.7682  -15.4255   26.9961 C   0  0  0  0  0  0  0  0  0  0  0  0
    7.4189  -14.0674   26.6027 C   0  0  0  0  0  0  0  0  0  0  0  0
    6.2404  -13.7413   25.9488 C   0  0  0  0  0  0  0  0  0  0  0  0
    5.9243  -12.4565   25.5829 C   0  0  0  0  0  0  0  0  0  0  0  0
    6.8204  -11.4497   25.8807 C   0  0  0  0  0  0  0  0  0  0  0  0
    8.0155  -11.7314   26.5361 C   0  0  0  0  0  0  0  0  0  0  0  0
    8.2937  -13.0295   26.8848 C   0  0  0  0  0  0  0  0  0  0  0  0
    9.1555  -17.3936   26.5603 C   0  0  0  0  0  0  0  0  0  0  0  0
    9.9765  -17.3896   27.6989 O   0  0  0  0  0  0  0  0  0  0  0  0
    8.9023  -18.5255   26.0814 O   0  0  0  0  0  0  0  0  0  0  0  0
  2  1  1  6
  3  2  1  0
  3  4  1  0
  5  6  2  0
  5  2  1  0
  7  8  1  0
  8  9  2  0
  8 10  1  0
 11 10  1  6
 11 13  1  0
 11 12  1  0
 12  5  1  0
 13 15  1  0
 14 13  2  0
 15 16  1  0
 16 17  1  1
 17 18  1  0
 18 23  2  0
 19 20  2  0
 19 18  1  0
 20 21  1  0
 21 22  2  0
 23 22  1  0
 24 25  1  0
 24 16  1  0
 26 24  2  0
M  END
$$$$
