CNF.pdb
     RDKit          3D

 26 26  0  0  1  0  0  0  0  0999 V2000
    6.6545  -14.6530   19.7553 N   0  0  0  0  0  0  0  0  0  0  0  0
    7.9833  -14.5103   20.3633 C   0  0  1  0  0  0  0  0  0  0  0  0
    8.0105  -13.0982   20.9428 C   0  0  0  0  0  0  0  0  0  0  0  0
    8.1661  -11.9544   19.5417 S   0  0  0  0  0  0  0  0  0  0  0  0
    8.1398  -15.4714   21.4887 C   0  0  0  0  0  0  0  0  0  0  0  0
    7.1185  -15.9027   22.1047 O   0  0  0  0  0  0  0  0  0  0  0  0
   11.3653  -18.1913   19.9443 N   0  0  0  0  0  0  0  0  0  0  0  0
   10.6272  -18.4862   21.1285 C   0  0  0  0  0  0  0  0  0  0  0  0
    9.8156  -19.4252   21.0842 O   0  0  0  0  0  0  0  0  0  0  0  0
   10.8217  -17.7132   22.3402 C   0  0  0  0  0  0  0  0  0  0  0  0
    9.6802  -16.9057   22.8404 C   0  0  2  0  0  0  0  0  0  0  0  0
    9.4585  -15.8655   21.8217 N   0  0  0  0  0  0  0  0  0  0  0  0
    9.8493  -16.2466   24.1337 C   0  0  0  0  0  0  0  0  0  0  0  0
   10.8399  -15.4525   24.3185 O   0  0  0  0  0  0  0  0  0  0  0  0
    9.0078  -16.3824   25.2668 N   0  0  0  0  0  0  0  0  0  0  0  0
    9.3599  -15.9099   26.5929 C   0  0  1  0  0  0  0  0  0  0  0  0
    8.1718  -15.3342   27.2882 C   0  0  0  0  0  0  0  0  0  0  0  0
    7.6623  -14.1132   26.6792 C   0  0  0  0  0  0  0  0  0  0  0  0
    6.4685  -14.0512   25.9765 C   0  0  0  0  0  0  0  0  0  0  0  0
    6.0007  -12.8933   25.4066 C   0  0  0  0  0  0  0  0  0  0  0  0
    6.7538  -11.7443   25.5414 C   0  0  0  0  0  0  0  0  0  0  0  0
    7.9583  -11.7604   26.2385 C   0  0  0  0  0  0  0  0  0  0  0  0
    8.3907  -12.9391   26.7934 C   0  0  0  0  0  0  0  0  0  0  0  0
   10.0373  -16.9135   27.4034 C   0  0  0  0  0  0  0  0  0  0  0  0
   10.2003  -18.2067   26.8822 O   0  0  0  0  0  0  0  0  0  0  0  0
   10.5029  -16.7329   28.5546 O   0  0  0  0  0  0  0  0  0  0  0  0
  2  1  1  1
  3  2  1  0
  3  4  1  0
  5  6  2  0
  5  2  1  0
  7  8  1  0
  8  9  2  0
  8 10  1  0
 11 10  1  6
 11 13  1  0
 11 12  1  0
 12  5  1  0
 13 15  1  0
 14 13  2  0
 15 16  1  0
 16 17  1  1
 17 18  1  0
 18 23  2  0
 19 20  2  0
 19 18  1  0
 20 21  1  0
 21 22  2  0
 23 22  1  0
 24 25  1  0
 24 16  1  0
 26 24  2  0
M  END
$$$$
