CNF.pdb
     RDKit          3D

 26 26  0  0  1  0  0  0  0  0999 V2000
    6.6511  -14.6963   19.1481 N   0  0  0  0  0  0  0  0  0  0  0  0
    7.7333  -14.3180   20.0654 C   0  0  1  0  0  0  0  0  0  0  0  0
    7.2825  -13.0040   20.6985 C   0  0  0  0  0  0  0  0  0  0  0  0
    8.6365  -12.4405   21.7685 S   0  0  0  0  0  0  0  0  0  0  0  0
    7.8649  -15.3285   21.1499 C   0  0  0  0  0  0  0  0  0  0  0  0
    6.8322  -15.8891   21.6270 O   0  0  0  0  0  0  0  0  0  0  0  0
   11.0497  -18.2592   19.6585 N   0  0  0  0  0  0  0  0  0  0  0  0
   10.2708  -18.3635   20.8487 C   0  0  0  0  0  0  0  0  0  0  0  0
    9.3655  -19.2133   20.8735 O   0  0  0  0  0  0  0  0  0  0  0  0
   10.5312  -17.5045   21.9878 C   0  0  0  0  0  0  0  0  0  0  0  0
    9.3953  -16.7290   22.5478 C   0  0  2  0  0  0  0  0  0  0  0  0
    9.1739  -15.6196   21.6048 N   0  0  0  0  0  0  0  0  0  0  0  0
    9.5724  -16.1620   23.8830 C   0  0  0  0  0  0  0  0  0  0  0  0
   10.5209  -15.3252   24.0983 O   0  0  0  0  0  0  0  0  0  0  0  0
    8.7821  -16.4356   25.0281 N   0  0  0  0  0  0  0  0  0  0  0  0
    9.1690  -16.0738   26.3790 C   0  0  1  0  0  0  0  0  0  0  0  0
    8.0142  -15.5007   27.1304 C   0  0  0  0  0  0  0  0  0  0  0  0
    7.6096  -14.1772   26.6766 C   0  0  0  0  0  0  0  0  0  0  0  0
    8.4102  -13.0514   26.7963 C   0  0  0  0  0  0  0  0  0  0  0  0
    8.0155  -11.8094   26.3650 C   0  0  0  0  0  0  0  0  0  0  0  0
    6.7680  -11.6804   25.7882 C   0  0  0  0  0  0  0  0  0  0  0  0
    5.9312  -12.7836   25.6478 C   0  0  0  0  0  0  0  0  0  0  0  0
    6.3638  -14.0082   26.0922 C   0  0  0  0  0  0  0  0  0  0  0  0
    9.8127  -17.1597   27.1066 C   0  0  0  0  0  0  0  0  0  0  0  0
    9.9012  -18.4221   26.4992 O   0  0  0  0  0  0  0  0  0  0  0  0
   10.3103  -17.0775   28.2557 O   0  0  0  0  0  0  0  0  0  0  0  0
  2  1  1  6
  3  2  1  0
  3  4  1  0
  5  6  2  0
  5  2  1  0
  7  8  1  0
  8  9  2  0
  8 10  1  0
 11 10  1  6
 11 13  1  0
 11 12  1  0
 12  5  1  0
 13 15  1  0
 14 13  2  0
 15 16  1  0
 16 17  1  1
 17 18  1  0
 18 23  2  0
 19 20  2  0
 19 18  1  0
 20 21  1  0
 21 22  2  0
 23 22  1  0
 24 25  1  0
 24 16  1  0
 26 24  2  0
M  END
$$$$
