CNF.pdb
     RDKit          3D

 26 26  0  0  1  0  0  0  0  0999 V2000
    6.0489  -15.1121   20.2780 N   0  0  0  0  0  0  0  0  0  0  0  0
    7.4994  -14.9489   20.4370 C   0  0  1  0  0  0  0  0  0  0  0  0
    7.6964  -13.4945   20.8571 C   0  0  0  0  0  0  0  0  0  0  0  0
    6.8449  -13.2831   22.4465 S   0  0  0  0  0  0  0  0  0  0  0  0
    7.9967  -15.8163   21.5393 C   0  0  0  0  0  0  0  0  0  0  0  0
    7.1760  -16.4273   22.2887 O   0  0  0  0  0  0  0  0  0  0  0  0
   10.5232  -18.9956   20.6541 N   0  0  0  0  0  0  0  0  0  0  0  0
   11.5369  -18.0603   21.0172 C   0  0  0  0  0  0  0  0  0  0  0  0
   12.5790  -18.0472   20.3417 O   0  0  0  0  0  0  0  0  0  0  0  0
   11.3520  -17.1577   22.1372 C   0  0  0  0  0  0  0  0  0  0  0  0
    9.9668  -16.9190   22.6163 C   0  0  2  0  0  0  0  0  0  0  0  0
    9.4002  -15.9171   21.6976 N   0  0  0  0  0  0  0  0  0  0  0  0
    9.8129  -16.4218   23.9819 C   0  0  0  0  0  0  0  0  0  0  0  0
   10.5178  -15.4264   24.3798 O   0  0  0  0  0  0  0  0  0  0  0  0
    8.9328  -16.9295   24.9710 N   0  0  0  0  0  0  0  0  0  0  0  0
    8.9293  -16.4831   26.3517 C   0  0  1  0  0  0  0  0  0  0  0  0
    7.5718  -16.0165   26.7593 C   0  0  0  0  0  0  0  0  0  0  0  0
    7.3303  -14.6025   26.5070 C   0  0  0  0  0  0  0  0  0  0  0  0
    8.2208  -13.6008   26.8623 C   0  0  0  0  0  0  0  0  0  0  0  0
    7.9797  -12.2714   26.6192 C   0  0  0  0  0  0  0  0  0  0  0  0
    6.7996  -11.9217   25.9942 C   0  0  0  0  0  0  0  0  0  0  0  0
    5.8770  -12.8942   25.6199 C   0  0  0  0  0  0  0  0  0  0  0  0
    6.1563  -14.2125   25.8812 C   0  0  0  0  0  0  0  0  0  0  0  0
    9.4728  -17.4670   27.2788 C   0  0  0  0  0  0  0  0  0  0  0  0
    9.8345  -18.7315   26.7882 O   0  0  0  0  0  0  0  0  0  0  0  0
    9.6551  -17.2926   28.5081 O   0  0  0  0  0  0  0  0  0  0  0  0
  2  1  1  1
  3  2  1  0
  3  4  1  0
  5  6  2  0
  5  2  1  0
  7  8  1  0
  8  9  2  0
  8 10  1  0
 11 10  1  6
 11 13  1  0
 11 12  1  0
 12  5  1  0
 13 15  1  0
 14 13  2  0
 15 16  1  0
 16 17  1  1
 17 18  1  0
 18 23  2  0
 19 20  2  0
 19 18  1  0
 20 21  1  0
 21 22  2  0
 23 22  1  0
 24 25  1  0
 24 16  1  0
 26 24  2  0
M  END
$$$$
