CNF.pdb
     RDKit          3D

 26 26  0  0  1  0  0  0  0  0999 V2000
    7.0865  -14.4766   18.9738 N   0  0  0  0  0  0  0  0  0  0  0  0
    8.1893  -14.3691   19.9373 C   0  0  1  0  0  0  0  0  0  0  0  0
    8.0355  -12.9891   20.5718 C   0  0  0  0  0  0  0  0  0  0  0  0
    8.4954  -11.7711   19.3065 S   0  0  0  0  0  0  0  0  0  0  0  0
    8.0351  -15.3878   21.0111 C   0  0  0  0  0  0  0  0  0  0  0  0
    6.8783  -15.7518   21.3824 O   0  0  0  0  0  0  0  0  0  0  0  0
    8.9308  -19.8864   20.8253 N   0  0  0  0  0  0  0  0  0  0  0  0
    9.8468  -18.7947   20.7687 C   0  0  0  0  0  0  0  0  0  0  0  0
   10.3529  -18.5223   19.6678 O   0  0  0  0  0  0  0  0  0  0  0  0
   10.1723  -18.0321   21.9586 C   0  0  0  0  0  0  0  0  0  0  0  0
    9.1561  -17.0796   22.4735 C   0  0  2  0  0  0  0  0  0  0  0  0
    9.2220  -15.9124   21.5778 N   0  0  0  0  0  0  0  0  0  0  0  0
    9.3230  -16.6085   23.8467 C   0  0  0  0  0  0  0  0  0  0  0  0
   10.3088  -15.8421   24.1412 O   0  0  0  0  0  0  0  0  0  0  0  0
    8.4840  -16.9083   24.9499 N   0  0  0  0  0  0  0  0  0  0  0  0
    8.8051  -16.5649   26.3227 C   0  0  1  0  0  0  0  0  0  0  0  0
    7.6393  -15.9261   27.0005 C   0  0  0  0  0  0  0  0  0  0  0  0
    7.4487  -14.5237   26.6565 C   0  0  0  0  0  0  0  0  0  0  0  0
    8.3266  -13.5190   27.0343 C   0  0  0  0  0  0  0  0  0  0  0  0
    8.1340  -12.2006   26.7038 C   0  0  0  0  0  0  0  0  0  0  0  0
    7.0179  -11.8655   25.9638 C   0  0  0  0  0  0  0  0  0  0  0  0
    6.1103  -12.8414   25.5630 C   0  0  0  0  0  0  0  0  0  0  0  0
    6.3396  -14.1484   25.9143 C   0  0  0  0  0  0  0  0  0  0  0  0
    9.3402  -17.6830   27.0885 C   0  0  0  0  0  0  0  0  0  0  0  0
    9.8754  -17.4360   28.3625 O   0  0  0  0  0  0  0  0  0  0  0  0
    9.3719  -18.8798   26.7125 O   0  0  0  0  0  0  0  0  0  0  0  0
  2  1  1  6
  3  2  1  0
  3  4  1  0
  5  6  2  0
  5  2  1  0
  7  8  1  0
  8  9  2  0
  8 10  1  0
 11 10  1  6
 11 13  1  0
 11 12  1  0
 12  5  1  0
 13 15  1  0
 14 13  2  0
 15 16  1  0
 16 17  1  1
 17 18  1  0
 18 23  2  0
 19 20  2  0
 19 18  1  0
 20 21  1  0
 21 22  2  0
 23 22  1  0
 24 25  1  0
 24 16  1  0
 26 24  2  0
M  END
$$$$
