CNF.pdb
     RDKit          3D

 26 26  0  0  1  0  0  0  0  0999 V2000
    6.0094  -15.5680   19.0667 N   0  0  0  0  0  0  0  0  0  0  0  0
    7.2118  -15.6308   19.9069 C   0  0  1  0  0  0  0  0  0  0  0  0
    7.7612  -14.2066   19.9293 C   0  0  0  0  0  0  0  0  0  0  0  0
    8.5456  -13.9170   18.3179 S   0  0  0  0  0  0  0  0  0  0  0  0
    6.8463  -16.0037   21.3005 C   0  0  0  0  0  0  0  0  0  0  0  0
    5.8866  -15.4169   21.8860 O   0  0  0  0  0  0  0  0  0  0  0  0
    6.8576  -18.8950   25.7381 N   0  0  0  0  0  0  0  0  0  0  0  0
    6.8617  -19.5944   24.4951 C   0  0  0  0  0  0  0  0  0  0  0  0
    6.6845  -20.8233   24.5236 O   0  0  0  0  0  0  0  0  0  0  0  0
    7.0660  -18.8901   23.2439 C   0  0  0  0  0  0  0  0  0  0  0  0
    7.3176  -17.4277   23.3024 C   0  0  2  0  0  0  0  0  0  0  0  0
    7.6111  -17.0236   21.9169 N   0  0  0  0  0  0  0  0  0  0  0  0
    8.4191  -16.9767   24.1503 C   0  0  0  0  0  0  0  0  0  0  0  0
    9.6266  -17.2790   23.8392 O   0  0  0  0  0  0  0  0  0  0  0  0
    8.3113  -16.2042   25.3345 N   0  0  0  0  0  0  0  0  0  0  0  0
    9.4536  -15.7196   26.0868 C   0  0  1  0  0  0  0  0  0  0  0  0
    9.5497  -14.2323   26.0138 C   0  0  0  0  0  0  0  0  0  0  0  0
    8.3691  -13.5369   26.5077 C   0  0  0  0  0  0  0  0  0  0  0  0
    8.2740  -13.0073   27.7857 C   0  0  0  0  0  0  0  0  0  0  0  0
    7.1543  -12.3549   28.2386 C   0  0  0  0  0  0  0  0  0  0  0  0
    6.0800  -12.2225   27.3818 C   0  0  0  0  0  0  0  0  0  0  0  0
    6.1318  -12.7385   26.0903 C   0  0  0  0  0  0  0  0  0  0  0  0
    7.2703  -13.3842   25.6764 C   0  0  0  0  0  0  0  0  0  0  0  0
    9.4897  -16.2052   27.4601 C   0  0  0  0  0  0  0  0  0  0  0  0
    8.4470  -17.0279   27.9144 O   0  0  0  0  0  0  0  0  0  0  0  0
   10.3854  -15.9543   28.3024 O   0  0  0  0  0  0  0  0  0  0  0  0
  2  1  1  6
  3  2  1  0
  3  4  1  0
  5  6  2  0
  5  2  1  0
  7  8  1  0
  8  9  2  0
  8 10  1  0
 11 10  1  6
 11 13  1  0
 11 12  1  0
 12  5  1  0
 13 15  1  0
 14 13  2  0
 15 16  1  0
 16 17  1  1
 17 18  1  0
 18 23  2  0
 19 20  2  0
 19 18  1  0
 20 21  1  0
 21 22  2  0
 23 22  1  0
 24 25  1  0
 24 16  1  0
 26 24  2  0
M  END
$$$$
