CNF.pdb
     RDKit          3D

 26 26  0  0  1  0  0  0  0  0999 V2000
    7.2907  -14.0499   18.0069 N   0  0  0  0  0  0  0  0  0  0  0  0
    8.2139  -14.8700   18.8013 C   0  0  1  0  0  0  0  0  0  0  0  0
    9.5296  -14.0958   18.8142 C   0  0  0  0  0  0  0  0  0  0  0  0
    9.1863  -12.4824   19.5725 S   0  0  0  0  0  0  0  0  0  0  0  0
    7.7300  -14.9761   20.2046 C   0  0  0  0  0  0  0  0  0  0  0  0
    7.1804  -13.9805   20.7658 O   0  0  0  0  0  0  0  0  0  0  0  0
    6.5657  -19.7009   23.7483 N   0  0  0  0  0  0  0  0  0  0  0  0
    6.2156  -18.3734   23.3619 C   0  0  0  0  0  0  0  0  0  0  0  0
    5.4687  -17.7302   24.1175 O   0  0  0  0  0  0  0  0  0  0  0  0
    6.7174  -17.7990   22.1284 C   0  0  0  0  0  0  0  0  0  0  0  0
    7.3239  -16.4448   22.1884 C   0  0  2  0  0  0  0  0  0  0  0  0
    7.9136  -16.2189   20.8579 N   0  0  0  0  0  0  0  0  0  0  0  0
    8.3656  -16.2274   23.1900 C   0  0  0  0  0  0  0  0  0  0  0  0
    9.5425  -16.7005   22.9970 O   0  0  0  0  0  0  0  0  0  0  0  0
    8.2284  -15.5192   24.4107 N   0  0  0  0  0  0  0  0  0  0  0  0
    9.2820  -15.4124   25.4028 C   0  0  1  0  0  0  0  0  0  0  0  0
    9.4566  -13.9986   25.8470 C   0  0  0  0  0  0  0  0  0  0  0  0
    8.2156  -13.3403   26.2315 C   0  0  0  0  0  0  0  0  0  0  0  0
    7.0998  -13.2755   25.4108 C   0  0  0  0  0  0  0  0  0  0  0  0
    5.9365  -12.6507   25.7859 C   0  0  0  0  0  0  0  0  0  0  0  0
    5.8794  -12.0635   27.0339 C   0  0  0  0  0  0  0  0  0  0  0  0
    6.9756  -12.1044   27.8905 C   0  0  0  0  0  0  0  0  0  0  0  0
    8.1203  -12.7393   27.4772 C   0  0  0  0  0  0  0  0  0  0  0  0
    9.1125  -16.3239   26.5268 C   0  0  0  0  0  0  0  0  0  0  0  0
   10.1318  -16.4095   27.4881 O   0  0  0  0  0  0  0  0  0  0  0  0
    8.1177  -17.0620   26.7275 O   0  0  0  0  0  0  0  0  0  0  0  0
  2  1  1  6
  3  2  1  0
  3  4  1  0
  5  6  2  0
  5  2  1  0
  7  8  1  0
  8  9  2  0
  8 10  1  0
 11 10  1  6
 11 13  1  0
 11 12  1  0
 12  5  1  0
 13 15  1  0
 14 13  2  0
 15 16  1  0
 16 17  1  1
 17 18  1  0
 18 23  2  0
 19 20  2  0
 19 18  1  0
 20 21  1  0
 21 22  2  0
 23 22  1  0
 24 25  1  0
 24 16  1  0
 26 24  2  0
M  END
$$$$
