CNF.pdb
     RDKit          3D

 26 26  0  0  1  0  0  0  0  0999 V2000
    7.6451  -13.9586   17.8519 N   0  0  0  0  0  0  0  0  0  0  0  0
    8.3680  -13.7671   19.1155 C   0  0  1  0  0  0  0  0  0  0  0  0
    7.9158  -12.4045   19.6346 C   0  0  0  0  0  0  0  0  0  0  0  0
    8.7794  -12.1244   21.2067 S   0  0  0  0  0  0  0  0  0  0  0  0
    7.9528  -14.7967   20.1065 C   0  0  0  0  0  0  0  0  0  0  0  0
    6.7474  -15.1882   20.1512 O   0  0  0  0  0  0  0  0  0  0  0  0
    7.8551  -19.6524   21.6450 N   0  0  0  0  0  0  0  0  0  0  0  0
    9.0341  -18.8958   21.9127 C   0  0  0  0  0  0  0  0  0  0  0  0
    9.8570  -19.3725   22.7115 O   0  0  0  0  0  0  0  0  0  0  0  0
    9.2596  -17.6147   21.2714 C   0  0  0  0  0  0  0  0  0  0  0  0
    8.6451  -16.4113   21.8873 C   0  0  2  0  0  0  0  0  0  0  0  0
    8.9543  -15.2999   20.9719 N   0  0  0  0  0  0  0  0  0  0  0  0
    9.1055  -16.0408   23.2239 C   0  0  0  0  0  0  0  0  0  0  0  0
   10.2864  -15.5643   23.3807 O   0  0  0  0  0  0  0  0  0  0  0  0
    8.3681  -16.1466   24.4304 N   0  0  0  0  0  0  0  0  0  0  0  0
    8.9350  -15.9071   25.7445 C   0  0  1  0  0  0  0  0  0  0  0  0
    7.8852  -15.4602   26.7061 C   0  0  0  0  0  0  0  0  0  0  0  0
    7.3475  -14.1363   26.4240 C   0  0  0  0  0  0  0  0  0  0  0  0
    6.1235  -13.9251   25.8076 C   0  0  0  0  0  0  0  0  0  0  0  0
    5.6292  -12.6712   25.5467 C   0  0  0  0  0  0  0  0  0  0  0  0
    6.3861  -11.5773   25.9156 C   0  0  0  0  0  0  0  0  0  0  0  0
    7.6205  -11.7426   26.5368 C   0  0  0  0  0  0  0  0  0  0  0  0
    8.0787  -13.0135   26.7797 C   0  0  0  0  0  0  0  0  0  0  0  0
    9.7044  -17.0337   26.2563 C   0  0  0  0  0  0  0  0  0  0  0  0
   10.5251  -16.8385   27.3783 O   0  0  0  0  0  0  0  0  0  0  0  0
    9.7074  -18.1949   25.7808 O   0  0  0  0  0  0  0  0  0  0  0  0
  2  1  1  6
  3  2  1  0
  3  4  1  0
  5  6  2  0
  5  2  1  0
  7  8  1  0
  8  9  2  0
  8 10  1  0
 11 10  1  6
 11 13  1  0
 11 12  1  0
 12  5  1  0
 13 15  1  0
 14 13  2  0
 15 16  1  0
 16 17  1  1
 17 18  1  0
 18 23  2  0
 19 20  2  0
 19 18  1  0
 20 21  1  0
 21 22  2  0
 23 22  1  0
 24 25  1  0
 24 16  1  0
 26 24  2  0
M  END
$$$$
