CNF.pdb
     RDKit          3D

 26 26  0  0  1  0  0  0  0  0999 V2000
    7.8272  -14.8891   17.5902 N   0  0  0  0  0  0  0  0  0  0  0  0
    8.4859  -14.5321   18.8529 C   0  0  1  0  0  0  0  0  0  0  0  0
    7.7893  -13.2576   19.3232 C   0  0  0  0  0  0  0  0  0  0  0  0
    8.4781  -11.8886   18.3500 S   0  0  0  0  0  0  0  0  0  0  0  0
    8.2480  -15.5886   19.8737 C   0  0  0  0  0  0  0  0  0  0  0  0
    7.4116  -16.5149   19.6486 O   0  0  0  0  0  0  0  0  0  0  0  0
    8.3225  -19.9411   21.8127 N   0  0  0  0  0  0  0  0  0  0  0  0
    9.4563  -19.0855   21.9415 C   0  0  0  0  0  0  0  0  0  0  0  0
   10.4076  -19.4877   22.6313 O   0  0  0  0  0  0  0  0  0  0  0  0
    9.4923  -17.7917   21.2872 C   0  0  0  0  0  0  0  0  0  0  0  0
    8.9705  -16.6197   22.0352 C   0  0  2  0  0  0  0  0  0  0  0  0
    8.9896  -15.5016   21.0768 N   0  0  0  0  0  0  0  0  0  0  0  0
    9.7102  -16.2095   23.2269 C   0  0  0  0  0  0  0  0  0  0  0  0
   10.9702  -15.9810   23.1464 O   0  0  0  0  0  0  0  0  0  0  0  0
    9.1781  -16.0210   24.5276 N   0  0  0  0  0  0  0  0  0  0  0  0
    9.9701  -15.6023   25.6691 C   0  0  1  0  0  0  0  0  0  0  0  0
    9.8932  -14.1244   25.8598 C   0  0  0  0  0  0  0  0  0  0  0  0
    8.5479  -13.6288   26.1161 C   0  0  0  0  0  0  0  0  0  0  0  0
    8.1367  -13.1375   27.3459 C   0  0  0  0  0  0  0  0  0  0  0  0
    6.8647  -12.6743   27.5737 C   0  0  0  0  0  0  0  0  0  0  0  0
    5.9600  -12.7004   26.5314 C   0  0  0  0  0  0  0  0  0  0  0  0
    6.3294  -13.1849   25.2801 C   0  0  0  0  0  0  0  0  0  0  0  0
    7.6114  -13.6390   25.0939 C   0  0  0  0  0  0  0  0  0  0  0  0
    9.6538  -16.3306   26.8908 C   0  0  0  0  0  0  0  0  0  0  0  0
    8.6649  -17.3259   26.8483 O   0  0  0  0  0  0  0  0  0  0  0  0
   10.1922  -16.1520   28.0101 O   0  0  0  0  0  0  0  0  0  0  0  0
  2  1  1  6
  3  2  1  0
  3  4  1  0
  5  6  2  0
  5  2  1  0
  7  8  1  0
  8  9  2  0
  8 10  1  0
 11 10  1  6
 11 13  1  0
 11 12  1  0
 12  5  1  0
 13 15  1  0
 14 13  2  0
 15 16  1  0
 16 17  1  1
 17 18  1  0
 18 23  2  0
 19 20  2  0
 19 18  1  0
 20 21  1  0
 21 22  2  0
 23 22  1  0
 24 25  1  0
 24 16  1  0
 26 24  2  0
M  END
$$$$
