CNF.pdb
     RDKit          3D

 26 26  0  0  1  0  0  0  0  0999 V2000
    7.3321  -16.1166   19.4656 N   0  0  0  0  0  0  0  0  0  0  0  0
    8.2977  -15.4898   20.3771 C   0  0  1  0  0  0  0  0  0  0  0  0
    7.4795  -14.5163   21.2218 C   0  0  0  0  0  0  0  0  0  0  0  0
    8.6256  -13.7466   22.4006 S   0  0  0  0  0  0  0  0  0  0  0  0
    8.8811  -16.5107   21.2893 C   0  0  0  0  0  0  0  0  0  0  0  0
    8.1229  -17.2363   22.0014 O   0  0  0  0  0  0  0  0  0  0  0  0
   12.2773  -19.8306   23.4125 N   0  0  0  0  0  0  0  0  0  0  0  0
   12.4483  -19.5635   22.0220 C   0  0  0  0  0  0  0  0  0  0  0  0
   13.1644  -20.3400   21.3688 O   0  0  0  0  0  0  0  0  0  0  0  0
   11.8056  -18.4233   21.3973 C   0  0  0  0  0  0  0  0  0  0  0  0
   10.9399  -17.5633   22.2436 C   0  0  2  0  0  0  0  0  0  0  0  0
   10.2926  -16.6218   21.3144 N   0  0  0  0  0  0  0  0  0  0  0  0
   11.5975  -16.7868   23.2925 C   0  0  0  0  0  0  0  0  0  0  0  0
   12.5972  -16.0384   22.9982 O   0  0  0  0  0  0  0  0  0  0  0  0
   11.2463  -16.7557   24.6660 N   0  0  0  0  0  0  0  0  0  0  0  0
   12.1841  -16.4508   25.7305 C   0  0  1  0  0  0  0  0  0  0  0  0
   12.1076  -15.0107   26.1140 C   0  0  0  0  0  0  0  0  0  0  0  0
   10.8695  -14.6412   26.7863 C   0  0  0  0  0  0  0  0  0  0  0  0
    9.6707  -14.4367   26.1200 C   0  0  0  0  0  0  0  0  0  0  0  0
    8.5112  -14.0876   26.7665 C   0  0  0  0  0  0  0  0  0  0  0  0
    8.5446  -13.9348   28.1380 C   0  0  0  0  0  0  0  0  0  0  0  0
    9.7259  -14.1302   28.8474 C   0  0  0  0  0  0  0  0  0  0  0  0
   10.8637  -14.4786   28.1631 C   0  0  0  0  0  0  0  0  0  0  0  0
   12.0576  -17.3332   26.8830 C   0  0  0  0  0  0  0  0  0  0  0  0
   10.9402  -18.1786   26.9684 O   0  0  0  0  0  0  0  0  0  0  0  0
   12.8708  -17.4156   27.8351 O   0  0  0  0  0  0  0  0  0  0  0  0
  2  1  1  6
  3  2  1  0
  3  4  1  0
  5  6  2  0
  5  2  1  0
  7  8  1  0
  8  9  2  0
  8 10  1  0
 11 10  1  6
 11 13  1  0
 11 12  1  0
 12  5  1  0
 13 15  1  0
 14 13  2  0
 15 16  1  0
 16 17  1  1
 17 18  1  0
 18 23  2  0
 19 20  2  0
 19 18  1  0
 20 21  1  0
 21 22  2  0
 23 22  1  0
 24 25  1  0
 24 16  1  0
 26 24  2  0
M  END
$$$$
