CNF.pdb
     RDKit          3D

 26 26  0  0  1  0  0  0  0  0999 V2000
    7.5153  -14.9061   17.9487 N   0  0  0  0  0  0  0  0  0  0  0  0
    8.3112  -14.5359   19.1258 C   0  0  1  0  0  0  0  0  0  0  0  0
    7.7987  -13.1589   19.5404 C   0  0  0  0  0  0  0  0  0  0  0  0
    8.6346  -11.9430   18.4827 S   0  0  0  0  0  0  0  0  0  0  0  0
    8.0449  -15.4806   20.2444 C   0  0  0  0  0  0  0  0  0  0  0  0
    6.8542  -15.7058   20.6182 O   0  0  0  0  0  0  0  0  0  0  0  0
   11.5864  -18.5124   20.2285 N   0  0  0  0  0  0  0  0  0  0  0  0
   10.9447  -18.4605   21.5011 C   0  0  0  0  0  0  0  0  0  0  0  0
   11.6592  -18.5574   22.5123 O   0  0  0  0  0  0  0  0  0  0  0  0
    9.5071  -18.2998   21.6053 C   0  0  0  0  0  0  0  0  0  0  0  0
    8.9841  -16.9729   22.0188 C   0  0  2  0  0  0  0  0  0  0  0  0
    9.1673  -16.0964   20.8495 N   0  0  0  0  0  0  0  0  0  0  0  0
    9.6230  -16.3361   23.1685 C   0  0  0  0  0  0  0  0  0  0  0  0
   10.7980  -15.8354   23.0470 O   0  0  0  0  0  0  0  0  0  0  0  0
    9.0740  -16.1945   24.4682 N   0  0  0  0  0  0  0  0  0  0  0  0
    9.8339  -15.7418   25.6186 C   0  0  1  0  0  0  0  0  0  0  0  0
    9.9417  -14.2536   25.6360 C   0  0  0  0  0  0  0  0  0  0  0  0
    8.6805  -13.5707   25.8901 C   0  0  0  0  0  0  0  0  0  0  0  0
    8.3546  -12.9986   27.1104 C   0  0  0  0  0  0  0  0  0  0  0  0
    7.1614  -12.3585   27.3363 C   0  0  0  0  0  0  0  0  0  0  0  0
    6.2505  -12.2835   26.3018 C   0  0  0  0  0  0  0  0  0  0  0  0
    6.5358  -12.8437   25.0601 C   0  0  0  0  0  0  0  0  0  0  0  0
    7.7406  -13.4750   24.8755 C   0  0  0  0  0  0  0  0  0  0  0  0
    9.3394  -16.2711   26.8829 C   0  0  0  0  0  0  0  0  0  0  0  0
   10.0884  -16.0480   28.0489 O   0  0  0  0  0  0  0  0  0  0  0  0
    8.2803  -16.9259   27.0386 O   0  0  0  0  0  0  0  0  0  0  0  0
  2  1  1  6
  3  2  1  0
  3  4  1  0
  5  6  2  0
  5  2  1  0
  7  8  1  0
  8  9  2  0
  8 10  1  0
 11 10  1  6
 11 13  1  0
 11 12  1  0
 12  5  1  0
 13 15  1  0
 14 13  2  0
 15 16  1  0
 16 17  1  1
 17 18  1  0
 18 23  2  0
 19 20  2  0
 19 18  1  0
 20 21  1  0
 21 22  2  0
 23 22  1  0
 24 25  1  0
 24 16  1  0
 26 24  2  0
M  END
$$$$
