AQF.pdb
     RDKit          3D

 26 26  0  0  1  0  0  0  0  0999 V2000
   21.2239  -11.2785  -19.2168 C   0  0  0  0  0  0  0  0  0  0  0  0
   20.9681  -10.9385  -17.7642 C   0  0  2  0  0  0  0  0  0  0  0  0
   19.7160  -11.5394  -17.3596 N   0  0  0  0  0  0  0  0  0  0  0  0
   20.9328   -9.4496  -17.6640 C   0  0  0  0  0  0  0  0  0  0  0  0
   21.9981   -8.8645  -17.8527 O   0  0  0  0  0  0  0  0  0  0  0  0
   17.0165   -5.6149  -19.9131 N   0  0  0  0  0  0  0  0  0  0  0  0
   17.5930   -4.6582  -19.0373 C   0  0  0  0  0  0  0  0  0  0  0  0
   17.4081   -3.4471  -19.2140 O   0  0  0  0  0  0  0  0  0  0  0  0
   18.4248   -5.2009  -17.9056 C   0  0  0  0  0  0  0  0  0  0  0  0
   18.4305   -6.7065  -17.9914 C   0  0  0  0  0  0  0  0  0  0  0  0
   19.6254   -7.3268  -17.3088 C   0  0  2  0  0  0  0  0  0  0  0  0
   19.7551   -8.7326  -17.3706 N   0  0  0  0  0  0  0  0  0  0  0  0
   20.0608   -6.6647  -16.0773 C   0  0  0  0  0  0  0  0  0  0  0  0
   19.4914   -6.8395  -14.9562 O   0  0  0  0  0  0  0  0  0  0  0  0
   21.1739   -5.7561  -16.0279 N   0  0  0  0  0  0  0  0  0  0  0  0
   21.6804   -5.1941  -14.7896 C   0  0  1  0  0  0  0  0  0  0  0  0
   23.1456   -5.5353  -14.7186 C   0  0  0  0  0  0  0  0  0  0  0  0
   23.4240   -6.9852  -14.6739 C   0  0  0  0  0  0  0  0  0  0  0  0
   22.8037   -7.8535  -13.8020 C   0  0  0  0  0  0  0  0  0  0  0  0
   23.0964   -9.2201  -13.7935 C   0  0  0  0  0  0  0  0  0  0  0  0
   24.0194   -9.7258  -14.6659 C   0  0  0  0  0  0  0  0  0  0  0  0
   24.6497   -8.8807  -15.5430 C   0  0  0  0  0  0  0  0  0  0  0  0
   24.3597   -7.5365  -15.5491 C   0  0  0  0  0  0  0  0  0  0  0  0
   21.3962   -3.7672  -14.6548 C   0  0  0  0  0  0  0  0  0  0  0  0
   20.8631   -3.1056  -15.5856 O   0  0  0  0  0  0  0  0  0  0  0  0
   21.7009   -3.0761  -13.4932 O   0  0  0  0  0  0  0  0  0  0  0  0
  2  1  1  6
  3  2  1  0
  4  5  2  0
  4  2  1  0
  6  7  1  0
  7  9  1  0
  8  7  2  0
  9 10  1  0
 11 10  1  1
 11 12  1  0
 12  4  1  0
 13 11  1  0
 14 13  2  0
 15 13  1  0
 16 24  1  0
 16 15  1  0
 17 18  1  0
 16 17  1  6
 18 19  2  0
 19 20  1  0
 21 20  2  0
 22 21  1  0
 23 18  1  0
 23 22  2  0
 24 26  1  0
 25 24  2  0
M  END
$$$$
