AQF.pdb
     RDKit          3D

 26 26  0  0  1  0  0  0  0  0999 V2000
   29.8128  -24.5800  -16.3425 C   0  0  0  0  0  0  0  0  0  0  0  0
   28.7616  -24.1029  -17.3215 C   0  0  2  0  0  0  0  0  0  0  0  0
   29.4135  -23.7261  -18.5566 N   0  0  0  0  0  0  0  0  0  0  0  0
   28.0622  -22.9490  -16.6830 C   0  0  0  0  0  0  0  0  0  0  0  0
   28.7739  -22.0164  -16.3130 O   0  0  0  0  0  0  0  0  0  0  0  0
   22.0380  -20.4128  -17.5001 N   0  0  0  0  0  0  0  0  0  0  0  0
   23.0865  -19.5457  -17.0956 C   0  0  0  0  0  0  0  0  0  0  0  0
   23.1475  -18.3856  -17.5225 O   0  0  0  0  0  0  0  0  0  0  0  0
   24.0959  -20.1170  -16.1355 C   0  0  0  0  0  0  0  0  0  0  0  0
   24.8711  -21.2014  -16.8409 C   0  0  0  0  0  0  0  0  0  0  0  0
   25.9217  -21.8354  -15.9619 C   0  0  2  0  0  0  0  0  0  0  0  0
   26.6646  -22.9086  -16.5037 N   0  0  0  0  0  0  0  0  0  0  0  0
   25.5967  -21.8950  -14.5353 C   0  0  0  0  0  0  0  0  0  0  0  0
   24.9066  -22.8269  -14.0186 O   0  0  0  0  0  0  0  0  0  0  0  0
   26.0309  -20.9018  -13.5908 N   0  0  0  0  0  0  0  0  0  0  0  0
   25.6632  -20.9323  -12.1873 C   0  0  1  0  0  0  0  0  0  0  0  0
   26.7996  -20.3078  -11.4213 C   0  0  0  0  0  0  0  0  0  0  0  0
   26.5768  -20.2412   -9.9627 C   0  0  0  0  0  0  0  0  0  0  0  0
   26.3183  -19.0700   -9.2843 C   0  0  0  0  0  0  0  0  0  0  0  0
   26.1125  -19.0516   -7.9021 C   0  0  0  0  0  0  0  0  0  0  0  0
   26.1653  -20.2165   -7.1886 C   0  0  0  0  0  0  0  0  0  0  0  0
   26.4211  -21.3945   -7.8423 C   0  0  0  0  0  0  0  0  0  0  0  0
   26.6233  -21.4097   -9.2024 C   0  0  0  0  0  0  0  0  0  0  0  0
   24.3634  -20.3178  -11.9269 C   0  0  0  0  0  0  0  0  0  0  0  0
   23.9774  -19.2919  -12.5489 O   0  0  0  0  0  0  0  0  0  0  0  0
   23.4945  -20.8380  -10.9813 O   0  0  0  0  0  0  0  0  0  0  0  0
  2  1  1  1
  3  2  1  0
  4  5  2  0
  4  2  1  0
  6  7  1  0
  7  9  1  0
  8  7  2  0
  9 10  1  0
 11 10  1  6
 11 12  1  0
 12  4  1  0
 13 11  1  0
 14 13  2  0
 15 13  1  0
 16 24  1  0
 16 15  1  0
 17 18  1  0
 16 17  1  1
 18 19  2  0
 19 20  1  0
 21 20  2  0
 22 21  1  0
 23 18  1  0
 23 22  2  0
 24 26  1  0
 25 24  2  0
M  END
$$$$
