AQF.pdb
     RDKit          3D

 26 26  0  0  1  0  0  0  0  0999 V2000
   14.9450   -8.0789  -20.7082 C   0  0  0  0  0  0  0  0  0  0  0  0
   16.4530   -8.1640  -20.8081 C   0  0  2  0  0  0  0  0  0  0  0  0
   16.8012   -9.3081  -21.6218 N   0  0  0  0  0  0  0  0  0  0  0  0
   16.9764   -8.2872  -19.4157 C   0  0  0  0  0  0  0  0  0  0  0  0
   16.7813   -7.3268  -18.6723 O   0  0  0  0  0  0  0  0  0  0  0  0
   17.9062  -13.5482  -15.9254 N   0  0  0  0  0  0  0  0  0  0  0  0
   17.8175  -12.4438  -15.0381 C   0  0  0  0  0  0  0  0  0  0  0  0
   17.4047  -12.5942  -13.8810 O   0  0  0  0  0  0  0  0  0  0  0  0
   18.2487  -11.1087  -15.5845 C   0  0  0  0  0  0  0  0  0  0  0  0
   17.7779  -10.9984  -17.0130 C   0  0  0  0  0  0  0  0  0  0  0  0
   18.1079   -9.6638  -17.6361 C   0  0  2  0  0  0  0  0  0  0  0  0
   17.6596   -9.4313  -18.9560 N   0  0  0  0  0  0  0  0  0  0  0  0
   19.4020   -9.0939  -17.2553 C   0  0  0  0  0  0  0  0  0  0  0  0
   20.4803   -9.3420  -17.8776 O   0  0  0  0  0  0  0  0  0  0  0  0
   19.5672   -8.2010  -16.1406 N   0  0  0  0  0  0  0  0  0  0  0  0
   20.8335   -7.5728  -15.8127 C   0  0  1  0  0  0  0  0  0  0  0  0
   21.1678   -6.6389  -16.9459 C   0  0  0  0  0  0  0  0  0  0  0  0
   22.4014   -5.8546  -16.7350 C   0  0  0  0  0  0  0  0  0  0  0  0
   23.6691   -6.3773  -16.8708 C   0  0  0  0  0  0  0  0  0  0  0  0
   24.8111   -5.5990  -16.6625 C   0  0  0  0  0  0  0  0  0  0  0  0
   24.6859   -4.2830  -16.3144 C   0  0  0  0  0  0  0  0  0  0  0  0
   23.4342   -3.7407  -16.1734 C   0  0  0  0  0  0  0  0  0  0  0  0
   22.3123   -4.5089  -16.3789 C   0  0  0  0  0  0  0  0  0  0  0  0
   20.8274   -6.9334  -14.4989 C   0  0  0  0  0  0  0  0  0  0  0  0
   21.8470   -6.3537  -14.0378 O   0  0  0  0  0  0  0  0  0  0  0  0
   19.6958   -6.9358  -13.6992 O   0  0  0  0  0  0  0  0  0  0  0  0
  2  1  1  1
  3  2  1  0
  4  5  2  0
  4  2  1  0
  6  7  1  0
  7  9  1  0
  8  7  2  0
  9 10  1  0
 11 10  1  6
 11 12  1  0
 12  4  1  0
 13 11  1  0
 14 13  2  0
 15 13  1  0
 16 24  1  0
 16 15  1  0
 17 18  1  0
 16 17  1  6
 18 19  2  0
 19 20  1  0
 21 20  2  0
 22 21  1  0
 23 18  1  0
 23 22  2  0
 24 26  1  0
 25 24  2  0
M  END
$$$$
