AQF.pdb
     RDKit          3D

 26 26  0  0  1  0  0  0  0  0999 V2000
   16.5516  -11.4550  -14.5758 C   0  0  0  0  0  0  0  0  0  0  0  0
   15.7869  -10.3144  -15.2126 C   0  0  2  0  0  0  0  0  0  0  0  0
   14.8826  -10.8566  -16.2029 N   0  0  0  0  0  0  0  0  0  0  0  0
   16.7963   -9.3969  -15.8189 C   0  0  0  0  0  0  0  0  0  0  0  0
   17.1349   -9.6456  -16.9750 O   0  0  0  0  0  0  0  0  0  0  0  0
   16.2909   -5.4491  -19.3980 N   0  0  0  0  0  0  0  0  0  0  0  0
   16.3627   -5.0522  -18.0371 C   0  0  0  0  0  0  0  0  0  0  0  0
   16.3733   -3.8537  -17.7279 O   0  0  0  0  0  0  0  0  0  0  0  0
   16.4236   -6.1591  -17.0183 C   0  0  0  0  0  0  0  0  0  0  0  0
   17.8236   -6.7194  -16.9994 C   0  0  0  0  0  0  0  0  0  0  0  0
   18.1987   -7.3111  -15.6624 C   0  0  2  0  0  0  0  0  0  0  0  0
   17.3448   -8.3000  -15.1239 N   0  0  0  0  0  0  0  0  0  0  0  0
   18.8351   -6.3871  -14.7212 C   0  0  0  0  0  0  0  0  0  0  0  0
   18.1941   -5.7609  -13.8221 O   0  0  0  0  0  0  0  0  0  0  0  0
   20.2451   -6.1063  -14.7315 N   0  0  0  0  0  0  0  0  0  0  0  0
   20.8663   -5.1487  -13.8355 C   0  0  1  0  0  0  0  0  0  0  0  0
   21.8107   -5.9210  -12.9524 C   0  0  0  0  0  0  0  0  0  0  0  0
   22.6501   -6.8964  -13.6774 C   0  0  0  0  0  0  0  0  0  0  0  0
   23.5485   -6.5454  -14.6614 C   0  0  0  0  0  0  0  0  0  0  0  0
   24.3247   -7.5012  -15.3226 C   0  0  0  0  0  0  0  0  0  0  0  0
   24.2024   -8.8234  -14.9975 C   0  0  0  0  0  0  0  0  0  0  0  0
   23.3145   -9.1966  -14.0213 C   0  0  0  0  0  0  0  0  0  0  0  0
   22.5520   -8.2540  -13.3723 C   0  0  0  0  0  0  0  0  0  0  0  0
   21.4924   -4.0331  -14.5414 C   0  0  0  0  0  0  0  0  0  0  0  0
   21.6413   -4.0388  -15.7929 O   0  0  0  0  0  0  0  0  0  0  0  0
   21.9514   -2.9152  -13.8636 O   0  0  0  0  0  0  0  0  0  0  0  0
  2  1  1  6
  3  2  1  0
  4  5  2  0
  4  2  1  0
  6  7  1  0
  7  9  1  0
  8  7  2  0
  9 10  1  0
 11 10  1  6
 11 12  1  0
 12  4  1  0
 13 11  1  0
 14 13  2  0
 15 13  1  0
 16 24  1  0
 16 15  1  0
 17 18  1  0
 16 17  1  6
 18 19  2  0
 19 20  1  0
 21 20  2  0
 22 21  1  0
 23 18  1  0
 23 22  2  0
 24 26  1  0
 25 24  2  0
M  END
$$$$
