AQF.pdb
     RDKit          3D

 26 26  0  0  1  0  0  0  0  0999 V2000
   27.1834  -19.3609  -16.0620 C   0  0  0  0  0  0  0  0  0  0  0  0
   27.4364  -20.4671  -15.0603 C   0  0  2  0  0  0  0  0  0  0  0  0
   26.8905  -21.7007  -15.5823 N   0  0  0  0  0  0  0  0  0  0  0  0
   26.7781  -20.0594  -13.7841 C   0  0  0  0  0  0  0  0  0  0  0  0
   27.1244  -18.9772  -13.3128 O   0  0  0  0  0  0  0  0  0  0  0  0
   21.0392  -20.8047  -11.8598 N   0  0  0  0  0  0  0  0  0  0  0  0
   21.5430  -20.3360  -13.1012 C   0  0  0  0  0  0  0  0  0  0  0  0
   20.7738  -20.0431  -14.0256 O   0  0  0  0  0  0  0  0  0  0  0  0
   23.0398  -20.2212  -13.2168 C   0  0  0  0  0  0  0  0  0  0  0  0
   23.6557  -20.6079  -11.8956 C   0  0  0  0  0  0  0  0  0  0  0  0
   25.1641  -20.5568  -11.9161 C   0  0  2  0  0  0  0  0  0  0  0  0
   25.8104  -20.8544  -13.1371 N   0  0  0  0  0  0  0  0  0  0  0  0
   25.8255  -20.9876  -10.6826 C   0  0  0  0  0  0  0  0  0  0  0  0
   25.9138  -22.2040  -10.3304 O   0  0  0  0  0  0  0  0  0  0  0  0
   26.4348  -20.0698   -9.7588 N   0  0  0  0  0  0  0  0  0  0  0  0
   26.8030  -20.4399   -8.4048 C   0  0  1  0  0  0  0  0  0  0  0  0
   27.8283  -19.4399   -7.9390 C   0  0  0  0  0  0  0  0  0  0  0  0
   28.3234  -19.6802   -6.5683 C   0  0  0  0  0  0  0  0  0  0  0  0
   29.1182  -20.7514   -6.2223 C   0  0  0  0  0  0  0  0  0  0  0  0
   29.5660  -20.9411   -4.9120 C   0  0  0  0  0  0  0  0  0  0  0  0
   29.2160  -20.0508   -3.9355 C   0  0  0  0  0  0  0  0  0  0  0  0
   28.4256  -18.9770   -4.2563 C   0  0  0  0  0  0  0  0  0  0  0  0
   27.9865  -18.7928   -5.5463 C   0  0  0  0  0  0  0  0  0  0  0  0
   25.6499  -20.5652   -7.5163 C   0  0  0  0  0  0  0  0  0  0  0  0
   24.6224  -19.8490   -7.6569 O   0  0  0  0  0  0  0  0  0  0  0  0
   25.6348  -21.4807   -6.4764 O   0  0  0  0  0  0  0  0  0  0  0  0
  2  1  1  6
  3  2  1  0
  4  5  2  0
  4  2  1  0
  6  7  1  0
  7  9  1  0
  8  7  2  0
  9 10  1  0
 11 10  1  6
 11 12  1  0
 12  4  1  0
 13 11  1  0
 14 13  2  0
 15 13  1  0
 16 24  1  0
 16 15  1  0
 17 18  1  0
 16 17  1  1
 18 19  2  0
 19 20  1  0
 21 20  2  0
 22 21  1  0
 23 18  1  0
 23 22  2  0
 24 26  1  0
 25 24  2  0
M  END
$$$$
