AQF.pdb
     RDKit          3D

 26 26  0  0  1  0  0  0  0  0999 V2000
   26.4734  -19.0944  -17.3076 C   0  0  0  0  0  0  0  0  0  0  0  0
   25.9672  -20.4308  -16.8086 C   0  0  2  0  0  0  0  0  0  0  0  0
   24.8790  -20.8624  -17.6583 N   0  0  0  0  0  0  0  0  0  0  0  0
   25.5291  -20.2317  -15.3956 C   0  0  0  0  0  0  0  0  0  0  0  0
   25.7317  -19.1186  -14.9131 O   0  0  0  0  0  0  0  0  0  0  0  0
   19.8250  -20.7547  -12.9667 N   0  0  0  0  0  0  0  0  0  0  0  0
   20.6776  -21.6294  -13.6896 C   0  0  0  0  0  0  0  0  0  0  0  0
   20.3002  -22.7666  -13.9999 O   0  0  0  0  0  0  0  0  0  0  0  0
   22.0397  -21.0954  -14.0455 C   0  0  0  0  0  0  0  0  0  0  0  0
   23.0342  -21.5970  -13.0288 C   0  0  0  0  0  0  0  0  0  0  0  0
   24.4427  -21.1329  -13.3101 C   0  0  2  0  0  0  0  0  0  0  0  0
   24.9151  -21.2488  -14.6369 N   0  0  0  0  0  0  0  0  0  0  0  0
   25.4068  -21.3573  -12.2309 C   0  0  0  0  0  0  0  0  0  0  0  0
   26.0201  -22.4563  -12.0650 O   0  0  0  0  0  0  0  0  0  0  0  0
   25.7454  -20.3512  -11.2612 N   0  0  0  0  0  0  0  0  0  0  0  0
   26.2358  -20.6679   -9.9327 C   0  0  1  0  0  0  0  0  0  0  0  0
   27.2687  -19.6283   -9.5857 C   0  0  0  0  0  0  0  0  0  0  0  0
   27.8108  -19.7523   -8.2173 C   0  0  0  0  0  0  0  0  0  0  0  0
   28.7521  -20.6903   -7.8529 C   0  0  0  0  0  0  0  0  0  0  0  0
   29.2394  -20.7728   -6.5457 C   0  0  0  0  0  0  0  0  0  0  0  0
   28.7814  -19.9084   -5.5907 C   0  0  0  0  0  0  0  0  0  0  0  0
   27.8444  -18.9663   -5.9301 C   0  0  0  0  0  0  0  0  0  0  0  0
   27.3667  -18.8874   -7.2171 C   0  0  0  0  0  0  0  0  0  0  0  0
   25.1650  -20.7930   -8.9465 C   0  0  0  0  0  0  0  0  0  0  0  0
   24.1021  -20.1212   -9.0316 O   0  0  0  0  0  0  0  0  0  0  0  0
   25.2711  -21.6592   -7.8702 O   0  0  0  0  0  0  0  0  0  0  0  0
  2  1  1  6
  3  2  1  0
  4  5  2  0
  4  2  1  0
  6  7  1  0
  7  9  1  0
  8  7  2  0
  9 10  1  0
 11 10  1  1
 11 12  1  0
 12  4  1  0
 13 11  1  0
 14 13  2  0
 15 13  1  0
 16 24  1  0
 16 15  1  0
 17 18  1  0
 16 17  1  1
 18 19  2  0
 19 20  1  0
 21 20  2  0
 22 21  1  0
 23 18  1  0
 23 22  2  0
 24 26  1  0
 25 24  2  0
M  END
$$$$
