AQF.pdb
     RDKit          3D

 26 26  0  0  1  0  0  0  0  0999 V2000
   24.4290  -12.4853  -18.9629 C   0  0  0  0  0  0  0  0  0  0  0  0
   22.9506  -12.4583  -18.6394 C   0  0  2  0  0  0  0  0  0  0  0  0
   22.2313  -13.1376  -19.6947 N   0  0  0  0  0  0  0  0  0  0  0  0
   22.5548  -11.0235  -18.5258 C   0  0  0  0  0  0  0  0  0  0  0  0
   23.1747  -10.2289  -19.2310 O   0  0  0  0  0  0  0  0  0  0  0  0
   17.0604   -8.8360  -18.8034 N   0  0  0  0  0  0  0  0  0  0  0  0
   17.6782   -7.5961  -18.4938 C   0  0  0  0  0  0  0  0  0  0  0  0
   17.0406   -6.5375  -18.5629 O   0  0  0  0  0  0  0  0  0  0  0  0
   19.1263   -7.6523  -18.0854 C   0  0  0  0  0  0  0  0  0  0  0  0
   19.5972   -9.0821  -18.1771 C   0  0  0  0  0  0  0  0  0  0  0  0
   20.9843   -9.2782  -17.6151 C   0  0  2  0  0  0  0  0  0  0  0  0
   21.5302  -10.5807  -17.6648 N   0  0  0  0  0  0  0  0  0  0  0  0
   21.3136   -8.4550  -16.4496 C   0  0  0  0  0  0  0  0  0  0  0  0
   20.9846   -8.7670  -15.2638 O   0  0  0  0  0  0  0  0  0  0  0  0
   22.0400   -7.2180  -16.5443 N   0  0  0  0  0  0  0  0  0  0  0  0
   22.4213   -6.4350  -15.3835 C   0  0  1  0  0  0  0  0  0  0  0  0
   23.9199   -6.2907  -15.4232 C   0  0  0  0  0  0  0  0  0  0  0  0
   24.6478   -7.5758  -15.4359 C   0  0  0  0  0  0  0  0  0  0  0  0
   24.4417   -8.5772  -14.5121 C   0  0  0  0  0  0  0  0  0  0  0  0
   25.1523   -9.7797  -14.5610 C   0  0  0  0  0  0  0  0  0  0  0  0
   26.0798   -9.9848  -15.5441 C   0  0  0  0  0  0  0  0  0  0  0  0
   26.3020   -9.0023  -16.4747 C   0  0  0  0  0  0  0  0  0  0  0  0
   25.6014   -7.8201  -16.4241 C   0  0  0  0  0  0  0  0  0  0  0  0
   21.7049   -5.1646  -15.2946 C   0  0  0  0  0  0  0  0  0  0  0  0
   21.8418   -4.3928  -14.3078 O   0  0  0  0  0  0  0  0  0  0  0  0
   20.8405   -4.7508  -16.2953 O   0  0  0  0  0  0  0  0  0  0  0  0
  2  1  1  6
  3  2  1  0
  4  5  2  0
  4  2  1  0
  6  7  1  0
  7  9  1  0
  8  7  2  0
  9 10  1  0
 11 10  1  1
 11 12  1  0
 12  4  1  0
 13 11  1  0
 14 13  2  0
 15 13  1  0
 16 24  1  0
 16 15  1  0
 17 18  1  0
 16 17  1  6
 18 19  2  0
 19 20  1  0
 21 20  2  0
 22 21  1  0
 23 18  1  0
 23 22  2  0
 24 26  1  0
 25 24  2  0
M  END
$$$$
