AQF.pdb
     RDKit          3D

 26 26  0  0  1  0  0  0  0  0999 V2000
   27.7594  -17.6763  -15.6689 C   0  0  0  0  0  0  0  0  0  0  0  0
   28.4055  -18.6647  -14.7220 C   0  0  2  0  0  0  0  0  0  0  0  0
   28.5871  -19.9215  -15.4147 N   0  0  0  0  0  0  0  0  0  0  0  0
   27.4968  -18.8001  -13.5455 C   0  0  0  0  0  0  0  0  0  0  0  0
   27.2046  -17.7591  -12.9589 O   0  0  0  0  0  0  0  0  0  0  0  0
   22.2645  -21.7618  -12.4444 N   0  0  0  0  0  0  0  0  0  0  0  0
   23.2544  -22.6465  -12.9465 C   0  0  0  0  0  0  0  0  0  0  0  0
   22.9585  -23.7999  -13.2844 O   0  0  0  0  0  0  0  0  0  0  0  0
   24.6552  -22.1022  -13.0388 C   0  0  0  0  0  0  0  0  0  0  0  0
   24.6673  -20.7055  -12.4699 C   0  0  0  0  0  0  0  0  0  0  0  0
   26.0503  -20.2463  -12.0764 C   0  0  2  0  0  0  0  0  0  0  0  0
   26.9893  -20.0419  -13.1126 N   0  0  0  0  0  0  0  0  0  0  0  0
   26.5534  -20.7786  -10.8083 C   0  0  0  0  0  0  0  0  0  0  0  0
   27.6535  -21.4037  -10.7052 O   0  0  0  0  0  0  0  0  0  0  0  0
   25.8452  -20.6405   -9.5648 N   0  0  0  0  0  0  0  0  0  0  0  0
   26.4591  -20.8916   -8.2741 C   0  0  1  0  0  0  0  0  0  0  0  0
   27.4919  -19.8163   -8.0616 C   0  0  0  0  0  0  0  0  0  0  0  0
   28.1325  -19.8521   -6.7312 C   0  0  0  0  0  0  0  0  0  0  0  0
   29.1184  -20.7502   -6.3845 C   0  0  0  0  0  0  0  0  0  0  0  0
   29.6992  -20.7492   -5.1133 C   0  0  0  0  0  0  0  0  0  0  0  0
   29.2908  -19.8406   -4.1771 C   0  0  0  0  0  0  0  0  0  0  0  0
   28.3109  -18.9369   -4.4994 C   0  0  0  0  0  0  0  0  0  0  0  0
   27.7412  -18.9402   -5.7510 C   0  0  0  0  0  0  0  0  0  0  0  0
   25.4832  -20.9993   -7.1920 C   0  0  0  0  0  0  0  0  0  0  0  0
   25.7942  -21.4596   -6.0608 O   0  0  0  0  0  0  0  0  0  0  0  0
   24.1679  -20.5981   -7.3622 O   0  0  0  0  0  0  0  0  0  0  0  0
  2  1  1  6
  3  2  1  0
  4  5  2  0
  4  2  1  0
  6  7  1  0
  7  9  1  0
  8  7  2  0
  9 10  1  0
 11 10  1  6
 11 12  1  0
 12  4  1  0
 13 11  1  0
 14 13  2  0
 15 13  1  0
 16 24  1  0
 16 15  1  0
 17 18  1  0
 16 17  1  1
 18 19  2  0
 19 20  1  0
 21 20  2  0
 22 21  1  0
 23 18  1  0
 23 22  2  0
 24 26  1  0
 25 24  2  0
M  END
$$$$
