AQF.pdb
     RDKit          3D

 26 26  0  0  1  0  0  0  0  0999 V2000
   44.0348   -7.9323  -11.8363 C   0  0  0  0  0  0  0  0  0  0  0  0
   44.4272   -9.1566  -11.0373 C   0  0  2  0  0  0  0  0  0  0  0  0
   44.3921  -10.3110  -11.9083 N   0  0  0  0  0  0  0  0  0  0  0  0
   43.4531   -9.2742   -9.9124 C   0  0  0  0  0  0  0  0  0  0  0  0
   42.3099   -9.6138  -10.2136 O   0  0  0  0  0  0  0  0  0  0  0  0
   44.3749  -10.5365   -3.9078 N   0  0  0  0  0  0  0  0  0  0  0  0
   42.9992  -10.1940   -3.8393 C   0  0  0  0  0  0  0  0  0  0  0  0
   42.3416  -10.4204   -2.8155 O   0  0  0  0  0  0  0  0  0  0  0  0
   42.4064   -9.5522   -5.0656 C   0  0  0  0  0  0  0  0  0  0  0  0
   43.4539   -9.5279   -6.1503 C   0  0  0  0  0  0  0  0  0  0  0  0
   42.9227   -9.0098   -7.4648 C   0  0  2  0  0  0  0  0  0  0  0  0
   43.8018   -9.0154   -8.5713 N   0  0  0  0  0  0  0  0  0  0  0  0
   41.9725   -7.9000   -7.3663 C   0  0  0  0  0  0  0  0  0  0  0  0
   42.2848   -6.6944   -7.6125 O   0  0  0  0  0  0  0  0  0  0  0  0
   40.5986   -8.0769   -6.9814 N   0  0  0  0  0  0  0  0  0  0  0  0
   39.6800   -6.9682   -6.8003 C   0  0  1  0  0  0  0  0  0  0  0  0
   38.3206   -7.5615   -6.5393 C   0  0  0  0  0  0  0  0  0  0  0  0
   37.2660   -6.5594   -6.2837 C   0  0  0  0  0  0  0  0  0  0  0  0
   36.6553   -5.8257   -7.2774 C   0  0  0  0  0  0  0  0  0  0  0  0
   35.6600   -4.8871   -6.9916 C   0  0  0  0  0  0  0  0  0  0  0  0
   35.2698   -4.6785   -5.6981 C   0  0  0  0  0  0  0  0  0  0  0  0
   35.8636   -5.3971   -4.6923 C   0  0  0  0  0  0  0  0  0  0  0  0
   36.8426   -6.3200   -4.9764 C   0  0  0  0  0  0  0  0  0  0  0  0
   40.1225   -6.0251   -5.7757 C   0  0  0  0  0  0  0  0  0  0  0  0
   39.8963   -4.7888   -5.8690 O   0  0  0  0  0  0  0  0  0  0  0  0
   40.8126   -6.4501   -4.6519 O   0  0  0  0  0  0  0  0  0  0  0  0
  2  1  1  6
  3  2  1  0
  4  5  2  0
  4  2  1  0
  6  7  1  0
  7  9  1  0
  8  7  2  0
  9 10  1  0
 11 10  1  1
 11 12  1  0
 12  4  1  0
 13 11  1  0
 14 13  2  0
 15 13  1  0
 16 24  1  0
 16 15  1  0
 17 18  1  0
 16 17  1  1
 18 19  2  0
 19 20  1  0
 21 20  2  0
 22 21  1  0
 23 18  1  0
 23 22  2  0
 24 26  1  0
 25 24  2  0
M  END
$$$$
