AQF.pdb
     RDKit          3D

 26 26  0  0  1  0  0  0  0  0999 V2000
   26.7612  -13.0456  -18.7439 C   0  0  0  0  0  0  0  0  0  0  0  0
   25.7989  -12.8320  -19.8926 C   0  0  2  0  0  0  0  0  0  0  0  0
   26.5562  -12.4846  -21.0750 N   0  0  0  0  0  0  0  0  0  0  0  0
   24.8669  -11.7399  -19.4838 C   0  0  0  0  0  0  0  0  0  0  0  0
   25.3367  -10.6035  -19.4557 O   0  0  0  0  0  0  0  0  0  0  0  0
   19.0291  -11.9958  -17.5351 N   0  0  0  0  0  0  0  0  0  0  0  0
   19.0588  -10.6062  -17.8228 C   0  0  0  0  0  0  0  0  0  0  0  0
   18.1481   -9.8614  -17.4381 O   0  0  0  0  0  0  0  0  0  0  0  0
   20.2433  -10.1095  -18.6083 C   0  0  0  0  0  0  0  0  0  0  0  0
   21.1251  -11.2857  -18.9450 C   0  0  0  0  0  0  0  0  0  0  0  0
   22.5884  -11.0090  -18.6988 C   0  0  2  0  0  0  0  0  0  0  0  0
   23.5189  -11.9747  -19.1446 N   0  0  0  0  0  0  0  0  0  0  0  0
   22.8949  -10.3051  -17.4518 C   0  0  0  0  0  0  0  0  0  0  0  0
   23.2662  -10.8984  -16.3927 O   0  0  0  0  0  0  0  0  0  0  0  0
   22.8026   -8.8769  -17.3154 N   0  0  0  0  0  0  0  0  0  0  0  0
   23.0387   -8.1863  -16.0612 C   0  0  1  0  0  0  0  0  0  0  0  0
   24.4282   -7.6097  -16.1314 C   0  0  0  0  0  0  0  0  0  0  0  0
   25.5030   -8.6203  -16.0618 C   0  0  0  0  0  0  0  0  0  0  0  0
   25.5044   -9.6707  -15.1699 C   0  0  0  0  0  0  0  0  0  0  0  0
   26.5422  -10.6063  -15.1381 C   0  0  0  0  0  0  0  0  0  0  0  0
   27.5912  -10.4918  -16.0072 C   0  0  0  0  0  0  0  0  0  0  0  0
   27.6115   -9.4544  -16.9039 C   0  0  0  0  0  0  0  0  0  0  0  0
   26.5890   -8.5353  -16.9330 C   0  0  0  0  0  0  0  0  0  0  0  0
   22.0033   -7.2034  -15.7499 C   0  0  0  0  0  0  0  0  0  0  0  0
   22.0209   -6.5364  -14.6808 O   0  0  0  0  0  0  0  0  0  0  0  0
   20.9528   -6.9600  -16.6200 O   0  0  0  0  0  0  0  0  0  0  0  0
  2  1  1  1
  3  2  1  0
  4  5  2  0
  4  2  1  0
  6  7  1  0
  7  9  1  0
  8  7  2  0
  9 10  1  0
 11 10  1  1
 11 12  1  0
 12  4  1  0
 13 11  1  0
 14 13  2  0
 15 13  1  0
 16 24  1  0
 16 15  1  0
 17 18  1  0
 16 17  1  6
 18 19  2  0
 19 20  1  0
 21 20  2  0
 22 21  1  0
 23 18  1  0
 23 22  2  0
 24 26  1  0
 25 24  2  0
M  END
$$$$
