AQF.pdb
     RDKit          3D

 26 26  0  0  1  0  0  0  0  0999 V2000
   24.9324  -10.1989  -14.8833 C   0  0  0  0  0  0  0  0  0  0  0  0
   23.8318  -10.7116  -15.7871 C   0  0  2  0  0  0  0  0  0  0  0  0
   24.4134  -11.1003  -17.0532 N   0  0  0  0  0  0  0  0  0  0  0  0
   22.8427   -9.6044  -15.9418 C   0  0  0  0  0  0  0  0  0  0  0  0
   23.1680   -8.6822  -16.6880 O   0  0  0  0  0  0  0  0  0  0  0  0
   16.7595   -9.6683  -16.2644 N   0  0  0  0  0  0  0  0  0  0  0  0
   16.8776   -8.2875  -15.9577 C   0  0  0  0  0  0  0  0  0  0  0  0
   15.8828   -7.5511  -15.9645 O   0  0  0  0  0  0  0  0  0  0  0  0
   18.2604   -7.7893  -15.6311 C   0  0  0  0  0  0  0  0  0  0  0  0
   19.2146   -8.9564  -15.6716 C   0  0  0  0  0  0  0  0  0  0  0  0
   20.6319   -8.5653  -15.3298 C   0  0  2  0  0  0  0  0  0  0  0  0
   21.5986   -9.5949  -15.2791 N   0  0  0  0  0  0  0  0  0  0  0  0
   20.7680   -7.4672  -14.3706 C   0  0  0  0  0  0  0  0  0  0  0  0
   20.8221   -7.6447  -13.1148 O   0  0  0  0  0  0  0  0  0  0  0  0
   20.8527   -6.0875  -14.7662 N   0  0  0  0  0  0  0  0  0  0  0  0
   20.9574   -4.9978  -13.8138 C   0  0  1  0  0  0  0  0  0  0  0  0
   22.4223   -4.6797  -13.6686 C   0  0  0  0  0  0  0  0  0  0  0  0
   23.0405   -4.1222  -14.8887 C   0  0  0  0  0  0  0  0  0  0  0  0
   23.6508   -4.8933  -15.8540 C   0  0  0  0  0  0  0  0  0  0  0  0
   24.2234   -4.3246  -16.9951 C   0  0  0  0  0  0  0  0  0  0  0  0
   24.1862   -2.9700  -17.1746 C   0  0  0  0  0  0  0  0  0  0  0  0
   23.5840   -2.1822  -16.2272 C   0  0  0  0  0  0  0  0  0  0  0  0
   23.0215   -2.7444  -15.1054 C   0  0  0  0  0  0  0  0  0  0  0  0
   20.1331   -3.8465  -14.1745 C   0  0  0  0  0  0  0  0  0  0  0  0
   19.5370   -3.7778  -15.2828 O   0  0  0  0  0  0  0  0  0  0  0  0
   19.9694   -2.7757  -13.3106 O   0  0  0  0  0  0  0  0  0  0  0  0
  2  1  1  1
  3  2  1  0
  4  5  2  0
  4  2  1  0
  6  7  1  0
  7  9  1  0
  8  7  2  0
  9 10  1  0
 11 10  1  1
 11 12  1  0
 12  4  1  0
 13 11  1  0
 14 13  2  0
 15 13  1  0
 16 24  1  0
 16 15  1  0
 17 18  1  0
 16 17  1  6
 18 19  2  0
 19 20  1  0
 21 20  2  0
 22 21  1  0
 23 18  1  0
 23 22  2  0
 24 26  1  0
 25 24  2  0
M  END
$$$$
