AQF.pdb
     RDKit          3D

 26 26  0  0  1  0  0  0  0  0999 V2000
   27.7244  -18.7744  -16.1561 C   0  0  0  0  0  0  0  0  0  0  0  0
   27.8606  -19.8931  -15.1455 C   0  0  2  0  0  0  0  0  0  0  0  0
   27.3283  -21.1081  -15.7225 N   0  0  0  0  0  0  0  0  0  0  0  0
   27.1065  -19.4748  -13.9271 C   0  0  0  0  0  0  0  0  0  0  0  0
   27.2069  -18.2927  -13.6022 O   0  0  0  0  0  0  0  0  0  0  0  0
   21.8905  -21.1325  -11.3557 N   0  0  0  0  0  0  0  0  0  0  0  0
   22.2746  -21.5479  -12.6574 C   0  0  0  0  0  0  0  0  0  0  0  0
   21.6191  -22.4025  -13.2674 O   0  0  0  0  0  0  0  0  0  0  0  0
   23.5032  -20.8958  -13.2339 C   0  0  0  0  0  0  0  0  0  0  0  0
   24.0502  -19.9205  -12.2220 C   0  0  0  0  0  0  0  0  0  0  0  0
   25.5431  -20.0453  -12.0371 C   0  0  2  0  0  0  0  0  0  0  0  0
   26.3167  -20.3678  -13.1749 N   0  0  0  0  0  0  0  0  0  0  0  0
   25.9741  -20.5989  -10.7517 C   0  0  0  0  0  0  0  0  0  0  0  0
   26.0326  -21.8451  -10.5170 O   0  0  0  0  0  0  0  0  0  0  0  0
   26.3702  -19.7792   -9.6390 N   0  0  0  0  0  0  0  0  0  0  0  0
   26.7279  -20.3257   -8.3432 C   0  0  1  0  0  0  0  0  0  0  0  0
   27.5614  -19.2856   -7.6420 C   0  0  0  0  0  0  0  0  0  0  0  0
   27.9881  -19.6734   -6.2822 C   0  0  0  0  0  0  0  0  0  0  0  0
   27.3843  -19.2105   -5.1333 C   0  0  0  0  0  0  0  0  0  0  0  0
   27.8196  -19.6038   -3.8648 C   0  0  0  0  0  0  0  0  0  0  0  0
   28.8703  -20.4696   -3.7418 C   0  0  0  0  0  0  0  0  0  0  0  0
   29.4870  -20.9436   -4.8713 C   0  0  0  0  0  0  0  0  0  0  0  0
   29.0566  -20.5549   -6.1182 C   0  0  0  0  0  0  0  0  0  0  0  0
   25.5680  -20.7731   -7.5753 C   0  0  0  0  0  0  0  0  0  0  0  0
   24.4244  -20.2723   -7.7474 O   0  0  0  0  0  0  0  0  0  0  0  0
   25.6746  -21.7718   -6.6208 O   0  0  0  0  0  0  0  0  0  0  0  0
  2  1  1  6
  3  2  1  0
  4  5  2  0
  4  2  1  0
  6  7  1  0
  7  9  1  0
  8  7  2  0
  9 10  1  0
 11 10  1  6
 11 12  1  0
 12  4  1  0
 13 11  1  0
 14 13  2  0
 15 13  1  0
 16 24  1  0
 16 15  1  0
 17 18  1  0
 16 17  1  1
 18 19  2  0
 19 20  1  0
 21 20  2  0
 22 21  1  0
 23 18  1  0
 23 22  2  0
 24 26  1  0
 25 24  2  0
M  END
$$$$
