AQF.pdb
     RDKit          3D

 26 26  0  0  1  0  0  0  0  0999 V2000
   28.0761  -18.8267  -16.6022 C   0  0  0  0  0  0  0  0  0  0  0  0
   28.2553  -20.3160  -16.8044 C   0  0  2  0  0  0  0  0  0  0  0  0
   28.7207  -20.5491  -18.1541 N   0  0  0  0  0  0  0  0  0  0  0  0
   26.9295  -20.9535  -16.5514 C   0  0  0  0  0  0  0  0  0  0  0  0
   25.9413  -20.3260  -16.9290 O   0  0  0  0  0  0  0  0  0  0  0  0
   25.5746  -26.9563  -16.0813 N   0  0  0  0  0  0  0  0  0  0  0  0
   25.1839  -26.2659  -17.2584 C   0  0  0  0  0  0  0  0  0  0  0  0
   24.8967  -26.8871  -18.2897 O   0  0  0  0  0  0  0  0  0  0  0  0
   25.1429  -24.7633  -17.1717 C   0  0  0  0  0  0  0  0  0  0  0  0
   25.5223  -24.3514  -15.7714 C   0  0  0  0  0  0  0  0  0  0  0  0
   25.5791  -22.8531  -15.5976 C   0  0  2  0  0  0  0  0  0  0  0  0
   26.7936  -22.2048  -15.9167 N   0  0  0  0  0  0  0  0  0  0  0  0
   24.8076  -22.3201  -14.4727 C   0  0  0  0  0  0  0  0  0  0  0  0
   25.2490  -22.2842  -13.2830 O   0  0  0  0  0  0  0  0  0  0  0  0
   23.4792  -21.7891  -14.6155 N   0  0  0  0  0  0  0  0  0  0  0  0
   22.7369  -21.2105  -13.5110 C   0  0  1  0  0  0  0  0  0  0  0  0
   23.5392  -20.0399  -13.0071 C   0  0  0  0  0  0  0  0  0  0  0  0
   24.3072  -20.3218  -11.7773 C   0  0  0  0  0  0  0  0  0  0  0  0
   23.7497  -20.3349  -10.5172 C   0  0  0  0  0  0  0  0  0  0  0  0
   24.5131  -20.6075   -9.3787 C   0  0  0  0  0  0  0  0  0  0  0  0
   25.8492  -20.8702   -9.4998 C   0  0  0  0  0  0  0  0  0  0  0  0
   26.4261  -20.8628  -10.7439 C   0  0  0  0  0  0  0  0  0  0  0  0
   25.6725  -20.5942  -11.8624 C   0  0  0  0  0  0  0  0  0  0  0  0
   21.3590  -20.8772  -13.8650 C   0  0  0  0  0  0  0  0  0  0  0  0
   20.5251  -20.4956  -13.0006 O   0  0  0  0  0  0  0  0  0  0  0  0
   20.9068  -20.9659  -15.1717 O   0  0  0  0  0  0  0  0  0  0  0  0
  2  1  1  6
  3  2  1  0
  4  5  2  0
  4  2  1  0
  6  7  1  0
  7  9  1  0
  8  7  2  0
  9 10  1  0
 11 10  1  1
 11 12  1  0
 12  4  1  0
 13 11  1  0
 14 13  2  0
 15 13  1  0
 16 24  1  0
 16 15  1  0
 17 18  1  0
 16 17  1  6
 18 19  2  0
 19 20  1  0
 21 20  2  0
 22 21  1  0
 23 18  1  0
 23 22  2  0
 24 26  1  0
 25 24  2  0
M  END
$$$$
