DYQ.pdb
     RDKit          3D

 30 30  0  0  1  0  0  0  0  0999 V2000
   27.4737  -24.8461  -17.4788 N   0  0  0  0  0  0  0  0  0  0  0  0
   26.8456  -23.5386  -17.4686 C   0  0  1  0  0  0  0  0  0  0  0  0
   25.9770  -23.4651  -18.7104 C   0  0  0  0  0  0  0  0  0  0  0  0
   26.8085  -23.3067  -19.9315 C   0  0  0  0  0  0  0  0  0  0  0  0
   27.5195  -22.2774  -20.1308 O   0  0  0  0  0  0  0  0  0  0  0  0
   26.0297  -23.4447  -16.2327 C   0  0  0  0  0  0  0  0  0  0  0  0
   25.4678  -24.4512  -15.7313 O   0  0  0  0  0  0  0  0  0  0  0  0
   26.8510  -24.2782  -20.9198 O   0  0  0  0  0  0  0  0  0  0  0  0
   23.0842  -20.0974   -8.5859 O   0  0  0  0  0  0  0  0  0  0  0  0
   23.7448  -20.2955   -9.8115 C   0  0  0  0  0  0  0  0  0  0  0  0
   23.1750  -19.8500  -10.9701 C   0  0  0  0  0  0  0  0  0  0  0  0
   23.8477  -20.0573  -12.1723 C   0  0  0  0  0  0  0  0  0  0  0  0
   25.0633  -20.6948  -12.2258 C   0  0  0  0  0  0  0  0  0  0  0  0
   25.7336  -20.8891  -13.5128 C   0  0  0  0  0  0  0  0  0  0  0  0
   25.1520  -22.0225  -14.3348 C   0  0  2  0  0  0  0  0  0  0  0  0
   25.8695  -22.1814  -15.5837 N   0  0  0  0  0  0  0  0  0  0  0  0
   23.6995  -21.8800  -14.5871 C   0  0  0  0  0  0  0  0  0  0  0  0
   23.3072  -21.0568  -15.4723 O   0  0  0  0  0  0  0  0  0  0  0  0
   25.6449  -21.1473  -11.0626 C   0  0  0  0  0  0  0  0  0  0  0  0
   24.9540  -20.9299   -9.8631 C   0  0  0  0  0  0  0  0  0  0  0  0
   19.3986  -26.2919  -13.9292 N   0  0  0  0  0  0  0  0  0  0  0  0
   18.5505  -25.1560  -13.9923 C   0  0  0  0  0  0  0  0  0  0  0  0
   17.2913  -25.3492  -14.0151 O   0  0  0  0  0  0  0  0  0  0  0  0
   19.1554  -23.8178  -14.0222 C   0  0  0  0  0  0  0  0  0  0  0  0
   20.6182  -23.7483  -13.9116 C   0  0  0  0  0  0  0  0  0  0  0  0
   21.2521  -22.3960  -14.0939 C   0  0  2  0  0  0  0  0  0  0  0  0
   22.7067  -22.6024  -13.9084 N   0  0  0  0  0  0  0  0  0  0  0  0
   20.7315  -21.2877  -13.3442 C   0  0  0  0  0  0  0  0  0  0  0  0
   19.8620  -20.3666  -13.8963 O   0  0  0  0  0  0  0  0  0  0  0  0
   21.0578  -21.1073  -12.1441 O   0  0  0  0  0  0  0  0  0  0  0  0
  2  1  1  1
  2  3  1  0
  3  4  1  0
  4  5  2  0
  6  2  1  0
  7  6  2  0
  8  4  1  0
  9 10  1  0
 10 20  2  0
 10 11  1  0
 11 12  2  0
 12 13  1  0
 13 14  1  0
 15 14  1  6
 15 16  1  0
 16  6  1  0
 17 15  1  0
 17 27  1  0
 18 17  2  0
 19 13  2  0
 20 19  1  0
 22 21  1  0
 23 22  2  0
 24 22  1  0
 25 24  1  0
 26 27  1  0
 26 25  1  1
 28 26  1  0
 29 28  1  0
 30 28  2  0
M  END
$$$$
