DYQ.pdb
     RDKit          3D

 30 30  0  0  1  0  0  0  0  0999 V2000
   28.7169   -7.0736  -19.4887 N   0  0  0  0  0  0  0  0  0  0  0  0
   29.6335   -7.4987  -20.5295 C   0  0  1  0  0  0  0  0  0  0  0  0
   30.6210   -6.3639  -20.7275 C   0  0  0  0  0  0  0  0  0  0  0  0
   30.0244   -5.2778  -21.5472 C   0  0  0  0  0  0  0  0  0  0  0  0
   28.7726   -5.0948  -21.6108 O   0  0  0  0  0  0  0  0  0  0  0  0
   30.3127   -8.7283  -20.0515 C   0  0  0  0  0  0  0  0  0  0  0  0
   31.2664   -9.2476  -20.6848 O   0  0  0  0  0  0  0  0  0  0  0  0
   30.8069   -4.4048  -22.2875 O   0  0  0  0  0  0  0  0  0  0  0  0
   35.0001   -7.1169  -15.4898 O   0  0  0  0  0  0  0  0  0  0  0  0
   33.9304   -7.9637  -15.8310 C   0  0  0  0  0  0  0  0  0  0  0  0
   34.1668   -9.2813  -16.1019 C   0  0  0  0  0  0  0  0  0  0  0  0
   33.0917  -10.1013  -16.4376 C   0  0  0  0  0  0  0  0  0  0  0  0
   31.8052   -9.6244  -16.5037 C   0  0  0  0  0  0  0  0  0  0  0  0
   30.7068  -10.5243  -16.8598 C   0  0  0  0  0  0  0  0  0  0  0  0
   30.4393  -10.5951  -18.3505 C   0  0  2  0  0  0  0  0  0  0  0  0
   29.8814   -9.3503  -18.8392 N   0  0  0  0  0  0  0  0  0  0  0  0
   29.5783  -11.7360  -18.7392 C   0  0  0  0  0  0  0  0  0  0  0  0
   28.4835  -11.9187  -18.1201 O   0  0  0  0  0  0  0  0  0  0  0  0
   31.5578   -8.2973  -16.2323 C   0  0  0  0  0  0  0  0  0  0  0  0
   32.6511   -7.4877  -15.8965 C   0  0  0  0  0  0  0  0  0  0  0  0
   25.2015  -12.8456  -21.1445 N   0  0  0  0  0  0  0  0  0  0  0  0
   25.6524  -14.1163  -21.5866 C   0  0  0  0  0  0  0  0  0  0  0  0
   24.7878  -14.9329  -22.0438 O   0  0  0  0  0  0  0  0  0  0  0  0
   27.0849  -14.4305  -21.5042 C   0  0  0  0  0  0  0  0  0  0  0  0
   27.9607  -13.3929  -20.9446 C   0  0  0  0  0  0  0  0  0  0  0  0
   29.0931  -13.8562  -20.0689 C   0  0  2  0  0  0  0  0  0  0  0  0
   29.8883  -12.6455  -19.7612 N   0  0  0  0  0  0  0  0  0  0  0  0
   29.8895  -14.9673  -20.5080 C   0  0  0  0  0  0  0  0  0  0  0  0
   31.1450  -14.8023  -21.0611 O   0  0  0  0  0  0  0  0  0  0  0  0
   29.4654  -16.1463  -20.4116 O   0  0  0  0  0  0  0  0  0  0  0  0
  2  1  1  1
  2  3  1  0
  3  4  1  0
  4  5  2  0
  6  2  1  0
  7  6  2  0
  8  4  1  0
  9 10  1  0
 10 20  2  0
 10 11  1  0
 11 12  2  0
 12 13  1  0
 13 14  1  0
 15 14  1  1
 15 16  1  0
 16  6  1  0
 17 15  1  0
 17 27  1  0
 18 17  2  0
 19 13  2  0
 20 19  1  0
 22 21  1  0
 23 22  2  0
 24 22  1  0
 25 24  1  0
 26 27  1  0
 26 25  1  6
 28 26  1  0
 29 28  1  0
 30 28  2  0
M  END
$$$$
