DYQ.pdb
     RDKit          3D

 30 30  0  0  1  0  0  0  0  0999 V2000
   16.2614  -27.2310  -13.5212 N   0  0  0  0  0  0  0  0  0  0  0  0
   16.3859  -28.5280  -12.8836 C   0  0  1  0  0  0  0  0  0  0  0  0
   17.1582  -29.4115  -13.8454 C   0  0  0  0  0  0  0  0  0  0  0  0
   16.2480  -30.0374  -14.8390 C   0  0  0  0  0  0  0  0  0  0  0  0
   15.0507  -29.6518  -14.9892 O   0  0  0  0  0  0  0  0  0  0  0  0
   17.1295  -28.3322  -11.6145 C   0  0  0  0  0  0  0  0  0  0  0  0
   17.6119  -29.2996  -10.9729 O   0  0  0  0  0  0  0  0  0  0  0  0
   16.6606  -31.0786  -15.6564 O   0  0  0  0  0  0  0  0  0  0  0  0
   22.8059  -28.8324  -13.6930 O   0  0  0  0  0  0  0  0  0  0  0  0
   21.9465  -28.1219  -12.8360 C   0  0  0  0  0  0  0  0  0  0  0  0
   21.9087  -28.4280  -11.5055 C   0  0  0  0  0  0  0  0  0  0  0  0
   21.0498  -27.7108  -10.6756 C   0  0  0  0  0  0  0  0  0  0  0  0
   20.2427  -26.7081  -11.1553 C   0  0  0  0  0  0  0  0  0  0  0  0
   19.3566  -25.9809  -10.2447 C   0  0  0  0  0  0  0  0  0  0  0  0
   18.0859  -26.7343   -9.9037 C   0  0  2  0  0  0  0  0  0  0  0  0
   17.3100  -27.0128  -11.0954 N   0  0  0  0  0  0  0  0  0  0  0  0
   17.2505  -26.0490   -8.8907 C   0  0  0  0  0  0  0  0  0  0  0  0
   16.2982  -25.3037   -9.2816 O   0  0  0  0  0  0  0  0  0  0  0  0
   20.2744  -26.3930  -12.4953 C   0  0  0  0  0  0  0  0  0  0  0  0
   21.1442  -27.1247  -13.3148 C   0  0  0  0  0  0  0  0  0  0  0  0
   18.4423  -26.5285   -2.7053 N   0  0  0  0  0  0  0  0  0  0  0  0
   17.7730  -27.5128   -3.4777 C   0  0  0  0  0  0  0  0  0  0  0  0
   17.6960  -28.6939   -3.0061 O   0  0  0  0  0  0  0  0  0  0  0  0
   17.1978  -27.1295   -4.7738 C   0  0  0  0  0  0  0  0  0  0  0  0
   17.3292  -25.7207   -5.1674 C   0  0  0  0  0  0  0  0  0  0  0  0
   16.7469  -25.3277   -6.4979 C   0  0  2  0  0  0  0  0  0  0  0  0
   17.4364  -26.1662   -7.5052 N   0  0  0  0  0  0  0  0  0  0  0  0
   16.7061  -23.9349   -6.8444 C   0  0  0  0  0  0  0  0  0  0  0  0
   17.7695  -23.2939   -7.4506 O   0  0  0  0  0  0  0  0  0  0  0  0
   15.6911  -23.2359   -6.5987 O   0  0  0  0  0  0  0  0  0  0  0  0
  2  1  1  6
  2  3  1  0
  3  4  1  0
  4  5  2  0
  6  2  1  0
  7  6  2  0
  8  4  1  0
  9 10  1  0
 10 20  2  0
 10 11  1  0
 11 12  2  0
 12 13  1  0
 13 14  1  0
 15 14  1  6
 15 16  1  0
 16  6  1  0
 17 15  1  0
 17 27  1  0
 18 17  2  0
 19 13  2  0
 20 19  1  0
 22 21  1  0
 23 22  2  0
 24 22  1  0
 25 24  1  0
 26 27  1  0
 26 25  1  1
 28 26  1  0
 29 28  1  0
 30 28  2  0
M  END
$$$$
