DYQ.pdb
     RDKit          3D

 30 30  0  0  1  0  0  0  0  0999 V2000
   29.0926  -22.6311  -17.6877 N   0  0  0  0  0  0  0  0  0  0  0  0
   28.4189  -21.4289  -17.2350 C   0  0  1  0  0  0  0  0  0  0  0  0
   27.3703  -21.0996  -18.2810 C   0  0  0  0  0  0  0  0  0  0  0  0
   28.0000  -20.5513  -19.5100 C   0  0  0  0  0  0  0  0  0  0  0  0
   29.0441  -19.8354  -19.4674 O   0  0  0  0  0  0  0  0  0  0  0  0
   27.7960  -21.7330  -15.9230 C   0  0  0  0  0  0  0  0  0  0  0  0
   27.2107  -22.8238  -15.7041 O   0  0  0  0  0  0  0  0  0  0  0  0
   27.4778  -20.7941  -20.7712 O   0  0  0  0  0  0  0  0  0  0  0  0
   25.0041  -20.2122   -7.6181 O   0  0  0  0  0  0  0  0  0  0  0  0
   25.6947  -20.1697   -8.8425 C   0  0  0  0  0  0  0  0  0  0  0  0
   25.2351  -19.3760   -9.8544 C   0  0  0  0  0  0  0  0  0  0  0  0
   25.9354  -19.3499  -11.0584 C   0  0  0  0  0  0  0  0  0  0  0  0
   27.0712  -20.0968  -11.2563 C   0  0  0  0  0  0  0  0  0  0  0  0
   27.7748  -20.0361  -12.5387 C   0  0  0  0  0  0  0  0  0  0  0  0
   27.1883  -20.9503  -13.5965 C   0  0  2  0  0  0  0  0  0  0  0  0
   27.8555  -20.7686  -14.8699 N   0  0  0  0  0  0  0  0  0  0  0  0
   25.7230  -20.8020  -13.7542 C   0  0  0  0  0  0  0  0  0  0  0  0
   25.2749  -19.8522  -14.4699 O   0  0  0  0  0  0  0  0  0  0  0  0
   27.5417  -20.8997  -10.2414 C   0  0  0  0  0  0  0  0  0  0  0  0
   26.8244  -20.9134   -9.0377 C   0  0  0  0  0  0  0  0  0  0  0  0
   22.0736  -25.4071  -14.9399 N   0  0  0  0  0  0  0  0  0  0  0  0
   21.0961  -24.3841  -14.8330 C   0  0  0  0  0  0  0  0  0  0  0  0
   19.9069  -24.6507  -15.2046 O   0  0  0  0  0  0  0  0  0  0  0  0
   21.4926  -23.0750  -14.2976 C   0  0  0  0  0  0  0  0  0  0  0  0
   22.9149  -22.8907  -13.9813 C   0  0  0  0  0  0  0  0  0  0  0  0
   23.3167  -21.5640  -13.3963 C   0  0  2  0  0  0  0  0  0  0  0  0
   24.7763  -21.6505  -13.1613 N   0  0  0  0  0  0  0  0  0  0  0  0
   22.5845  -21.0619  -12.2678 C   0  0  0  0  0  0  0  0  0  0  0  0
   21.3584  -20.4391  -12.4016 O   0  0  0  0  0  0  0  0  0  0  0  0
   23.0414  -21.1647  -11.1016 O   0  0  0  0  0  0  0  0  0  0  0  0
  2  1  1  6
  2  3  1  0
  3  4  1  0
  4  5  2  0
  6  2  1  0
  7  6  2  0
  8  4  1  0
  9 10  1  0
 10 20  2  0
 10 11  1  0
 11 12  2  0
 12 13  1  0
 13 14  1  0
 15 14  1  1
 15 16  1  0
 16  6  1  0
 17 15  1  0
 17 27  1  0
 18 17  2  0
 19 13  2  0
 20 19  1  0
 22 21  1  0
 23 22  2  0
 24 22  1  0
 25 24  1  0
 26 27  1  0
 26 25  1  1
 28 26  1  0
 29 28  1  0
 30 28  2  0
M  END
$$$$
