DYQ.pdb
     RDKit          3D

 30 30  0  0  1  0  0  0  0  0999 V2000
   20.5876   -8.3350  -18.1356 N   0  0  0  0  0  0  0  0  0  0  0  0
   20.5564   -9.7045  -17.6584 C   0  0  1  0  0  0  0  0  0  0  0  0
   21.9745  -10.0522  -17.2458 C   0  0  0  0  0  0  0  0  0  0  0  0
   22.8551  -10.1886  -18.4347 C   0  0  0  0  0  0  0  0  0  0  0  0
   24.1182  -10.1866  -18.3384 O   0  0  0  0  0  0  0  0  0  0  0  0
   19.6298   -9.7530  -16.5004 C   0  0  0  0  0  0  0  0  0  0  0  0
   19.7509  -10.6114  -15.5901 O   0  0  0  0  0  0  0  0  0  0  0  0
   22.3411  -10.3256  -19.7150 O   0  0  0  0  0  0  0  0  0  0  0  0
   22.6273   -6.2476  -11.9782 O   0  0  0  0  0  0  0  0  0  0  0  0
   21.4142   -6.5183  -12.6362 C   0  0  0  0  0  0  0  0  0  0  0  0
   21.1435   -5.9215  -13.8345 C   0  0  0  0  0  0  0  0  0  0  0  0
   19.9355   -6.2047  -14.4681 C   0  0  0  0  0  0  0  0  0  0  0  0
   19.0122   -7.0641  -13.9242 C   0  0  0  0  0  0  0  0  0  0  0  0
   17.7564   -7.3322  -14.6273 C   0  0  0  0  0  0  0  0  0  0  0  0
   17.6929   -8.7126  -15.2511 C   0  0  2  0  0  0  0  0  0  0  0  0
   18.5658   -8.8036  -16.4042 N   0  0  0  0  0  0  0  0  0  0  0  0
   16.3183   -9.1332  -15.6081 C   0  0  0  0  0  0  0  0  0  0  0  0
   15.7430   -8.5786  -16.5963 O   0  0  0  0  0  0  0  0  0  0  0  0
   19.2769   -7.6701  -12.7165 C   0  0  0  0  0  0  0  0  0  0  0  0
   20.4966   -7.3734  -12.0938 C   0  0  0  0  0  0  0  0  0  0  0  0
   13.6905  -14.5408  -13.7805 N   0  0  0  0  0  0  0  0  0  0  0  0
   12.5721  -13.9040  -14.3780 C   0  0  0  0  0  0  0  0  0  0  0  0
   11.4703  -14.5426  -14.4186 O   0  0  0  0  0  0  0  0  0  0  0  0
   12.7298  -12.5455  -14.9139 C   0  0  0  0  0  0  0  0  0  0  0  0
   14.0669  -11.9456  -14.8182 C   0  0  0  0  0  0  0  0  0  0  0  0
   14.2035  -10.5120  -15.2538 C   0  0  2  0  0  0  0  0  0  0  0  0
   15.5924  -10.1189  -14.9231 N   0  0  0  0  0  0  0  0  0  0  0  0
   13.2201   -9.5639  -14.8115 C   0  0  0  0  0  0  0  0  0  0  0  0
   11.9483   -9.5146  -15.3494 O   0  0  0  0  0  0  0  0  0  0  0  0
   13.4856   -8.7274  -13.9120 O   0  0  0  0  0  0  0  0  0  0  0  0
  2  1  1  1
  2  3  1  0
  3  4  1  0
  4  5  2  0
  6  2  1  0
  7  6  2  0
  8  4  1  0
  9 10  1  0
 10 20  2  0
 10 11  1  0
 11 12  2  0
 12 13  1  0
 13 14  1  0
 15 14  1  6
 15 16  1  0
 16  6  1  0
 17 15  1  0
 17 27  1  0
 18 17  2  0
 19 13  2  0
 20 19  1  0
 22 21  1  0
 23 22  2  0
 24 22  1  0
 25 24  1  0
 26 27  1  0
 26 25  1  1
 28 26  1  0
 29 28  1  0
 30 28  2  0
M  END
$$$$
