DYQ.pdb
     RDKit          3D

 30 30  0  0  1  0  0  0  0  0999 V2000
   27.4000  -23.5033  -17.5872 N   0  0  0  0  0  0  0  0  0  0  0  0
   27.0084  -22.1684  -17.1762 C   0  0  1  0  0  0  0  0  0  0  0  0
   26.2745  -21.5506  -18.3518 C   0  0  0  0  0  0  0  0  0  0  0  0
   27.2321  -21.0388  -19.3659 C   0  0  0  0  0  0  0  0  0  0  0  0
   28.4793  -20.9932  -19.1491 O   0  0  0  0  0  0  0  0  0  0  0  0
   26.1186  -22.3073  -15.9968 C   0  0  0  0  0  0  0  0  0  0  0  0
   25.3391  -23.2848  -15.8660 O   0  0  0  0  0  0  0  0  0  0  0  0
   26.8115  -20.5828  -20.6059 O   0  0  0  0  0  0  0  0  0  0  0  0
   22.5397  -20.5338   -8.0719 O   0  0  0  0  0  0  0  0  0  0  0  0
   23.3530  -20.5326   -9.2191 C   0  0  0  0  0  0  0  0  0  0  0  0
   24.5444  -21.2003   -9.2078 C   0  0  0  0  0  0  0  0  0  0  0  0
   25.3335  -21.1854  -10.3558 C   0  0  0  0  0  0  0  0  0  0  0  0
   24.9490  -20.5208  -11.4949 C   0  0  0  0  0  0  0  0  0  0  0  0
   25.8111  -20.5340  -12.6781 C   0  0  0  0  0  0  0  0  0  0  0  0
   25.2418  -21.3317  -13.8349 C   0  0  2  0  0  0  0  0  0  0  0  0
   26.1377  -21.3097  -14.9735 N   0  0  0  0  0  0  0  0  0  0  0  0
   23.8840  -20.8968  -14.2364 C   0  0  0  0  0  0  0  0  0  0  0  0
   23.7519  -19.8070  -14.8767 O   0  0  0  0  0  0  0  0  0  0  0  0
   23.7495  -19.8450  -11.5151 C   0  0  0  0  0  0  0  0  0  0  0  0
   22.9691  -19.8710  -10.3515 C   0  0  0  0  0  0  0  0  0  0  0  0
   19.8662  -23.6560  -17.4658 N   0  0  0  0  0  0  0  0  0  0  0  0
   19.0643  -22.5587  -17.0580 C   0  0  0  0  0  0  0  0  0  0  0  0
   17.9503  -22.3784  -17.6496 O   0  0  0  0  0  0  0  0  0  0  0  0
   19.5462  -21.6889  -15.9768 C   0  0  0  0  0  0  0  0  0  0  0  0
   20.8887  -21.9667  -15.4504 C   0  0  0  0  0  0  0  0  0  0  0  0
   21.3466  -21.1393  -14.2801 C   0  0  2  0  0  0  0  0  0  0  0  0
   22.7115  -21.6147  -13.9575 N   0  0  0  0  0  0  0  0  0  0  0  0
   20.4892  -21.0405  -13.1326 C   0  0  0  0  0  0  0  0  0  0  0  0
   19.5850  -20.0078  -12.9738 O   0  0  0  0  0  0  0  0  0  0  0  0
   20.5354  -21.8968  -12.2140 O   0  0  0  0  0  0  0  0  0  0  0  0
  2  1  1  6
  2  3  1  0
  3  4  1  0
  4  5  2  0
  6  2  1  0
  7  6  2  0
  8  4  1  0
  9 10  1  0
 10 20  2  0
 10 11  1  0
 11 12  2  0
 12 13  1  0
 13 14  1  0
 15 14  1  1
 15 16  1  0
 16  6  1  0
 17 15  1  0
 17 27  1  0
 18 17  2  0
 19 13  2  0
 20 19  1  0
 22 21  1  0
 23 22  2  0
 24 22  1  0
 25 24  1  0
 26 27  1  0
 26 25  1  6
 28 26  1  0
 29 28  1  0
 30 28  2  0
M  END
$$$$
