DYQ.pdb
     RDKit          3D

 30 30  0  0  1  0  0  0  0  0999 V2000
   40.6178   -6.3227   -6.8890 N   0  0  0  0  0  0  0  0  0  0  0  0
   41.6105   -6.7707   -7.8471 C   0  0  1  0  0  0  0  0  0  0  0  0
   42.8998   -6.0471   -7.5060 C   0  0  0  0  0  0  0  0  0  0  0  0
   42.7684   -4.5866   -7.7453 C   0  0  0  0  0  0  0  0  0  0  0  0
   42.7781   -3.7472   -6.7967 O   0  0  0  0  0  0  0  0  0  0  0  0
   41.7562   -8.2386   -7.6860 C   0  0  0  0  0  0  0  0  0  0  0  0
   41.7545   -8.7845   -6.5537 O   0  0  0  0  0  0  0  0  0  0  0  0
   42.6280   -4.0633   -9.0215 O   0  0  0  0  0  0  0  0  0  0  0  0
   42.4880  -16.5330  -10.9104 O   0  0  0  0  0  0  0  0  0  0  0  0
   42.1314  -15.2106  -10.5915 C   0  0  0  0  0  0  0  0  0  0  0  0
   42.3379  -14.2131  -11.5012 C   0  0  0  0  0  0  0  0  0  0  0  0
   41.9769  -12.9106  -11.1634 C   0  0  0  0  0  0  0  0  0  0  0  0
   41.4210  -12.6019   -9.9457 C   0  0  0  0  0  0  0  0  0  0  0  0
   41.0563  -11.2185   -9.6355 C   0  0  0  0  0  0  0  0  0  0  0  0
   42.0708  -10.5042   -8.7642 C   0  0  2  0  0  0  0  0  0  0  0  0
   41.9035   -9.0669   -8.8414 N   0  0  0  0  0  0  0  0  0  0  0  0
   43.4717  -10.8790   -9.0660 C   0  0  0  0  0  0  0  0  0  0  0  0
   44.0884  -10.2598   -9.9887 O   0  0  0  0  0  0  0  0  0  0  0  0
   41.2093  -13.6014   -9.0225 C   0  0  0  0  0  0  0  0  0  0  0  0
   41.5786  -14.9051   -9.3796 C   0  0  0  0  0  0  0  0  0  0  0  0
   49.1262  -15.1107   -6.5800 N   0  0  0  0  0  0  0  0  0  0  0  0
   47.8514  -14.4914   -6.5115 C   0  0  0  0  0  0  0  0  0  0  0  0
   47.1546  -14.6696   -5.4597 O   0  0  0  0  0  0  0  0  0  0  0  0
   47.3964  -13.6737   -7.6438 C   0  0  0  0  0  0  0  0  0  0  0  0
   46.0473  -13.1012   -7.5489 C   0  0  0  0  0  0  0  0  0  0  0  0
   45.5684  -12.2873   -8.7202 C   0  0  2  0  0  0  0  0  0  0  0  0
   44.1810  -11.8854   -8.3937 N   0  0  0  0  0  0  0  0  0  0  0  0
   45.7095  -12.8354  -10.0398 C   0  0  0  0  0  0  0  0  0  0  0  0
   46.8893  -12.7465  -10.7535 O   0  0  0  0  0  0  0  0  0  0  0  0
   44.7499  -13.4172  -10.6055 O   0  0  0  0  0  0  0  0  0  0  0  0
  2  1  1  1
  2  3  1  0
  3  4  1  0
  4  5  2  0
  6  2  1  0
  7  6  2  0
  8  4  1  0
  9 10  1  0
 10 20  2  0
 10 11  1  0
 11 12  2  0
 12 13  1  0
 13 14  1  0
 15 14  1  6
 15 16  1  0
 16  6  1  0
 17 15  1  0
 17 27  1  0
 18 17  2  0
 19 13  2  0
 20 19  1  0
 22 21  1  0
 23 22  2  0
 24 22  1  0
 25 24  1  0
 26 27  1  0
 26 25  1  1
 28 26  1  0
 29 28  1  0
 30 28  2  0
M  END
$$$$
