DYQ.pdb
     RDKit          3D

 30 30  0  0  1  0  0  0  0  0999 V2000
   24.5998  -18.5467  -18.9924 N   0  0  0  0  0  0  0  0  0  0  0  0
   25.4182  -17.6276  -18.2244 C   0  0  1  0  0  0  0  0  0  0  0  0
   26.2246  -16.8235  -19.2270 C   0  0  0  0  0  0  0  0  0  0  0  0
   27.1726  -17.6956  -19.9675 C   0  0  0  0  0  0  0  0  0  0  0  0
   27.8323  -18.6111  -19.3920 O   0  0  0  0  0  0  0  0  0  0  0  0
   24.5022  -16.7575  -17.4461 C   0  0  0  0  0  0  0  0  0  0  0  0
   24.8864  -15.6700  -16.9460 O   0  0  0  0  0  0  0  0  0  0  0  0
   27.3865  -17.5539  -21.3301 O   0  0  0  0  0  0  0  0  0  0  0  0
   17.8272  -11.6739  -15.5935 O   0  0  0  0  0  0  0  0  0  0  0  0
   18.8850  -12.4911  -16.0303 C   0  0  0  0  0  0  0  0  0  0  0  0
   18.7505  -13.2215  -17.1765 C   0  0  0  0  0  0  0  0  0  0  0  0
   19.8116  -14.0240  -17.5899 C   0  0  0  0  0  0  0  0  0  0  0  0
   20.9853  -14.1013  -16.8804 C   0  0  0  0  0  0  0  0  0  0  0  0
   22.0739  -14.9577  -17.3545 C   0  0  0  0  0  0  0  0  0  0  0  0
   22.1507  -16.2929  -16.6404 C   0  0  2  0  0  0  0  0  0  0  0  0
   23.1430  -17.1541  -17.2516 N   0  0  0  0  0  0  0  0  0  0  0  0
   20.8457  -16.9881  -16.5528 C   0  0  0  0  0  0  0  0  0  0  0  0
   20.3138  -17.4334  -17.6177 O   0  0  0  0  0  0  0  0  0  0  0  0
   21.1295  -13.3683  -15.7237 C   0  0  0  0  0  0  0  0  0  0  0  0
   20.0520  -12.5670  -15.3233 C   0  0  0  0  0  0  0  0  0  0  0  0
   19.0979  -20.5131  -11.8230 N   0  0  0  0  0  0  0  0  0  0  0  0
   17.8615  -20.4421  -12.5156 C   0  0  0  0  0  0  0  0  0  0  0  0
   16.9024  -21.1740  -12.1057 O   0  0  0  0  0  0  0  0  0  0  0  0
   17.7399  -19.5315  -13.6617 C   0  0  0  0  0  0  0  0  0  0  0  0
   18.9326  -18.7533  -14.0203 C   0  0  0  0  0  0  0  0  0  0  0  0
   18.8490  -17.9126  -15.2652 C   0  0  2  0  0  0  0  0  0  0  0  0
   20.1417  -17.1959  -15.3574 N   0  0  0  0  0  0  0  0  0  0  0  0
   17.7080  -17.0589  -15.4412 C   0  0  0  0  0  0  0  0  0  0  0  0
   16.5037  -17.5282  -15.9296 O   0  0  0  0  0  0  0  0  0  0  0  0
   17.7654  -15.8352  -15.1611 O   0  0  0  0  0  0  0  0  0  0  0  0
  2  1  1  6
  2  3  1  0
  3  4  1  0
  4  5  2  0
  6  2  1  0
  7  6  2  0
  8  4  1  0
  9 10  1  0
 10 20  2  0
 10 11  1  0
 11 12  2  0
 12 13  1  0
 13 14  1  0
 15 14  1  6
 15 16  1  0
 16  6  1  0
 17 15  1  0
 17 27  1  0
 18 17  2  0
 19 13  2  0
 20 19  1  0
 22 21  1  0
 23 22  2  0
 24 22  1  0
 25 24  1  0
 26 27  1  0
 26 25  1  1
 28 26  1  0
 29 28  1  0
 30 28  2  0
M  END
$$$$
