DYQ.pdb
     RDKit          3D

 30 30  0  0  1  0  0  0  0  0999 V2000
   27.6433  -21.5608  -19.4946 N   0  0  0  0  0  0  0  0  0  0  0  0
   27.4082  -20.4245  -18.6241 C   0  0  1  0  0  0  0  0  0  0  0  0
   26.4381  -19.5135  -19.3528 C   0  0  0  0  0  0  0  0  0  0  0  0
   27.1509  -18.6540  -20.3329 C   0  0  0  0  0  0  0  0  0  0  0  0
   28.3673  -18.3329  -20.1846 O   0  0  0  0  0  0  0  0  0  0  0  0
   26.8203  -20.9416  -17.3636 C   0  0  0  0  0  0  0  0  0  0  0  0
   26.0517  -21.9363  -17.3498 O   0  0  0  0  0  0  0  0  0  0  0  0
   26.5223  -18.1566  -21.4642 O   0  0  0  0  0  0  0  0  0  0  0  0
   24.6159  -20.9276   -8.7491 O   0  0  0  0  0  0  0  0  0  0  0  0
   25.2679  -20.7251   -9.9786 C   0  0  0  0  0  0  0  0  0  0  0  0
   25.0334  -19.5843  -10.6920 C   0  0  0  0  0  0  0  0  0  0  0  0
   25.6905  -19.4052  -11.9073 C   0  0  0  0  0  0  0  0  0  0  0  0
   26.5645  -20.3398  -12.4069 C   0  0  0  0  0  0  0  0  0  0  0  0
   27.2330  -20.1075  -13.6885 C   0  0  0  0  0  0  0  0  0  0  0  0
   26.4529  -20.6230  -14.8820 C   0  0  2  0  0  0  0  0  0  0  0  0
   27.1275  -20.3011  -16.1234 N   0  0  0  0  0  0  0  0  0  0  0  0
   25.0505  -20.1478  -14.9169 C   0  0  0  0  0  0  0  0  0  0  0  0
   24.8204  -18.9322  -15.2076 O   0  0  0  0  0  0  0  0  0  0  0  0
   26.8068  -21.4928  -11.6943 C   0  0  0  0  0  0  0  0  0  0  0  0
   26.1371  -21.6558  -10.4743 C   0  0  0  0  0  0  0  0  0  0  0  0
   20.3810  -22.4011  -17.7832 N   0  0  0  0  0  0  0  0  0  0  0  0
   19.6921  -21.4348  -17.0054 C   0  0  0  0  0  0  0  0  0  0  0  0
   18.4735  -21.1950  -17.2901 O   0  0  0  0  0  0  0  0  0  0  0  0
   20.4055  -20.7627  -15.9114 C   0  0  0  0  0  0  0  0  0  0  0  0
   21.8326  -21.0743  -15.7598 C   0  0  0  0  0  0  0  0  0  0  0  0
   22.5427  -20.4621  -14.5831 C   0  0  2  0  0  0  0  0  0  0  0  0
   23.9367  -20.9575  -14.6489 N   0  0  0  0  0  0  0  0  0  0  0  0
   21.9506  -20.5915  -13.2814 C   0  0  0  0  0  0  0  0  0  0  0  0
   22.1702  -21.6933  -12.4771 O   0  0  0  0  0  0  0  0  0  0  0  0
   21.1943  -19.6990  -12.8224 O   0  0  0  0  0  0  0  0  0  0  0  0
  2  1  1  6
  2  3  1  0
  3  4  1  0
  4  5  2  0
  6  2  1  0
  7  6  2  0
  8  4  1  0
  9 10  1  0
 10 20  2  0
 10 11  1  0
 11 12  2  0
 12 13  1  0
 13 14  1  0
 15 14  1  1
 15 16  1  0
 16  6  1  0
 17 15  1  0
 17 27  1  0
 18 17  2  0
 19 13  2  0
 20 19  1  0
 22 21  1  0
 23 22  2  0
 24 22  1  0
 25 24  1  0
 26 27  1  0
 26 25  1  6
 28 26  1  0
 29 28  1  0
 30 28  2  0
M  END
$$$$
