DYQ.pdb
     RDKit          3D

 30 30  0  0  1  0  0  0  0  0999 V2000
   17.2923  -12.9144  -16.3118 N   0  0  0  0  0  0  0  0  0  0  0  0
   17.7883  -11.8547  -17.1693 C   0  0  1  0  0  0  0  0  0  0  0  0
   16.6595  -11.5022  -18.1199 C   0  0  0  0  0  0  0  0  0  0  0  0
   16.4042  -12.6109  -19.0755 C   0  0  0  0  0  0  0  0  0  0  0  0
   17.2880  -13.0132  -19.8888 O   0  0  0  0  0  0  0  0  0  0  0  0
   18.1410  -10.7050  -16.2999 C   0  0  0  0  0  0  0  0  0  0  0  0
   17.3748  -10.3044  -15.3874 O   0  0  0  0  0  0  0  0  0  0  0  0
   15.1832  -13.2656  -19.1283 O   0  0  0  0  0  0  0  0  0  0  0  0
   22.9697   -3.7464  -13.5624 O   0  0  0  0  0  0  0  0  0  0  0  0
   22.5412   -4.9882  -14.0644 C   0  0  0  0  0  0  0  0  0  0  0  0
   22.1106   -5.9570  -13.2033 C   0  0  0  0  0  0  0  0  0  0  0  0
   21.6908   -7.1794  -13.7232 C   0  0  0  0  0  0  0  0  0  0  0  0
   21.6974   -7.4374  -15.0724 C   0  0  0  0  0  0  0  0  0  0  0  0
   21.2458   -8.7370  -15.5728 C   0  0  0  0  0  0  0  0  0  0  0  0
   19.7449   -8.8234  -15.7692 C   0  0  2  0  0  0  0  0  0  0  0  0
   19.3829  -10.0248  -16.4940 N   0  0  0  0  0  0  0  0  0  0  0  0
   19.1690   -7.6283  -16.4280 C   0  0  0  0  0  0  0  0  0  0  0  0
   19.3204   -7.4846  -17.6816 O   0  0  0  0  0  0  0  0  0  0  0  0
   22.1300   -6.4665  -15.9477 C   0  0  0  0  0  0  0  0  0  0  0  0
   22.5485   -5.2434  -15.4068 C   0  0  0  0  0  0  0  0  0  0  0  0
   13.5260   -3.1582  -17.1088 N   0  0  0  0  0  0  0  0  0  0  0  0
   14.2790   -4.2605  -16.6278 C   0  0  0  0  0  0  0  0  0  0  0  0
   13.6457   -5.2428  -16.1203 O   0  0  0  0  0  0  0  0  0  0  0  0
   15.7432   -4.2244  -16.7401 C   0  0  0  0  0  0  0  0  0  0  0  0
   16.4717   -5.4228  -16.3040 C   0  0  0  0  0  0  0  0  0  0  0  0
   17.9730   -5.3772  -16.3917 C   0  0  2  0  0  0  0  0  0  0  0  0
   18.4537   -6.6256  -15.7566 N   0  0  0  0  0  0  0  0  0  0  0  0
   18.6520   -4.2007  -15.9265 C   0  0  0  0  0  0  0  0  0  0  0  0
   18.6576   -3.0198  -16.6439 O   0  0  0  0  0  0  0  0  0  0  0  0
   19.2813   -4.2037  -14.8388 O   0  0  0  0  0  0  0  0  0  0  0  0
  2  1  1  1
  2  3  1  0
  3  4  1  0
  4  5  2  0
  6  2  1  0
  7  6  2  0
  8  4  1  0
  9 10  1  0
 10 20  2  0
 10 11  1  0
 11 12  2  0
 12 13  1  0
 13 14  1  0
 15 14  1  6
 15 16  1  0
 16  6  1  0
 17 15  1  0
 17 27  1  0
 18 17  2  0
 19 13  2  0
 20 19  1  0
 22 21  1  0
 23 22  2  0
 24 22  1  0
 25 24  1  0
 26 27  1  0
 26 25  1  1
 28 26  1  0
 29 28  1  0
 30 28  2  0
M  END
$$$$
