DYQ.pdb
     RDKit          3D

 30 30  0  0  1  0  0  0  0  0999 V2000
   16.1904  -15.5678    4.8529 N   0  0  0  0  0  0  0  0  0  0  0  0
   15.2701  -16.4488    5.5463 C   0  0  1  0  0  0  0  0  0  0  0  0
   14.0671  -16.6210    4.6379 C   0  0  0  0  0  0  0  0  0  0  0  0
   13.2735  -15.3671    4.5642 C   0  0  0  0  0  0  0  0  0  0  0  0
   13.5998  -14.3271    5.2096 O   0  0  0  0  0  0  0  0  0  0  0  0
   15.9685  -17.7392    5.7680 C   0  0  0  0  0  0  0  0  0  0  0  0
   15.3557  -18.7670    6.1531 O   0  0  0  0  0  0  0  0  0  0  0  0
   12.1317  -15.2678    3.7840 O   0  0  0  0  0  0  0  0  0  0  0  0
   14.8722  -22.1079    1.0834 O   0  0  0  0  0  0  0  0  0  0  0  0
   15.8194  -21.4658    1.9008 C   0  0  0  0  0  0  0  0  0  0  0  0
   16.6348  -22.2075    2.7072 C   0  0  0  0  0  0  0  0  0  0  0  0
   17.5657  -21.5498    3.5083 C   0  0  0  0  0  0  0  0  0  0  0  0
   17.6866  -20.1814    3.5103 C   0  0  0  0  0  0  0  0  0  0  0  0
   18.6806  -19.5343    4.3685 C   0  0  0  0  0  0  0  0  0  0  0  0
   18.1213  -19.0640    5.6970 C   0  0  2  0  0  0  0  0  0  0  0  0
   17.3767  -17.8307    5.5412 N   0  0  0  0  0  0  0  0  0  0  0  0
   19.1529  -18.9162    6.7494 C   0  0  0  0  0  0  0  0  0  0  0  0
   19.9684  -17.9440    6.6786 O   0  0  0  0  0  0  0  0  0  0  0  0
   16.8686  -19.4259    2.7004 C   0  0  0  0  0  0  0  0  0  0  0  0
   15.9384  -20.1044    1.9017 C   0  0  0  0  0  0  0  0  0  0  0  0
   17.6039  -17.3179   10.7459 N   0  0  0  0  0  0  0  0  0  0  0  0
   18.9494  -16.9487   11.0042 C   0  0  0  0  0  0  0  0  0  0  0  0
   19.1698  -15.7945   11.4968 O   0  0  0  0  0  0  0  0  0  0  0  0
   20.0204  -17.9070   10.7005 C   0  0  0  0  0  0  0  0  0  0  0  0
   19.6140  -19.1961   10.1260 C   0  0  0  0  0  0  0  0  0  0  0  0
   20.3363  -19.6476    8.8858 C   0  0  2  0  0  0  0  0  0  0  0  0
   19.2971  -19.7867    7.8400 N   0  0  0  0  0  0  0  0  0  0  0  0
   21.2119  -20.7819    8.9764 C   0  0  0  0  0  0  0  0  0  0  0  0
   22.3733  -20.7597    9.7248 O   0  0  0  0  0  0  0  0  0  0  0  0
   20.9551  -21.8488    8.3640 O   0  0  0  0  0  0  0  0  0  0  0  0
  2  1  1  6
  2  3  1  0
  3  4  1  0
  4  5  2  0
  6  2  1  0
  7  6  2  0
  8  4  1  0
  9 10  1  0
 10 20  2  0
 10 11  1  0
 11 12  2  0
 12 13  1  0
 13 14  1  0
 15 14  1  6
 15 16  1  0
 16  6  1  0
 17 15  1  0
 17 27  1  0
 18 17  2  0
 19 13  2  0
 20 19  1  0
 22 21  1  0
 23 22  2  0
 24 22  1  0
 25 24  1  0
 26 27  1  0
 26 25  1  1
 28 26  1  0
 29 28  1  0
 30 28  2  0
M  END
$$$$
