DYQ.pdb
     RDKit          3D

 30 30  0  0  1  0  0  0  0  0999 V2000
   20.5174   -9.3327  -15.7608 N   0  0  0  0  0  0  0  0  0  0  0  0
   19.5010   -8.3101  -15.9208 C   0  0  1  0  0  0  0  0  0  0  0  0
   18.1796   -8.9482  -15.5350 C   0  0  0  0  0  0  0  0  0  0  0  0
   17.6789   -9.8304  -16.6205 C   0  0  0  0  0  0  0  0  0  0  0  0
   18.3072   -9.9766  -17.7106 O   0  0  0  0  0  0  0  0  0  0  0  0
   19.8464   -7.1907  -15.0101 C   0  0  0  0  0  0  0  0  0  0  0  0
   20.4697   -7.3793  -13.9348 O   0  0  0  0  0  0  0  0  0  0  0  0
   16.4953  -10.5422  -16.4985 O   0  0  0  0  0  0  0  0  0  0  0  0
   25.2718   -6.4138  -17.3896 O   0  0  0  0  0  0  0  0  0  0  0  0
   24.1478   -5.7572  -16.8574 C   0  0  0  0  0  0  0  0  0  0  0  0
   22.9734   -5.7477  -17.5546 C   0  0  0  0  0  0  0  0  0  0  0  0
   21.8731   -5.0911  -17.0079 C   0  0  0  0  0  0  0  0  0  0  0  0
   21.9352   -4.4551  -15.7919 C   0  0  0  0  0  0  0  0  0  0  0  0
   20.7522   -3.7789  -15.2566 C   0  0  0  0  0  0  0  0  0  0  0  0
   19.7978   -4.7080  -14.5324 C   0  0  2  0  0  0  0  0  0  0  0  0
   19.4663   -5.8561  -15.3520 N   0  0  0  0  0  0  0  0  0  0  0  0
   18.5651   -4.0343  -14.0628 C   0  0  0  0  0  0  0  0  0  0  0  0
   17.6590   -3.7518  -14.9080 O   0  0  0  0  0  0  0  0  0  0  0  0
   23.1152   -4.4597  -15.0822 C   0  0  0  0  0  0  0  0  0  0  0  0
   24.2112   -5.1250  -15.6476 C   0  0  0  0  0  0  0  0  0  0  0  0
   15.8968   -4.8320   -8.5595 N   0  0  0  0  0  0  0  0  0  0  0  0
   15.1155   -3.7532   -9.0485 C   0  0  0  0  0  0  0  0  0  0  0  0
   14.1118   -3.3794   -8.3584 O   0  0  0  0  0  0  0  0  0  0  0  0
   15.4978   -3.1155  -10.3154 C   0  0  0  0  0  0  0  0  0  0  0  0
   16.6870   -3.6472  -10.9934 C   0  0  0  0  0  0  0  0  0  0  0  0
   17.1099   -2.9626  -12.2647 C   0  0  2  0  0  0  0  0  0  0  0  0
   18.3198   -3.6801  -12.7278 N   0  0  0  0  0  0  0  0  0  0  0  0
   17.2594   -1.5346  -12.2579 C   0  0  0  0  0  0  0  0  0  0  0  0
   16.1896   -0.6797  -12.4421 O   0  0  0  0  0  0  0  0  0  0  0  0
   18.3852   -1.0021  -12.0896 O   0  0  0  0  0  0  0  0  0  0  0  0
  2  1  1  1
  2  3  1  0
  3  4  1  0
  4  5  2  0
  6  2  1  0
  7  6  2  0
  8  4  1  0
  9 10  1  0
 10 20  2  0
 10 11  1  0
 11 12  2  0
 12 13  1  0
 13 14  1  0
 15 14  1  6
 15 16  1  0
 16  6  1  0
 17 15  1  0
 17 27  1  0
 18 17  2  0
 19 13  2  0
 20 19  1  0
 22 21  1  0
 23 22  2  0
 24 22  1  0
 25 24  1  0
 26 27  1  0
 26 25  1  1
 28 26  1  0
 29 28  1  0
 30 28  2  0
M  END
$$$$
