DYQ.pdb
     RDKit          3D

 30 30  0  0  1  0  0  0  0  0999 V2000
   24.4236  -10.9571  -17.6178 N   0  0  0  0  0  0  0  0  0  0  0  0
   23.7984  -10.3455  -18.7751 C   0  0  1  0  0  0  0  0  0  0  0  0
   23.1954  -11.4747  -19.5895 C   0  0  0  0  0  0  0  0  0  0  0  0
   24.2575  -12.3084  -20.2094 C   0  0  0  0  0  0  0  0  0  0  0  0
   25.0625  -12.9964  -19.5142 O   0  0  0  0  0  0  0  0  0  0  0  0
   22.7512   -9.4184  -18.2792 C   0  0  0  0  0  0  0  0  0  0  0  0
   21.9470   -8.8485  -19.0594 O   0  0  0  0  0  0  0  0  0  0  0  0
   24.4251  -12.3782  -21.5840 O   0  0  0  0  0  0  0  0  0  0  0  0
   17.5212  -13.1236  -17.4187 O   0  0  0  0  0  0  0  0  0  0  0  0
   18.3364  -12.1095  -16.8852 C   0  0  0  0  0  0  0  0  0  0  0  0
   19.3944  -12.4383  -16.0865 C   0  0  0  0  0  0  0  0  0  0  0  0
   20.1882  -11.4170  -15.5691 C   0  0  0  0  0  0  0  0  0  0  0  0
   19.9383  -10.0934  -15.8384 C   0  0  0  0  0  0  0  0  0  0  0  0
   20.8009   -9.0543  -15.2731 C   0  0  0  0  0  0  0  0  0  0  0  0
   21.6130   -8.3077  -16.3131 C   0  0  2  0  0  0  0  0  0  0  0  0
   22.6422   -9.1568  -16.8784 N   0  0  0  0  0  0  0  0  0  0  0  0
   22.2033   -7.0481  -15.8043 C   0  0  0  0  0  0  0  0  0  0  0  0
   23.1788   -7.1105  -14.9922 O   0  0  0  0  0  0  0  0  0  0  0  0
   18.8737   -9.7529  -16.6426 C   0  0  0  0  0  0  0  0  0  0  0  0
   18.0864  -10.7932  -17.1539 C   0  0  0  0  0  0  0  0  0  0  0  0
   23.1852   -1.1588  -17.2267 N   0  0  0  0  0  0  0  0  0  0  0  0
   22.8818   -2.1498  -18.1958 C   0  0  0  0  0  0  0  0  0  0  0  0
   23.2788   -1.9597  -19.3915 O   0  0  0  0  0  0  0  0  0  0  0  0
   22.1348   -3.3447  -17.7811 C   0  0  0  0  0  0  0  0  0  0  0  0
   21.6889   -3.3962  -16.3828 C   0  0  0  0  0  0  0  0  0  0  0  0
   22.2334   -4.5132  -15.5345 C   0  0  2  0  0  0  0  0  0  0  0  0
   21.7564   -5.7672  -16.1615 N   0  0  0  0  0  0  0  0  0  0  0  0
   22.0177   -4.4650  -14.1158 C   0  0  0  0  0  0  0  0  0  0  0  0
   22.9610   -3.9579  -13.2428 O   0  0  0  0  0  0  0  0  0  0  0  0
   20.9518   -4.8952  -13.6079 O   0  0  0  0  0  0  0  0  0  0  0  0
  2  1  1  1
  2  3  1  0
  3  4  1  0
  4  5  2  0
  6  2  1  0
  7  6  2  0
  8  4  1  0
  9 10  1  0
 10 20  2  0
 10 11  1  0
 11 12  2  0
 12 13  1  0
 13 14  1  0
 15 14  1  1
 15 16  1  0
 16  6  1  0
 17 15  1  0
 17 27  1  0
 18 17  2  0
 19 13  2  0
 20 19  1  0
 22 21  1  0
 23 22  2  0
 24 22  1  0
 25 24  1  0
 26 27  1  0
 26 25  1  6
 28 26  1  0
 29 28  1  0
 30 28  2  0
M  END
$$$$
