DYQ.pdb
     RDKit          3D

 30 30  0  0  1  0  0  0  0  0999 V2000
   21.4438  -15.0477  -20.0266 N   0  0  0  0  0  0  0  0  0  0  0  0
   22.1412  -13.9090  -19.4599 C   0  0  1  0  0  0  0  0  0  0  0  0
   22.7784  -13.1690  -20.6211 C   0  0  0  0  0  0  0  0  0  0  0  0
   23.9070  -13.9485  -21.1924 C   0  0  0  0  0  0  0  0  0  0  0  0
   24.2515  -15.0735  -20.7231 O   0  0  0  0  0  0  0  0  0  0  0  0
   21.1334  -13.0660  -18.7703 C   0  0  0  0  0  0  0  0  0  0  0  0
   19.9709  -12.9170  -19.2250 O   0  0  0  0  0  0  0  0  0  0  0  0
   24.6447  -13.4858  -22.2713 O   0  0  0  0  0  0  0  0  0  0  0  0
   16.8141  -16.7596  -16.0495 O   0  0  0  0  0  0  0  0  0  0  0  0
   17.6523  -15.6392  -15.9084 C   0  0  0  0  0  0  0  0  0  0  0  0
   19.0059  -15.8079  -15.8396 C   0  0  0  0  0  0  0  0  0  0  0  0
   19.8165  -14.6836  -15.6999 C   0  0  0  0  0  0  0  0  0  0  0  0
   19.2954  -13.4146  -15.6297 C   0  0  0  0  0  0  0  0  0  0  0  0
   20.1870  -12.2626  -15.4840 C   0  0  0  0  0  0  0  0  0  0  0  0
   20.5382  -11.5968  -16.8000 C   0  0  2  0  0  0  0  0  0  0  0  0
   21.4799  -12.3991  -17.5546 N   0  0  0  0  0  0  0  0  0  0  0  0
   21.0465  -10.2145  -16.6418 C   0  0  0  0  0  0  0  0  0  0  0  0
   22.2329  -10.0403  -16.2208 O   0  0  0  0  0  0  0  0  0  0  0  0
   17.9319  -13.2353  -15.6981 C   0  0  0  0  0  0  0  0  0  0  0  0
   17.1323  -14.3774  -15.8386 C   0  0  0  0  0  0  0  0  0  0  0  0
   17.8385   -5.0373  -18.4563 N   0  0  0  0  0  0  0  0  0  0  0  0
   18.9297   -4.4533  -17.7624 C   0  0  0  0  0  0  0  0  0  0  0  0
   18.9780   -3.1825  -17.6832 O   0  0  0  0  0  0  0  0  0  0  0  0
   19.9445   -5.3315  -17.1653 C   0  0  0  0  0  0  0  0  0  0  0  0
   19.7239   -6.7784  -17.2863 C   0  0  0  0  0  0  0  0  0  0  0  0
   20.7877   -7.6796  -16.7207 C   0  0  2  0  0  0  0  0  0  0  0  0
   20.3001   -9.0622  -16.9298 N   0  0  0  0  0  0  0  0  0  0  0  0
   21.2562   -7.4341  -15.3858 C   0  0  0  0  0  0  0  0  0  0  0  0
   20.6727   -8.0211  -14.2794 O   0  0  0  0  0  0  0  0  0  0  0  0
   22.2223   -6.6597  -15.1707 O   0  0  0  0  0  0  0  0  0  0  0  0
  2  1  1  6
  2  3  1  0
  3  4  1  0
  4  5  2  0
  6  2  1  0
  7  6  2  0
  8  4  1  0
  9 10  1  0
 10 20  2  0
 10 11  1  0
 11 12  2  0
 12 13  1  0
 13 14  1  0
 15 14  1  1
 15 16  1  0
 16  6  1  0
 17 15  1  0
 17 27  1  0
 18 17  2  0
 19 13  2  0
 20 19  1  0
 22 21  1  0
 23 22  2  0
 24 22  1  0
 25 24  1  0
 26 27  1  0
 26 25  1  1
 28 26  1  0
 29 28  1  0
 30 28  2  0
M  END
$$$$
