DYQ.pdb
     RDKit          3D

 30 30  0  0  1  0  0  0  0  0999 V2000
   20.0304  -11.4051  -18.5296 N   0  0  0  0  0  0  0  0  0  0  0  0
   19.3093  -11.4697  -17.2725 C   0  0  1  0  0  0  0  0  0  0  0  0
   19.1497  -12.9413  -16.9394 C   0  0  0  0  0  0  0  0  0  0  0  0
   18.1393  -13.5791  -17.8225 C   0  0  0  0  0  0  0  0  0  0  0  0
   17.9468  -14.8311  -17.8276 O   0  0  0  0  0  0  0  0  0  0  0  0
   20.1283  -10.7706  -16.2515 C   0  0  0  0  0  0  0  0  0  0  0  0
   19.7965  -10.7454  -15.0392 O   0  0  0  0  0  0  0  0  0  0  0  0
   17.3519  -12.8372  -18.6897 O   0  0  0  0  0  0  0  0  0  0  0  0
   23.9507  -15.6734  -15.4325 O   0  0  0  0  0  0  0  0  0  0  0  0
   23.8751  -14.2734  -15.5423 C   0  0  0  0  0  0  0  0  0  0  0  0
   23.8083  -13.5062  -14.4144 C   0  0  0  0  0  0  0  0  0  0  0  0
   23.7341  -12.1214  -14.5474 C   0  0  0  0  0  0  0  0  0  0  0  0
   23.7261  -11.5076  -15.7763 C   0  0  0  0  0  0  0  0  0  0  0  0
   23.6480  -10.0485  -15.8668 C   0  0  0  0  0  0  0  0  0  0  0  0
   22.2440   -9.5039  -15.6912 C   0  0  2  0  0  0  0  0  0  0  0  0
   21.3301  -10.1033  -16.6427 N   0  0  0  0  0  0  0  0  0  0  0  0
   22.1734   -8.0263  -15.7662 C   0  0  0  0  0  0  0  0  0  0  0  0
   22.0279   -7.4748  -16.9019 O   0  0  0  0  0  0  0  0  0  0  0  0
   23.7931  -12.2734  -16.9187 C   0  0  0  0  0  0  0  0  0  0  0  0
   23.8672  -13.6643  -16.7656 C   0  0  0  0  0  0  0  0  0  0  0  0
   18.3094   -5.0184  -16.7503 N   0  0  0  0  0  0  0  0  0  0  0  0
   18.9458   -3.9113  -16.1317 C   0  0  0  0  0  0  0  0  0  0  0  0
   18.3644   -2.7789  -16.1863 O   0  0  0  0  0  0  0  0  0  0  0  0
   20.2335   -4.1179  -15.4558 C   0  0  0  0  0  0  0  0  0  0  0  0
   20.7384   -5.4958  -15.3971 C   0  0  0  0  0  0  0  0  0  0  0  0
   22.0601   -5.7086  -14.7105 C   0  0  2  0  0  0  0  0  0  0  0  0
   22.2554   -7.1755  -14.6539 N   0  0  0  0  0  0  0  0  0  0  0  0
   22.2949   -5.0517  -13.4555 C   0  0  0  0  0  0  0  0  0  0  0  0
   22.6310   -3.7139  -13.3745 O   0  0  0  0  0  0  0  0  0  0  0  0
   22.2098   -5.6793  -12.3701 O   0  0  0  0  0  0  0  0  0  0  0  0
  2  1  1  6
  2  3  1  0
  3  4  1  0
  4  5  2  0
  6  2  1  0
  7  6  2  0
  8  4  1  0
  9 10  1  0
 10 20  2  0
 10 11  1  0
 11 12  2  0
 12 13  1  0
 13 14  1  0
 15 14  1  6
 15 16  1  0
 16  6  1  0
 17 15  1  0
 17 27  1  0
 18 17  2  0
 19 13  2  0
 20 19  1  0
 22 21  1  0
 23 22  2  0
 24 22  1  0
 25 24  1  0
 26 27  1  0
 26 25  1  1
 28 26  1  0
 29 28  1  0
 30 28  2  0
M  END
$$$$
