DEK.pdb
     RDKit          3D

 27 26  0  0  1  0  0  0  0  0999 V2000
   19.9888  -12.2249  -15.5888 N   0  0  0  0  0  0  0  0  0  0  0  0
   19.0365  -11.3395  -16.2110 C   0  0  1  0  0  0  0  0  0  0  0  0
   17.7314  -12.0562  -16.3847 C   0  0  0  0  0  0  0  0  0  0  0  0
   17.9030  -13.1469  -17.3746 C   0  0  0  0  0  0  0  0  0  0  0  0
   18.9987  -13.3447  -17.9262 O   0  0  0  0  0  0  0  0  0  0  0  0
   18.9147  -10.0921  -15.4381 C   0  0  0  0  0  0  0  0  0  0  0  0
   18.0802  -10.0203  -14.4866 O   0  0  0  0  0  0  0  0  0  0  0  0
   16.8359  -13.9788  -17.7113 O   0  0  0  0  0  0  0  0  0  0  0  0
   19.6888   -8.9479  -15.7001 N   0  0  0  0  0  0  0  0  0  0  0  0
   19.5429   -7.6877  -15.0242 C   0  0  1  0  0  0  0  0  0  0  0  0
   20.8372   -7.0855  -14.5717 C   0  0  0  0  0  0  0  0  0  0  0  0
   20.6532   -5.7569  -13.8841 C   0  0  0  0  0  0  0  0  0  0  0  0
   21.9765   -5.2037  -13.5542 C   0  0  0  0  0  0  0  0  0  0  0  0
   22.3490   -4.1221  -14.0458 O   0  0  0  0  0  0  0  0  0  0  0  0
   18.8321   -6.6845  -15.8811 C   0  0  0  0  0  0  0  0  0  0  0  0
   19.2638   -6.4558  -17.0617 O   0  0  0  0  0  0  0  0  0  0  0  0
   22.8137   -5.8817  -12.6971 O   0  0  0  0  0  0  0  0  0  0  0  0
   17.7162   -5.9804  -15.4584 N   0  0  0  0  0  0  0  0  0  0  0  0
   16.9551   -5.0250  -16.3392 C   0  0  1  0  0  0  0  0  0  0  0  0
   15.5149   -5.2708  -16.0448 C   0  0  0  0  0  0  0  0  0  0  0  0
   14.4597   -4.4351  -16.5940 C   0  0  0  0  0  0  0  0  0  0  0  0
   13.0436   -4.5694  -16.2579 C   0  0  0  0  0  0  0  0  0  0  0  0
   12.0903   -3.6587  -16.9946 C   0  0  0  0  0  0  0  0  0  0  0  0
   10.7225   -3.9518  -16.6619 N   0  0  0  0  0  0  0  0  0  0  0  0
   17.4080   -3.6832  -15.9992 C   0  0  0  0  0  0  0  0  0  0  0  0
   17.3750   -2.6469  -16.9652 O   0  0  0  0  0  0  0  0  0  0  0  0
   17.8365   -3.3478  -14.9023 O   0  0  0  0  0  0  0  0  0  0  0  0
  2  1  1  1
  3  2  1  0
  4  3  1  0
  5  4  2  0
  6  7  2  0
  6  2  1  0
  8  4  1  0
  9  6  1  0
 10 11  1  6
 10  9  1  0
 11 12  1  0
 13 17  1  0
 13 12  1  0
 14 13  2  0
 15 18  1  0
 15 10  1  0
 16 15  2  0
 19 18  1  0
 19 20  1  1
 21 20  1  0
 22 21  1  0
 23 22  1  0
 24 23  1  0
 25 26  1  0
 25 19  1  0
 27 25  2  0
M  END
$$$$
