DEK.pdb
     RDKit          3D

 27 26  0  0  1  0  0  0  0  0999 V2000
   28.4779  -21.1212  -17.4429 N   0  0  0  0  0  0  0  0  0  0  0  0
   28.5822  -20.1237  -16.4075 C   0  0  1  0  0  0  0  0  0  0  0  0
   27.7296  -18.9441  -16.7660 C   0  0  0  0  0  0  0  0  0  0  0  0
   28.3098  -18.2660  -17.9503 C   0  0  0  0  0  0  0  0  0  0  0  0
   27.6234  -17.5043  -18.6524 O   0  0  0  0  0  0  0  0  0  0  0  0
   28.2450  -20.7064  -15.0979 C   0  0  0  0  0  0  0  0  0  0  0  0
   27.3668  -21.6174  -15.0219 O   0  0  0  0  0  0  0  0  0  0  0  0
   29.6430  -18.4672  -18.3055 O   0  0  0  0  0  0  0  0  0  0  0  0
   28.8550  -20.3017  -13.8974 N   0  0  0  0  0  0  0  0  0  0  0  0
   28.4936  -20.7828  -12.5920 C   0  0  1  0  0  0  0  0  0  0  0  0
   29.5025  -20.4761  -11.5287 C   0  0  0  0  0  0  0  0  0  0  0  0
   30.8419  -21.1145  -11.7945 C   0  0  0  0  0  0  0  0  0  0  0  0
   30.8896  -22.4207  -11.1183 C   0  0  0  0  0  0  0  0  0  0  0  0
   29.9814  -22.7610  -10.3375 O   0  0  0  0  0  0  0  0  0  0  0  0
   27.1683  -20.2372  -12.1538 C   0  0  0  0  0  0  0  0  0  0  0  0
   26.9860  -18.9727  -12.1475 O   0  0  0  0  0  0  0  0  0  0  0  0
   31.9431  -23.2774  -11.3456 O   0  0  0  0  0  0  0  0  0  0  0  0
   26.1139  -21.0395  -11.7485 N   0  0  0  0  0  0  0  0  0  0  0  0
   24.7930  -20.4957  -11.2719 C   0  0  1  0  0  0  0  0  0  0  0  0
   23.7600  -21.1525  -12.1222 C   0  0  0  0  0  0  0  0  0  0  0  0
   22.3377  -20.9255  -11.9253 C   0  0  0  0  0  0  0  0  0  0  0  0
   21.2853  -21.5527  -12.7223 C   0  0  0  0  0  0  0  0  0  0  0  0
   19.8634  -21.2413  -12.3197 C   0  0  0  0  0  0  0  0  0  0  0  0
   18.9194  -21.9693  -13.1238 N   0  0  0  0  0  0  0  0  0  0  0  0
   24.6875  -20.8199   -9.8561 C   0  0  0  0  0  0  0  0  0  0  0  0
   23.8522  -20.0558   -9.0036 O   0  0  0  0  0  0  0  0  0  0  0  0
   25.2820  -21.7367   -9.3034 O   0  0  0  0  0  0  0  0  0  0  0  0
  2  1  1  6
  3  2  1  0
  4  3  1  0
  5  4  2  0
  6  7  2  0
  6  2  1  0
  8  4  1  0
  9  6  1  0
 10 11  1  1
 10  9  1  0
 11 12  1  0
 13 17  1  0
 13 12  1  0
 14 13  2  0
 15 18  1  0
 15 10  1  0
 16 15  2  0
 19 18  1  0
 19 20  1  6
 21 20  1  0
 22 21  1  0
 23 22  1  0
 24 23  1  0
 25 26  1  0
 25 19  1  0
 27 25  2  0
M  END
$$$$
