DEK.pdb
     RDKit          3D

 27 26  0  0  1  0  0  0  0  0999 V2000
   14.3872  -18.7310    2.7649 N   0  0  0  0  0  0  0  0  0  0  0  0
   14.8602  -20.0347    3.1581 C   0  0  1  0  0  0  0  0  0  0  0  0
   15.4601  -20.7248    1.9703 C   0  0  0  0  0  0  0  0  0  0  0  0
   14.3812  -21.0776    1.0160 C   0  0  0  0  0  0  0  0  0  0  0  0
   13.1889  -20.8564    1.2871 O   0  0  0  0  0  0  0  0  0  0  0  0
   15.7902  -19.9219    4.2941 C   0  0  0  0  0  0  0  0  0  0  0  0
   16.9001  -20.5334    4.2619 O   0  0  0  0  0  0  0  0  0  0  0  0
   14.6796  -21.6678   -0.2115 O   0  0  0  0  0  0  0  0  0  0  0  0
   15.5124  -19.1569    5.4408 N   0  0  0  0  0  0  0  0  0  0  0  0
   16.3772  -19.0508    6.5841 C   0  0  1  0  0  0  0  0  0  0  0  0
   16.1021  -17.8586    7.4475 C   0  0  0  0  0  0  0  0  0  0  0  0
   17.0472  -16.7151    7.1808 C   0  0  0  0  0  0  0  0  0  0  0  0
   16.6464  -15.5636    8.0050 C   0  0  0  0  0  0  0  0  0  0  0  0
   15.6370  -15.6278    8.7310 O   0  0  0  0  0  0  0  0  0  0  0  0
   16.3066  -20.2781    7.4412 C   0  0  0  0  0  0  0  0  0  0  0  0
   15.1852  -20.8724    7.5879 O   0  0  0  0  0  0  0  0  0  0  0  0
   17.3880  -14.4040    7.9778 O   0  0  0  0  0  0  0  0  0  0  0  0
   17.4061  -20.8124    8.0934 N   0  0  0  0  0  0  0  0  0  0  0  0
   17.3401  -22.0427    8.9594 C   0  0  1  0  0  0  0  0  0  0  0  0
   18.2307  -23.0416    8.3033 C   0  0  0  0  0  0  0  0  0  0  0  0
   18.5642  -24.3100    8.9303 C   0  0  0  0  0  0  0  0  0  0  0  0
   19.5733  -25.2387    8.4248 C   0  0  0  0  0  0  0  0  0  0  0  0
   19.7801  -26.5039    9.2231 C   0  0  0  0  0  0  0  0  0  0  0  0
   20.8529  -27.2949    8.6835 N   0  0  0  0  0  0  0  0  0  0  0  0
   17.7752  -21.6468   10.2916 C   0  0  0  0  0  0  0  0  0  0  0  0
   18.5625  -20.4828   10.4746 O   0  0  0  0  0  0  0  0  0  0  0  0
   17.5124  -22.2547   11.3215 O   0  0  0  0  0  0  0  0  0  0  0  0
  2  1  1  6
  3  2  1  0
  4  3  1  0
  5  4  2  0
  6  7  2  0
  6  2  1  0
  8  4  1  0
  9  6  1  0
 10 11  1  1
 10  9  1  0
 11 12  1  0
 13 17  1  0
 13 12  1  0
 14 13  2  0
 15 18  1  0
 15 10  1  0
 16 15  2  0
 19 18  1  0
 19 20  1  6
 21 20  1  0
 22 21  1  0
 23 22  1  0
 24 23  1  0
 25 26  1  0
 25 19  1  0
 27 25  2  0
M  END
$$$$
