DEK.pdb
     RDKit          3D

 27 26  0  0  1  0  0  0  0  0999 V2000
   19.6975  -10.4976  -16.2948 N   0  0  0  0  0  0  0  0  0  0  0  0
   18.3768  -10.3907  -15.7271 C   0  0  1  0  0  0  0  0  0  0  0  0
   18.1824  -11.4770  -14.7127 C   0  0  0  0  0  0  0  0  0  0  0  0
   17.9134  -12.7556  -15.4139 C   0  0  0  0  0  0  0  0  0  0  0  0
   17.8176  -12.7991  -16.6520 O   0  0  0  0  0  0  0  0  0  0  0  0
   18.1612   -9.0408  -15.1799 C   0  0  0  0  0  0  0  0  0  0  0  0
   17.0876   -8.7772  -14.5597 O   0  0  0  0  0  0  0  0  0  0  0  0
   17.7611  -13.9429  -14.6990 O   0  0  0  0  0  0  0  0  0  0  0  0
   19.0997   -8.0015  -15.3080 N   0  0  0  0  0  0  0  0  0  0  0  0
   18.9591   -6.6945  -14.7264 C   0  0  1  0  0  0  0  0  0  0  0  0
   20.2419   -5.9274  -14.6344 C   0  0  0  0  0  0  0  0  0  0  0  0
   21.2217   -6.5438  -13.6690 C   0  0  0  0  0  0  0  0  0  0  0  0
   22.4570   -5.7439  -13.6681 C   0  0  0  0  0  0  0  0  0  0  0  0
   22.5857   -4.7821  -12.8879 O   0  0  0  0  0  0  0  0  0  0  0  0
   17.9669   -5.8622  -15.4806 C   0  0  0  0  0  0  0  0  0  0  0  0
   18.1124   -5.7081  -16.7406 O   0  0  0  0  0  0  0  0  0  0  0  0
   23.4815   -6.0552  -14.5334 O   0  0  0  0  0  0  0  0  0  0  0  0
   16.8845   -5.2410  -14.8790 N   0  0  0  0  0  0  0  0  0  0  0  0
   15.8995   -4.3819  -15.6271 C   0  0  1  0  0  0  0  0  0  0  0  0
   14.5535   -4.9117  -15.2682 C   0  0  0  0  0  0  0  0  0  0  0  0
   13.3270   -4.2382  -15.6622 C   0  0  0  0  0  0  0  0  0  0  0  0
   11.9846   -4.7055  -15.3216 C   0  0  0  0  0  0  0  0  0  0  0  0
   10.8350   -3.8562  -15.8096 C   0  0  0  0  0  0  0  0  0  0  0  0
    9.5697   -4.3963  -15.3914 N   0  0  0  0  0  0  0  0  0  0  0  0
   16.1273   -3.0078  -15.2018 C   0  0  0  0  0  0  0  0  0  0  0  0
   16.6582   -2.7313  -13.9174 O   0  0  0  0  0  0  0  0  0  0  0  0
   15.8919   -2.0178  -15.8830 O   0  0  0  0  0  0  0  0  0  0  0  0
  2  1  1  1
  3  2  1  0
  4  3  1  0
  5  4  2  0
  6  7  2  0
  6  2  1  0
  8  4  1  0
  9  6  1  0
 10 11  1  6
 10  9  1  0
 11 12  1  0
 13 17  1  0
 13 12  1  0
 14 13  2  0
 15 18  1  0
 15 10  1  0
 16 15  2  0
 19 18  1  0
 19 20  1  1
 21 20  1  0
 22 21  1  0
 23 22  1  0
 24 23  1  0
 25 26  1  0
 25 19  1  0
 27 25  2  0
M  END
$$$$
