DEK.pdb
     RDKit          3D

 27 26  0  0  1  0  0  0  0  0999 V2000
   18.5444  -13.2843  -15.8620 N   0  0  0  0  0  0  0  0  0  0  0  0
   17.7464  -12.2703  -16.5047 C   0  0  1  0  0  0  0  0  0  0  0  0
   16.3612  -12.7968  -16.7304 C   0  0  0  0  0  0  0  0  0  0  0  0
   16.4306  -13.9879  -17.6110 C   0  0  0  0  0  0  0  0  0  0  0  0
   15.8282  -15.0352  -17.3204 O   0  0  0  0  0  0  0  0  0  0  0  0
   17.7726  -11.0238  -15.7213 C   0  0  0  0  0  0  0  0  0  0  0  0
   17.4339  -11.0410  -14.4998 O   0  0  0  0  0  0  0  0  0  0  0  0
   17.1756  -13.9615  -18.7892 O   0  0  0  0  0  0  0  0  0  0  0  0
   18.1608   -9.7852  -16.2618 N   0  0  0  0  0  0  0  0  0  0  0  0
   18.3510   -8.5818  -15.4989 C   0  0  1  0  0  0  0  0  0  0  0  0
   19.7778   -8.3115  -15.1330 C   0  0  0  0  0  0  0  0  0  0  0  0
   20.7175   -8.4601  -16.3021 C   0  0  0  0  0  0  0  0  0  0  0  0
   22.0833   -8.1363  -15.8597 C   0  0  0  0  0  0  0  0  0  0  0  0
   22.2991   -7.7807  -14.6862 O   0  0  0  0  0  0  0  0  0  0  0  0
   17.8162   -7.3833  -16.2222 C   0  0  0  0  0  0  0  0  0  0  0  0
   18.0500   -7.2534  -17.4716 O   0  0  0  0  0  0  0  0  0  0  0  0
   23.1344   -8.2248  -16.7443 O   0  0  0  0  0  0  0  0  0  0  0  0
   17.0713   -6.3929  -15.6026 N   0  0  0  0  0  0  0  0  0  0  0  0
   16.6273   -5.1320  -16.2962 C   0  0  1  0  0  0  0  0  0  0  0  0
   15.6025   -4.5232  -15.4015 C   0  0  0  0  0  0  0  0  0  0  0  0
   15.0172   -3.2200  -15.6704 C   0  0  0  0  0  0  0  0  0  0  0  0
   13.9822   -2.5963  -14.8482 C   0  0  0  0  0  0  0  0  0  0  0  0
   13.4967   -1.2385  -15.2972 C   0  0  0  0  0  0  0  0  0  0  0  0
   12.3240   -0.8341  -14.5700 N   0  0  0  0  0  0  0  0  0  0  0  0
   17.8150   -4.3097  -16.4812 C   0  0  0  0  0  0  0  0  0  0  0  0
   17.8103   -3.2380  -17.4084 O   0  0  0  0  0  0  0  0  0  0  0  0
   18.8714   -4.4637  -15.8814 O   0  0  0  0  0  0  0  0  0  0  0  0
  2  1  1  1
  3  2  1  0
  4  3  1  0
  5  4  2  0
  6  7  2  0
  6  2  1  0
  8  4  1  0
  9  6  1  0
 10 11  1  6
 10  9  1  0
 11 12  1  0
 13 17  1  0
 13 12  1  0
 14 13  2  0
 15 18  1  0
 15 10  1  0
 16 15  2  0
 19 18  1  0
 19 20  1  1
 21 20  1  0
 22 21  1  0
 23 22  1  0
 24 23  1  0
 25 26  1  0
 25 19  1  0
 27 25  2  0
M  END
$$$$
