DEK.pdb
     RDKit          3D

 27 26  0  0  1  0  0  0  0  0999 V2000
   22.3316  -27.2459  -19.8566 N   0  0  0  0  0  0  0  0  0  0  0  0
   23.2267  -27.2026  -18.7275 C   0  0  1  0  0  0  0  0  0  0  0  0
   22.5352  -26.5479  -17.5698 C   0  0  0  0  0  0  0  0  0  0  0  0
   22.3524  -25.1061  -17.8640 C   0  0  0  0  0  0  0  0  0  0  0  0
   23.2921  -24.4159  -18.2938 O   0  0  0  0  0  0  0  0  0  0  0  0
   23.7263  -28.5524  -18.4167 C   0  0  0  0  0  0  0  0  0  0  0  0
   23.0418  -29.5677  -18.7447 O   0  0  0  0  0  0  0  0  0  0  0  0
   21.1184  -24.4883  -17.6647 O   0  0  0  0  0  0  0  0  0  0  0  0
   24.9481  -28.7869  -17.7615 N   0  0  0  0  0  0  0  0  0  0  0  0
   25.4718  -30.0878  -17.4456 C   0  0  1  0  0  0  0  0  0  0  0  0
   26.9677  -30.1536  -17.4242 C   0  0  0  0  0  0  0  0  0  0  0  0
   27.4857  -31.5124  -17.0274 C   0  0  0  0  0  0  0  0  0  0  0  0
   28.9524  -31.5172  -17.1487 C   0  0  0  0  0  0  0  0  0  0  0  0
   29.4955  -31.3074  -18.2493 O   0  0  0  0  0  0  0  0  0  0  0  0
   24.9608  -30.5790  -16.1251 C   0  0  0  0  0  0  0  0  0  0  0  0
   25.2946  -29.9603  -15.0583 O   0  0  0  0  0  0  0  0  0  0  0  0
   29.7357  -31.7548  -16.0418 O   0  0  0  0  0  0  0  0  0  0  0  0
   24.1346  -31.6835  -15.9945 N   0  0  0  0  0  0  0  0  0  0  0  0
   23.5939  -32.1637  -14.6735 C   0  0  1  0  0  0  0  0  0  0  0  0
   22.3304  -32.8849  -14.9970 C   0  0  0  0  0  0  0  0  0  0  0  0
   21.5049  -33.4979  -13.9694 C   0  0  0  0  0  0  0  0  0  0  0  0
   20.2564  -34.2108  -14.2323 C   0  0  0  0  0  0  0  0  0  0  0  0
   19.5589  -34.8067  -13.0325 C   0  0  0  0  0  0  0  0  0  0  0  0
   18.4597  -35.6451  -13.4279 N   0  0  0  0  0  0  0  0  0  0  0  0
   24.6206  -33.0070  -14.0770 C   0  0  0  0  0  0  0  0  0  0  0  0
   24.7017  -33.1549  -12.6700 O   0  0  0  0  0  0  0  0  0  0  0  0
   25.4636  -33.6326  -14.7074 O   0  0  0  0  0  0  0  0  0  0  0  0
  2  1  1  6
  3  2  1  0
  4  3  1  0
  5  4  2  0
  6  7  2  0
  6  2  1  0
  8  4  1  0
  9  6  1  0
 10 11  1  1
 10  9  1  0
 11 12  1  0
 13 17  1  0
 13 12  1  0
 14 13  2  0
 15 18  1  0
 15 10  1  0
 16 15  2  0
 19 18  1  0
 19 20  1  6
 21 20  1  0
 22 21  1  0
 23 22  1  0
 24 23  1  0
 25 26  1  0
 25 19  1  0
 27 25  2  0
M  END
$$$$
