DEK.pdb
     RDKit          3D

 27 26  0  0  1  0  0  0  0  0999 V2000
   16.5700  -22.6613    2.2027 N   0  0  0  0  0  0  0  0  0  0  0  0
   16.8965  -22.5786    3.6043 C   0  0  1  0  0  0  0  0  0  0  0  0
   18.0920  -23.4373    3.8876 C   0  0  0  0  0  0  0  0  0  0  0  0
   17.6376  -24.8055    4.2348 C   0  0  0  0  0  0  0  0  0  0  0  0
   16.4292  -25.0952    4.2468 O   0  0  0  0  0  0  0  0  0  0  0  0
   17.0829  -21.1742    4.0057 C   0  0  0  0  0  0  0  0  0  0  0  0
   18.1762  -20.5863    3.7492 O   0  0  0  0  0  0  0  0  0  0  0  0
   18.5575  -25.8024    4.5571 O   0  0  0  0  0  0  0  0  0  0  0  0
   16.0949  -20.4288    4.6731 N   0  0  0  0  0  0  0  0  0  0  0  0
   16.2133  -19.0396    5.0227 C   0  0  1  0  0  0  0  0  0  0  0  0
   14.9228  -18.2827    4.9573 C   0  0  0  0  0  0  0  0  0  0  0  0
   14.4588  -18.0428    3.5434 C   0  0  0  0  0  0  0  0  0  0  0  0
   13.2675  -17.1791    3.5730 C   0  0  0  0  0  0  0  0  0  0  0  0
   13.0586  -16.4248    4.5413 O   0  0  0  0  0  0  0  0  0  0  0  0
   16.7907  -18.8663    6.3948 C   0  0  0  0  0  0  0  0  0  0  0  0
   16.6152  -19.7847    7.2655 O   0  0  0  0  0  0  0  0  0  0  0  0
   12.3736  -17.2002    2.5262 O   0  0  0  0  0  0  0  0  0  0  0  0
   17.5149  -17.7490    6.7778 N   0  0  0  0  0  0  0  0  0  0  0  0
   18.0629  -17.5513    8.1665 C   0  0  1  0  0  0  0  0  0  0  0  0
   19.4878  -17.1556    7.9814 C   0  0  0  0  0  0  0  0  0  0  0  0
   20.3516  -16.8280    9.1038 C   0  0  0  0  0  0  0  0  0  0  0  0
   21.7329  -16.3681    8.9736 C   0  0  0  0  0  0  0  0  0  0  0  0
   22.4650  -16.0711   10.2607 C   0  0  0  0  0  0  0  0  0  0  0  0
   23.7699  -15.5229   10.0071 N   0  0  0  0  0  0  0  0  0  0  0  0
   17.2432  -16.5302    8.8040 C   0  0  0  0  0  0  0  0  0  0  0  0
   17.1458  -16.4644   10.2162 O   0  0  0  0  0  0  0  0  0  0  0  0
   16.5969  -15.6795    8.2056 O   0  0  0  0  0  0  0  0  0  0  0  0
  2  1  1  6
  3  2  1  0
  4  3  1  0
  5  4  2  0
  6  7  2  0
  6  2  1  0
  8  4  1  0
  9  6  1  0
 10 11  1  1
 10  9  1  0
 11 12  1  0
 13 17  1  0
 13 12  1  0
 14 13  2  0
 15 18  1  0
 15 10  1  0
 16 15  2  0
 19 18  1  0
 19 20  1  6
 21 20  1  0
 22 21  1  0
 23 22  1  0
 24 23  1  0
 25 26  1  0
 25 19  1  0
 27 25  2  0
M  END
$$$$
