DEK.pdb
     RDKit          3D

 27 26  0  0  1  0  0  0  0  0999 V2000
   21.5426   -1.5528  -18.5348 N   0  0  0  0  0  0  0  0  0  0  0  0
   20.6926   -2.2486  -17.6013 C   0  0  1  0  0  0  0  0  0  0  0  0
   19.2702   -2.1655  -18.0671 C   0  0  0  0  0  0  0  0  0  0  0  0
   18.7209   -0.8329  -17.7188 C   0  0  0  0  0  0  0  0  0  0  0  0
   19.3877   -0.0178  -17.0593 O   0  0  0  0  0  0  0  0  0  0  0  0
   21.1614   -3.6317  -17.4130 C   0  0  0  0  0  0  0  0  0  0  0  0
   21.0718   -4.4618  -18.3668 O   0  0  0  0  0  0  0  0  0  0  0  0
   17.4395   -0.4616  -18.1238 O   0  0  0  0  0  0  0  0  0  0  0  0
   21.7164   -4.0969  -16.2078 N   0  0  0  0  0  0  0  0  0  0  0  0
   22.1473   -5.4478  -15.9719 C   0  0  1  0  0  0  0  0  0  0  0  0
   23.3804   -5.5556  -15.1290 C   0  0  0  0  0  0  0  0  0  0  0  0
   24.6214   -5.0952  -15.8500 C   0  0  0  0  0  0  0  0  0  0  0  0
   25.0030   -6.1148  -16.8403 C   0  0  0  0  0  0  0  0  0  0  0  0
   25.4418   -5.7783  -17.9559 O   0  0  0  0  0  0  0  0  0  0  0  0
   21.0667   -6.2643  -15.3304 C   0  0  0  0  0  0  0  0  0  0  0  0
   20.3896   -5.7593  -14.3718 O   0  0  0  0  0  0  0  0  0  0  0  0
   24.8763   -7.4519  -16.5381 O   0  0  0  0  0  0  0  0  0  0  0  0
   20.7562   -7.5558  -15.7245 N   0  0  0  0  0  0  0  0  0  0  0  0
   19.6142   -8.3482  -15.1451 C   0  0  1  0  0  0  0  0  0  0  0  0
   19.5799   -9.6228  -15.9168 C   0  0  0  0  0  0  0  0  0  0  0  0
   18.6141  -10.6720  -15.6345 C   0  0  0  0  0  0  0  0  0  0  0  0
   18.5118  -11.9214  -16.3862 C   0  0  0  0  0  0  0  0  0  0  0  0
   17.4531  -12.8956  -15.9268 C   0  0  0  0  0  0  0  0  0  0  0  0
   17.5071  -14.1210  -16.6772 N   0  0  0  0  0  0  0  0  0  0  0  0
   19.8960   -8.5224  -13.7269 C   0  0  0  0  0  0  0  0  0  0  0  0
   18.8520   -8.4464  -12.7717 O   0  0  0  0  0  0  0  0  0  0  0  0
   21.0057   -8.7394  -13.2569 O   0  0  0  0  0  0  0  0  0  0  0  0
  2  1  1  6
  3  2  1  0
  4  3  1  0
  5  4  2  0
  6  7  2  0
  6  2  1  0
  8  4  1  0
  9  6  1  0
 10 11  1  1
 10  9  1  0
 11 12  1  0
 13 17  1  0
 13 12  1  0
 14 13  2  0
 15 18  1  0
 15 10  1  0
 16 15  2  0
 19 18  1  0
 19 20  1  6
 21 20  1  0
 22 21  1  0
 23 22  1  0
 24 23  1  0
 25 26  1  0
 25 19  1  0
 27 25  2  0
M  END
$$$$
