DEK.pdb
     RDKit          3D

 27 26  0  0  1  0  0  0  0  0999 V2000
   13.3605   -9.7356  -10.9425 N   0  0  0  0  0  0  0  0  0  0  0  0
   14.7361   -9.6288  -10.5249 C   0  0  1  0  0  0  0  0  0  0  0  0
   15.5584  -10.6452  -11.2582 C   0  0  0  0  0  0  0  0  0  0  0  0
   15.1180  -12.0048  -10.8627 C   0  0  0  0  0  0  0  0  0  0  0  0
   14.2519  -12.1680   -9.9868 O   0  0  0  0  0  0  0  0  0  0  0  0
   15.2215   -8.2504  -10.7055 C   0  0  0  0  0  0  0  0  0  0  0  0
   14.9232   -7.6111  -11.7586 O   0  0  0  0  0  0  0  0  0  0  0  0
   15.6668  -13.1359  -11.4658 O   0  0  0  0  0  0  0  0  0  0  0  0
   16.0161   -7.5855   -9.7548 N   0  0  0  0  0  0  0  0  0  0  0  0
   16.5138   -6.2445   -9.8971 C   0  0  1  0  0  0  0  0  0  0  0  0
   16.2238   -5.3595   -8.7244 C   0  0  0  0  0  0  0  0  0  0  0  0
   14.7982   -4.8704   -8.7016 C   0  0  0  0  0  0  0  0  0  0  0  0
   14.6141   -3.9927   -7.5347 C   0  0  0  0  0  0  0  0  0  0  0  0
   14.0539   -2.8877   -7.6581 O   0  0  0  0  0  0  0  0  0  0  0  0
   17.9922   -6.2310  -10.1417 C   0  0  0  0  0  0  0  0  0  0  0  0
   18.7753   -6.7126   -9.2545 O   0  0  0  0  0  0  0  0  0  0  0  0
   15.0622   -4.3898   -6.2951 O   0  0  0  0  0  0  0  0  0  0  0  0
   18.5661   -5.7176  -11.2935 N   0  0  0  0  0  0  0  0  0  0  0  0
   19.9958   -5.9717  -11.6926 C   0  0  1  0  0  0  0  0  0  0  0  0
   19.9730   -7.2394  -12.4760 C   0  0  0  0  0  0  0  0  0  0  0  0
   21.1716   -7.7959  -13.0818 C   0  0  0  0  0  0  0  0  0  0  0  0
   21.2070   -9.0437  -13.8421 C   0  0  0  0  0  0  0  0  0  0  0  0
   22.5585   -9.4751  -14.3601 C   0  0  0  0  0  0  0  0  0  0  0  0
   22.5321  -10.8359  -14.8241 N   0  0  0  0  0  0  0  0  0  0  0  0
   20.4350   -4.8120  -12.4562 C   0  0  0  0  0  0  0  0  0  0  0  0
   21.8135   -4.5016  -12.5635 O   0  0  0  0  0  0  0  0  0  0  0  0
   19.6886   -4.0398  -13.0445 O   0  0  0  0  0  0  0  0  0  0  0  0
  2  1  1  6
  3  2  1  0
  4  3  1  0
  5  4  2  0
  6  7  2  0
  6  2  1  0
  8  4  1  0
  9  6  1  0
 10 11  1  1
 10  9  1  0
 11 12  1  0
 13 17  1  0
 13 12  1  0
 14 13  2  0
 15 18  1  0
 15 10  1  0
 16 15  2  0
 19 18  1  0
 19 20  1  6
 21 20  1  0
 22 21  1  0
 23 22  1  0
 24 23  1  0
 25 26  1  0
 25 19  1  0
 27 25  2  0
M  END
$$$$
