DEK.pdb
     RDKit          3D

 27 26  0  0  1  0  0  0  0  0999 V2000
   21.8023  -20.9148  -19.4095 N   0  0  0  0  0  0  0  0  0  0  0  0
   23.1478  -20.6938  -18.9417 C   0  0  1  0  0  0  0  0  0  0  0  0
   23.4834  -19.2379  -19.0632 C   0  0  0  0  0  0  0  0  0  0  0  0
   24.1533  -18.9996  -20.3645 C   0  0  0  0  0  0  0  0  0  0  0  0
   24.2235  -19.8959  -21.2223 O   0  0  0  0  0  0  0  0  0  0  0  0
   23.3070  -21.2134  -17.5732 C   0  0  0  0  0  0  0  0  0  0  0  0
   22.3877  -21.0307  -16.7198 O   0  0  0  0  0  0  0  0  0  0  0  0
   24.7222  -17.7609  -20.6576 O   0  0  0  0  0  0  0  0  0  0  0  0
   24.4470  -21.9177  -17.1471 N   0  0  0  0  0  0  0  0  0  0  0  0
   24.6779  -22.3649  -15.8007 C   0  0  1  0  0  0  0  0  0  0  0  0
   25.5638  -23.5683  -15.7019 C   0  0  0  0  0  0  0  0  0  0  0  0
   24.8886  -24.8297  -16.1764 C   0  0  0  0  0  0  0  0  0  0  0  0
   25.8363  -25.9497  -16.0609 C   0  0  0  0  0  0  0  0  0  0  0  0
   26.9963  -25.7555  -15.6525 O   0  0  0  0  0  0  0  0  0  0  0  0
   25.2668  -21.2771  -14.9546 C   0  0  0  0  0  0  0  0  0  0  0  0
   25.8317  -20.2820  -15.5230 O   0  0  0  0  0  0  0  0  0  0  0  0
   25.4443  -27.2237  -16.4052 O   0  0  0  0  0  0  0  0  0  0  0  0
   25.2328  -21.2905  -13.5696 N   0  0  0  0  0  0  0  0  0  0  0  0
   25.9401  -20.2742  -12.7124 C   0  0  1  0  0  0  0  0  0  0  0  0
   25.7427  -20.7298  -11.3071 C   0  0  0  0  0  0  0  0  0  0  0  0
   26.3178  -20.0204  -10.1761 C   0  0  0  0  0  0  0  0  0  0  0  0
   26.1841  -20.4439   -8.7836 C   0  0  0  0  0  0  0  0  0  0  0  0
   26.7658  -19.5178   -7.7421 C   0  0  0  0  0  0  0  0  0  0  0  0
   27.2341  -20.2472   -6.5948 N   0  0  0  0  0  0  0  0  0  0  0  0
   27.3325  -20.2562  -13.1386 C   0  0  0  0  0  0  0  0  0  0  0  0
   28.0627  -19.0419  -13.1586 O   0  0  0  0  0  0  0  0  0  0  0  0
   27.9651  -21.2405  -13.4998 O   0  0  0  0  0  0  0  0  0  0  0  0
  2  1  1  1
  3  2  1  0
  4  3  1  0
  5  4  2  0
  6  7  2  0
  6  2  1  0
  8  4  1  0
  9  6  1  0
 10 11  1  6
 10  9  1  0
 11 12  1  0
 13 17  1  0
 13 12  1  0
 14 13  2  0
 15 18  1  0
 15 10  1  0
 16 15  2  0
 19 18  1  0
 19 20  1  1
 21 20  1  0
 22 21  1  0
 23 22  1  0
 24 23  1  0
 25 26  1  0
 25 19  1  0
 27 25  2  0
M  END
$$$$
