DEK.pdb
     RDKit          3D

 27 26  0  0  1  0  0  0  0  0999 V2000
   18.9249  -13.1632  -15.8366 N   0  0  0  0  0  0  0  0  0  0  0  0
   18.4155  -11.8798  -16.2506 C   0  0  1  0  0  0  0  0  0  0  0  0
   16.9395  -11.9847  -16.4902 C   0  0  0  0  0  0  0  0  0  0  0  0
   16.6935  -12.9274  -17.6081 C   0  0  0  0  0  0  0  0  0  0  0  0
   17.1941  -12.7360  -18.7292 O   0  0  0  0  0  0  0  0  0  0  0  0
   18.7711  -10.8447  -15.2655 C   0  0  0  0  0  0  0  0  0  0  0  0
   18.7189  -11.1102  -14.0271 O   0  0  0  0  0  0  0  0  0  0  0  0
   15.8924  -14.0542  -17.4277 O   0  0  0  0  0  0  0  0  0  0  0  0
   19.1751   -9.5473  -15.6269 N   0  0  0  0  0  0  0  0  0  0  0  0
   19.5657   -8.5223  -14.6979 C   0  0  1  0  0  0  0  0  0  0  0  0
   20.5594   -7.5470  -15.2491 C   0  0  0  0  0  0  0  0  0  0  0  0
   20.9974   -6.5238  -14.2326 C   0  0  0  0  0  0  0  0  0  0  0  0
   21.9554   -5.6032  -14.8656 C   0  0  0  0  0  0  0  0  0  0  0  0
   23.0356   -6.0279  -15.3161 O   0  0  0  0  0  0  0  0  0  0  0  0
   18.3800   -7.7536  -14.1986 C   0  0  0  0  0  0  0  0  0  0  0  0
   17.5049   -7.3449  -15.0348 O   0  0  0  0  0  0  0  0  0  0  0  0
   21.6618   -4.2617  -14.9634 O   0  0  0  0  0  0  0  0  0  0  0  0
   18.1769   -7.4566  -12.8606 N   0  0  0  0  0  0  0  0  0  0  0  0
   16.9886   -6.6829  -12.3535 C   0  0  1  0  0  0  0  0  0  0  0  0
   16.5239   -7.4134  -11.1404 C   0  0  0  0  0  0  0  0  0  0  0  0
   15.4154   -6.9383  -10.3287 C   0  0  0  0  0  0  0  0  0  0  0  0
   14.9771   -7.5668   -9.0840 C   0  0  0  0  0  0  0  0  0  0  0  0
   13.7842   -6.9414   -8.4008 C   0  0  0  0  0  0  0  0  0  0  0  0
   13.3843   -7.6994   -7.2462 N   0  0  0  0  0  0  0  0  0  0  0  0
   17.4483   -5.3268  -12.0877 C   0  0  0  0  0  0  0  0  0  0  0  0
   16.5809   -4.2228  -12.2801 O   0  0  0  0  0  0  0  0  0  0  0  0
   18.5702   -5.0343  -11.6937 O   0  0  0  0  0  0  0  0  0  0  0  0
  2  1  1  1
  3  2  1  0
  4  3  1  0
  5  4  2  0
  6  7  2  0
  6  2  1  0
  8  4  1  0
  9  6  1  0
 10 11  1  6
 10  9  1  0
 11 12  1  0
 13 17  1  0
 13 12  1  0
 14 13  2  0
 15 18  1  0
 15 10  1  0
 16 15  2  0
 19 18  1  0
 19 20  1  1
 21 20  1  0
 22 21  1  0
 23 22  1  0
 24 23  1  0
 25 26  1  0
 25 19  1  0
 27 25  2  0
M  END
$$$$
