DEK.pdb
     RDKit          3D

 27 26  0  0  1  0  0  0  0  0999 V2000
   22.4529  -12.6002  -17.9513 N   0  0  0  0  0  0  0  0  0  0  0  0
   22.9239  -11.2609  -18.2007 C   0  0  1  0  0  0  0  0  0  0  0  0
   23.3681  -11.1479  -19.6279 C   0  0  0  0  0  0  0  0  0  0  0  0
   24.5720  -11.9895  -19.8312 C   0  0  0  0  0  0  0  0  0  0  0  0
   24.4708  -13.1817  -20.1668 O   0  0  0  0  0  0  0  0  0  0  0  0
   21.8908  -10.2773  -17.8352 C   0  0  0  0  0  0  0  0  0  0  0  0
   20.9073  -10.0803  -18.6103 O   0  0  0  0  0  0  0  0  0  0  0  0
   25.8499  -11.4621  -19.6501 O   0  0  0  0  0  0  0  0  0  0  0  0
   21.9323   -9.5255  -16.6478 N   0  0  0  0  0  0  0  0  0  0  0  0
   20.9362   -8.5692  -16.2484 C   0  0  1  0  0  0  0  0  0  0  0  0
   20.1924   -8.9475  -15.0049 C   0  0  0  0  0  0  0  0  0  0  0  0
   19.1218   -7.9511  -14.6401 C   0  0  0  0  0  0  0  0  0  0  0  0
   18.4651   -8.3905  -13.3986 C   0  0  0  0  0  0  0  0  0  0  0  0
   17.4991   -7.7552  -12.9364 O   0  0  0  0  0  0  0  0  0  0  0  0
   21.5318   -7.2092  -16.0443 C   0  0  0  0  0  0  0  0  0  0  0  0
   22.5975   -7.0933  -15.3491 O   0  0  0  0  0  0  0  0  0  0  0  0
   18.9167   -9.5108  -12.7382 O   0  0  0  0  0  0  0  0  0  0  0  0
   20.9831   -6.0530  -16.5750 N   0  0  0  0  0  0  0  0  0  0  0  0
   21.5830   -4.6853  -16.3818 C   0  0  1  0  0  0  0  0  0  0  0  0
   20.8527   -3.7915  -17.3248 C   0  0  0  0  0  0  0  0  0  0  0  0
   21.1166   -2.3639  -17.3984 C   0  0  0  0  0  0  0  0  0  0  0  0
   20.5115   -1.4638  -18.3783 C   0  0  0  0  0  0  0  0  0  0  0  0
   20.9212   -0.0124  -18.2983 C   0  0  0  0  0  0  0  0  0  0  0  0
   20.2878    0.7686  -19.3261 N   0  0  0  0  0  0  0  0  0  0  0  0
   21.4036   -4.3384  -14.9788 C   0  0  0  0  0  0  0  0  0  0  0  0
   22.4803   -3.8074  -14.2259 O   0  0  0  0  0  0  0  0  0  0  0  0
   20.3576   -4.4684  -14.3555 O   0  0  0  0  0  0  0  0  0  0  0  0
  2  1  1  6
  3  2  1  0
  4  3  1  0
  5  4  2  0
  6  7  2  0
  6  2  1  0
  8  4  1  0
  9  6  1  0
 10 11  1  1
 10  9  1  0
 11 12  1  0
 13 17  1  0
 13 12  1  0
 14 13  2  0
 15 18  1  0
 15 10  1  0
 16 15  2  0
 19 18  1  0
 19 20  1  6
 21 20  1  0
 22 21  1  0
 23 22  1  0
 24 23  1  0
 25 26  1  0
 25 19  1  0
 27 25  2  0
M  END
$$$$
