DEK.pdb
     RDKit          3D

 27 26  0  0  1  0  0  0  0  0999 V2000
   15.7201  -12.1127  -11.9673 N   0  0  0  0  0  0  0  0  0  0  0  0
   15.8631  -10.8869  -12.7123 C   0  0  1  0  0  0  0  0  0  0  0  0
   14.5210  -10.4560  -13.2225 C   0  0  0  0  0  0  0  0  0  0  0  0
   14.0720  -11.4028  -14.2717 C   0  0  0  0  0  0  0  0  0  0  0  0
   14.5562  -11.3678  -15.4156 O   0  0  0  0  0  0  0  0  0  0  0  0
   16.5277   -9.8616  -11.8906 C   0  0  0  0  0  0  0  0  0  0  0  0
   16.2672   -9.7811  -10.6527 O   0  0  0  0  0  0  0  0  0  0  0  0
   13.0931  -12.3575  -13.9994 O   0  0  0  0  0  0  0  0  0  0  0  0
   17.4573   -8.9442  -12.4114 N   0  0  0  0  0  0  0  0  0  0  0  0
   18.0805   -7.8915  -11.6566 C   0  0  1  0  0  0  0  0  0  0  0  0
   19.3377   -7.3613  -12.2737 C   0  0  0  0  0  0  0  0  0  0  0  0
   19.9454   -6.2326  -11.4807 C   0  0  0  0  0  0  0  0  0  0  0  0
   21.1772   -5.7878  -12.1520 C   0  0  0  0  0  0  0  0  0  0  0  0
   21.2810   -4.6201  -12.5716 O   0  0  0  0  0  0  0  0  0  0  0  0
   17.1428   -6.7428  -11.4396 C   0  0  0  0  0  0  0  0  0  0  0  0
   16.4764   -6.2865  -12.4295 O   0  0  0  0  0  0  0  0  0  0  0  0
   22.2259   -6.6635  -12.3209 O   0  0  0  0  0  0  0  0  0  0  0  0
   16.9555   -6.1387  -10.2069 N   0  0  0  0  0  0  0  0  0  0  0  0
   15.9573   -5.0371   -9.9658 C   0  0  1  0  0  0  0  0  0  0  0  0
   14.9760   -5.5930   -8.9914 C   0  0  0  0  0  0  0  0  0  0  0  0
   13.8791   -4.8003   -8.4608 C   0  0  0  0  0  0  0  0  0  0  0  0
   12.9157   -5.2835   -7.4736 C   0  0  0  0  0  0  0  0  0  0  0  0
   11.8128   -4.3263   -7.0885 C   0  0  0  0  0  0  0  0  0  0  0  0
   10.9213   -4.9138   -6.1253 N   0  0  0  0  0  0  0  0  0  0  0  0
   16.7038   -3.8911   -9.4653 C   0  0  0  0  0  0  0  0  0  0  0  0
   16.1303   -2.5954   -9.4846 O   0  0  0  0  0  0  0  0  0  0  0  0
   17.8377   -3.9429   -9.0060 O   0  0  0  0  0  0  0  0  0  0  0  0
  2  1  1  1
  3  2  1  0
  4  3  1  0
  5  4  2  0
  6  7  2  0
  6  2  1  0
  8  4  1  0
  9  6  1  0
 10 11  1  6
 10  9  1  0
 11 12  1  0
 13 17  1  0
 13 12  1  0
 14 13  2  0
 15 18  1  0
 15 10  1  0
 16 15  2  0
 19 18  1  0
 19 20  1  1
 21 20  1  0
 22 21  1  0
 23 22  1  0
 24 23  1  0
 25 26  1  0
 25 19  1  0
 27 25  2  0
M  END
$$$$
