DEK.pdb
     RDKit          3D

 27 26  0  0  1  0  0  0  0  0999 V2000
   17.8171  -11.2754  -14.9920 N   0  0  0  0  0  0  0  0  0  0  0  0
   17.4883   -9.8722  -14.9629 C   0  0  1  0  0  0  0  0  0  0  0  0
   16.0696   -9.6848  -15.4091 C   0  0  0  0  0  0  0  0  0  0  0  0
   15.9951   -9.8565  -16.8802 C   0  0  0  0  0  0  0  0  0  0  0  0
   14.8999   -9.9560  -17.4587 O   0  0  0  0  0  0  0  0  0  0  0  0
   17.7555   -9.3102  -13.6284 C   0  0  0  0  0  0  0  0  0  0  0  0
   17.3480   -9.9211  -12.5952 O   0  0  0  0  0  0  0  0  0  0  0  0
   17.1553   -9.9109  -17.6516 O   0  0  0  0  0  0  0  0  0  0  0  0
   18.4536   -8.1061  -13.4281 N   0  0  0  0  0  0  0  0  0  0  0  0
   18.6896   -7.4995  -12.1464 C   0  0  1  0  0  0  0  0  0  0  0  0
   19.7497   -6.4419  -12.1590 C   0  0  0  0  0  0  0  0  0  0  0  0
   21.1124   -6.9864  -12.5035 C   0  0  0  0  0  0  0  0  0  0  0  0
   22.1026   -5.9045  -12.3815 C   0  0  0  0  0  0  0  0  0  0  0  0
   22.7000   -5.7139  -11.3059 O   0  0  0  0  0  0  0  0  0  0  0  0
   17.4361   -6.9018  -11.5831 C   0  0  0  0  0  0  0  0  0  0  0  0
   16.6652   -6.2319  -12.3508 O   0  0  0  0  0  0  0  0  0  0  0  0
   22.3750   -5.0936  -13.4601 O   0  0  0  0  0  0  0  0  0  0  0  0
   17.0608   -7.0369  -10.2563 N   0  0  0  0  0  0  0  0  0  0  0  0
   15.8368   -6.3844   -9.6696 C   0  0  1  0  0  0  0  0  0  0  0  0
   15.0329   -7.4952   -9.0854 C   0  0  0  0  0  0  0  0  0  0  0  0
   13.7624   -7.2625   -8.4184 C   0  0  0  0  0  0  0  0  0  0  0  0
   12.9151   -8.3189   -7.8684 C   0  0  0  0  0  0  0  0  0  0  0  0
   11.6388   -7.8728   -7.1955 C   0  0  0  0  0  0  0  0  0  0  0  0
   10.8386   -8.9969   -6.7910 N   0  0  0  0  0  0  0  0  0  0  0  0
   16.3031   -5.4127   -8.6902 C   0  0  0  0  0  0  0  0  0  0  0  0
   15.5156   -4.2785   -8.3714 O   0  0  0  0  0  0  0  0  0  0  0  0
   17.3650   -5.4857   -8.0849 O   0  0  0  0  0  0  0  0  0  0  0  0
  2  1  1  1
  3  2  1  0
  4  3  1  0
  5  4  2  0
  6  7  2  0
  6  2  1  0
  8  4  1  0
  9  6  1  0
 10 11  1  6
 10  9  1  0
 11 12  1  0
 13 17  1  0
 13 12  1  0
 14 13  2  0
 15 18  1  0
 15 10  1  0
 16 15  2  0
 19 18  1  0
 19 20  1  1
 21 20  1  0
 22 21  1  0
 23 22  1  0
 24 23  1  0
 25 26  1  0
 25 19  1  0
 27 25  2  0
M  END
$$$$
