DEK.pdb
     RDKit          3D

 27 26  0  0  1  0  0  0  0  0999 V2000
   15.8239  -12.5819  -16.4505 N   0  0  0  0  0  0  0  0  0  0  0  0
   16.4671  -11.9251  -15.3401 C   0  0  1  0  0  0  0  0  0  0  0  0
   17.6030  -12.7726  -14.8516 C   0  0  0  0  0  0  0  0  0  0  0  0
   17.0685  -14.0630  -14.3535 C   0  0  0  0  0  0  0  0  0  0  0  0
   17.5238  -15.1450  -14.7612 O   0  0  0  0  0  0  0  0  0  0  0  0
   16.8805  -10.5636  -15.7189 C   0  0  0  0  0  0  0  0  0  0  0  0
   17.0183  -10.2655  -16.9433 O   0  0  0  0  0  0  0  0  0  0  0  0
   16.0394  -14.0934  -13.4133 O   0  0  0  0  0  0  0  0  0  0  0  0
   17.1377   -9.5498  -14.7791 N   0  0  0  0  0  0  0  0  0  0  0  0
   17.5885   -8.2247  -15.1062 C   0  0  1  0  0  0  0  0  0  0  0  0
   16.7621   -7.1330  -14.4997 C   0  0  0  0  0  0  0  0  0  0  0  0
   15.3464   -7.1178  -15.0168 C   0  0  0  0  0  0  0  0  0  0  0  0
   14.5904   -6.0745  -14.3055 C   0  0  0  0  0  0  0  0  0  0  0  0
   15.1382   -5.3900  -13.4213 O   0  0  0  0  0  0  0  0  0  0  0  0
   19.0157   -8.0148  -14.6998 C   0  0  0  0  0  0  0  0  0  0  0  0
   19.4016   -8.4148  -13.5494 O   0  0  0  0  0  0  0  0  0  0  0  0
   13.2681   -5.8485  -14.6144 O   0  0  0  0  0  0  0  0  0  0  0  0
   19.9542   -7.4016  -15.5140 N   0  0  0  0  0  0  0  0  0  0  0  0
   21.3838   -7.1679  -15.1022 C   0  0  1  0  0  0  0  0  0  0  0  0
   22.1975   -7.4113  -16.3269 C   0  0  0  0  0  0  0  0  0  0  0  0
   23.6459   -7.2873  -16.3304 C   0  0  0  0  0  0  0  0  0  0  0  0
   24.4906   -7.5291  -17.4984 C   0  0  0  0  0  0  0  0  0  0  0  0
   25.9771   -7.3515  -17.2993 C   0  0  0  0  0  0  0  0  0  0  0  0
   26.7123   -7.7267  -18.4767 N   0  0  0  0  0  0  0  0  0  0  0  0
   21.4624   -5.8028  -14.6011 C   0  0  0  0  0  0  0  0  0  0  0  0
   22.4489   -5.4417  -13.6499 O   0  0  0  0  0  0  0  0  0  0  0  0
   20.7195   -4.8904  -14.9404 O   0  0  0  0  0  0  0  0  0  0  0  0
  2  1  1  6
  3  2  1  0
  4  3  1  0
  5  4  2  0
  6  7  2  0
  6  2  1  0
  8  4  1  0
  9  6  1  0
 10 11  1  1
 10  9  1  0
 11 12  1  0
 13 17  1  0
 13 12  1  0
 14 13  2  0
 15 18  1  0
 15 10  1  0
 16 15  2  0
 19 18  1  0
 19 20  1  6
 21 20  1  0
 22 21  1  0
 23 22  1  0
 24 23  1  0
 25 26  1  0
 25 19  1  0
 27 25  2  0
M  END
$$$$
