SWP.pdb
     RDKit          3D

 28 30  0  0  1  0  0  0  0  0999 V2000
    9.1499  -20.1664   19.2610 O   0  0  0  0  0  0  0  0  0  0  0  0
    7.9094  -20.2692   19.8666 C   0  0  0  0  0  0  0  0  0  0  0  0
    7.0607  -19.0368   19.6693 C   0  0  2  0  0  0  0  0  0  0  0  0
    7.0055  -18.5672   18.3176 N   0  0  0  0  0  0  0  0  0  0  0  0
    7.5663  -17.9710   20.5673 C   0  0  0  0  0  0  0  0  0  0  0  0
    8.4549  -17.1624   20.1304 O   0  0  0  0  0  0  0  0  0  0  0  0
    7.1471  -17.7608   21.8951 N   0  0  0  0  0  0  0  0  0  0  0  0
    7.6442  -16.6819   22.7492 C   0  0  1  0  0  0  0  0  0  0  0  0
    6.6191  -16.2084   23.7191 C   0  0  0  0  0  0  0  0  0  0  0  0
    6.8745  -14.8949   24.3415 C   0  0  0  0  0  0  0  0  0  0  0  0
    6.5497  -13.6597   23.7670 C   0  0  0  0  0  0  0  0  0  0  0  0
    6.9363  -12.6692   24.5826 N   0  0  0  0  0  0  0  0  0  0  0  0
    7.5078  -13.1919   25.6842 C   0  0  0  0  0  0  0  0  0  0  0  0
    8.0522  -12.6219   26.8095 C   0  0  0  0  0  0  0  0  0  0  0  0
    8.5553  -13.4595   27.7817 C   0  0  0  0  0  0  0  0  0  0  0  0
    8.5345  -14.8262   27.6715 C   0  0  0  0  0  0  0  0  0  0  0  0
    7.9851  -15.3743   26.5362 C   0  0  0  0  0  0  0  0  0  0  0  0
    7.4722  -14.5784   25.5406 C   0  0  0  0  0  0  0  0  0  0  0  0
    8.9590  -17.0090   23.2781 C   0  0  0  0  0  0  0  0  0  0  0  0
    9.1523  -18.2132   23.6663 O   0  0  0  0  0  0  0  0  0  0  0  0
   10.0451  -16.1158   23.3987 N   0  0  0  0  0  0  0  0  0  0  0  0
   10.0759  -14.6792   23.2087 C   0  0  0  0  0  0  0  0  0  0  0  0
   11.5022  -14.3172   22.8162 C   0  0  0  0  0  0  0  0  0  0  0  0
   12.2903  -15.6006   22.8748 C   0  0  0  0  0  0  0  0  0  0  0  0
   11.4032  -16.4829   23.7381 C   0  0  1  0  0  0  0  0  0  0  0  0
   11.7623  -16.2632   25.1477 C   0  0  0  0  0  0  0  0  0  0  0  0
   10.8900  -15.8095   26.0905 O   0  0  0  0  0  0  0  0  0  0  0  0
   12.9481  -16.5145   25.4812 O   0  0  0  0  0  0  0  0  0  0  0  0
  2  1  1  0
  3  4  1  6
  3  2  1  0
  5  3  1  0
  6  5  2  0
  7  5  1  0
  8  7  1  0
  9 10  1  0
  8  9  1  1
 10 18  1  0
 11 12  1  0
 11 10  2  0
 12 13  1  0
 13 18  2  0
 13 14  1  0
 14 15  2  0
 15 16  1  0
 17 16  2  0
 18 17  1  0
 19 21  1  0
 19  8  1  0
 20 19  2  0
 21 25  1  0
 22 23  1  0
 22 21  1  0
 23 24  1  0
 24 25  1  0
 25 26  1  1
 26 27  1  0
 28 26  2  0
M  END
$$$$
