SWP.pdb
     RDKit          3D

 28 30  0  0  1  0  0  0  0  0999 V2000
   13.5867  -18.2877   22.3004 O   0  0  0  0  0  0  0  0  0  0  0  0
   12.4597  -18.3180   21.4971 C   0  0  0  0  0  0  0  0  0  0  0  0
   12.0909  -16.9568   20.9592 C   0  0  2  0  0  0  0  0  0  0  0  0
   13.1906  -16.2182   20.4153 N   0  0  0  0  0  0  0  0  0  0  0  0
   11.4355  -16.1865   22.0432 C   0  0  0  0  0  0  0  0  0  0  0  0
   12.0904  -15.2554   22.6251 O   0  0  0  0  0  0  0  0  0  0  0  0
   10.1211  -16.3912   22.5051 N   0  0  0  0  0  0  0  0  0  0  0  0
    9.5383  -15.6930   23.6512 C   0  0  1  0  0  0  0  0  0  0  0  0
    8.0877  -15.4142   23.4677 C   0  0  0  0  0  0  0  0  0  0  0  0
    7.3835  -14.8521   24.6365 C   0  0  0  0  0  0  0  0  0  0  0  0
    6.7289  -15.6081   25.6168 C   0  0  0  0  0  0  0  0  0  0  0  0
    6.1765  -14.7886   26.5219 N   0  0  0  0  0  0  0  0  0  0  0  0
    6.4359  -13.5102   26.1875 C   0  0  0  0  0  0  0  0  0  0  0  0
    6.1120  -12.3110   26.7743 C   0  0  0  0  0  0  0  0  0  0  0  0
    6.5525  -11.1534   26.1695 C   0  0  0  0  0  0  0  0  0  0  0  0
    7.2944  -11.1511   25.0161 C   0  0  0  0  0  0  0  0  0  0  0  0
    7.6064  -12.3633   24.4464 C   0  0  0  0  0  0  0  0  0  0  0  0
    7.1880  -13.5426   25.0138 C   0  0  0  0  0  0  0  0  0  0  0  0
    9.9414  -16.3250   24.8976 C   0  0  0  0  0  0  0  0  0  0  0  0
   10.4229  -17.5087   24.8264 O   0  0  0  0  0  0  0  0  0  0  0  0
    9.8521  -15.7469   26.1821 N   0  0  0  0  0  0  0  0  0  0  0  0
    9.0873  -14.5953   26.6178 C   0  0  0  0  0  0  0  0  0  0  0  0
    9.8079  -14.0211   27.8304 C   0  0  0  0  0  0  0  0  0  0  0  0
   10.9637  -14.9479   28.1074 C   0  0  0  0  0  0  0  0  0  0  0  0
   10.5508  -16.2072   27.3628 C   0  0  1  0  0  0  0  0  0  0  0  0
    9.7410  -17.0367   28.2687 C   0  0  0  0  0  0  0  0  0  0  0  0
   10.2133  -17.5789   29.4257 O   0  0  0  0  0  0  0  0  0  0  0  0
    8.5463  -17.2456   27.9375 O   0  0  0  0  0  0  0  0  0  0  0  0
  2  1  1  0
  3  4  1  1
  3  2  1  0
  5  3  1  0
  6  5  2  0
  7  5  1  0
  8  7  1  0
  9 10  1  0
  8  9  1  6
 10 18  1  0
 11 12  1  0
 11 10  2  0
 12 13  1  0
 13 18  2  0
 13 14  1  0
 14 15  2  0
 15 16  1  0
 17 16  2  0
 18 17  1  0
 19 21  1  0
 19  8  1  0
 20 19  2  0
 21 25  1  0
 22 23  1  0
 22 21  1  0
 23 24  1  0
 24 25  1  0
 25 26  1  1
 26 27  1  0
 28 26  2  0
M  END
$$$$
