SWP.pdb
     RDKit          3D

 28 30  0  0  1  0  0  0  0  0999 V2000
   12.9721  -18.5766   22.1466 O   0  0  0  0  0  0  0  0  0  0  0  0
   12.0611  -18.3499   21.1293 C   0  0  0  0  0  0  0  0  0  0  0  0
   11.8758  -16.8823   20.8294 C   0  0  2  0  0  0  0  0  0  0  0  0
   13.0640  -16.2138   20.3913 N   0  0  0  0  0  0  0  0  0  0  0  0
   11.3266  -16.2228   22.0384 C   0  0  0  0  0  0  0  0  0  0  0  0
   12.1240  -15.6040   22.8231 O   0  0  0  0  0  0  0  0  0  0  0  0
    9.9694  -16.2147   22.4136 N   0  0  0  0  0  0  0  0  0  0  0  0
    9.4521  -15.5309   23.5992 C   0  0  1  0  0  0  0  0  0  0  0  0
    7.9943  -15.2473   23.4995 C   0  0  0  0  0  0  0  0  0  0  0  0
    7.3537  -14.7137   24.7173 C   0  0  0  0  0  0  0  0  0  0  0  0
    6.8158  -15.4952   25.7473 C   0  0  0  0  0  0  0  0  0  0  0  0
    6.2931  -14.6986   26.6897 N   0  0  0  0  0  0  0  0  0  0  0  0
    6.4602  -13.4111   26.3324 C   0  0  0  0  0  0  0  0  0  0  0  0
    6.1210  -12.2258   26.9388 C   0  0  0  0  0  0  0  0  0  0  0  0
    6.4540  -11.0516   26.2984 C   0  0  0  0  0  0  0  0  0  0  0  0
    7.1043  -11.0195   25.0915 C   0  0  0  0  0  0  0  0  0  0  0  0
    7.4335  -12.2182   24.5032 C   0  0  0  0  0  0  0  0  0  0  0  0
    7.1209  -13.4133   25.1045 C   0  0  0  0  0  0  0  0  0  0  0  0
    9.9217  -16.1803   24.8130 C   0  0  0  0  0  0  0  0  0  0  0  0
   10.2406  -17.4171   24.7311 O   0  0  0  0  0  0  0  0  0  0  0  0
   10.0607  -15.5661   26.0762 N   0  0  0  0  0  0  0  0  0  0  0  0
    9.6403  -14.2470   26.5053 C   0  0  0  0  0  0  0  0  0  0  0  0
   10.5560  -13.8447   27.6537 C   0  0  0  0  0  0  0  0  0  0  0  0
   11.4549  -15.0279   27.9058 C   0  0  0  0  0  0  0  0  0  0  0  0
   10.6919  -16.1590   27.2356 C   0  0  1  0  0  0  0  0  0  0  0  0
    9.7562  -16.7316   28.2159 C   0  0  0  0  0  0  0  0  0  0  0  0
    8.4227  -16.8911   27.9877 O   0  0  0  0  0  0  0  0  0  0  0  0
   10.2349  -17.0880   29.3224 O   0  0  0  0  0  0  0  0  0  0  0  0
  2  1  1  0
  3  4  1  1
  3  2  1  0
  5  3  1  0
  6  5  2  0
  7  5  1  0
  8  7  1  0
  9 10  1  0
  8  9  1  6
 10 18  1  0
 11 12  1  0
 11 10  2  0
 12 13  1  0
 13 18  2  0
 13 14  1  0
 14 15  2  0
 15 16  1  0
 17 16  2  0
 18 17  1  0
 19 21  1  0
 19  8  1  0
 20 19  2  0
 21 25  1  0
 22 23  1  0
 22 21  1  0
 23 24  1  0
 24 25  1  0
 25 26  1  1
 26 27  1  0
 28 26  2  0
M  END
$$$$
