SWP.pdb
     RDKit          3D

 28 30  0  0  1  0  0  0  0  0999 V2000
   11.3853  -17.8236   21.3884 O   0  0  0  0  0  0  0  0  0  0  0  0
   11.0333  -16.6853   20.6838 C   0  0  0  0  0  0  0  0  0  0  0  0
    9.6295  -16.2221   20.9886 C   0  0  2  0  0  0  0  0  0  0  0  0
    9.1615  -15.1611   20.1485 N   0  0  0  0  0  0  0  0  0  0  0  0
    9.5682  -15.8192   22.4141 C   0  0  0  0  0  0  0  0  0  0  0  0
   10.0571  -14.6898   22.7604 O   0  0  0  0  0  0  0  0  0  0  0  0
    9.0059  -16.5871   23.4519 N   0  0  0  0  0  0  0  0  0  0  0  0
    8.9409  -16.1537   24.8478 C   0  0  1  0  0  0  0  0  0  0  0  0
    7.5894  -16.3493   25.4400 C   0  0  0  0  0  0  0  0  0  0  0  0
    6.6910  -15.1790   25.4038 C   0  0  0  0  0  0  0  0  0  0  0  0
    5.3222  -15.2289   25.1123 C   0  0  0  0  0  0  0  0  0  0  0  0
    4.8110  -13.9905   25.1420 N   0  0  0  0  0  0  0  0  0  0  0  0
    5.7843  -13.1101   25.4435 C   0  0  0  0  0  0  0  0  0  0  0  0
    5.7875  -11.7456   25.6044 C   0  0  0  0  0  0  0  0  0  0  0  0
    6.9786  -11.1344   25.9321 C   0  0  0  0  0  0  0  0  0  0  0  0
    8.1497  -11.8273   26.1023 C   0  0  0  0  0  0  0  0  0  0  0  0
    8.1225  -13.1922   25.9358 C   0  0  0  0  0  0  0  0  0  0  0  0
    6.9583  -13.8441   25.6084 C   0  0  0  0  0  0  0  0  0  0  0  0
   10.0763  -16.6661   25.5987 C   0  0  0  0  0  0  0  0  0  0  0  0
   10.8008  -17.5562   25.0323 O   0  0  0  0  0  0  0  0  0  0  0  0
   10.4538  -16.2661   26.8985 N   0  0  0  0  0  0  0  0  0  0  0  0
    9.7853  -15.3569   27.8082 C   0  0  0  0  0  0  0  0  0  0  0  0
   10.8580  -14.7823   28.7239 C   0  0  0  0  0  0  0  0  0  0  0  0
   12.1442  -15.4701   28.3441 C   0  0  0  0  0  0  0  0  0  0  0  0
   11.6441  -16.6974   27.5996 C   0  0  1  0  0  0  0  0  0  0  0  0
   11.4221  -17.7740   28.5773 C   0  0  0  0  0  0  0  0  0  0  0  0
   10.2051  -18.3334   28.8257 O   0  0  0  0  0  0  0  0  0  0  0  0
   12.4267  -18.1876   29.2099 O   0  0  0  0  0  0  0  0  0  0  0  0
  2  1  1  0
  3  4  1  6
  3  2  1  0
  5  3  1  0
  6  5  2  0
  7  5  1  0
  8  7  1  0
  9 10  1  0
  8  9  1  1
 10 18  1  0
 11 12  1  0
 11 10  2  0
 12 13  1  0
 13 18  2  0
 13 14  1  0
 14 15  2  0
 15 16  1  0
 17 16  2  0
 18 17  1  0
 19 21  1  0
 19  8  1  0
 20 19  2  0
 21 25  1  0
 22 23  1  0
 22 21  1  0
 23 24  1  0
 24 25  1  0
 25 26  1  1
 26 27  1  0
 28 26  2  0
M  END
$$$$
