SWP.pdb
     RDKit          3D

 28 30  0  0  1  0  0  0  0  0999 V2000
    5.8496  -20.3796   20.9711 O   0  0  0  0  0  0  0  0  0  0  0  0
    5.2052  -20.6458   22.1670 C   0  0  0  0  0  0  0  0  0  0  0  0
    4.2242  -19.5657   22.5532 C   0  0  2  0  0  0  0  0  0  0  0  0
    3.2091  -19.3119   21.5756 N   0  0  0  0  0  0  0  0  0  0  0  0
    4.9832  -18.3261   22.8452 C   0  0  0  0  0  0  0  0  0  0  0  0
    4.9932  -17.3867   21.9780 O   0  0  0  0  0  0  0  0  0  0  0  0
    5.7155  -18.0801   24.0226 N   0  0  0  0  0  0  0  0  0  0  0  0
    6.4799  -16.8575   24.2706 C   0  0  1  0  0  0  0  0  0  0  0  0
    6.7222  -16.6245   25.7207 C   0  0  0  0  0  0  0  0  0  0  0  0
    7.4896  -15.4111   26.0622 C   0  0  0  0  0  0  0  0  0  0  0  0
    8.8790  -15.3631   26.2301 C   0  0  0  0  0  0  0  0  0  0  0  0
    9.2494  -14.1173   26.5567 N   0  0  0  0  0  0  0  0  0  0  0  0
    8.1615  -13.3258   26.6137 C   0  0  0  0  0  0  0  0  0  0  0  0
    7.9960  -11.9903   26.8905 C   0  0  0  0  0  0  0  0  0  0  0  0
    6.7187  -11.4739   26.8528 C   0  0  0  0  0  0  0  0  0  0  0  0
    5.6166  -12.2330   26.5529 C   0  0  0  0  0  0  0  0  0  0  0  0
    5.8064  -13.5674   26.2797 C   0  0  0  0  0  0  0  0  0  0  0  0
    7.0615  -14.1256   26.3061 C   0  0  0  0  0  0  0  0  0  0  0  0
    7.6301  -16.7815   23.3837 C   0  0  0  0  0  0  0  0  0  0  0  0
    8.2438  -17.8741   23.1236 O   0  0  0  0  0  0  0  0  0  0  0  0
    8.1298  -15.6078   22.7797 N   0  0  0  0  0  0  0  0  0  0  0  0
    7.7210  -14.2309   22.9752 C   0  0  0  0  0  0  0  0  0  0  0  0
    8.0680  -13.4825   21.6951 C   0  0  0  0  0  0  0  0  0  0  0  0
    8.7645  -14.4788   20.8040 C   0  0  0  0  0  0  0  0  0  0  0  0
    9.1868  -15.5533   21.7928 C   0  0  1  0  0  0  0  0  0  0  0  0
   10.5083  -15.1946   22.3307 C   0  0  0  0  0  0  0  0  0  0  0  0
   10.7443  -14.9258   23.6451 O   0  0  0  0  0  0  0  0  0  0  0  0
   11.4619  -15.1382   21.5134 O   0  0  0  0  0  0  0  0  0  0  0  0
  2  1  1  0
  3  4  1  6
  3  2  1  0
  5  3  1  0
  6  5  2  0
  7  5  1  0
  8  7  1  0
  9 10  1  0
  8  9  1  1
 10 18  1  0
 11 12  1  0
 11 10  2  0
 12 13  1  0
 13 18  2  0
 13 14  1  0
 14 15  2  0
 15 16  1  0
 17 16  2  0
 18 17  1  0
 19 21  1  0
 19  8  1  0
 20 19  2  0
 21 25  1  0
 22 23  1  0
 22 21  1  0
 23 24  1  0
 24 25  1  0
 25 26  1  1
 26 27  1  0
 28 26  2  0
M  END
$$$$
