SWP.pdb
     RDKit          3D

 28 30  0  0  1  0  0  0  0  0999 V2000
   13.3237  -18.6119   22.0334 O   0  0  0  0  0  0  0  0  0  0  0  0
   12.1949  -18.4088   21.2584 C   0  0  0  0  0  0  0  0  0  0  0  0
   11.9847  -16.9567   20.9044 C   0  0  2  0  0  0  0  0  0  0  0  0
   13.1684  -16.2762   20.4728 N   0  0  0  0  0  0  0  0  0  0  0  0
   11.3909  -16.2699   22.0764 C   0  0  0  0  0  0  0  0  0  0  0  0
   12.1338  -15.5192   22.7968 O   0  0  0  0  0  0  0  0  0  0  0  0
   10.0461  -16.3707   22.4818 N   0  0  0  0  0  0  0  0  0  0  0  0
    9.4812  -15.6580   23.6279 C   0  0  1  0  0  0  0  0  0  0  0  0
    8.0345  -15.3557   23.4508 C   0  0  0  0  0  0  0  0  0  0  0  0
    7.3289  -14.8456   24.6424 C   0  0  0  0  0  0  0  0  0  0  0  0
    6.6816  -15.6447   25.5929 C   0  0  0  0  0  0  0  0  0  0  0  0
    6.1257  -14.8659   26.5311 N   0  0  0  0  0  0  0  0  0  0  0  0
    6.3757  -13.5734   26.2476 C   0  0  0  0  0  0  0  0  0  0  0  0
    6.0449  -12.4008   26.8826 C   0  0  0  0  0  0  0  0  0  0  0  0
    6.4764  -11.2170   26.3238 C   0  0  0  0  0  0  0  0  0  0  0  0
    7.2157  -11.1635   25.1701 C   0  0  0  0  0  0  0  0  0  0  0  0
    7.5346  -12.3498   24.5518 C   0  0  0  0  0  0  0  0  0  0  0  0
    7.1255  -13.5536   25.0722 C   0  0  0  0  0  0  0  0  0  0  0  0
    9.8802  -16.2914   24.8749 C   0  0  0  0  0  0  0  0  0  0  0  0
   10.2399  -17.5185   24.8209 O   0  0  0  0  0  0  0  0  0  0  0  0
    9.9096  -15.6714   26.1425 N   0  0  0  0  0  0  0  0  0  0  0  0
    9.3327  -14.4085   26.5587 C   0  0  0  0  0  0  0  0  0  0  0  0
   10.1607  -13.9130   27.7369 C   0  0  0  0  0  0  0  0  0  0  0  0
   11.1757  -14.9913   28.0174 C   0  0  0  0  0  0  0  0  0  0  0  0
   10.5642  -16.1965   27.3215 C   0  0  1  0  0  0  0  0  0  0  0  0
    9.6658  -16.8730   28.2700 C   0  0  0  0  0  0  0  0  0  0  0  0
   10.0726  -17.3883   29.4636 O   0  0  0  0  0  0  0  0  0  0  0  0
    8.4564  -16.9710   27.9410 O   0  0  0  0  0  0  0  0  0  0  0  0
  2  1  1  0
  3  4  1  1
  3  2  1  0
  5  3  1  0
  6  5  2  0
  7  5  1  0
  8  7  1  0
  9 10  1  0
  8  9  1  6
 10 18  1  0
 11 12  1  0
 11 10  2  0
 12 13  1  0
 13 18  2  0
 13 14  1  0
 14 15  2  0
 15 16  1  0
 17 16  2  0
 18 17  1  0
 19 21  1  0
 19  8  1  0
 20 19  2  0
 21 25  1  0
 22 23  1  0
 22 21  1  0
 23 24  1  0
 24 25  1  0
 25 26  1  1
 26 27  1  0
 28 26  2  0
M  END
$$$$
