SWP.pdb
     RDKit          3D

 28 30  0  0  1  0  0  0  0  0999 V2000
    6.7825  -20.6065   21.4038 O   0  0  0  0  0  0  0  0  0  0  0  0
    6.1957  -21.0122   22.5901 C   0  0  0  0  0  0  0  0  0  0  0  0
    5.0645  -20.1096   23.0190 C   0  0  2  0  0  0  0  0  0  0  0  0
    3.9987  -20.0050   22.0684 N   0  0  0  0  0  0  0  0  0  0  0  0
    5.6228  -18.7696   23.3204 C   0  0  0  0  0  0  0  0  0  0  0  0
    5.4979  -17.8372   22.4547 O   0  0  0  0  0  0  0  0  0  0  0  0
    6.2976  -18.4185   24.5054 N   0  0  0  0  0  0  0  0  0  0  0  0
    6.8562  -17.0917   24.7667 C   0  0  1  0  0  0  0  0  0  0  0  0
    6.8903  -16.7666   26.2188 C   0  0  0  0  0  0  0  0  0  0  0  0
    7.1663  -15.3577   26.5607 C   0  0  0  0  0  0  0  0  0  0  0  0
    6.2506  -14.3068   26.4259 C   0  0  0  0  0  0  0  0  0  0  0  0
    6.8273  -13.1572   26.8025 N   0  0  0  0  0  0  0  0  0  0  0  0
    8.0958  -13.3959   27.1863 C   0  0  0  0  0  0  0  0  0  0  0  0
    9.0940  -12.5791   27.6594 C   0  0  0  0  0  0  0  0  0  0  0  0
   10.3046  -13.1543   27.9805 C   0  0  0  0  0  0  0  0  0  0  0  0
   10.5503  -14.4970   27.8479 C   0  0  0  0  0  0  0  0  0  0  0  0
    9.5364  -15.2950   27.3720 C   0  0  0  0  0  0  0  0  0  0  0  0
    8.3134  -14.7653   27.0385 C   0  0  0  0  0  0  0  0  0  0  0  0
    8.0835  -16.8929   24.0119 C   0  0  0  0  0  0  0  0  0  0  0  0
    8.8287  -17.9162   23.8232 O   0  0  0  0  0  0  0  0  0  0  0  0
    8.5260  -15.6696   23.4643 N   0  0  0  0  0  0  0  0  0  0  0  0
    8.0561  -14.3240   23.7280 C   0  0  0  0  0  0  0  0  0  0  0  0
    8.3619  -13.4991   22.4849 C   0  0  0  0  0  0  0  0  0  0  0  0
    9.0981  -14.4181   21.5441 C   0  0  0  0  0  0  0  0  0  0  0  0
    9.5741  -15.5190   22.4779 C   0  0  1  0  0  0  0  0  0  0  0  0
   10.8808  -15.1269   23.0285 C   0  0  0  0  0  0  0  0  0  0  0  0
   12.0202  -15.0384   22.2871 O   0  0  0  0  0  0  0  0  0  0  0  0
   10.9274  -14.8625   24.2566 O   0  0  0  0  0  0  0  0  0  0  0  0
  2  1  1  0
  3  4  1  6
  3  2  1  0
  5  3  1  0
  6  5  2  0
  7  5  1  0
  8  7  1  0
  9 10  1  0
  8  9  1  1
 10 18  1  0
 11 12  1  0
 11 10  2  0
 12 13  1  0
 13 18  2  0
 13 14  1  0
 14 15  2  0
 15 16  1  0
 17 16  2  0
 18 17  1  0
 19 21  1  0
 19  8  1  0
 20 19  2  0
 21 25  1  0
 22 23  1  0
 22 21  1  0
 23 24  1  0
 24 25  1  0
 25 26  1  1
 26 27  1  0
 28 26  2  0
M  END
$$$$
