SWP.pdb
     RDKit          3D

 28 30  0  0  1  0  0  0  0  0999 V2000
   11.5272  -19.0423   20.1620 O   0  0  0  0  0  0  0  0  0  0  0  0
   10.4198  -18.6176   19.4483 C   0  0  0  0  0  0  0  0  0  0  0  0
   10.3652  -17.1169   19.2959 C   0  0  2  0  0  0  0  0  0  0  0  0
   11.5216  -16.5432   18.6760 N   0  0  0  0  0  0  0  0  0  0  0  0
   10.1442  -16.5179   20.6339 C   0  0  0  0  0  0  0  0  0  0  0  0
   11.1505  -16.0854   21.2932 O   0  0  0  0  0  0  0  0  0  0  0  0
    8.8929  -16.3772   21.2644 N   0  0  0  0  0  0  0  0  0  0  0  0
    8.7158  -15.8866   22.6314 C   0  0  1  0  0  0  0  0  0  0  0  0
    7.3337  -15.3945   22.8827 C   0  0  0  0  0  0  0  0  0  0  0  0
    7.0538  -14.9215   24.2523 C   0  0  0  0  0  0  0  0  0  0  0  0
    6.6290  -15.7356   25.3096 C   0  0  0  0  0  0  0  0  0  0  0  0
    6.4460  -14.9882   26.4068 N   0  0  0  0  0  0  0  0  0  0  0  0
    6.7327  -13.7025   26.1272 C   0  0  0  0  0  0  0  0  0  0  0  0
    6.7169  -12.5590   26.8885 C   0  0  0  0  0  0  0  0  0  0  0  0
    7.0867  -11.3750   26.2876 C   0  0  0  0  0  0  0  0  0  0  0  0
    7.4663  -11.2937   24.9723 C   0  0  0  0  0  0  0  0  0  0  0  0
    7.4741  -12.4512   24.2296 C   0  0  0  0  0  0  0  0  0  0  0  0
    7.1125  -13.6540   24.7864 C   0  0  0  0  0  0  0  0  0  0  0  0
    9.2714  -16.8275   23.5913 C   0  0  0  0  0  0  0  0  0  0  0  0
    9.2769  -18.0649   23.2644 O   0  0  0  0  0  0  0  0  0  0  0  0
    9.8096  -16.4969   24.8535 N   0  0  0  0  0  0  0  0  0  0  0  0
    9.8351  -15.2164   25.5323 C   0  0  0  0  0  0  0  0  0  0  0  0
   11.0312  -15.2411   26.4746 C   0  0  0  0  0  0  0  0  0  0  0  0
   11.6275  -16.6203   26.3571 C   0  0  0  0  0  0  0  0  0  0  0  0
   10.4831  -17.4139   25.7478 C   0  0  1  0  0  0  0  0  0  0  0  0
    9.6440  -17.9305   26.8402 C   0  0  0  0  0  0  0  0  0  0  0  0
    8.3247  -17.6269   26.9913 O   0  0  0  0  0  0  0  0  0  0  0  0
   10.1957  -18.6947   27.6722 O   0  0  0  0  0  0  0  0  0  0  0  0
  2  1  1  0
  3  4  1  1
  3  2  1  0
  5  3  1  0
  6  5  2  0
  7  5  1  0
  8  7  1  0
  9 10  1  0
  8  9  1  1
 10 18  1  0
 11 12  1  0
 11 10  2  0
 12 13  1  0
 13 18  2  0
 13 14  1  0
 14 15  2  0
 15 16  1  0
 17 16  2  0
 18 17  1  0
 19 21  1  0
 19  8  1  0
 20 19  2  0
 21 25  1  0
 22 23  1  0
 22 21  1  0
 23 24  1  0
 24 25  1  0
 25 26  1  1
 26 27  1  0
 28 26  2  0
M  END
$$$$
