SWP.pdb
     RDKit          3D

 28 30  0  0  1  0  0  0  0  0999 V2000
   12.5214  -17.3215   21.9219 O   0  0  0  0  0  0  0  0  0  0  0  0
   11.2428  -17.8007   21.6943 C   0  0  0  0  0  0  0  0  0  0  0  0
   10.2227  -16.6967   21.5573 C   0  0  2  0  0  0  0  0  0  0  0  0
   10.5679  -15.6880   20.6013 N   0  0  0  0  0  0  0  0  0  0  0  0
   10.0053  -16.0913   22.8931 C   0  0  0  0  0  0  0  0  0  0  0  0
   10.4627  -14.9201   23.1245 O   0  0  0  0  0  0  0  0  0  0  0  0
    9.3227  -16.7040   23.9615 N   0  0  0  0  0  0  0  0  0  0  0  0
    9.2187  -16.1297   25.3031 C   0  0  1  0  0  0  0  0  0  0  0  0
    7.8559  -16.2834   25.8817 C   0  0  0  0  0  0  0  0  0  0  0  0
    6.8873  -15.2209   25.5486 C   0  0  0  0  0  0  0  0  0  0  0  0
    5.6378  -15.4342   24.9535 C   0  0  0  0  0  0  0  0  0  0  0  0
    5.0216  -14.2586   24.7686 N   0  0  0  0  0  0  0  0  0  0  0  0
    5.8094  -13.2632   25.2178 C   0  0  0  0  0  0  0  0  0  0  0  0
    5.6477  -11.8998   25.2692 C   0  0  0  0  0  0  0  0  0  0  0  0
    6.6648  -11.1466   25.8149 C   0  0  0  0  0  0  0  0  0  0  0  0
    7.8210  -11.6986   26.3041 C   0  0  0  0  0  0  0  0  0  0  0  0
    7.9608  -13.0653   26.2418 C   0  0  0  0  0  0  0  0  0  0  0  0
    6.9734  -13.8559   25.7057 C   0  0  0  0  0  0  0  0  0  0  0  0
   10.3421  -16.5446   26.1285 C   0  0  0  0  0  0  0  0  0  0  0  0
   11.1747  -17.3696   25.6145 O   0  0  0  0  0  0  0  0  0  0  0  0
   10.5990  -16.1151   27.4482 N   0  0  0  0  0  0  0  0  0  0  0  0
    9.8659  -15.1660   28.2623 C   0  0  0  0  0  0  0  0  0  0  0  0
   10.8563  -14.5877   29.2643 C   0  0  0  0  0  0  0  0  0  0  0  0
   12.1570  -15.3130   29.0325 C   0  0  0  0  0  0  0  0  0  0  0  0
   11.7038  -16.5506   28.2752 C   0  0  1  0  0  0  0  0  0  0  0  0
   11.3610  -17.5936   29.2545 C   0  0  0  0  0  0  0  0  0  0  0  0
   12.2841  -18.2923   29.9724 O   0  0  0  0  0  0  0  0  0  0  0  0
   10.1397  -17.8394   29.4238 O   0  0  0  0  0  0  0  0  0  0  0  0
  2  1  1  0
  3  4  1  6
  3  2  1  0
  5  3  1  0
  6  5  2  0
  7  5  1  0
  8  7  1  0
  9 10  1  0
  8  9  1  1
 10 18  1  0
 11 12  1  0
 11 10  2  0
 12 13  1  0
 13 18  2  0
 13 14  1  0
 14 15  2  0
 15 16  1  0
 17 16  2  0
 18 17  1  0
 19 21  1  0
 19  8  1  0
 20 19  2  0
 21 25  1  0
 22 23  1  0
 22 21  1  0
 23 24  1  0
 24 25  1  0
 25 26  1  1
 26 27  1  0
 28 26  2  0
M  END
$$$$
