SWP.pdb
     RDKit          3D

 28 30  0  0  1  0  0  0  0  0999 V2000
    7.7769  -20.1062   21.4700 O   0  0  0  0  0  0  0  0  0  0  0  0
    6.4413  -20.3446   21.7451 C   0  0  0  0  0  0  0  0  0  0  0  0
    5.9507  -19.5848   22.9535 C   0  0  2  0  0  0  0  0  0  0  0  0
    4.5617  -19.7732   23.2464 N   0  0  0  0  0  0  0  0  0  0  0  0
    6.2474  -18.1459   22.7545 C   0  0  0  0  0  0  0  0  0  0  0  0
    5.3603  -17.3989   22.2164 O   0  0  0  0  0  0  0  0  0  0  0  0
    7.4500  -17.5072   23.1130 N   0  0  0  0  0  0  0  0  0  0  0  0
    7.7309  -16.0928   22.8655 C   0  0  1  0  0  0  0  0  0  0  0  0
    8.4343  -15.4461   24.0068 C   0  0  0  0  0  0  0  0  0  0  0  0
    7.5723  -14.8964   25.0711 C   0  0  0  0  0  0  0  0  0  0  0  0
    6.6245  -15.6316   25.7937 C   0  0  0  0  0  0  0  0  0  0  0  0
    6.0012  -14.8272   26.6656 N   0  0  0  0  0  0  0  0  0  0  0  0
    6.4950  -13.5791   26.5571 C   0  0  0  0  0  0  0  0  0  0  0  0
    6.2127  -12.4064   27.2148 C   0  0  0  0  0  0  0  0  0  0  0  0
    6.9248  -11.2793   26.8650 C   0  0  0  0  0  0  0  0  0  0  0  0
    7.8948  -11.2818   25.8956 C   0  0  0  0  0  0  0  0  0  0  0  0
    8.1600  -12.4670   25.2504 C   0  0  0  0  0  0  0  0  0  0  0  0
    7.4747  -13.6153   25.5656 C   0  0  0  0  0  0  0  0  0  0  0  0
    8.3018  -15.9062   21.5408 C   0  0  0  0  0  0  0  0  0  0  0  0
    8.7613  -16.9434   20.9484 O   0  0  0  0  0  0  0  0  0  0  0  0
    8.3916  -14.6806   20.8466 N   0  0  0  0  0  0  0  0  0  0  0  0
    7.9514  -13.3613   21.2551 C   0  0  0  0  0  0  0  0  0  0  0  0
    7.6775  -12.5741   19.9806 C   0  0  0  0  0  0  0  0  0  0  0  0
    8.0618  -13.4800   18.8389 C   0  0  0  0  0  0  0  0  0  0  0  0
    8.9548  -14.5006   19.5258 C   0  0  1  0  0  0  0  0  0  0  0  0
   10.3351  -13.9916   19.5133 C   0  0  0  0  0  0  0  0  0  0  0  0
   11.0135  -13.6127   20.6321 O   0  0  0  0  0  0  0  0  0  0  0  0
   10.9037  -13.9092   18.3951 O   0  0  0  0  0  0  0  0  0  0  0  0
  2  1  1  0
  3  4  1  6
  3  2  1  0
  5  3  1  0
  6  5  2  0
  7  5  1  0
  8  7  1  0
  9 10  1  0
  8  9  1  1
 10 18  1  0
 11 12  1  0
 11 10  2  0
 12 13  1  0
 13 18  2  0
 13 14  1  0
 14 15  2  0
 15 16  1  0
 17 16  2  0
 18 17  1  0
 19 21  1  0
 19  8  1  0
 20 19  2  0
 21 25  1  0
 22 23  1  0
 22 21  1  0
 23 24  1  0
 24 25  1  0
 25 26  1  1
 26 27  1  0
 28 26  2  0
M  END
$$$$
