SWP.pdb
     RDKit          3D

 28 30  0  0  1  0  0  0  0  0999 V2000
    7.1819  -20.9628   22.6228 O   0  0  0  0  0  0  0  0  0  0  0  0
    6.5260  -21.2090   23.8166 C   0  0  0  0  0  0  0  0  0  0  0  0
    5.2449  -20.4223   23.9505 C   0  0  2  0  0  0  0  0  0  0  0  0
    4.1921  -20.8545   23.0814 N   0  0  0  0  0  0  0  0  0  0  0  0
    5.5491  -18.9893   23.7225 C   0  0  0  0  0  0  0  0  0  0  0  0
    5.2772  -18.4713   22.5857 O   0  0  0  0  0  0  0  0  0  0  0  0
    6.1265  -18.1208   24.6686 N   0  0  0  0  0  0  0  0  0  0  0  0
    6.4791  -16.7278   24.3928 C   0  0  1  0  0  0  0  0  0  0  0  0
    6.3835  -15.8681   25.6041 C   0  0  0  0  0  0  0  0  0  0  0  0
    7.5750  -15.8406   26.4744 C   0  0  0  0  0  0  0  0  0  0  0  0
    8.2539  -16.9740   26.9387 C   0  0  0  0  0  0  0  0  0  0  0  0
    9.2741  -16.5974   27.7217 N   0  0  0  0  0  0  0  0  0  0  0  0
    9.3072  -15.2535   27.8006 C   0  0  0  0  0  0  0  0  0  0  0  0
   10.1431  -14.3802   28.4534 C   0  0  0  0  0  0  0  0  0  0  0  0
    9.9049  -13.0296   28.3158 C   0  0  0  0  0  0  0  0  0  0  0  0
    8.8764  -12.5275   27.5602 C   0  0  0  0  0  0  0  0  0  0  0  0
    8.0524  -13.4206   26.9162 C   0  0  0  0  0  0  0  0  0  0  0  0
    8.2514  -14.7756   27.0252 C   0  0  0  0  0  0  0  0  0  0  0  0
    7.7084  -16.6521   23.6191 C   0  0  0  0  0  0  0  0  0  0  0  0
    8.4391  -17.7019   23.5744 O   0  0  0  0  0  0  0  0  0  0  0  0
    8.1674  -15.5224   22.9085 N   0  0  0  0  0  0  0  0  0  0  0  0
    7.7548  -14.1376   23.0229 C   0  0  0  0  0  0  0  0  0  0  0  0
    8.0337  -13.4822   21.6767 C   0  0  0  0  0  0  0  0  0  0  0  0
    8.6970  -14.5364   20.8280 C   0  0  0  0  0  0  0  0  0  0  0  0
    9.1761  -15.5333   21.8708 C   0  0  1  0  0  0  0  0  0  0  0  0
   10.5179  -15.1280   22.3175 C   0  0  0  0  0  0  0  0  0  0  0  0
   10.8169  -14.7797   23.6000 O   0  0  0  0  0  0  0  0  0  0  0  0
   11.4274  -15.1082   21.4497 O   0  0  0  0  0  0  0  0  0  0  0  0
  2  1  1  0
  3  4  1  6
  3  2  1  0
  5  3  1  0
  6  5  2  0
  7  5  1  0
  8  7  1  0
  9 10  1  0
  8  9  1  1
 10 18  1  0
 11 12  1  0
 11 10  2  0
 12 13  1  0
 13 18  2  0
 13 14  1  0
 14 15  2  0
 15 16  1  0
 17 16  2  0
 18 17  1  0
 19 21  1  0
 19  8  1  0
 20 19  2  0
 21 25  1  0
 22 23  1  0
 22 21  1  0
 23 24  1  0
 24 25  1  0
 25 26  1  1
 26 27  1  0
 28 26  2  0
M  END
$$$$
