SWP.pdb
     RDKit          3D

 28 30  0  0  1  0  0  0  0  0999 V2000
    7.9967  -17.9203   19.4459 O   0  0  0  0  0  0  0  0  0  0  0  0
    6.9161  -18.0643   20.2990 C   0  0  0  0  0  0  0  0  0  0  0  0
    6.5244  -16.7686   20.9668 C   0  0  2  0  0  0  0  0  0  0  0  0
    6.2615  -15.6920   20.0599 N   0  0  0  0  0  0  0  0  0  0  0  0
    7.5939  -16.3916   21.9218 C   0  0  0  0  0  0  0  0  0  0  0  0
    8.4235  -15.4760   21.5934 O   0  0  0  0  0  0  0  0  0  0  0  0
    7.7867  -16.9651   23.1934 N   0  0  0  0  0  0  0  0  0  0  0  0
    8.8387  -16.5563   24.1245 C   0  0  1  0  0  0  0  0  0  0  0  0
    8.3202  -16.3271   25.5008 C   0  0  0  0  0  0  0  0  0  0  0  0
    7.3240  -15.2480   25.6461 C   0  0  0  0  0  0  0  0  0  0  0  0
    5.9398  -15.4125   25.5118 C   0  0  0  0  0  0  0  0  0  0  0  0
    5.3284  -14.2323   25.6823 N   0  0  0  0  0  0  0  0  0  0  0  0
    6.2493  -13.2808   25.9271 C   0  0  0  0  0  0  0  0  0  0  0  0
    6.1511  -11.9333   26.1766 C   0  0  0  0  0  0  0  0  0  0  0  0
    7.3143  -11.2299   26.4045 C   0  0  0  0  0  0  0  0  0  0  0  0
    8.5541  -11.8159   26.3921 C   0  0  0  0  0  0  0  0  0  0  0  0
    8.6279  -13.1657   26.1398 C   0  0  0  0  0  0  0  0  0  0  0  0
    7.4949  -13.9070   25.9064 C   0  0  0  0  0  0  0  0  0  0  0  0
   10.0070  -17.4119   23.9880 C   0  0  0  0  0  0  0  0  0  0  0  0
    9.8038  -18.6384   23.6839 O   0  0  0  0  0  0  0  0  0  0  0  0
   11.3489  -17.0088   24.1582 N   0  0  0  0  0  0  0  0  0  0  0  0
   11.8828  -15.6866   24.4184 C   0  0  0  0  0  0  0  0  0  0  0  0
   13.3071  -15.6729   23.8794 C   0  0  0  0  0  0  0  0  0  0  0  0
   13.5786  -17.0689   23.3802 C   0  0  0  0  0  0  0  0  0  0  0  0
   12.5040  -17.8777   24.0886 C   0  0  1  0  0  0  0  0  0  0  0  0
   13.0297  -18.3026   25.3954 C   0  0  0  0  0  0  0  0  0  0  0  0
   12.5325  -17.8729   26.5886 O   0  0  0  0  0  0  0  0  0  0  0  0
   13.9938  -19.1094   25.3886 O   0  0  0  0  0  0  0  0  0  0  0  0
  2  1  1  0
  3  4  1  6
  3  2  1  0
  5  3  1  0
  6  5  2  0
  7  5  1  0
  8  7  1  0
  9 10  1  0
  8  9  1  1
 10 18  1  0
 11 12  1  0
 11 10  2  0
 12 13  1  0
 13 18  2  0
 13 14  1  0
 14 15  2  0
 15 16  1  0
 17 16  2  0
 18 17  1  0
 19 21  1  0
 19  8  1  0
 20 19  2  0
 21 25  1  0
 22 23  1  0
 22 21  1  0
 23 24  1  0
 24 25  1  0
 25 26  1  1
 26 27  1  0
 28 26  2  0
M  END
$$$$
