HEF.pdb
     RDKit          3D

 31 32  0  0  1  0  0  0  0  0999 V2000
   26.1162  -18.6176  -15.9400 N   0  0  0  0  0  0  0  0  0  0  0  0
   26.6859  -18.3144  -14.6530 C   0  0  1  0  0  0  0  0  0  0  0  0
   26.8113  -16.8296  -14.5103 C   0  0  0  0  0  0  0  0  0  0  0  0
   27.7766  -16.3677  -15.5410 C   0  0  0  0  0  0  0  0  0  0  0  0
   28.4203  -17.1105  -16.5086 C   0  0  0  0  0  0  0  0  0  0  0  0
   29.2078  -16.2661  -17.2286 N   0  0  0  0  0  0  0  0  0  0  0  0
   29.0651  -15.0342  -16.7311 C   0  0  0  0  0  0  0  0  0  0  0  0
   28.2008  -15.1012  -15.7141 N   0  0  0  0  0  0  0  0  0  0  0  0
   25.8906  -18.9475  -13.5669 C   0  0  0  0  0  0  0  0  0  0  0  0
   24.7757  -18.4693  -13.2482 O   0  0  0  0  0  0  0  0  0  0  0  0
   26.3624  -20.0779  -12.8828 N   0  0  0  0  0  0  0  0  0  0  0  0
   25.6571  -20.8205  -11.8761 C   0  0  1  0  0  0  0  0  0  0  0  0
   25.4227  -22.2404  -12.3278 C   0  0  0  0  0  0  0  0  0  0  0  0
   24.5212  -22.3200  -13.5389 C   0  0  0  0  0  0  0  0  0  0  0  0
   23.1429  -22.0086  -13.1153 C   0  0  0  0  0  0  0  0  0  0  0  0
   22.9047  -21.7476  -11.9195 O   0  0  0  0  0  0  0  0  0  0  0  0
   26.4460  -20.8858  -10.5995 C   0  0  0  0  0  0  0  0  0  0  0  0
   27.7056  -20.9744  -10.6248 O   0  0  0  0  0  0  0  0  0  0  0  0
   22.1401  -22.0150  -14.0634 O   0  0  0  0  0  0  0  0  0  0  0  0
   25.7989  -20.8507   -9.3358 N   0  0  0  0  0  0  0  0  0  0  0  0
   26.5866  -20.9848   -8.0960 C   0  0  1  0  0  0  0  0  0  0  0  0
   27.5041  -19.8075   -8.0690 C   0  0  0  0  0  0  0  0  0  0  0  0
   28.2202  -19.7740   -6.7732 C   0  0  0  0  0  0  0  0  0  0  0  0
   29.1202  -20.7862   -6.4350 C   0  0  0  0  0  0  0  0  0  0  0  0
   29.8130  -20.7971   -5.2408 C   0  0  0  0  0  0  0  0  0  0  0  0
   29.5842  -19.7479   -4.3638 C   0  0  0  0  0  0  0  0  0  0  0  0
   28.7121  -18.7297   -4.6455 C   0  0  0  0  0  0  0  0  0  0  0  0
   28.0425  -18.7578   -5.8464 C   0  0  0  0  0  0  0  0  0  0  0  0
   25.6592  -21.0877   -6.9644 C   0  0  0  0  0  0  0  0  0  0  0  0
   25.9957  -21.6578   -5.7451 O   0  0  0  0  0  0  0  0  0  0  0  0
   24.4914  -20.6446   -7.0782 O   0  0  0  0  0  0  0  0  0  0  0  0
  2  1  1  6
  2  3  1  0
  3  4  1  0
  4  8  1  0
  4  5  2  0
  5  6  1  0
  7  6  1  0
  8  7  2  0
  9  2  1  0
  9 11  1  0
 10  9  2  0
 12 11  1  0
 12 13  1  6
 14 13  1  0
 15 14  1  0
 16 15  2  0
 17 12  1  0
 18 17  2  0
 19 15  1  0
 20 17  1  0
 21 20  1  0
 21 22  1  1
 23 22  1  0
 24 23  2  0
 25 24  1  0
 26 27  1  0
 26 25  2  0
 27 28  2  0
 28 23  1  0
 29 21  1  0
 30 29  1  0
 31 29  2  0
M  END
$$$$
