HEF.pdb
     RDKit          3D

 31 32  0  0  1  0  0  0  0  0999 V2000
   23.7425  -14.1873  -21.1880 N   0  0  0  0  0  0  0  0  0  0  0  0
   23.8513  -13.7053  -19.8357 C   0  0  1  0  0  0  0  0  0  0  0  0
   25.2861  -13.7549  -19.4119 C   0  0  0  0  0  0  0  0  0  0  0  0
   25.6616  -15.1876  -19.2942 C   0  0  0  0  0  0  0  0  0  0  0  0
   25.6075  -16.1715  -20.2593 C   0  0  0  0  0  0  0  0  0  0  0  0
   26.0520  -17.3299  -19.7007 N   0  0  0  0  0  0  0  0  0  0  0  0
   26.3746  -17.0838  -18.4276 C   0  0  0  0  0  0  0  0  0  0  0  0
   26.1376  -15.7906  -18.1880 N   0  0  0  0  0  0  0  0  0  0  0  0
   23.2451  -12.3525  -19.7125 C   0  0  0  0  0  0  0  0  0  0  0  0
   23.3642  -11.5263  -20.6487 O   0  0  0  0  0  0  0  0  0  0  0  0
   22.5365  -11.9740  -18.5622 N   0  0  0  0  0  0  0  0  0  0  0  0
   21.8544  -10.7276  -18.3534 C   0  0  1  0  0  0  0  0  0  0  0  0
   20.3699  -10.8906  -18.5651 C   0  0  0  0  0  0  0  0  0  0  0  0
   19.6178   -9.5884  -18.4088 C   0  0  0  0  0  0  0  0  0  0  0  0
   18.1875   -9.8426  -18.6653 C   0  0  0  0  0  0  0  0  0  0  0  0
   17.6457   -9.3702  -19.6840 O   0  0  0  0  0  0  0  0  0  0  0  0
   22.0502  -10.2323  -16.9488 C   0  0  0  0  0  0  0  0  0  0  0  0
   21.8596  -10.9988  -15.9633 O   0  0  0  0  0  0  0  0  0  0  0  0
   17.4765  -10.6047  -17.7607 O   0  0  0  0  0  0  0  0  0  0  0  0
   22.4523   -8.8943  -16.6932 N   0  0  0  0  0  0  0  0  0  0  0  0
   22.6442   -8.4305  -15.3063 C   0  0  1  0  0  0  0  0  0  0  0  0
   24.0158   -7.8431  -15.2611 C   0  0  0  0  0  0  0  0  0  0  0  0
   25.0129   -8.9058  -15.5248 C   0  0  0  0  0  0  0  0  0  0  0  0
   25.9041   -8.7914  -16.5932 C   0  0  0  0  0  0  0  0  0  0  0  0
   26.8524   -9.7538  -16.8773 C   0  0  0  0  0  0  0  0  0  0  0  0
   26.8962  -10.8662  -16.0508 C   0  0  0  0  0  0  0  0  0  0  0  0
   26.0454  -11.0287  -14.9895 C   0  0  0  0  0  0  0  0  0  0  0  0
   25.1159  -10.0459  -14.7420 C   0  0  0  0  0  0  0  0  0  0  0  0
   21.5529   -7.5109  -14.9681 C   0  0  0  0  0  0  0  0  0  0  0  0
   21.2207   -7.1583  -13.6680 O   0  0  0  0  0  0  0  0  0  0  0  0
   20.8656   -7.0012  -15.8851 O   0  0  0  0  0  0  0  0  0  0  0  0
  2  1  1  6
  2  3  1  0
  3  4  1  0
  4  8  1  0
  4  5  2  0
  5  6  1  0
  7  6  1  0
  8  7  2  0
  9  2  1  0
  9 11  1  0
 10  9  2  0
 12 11  1  0
 12 13  1  1
 14 13  1  0
 15 14  1  0
 16 15  2  0
 17 12  1  0
 18 17  2  0
 19 15  1  0
 20 17  1  0
 21 20  1  0
 21 22  1  6
 23 22  1  0
 24 23  2  0
 25 24  1  0
 26 27  1  0
 26 25  2  0
 27 28  2  0
 28 23  1  0
 29 21  1  0
 30 29  1  0
 31 29  2  0
M  END
$$$$
