HEF.pdb
     RDKit          3D

 31 32  0  0  1  0  0  0  0  0999 V2000
   18.9904   -8.5827  -16.3498 N   0  0  0  0  0  0  0  0  0  0  0  0
   18.6149   -9.1350  -15.0743 C   0  0  1  0  0  0  0  0  0  0  0  0
   19.5564  -10.2451  -14.7250 C   0  0  0  0  0  0  0  0  0  0  0  0
   19.0479  -11.4772  -15.3814 C   0  0  0  0  0  0  0  0  0  0  0  0
   18.2763  -12.4834  -14.8386 C   0  0  0  0  0  0  0  0  0  0  0  0
   18.0503  -13.4078  -15.8112 N   0  0  0  0  0  0  0  0  0  0  0  0
   18.6591  -12.9978  -16.9278 C   0  0  0  0  0  0  0  0  0  0  0  0
   19.2586  -11.8332  -16.6631 N   0  0  0  0  0  0  0  0  0  0  0  0
   18.5508   -8.0672  -14.0407 C   0  0  0  0  0  0  0  0  0  0  0  0
   19.5753   -7.3957  -13.7709 O   0  0  0  0  0  0  0  0  0  0  0  0
   17.3599   -7.7904  -13.3524 N   0  0  0  0  0  0  0  0  0  0  0  0
   17.1548   -6.7428  -12.3918 C   0  0  1  0  0  0  0  0  0  0  0  0
   16.7413   -5.4646  -13.0776 C   0  0  0  0  0  0  0  0  0  0  0  0
   15.6117   -5.6756  -14.0601 C   0  0  0  0  0  0  0  0  0  0  0  0
   14.8059   -4.4411  -14.1160 C   0  0  0  0  0  0  0  0  0  0  0  0
   15.3651   -3.3301  -14.0299 O   0  0  0  0  0  0  0  0  0  0  0  0
   16.0621   -7.1010  -11.4254 C   0  0  0  0  0  0  0  0  0  0  0  0
   15.0763   -7.7974  -11.7974 O   0  0  0  0  0  0  0  0  0  0  0  0
   13.4378   -4.5481  -14.2627 O   0  0  0  0  0  0  0  0  0  0  0  0
   16.1080   -6.6670  -10.0739 N   0  0  0  0  0  0  0  0  0  0  0  0
   14.9681   -6.9242   -9.1739 C   0  0  1  0  0  0  0  0  0  0  0  0
   15.4839   -6.6988   -7.7913 C   0  0  0  0  0  0  0  0  0  0  0  0
   14.3739   -6.8524   -6.8231 C   0  0  0  0  0  0  0  0  0  0  0  0
   13.9052   -8.1214   -6.4785 C   0  0  0  0  0  0  0  0  0  0  0  0
   12.8754   -8.3152   -5.5795 C   0  0  0  0  0  0  0  0  0  0  0  0
   12.3047   -7.1853   -5.0137 C   0  0  0  0  0  0  0  0  0  0  0  0
   12.7258   -5.9174   -5.3167 C   0  0  0  0  0  0  0  0  0  0  0  0
   13.7545   -5.7695   -6.2174 C   0  0  0  0  0  0  0  0  0  0  0  0
   13.8521   -6.0629   -9.5789 C   0  0  0  0  0  0  0  0  0  0  0  0
   12.5275   -6.4756   -9.5876 O   0  0  0  0  0  0  0  0  0  0  0  0
   14.0794   -4.8844   -9.9425 O   0  0  0  0  0  0  0  0  0  0  0  0
  2  1  1  6
  2  3  1  0
  3  4  1  0
  4  8  1  0
  4  5  2  0
  5  6  1  0
  7  6  1  0
  8  7  2  0
  9  2  1  0
  9 11  1  0
 10  9  2  0
 12 11  1  0
 12 13  1  6
 14 13  1  0
 15 14  1  0
 16 15  2  0
 17 12  1  0
 18 17  2  0
 19 15  1  0
 20 17  1  0
 21 20  1  0
 21 22  1  1
 23 22  1  0
 24 23  2  0
 25 24  1  0
 26 27  1  0
 26 25  2  0
 27 28  2  0
 28 23  1  0
 29 21  1  0
 30 29  1  0
 31 29  2  0
M  END
$$$$
