HEF.pdb
     RDKit          3D

 31 32  0  0  1  0  0  0  0  0999 V2000
   24.3637  -18.0312  -13.7705 N   0  0  0  0  0  0  0  0  0  0  0  0
   23.6890  -19.2584  -13.4365 C   0  0  1  0  0  0  0  0  0  0  0  0
   22.7746  -19.6362  -14.5599 C   0  0  0  0  0  0  0  0  0  0  0  0
   21.8713  -18.4813  -14.8002 C   0  0  0  0  0  0  0  0  0  0  0  0
   20.8416  -18.0174  -14.0085 C   0  0  0  0  0  0  0  0  0  0  0  0
   20.2941  -16.9357  -14.6263 N   0  0  0  0  0  0  0  0  0  0  0  0
   20.9561  -16.7261  -15.7679 C   0  0  0  0  0  0  0  0  0  0  0  0
   21.9062  -17.6606  -15.8675 N   0  0  0  0  0  0  0  0  0  0  0  0
   24.6734  -20.3195  -13.0934 C   0  0  0  0  0  0  0  0  0  0  0  0
   24.2759  -21.4792  -12.8281 O   0  0  0  0  0  0  0  0  0  0  0  0
   26.0503  -20.0518  -13.0584 N   0  0  0  0  0  0  0  0  0  0  0  0
   27.0918  -20.9859  -12.7341 C   0  0  1  0  0  0  0  0  0  0  0  0
   28.3804  -20.6063  -13.4201 C   0  0  0  0  0  0  0  0  0  0  0  0
   28.1645  -20.1589  -14.8481 C   0  0  0  0  0  0  0  0  0  0  0  0
   27.9325  -21.3541  -15.6810 C   0  0  0  0  0  0  0  0  0  0  0  0
   27.2368  -21.2671  -16.7120 O   0  0  0  0  0  0  0  0  0  0  0  0
   27.3639  -21.0017  -11.2569 C   0  0  0  0  0  0  0  0  0  0  0  0
   28.5416  -21.1349  -10.8206 O   0  0  0  0  0  0  0  0  0  0  0  0
   28.4966  -22.5524  -15.2933 O   0  0  0  0  0  0  0  0  0  0  0  0
   26.3083  -20.8688  -10.3160 N   0  0  0  0  0  0  0  0  0  0  0  0
   26.5908  -20.9427   -8.8703 C   0  0  1  0  0  0  0  0  0  0  0  0
   27.6904  -19.9642   -8.6213 C   0  0  0  0  0  0  0  0  0  0  0  0
   28.1211  -20.0602   -7.2077 C   0  0  0  0  0  0  0  0  0  0  0  0
   27.7456  -19.0822   -6.2849 C   0  0  0  0  0  0  0  0  0  0  0  0
   28.1200  -19.1297   -4.9568 C   0  0  0  0  0  0  0  0  0  0  0  0
   28.8997  -20.2032   -4.5544 C   0  0  0  0  0  0  0  0  0  0  0  0
   29.2963  -21.1898   -5.4182 C   0  0  0  0  0  0  0  0  0  0  0  0
   28.9012  -21.1037   -6.7326 C   0  0  0  0  0  0  0  0  0  0  0  0
   25.3446  -20.6904   -8.1393 C   0  0  0  0  0  0  0  0  0  0  0  0
   25.0615  -21.2324   -6.8939 O   0  0  0  0  0  0  0  0  0  0  0  0
   24.4692  -19.9481   -8.6449 O   0  0  0  0  0  0  0  0  0  0  0  0
  2  1  1  6
  2  3  1  0
  3  4  1  0
  4  8  1  0
  4  5  2  0
  5  6  1  0
  7  6  1  0
  8  7  2  0
  9  2  1  0
  9 11  1  0
 10  9  2  0
 12 11  1  0
 12 13  1  6
 14 13  1  0
 15 14  1  0
 16 15  2  0
 17 12  1  0
 18 17  2  0
 19 15  1  0
 20 17  1  0
 21 20  1  0
 21 22  1  1
 23 22  1  0
 24 23  2  0
 25 24  1  0
 26 27  1  0
 26 25  2  0
 27 28  2  0
 28 23  1  0
 29 21  1  0
 30 29  1  0
 31 29  2  0
M  END
$$$$
