HEF.pdb
     RDKit          3D

 31 32  0  0  1  0  0  0  0  0999 V2000
   25.8878  -13.3795  -20.7365 N   0  0  0  0  0  0  0  0  0  0  0  0
   25.3419  -13.3595  -19.4044 C   0  0  1  0  0  0  0  0  0  0  0  0
   26.4617  -13.4459  -18.4148 C   0  0  0  0  0  0  0  0  0  0  0  0
   27.0395  -14.8106  -18.5212 C   0  0  0  0  0  0  0  0  0  0  0  0
   26.5296  -15.9988  -18.0410 C   0  0  0  0  0  0  0  0  0  0  0  0
   27.3980  -16.9916  -18.3747 N   0  0  0  0  0  0  0  0  0  0  0  0
   28.4198  -16.4472  -19.0419 C   0  0  0  0  0  0  0  0  0  0  0  0
   28.1983  -15.1321  -19.1276 N   0  0  0  0  0  0  0  0  0  0  0  0
   24.4746  -12.1662  -19.2127 C   0  0  0  0  0  0  0  0  0  0  0  0
   24.8184  -11.0596  -19.6929 O   0  0  0  0  0  0  0  0  0  0  0  0
   23.2691  -12.2490  -18.4997 N   0  0  0  0  0  0  0  0  0  0  0  0
   22.3610  -11.1689  -18.2332 C   0  0  1  0  0  0  0  0  0  0  0  0
   20.9413  -11.6728  -18.1577 C   0  0  0  0  0  0  0  0  0  0  0  0
   19.9360  -10.5505  -18.0319 C   0  0  0  0  0  0  0  0  0  0  0  0
   18.9000  -10.9591  -17.0645 C   0  0  0  0  0  0  0  0  0  0  0  0
   18.4460  -10.1285  -16.2529 O   0  0  0  0  0  0  0  0  0  0  0  0
   22.6698  -10.5146  -16.9168 C   0  0  0  0  0  0  0  0  0  0  0  0
   22.8217  -11.2088  -15.8727 O   0  0  0  0  0  0  0  0  0  0  0  0
   18.4549  -12.2653  -17.0812 O   0  0  0  0  0  0  0  0  0  0  0  0
   22.7978   -9.1040  -16.8119 N   0  0  0  0  0  0  0  0  0  0  0  0
   23.1961   -8.4893  -15.5317 C   0  0  1  0  0  0  0  0  0  0  0  0
   24.4819   -7.7815  -15.8043 C   0  0  0  0  0  0  0  0  0  0  0  0
   25.5539   -8.7795  -16.0228 C   0  0  0  0  0  0  0  0  0  0  0  0
   25.7645   -9.8061  -15.1005 C   0  0  0  0  0  0  0  0  0  0  0  0
   26.7488  -10.7608  -15.2619 C   0  0  0  0  0  0  0  0  0  0  0  0
   27.5431  -10.6692  -16.3946 C   0  0  0  0  0  0  0  0  0  0  0  0
   27.3797   -9.6825  -17.3307 C   0  0  0  0  0  0  0  0  0  0  0  0
   26.3873   -8.7517  -17.1309 C   0  0  0  0  0  0  0  0  0  0  0  0
   22.0964   -7.6406  -15.0612 C   0  0  0  0  0  0  0  0  0  0  0  0
   21.9672   -7.2084  -13.7491 O   0  0  0  0  0  0  0  0  0  0  0  0
   21.2101   -7.2710  -15.8679 O   0  0  0  0  0  0  0  0  0  0  0  0
  2  1  1  6
  2  3  1  0
  3  4  1  0
  4  8  1  0
  4  5  2  0
  5  6  1  0
  7  6  1  0
  8  7  2  0
  9  2  1  0
  9 11  1  0
 10  9  2  0
 12 11  1  0
 12 13  1  1
 14 13  1  0
 15 14  1  0
 16 15  2  0
 17 12  1  0
 18 17  2  0
 19 15  1  0
 20 17  1  0
 21 20  1  0
 21 22  1  6
 23 22  1  0
 24 23  2  0
 25 24  1  0
 26 27  1  0
 26 25  2  0
 27 28  2  0
 28 23  1  0
 29 21  1  0
 30 29  1  0
 31 29  2  0
M  END
$$$$
