HEF.pdb
     RDKit          3D

 31 32  0  0  1  0  0  0  0  0999 V2000
   40.2402   -8.1401   -8.3285 N   0  0  0  0  0  0  0  0  0  0  0  0
   38.9345   -7.6216   -8.6433 C   0  0  1  0  0  0  0  0  0  0  0  0
   38.0107   -7.8918   -7.4969 C   0  0  0  0  0  0  0  0  0  0  0  0
   37.8998   -9.3670   -7.3585 C   0  0  0  0  0  0  0  0  0  0  0  0
   37.6965  -10.3090   -8.3451 C   0  0  0  0  0  0  0  0  0  0  0  0
   37.6657  -11.5340   -7.7535 N   0  0  0  0  0  0  0  0  0  0  0  0
   37.8433  -11.3687   -6.4395 C   0  0  0  0  0  0  0  0  0  0  0  0
   37.9843  -10.0603   -6.2069 N   0  0  0  0  0  0  0  0  0  0  0  0
   39.0178   -6.1820   -9.0085 C   0  0  0  0  0  0  0  0  0  0  0  0
   39.6944   -5.3960   -8.3030 O   0  0  0  0  0  0  0  0  0  0  0  0
   38.3505   -5.6764  -10.1343 N   0  0  0  0  0  0  0  0  0  0  0  0
   38.2686   -4.2979  -10.5285 C   0  0  1  0  0  0  0  0  0  0  0  0
   37.8400   -4.1804  -11.9699 C   0  0  0  0  0  0  0  0  0  0  0  0
   37.7245   -2.7426  -12.4228 C   0  0  0  0  0  0  0  0  0  0  0  0
   37.3061   -2.7317  -13.8374 C   0  0  0  0  0  0  0  0  0  0  0  0
   38.0878   -2.3114  -14.7130 O   0  0  0  0  0  0  0  0  0  0  0  0
   37.2548   -3.5583   -9.7028 C   0  0  0  0  0  0  0  0  0  0  0  0
   36.0541   -3.9474   -9.6571 O   0  0  0  0  0  0  0  0  0  0  0  0
   36.0453   -3.1912  -14.1597 O   0  0  0  0  0  0  0  0  0  0  0  0
   37.6180   -2.4063   -8.9558 N   0  0  0  0  0  0  0  0  0  0  0  0
   36.6314   -1.7524   -8.0758 C   0  0  1  0  0  0  0  0  0  0  0  0
   37.3074   -1.5960   -6.7541 C   0  0  0  0  0  0  0  0  0  0  0  0
   36.9393   -2.7317   -5.8779 C   0  0  0  0  0  0  0  0  0  0  0  0
   36.5235   -2.5070   -4.5643 C   0  0  0  0  0  0  0  0  0  0  0  0
   36.1679   -3.5324   -3.7109 C   0  0  0  0  0  0  0  0  0  0  0  0
   36.2370   -4.8251   -4.2073 C   0  0  0  0  0  0  0  0  0  0  0  0
   36.6383   -5.1016   -5.4876 C   0  0  0  0  0  0  0  0  0  0  0  0
   36.9838   -4.0505   -6.3043 C   0  0  0  0  0  0  0  0  0  0  0  0
   36.1948   -0.5053   -8.7123 C   0  0  0  0  0  0  0  0  0  0  0  0
   35.0629    0.1983   -8.3270 O   0  0  0  0  0  0  0  0  0  0  0  0
   36.8626   -0.0266   -9.6599 O   0  0  0  0  0  0  0  0  0  0  0  0
  2  1  1  1
  2  3  1  0
  3  4  1  0
  4  8  1  0
  4  5  2  0
  5  6  1  0
  7  6  1  0
  8  7  2  0
  9  2  1  0
  9 11  1  0
 10  9  2  0
 12 11  1  0
 12 13  1  6
 14 13  1  0
 15 14  1  0
 16 15  2  0
 17 12  1  0
 18 17  2  0
 19 15  1  0
 20 17  1  0
 21 20  1  0
 21 22  1  1
 23 22  1  0
 24 23  2  0
 25 24  1  0
 26 27  1  0
 26 25  2  0
 27 28  2  0
 28 23  1  0
 29 21  1  0
 30 29  1  0
 31 29  2  0
M  END
$$$$
