HEF.pdb
     RDKit          3D

 31 32  0  0  1  0  0  0  0  0999 V2000
   37.0223  -31.7085  -19.6793 N   0  0  0  0  0  0  0  0  0  0  0  0
   36.1136  -31.4286  -18.5982 C   0  0  1  0  0  0  0  0  0  0  0  0
   36.4618  -30.1030  -17.9963 C   0  0  0  0  0  0  0  0  0  0  0  0
   37.7189  -30.2856  -17.2256 C   0  0  0  0  0  0  0  0  0  0  0  0
   37.9074  -30.9609  -16.0379 C   0  0  0  0  0  0  0  0  0  0  0  0
   39.2241  -30.8666  -15.7079 N   0  0  0  0  0  0  0  0  0  0  0  0
   39.8432  -30.1560  -16.6552 C   0  0  0  0  0  0  0  0  0  0  0  0
   38.9310  -29.8086  -17.5679 N   0  0  0  0  0  0  0  0  0  0  0  0
   34.7037  -31.5136  -19.0650 C   0  0  0  0  0  0  0  0  0  0  0  0
   34.3609  -30.9402  -20.1266 O   0  0  0  0  0  0  0  0  0  0  0  0
   33.7378  -32.2264  -18.3388 N   0  0  0  0  0  0  0  0  0  0  0  0
   32.3609  -32.4090  -18.7035 C   0  0  1  0  0  0  0  0  0  0  0  0
   31.9079  -33.8129  -18.3886 C   0  0  0  0  0  0  0  0  0  0  0  0
   30.5105  -34.0956  -18.8919 C   0  0  0  0  0  0  0  0  0  0  0  0
   29.9575  -35.2257  -18.1218 C   0  0  0  0  0  0  0  0  0  0  0  0
   30.6496  -35.7761  -17.2428 O   0  0  0  0  0  0  0  0  0  0  0  0
   31.4696  -31.4733  -17.9378 C   0  0  0  0  0  0  0  0  0  0  0  0
   31.7339  -31.1671  -16.7413 O   0  0  0  0  0  0  0  0  0  0  0  0
   28.6739  -35.6512  -18.3974 O   0  0  0  0  0  0  0  0  0  0  0  0
   30.3106  -30.9113  -18.5362 N   0  0  0  0  0  0  0  0  0  0  0  0
   29.4508  -29.9926  -17.7667 C   0  0  1  0  0  0  0  0  0  0  0  0
   29.4535  -28.7055  -18.5229 C   0  0  0  0  0  0  0  0  0  0  0  0
   28.5082  -27.7606  -17.8853 C   0  0  0  0  0  0  0  0  0  0  0  0
   28.9679  -26.7992  -16.9835 C   0  0  0  0  0  0  0  0  0  0  0  0
   28.1262  -25.8955  -16.3661 C   0  0  0  0  0  0  0  0  0  0  0  0
   26.7765  -25.9713  -16.6744 C   0  0  0  0  0  0  0  0  0  0  0  0
   26.2724  -26.8949  -17.5516 C   0  0  0  0  0  0  0  0  0  0  0  0
   27.1459  -27.7764  -18.1443 C   0  0  0  0  0  0  0  0  0  0  0  0
   28.1364  -30.6202  -17.5947 C   0  0  0  0  0  0  0  0  0  0  0  0
   27.2884  -30.3472  -16.5310 O   0  0  0  0  0  0  0  0  0  0  0  0
   27.7322  -31.4534  -18.4404 O   0  0  0  0  0  0  0  0  0  0  0  0
  2  1  1  6
  2  3  1  0
  3  4  1  0
  4  8  1  0
  4  5  2  0
  5  6  1  0
  7  6  1  0
  8  7  2  0
  9  2  1  0
  9 11  1  0
 10  9  2  0
 12 11  1  0
 12 13  1  1
 14 13  1  0
 15 14  1  0
 16 15  2  0
 17 12  1  0
 18 17  2  0
 19 15  1  0
 20 17  1  0
 21 20  1  0
 21 22  1  6
 23 22  1  0
 24 23  2  0
 25 24  1  0
 26 27  1  0
 26 25  2  0
 27 28  2  0
 28 23  1  0
 29 21  1  0
 30 29  1  0
 31 29  2  0
M  END
$$$$
