HEF.pdb
     RDKit          3D

 31 32  0  0  1  0  0  0  0  0999 V2000
   20.4587  -21.0397  -13.3529 N   0  0  0  0  0  0  0  0  0  0  0  0
   21.3372  -20.1206  -12.6774 C   0  0  1  0  0  0  0  0  0  0  0  0
   20.5807  -19.4344  -11.5830 C   0  0  0  0  0  0  0  0  0  0  0  0
   19.5802  -18.5460  -12.2289 C   0  0  0  0  0  0  0  0  0  0  0  0
   19.7990  -17.4142  -12.9861 C   0  0  0  0  0  0  0  0  0  0  0  0
   18.5878  -16.9285  -13.3715 N   0  0  0  0  0  0  0  0  0  0  0  0
   17.6390  -17.7269  -12.8737 C   0  0  0  0  0  0  0  0  0  0  0  0
   18.2430  -18.7007  -12.1860 N   0  0  0  0  0  0  0  0  0  0  0  0
   22.5603  -20.8208  -12.2012 C   0  0  0  0  0  0  0  0  0  0  0  0
   22.4579  -21.7986  -11.4223 O   0  0  0  0  0  0  0  0  0  0  0  0
   23.8391  -20.4094  -12.6060 N   0  0  0  0  0  0  0  0  0  0  0  0
   25.0840  -21.0401  -12.2669 C   0  0  1  0  0  0  0  0  0  0  0  0
   26.0646  -20.9310  -13.4078 C   0  0  0  0  0  0  0  0  0  0  0  0
   27.3851  -21.6000  -13.1003 C   0  0  0  0  0  0  0  0  0  0  0  0
   28.2624  -21.4631  -14.2784 C   0  0  0  0  0  0  0  0  0  0  0  0
   27.8341  -20.9105  -15.3107 O   0  0  0  0  0  0  0  0  0  0  0  0
   25.7167  -20.3821  -11.0740 C   0  0  0  0  0  0  0  0  0  0  0  0
   25.7101  -19.1249  -10.9532 O   0  0  0  0  0  0  0  0  0  0  0  0
   29.5493  -21.9565  -14.2081 O   0  0  0  0  0  0  0  0  0  0  0  0
   26.3372  -21.1530  -10.0553 N   0  0  0  0  0  0  0  0  0  0  0  0
   27.2201  -20.5033   -9.0684 C   0  0  1  0  0  0  0  0  0  0  0  0
   26.5183  -20.6221   -7.7562 C   0  0  0  0  0  0  0  0  0  0  0  0
   27.3650  -20.0346   -6.6927 C   0  0  0  0  0  0  0  0  0  0  0  0
   27.9528  -20.8501   -5.7240 C   0  0  0  0  0  0  0  0  0  0  0  0
   28.7516  -20.3494   -4.7152 C   0  0  0  0  0  0  0  0  0  0  0  0
   28.9590  -18.9788   -4.6900 C   0  0  0  0  0  0  0  0  0  0  0  0
   28.4062  -18.1333   -5.6154 C   0  0  0  0  0  0  0  0  0  0  0  0
   27.6169  -18.6738   -6.6034 C   0  0  0  0  0  0  0  0  0  0  0  0
   28.5407  -21.1377   -9.1369 C   0  0  0  0  0  0  0  0  0  0  0  0
   28.8052  -22.2830   -9.8740 O   0  0  0  0  0  0  0  0  0  0  0  0
   29.5013  -20.6386   -8.5036 O   0  0  0  0  0  0  0  0  0  0  0  0
  2  1  1  1
  2  3  1  0
  3  4  1  0
  4  8  1  0
  4  5  2  0
  5  6  1  0
  7  6  1  0
  8  7  2  0
  9  2  1  0
  9 11  1  0
 10  9  2  0
 12 11  1  0
 12 13  1  6
 14 13  1  0
 15 14  1  0
 16 15  2  0
 17 12  1  0
 18 17  2  0
 19 15  1  0
 20 17  1  0
 21 20  1  0
 21 22  1  1
 23 22  1  0
 24 23  2  0
 25 24  1  0
 26 27  1  0
 26 25  2  0
 27 28  2  0
 28 23  1  0
 29 21  1  0
 30 29  1  0
 31 29  2  0
M  END
$$$$
