HEF.pdb
     RDKit          3D

 31 32  0  0  1  0  0  0  0  0999 V2000
   41.8465   -8.8964   -7.9552 N   0  0  0  0  0  0  0  0  0  0  0  0
   40.6861   -8.6677   -8.7761 C   0  0  1  0  0  0  0  0  0  0  0  0
   39.5868   -9.5836   -8.3363 C   0  0  0  0  0  0  0  0  0  0  0  0
   39.8019  -10.8878   -9.0148 C   0  0  0  0  0  0  0  0  0  0  0  0
   40.0660  -12.1172   -8.4481 C   0  0  0  0  0  0  0  0  0  0  0  0
   40.1859  -13.0245   -9.4550 N   0  0  0  0  0  0  0  0  0  0  0  0
   40.0038  -12.3881  -10.6158 C   0  0  0  0  0  0  0  0  0  0  0  0
   39.7723  -11.1002  -10.3445 N   0  0  0  0  0  0  0  0  0  0  0  0
   40.3032   -7.2305   -8.7513 C   0  0  0  0  0  0  0  0  0  0  0  0
   40.7173   -6.4888   -7.8284 O   0  0  0  0  0  0  0  0  0  0  0  0
   39.4810   -6.6786   -9.7453 N   0  0  0  0  0  0  0  0  0  0  0  0
   39.0275   -5.3179   -9.8172 C   0  0  1  0  0  0  0  0  0  0  0  0
   38.2244   -5.0897  -11.0734 C   0  0  0  0  0  0  0  0  0  0  0  0
   39.0625   -5.2146  -12.3255 C   0  0  0  0  0  0  0  0  0  0  0  0
   38.1876   -5.0061  -13.4948 C   0  0  0  0  0  0  0  0  0  0  0  0
   38.5754   -4.2936  -14.4416 O   0  0  0  0  0  0  0  0  0  0  0  0
   38.1374   -4.9820   -8.6548 C   0  0  0  0  0  0  0  0  0  0  0  0
   36.9876   -5.4950   -8.5549 O   0  0  0  0  0  0  0  0  0  0  0  0
   36.9472   -5.6109  -13.5113 O   0  0  0  0  0  0  0  0  0  0  0  0
   38.5631   -4.0817   -7.6423 N   0  0  0  0  0  0  0  0  0  0  0  0
   37.6503   -3.7185   -6.5421 C   0  0  1  0  0  0  0  0  0  0  0  0
   38.3027   -4.2128   -5.2937 C   0  0  0  0  0  0  0  0  0  0  0  0
   37.4768   -3.8315   -4.1251 C   0  0  0  0  0  0  0  0  0  0  0  0
   36.3322   -4.5609   -3.7986 C   0  0  0  0  0  0  0  0  0  0  0  0
   35.5323   -4.2459   -2.7182 C   0  0  0  0  0  0  0  0  0  0  0  0
   35.9070   -3.1567   -1.9465 C   0  0  0  0  0  0  0  0  0  0  0  0
   37.0198   -2.4068   -2.2223 C   0  0  0  0  0  0  0  0  0  0  0  0
   37.7885   -2.7552   -3.3081 C   0  0  0  0  0  0  0  0  0  0  0  0
   37.4076   -2.2731   -6.5970 C   0  0  0  0  0  0  0  0  0  0  0  0
   36.2648   -1.6667   -6.0958 O   0  0  0  0  0  0  0  0  0  0  0  0
   38.2633   -1.5206   -7.1210 O   0  0  0  0  0  0  0  0  0  0  0  0
  2  1  1  1
  2  3  1  0
  3  4  1  0
  4  8  1  0
  4  5  2  0
  5  6  1  0
  7  6  1  0
  8  7  2  0
  9  2  1  0
  9 11  1  0
 10  9  2  0
 12 11  1  0
 12 13  1  6
 14 13  1  0
 15 14  1  0
 16 15  2  0
 17 12  1  0
 18 17  2  0
 19 15  1  0
 20 17  1  0
 21 20  1  0
 21 22  1  1
 23 22  1  0
 24 23  2  0
 25 24  1  0
 26 27  1  0
 26 25  2  0
 27 28  2  0
 28 23  1  0
 29 21  1  0
 30 29  1  0
 31 29  2  0
M  END
$$$$
