HEF.pdb
     RDKit          3D

 31 32  0  0  1  0  0  0  0  0999 V2000
   20.6080  -30.3730    6.8369 N   0  0  0  0  0  0  0  0  0  0  0  0
   21.9036  -30.7845    6.3627 C   0  0  1  0  0  0  0  0  0  0  0  0
   22.2757  -29.9557    5.1729 C   0  0  0  0  0  0  0  0  0  0  0  0
   21.3407  -30.3152    4.0756 C   0  0  0  0  0  0  0  0  0  0  0  0
   20.9250  -31.5688    3.6779 C   0  0  0  0  0  0  0  0  0  0  0  0
   20.0664  -31.4128    2.6340 N   0  0  0  0  0  0  0  0  0  0  0  0
   19.9458  -30.1059    2.3829 C   0  0  0  0  0  0  0  0  0  0  0  0
   20.7160  -29.4488    3.2552 N   0  0  0  0  0  0  0  0  0  0  0  0
   22.9053  -30.7251    7.4608 C   0  0  0  0  0  0  0  0  0  0  0  0
   23.1785  -29.6257    7.9993 O   0  0  0  0  0  0  0  0  0  0  0  0
   23.5594  -31.8810    7.9132 N   0  0  0  0  0  0  0  0  0  0  0  0
   24.6226  -31.9363    8.8769 C   0  0  1  0  0  0  0  0  0  0  0  0
   24.4747  -33.1468    9.7646 C   0  0  0  0  0  0  0  0  0  0  0  0
   25.5269  -33.2000   10.8489 C   0  0  0  0  0  0  0  0  0  0  0  0
   25.7308  -34.6100   11.2317 C   0  0  0  0  0  0  0  0  0  0  0  0
   26.5810  -35.2990   10.6342 O   0  0  0  0  0  0  0  0  0  0  0  0
   25.9602  -32.0425    8.2016 C   0  0  0  0  0  0  0  0  0  0  0  0
   26.1941  -32.9719    7.3789 O   0  0  0  0  0  0  0  0  0  0  0  0
   24.9661  -35.1375   12.2523 O   0  0  0  0  0  0  0  0  0  0  0  0
   26.9929  -31.1052    8.4700 N   0  0  0  0  0  0  0  0  0  0  0  0
   28.3351  -31.2950    7.8887 C   0  0  1  0  0  0  0  0  0  0  0  0
   28.5371  -30.1502    6.9521 C   0  0  0  0  0  0  0  0  0  0  0  0
   27.7849  -30.4017    5.7014 C   0  0  0  0  0  0  0  0  0  0  0  0
   28.2937  -31.2664    4.7307 C   0  0  0  0  0  0  0  0  0  0  0  0
   27.6285  -31.5342    3.5509 C   0  0  0  0  0  0  0  0  0  0  0  0
   26.4096  -30.9042    3.3515 C   0  0  0  0  0  0  0  0  0  0  0  0
   25.8650  -30.0467    4.2706 C   0  0  0  0  0  0  0  0  0  0  0  0
   26.5609  -29.8078    5.4324 C   0  0  0  0  0  0  0  0  0  0  0  0
   29.3064  -31.3932    8.9832 C   0  0  0  0  0  0  0  0  0  0  0  0
   30.6724  -31.5369    8.7871 O   0  0  0  0  0  0  0  0  0  0  0  0
   28.9075  -31.3485   10.1714 O   0  0  0  0  0  0  0  0  0  0  0  0
  2  1  1  1
  2  3  1  0
  3  4  1  0
  4  8  1  0
  4  5  2  0
  5  6  1  0
  7  6  1  0
  8  7  2  0
  9  2  1  0
  9 11  1  0
 10  9  2  0
 12 11  1  0
 12 13  1  1
 14 13  1  0
 15 14  1  0
 16 15  2  0
 17 12  1  0
 18 17  2  0
 19 15  1  0
 20 17  1  0
 21 20  1  0
 21 22  1  6
 23 22  1  0
 24 23  2  0
 25 24  1  0
 26 27  1  0
 26 25  2  0
 27 28  2  0
 28 23  1  0
 29 21  1  0
 30 29  1  0
 31 29  2  0
M  END
$$$$
