HEF.pdb
     RDKit          3D

 31 32  0  0  1  0  0  0  0  0999 V2000
   12.8102  -10.5054  -11.9304 N   0  0  0  0  0  0  0  0  0  0  0  0
   13.6191  -10.1775  -10.7854 C   0  0  1  0  0  0  0  0  0  0  0  0
   14.3855  -11.3921  -10.3632 C   0  0  0  0  0  0  0  0  0  0  0  0
   13.3958  -12.3986   -9.8997 C   0  0  0  0  0  0  0  0  0  0  0  0
   12.6567  -12.4031   -8.7352 C   0  0  0  0  0  0  0  0  0  0  0  0
   11.8806  -13.5207   -8.7369 N   0  0  0  0  0  0  0  0  0  0  0  0
   12.1230  -14.1969   -9.8637 C   0  0  0  0  0  0  0  0  0  0  0  0
   13.0370  -13.5156  -10.5611 N   0  0  0  0  0  0  0  0  0  0  0  0
   14.4853   -9.0037  -11.0762 C   0  0  0  0  0  0  0  0  0  0  0  0
   15.0150   -8.8821  -12.2067 O   0  0  0  0  0  0  0  0  0  0  0  0
   14.7274   -8.0191  -10.1063 N   0  0  0  0  0  0  0  0  0  0  0  0
   15.4738   -6.8063  -10.2913 C   0  0  1  0  0  0  0  0  0  0  0  0
   15.2007   -5.8362   -9.1691 C   0  0  0  0  0  0  0  0  0  0  0  0
   15.8573   -4.4930   -9.3940 C   0  0  0  0  0  0  0  0  0  0  0  0
   15.5118   -3.6102   -8.2637 C   0  0  0  0  0  0  0  0  0  0  0  0
   14.7706   -4.0289   -7.3527 O   0  0  0  0  0  0  0  0  0  0  0  0
   16.9516   -7.0754  -10.2949 C   0  0  0  0  0  0  0  0  0  0  0  0
   17.4844   -7.7555   -9.3736 O   0  0  0  0  0  0  0  0  0  0  0  0
   16.0223   -2.3283   -8.2432 O   0  0  0  0  0  0  0  0  0  0  0  0
   17.7852   -6.5737  -11.3295 N   0  0  0  0  0  0  0  0  0  0  0  0
   19.1980   -6.9895  -11.4099 C   0  0  1  0  0  0  0  0  0  0  0  0
   19.1820   -8.3760  -11.9630 C   0  0  0  0  0  0  0  0  0  0  0  0
   20.5690   -8.8008  -12.2609 C   0  0  0  0  0  0  0  0  0  0  0  0
   21.4149   -9.2268  -11.2354 C   0  0  0  0  0  0  0  0  0  0  0  0
   22.7141   -9.6345  -11.4638 C   0  0  0  0  0  0  0  0  0  0  0  0
   23.1673   -9.6083  -12.7738 C   0  0  0  0  0  0  0  0  0  0  0  0
   22.3796   -9.1992  -13.8173 C   0  0  0  0  0  0  0  0  0  0  0  0
   21.0917   -8.8012  -13.5455 C   0  0  0  0  0  0  0  0  0  0  0  0
   19.9293   -6.0003  -12.2086 C   0  0  0  0  0  0  0  0  0  0  0  0
   21.3014   -5.8113  -12.1284 O   0  0  0  0  0  0  0  0  0  0  0  0
   19.3046   -5.2717  -13.0159 O   0  0  0  0  0  0  0  0  0  0  0  0
  2  1  1  6
  2  3  1  0
  3  4  1  0
  4  8  1  0
  4  5  2  0
  5  6  1  0
  7  6  1  0
  8  7  2  0
  9  2  1  0
  9 11  1  0
 10  9  2  0
 12 11  1  0
 12 13  1  1
 14 13  1  0
 15 14  1  0
 16 15  2  0
 17 12  1  0
 18 17  2  0
 19 15  1  0
 20 17  1  0
 21 20  1  0
 21 22  1  6
 23 22  1  0
 24 23  2  0
 25 24  1  0
 26 27  1  0
 26 25  2  0
 27 28  2  0
 28 23  1  0
 29 21  1  0
 30 29  1  0
 31 29  2  0
M  END
$$$$
