GVM.pdb
     RDKit          3D

 20 19  0  0  1  0  0  0  0  0999 V2000
   13.1865  -11.7132  -10.0122 N   0  0  0  0  0  0  0  0  0  0  0  0
   14.5670  -11.3106   -9.9375 C   0  0  0  0  0  0  0  0  0  0  0  0
   14.7542   -9.9333  -10.4453 C   0  0  0  0  0  0  0  0  0  0  0  0
   14.1019   -9.5190  -11.4250 O   0  0  0  0  0  0  0  0  0  0  0  0
   13.9400   -6.6696   -9.0857 C   0  0  0  0  0  0  0  0  0  0  0  0
   15.3891   -6.6071   -9.4184 C   0  0  1  0  0  0  0  0  0  0  0  0
   16.1783   -6.6713   -8.1272 C   0  0  0  0  0  0  0  0  0  0  0  0
   15.8617   -7.6802  -10.3560 C   0  0  2  0  0  0  0  0  0  0  0  0
   15.6781   -9.0043   -9.8574 N   0  0  0  0  0  0  0  0  0  0  0  0
   17.2536   -7.4275  -10.8200 C   0  0  0  0  0  0  0  0  0  0  0  0
   18.2103   -7.6867  -10.0531 O   0  0  0  0  0  0  0  0  0  0  0  0
   22.3540   -9.9207  -12.9149 C   0  0  0  0  0  0  0  0  0  0  0  0
   21.7079   -8.9015  -14.2659 S   0  0  0  0  0  0  0  0  0  0  0  0
   20.9611   -7.3981  -13.5131 C   0  0  0  0  0  0  0  0  0  0  0  0
   19.5489   -7.7122  -13.1412 C   0  0  0  0  0  0  0  0  0  0  0  0
   18.8945   -6.5686  -12.4489 C   0  0  2  0  0  0  0  0  0  0  0  0
   17.4979   -6.9036  -12.1043 N   0  0  0  0  0  0  0  0  0  0  0  0
   18.9246   -5.3238  -13.2378 C   0  0  0  0  0  0  0  0  0  0  0  0
   17.9745   -4.8745  -13.8957 O   0  0  0  0  0  0  0  0  0  0  0  0
   20.1081   -4.5624  -13.2680 O   0  0  0  0  0  0  0  0  0  0  0  0
  1  2  1  0
  3  2  1  0
  4  3  2  0
  6  5  1  1
  6  8  1  0
  7  6  1  0
  8  9  1  1
  8 10  1  0
  9  3  1  0
 10 17  1  0
 11 10  2  0
 12 13  1  0
 13 14  1  0
 16 15  1  6
 15 14  1  0
 16 18  1  0
 17 16  1  0
 18 19  2  0
 18 20  1  0
M  END
$$$$
