GVM.pdb
     RDKit          3D

 20 19  0  0  1  0  0  0  0  0999 V2000
   21.2986  -30.5597  -10.8763 N   0  0  0  0  0  0  0  0  0  0  0  0
   22.6545  -30.3993  -10.4189 C   0  0  0  0  0  0  0  0  0  0  0  0
   23.1150  -31.5908   -9.6718 C   0  0  0  0  0  0  0  0  0  0  0  0
   22.3588  -32.5678   -9.4977 O   0  0  0  0  0  0  0  0  0  0  0  0
   26.2456  -33.6795  -10.4151 C   0  0  0  0  0  0  0  0  0  0  0  0
   26.2163  -33.3771   -8.9584 C   0  0  1  0  0  0  0  0  0  0  0  0
   27.2989  -32.3607   -8.6602 C   0  0  0  0  0  0  0  0  0  0  0  0
   24.8954  -32.8755   -8.4508 C   0  0  2  0  0  0  0  0  0  0  0  0
   24.4327  -31.6984   -9.1110 N   0  0  0  0  0  0  0  0  0  0  0  0
   24.8937  -32.7424   -6.9679 C   0  0  0  0  0  0  0  0  0  0  0  0
   25.1183  -31.6215   -6.4544 O   0  0  0  0  0  0  0  0  0  0  0  0
   21.5207  -33.7840   -0.2715 C   0  0  0  0  0  0  0  0  0  0  0  0
   21.5200  -33.9307   -2.0770 S   0  0  0  0  0  0  0  0  0  0  0  0
   23.2505  -33.6828   -2.6504 C   0  0  0  0  0  0  0  0  0  0  0  0
   23.2635  -33.7470   -4.1427 C   0  0  0  0  0  0  0  0  0  0  0  0
   24.6454  -33.6453   -4.6861 C   0  0  2  0  0  0  0  0  0  0  0  0
   24.6433  -33.8594   -6.1475 N   0  0  0  0  0  0  0  0  0  0  0  0
   25.5854  -34.5855   -4.0496 C   0  0  0  0  0  0  0  0  0  0  0  0
   25.9398  -35.6725   -4.5295 O   0  0  0  0  0  0  0  0  0  0  0  0
   26.1422  -34.2541   -2.8000 O   0  0  0  0  0  0  0  0  0  0  0  0
  1  2  1  0
  3  2  1  0
  4  3  2  0
  6  5  1  6
  6  8  1  0
  7  6  1  0
  8  9  1  6
  8 10  1  0
  9  3  1  0
 10 17  1  0
 11 10  2  0
 12 13  1  0
 13 14  1  0
 16 15  1  1
 15 14  1  0
 16 18  1  0
 17 16  1  0
 18 19  2  0
 18 20  1  0
M  END
$$$$
