GVM.pdb
     RDKit          3D

 20 19  0  0  1  0  0  0  0  0999 V2000
   28.4972  -37.2050   -7.9173 N   0  0  0  0  0  0  0  0  0  0  0  0
   27.2808  -36.7678   -7.2828 C   0  0  0  0  0  0  0  0  0  0  0  0
   27.5627  -35.8833   -6.1304 C   0  0  0  0  0  0  0  0  0  0  0  0
   28.7320  -35.7036   -5.7335 O   0  0  0  0  0  0  0  0  0  0  0  0
   26.2400  -32.2591   -3.0312 C   0  0  0  0  0  0  0  0  0  0  0  0
   25.8989  -33.1828   -4.1469 C   0  0  1  0  0  0  0  0  0  0  0  0
   25.9100  -32.3940   -5.4398 C   0  0  0  0  0  0  0  0  0  0  0  0
   26.8044  -34.3738   -4.2710 C   0  0  2  0  0  0  0  0  0  0  0  0
   26.5326  -35.1895   -5.4095 N   0  0  0  0  0  0  0  0  0  0  0  0
   26.8597  -35.1538   -3.0039 C   0  0  0  0  0  0  0  0  0  0  0  0
   25.9328  -35.9541   -2.7377 O   0  0  0  0  0  0  0  0  0  0  0  0
   31.8795  -38.1710    0.3659 C   0  0  0  0  0  0  0  0  0  0  0  0
   31.0723  -36.9663    1.4515 S   0  0  0  0  0  0  0  0  0  0  0  0
   29.3267  -36.8046    0.8933 C   0  0  0  0  0  0  0  0  0  0  0  0
   29.3086  -35.9913   -0.3595 C   0  0  0  0  0  0  0  0  0  0  0  0
   27.9256  -35.8112   -0.8790 C   0  0  2  0  0  0  0  0  0  0  0  0
   27.9382  -34.9978   -2.1117 N   0  0  0  0  0  0  0  0  0  0  0  0
   27.0146  -35.2017    0.1066 C   0  0  0  0  0  0  0  0  0  0  0  0
   26.7692  -33.9895    0.1952 O   0  0  0  0  0  0  0  0  0  0  0  0
   26.3563  -36.0318    1.0333 O   0  0  0  0  0  0  0  0  0  0  0  0
  1  2  1  0
  3  2  1  0
  4  3  2  0
  6  5  1  1
  6  8  1  0
  7  6  1  0
  8  9  1  6
  8 10  1  0
  9  3  1  0
 10 17  1  0
 11 10  2  0
 12 13  1  0
 13 14  1  0
 16 15  1  1
 15 14  1  0
 16 18  1  0
 17 16  1  0
 18 19  2  0
 18 20  1  0
M  END
$$$$
