GVM.pdb
     RDKit          3D

 20 19  0  0  1  0  0  0  0  0999 V2000
   20.7496  -13.6330  -18.9130 N   0  0  0  0  0  0  0  0  0  0  0  0
   19.5107  -13.0128  -18.5209 C   0  0  0  0  0  0  0  0  0  0  0  0
   19.7501  -11.7770  -17.7428 C   0  0  0  0  0  0  0  0  0  0  0  0
   20.3935  -11.8090  -16.6742 O   0  0  0  0  0  0  0  0  0  0  0  0
   19.1703   -7.9548  -19.4722 C   0  0  0  0  0  0  0  0  0  0  0  0
   19.8664   -8.1089  -18.1660 C   0  0  1  0  0  0  0  0  0  0  0  0
   19.6381   -6.8519  -17.3525 C   0  0  0  0  0  0  0  0  0  0  0  0
   19.4451   -9.3112  -17.3716 C   0  0  2  0  0  0  0  0  0  0  0  0
   19.2685  -10.4891  -18.1570 N   0  0  0  0  0  0  0  0  0  0  0  0
   18.2690   -9.0126  -16.5089 C   0  0  0  0  0  0  0  0  0  0  0  0
   17.1180   -9.0773  -17.0005 O   0  0  0  0  0  0  0  0  0  0  0  0
   14.7409   -9.8496   -9.7507 C   0  0  0  0  0  0  0  0  0  0  0  0
   16.2586  -10.0477  -10.7194 S   0  0  0  0  0  0  0  0  0  0  0  0
   16.0709   -9.0426  -12.2489 C   0  0  0  0  0  0  0  0  0  0  0  0
   17.2642   -9.2804  -13.1154 C   0  0  0  0  0  0  0  0  0  0  0  0
   17.2252   -8.4459  -14.3472 C   0  0  2  0  0  0  0  0  0  0  0  0
   18.4421   -8.6610  -15.1561 N   0  0  0  0  0  0  0  0  0  0  0  0
   17.0669   -7.0080  -14.0643 C   0  0  0  0  0  0  0  0  0  0  0  0
   17.9949   -6.1881  -14.0020 O   0  0  0  0  0  0  0  0  0  0  0  0
   15.7756   -6.4933  -13.8431 O   0  0  0  0  0  0  0  0  0  0  0  0
  1  2  1  0
  3  2  1  0
  4  3  2  0
  6  5  1  6
  6  8  1  0
  7  6  1  0
  8  9  1  6
  8 10  1  0
  9  3  1  0
 10 17  1  0
 11 10  2  0
 12 13  1  0
 13 14  1  0
 16 15  1  1
 15 14  1  0
 16 18  1  0
 17 16  1  0
 18 19  2  0
 18 20  1  0
M  END
$$$$
