GVM.pdb
     RDKit          3D

 20 19  0  0  1  0  0  0  0  0999 V2000
   22.7316  -22.9768  -14.7623 N   0  0  0  0  0  0  0  0  0  0  0  0
   23.6313  -21.9143  -15.1297 C   0  0  0  0  0  0  0  0  0  0  0  0
   24.8434  -21.9177  -14.2807 C   0  0  0  0  0  0  0  0  0  0  0  0
   25.5481  -22.9421  -14.1767 O   0  0  0  0  0  0  0  0  0  0  0  0
   27.9436  -20.1893  -14.6920 C   0  0  0  0  0  0  0  0  0  0  0  0
   27.5580  -19.8959  -13.2850 C   0  0  1  0  0  0  0  0  0  0  0  0
   27.1458  -18.4411  -13.1966 C   0  0  0  0  0  0  0  0  0  0  0  0
   26.4627  -20.7677  -12.7425 C   0  0  2  0  0  0  0  0  0  0  0  0
   25.2782  -20.7682  -13.5377 N   0  0  0  0  0  0  0  0  0  0  0  0
   26.1926  -20.4778  -11.3073 C   0  0  0  0  0  0  0  0  0  0  0  0
   25.6671  -19.3844  -10.9927 O   0  0  0  0  0  0  0  0  0  0  0  0
   29.2755  -20.0523   -5.9032 C   0  0  0  0  0  0  0  0  0  0  0  0
   27.9576  -18.8319   -6.1383 S   0  0  0  0  0  0  0  0  0  0  0  0
   26.5523  -19.6901   -6.9591 C   0  0  0  0  0  0  0  0  0  0  0  0
   26.9657  -20.0406   -8.3510 C   0  0  0  0  0  0  0  0  0  0  0  0
   26.1097  -21.1140   -8.9257 C   0  0  2  0  0  0  0  0  0  0  0  0
   26.5216  -21.4175  -10.3112 N   0  0  0  0  0  0  0  0  0  0  0  0
   24.6736  -20.7828   -8.8977 C   0  0  0  0  0  0  0  0  0  0  0  0
   24.0329  -20.3113   -9.8488 O   0  0  0  0  0  0  0  0  0  0  0  0
   23.9436  -21.0070   -7.7153 O   0  0  0  0  0  0  0  0  0  0  0  0
  1  2  1  0
  3  2  1  0
  4  3  2  0
  6  5  1  6
  6  8  1  0
  7  6  1  0
  8  9  1  6
  8 10  1  0
  9  3  1  0
 10 17  1  0
 11 10  2  0
 12 13  1  0
 13 14  1  0
 16 15  1  6
 15 14  1  0
 16 18  1  0
 17 16  1  0
 18 19  2  0
 18 20  1  0
M  END
$$$$
