GVM.pdb
     RDKit          3D

 20 19  0  0  1  0  0  0  0  0999 V2000
   26.4695  -22.3011  -14.9610 N   0  0  0  0  0  0  0  0  0  0  0  0
   25.1828  -22.2545  -15.6057 C   0  0  0  0  0  0  0  0  0  0  0  0
   24.1123  -21.9044  -14.6459 C   0  0  0  0  0  0  0  0  0  0  0  0
   24.3432  -21.8550  -13.4207 O   0  0  0  0  0  0  0  0  0  0  0  0
   22.3314  -18.7831  -14.2570 C   0  0  0  0  0  0  0  0  0  0  0  0
   21.2627  -19.8176  -14.3031 C   0  0  1  0  0  0  0  0  0  0  0  0
   20.5309  -19.6892  -15.6230 C   0  0  0  0  0  0  0  0  0  0  0  0
   21.7494  -21.2269  -14.1276 C   0  0  2  0  0  0  0  0  0  0  0  0
   22.7678  -21.6053  -15.0523 N   0  0  0  0  0  0  0  0  0  0  0  0
   20.6191  -22.1953  -14.0877 C   0  0  0  0  0  0  0  0  0  0  0  0
   20.2402  -22.7370  -15.1525 O   0  0  0  0  0  0  0  0  0  0  0  0
   19.5304  -26.6567   -9.6488 C   0  0  0  0  0  0  0  0  0  0  0  0
   17.8199  -26.1950  -10.0259 S   0  0  0  0  0  0  0  0  0  0  0  0
   17.8250  -25.3497  -11.6601 C   0  0  0  0  0  0  0  0  0  0  0  0
   18.8566  -24.2699  -11.6259 C   0  0  0  0  0  0  0  0  0  0  0  0
   18.8993  -23.5088  -12.9042 C   0  0  2  0  0  0  0  0  0  0  0  0
   19.9800  -22.5026  -12.8709 N   0  0  0  0  0  0  0  0  0  0  0  0
   17.6202  -22.8507  -13.2261 C   0  0  0  0  0  0  0  0  0  0  0  0
   16.7146  -23.3504  -13.9099 O   0  0  0  0  0  0  0  0  0  0  0  0
   17.3760  -21.5545  -12.7346 O   0  0  0  0  0  0  0  0  0  0  0  0
  1  2  1  0
  3  2  1  0
  4  3  2  0
  6  5  1  6
  6  8  1  0
  7  6  1  0
  8  9  1  6
  8 10  1  0
  9  3  1  0
 10 17  1  0
 11 10  2  0
 12 13  1  0
 13 14  1  0
 16 15  1  1
 15 14  1  0
 16 18  1  0
 17 16  1  0
 18 19  2  0
 18 20  1  0
M  END
$$$$
