GVM.pdb
     RDKit          3D

 20 19  0  0  1  0  0  0  0  0999 V2000
   27.9607  -23.9308  -17.0027 N   0  0  0  0  0  0  0  0  0  0  0  0
   26.7903  -23.5145  -16.2746 C   0  0  0  0  0  0  0  0  0  0  0  0
   27.1271  -22.5061  -15.2452 C   0  0  0  0  0  0  0  0  0  0  0  0
   28.1589  -22.6195  -14.5528 O   0  0  0  0  0  0  0  0  0  0  0  0
   26.4957  -18.0252  -13.1916 C   0  0  0  0  0  0  0  0  0  0  0  0
   26.2384  -19.0061  -14.2807 C   0  0  1  0  0  0  0  0  0  0  0  0
   27.0008  -18.5628  -15.5120 C   0  0  0  0  0  0  0  0  0  0  0  0
   26.5995  -20.4236  -13.9429 C   0  0  2  0  0  0  0  0  0  0  0  0
   26.3072  -21.3569  -14.9817 N   0  0  0  0  0  0  0  0  0  0  0  0
   26.0375  -20.8328  -12.6263 C   0  0  0  0  0  0  0  0  0  0  0  0
   24.9436  -21.4433  -12.5916 O   0  0  0  0  0  0  0  0  0  0  0  0
   28.7969  -19.5613   -7.0374 C   0  0  0  0  0  0  0  0  0  0  0  0
   27.1539  -19.9005   -6.3542 S   0  0  0  0  0  0  0  0  0  0  0  0
   26.1287  -20.6058   -7.7094 C   0  0  0  0  0  0  0  0  0  0  0  0
   26.8369  -20.3713   -9.0035 C   0  0  0  0  0  0  0  0  0  0  0  0
   26.0540  -20.8850  -10.1604 C   0  0  2  0  0  0  0  0  0  0  0  0
   26.7228  -20.5398  -11.4313 N   0  0  0  0  0  0  0  0  0  0  0  0
   24.6656  -20.3905  -10.1817 C   0  0  0  0  0  0  0  0  0  0  0  0
   24.2928  -19.3375  -10.7200 O   0  0  0  0  0  0  0  0  0  0  0  0
   23.6607  -21.1483   -9.5515 O   0  0  0  0  0  0  0  0  0  0  0  0
  1  2  1  0
  3  2  1  0
  4  3  2  0
  6  5  1  1
  6  8  1  0
  7  6  1  0
  8  9  1  6
  8 10  1  0
  9  3  1  0
 10 17  1  0
 11 10  2  0
 12 13  1  0
 13 14  1  0
 16 15  1  1
 15 14  1  0
 16 18  1  0
 17 16  1  0
 18 19  2  0
 18 20  1  0
M  END
$$$$
