GVM.pdb
     RDKit          3D

 20 19  0  0  1  0  0  0  0  0999 V2000
   15.8761  -13.1867  -14.0962 N   0  0  0  0  0  0  0  0  0  0  0  0
   15.5072  -11.7959  -14.1513 C   0  0  0  0  0  0  0  0  0  0  0  0
   16.1462  -11.0260  -13.0610 C   0  0  0  0  0  0  0  0  0  0  0  0
   16.5325  -11.5934  -12.0190 O   0  0  0  0  0  0  0  0  0  0  0  0
   19.3043   -9.1709  -13.1948 C   0  0  0  0  0  0  0  0  0  0  0  0
   18.3198   -8.2344  -12.5882 C   0  0  1  0  0  0  0  0  0  0  0  0
   17.9964   -7.1583  -13.6039 C   0  0  0  0  0  0  0  0  0  0  0  0
   17.0513   -8.8824  -12.1139 C   0  0  2  0  0  0  0  0  0  0  0  0
   16.3589   -9.6073  -13.1290 N   0  0  0  0  0  0  0  0  0  0  0  0
   16.1755   -7.9132  -11.3995 C   0  0  0  0  0  0  0  0  0  0  0  0
   15.2467   -7.3514  -12.0259 O   0  0  0  0  0  0  0  0  0  0  0  0
   11.8931   -5.7897   -5.4768 C   0  0  0  0  0  0  0  0  0  0  0  0
   12.8789   -7.0509   -6.3247 S   0  0  0  0  0  0  0  0  0  0  0  0
   13.8324   -6.2048   -7.6514 C   0  0  0  0  0  0  0  0  0  0  0  0
   14.6989   -7.2182   -8.3249 C   0  0  0  0  0  0  0  0  0  0  0  0
   15.5131   -6.6105   -9.4125 C   0  0  2  0  0  0  0  0  0  0  0  0
   16.3839   -7.6274  -10.0362 N   0  0  0  0  0  0  0  0  0  0  0  0
   16.3307   -5.4731   -8.9536 C   0  0  0  0  0  0  0  0  0  0  0  0
   17.5360   -5.5317   -8.6687 O   0  0  0  0  0  0  0  0  0  0  0  0
   15.7273   -4.2088   -8.8175 O   0  0  0  0  0  0  0  0  0  0  0  0
  1  2  1  0
  3  2  1  0
  4  3  2  0
  6  5  1  6
  6  8  1  0
  7  6  1  0
  8  9  1  6
  8 10  1  0
  9  3  1  0
 10 17  1  0
 11 10  2  0
 12 13  1  0
 13 14  1  0
 16 15  1  1
 15 14  1  0
 16 18  1  0
 17 16  1  0
 18 19  2  0
 18 20  1  0
M  END
$$$$
