GVM.pdb
     RDKit          3D

 20 19  0  0  1  0  0  0  0  0999 V2000
   24.4450  -21.2459   -8.9991 N   0  0  0  0  0  0  0  0  0  0  0  0
   24.3879  -20.1268   -9.9033 C   0  0  0  0  0  0  0  0  0  0  0  0
   24.2715  -20.5755  -11.3086 C   0  0  0  0  0  0  0  0  0  0  0  0
   24.9304  -21.5498  -11.7251 O   0  0  0  0  0  0  0  0  0  0  0  0
   21.3623  -21.9894  -13.0910 C   0  0  0  0  0  0  0  0  0  0  0  0
   21.8570  -20.8582  -13.9217 C   0  0  1  0  0  0  0  0  0  0  0  0
   20.8974  -19.6968  -13.7665 C   0  0  0  0  0  0  0  0  0  0  0  0
   23.2530  -20.4098  -13.5990 C   0  0  2  0  0  0  0  0  0  0  0  0
   23.4122  -19.9338  -12.2635 N   0  0  0  0  0  0  0  0  0  0  0  0
   23.7697  -19.4536  -14.6166 C   0  0  0  0  0  0  0  0  0  0  0  0
   23.5299  -18.2307  -14.4838 O   0  0  0  0  0  0  0  0  0  0  0  0
   29.5517  -16.6527  -16.8738 C   0  0  0  0  0  0  0  0  0  0  0  0
   28.8816  -18.1088  -17.7177 S   0  0  0  0  0  0  0  0  0  0  0  0
   27.0482  -17.9549  -17.7096 C   0  0  0  0  0  0  0  0  0  0  0  0
   26.5071  -18.8536  -16.6463 C   0  0  0  0  0  0  0  0  0  0  0  0
   25.0197  -18.9007  -16.6698 C   0  0  2  0  0  0  0  0  0  0  0  0
   24.5194  -19.9124  -15.7170 N   0  0  0  0  0  0  0  0  0  0  0  0
   24.4728  -19.1715  -18.0115 C   0  0  0  0  0  0  0  0  0  0  0  0
   23.8719  -20.2050  -18.3403 O   0  0  0  0  0  0  0  0  0  0  0  0
   24.6275  -18.2025  -19.0207 O   0  0  0  0  0  0  0  0  0  0  0  0
  1  2  1  0
  3  2  1  0
  4  3  2  0
  6  5  1  1
  6  8  1  0
  7  6  1  0
  8  9  1  1
  8 10  1  0
  9  3  1  0
 10 17  1  0
 11 10  2  0
 12 13  1  0
 13 14  1  0
 16 15  1  6
 15 14  1  0
 16 18  1  0
 17 16  1  0
 18 19  2  0
 18 20  1  0
M  END
$$$$
