GVM.pdb
     RDKit          3D

 20 19  0  0  1  0  0  0  0  0999 V2000
   19.0190  -14.2165  -16.2064 N   0  0  0  0  0  0  0  0  0  0  0  0
   18.7387  -13.0350  -15.4324 C   0  0  0  0  0  0  0  0  0  0  0  0
   19.0444  -11.8055  -16.1971 C   0  0  0  0  0  0  0  0  0  0  0  0
   19.7462  -11.8517  -17.2278 O   0  0  0  0  0  0  0  0  0  0  0  0
   16.4720   -8.5566  -16.0814 C   0  0  0  0  0  0  0  0  0  0  0  0
   17.5639   -8.6648  -17.0866 C   0  0  1  0  0  0  0  0  0  0  0  0
   17.8948   -7.2728  -17.5833 C   0  0  0  0  0  0  0  0  0  0  0  0
   18.8105   -9.3346  -16.5852 C   0  0  2  0  0  0  0  0  0  0  0  0
   18.5642  -10.5080  -15.8120 N   0  0  0  0  0  0  0  0  0  0  0  0
   19.7111   -8.3696  -15.8963 C   0  0  0  0  0  0  0  0  0  0  0  0
   19.5973   -8.2031  -14.6594 O   0  0  0  0  0  0  0  0  0  0  0  0
   25.0923   -6.2721  -18.4764 C   0  0  0  0  0  0  0  0  0  0  0  0
   25.4567   -5.7632  -16.7765 S   0  0  0  0  0  0  0  0  0  0  0  0
   23.8747   -5.8038  -15.8383 C   0  0  0  0  0  0  0  0  0  0  0  0
   22.9127   -6.6742  -16.5788 C   0  0  0  0  0  0  0  0  0  0  0  0
   21.6208   -6.8092  -15.8523 C   0  0  2  0  0  0  0  0  0  0  0  0
   20.6808   -7.6499  -16.6211 N   0  0  0  0  0  0  0  0  0  0  0  0
   20.9908   -5.5111  -15.5509 C   0  0  0  0  0  0  0  0  0  0  0  0
   20.2097   -4.9074  -16.3011 O   0  0  0  0  0  0  0  0  0  0  0  0
   21.2767   -4.8811  -14.3251 O   0  0  0  0  0  0  0  0  0  0  0  0
  1  2  1  0
  3  2  1  0
  4  3  2  0
  6  5  1  1
  6  8  1  0
  7  6  1  0
  8  9  1  1
  8 10  1  0
  9  3  1  0
 10 17  1  0
 11 10  2  0
 12 13  1  0
 13 14  1  0
 16 15  1  6
 15 14  1  0
 16 18  1  0
 17 16  1  0
 18 19  2  0
 18 20  1  0
M  END
$$$$
