SCW.pdb
     RDKit          3D

 27 28  0  0  1  0  0  0  0  0999 V2000
   25.1440  -27.2524  -16.1994 O   0  0  0  0  0  0  0  0  0  0  0  0
   25.1152  -26.3237  -17.2377 C   0  0  0  0  0  0  0  0  0  0  0  0
   25.5522  -24.9784  -16.7490 C   0  0  2  0  0  0  0  0  0  0  0  0
   26.9243  -24.9656  -16.2960 N   0  0  0  0  0  0  0  0  0  0  0  0
   24.6053  -24.4533  -15.7575 C   0  0  0  0  0  0  0  0  0  0  0  0
   25.1205  -24.0151  -14.6779 O   0  0  0  0  0  0  0  0  0  0  0  0
   23.2105  -24.4013  -15.9104 N   0  0  0  0  0  0  0  0  0  0  0  0
   22.3633  -23.8084  -14.9121 C   0  0  1  0  0  0  0  0  0  0  0  0
   21.6724  -22.6226  -15.5109 C   0  0  0  0  0  0  0  0  0  0  0  0
   20.3763  -22.0327  -14.3882 S   0  0  0  0  0  0  0  0  0  0  0  0
   21.4254  -24.7970  -14.3321 C   0  0  0  0  0  0  0  0  0  0  0  0
   20.6939  -25.4398  -15.1278 O   0  0  0  0  0  0  0  0  0  0  0  0
   21.2943  -25.0671  -12.9662 N   0  0  0  0  0  0  0  0  0  0  0  0
   20.3146  -26.0433  -12.5029 C   0  0  1  0  0  0  0  0  0  0  0  0
   20.4799  -26.3445  -11.0574 C   0  0  0  0  0  0  0  0  0  0  0  0
   19.5828  -27.4495  -10.6400 C   0  0  0  0  0  0  0  0  0  0  0  0
   19.9892  -28.7897  -10.5408 C   0  0  0  0  0  0  0  0  0  0  0  0
   18.9745  -29.5197  -10.1002 N   0  0  0  0  0  0  0  0  0  0  0  0
   17.9053  -28.7365   -9.8989 C   0  0  0  0  0  0  0  0  0  0  0  0
   16.6101  -29.0408   -9.4533 C   0  0  0  0  0  0  0  0  0  0  0  0
   15.6703  -28.0656   -9.3376 C   0  0  0  0  0  0  0  0  0  0  0  0
   16.0420  -26.7834   -9.6734 C   0  0  0  0  0  0  0  0  0  0  0  0
   17.3197  -26.4830  -10.1127 C   0  0  0  0  0  0  0  0  0  0  0  0
   18.2764  -27.4578  -10.2318 C   0  0  0  0  0  0  0  0  0  0  0  0
   18.9757  -25.6255  -12.9053 C   0  0  0  0  0  0  0  0  0  0  0  0
   18.1224  -26.4361  -13.4095 O   0  0  0  0  0  0  0  0  0  0  0  0
   18.5142  -24.3233  -12.7711 O   0  0  0  0  0  0  0  0  0  0  0  0
  2  1  1  0
  3  2  1  0
  3  4  1  1
  5  6  2  0
  5  3  1  0
  7  5  1  0
  8  7  1  0
  8  9  1  6
 10  9  1  0
 11 13  1  0
 11  8  1  0
 12 11  2  0
 14 25  1  0
 14 13  1  0
 14 15  1  1
 15 16  1  0
 16 24  1  0
 16 17  2  0
 17 18  1  0
 19 20  2  0
 19 18  1  0
 21 20  1  0
 22 21  2  0
 23 22  1  0
 23 24  2  0
 24 19  1  0
 25 27  1  0
 26 25  2  0
M  END
$$$$
