SCW.pdb
     RDKit          3D

 27 28  0  0  1  0  0  0  0  0999 V2000
   17.3123  -22.6256    4.6274 O   0  0  0  0  0  0  0  0  0  0  0  0
   17.4775  -21.2427    4.5908 C   0  0  0  0  0  0  0  0  0  0  0  0
   16.1483  -20.5557    4.6181 C   0  0  2  0  0  0  0  0  0  0  0  0
   15.4889  -20.5600    3.3323 N   0  0  0  0  0  0  0  0  0  0  0  0
   16.2679  -19.2166    5.2081 C   0  0  0  0  0  0  0  0  0  0  0  0
   16.3466  -18.2518    4.3799 O   0  0  0  0  0  0  0  0  0  0  0  0
   16.3008  -18.9317    6.5825 N   0  0  0  0  0  0  0  0  0  0  0  0
   16.2674  -17.5815    7.0745 C   0  0  1  0  0  0  0  0  0  0  0  0
   15.1246  -17.4473    8.0326 C   0  0  0  0  0  0  0  0  0  0  0  0
   15.0131  -15.7365    8.6231 S   0  0  0  0  0  0  0  0  0  0  0  0
   17.5673  -17.1792    7.6591 C   0  0  0  0  0  0  0  0  0  0  0  0
   18.1971  -18.0413    8.3234 O   0  0  0  0  0  0  0  0  0  0  0  0
   18.1443  -15.9122    7.5262 N   0  0  0  0  0  0  0  0  0  0  0  0
   19.4221  -15.6181    8.1651 C   0  0  1  0  0  0  0  0  0  0  0  0
   20.4970  -15.3892    7.1652 C   0  0  0  0  0  0  0  0  0  0  0  0
   20.2231  -14.1733    6.3612 C   0  0  0  0  0  0  0  0  0  0  0  0
   20.7146  -12.8980    6.6824 C   0  0  0  0  0  0  0  0  0  0  0  0
   20.3346  -12.0381    5.7481 N   0  0  0  0  0  0  0  0  0  0  0  0
   19.6109  -12.6722    4.8147 C   0  0  0  0  0  0  0  0  0  0  0  0
   18.9881  -12.1972    3.6505 C   0  0  0  0  0  0  0  0  0  0  0  0
   18.2837  -13.0391    2.8489 C   0  0  0  0  0  0  0  0  0  0  0  0
   18.2100  -14.3609    3.2263 C   0  0  0  0  0  0  0  0  0  0  0  0
   18.8246  -14.8296    4.3745 C   0  0  0  0  0  0  0  0  0  0  0  0
   19.5390  -13.9905    5.1899 C   0  0  0  0  0  0  0  0  0  0  0  0
   19.2469  -14.5550    9.1490 C   0  0  0  0  0  0  0  0  0  0  0  0
   18.1980  -13.8220    9.1935 O   0  0  0  0  0  0  0  0  0  0  0  0
   20.1940  -14.2535   10.1181 O   0  0  0  0  0  0  0  0  0  0  0  0
  2  1  1  0
  3  2  1  0
  3  4  1  6
  5  6  2  0
  5  3  1  0
  7  5  1  0
  8  7  1  0
  8  9  1  1
 10  9  1  0
 11 13  1  0
 11  8  1  0
 12 11  2  0
 14 25  1  0
 14 13  1  0
 14 15  1  6
 15 16  1  0
 16 24  1  0
 16 17  2  0
 17 18  1  0
 19 20  2  0
 19 18  1  0
 21 20  1  0
 22 21  2  0
 23 22  1  0
 23 24  2  0
 24 19  1  0
 25 27  1  0
 26 25  2  0
M  END
$$$$
