SCW.pdb
     RDKit          3D

 27 28  0  0  1  0  0  0  0  0999 V2000
   28.3025  -22.0197  -18.4734 O   0  0  0  0  0  0  0  0  0  0  0  0
   27.8759  -20.8122  -19.0223 C   0  0  0  0  0  0  0  0  0  0  0  0
   28.6586  -19.6719  -18.4508 C   0  0  2  0  0  0  0  0  0  0  0  0
   30.0465  -19.6879  -18.8528 N   0  0  0  0  0  0  0  0  0  0  0  0
   28.4731  -19.5920  -16.9965 C   0  0  0  0  0  0  0  0  0  0  0  0
   29.5364  -19.6609  -16.2982 O   0  0  0  0  0  0  0  0  0  0  0  0
   27.2409  -19.4489  -16.3389 N   0  0  0  0  0  0  0  0  0  0  0  0
   27.1648  -19.1380  -14.9376 C   0  0  1  0  0  0  0  0  0  0  0  0
   26.5911  -17.7639  -14.7807 C   0  0  0  0  0  0  0  0  0  0  0  0
   24.8678  -17.7475  -15.3447 S   0  0  0  0  0  0  0  0  0  0  0  0
   26.4146  -20.1712  -14.1872 C   0  0  0  0  0  0  0  0  0  0  0  0
   25.6542  -20.9280  -14.8433 O   0  0  0  0  0  0  0  0  0  0  0  0
   26.4902  -20.3661  -12.8045 N   0  0  0  0  0  0  0  0  0  0  0  0
   25.7433  -21.4492  -12.1750 C   0  0  1  0  0  0  0  0  0  0  0  0
   26.4811  -22.0288  -11.0229 C   0  0  0  0  0  0  0  0  0  0  0  0
   26.5567  -21.0616   -9.9009 C   0  0  0  0  0  0  0  0  0  0  0  0
   25.4980  -20.2208   -9.5224 C   0  0  0  0  0  0  0  0  0  0  0  0
   25.8626  -19.5139   -8.4623 N   0  0  0  0  0  0  0  0  0  0  0  0
   27.1149  -19.8372   -8.1096 C   0  0  0  0  0  0  0  0  0  0  0  0
   27.9333  -19.3611   -7.0741 C   0  0  0  0  0  0  0  0  0  0  0  0
   29.1970  -19.8361   -6.9159 C   0  0  0  0  0  0  0  0  0  0  0  0
   29.6314  -20.7921   -7.8059 C   0  0  0  0  0  0  0  0  0  0  0  0
   28.8240  -21.2621   -8.8272 C   0  0  0  0  0  0  0  0  0  0  0  0
   27.5473  -20.7918   -8.9958 C   0  0  0  0  0  0  0  0  0  0  0  0
   24.3830  -21.0064  -11.8873 C   0  0  0  0  0  0  0  0  0  0  0  0
   24.0654  -19.7696  -11.7931 O   0  0  0  0  0  0  0  0  0  0  0  0
   23.3232  -21.8826  -11.6981 O   0  0  0  0  0  0  0  0  0  0  0  0
  2  1  1  0
  3  2  1  0
  3  4  1  1
  5  6  2  0
  5  3  1  0
  7  5  1  0
  8  7  1  0
  8  9  1  6
 10  9  1  0
 11 13  1  0
 11  8  1  0
 12 11  2  0
 14 25  1  0
 14 13  1  0
 14 15  1  1
 15 16  1  0
 16 24  1  0
 16 17  2  0
 17 18  1  0
 19 20  2  0
 19 18  1  0
 21 20  1  0
 22 21  2  0
 23 22  1  0
 23 24  2  0
 24 19  1  0
 25 27  1  0
 26 25  2  0
M  END
$$$$
