SCW.pdb
     RDKit          3D

 27 28  0  0  1  0  0  0  0  0999 V2000
   26.2873  -17.1572  -14.6909 O   0  0  0  0  0  0  0  0  0  0  0  0
   27.5820  -17.3239  -15.1779 C   0  0  0  0  0  0  0  0  0  0  0  0
   27.7605  -18.7041  -15.7284 C   0  0  2  0  0  0  0  0  0  0  0  0
   26.9940  -18.9305  -16.9323 N   0  0  0  0  0  0  0  0  0  0  0  0
   27.5244  -19.7127  -14.6879 C   0  0  0  0  0  0  0  0  0  0  0  0
   26.4225  -20.3465  -14.7713 O   0  0  0  0  0  0  0  0  0  0  0  0
   28.4027  -20.0197  -13.6365 N   0  0  0  0  0  0  0  0  0  0  0  0
   28.1115  -21.0611  -12.6894 C   0  0  1  0  0  0  0  0  0  0  0  0
   29.3990  -21.5509  -12.1028 C   0  0  0  0  0  0  0  0  0  0  0  0
   30.0285  -20.3445  -10.9043 S   0  0  0  0  0  0  0  0  0  0  0  0
   27.1383  -20.6145  -11.6662 C   0  0  0  0  0  0  0  0  0  0  0  0
   26.9676  -19.3763  -11.5284 O   0  0  0  0  0  0  0  0  0  0  0  0
   26.3967  -21.4683  -10.8435 N   0  0  0  0  0  0  0  0  0  0  0  0
   25.5389  -20.9182   -9.8000 C   0  0  1  0  0  0  0  0  0  0  0  0
   26.2491  -19.8990   -8.9850 C   0  0  0  0  0  0  0  0  0  0  0  0
   26.3138  -20.3097   -7.5612 C   0  0  0  0  0  0  0  0  0  0  0  0
   25.5092  -21.3149   -7.0014 C   0  0  0  0  0  0  0  0  0  0  0  0
   25.8388  -21.4760   -5.7278 N   0  0  0  0  0  0  0  0  0  0  0  0
   26.8250  -20.6278   -5.4032 C   0  0  0  0  0  0  0  0  0  0  0  0
   27.4960  -20.4152   -4.1894 C   0  0  0  0  0  0  0  0  0  0  0  0
   28.4713  -19.4734   -4.0929 C   0  0  0  0  0  0  0  0  0  0  0  0
   28.7665  -18.7475   -5.2247 C   0  0  0  0  0  0  0  0  0  0  0  0
   28.1048  -18.9575   -6.4221 C   0  0  0  0  0  0  0  0  0  0  0  0
   27.1205  -19.9055   -6.5321 C   0  0  0  0  0  0  0  0  0  0  0  0
   24.2738  -20.4824  -10.3822 C   0  0  0  0  0  0  0  0  0  0  0  0
   24.1295  -20.2656  -11.6358 O   0  0  0  0  0  0  0  0  0  0  0  0
   23.1249  -20.2728   -9.6319 O   0  0  0  0  0  0  0  0  0  0  0  0
  2  1  1  0
  3  2  1  0
  3  4  1  6
  5  6  2  0
  5  3  1  0
  7  5  1  0
  8  7  1  0
  8  9  1  1
 10  9  1  0
 11 13  1  0
 11  8  1  0
 12 11  2  0
 14 25  1  0
 14 13  1  0
 14 15  1  6
 15 16  1  0
 16 24  1  0
 16 17  2  0
 17 18  1  0
 19 20  2  0
 19 18  1  0
 21 20  1  0
 22 21  2  0
 23 22  1  0
 23 24  2  0
 24 19  1  0
 25 27  1  0
 26 25  2  0
M  END
$$$$
