SCW.pdb
     RDKit          3D

 27 28  0  0  1  0  0  0  0  0999 V2000
   26.6092  -16.1699  -15.1094 O   0  0  0  0  0  0  0  0  0  0  0  0
   27.8923  -16.2972  -15.6374 C   0  0  0  0  0  0  0  0  0  0  0  0
   27.8355  -16.8702  -17.0187 C   0  0  2  0  0  0  0  0  0  0  0  0
   27.1292  -16.0199  -17.9494 N   0  0  0  0  0  0  0  0  0  0  0  0
   27.3304  -18.2485  -16.9886 C   0  0  0  0  0  0  0  0  0  0  0  0
   26.1967  -18.4348  -17.5389 O   0  0  0  0  0  0  0  0  0  0  0  0
   27.9903  -19.3457  -16.4123 N   0  0  0  0  0  0  0  0  0  0  0  0
   27.3843  -20.6481  -16.3592 C   0  0  1  0  0  0  0  0  0  0  0  0
   28.4669  -21.6825  -16.3701 C   0  0  0  0  0  0  0  0  0  0  0  0
   27.7398  -23.3370  -16.2220 S   0  0  0  0  0  0  0  0  0  0  0  0
   26.4662  -20.7785  -15.2045 C   0  0  0  0  0  0  0  0  0  0  0  0
   26.9181  -20.4880  -14.0675 O   0  0  0  0  0  0  0  0  0  0  0  0
   25.1355  -21.2006  -15.2865 N   0  0  0  0  0  0  0  0  0  0  0  0
   24.3206  -21.2942  -14.0804 C   0  0  1  0  0  0  0  0  0  0  0  0
   24.3122  -20.0165  -13.3221 C   0  0  0  0  0  0  0  0  0  0  0  0
   24.9322  -20.1890  -11.9858 C   0  0  0  0  0  0  0  0  0  0  0  0
   26.3097  -20.0681  -11.7429 C   0  0  0  0  0  0  0  0  0  0  0  0
   26.5382  -20.2312  -10.4476 N   0  0  0  0  0  0  0  0  0  0  0  0
   25.3822  -20.4567   -9.8073 C   0  0  0  0  0  0  0  0  0  0  0  0
   25.1102  -20.6959   -8.4517 C   0  0  0  0  0  0  0  0  0  0  0  0
   23.8372  -20.9151   -8.0288 C   0  0  0  0  0  0  0  0  0  0  0  0
   22.8406  -20.8925   -8.9781 C   0  0  0  0  0  0  0  0  0  0  0  0
   23.1087  -20.6562  -10.3153 C   0  0  0  0  0  0  0  0  0  0  0  0
   24.3883  -20.4322  -10.7536 C   0  0  0  0  0  0  0  0  0  0  0  0
   23.0057  -21.8308  -14.4156 C   0  0  0  0  0  0  0  0  0  0  0  0
   22.1355  -22.1307  -13.5255 O   0  0  0  0  0  0  0  0  0  0  0  0
   22.5870  -22.0549  -15.7199 O   0  0  0  0  0  0  0  0  0  0  0  0
  2  1  1  0
  3  2  1  0
  3  4  1  6
  5  6  2  0
  5  3  1  0
  7  5  1  0
  8  7  1  0
  8  9  1  1
 10  9  1  0
 11 13  1  0
 11  8  1  0
 12 11  2  0
 14 25  1  0
 14 13  1  0
 14 15  1  6
 15 16  1  0
 16 24  1  0
 16 17  2  0
 17 18  1  0
 19 20  2  0
 19 18  1  0
 21 20  1  0
 22 21  2  0
 23 22  1  0
 23 24  2  0
 24 19  1  0
 25 27  1  0
 26 25  2  0
M  END
$$$$
