SCW.pdb
     RDKit          3D

 27 28  0  0  1  0  0  0  0  0999 V2000
   33.8019  -28.6410  -18.8420 O   0  0  0  0  0  0  0  0  0  0  0  0
   33.7248  -29.4291  -17.6956 C   0  0  0  0  0  0  0  0  0  0  0  0
   33.4847  -30.8607  -18.0598 C   0  0  2  0  0  0  0  0  0  0  0  0
   34.5491  -31.4212  -18.8604 N   0  0  0  0  0  0  0  0  0  0  0  0
   32.1543  -31.0283  -18.6578 C   0  0  0  0  0  0  0  0  0  0  0  0
   32.1378  -31.3354  -19.8940 O   0  0  0  0  0  0  0  0  0  0  0  0
   30.9326  -30.8782  -17.9824 N   0  0  0  0  0  0  0  0  0  0  0  0
   29.6754  -31.1350  -18.6303 C   0  0  1  0  0  0  0  0  0  0  0  0
   29.6586  -32.5566  -19.1000 C   0  0  0  0  0  0  0  0  0  0  0  0
   28.0119  -32.9772  -19.7323 S   0  0  0  0  0  0  0  0  0  0  0  0
   28.5292  -30.7974  -17.7554 C   0  0  0  0  0  0  0  0  0  0  0  0
   28.4368  -31.4056  -16.6586 O   0  0  0  0  0  0  0  0  0  0  0  0
   27.5437  -29.8530  -18.0598 N   0  0  0  0  0  0  0  0  0  0  0  0
   26.5047  -29.5379  -17.0859 C   0  0  1  0  0  0  0  0  0  0  0  0
   25.9102  -28.1983  -17.3300 C   0  0  0  0  0  0  0  0  0  0  0  0
   26.9210  -27.1283  -17.1473 C   0  0  0  0  0  0  0  0  0  0  0  0
   28.2844  -27.3733  -16.9184 C   0  0  0  0  0  0  0  0  0  0  0  0
   28.9272  -26.2165  -16.8456 N   0  0  0  0  0  0  0  0  0  0  0  0
   28.0631  -25.2054  -17.0134 C   0  0  0  0  0  0  0  0  0  0  0  0
   28.2577  -23.8159  -17.0097 C   0  0  0  0  0  0  0  0  0  0  0  0
   27.2098  -22.9692  -17.1907 C   0  0  0  0  0  0  0  0  0  0  0  0
   25.9660  -23.5295  -17.3750 C   0  0  0  0  0  0  0  0  0  0  0  0
   25.7741  -24.9002  -17.3791 C   0  0  0  0  0  0  0  0  0  0  0  0
   26.8233  -25.7641  -17.1991 C   0  0  0  0  0  0  0  0  0  0  0  0
   25.5517  -30.6402  -17.0093 C   0  0  0  0  0  0  0  0  0  0  0  0
   24.5134  -30.6038  -16.2610 O   0  0  0  0  0  0  0  0  0  0  0  0
   25.6858  -31.8121  -17.7411 O   0  0  0  0  0  0  0  0  0  0  0  0
  2  1  1  0
  3  2  1  0
  3  4  1  6
  5  6  2  0
  5  3  1  0
  7  5  1  0
  8  7  1  0
  8  9  1  1
 10  9  1  0
 11 13  1  0
 11  8  1  0
 12 11  2  0
 14 25  1  0
 14 13  1  0
 14 15  1  6
 15 16  1  0
 16 24  1  0
 16 17  2  0
 17 18  1  0
 19 20  2  0
 19 18  1  0
 21 20  1  0
 22 21  2  0
 23 22  1  0
 23 24  2  0
 24 19  1  0
 25 27  1  0
 26 25  2  0
M  END
$$$$
