SCW.pdb
     RDKit          3D

 27 28  0  0  1  0  0  0  0  0999 V2000
   20.0770  -32.8466   -4.4282 O   0  0  0  0  0  0  0  0  0  0  0  0
   19.6822  -31.9672   -3.4222 C   0  0  0  0  0  0  0  0  0  0  0  0
   20.7587  -31.8339   -2.3912 C   0  0  2  0  0  0  0  0  0  0  0  0
   21.0436  -33.0785   -1.7145 N   0  0  0  0  0  0  0  0  0  0  0  0
   20.4655  -30.7251   -1.4746 C   0  0  0  0  0  0  0  0  0  0  0  0
   20.3643  -31.0365   -0.2435 O   0  0  0  0  0  0  0  0  0  0  0  0
   20.2933  -29.3827   -1.8485 N   0  0  0  0  0  0  0  0  0  0  0  0
   20.0285  -28.3567   -0.8771 C   0  0  1  0  0  0  0  0  0  0  0  0
   20.4129  -27.0323   -1.4603 C   0  0  0  0  0  0  0  0  0  0  0  0
   19.3848  -26.6760   -2.9109 S   0  0  0  0  0  0  0  0  0  0  0  0
   18.6258  -28.3993   -0.4039 C   0  0  0  0  0  0  0  0  0  0  0  0
   17.7601  -28.8560   -1.1934 O   0  0  0  0  0  0  0  0  0  0  0  0
   18.1948  -27.9694    0.8551 N   0  0  0  0  0  0  0  0  0  0  0  0
   16.7858  -28.0657    1.2198 C   0  0  1  0  0  0  0  0  0  0  0  0
   16.5848  -27.9089    2.6836 C   0  0  0  0  0  0  0  0  0  0  0  0
   17.0530  -26.5789    3.1437 C   0  0  0  0  0  0  0  0  0  0  0  0
   16.5794  -25.3626    2.6262 C   0  0  0  0  0  0  0  0  0  0  0  0
   17.1561  -24.3609    3.2747 N   0  0  0  0  0  0  0  0  0  0  0  0
   17.9950  -24.8435    4.2023 C   0  0  0  0  0  0  0  0  0  0  0  0
   18.8302  -24.1887    5.1203 C   0  0  0  0  0  0  0  0  0  0  0  0
   19.6170  -24.8999    5.9704 C   0  0  0  0  0  0  0  0  0  0  0  0
   19.5581  -26.2729    5.8907 C   0  0  0  0  0  0  0  0  0  0  0  0
   18.7341  -26.9188    4.9854 C   0  0  0  0  0  0  0  0  0  0  0  0
   17.9349  -26.2124    4.1241 C   0  0  0  0  0  0  0  0  0  0  0  0
   15.9982  -27.1683    0.3810 C   0  0  0  0  0  0  0  0  0  0  0  0
   14.7278  -27.2737    0.2609 O   0  0  0  0  0  0  0  0  0  0  0  0
   16.5550  -26.1271   -0.3488 O   0  0  0  0  0  0  0  0  0  0  0  0
  2  1  1  0
  3  2  1  0
  3  4  1  1
  5  6  2  0
  5  3  1  0
  7  5  1  0
  8  7  1  0
  8  9  1  6
 10  9  1  0
 11 13  1  0
 11  8  1  0
 12 11  2  0
 14 25  1  0
 14 13  1  0
 14 15  1  1
 15 16  1  0
 16 24  1  0
 16 17  2  0
 17 18  1  0
 19 20  2  0
 19 18  1  0
 21 20  1  0
 22 21  2  0
 23 22  1  0
 23 24  2  0
 24 19  1  0
 25 27  1  0
 26 25  2  0
M  END
$$$$
