SCW.pdb
     RDKit          3D

 27 28  0  0  1  0  0  0  0  0999 V2000
   11.4483   -7.2937  -12.8478 O   0  0  0  0  0  0  0  0  0  0  0  0
   12.5075   -8.1981  -12.8119 C   0  0  0  0  0  0  0  0  0  0  0  0
   12.2491   -9.3440  -13.7392 C   0  0  2  0  0  0  0  0  0  0  0  0
   11.2053  -10.2239  -13.2653 N   0  0  0  0  0  0  0  0  0  0  0  0
   13.4993  -10.0426  -14.0623 C   0  0  0  0  0  0  0  0  0  0  0  0
   13.4317  -11.3145  -14.0893 O   0  0  0  0  0  0  0  0  0  0  0  0
   14.7303   -9.4254  -14.3362 N   0  0  0  0  0  0  0  0  0  0  0  0
   15.8831  -10.1851  -14.7364 C   0  0  1  0  0  0  0  0  0  0  0  0
   15.5431  -10.9592  -15.9722 C   0  0  0  0  0  0  0  0  0  0  0  0
   17.0115  -11.8373  -16.5728 S   0  0  0  0  0  0  0  0  0  0  0  0
   17.0771   -9.3242  -14.8989 C   0  0  0  0  0  0  0  0  0  0  0  0
   16.9954   -8.3644  -15.7073 O   0  0  0  0  0  0  0  0  0  0  0  0
   18.2868   -9.5007  -14.2198 N   0  0  0  0  0  0  0  0  0  0  0  0
   19.4097   -8.6064  -14.4783 C   0  0  1  0  0  0  0  0  0  0  0  0
   20.4679   -8.7393  -13.4438 C   0  0  0  0  0  0  0  0  0  0  0  0
   21.7034   -8.0290  -13.8547 C   0  0  0  0  0  0  0  0  0  0  0  0
   21.8565   -6.6344  -13.8010 C   0  0  0  0  0  0  0  0  0  0  0  0
   23.0835   -6.3170  -14.1890 N   0  0  0  0  0  0  0  0  0  0  0  0
   23.7629   -7.4295  -14.5019 C   0  0  0  0  0  0  0  0  0  0  0  0
   25.0746   -7.6089  -14.9666 C   0  0  0  0  0  0  0  0  0  0  0  0
   25.5506   -8.8537  -15.2339 C   0  0  0  0  0  0  0  0  0  0  0  0
   24.6987   -9.9158  -15.0309 C   0  0  0  0  0  0  0  0  0  0  0  0
   23.4048   -9.7389  -14.5721 C   0  0  0  0  0  0  0  0  0  0  0  0
   22.9141   -8.4886  -14.2976 C   0  0  0  0  0  0  0  0  0  0  0  0
   19.8596   -8.7675  -15.8570 C   0  0  0  0  0  0  0  0  0  0  0  0
   19.9276   -9.9097  -16.4315 O   0  0  0  0  0  0  0  0  0  0  0  0
   20.2441   -7.7023  -16.6596 O   0  0  0  0  0  0  0  0  0  0  0  0
  2  1  1  0
  3  2  1  0
  3  4  1  1
  5  6  2  0
  5  3  1  0
  7  5  1  0
  8  7  1  0
  8  9  1  6
 10  9  1  0
 11 13  1  0
 11  8  1  0
 12 11  2  0
 14 25  1  0
 14 13  1  0
 14 15  1  1
 15 16  1  0
 16 24  1  0
 16 17  2  0
 17 18  1  0
 19 20  2  0
 19 18  1  0
 21 20  1  0
 22 21  2  0
 23 22  1  0
 23 24  2  0
 24 19  1  0
 25 27  1  0
 26 25  2  0
M  END
$$$$
