SCW.pdb
     RDKit          3D

 27 28  0  0  1  0  0  0  0  0999 V2000
   29.6279  -23.8046  -16.4769 O   0  0  0  0  0  0  0  0  0  0  0  0
   29.2344  -22.7335  -15.6775 C   0  0  0  0  0  0  0  0  0  0  0  0
   28.1315  -21.9660  -16.3364 C   0  0  2  0  0  0  0  0  0  0  0  0
   28.5662  -21.2700  -17.5258 N   0  0  0  0  0  0  0  0  0  0  0  0
   27.4525  -21.0970  -15.3670 C   0  0  0  0  0  0  0  0  0  0  0  0
   27.9575  -19.9374  -15.2144 O   0  0  0  0  0  0  0  0  0  0  0  0
   26.3174  -21.4438  -14.6170 N   0  0  0  0  0  0  0  0  0  0  0  0
   25.6372  -20.4848  -13.7901 C   0  0  1  0  0  0  0  0  0  0  0  0
   24.2325  -20.3335  -14.2859 C   0  0  0  0  0  0  0  0  0  0  0  0
   24.2382  -19.5680  -15.9296 S   0  0  0  0  0  0  0  0  0  0  0  0
   25.7125  -20.8469  -12.3560 C   0  0  0  0  0  0  0  0  0  0  0  0
   25.3971  -22.0215  -12.0362 O   0  0  0  0  0  0  0  0  0  0  0  0
   26.1083  -19.9790  -11.3334 N   0  0  0  0  0  0  0  0  0  0  0  0
   26.1217  -20.4361   -9.9483 C   0  0  1  0  0  0  0  0  0  0  0  0
   26.8992  -19.5199   -9.0745 C   0  0  0  0  0  0  0  0  0  0  0  0
   26.8798  -19.9862   -7.6667 C   0  0  0  0  0  0  0  0  0  0  0  0
   25.9560  -20.9172   -7.1654 C   0  0  0  0  0  0  0  0  0  0  0  0
   26.2310  -21.1591   -5.8916 N   0  0  0  0  0  0  0  0  0  0  0  0
   27.2939  -20.4360   -5.5112 C   0  0  0  0  0  0  0  0  0  0  0  0
   27.9503  -20.3418   -4.2747 C   0  0  0  0  0  0  0  0  0  0  0  0
   29.0188  -19.5163   -4.1188 C   0  0  0  0  0  0  0  0  0  0  0  0
   29.4218  -18.7865   -5.2143 C   0  0  0  0  0  0  0  0  0  0  0  0
   28.7745  -18.8797   -6.4342 C   0  0  0  0  0  0  0  0  0  0  0  0
   27.6969  -19.7100   -6.6040 C   0  0  0  0  0  0  0  0  0  0  0  0
   24.7582  -20.7124   -9.5083 C   0  0  0  0  0  0  0  0  0  0  0  0
   23.7586  -19.9984   -9.8694 O   0  0  0  0  0  0  0  0  0  0  0  0
   24.4301  -21.7696   -8.6709 O   0  0  0  0  0  0  0  0  0  0  0  0
  2  1  1  0
  3  2  1  0
  3  4  1  6
  5  6  2  0
  5  3  1  0
  7  5  1  0
  8  7  1  0
  8  9  1  6
 10  9  1  0
 11 13  1  0
 11  8  1  0
 12 11  2  0
 14 25  1  0
 14 13  1  0
 14 15  1  1
 15 16  1  0
 16 24  1  0
 16 17  2  0
 17 18  1  0
 19 20  2  0
 19 18  1  0
 21 20  1  0
 22 21  2  0
 23 22  1  0
 23 24  2  0
 24 19  1  0
 25 27  1  0
 26 25  2  0
M  END
$$$$
