SCW.pdb
     RDKit          3D

 27 28  0  0  1  0  0  0  0  0999 V2000
   27.1870  -18.4415  -15.7018 O   0  0  0  0  0  0  0  0  0  0  0  0
   27.9008  -18.6156  -14.5180 C   0  0  0  0  0  0  0  0  0  0  0  0
   28.1291  -20.0707  -14.2534 C   0  0  2  0  0  0  0  0  0  0  0  0
   28.4176  -20.8201  -15.4548 N   0  0  0  0  0  0  0  0  0  0  0  0
   27.0263  -20.6343  -13.4648 C   0  0  0  0  0  0  0  0  0  0  0  0
   26.3711  -21.5740  -14.0220 O   0  0  0  0  0  0  0  0  0  0  0  0
   26.6530  -20.2225  -12.1755 N   0  0  0  0  0  0  0  0  0  0  0  0
   25.4540  -20.7052  -11.5464 C   0  0  1  0  0  0  0  0  0  0  0  0
   25.3916  -20.1637  -10.1519 C   0  0  0  0  0  0  0  0  0  0  0  0
   26.9517  -20.4986   -9.2904 S   0  0  0  0  0  0  0  0  0  0  0  0
   24.2495  -20.3892  -12.3481 C   0  0  0  0  0  0  0  0  0  0  0  0
   24.1249  -19.2109  -12.7693 O   0  0  0  0  0  0  0  0  0  0  0  0
   23.2423  -21.3044  -12.6701 N   0  0  0  0  0  0  0  0  0  0  0  0
   22.1064  -20.8877  -13.4847 C   0  0  1  0  0  0  0  0  0  0  0  0
   22.2782  -21.2776  -14.9081 C   0  0  0  0  0  0  0  0  0  0  0  0
   21.0974  -20.8803  -15.7129 C   0  0  0  0  0  0  0  0  0  0  0  0
   20.6691  -19.5522  -15.8674 C   0  0  0  0  0  0  0  0  0  0  0  0
   19.6212  -19.5254  -16.6785 N   0  0  0  0  0  0  0  0  0  0  0  0
   19.3230  -20.7704  -17.0764 C   0  0  0  0  0  0  0  0  0  0  0  0
   18.3079  -21.2515  -17.9172 C   0  0  0  0  0  0  0  0  0  0  0  0
   18.1908  -22.5818  -18.1706 C   0  0  0  0  0  0  0  0  0  0  0  0
   19.1008  -23.4240  -17.5727 C   0  0  0  0  0  0  0  0  0  0  0  0
   20.1024  -22.9494  -16.7436 C   0  0  0  0  0  0  0  0  0  0  0  0
   20.2316  -21.6099  -16.4819 C   0  0  0  0  0  0  0  0  0  0  0  0
   20.8644  -21.3314  -12.8605 C   0  0  0  0  0  0  0  0  0  0  0  0
   20.7397  -22.4825  -12.3139 O   0  0  0  0  0  0  0  0  0  0  0  0
   19.7214  -20.5459  -12.8015 O   0  0  0  0  0  0  0  0  0  0  0  0
  2  1  1  0
  3  2  1  0
  3  4  1  6
  5  6  2  0
  5  3  1  0
  7  5  1  0
  8  7  1  0
  8  9  1  1
 10  9  1  0
 11 13  1  0
 11  8  1  0
 12 11  2  0
 14 25  1  0
 14 13  1  0
 14 15  1  6
 15 16  1  0
 16 24  1  0
 16 17  2  0
 17 18  1  0
 19 20  2  0
 19 18  1  0
 21 20  1  0
 22 21  2  0
 23 22  1  0
 23 24  2  0
 24 19  1  0
 25 27  1  0
 26 25  2  0
M  END
$$$$
