SCW.pdb
     RDKit          3D

 27 28  0  0  1  0  0  0  0  0999 V2000
   25.8079  -23.1555  -16.1468 O   0  0  0  0  0  0  0  0  0  0  0  0
   27.0729  -23.5235  -16.6000 C   0  0  0  0  0  0  0  0  0  0  0  0
   27.9350  -22.3142  -16.7849 C   0  0  2  0  0  0  0  0  0  0  0  0
   29.2209  -22.6264  -17.3654 N   0  0  0  0  0  0  0  0  0  0  0  0
   28.0290  -21.5477  -15.5362 C   0  0  0  0  0  0  0  0  0  0  0  0
   28.9012  -21.9543  -14.7014 O   0  0  0  0  0  0  0  0  0  0  0  0
   27.2473  -20.4291  -15.2060 N   0  0  0  0  0  0  0  0  0  0  0  0
   27.3954  -19.7496  -13.9479 C   0  0  1  0  0  0  0  0  0  0  0  0
   27.0195  -18.3119  -14.1312 C   0  0  0  0  0  0  0  0  0  0  0  0
   26.9254  -17.4891  -12.5181 S   0  0  0  0  0  0  0  0  0  0  0  0
   26.6302  -20.4185  -12.8707 C   0  0  0  0  0  0  0  0  0  0  0  0
   25.4912  -20.8664  -13.1594 O   0  0  0  0  0  0  0  0  0  0  0  0
   27.0816  -20.5880  -11.5580 N   0  0  0  0  0  0  0  0  0  0  0  0
   26.2531  -21.2880  -10.5827 C   0  0  1  0  0  0  0  0  0  0  0  0
   27.0508  -21.7597   -9.4214 C   0  0  0  0  0  0  0  0  0  0  0  0
   27.1601  -20.7013   -8.3880 C   0  0  0  0  0  0  0  0  0  0  0  0
   26.3977  -19.5224   -8.3947 C   0  0  0  0  0  0  0  0  0  0  0  0
   26.6934  -18.8080   -7.3182 N   0  0  0  0  0  0  0  0  0  0  0  0
   27.6180  -19.4481   -6.5882 C   0  0  0  0  0  0  0  0  0  0  0  0
   28.2492  -19.0961   -5.3856 C   0  0  0  0  0  0  0  0  0  0  0  0
   29.1824  -19.9124   -4.8284 C   0  0  0  0  0  0  0  0  0  0  0  0
   29.4760  -21.0839   -5.4889 C   0  0  0  0  0  0  0  0  0  0  0  0
   28.8531  -21.4314   -6.6750 C   0  0  0  0  0  0  0  0  0  0  0  0
   27.9093  -20.6170   -7.2458 C   0  0  0  0  0  0  0  0  0  0  0  0
   25.0886  -20.4734  -10.2516 C   0  0  0  0  0  0  0  0  0  0  0  0
   24.9781  -19.2494  -10.6107 O   0  0  0  0  0  0  0  0  0  0  0  0
   24.0058  -20.9550   -9.5288 O   0  0  0  0  0  0  0  0  0  0  0  0
  2  1  1  0
  3  2  1  0
  3  4  1  1
  5  6  2  0
  5  3  1  0
  7  5  1  0
  8  7  1  0
  8  9  1  6
 10  9  1  0
 11 13  1  0
 11  8  1  0
 12 11  2  0
 14 25  1  0
 14 13  1  0
 14 15  1  1
 15 16  1  0
 16 24  1  0
 16 17  2  0
 17 18  1  0
 19 20  2  0
 19 18  1  0
 21 20  1  0
 22 21  2  0
 23 22  1  0
 23 24  2  0
 24 19  1  0
 25 27  1  0
 26 25  2  0
M  END
$$$$
