SCW.pdb
     RDKit          3D

 27 28  0  0  1  0  0  0  0  0999 V2000
   29.9454  -15.6791  -18.8140 O   0  0  0  0  0  0  0  0  0  0  0  0
   30.8408  -16.6031  -18.2796 C   0  0  0  0  0  0  0  0  0  0  0  0
   31.1278  -17.6873  -19.2704 C   0  0  2  0  0  0  0  0  0  0  0  0
   31.6282  -17.1796  -20.5273 N   0  0  0  0  0  0  0  0  0  0  0  0
   29.9677  -18.5747  -19.4197 C   0  0  0  0  0  0  0  0  0  0  0  0
   29.4360  -18.6007  -20.5772 O   0  0  0  0  0  0  0  0  0  0  0  0
   29.4177  -19.3746  -18.4054 N   0  0  0  0  0  0  0  0  0  0  0  0
   28.3305  -20.2789  -18.6632 C   0  0  1  0  0  0  0  0  0  0  0  0
   28.5973  -21.5673  -17.9486 C   0  0  0  0  0  0  0  0  0  0  0  0
   28.5494  -21.2990  -16.1559 S   0  0  0  0  0  0  0  0  0  0  0  0
   27.0233  -19.6781  -18.3116 C   0  0  0  0  0  0  0  0  0  0  0  0
   26.9881  -18.9012  -17.3235 O   0  0  0  0  0  0  0  0  0  0  0  0
   25.8271  -19.9117  -18.9975 N   0  0  0  0  0  0  0  0  0  0  0  0
   24.5902  -19.2821  -18.5492 C   0  0  1  0  0  0  0  0  0  0  0  0
   23.7711  -18.8033  -19.6927 C   0  0  0  0  0  0  0  0  0  0  0  0
   22.5384  -18.1298  -19.2168 C   0  0  0  0  0  0  0  0  0  0  0  0
   22.4764  -16.7714  -18.8672 C   0  0  0  0  0  0  0  0  0  0  0  0
   21.2316  -16.4663  -18.5294 N   0  0  0  0  0  0  0  0  0  0  0  0
   20.4535  -17.5530  -18.6337 C   0  0  0  0  0  0  0  0  0  0  0  0
   19.0856  -17.7354  -18.3799 C   0  0  0  0  0  0  0  0  0  0  0  0
   18.5067  -18.9539  -18.5463 C   0  0  0  0  0  0  0  0  0  0  0  0
   19.3126  -19.9867  -18.9690 C   0  0  0  0  0  0  0  0  0  0  0  0
   20.6619  -19.8068  -19.2197 C   0  0  0  0  0  0  0  0  0  0  0  0
   21.2566  -18.5823  -19.0570 C   0  0  0  0  0  0  0  0  0  0  0  0
   23.9011  -20.1633  -17.6124 C   0  0  0  0  0  0  0  0  0  0  0  0
   23.9072  -21.4381  -17.7324 O   0  0  0  0  0  0  0  0  0  0  0  0
   23.1897  -19.6978  -16.5151 O   0  0  0  0  0  0  0  0  0  0  0  0
  2  1  1  0
  3  2  1  0
  3  4  1  6
  5  6  2  0
  5  3  1  0
  7  5  1  0
  8  7  1  0
  8  9  1  1
 10  9  1  0
 11 13  1  0
 11  8  1  0
 12 11  2  0
 14 25  1  0
 14 13  1  0
 14 15  1  6
 15 16  1  0
 16 24  1  0
 16 17  2  0
 17 18  1  0
 19 20  2  0
 19 18  1  0
 21 20  1  0
 22 21  2  0
 23 22  1  0
 23 24  2  0
 24 19  1  0
 25 27  1  0
 26 25  2  0
M  END
$$$$
