SCW.pdb
     RDKit          3D

 27 28  0  0  1  0  0  0  0  0999 V2000
   26.8864  -14.2234  -20.0956 O   0  0  0  0  0  0  0  0  0  0  0  0
   26.0214  -13.3020  -19.5090 C   0  0  0  0  0  0  0  0  0  0  0  0
   25.2099  -13.9560  -18.4350 C   0  0  2  0  0  0  0  0  0  0  0  0
   24.4400  -15.0787  -18.9197 N   0  0  0  0  0  0  0  0  0  0  0  0
   24.4032  -12.9622  -17.7158 C   0  0  0  0  0  0  0  0  0  0  0  0
   23.4362  -12.4547  -18.3717 O   0  0  0  0  0  0  0  0  0  0  0  0
   24.6162  -12.5430  -16.3928 N   0  0  0  0  0  0  0  0  0  0  0  0
   23.7432  -11.5989  -15.7504 C   0  0  1  0  0  0  0  0  0  0  0  0
   23.6923  -11.9103  -14.2867 C   0  0  0  0  0  0  0  0  0  0  0  0
   22.4538  -13.1971  -13.9732 S   0  0  0  0  0  0  0  0  0  0  0  0
   24.1432  -10.2015  -16.0347 C   0  0  0  0  0  0  0  0  0  0  0  0
   25.3102  -10.0067  -16.4606 O   0  0  0  0  0  0  0  0  0  0  0  0
   23.3188   -9.0848  -15.8641 N   0  0  0  0  0  0  0  0  0  0  0  0
   23.7290   -7.7848  -16.3829 C   0  0  1  0  0  0  0  0  0  0  0  0
   23.9778   -7.8307  -17.8470 C   0  0  0  0  0  0  0  0  0  0  0  0
   24.3836   -6.4988  -18.3579 C   0  0  0  0  0  0  0  0  0  0  0  0
   23.5203   -5.3938  -18.4288 C   0  0  0  0  0  0  0  0  0  0  0  0
   24.1928   -4.3458  -18.8830 N   0  0  0  0  0  0  0  0  0  0  0  0
   25.4658   -4.6919  -19.1220 C   0  0  0  0  0  0  0  0  0  0  0  0
   26.5476   -3.9453  -19.6129 C   0  0  0  0  0  0  0  0  0  0  0  0
   27.7653   -4.5234  -19.7883 C   0  0  0  0  0  0  0  0  0  0  0  0
   27.8868   -5.8565  -19.4671 C   0  0  0  0  0  0  0  0  0  0  0  0
   26.8197   -6.5928  -18.9824 C   0  0  0  0  0  0  0  0  0  0  0  0
   25.5874   -6.0204  -18.7998 C   0  0  0  0  0  0  0  0  0  0  0  0
   22.7896   -6.7599  -15.9403 C   0  0  0  0  0  0  0  0  0  0  0  0
   23.1599   -5.5773  -15.6181 O   0  0  0  0  0  0  0  0  0  0  0  0
   21.4224   -6.9765  -15.8372 O   0  0  0  0  0  0  0  0  0  0  0  0
  2  1  1  0
  3  2  1  0
  3  4  1  6
  5  6  2  0
  5  3  1  0
  7  5  1  0
  8  7  1  0
  8  9  1  1
 10  9  1  0
 11 13  1  0
 11  8  1  0
 12 11  2  0
 14 25  1  0
 14 13  1  0
 14 15  1  6
 15 16  1  0
 16 24  1  0
 16 17  2  0
 17 18  1  0
 19 20  2  0
 19 18  1  0
 21 20  1  0
 22 21  2  0
 23 22  1  0
 23 24  2  0
 24 19  1  0
 25 27  1  0
 26 25  2  0
M  END
$$$$
