SCW.pdb
     RDKit          3D

 27 28  0  0  1  0  0  0  0  0999 V2000
   28.5916  -17.4297  -14.9633 O   0  0  0  0  0  0  0  0  0  0  0  0
   27.9347  -18.4609  -15.6314 C   0  0  0  0  0  0  0  0  0  0  0  0
   26.4714  -18.1663  -15.7390 C   0  0  2  0  0  0  0  0  0  0  0  0
   26.1956  -16.7613  -15.9345 N   0  0  0  0  0  0  0  0  0  0  0  0
   25.7392  -18.7531  -14.6097 C   0  0  0  0  0  0  0  0  0  0  0  0
   24.8868  -17.9917  -14.0471 O   0  0  0  0  0  0  0  0  0  0  0  0
   25.9072  -20.0580  -14.1195 N   0  0  0  0  0  0  0  0  0  0  0  0
   25.0731  -20.5848  -13.0740 C   0  0  1  0  0  0  0  0  0  0  0  0
   24.4705  -21.8727  -13.5430 C   0  0  0  0  0  0  0  0  0  0  0  0
   25.7799  -23.0864  -13.8597 S   0  0  0  0  0  0  0  0  0  0  0  0
   25.8130  -20.7189  -11.7982 C   0  0  0  0  0  0  0  0  0  0  0  0
   27.0276  -21.0382  -11.8620 O   0  0  0  0  0  0  0  0  0  0  0  0
   25.2600  -20.5166  -10.5297 N   0  0  0  0  0  0  0  0  0  0  0  0
   26.0318  -20.8366   -9.3341 C   0  0  1  0  0  0  0  0  0  0  0  0
   26.9939  -19.7563   -8.9952 C   0  0  0  0  0  0  0  0  0  0  0  0
   27.9683  -20.2147   -7.9753 C   0  0  0  0  0  0  0  0  0  0  0  0
   28.9184  -21.2235   -8.2012 C   0  0  0  0  0  0  0  0  0  0  0  0
   29.6661  -21.3666   -7.1163 N   0  0  0  0  0  0  0  0  0  0  0  0
   29.2651  -20.5043   -6.1714 C   0  0  0  0  0  0  0  0  0  0  0  0
   29.7309  -20.2843   -4.8662 C   0  0  0  0  0  0  0  0  0  0  0  0
   29.1491  -19.3473   -4.0719 C   0  0  0  0  0  0  0  0  0  0  0  0
   28.0962  -18.6340   -4.5988 C   0  0  0  0  0  0  0  0  0  0  0  0
   27.6369  -18.8508   -5.8864 C   0  0  0  0  0  0  0  0  0  0  0  0
   28.2166  -19.7919   -6.6975 C   0  0  0  0  0  0  0  0  0  0  0  0
   25.1297  -21.2307   -8.2571 C   0  0  0  0  0  0  0  0  0  0  0  0
   25.5484  -21.5696   -7.0956 O   0  0  0  0  0  0  0  0  0  0  0  0
   23.7492  -21.2659   -8.3977 O   0  0  0  0  0  0  0  0  0  0  0  0
  2  1  1  0
  3  2  1  0
  3  4  1  1
  5  6  2  0
  5  3  1  0
  7  5  1  0
  8  7  1  0
  8  9  1  6
 10  9  1  0
 11 13  1  0
 11  8  1  0
 12 11  2  0
 14 25  1  0
 14 13  1  0
 14 15  1  1
 15 16  1  0
 16 24  1  0
 16 17  2  0
 17 18  1  0
 19 20  2  0
 19 18  1  0
 21 20  1  0
 22 21  2  0
 23 22  1  0
 23 24  2  0
 24 19  1  0
 25 27  1  0
 26 25  2  0
M  END
$$$$
