SCW.pdb
     RDKit          3D

 27 28  0  0  1  0  0  0  0  0999 V2000
   21.6111  -13.4162  -17.3243 O   0  0  0  0  0  0  0  0  0  0  0  0
   20.4492  -12.9543  -16.7096 C   0  0  0  0  0  0  0  0  0  0  0  0
   19.4905  -12.4275  -17.7309 C   0  0  2  0  0  0  0  0  0  0  0  0
   19.5507  -13.1499  -18.9810 N   0  0  0  0  0  0  0  0  0  0  0  0
   19.6448  -10.9758  -17.8878 C   0  0  0  0  0  0  0  0  0  0  0  0
   19.8278  -10.5641  -19.0794 O   0  0  0  0  0  0  0  0  0  0  0  0
   19.6060  -10.0350  -16.8463 N   0  0  0  0  0  0  0  0  0  0  0  0
   19.7103   -8.6239  -17.0995 C   0  0  1  0  0  0  0  0  0  0  0  0
   18.3775   -8.1180  -17.5573 C   0  0  0  0  0  0  0  0  0  0  0  0
   18.4005   -6.3067  -17.6381 S   0  0  0  0  0  0  0  0  0  0  0  0
   20.2375   -7.8939  -15.9237 C   0  0  0  0  0  0  0  0  0  0  0  0
   19.7041   -8.1260  -14.8089 O   0  0  0  0  0  0  0  0  0  0  0  0
   21.2837   -6.9667  -15.9631 N   0  0  0  0  0  0  0  0  0  0  0  0
   21.8035   -6.3952  -14.7259 C   0  0  1  0  0  0  0  0  0  0  0  0
   23.2399   -6.7211  -14.5307 C   0  0  0  0  0  0  0  0  0  0  0  0
   24.0660   -6.1521  -15.6233 C   0  0  0  0  0  0  0  0  0  0  0  0
   24.5518   -4.8348  -15.6296 C   0  0  0  0  0  0  0  0  0  0  0  0
   25.2905   -4.6497  -16.7144 N   0  0  0  0  0  0  0  0  0  0  0  0
   25.3247   -5.7774  -17.4385 C   0  0  0  0  0  0  0  0  0  0  0  0
   25.9569   -6.0728  -18.6558 C   0  0  0  0  0  0  0  0  0  0  0  0
   25.8376   -7.3049  -19.2172 C   0  0  0  0  0  0  0  0  0  0  0  0
   25.0783   -8.2368  -18.5464 C   0  0  0  0  0  0  0  0  0  0  0  0
   24.4549   -7.9456  -17.3454 C   0  0  0  0  0  0  0  0  0  0  0  0
   24.5693   -6.7071  -16.7686 C   0  0  0  0  0  0  0  0  0  0  0  0
   21.4701   -4.9761  -14.6615 C   0  0  0  0  0  0  0  0  0  0  0  0
   21.0107   -4.3289  -15.6662 O   0  0  0  0  0  0  0  0  0  0  0  0
   21.6163   -4.2132  -13.5111 O   0  0  0  0  0  0  0  0  0  0  0  0
  2  1  1  0
  3  2  1  0
  3  4  1  6
  5  6  2  0
  5  3  1  0
  7  5  1  0
  8  7  1  0
  8  9  1  1
 10  9  1  0
 11 13  1  0
 11  8  1  0
 12 11  2  0
 14 25  1  0
 14 13  1  0
 14 15  1  6
 15 16  1  0
 16 24  1  0
 16 17  2  0
 17 18  1  0
 19 20  2  0
 19 18  1  0
 21 20  1  0
 22 21  2  0
 23 22  1  0
 23 24  2  0
 24 19  1  0
 25 27  1  0
 26 25  2  0
M  END
$$$$
