WML.pdb
     RDKit          3D

 31 32  0  0  1  0  0  0  0  0999 V2000
    6.4746  -20.1193   23.5188 N   0  0  0  0  0  0  0  0  0  0  0  0
    6.8877  -19.1820   24.5450 C   0  0  1  0  0  0  0  0  0  0  0  0
    8.0238  -19.7460   25.3852 C   0  0  0  0  0  0  0  0  0  0  0  0
    7.6819  -19.8555   26.8087 C   0  0  0  0  0  0  0  0  0  0  0  0
    6.6024  -20.4810   27.3673 C   0  0  0  0  0  0  0  0  0  0  0  0
    6.6475  -20.3589   28.7131 N   0  0  0  0  0  0  0  0  0  0  0  0
    7.7407  -19.6631   29.0377 C   0  0  0  0  0  0  0  0  0  0  0  0
    8.2415  -19.2682   30.2791 C   0  0  0  0  0  0  0  0  0  0  0  0
    9.4107  -18.5480   30.2904 C   0  0  0  0  0  0  0  0  0  0  0  0
   10.0849  -18.2146   29.1258 C   0  0  0  0  0  0  0  0  0  0  0  0
    9.5852  -18.6074   27.9052 C   0  0  0  0  0  0  0  0  0  0  0  0
    8.4084  -19.3343   27.8641 C   0  0  0  0  0  0  0  0  0  0  0  0
    7.4583  -17.9738   23.8698 C   0  0  0  0  0  0  0  0  0  0  0  0
    8.3868  -18.0771   23.0621 O   0  0  0  0  0  0  0  0  0  0  0  0
    5.8784  -11.4798   26.9670 C   0  0  0  0  0  0  0  0  0  0  0  0
    5.6967  -12.2500   25.3353 S   0  0  0  0  0  0  0  0  0  0  0  0
    6.8116  -13.6811   25.2095 C   0  0  0  0  0  0  0  0  0  0  0  0
    6.6509  -14.2371   23.8064 C   0  0  0  0  0  0  0  0  0  0  0  0
    7.5139  -15.4432   23.6868 C   0  0  2  0  0  0  0  0  0  0  0  0
    6.9674  -16.6696   24.1214 N   0  0  0  0  0  0  0  0  0  0  0  0
    8.8518  -15.2548   24.3247 C   0  0  0  0  0  0  0  0  0  0  0  0
    9.6126  -14.3168   23.9244 O   0  0  0  0  0  0  0  0  0  0  0  0
   10.2046  -14.5622   29.9125 C   0  0  0  0  0  0  0  0  0  0  0  0
   10.8950  -14.7591   28.5705 C   0  0  2  0  0  0  0  0  0  0  0  0
   11.8156  -13.6607   28.1973 C   0  0  0  0  0  0  0  0  0  0  0  0
    9.9554  -15.2459   27.5391 C   0  0  0  0  0  0  0  0  0  0  0  0
   10.4827  -15.6109   26.2047 C   0  0  2  0  0  0  0  0  0  0  0  0
    9.3365  -16.0596   25.3578 N   0  0  0  0  0  0  0  0  0  0  0  0
   11.4072  -16.7344   26.2125 C   0  0  0  0  0  0  0  0  0  0  0  0
   12.5258  -16.6649   26.7582 O   0  0  0  0  0  0  0  0  0  0  0  0
   11.0925  -17.9476   25.6117 O   0  0  0  0  0  0  0  0  0  0  0  0
  2  1  1  6
  2  3  1  0
  3  4  1  0
  4 12  1  0
  4  5  2  0
  5  6  1  0
  7  6  1  0
  7  8  2  0
  9  8  1  0
 10  9  2  0
 11 10  1  0
 11 12  2  0
 12  7  1  0
 13  2  1  0
 13 14  2  0
 16 17  1  0
 16 15  1  0
 17 18  1  0
 19 18  1  1
 19 20  1  0
 20 13  1  0
 21 19  1  0
 22 21  2  0
 24 26  1  0
 24 23  1  1
 25 24  1  0
 27 28  1  0
 27 26  1  1
 28 21  1  0
 29 27  1  0
 30 29  2  0
 31 29  1  0
M  END
$$$$
