WML.pdb
     RDKit          3D

 31 32  0  0  1  0  0  0  0  0999 V2000
    8.2209  -19.8403   26.7034 N   0  0  0  0  0  0  0  0  0  0  0  0
    8.4160  -18.4036   26.6887 C   0  0  1  0  0  0  0  0  0  0  0  0
    9.8816  -18.0458   26.4913 C   0  0  0  0  0  0  0  0  0  0  0  0
   10.4477  -17.3082   27.6273 C   0  0  0  0  0  0  0  0  0  0  0  0
   11.1697  -17.8060   28.6759 C   0  0  0  0  0  0  0  0  0  0  0  0
   11.5114  -16.8024   29.5150 N   0  0  0  0  0  0  0  0  0  0  0  0
   11.0220  -15.6591   29.0272 C   0  0  0  0  0  0  0  0  0  0  0  0
   11.0950  -14.3510   29.5082 C   0  0  0  0  0  0  0  0  0  0  0  0
   10.4808  -13.3694   28.7698 C   0  0  0  0  0  0  0  0  0  0  0  0
    9.8084  -13.6440   27.5890 C   0  0  0  0  0  0  0  0  0  0  0  0
    9.7405  -14.9363   27.1206 C   0  0  0  0  0  0  0  0  0  0  0  0
   10.3506  -15.9456   27.8447 C   0  0  0  0  0  0  0  0  0  0  0  0
    7.7098  -17.8500   25.4902 C   0  0  0  0  0  0  0  0  0  0  0  0
    7.5129  -18.5481   24.4908 O   0  0  0  0  0  0  0  0  0  0  0  0
    7.2466  -11.5116   27.2783 C   0  0  0  0  0  0  0  0  0  0  0  0
    6.1260  -12.8391   26.7578 S   0  0  0  0  0  0  0  0  0  0  0  0
    6.7998  -13.6617   25.2826 C   0  0  0  0  0  0  0  0  0  0  0  0
    5.7456  -14.6478   24.8135 C   0  0  0  0  0  0  0  0  0  0  0  0
    6.4308  -15.9186   24.4538 C   0  0  2  0  0  0  0  0  0  0  0  0
    7.2391  -16.5152   25.4449 N   0  0  0  0  0  0  0  0  0  0  0  0
    7.2176  -15.8060   23.1887 C   0  0  0  0  0  0  0  0  0  0  0  0
    6.6091  -15.7507   22.0726 O   0  0  0  0  0  0  0  0  0  0  0  0
    7.5386  -14.5025   19.7214 C   0  0  0  0  0  0  0  0  0  0  0  0
    8.0010  -13.6255   20.8762 C   0  0  2  0  0  0  0  0  0  0  0  0
    7.9124  -12.1723   20.6049 C   0  0  0  0  0  0  0  0  0  0  0  0
    9.2486  -14.1344   21.4830 C   0  0  0  0  0  0  0  0  0  0  0  0
    9.3337  -15.5655   21.8525 C   0  0  2  0  0  0  0  0  0  0  0  0
    8.6125  -15.7559   23.1471 N   0  0  0  0  0  0  0  0  0  0  0  0
   10.6862  -16.0406   22.1017 C   0  0  0  0  0  0  0  0  0  0  0  0
   11.0724  -16.3645   23.2419 O   0  0  0  0  0  0  0  0  0  0  0  0
   11.6217  -16.1596   21.0808 O   0  0  0  0  0  0  0  0  0  0  0  0
  2  1  1  6
  2  3  1  0
  3  4  1  0
  4 12  1  0
  4  5  2  0
  5  6  1  0
  7  6  1  0
  7  8  2  0
  9  8  1  0
 10  9  2  0
 11 10  1  0
 11 12  2  0
 12  7  1  0
 13  2  1  0
 13 14  2  0
 16 17  1  0
 16 15  1  0
 17 18  1  0
 19 18  1  1
 19 20  1  0
 20 13  1  0
 21 19  1  0
 22 21  2  0
 24 26  1  0
 24 23  1  6
 25 24  1  0
 27 28  1  0
 27 26  1  1
 28 21  1  0
 29 27  1  0
 30 29  2  0
 31 29  1  0
M  END
$$$$
