WML.pdb
     RDKit          3D

 31 32  0  0  1  0  0  0  0  0999 V2000
    6.5066  -19.0389   25.2162 N   0  0  0  0  0  0  0  0  0  0  0  0
    6.5375  -17.6120   24.9604 C   0  0  1  0  0  0  0  0  0  0  0  0
    6.8828  -16.8310   26.2197 C   0  0  0  0  0  0  0  0  0  0  0  0
    6.1395  -15.5701   26.3319 C   0  0  0  0  0  0  0  0  0  0  0  0
    4.7933  -15.4008   26.4979 C   0  0  0  0  0  0  0  0  0  0  0  0
    4.5008  -14.0821   26.5576 N   0  0  0  0  0  0  0  0  0  0  0  0
    5.6375  -13.3913   26.4328 C   0  0  0  0  0  0  0  0  0  0  0  0
    5.8798  -12.0169   26.4292 C   0  0  0  0  0  0  0  0  0  0  0  0
    7.1808  -11.6035   26.2798 C   0  0  0  0  0  0  0  0  0  0  0  0
    8.2293  -12.4991   26.1365 C   0  0  0  0  0  0  0  0  0  0  0  0
    7.9829  -13.8531   26.1410 C   0  0  0  0  0  0  0  0  0  0  0  0
    6.6810  -14.2979   26.2899 C   0  0  0  0  0  0  0  0  0  0  0  0
    7.6560  -17.3343   24.0048 C   0  0  0  0  0  0  0  0  0  0  0  0
    8.6739  -18.0334   23.9986 O   0  0  0  0  0  0  0  0  0  0  0  0
    9.1871  -11.6948   20.0882 C   0  0  0  0  0  0  0  0  0  0  0  0
    8.9242  -13.2187   19.1408 S   0  0  0  0  0  0  0  0  0  0  0  0
    9.3346  -14.6572   20.1746 C   0  0  0  0  0  0  0  0  0  0  0  0
    8.2843  -14.7221   21.2683 C   0  0  0  0  0  0  0  0  0  0  0  0
    8.5763  -15.9080   22.1182 C   0  0  2  0  0  0  0  0  0  0  0  0
    7.6019  -16.2694   23.0729 N   0  0  0  0  0  0  0  0  0  0  0  0
    9.9059  -15.8145   22.7932 C   0  0  0  0  0  0  0  0  0  0  0  0
   10.8896  -15.2954   22.1752 O   0  0  0  0  0  0  0  0  0  0  0  0
   11.3221  -13.4787   26.4526 C   0  0  0  0  0  0  0  0  0  0  0  0
   10.5794  -14.7466   26.8491 C   0  0  2  0  0  0  0  0  0  0  0  0
   10.2174  -14.8117   28.2836 C   0  0  0  0  0  0  0  0  0  0  0  0
   11.1868  -15.9484   26.2405 C   0  0  0  0  0  0  0  0  0  0  0  0
   11.4375  -15.9637   24.7814 C   0  0  2  0  0  0  0  0  0  0  0  0
   10.1486  -16.2702   24.0906 N   0  0  0  0  0  0  0  0  0  0  0  0
   12.3562  -17.0030   24.3422 C   0  0  0  0  0  0  0  0  0  0  0  0
   13.5680  -16.9790   24.6336 O   0  0  0  0  0  0  0  0  0  0  0  0
   11.9318  -18.0802   23.5733 O   0  0  0  0  0  0  0  0  0  0  0  0
  2  1  1  1
  2  3  1  0
  3  4  1  0
  4 12  1  0
  4  5  2  0
  5  6  1  0
  7  6  1  0
  7  8  2  0
  9  8  1  0
 10  9  2  0
 11 10  1  0
 11 12  2  0
 12  7  1  0
 13  2  1  0
 13 14  2  0
 16 17  1  0
 16 15  1  0
 17 18  1  0
 19 18  1  1
 19 20  1  0
 20 13  1  0
 21 19  1  0
 22 21  2  0
 24 26  1  0
 24 23  1  1
 25 24  1  0
 27 28  1  0
 27 26  1  1
 28 21  1  0
 29 27  1  0
 30 29  2  0
 31 29  1  0
M  END
$$$$
