WML.pdb
     RDKit          3D

 31 32  0  0  1  0  0  0  0  0999 V2000
    5.7511  -18.3483   24.0801 N   0  0  0  0  0  0  0  0  0  0  0  0
    6.4822  -17.0996   24.1728 C   0  0  1  0  0  0  0  0  0  0  0  0
    6.9086  -16.8126   25.6048 C   0  0  0  0  0  0  0  0  0  0  0  0
    6.4771  -15.4908   26.0755 C   0  0  0  0  0  0  0  0  0  0  0  0
    5.2727  -15.1462   26.6227 C   0  0  0  0  0  0  0  0  0  0  0  0
    5.2677  -13.8290   26.9277 N   0  0  0  0  0  0  0  0  0  0  0  0
    6.4514  -13.3120   26.5869 C   0  0  0  0  0  0  0  0  0  0  0  0
    6.9495  -12.0126   26.6928 C   0  0  0  0  0  0  0  0  0  0  0  0
    8.2290  -11.7865   26.2483 C   0  0  0  0  0  0  0  0  0  0  0  0
    9.0141  -12.7949   25.7113 C   0  0  0  0  0  0  0  0  0  0  0  0
    8.5164  -14.0740   25.6099 C   0  0  0  0  0  0  0  0  0  0  0  0
    7.2298  -14.3305   26.0502 C   0  0  0  0  0  0  0  0  0  0  0  0
    7.7578  -17.2485   23.4035 C   0  0  0  0  0  0  0  0  0  0  0  0
    8.2824  -18.3562   23.2525 O   0  0  0  0  0  0  0  0  0  0  0  0
    7.5958  -13.0512   18.3707 C   0  0  0  0  0  0  0  0  0  0  0  0
    9.1061  -13.5087   19.2644 S   0  0  0  0  0  0  0  0  0  0  0  0
    8.7075  -14.7351   20.5465 C   0  0  0  0  0  0  0  0  0  0  0  0
   10.0052  -15.0487   21.2685 C   0  0  0  0  0  0  0  0  0  0  0  0
    9.7241  -16.0948   22.2885 C   0  0  2  0  0  0  0  0  0  0  0  0
    8.4170  -16.1400   22.8187 N   0  0  0  0  0  0  0  0  0  0  0  0
   10.7046  -16.0728   23.4157 C   0  0  0  0  0  0  0  0  0  0  0  0
   11.9463  -15.9497   23.1665 O   0  0  0  0  0  0  0  0  0  0  0  0
    9.9563  -13.5171   26.8621 C   0  0  0  0  0  0  0  0  0  0  0  0
    9.5279  -14.9112   27.2974 C   0  0  2  0  0  0  0  0  0  0  0  0
    8.7608  -14.9400   28.5638 C   0  0  0  0  0  0  0  0  0  0  0  0
   10.6197  -15.8937   27.1350 C   0  0  0  0  0  0  0  0  0  0  0  0
   11.3428  -15.9544   25.8446 C   0  0  2  0  0  0  0  0  0  0  0  0
   10.3410  -16.1811   24.7595 N   0  0  0  0  0  0  0  0  0  0  0  0
   12.2765  -17.0647   25.7326 C   0  0  0  0  0  0  0  0  0  0  0  0
   11.9984  -18.0994   25.0954 O   0  0  0  0  0  0  0  0  0  0  0  0
   13.5308  -17.0315   26.3305 O   0  0  0  0  0  0  0  0  0  0  0  0
  2  1  1  1
  2  3  1  0
  3  4  1  0
  4 12  1  0
  4  5  2  0
  5  6  1  0
  7  6  1  0
  7  8  2  0
  9  8  1  0
 10  9  2  0
 11 10  1  0
 11 12  2  0
 12  7  1  0
 13  2  1  0
 13 14  2  0
 16 17  1  0
 16 15  1  0
 17 18  1  0
 19 18  1  1
 19 20  1  0
 20 13  1  0
 21 19  1  0
 22 21  2  0
 24 26  1  0
 24 23  1  1
 25 24  1  0
 27 28  1  0
 27 26  1  1
 28 21  1  0
 29 27  1  0
 30 29  2  0
 31 29  1  0
M  END
$$$$
