WML.pdb
     RDKit          3D

 31 32  0  0  1  0  0  0  0  0999 V2000
    7.1775  -19.2883   25.7055 N   0  0  0  0  0  0  0  0  0  0  0  0
    6.9806  -17.8810   25.4170 C   0  0  1  0  0  0  0  0  0  0  0  0
    7.6752  -17.0022   26.4465 C   0  0  0  0  0  0  0  0  0  0  0  0
    7.1374  -15.6369   26.4882 C   0  0  0  0  0  0  0  0  0  0  0  0
    5.8349  -15.2430   26.3578 C   0  0  0  0  0  0  0  0  0  0  0  0
    5.7509  -13.8971   26.4554 N   0  0  0  0  0  0  0  0  0  0  0  0
    6.9799  -13.4100   26.6475 C   0  0  0  0  0  0  0  0  0  0  0  0
    7.4323  -12.0996   26.8093 C   0  0  0  0  0  0  0  0  0  0  0  0
    8.7804  -11.9130   26.9924 C   0  0  0  0  0  0  0  0  0  0  0  0
    9.6763  -12.9706   27.0190 C   0  0  0  0  0  0  0  0  0  0  0  0
    9.2231  -14.2602   26.8587 C   0  0  0  0  0  0  0  0  0  0  0  0
    7.8692  -14.4776   26.6724 C   0  0  0  0  0  0  0  0  0  0  0  0
    7.6550  -17.5735   24.1162 C   0  0  0  0  0  0  0  0  0  0  0  0
    8.5407  -18.3098   23.6708 O   0  0  0  0  0  0  0  0  0  0  0  0
    8.0573  -12.8133   17.7952 C   0  0  0  0  0  0  0  0  0  0  0  0
    7.2843  -13.1212   19.4066 S   0  0  0  0  0  0  0  0  0  0  0  0
    8.1112  -14.5207   20.2216 C   0  0  0  0  0  0  0  0  0  0  0  0
    7.3851  -14.7520   21.5342 C   0  0  0  0  0  0  0  0  0  0  0  0
    7.8623  -16.0409   22.1042 C   0  0  2  0  0  0  0  0  0  0  0  0
    7.3145  -16.4372   23.3429 N   0  0  0  0  0  0  0  0  0  0  0  0
    9.3524  -16.1129   22.1870 C   0  0  0  0  0  0  0  0  0  0  0  0
    9.9729  -15.3686   23.0115 O   0  0  0  0  0  0  0  0  0  0  0  0
   12.7776  -13.0934   20.0867 C   0  0  0  0  0  0  0  0  0  0  0  0
   12.9060  -14.5835   20.3690 C   0  0  2  0  0  0  0  0  0  0  0  0
   13.8028  -15.3009   19.4339 C   0  0  0  0  0  0  0  0  0  0  0  0
   11.5957  -15.1975   20.6687 C   0  0  0  0  0  0  0  0  0  0  0  0
   11.5472  -16.6215   21.0711 C   0  0  2  0  0  0  0  0  0  0  0  0
   10.1306  -16.9644   21.4000 N   0  0  0  0  0  0  0  0  0  0  0  0
   12.2988  -16.9289   22.2784 C   0  0  0  0  0  0  0  0  0  0  0  0
   13.5406  -17.0384   22.2730 O   0  0  0  0  0  0  0  0  0  0  0  0
   11.6722  -17.1169   23.5047 O   0  0  0  0  0  0  0  0  0  0  0  0
  2  1  1  1
  2  3  1  0
  3  4  1  0
  4 12  1  0
  4  5  2  0
  5  6  1  0
  7  6  1  0
  7  8  2  0
  9  8  1  0
 10  9  2  0
 11 10  1  0
 11 12  2  0
 12  7  1  0
 13  2  1  0
 13 14  2  0
 16 17  1  0
 16 15  1  0
 17 18  1  0
 19 18  1  1
 19 20  1  0
 20 13  1  0
 21 19  1  0
 22 21  2  0
 24 26  1  0
 24 23  1  6
 25 24  1  0
 27 28  1  0
 27 26  1  1
 28 21  1  0
 29 27  1  0
 30 29  2  0
 31 29  1  0
M  END
$$$$
