WML.pdb
     RDKit          3D

 31 32  0  0  1  0  0  0  0  0999 V2000
    6.1874  -17.9637   24.2436 N   0  0  0  0  0  0  0  0  0  0  0  0
    7.0762  -16.8330   24.0597 C   0  0  1  0  0  0  0  0  0  0  0  0
    7.5214  -16.2556   25.3951 C   0  0  0  0  0  0  0  0  0  0  0  0
    6.7521  -15.0693   25.7897 C   0  0  0  0  0  0  0  0  0  0  0  0
    5.5621  -15.0252   26.4609 C   0  0  0  0  0  0  0  0  0  0  0  0
    5.1806  -13.7396   26.6341 N   0  0  0  0  0  0  0  0  0  0  0  0
    6.1054  -12.9471   26.0853 C   0  0  0  0  0  0  0  0  0  0  0  0
    6.1851  -11.5567   25.9948 C   0  0  0  0  0  0  0  0  0  0  0  0
    7.2800  -11.0250   25.3588 C   0  0  0  0  0  0  0  0  0  0  0  0
    8.2800  -11.8195   24.8197 C   0  0  0  0  0  0  0  0  0  0  0  0
    8.1949  -13.1899   24.9127 C   0  0  0  0  0  0  0  0  0  0  0  0
    7.1022  -13.7530   25.5484 C   0  0  0  0  0  0  0  0  0  0  0  0
    8.3291  -17.3270   23.4059 C   0  0  0  0  0  0  0  0  0  0  0  0
    8.8032  -18.4301   23.6945 O   0  0  0  0  0  0  0  0  0  0  0  0
   14.7247  -15.0851   19.2919 C   0  0  0  0  0  0  0  0  0  0  0  0
   12.9135  -15.1227   19.3759 S   0  0  0  0  0  0  0  0  0  0  0  0
   12.3918  -15.9298   20.9197 C   0  0  0  0  0  0  0  0  0  0  0  0
   10.8777  -15.8373   20.9700 C   0  0  0  0  0  0  0  0  0  0  0  0
   10.4156  -16.5124   22.2129 C   0  0  2  0  0  0  0  0  0  0  0  0
    9.0232  -16.5626   22.4367 N   0  0  0  0  0  0  0  0  0  0  0  0
   11.0850  -15.9776   23.4369 C   0  0  0  0  0  0  0  0  0  0  0  0
   11.2411  -14.7220   23.5704 O   0  0  0  0  0  0  0  0  0  0  0  0
   11.0810  -15.6207   28.6077 C   0  0  0  0  0  0  0  0  0  0  0  0
   10.8746  -14.5973   27.5002 C   0  0  2  0  0  0  0  0  0  0  0  0
    9.8436  -13.5783   27.8032 C   0  0  0  0  0  0  0  0  0  0  0  0
   10.8374  -15.2347   26.1675 C   0  0  0  0  0  0  0  0  0  0  0  0
   11.9003  -16.1993   25.8048 C   0  0  2  0  0  0  0  0  0  0  0  0
   11.5635  -16.7840   24.4718 N   0  0  0  0  0  0  0  0  0  0  0  0
   12.0046  -17.3409   26.7009 C   0  0  0  0  0  0  0  0  0  0  0  0
   12.9201  -17.4390   27.5413 O   0  0  0  0  0  0  0  0  0  0  0  0
   11.0877  -18.3850   26.6686 O   0  0  0  0  0  0  0  0  0  0  0  0
  2  1  1  1
  2  3  1  0
  3  4  1  0
  4 12  1  0
  4  5  2  0
  5  6  1  0
  7  6  1  0
  7  8  2  0
  9  8  1  0
 10  9  2  0
 11 10  1  0
 11 12  2  0
 12  7  1  0
 13  2  1  0
 13 14  2  0
 16 17  1  0
 16 15  1  0
 17 18  1  0
 19 18  1  6
 19 20  1  0
 20 13  1  0
 21 19  1  0
 22 21  2  0
 24 26  1  0
 24 23  1  1
 25 24  1  0
 27 28  1  0
 27 26  1  1
 28 21  1  0
 29 27  1  0
 30 29  2  0
 31 29  1  0
M  END
$$$$
