WML.pdb
     RDKit          3D

 31 32  0  0  1  0  0  0  0  0999 V2000
    5.8753  -17.6362   23.9083 N   0  0  0  0  0  0  0  0  0  0  0  0
    6.8493  -16.5645   23.9801 C   0  0  1  0  0  0  0  0  0  0  0  0
    7.2465  -16.2727   25.4195 C   0  0  0  0  0  0  0  0  0  0  0  0
    6.5257  -15.1283   25.9903 C   0  0  0  0  0  0  0  0  0  0  0  0
    5.2999  -15.1250   26.5955 C   0  0  0  0  0  0  0  0  0  0  0  0
    4.9856  -13.8699   26.9879 N   0  0  0  0  0  0  0  0  0  0  0  0
    5.9892  -13.0569   26.6467 C   0  0  0  0  0  0  0  0  0  0  0  0
    6.1574  -11.6829   26.8241 C   0  0  0  0  0  0  0  0  0  0  0  0
    7.3204  -11.1215   26.3571 C   0  0  0  0  0  0  0  0  0  0  0  0
    8.3036  -11.8713   25.7304 C   0  0  0  0  0  0  0  0  0  0  0  0
    8.1311  -13.2259   25.5589 C   0  0  0  0  0  0  0  0  0  0  0  0
    6.9684  -13.8182   26.0198 C   0  0  0  0  0  0  0  0  0  0  0  0
    8.1049  -17.0308   23.3110 C   0  0  0  0  0  0  0  0  0  0  0  0
    8.5759  -18.1466   23.5521 O   0  0  0  0  0  0  0  0  0  0  0  0
    7.2253  -13.3731   19.1412 C   0  0  0  0  0  0  0  0  0  0  0  0
    8.7296  -13.6948   20.1015 S   0  0  0  0  0  0  0  0  0  0  0  0
    9.2706  -15.4096   19.8302 C   0  0  0  0  0  0  0  0  0  0  0  0
   10.5044  -15.6186   20.6892 C   0  0  0  0  0  0  0  0  0  0  0  0
   10.1083  -16.4227   21.8768 C   0  0  2  0  0  0  0  0  0  0  0  0
    8.8051  -16.2248   22.3808 N   0  0  0  0  0  0  0  0  0  0  0  0
   11.0864  -16.3039   23.0001 C   0  0  0  0  0  0  0  0  0  0  0  0
   12.3232  -16.1518   22.7432 O   0  0  0  0  0  0  0  0  0  0  0  0
    9.4787  -15.0996   28.3138 C   0  0  0  0  0  0  0  0  0  0  0  0
   10.5901  -14.8960   27.2940 C   0  0  2  0  0  0  0  0  0  0  0  0
   10.3499  -13.7780   26.3530 C   0  0  0  0  0  0  0  0  0  0  0  0
   11.0545  -16.1798   26.7285 C   0  0  0  0  0  0  0  0  0  0  0  0
   11.7502  -16.1771   25.4216 C   0  0  2  0  0  0  0  0  0  0  0  0
   10.7254  -16.3496   24.3482 N   0  0  0  0  0  0  0  0  0  0  0  0
   12.6797  -17.2809   25.2354 C   0  0  0  0  0  0  0  0  0  0  0  0
   13.9129  -17.1297   25.3367 O   0  0  0  0  0  0  0  0  0  0  0  0
   12.2423  -18.5654   24.9344 O   0  0  0  0  0  0  0  0  0  0  0  0
  2  1  1  1
  2  3  1  0
  3  4  1  0
  4 12  1  0
  4  5  2  0
  5  6  1  0
  7  6  1  0
  7  8  2  0
  9  8  1  0
 10  9  2  0
 11 10  1  0
 11 12  2  0
 12  7  1  0
 13  2  1  0
 13 14  2  0
 16 17  1  0
 16 15  1  0
 17 18  1  0
 19 18  1  6
 19 20  1  0
 20 13  1  0
 21 19  1  0
 22 21  2  0
 24 26  1  0
 24 23  1  6
 25 24  1  0
 27 28  1  0
 27 26  1  1
 28 21  1  0
 29 27  1  0
 30 29  2  0
 31 29  1  0
M  END
$$$$
