WML.pdb
     RDKit          3D

 31 32  0  0  1  0  0  0  0  0999 V2000
    6.7869  -19.6287   24.9450 N   0  0  0  0  0  0  0  0  0  0  0  0
    6.5681  -18.1995   24.8356 C   0  0  1  0  0  0  0  0  0  0  0  0
    6.8024  -17.5000   26.1662 C   0  0  0  0  0  0  0  0  0  0  0  0
    6.3096  -16.1173   26.1794 C   0  0  0  0  0  0  0  0  0  0  0  0
    5.1298  -15.6414   25.6791 C   0  0  0  0  0  0  0  0  0  0  0  0
    5.0471  -14.3083   25.8891 N   0  0  0  0  0  0  0  0  0  0  0  0
    6.1561  -13.9103   26.5187 C   0  0  0  0  0  0  0  0  0  0  0  0
    6.5585  -12.6483   26.9583 C   0  0  0  0  0  0  0  0  0  0  0  0
    7.7765  -12.5547   27.5855 C   0  0  0  0  0  0  0  0  0  0  0  0
    8.5920  -13.6579   27.7853 C   0  0  0  0  0  0  0  0  0  0  0  0
    8.1887  -14.8994   27.3492 C   0  0  0  0  0  0  0  0  0  0  0  0
    6.9656  -15.0230   26.7138 C   0  0  0  0  0  0  0  0  0  0  0  0
    7.6015  -17.6399   23.9081 C   0  0  0  0  0  0  0  0  0  0  0  0
    8.5984  -18.2988   23.5967 O   0  0  0  0  0  0  0  0  0  0  0  0
    9.3136  -11.9122   18.7049 C   0  0  0  0  0  0  0  0  0  0  0  0
    8.2091  -12.4728   20.0296 S   0  0  0  0  0  0  0  0  0  0  0  0
    8.8342  -14.0325   20.7248 C   0  0  0  0  0  0  0  0  0  0  0  0
    7.8840  -14.4238   21.8418 C   0  0  0  0  0  0  0  0  0  0  0  0
    8.2932  -15.7620   22.3476 C   0  0  2  0  0  0  0  0  0  0  0  0
    7.4877  -16.3435   23.3498 N   0  0  0  0  0  0  0  0  0  0  0  0
    9.7194  -15.7940   22.7917 C   0  0  0  0  0  0  0  0  0  0  0  0
   10.5734  -15.0452   22.2181 O   0  0  0  0  0  0  0  0  0  0  0  0
    9.8127  -15.0252   28.4119 C   0  0  0  0  0  0  0  0  0  0  0  0
   10.8342  -15.2340   27.3031 C   0  0  2  0  0  0  0  0  0  0  0  0
   11.8170  -14.1340   27.1716 C   0  0  0  0  0  0  0  0  0  0  0  0
   10.2027  -15.7401   26.0667 C   0  0  0  0  0  0  0  0  0  0  0  0
   11.0602  -16.0568   24.9021 C   0  0  2  0  0  0  0  0  0  0  0  0
   10.1910  -16.6115   23.8209 N   0  0  0  0  0  0  0  0  0  0  0  0
   12.0539  -17.0896   25.1530 C   0  0  0  0  0  0  0  0  0  0  0  0
   13.2433  -16.8140   25.4049 O   0  0  0  0  0  0  0  0  0  0  0  0
   11.7304  -18.4410   25.1258 O   0  0  0  0  0  0  0  0  0  0  0  0
  2  1  1  1
  2  3  1  0
  3  4  1  0
  4 12  1  0
  4  5  2  0
  5  6  1  0
  7  6  1  0
  7  8  2  0
  9  8  1  0
 10  9  2  0
 11 10  1  0
 11 12  2  0
 12  7  1  0
 13  2  1  0
 13 14  2  0
 16 17  1  0
 16 15  1  0
 17 18  1  0
 19 18  1  1
 19 20  1  0
 20 13  1  0
 21 19  1  0
 22 21  2  0
 24 26  1  0
 24 23  1  1
 25 24  1  0
 27 28  1  0
 27 26  1  1
 28 21  1  0
 29 27  1  0
 30 29  2  0
 31 29  1  0
M  END
$$$$
