WML.pdb
     RDKit          3D

 31 32  0  0  1  0  0  0  0  0999 V2000
    6.5141  -19.6265   24.6681 N   0  0  0  0  0  0  0  0  0  0  0  0
    6.5203  -18.1790   24.5846 C   0  0  1  0  0  0  0  0  0  0  0  0
    6.9515  -17.5502   25.9011 C   0  0  0  0  0  0  0  0  0  0  0  0
    6.2604  -16.2864   26.1843 C   0  0  0  0  0  0  0  0  0  0  0  0
    4.9310  -16.0951   26.4388 C   0  0  0  0  0  0  0  0  0  0  0  0
    4.6892  -14.7820   26.6518 N   0  0  0  0  0  0  0  0  0  0  0  0
    5.8422  -14.1166   26.5394 C   0  0  0  0  0  0  0  0  0  0  0  0
    6.1330  -12.7576   26.6668 C   0  0  0  0  0  0  0  0  0  0  0  0
    7.4389  -12.3702   26.4922 C   0  0  0  0  0  0  0  0  0  0  0  0
    8.4462  -13.2767   26.2000 C   0  0  0  0  0  0  0  0  0  0  0  0
    8.1521  -14.6155   26.0759 C   0  0  0  0  0  0  0  0  0  0  0  0
    6.8442  -15.0340   26.2468 C   0  0  0  0  0  0  0  0  0  0  0  0
    7.5661  -17.7743   23.5927 C   0  0  0  0  0  0  0  0  0  0  0  0
    8.6848  -18.2972   23.6008 O   0  0  0  0  0  0  0  0  0  0  0  0
    9.5491  -11.4741   19.2374 C   0  0  0  0  0  0  0  0  0  0  0  0
    8.2498  -12.3646   20.1361 S   0  0  0  0  0  0  0  0  0  0  0  0
    8.8973  -13.9603   20.7205 C   0  0  0  0  0  0  0  0  0  0  0  0
    7.7971  -14.6010   21.5468 C   0  0  0  0  0  0  0  0  0  0  0  0
    8.2709  -15.9418   21.9847 C   0  0  2  0  0  0  0  0  0  0  0  0
    7.3264  -16.7842   22.6090 N   0  0  0  0  0  0  0  0  0  0  0  0
    9.4934  -15.8652   22.8403 C   0  0  0  0  0  0  0  0  0  0  0  0
   10.6383  -15.7695   22.2936 O   0  0  0  0  0  0  0  0  0  0  0  0
   10.6646  -14.9994   28.8665 C   0  0  0  0  0  0  0  0  0  0  0  0
   11.2472  -14.9681   27.4607 C   0  0  2  0  0  0  0  0  0  0  0  0
   12.1372  -13.8134   27.2007 C   0  0  0  0  0  0  0  0  0  0  0  0
   10.2288  -15.2918   26.4401 C   0  0  0  0  0  0  0  0  0  0  0  0
   10.6571  -15.4813   25.0356 C   0  0  2  0  0  0  0  0  0  0  0  0
    9.4636  -15.8921   24.2361 N   0  0  0  0  0  0  0  0  0  0  0  0
   11.6249  -16.5506   24.8434 C   0  0  0  0  0  0  0  0  0  0  0  0
   11.2768  -17.7113   24.5511 O   0  0  0  0  0  0  0  0  0  0  0  0
   12.9917  -16.3354   24.9751 O   0  0  0  0  0  0  0  0  0  0  0  0
  2  1  1  1
  2  3  1  0
  3  4  1  0
  4 12  1  0
  4  5  2  0
  5  6  1  0
  7  6  1  0
  7  8  2  0
  9  8  1  0
 10  9  2  0
 11 10  1  0
 11 12  2  0
 12  7  1  0
 13  2  1  0
 13 14  2  0
 16 17  1  0
 16 15  1  0
 17 18  1  0
 19 18  1  1
 19 20  1  0
 20 13  1  0
 21 19  1  0
 22 21  2  0
 24 26  1  0
 24 23  1  1
 25 24  1  0
 27 28  1  0
 27 26  1  1
 28 21  1  0
 29 27  1  0
 30 29  2  0
 31 29  1  0
M  END
$$$$
