WML.pdb
     RDKit          3D

 31 32  0  0  1  0  0  0  0  0999 V2000
    6.0463  -17.9139   24.4654 N   0  0  0  0  0  0  0  0  0  0  0  0
    6.9847  -16.8153   24.3434 C   0  0  1  0  0  0  0  0  0  0  0  0
    7.2418  -16.1545   25.6895 C   0  0  0  0  0  0  0  0  0  0  0  0
    6.1986  -15.1910   26.0616 C   0  0  0  0  0  0  0  0  0  0  0  0
    5.0377  -15.4311   26.7422 C   0  0  0  0  0  0  0  0  0  0  0  0
    4.3443  -14.2795   26.8869 N   0  0  0  0  0  0  0  0  0  0  0  0
    5.0374  -13.2938   26.3102 C   0  0  0  0  0  0  0  0  0  0  0  0
    4.7630  -11.9312   26.1845 C   0  0  0  0  0  0  0  0  0  0  0  0
    5.6864  -11.1572   25.5257 C   0  0  0  0  0  0  0  0  0  0  0  0
    6.8533  -11.6873   24.9975 C   0  0  0  0  0  0  0  0  0  0  0  0
    7.1175  -13.0319   25.1252 C   0  0  0  0  0  0  0  0  0  0  0  0
    6.2042  -13.8358   25.7845 C   0  0  0  0  0  0  0  0  0  0  0  0
    8.3066  -17.3768   23.9206 C   0  0  0  0  0  0  0  0  0  0  0  0
    9.0493  -17.9339   24.7348 O   0  0  0  0  0  0  0  0  0  0  0  0
    7.2734  -12.8086   20.7871 C   0  0  0  0  0  0  0  0  0  0  0  0
    9.0482  -12.6088   20.4728 S   0  0  0  0  0  0  0  0  0  0  0  0
    9.9405  -14.0800   21.0613 C   0  0  0  0  0  0  0  0  0  0  0  0
    8.9054  -14.9958   21.6886 C   0  0  0  0  0  0  0  0  0  0  0  0
    9.5664  -16.2911   22.0037 C   0  0  2  0  0  0  0  0  0  0  0  0
    8.7640  -17.2973   22.5828 N   0  0  0  0  0  0  0  0  0  0  0  0
   10.7993  -16.1180   22.8297 C   0  0  0  0  0  0  0  0  0  0  0  0
   11.8424  -15.6135   22.3041 O   0  0  0  0  0  0  0  0  0  0  0  0
   11.3686  -15.2598   28.4508 C   0  0  0  0  0  0  0  0  0  0  0  0
   12.1248  -15.2231   27.1305 C   0  0  2  0  0  0  0  0  0  0  0  0
   12.0219  -13.9331   26.4105 C   0  0  0  0  0  0  0  0  0  0  0  0
   11.9218  -16.4615   26.3501 C   0  0  0  0  0  0  0  0  0  0  0  0
   12.1951  -16.4443   24.8951 C   0  0  2  0  0  0  0  0  0  0  0  0
   10.8866  -16.4820   24.1750 N   0  0  0  0  0  0  0  0  0  0  0  0
   12.9257  -17.6049   24.4090 C   0  0  0  0  0  0  0  0  0  0  0  0
   12.3574  -18.5401   23.8120 O   0  0  0  0  0  0  0  0  0  0  0  0
   14.2985  -17.7337   24.5839 O   0  0  0  0  0  0  0  0  0  0  0  0
  2  1  1  1
  2  3  1  0
  3  4  1  0
  4 12  1  0
  4  5  2  0
  5  6  1  0
  7  6  1  0
  7  8  2  0
  9  8  1  0
 10  9  2  0
 11 10  1  0
 11 12  2  0
 12  7  1  0
 13  2  1  0
 13 14  2  0
 16 17  1  0
 16 15  1  0
 17 18  1  0
 19 18  1  1
 19 20  1  0
 20 13  1  0
 21 19  1  0
 22 21  2  0
 24 26  1  0
 24 23  1  1
 25 24  1  0
 27 28  1  0
 27 26  1  1
 28 21  1  0
 29 27  1  0
 30 29  2  0
 31 29  1  0
M  END
$$$$
