WML.pdb
     RDKit          3D

 31 32  0  0  1  0  0  0  0  0999 V2000
    8.0733  -17.2011   26.5021 N   0  0  0  0  0  0  0  0  0  0  0  0
    7.2926  -18.0522   25.6255 C   0  0  1  0  0  0  0  0  0  0  0  0
    5.8425  -17.5966   25.5585 C   0  0  0  0  0  0  0  0  0  0  0  0
    5.7071  -16.1452   25.3848 C   0  0  0  0  0  0  0  0  0  0  0  0
    4.7937  -15.4723   24.6221 C   0  0  0  0  0  0  0  0  0  0  0  0
    4.9996  -14.1403   24.7287 N   0  0  0  0  0  0  0  0  0  0  0  0
    6.0336  -13.9371   25.5498 C   0  0  0  0  0  0  0  0  0  0  0  0
    6.6408  -12.7586   25.9858 C   0  0  0  0  0  0  0  0  0  0  0  0
    7.7052  -12.8750   26.8457 C   0  0  0  0  0  0  0  0  0  0  0  0
    8.1757  -14.1055   27.2774 C   0  0  0  0  0  0  0  0  0  0  0  0
    7.5720  -15.2636   26.8434 C   0  0  0  0  0  0  0  0  0  0  0  0
    6.4971  -15.1760   25.9762 C   0  0  0  0  0  0  0  0  0  0  0  0
    7.8202  -17.8954   24.2332 C   0  0  0  0  0  0  0  0  0  0  0  0
    7.1191  -18.1689   23.2541 O   0  0  0  0  0  0  0  0  0  0  0  0
    8.9867  -11.9059   22.1426 C   0  0  0  0  0  0  0  0  0  0  0  0
    8.4425  -13.2512   21.0550 S   0  0  0  0  0  0  0  0  0  0  0  0
    9.4326  -14.7402   21.3856 C   0  0  0  0  0  0  0  0  0  0  0  0
    8.8999  -15.3411   22.6735 C   0  0  0  0  0  0  0  0  0  0  0  0
    9.5730  -16.6513   22.8839 C   0  0  2  0  0  0  0  0  0  0  0  0
    9.1329  -17.4315   23.9744 N   0  0  0  0  0  0  0  0  0  0  0  0
   11.0606  -16.5269   22.9450 C   0  0  0  0  0  0  0  0  0  0  0  0
   11.6685  -15.8205   22.0787 O   0  0  0  0  0  0  0  0  0  0  0  0
   10.2098  -14.9294   27.9054 C   0  0  0  0  0  0  0  0  0  0  0  0
   11.4558  -15.0190   27.0360 C   0  0  2  0  0  0  0  0  0  0  0  0
   12.1861  -13.7387   26.8922 C   0  0  0  0  0  0  0  0  0  0  0  0
   11.2119  -15.8100   25.8118 C   0  0  0  0  0  0  0  0  0  0  0  0
   12.3686  -16.3837   25.0873 C   0  0  2  0  0  0  0  0  0  0  0  0
   11.8498  -17.1497   23.9141 N   0  0  0  0  0  0  0  0  0  0  0  0
   13.1385  -17.3493   25.8566 C   0  0  0  0  0  0  0  0  0  0  0  0
   14.2705  -17.0835   26.3059 O   0  0  0  0  0  0  0  0  0  0  0  0
   12.6526  -18.6219   26.1329 O   0  0  0  0  0  0  0  0  0  0  0  0
  2  1  1  1
  2  3  1  0
  3  4  1  0
  4 12  1  0
  4  5  2  0
  5  6  1  0
  7  6  1  0
  7  8  2  0
  9  8  1  0
 10  9  2  0
 11 10  1  0
 11 12  2  0
 12  7  1  0
 13  2  1  0
 13 14  2  0
 16 17  1  0
 16 15  1  0
 17 18  1  0
 19 18  1  1
 19 20  1  0
 20 13  1  0
 21 19  1  0
 22 21  2  0
 24 26  1  0
 24 23  1  6
 25 24  1  0
 27 28  1  0
 27 26  1  1
 28 21  1  0
 29 27  1  0
 30 29  2  0
 31 29  1  0
M  END
$$$$
