WML.pdb
     RDKit          3D

 31 32  0  0  1  0  0  0  0  0999 V2000
    6.6615  -19.0601   25.0324 N   0  0  0  0  0  0  0  0  0  0  0  0
    6.7874  -17.6549   24.6979 C   0  0  1  0  0  0  0  0  0  0  0  0
    7.0081  -16.8071   25.9417 C   0  0  0  0  0  0  0  0  0  0  0  0
    6.0384  -15.7120   26.0664 C   0  0  0  0  0  0  0  0  0  0  0  0
    4.6856  -15.8040   26.2400 C   0  0  0  0  0  0  0  0  0  0  0  0
    4.1471  -14.5658   26.3104 N   0  0  0  0  0  0  0  0  0  0  0  0
    5.1301  -13.6699   26.1852 C   0  0  0  0  0  0  0  0  0  0  0  0
    5.1055  -12.2745   26.1902 C   0  0  0  0  0  0  0  0  0  0  0  0
    6.3027  -11.6194   26.0376 C   0  0  0  0  0  0  0  0  0  0  0  0
    7.5020  -12.2973   25.8830 C   0  0  0  0  0  0  0  0  0  0  0  0
    7.5188  -13.6734   25.8790 C   0  0  0  0  0  0  0  0  0  0  0  0
    6.3267  -14.3596   26.0309 C   0  0  0  0  0  0  0  0  0  0  0  0
    8.0270  -17.4809   23.8766 C   0  0  0  0  0  0  0  0  0  0  0  0
    8.9169  -18.3371   23.8813 O   0  0  0  0  0  0  0  0  0  0  0  0
    9.0634  -11.5494   20.8672 C   0  0  0  0  0  0  0  0  0  0  0  0
    7.8002  -12.7887   20.4706 S   0  0  0  0  0  0  0  0  0  0  0  0
    7.9257  -14.1805   21.6343 C   0  0  0  0  0  0  0  0  0  0  0  0
    9.2357  -14.8848   21.3321 C   0  0  0  0  0  0  0  0  0  0  0  0
    9.3419  -16.0662   22.2304 C   0  0  2  0  0  0  0  0  0  0  0  0
    8.2370  -16.3400   23.0645 N   0  0  0  0  0  0  0  0  0  0  0  0
   10.5835  -16.0434   23.0612 C   0  0  0  0  0  0  0  0  0  0  0  0
   11.6943  -15.7342   22.5232 O   0  0  0  0  0  0  0  0  0  0  0  0
   12.0690  -14.0407   26.7879 C   0  0  0  0  0  0  0  0  0  0  0  0
   11.1931  -15.2065   27.2240 C   0  0  2  0  0  0  0  0  0  0  0  0
   10.8819  -15.2204   28.6718 C   0  0  0  0  0  0  0  0  0  0  0  0
   11.6252  -16.4763   26.6038 C   0  0  0  0  0  0  0  0  0  0  0  0
   11.9041  -16.5051   25.1501 C   0  0  2  0  0  0  0  0  0  0  0  0
   10.6079  -16.3463   24.4241 N   0  0  0  0  0  0  0  0  0  0  0  0
   12.4525  -17.7643   24.6700 C   0  0  0  0  0  0  0  0  0  0  0  0
   13.6012  -18.1423   24.9731 O   0  0  0  0  0  0  0  0  0  0  0  0
   11.7244  -18.6153   23.8469 O   0  0  0  0  0  0  0  0  0  0  0  0
  2  1  1  1
  2  3  1  0
  3  4  1  0
  4 12  1  0
  4  5  2  0
  5  6  1  0
  7  6  1  0
  7  8  2  0
  9  8  1  0
 10  9  2  0
 11 10  1  0
 11 12  2  0
 12  7  1  0
 13  2  1  0
 13 14  2  0
 16 17  1  0
 16 15  1  0
 17 18  1  0
 19 18  1  1
 19 20  1  0
 20 13  1  0
 21 19  1  0
 22 21  2  0
 24 26  1  0
 24 23  1  1
 25 24  1  0
 27 28  1  0
 27 26  1  1
 28 21  1  0
 29 27  1  0
 30 29  2  0
 31 29  1  0
M  END
$$$$
