WML.pdb
     RDKit          3D

 31 32  0  0  1  0  0  0  0  0999 V2000
    5.9648  -18.2523   24.3897 N   0  0  0  0  0  0  0  0  0  0  0  0
    6.6385  -16.9712   24.3048 C   0  0  1  0  0  0  0  0  0  0  0  0
    7.0725  -16.4816   25.6784 C   0  0  0  0  0  0  0  0  0  0  0  0
    6.3891  -15.2485   26.0878 C   0  0  0  0  0  0  0  0  0  0  0  0
    5.1656  -15.1251   26.6849 C   0  0  0  0  0  0  0  0  0  0  0  0
    4.8914  -13.8193   26.9031 N   0  0  0  0  0  0  0  0  0  0  0  0
    5.9190  -13.0916   26.4566 C   0  0  0  0  0  0  0  0  0  0  0  0
    6.1301  -11.7121   26.4464 C   0  0  0  0  0  0  0  0  0  0  0  0
    7.3088  -11.2557   25.9096 C   0  0  0  0  0  0  0  0  0  0  0  0
    8.2667  -12.1138   25.3919 C   0  0  0  0  0  0  0  0  0  0  0  0
    8.0517  -13.4731   25.4052 C   0  0  0  0  0  0  0  0  0  0  0  0
    6.8724  -13.9609   25.9402 C   0  0  0  0  0  0  0  0  0  0  0  0
    7.9081  -17.1628   23.5349 C   0  0  0  0  0  0  0  0  0  0  0  0
    8.4653  -18.2640   23.4934 O   0  0  0  0  0  0  0  0  0  0  0  0
    7.6001  -12.7112   18.6393 C   0  0  0  0  0  0  0  0  0  0  0  0
    9.1404  -13.3184   19.3794 S   0  0  0  0  0  0  0  0  0  0  0  0
    8.7662  -14.6545   20.5548 C   0  0  0  0  0  0  0  0  0  0  0  0
   10.0744  -15.0172   21.2336 C   0  0  0  0  0  0  0  0  0  0  0  0
    9.7985  -16.0976   22.2187 C   0  0  2  0  0  0  0  0  0  0  0  0
    8.5244  -16.1034   22.8255 N   0  0  0  0  0  0  0  0  0  0  0  0
   10.8435  -16.1815   23.2833 C   0  0  0  0  0  0  0  0  0  0  0  0
   12.0736  -16.1342   22.9618 O   0  0  0  0  0  0  0  0  0  0  0  0
    9.4556  -15.1951   28.5931 C   0  0  0  0  0  0  0  0  0  0  0  0
   10.5741  -15.0009   27.5792 C   0  0  2  0  0  0  0  0  0  0  0  0
   10.3546  -13.8726   26.6456 C   0  0  0  0  0  0  0  0  0  0  0  0
   11.0213  -16.2875   27.0061 C   0  0  0  0  0  0  0  0  0  0  0  0
   11.6451  -16.2955   25.6635 C   0  0  2  0  0  0  0  0  0  0  0  0
   10.5538  -16.3117   24.6431 N   0  0  0  0  0  0  0  0  0  0  0  0
   12.4426  -17.4790   25.3803 C   0  0  0  0  0  0  0  0  0  0  0  0
   12.0096  -18.4147   24.6796 O   0  0  0  0  0  0  0  0  0  0  0  0
   13.7322  -17.6304   25.8761 O   0  0  0  0  0  0  0  0  0  0  0  0
  2  1  1  1
  2  3  1  0
  3  4  1  0
  4 12  1  0
  4  5  2  0
  5  6  1  0
  7  6  1  0
  7  8  2  0
  9  8  1  0
 10  9  2  0
 11 10  1  0
 11 12  2  0
 12  7  1  0
 13  2  1  0
 13 14  2  0
 16 17  1  0
 16 15  1  0
 17 18  1  0
 19 18  1  1
 19 20  1  0
 20 13  1  0
 21 19  1  0
 22 21  2  0
 24 26  1  0
 24 23  1  6
 25 24  1  0
 27 28  1  0
 27 26  1  1
 28 21  1  0
 29 27  1  0
 30 29  2  0
 31 29  1  0
M  END
$$$$
