WML.pdb
     RDKit          3D

 31 32  0  0  1  0  0  0  0  0999 V2000
    5.7255  -17.1234   23.6014 N   0  0  0  0  0  0  0  0  0  0  0  0
    7.1637  -17.2177   23.7596 C   0  0  1  0  0  0  0  0  0  0  0  0
    7.7500  -15.9143   24.2815 C   0  0  0  0  0  0  0  0  0  0  0  0
    7.1923  -14.7303   23.6166 C   0  0  0  0  0  0  0  0  0  0  0  0
    6.2363  -13.8746   24.0883 C   0  0  0  0  0  0  0  0  0  0  0  0
    5.9965  -12.9067   23.1753 N   0  0  0  0  0  0  0  0  0  0  0  0
    6.7828  -13.1204   22.1167 C   0  0  0  0  0  0  0  0  0  0  0  0
    6.9200  -12.4170   20.9191 C   0  0  0  0  0  0  0  0  0  0  0  0
    7.8297  -12.8916   20.0064 C   0  0  0  0  0  0  0  0  0  0  0  0
    8.5934  -14.0239   20.2440 C   0  0  0  0  0  0  0  0  0  0  0  0
    8.4529  -14.7126   21.4273 C   0  0  0  0  0  0  0  0  0  0  0  0
    7.5433  -14.2567   22.3653 C   0  0  0  0  0  0  0  0  0  0  0  0
    7.4497  -18.2326   24.8224 C   0  0  0  0  0  0  0  0  0  0  0  0
    6.8787  -19.3275   24.8247 O   0  0  0  0  0  0  0  0  0  0  0  0
   10.9668  -22.7638   25.4348 C   0  0  0  0  0  0  0  0  0  0  0  0
    9.2617  -22.5462   24.8570 S   0  0  0  0  0  0  0  0  0  0  0  0
    8.5175  -21.1071   25.6829 C   0  0  0  0  0  0  0  0  0  0  0  0
    9.6401  -20.1149   25.9256 C   0  0  0  0  0  0  0  0  0  0  0  0
    9.0712  -18.9412   26.6416 C   0  0  2  0  0  0  0  0  0  0  0  0
    8.3774  -17.9892   25.8643 N   0  0  0  0  0  0  0  0  0  0  0  0
   10.0864  -18.2358   27.4807 C   0  0  0  0  0  0  0  0  0  0  0  0
    9.8223  -17.9709   28.6968 O   0  0  0  0  0  0  0  0  0  0  0  0
    9.6330  -14.0614   26.7982 C   0  0  0  0  0  0  0  0  0  0  0  0
   10.1028  -14.9201   27.9636 C   0  0  2  0  0  0  0  0  0  0  0  0
    9.8881  -14.3045   29.2933 C   0  0  0  0  0  0  0  0  0  0  0  0
   11.4220  -15.5300   27.6958 C   0  0  0  0  0  0  0  0  0  0  0  0
   11.5690  -16.4385   26.5361 C   0  0  2  0  0  0  0  0  0  0  0  0
   11.3385  -17.8372   27.0081 N   0  0  0  0  0  0  0  0  0  0  0  0
   12.9015  -16.4533   25.9518 C   0  0  0  0  0  0  0  0  0  0  0  0
   13.6348  -17.4599   26.0060 O   0  0  0  0  0  0  0  0  0  0  0  0
   13.4292  -15.3448   25.3005 O   0  0  0  0  0  0  0  0  0  0  0  0
  2  1  1  1
  2  3  1  0
  3  4  1  0
  4 12  1  0
  4  5  2  0
  5  6  1  0
  7  6  1  0
  7  8  2  0
  9  8  1  0
 10  9  2  0
 11 10  1  0
 11 12  2  0
 12  7  1  0
 13  2  1  0
 13 14  2  0
 16 17  1  0
 16 15  1  0
 17 18  1  0
 19 18  1  6
 19 20  1  0
 20 13  1  0
 21 19  1  0
 22 21  2  0
 24 26  1  0
 24 23  1  6
 25 24  1  0
 27 28  1  0
 27 26  1  1
 28 21  1  0
 29 27  1  0
 30 29  2  0
 31 29  1  0
M  END
$$$$
