WML.pdb
     RDKit          3D

 31 32  0  0  1  0  0  0  0  0999 V2000
    7.6291  -18.2708   22.3539 N   0  0  0  0  0  0  0  0  0  0  0  0
    8.9086  -17.9041   21.7788 C   0  0  1  0  0  0  0  0  0  0  0  0
    8.7498  -17.3951   20.3539 C   0  0  0  0  0  0  0  0  0  0  0  0
    7.7336  -16.3425   20.2330 C   0  0  0  0  0  0  0  0  0  0  0  0
    6.3745  -16.4767   20.2914 C   0  0  0  0  0  0  0  0  0  0  0  0
    5.7873  -15.2687   20.1370 N   0  0  0  0  0  0  0  0  0  0  0  0
    6.7450  -14.3507   19.9791 C   0  0  0  0  0  0  0  0  0  0  0  0
    6.6697  -12.9706   19.7859 C   0  0  0  0  0  0  0  0  0  0  0  0
    7.8517  -12.2839   19.6547 C   0  0  0  0  0  0  0  0  0  0  0  0
    9.0841  -12.9165   19.7088 C   0  0  0  0  0  0  0  0  0  0  0  0
    9.1508  -14.2778   19.8996 C   0  0  0  0  0  0  0  0  0  0  0  0
    7.9750  -14.9950   20.0349 C   0  0  0  0  0  0  0  0  0  0  0  0
    9.4523  -16.7442   22.5538 C   0  0  0  0  0  0  0  0  0  0  0  0
   10.5752  -16.2903   22.3131 O   0  0  0  0  0  0  0  0  0  0  0  0
    6.7106  -11.6513   26.2170 C   0  0  0  0  0  0  0  0  0  0  0  0
    5.9825  -12.4996   24.7890 S   0  0  0  0  0  0  0  0  0  0  0  0
    7.2602  -13.4830   23.9480 C   0  0  0  0  0  0  0  0  0  0  0  0
    8.0137  -14.2354   25.0296 C   0  0  0  0  0  0  0  0  0  0  0  0
    9.1006  -15.0146   24.3773 C   0  0  2  0  0  0  0  0  0  0  0  0
    8.7143  -16.1190   23.5882 N   0  0  0  0  0  0  0  0  0  0  0  0
   10.1502  -15.4534   25.3458 C   0  0  0  0  0  0  0  0  0  0  0  0
   11.2274  -14.7844   25.4513 O   0  0  0  0  0  0  0  0  0  0  0  0
   10.7008  -14.0717   28.3537 C   0  0  0  0  0  0  0  0  0  0  0  0
    9.7357  -15.1843   28.7373 C   0  0  2  0  0  0  0  0  0  0  0  0
    8.9939  -14.9345   29.9944 C   0  0  0  0  0  0  0  0  0  0  0  0
   10.3404  -16.5199   28.5523 C   0  0  0  0  0  0  0  0  0  0  0  0
   11.0023  -16.8347   27.2659 C   0  0  2  0  0  0  0  0  0  0  0  0
   10.0258  -16.5776   26.1647 N   0  0  0  0  0  0  0  0  0  0  0  0
   11.3823  -18.2309   27.1136 C   0  0  0  0  0  0  0  0  0  0  0  0
   12.1906  -18.7830   27.8855 O   0  0  0  0  0  0  0  0  0  0  0  0
   10.8638  -19.0257   26.0981 O   0  0  0  0  0  0  0  0  0  0  0  0
  2  1  1  1
  2  3  1  0
  3  4  1  0
  4 12  1  0
  4  5  2  0
  5  6  1  0
  7  6  1  0
  7  8  2  0
  9  8  1  0
 10  9  2  0
 11 10  1  0
 11 12  2  0
 12  7  1  0
 13  2  1  0
 13 14  2  0
 16 17  1  0
 16 15  1  0
 17 18  1  0
 19 18  1  1
 19 20  1  0
 20 13  1  0
 21 19  1  0
 22 21  2  0
 24 26  1  0
 24 23  1  1
 25 24  1  0
 27 28  1  0
 27 26  1  1
 28 21  1  0
 29 27  1  0
 30 29  2  0
 31 29  1  0
M  END
$$$$
