WCI.pdb
     RDKit          3D

 29 30  0  0  1  0  0  0  0  0999 V2000
    6.1705  -17.3151   24.8149 N   0  0  0  0  0  0  0  0  0  0  0  0
    7.2064  -16.4674   24.3239 C   0  0  1  0  0  0  0  0  0  0  0  0
    7.6891  -15.4201   25.2926 C   0  0  0  0  0  0  0  0  0  0  0  0
    6.7152  -14.3822   25.6195 C   0  0  0  0  0  0  0  0  0  0  0  0
    5.4992  -14.5968   26.2683 C   0  0  0  0  0  0  0  0  0  0  0  0
    4.8471  -13.4390   26.3942 N   0  0  0  0  0  0  0  0  0  0  0  0
    5.5802  -12.4609   25.8552 C   0  0  0  0  0  0  0  0  0  0  0  0
    5.3415  -11.1052   25.7429 C   0  0  0  0  0  0  0  0  0  0  0  0
    6.2990  -10.3263   25.1307 C   0  0  0  0  0  0  0  0  0  0  0  0
    7.4550  -10.8665   24.6448 C   0  0  0  0  0  0  0  0  0  0  0  0
    7.6911  -12.2229   24.7586 C   0  0  0  0  0  0  0  0  0  0  0  0
    6.7583  -13.0315   25.3628 C   0  0  0  0  0  0  0  0  0  0  0  0
    8.3382  -17.2428   23.7562 C   0  0  0  0  0  0  0  0  0  0  0  0
    8.6313  -18.3433   24.2890 O   0  0  0  0  0  0  0  0  0  0  0  0
    9.1096  -16.8123   22.6449 N   0  0  0  0  0  0  0  0  0  0  0  0
   10.5243  -17.0124   22.5846 C   0  0  1  0  0  0  0  0  0  0  0  0
   11.1488  -16.4187   21.3232 C   0  0  0  0  0  0  0  0  0  0  0  0
   12.8977  -16.9002   21.3210 S   0  0  0  0  0  0  0  0  0  0  0  0
   11.2205  -16.4918   23.7983 C   0  0  0  0  0  0  0  0  0  0  0  0
   11.8040  -15.3791   23.7824 O   0  0  0  0  0  0  0  0  0  0  0  0
    9.8208  -14.2456   27.9327 C   0  0  0  0  0  0  0  0  0  0  0  0
   10.7033  -14.7650   26.8177 C   0  0  0  0  0  0  0  0  0  0  0  0
   11.1933  -16.1476   27.2134 C   0  0  2  0  0  0  0  0  0  0  0  0
   12.0335  -16.0061   28.4660 C   0  0  0  0  0  0  0  0  0  0  0  0
   12.0675  -16.7467   26.1322 C   0  0  2  0  0  0  0  0  0  0  0  0
   11.2531  -17.2258   25.0142 N   0  0  0  0  0  0  0  0  0  0  0  0
   12.8463  -17.8505   26.7330 C   0  0  0  0  0  0  0  0  0  0  0  0
   13.8421  -17.6082   27.4465 O   0  0  0  0  0  0  0  0  0  0  0  0
   12.4873  -19.1664   26.5166 O   0  0  0  0  0  0  0  0  0  0  0  0
  2  1  1  1
  2 13  1  0
  3  4  1  0
  3  2  1  0
  4 12  1  0
  5  4  2  0
  5  6  1  0
  6  7  1  0
  7  8  1  0
  8  9  2  0
 10  9  1  0
 11 10  2  0
 12  7  2  0
 12 11  1  0
 13 14  2  0
 15 13  1  0
 15 16  1  0
 16 17  1  6
 17 18  1  0
 19 16  1  0
 19 20  2  0
 21 22  1  0
 23 22  1  0
 23 25  1  0
 23 24  1  1
 25 26  1  6
 26 19  1  0
 27 25  1  0
 28 27  2  0
 29 27  1  0
M  END
$$$$
