WCI.pdb
     RDKit          3D

 29 30  0  0  1  0  0  0  0  0999 V2000
    7.9682  -17.9718   20.7236 N   0  0  0  0  0  0  0  0  0  0  0  0
    8.6279  -17.0472   21.5854 C   0  0  1  0  0  0  0  0  0  0  0  0
    7.8278  -15.8221   21.9421 C   0  0  0  0  0  0  0  0  0  0  0  0
    7.5745  -14.9034   20.8355 C   0  0  0  0  0  0  0  0  0  0  0  0
    6.3333  -14.6912   20.2352 C   0  0  0  0  0  0  0  0  0  0  0  0
    6.4587  -13.8028   19.2470 N   0  0  0  0  0  0  0  0  0  0  0  0
    7.7341  -13.4141   19.1647 C   0  0  0  0  0  0  0  0  0  0  0  0
    8.3565  -12.5190   18.3168 C   0  0  0  0  0  0  0  0  0  0  0  0
    9.7097  -12.3115   18.4723 C   0  0  0  0  0  0  0  0  0  0  0  0
   10.4266  -12.9654   19.4330 C   0  0  0  0  0  0  0  0  0  0  0  0
    9.8013  -13.8602   20.2797 C   0  0  0  0  0  0  0  0  0  0  0  0
    8.4526  -14.0933   20.1540 C   0  0  0  0  0  0  0  0  0  0  0  0
    9.1750  -17.7083   22.7971 C   0  0  0  0  0  0  0  0  0  0  0  0
    8.3839  -18.3547   23.5300 O   0  0  0  0  0  0  0  0  0  0  0  0
   10.5420  -17.6522   23.1762 N   0  0  0  0  0  0  0  0  0  0  0  0
   10.9599  -17.8585   24.5282 C   0  0  1  0  0  0  0  0  0  0  0  0
   12.3576  -18.4672   24.6252 C   0  0  0  0  0  0  0  0  0  0  0  0
   12.7024  -18.7237   26.3875 S   0  0  0  0  0  0  0  0  0  0  0  0
   10.8853  -16.6074   25.3394 C   0  0  0  0  0  0  0  0  0  0  0  0
   11.5149  -15.5755   24.9968 O   0  0  0  0  0  0  0  0  0  0  0  0
    7.4158  -13.2201   26.1675 C   0  0  0  0  0  0  0  0  0  0  0  0
    8.7420  -13.9463   26.0935 C   0  0  0  0  0  0  0  0  0  0  0  0
    9.0287  -14.5391   27.4627 C   0  0  2  0  0  0  0  0  0  0  0  0
    9.2713  -13.3959   28.4266 C   0  0  0  0  0  0  0  0  0  0  0  0
   10.2759  -15.3971   27.4354 C   0  0  2  0  0  0  0  0  0  0  0  0
   10.1052  -16.5299   26.5242 N   0  0  0  0  0  0  0  0  0  0  0  0
   10.5429  -15.8600   28.8138 C   0  0  0  0  0  0  0  0  0  0  0  0
   10.2651  -17.0288   29.1548 O   0  0  0  0  0  0  0  0  0  0  0  0
   11.1033  -15.0102   29.7472 O   0  0  0  0  0  0  0  0  0  0  0  0
  2  1  1  1
  2 13  1  0
  3  4  1  0
  3  2  1  0
  4 12  1  0
  5  4  2  0
  5  6  1  0
  6  7  1  0
  7  8  1  0
  8  9  2  0
 10  9  1  0
 11 10  2  0
 12  7  2  0
 12 11  1  0
 13 14  2  0
 15 13  1  0
 15 16  1  0
 16 17  1  6
 17 18  1  0
 19 16  1  0
 19 20  2  0
 21 22  1  0
 23 22  1  0
 23 25  1  0
 23 24  1  1
 25 26  1  6
 26 19  1  0
 27 25  1  0
 28 27  2  0
 29 27  1  0
M  END
$$$$
