WCI.pdb
     RDKit          3D

 29 30  0  0  1  0  0  0  0  0999 V2000
    6.4005  -17.4352   24.5717 N   0  0  0  0  0  0  0  0  0  0  0  0
    7.5500  -16.6315   24.3158 C   0  0  1  0  0  0  0  0  0  0  0  0
    7.8559  -15.5988   25.3685 C   0  0  0  0  0  0  0  0  0  0  0  0
    6.7582  -14.6873   25.6800 C   0  0  0  0  0  0  0  0  0  0  0  0
    5.6114  -15.0263   26.3982 C   0  0  0  0  0  0  0  0  0  0  0  0
    4.8071  -13.9648   26.4868 N   0  0  0  0  0  0  0  0  0  0  0  0
    5.3722  -12.9314   25.8564 C   0  0  0  0  0  0  0  0  0  0  0  0
    4.9393  -11.6324   25.6758 C   0  0  0  0  0  0  0  0  0  0  0  0
    5.7518  -10.7694   24.9733 C   0  0  0  0  0  0  0  0  0  0  0  0
    6.9528  -11.1740   24.4651 C   0  0  0  0  0  0  0  0  0  0  0  0
    7.3832  -12.4740   24.6472 C   0  0  0  0  0  0  0  0  0  0  0  0
    6.5991  -13.3635   25.3423 C   0  0  0  0  0  0  0  0  0  0  0  0
    8.7454  -17.4539   24.0006 C   0  0  0  0  0  0  0  0  0  0  0  0
    9.1100  -18.3180   24.8379 O   0  0  0  0  0  0  0  0  0  0  0  0
    9.5013  -17.3202   22.8064 N   0  0  0  0  0  0  0  0  0  0  0  0
   10.9197  -17.1385   22.8267 C   0  0  1  0  0  0  0  0  0  0  0  0
   11.4033  -16.1664   21.7522 C   0  0  0  0  0  0  0  0  0  0  0  0
   13.2131  -16.2816   21.7096 S   0  0  0  0  0  0  0  0  0  0  0  0
   11.4151  -16.7114   24.1687 C   0  0  0  0  0  0  0  0  0  0  0  0
   12.0069  -15.6134   24.3207 O   0  0  0  0  0  0  0  0  0  0  0  0
   11.0472  -14.4485   29.1387 C   0  0  0  0  0  0  0  0  0  0  0  0
   11.8849  -15.5299   28.4901 C   0  0  0  0  0  0  0  0  0  0  0  0
   11.1772  -15.9727   27.2206 C   0  0  2  0  0  0  0  0  0  0  0  0
    9.7806  -16.4236   27.5957 C   0  0  0  0  0  0  0  0  0  0  0  0
   11.8886  -17.1459   26.5804 C   0  0  2  0  0  0  0  0  0  0  0  0
   11.2402  -17.5210   25.3228 N   0  0  0  0  0  0  0  0  0  0  0  0
   11.8736  -18.2695   27.5412 C   0  0  0  0  0  0  0  0  0  0  0  0
   12.5266  -18.2035   28.6036 O   0  0  0  0  0  0  0  0  0  0  0  0
   11.1386  -19.4096   27.2819 O   0  0  0  0  0  0  0  0  0  0  0  0
  2  1  1  1
  2 13  1  0
  3  4  1  0
  3  2  1  0
  4 12  1  0
  5  4  2  0
  5  6  1  0
  6  7  1  0
  7  8  1  0
  8  9  2  0
 10  9  1  0
 11 10  2  0
 12  7  2  0
 12 11  1  0
 13 14  2  0
 15 13  1  0
 15 16  1  0
 16 17  1  6
 17 18  1  0
 19 16  1  0
 19 20  2  0
 21 22  1  0
 23 22  1  0
 23 25  1  0
 23 24  1  1
 25 26  1  6
 26 19  1  0
 27 25  1  0
 28 27  2  0
 29 27  1  0
M  END
$$$$
