WCI.pdb
     RDKit          3D

 29 30  0  0  1  0  0  0  0  0999 V2000
    8.4896  -16.9774   20.0355 N   0  0  0  0  0  0  0  0  0  0  0  0
    8.4848  -16.3724   21.3265 C   0  0  1  0  0  0  0  0  0  0  0  0
    7.1530  -15.8303   21.7742 C   0  0  0  0  0  0  0  0  0  0  0  0
    7.1814  -14.4642   22.2897 C   0  0  0  0  0  0  0  0  0  0  0  0
    7.5394  -13.3348   21.5536 C   0  0  0  0  0  0  0  0  0  0  0  0
    7.4734  -12.2523   22.3316 N   0  0  0  0  0  0  0  0  0  0  0  0
    7.0852  -12.6152   23.5574 C   0  0  0  0  0  0  0  0  0  0  0  0
    6.8691  -11.8680   24.6986 C   0  0  0  0  0  0  0  0  0  0  0  0
    6.4598  -12.5266   25.8375 C   0  0  0  0  0  0  0  0  0  0  0  0
    6.2695  -13.8786   25.8510 C   0  0  0  0  0  0  0  0  0  0  0  0
    6.4865  -14.6234   24.7079 C   0  0  0  0  0  0  0  0  0  0  0  0
    6.8959  -14.0009   23.5529 C   0  0  0  0  0  0  0  0  0  0  0  0
    9.0840  -17.2566   22.3580 C   0  0  0  0  0  0  0  0  0  0  0  0
    8.6162  -18.4160   22.4916 O   0  0  0  0  0  0  0  0  0  0  0  0
   10.1562  -16.8674   23.2032 N   0  0  0  0  0  0  0  0  0  0  0  0
   10.6990  -17.7496   24.1893 C   0  0  1  0  0  0  0  0  0  0  0  0
   11.8249  -18.6237   23.6401 C   0  0  0  0  0  0  0  0  0  0  0  0
   13.0440  -17.5084   22.8914 S   0  0  0  0  0  0  0  0  0  0  0  0
   11.1605  -17.0197   25.4072 C   0  0  0  0  0  0  0  0  0  0  0  0
   12.2471  -16.3888   25.4106 O   0  0  0  0  0  0  0  0  0  0  0  0
    9.2704  -13.0218   27.6633 C   0  0  0  0  0  0  0  0  0  0  0  0
   10.1976  -14.1304   27.2129 C   0  0  0  0  0  0  0  0  0  0  0  0
   10.1699  -15.2225   28.2689 C   0  0  2  0  0  0  0  0  0  0  0  0
   10.8157  -14.6756   29.5253 C   0  0  0  0  0  0  0  0  0  0  0  0
   10.9663  -16.4311   27.8248 C   0  0  2  0  0  0  0  0  0  0  0  0
   10.3972  -17.0067   26.6052 N   0  0  0  0  0  0  0  0  0  0  0  0
   10.9597  -17.4141   28.9290 C   0  0  0  0  0  0  0  0  0  0  0  0
   10.0904  -18.3095   28.9752 O   0  0  0  0  0  0  0  0  0  0  0  0
   11.9129  -17.3603   29.9271 O   0  0  0  0  0  0  0  0  0  0  0  0
  2  1  1  6
  2 13  1  0
  3  4  1  0
  3  2  1  0
  4 12  1  0
  5  4  2  0
  5  6  1  0
  6  7  1  0
  7  8  1  0
  8  9  2  0
 10  9  1  0
 11 10  2  0
 12  7  2  0
 12 11  1  0
 13 14  2  0
 15 13  1  0
 15 16  1  0
 16 17  1  6
 17 18  1  0
 19 16  1  0
 19 20  2  0
 21 22  1  0
 23 22  1  0
 23 25  1  0
 23 24  1  1
 25 26  1  6
 26 19  1  0
 27 25  1  0
 28 27  2  0
 29 27  1  0
M  END
$$$$
