WCI.pdb
     RDKit          3D

 29 30  0  0  1  0  0  0  0  0999 V2000
    6.4068  -17.7135   19.7068 N   0  0  0  0  0  0  0  0  0  0  0  0
    7.5758  -17.7399   20.5227 C   0  0  1  0  0  0  0  0  0  0  0  0
    8.7136  -16.8803   20.0385 C   0  0  0  0  0  0  0  0  0  0  0  0
    8.4542  -15.4432   20.0525 C   0  0  0  0  0  0  0  0  0  0  0  0
    8.7377  -14.5651   19.0064 C   0  0  0  0  0  0  0  0  0  0  0  0
    8.3912  -13.3243   19.3553 N   0  0  0  0  0  0  0  0  0  0  0  0
    7.8877  -13.3402   20.5926 C   0  0  0  0  0  0  0  0  0  0  0  0
    7.3930  -12.3218   21.3836 C   0  0  0  0  0  0  0  0  0  0  0  0
    6.9274  -12.6438   22.6398 C   0  0  0  0  0  0  0  0  0  0  0  0
    6.9485  -13.9285   23.1015 C   0  0  0  0  0  0  0  0  0  0  0  0
    7.4439  -14.9451   22.3080 C   0  0  0  0  0  0  0  0  0  0  0  0
    7.9177  -14.6619   21.0493 C   0  0  0  0  0  0  0  0  0  0  0  0
    7.2648  -17.4730   21.9498 C   0  0  0  0  0  0  0  0  0  0  0  0
    6.3642  -16.6369   22.2157 O   0  0  0  0  0  0  0  0  0  0  0  0
    7.9270  -18.1085   23.0329 N   0  0  0  0  0  0  0  0  0  0  0  0
    7.5454  -17.8775   24.3917 C   0  0  1  0  0  0  0  0  0  0  0  0
    7.4711  -19.1660   25.2087 C   0  0  0  0  0  0  0  0  0  0  0  0
    6.8777  -18.7117   26.8615 S   0  0  0  0  0  0  0  0  0  0  0  0
    8.4367  -16.8891   25.0683 C   0  0  0  0  0  0  0  0  0  0  0  0
    9.6612  -16.8279   24.7936 O   0  0  0  0  0  0  0  0  0  0  0  0
    6.6308  -12.0474   26.9520 C   0  0  0  0  0  0  0  0  0  0  0  0
    7.4887  -13.0973   26.2786 C   0  0  0  0  0  0  0  0  0  0  0  0
    8.1502  -13.9289   27.3645 C   0  0  2  0  0  0  0  0  0  0  0  0
    9.1766  -13.0592   28.0608 C   0  0  0  0  0  0  0  0  0  0  0  0
    8.8739  -15.1206   26.7743 C   0  0  2  0  0  0  0  0  0  0  0  0
    7.9429  -15.9821   26.0438 N   0  0  0  0  0  0  0  0  0  0  0  0
    9.5214  -15.8567   27.8810 C   0  0  0  0  0  0  0  0  0  0  0  0
    8.9117  -16.7686   28.4777 O   0  0  0  0  0  0  0  0  0  0  0  0
   10.8094  -15.5499   28.2738 O   0  0  0  0  0  0  0  0  0  0  0  0
  2  1  1  6
  2 13  1  0
  3  4  1  0
  3  2  1  0
  4 12  1  0
  5  4  2  0
  5  6  1  0
  6  7  1  0
  7  8  1  0
  8  9  2  0
 10  9  1  0
 11 10  2  0
 12  7  2  0
 12 11  1  0
 13 14  2  0
 15 13  1  0
 15 16  1  0
 16 17  1  1
 17 18  1  0
 19 16  1  0
 19 20  2  0
 21 22  1  0
 23 22  1  0
 23 25  1  0
 23 24  1  6
 25 26  1  1
 26 19  1  0
 27 25  1  0
 28 27  2  0
 29 27  1  0
M  END
$$$$
