WCI.pdb
     RDKit          3D

 29 30  0  0  1  0  0  0  0  0999 V2000
    7.4910  -17.9318   21.2198 N   0  0  0  0  0  0  0  0  0  0  0  0
    8.4884  -17.1225   21.8388 C   0  0  1  0  0  0  0  0  0  0  0  0
    8.0158  -15.7716   22.3077 C   0  0  0  0  0  0  0  0  0  0  0  0
    7.4872  -14.9020   21.2603 C   0  0  0  0  0  0  0  0  0  0  0  0
    6.1465  -14.8209   20.8836 C   0  0  0  0  0  0  0  0  0  0  0  0
    6.0125  -13.9429   19.8872 N   0  0  0  0  0  0  0  0  0  0  0  0
    7.2106  -13.4351   19.5848 C   0  0  0  0  0  0  0  0  0  0  0  0
    7.5873  -12.5002   18.6406 C   0  0  0  0  0  0  0  0  0  0  0  0
    8.9202  -12.1610   18.5592 C   0  0  0  0  0  0  0  0  0  0  0  0
    9.8521  -12.7252   19.3823 C   0  0  0  0  0  0  0  0  0  0  0  0
    9.4724  -13.6602   20.3258 C   0  0  0  0  0  0  0  0  0  0  0  0
    8.1515  -14.0239   20.4358 C   0  0  0  0  0  0  0  0  0  0  0  0
    9.2052  -17.8495   22.9168 C   0  0  0  0  0  0  0  0  0  0  0  0
    8.5221  -18.4324   23.7968 O   0  0  0  0  0  0  0  0  0  0  0  0
   10.6198  -17.9244   23.0111 N   0  0  0  0  0  0  0  0  0  0  0  0
   11.2830  -18.1428   24.2591 C   0  0  1  0  0  0  0  0  0  0  0  0
   12.7406  -18.5648   24.0843 C   0  0  0  0  0  0  0  0  0  0  0  0
   13.4275  -18.7981   25.7469 S   0  0  0  0  0  0  0  0  0  0  0  0
   11.1947  -16.9561   25.1608 C   0  0  0  0  0  0  0  0  0  0  0  0
   11.6284  -15.8340   24.7980 O   0  0  0  0  0  0  0  0  0  0  0  0
    8.2698  -12.8851   27.5578 C   0  0  0  0  0  0  0  0  0  0  0  0
    9.4215  -13.7753   27.9735 C   0  0  0  0  0  0  0  0  0  0  0  0
    9.4292  -14.9890   27.0595 C   0  0  2  0  0  0  0  0  0  0  0  0
    8.1794  -15.7967   27.3430 C   0  0  0  0  0  0  0  0  0  0  0  0
   10.6269  -15.8728   27.3364 C   0  0  2  0  0  0  0  0  0  0  0  0
   10.6209  -17.0433   26.4574 N   0  0  0  0  0  0  0  0  0  0  0  0
   10.5789  -16.2761   28.7579 C   0  0  0  0  0  0  0  0  0  0  0  0
   10.2737  -17.4446   29.0752 O   0  0  0  0  0  0  0  0  0  0  0  0
   10.8705  -15.3698   29.7584 O   0  0  0  0  0  0  0  0  0  0  0  0
  2  1  1  1
  2 13  1  0
  3  4  1  0
  3  2  1  0
  4 12  1  0
  5  4  2  0
  5  6  1  0
  6  7  1  0
  7  8  1  0
  8  9  2  0
 10  9  1  0
 11 10  2  0
 12  7  2  0
 12 11  1  0
 13 14  2  0
 15 13  1  0
 15 16  1  0
 16 17  1  6
 17 18  1  0
 19 16  1  0
 19 20  2  0
 21 22  1  0
 23 22  1  0
 23 25  1  0
 23 24  1  1
 25 26  1  6
 26 19  1  0
 27 25  1  0
 28 27  2  0
 29 27  1  0
M  END
$$$$
