WCI.pdb
     RDKit          3D

 29 30  0  0  1  0  0  0  0  0999 V2000
    6.4333  -17.6802   25.0984 N   0  0  0  0  0  0  0  0  0  0  0  0
    7.4944  -16.8632   24.6091 C   0  0  1  0  0  0  0  0  0  0  0  0
    7.9355  -15.7629   25.5381 C   0  0  0  0  0  0  0  0  0  0  0  0
    6.9139  -14.7662   25.8474 C   0  0  0  0  0  0  0  0  0  0  0  0
    5.6603  -15.0428   26.3930 C   0  0  0  0  0  0  0  0  0  0  0  0
    4.9710  -13.9084   26.5320 N   0  0  0  0  0  0  0  0  0  0  0  0
    5.7153  -12.8862   26.1009 C   0  0  0  0  0  0  0  0  0  0  0  0
    5.4501  -11.5320   26.0435 C   0  0  0  0  0  0  0  0  0  0  0  0
    6.4287  -10.6998   25.5453 C   0  0  0  0  0  0  0  0  0  0  0  0
    7.6304  -11.1869   25.1174 C   0  0  0  0  0  0  0  0  0  0  0  0
    7.8928  -12.5419   25.1761 C   0  0  0  0  0  0  0  0  0  0  0  0
    6.9403  -13.4029   25.6666 C   0  0  0  0  0  0  0  0  0  0  0  0
    8.6486  -17.6712   24.1405 C   0  0  0  0  0  0  0  0  0  0  0  0
    8.9065  -18.7444   24.7427 O   0  0  0  0  0  0  0  0  0  0  0  0
    9.4787  -17.3011   23.0499 N   0  0  0  0  0  0  0  0  0  0  0  0
   10.8915  -17.5223   23.0671 C   0  0  1  0  0  0  0  0  0  0  0  0
   11.5921  -16.9435   21.8393 C   0  0  0  0  0  0  0  0  0  0  0  0
   13.2966  -17.5638   21.8607 S   0  0  0  0  0  0  0  0  0  0  0  0
   11.5286  -17.0065   24.3149 C   0  0  0  0  0  0  0  0  0  0  0  0
   12.3284  -16.0380   24.2804 O   0  0  0  0  0  0  0  0  0  0  0  0
    9.5261  -14.6484   28.4123 C   0  0  0  0  0  0  0  0  0  0  0  0
    9.9219  -15.9102   27.6754 C   0  0  0  0  0  0  0  0  0  0  0  0
   11.3571  -15.7470   27.2041 C   0  0  2  0  0  0  0  0  0  0  0  0
   11.3529  -14.8287   25.9994 C   0  0  0  0  0  0  0  0  0  0  0  0
   11.9446  -17.0748   26.7749 C   0  0  2  0  0  0  0  0  0  0  0  0
   11.2602  -17.5833   25.5851 N   0  0  0  0  0  0  0  0  0  0  0  0
   11.8160  -18.0187   27.9054 C   0  0  0  0  0  0  0  0  0  0  0  0
   11.0297  -18.9864   27.8368 O   0  0  0  0  0  0  0  0  0  0  0  0
   12.5618  -17.8479   29.0552 O   0  0  0  0  0  0  0  0  0  0  0  0
  2  1  1  1
  2 13  1  0
  3  4  1  0
  3  2  1  0
  4 12  1  0
  5  4  2  0
  5  6  1  0
  6  7  1  0
  7  8  1  0
  8  9  2  0
 10  9  1  0
 11 10  2  0
 12  7  2  0
 12 11  1  0
 13 14  2  0
 15 13  1  0
 15 16  1  0
 16 17  1  6
 17 18  1  0
 19 16  1  0
 19 20  2  0
 21 22  1  0
 23 22  1  0
 23 25  1  0
 23 24  1  6
 25 26  1  6
 26 19  1  0
 27 25  1  0
 28 27  2  0
 29 27  1  0
M  END
$$$$
