WCI.pdb
     RDKit          3D

 29 30  0  0  1  0  0  0  0  0999 V2000
    7.7441  -18.9190   20.2570 N   0  0  0  0  0  0  0  0  0  0  0  0
    7.9367  -17.6859   20.9465 C   0  0  1  0  0  0  0  0  0  0  0  0
    6.8496  -16.6635   20.7449 C   0  0  0  0  0  0  0  0  0  0  0  0
    7.3137  -15.3321   20.3643 C   0  0  0  0  0  0  0  0  0  0  0  0
    7.6682  -14.9435   19.0724 C   0  0  0  0  0  0  0  0  0  0  0  0
    8.0619  -13.6682   19.0794 N   0  0  0  0  0  0  0  0  0  0  0  0
    7.9837  -13.1909   20.3247 C   0  0  0  0  0  0  0  0  0  0  0  0
    8.2738  -11.9416   20.8370 C   0  0  0  0  0  0  0  0  0  0  0  0
    8.0885  -11.7347   22.1865 C   0  0  0  0  0  0  0  0  0  0  0  0
    7.6316  -12.7276   23.0049 C   0  0  0  0  0  0  0  0  0  0  0  0
    7.3423  -13.9763   22.4896 C   0  0  0  0  0  0  0  0  0  0  0  0
    7.5154  -14.2199   21.1481 C   0  0  0  0  0  0  0  0  0  0  0  0
    8.2244  -17.8934   22.3883 C   0  0  0  0  0  0  0  0  0  0  0  0
    7.3393  -18.4338   23.0993 O   0  0  0  0  0  0  0  0  0  0  0  0
    9.4430  -17.5160   23.0111 N   0  0  0  0  0  0  0  0  0  0  0  0
    9.6921  -17.7661   24.3970 C   0  0  1  0  0  0  0  0  0  0  0  0
   10.8332  -18.7568   24.6198 C   0  0  0  0  0  0  0  0  0  0  0  0
   12.2787  -18.1070   23.7372 S   0  0  0  0  0  0  0  0  0  0  0  0
    9.9447  -16.5087   25.1612 C   0  0  0  0  0  0  0  0  0  0  0  0
   10.6414  -15.5839   24.6733 O   0  0  0  0  0  0  0  0  0  0  0  0
    6.4391  -13.2866   27.0684 C   0  0  0  0  0  0  0  0  0  0  0  0
    7.7088  -13.9011   26.5186 C   0  0  0  0  0  0  0  0  0  0  0  0
    8.5491  -14.3707   27.6941 C   0  0  2  0  0  0  0  0  0  0  0  0
    9.0047  -13.1474   28.4627 C   0  0  0  0  0  0  0  0  0  0  0  0
    9.7833  -15.1095   27.2216 C   0  0  2  0  0  0  0  0  0  0  0  0
    9.4125  -16.3048   26.4624 N   0  0  0  0  0  0  0  0  0  0  0  0
   10.5874  -15.4640   28.4106 C   0  0  0  0  0  0  0  0  0  0  0  0
   11.1829  -14.5789   29.0597 O   0  0  0  0  0  0  0  0  0  0  0  0
   10.6938  -16.7774   28.8241 O   0  0  0  0  0  0  0  0  0  0  0  0
  2  1  1  1
  2 13  1  0
  3  4  1  0
  3  2  1  0
  4 12  1  0
  5  4  2  0
  5  6  1  0
  6  7  1  0
  7  8  1  0
  8  9  2  0
 10  9  1  0
 11 10  2  0
 12  7  2  0
 12 11  1  0
 13 14  2  0
 15 13  1  0
 15 16  1  0
 16 17  1  6
 17 18  1  0
 19 16  1  0
 19 20  2  0
 21 22  1  0
 23 22  1  0
 23 25  1  0
 23 24  1  6
 25 26  1  1
 26 19  1  0
 27 25  1  0
 28 27  2  0
 29 27  1  0
M  END
$$$$
