WCI.pdb
     RDKit          3D

 29 30  0  0  1  0  0  0  0  0999 V2000
    6.1691  -17.3239   24.3931 N   0  0  0  0  0  0  0  0  0  0  0  0
    7.3733  -16.5749   24.2451 C   0  0  1  0  0  0  0  0  0  0  0  0
    7.7107  -15.6709   25.4014 C   0  0  0  0  0  0  0  0  0  0  0  0
    6.6807  -14.6946   25.7460 C   0  0  0  0  0  0  0  0  0  0  0  0
    5.4033  -15.0049   26.2128 C   0  0  0  0  0  0  0  0  0  0  0  0
    4.7133  -13.8802   26.4134 N   0  0  0  0  0  0  0  0  0  0  0  0
    5.4799  -12.8322   26.0991 C   0  0  0  0  0  0  0  0  0  0  0  0
    5.2231  -11.4758   26.1402 C   0  0  0  0  0  0  0  0  0  0  0  0
    6.2259  -10.6136   25.7538 C   0  0  0  0  0  0  0  0  0  0  0  0
    7.4431  -11.0736   25.3402 C   0  0  0  0  0  0  0  0  0  0  0  0
    7.6971  -12.4309   25.3001 C   0  0  0  0  0  0  0  0  0  0  0  0
    6.7206  -13.3214   25.6776 C   0  0  0  0  0  0  0  0  0  0  0  0
    8.5245  -17.4382   23.8788 C   0  0  0  0  0  0  0  0  0  0  0  0
    8.5470  -18.6165   24.3170 O   0  0  0  0  0  0  0  0  0  0  0  0
    9.6027  -17.0089   23.0612 N   0  0  0  0  0  0  0  0  0  0  0  0
   10.9343  -17.4951   23.2505 C   0  0  1  0  0  0  0  0  0  0  0  0
   11.8547  -17.1600   22.0784 C   0  0  0  0  0  0  0  0  0  0  0  0
   11.3073  -15.5629   21.4150 S   0  0  0  0  0  0  0  0  0  0  0  0
   11.5341  -17.0147   24.5305 C   0  0  0  0  0  0  0  0  0  0  0  0
   12.3112  -16.0275   24.5506 O   0  0  0  0  0  0  0  0  0  0  0  0
   11.1718  -13.4299   27.2848 C   0  0  0  0  0  0  0  0  0  0  0  0
   11.8108  -14.6786   26.7154 C   0  0  0  0  0  0  0  0  0  0  0  0
   11.2485  -15.8755   27.4634 C   0  0  2  0  0  0  0  0  0  0  0  0
   11.5688  -15.7017   28.9337 C   0  0  0  0  0  0  0  0  0  0  0  0
   11.8934  -17.1631   26.9958 C   0  0  2  0  0  0  0  0  0  0  0  0
   11.2544  -17.6474   25.7713 N   0  0  0  0  0  0  0  0  0  0  0  0
   11.7748  -18.1558   28.0850 C   0  0  0  0  0  0  0  0  0  0  0  0
   10.8744  -19.0207   28.0588 O   0  0  0  0  0  0  0  0  0  0  0  0
   12.6558  -18.1447   29.1485 O   0  0  0  0  0  0  0  0  0  0  0  0
  2  1  1  1
  2 13  1  0
  3  4  1  0
  3  2  1  0
  4 12  1  0
  5  4  2  0
  5  6  1  0
  6  7  1  0
  7  8  1  0
  8  9  2  0
 10  9  1  0
 11 10  2  0
 12  7  2  0
 12 11  1  0
 13 14  2  0
 15 13  1  0
 15 16  1  0
 16 17  1  6
 17 18  1  0
 19 16  1  0
 19 20  2  0
 21 22  1  0
 23 22  1  0
 23 25  1  0
 23 24  1  1
 25 26  1  6
 26 19  1  0
 27 25  1  0
 28 27  2  0
 29 27  1  0
M  END
$$$$
