WCI.pdb
     RDKit          3D

 29 30  0  0  1  0  0  0  0  0999 V2000
    6.1788  -19.0136   20.7542 N   0  0  0  0  0  0  0  0  0  0  0  0
    6.6268  -17.8094   21.3724 C   0  0  1  0  0  0  0  0  0  0  0  0
    5.8649  -16.5695   20.9848 C   0  0  0  0  0  0  0  0  0  0  0  0
    6.5805  -15.6533   20.1008 C   0  0  0  0  0  0  0  0  0  0  0  0
    6.8519  -15.8852   18.7524 C   0  0  0  0  0  0  0  0  0  0  0  0
    7.5350  -14.8553   18.2484 N   0  0  0  0  0  0  0  0  0  0  0  0
    7.7297  -13.9457   19.2072 C   0  0  0  0  0  0  0  0  0  0  0  0
    8.3704  -12.7225   19.1803 C   0  0  0  0  0  0  0  0  0  0  0  0
    8.4107  -11.9855   20.3437 C   0  0  0  0  0  0  0  0  0  0  0  0
    7.8376  -12.4395   21.4968 C   0  0  0  0  0  0  0  0  0  0  0  0
    7.1974  -13.6635   21.5207 C   0  0  0  0  0  0  0  0  0  0  0  0
    7.1376  -14.4270   20.3794 C   0  0  0  0  0  0  0  0  0  0  0  0
    6.7266  -17.9446   22.8476 C   0  0  0  0  0  0  0  0  0  0  0  0
    5.6629  -17.9442   23.5180 O   0  0  0  0  0  0  0  0  0  0  0  0
    7.9560  -18.0745   23.5457 N   0  0  0  0  0  0  0  0  0  0  0  0
    8.0305  -17.9697   24.9700 C   0  0  1  0  0  0  0  0  0  0  0  0
    8.6581  -19.2023   25.6182 C   0  0  0  0  0  0  0  0  0  0  0  0
    8.7538  -18.8731   27.3995 S   0  0  0  0  0  0  0  0  0  0  0  0
    8.7470  -16.7355   25.4086 C   0  0  0  0  0  0  0  0  0  0  0  0
    9.8069  -16.3671   24.8433 O   0  0  0  0  0  0  0  0  0  0  0  0
    6.1008  -12.3025   26.7184 C   0  0  0  0  0  0  0  0  0  0  0  0
    7.1625  -13.2279   26.1632 C   0  0  0  0  0  0  0  0  0  0  0  0
    8.0752  -13.6340   27.3079 C   0  0  2  0  0  0  0  0  0  0  0  0
    8.9142  -12.4312   27.6874 C   0  0  0  0  0  0  0  0  0  0  0  0
    9.0160  -14.7435   26.8881 C   0  0  2  0  0  0  0  0  0  0  0  0
    8.2654  -15.9305   26.4754 N   0  0  0  0  0  0  0  0  0  0  0  0
    9.9036  -15.0474   28.0307 C   0  0  0  0  0  0  0  0  0  0  0  0
    9.6817  -16.0364   28.7601 O   0  0  0  0  0  0  0  0  0  0  0  0
   10.9920  -14.2448   28.3114 O   0  0  0  0  0  0  0  0  0  0  0  0
  2  1  1  1
  2 13  1  0
  3  4  1  0
  3  2  1  0
  4 12  1  0
  5  4  2  0
  5  6  1  0
  6  7  1  0
  7  8  1  0
  8  9  2  0
 10  9  1  0
 11 10  2  0
 12  7  2  0
 12 11  1  0
 13 14  2  0
 15 13  1  0
 15 16  1  0
 16 17  1  6
 17 18  1  0
 19 16  1  0
 19 20  2  0
 21 22  1  0
 23 22  1  0
 23 25  1  0
 23 24  1  6
 25 26  1  1
 26 19  1  0
 27 25  1  0
 28 27  2  0
 29 27  1  0
M  END
$$$$
