WCI.pdb
     RDKit          3D

 29 30  0  0  1  0  0  0  0  0999 V2000
    6.9001  -17.4766   23.8559 N   0  0  0  0  0  0  0  0  0  0  0  0
    7.9784  -16.5442   23.8843 C   0  0  1  0  0  0  0  0  0  0  0  0
    8.1592  -15.8145   25.1892 C   0  0  0  0  0  0  0  0  0  0  0  0
    7.0689  -14.9129   25.5514 C   0  0  0  0  0  0  0  0  0  0  0  0
    5.9065  -15.2875   26.2255 C   0  0  0  0  0  0  0  0  0  0  0  0
    5.1151  -14.2240   26.3807 N   0  0  0  0  0  0  0  0  0  0  0  0
    5.7037  -13.1550   25.8370 C   0  0  0  0  0  0  0  0  0  0  0  0
    5.2910  -11.8401   25.7470 C   0  0  0  0  0  0  0  0  0  0  0  0
    6.1259  -10.9394   25.1225 C   0  0  0  0  0  0  0  0  0  0  0  0
    7.3292  -11.3225   24.6034 C   0  0  0  0  0  0  0  0  0  0  0  0
    7.7394  -12.6385   24.6948 C   0  0  0  0  0  0  0  0  0  0  0  0
    6.9327  -13.5656   25.3105 C   0  0  0  0  0  0  0  0  0  0  0  0
    9.2521  -17.1520   23.4228 C   0  0  0  0  0  0  0  0  0  0  0  0
    9.4054  -18.3917   23.5658 O   0  0  0  0  0  0  0  0  0  0  0  0
   10.3083  -16.4125   22.8285 N   0  0  0  0  0  0  0  0  0  0  0  0
   11.6756  -16.8112   22.9584 C   0  0  1  0  0  0  0  0  0  0  0  0
   12.5792  -16.1617   21.9119 C   0  0  0  0  0  0  0  0  0  0  0  0
   11.8775  -16.5583   20.2868 S   0  0  0  0  0  0  0  0  0  0  0  0
   12.2099  -16.5578   24.3292 C   0  0  0  0  0  0  0  0  0  0  0  0
   12.9562  -15.5739   24.5612 O   0  0  0  0  0  0  0  0  0  0  0  0
   10.1233  -14.2975   28.7648 C   0  0  0  0  0  0  0  0  0  0  0  0
   11.1624  -15.3750   28.5394 C   0  0  0  0  0  0  0  0  0  0  0  0
   11.0698  -15.8193   27.0895 C   0  0  2  0  0  0  0  0  0  0  0  0
    9.6772  -16.3677   26.8556 C   0  0  0  0  0  0  0  0  0  0  0  0
   12.0609  -16.9250   26.7934 C   0  0  2  0  0  0  0  0  0  0  0  0
   11.9001  -17.4109   25.4220 N   0  0  0  0  0  0  0  0  0  0  0  0
   11.8394  -18.0116   27.7711 C   0  0  0  0  0  0  0  0  0  0  0  0
   12.1194  -17.8461   28.9768 O   0  0  0  0  0  0  0  0  0  0  0  0
   11.3196  -19.2266   27.3697 O   0  0  0  0  0  0  0  0  0  0  0  0
  2  1  1  1
  2 13  1  0
  3  4  1  0
  3  2  1  0
  4 12  1  0
  5  4  2  0
  5  6  1  0
  6  7  1  0
  7  8  1  0
  8  9  2  0
 10  9  1  0
 11 10  2  0
 12  7  2  0
 12 11  1  0
 13 14  2  0
 15 13  1  0
 15 16  1  0
 16 17  1  6
 17 18  1  0
 19 16  1  0
 19 20  2  0
 21 22  1  0
 23 22  1  0
 23 25  1  0
 23 24  1  1
 25 26  1  6
 26 19  1  0
 27 25  1  0
 28 27  2  0
 29 27  1  0
M  END
$$$$
