GQG.pdb
     RDKit          3D

 18 17  0  0  1  0  0  0  0  0999 V2000
   28.5539  -23.7115  -16.7233 N   0  0  0  0  0  0  0  0  0  0  0  0
   27.8084  -22.4738  -16.7230 C   0  0  0  0  0  0  0  0  0  0  0  0
   26.7268  -22.4594  -15.7302 C   0  0  0  0  0  0  0  0  0  0  0  0
   26.1222  -23.5121  -15.3440 O   0  0  0  0  0  0  0  0  0  0  0  0
   25.9102  -22.3623  -11.0373 N   0  0  0  0  0  0  0  0  0  0  0  0
   24.9029  -21.3824  -10.9073 C   0  0  0  0  0  0  0  0  0  0  0  0
   24.0410  -21.4764   -9.9711 O   0  0  0  0  0  0  0  0  0  0  0  0
   24.8313  -20.2466  -11.8302 C   0  0  0  0  0  0  0  0  0  0  0  0
   25.7068  -20.2940  -13.0200 C   0  0  0  0  0  0  0  0  0  0  0  0
   25.2494  -21.0698  -14.1920 C   0  0  2  0  0  0  0  0  0  0  0  0
   26.3349  -21.2191  -15.1740 N   0  0  0  0  0  0  0  0  0  0  0  0
   24.0326  -20.7229  -14.8829 C   0  0  0  0  0  0  0  0  0  0  0  0
   23.8789  -19.7339  -15.6694 O   0  0  0  0  0  0  0  0  0  0  0  0
   22.8570  -21.5417  -14.6967 N   0  0  0  0  0  0  0  0  0  0  0  0
   21.6167  -21.2034  -15.3960 C   0  0  0  0  0  0  0  0  0  0  0  0
   20.7342  -20.4708  -14.4717 C   0  0  0  0  0  0  0  0  0  0  0  0
   21.1502  -20.1818  -13.3156 O   0  0  0  0  0  0  0  0  0  0  0  0
   19.4553  -20.0745  -14.8013 O   0  0  0  0  0  0  0  0  0  0  0  0
  1  2  1  0
  3  2  1  0
  3  4  2  0
  5  6  1  0
  6  8  1  0
  7  6  2  0
  9  8  1  0
 10  9  1  1
 10 11  1  0
 11  3  1  0
 12 10  1  0
 12 13  2  0
 14 12  1  0
 15 14  1  0
 15 16  1  0
 16 17  2  0
 16 18  1  0
M  END
$$$$
