GQG.pdb
     RDKit          3D

 18 17  0  0  1  0  0  0  0  0999 V2000
   28.3311  -21.7755  -16.0123 N   0  0  0  0  0  0  0  0  0  0  0  0
   27.5012  -20.7830  -15.3689 C   0  0  0  0  0  0  0  0  0  0  0  0
   26.3266  -21.3638  -14.7066 C   0  0  0  0  0  0  0  0  0  0  0  0
   25.8774  -22.5246  -14.9780 O   0  0  0  0  0  0  0  0  0  0  0  0
   25.2220  -20.7803   -8.6672 N   0  0  0  0  0  0  0  0  0  0  0  0
   26.3142  -21.0213   -9.5277 C   0  0  0  0  0  0  0  0  0  0  0  0
   27.4853  -21.1694   -9.0432 O   0  0  0  0  0  0  0  0  0  0  0  0
   26.1267  -21.1119  -10.9781 C   0  0  0  0  0  0  0  0  0  0  0  0
   24.7543  -20.9137  -11.4898 C   0  0  0  0  0  0  0  0  0  0  0  0
   24.5164  -21.0963  -12.9371 C   0  0  2  0  0  0  0  0  0  0  0  0
   25.6596  -20.6008  -13.7197 N   0  0  0  0  0  0  0  0  0  0  0  0
   23.2929  -20.6442  -13.5511 C   0  0  0  0  0  0  0  0  0  0  0  0
   22.9565  -19.4305  -13.7354 O   0  0  0  0  0  0  0  0  0  0  0  0
   22.3329  -21.6195  -14.0139 N   0  0  0  0  0  0  0  0  0  0  0  0
   21.1189  -21.1762  -14.7007 C   0  0  0  0  0  0  0  0  0  0  0  0
   19.9984  -21.1940  -13.7447 C   0  0  0  0  0  0  0  0  0  0  0  0
   20.2041  -21.5624  -12.5551 O   0  0  0  0  0  0  0  0  0  0  0  0
   18.7127  -20.8245  -14.0793 O   0  0  0  0  0  0  0  0  0  0  0  0
  1  2  1  0
  3  2  1  0
  3  4  2  0
  5  6  1  0
  6  8  1  0
  7  6  2  0
  9  8  1  0
 10  9  1  1
 10 11  1  0
 11  3  1  0
 12 10  1  0
 12 13  2  0
 14 12  1  0
 15 14  1  0
 15 16  1  0
 16 17  2  0
 16 18  1  0
M  END
$$$$
