GQG.pdb
     RDKit          3D

 18 17  0  0  1  0  0  0  0  0999 V2000
   16.9938  -11.3953  -14.8611 N   0  0  0  0  0  0  0  0  0  0  0  0
   17.2680  -10.1309  -15.5045 C   0  0  0  0  0  0  0  0  0  0  0  0
   18.7041   -9.8453  -15.6125 C   0  0  0  0  0  0  0  0  0  0  0  0
   19.5977  -10.5369  -15.0244 O   0  0  0  0  0  0  0  0  0  0  0  0
   23.4675   -9.9710  -17.9360 N   0  0  0  0  0  0  0  0  0  0  0  0
   22.3426  -10.7173  -18.3474 C   0  0  0  0  0  0  0  0  0  0  0  0
   22.4671  -11.9577  -18.6196 O   0  0  0  0  0  0  0  0  0  0  0  0
   21.0227  -10.0915  -18.4626 C   0  0  0  0  0  0  0  0  0  0  0  0
   20.9117   -8.6794  -18.0407 C   0  0  0  0  0  0  0  0  0  0  0  0
   20.5276   -8.3977  -16.6416 C   0  0  2  0  0  0  0  0  0  0  0  0
   19.1186   -8.7505  -16.4068 N   0  0  0  0  0  0  0  0  0  0  0  0
   20.7993   -7.1156  -16.0410 C   0  0  0  0  0  0  0  0  0  0  0  0
   20.0010   -6.1247  -16.0079 O   0  0  0  0  0  0  0  0  0  0  0  0
   22.0783   -6.8889  -15.4086 N   0  0  0  0  0  0  0  0  0  0  0  0
   22.3497   -5.6080  -14.7548 C   0  0  0  0  0  0  0  0  0  0  0  0
   22.1843   -5.7719  -13.3003 C   0  0  0  0  0  0  0  0  0  0  0  0
   21.5680   -6.7800  -12.8562 O   0  0  0  0  0  0  0  0  0  0  0  0
   22.6725   -4.8715  -12.3772 O   0  0  0  0  0  0  0  0  0  0  0  0
  1  2  1  0
  3  2  1  0
  3  4  2  0
  5  6  1  0
  6  8  1  0
  7  6  2  0
  9  8  1  0
 10  9  1  6
 10 11  1  0
 11  3  1  0
 12 10  1  0
 12 13  2  0
 14 12  1  0
 15 14  1  0
 15 16  1  0
 16 17  2  0
 16 18  1  0
M  END
$$$$
