GQG.pdb
     RDKit          3D

 18 17  0  0  1  0  0  0  0  0999 V2000
   24.6084   -8.0520  -20.1433 N   0  0  0  0  0  0  0  0  0  0  0  0
   24.4527   -8.7676  -18.8978 C   0  0  0  0  0  0  0  0  0  0  0  0
   23.0966   -8.6625  -18.3449 C   0  0  0  0  0  0  0  0  0  0  0  0
   22.0449   -8.7641  -19.0565 O   0  0  0  0  0  0  0  0  0  0  0  0
   19.0799  -10.4625  -16.4913 N   0  0  0  0  0  0  0  0  0  0  0  0
   18.9654   -9.8773  -15.2123 C   0  0  0  0  0  0  0  0  0  0  0  0
   17.8386   -9.8719  -14.6138 O   0  0  0  0  0  0  0  0  0  0  0  0
   20.1266   -9.2766  -14.5504 C   0  0  0  0  0  0  0  0  0  0  0  0
   21.4053   -9.2981  -15.2913 C   0  0  0  0  0  0  0  0  0  0  0  0
   21.6477   -8.2406  -16.2949 C   0  0  2  0  0  0  0  0  0  0  0  0
   22.9472   -8.4377  -16.9563 N   0  0  0  0  0  0  0  0  0  0  0  0
   21.4972   -6.8474  -15.9565 C   0  0  0  0  0  0  0  0  0  0  0  0
   20.3959   -6.2515  -15.7275 O   0  0  0  0  0  0  0  0  0  0  0  0
   22.6730   -6.0139  -15.8570 N   0  0  0  0  0  0  0  0  0  0  0  0
   22.5349   -4.6003  -15.5041 C   0  0  0  0  0  0  0  0  0  0  0  0
   22.3626   -4.4888  -14.0455 C   0  0  0  0  0  0  0  0  0  0  0  0
   22.3177   -5.5376  -13.3446 O   0  0  0  0  0  0  0  0  0  0  0  0
   22.2453   -3.2827  -13.3876 O   0  0  0  0  0  0  0  0  0  0  0  0
  1  2  1  0
  3  2  1  0
  3  4  2  0
  5  6  1  0
  6  8  1  0
  7  6  2  0
  9  8  1  0
 10  9  1  1
 10 11  1  0
 11  3  1  0
 12 10  1  0
 12 13  2  0
 14 12  1  0
 15 14  1  0
 15 16  1  0
 16 17  2  0
 16 18  1  0
M  END
$$$$
