GQG.pdb
     RDKit          3D

 18 17  0  0  1  0  0  0  0  0999 V2000
   14.9214  -13.0330  -13.9993 N   0  0  0  0  0  0  0  0  0  0  0  0
   15.2153  -11.8861  -14.8276 C   0  0  0  0  0  0  0  0  0  0  0  0
   16.6089  -11.4392  -14.7097 C   0  0  0  0  0  0  0  0  0  0  0  0
   17.2355  -11.3984  -13.6013 O   0  0  0  0  0  0  0  0  0  0  0  0
   20.0138  -13.2851  -18.7569 N   0  0  0  0  0  0  0  0  0  0  0  0
   19.6844  -13.7755  -17.4753 C   0  0  0  0  0  0  0  0  0  0  0  0
   19.5531  -15.0310  -17.2890 O   0  0  0  0  0  0  0  0  0  0  0  0
   19.4951  -12.8637  -16.3440 C   0  0  0  0  0  0  0  0  0  0  0  0
   19.5673  -11.4157  -16.6313 C   0  0  0  0  0  0  0  0  0  0  0  0
   18.6665  -10.5111  -15.8863 C   0  0  2  0  0  0  0  0  0  0  0  0
   17.2911  -11.0338  -15.8807 N   0  0  0  0  0  0  0  0  0  0  0  0
   18.6330   -9.0981  -16.1698 C   0  0  0  0  0  0  0  0  0  0  0  0
   17.9132   -8.5330  -17.0545 O   0  0  0  0  0  0  0  0  0  0  0  0
   19.4744   -8.2049  -15.4073 N   0  0  0  0  0  0  0  0  0  0  0  0
   19.3976   -6.7612  -15.6353 C   0  0  0  0  0  0  0  0  0  0  0  0
   20.3204   -6.0836  -14.7085 C   0  0  0  0  0  0  0  0  0  0  0  0
   20.9716   -6.7679  -13.8713 O   0  0  0  0  0  0  0  0  0  0  0  0
   20.5186   -4.7191  -14.7013 O   0  0  0  0  0  0  0  0  0  0  0  0
  1  2  1  0
  3  2  1  0
  3  4  2  0
  5  6  1  0
  6  8  1  0
  7  6  2  0
  9  8  1  0
 10  9  1  6
 10 11  1  0
 11  3  1  0
 12 10  1  0
 12 13  2  0
 14 12  1  0
 15 14  1  0
 15 16  1  0
 16 17  2  0
 16 18  1  0
M  END
$$$$
