GQG.pdb
     RDKit          3D

 18 17  0  0  1  0  0  0  0  0999 V2000
   26.5020  -24.6790  -16.2735 N   0  0  0  0  0  0  0  0  0  0  0  0
   26.3090  -23.2536  -16.1369 C   0  0  0  0  0  0  0  0  0  0  0  0
   25.5583  -22.8927  -14.9279 C   0  0  0  0  0  0  0  0  0  0  0  0
   24.8427  -23.7230  -14.2789 O   0  0  0  0  0  0  0  0  0  0  0  0
   26.4662  -22.0051  -10.0774 N   0  0  0  0  0  0  0  0  0  0  0  0
   25.6488  -20.8611   -9.9571 C   0  0  0  0  0  0  0  0  0  0  0  0
   24.9889  -20.6607   -8.8835 O   0  0  0  0  0  0  0  0  0  0  0  0
   25.5474  -19.8878  -11.0478 C   0  0  0  0  0  0  0  0  0  0  0  0
   25.9729  -20.3385  -12.3895 C   0  0  0  0  0  0  0  0  0  0  0  0
   25.0056  -21.0979  -13.2094 C   0  0  2  0  0  0  0  0  0  0  0  0
   25.6309  -21.5602  -14.4585 N   0  0  0  0  0  0  0  0  0  0  0  0
   23.7009  -20.5610  -13.5056 C   0  0  0  0  0  0  0  0  0  0  0  0
   22.8261  -20.2146  -12.6482 O   0  0  0  0  0  0  0  0  0  0  0  0
   23.3072  -20.3824  -14.8840 N   0  0  0  0  0  0  0  0  0  0  0  0
   22.0027  -19.7979  -15.1981 C   0  0  0  0  0  0  0  0  0  0  0  0
   21.8730  -19.6826  -16.6609 C   0  0  0  0  0  0  0  0  0  0  0  0
   20.8718  -19.0894  -17.1496 O   0  0  0  0  0  0  0  0  0  0  0  0
   22.7989  -20.1946  -17.5451 O   0  0  0  0  0  0  0  0  0  0  0  0
  1  2  1  0
  3  2  1  0
  3  4  2  0
  5  6  1  0
  6  8  1  0
  7  6  2  0
  9  8  1  0
 10  9  1  6
 10 11  1  0
 11  3  1  0
 12 10  1  0
 12 13  2  0
 14 12  1  0
 15 14  1  0
 15 16  1  0
 16 17  2  0
 16 18  1  0
M  END
$$$$
