GQG.pdb
     RDKit          3D

 18 17  0  0  1  0  0  0  0  0999 V2000
   28.4303  -23.0851  -16.7016 N   0  0  0  0  0  0  0  0  0  0  0  0
   28.6637  -21.8070  -16.0694 C   0  0  0  0  0  0  0  0  0  0  0  0
   27.5121  -21.3377  -15.2888 C   0  0  0  0  0  0  0  0  0  0  0  0
   26.3851  -21.9315  -15.2850 O   0  0  0  0  0  0  0  0  0  0  0  0
   25.1228  -22.7417  -12.1045 N   0  0  0  0  0  0  0  0  0  0  0  0
   25.3575  -21.4629  -11.5557 C   0  0  0  0  0  0  0  0  0  0  0  0
   24.3847  -20.7842  -11.0854 O   0  0  0  0  0  0  0  0  0  0  0  0
   26.7087  -20.8978  -11.5095 C   0  0  0  0  0  0  0  0  0  0  0  0
   26.9333  -19.6376  -12.2484 C   0  0  0  0  0  0  0  0  0  0  0  0
   26.5788  -19.5974  -13.6827 C   0  0  2  0  0  0  0  0  0  0  0  0
   27.6576  -20.1708  -14.5025 N   0  0  0  0  0  0  0  0  0  0  0  0
   26.1146  -18.3795  -14.2988 C   0  0  0  0  0  0  0  0  0  0  0  0
   25.1083  -17.6939  -13.9277 O   0  0  0  0  0  0  0  0  0  0  0  0
   26.8229  -17.8521  -15.4421 N   0  0  0  0  0  0  0  0  0  0  0  0
   26.3657  -16.6133  -16.0732 C   0  0  0  0  0  0  0  0  0  0  0  0
   25.5572  -16.9528  -17.2568 C   0  0  0  0  0  0  0  0  0  0  0  0
   25.1162  -18.1279  -17.3900 O   0  0  0  0  0  0  0  0  0  0  0  0
   25.2477  -16.0448  -18.2472 O   0  0  0  0  0  0  0  0  0  0  0  0
  1  2  1  0
  3  2  1  0
  3  4  2  0
  5  6  1  0
  6  8  1  0
  7  6  2  0
  9  8  1  0
 10  9  1  1
 10 11  1  0
 11  3  1  0
 12 10  1  0
 12 13  2  0
 14 12  1  0
 15 14  1  0
 15 16  1  0
 16 17  2  0
 16 18  1  0
M  END
$$$$
