AAD.pdb
     RDKit          3D

 19 18  0  0  1  0  0  0  0  0999 V2000
    7.3519  -14.9748   18.8454 C   0  0  0  0  0  0  0  0  0  0  0  0
    7.6135  -13.6279   19.4392 C   0  0  2  0  0  0  0  0  0  0  0  0
    8.3159  -12.7879   18.5226 N   0  0  0  0  0  0  0  0  0  0  0  0
    8.2392  -13.7030   20.7849 C   0  0  0  0  0  0  0  0  0  0  0  0
    9.4988  -13.6860   20.8303 O   0  0  0  0  0  0  0  0  0  0  0  0
    7.1913  -13.9204   24.4291 C   0  0  0  0  0  0  0  0  0  0  0  0
    8.1872  -13.9779   23.2736 C   0  0  2  0  0  0  0  0  0  0  0  0
    7.5358  -13.7911   22.0029 N   0  0  0  0  0  0  0  0  0  0  0  0
    8.8513  -15.3081   23.3700 C   0  0  0  0  0  0  0  0  0  0  0  0
    8.3322  -16.2668   22.7583 O   0  0  0  0  0  0  0  0  0  0  0  0
   10.0320  -15.5210   24.1185 N   0  0  0  0  0  0  0  0  0  0  0  0
   10.7637  -16.7869   24.1470 C   0  0  1  0  0  0  0  0  0  0  0  0
   12.2342  -16.5677   24.0501 C   0  0  0  0  0  0  0  0  0  0  0  0
   13.0565  -17.7802   24.0851 C   0  0  0  0  0  0  0  0  0  0  0  0
   13.2675  -18.4839   25.0920 O   0  0  0  0  0  0  0  0  0  0  0  0
   10.4493  -17.3780   25.4821 C   0  0  0  0  0  0  0  0  0  0  0  0
    9.9879  -16.6830   26.4029 O   0  0  0  0  0  0  0  0  0  0  0  0
   13.6746  -18.2151   22.9002 O   0  0  0  0  0  0  0  0  0  0  0  0
   10.6519  -18.7278   25.7714 O   0  0  0  0  0  0  0  0  0  0  0  0
  2  1  1  6
  2  4  1  0
  2  3  1  0
  4  5  2  0
  7  6  1  1
  7  9  1  0
  8  4  1  0
  8  7  1  0
  9 10  2  0
 11 12  1  0
 11  9  1  0
 12 16  1  0
 12 13  1  1
 14 15  2  0
 14 13  1  0
 16 17  2  0
 16 19  1  0
 18 14  1  0
M  END
$$$$
