AAD.pdb
     RDKit          3D

 19 18  0  0  1  0  0  0  0  0999 V2000
    6.6187  -17.7162   21.8891 C   0  0  0  0  0  0  0  0  0  0  0  0
    6.3651  -16.3574   21.3194 C   0  0  2  0  0  0  0  0  0  0  0  0
    6.5341  -16.3531   19.9014 N   0  0  0  0  0  0  0  0  0  0  0  0
    7.1253  -15.2886   22.0177 C   0  0  0  0  0  0  0  0  0  0  0  0
    8.2593  -14.9968   21.5509 O   0  0  0  0  0  0  0  0  0  0  0  0
    6.6722  -12.8167   24.8557 C   0  0  0  0  0  0  0  0  0  0  0  0
    7.4923  -13.6253   23.8537 C   0  0  2  0  0  0  0  0  0  0  0  0
    6.6771  -14.5834   23.1526 N   0  0  0  0  0  0  0  0  0  0  0  0
    8.5720  -14.2824   24.6424 C   0  0  0  0  0  0  0  0  0  0  0  0
    9.2968  -13.5581   25.3586 O   0  0  0  0  0  0  0  0  0  0  0  0
    8.8023  -15.6772   24.6098 N   0  0  0  0  0  0  0  0  0  0  0  0
    9.8339  -16.3531   25.3957 C   0  0  1  0  0  0  0  0  0  0  0  0
    9.2565  -17.4488   26.2239 C   0  0  0  0  0  0  0  0  0  0  0  0
   10.1936  -18.1124   27.1344 C   0  0  0  0  0  0  0  0  0  0  0  0
   11.2929  -17.6551   27.5026 O   0  0  0  0  0  0  0  0  0  0  0  0
   10.7563  -16.9470   24.3822 C   0  0  0  0  0  0  0  0  0  0  0  0
   10.3197  -17.5100   23.3642 O   0  0  0  0  0  0  0  0  0  0  0  0
    9.8554  -19.3731   27.6554 O   0  0  0  0  0  0  0  0  0  0  0  0
   12.1445  -16.9057   24.5158 O   0  0  0  0  0  0  0  0  0  0  0  0
  2  1  1  1
  2  4  1  0
  2  3  1  0
  4  5  2  0
  7  6  1  1
  7  9  1  0
  8  4  1  0
  8  7  1  0
  9 10  2  0
 11 12  1  0
 11  9  1  0
 12 16  1  0
 12 13  1  6
 14 15  2  0
 14 13  1  0
 16 17  2  0
 16 19  1  0
 18 14  1  0
M  END
$$$$
