AAD.pdb
     RDKit          3D

 19 18  0  0  1  0  0  0  0  0999 V2000
    7.4471  -18.8291   18.6261 C   0  0  0  0  0  0  0  0  0  0  0  0
    7.5439  -17.3759   18.2884 C   0  0  2  0  0  0  0  0  0  0  0  0
    8.0164  -17.1869   16.9542 N   0  0  0  0  0  0  0  0  0  0  0  0
    8.2941  -16.5963   19.3069 C   0  0  0  0  0  0  0  0  0  0  0  0
    9.5524  -16.6307   19.2390 O   0  0  0  0  0  0  0  0  0  0  0  0
    7.5956  -14.2978   22.2485 C   0  0  0  0  0  0  0  0  0  0  0  0
    8.4802  -15.1542   21.3459 C   0  0  2  0  0  0  0  0  0  0  0  0
    7.7091  -15.8286   20.3338 N   0  0  0  0  0  0  0  0  0  0  0  0
    9.1790  -16.1133   22.2466 C   0  0  0  0  0  0  0  0  0  0  0  0
    8.6367  -17.2200   22.4564 O   0  0  0  0  0  0  0  0  0  0  0  0
   10.4171  -15.8199   22.8637 N   0  0  0  0  0  0  0  0  0  0  0  0
   11.1162  -16.7334   23.7667 C   0  0  1  0  0  0  0  0  0  0  0  0
   12.5652  -16.4002   23.8631 C   0  0  0  0  0  0  0  0  0  0  0  0
   13.3220  -16.5082   22.6128 C   0  0  0  0  0  0  0  0  0  0  0  0
   13.2702  -17.4640   21.8146 O   0  0  0  0  0  0  0  0  0  0  0  0
   10.4790  -16.5126   25.0994 C   0  0  0  0  0  0  0  0  0  0  0  0
    9.6924  -15.5699   25.2902 O   0  0  0  0  0  0  0  0  0  0  0  0
   14.1894  -15.4627   22.2525 O   0  0  0  0  0  0  0  0  0  0  0  0
   10.7254  -17.3405   26.1951 O   0  0  0  0  0  0  0  0  0  0  0  0
  2  1  1  1
  2  4  1  0
  2  3  1  0
  4  5  2  0
  7  6  1  1
  7  9  1  0
  8  4  1  0
  8  7  1  0
  9 10  2  0
 11 12  1  0
 11  9  1  0
 12 16  1  0
 12 13  1  1
 14 15  2  0
 14 13  1  0
 16 17  2  0
 16 19  1  0
 18 14  1  0
M  END
$$$$
