AAD.pdb
     RDKit          3D

 19 18  0  0  1  0  0  0  0  0999 V2000
    1.7890  -24.6183   22.2690 C   0  0  0  0  0  0  0  0  0  0  0  0
    1.3317  -23.6261   21.2485 C   0  0  2  0  0  0  0  0  0  0  0  0
    0.9664  -24.2722   20.0286 N   0  0  0  0  0  0  0  0  0  0  0  0
    2.2864  -22.5017   21.0697 C   0  0  0  0  0  0  0  0  0  0  0  0
    3.3448  -22.7478   20.4306 O   0  0  0  0  0  0  0  0  0  0  0  0
    2.3954  -18.7590   21.6634 C   0  0  0  0  0  0  0  0  0  0  0  0
    2.9832  -20.1020   21.2375 C   0  0  2  0  0  0  0  0  0  0  0  0
    2.0987  -21.1926   21.5569 N   0  0  0  0  0  0  0  0  0  0  0  0
    4.2909  -20.2195   21.9415 C   0  0  0  0  0  0  0  0  0  0  0  0
    5.1704  -19.3679   21.6880 O   0  0  0  0  0  0  0  0  0  0  0  0
    4.5682  -21.2461   22.8737 N   0  0  0  0  0  0  0  0  0  0  0  0
    5.8180  -21.3503   23.6259 C   0  0  1  0  0  0  0  0  0  0  0  0
    5.8475  -20.3934   24.7675 C   0  0  0  0  0  0  0  0  0  0  0  0
    6.4049  -19.0715   24.4686 C   0  0  0  0  0  0  0  0  0  0  0  0
    5.8920  -17.9804   24.7846 O   0  0  0  0  0  0  0  0  0  0  0  0
    5.8240  -22.7442   24.1623 C   0  0  0  0  0  0  0  0  0  0  0  0
    4.8956  -23.1663   24.8721 O   0  0  0  0  0  0  0  0  0  0  0  0
    7.6200  -18.9905   23.7671 O   0  0  0  0  0  0  0  0  0  0  0  0
    6.8583  -23.6438   23.9020 O   0  0  0  0  0  0  0  0  0  0  0  0
  2  1  1  1
  2  4  1  0
  2  3  1  0
  4  5  2  0
  7  6  1  1
  7  9  1  0
  8  4  1  0
  8  7  1  0
  9 10  2  0
 11 12  1  0
 11  9  1  0
 12 16  1  0
 12 13  1  1
 14 15  2  0
 14 13  1  0
 16 17  2  0
 16 19  1  0
 18 14  1  0
M  END
$$$$
