AAD.pdb
     RDKit          3D

 19 18  0  0  1  0  0  0  0  0999 V2000
    7.6033  -17.2947   16.8616 C   0  0  0  0  0  0  0  0  0  0  0  0
    7.6926  -15.8030   16.8191 C   0  0  2  0  0  0  0  0  0  0  0  0
    8.2279  -15.3537   15.5738 N   0  0  0  0  0  0  0  0  0  0  0  0
    8.3779  -15.2325   18.0077 C   0  0  0  0  0  0  0  0  0  0  0  0
    9.6355  -15.3135   18.0350 O   0  0  0  0  0  0  0  0  0  0  0  0
    7.5209  -13.3685   21.2011 C   0  0  0  0  0  0  0  0  0  0  0  0
    8.4321  -14.1701   20.2750 C   0  0  2  0  0  0  0  0  0  0  0  0
    7.7324  -14.6135   19.0969 N   0  0  0  0  0  0  0  0  0  0  0  0
    8.9391  -15.3124   21.0859 C   0  0  0  0  0  0  0  0  0  0  0  0
    8.3227  -16.3978   21.0171 O   0  0  0  0  0  0  0  0  0  0  0  0
   10.0775  -15.2132   21.9190 N   0  0  0  0  0  0  0  0  0  0  0  0
   10.6005  -16.3180   22.7219 C   0  0  1  0  0  0  0  0  0  0  0  0
   12.0404  -16.1188   23.0490 C   0  0  0  0  0  0  0  0  0  0  0  0
   12.9559  -16.1385   21.9049 C   0  0  0  0  0  0  0  0  0  0  0  0
   13.9416  -15.3911   21.7526 O   0  0  0  0  0  0  0  0  0  0  0  0
    9.8068  -16.2783   23.9864 C   0  0  0  0  0  0  0  0  0  0  0  0
    9.0773  -15.3103   24.2601 O   0  0  0  0  0  0  0  0  0  0  0  0
   12.7328  -17.0666   20.8734 O   0  0  0  0  0  0  0  0  0  0  0  0
    9.8364  -17.3116   24.9235 O   0  0  0  0  0  0  0  0  0  0  0  0
  2  1  1  6
  2  4  1  0
  2  3  1  0
  4  5  2  0
  7  6  1  1
  7  9  1  0
  8  4  1  0
  8  7  1  0
  9 10  2  0
 11 12  1  0
 11  9  1  0
 12 16  1  0
 12 13  1  1
 14 15  2  0
 14 13  1  0
 16 17  2  0
 16 19  1  0
 18 14  1  0
M  END
$$$$
