AAD.pdb
     RDKit          3D

 19 18  0  0  1  0  0  0  0  0999 V2000
    7.4137  -15.1730   18.6212 C   0  0  0  0  0  0  0  0  0  0  0  0
    7.5215  -13.8174   19.2424 C   0  0  2  0  0  0  0  0  0  0  0  0
    8.1433  -12.8901   18.3521 N   0  0  0  0  0  0  0  0  0  0  0  0
    8.1320  -13.8509   20.5967 C   0  0  0  0  0  0  0  0  0  0  0  0
    9.3889  -13.7762   20.6580 O   0  0  0  0  0  0  0  0  0  0  0  0
    7.0376  -13.9032   24.2302 C   0  0  0  0  0  0  0  0  0  0  0  0
    8.0568  -13.9825   23.0965 C   0  0  2  0  0  0  0  0  0  0  0  0
    7.4172  -13.9592   21.8064 N   0  0  0  0  0  0  0  0  0  0  0  0
    8.8201  -15.2426   23.3182 C   0  0  0  0  0  0  0  0  0  0  0  0
    8.3464  -16.3027   22.8548 O   0  0  0  0  0  0  0  0  0  0  0  0
   10.0447  -15.2809   24.0243 N   0  0  0  0  0  0  0  0  0  0  0  0
   10.8507  -16.4890   24.1962 C   0  0  1  0  0  0  0  0  0  0  0  0
   12.2992  -16.1633   24.3218 C   0  0  0  0  0  0  0  0  0  0  0  0
   13.2223  -17.2412   23.9561 C   0  0  0  0  0  0  0  0  0  0  0  0
   12.8924  -18.3966   23.6252 O   0  0  0  0  0  0  0  0  0  0  0  0
   10.3752  -17.0840   25.4809 C   0  0  0  0  0  0  0  0  0  0  0  0
   10.7708  -18.1989   25.8610 O   0  0  0  0  0  0  0  0  0  0  0  0
   14.6040  -16.9846   23.9689 O   0  0  0  0  0  0  0  0  0  0  0  0
    9.4708  -16.4325   26.3201 O   0  0  0  0  0  0  0  0  0  0  0  0
  2  1  1  6
  2  4  1  0
  2  3  1  0
  4  5  2  0
  7  6  1  1
  7  9  1  0
  8  4  1  0
  8  7  1  0
  9 10  2  0
 11 12  1  0
 11  9  1  0
 12 16  1  0
 12 13  1  1
 14 15  2  0
 14 13  1  0
 16 17  2  0
 16 19  1  0
 18 14  1  0
M  END
$$$$
