AAD.pdb
     RDKit          3D

 19 18  0  0  1  0  0  0  0  0999 V2000
    7.8517  -12.1005   19.7715 C   0  0  0  0  0  0  0  0  0  0  0  0
    7.8526  -13.2839   18.8580 C   0  0  2  0  0  0  0  0  0  0  0  0
    6.6322  -13.3676   18.1212 N   0  0  0  0  0  0  0  0  0  0  0  0
    8.2239  -14.5455   19.5496 C   0  0  0  0  0  0  0  0  0  0  0  0
    7.2825  -15.2270   20.0379 O   0  0  0  0  0  0  0  0  0  0  0  0
   10.7481  -17.1619   19.5488 C   0  0  0  0  0  0  0  0  0  0  0  0
    9.8467  -16.2592   20.3873 C   0  0  2  0  0  0  0  0  0  0  0  0
    9.5379  -15.0324   19.6992 N   0  0  0  0  0  0  0  0  0  0  0  0
   10.5805  -16.0152   21.6607 C   0  0  0  0  0  0  0  0  0  0  0  0
   10.0874  -15.2037   22.4738 O   0  0  0  0  0  0  0  0  0  0  0  0
   11.7981  -16.6608   21.9776 N   0  0  0  0  0  0  0  0  0  0  0  0
   12.4051  -16.6515   23.3080 C   0  0  1  0  0  0  0  0  0  0  0  0
   11.4973  -17.2537   24.3245 C   0  0  0  0  0  0  0  0  0  0  0  0
   12.0126  -17.2764   25.6962 C   0  0  0  0  0  0  0  0  0  0  0  0
   13.1658  -16.9542   26.0425 O   0  0  0  0  0  0  0  0  0  0  0  0
   13.6215  -17.5083   23.1772 C   0  0  0  0  0  0  0  0  0  0  0  0
   13.5559  -18.6527   22.6975 O   0  0  0  0  0  0  0  0  0  0  0  0
   11.1608  -17.6914   26.7341 O   0  0  0  0  0  0  0  0  0  0  0  0
   14.8870  -17.0810   23.5801 O   0  0  0  0  0  0  0  0  0  0  0  0
  2  1  1  1
  2  4  1  0
  2  3  1  0
  4  5  2  0
  7  6  1  6
  7  9  1  0
  8  4  1  0
  8  7  1  0
  9 10  2  0
 11 12  1  0
 11  9  1  0
 12 16  1  0
 12 13  1  1
 14 15  2  0
 14 13  1  0
 16 17  2  0
 16 19  1  0
 18 14  1  0
M  END
$$$$
