AAD.pdb
     RDKit          3D

 19 18  0  0  1  0  0  0  0  0999 V2000
    7.1855  -17.0204   16.0575 C   0  0  0  0  0  0  0  0  0  0  0  0
    7.8818  -15.7015   15.9545 C   0  0  2  0  0  0  0  0  0  0  0  0
    8.7689  -15.6726   14.8359 N   0  0  0  0  0  0  0  0  0  0  0  0
    8.5134  -15.2818   17.2324 C   0  0  0  0  0  0  0  0  0  0  0  0
    9.5974  -15.8442   17.5449 O   0  0  0  0  0  0  0  0  0  0  0  0
    7.8945  -12.8170   20.0571 C   0  0  0  0  0  0  0  0  0  0  0  0
    8.6930  -13.8702   19.2933 C   0  0  2  0  0  0  0  0  0  0  0  0
    7.9955  -14.3110   18.1130 N   0  0  0  0  0  0  0  0  0  0  0  0
    8.9251  -14.9855   20.2534 C   0  0  0  0  0  0  0  0  0  0  0  0
    8.0781  -15.9038   20.2992 O   0  0  0  0  0  0  0  0  0  0  0  0
   10.0544  -15.0410   21.1027 N   0  0  0  0  0  0  0  0  0  0  0  0
   10.3337  -16.1463   22.0187 C   0  0  1  0  0  0  0  0  0  0  0  0
   11.7977  -16.3133   22.2394 C   0  0  0  0  0  0  0  0  0  0  0  0
   12.5148  -17.0431   21.1903 C   0  0  0  0  0  0  0  0  0  0  0  0
   12.0393  -17.9571   20.4888 O   0  0  0  0  0  0  0  0  0  0  0  0
    9.6927  -15.7445   23.3065 C   0  0  0  0  0  0  0  0  0  0  0  0
    9.6266  -16.5301   24.2669 O   0  0  0  0  0  0  0  0  0  0  0  0
   13.8543  -16.7096   20.9263 O   0  0  0  0  0  0  0  0  0  0  0  0
    9.1375  -14.4801   23.5057 O   0  0  0  0  0  0  0  0  0  0  0  0
  2  1  1  1
  2  4  1  0
  2  3  1  0
  4  5  2  0
  7  6  1  1
  7  9  1  0
  8  4  1  0
  8  7  1  0
  9 10  2  0
 11 12  1  0
 11  9  1  0
 12 16  1  0
 12 13  1  1
 14 15  2  0
 14 13  1  0
 16 17  2  0
 16 19  1  0
 18 14  1  0
M  END
$$$$
