AAD.pdb
     RDKit          3D

 19 18  0  0  1  0  0  0  0  0999 V2000
    7.2958  -15.0889   19.1203 C   0  0  0  0  0  0  0  0  0  0  0  0
    7.4262  -13.7440   19.7603 C   0  0  2  0  0  0  0  0  0  0  0  0
    8.0031  -12.7980   18.8595 N   0  0  0  0  0  0  0  0  0  0  0  0
    8.0978  -13.7986   21.0846 C   0  0  0  0  0  0  0  0  0  0  0  0
    9.3583  -13.8105   21.0851 O   0  0  0  0  0  0  0  0  0  0  0  0
    7.2211  -13.6297   24.7642 C   0  0  0  0  0  0  0  0  0  0  0  0
    8.1326  -13.9559   23.5838 C   0  0  2  0  0  0  0  0  0  0  0  0
    7.4366  -13.8379   22.3286 N   0  0  0  0  0  0  0  0  0  0  0  0
    8.6287  -15.3409   23.8188 C   0  0  0  0  0  0  0  0  0  0  0  0
    7.9130  -16.2916   23.4355 O   0  0  0  0  0  0  0  0  0  0  0  0
    9.8637  -15.6140   24.4511 N   0  0  0  0  0  0  0  0  0  0  0  0
   10.3611  -16.9620   24.7237 C   0  0  1  0  0  0  0  0  0  0  0  0
   11.8500  -17.0089   24.6944 C   0  0  0  0  0  0  0  0  0  0  0  0
   12.4632  -16.7706   23.3849 C   0  0  0  0  0  0  0  0  0  0  0  0
   11.9324  -17.0074   22.2823 O   0  0  0  0  0  0  0  0  0  0  0  0
    9.8943  -17.2667   26.1093 C   0  0  0  0  0  0  0  0  0  0  0  0
    9.4108  -16.3825   26.8363 O   0  0  0  0  0  0  0  0  0  0  0  0
   13.7593  -16.2300   23.3310 O   0  0  0  0  0  0  0  0  0  0  0  0
    9.9719  -18.5449   26.6630 O   0  0  0  0  0  0  0  0  0  0  0  0
  2  1  1  6
  2  4  1  0
  2  3  1  0
  4  5  2  0
  7  6  1  1
  7  9  1  0
  8  4  1  0
  8  7  1  0
  9 10  2  0
 11 12  1  0
 11  9  1  0
 12 16  1  0
 12 13  1  1
 14 15  2  0
 14 13  1  0
 16 17  2  0
 16 19  1  0
 18 14  1  0
M  END
$$$$
