AAD.pdb
     RDKit          3D

 19 18  0  0  1  0  0  0  0  0999 V2000
    7.7334  -16.8587   15.2355 C   0  0  0  0  0  0  0  0  0  0  0  0
    7.7465  -15.3703   15.0952 C   0  0  2  0  0  0  0  0  0  0  0  0
    8.1697  -14.9792   13.7887 N   0  0  0  0  0  0  0  0  0  0  0  0
    8.4855  -14.6945   16.1929 C   0  0  0  0  0  0  0  0  0  0  0  0
    9.7360  -14.6003   16.0655 O   0  0  0  0  0  0  0  0  0  0  0  0
    7.7591  -12.9291   19.4759 C   0  0  0  0  0  0  0  0  0  0  0  0
    8.6631  -13.5403   18.4084 C   0  0  2  0  0  0  0  0  0  0  0  0
    7.8979  -14.1560   17.3553 N   0  0  0  0  0  0  0  0  0  0  0  0
    9.5287  -14.5239   19.1176 C   0  0  0  0  0  0  0  0  0  0  0  0
    9.1727  -15.7223   19.1189 O   0  0  0  0  0  0  0  0  0  0  0  0
   10.7222  -14.1545   19.7800 N   0  0  0  0  0  0  0  0  0  0  0  0
   11.5925  -15.0977   20.4811 C   0  0  1  0  0  0  0  0  0  0  0  0
   12.9662  -14.5466   20.6523 C   0  0  0  0  0  0  0  0  0  0  0  0
   13.9076  -15.4104   21.3700 C   0  0  0  0  0  0  0  0  0  0  0  0
   14.6065  -15.0690   22.3439 O   0  0  0  0  0  0  0  0  0  0  0  0
   10.9667  -15.2645   21.8269 C   0  0  0  0  0  0  0  0  0  0  0  0
   10.0840  -14.4878   22.2287 O   0  0  0  0  0  0  0  0  0  0  0  0
   14.0602  -16.7431   20.9509 O   0  0  0  0  0  0  0  0  0  0  0  0
   11.3305  -16.2887   22.7017 O   0  0  0  0  0  0  0  0  0  0  0  0
  2  1  1  6
  2  4  1  0
  2  3  1  0
  4  5  2  0
  7  6  1  1
  7  9  1  0
  8  4  1  0
  8  7  1  0
  9 10  2  0
 11 12  1  0
 11  9  1  0
 12 16  1  0
 12 13  1  1
 14 15  2  0
 14 13  1  0
 16 17  2  0
 16 19  1  0
 18 14  1  0
M  END
$$$$
