IWL.pdb
     RDKit          3D

 31 32  0  0  1  0  0  0  0  0999 V2000
    7.8209  -12.0340   20.1567 C   0  0  0  0  0  0  0  0  0  0  0  0
    7.8696  -13.3511   20.9403 C   0  0  0  0  0  0  0  0  0  0  0  0
    8.4303  -14.4238   20.0343 C   0  0  2  0  0  0  0  0  0  0  0  0
    7.7083  -14.4752   18.7123 C   0  0  0  0  0  0  0  0  0  0  0  0
    8.5616  -15.7497   20.7048 C   0  0  2  0  0  0  0  0  0  0  0  0
    7.2205  -16.3013   20.8628 N   0  0  0  0  0  0  0  0  0  0  0  0
    9.3201  -15.7532   21.9559 C   0  0  0  0  0  0  0  0  0  0  0  0
   10.5071  -15.3251   21.9254 O   0  0  0  0  0  0  0  0  0  0  0  0
    8.8377  -16.1965   23.2018 N   0  0  0  0  0  0  0  0  0  0  0  0
    9.6099  -16.0299   24.4528 C   0  0  1  0  0  0  0  0  0  0  0  0
    8.6709  -16.2270   25.6116 C   0  0  0  0  0  0  0  0  0  0  0  0
    7.5655  -15.2732   25.7069 C   0  0  0  0  0  0  0  0  0  0  0  0
    6.2123  -15.4817   25.4780 C   0  0  0  0  0  0  0  0  0  0  0  0
    5.5379  -14.3388   25.6545 N   0  0  0  0  0  0  0  0  0  0  0  0
    6.3953  -13.3628   25.9963 C   0  0  0  0  0  0  0  0  0  0  0  0
    6.1769  -12.0303   26.2778 C   0  0  0  0  0  0  0  0  0  0  0  0
    7.2667  -11.2571   26.6034 C   0  0  0  0  0  0  0  0  0  0  0  0
    8.5337  -11.8043   26.6448 C   0  0  0  0  0  0  0  0  0  0  0  0
    8.7371  -13.1278   26.3634 C   0  0  0  0  0  0  0  0  0  0  0  0
    7.6709  -13.9269   26.0349 C   0  0  0  0  0  0  0  0  0  0  0  0
   10.6070  -17.1322   24.4701 C   0  0  0  0  0  0  0  0  0  0  0  0
   10.3167  -18.2396   23.9294 O   0  0  0  0  0  0  0  0  0  0  0  0
   16.6416  -17.7305   25.3338 C   0  0  0  0  0  0  0  0  0  0  0  0
   15.3601  -18.4258   24.8908 C   0  0  2  0  0  0  0  0  0  0  0  0
   15.6106  -19.2632   23.7002 C   0  0  0  0  0  0  0  0  0  0  0  0
   14.1852  -17.5314   24.8917 C   0  0  0  0  0  0  0  0  0  0  0  0
   12.8330  -18.0981   25.0816 C   0  0  2  0  0  0  0  0  0  0  0  0
   11.8650  -16.9838   25.0656 N   0  0  0  0  0  0  0  0  0  0  0  0
   12.5792  -18.8912   26.2803 C   0  0  0  0  0  0  0  0  0  0  0  0
   12.8700  -20.1236   26.3726 O   0  0  0  0  0  0  0  0  0  0  0  0
   11.9820  -18.2761   27.3974 O   0  0  0  0  0  0  0  0  0  0  0  0
  2  1  1  0
  3  2  1  0
  3  4  1  6
  5  3  1  0
  5  6  1  1
  7  5  1  0
  8  7  2  0
  9  7  1  0
 10 21  1  0
 10  9  1  0
 10 11  1  1
 12 11  1  0
 13 12  2  0
 14 13  1  0
 15 14  1  0
 15 20  2  0
 16 15  1  0
 17 16  2  0
 17 18  1  0
 18 19  2  0
 19 20  1  0
 20 12  1  0
 21 28  1  0
 22 21  2  0
 24 23  1  6
 24 25  1  0
 24 26  1  0
 27 26  1  1
 27 29  1  0
 28 27  1  0
 29 30  2  0
 29 31  1  0
M  END
$$$$
