IWL.pdb
     RDKit          3D

 31 32  0  0  1  0  0  0  0  0999 V2000
    7.6447  -12.7652   17.4468 C   0  0  0  0  0  0  0  0  0  0  0  0
    7.7112  -14.1427   18.1170 C   0  0  0  0  0  0  0  0  0  0  0  0
    7.9671  -13.9421   19.5936 C   0  0  2  0  0  0  0  0  0  0  0  0
    9.1479  -13.0387   19.8405 C   0  0  0  0  0  0  0  0  0  0  0  0
    8.0109  -15.2201   20.3613 C   0  0  2  0  0  0  0  0  0  0  0  0
    6.8522  -16.0139   19.9674 N   0  0  0  0  0  0  0  0  0  0  0  0
    8.1285  -15.0821   21.8130 C   0  0  0  0  0  0  0  0  0  0  0  0
    7.4254  -14.1997   22.3790 O   0  0  0  0  0  0  0  0  0  0  0  0
    8.9650  -15.8539   22.6414 N   0  0  0  0  0  0  0  0  0  0  0  0
    9.2599  -15.4738   24.0405 C   0  0  1  0  0  0  0  0  0  0  0  0
    8.2474  -16.1425   24.9299 C   0  0  0  0  0  0  0  0  0  0  0  0
    7.0841  -15.3333   25.2939 C   0  0  0  0  0  0  0  0  0  0  0  0
    5.7505  -15.7106   25.3739 C   0  0  0  0  0  0  0  0  0  0  0  0
    4.9987  -14.6594   25.7231 N   0  0  0  0  0  0  0  0  0  0  0  0
    5.7846  -13.5816   25.8819 C   0  0  0  0  0  0  0  0  0  0  0  0
    5.4737  -12.2847   26.2338 C   0  0  0  0  0  0  0  0  0  0  0  0
    6.5055  -11.3792   26.3197 C   0  0  0  0  0  0  0  0  0  0  0  0
    7.8060  -11.7639   26.0607 C   0  0  0  0  0  0  0  0  0  0  0  0
    8.1012  -13.0537   25.7125 C   0  0  0  0  0  0  0  0  0  0  0  0
    7.0948  -13.9820   25.6178 C   0  0  0  0  0  0  0  0  0  0  0  0
   10.5975  -16.0445   24.3482 C   0  0  0  0  0  0  0  0  0  0  0  0
   11.6306  -15.5053   23.8532 O   0  0  0  0  0  0  0  0  0  0  0  0
    9.5737  -15.0552   29.4218 C   0  0  0  0  0  0  0  0  0  0  0  0
   10.7368  -15.4292   28.5113 C   0  0  2  0  0  0  0  0  0  0  0  0
   11.7110  -14.3218   28.4344 C   0  0  0  0  0  0  0  0  0  0  0  0
   10.3059  -16.0800   27.2579 C   0  0  0  0  0  0  0  0  0  0  0  0
   11.2170  -17.0184   26.5685 C   0  0  2  0  0  0  0  0  0  0  0  0
   10.7531  -17.1634   25.1747 N   0  0  0  0  0  0  0  0  0  0  0  0
   11.3791  -18.3577   27.1255 C   0  0  0  0  0  0  0  0  0  0  0  0
   10.4440  -19.2159   27.1550 O   0  0  0  0  0  0  0  0  0  0  0  0
   12.6260  -18.7323   27.6620 O   0  0  0  0  0  0  0  0  0  0  0  0
  2  1  1  0
  3  2  1  0
  3  4  1  6
  5  3  1  0
  5  6  1  1
  7  5  1  0
  8  7  2  0
  9  7  1  0
 10 21  1  0
 10  9  1  0
 10 11  1  1
 12 11  1  0
 13 12  2  0
 14 13  1  0
 15 14  1  0
 15 20  2  0
 16 15  1  0
 17 16  2  0
 17 18  1  0
 18 19  2  0
 19 20  1  0
 20 12  1  0
 21 28  1  0
 22 21  2  0
 24 23  1  6
 24 25  1  0
 24 26  1  0
 27 26  1  1
 27 29  1  0
 28 27  1  0
 29 30  2  0
 29 31  1  0
M  END
$$$$
