IWL.pdb
     RDKit          3D

 31 32  0  0  1  0  0  0  0  0999 V2000
   10.4463  -18.2183   16.4486 C   0  0  0  0  0  0  0  0  0  0  0  0
   10.5377  -18.7449   17.8858 C   0  0  0  0  0  0  0  0  0  0  0  0
   10.1658  -17.6228   18.8286 C   0  0  2  0  0  0  0  0  0  0  0  0
   10.9112  -16.3523   18.5100 C   0  0  0  0  0  0  0  0  0  0  0  0
   10.2281  -18.0178   20.2655 C   0  0  2  0  0  0  0  0  0  0  0  0
    9.4009  -19.2073   20.4347 N   0  0  0  0  0  0  0  0  0  0  0  0
    9.8983  -16.9645   21.2258 C   0  0  0  0  0  0  0  0  0  0  0  0
   10.6724  -15.9700   21.2971 O   0  0  0  0  0  0  0  0  0  0  0  0
    8.7833  -16.9630   22.0850 N   0  0  0  0  0  0  0  0  0  0  0  0
    8.5806  -15.9201   23.1147 C   0  0  1  0  0  0  0  0  0  0  0  0
    7.5259  -16.4062   24.0712 C   0  0  0  0  0  0  0  0  0  0  0  0
    6.8797  -15.3769   24.8858 C   0  0  0  0  0  0  0  0  0  0  0  0
    5.8080  -15.5023   25.7593 C   0  0  0  0  0  0  0  0  0  0  0  0
    5.5112  -14.3105   26.2919 N   0  0  0  0  0  0  0  0  0  0  0  0
    6.3508  -13.3822   25.8044 C   0  0  0  0  0  0  0  0  0  0  0  0
    6.4378  -12.0280   26.0520 C   0  0  0  0  0  0  0  0  0  0  0  0
    7.4162  -11.3182   25.3958 C   0  0  0  0  0  0  0  0  0  0  0  0
    8.2782  -11.9477   24.5201 C   0  0  0  0  0  0  0  0  0  0  0  0
    8.1815  -13.2918   24.2831 C   0  0  0  0  0  0  0  0  0  0  0  0
    7.2162  -14.0291   24.9217 C   0  0  0  0  0  0  0  0  0  0  0  0
    9.8662  -15.8170   23.8539 C   0  0  0  0  0  0  0  0  0  0  0  0
   10.6407  -14.8436   23.6183 O   0  0  0  0  0  0  0  0  0  0  0  0
    9.0039  -14.6886   29.0134 C   0  0  0  0  0  0  0  0  0  0  0  0
   10.2177  -14.9484   28.1298 C   0  0  2  0  0  0  0  0  0  0  0  0
   11.1447  -13.7993   28.1726 C   0  0  0  0  0  0  0  0  0  0  0  0
    9.8662  -15.5247   26.8166 C   0  0  0  0  0  0  0  0  0  0  0  0
   10.8547  -16.3499   26.0901 C   0  0  2  0  0  0  0  0  0  0  0  0
   10.2491  -16.7653   24.8096 N   0  0  0  0  0  0  0  0  0  0  0  0
   11.3712  -17.5464   26.7473 C   0  0  0  0  0  0  0  0  0  0  0  0
   12.3962  -17.5401   27.4965 O   0  0  0  0  0  0  0  0  0  0  0  0
   10.7139  -18.7761   26.5507 O   0  0  0  0  0  0  0  0  0  0  0  0
  2  1  1  0
  3  2  1  0
  3  4  1  1
  5  3  1  0
  5  6  1  6
  7  5  1  0
  8  7  2  0
  9  7  1  0
 10 21  1  0
 10  9  1  0
 10 11  1  1
 12 11  1  0
 13 12  2  0
 14 13  1  0
 15 14  1  0
 15 20  2  0
 16 15  1  0
 17 16  2  0
 17 18  1  0
 18 19  2  0
 19 20  1  0
 20 12  1  0
 21 28  1  0
 22 21  2  0
 24 23  1  6
 24 25  1  0
 24 26  1  0
 27 26  1  1
 27 29  1  0
 28 27  1  0
 29 30  2  0
 29 31  1  0
M  END
$$$$
