IWL.pdb
     RDKit          3D

 31 32  0  0  1  0  0  0  0  0999 V2000
    7.0177  -12.7169   17.7583 C   0  0  0  0  0  0  0  0  0  0  0  0
    6.8267  -13.9568   18.6399 C   0  0  0  0  0  0  0  0  0  0  0  0
    7.6830  -13.7987   19.8760 C   0  0  2  0  0  0  0  0  0  0  0  0
    9.0972  -13.4071   19.5322 C   0  0  0  0  0  0  0  0  0  0  0  0
    7.5852  -14.9569   20.8107 C   0  0  2  0  0  0  0  0  0  0  0  0
    6.1700  -15.2548   21.0009 N   0  0  0  0  0  0  0  0  0  0  0  0
    8.3022  -14.8096   22.0774 C   0  0  0  0  0  0  0  0  0  0  0  0
    8.4483  -13.6437   22.5386 O   0  0  0  0  0  0  0  0  0  0  0  0
    8.8486  -15.8638   22.8336 N   0  0  0  0  0  0  0  0  0  0  0  0
    9.7091  -15.6264   24.0136 C   0  0  1  0  0  0  0  0  0  0  0  0
    8.9735  -16.1106   25.2335 C   0  0  0  0  0  0  0  0  0  0  0  0
    7.7816  -15.3476   25.6049 C   0  0  0  0  0  0  0  0  0  0  0  0
    6.4473  -15.7219   25.5247 C   0  0  0  0  0  0  0  0  0  0  0  0
    5.6659  -14.7204   25.9473 N   0  0  0  0  0  0  0  0  0  0  0  0
    6.4326  -13.6792   26.3113 C   0  0  0  0  0  0  0  0  0  0  0  0
    6.0897  -12.4378   26.8052 C   0  0  0  0  0  0  0  0  0  0  0  0
    7.1080  -11.5597   27.0945 C   0  0  0  0  0  0  0  0  0  0  0  0
    8.4265  -11.9167   26.8943 C   0  0  0  0  0  0  0  0  0  0  0  0
    8.7536  -13.1514   26.4037 C   0  0  0  0  0  0  0  0  0  0  0  0
    7.7614  -14.0511   26.1047 C   0  0  0  0  0  0  0  0  0  0  0  0
   10.9100  -16.4819   23.8251 C   0  0  0  0  0  0  0  0  0  0  0  0
   10.7809  -17.6236   23.2933 O   0  0  0  0  0  0  0  0  0  0  0  0
   17.0188  -15.6719   23.8493 C   0  0  0  0  0  0  0  0  0  0  0  0
   15.8740  -16.6431   23.5884 C   0  0  2  0  0  0  0  0  0  0  0  0
   16.1079  -17.3953   22.3390 C   0  0  0  0  0  0  0  0  0  0  0  0
   14.5432  -16.0450   23.8150 C   0  0  0  0  0  0  0  0  0  0  0  0
   13.3672  -16.9219   23.9989 C   0  0  2  0  0  0  0  0  0  0  0  0
   12.1869  -16.0626   24.2162 N   0  0  0  0  0  0  0  0  0  0  0  0
   13.4036  -17.9087   25.0738 C   0  0  0  0  0  0  0  0  0  0  0  0
   12.9801  -17.6738   26.2474 O   0  0  0  0  0  0  0  0  0  0  0  0
   13.9321  -19.1879   24.8144 O   0  0  0  0  0  0  0  0  0  0  0  0
  2  1  1  0
  3  2  1  0
  3  4  1  6
  5  3  1  0
  5  6  1  1
  7  5  1  0
  8  7  2  0
  9  7  1  0
 10 21  1  0
 10  9  1  0
 10 11  1  1
 12 11  1  0
 13 12  2  0
 14 13  1  0
 15 14  1  0
 15 20  2  0
 16 15  1  0
 17 16  2  0
 17 18  1  0
 18 19  2  0
 19 20  1  0
 20 12  1  0
 21 28  1  0
 22 21  2  0
 24 23  1  6
 24 25  1  0
 24 26  1  0
 27 26  1  1
 27 29  1  0
 28 27  1  0
 29 30  2  0
 29 31  1  0
M  END
$$$$
