IWL.pdb
     RDKit          3D

 31 32  0  0  1  0  0  0  0  0999 V2000
    7.9251  -13.7643   16.5723 C   0  0  0  0  0  0  0  0  0  0  0  0
    8.9114  -14.6172   17.3791 C   0  0  0  0  0  0  0  0  0  0  0  0
    8.7112  -14.3160   18.8472 C   0  0  2  0  0  0  0  0  0  0  0  0
    8.8412  -12.8434   19.1404 C   0  0  0  0  0  0  0  0  0  0  0  0
    9.5274  -15.1864   19.7421 C   0  0  2  0  0  0  0  0  0  0  0  0
    9.2142  -16.5736   19.4176 N   0  0  0  0  0  0  0  0  0  0  0  0
    9.4127  -14.9060   21.1734 C   0  0  0  0  0  0  0  0  0  0  0  0
    9.8789  -13.8124   21.5979 O   0  0  0  0  0  0  0  0  0  0  0  0
    8.8227  -15.7567   22.1273 N   0  0  0  0  0  0  0  0  0  0  0  0
    8.6595  -15.3625   23.5440 C   0  0  1  0  0  0  0  0  0  0  0  0
    7.4271  -16.0398   24.0787 C   0  0  0  0  0  0  0  0  0  0  0  0
    6.6346  -15.2630   25.0323 C   0  0  0  0  0  0  0  0  0  0  0  0
    5.5201  -15.6540   25.7617 C   0  0  0  0  0  0  0  0  0  0  0  0
    5.0798  -14.6320   26.5059 N   0  0  0  0  0  0  0  0  0  0  0  0
    5.8640  -13.5607   26.3014 C   0  0  0  0  0  0  0  0  0  0  0  0
    5.8103  -12.2904   26.8363 C   0  0  0  0  0  0  0  0  0  0  0  0
    6.7640  -11.3848   26.4337 C   0  0  0  0  0  0  0  0  0  0  0  0
    7.7389  -11.7434   25.5242 C   0  0  0  0  0  0  0  0  0  0  0  0
    7.7813  -13.0069   25.0009 C   0  0  0  0  0  0  0  0  0  0  0  0
    6.8443  -13.9345   25.3817 C   0  0  0  0  0  0  0  0  0  0  0  0
    9.8398  -15.9113   24.2619 C   0  0  0  0  0  0  0  0  0  0  0  0
   10.7394  -16.5142   23.6060 O   0  0  0  0  0  0  0  0  0  0  0  0
   10.9101  -13.5751   27.8240 C   0  0  0  0  0  0  0  0  0  0  0  0
   10.2472  -14.8909   28.2126 C   0  0  2  0  0  0  0  0  0  0  0  0
    9.7542  -14.8311   29.6036 C   0  0  0  0  0  0  0  0  0  0  0  0
   11.0171  -16.0763   27.7857 C   0  0  0  0  0  0  0  0  0  0  0  0
   11.1377  -16.3925   26.3465 C   0  0  2  0  0  0  0  0  0  0  0  0
    9.9912  -15.7799   25.6472 N   0  0  0  0  0  0  0  0  0  0  0  0
   11.2022  -17.7961   25.9513 C   0  0  0  0  0  0  0  0  0  0  0  0
   12.2761  -18.4731   25.9647 O   0  0  0  0  0  0  0  0  0  0  0  0
   10.0261  -18.4460   25.5306 O   0  0  0  0  0  0  0  0  0  0  0  0
  2  1  1  0
  3  2  1  0
  3  4  1  6
  5  3  1  0
  5  6  1  1
  7  5  1  0
  8  7  2  0
  9  7  1  0
 10 21  1  0
 10  9  1  0
 10 11  1  1
 12 11  1  0
 13 12  2  0
 14 13  1  0
 15 14  1  0
 15 20  2  0
 16 15  1  0
 17 16  2  0
 17 18  1  0
 18 19  2  0
 19 20  1  0
 20 12  1  0
 21 28  1  0
 22 21  2  0
 24 23  1  1
 24 25  1  0
 24 26  1  0
 27 26  1  1
 27 29  1  0
 28 27  1  0
 29 30  2  0
 29 31  1  0
M  END
$$$$
