IWL.pdb
     RDKit          3D

 31 32  0  0  1  0  0  0  0  0999 V2000
   13.9439  -19.2763   19.0519 C   0  0  0  0  0  0  0  0  0  0  0  0
   12.4457  -18.9619   18.9645 C   0  0  0  0  0  0  0  0  0  0  0  0
   12.0737  -18.0859   20.1395 C   0  0  2  0  0  0  0  0  0  0  0  0
   12.5897  -18.6443   21.4408 C   0  0  0  0  0  0  0  0  0  0  0  0
   10.6272  -17.7231   20.1670 C   0  0  2  0  0  0  0  0  0  0  0  0
   10.2613  -17.2579   18.8338 N   0  0  0  0  0  0  0  0  0  0  0  0
   10.2306  -16.7843   21.2167 C   0  0  0  0  0  0  0  0  0  0  0  0
   10.7316  -15.6260   21.1900 O   0  0  0  0  0  0  0  0  0  0  0  0
    9.3313  -17.0622   22.2633 N   0  0  0  0  0  0  0  0  0  0  0  0
    9.0514  -16.0906   23.3435 C   0  0  1  0  0  0  0  0  0  0  0  0
    7.6405  -15.5965   23.1738 C   0  0  0  0  0  0  0  0  0  0  0  0
    7.0403  -14.9630   24.3481 C   0  0  0  0  0  0  0  0  0  0  0  0
    6.3826  -15.5555   25.4174 C   0  0  0  0  0  0  0  0  0  0  0  0
    5.9651  -14.6155   26.2744 N   0  0  0  0  0  0  0  0  0  0  0  0
    6.3212  -13.4040   25.8162 C   0  0  0  0  0  0  0  0  0  0  0  0
    6.1168  -12.1461   26.3439 C   0  0  0  0  0  0  0  0  0  0  0  0
    6.6032  -11.0692   25.6400 C   0  0  0  0  0  0  0  0  0  0  0  0
    7.2724  -11.2500   24.4460 C   0  0  0  0  0  0  0  0  0  0  0  0
    7.4687  -12.5032   23.9331 C   0  0  0  0  0  0  0  0  0  0  0  0
    6.9959  -13.5991   24.6106 C   0  0  0  0  0  0  0  0  0  0  0  0
    9.1255  -16.8570   24.6150 C   0  0  0  0  0  0  0  0  0  0  0  0
    8.0556  -17.1542   25.2232 O   0  0  0  0  0  0  0  0  0  0  0  0
   10.4156  -15.4331   29.5190 C   0  0  0  0  0  0  0  0  0  0  0  0
   10.9135  -15.0127   28.1417 C   0  0  2  0  0  0  0  0  0  0  0  0
   10.9487  -13.5403   28.0311 C   0  0  0  0  0  0  0  0  0  0  0  0
   10.3055  -15.7899   27.0433 C   0  0  0  0  0  0  0  0  0  0  0  0
   11.1634  -16.3391   25.9717 C   0  0  2  0  0  0  0  0  0  0  0  0
   10.3467  -17.2657   25.1634 N   0  0  0  0  0  0  0  0  0  0  0  0
   12.3840  -17.0409   26.3563 C   0  0  0  0  0  0  0  0  0  0  0  0
   13.5306  -16.4958   26.3490 O   0  0  0  0  0  0  0  0  0  0  0  0
   12.3045  -18.3887   26.7561 O   0  0  0  0  0  0  0  0  0  0  0  0
  2  1  1  0
  3  2  1  0
  3  4  1  1
  5  3  1  0
  5  6  1  6
  7  5  1  0
  8  7  2  0
  9  7  1  0
 10 21  1  0
 10  9  1  0
 10 11  1  6
 12 11  1  0
 13 12  2  0
 14 13  1  0
 15 14  1  0
 15 20  2  0
 16 15  1  0
 17 16  2  0
 17 18  1  0
 18 19  2  0
 19 20  1  0
 20 12  1  0
 21 28  1  0
 22 21  2  0
 24 23  1  1
 24 25  1  0
 24 26  1  0
 27 26  1  1
 27 29  1  0
 28 27  1  0
 29 30  2  0
 29 31  1  0
M  END
$$$$
