IWL.pdb
     RDKit          3D

 31 32  0  0  1  0  0  0  0  0999 V2000
    8.0859  -13.9129   15.9909 C   0  0  0  0  0  0  0  0  0  0  0  0
    9.0086  -14.7855   16.8501 C   0  0  0  0  0  0  0  0  0  0  0  0
    8.7660  -14.4475   18.3037 C   0  0  2  0  0  0  0  0  0  0  0  0
    8.9314  -12.9736   18.5719 C   0  0  0  0  0  0  0  0  0  0  0  0
    9.5226  -15.3232   19.2447 C   0  0  2  0  0  0  0  0  0  0  0  0
    9.1474  -16.7045   18.9637 N   0  0  0  0  0  0  0  0  0  0  0  0
    9.3966  -14.9855   20.6626 C   0  0  0  0  0  0  0  0  0  0  0  0
    9.9518  -13.9264   21.0668 O   0  0  0  0  0  0  0  0  0  0  0  0
    8.7043  -15.7453   21.6244 N   0  0  0  0  0  0  0  0  0  0  0  0
    8.3682  -15.2097   22.9620 C   0  0  1  0  0  0  0  0  0  0  0  0
    7.0858  -15.8534   23.4145 C   0  0  0  0  0  0  0  0  0  0  0  0
    6.4833  -15.2943   24.6250 C   0  0  0  0  0  0  0  0  0  0  0  0
    5.7572  -15.9410   25.6157 C   0  0  0  0  0  0  0  0  0  0  0  0
    5.3652  -15.0594   26.5438 N   0  0  0  0  0  0  0  0  0  0  0  0
    5.8050  -13.8348   26.2101 C   0  0  0  0  0  0  0  0  0  0  0  0
    5.6549  -12.6200   26.8459 C   0  0  0  0  0  0  0  0  0  0  0  0
    6.2252  -11.5147   26.2588 C   0  0  0  0  0  0  0  0  0  0  0  0
    6.9230  -11.6261   25.0727 C   0  0  0  0  0  0  0  0  0  0  0  0
    7.0648  -12.8371   24.4518 C   0  0  0  0  0  0  0  0  0  0  0  0
    6.5079  -13.9596   25.0112 C   0  0  0  0  0  0  0  0  0  0  0  0
    9.4577  -15.6565   23.8693 C   0  0  0  0  0  0  0  0  0  0  0  0
   10.1072  -16.7063   23.5884 O   0  0  0  0  0  0  0  0  0  0  0  0
   11.3175  -16.6797   28.7394 C   0  0  0  0  0  0  0  0  0  0  0  0
   11.3993  -15.1866   28.4466 C   0  0  2  0  0  0  0  0  0  0  0  0
   11.2692  -14.4066   29.6940 C   0  0  0  0  0  0  0  0  0  0  0  0
   10.6003  -14.7814   27.2728 C   0  0  0  0  0  0  0  0  0  0  0  0
   10.7842  -15.4818   25.9838 C   0  0  2  0  0  0  0  0  0  0  0  0
    9.7926  -14.9485   25.0293 N   0  0  0  0  0  0  0  0  0  0  0  0
   10.6792  -16.9375   25.9683 C   0  0  0  0  0  0  0  0  0  0  0  0
   11.6889  -17.7070   25.9550 O   0  0  0  0  0  0  0  0  0  0  0  0
    9.4037  -17.5343   25.9661 O   0  0  0  0  0  0  0  0  0  0  0  0
  2  1  1  0
  3  2  1  0
  3  4  1  6
  5  3  1  0
  5  6  1  1
  7  5  1  0
  8  7  2  0
  9  7  1  0
 10 21  1  0
 10  9  1  0
 10 11  1  1
 12 11  1  0
 13 12  2  0
 14 13  1  0
 15 14  1  0
 15 20  2  0
 16 15  1  0
 17 16  2  0
 17 18  1  0
 18 19  2  0
 19 20  1  0
 20 12  1  0
 21 28  1  0
 22 21  2  0
 24 23  1  1
 24 25  1  0
 24 26  1  0
 27 26  1  1
 27 29  1  0
 28 27  1  0
 29 30  2  0
 29 31  1  0
M  END
$$$$
