IWL.pdb
     RDKit          3D

 31 32  0  0  1  0  0  0  0  0999 V2000
    7.8342  -13.5795   16.6191 C   0  0  0  0  0  0  0  0  0  0  0  0
    8.7378  -14.5739   17.3577 C   0  0  0  0  0  0  0  0  0  0  0  0
    8.6784  -14.2638   18.8364 C   0  0  2  0  0  0  0  0  0  0  0  0
    9.0142  -12.8224   19.1210 C   0  0  0  0  0  0  0  0  0  0  0  0
    9.4369  -15.2390   19.6721 C   0  0  2  0  0  0  0  0  0  0  0  0
    8.9592  -16.5759   19.3369 N   0  0  0  0  0  0  0  0  0  0  0  0
    9.4220  -14.9833   21.1125 C   0  0  0  0  0  0  0  0  0  0  0  0
    9.9780  -13.9293   21.5287 O   0  0  0  0  0  0  0  0  0  0  0  0
    8.8368  -15.8175   22.0838 N   0  0  0  0  0  0  0  0  0  0  0  0
    8.6627  -15.3915   23.4899 C   0  0  1  0  0  0  0  0  0  0  0  0
    7.4099  -16.0334   24.0211 C   0  0  0  0  0  0  0  0  0  0  0  0
    6.7055  -15.2902   25.0661 C   0  0  0  0  0  0  0  0  0  0  0  0
    5.7280  -15.7366   25.9449 C   0  0  0  0  0  0  0  0  0  0  0  0
    5.3275  -14.7304   26.7319 N   0  0  0  0  0  0  0  0  0  0  0  0
    6.0055  -13.6160   26.4114 C   0  0  0  0  0  0  0  0  0  0  0  0
    5.9426  -12.3417   26.9356 C   0  0  0  0  0  0  0  0  0  0  0  0
    6.7721  -11.3857   26.3973 C   0  0  0  0  0  0  0  0  0  0  0  0
    7.6357  -11.6993   25.3668 C   0  0  0  0  0  0  0  0  0  0  0  0
    7.6885  -12.9673   24.8554 C   0  0  0  0  0  0  0  0  0  0  0  0
    6.8741  -13.9447   25.3701 C   0  0  0  0  0  0  0  0  0  0  0  0
    9.8221  -15.9489   24.2348 C   0  0  0  0  0  0  0  0  0  0  0  0
   10.7155  -16.5869   23.6043 O   0  0  0  0  0  0  0  0  0  0  0  0
   10.5176  -13.9394   29.1991 C   0  0  0  0  0  0  0  0  0  0  0  0
   11.3644  -14.4953   28.0608 C   0  0  2  0  0  0  0  0  0  0  0  0
   11.4487  -13.5206   26.9544 C   0  0  0  0  0  0  0  0  0  0  0  0
   11.0535  -15.9029   27.7409 C   0  0  0  0  0  0  0  0  0  0  0  0
   11.1122  -16.3658   26.3380 C   0  0  2  0  0  0  0  0  0  0  0  0
    9.9603  -15.7878   25.6183 N   0  0  0  0  0  0  0  0  0  0  0  0
   11.1194  -17.8033   26.0853 C   0  0  0  0  0  0  0  0  0  0  0  0
   12.1757  -18.5074   26.1070 O   0  0  0  0  0  0  0  0  0  0  0  0
    9.9051  -18.4569   25.8005 O   0  0  0  0  0  0  0  0  0  0  0  0
  2  1  1  0
  3  2  1  0
  3  4  1  6
  5  3  1  0
  5  6  1  1
  7  5  1  0
  8  7  2  0
  9  7  1  0
 10 21  1  0
 10  9  1  0
 10 11  1  1
 12 11  1  0
 13 12  2  0
 14 13  1  0
 15 14  1  0
 15 20  2  0
 16 15  1  0
 17 16  2  0
 17 18  1  0
 18 19  2  0
 19 20  1  0
 20 12  1  0
 21 28  1  0
 22 21  2  0
 24 23  1  1
 24 25  1  0
 24 26  1  0
 27 26  1  1
 27 29  1  0
 28 27  1  0
 29 30  2  0
 29 31  1  0
M  END
$$$$
