IWL.pdb
     RDKit          3D

 31 32  0  0  1  0  0  0  0  0999 V2000
    9.0184  -20.6599   17.4978 C   0  0  0  0  0  0  0  0  0  0  0  0
    8.4918  -19.2300   17.6686 C   0  0  0  0  0  0  0  0  0  0  0  0
    8.9785  -18.6989   18.9980 C   0  0  2  0  0  0  0  0  0  0  0  0
    8.6196  -19.6204   20.1353 C   0  0  0  0  0  0  0  0  0  0  0  0
    8.6070  -17.2735   19.2328 C   0  0  2  0  0  0  0  0  0  0  0  0
    9.1589  -16.4852   18.1365 N   0  0  0  0  0  0  0  0  0  0  0  0
    8.9638  -16.7350   20.5455 C   0  0  0  0  0  0  0  0  0  0  0  0
   10.1760  -16.4527   20.7559 O   0  0  0  0  0  0  0  0  0  0  0  0
    8.0656  -16.5024   21.6040 N   0  0  0  0  0  0  0  0  0  0  0  0
    8.5002  -15.9317   22.8981 C   0  0  1  0  0  0  0  0  0  0  0  0
    7.3136  -15.2613   23.5354 C   0  0  0  0  0  0  0  0  0  0  0  0
    7.4947  -14.8245   24.9200 C   0  0  0  0  0  0  0  0  0  0  0  0
    7.8751  -15.5712   26.0267 C   0  0  0  0  0  0  0  0  0  0  0  0
    7.9013  -14.7929   27.1156 N   0  0  0  0  0  0  0  0  0  0  0  0
    7.5499  -13.5411   26.7781 C   0  0  0  0  0  0  0  0  0  0  0  0
    7.4324  -12.4009   27.5455 C   0  0  0  0  0  0  0  0  0  0  0  0
    7.0468  -11.2410   26.9149 C   0  0  0  0  0  0  0  0  0  0  0  0
    6.7880  -11.2270   25.5588 C   0  0  0  0  0  0  0  0  0  0  0  0
    6.9082  -12.3649   24.8085 C   0  0  0  0  0  0  0  0  0  0  0  0
    7.2909  -13.5391   25.4070 C   0  0  0  0  0  0  0  0  0  0  0  0
    8.8916  -17.0880   23.7464 C   0  0  0  0  0  0  0  0  0  0  0  0
    8.3561  -18.2168   23.5416 O   0  0  0  0  0  0  0  0  0  0  0  0
   14.0057  -18.4083   24.4272 C   0  0  0  0  0  0  0  0  0  0  0  0
   12.9482  -18.5969   23.3465 C   0  0  2  0  0  0  0  0  0  0  0  0
   13.5713  -18.5999   22.0074 C   0  0  0  0  0  0  0  0  0  0  0  0
   11.7434  -17.7713   23.5638 C   0  0  0  0  0  0  0  0  0  0  0  0
   10.9996  -17.8810   24.8368 C   0  0  2  0  0  0  0  0  0  0  0  0
    9.8408  -16.9692   24.7681 N   0  0  0  0  0  0  0  0  0  0  0  0
   11.7130  -17.6019   26.0792 C   0  0  0  0  0  0  0  0  0  0  0  0
   12.1049  -18.5104   26.8747 O   0  0  0  0  0  0  0  0  0  0  0  0
   11.9868  -16.2656   26.4288 O   0  0  0  0  0  0  0  0  0  0  0  0
  2  1  1  0
  3  2  1  0
  3  4  1  1
  5  3  1  0
  5  6  1  6
  7  5  1  0
  8  7  2  0
  9  7  1  0
 10 21  1  0
 10  9  1  0
 10 11  1  1
 12 11  1  0
 13 12  2  0
 14 13  1  0
 15 14  1  0
 15 20  2  0
 16 15  1  0
 17 16  2  0
 17 18  1  0
 18 19  2  0
 19 20  1  0
 20 12  1  0
 21 28  1  0
 22 21  2  0
 24 23  1  1
 24 25  1  0
 24 26  1  0
 27 26  1  6
 27 29  1  0
 28 27  1  0
 29 30  2  0
 29 31  1  0
M  END
$$$$
