IWL.pdb
     RDKit          3D

 31 32  0  0  1  0  0  0  0  0999 V2000
   15.0765  -18.1460   21.3532 C   0  0  0  0  0  0  0  0  0  0  0  0
   13.8362  -17.2979   21.0474 C   0  0  0  0  0  0  0  0  0  0  0  0
   12.6852  -18.2300   20.7432 C   0  0  2  0  0  0  0  0  0  0  0  0
   13.0675  -19.2826   19.7346 C   0  0  0  0  0  0  0  0  0  0  0  0
   11.4181  -17.5127   20.4198 C   0  0  2  0  0  0  0  0  0  0  0  0
   11.6504  -16.7232   19.2155 N   0  0  0  0  0  0  0  0  0  0  0  0
   10.8448  -16.7201   21.5077 C   0  0  0  0  0  0  0  0  0  0  0  0
   11.2338  -15.5259   21.6339 O   0  0  0  0  0  0  0  0  0  0  0  0
    9.8888  -17.1768   22.4346 N   0  0  0  0  0  0  0  0  0  0  0  0
    9.3608  -16.3147   23.5149 C   0  0  1  0  0  0  0  0  0  0  0  0
    7.8658  -16.4786   23.5553 C   0  0  0  0  0  0  0  0  0  0  0  0
    7.1681  -15.7192   24.5932 C   0  0  0  0  0  0  0  0  0  0  0  0
    6.4297  -16.1903   25.6701 C   0  0  0  0  0  0  0  0  0  0  0  0
    5.9378  -15.1616   26.3716 N   0  0  0  0  0  0  0  0  0  0  0  0
    6.3220  -14.0079   25.8008 C   0  0  0  0  0  0  0  0  0  0  0  0
    6.0672  -12.6995   26.1551 C   0  0  0  0  0  0  0  0  0  0  0  0
    6.6021  -11.7066   25.3678 C   0  0  0  0  0  0  0  0  0  0  0  0
    7.3672  -12.0178   24.2615 C   0  0  0  0  0  0  0  0  0  0  0  0
    7.6127  -13.3200   23.9206 C   0  0  0  0  0  0  0  0  0  0  0  0
    7.0937  -14.3346   24.6851 C   0  0  0  0  0  0  0  0  0  0  0  0
    9.9217  -16.8533   24.7818 C   0  0  0  0  0  0  0  0  0  0  0  0
   10.1508  -18.0945   24.8802 O   0  0  0  0  0  0  0  0  0  0  0  0
   11.9297  -13.8030   27.1874 C   0  0  0  0  0  0  0  0  0  0  0  0
   10.6303  -14.1553   27.9011 C   0  0  2  0  0  0  0  0  0  0  0  0
   10.3468  -13.1786   28.9722 C   0  0  0  0  0  0  0  0  0  0  0  0
   10.5083  -15.5947   28.2064 C   0  0  0  0  0  0  0  0  0  0  0  0
   10.7262  -16.5919   27.1368 C   0  0  2  0  0  0  0  0  0  0  0  0
   10.2092  -16.0274   25.8747 N   0  0  0  0  0  0  0  0  0  0  0  0
   10.1438  -17.9199   27.3022 C   0  0  0  0  0  0  0  0  0  0  0  0
   10.5691  -18.7647   28.1492 O   0  0  0  0  0  0  0  0  0  0  0  0
    9.0578  -18.2998   26.4903 O   0  0  0  0  0  0  0  0  0  0  0  0
  2  1  1  0
  3  2  1  0
  3  4  1  6
  5  3  1  0
  5  6  1  6
  7  5  1  0
  8  7  2  0
  9  7  1  0
 10 21  1  0
 10  9  1  0
 10 11  1  1
 12 11  1  0
 13 12  2  0
 14 13  1  0
 15 14  1  0
 15 20  2  0
 16 15  1  0
 17 16  2  0
 17 18  1  0
 18 19  2  0
 19 20  1  0
 20 12  1  0
 21 28  1  0
 22 21  2  0
 24 23  1  1
 24 25  1  0
 24 26  1  0
 27 26  1  1
 27 29  1  0
 28 27  1  0
 29 30  2  0
 29 31  1  0
M  END
$$$$
