IWL.pdb
     RDKit          3D

 31 32  0  0  1  0  0  0  0  0999 V2000
    8.2148  -14.2384   16.0145 C   0  0  0  0  0  0  0  0  0  0  0  0
    9.1497  -15.0420   16.9262 C   0  0  0  0  0  0  0  0  0  0  0  0
    8.8555  -14.6654   18.3607 C   0  0  2  0  0  0  0  0  0  0  0  0
    8.9215  -13.1749   18.5739 C   0  0  0  0  0  0  0  0  0  0  0  0
    9.6460  -15.4544   19.3493 C   0  0  2  0  0  0  0  0  0  0  0  0
    9.3791  -16.8673   19.1039 N   0  0  0  0  0  0  0  0  0  0  0  0
    9.4558  -15.0834   20.7516 C   0  0  0  0  0  0  0  0  0  0  0  0
    9.9555  -13.9929   21.1446 O   0  0  0  0  0  0  0  0  0  0  0  0
    8.7583  -15.8431   21.7097 N   0  0  0  0  0  0  0  0  0  0  0  0
    8.3649  -15.2886   23.0238 C   0  0  1  0  0  0  0  0  0  0  0  0
    7.0985  -15.9738   23.4601 C   0  0  0  0  0  0  0  0  0  0  0  0
    6.3937  -15.3572   24.5842 C   0  0  0  0  0  0  0  0  0  0  0  0
    5.4650  -15.9233   25.4468 C   0  0  0  0  0  0  0  0  0  0  0  0
    5.0437  -15.0084   26.3286 N   0  0  0  0  0  0  0  0  0  0  0  0
    5.6603  -13.8395   26.0880 C   0  0  0  0  0  0  0  0  0  0  0  0
    5.5560  -12.6192   26.7225 C   0  0  0  0  0  0  0  0  0  0  0  0
    6.3243  -11.5821   26.2472 C   0  0  0  0  0  0  0  0  0  0  0  0
    7.1692  -11.7649   25.1706 C   0  0  0  0  0  0  0  0  0  0  0  0
    7.2635  -12.9805   24.5498 C   0  0  0  0  0  0  0  0  0  0  0  0
    6.5104  -14.0361   24.9993 C   0  0  0  0  0  0  0  0  0  0  0  0
    9.4473  -15.6664   23.9700 C   0  0  0  0  0  0  0  0  0  0  0  0
   10.3448  -16.4764   23.5940 O   0  0  0  0  0  0  0  0  0  0  0  0
   10.6331  -14.7755   29.9786 C   0  0  0  0  0  0  0  0  0  0  0  0
   11.2309  -15.1847   28.6381 C   0  0  2  0  0  0  0  0  0  0  0  0
   12.6478  -14.7758   28.5567 C   0  0  0  0  0  0  0  0  0  0  0  0
   10.3440  -14.8925   27.4943 C   0  0  0  0  0  0  0  0  0  0  0  0
   10.6046  -15.5262   26.1842 C   0  0  2  0  0  0  0  0  0  0  0  0
    9.5085  -15.1504   25.2697 N   0  0  0  0  0  0  0  0  0  0  0  0
   10.7468  -16.9780   26.1359 C   0  0  0  0  0  0  0  0  0  0  0  0
   11.8718  -17.5649   26.0919 O   0  0  0  0  0  0  0  0  0  0  0  0
    9.5908  -17.7820   26.1358 O   0  0  0  0  0  0  0  0  0  0  0  0
  2  1  1  0
  3  2  1  0
  3  4  1  6
  5  3  1  0
  5  6  1  1
  7  5  1  0
  8  7  2  0
  9  7  1  0
 10 21  1  0
 10  9  1  0
 10 11  1  1
 12 11  1  0
 13 12  2  0
 14 13  1  0
 15 14  1  0
 15 20  2  0
 16 15  1  0
 17 16  2  0
 17 18  1  0
 18 19  2  0
 19 20  1  0
 20 12  1  0
 21 28  1  0
 22 21  2  0
 24 23  1  1
 24 25  1  0
 24 26  1  0
 27 26  1  1
 27 29  1  0
 28 27  1  0
 29 30  2  0
 29 31  1  0
M  END
$$$$
