IWL.pdb
     RDKit          3D

 31 32  0  0  1  0  0  0  0  0999 V2000
   14.5800  -17.9286   18.8133 C   0  0  0  0  0  0  0  0  0  0  0  0
   13.0530  -17.8378   18.7081 C   0  0  0  0  0  0  0  0  0  0  0  0
   12.5383  -17.0675   19.9030 C   0  0  2  0  0  0  0  0  0  0  0  0
   13.1669  -17.5408   21.1885 C   0  0  0  0  0  0  0  0  0  0  0  0
   11.0499  -16.9836   19.9513 C   0  0  2  0  0  0  0  0  0  0  0  0
   10.5950  -16.4378   18.6774 N   0  0  0  0  0  0  0  0  0  0  0  0
   10.4939  -16.2665   21.0989 C   0  0  0  0  0  0  0  0  0  0  0  0
   10.5994  -15.0088   21.1141 O   0  0  0  0  0  0  0  0  0  0  0  0
    9.8458  -16.8618   22.1977 N   0  0  0  0  0  0  0  0  0  0  0  0
    9.3085  -16.0668   23.3239 C   0  0  1  0  0  0  0  0  0  0  0  0
    7.8236  -16.2984   23.3931 C   0  0  0  0  0  0  0  0  0  0  0  0
    7.1171  -15.5952   24.4641 C   0  0  0  0  0  0  0  0  0  0  0  0
    6.3767  -16.1232   25.5130 C   0  0  0  0  0  0  0  0  0  0  0  0
    5.8759  -15.1332   26.2622 N   0  0  0  0  0  0  0  0  0  0  0  0
    6.2558  -13.9506   25.7509 C   0  0  0  0  0  0  0  0  0  0  0  0
    5.9918  -12.6627   26.1684 C   0  0  0  0  0  0  0  0  0  0  0  0
    6.5242  -11.6291   25.4336 C   0  0  0  0  0  0  0  0  0  0  0  0
    7.2958  -11.8809   24.3167 C   0  0  0  0  0  0  0  0  0  0  0  0
    7.5504  -13.1632   23.9129 C   0  0  0  0  0  0  0  0  0  0  0  0
    7.0341  -14.2173   24.6240 C   0  0  0  0  0  0  0  0  0  0  0  0
    9.9244  -16.6289   24.5545 C   0  0  0  0  0  0  0  0  0  0  0  0
   10.4278  -17.7901   24.5211 O   0  0  0  0  0  0  0  0  0  0  0  0
   11.5314  -13.6212   27.4147 C   0  0  0  0  0  0  0  0  0  0  0  0
   10.2306  -14.1725   27.9856 C   0  0  2  0  0  0  0  0  0  0  0  0
    9.7854  -13.3611   29.1365 C   0  0  0  0  0  0  0  0  0  0  0  0
   10.2319  -15.6433   28.1158 C   0  0  0  0  0  0  0  0  0  0  0  0
   10.6077  -16.4813   26.9572 C   0  0  2  0  0  0  0  0  0  0  0  0
    9.9686  -15.9108   25.7551 N   0  0  0  0  0  0  0  0  0  0  0  0
   10.2845  -17.9040   27.0007 C   0  0  0  0  0  0  0  0  0  0  0  0
   10.9234  -18.7403   27.7108 O   0  0  0  0  0  0  0  0  0  0  0  0
    9.2164  -18.3899   26.2223 O   0  0  0  0  0  0  0  0  0  0  0  0
  2  1  1  0
  3  2  1  0
  3  4  1  1
  5  3  1  0
  5  6  1  6
  7  5  1  0
  8  7  2  0
  9  7  1  0
 10 21  1  0
 10  9  1  0
 10 11  1  1
 12 11  1  0
 13 12  2  0
 14 13  1  0
 15 14  1  0
 15 20  2  0
 16 15  1  0
 17 16  2  0
 17 18  1  0
 18 19  2  0
 19 20  1  0
 20 12  1  0
 21 28  1  0
 22 21  2  0
 24 23  1  1
 24 25  1  0
 24 26  1  0
 27 26  1  1
 27 29  1  0
 28 27  1  0
 29 30  2  0
 29 31  1  0
M  END
$$$$
