IWL.pdb
     RDKit          3D

 31 32  0  0  1  0  0  0  0  0999 V2000
    9.0067  -21.2542   19.8766 C   0  0  0  0  0  0  0  0  0  0  0  0
    7.8914  -20.9408   20.8810 C   0  0  0  0  0  0  0  0  0  0  0  0
    8.3151  -21.4544   22.2386 C   0  0  2  0  0  0  0  0  0  0  0  0
    8.8031  -22.8788   22.1720 C   0  0  0  0  0  0  0  0  0  0  0  0
    7.2981  -21.2114   23.3022 C   0  0  2  0  0  0  0  0  0  0  0  0
    6.1551  -22.0754   23.0286 N   0  0  0  0  0  0  0  0  0  0  0  0
    6.9103  -19.8145   23.4991 C   0  0  0  0  0  0  0  0  0  0  0  0
    5.8975  -19.3916   22.8756 O   0  0  0  0  0  0  0  0  0  0  0  0
    7.5739  -18.8924   24.3303 N   0  0  0  0  0  0  0  0  0  0  0  0
    7.1834  -17.4670   24.3989 C   0  0  1  0  0  0  0  0  0  0  0  0
    7.2502  -17.0327   25.8378 C   0  0  0  0  0  0  0  0  0  0  0  0
    6.9081  -15.6344   26.0992 C   0  0  0  0  0  0  0  0  0  0  0  0
    5.6557  -15.0371   26.1426 C   0  0  0  0  0  0  0  0  0  0  0  0
    5.7825  -13.7280   26.3927 N   0  0  0  0  0  0  0  0  0  0  0  0
    7.0843  -13.4221   26.5199 C   0  0  0  0  0  0  0  0  0  0  0  0
    7.7051  -12.2175   26.7773 C   0  0  0  0  0  0  0  0  0  0  0  0
    9.0784  -12.2077   26.8534 C   0  0  0  0  0  0  0  0  0  0  0  0
    9.8037  -13.3692   26.6768 C   0  0  0  0  0  0  0  0  0  0  0  0
    9.1759  -14.5579   26.4220 C   0  0  0  0  0  0  0  0  0  0  0  0
    7.8067  -14.6021   26.3396 C   0  0  0  0  0  0  0  0  0  0  0  0
    8.2200  -16.7198   23.6395 C   0  0  0  0  0  0  0  0  0  0  0  0
    9.3708  -17.2279   23.4966 O   0  0  0  0  0  0  0  0  0  0  0  0
    9.5112  -13.0670   19.8125 C   0  0  0  0  0  0  0  0  0  0  0  0
    8.0231  -13.3771   19.9189 C   0  0  2  0  0  0  0  0  0  0  0  0
    7.2204  -12.2337   19.4397 C   0  0  0  0  0  0  0  0  0  0  0  0
    7.6535  -14.0133   21.1991 C   0  0  0  0  0  0  0  0  0  0  0  0
    8.4743  -15.1224   21.7302 C   0  0  2  0  0  0  0  0  0  0  0  0
    7.9628  -15.4667   23.0714 N   0  0  0  0  0  0  0  0  0  0  0  0
    9.9158  -14.9225   21.8412 C   0  0  0  0  0  0  0  0  0  0  0  0
   10.7037  -14.9792   20.8473 O   0  0  0  0  0  0  0  0  0  0  0  0
   10.4770  -14.6543   23.1045 O   0  0  0  0  0  0  0  0  0  0  0  0
  2  1  1  0
  3  2  1  0
  3  4  1  6
  5  3  1  0
  5  6  1  6
  7  5  1  0
  8  7  2  0
  9  7  1  0
 10 21  1  0
 10  9  1  0
 10 11  1  1
 12 11  1  0
 13 12  2  0
 14 13  1  0
 15 14  1  0
 15 20  2  0
 16 15  1  0
 17 16  2  0
 17 18  1  0
 18 19  2  0
 19 20  1  0
 20 12  1  0
 21 28  1  0
 22 21  2  0
 24 23  1  1
 24 25  1  0
 24 26  1  0
 27 26  1  1
 27 29  1  0
 28 27  1  0
 29 30  2  0
 29 31  1  0
M  END
$$$$
