PLP.pdb
     RDKit          3D

 23 24  0  0  1  0  0  0  0  0999 V2000
    7.5990  -16.4118   21.3030 N   0  0  0  0  0  0  0  0  0  0  0  0
    7.3577  -16.5236   19.8738 C   0  0  0  0  0  0  0  0  0  0  0  0
    7.6745  -15.1698   19.2808 C   0  0  0  0  0  0  0  0  0  0  0  0
    8.2260  -14.3746   20.4503 C   0  0  0  0  0  0  0  0  0  0  0  0
    8.6751  -15.4721   21.3723 C   0  0  1  0  0  0  0  0  0  0  0  0
    8.9410  -14.9934   22.7508 C   0  0  0  0  0  0  0  0  0  0  0  0
   10.0255  -14.3993   22.9832 O   0  0  0  0  0  0  0  0  0  0  0  0
    5.1891  -12.4138   26.1827 C   0  0  0  0  0  0  0  0  0  0  0  0
    6.3974  -12.8549   25.4609 C   0  0  1  0  0  0  0  0  0  0  0  0
    7.4222  -11.7104   25.5944 C   0  0  0  0  0  0  0  0  0  0  0  0
    7.0013  -14.1591   25.7276 C   0  0  0  0  0  0  0  0  0  0  0  0
    8.3025  -14.5771   25.1490 C   0  0  2  0  0  0  0  0  0  0  0  0
    8.0383  -15.1717   23.8122 N   0  0  0  0  0  0  0  0  0  0  0  0
    9.1694  -15.3919   25.9707 C   0  0  0  0  0  0  0  0  0  0  0  0
    9.3626  -16.6268   25.6555 O   0  0  0  0  0  0  0  0  0  0  0  0
    9.8858  -15.0075   27.1485 N   0  0  0  0  0  0  0  0  0  0  0  0
    9.7623  -13.7930   27.8689 C   0  0  0  0  0  0  0  0  0  0  0  0
   10.5092  -14.0360   29.1769 C   0  0  0  0  0  0  0  0  0  0  0  0
   11.6331  -14.9550   28.7411 C   0  0  0  0  0  0  0  0  0  0  0  0
   10.8991  -15.8687   27.7798 C   0  0  1  0  0  0  0  0  0  0  0  0
   10.2613  -16.9387   28.5650 C   0  0  0  0  0  0  0  0  0  0  0  0
   11.0331  -17.9378   29.1075 O   0  0  0  0  0  0  0  0  0  0  0  0
    9.0304  -16.9413   28.7385 O   0  0  0  0  0  0  0  0  0  0  0  0
  2  3  1  0
  2  1  1  0
  3  4  1  0
  5  4  1  0
  5  1  1  0
  5  6  1  1
  6  7  2  0
  9  8  1  1
  9 10  1  0
 11  9  1  0
 12 11  1  1
 12 14  1  0
 13  6  1  0
 13 12  1  0
 14 15  2  0
 16 14  1  0
 16 17  1  0
 17 18  1  0
 19 18  1  0
 20 16  1  0
 20 19  1  0
 21 22  1  0
 20 21  1  1
 23 21  2  0
M  END
$$$$
