PLP.pdb
     RDKit          3D

 23 24  0  0  1  0  0  0  0  0999 V2000
    7.7483  -16.6821   21.0250 N   0  0  0  0  0  0  0  0  0  0  0  0
    7.5462  -16.8905   19.6006 C   0  0  0  0  0  0  0  0  0  0  0  0
    7.8492  -15.5706   18.9294 C   0  0  0  0  0  0  0  0  0  0  0  0
    8.3535  -14.6898   20.0582 C   0  0  0  0  0  0  0  0  0  0  0  0
    8.8020  -15.7155   21.0596 C   0  0  1  0  0  0  0  0  0  0  0  0
    9.0223  -15.1437   22.4104 C   0  0  0  0  0  0  0  0  0  0  0  0
   10.1105  -14.5579   22.6462 O   0  0  0  0  0  0  0  0  0  0  0  0
    7.2934  -11.5446   26.1572 C   0  0  0  0  0  0  0  0  0  0  0  0
    6.9117  -12.9650   26.2666 C   0  0  1  0  0  0  0  0  0  0  0  0
    5.4967  -12.9861   26.8793 C   0  0  0  0  0  0  0  0  0  0  0  0
    7.0212  -13.8659   25.1207 C   0  0  0  0  0  0  0  0  0  0  0  0
    8.2910  -14.5329   24.7395 C   0  0  2  0  0  0  0  0  0  0  0  0
    8.0722  -15.2248   23.4420 N   0  0  0  0  0  0  0  0  0  0  0  0
    8.9295  -15.3719   25.7290 C   0  0  0  0  0  0  0  0  0  0  0  0
    8.7807  -16.6508   25.6649 O   0  0  0  0  0  0  0  0  0  0  0  0
    9.7491  -14.9692   26.8308 N   0  0  0  0  0  0  0  0  0  0  0  0
    9.8123  -13.6852   27.4279 C   0  0  0  0  0  0  0  0  0  0  0  0
   10.5934  -13.8933   28.7219 C   0  0  0  0  0  0  0  0  0  0  0  0
   11.5729  -14.9839   28.3361 C   0  0  0  0  0  0  0  0  0  0  0  0
   10.6833  -15.8862   27.5042 C   0  0  1  0  0  0  0  0  0  0  0  0
    9.9638  -16.7870   28.4202 C   0  0  0  0  0  0  0  0  0  0  0  0
   10.6409  -17.8078   29.0429 O   0  0  0  0  0  0  0  0  0  0  0  0
    8.7492  -16.6278   28.6316 O   0  0  0  0  0  0  0  0  0  0  0  0
  2  3  1  0
  2  1  1  0
  3  4  1  0
  5  4  1  0
  5  1  1  0
  5  6  1  1
  6  7  2  0
  9  8  1  6
  9 10  1  0
 11  9  1  0
 12 11  1  1
 12 14  1  0
 13  6  1  0
 13 12  1  0
 14 15  2  0
 16 14  1  0
 16 17  1  0
 17 18  1  0
 19 18  1  0
 20 16  1  0
 20 19  1  0
 21 22  1  0
 20 21  1  1
 23 21  2  0
M  END
$$$$
