PLP.pdb
     RDKit          3D

 23 24  0  0  1  0  0  0  0  0999 V2000
    7.9214  -16.7594   20.9444 N   0  0  0  0  0  0  0  0  0  0  0  0
    7.8070  -17.0432   19.5232 C   0  0  0  0  0  0  0  0  0  0  0  0
    8.2488  -15.7908   18.8015 C   0  0  0  0  0  0  0  0  0  0  0  0
    8.7320  -14.8758   19.9122 C   0  0  0  0  0  0  0  0  0  0  0  0
    9.0351  -15.8638   21.0022 C   0  0  1  0  0  0  0  0  0  0  0  0
    9.1982  -15.2239   22.3304 C   0  0  0  0  0  0  0  0  0  0  0  0
   10.2825  -14.6399   22.5884 O   0  0  0  0  0  0  0  0  0  0  0  0
    7.2639  -11.4746   25.9860 C   0  0  0  0  0  0  0  0  0  0  0  0
    6.9192  -12.9078   26.0355 C   0  0  1  0  0  0  0  0  0  0  0  0
    5.4815  -12.9875   26.5873 C   0  0  0  0  0  0  0  0  0  0  0  0
    7.1018  -13.7683   24.8681 C   0  0  0  0  0  0  0  0  0  0  0  0
    8.3687  -14.4896   24.5899 C   0  0  2  0  0  0  0  0  0  0  0  0
    8.1982  -15.2383   23.3168 N   0  0  0  0  0  0  0  0  0  0  0  0
    8.9264  -15.2966   25.6521 C   0  0  0  0  0  0  0  0  0  0  0  0
    8.7818  -16.5771   25.6162 O   0  0  0  0  0  0  0  0  0  0  0  0
    9.6572  -14.8588   26.8019 N   0  0  0  0  0  0  0  0  0  0  0  0
    9.6064  -13.5817   27.4148 C   0  0  0  0  0  0  0  0  0  0  0  0
   10.3267  -13.7585   28.7481 C   0  0  0  0  0  0  0  0  0  0  0  0
   11.3928  -14.7805   28.4064 C   0  0  0  0  0  0  0  0  0  0  0  0
   10.6088  -15.7250   27.5169 C   0  0  1  0  0  0  0  0  0  0  0  0
    9.8983  -16.6814   28.3821 C   0  0  0  0  0  0  0  0  0  0  0  0
    8.5324  -16.6003   28.5089 O   0  0  0  0  0  0  0  0  0  0  0  0
   10.5279  -17.5596   28.9964 O   0  0  0  0  0  0  0  0  0  0  0  0
  2  3  1  0
  2  1  1  0
  3  4  1  0
  5  4  1  0
  5  1  1  0
  5  6  1  1
  6  7  2  0
  9  8  1  6
  9 10  1  0
 11  9  1  0
 12 11  1  1
 12 14  1  0
 13  6  1  0
 13 12  1  0
 14 15  2  0
 16 14  1  0
 16 17  1  0
 17 18  1  0
 19 18  1  0
 20 16  1  0
 20 19  1  0
 21 22  1  0
 20 21  1  1
 23 21  2  0
M  END
$$$$
