PLP.pdb
     RDKit          3D

 23 24  0  0  1  0  0  0  0  0999 V2000
    9.9479  -16.1769   20.4847 N   0  0  0  0  0  0  0  0  0  0  0  0
    9.7507  -17.2674   19.5439 C   0  0  0  0  0  0  0  0  0  0  0  0
    9.2992  -18.4574   20.3591 C   0  0  0  0  0  0  0  0  0  0  0  0
    9.1368  -17.9029   21.7628 C   0  0  0  0  0  0  0  0  0  0  0  0
    8.9603  -16.4371   21.4862 C   0  0  1  0  0  0  0  0  0  0  0  0
    9.1263  -15.5983   22.6981 C   0  0  0  0  0  0  0  0  0  0  0  0
   10.2830  -15.2144   23.0109 O   0  0  0  0  0  0  0  0  0  0  0  0
    7.4051  -11.4646   26.2086 C   0  0  0  0  0  0  0  0  0  0  0  0
    6.9244  -12.8572   26.2802 C   0  0  1  0  0  0  0  0  0  0  0  0
    5.4814  -12.7888   26.8195 C   0  0  0  0  0  0  0  0  0  0  0  0
    7.0328  -13.7527   25.1299 C   0  0  0  0  0  0  0  0  0  0  0  0
    8.2841  -14.4724   24.7852 C   0  0  2  0  0  0  0  0  0  0  0  0
    8.0518  -15.2107   23.5158 N   0  0  0  0  0  0  0  0  0  0  0  0
    8.8916  -15.2884   25.8127 C   0  0  0  0  0  0  0  0  0  0  0  0
    8.6709  -16.5584   25.8247 O   0  0  0  0  0  0  0  0  0  0  0  0
    9.7508  -14.8704   26.8781 N   0  0  0  0  0  0  0  0  0  0  0  0
    9.9252  -13.5534   27.3722 C   0  0  0  0  0  0  0  0  0  0  0  0
   10.6968  -13.7240   28.6774 C   0  0  0  0  0  0  0  0  0  0  0  0
   11.5792  -14.9194   28.3771 C   0  0  0  0  0  0  0  0  0  0  0  0
   10.6109  -15.8067   27.6202 C   0  0  1  0  0  0  0  0  0  0  0  0
    9.8265  -16.5698   28.6053 C   0  0  0  0  0  0  0  0  0  0  0  0
   10.4259  -17.5808   29.3172 O   0  0  0  0  0  0  0  0  0  0  0  0
    8.6272  -16.3034   28.7948 O   0  0  0  0  0  0  0  0  0  0  0  0
  2  3  1  0
  2  1  1  0
  3  4  1  0
  5  4  1  0
  5  1  1  0
  5  6  1  1
  6  7  2  0
  9  8  1  6
  9 10  1  0
 11  9  1  0
 12 11  1  1
 12 14  1  0
 13  6  1  0
 13 12  1  0
 14 15  2  0
 16 14  1  0
 16 17  1  0
 17 18  1  0
 19 18  1  0
 20 16  1  0
 20 19  1  0
 21 22  1  0
 20 21  1  1
 23 21  2  0
M  END
$$$$
