PLP.pdb
     RDKit          3D

 23 24  0  0  1  0  0  0  0  0999 V2000
    7.5401  -16.1125   20.9836 N   0  0  0  0  0  0  0  0  0  0  0  0
    7.3270  -16.2217   19.5498 C   0  0  0  0  0  0  0  0  0  0  0  0
    7.7834  -14.9116   18.9499 C   0  0  0  0  0  0  0  0  0  0  0  0
    8.3754  -14.1542   20.1248 C   0  0  0  0  0  0  0  0  0  0  0  0
    8.6965  -15.2753   21.0714 C   0  0  1  0  0  0  0  0  0  0  0  0
    8.9694  -14.8038   22.4510 C   0  0  0  0  0  0  0  0  0  0  0  0
   10.0651  -14.2316   22.6861 O   0  0  0  0  0  0  0  0  0  0  0  0
    7.3929  -11.3910   26.3221 C   0  0  0  0  0  0  0  0  0  0  0  0
    6.9820  -12.8029   26.4359 C   0  0  1  0  0  0  0  0  0  0  0  0
    5.5788  -12.7943   27.0753 C   0  0  0  0  0  0  0  0  0  0  0  0
    7.0500  -13.7033   25.2863 C   0  0  0  0  0  0  0  0  0  0  0  0
    8.3128  -14.3394   24.8355 C   0  0  2  0  0  0  0  0  0  0  0  0
    8.0616  -14.9655   23.5107 N   0  0  0  0  0  0  0  0  0  0  0  0
    8.9850  -15.2229   25.7619 C   0  0  0  0  0  0  0  0  0  0  0  0
    8.8956  -16.4984   25.5976 O   0  0  0  0  0  0  0  0  0  0  0  0
    9.7804  -14.8702   26.8981 N   0  0  0  0  0  0  0  0  0  0  0  0
    9.7813  -13.6353   27.5939 C   0  0  0  0  0  0  0  0  0  0  0  0
   10.5659  -13.9077   28.8738 C   0  0  0  0  0  0  0  0  0  0  0  0
   11.5966  -14.9186   28.4119 C   0  0  0  0  0  0  0  0  0  0  0  0
   10.7533  -15.7931   27.5053 C   0  0  1  0  0  0  0  0  0  0  0  0
   10.0727  -16.7949   28.3428 C   0  0  0  0  0  0  0  0  0  0  0  0
    8.7198  -16.6939   28.5613 O   0  0  0  0  0  0  0  0  0  0  0  0
   10.7158  -17.7292   28.8514 O   0  0  0  0  0  0  0  0  0  0  0  0
  2  3  1  0
  2  1  1  0
  3  4  1  0
  5  4  1  0
  5  1  1  0
  5  6  1  1
  6  7  2  0
  9  8  1  6
  9 10  1  0
 11  9  1  0
 12 11  1  1
 12 14  1  0
 13  6  1  0
 13 12  1  0
 14 15  2  0
 16 14  1  0
 16 17  1  0
 17 18  1  0
 19 18  1  0
 20 16  1  0
 20 19  1  0
 21 22  1  0
 20 21  1  1
 23 21  2  0
M  END
$$$$
