PLP.pdb
     RDKit          3D

 23 24  0  0  1  0  0  0  0  0999 V2000
    9.9319  -16.0057   20.4138 N   0  0  0  0  0  0  0  0  0  0  0  0
    9.7663  -17.0850   19.4542 C   0  0  0  0  0  0  0  0  0  0  0  0
    9.4075  -18.3158   20.2548 C   0  0  0  0  0  0  0  0  0  0  0  0
    9.2585  -17.8016   21.6752 C   0  0  0  0  0  0  0  0  0  0  0  0
    8.9922  -16.3426   21.4382 C   0  0  1  0  0  0  0  0  0  0  0  0
    9.1492  -15.5220   22.6638 C   0  0  0  0  0  0  0  0  0  0  0  0
   10.3035  -15.1428   22.9909 O   0  0  0  0  0  0  0  0  0  0  0  0
    5.7456  -11.8304   26.3167 C   0  0  0  0  0  0  0  0  0  0  0  0
    6.9265  -12.6988   26.1528 C   0  0  1  0  0  0  0  0  0  0  0  0
    7.0211  -13.5462   27.4377 C   0  0  0  0  0  0  0  0  0  0  0  0
    7.1038  -13.5120   24.9512 C   0  0  0  0  0  0  0  0  0  0  0  0
    8.2876  -14.3805   24.7344 C   0  0  2  0  0  0  0  0  0  0  0  0
    8.0687  -15.1466   23.4792 N   0  0  0  0  0  0  0  0  0  0  0  0
    8.7199  -15.2101   25.8370 C   0  0  0  0  0  0  0  0  0  0  0  0
    8.2516  -16.4058   25.9505 O   0  0  0  0  0  0  0  0  0  0  0  0
    9.6437  -14.8811   26.8792 N   0  0  0  0  0  0  0  0  0  0  0  0
    9.8833  -13.6016   27.4401 C   0  0  0  0  0  0  0  0  0  0  0  0
   10.7134  -13.8719   28.6913 C   0  0  0  0  0  0  0  0  0  0  0  0
   11.5423  -15.0712   28.2763 C   0  0  0  0  0  0  0  0  0  0  0  0
   10.5104  -15.8840   27.5197 C   0  0  1  0  0  0  0  0  0  0  0  0
    9.7530  -16.6828   28.4976 C   0  0  0  0  0  0  0  0  0  0  0  0
   10.3608  -17.7408   29.1294 O   0  0  0  0  0  0  0  0  0  0  0  0
    8.5688  -16.4041   28.7529 O   0  0  0  0  0  0  0  0  0  0  0  0
  2  3  1  0
  2  1  1  0
  3  4  1  0
  5  4  1  0
  5  1  1  0
  5  6  1  1
  6  7  2  0
  9  8  1  6
  9 10  1  0
 11  9  1  0
 12 11  1  1
 12 14  1  0
 13  6  1  0
 13 12  1  0
 14 15  2  0
 16 14  1  0
 16 17  1  0
 17 18  1  0
 19 18  1  0
 20 16  1  0
 20 19  1  0
 21 22  1  0
 20 21  1  1
 23 21  2  0
M  END
$$$$
