PLP.pdb
     RDKit          3D

 23 24  0  0  1  0  0  0  0  0999 V2000
   10.2621  -16.3043   20.5326 N   0  0  0  0  0  0  0  0  0  0  0  0
   10.0958  -17.4105   19.6042 C   0  0  0  0  0  0  0  0  0  0  0  0
    9.5082  -18.5520   20.4019 C   0  0  0  0  0  0  0  0  0  0  0  0
    9.2455  -17.9491   21.7701 C   0  0  0  0  0  0  0  0  0  0  0  0
    9.1733  -16.4851   21.4424 C   0  0  1  0  0  0  0  0  0  0  0  0
    9.2700  -15.6206   22.6438 C   0  0  0  0  0  0  0  0  0  0  0  0
   10.4038  -15.2038   22.9961 O   0  0  0  0  0  0  0  0  0  0  0  0
    6.8963  -11.4385   26.1132 C   0  0  0  0  0  0  0  0  0  0  0  0
    6.8521  -12.9128   26.1128 C   0  0  1  0  0  0  0  0  0  0  0  0
    5.5153  -13.3050   26.7739 C   0  0  0  0  0  0  0  0  0  0  0  0
    7.0976  -13.6745   24.8896 C   0  0  0  0  0  0  0  0  0  0  0  0
    8.3182  -14.4928   24.6821 C   0  0  2  0  0  0  0  0  0  0  0  0
    8.1542  -15.2435   23.4094 N   0  0  0  0  0  0  0  0  0  0  0  0
    8.7602  -15.3252   25.7786 C   0  0  0  0  0  0  0  0  0  0  0  0
    8.3795  -16.5557   25.8320 O   0  0  0  0  0  0  0  0  0  0  0  0
    9.6064  -14.9644   26.8749 N   0  0  0  0  0  0  0  0  0  0  0  0
    9.7351  -13.6862   27.4738 C   0  0  0  0  0  0  0  0  0  0  0  0
   10.5152  -13.9340   28.7614 C   0  0  0  0  0  0  0  0  0  0  0  0
   11.4387  -15.0691   28.3662 C   0  0  0  0  0  0  0  0  0  0  0  0
   10.5008  -15.9263   27.5395 C   0  0  1  0  0  0  0  0  0  0  0  0
    9.7462  -16.7938   28.4593 C   0  0  0  0  0  0  0  0  0  0  0  0
    8.4065  -16.5670   28.6642 O   0  0  0  0  0  0  0  0  0  0  0  0
   10.3153  -17.7281   29.0496 O   0  0  0  0  0  0  0  0  0  0  0  0
  2  3  1  0
  2  1  1  0
  3  4  1  0
  5  4  1  0
  5  1  1  0
  5  6  1  1
  6  7  2  0
  9  8  1  6
  9 10  1  0
 11  9  1  0
 12 11  1  1
 12 14  1  0
 13  6  1  0
 13 12  1  0
 14 15  2  0
 16 14  1  0
 16 17  1  0
 17 18  1  0
 19 18  1  0
 20 16  1  0
 20 19  1  0
 21 22  1  0
 20 21  1  1
 23 21  2  0
M  END
$$$$
