PLP.pdb
     RDKit          3D

 23 24  0  0  1  0  0  0  0  0999 V2000
   10.3356  -16.2952   20.5734 N   0  0  0  0  0  0  0  0  0  0  0  0
   10.1292  -17.3422   19.5862 C   0  0  0  0  0  0  0  0  0  0  0  0
    9.4379  -18.4770   20.3065 C   0  0  0  0  0  0  0  0  0  0  0  0
    9.1670  -17.9230   21.6936 C   0  0  0  0  0  0  0  0  0  0  0  0
    9.2050  -16.4436   21.4369 C   0  0  1  0  0  0  0  0  0  0  0  0
    9.3160  -15.6457   22.6823 C   0  0  0  0  0  0  0  0  0  0  0  0
   10.4619  -15.3298   23.0949 O   0  0  0  0  0  0  0  0  0  0  0  0
    6.0224  -11.6835   26.1134 C   0  0  0  0  0  0  0  0  0  0  0  0
    6.8644  -12.8944   26.0991 C   0  0  1  0  0  0  0  0  0  0  0  0
    6.2545  -13.8568   27.1382 C   0  0  0  0  0  0  0  0  0  0  0  0
    7.1821  -13.5775   24.8464 C   0  0  0  0  0  0  0  0  0  0  0  0
    8.3682  -14.4552   24.6865 C   0  0  2  0  0  0  0  0  0  0  0  0
    8.2008  -15.2244   23.4254 N   0  0  0  0  0  0  0  0  0  0  0  0
    8.7440  -15.2837   25.8104 C   0  0  0  0  0  0  0  0  0  0  0  0
    8.3154  -16.4979   25.8725 O   0  0  0  0  0  0  0  0  0  0  0  0
    9.5689  -14.9349   26.9267 N   0  0  0  0  0  0  0  0  0  0  0  0
    9.7056  -13.6576   27.5256 C   0  0  0  0  0  0  0  0  0  0  0  0
   10.4485  -13.9157   28.8329 C   0  0  0  0  0  0  0  0  0  0  0  0
   11.3610  -15.0684   28.4638 C   0  0  0  0  0  0  0  0  0  0  0  0
   10.4288  -15.9109   27.6158 C   0  0  1  0  0  0  0  0  0  0  0  0
    9.6358  -16.7621   28.5185 C   0  0  0  0  0  0  0  0  0  0  0  0
   10.2454  -17.7921   29.1935 O   0  0  0  0  0  0  0  0  0  0  0  0
    8.4202  -16.5527   28.6716 O   0  0  0  0  0  0  0  0  0  0  0  0
  2  3  1  0
  2  1  1  0
  3  4  1  0
  5  4  1  0
  5  1  1  0
  5  6  1  1
  6  7  2  0
  9  8  1  6
  9 10  1  0
 11  9  1  0
 12 11  1  1
 12 14  1  0
 13  6  1  0
 13 12  1  0
 14 15  2  0
 16 14  1  0
 16 17  1  0
 17 18  1  0
 19 18  1  0
 20 16  1  0
 20 19  1  0
 21 22  1  0
 20 21  1  1
 23 21  2  0
M  END
$$$$
