PLP.pdb
     RDKit          3D

 23 24  0  0  1  0  0  0  0  0999 V2000
    7.5120  -15.6434   21.0617 N   0  0  0  0  0  0  0  0  0  0  0  0
    7.3131  -15.5743   19.6234 C   0  0  0  0  0  0  0  0  0  0  0  0
    7.8195  -14.2184   19.1877 C   0  0  0  0  0  0  0  0  0  0  0  0
    8.4216  -13.6266   20.4492 C   0  0  0  0  0  0  0  0  0  0  0  0
    8.6941  -14.8625   21.2582 C   0  0  1  0  0  0  0  0  0  0  0  0
    8.9654  -14.5677   22.6863 C   0  0  0  0  0  0  0  0  0  0  0  0
   10.0458  -13.9982   22.9889 O   0  0  0  0  0  0  0  0  0  0  0  0
    5.0810  -12.4044   26.2143 C   0  0  0  0  0  0  0  0  0  0  0  0
    6.3190  -12.7536   25.4927 C   0  0  1  0  0  0  0  0  0  0  0  0
    7.3045  -11.5934   25.7391 C   0  0  0  0  0  0  0  0  0  0  0  0
    6.9566  -14.0562   25.6751 C   0  0  0  0  0  0  0  0  0  0  0  0
    8.2845  -14.3898   25.1024 C   0  0  2  0  0  0  0  0  0  0  0  0
    8.0723  -14.8946   23.7202 N   0  0  0  0  0  0  0  0  0  0  0  0
    9.1585  -15.2338   25.8863 C   0  0  0  0  0  0  0  0  0  0  0  0
    9.3201  -16.4666   25.5457 O   0  0  0  0  0  0  0  0  0  0  0  0
    9.9139  -14.8822   27.0498 N   0  0  0  0  0  0  0  0  0  0  0  0
    9.8790  -13.6535   27.7556 C   0  0  0  0  0  0  0  0  0  0  0  0
   10.6261  -13.9283   29.0572 C   0  0  0  0  0  0  0  0  0  0  0  0
   11.6822  -14.9237   28.6195 C   0  0  0  0  0  0  0  0  0  0  0  0
   10.8777  -15.7995   27.6796 C   0  0  1  0  0  0  0  0  0  0  0  0
   10.1826  -16.8161   28.4868 C   0  0  0  0  0  0  0  0  0  0  0  0
    8.8259  -16.7195   28.6823 O   0  0  0  0  0  0  0  0  0  0  0  0
   10.8170  -17.7589   28.9906 O   0  0  0  0  0  0  0  0  0  0  0  0
  2  3  1  0
  2  1  1  0
  3  4  1  0
  5  4  1  0
  5  1  1  0
  5  6  1  1
  6  7  2  0
  9  8  1  1
  9 10  1  0
 11  9  1  0
 12 11  1  1
 12 14  1  0
 13  6  1  0
 13 12  1  0
 14 15  2  0
 16 14  1  0
 16 17  1  0
 17 18  1  0
 19 18  1  0
 20 16  1  0
 20 19  1  0
 21 22  1  0
 20 21  1  1
 23 21  2  0
M  END
$$$$
