PLP.pdb
     RDKit          3D

 23 24  0  0  1  0  0  0  0  0999 V2000
    7.8355  -16.6971   21.0062 N   0  0  0  0  0  0  0  0  0  0  0  0
    7.6512  -16.9114   19.5802 C   0  0  0  0  0  0  0  0  0  0  0  0
    7.9432  -15.5888   18.9091 C   0  0  0  0  0  0  0  0  0  0  0  0
    8.4234  -14.6988   20.0411 C   0  0  0  0  0  0  0  0  0  0  0  0
    8.8754  -15.7160   21.0496 C   0  0  1  0  0  0  0  0  0  0  0  0
    9.0735  -15.1383   22.4013 C   0  0  0  0  0  0  0  0  0  0  0  0
   10.1985  -14.6546   22.6904 O   0  0  0  0  0  0  0  0  0  0  0  0
    7.2814  -11.4479   26.1744 C   0  0  0  0  0  0  0  0  0  0  0  0
    6.8754  -12.8654   26.2099 C   0  0  1  0  0  0  0  0  0  0  0  0
    5.4414  -12.8900   26.7764 C   0  0  0  0  0  0  0  0  0  0  0  0
    7.0082  -13.7178   25.0298 C   0  0  0  0  0  0  0  0  0  0  0  0
    8.2736  -14.4059   24.6721 C   0  0  2  0  0  0  0  0  0  0  0  0
    8.0633  -15.1049   23.3769 N   0  0  0  0  0  0  0  0  0  0  0  0
    8.8857  -15.2461   25.6770 C   0  0  0  0  0  0  0  0  0  0  0  0
    8.7052  -16.5217   25.6306 O   0  0  0  0  0  0  0  0  0  0  0  0
    9.7097  -14.8480   26.7773 N   0  0  0  0  0  0  0  0  0  0  0  0
    9.8288  -13.5496   27.3332 C   0  0  0  0  0  0  0  0  0  0  0  0
   10.5811  -13.7529   28.6449 C   0  0  0  0  0  0  0  0  0  0  0  0
   11.5101  -14.9029   28.3096 C   0  0  0  0  0  0  0  0  0  0  0  0
   10.5877  -15.7872   27.4942 C   0  0  1  0  0  0  0  0  0  0  0  0
    9.8119  -16.6204   28.4281 C   0  0  0  0  0  0  0  0  0  0  0  0
   10.4326  -17.6415   29.1064 O   0  0  0  0  0  0  0  0  0  0  0  0
    8.6006  -16.4038   28.6046 O   0  0  0  0  0  0  0  0  0  0  0  0
  2  3  1  0
  2  1  1  0
  3  4  1  0
  5  4  1  0
  5  1  1  0
  5  6  1  1
  6  7  2  0
  9  8  1  6
  9 10  1  0
 11  9  1  0
 12 11  1  1
 12 14  1  0
 13  6  1  0
 13 12  1  0
 14 15  2  0
 16 14  1  0
 16 17  1  0
 17 18  1  0
 19 18  1  0
 20 16  1  0
 20 19  1  0
 21 22  1  0
 20 21  1  1
 23 21  2  0
M  END
$$$$
