WNQ.pdb
     RDKit          3D

 32 33  0  0  1  0  0  0  0  0999 V2000
   23.7345  -23.5351  -18.6640 N   0  0  0  0  0  0  0  0  0  0  0  0
   22.6481  -22.6100  -18.4170 C   0  0  1  0  0  0  0  0  0  0  0  0
   21.4995  -22.9860  -19.2911 C   0  0  0  0  0  0  0  0  0  0  0  0
   21.8528  -22.7955  -20.7322 C   0  0  0  0  0  0  0  0  0  0  0  0
   22.3663  -23.6979  -21.6391 C   0  0  0  0  0  0  0  0  0  0  0  0
   22.5411  -23.1091  -22.8462 N   0  0  0  0  0  0  0  0  0  0  0  0
   22.1522  -21.8306  -22.7552 C   0  0  0  0  0  0  0  0  0  0  0  0
   22.1210  -20.8079  -23.6726 C   0  0  0  0  0  0  0  0  0  0  0  0
   21.6653  -19.5446  -23.3332 C   0  0  0  0  0  0  0  0  0  0  0  0
   21.2423  -19.3418  -22.0446 C   0  0  0  0  0  0  0  0  0  0  0  0
   21.2727  -20.3644  -21.1246 C   0  0  0  0  0  0  0  0  0  0  0  0
   21.7231  -21.6084  -21.4645 C   0  0  0  0  0  0  0  0  0  0  0  0
   22.3754  -22.5066  -17.0010 C   0  0  0  0  0  0  0  0  0  0  0  0
   22.8273  -23.3900  -16.2235 O   0  0  0  0  0  0  0  0  0  0  0  0
   23.8310  -19.9313  -14.9879 N   0  0  0  0  0  0  0  0  0  0  0  0
   22.6638  -19.3950  -14.4430 C   0  0  0  0  0  0  0  0  0  0  0  0
   22.7445  -18.2314  -13.9295 O   0  0  0  0  0  0  0  0  0  0  0  0
   21.3370  -20.0278  -14.3940 C   0  0  0  0  0  0  0  0  0  0  0  0
   21.2949  -21.4032  -14.9883 C   0  0  2  0  0  0  0  0  0  0  0  0
   21.6265  -21.4792  -16.3678 N   0  0  0  0  0  0  0  0  0  0  0  0
   20.0111  -22.0832  -14.6510 C   0  0  0  0  0  0  0  0  0  0  0  0
   19.0152  -22.0463  -15.4183 O   0  0  0  0  0  0  0  0  0  0  0  0
   18.6714  -25.9373   -9.6136 N   0  0  0  0  0  0  0  0  0  0  0  0
   17.4493  -25.7813  -10.3015 C   0  0  0  0  0  0  0  0  0  0  0  0
   16.4369  -26.3803   -9.8759 O   0  0  0  0  0  0  0  0  0  0  0  0
   17.3915  -24.9256  -11.4963 C   0  0  0  0  0  0  0  0  0  0  0  0
   18.6843  -24.2604  -11.8650 C   0  0  0  0  0  0  0  0  0  0  0  0
   18.5443  -23.4208  -13.0767 C   0  0  2  0  0  0  0  0  0  0  0  0
   19.8402  -22.8127  -13.4419 N   0  0  0  0  0  0  0  0  0  0  0  0
   17.6629  -22.2614  -12.8038 C   0  0  0  0  0  0  0  0  0  0  0  0
   18.0571  -21.1976  -12.2411 O   0  0  0  0  0  0  0  0  0  0  0  0
   16.3317  -22.3320  -13.1846 O   0  0  0  0  0  0  0  0  0  0  0  0
  2  1  1  1
  2 13  1  0
  2  3  1  0
  3  4  1  0
  4 12  1  0
  4  5  2  0
  5  6  1  0
  7  8  2  0
  7  6  1  0
  9  8  1  0
 10  9  2  0
 11 10  1  0
 11 12  2  0
 12  7  1  0
 13 20  1  0
 13 14  2  0
 15 16  1  0
 16 18  1  0
 17 16  2  0
 19 18  1  6
 20 19  1  0
 21 22  2  0
 21 19  1  0
 23 24  1  0
 24 26  1  0
 25 24  2  0
 27 26  1  0
 28 27  1  1
 28 29  1  0
 29 21  1  0
 30 28  1  0
 30 32  1  0
 31 30  2  0
M  END
$$$$
