WNQ.pdb
     RDKit          3D

 32 33  0  0  1  0  0  0  0  0999 V2000
   28.4460  -22.0207  -10.7890 N   0  0  0  0  0  0  0  0  0  0  0  0
   27.2572  -21.2602  -10.4640 C   0  0  1  0  0  0  0  0  0  0  0  0
   27.6733  -20.0057   -9.7728 C   0  0  0  0  0  0  0  0  0  0  0  0
   28.5271  -20.3197   -8.5851 C   0  0  0  0  0  0  0  0  0  0  0  0
   29.7339  -20.9830   -8.5196 C   0  0  0  0  0  0  0  0  0  0  0  0
   30.1678  -21.0515   -7.2384 N   0  0  0  0  0  0  0  0  0  0  0  0
   29.2687  -20.4447   -6.4526 C   0  0  0  0  0  0  0  0  0  0  0  0
   29.2218  -20.2346   -5.0954 C   0  0  0  0  0  0  0  0  0  0  0  0
   28.1641  -19.5646   -4.5027 C   0  0  0  0  0  0  0  0  0  0  0  0
   27.1565  -19.1131   -5.3159 C   0  0  0  0  0  0  0  0  0  0  0  0
   27.2015  -19.3225   -6.6749 C   0  0  0  0  0  0  0  0  0  0  0  0
   28.2469  -19.9838   -7.2544 C   0  0  0  0  0  0  0  0  0  0  0  0
   26.4131  -21.1070  -11.6275 C   0  0  0  0  0  0  0  0  0  0  0  0
   26.9456  -21.0572  -12.7690 O   0  0  0  0  0  0  0  0  0  0  0  0
   25.2078  -24.1470  -13.0605 N   0  0  0  0  0  0  0  0  0  0  0  0
   24.1675  -23.2529  -13.3155 C   0  0  0  0  0  0  0  0  0  0  0  0
   22.9818  -23.6628  -13.0914 O   0  0  0  0  0  0  0  0  0  0  0  0
   24.2862  -21.8760  -13.8191 C   0  0  0  0  0  0  0  0  0  0  0  0
   24.1593  -20.8253  -12.7577 C   0  0  2  0  0  0  0  0  0  0  0  0
   24.9965  -21.0034  -11.6236 N   0  0  0  0  0  0  0  0  0  0  0  0
   22.7272  -20.6031  -12.4057 C   0  0  0  0  0  0  0  0  0  0  0  0
   22.2003  -21.1286  -11.3917 O   0  0  0  0  0  0  0  0  0  0  0  0
   19.3606  -15.8278  -12.9886 N   0  0  0  0  0  0  0  0  0  0  0  0
   18.2780  -16.7302  -12.9215 C   0  0  0  0  0  0  0  0  0  0  0  0
   17.1640  -16.3086  -12.5392 O   0  0  0  0  0  0  0  0  0  0  0  0
   18.4802  -18.1376  -13.2976 C   0  0  0  0  0  0  0  0  0  0  0  0
   19.8787  -18.4912  -13.7085 C   0  0  0  0  0  0  0  0  0  0  0  0
   20.4919  -19.4719  -12.7837 C   0  0  2  0  0  0  0  0  0  0  0  0
   21.8755  -19.7835  -13.1972 N   0  0  0  0  0  0  0  0  0  0  0  0
   19.7864  -20.7722  -12.8664 C   0  0  0  0  0  0  0  0  0  0  0  0
   19.9898  -21.6239  -13.7813 O   0  0  0  0  0  0  0  0  0  0  0  0
   18.8523  -21.0869  -11.8914 O   0  0  0  0  0  0  0  0  0  0  0  0
  2  1  1  6
  2 13  1  0
  2  3  1  0
  3  4  1  0
  4 12  1  0
  4  5  2  0
  5  6  1  0
  7  8  2  0
  7  6  1  0
  9  8  1  0
 10  9  2  0
 11 10  1  0
 11 12  2  0
 12  7  1  0
 13 20  1  0
 13 14  2  0
 15 16  1  0
 16 18  1  0
 17 16  2  0
 19 18  1  6
 20 19  1  0
 21 22  2  0
 21 19  1  0
 23 24  1  0
 24 26  1  0
 25 24  2  0
 27 26  1  0
 28 27  1  6
 28 29  1  0
 29 21  1  0
 30 28  1  0
 30 32  1  0
 31 30  2  0
M  END
$$$$
