WNQ.pdb
     RDKit          3D

 32 33  0  0  1  0  0  0  0  0999 V2000
   29.8789  -20.9954  -15.6541 N   0  0  0  0  0  0  0  0  0  0  0  0
   29.8227  -22.4085  -15.3426 C   0  0  1  0  0  0  0  0  0  0  0  0
   28.7977  -22.6175  -14.2793 C   0  0  0  0  0  0  0  0  0  0  0  0
   29.2554  -22.0224  -12.9854 C   0  0  0  0  0  0  0  0  0  0  0  0
   28.7270  -20.9735  -12.2635 C   0  0  0  0  0  0  0  0  0  0  0  0
   29.4535  -20.7572  -11.1412 N   0  0  0  0  0  0  0  0  0  0  0  0
   30.4557  -21.6452  -11.1065 C   0  0  0  0  0  0  0  0  0  0  0  0
   31.4673  -21.8604  -10.2016 C   0  0  0  0  0  0  0  0  0  0  0  0
   32.4042  -22.8635  -10.3881 C   0  0  0  0  0  0  0  0  0  0  0  0
   32.2927  -23.6424  -11.5112 C   0  0  0  0  0  0  0  0  0  0  0  0
   31.2807  -23.4286  -12.4184 C   0  0  0  0  0  0  0  0  0  0  0  0
   30.3592  -22.4380  -12.2297 C   0  0  0  0  0  0  0  0  0  0  0  0
   29.6727  -23.1931  -16.5475 C   0  0  0  0  0  0  0  0  0  0  0  0
   28.8514  -22.8159  -17.4263 O   0  0  0  0  0  0  0  0  0  0  0  0
   30.6485  -28.5013  -19.1401 N   0  0  0  0  0  0  0  0  0  0  0  0
   30.0351  -27.9596  -18.0101 C   0  0  0  0  0  0  0  0  0  0  0  0
   28.9450  -28.4975  -17.6274 O   0  0  0  0  0  0  0  0  0  0  0  0
   30.5098  -26.8259  -17.2021 C   0  0  0  0  0  0  0  0  0  0  0  0
   29.8579  -25.5196  -17.5419 C   0  0  2  0  0  0  0  0  0  0  0  0
   30.3769  -24.3863  -16.8602 N   0  0  0  0  0  0  0  0  0  0  0  0
   28.3735  -25.6335  -17.4535 C   0  0  0  0  0  0  0  0  0  0  0  0
   27.7562  -25.4793  -16.3685 O   0  0  0  0  0  0  0  0  0  0  0  0
   25.6369  -22.8201  -21.0622 N   0  0  0  0  0  0  0  0  0  0  0  0
   24.9540  -24.0063  -21.4047 C   0  0  0  0  0  0  0  0  0  0  0  0
   24.4539  -24.1061  -22.5470 O   0  0  0  0  0  0  0  0  0  0  0  0
   24.8433  -25.0921  -20.4189 C   0  0  0  0  0  0  0  0  0  0  0  0
   25.4670  -24.8059  -19.0852 C   0  0  0  0  0  0  0  0  0  0  0  0
   26.0992  -26.0123  -18.5038 C   0  0  2  0  0  0  0  0  0  0  0  0
   27.5712  -25.9230  -18.5919 N   0  0  0  0  0  0  0  0  0  0  0  0
   25.7593  -27.2115  -19.3049 C   0  0  0  0  0  0  0  0  0  0  0  0
   26.5423  -27.7346  -20.1517 O   0  0  0  0  0  0  0  0  0  0  0  0
   24.5196  -27.8050  -19.1232 O   0  0  0  0  0  0  0  0  0  0  0  0
  2  1  1  6
  2 13  1  0
  2  3  1  0
  3  4  1  0
  4 12  1  0
  4  5  2  0
  5  6  1  0
  7  8  2  0
  7  6  1  0
  9  8  1  0
 10  9  2  0
 11 10  1  0
 11 12  2  0
 12  7  1  0
 13 20  1  0
 13 14  2  0
 15 16  1  0
 16 18  1  0
 17 16  2  0
 19 18  1  1
 20 19  1  0
 21 22  2  0
 21 19  1  0
 23 24  1  0
 24 26  1  0
 25 24  2  0
 27 26  1  0
 28 27  1  6
 28 29  1  0
 29 21  1  0
 30 28  1  0
 30 32  1  0
 31 30  2  0
M  END
$$$$
