WNQ.pdb
     RDKit          3D

 32 33  0  0  1  0  0  0  0  0999 V2000
   25.2798  -22.4690  -13.1578 N   0  0  0  0  0  0  0  0  0  0  0  0
   25.0602  -21.3583  -12.2550 C   0  0  1  0  0  0  0  0  0  0  0  0
   26.1589  -20.3681  -12.4482 C   0  0  0  0  0  0  0  0  0  0  0  0
   27.4369  -20.8824  -11.8649 C   0  0  0  0  0  0  0  0  0  0  0  0
   28.6087  -21.2444  -12.4946 C   0  0  0  0  0  0  0  0  0  0  0  0
   29.5249  -21.6600  -11.5879 N   0  0  0  0  0  0  0  0  0  0  0  0
   28.9803  -21.5801  -10.3668 C   0  0  0  0  0  0  0  0  0  0  0  0
   29.4698  -21.8742   -9.1169 C   0  0  0  0  0  0  0  0  0  0  0  0
   28.6986  -21.7039   -7.9788 C   0  0  0  0  0  0  0  0  0  0  0  0
   27.4217  -21.2293   -8.1364 C   0  0  0  0  0  0  0  0  0  0  0  0
   26.9297  -20.9343   -9.3869 C   0  0  0  0  0  0  0  0  0  0  0  0
   27.6944  -21.1040  -10.5060 C   0  0  0  0  0  0  0  0  0  0  0  0
   23.7099  -20.8570  -12.3785 C   0  0  0  0  0  0  0  0  0  0  0  0
   23.5296  -19.6290  -12.5987 O   0  0  0  0  0  0  0  0  0  0  0  0
   19.1141  -18.4601  -13.0393 N   0  0  0  0  0  0  0  0  0  0  0  0
   19.4892  -19.7319  -13.4734 C   0  0  0  0  0  0  0  0  0  0  0  0
   18.5615  -20.4998  -13.8907 O   0  0  0  0  0  0  0  0  0  0  0  0
   20.8487  -20.2923  -13.5041 C   0  0  0  0  0  0  0  0  0  0  0  0
   21.1890  -21.1330  -12.3108 C   0  0  2  0  0  0  0  0  0  0  0  0
   22.5207  -21.6268  -12.2754 N   0  0  0  0  0  0  0  0  0  0  0  0
   20.1603  -22.1927  -12.1031 C   0  0  0  0  0  0  0  0  0  0  0  0
   19.8389  -22.9980  -13.0143 O   0  0  0  0  0  0  0  0  0  0  0  0
   17.9079  -24.0335   -6.3547 N   0  0  0  0  0  0  0  0  0  0  0  0
   18.3058  -25.1659   -7.0965 C   0  0  0  0  0  0  0  0  0  0  0  0
   18.3829  -26.2710   -6.5154 O   0  0  0  0  0  0  0  0  0  0  0  0
   18.6209  -25.0247   -8.5260 C   0  0  0  0  0  0  0  0  0  0  0  0
   18.4401  -23.6440   -9.0836 C   0  0  0  0  0  0  0  0  0  0  0  0
   18.7487  -23.5909  -10.5309 C   0  0  2  0  0  0  0  0  0  0  0  0
   19.4842  -22.3531  -10.8619 N   0  0  0  0  0  0  0  0  0  0  0  0
   17.5002  -23.4945  -11.3229 C   0  0  0  0  0  0  0  0  0  0  0  0
   16.8778  -22.4098  -11.5223 O   0  0  0  0  0  0  0  0  0  0  0  0
   16.9767  -24.6487  -11.8851 O   0  0  0  0  0  0  0  0  0  0  0  0
  2  1  1  6
  2 13  1  0
  2  3  1  0
  3  4  1  0
  4 12  1  0
  4  5  2  0
  5  6  1  0
  7  8  2  0
  7  6  1  0
  9  8  1  0
 10  9  2  0
 11 10  1  0
 11 12  2  0
 12  7  1  0
 13 20  1  0
 13 14  2  0
 15 16  1  0
 16 18  1  0
 17 16  2  0
 19 18  1  6
 20 19  1  0
 21 22  2  0
 21 19  1  0
 23 24  1  0
 24 26  1  0
 25 24  2  0
 27 26  1  0
 28 27  1  1
 28 29  1  0
 29 21  1  0
 30 28  1  0
 30 32  1  0
 31 30  2  0
M  END
$$$$
