WNQ.pdb
     RDKit          3D

 32 33  0  0  1  0  0  0  0  0999 V2000
   25.4721  -21.7208  -10.5382 N   0  0  0  0  0  0  0  0  0  0  0  0
   26.0241  -20.6504  -11.3423 C   0  0  1  0  0  0  0  0  0  0  0  0
   27.3777  -21.0633  -11.8134 C   0  0  0  0  0  0  0  0  0  0  0  0
   28.2825  -21.3193  -10.6499 C   0  0  0  0  0  0  0  0  0  0  0  0
   29.4124  -22.1052  -10.5700 C   0  0  0  0  0  0  0  0  0  0  0  0
   29.9347  -22.0583   -9.3213 N   0  0  0  0  0  0  0  0  0  0  0  0
   29.1699  -21.2543   -8.5710 C   0  0  0  0  0  0  0  0  0  0  0  0
   29.2515  -20.8670   -7.2551 C   0  0  0  0  0  0  0  0  0  0  0  0
   28.3212  -20.0072   -6.6945 C   0  0  0  0  0  0  0  0  0  0  0  0
   27.3078  -19.5495   -7.4970 C   0  0  0  0  0  0  0  0  0  0  0  0
   27.2243  -19.9362   -8.8148 C   0  0  0  0  0  0  0  0  0  0  0  0
   28.1443  -20.7843   -9.3627 C   0  0  0  0  0  0  0  0  0  0  0  0
   25.0842  -20.2371  -12.3600 C   0  0  0  0  0  0  0  0  0  0  0  0
   23.8738  -20.5711  -12.2486 O   0  0  0  0  0  0  0  0  0  0  0  0
   27.6240  -18.0246  -15.4439 N   0  0  0  0  0  0  0  0  0  0  0  0
   26.3033  -17.5892  -15.3301 C   0  0  0  0  0  0  0  0  0  0  0  0
   26.1167  -16.4164  -14.8674 O   0  0  0  0  0  0  0  0  0  0  0  0
   25.0895  -18.3389  -15.6876 C   0  0  0  0  0  0  0  0  0  0  0  0
   24.4841  -19.0994  -14.5466 C   0  0  2  0  0  0  0  0  0  0  0  0
   25.3881  -19.4665  -13.5138 N   0  0  0  0  0  0  0  0  0  0  0  0
   23.6668  -20.2409  -15.0497 C   0  0  0  0  0  0  0  0  0  0  0  0
   24.1738  -21.1849  -15.7084 O   0  0  0  0  0  0  0  0  0  0  0  0
   22.7237  -24.9536  -14.3508 N   0  0  0  0  0  0  0  0  0  0  0  0
   21.3240  -24.9472  -14.5284 C   0  0  0  0  0  0  0  0  0  0  0  0
   20.7427  -26.0263  -14.7786 O   0  0  0  0  0  0  0  0  0  0  0  0
   20.5828  -23.6817  -14.4184 C   0  0  0  0  0  0  0  0  0  0  0  0
   21.4175  -22.4839  -14.0744 C   0  0  0  0  0  0  0  0  0  0  0  0
   21.4848  -21.5201  -15.1967 C   0  0  2  0  0  0  0  0  0  0  0  0
   22.2668  -20.3270  -14.8128 N   0  0  0  0  0  0  0  0  0  0  0  0
   20.1364  -20.9877  -15.5030 C   0  0  0  0  0  0  0  0  0  0  0  0
   19.6947  -19.8918  -15.0474 O   0  0  0  0  0  0  0  0  0  0  0  0
   19.3045  -21.7192  -16.3366 O   0  0  0  0  0  0  0  0  0  0  0  0
  2  1  1  6
  2 13  1  0
  2  3  1  0
  3  4  1  0
  4 12  1  0
  4  5  2  0
  5  6  1  0
  7  8  2  0
  7  6  1  0
  9  8  1  0
 10  9  2  0
 11 10  1  0
 11 12  2  0
 12  7  1  0
 13 20  1  0
 13 14  2  0
 15 16  1  0
 16 18  1  0
 17 16  2  0
 19 18  1  6
 20 19  1  0
 21 22  2  0
 21 19  1  0
 23 24  1  0
 24 26  1  0
 25 24  2  0
 27 26  1  0
 28 27  1  1
 28 29  1  0
 29 21  1  0
 30 28  1  0
 30 32  1  0
 31 30  2  0
M  END
$$$$
