WNQ.pdb
     RDKit          3D

 32 33  0  0  1  0  0  0  0  0999 V2000
   26.8064  -22.4267  -10.5893 N   0  0  0  0  0  0  0  0  0  0  0  0
   26.2816  -21.0924  -10.7930 C   0  0  1  0  0  0  0  0  0  0  0  0
   27.3915  -20.1142  -10.6033 C   0  0  0  0  0  0  0  0  0  0  0  0
   28.2877  -20.5479   -9.4868 C   0  0  0  0  0  0  0  0  0  0  0  0
   29.4807  -21.2371   -9.5330 C   0  0  0  0  0  0  0  0  0  0  0  0
   29.9671  -21.4266   -8.2832 N   0  0  0  0  0  0  0  0  0  0  0  0
   29.1163  -20.8746   -7.4083 C   0  0  0  0  0  0  0  0  0  0  0  0
   29.1320  -20.7842   -6.0372 C   0  0  0  0  0  0  0  0  0  0  0  0
   28.1160  -20.1492   -5.3419 C   0  0  0  0  0  0  0  0  0  0  0  0
   27.0852  -19.6087   -6.0670 C   0  0  0  0  0  0  0  0  0  0  0  0
   27.0675  -19.6983   -7.4398 C   0  0  0  0  0  0  0  0  0  0  0  0
   28.0720  -20.3255   -8.1206 C   0  0  0  0  0  0  0  0  0  0  0  0
   25.5563  -21.0123  -12.0410 C   0  0  0  0  0  0  0  0  0  0  0  0
   24.9908  -19.9297  -12.3529 O   0  0  0  0  0  0  0  0  0  0  0  0
   27.3869  -21.3677  -15.2252 N   0  0  0  0  0  0  0  0  0  0  0  0
   26.6516  -22.4574  -15.6927 C   0  0  0  0  0  0  0  0  0  0  0  0
   27.2293  -23.2350  -16.5208 O   0  0  0  0  0  0  0  0  0  0  0  0
   25.2705  -22.8137  -15.3337 C   0  0  0  0  0  0  0  0  0  0  0  0
   24.6987  -21.9914  -14.2185 C   0  0  2  0  0  0  0  0  0  0  0  0
   25.4069  -22.0596  -12.9888 N   0  0  0  0  0  0  0  0  0  0  0  0
   23.2365  -22.2461  -14.0731 C   0  0  0  0  0  0  0  0  0  0  0  0
   22.7844  -23.3775  -13.7605 O   0  0  0  0  0  0  0  0  0  0  0  0
   20.9450  -21.0966   -9.6927 N   0  0  0  0  0  0  0  0  0  0  0  0
   20.5766  -20.0709  -10.5888 C   0  0  0  0  0  0  0  0  0  0  0  0
   19.9548  -19.0791  -10.1477 O   0  0  0  0  0  0  0  0  0  0  0  0
   20.9269  -20.1885  -12.0123 C   0  0  0  0  0  0  0  0  0  0  0  0
   20.4456  -21.4402  -12.6842 C   0  0  0  0  0  0  0  0  0  0  0  0
   20.8232  -21.4757  -14.1156 C   0  0  2  0  0  0  0  0  0  0  0  0
   22.2696  -21.2234  -14.2794 N   0  0  0  0  0  0  0  0  0  0  0  0
   20.1749  -20.3637  -14.8495 C   0  0  0  0  0  0  0  0  0  0  0  0
   18.9203  -20.2378  -14.9669 O   0  0  0  0  0  0  0  0  0  0  0  0
   20.9760  -19.3993  -15.4414 O   0  0  0  0  0  0  0  0  0  0  0  0
  2  1  1  6
  2 13  1  0
  2  3  1  0
  3  4  1  0
  4 12  1  0
  4  5  2  0
  5  6  1  0
  7  8  2  0
  7  6  1  0
  9  8  1  0
 10  9  2  0
 11 10  1  0
 11 12  2  0
 12  7  1  0
 13 20  1  0
 13 14  2  0
 15 16  1  0
 16 18  1  0
 17 16  2  0
 19 18  1  6
 20 19  1  0
 21 22  2  0
 21 19  1  0
 23 24  1  0
 24 26  1  0
 25 24  2  0
 27 26  1  0
 28 27  1  1
 28 29  1  0
 29 21  1  0
 30 28  1  0
 30 32  1  0
 31 30  2  0
M  END
$$$$
