WNQ.pdb
     RDKit          3D

 32 33  0  0  1  0  0  0  0  0999 V2000
   21.5216  -15.3191  -15.7700 N   0  0  0  0  0  0  0  0  0  0  0  0
   22.2577  -14.0724  -15.7387 C   0  0  1  0  0  0  0  0  0  0  0  0
   23.1163  -14.0000  -16.9562 C   0  0  0  0  0  0  0  0  0  0  0  0
   24.2881  -14.9210  -16.8271 C   0  0  0  0  0  0  0  0  0  0  0  0
   24.4000  -16.2545  -17.1582 C   0  0  0  0  0  0  0  0  0  0  0  0
   25.6439  -16.7099  -16.8761 N   0  0  0  0  0  0  0  0  0  0  0  0
   26.3594  -15.7005  -16.3630 C   0  0  0  0  0  0  0  0  0  0  0  0
   27.6567  -15.6223  -15.9167 C   0  0  0  0  0  0  0  0  0  0  0  0
   28.1812  -14.4405  -15.4195 C   0  0  0  0  0  0  0  0  0  0  0  0
   27.3619  -13.3414  -15.3851 C   0  0  0  0  0  0  0  0  0  0  0  0
   26.0627  -13.4177  -15.8314 C   0  0  0  0  0  0  0  0  0  0  0  0
   25.5504  -14.5855  -16.3208 C   0  0  0  0  0  0  0  0  0  0  0  0
   21.3668  -12.9571  -15.5094 C   0  0  0  0  0  0  0  0  0  0  0  0
   20.2440  -12.9416  -16.0823 O   0  0  0  0  0  0  0  0  0  0  0  0
   19.2417   -8.2413  -14.0632 N   0  0  0  0  0  0  0  0  0  0  0  0
   19.1646   -9.3680  -13.2439 C   0  0  0  0  0  0  0  0  0  0  0  0
   18.2806   -9.3586  -12.3258 O   0  0  0  0  0  0  0  0  0  0  0  0
   19.9970  -10.5781  -13.3211 C   0  0  0  0  0  0  0  0  0  0  0  0
   20.8331  -10.6651  -14.5621 C   0  0  2  0  0  0  0  0  0  0  0  0
   21.6291  -11.8362  -14.6774 N   0  0  0  0  0  0  0  0  0  0  0  0
   21.6035   -9.4046  -14.7671 C   0  0  0  0  0  0  0  0  0  0  0  0
   22.8448   -9.3427  -14.5738 O   0  0  0  0  0  0  0  0  0  0  0  0
   23.8606   -6.6318  -19.1938 N   0  0  0  0  0  0  0  0  0  0  0  0
   22.5098   -7.0323  -19.2715 C   0  0  0  0  0  0  0  0  0  0  0  0
   21.9619   -7.0914  -20.3945 O   0  0  0  0  0  0  0  0  0  0  0  0
   21.7789   -7.3678  -18.0402 C   0  0  0  0  0  0  0  0  0  0  0  0
   22.5960   -7.3217  -16.7832 C   0  0  0  0  0  0  0  0  0  0  0  0
   21.7634   -7.0163  -15.5973 C   0  0  2  0  0  0  0  0  0  0  0  0
   20.9778   -8.2003  -15.1932 N   0  0  0  0  0  0  0  0  0  0  0  0
   20.7402   -5.9981  -15.9318 C   0  0  0  0  0  0  0  0  0  0  0  0
   19.5147   -6.2658  -16.1055 O   0  0  0  0  0  0  0  0  0  0  0  0
   21.1338   -4.6750  -16.0606 O   0  0  0  0  0  0  0  0  0  0  0  0
  2  1  1  6
  2 13  1  0
  2  3  1  0
  3  4  1  0
  4 12  1  0
  4  5  2  0
  5  6  1  0
  7  8  2  0
  7  6  1  0
  9  8  1  0
 10  9  2  0
 11 10  1  0
 11 12  2  0
 12  7  1  0
 13 20  1  0
 13 14  2  0
 15 16  1  0
 16 18  1  0
 17 16  2  0
 19 18  1  1
 20 19  1  0
 21 22  2  0
 21 19  1  0
 23 24  1  0
 24 26  1  0
 25 24  2  0
 27 26  1  0
 28 27  1  6
 28 29  1  0
 29 21  1  0
 30 28  1  0
 30 32  1  0
 31 30  2  0
M  END
$$$$
