WNQ.pdb
     RDKit          3D

 32 33  0  0  1  0  0  0  0  0999 V2000
   28.3228  -20.2997  -18.3825 N   0  0  0  0  0  0  0  0  0  0  0  0
   27.0784  -20.2238  -17.6458 C   0  0  1  0  0  0  0  0  0  0  0  0
   27.3313  -20.6671  -16.2443 C   0  0  0  0  0  0  0  0  0  0  0  0
   27.8011  -22.0872  -16.2202 C   0  0  0  0  0  0  0  0  0  0  0  0
   29.0813  -22.5922  -16.3019 C   0  0  0  0  0  0  0  0  0  0  0  0
   29.0616  -23.9451  -16.2419 N   0  0  0  0  0  0  0  0  0  0  0  0
   27.7894  -24.3464  -16.1220 C   0  0  0  0  0  0  0  0  0  0  0  0
   27.2204  -25.5932  -16.0217 C   0  0  0  0  0  0  0  0  0  0  0  0
   25.8499  -25.7562  -15.9033 C   0  0  0  0  0  0  0  0  0  0  0  0
   25.0703  -24.6281  -15.8887 C   0  0  0  0  0  0  0  0  0  0  0  0
   25.6380  -23.3788  -15.9891 C   0  0  0  0  0  0  0  0  0  0  0  0
   26.9901  -23.2237  -16.1056 C   0  0  0  0  0  0  0  0  0  0  0  0
   26.4632  -18.9261  -17.8117 C   0  0  0  0  0  0  0  0  0  0  0  0
   26.6432  -18.0450  -16.9283 O   0  0  0  0  0  0  0  0  0  0  0  0
   21.5270  -17.2310  -19.2174 N   0  0  0  0  0  0  0  0  0  0  0  0
   22.1218  -18.0948  -20.1376 C   0  0  0  0  0  0  0  0  0  0  0  0
   21.4128  -18.4624  -21.1309 O   0  0  0  0  0  0  0  0  0  0  0  0
   23.4891  -18.6347  -20.0902 C   0  0  0  0  0  0  0  0  0  0  0  0
   24.2547  -18.2492  -18.8605 C   0  0  2  0  0  0  0  0  0  0  0  0
   25.6485  -18.5215  -18.9025 N   0  0  0  0  0  0  0  0  0  0  0  0
   23.5860  -18.7782  -17.6369 C   0  0  0  0  0  0  0  0  0  0  0  0
   23.0121  -18.0228  -16.8111 O   0  0  0  0  0  0  0  0  0  0  0  0
   23.9599  -20.5688  -12.5136 N   0  0  0  0  0  0  0  0  0  0  0  0
   22.5573  -20.5258  -12.6620 C   0  0  0  0  0  0  0  0  0  0  0  0
   21.8381  -20.8873  -11.7045 O   0  0  0  0  0  0  0  0  0  0  0  0
   21.9743  -20.0622  -13.9301 C   0  0  0  0  0  0  0  0  0  0  0  0
   22.9671  -19.7540  -15.0113 C   0  0  0  0  0  0  0  0  0  0  0  0
   22.8483  -20.6927  -16.1504 C   0  0  2  0  0  0  0  0  0  0  0  0
   23.5591  -20.1679  -17.3344 N   0  0  0  0  0  0  0  0  0  0  0  0
   21.4372  -20.7966  -16.5902 C   0  0  0  0  0  0  0  0  0  0  0  0
   20.6975  -19.7941  -16.8172 O   0  0  0  0  0  0  0  0  0  0  0  0
   20.8863  -22.0560  -16.7704 O   0  0  0  0  0  0  0  0  0  0  0  0
  2  1  1  6
  2 13  1  0
  2  3  1  0
  3  4  1  0
  4 12  1  0
  4  5  2  0
  5  6  1  0
  7  8  2  0
  7  6  1  0
  9  8  1  0
 10  9  2  0
 11 10  1  0
 11 12  2  0
 12  7  1  0
 13 20  1  0
 13 14  2  0
 15 16  1  0
 16 18  1  0
 17 16  2  0
 19 18  1  6
 20 19  1  0
 21 22  2  0
 21 19  1  0
 23 24  1  0
 24 26  1  0
 25 24  2  0
 27 26  1  0
 28 27  1  1
 28 29  1  0
 29 21  1  0
 30 28  1  0
 30 32  1  0
 31 30  2  0
M  END
$$$$
