WNQ.pdb
     RDKit          3D

 32 33  0  0  1  0  0  0  0  0999 V2000
   27.6040  -21.5254  -10.5670 N   0  0  0  0  0  0  0  0  0  0  0  0
   26.6114  -20.5726  -10.1156 C   0  0  1  0  0  0  0  0  0  0  0  0
   27.2920  -19.5416   -9.2797 C   0  0  0  0  0  0  0  0  0  0  0  0
   28.3025  -20.1795   -8.3798 C   0  0  0  0  0  0  0  0  0  0  0  0
   29.2945  -21.0898   -8.6762 C   0  0  0  0  0  0  0  0  0  0  0  0
   29.9911  -21.4114   -7.5601 N   0  0  0  0  0  0  0  0  0  0  0  0
   29.4776  -20.7297   -6.5279 C   0  0  0  0  0  0  0  0  0  0  0  0
   29.8068  -20.6876   -5.1944 C   0  0  0  0  0  0  0  0  0  0  0  0
   29.1132  -19.8861   -4.3024 C   0  0  0  0  0  0  0  0  0  0  0  0
   28.0799  -19.1292   -4.7923 C   0  0  0  0  0  0  0  0  0  0  0  0
   27.7488  -19.1699   -6.1271 C   0  0  0  0  0  0  0  0  0  0  0  0
   28.4360  -19.9620   -7.0024 C   0  0  0  0  0  0  0  0  0  0  0  0
   25.8249  -20.0867  -11.2271 C   0  0  0  0  0  0  0  0  0  0  0  0
   26.2335  -19.0862  -11.8761 O   0  0  0  0  0  0  0  0  0  0  0  0
   25.0112  -21.4269  -16.1462 N   0  0  0  0  0  0  0  0  0  0  0  0
   25.0089  -22.2877  -15.0482 C   0  0  0  0  0  0  0  0  0  0  0  0
   24.7141  -23.5080  -15.2680 O   0  0  0  0  0  0  0  0  0  0  0  0
   25.3115  -21.9420  -13.6509 C   0  0  0  0  0  0  0  0  0  0  0  0
   24.2964  -21.0436  -13.0113 C   0  0  2  0  0  0  0  0  0  0  0  0
   24.5971  -20.6353  -11.6842 N   0  0  0  0  0  0  0  0  0  0  0  0
   22.9248  -21.6106  -13.1585 C   0  0  0  0  0  0  0  0  0  0  0  0
   22.4739  -21.9853  -14.2713 O   0  0  0  0  0  0  0  0  0  0  0  0
   17.6675  -19.3198  -11.3869 N   0  0  0  0  0  0  0  0  0  0  0  0
   18.5780  -19.0875  -12.4395 C   0  0  0  0  0  0  0  0  0  0  0  0
   18.4776  -18.0310  -13.1018 O   0  0  0  0  0  0  0  0  0  0  0  0
   19.6174  -20.0851  -12.7352 C   0  0  0  0  0  0  0  0  0  0  0  0
   19.6895  -21.2328  -11.7722 C   0  0  0  0  0  0  0  0  0  0  0  0
   20.6663  -22.2564  -12.2091 C   0  0  2  0  0  0  0  0  0  0  0  0
   22.0484  -21.7600  -12.0481 N   0  0  0  0  0  0  0  0  0  0  0  0
   20.5375  -22.5071  -13.6637 C   0  0  0  0  0  0  0  0  0  0  0  0
   20.8243  -21.6506  -14.5514 O   0  0  0  0  0  0  0  0  0  0  0  0
   20.0822  -23.7456  -14.0889 O   0  0  0  0  0  0  0  0  0  0  0  0
  2  1  1  6
  2 13  1  0
  2  3  1  0
  3  4  1  0
  4 12  1  0
  4  5  2  0
  5  6  1  0
  7  8  2  0
  7  6  1  0
  9  8  1  0
 10  9  2  0
 11 10  1  0
 11 12  2  0
 12  7  1  0
 13 20  1  0
 13 14  2  0
 15 16  1  0
 16 18  1  0
 17 16  2  0
 19 18  1  1
 20 19  1  0
 21 22  2  0
 21 19  1  0
 23 24  1  0
 24 26  1  0
 25 24  2  0
 27 26  1  0
 28 27  1  6
 28 29  1  0
 29 21  1  0
 30 28  1  0
 30 32  1  0
 31 30  2  0
M  END
$$$$
