MQV.pdb
     RDKit          3D

 25 24  0  0  1  0  0  0  0  0999 V2000
   28.0230  -26.8313  -15.6778 C   0  0  0  0  0  0  0  0  0  0  0  0
   28.0334  -26.6403  -17.4795 S   0  0  0  0  0  0  0  0  0  0  0  0
   28.1659  -24.9090  -17.9809 C   0  0  0  0  0  0  0  0  0  0  0  0
   27.6965  -24.0446  -16.8319 C   0  0  0  0  0  0  0  0  0  0  0  0
   27.8187  -22.5866  -17.2309 C   0  0  2  0  0  0  0  0  0  0  0  0
   29.2249  -22.2814  -17.2764 N   0  0  0  0  0  0  0  0  0  0  0  0
   27.1710  -21.6916  -16.2485 C   0  0  0  0  0  0  0  0  0  0  0  0
   27.8204  -21.3129  -15.2470 O   0  0  0  0  0  0  0  0  0  0  0  0
   22.9122  -19.1671  -18.4156 N   0  0  0  0  0  0  0  0  0  0  0  0
   24.1238  -18.4294  -18.3062 C   0  0  0  0  0  0  0  0  0  0  0  0
   24.4768  -17.7561  -19.2941 O   0  0  0  0  0  0  0  0  0  0  0  0
   24.9189  -18.4654  -17.0635 C   0  0  0  0  0  0  0  0  0  0  0  0
   24.3504  -19.2797  -15.9687 C   0  0  0  0  0  0  0  0  0  0  0  0
   25.1989  -20.3688  -15.4000 C   0  0  2  0  0  0  0  0  0  0  0  0
   25.8233  -21.2189  -16.3672 N   0  0  0  0  0  0  0  0  0  0  0  0
   24.5514  -21.0996  -14.2987 C   0  0  0  0  0  0  0  0  0  0  0  0
   23.9007  -22.1341  -14.5745 O   0  0  0  0  0  0  0  0  0  0  0  0
   24.8562  -19.6236  -10.1115 C   0  0  0  0  0  0  0  0  0  0  0  0
   24.8213  -21.0797  -10.5603 C   0  0  2  0  0  0  0  0  0  0  0  0
   26.2523  -21.5725  -10.7998 C   0  0  0  0  0  0  0  0  0  0  0  0
   24.0535  -21.2501  -11.8227 C   0  0  2  0  0  0  0  0  0  0  0  0
   24.6661  -20.6392  -12.9670 N   0  0  0  0  0  0  0  0  0  0  0  0
   22.6569  -20.7247  -11.6225 C   0  0  0  0  0  0  0  0  0  0  0  0
   21.7092  -21.3765  -10.8564 O   0  0  0  0  0  0  0  0  0  0  0  0
   22.2752  -19.6352  -12.1596 O   0  0  0  0  0  0  0  0  0  0  0  0
  1  2  1  0
  3  2  1  0
  4  3  1  0
  5  4  1  0
  5  6  1  1
  7  5  1  0
  8  7  2  0
  9 10  1  0
 10 12  1  0
 11 10  2  0
 13 12  1  0
 14 13  1  6
 14 15  1  0
 15  7  1  0
 16 14  1  0
 16 17  2  0
 19 18  1  6
 19 21  1  0
 20 19  1  0
 21 22  1  6
 22 16  1  0
 23 21  1  0
 24 23  1  0
 25 23  2  0
M  END
$$$$
