MQV.pdb
     RDKit          3D

 25 24  0  0  1  0  0  0  0  0999 V2000
   27.8769  -18.3213   -6.1497 C   0  0  0  0  0  0  0  0  0  0  0  0
   28.6633  -19.9464   -5.9974 S   0  0  0  0  0  0  0  0  0  0  0  0
   28.1676  -21.0708   -7.3226 C   0  0  0  0  0  0  0  0  0  0  0  0
   27.3055  -20.3025   -8.2996 C   0  0  0  0  0  0  0  0  0  0  0  0
   26.9528  -21.2089   -9.4632 C   0  0  2  0  0  0  0  0  0  0  0  0
   28.1945  -21.6238  -10.0621 N   0  0  0  0  0  0  0  0  0  0  0  0
   26.1464  -20.5053  -10.4832 C   0  0  0  0  0  0  0  0  0  0  0  0
   26.5952  -19.4560  -10.9988 O   0  0  0  0  0  0  0  0  0  0  0  0
   26.9757  -20.4694  -15.5223 N   0  0  0  0  0  0  0  0  0  0  0  0
   26.5955  -21.7261  -14.9741 C   0  0  0  0  0  0  0  0  0  0  0  0
   27.0790  -22.7496  -15.4961 O   0  0  0  0  0  0  0  0  0  0  0  0
   25.6679  -21.7995  -13.8288 C   0  0  0  0  0  0  0  0  0  0  0  0
   25.1600  -20.5009  -13.3381 C   0  0  0  0  0  0  0  0  0  0  0  0
   24.2547  -20.5127  -12.1507 C   0  0  2  0  0  0  0  0  0  0  0  0
   24.8603  -20.9520  -10.9306 N   0  0  0  0  0  0  0  0  0  0  0  0
   22.9465  -21.1312  -12.4193 C   0  0  0  0  0  0  0  0  0  0  0  0
   22.6715  -22.2109  -11.8463 O   0  0  0  0  0  0  0  0  0  0  0  0
   20.6454  -18.2878  -11.8713 C   0  0  0  0  0  0  0  0  0  0  0  0
   20.1966  -19.7443  -11.8687 C   0  0  2  0  0  0  0  0  0  0  0  0
   20.8256  -20.4682  -10.6736 C   0  0  0  0  0  0  0  0  0  0  0  0
   20.6096  -20.4514  -13.1104 C   0  0  2  0  0  0  0  0  0  0  0  0
   22.0298  -20.5158  -13.3022 N   0  0  0  0  0  0  0  0  0  0  0  0
   19.9418  -19.7993  -14.2917 C   0  0  0  0  0  0  0  0  0  0  0  0
   18.5813  -19.8718  -14.5231 O   0  0  0  0  0  0  0  0  0  0  0  0
   20.6110  -19.1384  -15.1499 O   0  0  0  0  0  0  0  0  0  0  0  0
  1  2  1  0
  3  2  1  0
  4  3  1  0
  5  4  1  0
  5  6  1  6
  7  5  1  0
  8  7  2  0
  9 10  1  0
 10 12  1  0
 11 10  2  0
 13 12  1  0
 14 13  1  6
 14 15  1  0
 15  7  1  0
 16 14  1  0
 16 17  2  0
 19 18  1  6
 19 21  1  0
 20 19  1  0
 21 22  1  6
 22 16  1  0
 23 21  1  0
 24 23  1  0
 25 23  2  0
M  END
$$$$
