MQV.pdb
     RDKit          3D

 25 24  0  0  1  0  0  0  0  0999 V2000
   24.1094  -15.4437  -14.7987 C   0  0  0  0  0  0  0  0  0  0  0  0
   23.1772  -16.9401  -15.2165 S   0  0  0  0  0  0  0  0  0  0  0  0
   21.6762  -16.5693  -16.1524 C   0  0  0  0  0  0  0  0  0  0  0  0
   21.5049  -15.0672  -16.1996 C   0  0  0  0  0  0  0  0  0  0  0  0
   20.2760  -14.7377  -17.0250 C   0  0  2  0  0  0  0  0  0  0  0  0
   20.5526  -15.1579  -18.3739 N   0  0  0  0  0  0  0  0  0  0  0  0
   19.9896  -13.2873  -17.0296 C   0  0  0  0  0  0  0  0  0  0  0  0
   20.6190  -12.5435  -17.8164 O   0  0  0  0  0  0  0  0  0  0  0  0
   14.6749  -10.1062  -15.3596 N   0  0  0  0  0  0  0  0  0  0  0  0
   15.6133   -9.0877  -15.6856 C   0  0  0  0  0  0  0  0  0  0  0  0
   15.1899   -7.9171  -15.7511 O   0  0  0  0  0  0  0  0  0  0  0  0
   17.0307   -9.4183  -15.9291 C   0  0  0  0  0  0  0  0  0  0  0  0
   17.3639  -10.8579  -15.8866 C   0  0  0  0  0  0  0  0  0  0  0  0
   18.7767  -11.2526  -16.1648 C   0  0  2  0  0  0  0  0  0  0  0  0
   19.0213  -12.6627  -16.1777 N   0  0  0  0  0  0  0  0  0  0  0  0
   19.7620  -10.4873  -15.3839 C   0  0  0  0  0  0  0  0  0  0  0  0
   20.0917  -10.9213  -14.2558 O   0  0  0  0  0  0  0  0  0  0  0  0
   21.9923   -7.3614  -17.3688 C   0  0  0  0  0  0  0  0  0  0  0  0
   22.4575   -8.1217  -16.1326 C   0  0  2  0  0  0  0  0  0  0  0  0
   23.1717   -9.4067  -16.5647 C   0  0  0  0  0  0  0  0  0  0  0  0
   21.3178   -8.4964  -15.2534 C   0  0  2  0  0  0  0  0  0  0  0  0
   20.3171   -9.2945  -15.9013 N   0  0  0  0  0  0  0  0  0  0  0  0
   20.7102   -7.2452  -14.6775 C   0  0  0  0  0  0  0  0  0  0  0  0
   21.3626   -6.4444  -13.7593 O   0  0  0  0  0  0  0  0  0  0  0  0
   19.5450   -6.8583  -15.0145 O   0  0  0  0  0  0  0  0  0  0  0  0
  1  2  1  0
  3  2  1  0
  4  3  1  0
  5  4  1  0
  5  6  1  6
  7  5  1  0
  8  7  2  0
  9 10  1  0
 10 12  1  0
 11 10  2  0
 13 12  1  0
 14 13  1  1
 14 15  1  0
 15  7  1  0
 16 14  1  0
 16 17  2  0
 19 18  1  6
 19 21  1  0
 20 19  1  0
 21 22  1  6
 22 16  1  0
 23 21  1  0
 24 23  1  0
 25 23  2  0
M  END
$$$$
