MQV.pdb
     RDKit          3D

 25 24  0  0  1  0  0  0  0  0999 V2000
   17.9900  -14.8885  -15.1951 C   0  0  0  0  0  0  0  0  0  0  0  0
   16.2864  -14.3611  -14.8752 S   0  0  0  0  0  0  0  0  0  0  0  0
   15.7512  -13.0596  -16.0092 C   0  0  0  0  0  0  0  0  0  0  0  0
   16.8542  -12.0290  -16.1038 C   0  0  0  0  0  0  0  0  0  0  0  0
   16.4567  -10.9744  -17.1186 C   0  0  2  0  0  0  0  0  0  0  0  0
   16.6863  -11.5404  -18.4224 N   0  0  0  0  0  0  0  0  0  0  0  0
   17.2710   -9.7478  -16.9844 C   0  0  0  0  0  0  0  0  0  0  0  0
   18.3904   -9.6941  -17.5433 O   0  0  0  0  0  0  0  0  0  0  0  0
   15.4409   -3.7151  -15.7258 N   0  0  0  0  0  0  0  0  0  0  0  0
   16.8624   -3.6552  -15.7325 C   0  0  0  0  0  0  0  0  0  0  0  0
   17.3898   -2.5316  -15.6182 O   0  0  0  0  0  0  0  0  0  0  0  0
   17.6682   -4.8844  -15.8652 C   0  0  0  0  0  0  0  0  0  0  0  0
   16.8973   -6.1356  -16.0237 C   0  0  0  0  0  0  0  0  0  0  0  0
   17.6605   -7.4163  -16.1061 C   0  0  2  0  0  0  0  0  0  0  0  0
   16.8577   -8.5931  -16.2430 N   0  0  0  0  0  0  0  0  0  0  0  0
   18.7161   -7.5341  -15.0873 C   0  0  0  0  0  0  0  0  0  0  0  0
   18.4014   -7.9644  -13.9535 O   0  0  0  0  0  0  0  0  0  0  0  0
   23.2971   -8.4980  -13.9595 C   0  0  0  0  0  0  0  0  0  0  0  0
   22.2066   -8.2642  -14.9982 C   0  0  2  0  0  0  0  0  0  0  0  0
   22.8308   -7.6727  -16.2665 C   0  0  0  0  0  0  0  0  0  0  0  0
   21.1691   -7.3187  -14.5063 C   0  0  2  0  0  0  0  0  0  0  0  0
   20.0482   -7.1692  -15.3890 N   0  0  0  0  0  0  0  0  0  0  0  0
   21.8113   -5.9853  -14.2306 C   0  0  0  0  0  0  0  0  0  0  0  0
   22.6353   -5.7557  -13.1452 O   0  0  0  0  0  0  0  0  0  0  0  0
   21.6220   -4.9871  -14.9981 O   0  0  0  0  0  0  0  0  0  0  0  0
  1  2  1  0
  3  2  1  0
  4  3  1  0
  5  4  1  0
  5  6  1  6
  7  5  1  0
  8  7  2  0
  9 10  1  0
 10 12  1  0
 11 10  2  0
 13 12  1  0
 14 13  1  1
 14 15  1  0
 15  7  1  0
 16 14  1  0
 16 17  2  0
 19 18  1  1
 19 21  1  0
 20 19  1  0
 21 22  1  6
 22 16  1  0
 23 21  1  0
 24 23  1  0
 25 23  2  0
M  END
$$$$
