MQV.pdb
     RDKit          3D

 25 24  0  0  1  0  0  0  0  0999 V2000
   19.3438  -29.5535  -10.0817 C   0  0  0  0  0  0  0  0  0  0  0  0
   18.2482  -29.3246   -8.6569 S   0  0  0  0  0  0  0  0  0  0  0  0
   18.5953  -27.7889   -7.7695 C   0  0  0  0  0  0  0  0  0  0  0  0
   18.0522  -26.6363   -8.5846 C   0  0  0  0  0  0  0  0  0  0  0  0
   18.5027  -25.3325   -7.9544 C   0  0  2  0  0  0  0  0  0  0  0  0
   17.7167  -25.1503   -6.7620 N   0  0  0  0  0  0  0  0  0  0  0  0
   18.2753  -24.1804   -8.8526 C   0  0  0  0  0  0  0  0  0  0  0  0
   17.2718  -23.4535   -8.6707 O   0  0  0  0  0  0  0  0  0  0  0  0
   22.2631  -20.9546  -12.7759 N   0  0  0  0  0  0  0  0  0  0  0  0
   20.9627  -20.5402  -13.1776 C   0  0  0  0  0  0  0  0  0  0  0  0
   20.8870  -19.6633  -14.0602 O   0  0  0  0  0  0  0  0  0  0  0  0
   19.7590  -21.1379  -12.5679 C   0  0  0  0  0  0  0  0  0  0  0  0
   20.0128  -22.1537  -11.5244 C   0  0  0  0  0  0  0  0  0  0  0  0
   18.8309  -22.8219  -10.9032 C   0  0  2  0  0  0  0  0  0  0  0  0
   19.1428  -23.8324   -9.9388 N   0  0  0  0  0  0  0  0  0  0  0  0
   17.8098  -23.2309  -11.8810 C   0  0  0  0  0  0  0  0  0  0  0  0
   17.9863  -24.2987  -12.5122 O   0  0  0  0  0  0  0  0  0  0  0  0
   14.0333  -21.1172  -11.9525 C   0  0  0  0  0  0  0  0  0  0  0  0
   14.2402  -22.5393  -12.4600 C   0  0  2  0  0  0  0  0  0  0  0  0
   14.0518  -23.5250  -11.3020 C   0  0  0  0  0  0  0  0  0  0  0  0
   15.6052  -22.7332  -13.0182 C   0  0  2  0  0  0  0  0  0  0  0  0
   16.6623  -22.4335  -12.0959 N   0  0  0  0  0  0  0  0  0  0  0  0
   15.7438  -21.9118  -14.2722 C   0  0  0  0  0  0  0  0  0  0  0  0
   15.0733  -22.2066  -15.4441 O   0  0  0  0  0  0  0  0  0  0  0  0
   16.4997  -20.8881  -14.3138 O   0  0  0  0  0  0  0  0  0  0  0  0
  1  2  1  0
  3  2  1  0
  4  3  1  0
  5  4  1  0
  5  6  1  1
  7  5  1  0
  8  7  2  0
  9 10  1  0
 10 12  1  0
 11 10  2  0
 13 12  1  0
 14 13  1  6
 14 15  1  0
 15  7  1  0
 16 14  1  0
 16 17  2  0
 19 18  1  1
 19 21  1  0
 20 19  1  0
 21 22  1  1
 22 16  1  0
 23 21  1  0
 24 23  1  0
 25 23  2  0
M  END
$$$$
