MQV.pdb
     RDKit          3D

 25 24  0  0  1  0  0  0  0  0999 V2000
   27.6116  -18.8493   -6.9677 C   0  0  0  0  0  0  0  0  0  0  0  0
   28.5703  -20.3621   -7.2417 S   0  0  0  0  0  0  0  0  0  0  0  0
   28.0176  -21.2636   -8.7073 C   0  0  0  0  0  0  0  0  0  0  0  0
   26.7728  -20.5885   -9.2388 C   0  0  0  0  0  0  0  0  0  0  0  0
   26.3273  -21.3009  -10.5013 C   0  0  2  0  0  0  0  0  0  0  0  0
   27.4144  -21.2074  -11.4407 N   0  0  0  0  0  0  0  0  0  0  0  0
   25.1309  -20.6684  -11.0964 C   0  0  0  0  0  0  0  0  0  0  0  0
   25.0910  -19.4216  -11.2070 O   0  0  0  0  0  0  0  0  0  0  0  0
   22.5378  -19.4373  -16.0221 N   0  0  0  0  0  0  0  0  0  0  0  0
   23.8132  -19.9751  -15.6928 C   0  0  0  0  0  0  0  0  0  0  0  0
   24.5995  -20.2039  -16.6326 O   0  0  0  0  0  0  0  0  0  0  0  0
   24.1792  -20.2417  -14.2882 C   0  0  0  0  0  0  0  0  0  0  0  0
   23.1814  -19.8233  -13.2811 C   0  0  0  0  0  0  0  0  0  0  0  0
   22.8582  -20.7822  -12.1831 C   0  0  2  0  0  0  0  0  0  0  0  0
   23.9912  -21.4002  -11.5645 N   0  0  0  0  0  0  0  0  0  0  0  0
   21.7835  -21.7263  -12.5291 C   0  0  0  0  0  0  0  0  0  0  0  0
   22.0870  -22.7674  -13.1565 O   0  0  0  0  0  0  0  0  0  0  0  0
   17.6672  -20.7156  -11.4839 C   0  0  0  0  0  0  0  0  0  0  0  0
   18.2271  -22.1276  -11.3596 C   0  0  2  0  0  0  0  0  0  0  0  0
   18.7564  -22.3414   -9.9376 C   0  0  0  0  0  0  0  0  0  0  0  0
   19.3448  -22.3641  -12.3121 C   0  0  2  0  0  0  0  0  0  0  0  0
   20.4458  -21.4574  -12.1589 N   0  0  0  0  0  0  0  0  0  0  0  0
   18.8091  -22.3184  -13.7183 C   0  0  0  0  0  0  0  0  0  0  0  0
   18.0078  -23.3098  -14.2521 O   0  0  0  0  0  0  0  0  0  0  0  0
   19.0741  -21.3468  -14.4973 O   0  0  0  0  0  0  0  0  0  0  0  0
  1  2  1  0
  3  2  1  0
  4  3  1  0
  5  4  1  0
  5  6  1  6
  7  5  1  0
  8  7  2  0
  9 10  1  0
 10 12  1  0
 11 10  2  0
 13 12  1  0
 14 13  1  6
 14 15  1  0
 15  7  1  0
 16 14  1  0
 16 17  2  0
 19 18  1  1
 19 21  1  0
 20 19  1  0
 21 22  1  6
 22 16  1  0
 23 21  1  0
 24 23  1  0
 25 23  2  0
M  END
$$$$
