MQV.pdb
     RDKit          3D

 25 24  0  0  1  0  0  0  0  0999 V2000
   28.3140  -12.2639  -15.5786 C   0  0  0  0  0  0  0  0  0  0  0  0
   27.1998  -13.6917  -15.6324 S   0  0  0  0  0  0  0  0  0  0  0  0
   26.2743  -13.7763  -17.1824 C   0  0  0  0  0  0  0  0  0  0  0  0
   25.3887  -12.5536  -17.2742 C   0  0  0  0  0  0  0  0  0  0  0  0
   23.9419  -12.9993  -17.3640 C   0  0  2  0  0  0  0  0  0  0  0  0
   23.7846  -13.6573  -18.6349 N   0  0  0  0  0  0  0  0  0  0  0  0
   23.0091  -11.8539  -17.3046 C   0  0  0  0  0  0  0  0  0  0  0  0
   23.0884  -10.9566  -18.1745 O   0  0  0  0  0  0  0  0  0  0  0  0
   17.0526  -11.5991  -15.0357 N   0  0  0  0  0  0  0  0  0  0  0  0
   17.3325  -10.2565  -15.4143 C   0  0  0  0  0  0  0  0  0  0  0  0
   16.3918   -9.4399  -15.3701 O   0  0  0  0  0  0  0  0  0  0  0  0
   18.6898   -9.8595  -15.8361 C   0  0  0  0  0  0  0  0  0  0  0  0
   19.6895  -10.9479  -15.8672 C   0  0  0  0  0  0  0  0  0  0  0  0
   21.0855  -10.5980  -16.2647 C   0  0  2  0  0  0  0  0  0  0  0  0
   22.0003  -11.6981  -16.2987 N   0  0  0  0  0  0  0  0  0  0  0  0
   21.6110   -9.4115  -15.5702 C   0  0  0  0  0  0  0  0  0  0  0  0
   22.2863   -9.5836  -14.5290 O   0  0  0  0  0  0  0  0  0  0  0  0
   23.8302   -6.7506  -16.9761 C   0  0  0  0  0  0  0  0  0  0  0  0
   22.6006   -6.0335  -16.4317 C   0  0  2  0  0  0  0  0  0  0  0  0
   23.0387   -4.7726  -15.6793 C   0  0  0  0  0  0  0  0  0  0  0  0
   21.8316   -6.8923  -15.4918 C   0  0  2  0  0  0  0  0  0  0  0  0
   21.3557   -8.1148  -16.0723 N   0  0  0  0  0  0  0  0  0  0  0  0
   20.6899   -6.0945  -14.9203 C   0  0  0  0  0  0  0  0  0  0  0  0
   20.7984   -5.3455  -13.7640 O   0  0  0  0  0  0  0  0  0  0  0  0
   19.5490   -6.0718  -15.4851 O   0  0  0  0  0  0  0  0  0  0  0  0
  1  2  1  0
  3  2  1  0
  4  3  1  0
  5  4  1  0
  5  6  1  6
  7  5  1  0
  8  7  2  0
  9 10  1  0
 10 12  1  0
 11 10  2  0
 13 12  1  0
 14 13  1  1
 14 15  1  0
 15  7  1  0
 16 14  1  0
 16 17  2  0
 19 18  1  1
 19 21  1  0
 20 19  1  0
 21 22  1  6
 22 16  1  0
 23 21  1  0
 24 23  1  0
 25 23  2  0
M  END
$$$$
