MQV.pdb
     RDKit          3D

 25 24  0  0  1  0  0  0  0  0999 V2000
   31.0603  -40.8079   -9.2736 C   0  0  0  0  0  0  0  0  0  0  0  0
   32.8491  -40.7252   -9.5491 S   0  0  0  0  0  0  0  0  0  0  0  0
   33.5719  -39.2076   -8.8852 C   0  0  0  0  0  0  0  0  0  0  0  0
   32.6059  -38.6221   -7.8792 C   0  0  0  0  0  0  0  0  0  0  0  0
   32.7343  -37.1111   -7.8953 C   0  0  2  0  0  0  0  0  0  0  0  0
   34.0169  -36.7938   -7.3232 N   0  0  0  0  0  0  0  0  0  0  0  0
   31.6809  -36.4612   -7.0868 C   0  0  0  0  0  0  0  0  0  0  0  0
   31.9159  -36.1824   -5.8888 O   0  0  0  0  0  0  0  0  0  0  0  0
   27.0948  -32.4993   -9.0536 N   0  0  0  0  0  0  0  0  0  0  0  0
   26.8455  -32.6402   -7.6599 C   0  0  0  0  0  0  0  0  0  0  0  0
   25.9647  -31.9148   -7.1583 O   0  0  0  0  0  0  0  0  0  0  0  0
   27.6046  -33.6152   -6.8530 C   0  0  0  0  0  0  0  0  0  0  0  0
   28.5954  -34.4214   -7.5970 C   0  0  0  0  0  0  0  0  0  0  0  0
   29.4010  -35.4155   -6.8274 C   0  0  2  0  0  0  0  0  0  0  0  0
   30.3833  -36.1221   -7.5916 N   0  0  0  0  0  0  0  0  0  0  0  0
   28.5863  -36.2836   -5.9620 C   0  0  0  0  0  0  0  0  0  0  0  0
   27.8049  -37.0984   -6.5053 O   0  0  0  0  0  0  0  0  0  0  0  0
   29.7192  -36.7668   -1.8409 C   0  0  0  0  0  0  0  0  0  0  0  0
   28.8731  -37.7359   -2.6579 C   0  0  2  0  0  0  0  0  0  0  0  0
   29.7929  -38.6665   -3.4554 C   0  0  0  0  0  0  0  0  0  0  0  0
   27.9882  -37.0228   -3.6174 C   0  0  2  0  0  0  0  0  0  0  0  0
   28.6895  -36.1938   -4.5549 N   0  0  0  0  0  0  0  0  0  0  0  0
   26.9770  -36.2168   -2.8465 C   0  0  0  0  0  0  0  0  0  0  0  0
   26.9108  -34.8375   -2.9036 O   0  0  0  0  0  0  0  0  0  0  0  0
   26.1193  -36.7775   -2.0909 O   0  0  0  0  0  0  0  0  0  0  0  0
  1  2  1  0
  3  2  1  0
  4  3  1  0
  5  4  1  0
  5  6  1  1
  7  5  1  0
  8  7  2  0
  9 10  1  0
 10 12  1  0
 11 10  2  0
 13 12  1  0
 14 13  1  6
 14 15  1  0
 15  7  1  0
 16 14  1  0
 16 17  2  0
 19 18  1  6
 19 21  1  0
 20 19  1  0
 21 22  1  1
 22 16  1  0
 23 21  1  0
 24 23  1  0
 25 23  2  0
M  END
$$$$
