MQV.pdb
     RDKit          3D

 25 24  0  0  1  0  0  0  0  0999 V2000
   26.8242  -15.9061  -19.7904 C   0  0  0  0  0  0  0  0  0  0  0  0
   26.9862  -17.6856  -20.0900 S   0  0  0  0  0  0  0  0  0  0  0  0
   27.5125  -18.5811  -18.6110 C   0  0  0  0  0  0  0  0  0  0  0  0
   27.3244  -17.6745  -17.4149 C   0  0  0  0  0  0  0  0  0  0  0  0
   27.8598  -18.3722  -16.1794 C   0  0  2  0  0  0  0  0  0  0  0  0
   27.9021  -19.7798  -16.4788 N   0  0  0  0  0  0  0  0  0  0  0  0
   26.9837  -18.1632  -15.0070 C   0  0  0  0  0  0  0  0  0  0  0  0
   26.2242  -17.1678  -14.9825 O   0  0  0  0  0  0  0  0  0  0  0  0
   22.4418  -18.7689  -14.6656 N   0  0  0  0  0  0  0  0  0  0  0  0
   22.3851  -20.0143  -13.9800 C   0  0  0  0  0  0  0  0  0  0  0  0
   21.2844  -20.3598  -13.5079 O   0  0  0  0  0  0  0  0  0  0  0  0
   23.5895  -20.8563  -13.8451 C   0  0  0  0  0  0  0  0  0  0  0  0
   24.8456  -20.2523  -14.3376 C   0  0  0  0  0  0  0  0  0  0  0  0
   25.7324  -19.5828  -13.3403 C   0  0  2  0  0  0  0  0  0  0  0  0
   26.9443  -19.0401  -13.8743 N   0  0  0  0  0  0  0  0  0  0  0  0
   25.9259  -20.3677  -12.1104 C   0  0  0  0  0  0  0  0  0  0  0  0
   26.1605  -21.5936  -12.2192 O   0  0  0  0  0  0  0  0  0  0  0  0
   27.1861  -18.3484   -8.6815 C   0  0  0  0  0  0  0  0  0  0  0  0
   26.1766  -19.4621   -8.4303 C   0  0  2  0  0  0  0  0  0  0  0  0
   26.6033  -20.2669   -7.1981 C   0  0  0  0  0  0  0  0  0  0  0  0
   26.0842  -20.3945   -9.5855 C   0  0  2  0  0  0  0  0  0  0  0  0
   25.8476  -19.7461  -10.8431 N   0  0  0  0  0  0  0  0  0  0  0  0
   25.0168  -21.4186   -9.3054 C   0  0  0  0  0  0  0  0  0  0  0  0
   25.2779  -22.6329   -8.6995 O   0  0  0  0  0  0  0  0  0  0  0  0
   23.8005  -21.2113   -9.6197 O   0  0  0  0  0  0  0  0  0  0  0  0
  1  2  1  0
  3  2  1  0
  4  3  1  0
  5  4  1  0
  5  6  1  6
  7  5  1  0
  8  7  2  0
  9 10  1  0
 10 12  1  0
 11 10  2  0
 13 12  1  0
 14 13  1  6
 14 15  1  0
 15  7  1  0
 16 14  1  0
 16 17  2  0
 19 18  1  6
 19 21  1  0
 20 19  1  0
 21 22  1  6
 22 16  1  0
 23 21  1  0
 24 23  1  0
 25 23  2  0
M  END
$$$$
