MQV.pdb
     RDKit          3D

 25 24  0  0  1  0  0  0  0  0999 V2000
   12.4455  -11.7836  -17.8697 C   0  0  0  0  0  0  0  0  0  0  0  0
   13.4413  -12.9032  -18.8884 S   0  0  0  0  0  0  0  0  0  0  0  0
   15.0430  -13.2678  -18.1348 C   0  0  0  0  0  0  0  0  0  0  0  0
   15.3763  -12.1551  -17.1659 C   0  0  0  0  0  0  0  0  0  0  0  0
   16.7219  -12.4438  -16.5289 C   0  0  2  0  0  0  0  0  0  0  0  0
   16.5154  -13.5025  -15.5754 N   0  0  0  0  0  0  0  0  0  0  0  0
   17.2581  -11.2636  -15.8179 C   0  0  0  0  0  0  0  0  0  0  0  0
   16.7904  -10.9626  -14.6959 O   0  0  0  0  0  0  0  0  0  0  0  0
   22.8750   -9.7972  -14.1569 N   0  0  0  0  0  0  0  0  0  0  0  0
   22.1807   -8.5961  -13.8411 C   0  0  0  0  0  0  0  0  0  0  0  0
   22.7752   -7.7584  -13.1350 O   0  0  0  0  0  0  0  0  0  0  0  0
   20.8122   -8.3625  -14.3414 C   0  0  0  0  0  0  0  0  0  0  0  0
   20.2085   -9.4858  -15.0890 C   0  0  0  0  0  0  0  0  0  0  0  0
   18.8285   -9.2998  -15.6279 C   0  0  2  0  0  0  0  0  0  0  0  0
   18.2974  -10.4242  -16.3364 N   0  0  0  0  0  0  0  0  0  0  0  0
   18.6414   -8.0174  -16.3256 C   0  0  0  0  0  0  0  0  0  0  0  0
   18.9724   -7.9439  -17.5317 O   0  0  0  0  0  0  0  0  0  0  0  0
   15.8454   -5.2177  -14.8407 C   0  0  0  0  0  0  0  0  0  0  0  0
   16.4649   -5.1740  -16.2325 C   0  0  2  0  0  0  0  0  0  0  0  0
   15.6908   -6.1130  -17.1635 C   0  0  0  0  0  0  0  0  0  0  0  0
   17.8886   -5.6044  -16.2170 C   0  0  2  0  0  0  0  0  0  0  0  0
   18.1010   -6.9026  -15.6446 N   0  0  0  0  0  0  0  0  0  0  0  0
   18.7076   -4.5653  -15.4987 C   0  0  0  0  0  0  0  0  0  0  0  0
   18.9698   -3.3153  -16.0264 O   0  0  0  0  0  0  0  0  0  0  0  0
   19.2075   -4.7930  -14.3500 O   0  0  0  0  0  0  0  0  0  0  0  0
  1  2  1  0
  3  2  1  0
  4  3  1  0
  5  4  1  0
  5  6  1  1
  7  5  1  0
  8  7  2  0
  9 10  1  0
 10 12  1  0
 11 10  2  0
 13 12  1  0
 14 13  1  6
 14 15  1  0
 15  7  1  0
 16 14  1  0
 16 17  2  0
 19 18  1  1
 19 21  1  0
 20 19  1  0
 21 22  1  1
 22 16  1  0
 23 21  1  0
 24 23  1  0
 25 23  2  0
M  END
$$$$
