MQV.pdb
     RDKit          3D

 25 24  0  0  1  0  0  0  0  0999 V2000
   26.3985  -18.4107   -8.0644 C   0  0  0  0  0  0  0  0  0  0  0  0
   26.5648  -20.1228   -7.4956 S   0  0  0  0  0  0  0  0  0  0  0  0
   26.5777  -21.2990   -8.8677 C   0  0  0  0  0  0  0  0  0  0  0  0
   25.7271  -20.7354   -9.9844 C   0  0  0  0  0  0  0  0  0  0  0  0
   25.7169  -21.7182  -11.1393 C   0  0  2  0  0  0  0  0  0  0  0  0
   27.0468  -21.7303  -11.6906 N   0  0  0  0  0  0  0  0  0  0  0  0
   24.7686  -21.3121  -12.1983 C   0  0  0  0  0  0  0  0  0  0  0  0
   25.2136  -20.8163  -13.2587 O   0  0  0  0  0  0  0  0  0  0  0  0
   18.3629  -22.4821  -12.5611 N   0  0  0  0  0  0  0  0  0  0  0  0
   18.7314  -21.9839  -13.8419 C   0  0  0  0  0  0  0  0  0  0  0  0
   17.8468  -21.9468  -14.7193 O   0  0  0  0  0  0  0  0  0  0  0  0
   20.1098  -21.5276  -14.1053 C   0  0  0  0  0  0  0  0  0  0  0  0
   21.0552  -21.6776  -12.9788 C   0  0  0  0  0  0  0  0  0  0  0  0
   22.4439  -21.1615  -13.1638 C   0  0  2  0  0  0  0  0  0  0  0  0
   23.3462  -21.4501  -12.0911 N   0  0  0  0  0  0  0  0  0  0  0  0
   22.4919  -19.7624  -13.6184 C   0  0  0  0  0  0  0  0  0  0  0  0
   22.4107  -18.8555  -12.7578 O   0  0  0  0  0  0  0  0  0  0  0  0
   24.1963  -16.5045  -16.7754 C   0  0  0  0  0  0  0  0  0  0  0  0
   24.0264  -17.9507  -16.3253 C   0  0  2  0  0  0  0  0  0  0  0  0
   23.9623  -18.8620  -17.5555 C   0  0  0  0  0  0  0  0  0  0  0  0
   22.7779  -18.1415  -15.5398 C   0  0  2  0  0  0  0  0  0  0  0  0
   22.6266  -19.4589  -14.9926 N   0  0  0  0  0  0  0  0  0  0  0  0
   21.5964  -17.7841  -16.4017 C   0  0  0  0  0  0  0  0  0  0  0  0
   21.2455  -16.4803  -16.6963 O   0  0  0  0  0  0  0  0  0  0  0  0
   20.8502  -18.6823  -16.9090 O   0  0  0  0  0  0  0  0  0  0  0  0
  1  2  1  0
  3  2  1  0
  4  3  1  0
  5  4  1  0
  5  6  1  6
  7  5  1  0
  8  7  2  0
  9 10  1  0
 10 12  1  0
 11 10  2  0
 13 12  1  0
 14 13  1  1
 14 15  1  0
 15  7  1  0
 16 14  1  0
 16 17  2  0
 19 18  1  6
 19 21  1  0
 20 19  1  0
 21 22  1  6
 22 16  1  0
 23 21  1  0
 24 23  1  0
 25 23  2  0
M  END
$$$$
