MQV.pdb
     RDKit          3D

 25 24  0  0  1  0  0  0  0  0999 V2000
   11.2301  -11.1666  -14.8439 C   0  0  0  0  0  0  0  0  0  0  0  0
   12.9004  -10.5688  -14.4760 S   0  0  0  0  0  0  0  0  0  0  0  0
   14.1322  -11.2440  -15.6131 C   0  0  0  0  0  0  0  0  0  0  0  0
   15.4906  -10.7137  -15.2113 C   0  0  0  0  0  0  0  0  0  0  0  0
   16.5330  -11.2516  -16.1725 C   0  0  2  0  0  0  0  0  0  0  0  0
   16.9796  -12.5135  -15.6426 N   0  0  0  0  0  0  0  0  0  0  0  0
   17.6964  -10.3463  -16.2849 C   0  0  0  0  0  0  0  0  0  0  0  0
   18.7573  -10.6389  -15.6872 O   0  0  0  0  0  0  0  0  0  0  0  0
   20.8871   -8.4224  -20.5123 N   0  0  0  0  0  0  0  0  0  0  0  0
   21.1403   -7.2376  -19.7664 C   0  0  0  0  0  0  0  0  0  0  0  0
   22.1712   -6.5942  -20.0438 O   0  0  0  0  0  0  0  0  0  0  0  0
   20.2071   -6.7970  -18.7115 C   0  0  0  0  0  0  0  0  0  0  0  0
   19.0222   -7.6578  -18.5110 C   0  0  0  0  0  0  0  0  0  0  0  0
   18.8297   -8.2722  -17.1639 C   0  0  2  0  0  0  0  0  0  0  0  0
   17.6919   -9.1325  -17.0465 N   0  0  0  0  0  0  0  0  0  0  0  0
   18.9614   -7.3097  -16.0583 C   0  0  0  0  0  0  0  0  0  0  0  0
   17.9416   -6.6783  -15.6961 O   0  0  0  0  0  0  0  0  0  0  0  0
   22.7509   -7.0934  -13.9409 C   0  0  0  0  0  0  0  0  0  0  0  0
   21.4069   -6.7305  -13.3207 C   0  0  2  0  0  0  0  0  0  0  0  0
   20.7896   -7.9776  -12.6791 C   0  0  0  0  0  0  0  0  0  0  0  0
   20.4529   -6.2095  -14.3360 C   0  0  2  0  0  0  0  0  0  0  0  0
   20.2103   -7.1092  -15.4267 N   0  0  0  0  0  0  0  0  0  0  0  0
   20.9512   -4.8819  -14.8418 C   0  0  0  0  0  0  0  0  0  0  0  0
   20.9092   -3.7244  -14.0878 O   0  0  0  0  0  0  0  0  0  0  0  0
   21.4433   -4.7598  -16.0096 O   0  0  0  0  0  0  0  0  0  0  0  0
  1  2  1  0
  3  2  1  0
  4  3  1  0
  5  4  1  0
  5  6  1  1
  7  5  1  0
  8  7  2  0
  9 10  1  0
 10 12  1  0
 11 10  2  0
 13 12  1  0
 14 13  1  6
 14 15  1  0
 15  7  1  0
 16 14  1  0
 16 17  2  0
 19 18  1  6
 19 21  1  0
 20 19  1  0
 21 22  1  6
 22 16  1  0
 23 21  1  0
 24 23  1  0
 25 23  2  0
M  END
$$$$
