MQV.pdb
     RDKit          3D

 25 24  0  0  1  0  0  0  0  0999 V2000
   16.5590  -11.9993  -20.4579 C   0  0  0  0  0  0  0  0  0  0  0  0
   17.0148  -13.6550  -19.8804 S   0  0  0  0  0  0  0  0  0  0  0  0
   17.9832  -13.6028  -18.3554 C   0  0  0  0  0  0  0  0  0  0  0  0
   17.6395  -12.3276  -17.6180 C   0  0  0  0  0  0  0  0  0  0  0  0
   18.4399  -12.2723  -16.3311 C   0  0  2  0  0  0  0  0  0  0  0  0
   18.0001  -13.3750  -15.5166 N   0  0  0  0  0  0  0  0  0  0  0  0
   18.2054  -11.0137  -15.5916 C   0  0  0  0  0  0  0  0  0  0  0  0
   17.0295  -10.6252  -15.4057 O   0  0  0  0  0  0  0  0  0  0  0  0
   16.7322   -9.8105  -10.6514 N   0  0  0  0  0  0  0  0  0  0  0  0
   17.2346   -8.4971  -10.8677 C   0  0  0  0  0  0  0  0  0  0  0  0
   17.0591   -7.6592   -9.9617 O   0  0  0  0  0  0  0  0  0  0  0  0
   17.9386   -8.1557  -12.1190 C   0  0  0  0  0  0  0  0  0  0  0  0
   18.1339   -9.2754  -13.0641 C   0  0  0  0  0  0  0  0  0  0  0  0
   19.0161   -9.0413  -14.2458 C   0  0  2  0  0  0  0  0  0  0  0  0
   19.2537  -10.1921  -15.0627 N   0  0  0  0  0  0  0  0  0  0  0  0
   20.2346   -8.2811  -13.9240 C   0  0  0  0  0  0  0  0  0  0  0  0
   21.1429   -8.8589  -13.2831 O   0  0  0  0  0  0  0  0  0  0  0  0
   22.2002   -6.9848  -16.6753 C   0  0  0  0  0  0  0  0  0  0  0  0
   22.0009   -5.7860  -15.7557 C   0  0  2  0  0  0  0  0  0  0  0  0
   23.3119   -4.9994  -15.6541 C   0  0  0  0  0  0  0  0  0  0  0  0
   21.6010   -6.2022  -14.3848 C   0  0  2  0  0  0  0  0  0  0  0  0
   20.3683   -6.9341  -14.3319 N   0  0  0  0  0  0  0  0  0  0  0  0
   21.5356   -4.9847  -13.5017 C   0  0  0  0  0  0  0  0  0  0  0  0
   22.6324   -4.4838  -12.8264 O   0  0  0  0  0  0  0  0  0  0  0  0
   20.4468   -4.3471  -13.3313 O   0  0  0  0  0  0  0  0  0  0  0  0
  1  2  1  0
  3  2  1  0
  4  3  1  0
  5  4  1  0
  5  6  1  1
  7  5  1  0
  8  7  2  0
  9 10  1  0
 10 12  1  0
 11 10  2  0
 13 12  1  0
 14 13  1  1
 14 15  1  0
 15  7  1  0
 16 14  1  0
 16 17  2  0
 19 18  1  6
 19 21  1  0
 20 19  1  0
 21 22  1  6
 22 16  1  0
 23 21  1  0
 24 23  1  0
 25 23  2  0
M  END
$$$$
