NQH.pdb
     RDKit          3D

 28 28  0  0  1  0  0  0  0  0999 V2000
    8.4578  -12.7121   17.3454 N   0  0  0  0  0  0  0  0  0  0  0  0
    7.7752  -13.9446   17.3657 C   0  0  0  0  0  0  0  0  0  0  0  0
    7.8186  -14.6926   16.3583 O   0  0  0  0  0  0  0  0  0  0  0  0
    7.0189  -14.3346   18.5751 C   0  0  0  0  0  0  0  0  0  0  0  0
    7.8532  -14.9186   19.6529 C   0  0  2  0  0  0  0  0  0  0  0  0
    8.5058  -16.1734   19.2276 N   0  0  0  0  0  0  0  0  0  0  0  0
    7.1399  -15.2266   20.9180 C   0  0  0  0  0  0  0  0  0  0  0  0
    6.5577  -14.2605   21.5239 O   0  0  0  0  0  0  0  0  0  0  0  0
    7.0797  -20.8375   23.2994 N   0  0  0  0  0  0  0  0  0  0  0  0
    6.3049  -20.2416   24.3095 C   0  0  0  0  0  0  0  0  0  0  0  0
    6.0291  -20.8670   25.3491 O   0  0  0  0  0  0  0  0  0  0  0  0
    5.8020  -18.8479   24.1474 C   0  0  0  0  0  0  0  0  0  0  0  0
    6.3236  -18.3023   22.8512 C   0  0  0  0  0  0  0  0  0  0  0  0
    6.3883  -16.8152   22.7406 C   0  0  2  0  0  0  0  0  0  0  0  0
    7.0900  -16.5107   21.4580 N   0  0  0  0  0  0  0  0  0  0  0  0
    7.1215  -16.1127   23.7948 C   0  0  0  0  0  0  0  0  0  0  0  0
    6.5209  -15.2556   24.5429 O   0  0  0  0  0  0  0  0  0  0  0  0
    8.4942  -16.2722   24.1150 N   0  0  0  0  0  0  0  0  0  0  0  0
    9.1454  -15.6042   25.2373 C   0  0  1  0  0  0  0  0  0  0  0  0
    8.3602  -15.7981   26.5076 C   0  0  0  0  0  0  0  0  0  0  0  0
    9.0573  -15.1529   27.6299 C   0  0  0  0  0  0  0  0  0  0  0  0
    9.2015  -13.8070   27.8689 C   0  0  0  0  0  0  0  0  0  0  0  0
    9.9283  -13.6800   28.9946 N   0  0  0  0  0  0  0  0  0  0  0  0
   10.2519  -14.8935   29.4808 C   0  0  0  0  0  0  0  0  0  0  0  0
    9.7016  -15.7858   28.6192 N   0  0  0  0  0  0  0  0  0  0  0  0
   10.5605  -15.9797   25.3390 C   0  0  0  0  0  0  0  0  0  0  0  0
   11.5099  -15.3027   26.0796 O   0  0  0  0  0  0  0  0  0  0  0  0
   11.0212  -17.0035   24.7171 O   0  0  0  0  0  0  0  0  0  0  0  0
  1  2  1  0
  2  3  2  0
  4  5  1  0
  4  2  1  0
  5  6  1  6
  7  5  1  0
  7  8  2  0
 10  9  1  0
 10 12  1  0
 11 10  2  0
 13 12  1  0
 14 13  1  1
 14 15  1  0
 15  7  1  0
 16 14  1  0
 17 16  2  0
 18 16  1  0
 19 18  1  0
 19 26  1  0
 20 21  1  0
 19 20  1  1
 21 22  2  0
 23 22  1  0
 24 23  1  0
 25 24  2  0
 25 21  1  0
 26 27  1  0
 28 26  2  0
M  END
$$$$
