NQH.pdb
     RDKit          3D

 28 28  0  0  1  0  0  0  0  0999 V2000
   10.4219  -20.1875   13.5270 N   0  0  0  0  0  0  0  0  0  0  0  0
   10.8938  -20.6597   14.7679 C   0  0  0  0  0  0  0  0  0  0  0  0
   10.9148  -21.8948   14.9925 O   0  0  0  0  0  0  0  0  0  0  0  0
   11.3558  -19.6901   15.7843 C   0  0  0  0  0  0  0  0  0  0  0  0
   11.2076  -18.2703   15.3829 C   0  0  2  0  0  0  0  0  0  0  0  0
   12.2220  -17.8691   14.3872 N   0  0  0  0  0  0  0  0  0  0  0  0
   11.2920  -17.2815   16.4871 C   0  0  0  0  0  0  0  0  0  0  0  0
   12.4527  -16.8502   16.8130 O   0  0  0  0  0  0  0  0  0  0  0  0
    6.9992  -12.6109   20.2785 N   0  0  0  0  0  0  0  0  0  0  0  0
    7.6284  -13.2890   19.2202 C   0  0  0  0  0  0  0  0  0  0  0  0
    7.1833  -13.2074   18.0613 O   0  0  0  0  0  0  0  0  0  0  0  0
    8.8412  -14.1174   19.4738 C   0  0  0  0  0  0  0  0  0  0  0  0
    9.0085  -15.0766   18.3328 C   0  0  0  0  0  0  0  0  0  0  0  0
   10.2604  -15.8894   18.3333 C   0  0  2  0  0  0  0  0  0  0  0  0
   10.1674  -16.8211   17.1699 N   0  0  0  0  0  0  0  0  0  0  0  0
   10.5005  -16.7193   19.5148 C   0  0  0  0  0  0  0  0  0  0  0  0
   10.2403  -17.9789   19.4874 O   0  0  0  0  0  0  0  0  0  0  0  0
   11.0190  -16.2806   20.7603 N   0  0  0  0  0  0  0  0  0  0  0  0
   11.5444  -17.1828   21.7801 C   0  0  1  0  0  0  0  0  0  0  0  0
   12.4774  -18.1965   21.1721 C   0  0  0  0  0  0  0  0  0  0  0  0
   12.9826  -19.1003   22.2159 C   0  0  0  0  0  0  0  0  0  0  0  0
   12.7041  -19.0707   23.5616 C   0  0  0  0  0  0  0  0  0  0  0  0
   13.4015  -20.0703   24.1327 N   0  0  0  0  0  0  0  0  0  0  0  0
   14.1130  -20.7345   23.2020 C   0  0  0  0  0  0  0  0  0  0  0  0
   13.8363  -20.1152   22.0267 N   0  0  0  0  0  0  0  0  0  0  0  0
   12.1127  -16.4419   22.9122 C   0  0  0  0  0  0  0  0  0  0  0  0
   12.2795  -16.9464   24.1873 O   0  0  0  0  0  0  0  0  0  0  0  0
   12.5042  -15.2268   22.7801 O   0  0  0  0  0  0  0  0  0  0  0  0
  1  2  1  0
  2  3  2  0
  4  5  1  0
  4  2  1  0
  5  6  1  6
  7  5  1  0
  7  8  2  0
 10  9  1  0
 10 12  1  0
 11 10  2  0
 13 12  1  0
 14 13  1  1
 14 15  1  0
 15  7  1  0
 16 14  1  0
 17 16  2  0
 18 16  1  0
 19 18  1  0
 19 26  1  0
 20 21  1  0
 19 20  1  6
 21 22  2  0
 23 22  1  0
 24 23  1  0
 25 24  2  0
 25 21  1  0
 26 27  1  0
 28 26  2  0
M  END
$$$$
