NQH.pdb
     RDKit          3D

 28 28  0  0  1  0  0  0  0  0999 V2000
    8.0789  -14.6728   13.9407 N   0  0  0  0  0  0  0  0  0  0  0  0
    7.7123  -14.0071   15.1271 C   0  0  0  0  0  0  0  0  0  0  0  0
    6.6659  -13.3137   15.1495 O   0  0  0  0  0  0  0  0  0  0  0  0
    8.5685  -14.1373   16.3258 C   0  0  0  0  0  0  0  0  0  0  0  0
    9.8485  -14.8464   16.0853 C   0  0  2  0  0  0  0  0  0  0  0  0
    9.6734  -16.0186   15.2039 N   0  0  0  0  0  0  0  0  0  0  0  0
   10.5452  -15.3379   17.3007 C   0  0  0  0  0  0  0  0  0  0  0  0
   10.4652  -16.5873   17.5690 O   0  0  0  0  0  0  0  0  0  0  0  0
   15.9810  -13.7983   17.9110 N   0  0  0  0  0  0  0  0  0  0  0  0
   15.9773  -14.5491   19.0993 C   0  0  0  0  0  0  0  0  0  0  0  0
   17.0410  -14.8011   19.6933 O   0  0  0  0  0  0  0  0  0  0  0  0
   14.6944  -15.0549   19.6648 C   0  0  0  0  0  0  0  0  0  0  0  0
   13.5697  -14.5712   18.7981 C   0  0  0  0  0  0  0  0  0  0  0  0
   12.1988  -15.0126   19.1903 C   0  0  2  0  0  0  0  0  0  0  0  0
   11.2662  -14.4950   18.1450 N   0  0  0  0  0  0  0  0  0  0  0  0
   11.6977  -14.5243   20.4759 C   0  0  0  0  0  0  0  0  0  0  0  0
   11.2774  -13.3140   20.5917 O   0  0  0  0  0  0  0  0  0  0  0  0
   11.6097  -15.2664   21.6817 N   0  0  0  0  0  0  0  0  0  0  0  0
   10.3480  -15.6055   22.3320 C   0  0  1  0  0  0  0  0  0  0  0  0
    9.3464  -16.1153   21.3295 C   0  0  0  0  0  0  0  0  0  0  0  0
    8.5047  -15.0069   20.8556 C   0  0  0  0  0  0  0  0  0  0  0  0
    8.5400  -13.6925   21.2564 C   0  0  0  0  0  0  0  0  0  0  0  0
    7.5788  -13.0438   20.5730 N   0  0  0  0  0  0  0  0  0  0  0  0
    6.9335  -13.8951   19.7530 C   0  0  0  0  0  0  0  0  0  0  0  0
    7.5249  -15.1009   19.9470 N   0  0  0  0  0  0  0  0  0  0  0  0
   10.5571  -16.4935   23.4815 C   0  0  0  0  0  0  0  0  0  0  0  0
   11.5416  -17.4583   23.5702 O   0  0  0  0  0  0  0  0  0  0  0  0
    9.8033  -16.4251   24.5180 O   0  0  0  0  0  0  0  0  0  0  0  0
  1  2  1  0
  2  3  2  0
  4  5  1  0
  4  2  1  0
  5  6  1  6
  7  5  1  0
  7  8  2  0
 10  9  1  0
 10 12  1  0
 11 10  2  0
 13 12  1  0
 14 13  1  6
 14 15  1  0
 15  7  1  0
 16 14  1  0
 17 16  2  0
 18 16  1  0
 19 18  1  0
 19 26  1  0
 20 21  1  0
 19 20  1  6
 21 22  2  0
 23 22  1  0
 24 23  1  0
 25 24  2  0
 25 21  1  0
 26 27  1  0
 28 26  2  0
M  END
$$$$
