NQH.pdb
     RDKit          3D

 28 28  0  0  1  0  0  0  0  0999 V2000
   10.9133  -17.6372   16.0539 N   0  0  0  0  0  0  0  0  0  0  0  0
   11.3072  -18.3913   17.1770 C   0  0  0  0  0  0  0  0  0  0  0  0
   12.4356  -18.9417   17.1880 O   0  0  0  0  0  0  0  0  0  0  0  0
   10.3824  -18.5210   18.3237 C   0  0  0  0  0  0  0  0  0  0  0  0
   11.0512  -18.5286   19.6471 C   0  0  2  0  0  0  0  0  0  0  0  0
   10.3018  -19.3249   20.6401 N   0  0  0  0  0  0  0  0  0  0  0  0
   11.2700  -17.1945   20.2607 C   0  0  0  0  0  0  0  0  0  0  0  0
   12.4744  -16.7685   20.3465 O   0  0  0  0  0  0  0  0  0  0  0  0
    8.2512  -12.2094   19.3139 N   0  0  0  0  0  0  0  0  0  0  0  0
    7.5677  -13.4154   19.5464 C   0  0  0  0  0  0  0  0  0  0  0  0
    6.3918  -13.5610   19.1670 O   0  0  0  0  0  0  0  0  0  0  0  0
    8.2453  -14.5392   20.2531 C   0  0  0  0  0  0  0  0  0  0  0  0
    9.6220  -14.0920   20.6462 C   0  0  0  0  0  0  0  0  0  0  0  0
   10.4488  -15.0845   21.3940 C   0  0  2  0  0  0  0  0  0  0  0  0
   10.2237  -16.4087   20.7413 N   0  0  0  0  0  0  0  0  0  0  0  0
   10.1353  -15.2596   22.8130 C   0  0  0  0  0  0  0  0  0  0  0  0
   10.2943  -14.2856   23.6382 O   0  0  0  0  0  0  0  0  0  0  0  0
    9.6452  -16.4407   23.4272 N   0  0  0  0  0  0  0  0  0  0  0  0
    9.3502  -16.5481   24.8524 C   0  0  1  0  0  0  0  0  0  0  0  0
    7.8655  -16.6361   25.0890 C   0  0  0  0  0  0  0  0  0  0  0  0
    7.3005  -15.2858   25.2278 C   0  0  0  0  0  0  0  0  0  0  0  0
    7.9792  -14.1038   25.4059 C   0  0  0  0  0  0  0  0  0  0  0  0
    7.0571  -13.1282   25.5035 N   0  0  0  0  0  0  0  0  0  0  0  0
    5.8180  -13.6442   25.3943 C   0  0  0  0  0  0  0  0  0  0  0  0
    5.9966  -14.9786   25.2248 N   0  0  0  0  0  0  0  0  0  0  0  0
   10.1266  -17.6221   25.4828 C   0  0  0  0  0  0  0  0  0  0  0  0
   11.0520  -18.4175   24.8354 O   0  0  0  0  0  0  0  0  0  0  0  0
    9.9846  -17.9001   26.7277 O   0  0  0  0  0  0  0  0  0  0  0  0
  1  2  1  0
  2  3  2  0
  4  5  1  0
  4  2  1  0
  5  6  1  1
  7  5  1  0
  7  8  2  0
 10  9  1  0
 10 12  1  0
 11 10  2  0
 13 12  1  0
 14 13  1  6
 14 15  1  0
 15  7  1  0
 16 14  1  0
 17 16  2  0
 18 16  1  0
 19 18  1  0
 19 26  1  0
 20 21  1  0
 19 20  1  6
 21 22  2  0
 23 22  1  0
 24 23  1  0
 25 24  2  0
 25 21  1  0
 26 27  1  0
 28 26  2  0
M  END
$$$$
