NQH.pdb
     RDKit          3D

 28 28  0  0  1  0  0  0  0  0999 V2000
   11.3242  -18.9795   15.1943 N   0  0  0  0  0  0  0  0  0  0  0  0
   12.0658  -18.8954   16.3895 C   0  0  0  0  0  0  0  0  0  0  0  0
   12.8747  -19.8101   16.6815 O   0  0  0  0  0  0  0  0  0  0  0  0
   11.8768  -17.7295   17.2793 C   0  0  0  0  0  0  0  0  0  0  0  0
   11.6966  -18.0780   18.7093 C   0  0  2  0  0  0  0  0  0  0  0  0
   10.5519  -18.9881   18.9159 N   0  0  0  0  0  0  0  0  0  0  0  0
   11.4876  -16.9290   19.6260 C   0  0  0  0  0  0  0  0  0  0  0  0
   12.4007  -16.0328   19.6756 O   0  0  0  0  0  0  0  0  0  0  0  0
    6.9950  -13.4772   19.7075 N   0  0  0  0  0  0  0  0  0  0  0  0
    7.3769  -13.0704   20.9977 C   0  0  0  0  0  0  0  0  0  0  0  0
    6.8083  -12.1145   21.5552 O   0  0  0  0  0  0  0  0  0  0  0  0
    8.4717  -13.7815   21.7167 C   0  0  0  0  0  0  0  0  0  0  0  0
    9.0069  -14.8591   20.8210 C   0  0  0  0  0  0  0  0  0  0  0  0
   10.1505  -15.6543   21.3574 C   0  0  2  0  0  0  0  0  0  0  0  0
   10.3509  -16.8016   20.4227 N   0  0  0  0  0  0  0  0  0  0  0  0
    9.9780  -16.2287   22.6926 C   0  0  0  0  0  0  0  0  0  0  0  0
    8.9552  -16.9631   22.9565 O   0  0  0  0  0  0  0  0  0  0  0  0
   10.8536  -16.0687   23.7972 N   0  0  0  0  0  0  0  0  0  0  0  0
   11.2094  -17.1504   24.7100 C   0  0  1  0  0  0  0  0  0  0  0  0
   11.6192  -18.3834   23.9487 C   0  0  0  0  0  0  0  0  0  0  0  0
   11.2665  -19.5861   24.7175 C   0  0  0  0  0  0  0  0  0  0  0  0
   10.5857  -19.6529   25.9098 C   0  0  0  0  0  0  0  0  0  0  0  0
   10.5112  -20.9528   26.2511 N   0  0  0  0  0  0  0  0  0  0  0  0
   11.1183  -21.7152   25.3218 C   0  0  0  0  0  0  0  0  0  0  0  0
   11.5762  -20.8463   24.3854 N   0  0  0  0  0  0  0  0  0  0  0  0
   12.1849  -16.7084   25.7134 C   0  0  0  0  0  0  0  0  0  0  0  0
   12.2900  -17.2140   26.9946 O   0  0  0  0  0  0  0  0  0  0  0  0
   13.0348  -15.7836   25.4496 O   0  0  0  0  0  0  0  0  0  0  0  0
  1  2  1  0
  2  3  2  0
  4  5  1  0
  4  2  1  0
  5  6  1  6
  7  5  1  0
  7  8  2  0
 10  9  1  0
 10 12  1  0
 11 10  2  0
 13 12  1  0
 14 13  1  6
 14 15  1  0
 15  7  1  0
 16 14  1  0
 17 16  2  0
 18 16  1  0
 19 18  1  0
 19 26  1  0
 20 21  1  0
 19 20  1  6
 21 22  2  0
 23 22  1  0
 24 23  1  0
 25 24  2  0
 25 21  1  0
 26 27  1  0
 28 26  2  0
M  END
$$$$
