NQH.pdb
     RDKit          3D

 28 28  0  0  1  0  0  0  0  0999 V2000
    8.0158  -15.7677   12.2622 N   0  0  0  0  0  0  0  0  0  0  0  0
    7.5641  -16.5041   13.3753 C   0  0  0  0  0  0  0  0  0  0  0  0
    6.5219  -17.1973   13.2770 O   0  0  0  0  0  0  0  0  0  0  0  0
    8.3270  -16.4463   14.6408 C   0  0  0  0  0  0  0  0  0  0  0  0
    9.5388  -15.5937   14.5826 C   0  0  2  0  0  0  0  0  0  0  0  0
    9.2193  -14.2055   14.1925 N   0  0  0  0  0  0  0  0  0  0  0  0
   10.6010  -16.0549   13.6534 C   0  0  0  0  0  0  0  0  0  0  0  0
   11.0429  -17.2477   13.7988 O   0  0  0  0  0  0  0  0  0  0  0  0
   12.1422  -12.8922    8.6260 N   0  0  0  0  0  0  0  0  0  0  0  0
   13.0532  -13.9470    8.4434 C   0  0  0  0  0  0  0  0  0  0  0  0
   13.7885  -13.9831    7.4405 O   0  0  0  0  0  0  0  0  0  0  0  0
   13.1502  -15.0395    9.4526 C   0  0  0  0  0  0  0  0  0  0  0  0
   12.2505  -14.7034   10.6047 C   0  0  0  0  0  0  0  0  0  0  0  0
   12.1737  -15.7164   11.6982 C   0  0  2  0  0  0  0  0  0  0  0  0
   11.1248  -15.2419   12.6495 N   0  0  0  0  0  0  0  0  0  0  0  0
   13.3901  -15.9213   12.4860 C   0  0  0  0  0  0  0  0  0  0  0  0
   14.0877  -14.9137   12.8775 O   0  0  0  0  0  0  0  0  0  0  0  0
   13.9254  -17.1684   12.8990 N   0  0  0  0  0  0  0  0  0  0  0  0
   15.1362  -17.3022   13.7026 C   0  0  1  0  0  0  0  0  0  0  0  0
   14.8186  -17.8610   15.0646 C   0  0  0  0  0  0  0  0  0  0  0  0
   16.0581  -18.0305   15.8370 C   0  0  0  0  0  0  0  0  0  0  0  0
   17.3405  -17.7248   15.4479 C   0  0  0  0  0  0  0  0  0  0  0  0
   18.1548  -18.0657   16.4640 N   0  0  0  0  0  0  0  0  0  0  0  0
   17.4396  -18.5765   17.4844 C   0  0  0  0  0  0  0  0  0  0  0  0
   16.1474  -18.5434   17.0712 N   0  0  0  0  0  0  0  0  0  0  0  0
   16.1835  -18.0330   12.9796 C   0  0  0  0  0  0  0  0  0  0  0  0
   16.0271  -18.6264   11.7421 O   0  0  0  0  0  0  0  0  0  0  0  0
   17.3586  -18.1722   13.4766 O   0  0  0  0  0  0  0  0  0  0  0  0
  1  2  1  0
  2  3  2  0
  4  5  1  0
  4  2  1  0
  5  6  1  6
  7  5  1  0
  7  8  2  0
 10  9  1  0
 10 12  1  0
 11 10  2  0
 13 12  1  0
 14 13  1  6
 14 15  1  0
 15  7  1  0
 16 14  1  0
 17 16  2  0
 18 16  1  0
 19 18  1  0
 19 26  1  0
 20 21  1  0
 19 20  1  1
 21 22  2  0
 23 22  1  0
 24 23  1  0
 25 24  2  0
 25 21  1  0
 26 27  1  0
 28 26  2  0
M  END
$$$$
