NQH.pdb
     RDKit          3D

 28 28  0  0  1  0  0  0  0  0999 V2000
   14.9842  -18.0688    8.7271 N   0  0  0  0  0  0  0  0  0  0  0  0
   15.4807  -18.3514   10.0151 C   0  0  0  0  0  0  0  0  0  0  0  0
   16.5766  -18.9515   10.1379 O   0  0  0  0  0  0  0  0  0  0  0  0
   14.7001  -17.9355   11.2002 C   0  0  0  0  0  0  0  0  0  0  0  0
   15.3080  -18.3230   12.4961 C   0  0  2  0  0  0  0  0  0  0  0  0
   15.9351  -19.6588   12.4345 N   0  0  0  0  0  0  0  0  0  0  0  0
   14.3803  -18.3499   13.6549 C   0  0  0  0  0  0  0  0  0  0  0  0
   14.3596  -17.3274   14.4252 O   0  0  0  0  0  0  0  0  0  0  0  0
   10.1747  -22.9012   14.5883 N   0  0  0  0  0  0  0  0  0  0  0  0
    9.6353  -21.8417   15.3381 C   0  0  0  0  0  0  0  0  0  0  0  0
    8.4271  -21.8256   15.6345 O   0  0  0  0  0  0  0  0  0  0  0  0
   10.5069  -20.7199   15.7891 C   0  0  0  0  0  0  0  0  0  0  0  0
   11.5615  -20.4893   14.7476 C   0  0  0  0  0  0  0  0  0  0  0  0
   12.5745  -19.4378   15.0572 C   0  0  2  0  0  0  0  0  0  0  0  0
   13.5505  -19.4364   13.9268 N   0  0  0  0  0  0  0  0  0  0  0  0
   13.3544  -19.6218   16.2821 C   0  0  0  0  0  0  0  0  0  0  0  0
   12.7607  -19.7732   17.4133 O   0  0  0  0  0  0  0  0  0  0  0  0
   14.7690  -19.6594   16.3815 N   0  0  0  0  0  0  0  0  0  0  0  0
   15.4849  -19.9479   17.6201 C   0  0  1  0  0  0  0  0  0  0  0  0
   15.8966  -21.3954   17.6785 C   0  0  0  0  0  0  0  0  0  0  0  0
   14.8782  -22.1763   18.3960 C   0  0  0  0  0  0  0  0  0  0  0  0
   13.9950  -21.7316   19.3508 C   0  0  0  0  0  0  0  0  0  0  0  0
   13.2680  -22.7941   19.7437 N   0  0  0  0  0  0  0  0  0  0  0  0
   13.6550  -23.8975   19.0755 C   0  0  0  0  0  0  0  0  0  0  0  0
   14.6507  -23.4883   18.2495 N   0  0  0  0  0  0  0  0  0  0  0  0
   16.5823  -18.9988   17.8406 C   0  0  0  0  0  0  0  0  0  0  0  0
   17.2260  -18.7960   19.0458 O   0  0  0  0  0  0  0  0  0  0  0  0
   17.0278  -18.2668   16.8852 O   0  0  0  0  0  0  0  0  0  0  0  0
  1  2  1  0
  2  3  2  0
  4  5  1  0
  4  2  1  0
  5  6  1  6
  7  5  1  0
  7  8  2  0
 10  9  1  0
 10 12  1  0
 11 10  2  0
 13 12  1  0
 14 13  1  6
 14 15  1  0
 15  7  1  0
 16 14  1  0
 17 16  2  0
 18 16  1  0
 19 18  1  0
 19 26  1  0
 20 21  1  0
 19 20  1  6
 21 22  2  0
 23 22  1  0
 24 23  1  0
 25 24  2  0
 25 21  1  0
 26 27  1  0
 28 26  2  0
M  END
$$$$
