NQH.pdb
     RDKit          3D

 28 28  0  0  1  0  0  0  0  0999 V2000
    8.9035  -16.1944   17.9227 N   0  0  0  0  0  0  0  0  0  0  0  0
    7.5167  -16.2912   18.1523 C   0  0  0  0  0  0  0  0  0  0  0  0
    6.7244  -16.2559   17.1790 O   0  0  0  0  0  0  0  0  0  0  0  0
    7.0194  -16.4324   19.5378 C   0  0  0  0  0  0  0  0  0  0  0  0
    8.0873  -16.4880   20.5651 C   0  0  2  0  0  0  0  0  0  0  0  0
    8.9410  -17.6832   20.4103 N   0  0  0  0  0  0  0  0  0  0  0  0
    7.6196  -16.4882   21.9742 C   0  0  0  0  0  0  0  0  0  0  0  0
    6.8926  -15.5077   22.3607 O   0  0  0  0  0  0  0  0  0  0  0  0
    7.2763  -21.6170   25.1939 N   0  0  0  0  0  0  0  0  0  0  0  0
    7.0618  -20.7585   26.2860 C   0  0  0  0  0  0  0  0  0  0  0  0
    6.8657  -21.2187   27.4251 O   0  0  0  0  0  0  0  0  0  0  0  0
    7.0665  -19.2807   26.0926 C   0  0  0  0  0  0  0  0  0  0  0  0
    7.3264  -18.9920   24.6437 C   0  0  0  0  0  0  0  0  0  0  0  0
    7.3984  -17.5509   24.2616 C   0  0  2  0  0  0  0  0  0  0  0  0
    7.9461  -17.5023   22.8731 N   0  0  0  0  0  0  0  0  0  0  0  0
    8.2619  -16.6996   25.0813 C   0  0  0  0  0  0  0  0  0  0  0  0
    9.5289  -16.6569   24.8618 O   0  0  0  0  0  0  0  0  0  0  0  0
    7.8494  -15.8629   26.1500 N   0  0  0  0  0  0  0  0  0  0  0  0
    8.7766  -15.1551   27.0269 C   0  0  1  0  0  0  0  0  0  0  0  0
    8.1284  -13.9319   27.6199 C   0  0  0  0  0  0  0  0  0  0  0  0
    7.7182  -13.0137   26.5473 C   0  0  0  0  0  0  0  0  0  0  0  0
    8.0383  -13.0828   25.2123 C   0  0  0  0  0  0  0  0  0  0  0  0
    7.4626  -12.0247   24.6116 N   0  0  0  0  0  0  0  0  0  0  0  0
    6.7888  -11.2854   25.5132 C   0  0  0  0  0  0  0  0  0  0  0  0
    6.9628  -11.9182   26.7009 N   0  0  0  0  0  0  0  0  0  0  0  0
    9.3783  -16.0584   28.0147 C   0  0  0  0  0  0  0  0  0  0  0  0
   10.3737  -15.7092   28.9066 O   0  0  0  0  0  0  0  0  0  0  0  0
    9.0005  -17.2811   28.1119 O   0  0  0  0  0  0  0  0  0  0  0  0
  1  2  1  0
  2  3  2  0
  4  5  1  0
  4  2  1  0
  5  6  1  6
  7  5  1  0
  7  8  2  0
 10  9  1  0
 10 12  1  0
 11 10  2  0
 13 12  1  0
 14 13  1  1
 14 15  1  0
 15  7  1  0
 16 14  1  0
 17 16  2  0
 18 16  1  0
 19 18  1  0
 19 26  1  0
 20 21  1  0
 19 20  1  1
 21 22  2  0
 23 22  1  0
 24 23  1  0
 25 24  2  0
 25 21  1  0
 26 27  1  0
 28 26  2  0
M  END
$$$$
