NQH.pdb
     RDKit          3D

 28 28  0  0  1  0  0  0  0  0999 V2000
   10.7594  -18.5958   14.8249 N   0  0  0  0  0  0  0  0  0  0  0  0
   10.6551  -17.2147   14.5658 C   0  0  0  0  0  0  0  0  0  0  0  0
   10.6523  -16.8064   13.3786 O   0  0  0  0  0  0  0  0  0  0  0  0
   10.5511  -16.2704   15.6990 C   0  0  0  0  0  0  0  0  0  0  0  0
   10.6700  -16.9057   17.0336 C   0  0  2  0  0  0  0  0  0  0  0  0
    9.5412  -17.8158   17.3146 N   0  0  0  0  0  0  0  0  0  0  0  0
   10.7476  -15.9691   18.1830 C   0  0  0  0  0  0  0  0  0  0  0  0
   11.7508  -15.1754   18.2378 O   0  0  0  0  0  0  0  0  0  0  0  0
    8.8083  -11.9357   19.9755 N   0  0  0  0  0  0  0  0  0  0  0  0
    7.9131  -12.6253   19.1396 C   0  0  0  0  0  0  0  0  0  0  0  0
    7.3430  -12.0401   18.2014 O   0  0  0  0  0  0  0  0  0  0  0  0
    7.6343  -14.0716   19.3676 C   0  0  0  0  0  0  0  0  0  0  0  0
    8.4181  -14.5237   20.5640 C   0  0  0  0  0  0  0  0  0  0  0  0
    9.8267  -14.9457   20.3079 C   0  0  2  0  0  0  0  0  0  0  0  0
    9.7820  -15.9321   19.1875 N   0  0  0  0  0  0  0  0  0  0  0  0
   10.5240  -15.6022   21.4147 C   0  0  0  0  0  0  0  0  0  0  0  0
   10.6530  -15.0046   22.5467 O   0  0  0  0  0  0  0  0  0  0  0  0
   11.1073  -16.8951   21.3934 N   0  0  0  0  0  0  0  0  0  0  0  0
   11.9222  -17.4323   22.4785 C   0  0  1  0  0  0  0  0  0  0  0  0
   13.2673  -17.8796   21.9701 C   0  0  0  0  0  0  0  0  0  0  0  0
   13.0934  -18.7816   20.8221 C   0  0  0  0  0  0  0  0  0  0  0  0
   12.3312  -19.9237   20.7573 C   0  0  0  0  0  0  0  0  0  0  0  0
   12.4882  -20.4353   19.5223 N   0  0  0  0  0  0  0  0  0  0  0  0
   13.3209  -19.6626   18.7991 C   0  0  0  0  0  0  0  0  0  0  0  0
   13.6803  -18.6479   19.6254 N   0  0  0  0  0  0  0  0  0  0  0  0
   11.9839  -16.5053   23.6144 C   0  0  0  0  0  0  0  0  0  0  0  0
   12.5859  -15.2622   23.5925 O   0  0  0  0  0  0  0  0  0  0  0  0
   11.4609  -16.8081   24.7466 O   0  0  0  0  0  0  0  0  0  0  0  0
  1  2  1  0
  2  3  2  0
  4  5  1  0
  4  2  1  0
  5  6  1  1
  7  5  1  0
  7  8  2  0
 10  9  1  0
 10 12  1  0
 11 10  2  0
 13 12  1  0
 14 13  1  1
 14 15  1  0
 15  7  1  0
 16 14  1  0
 17 16  2  0
 18 16  1  0
 19 18  1  0
 19 26  1  0
 20 21  1  0
 19 20  1  6
 21 22  2  0
 23 22  1  0
 24 23  1  0
 25 24  2  0
 25 21  1  0
 26 27  1  0
 28 26  2  0
M  END
$$$$
