NQH.pdb
     RDKit          3D

 28 28  0  0  1  0  0  0  0  0999 V2000
    9.0527  -16.8121   16.5860 N   0  0  0  0  0  0  0  0  0  0  0  0
    8.0172  -17.5439   17.2005 C   0  0  0  0  0  0  0  0  0  0  0  0
    7.3117  -18.3182   16.5084 O   0  0  0  0  0  0  0  0  0  0  0  0
    7.7800  -17.3856   18.6515 C   0  0  0  0  0  0  0  0  0  0  0  0
    9.0095  -17.1549   19.4477 C   0  0  2  0  0  0  0  0  0  0  0  0
   10.0824  -18.1068   19.0953 N   0  0  0  0  0  0  0  0  0  0  0  0
    8.8429  -17.2397   20.9205 C   0  0  0  0  0  0  0  0  0  0  0  0
    7.9582  -16.4904   21.4640 O   0  0  0  0  0  0  0  0  0  0  0  0
   11.7074  -21.4940   24.3216 N   0  0  0  0  0  0  0  0  0  0  0  0
   11.0925  -20.8153   25.3879 C   0  0  0  0  0  0  0  0  0  0  0  0
   11.2493  -21.2018   26.5600 O   0  0  0  0  0  0  0  0  0  0  0  0
   10.2418  -19.6196   25.1269 C   0  0  0  0  0  0  0  0  0  0  0  0
   10.2161  -19.3683   23.6484 C   0  0  0  0  0  0  0  0  0  0  0  0
    9.4380  -18.1777   23.1958 C   0  0  2  0  0  0  0  0  0  0  0  0
    9.6094  -18.0909   21.7148 N   0  0  0  0  0  0  0  0  0  0  0  0
    9.8488  -16.8827   23.7403 C   0  0  0  0  0  0  0  0  0  0  0  0
   10.2476  -15.9449   22.9550 O   0  0  0  0  0  0  0  0  0  0  0  0
    9.8590  -16.5102   25.1091 N   0  0  0  0  0  0  0  0  0  0  0  0
    9.3029  -15.2574   25.6102 C   0  0  1  0  0  0  0  0  0  0  0  0
    7.9267  -15.0170   25.0477 C   0  0  0  0  0  0  0  0  0  0  0  0
    7.4509  -13.6831   25.4431 C   0  0  0  0  0  0  0  0  0  0  0  0
    8.1376  -12.7169   26.1391 C   0  0  0  0  0  0  0  0  0  0  0  0
    7.3043  -11.6710   26.2917 N   0  0  0  0  0  0  0  0  0  0  0  0
    6.1141  -11.9347   25.7196 C   0  0  0  0  0  0  0  0  0  0  0  0
    6.2313  -13.1839   25.2027 N   0  0  0  0  0  0  0  0  0  0  0  0
    9.3783  -15.1828   27.0739 C   0  0  0  0  0  0  0  0  0  0  0  0
    9.3915  -16.2713   27.9242 O   0  0  0  0  0  0  0  0  0  0  0  0
    9.4371  -14.0521   27.6781 O   0  0  0  0  0  0  0  0  0  0  0  0
  1  2  1  0
  2  3  2  0
  4  5  1  0
  4  2  1  0
  5  6  1  6
  7  5  1  0
  7  8  2  0
 10  9  1  0
 10 12  1  0
 11 10  2  0
 13 12  1  0
 14 13  1  1
 14 15  1  0
 15  7  1  0
 16 14  1  0
 17 16  2  0
 18 16  1  0
 19 18  1  0
 19 26  1  0
 20 21  1  0
 19 20  1  1
 21 22  2  0
 23 22  1  0
 24 23  1  0
 25 24  2  0
 25 21  1  0
 26 27  1  0
 28 26  2  0
M  END
$$$$
