NQH.pdb
     RDKit          3D

 28 28  0  0  1  0  0  0  0  0999 V2000
    8.1869  -12.1557   17.7601 N   0  0  0  0  0  0  0  0  0  0  0  0
    8.1526  -13.5426   17.5139 C   0  0  0  0  0  0  0  0  0  0  0  0
    8.4750  -13.9782   16.3814 O   0  0  0  0  0  0  0  0  0  0  0  0
    7.7363  -14.4608   18.5958 C   0  0  0  0  0  0  0  0  0  0  0  0
    8.7635  -14.6714   19.6443 C   0  0  2  0  0  0  0  0  0  0  0  0
   10.0643  -15.0718   19.0706 N   0  0  0  0  0  0  0  0  0  0  0  0
    8.4290  -15.6895   20.6718 C   0  0  0  0  0  0  0  0  0  0  0  0
    7.3145  -15.5677   21.2903 O   0  0  0  0  0  0  0  0  0  0  0  0
   10.7381  -21.2610   20.4120 N   0  0  0  0  0  0  0  0  0  0  0  0
   10.0458  -21.4549   21.6198 C   0  0  0  0  0  0  0  0  0  0  0  0
   10.0020  -22.5786   22.1521 O   0  0  0  0  0  0  0  0  0  0  0  0
    9.3528  -20.3128   22.2806 C   0  0  0  0  0  0  0  0  0  0  0  0
    9.5623  -19.0834   21.4472 C   0  0  0  0  0  0  0  0  0  0  0  0
    8.8898  -17.8400   21.9263 C   0  0  2  0  0  0  0  0  0  0  0  0
    9.2779  -16.7510   20.9809 N   0  0  0  0  0  0  0  0  0  0  0  0
    9.2502  -17.3770   23.2672 C   0  0  0  0  0  0  0  0  0  0  0  0
    8.7816  -17.9716   24.3073 O   0  0  0  0  0  0  0  0  0  0  0  0
   10.1067  -16.2904   23.5806 N   0  0  0  0  0  0  0  0  0  0  0  0
   10.3953  -15.8556   24.9435 C   0  0  1  0  0  0  0  0  0  0  0  0
    9.3478  -14.8908   25.4332 C   0  0  0  0  0  0  0  0  0  0  0  0
    9.6225  -14.5208   26.8294 C   0  0  0  0  0  0  0  0  0  0  0  0
    8.7880  -14.6500   27.9140 C   0  0  0  0  0  0  0  0  0  0  0  0
    9.4479  -14.1643   28.9819 N   0  0  0  0  0  0  0  0  0  0  0  0
   10.6700  -13.7311   28.6181 C   0  0  0  0  0  0  0  0  0  0  0  0
   10.7525  -13.9628   27.2836 N   0  0  0  0  0  0  0  0  0  0  0  0
   10.6276  -16.9981   25.8347 C   0  0  0  0  0  0  0  0  0  0  0  0
   11.5265  -17.0167   26.8833 O   0  0  0  0  0  0  0  0  0  0  0  0
    9.9824  -18.0975   25.6853 O   0  0  0  0  0  0  0  0  0  0  0  0
  1  2  1  0
  2  3  2  0
  4  5  1  0
  4  2  1  0
  5  6  1  6
  7  5  1  0
  7  8  2  0
 10  9  1  0
 10 12  1  0
 11 10  2  0
 13 12  1  0
 14 13  1  6
 14 15  1  0
 15  7  1  0
 16 14  1  0
 17 16  2  0
 18 16  1  0
 19 18  1  0
 19 26  1  0
 20 21  1  0
 19 20  1  1
 21 22  2  0
 23 22  1  0
 24 23  1  0
 25 24  2  0
 25 21  1  0
 26 27  1  0
 28 26  2  0
M  END
$$$$
