NQH.pdb
     RDKit          3D

 28 28  0  0  1  0  0  0  0  0999 V2000
    8.4561  -14.9098   15.2370 N   0  0  0  0  0  0  0  0  0  0  0  0
    7.6947  -14.0038   16.0018 C   0  0  0  0  0  0  0  0  0  0  0  0
    6.8529  -13.2674   15.4315 O   0  0  0  0  0  0  0  0  0  0  0  0
    7.9022  -13.9368   17.4645 C   0  0  0  0  0  0  0  0  0  0  0  0
    8.9298  -14.8749   17.9771 C   0  0  2  0  0  0  0  0  0  0  0  0
    8.5563  -16.2847   17.7437 N   0  0  0  0  0  0  0  0  0  0  0  0
    9.2366  -14.7582   19.4250 C   0  0  0  0  0  0  0  0  0  0  0  0
    9.7192  -13.6488   19.8441 O   0  0  0  0  0  0  0  0  0  0  0  0
    6.6567  -18.0673   23.8332 N   0  0  0  0  0  0  0  0  0  0  0  0
    6.0834  -17.0700   23.0255 C   0  0  0  0  0  0  0  0  0  0  0  0
    4.8479  -16.9393   22.9606 O   0  0  0  0  0  0  0  0  0  0  0  0
    6.9515  -16.1530   22.2337 C   0  0  0  0  0  0  0  0  0  0  0  0
    8.3847  -16.4812   22.5304 C   0  0  0  0  0  0  0  0  0  0  0  0
    9.4091  -15.7126   21.7639 C   0  0  2  0  0  0  0  0  0  0  0  0
    9.0237  -15.8021   20.3239 N   0  0  0  0  0  0  0  0  0  0  0  0
   10.7896  -16.1899   21.8572 C   0  0  0  0  0  0  0  0  0  0  0  0
   11.1309  -17.3015   21.3068 O   0  0  0  0  0  0  0  0  0  0  0  0
   11.8631  -15.5375   22.5162 N   0  0  0  0  0  0  0  0  0  0  0  0
   13.1694  -16.1503   22.7352 C   0  0  1  0  0  0  0  0  0  0  0  0
   14.2779  -15.1937   22.3830 C   0  0  0  0  0  0  0  0  0  0  0  0
   14.1968  -14.8368   20.9589 C   0  0  0  0  0  0  0  0  0  0  0  0
   13.2922  -15.2895   20.0282 C   0  0  0  0  0  0  0  0  0  0  0  0
   13.6103  -14.7139   18.8538 N   0  0  0  0  0  0  0  0  0  0  0  0
   14.6825  -13.9126   19.0018 C   0  0  0  0  0  0  0  0  0  0  0  0
   15.0250  -14.0066   20.3115 N   0  0  0  0  0  0  0  0  0  0  0  0
   13.2742  -16.7267   24.0807 C   0  0  0  0  0  0  0  0  0  0  0  0
   12.2790  -16.6933   25.0381 O   0  0  0  0  0  0  0  0  0  0  0  0
   14.3447  -17.3206   24.4661 O   0  0  0  0  0  0  0  0  0  0  0  0
  1  2  1  0
  2  3  2  0
  4  5  1  0
  4  2  1  0
  5  6  1  1
  7  5  1  0
  7  8  2  0
 10  9  1  0
 10 12  1  0
 11 10  2  0
 13 12  1  0
 14 13  1  1
 14 15  1  0
 15  7  1  0
 16 14  1  0
 17 16  2  0
 18 16  1  0
 19 18  1  0
 19 26  1  0
 20 21  1  0
 19 20  1  1
 21 22  2  0
 23 22  1  0
 24 23  1  0
 25 24  2  0
 25 21  1  0
 26 27  1  0
 28 26  2  0
M  END
$$$$
