NQH.pdb
     RDKit          3D

 28 28  0  0  1  0  0  0  0  0999 V2000
   19.6677  -22.8157   20.3055 N   0  0  0  0  0  0  0  0  0  0  0  0
   18.4873  -23.4978   20.6615 C   0  0  0  0  0  0  0  0  0  0  0  0
   18.3934  -24.7298   20.4388 O   0  0  0  0  0  0  0  0  0  0  0  0
   17.3791  -22.7484   21.2916 C   0  0  0  0  0  0  0  0  0  0  0  0
   17.0196  -23.2213   22.6503 C   0  0  2  0  0  0  0  0  0  0  0  0
   16.1324  -24.4013   22.6076 N   0  0  0  0  0  0  0  0  0  0  0  0
   16.3450  -22.2225   23.5173 C   0  0  0  0  0  0  0  0  0  0  0  0
   17.0236  -21.2031   23.8909 O   0  0  0  0  0  0  0  0  0  0  0  0
   10.5150  -21.0277   23.0874 N   0  0  0  0  0  0  0  0  0  0  0  0
   10.6882  -20.3130   24.2853 C   0  0  0  0  0  0  0  0  0  0  0  0
    9.7468  -19.6676   24.7803 O   0  0  0  0  0  0  0  0  0  0  0  0
   12.0067  -20.3193   24.9802 C   0  0  0  0  0  0  0  0  0  0  0  0
   12.9472  -21.1955   24.2071 C   0  0  0  0  0  0  0  0  0  0  0  0
   14.3275  -21.3291   24.7590 C   0  0  2  0  0  0  0  0  0  0  0  0
   15.0217  -22.3614   23.9328 N   0  0  0  0  0  0  0  0  0  0  0  0
   14.4352  -21.7671   26.1515 C   0  0  0  0  0  0  0  0  0  0  0  0
   14.5295  -23.0188   26.4331 O   0  0  0  0  0  0  0  0  0  0  0  0
   14.4529  -20.9314   27.2977 N   0  0  0  0  0  0  0  0  0  0  0  0
   14.4460  -21.4368   28.6667 C   0  0  1  0  0  0  0  0  0  0  0  0
   15.5683  -20.8323   29.4686 C   0  0  0  0  0  0  0  0  0  0  0  0
   15.5206  -21.3314   30.8508 C   0  0  0  0  0  0  0  0  0  0  0  0
   14.8275  -20.8019   31.9132 C   0  0  0  0  0  0  0  0  0  0  0  0
   15.0941  -21.5726   32.9840 N   0  0  0  0  0  0  0  0  0  0  0  0
   15.9302  -22.5719   32.6435 C   0  0  0  0  0  0  0  0  0  0  0  0
   16.1780  -22.3999   31.3205 N   0  0  0  0  0  0  0  0  0  0  0  0
   13.1216  -21.3002   29.2838 C   0  0  0  0  0  0  0  0  0  0  0  0
   12.1836  -20.3439   28.9463 O   0  0  0  0  0  0  0  0  0  0  0  0
   12.7394  -22.0949   30.2163 O   0  0  0  0  0  0  0  0  0  0  0  0
  1  2  1  0
  2  3  2  0
  4  5  1  0
  4  2  1  0
  5  6  1  6
  7  5  1  0
  7  8  2  0
 10  9  1  0
 10 12  1  0
 11 10  2  0
 13 12  1  0
 14 13  1  6
 14 15  1  0
 15  7  1  0
 16 14  1  0
 17 16  2  0
 18 16  1  0
 19 18  1  0
 19 26  1  0
 20 21  1  0
 19 20  1  1
 21 22  2  0
 23 22  1  0
 24 23  1  0
 25 24  2  0
 25 21  1  0
 26 27  1  0
 28 26  2  0
M  END
$$$$
