NQH.pdb
     RDKit          3D

 28 28  0  0  1  0  0  0  0  0999 V2000
   15.7888  -16.4616   17.2521 N   0  0  0  0  0  0  0  0  0  0  0  0
   14.8905  -17.1357   16.4013 C   0  0  0  0  0  0  0  0  0  0  0  0
   15.0031  -18.3758   16.2402 O   0  0  0  0  0  0  0  0  0  0  0  0
   13.8303  -16.3688   15.7124 C   0  0  0  0  0  0  0  0  0  0  0  0
   13.8034  -14.9259   16.0535 C   0  0  2  0  0  0  0  0  0  0  0  0
   15.1484  -14.3188   15.9920 N   0  0  0  0  0  0  0  0  0  0  0  0
   13.2569  -14.5958   17.3938 C   0  0  0  0  0  0  0  0  0  0  0  0
   14.0879  -14.2747   18.3134 O   0  0  0  0  0  0  0  0  0  0  0  0
    7.2480  -13.7651   18.3642 N   0  0  0  0  0  0  0  0  0  0  0  0
    7.6644  -13.5327   19.6864 C   0  0  0  0  0  0  0  0  0  0  0  0
    6.8492  -13.1691   20.5531 O   0  0  0  0  0  0  0  0  0  0  0  0
    9.0929  -13.7194   20.0683 C   0  0  0  0  0  0  0  0  0  0  0  0
    9.8663  -14.1037   18.8419 C   0  0  0  0  0  0  0  0  0  0  0  0
   11.3409  -14.2575   19.0141 C   0  0  2  0  0  0  0  0  0  0  0  0
   11.8924  -14.6291   17.6769 N   0  0  0  0  0  0  0  0  0  0  0  0
   11.7854  -15.2905   19.9509 C   0  0  0  0  0  0  0  0  0  0  0  0
   12.6506  -16.1698   19.5855 O   0  0  0  0  0  0  0  0  0  0  0  0
   11.3569  -15.4496   21.2939 N   0  0  0  0  0  0  0  0  0  0  0  0
   12.1594  -16.0962   22.3273 C   0  0  1  0  0  0  0  0  0  0  0  0
   13.5712  -15.5723   22.3181 C   0  0  0  0  0  0  0  0  0  0  0  0
   14.4588  -16.5384   21.6543 C   0  0  0  0  0  0  0  0  0  0  0  0
   14.1002  -17.6343   20.9062 C   0  0  0  0  0  0  0  0  0  0  0  0
   15.2386  -18.2375   20.5161 N   0  0  0  0  0  0  0  0  0  0  0  0
   16.3073  -17.5673   20.9875 C   0  0  0  0  0  0  0  0  0  0  0  0
   15.7979  -16.5221   21.6871 N   0  0  0  0  0  0  0  0  0  0  0  0
   11.5008  -16.0337   23.6372 C   0  0  0  0  0  0  0  0  0  0  0  0
   10.2846  -15.4278   23.8859 O   0  0  0  0  0  0  0  0  0  0  0  0
   12.0400  -16.5597   24.6763 O   0  0  0  0  0  0  0  0  0  0  0  0
  1  2  1  0
  2  3  2  0
  4  5  1  0
  4  2  1  0
  5  6  1  1
  7  5  1  0
  7  8  2  0
 10  9  1  0
 10 12  1  0
 11 10  2  0
 13 12  1  0
 14 13  1  6
 14 15  1  0
 15  7  1  0
 16 14  1  0
 17 16  2  0
 18 16  1  0
 19 18  1  0
 19 26  1  0
 20 21  1  0
 19 20  1  1
 21 22  2  0
 23 22  1  0
 24 23  1  0
 25 24  2  0
 25 21  1  0
 26 27  1  0
 28 26  2  0
M  END
$$$$
