NQH.pdb
     RDKit          3D

 28 28  0  0  1  0  0  0  0  0999 V2000
   11.7292  -23.4107   26.8181 N   0  0  0  0  0  0  0  0  0  0  0  0
   11.9337  -22.2616   26.0287 C   0  0  0  0  0  0  0  0  0  0  0  0
   12.6983  -22.3219   25.0346 O   0  0  0  0  0  0  0  0  0  0  0  0
   11.2432  -21.0039   26.3865 C   0  0  0  0  0  0  0  0  0  0  0  0
   12.0269  -20.1101   27.2730 C   0  0  2  0  0  0  0  0  0  0  0  0
   13.4789  -20.3566   27.1615 N   0  0  0  0  0  0  0  0  0  0  0  0
   11.6985  -20.1949   28.7184 C   0  0  0  0  0  0  0  0  0  0  0  0
   11.5796  -19.0977   29.3675 O   0  0  0  0  0  0  0  0  0  0  0  0
    9.3851  -25.2307   31.3276 N   0  0  0  0  0  0  0  0  0  0  0  0
    9.0314  -24.2735   32.2942 C   0  0  0  0  0  0  0  0  0  0  0  0
    8.2947  -24.5791   33.2491 O   0  0  0  0  0  0  0  0  0  0  0  0
    9.5362  -22.8752   32.1872 C   0  0  0  0  0  0  0  0  0  0  0  0
   10.4899  -22.8015   31.0317 C   0  0  0  0  0  0  0  0  0  0  0  0
   11.1797  -21.4934   30.8291 C   0  0  2  0  0  0  0  0  0  0  0  0
   11.5238  -21.4102   29.3783 N   0  0  0  0  0  0  0  0  0  0  0  0
   12.4278  -21.2915   31.5666 C   0  0  0  0  0  0  0  0  0  0  0  0
   12.4847  -20.4349   32.5248 O   0  0  0  0  0  0  0  0  0  0  0  0
   13.6555  -21.9666   31.3442 N   0  0  0  0  0  0  0  0  0  0  0  0
   14.7328  -22.0299   32.3267 C   0  0  1  0  0  0  0  0  0  0  0  0
   14.2842  -22.7501   33.5709 C   0  0  0  0  0  0  0  0  0  0  0  0
   15.4116  -22.8839   34.5051 C   0  0  0  0  0  0  0  0  0  0  0  0
   16.6720  -22.3488   34.3851 C   0  0  0  0  0  0  0  0  0  0  0  0
   17.3761  -22.7481   35.4604 N   0  0  0  0  0  0  0  0  0  0  0  0
   16.6120  -23.5167   36.2598 C   0  0  0  0  0  0  0  0  0  0  0  0
   15.4034  -23.5848   35.6467 N   0  0  0  0  0  0  0  0  0  0  0  0
   15.9686  -22.5571   31.7365 C   0  0  0  0  0  0  0  0  0  0  0  0
   17.2114  -21.9619   31.8340 O   0  0  0  0  0  0  0  0  0  0  0  0
   15.9684  -23.6496   31.0630 O   0  0  0  0  0  0  0  0  0  0  0  0
  1  2  1  0
  2  3  2  0
  4  5  1  0
  4  2  1  0
  5  6  1  1
  7  5  1  0
  7  8  2  0
 10  9  1  0
 10 12  1  0
 11 10  2  0
 13 12  1  0
 14 13  1  6
 14 15  1  0
 15  7  1  0
 16 14  1  0
 17 16  2  0
 18 16  1  0
 19 18  1  0
 19 26  1  0
 20 21  1  0
 19 20  1  1
 21 22  2  0
 23 22  1  0
 24 23  1  0
 25 24  2  0
 25 21  1  0
 26 27  1  0
 28 26  2  0
M  END
$$$$
