NQH.pdb
     RDKit          3D

 28 28  0  0  1  0  0  0  0  0999 V2000
   10.6308  -19.2362   14.7087 N   0  0  0  0  0  0  0  0  0  0  0  0
   11.8605  -18.7022   14.2750 C   0  0  0  0  0  0  0  0  0  0  0  0
   12.2849  -18.9798   13.1264 O   0  0  0  0  0  0  0  0  0  0  0  0
   12.6297  -17.8237   15.1823 C   0  0  0  0  0  0  0  0  0  0  0  0
   11.9862  -17.5950   16.4985 C   0  0  2  0  0  0  0  0  0  0  0  0
   10.8046  -16.7155   16.3901 N   0  0  0  0  0  0  0  0  0  0  0  0
   12.8578  -16.9971   17.5411 C   0  0  0  0  0  0  0  0  0  0  0  0
   13.8920  -17.6589   17.9042 O   0  0  0  0  0  0  0  0  0  0  0  0
   16.5942  -13.7613   19.2458 N   0  0  0  0  0  0  0  0  0  0  0  0
   16.3074  -13.9614   17.8844 C   0  0  0  0  0  0  0  0  0  0  0  0
   17.2258  -14.1025   17.0572 O   0  0  0  0  0  0  0  0  0  0  0  0
   14.8942  -14.0072   17.4129 C   0  0  0  0  0  0  0  0  0  0  0  0
   13.9915  -13.8817   18.6042 C   0  0  0  0  0  0  0  0  0  0  0  0
   13.4683  -15.1591   19.1720 C   0  0  2  0  0  0  0  0  0  0  0  0
   12.5864  -15.7627   18.1289 N   0  0  0  0  0  0  0  0  0  0  0  0
   12.6626  -15.0520   20.3892 C   0  0  0  0  0  0  0  0  0  0  0  0
   13.1173  -14.4241   21.4158 O   0  0  0  0  0  0  0  0  0  0  0  0
   11.3626  -15.5840   20.5876 N   0  0  0  0  0  0  0  0  0  0  0  0
   10.6430  -15.5086   21.8550 C   0  0  1  0  0  0  0  0  0  0  0  0
    9.1694  -15.2996   21.6250 C   0  0  0  0  0  0  0  0  0  0  0  0
    8.9645  -14.2382   20.6285 C   0  0  0  0  0  0  0  0  0  0  0  0
    9.9223  -13.4856   19.9916 C   0  0  0  0  0  0  0  0  0  0  0  0
    9.2768  -12.6247   19.1829 N   0  0  0  0  0  0  0  0  0  0  0  0
    7.9453  -12.8010   19.2808 C   0  0  0  0  0  0  0  0  0  0  0  0
    7.7794  -13.8034   20.1803 N   0  0  0  0  0  0  0  0  0  0  0  0
   10.9628  -16.6474   22.7236 C   0  0  0  0  0  0  0  0  0  0  0  0
   10.5119  -16.8085   24.0192 O   0  0  0  0  0  0  0  0  0  0  0  0
   11.7154  -17.6030   22.3140 O   0  0  0  0  0  0  0  0  0  0  0  0
  1  2  1  0
  2  3  2  0
  4  5  1  0
  4  2  1  0
  5  6  1  6
  7  5  1  0
  7  8  2  0
 10  9  1  0
 10 12  1  0
 11 10  2  0
 13 12  1  0
 14 13  1  6
 14 15  1  0
 15  7  1  0
 16 14  1  0
 17 16  2  0
 18 16  1  0
 19 18  1  0
 19 26  1  0
 20 21  1  0
 19 20  1  6
 21 22  2  0
 23 22  1  0
 24 23  1  0
 25 24  2  0
 25 21  1  0
 26 27  1  0
 28 26  2  0
M  END
$$$$
