NQH.pdb
     RDKit          3D

 28 28  0  0  1  0  0  0  0  0999 V2000
   17.3441  -14.7544   16.9030 N   0  0  0  0  0  0  0  0  0  0  0  0
   16.1058  -14.3098   16.3987 C   0  0  0  0  0  0  0  0  0  0  0  0
   15.9111  -14.2979   15.1585 O   0  0  0  0  0  0  0  0  0  0  0  0
   15.0571  -13.8643   17.3413 C   0  0  0  0  0  0  0  0  0  0  0  0
   14.2394  -14.9647   17.9065 C   0  0  2  0  0  0  0  0  0  0  0  0
   13.3311  -15.5509   16.9002 N   0  0  0  0  0  0  0  0  0  0  0  0
   13.3934  -14.5997   19.0707 C   0  0  0  0  0  0  0  0  0  0  0  0
   13.9806  -14.1528   20.1170 O   0  0  0  0  0  0  0  0  0  0  0  0
    7.4580  -13.3671   18.5378 N   0  0  0  0  0  0  0  0  0  0  0  0
    7.4706  -13.4046   19.9428 C   0  0  0  0  0  0  0  0  0  0  0  0
    6.4412  -13.1491   20.5931 O   0  0  0  0  0  0  0  0  0  0  0  0
    8.7219  -13.7523   20.6742 C   0  0  0  0  0  0  0  0  0  0  0  0
    9.8063  -14.0020   19.6685 C   0  0  0  0  0  0  0  0  0  0  0  0
   11.1533  -14.3324   20.2201 C   0  0  2  0  0  0  0  0  0  0  0  0
   12.0057  -14.7310   19.0605 N   0  0  0  0  0  0  0  0  0  0  0  0
   11.2137  -15.4346   21.1813 C   0  0  0  0  0  0  0  0  0  0  0  0
   11.0578  -16.6492   20.7872 O   0  0  0  0  0  0  0  0  0  0  0  0
   11.4399  -15.3225   22.5773 N   0  0  0  0  0  0  0  0  0  0  0  0
   11.3552  -16.4477   23.5028 C   0  0  1  0  0  0  0  0  0  0  0  0
   12.6144  -16.5677   24.3201 C   0  0  0  0  0  0  0  0  0  0  0  0
   13.7717  -16.7495   23.4316 C   0  0  0  0  0  0  0  0  0  0  0  0
   13.7863  -16.7444   22.0571 C   0  0  0  0  0  0  0  0  0  0  0  0
   15.0567  -16.9693   21.6735 N   0  0  0  0  0  0  0  0  0  0  0  0
   15.8507  -17.1172   22.7512 C   0  0  0  0  0  0  0  0  0  0  0  0
   15.0320  -16.9770   23.8243 N   0  0  0  0  0  0  0  0  0  0  0  0
   10.1222  -16.3988   24.2973 C   0  0  0  0  0  0  0  0  0  0  0  0
    9.7459  -17.3388   25.2369 O   0  0  0  0  0  0  0  0  0  0  0  0
    9.2820  -15.4385   24.1591 O   0  0  0  0  0  0  0  0  0  0  0  0
  1  2  1  0
  2  3  2  0
  4  5  1  0
  4  2  1  0
  5  6  1  6
  7  5  1  0
  7  8  2  0
 10  9  1  0
 10 12  1  0
 11 10  2  0
 13 12  1  0
 14 13  1  6
 14 15  1  0
 15  7  1  0
 16 14  1  0
 17 16  2  0
 18 16  1  0
 19 18  1  0
 19 26  1  0
 20 21  1  0
 19 20  1  1
 21 22  2  0
 23 22  1  0
 24 23  1  0
 25 24  2  0
 25 21  1  0
 26 27  1  0
 28 26  2  0
M  END
$$$$
