DVH.pdb
     RDKit          3D

 26 26  0  0  1  0  0  0  0  0999 V2000
   11.4421  -15.4900   15.5464 N   0  0  0  0  0  0  0  0  0  0  0  0
   10.6356  -16.1928   16.4966 C   0  0  1  0  0  0  0  0  0  0  0  0
   11.1851  -17.5670   16.7713 C   0  0  0  0  0  0  0  0  0  0  0  0
   11.2415  -18.3105   15.4655 C   0  0  0  0  0  0  0  0  0  0  0  0
   10.2121  -18.4668   14.7532 O   0  0  0  0  0  0  0  0  0  0  0  0
   10.5965  -15.4358   17.7730 C   0  0  0  0  0  0  0  0  0  0  0  0
   11.6464  -14.9582   18.2679 O   0  0  0  0  0  0  0  0  0  0  0  0
   12.4269  -18.8352   15.0256 O   0  0  0  0  0  0  0  0  0  0  0  0
    7.6697  -13.4497   21.3177 C   0  0  0  0  0  0  0  0  0  0  0  0
    7.8794  -13.9115   19.9023 C   0  0  1  0  0  0  0  0  0  0  0  0
    7.6808  -12.7804   18.9061 C   0  0  0  0  0  0  0  0  0  0  0  0
    9.2225  -14.5836   19.7110 C   0  0  2  0  0  0  0  0  0  0  0  0
    9.3650  -15.2401   18.4559 N   0  0  0  0  0  0  0  0  0  0  0  0
    9.4238  -15.5720   20.7976 C   0  0  0  0  0  0  0  0  0  0  0  0
    8.7950  -16.6613   20.8535 O   0  0  0  0  0  0  0  0  0  0  0  0
   10.3658  -15.2748   21.8173 N   0  0  0  0  0  0  0  0  0  0  0  0
   10.5747  -16.1401   22.9549 C   0  0  1  0  0  0  0  0  0  0  0  0
   12.0205  -16.3577   23.2907 C   0  0  0  0  0  0  0  0  0  0  0  0
   12.6092  -17.3163   22.3391 C   0  0  0  0  0  0  0  0  0  0  0  0
   11.9329  -18.0386   21.4023 C   0  0  0  0  0  0  0  0  0  0  0  0
   12.8508  -18.7834   20.7513 N   0  0  0  0  0  0  0  0  0  0  0  0
   14.0632  -18.5224   21.2786 C   0  0  0  0  0  0  0  0  0  0  0  0
   13.9193  -17.6091   22.2684 N   0  0  0  0  0  0  0  0  0  0  0  0
    9.8451  -15.5391   24.1203 C   0  0  0  0  0  0  0  0  0  0  0  0
    9.3749  -14.3714   24.0098 O   0  0  0  0  0  0  0  0  0  0  0  0
    9.6694  -16.2143   25.3062 O   0  0  0  0  0  0  0  0  0  0  0  0
  2  6  1  0
  2  1  1  6
  3  2  1  0
  3  4  1  0
  4  8  1  0
  4  5  2  0
  6  7  2  0
 10  9  1  1
 10 11  1  0
 10 12  1  0
 12 14  1  0
 12 13  1  6
 13  6  1  0
 14 15  2  0
 16 14  1  0
 16 17  1  0
 17 24  1  0
 17 18  1  1
 19 18  1  0
 19 20  2  0
 21 20  1  0
 22 21  1  0
 23 22  2  0
 23 19  1  0
 24 25  2  0
 24 26  1  0
M  END
$$$$
