DVH.pdb
     RDKit          3D

 26 26  0  0  1  0  0  0  0  0999 V2000
    8.9192  -16.9893   17.5540 N   0  0  0  0  0  0  0  0  0  0  0  0
    9.9988  -17.4497   18.3723 C   0  0  1  0  0  0  0  0  0  0  0  0
   11.3072  -17.4039   17.6296 C   0  0  0  0  0  0  0  0  0  0  0  0
   11.2854  -18.4899   16.5898 C   0  0  0  0  0  0  0  0  0  0  0  0
   10.4780  -18.4561   15.6211 O   0  0  0  0  0  0  0  0  0  0  0  0
   10.1100  -16.5917   19.5787 C   0  0  0  0  0  0  0  0  0  0  0  0
   11.1641  -16.5763   20.2599 O   0  0  0  0  0  0  0  0  0  0  0  0
   12.1533  -19.5447   16.6813 O   0  0  0  0  0  0  0  0  0  0  0  0
    8.1751  -12.9042   20.0459 C   0  0  0  0  0  0  0  0  0  0  0  0
    7.9387  -13.8948   21.1520 C   0  0  1  0  0  0  0  0  0  0  0  0
    6.5323  -14.4698   21.1013 C   0  0  0  0  0  0  0  0  0  0  0  0
    8.9814  -14.9924   21.1719 C   0  0  2  0  0  0  0  0  0  0  0  0
    9.0203  -15.7721   19.9816 N   0  0  0  0  0  0  0  0  0  0  0  0
    8.7160  -15.8857   22.3250 C   0  0  0  0  0  0  0  0  0  0  0  0
    8.0733  -16.9631   22.2191 O   0  0  0  0  0  0  0  0  0  0  0  0
    9.2084  -15.5077   23.6018 N   0  0  0  0  0  0  0  0  0  0  0  0
   10.0561  -16.3703   24.3916 C   0  0  1  0  0  0  0  0  0  0  0  0
   11.2820  -16.8407   23.6664 C   0  0  0  0  0  0  0  0  0  0  0  0
   11.1721  -18.2850   23.3967 C   0  0  0  0  0  0  0  0  0  0  0  0
   10.1283  -19.0906   23.7403 C   0  0  0  0  0  0  0  0  0  0  0  0
   10.4365  -20.3302   23.3049 N   0  0  0  0  0  0  0  0  0  0  0  0
   11.6435  -20.2841   22.7074 C   0  0  0  0  0  0  0  0  0  0  0  0
   12.1071  -19.0126   22.7614 N   0  0  0  0  0  0  0  0  0  0  0  0
   10.4319  -15.6195   25.6353 C   0  0  0  0  0  0  0  0  0  0  0  0
   10.8168  -14.4203   25.5317 O   0  0  0  0  0  0  0  0  0  0  0  0
   10.3725  -16.1903   26.8858 O   0  0  0  0  0  0  0  0  0  0  0  0
  2  6  1  0
  2  1  1  6
  3  2  1  0
  3  4  1  0
  4  8  1  0
  4  5  2  0
  6  7  2  0
 10  9  1  6
 10 11  1  0
 10 12  1  0
 12 14  1  0
 12 13  1  6
 13  6  1  0
 14 15  2  0
 16 14  1  0
 16 17  1  0
 17 24  1  0
 17 18  1  6
 19 18  1  0
 19 20  2  0
 21 20  1  0
 22 21  1  0
 23 22  2  0
 23 19  1  0
 24 25  2  0
 24 26  1  0
M  END
$$$$
