DVH.pdb
     RDKit          3D

 26 26  0  0  1  0  0  0  0  0999 V2000
   10.4999  -17.3159   16.3928 N   0  0  0  0  0  0  0  0  0  0  0  0
    9.3863  -17.3726   17.2893 C   0  0  1  0  0  0  0  0  0  0  0  0
    9.1554  -18.7739   17.7881 C   0  0  0  0  0  0  0  0  0  0  0  0
    8.8460  -19.6412   16.5995 C   0  0  0  0  0  0  0  0  0  0  0  0
    7.9166  -19.3501   15.7976 O   0  0  0  0  0  0  0  0  0  0  0  0
    9.6416  -16.4916   18.4567 C   0  0  0  0  0  0  0  0  0  0  0  0
   10.7927  -16.3946   18.9474 O   0  0  0  0  0  0  0  0  0  0  0  0
    9.5785  -20.7743   16.3678 O   0  0  0  0  0  0  0  0  0  0  0  0
    7.7297  -12.9995   21.5007 C   0  0  0  0  0  0  0  0  0  0  0  0
    7.6176  -13.8295   20.2521 C   0  0  1  0  0  0  0  0  0  0  0  0
    7.5583  -12.9634   19.0041 C   0  0  0  0  0  0  0  0  0  0  0  0
    8.7172  -14.8655   20.1510 C   0  0  2  0  0  0  0  0  0  0  0  0
    8.5822  -15.7425   19.0379 N   0  0  0  0  0  0  0  0  0  0  0  0
    8.7366  -15.6680   21.3975 C   0  0  0  0  0  0  0  0  0  0  0  0
    7.7941  -16.4335   21.7303 O   0  0  0  0  0  0  0  0  0  0  0  0
    9.8669  -15.5668   22.2505 N   0  0  0  0  0  0  0  0  0  0  0  0
   10.4334  -16.7116   22.9249 C   0  0  1  0  0  0  0  0  0  0  0  0
   10.9097  -17.7866   21.9934 C   0  0  0  0  0  0  0  0  0  0  0  0
   11.4717  -18.9026   22.7741 C   0  0  0  0  0  0  0  0  0  0  0  0
   12.0767  -18.8089   23.9913 C   0  0  0  0  0  0  0  0  0  0  0  0
   12.4383  -20.0611   24.3412 N   0  0  0  0  0  0  0  0  0  0  0  0
   12.0625  -20.9033   23.3587 C   0  0  0  0  0  0  0  0  0  0  0  0
   11.4598  -20.1877   22.3794 N   0  0  0  0  0  0  0  0  0  0  0  0
   11.5602  -16.2183   23.7844 C   0  0  0  0  0  0  0  0  0  0  0  0
   12.2790  -15.2683   23.3628 O   0  0  0  0  0  0  0  0  0  0  0  0
   11.8395  -16.7637   25.0163 O   0  0  0  0  0  0  0  0  0  0  0  0
  2  6  1  0
  2  1  1  6
  3  2  1  0
  3  4  1  0
  4  8  1  0
  4  5  2  0
  6  7  2  0
 10  9  1  1
 10 11  1  0
 10 12  1  0
 12 14  1  0
 12 13  1  6
 13  6  1  0
 14 15  2  0
 16 14  1  0
 16 17  1  0
 17 24  1  0
 17 18  1  6
 19 18  1  0
 19 20  2  0
 21 20  1  0
 22 21  1  0
 23 22  2  0
 23 19  1  0
 24 25  2  0
 24 26  1  0
M  END
$$$$
