DVH.pdb
     RDKit          3D

 26 26  0  0  1  0  0  0  0  0999 V2000
    8.5919  -15.1417   20.7725 N   0  0  0  0  0  0  0  0  0  0  0  0
    7.9886  -15.6976   21.9448 C   0  0  1  0  0  0  0  0  0  0  0  0
    8.2337  -17.1799   22.0366 C   0  0  0  0  0  0  0  0  0  0  0  0
    7.7137  -17.8122   20.7754 C   0  0  0  0  0  0  0  0  0  0  0  0
    6.4842  -17.8014   20.4934 O   0  0  0  0  0  0  0  0  0  0  0  0
    8.5575  -15.0488   23.1528 C   0  0  0  0  0  0  0  0  0  0  0  0
    9.7851  -14.7984   23.2284 O   0  0  0  0  0  0  0  0  0  0  0  0
    8.5793  -18.4166   19.9038 O   0  0  0  0  0  0  0  0  0  0  0  0
    7.6137  -12.5181   27.3364 C   0  0  0  0  0  0  0  0  0  0  0  0
    7.1329  -13.1298   26.0498 C   0  0  1  0  0  0  0  0  0  0  0  0
    6.6944  -12.0699   25.0521 C   0  0  0  0  0  0  0  0  0  0  0  0
    8.1553  -14.0673   25.4430 C   0  0  2  0  0  0  0  0  0  0  0  0
    7.7173  -14.7007   24.2456 N   0  0  0  0  0  0  0  0  0  0  0  0
    8.5031  -15.1084   26.4396 C   0  0  0  0  0  0  0  0  0  0  0  0
    7.6744  -15.9620   26.8514 O   0  0  0  0  0  0  0  0  0  0  0  0
    9.8275  -15.1418   26.9498 N   0  0  0  0  0  0  0  0  0  0  0  0
   10.2648  -16.1330   27.9052 C   0  0  1  0  0  0  0  0  0  0  0  0
   11.6088  -16.7213   27.5926 C   0  0  0  0  0  0  0  0  0  0  0  0
   11.5697  -17.3648   26.2677 C   0  0  0  0  0  0  0  0  0  0  0  0
   10.5607  -18.1387   25.7785 C   0  0  0  0  0  0  0  0  0  0  0  0
   10.9317  -18.5197   24.5382 N   0  0  0  0  0  0  0  0  0  0  0  0
   12.1424  -17.9901   24.2741 C   0  0  0  0  0  0  0  0  0  0  0  0
   12.5453  -17.2694   25.3478 N   0  0  0  0  0  0  0  0  0  0  0  0
   10.2725  -15.4844   29.2583 C   0  0  0  0  0  0  0  0  0  0  0  0
   10.5517  -16.1873   30.2707 O   0  0  0  0  0  0  0  0  0  0  0  0
    9.9860  -14.1505   29.4368 O   0  0  0  0  0  0  0  0  0  0  0  0
  2  6  1  0
  2  1  1  6
  3  2  1  0
  3  4  1  0
  4  8  1  0
  4  5  2  0
  6  7  2  0
 10  9  1  1
 10 11  1  0
 10 12  1  0
 12 14  1  0
 12 13  1  6
 13  6  1  0
 14 15  2  0
 16 14  1  0
 16 17  1  0
 17 24  1  0
 17 18  1  6
 19 18  1  0
 19 20  2  0
 21 20  1  0
 22 21  1  0
 23 22  2  0
 23 19  1  0
 24 25  2  0
 24 26  1  0
M  END
$$$$
