DVH.pdb
     RDKit          3D

 26 26  0  0  1  0  0  0  0  0999 V2000
    8.6987  -14.9208   20.4785 N   0  0  0  0  0  0  0  0  0  0  0  0
    7.9532  -15.5330   21.5352 C   0  0  1  0  0  0  0  0  0  0  0  0
    8.1110  -17.0299   21.5210 C   0  0  0  0  0  0  0  0  0  0  0  0
    7.6414  -17.5303   20.1831 C   0  0  0  0  0  0  0  0  0  0  0  0
    6.5019  -17.2308   19.7324 O   0  0  0  0  0  0  0  0  0  0  0  0
    8.4310  -15.0199   22.8437 C   0  0  0  0  0  0  0  0  0  0  0  0
    9.6589  -14.9319   23.0884 O   0  0  0  0  0  0  0  0  0  0  0  0
    8.4552  -18.3289   19.4252 O   0  0  0  0  0  0  0  0  0  0  0  0
    7.2573  -12.7400   27.1188 C   0  0  0  0  0  0  0  0  0  0  0  0
    6.8811  -13.1574   25.7242 C   0  0  1  0  0  0  0  0  0  0  0  0
    6.7199  -11.9593   24.8024 C   0  0  0  0  0  0  0  0  0  0  0  0
    7.8487  -14.1691   25.1474 C   0  0  2  0  0  0  0  0  0  0  0  0
    7.5016  -14.6195   23.8423 N   0  0  0  0  0  0  0  0  0  0  0  0
    7.9207  -15.3374   26.0573 C   0  0  0  0  0  0  0  0  0  0  0  0
    6.9071  -16.0058   26.3903 O   0  0  0  0  0  0  0  0  0  0  0  0
    9.1877  -15.7163   26.5739 N   0  0  0  0  0  0  0  0  0  0  0  0
    9.3618  -16.8633   27.4344 C   0  0  1  0  0  0  0  0  0  0  0  0
    8.9207  -18.1560   26.8144 C   0  0  0  0  0  0  0  0  0  0  0  0
    9.7081  -18.4127   25.5958 C   0  0  0  0  0  0  0  0  0  0  0  0
   10.6712  -17.6022   25.0743 C   0  0  0  0  0  0  0  0  0  0  0  0
   11.1330  -18.2147   23.9640 N   0  0  0  0  0  0  0  0  0  0  0  0
   10.4664  -19.3756   23.8093 C   0  0  0  0  0  0  0  0  0  0  0  0
    9.5771  -19.5048   24.8228 N   0  0  0  0  0  0  0  0  0  0  0  0
   10.8117  -16.9265   27.8157 C   0  0  0  0  0  0  0  0  0  0  0  0
   11.2000  -17.8469   28.5897 O   0  0  0  0  0  0  0  0  0  0  0  0
   11.7349  -16.0175   27.3526 O   0  0  0  0  0  0  0  0  0  0  0  0
  2  6  1  0
  2  1  1  6
  3  2  1  0
  3  4  1  0
  4  8  1  0
  4  5  2  0
  6  7  2  0
 10  9  1  1
 10 11  1  0
 10 12  1  0
 12 14  1  0
 12 13  1  6
 13  6  1  0
 14 15  2  0
 16 14  1  0
 16 17  1  0
 17 24  1  0
 17 18  1  6
 19 18  1  0
 19 20  2  0
 21 20  1  0
 22 21  1  0
 23 22  2  0
 23 19  1  0
 24 25  2  0
 24 26  1  0
M  END
$$$$
