DVH.pdb
     RDKit          3D

 26 26  0  0  1  0  0  0  0  0999 V2000
    8.7917  -15.1129   20.8493 N   0  0  0  0  0  0  0  0  0  0  0  0
    8.1102  -15.6861   21.9692 C   0  0  1  0  0  0  0  0  0  0  0  0
    8.2969  -17.1789   22.0186 C   0  0  0  0  0  0  0  0  0  0  0  0
    7.6863  -17.7613   20.7740 C   0  0  0  0  0  0  0  0  0  0  0  0
    8.3178  -17.7871   19.6823 O   0  0  0  0  0  0  0  0  0  0  0  0
    8.6403  -15.1018   23.2268 C   0  0  0  0  0  0  0  0  0  0  0  0
    9.8710  -14.9034   23.3730 O   0  0  0  0  0  0  0  0  0  0  0  0
    6.4192  -18.2786   20.8090 O   0  0  0  0  0  0  0  0  0  0  0  0
    7.5187  -12.8050   27.5219 C   0  0  0  0  0  0  0  0  0  0  0  0
    7.0601  -13.3980   26.2186 C   0  0  1  0  0  0  0  0  0  0  0  0
    6.4655  -12.3436   25.2989 C   0  0  0  0  0  0  0  0  0  0  0  0
    8.1574  -14.1773   25.5251 C   0  0  2  0  0  0  0  0  0  0  0  0
    7.7587  -14.7573   24.2877 N   0  0  0  0  0  0  0  0  0  0  0  0
    8.6294  -15.2517   26.4312 C   0  0  0  0  0  0  0  0  0  0  0  0
    7.8643  -16.1376   26.8949 O   0  0  0  0  0  0  0  0  0  0  0  0
   10.0027  -15.2803   26.7900 N   0  0  0  0  0  0  0  0  0  0  0  0
   10.5368  -16.2335   27.7348 C   0  0  1  0  0  0  0  0  0  0  0  0
   11.8969  -16.7495   27.3685 C   0  0  0  0  0  0  0  0  0  0  0  0
   11.7929  -17.6142   26.1801 C   0  0  0  0  0  0  0  0  0  0  0  0
   10.6423  -18.1059   25.6408 C   0  0  0  0  0  0  0  0  0  0  0  0
   11.0015  -18.8432   24.5691 N   0  0  0  0  0  0  0  0  0  0  0  0
   12.3437  -18.8036   24.4551 C   0  0  0  0  0  0  0  0  0  0  0  0
   12.8427  -18.0394   25.4558 N   0  0  0  0  0  0  0  0  0  0  0  0
   10.5672  -15.5687   29.0797 C   0  0  0  0  0  0  0  0  0  0  0  0
   10.8684  -16.2582   30.0950 O   0  0  0  0  0  0  0  0  0  0  0  0
   10.2788  -14.2338   29.2476 O   0  0  0  0  0  0  0  0  0  0  0  0
  2  6  1  0
  2  1  1  6
  3  2  1  0
  3  4  1  0
  4  8  1  0
  4  5  2  0
  6  7  2  0
 10  9  1  1
 10 11  1  0
 10 12  1  0
 12 14  1  0
 12 13  1  6
 13  6  1  0
 14 15  2  0
 16 14  1  0
 16 17  1  0
 17 24  1  0
 17 18  1  6
 19 18  1  0
 19 20  2  0
 21 20  1  0
 22 21  1  0
 23 22  2  0
 23 19  1  0
 24 25  2  0
 24 26  1  0
M  END
$$$$
