DVH.pdb
     RDKit          3D

 26 26  0  0  1  0  0  0  0  0999 V2000
    7.9766  -15.8264   21.3218 N   0  0  0  0  0  0  0  0  0  0  0  0
    7.4725  -16.2979   22.5751 C   0  0  1  0  0  0  0  0  0  0  0  0
    7.7374  -17.7689   22.7535 C   0  0  0  0  0  0  0  0  0  0  0  0
    6.4121  -18.4792   22.7543 C   0  0  0  0  0  0  0  0  0  0  0  0
    5.3270  -17.8458   22.8673 O   0  0  0  0  0  0  0  0  0  0  0  0
    8.1290  -15.5617   23.6845 C   0  0  0  0  0  0  0  0  0  0  0  0
    9.3645  -15.6652   23.8804 O   0  0  0  0  0  0  0  0  0  0  0  0
    6.3641  -19.8418   22.6307 O   0  0  0  0  0  0  0  0  0  0  0  0
    7.5719  -12.2235   27.3773 C   0  0  0  0  0  0  0  0  0  0  0  0
    6.9936  -12.9197   26.1767 C   0  0  1  0  0  0  0  0  0  0  0  0
    6.6823  -11.9420   25.0549 C   0  0  0  0  0  0  0  0  0  0  0  0
    7.8733  -14.0523   25.6911 C   0  0  2  0  0  0  0  0  0  0  0  0
    7.3653  -14.7256   24.5442 N   0  0  0  0  0  0  0  0  0  0  0  0
    8.0434  -15.0330   26.7899 C   0  0  0  0  0  0  0  0  0  0  0  0
    7.0703  -15.5712   27.3802 O   0  0  0  0  0  0  0  0  0  0  0  0
    9.3606  -15.3779   27.1918 N   0  0  0  0  0  0  0  0  0  0  0  0
    9.6246  -16.3153   28.2585 C   0  0  1  0  0  0  0  0  0  0  0  0
   10.5961  -17.3959   27.8863 C   0  0  0  0  0  0  0  0  0  0  0  0
   10.0172  -18.2348   26.8223 C   0  0  0  0  0  0  0  0  0  0  0  0
    8.7339  -18.1852   26.3671 C   0  0  0  0  0  0  0  0  0  0  0  0
    8.6315  -19.1169   25.3961 N   0  0  0  0  0  0  0  0  0  0  0  0
    9.8270  -19.7238   25.2601 C   0  0  0  0  0  0  0  0  0  0  0  0
   10.6946  -19.1787   26.1459 N   0  0  0  0  0  0  0  0  0  0  0  0
   10.1292  -15.5318   29.4346 C   0  0  0  0  0  0  0  0  0  0  0  0
   10.4497  -14.3206   29.2692 O   0  0  0  0  0  0  0  0  0  0  0  0
   10.2556  -16.0850   30.6880 O   0  0  0  0  0  0  0  0  0  0  0  0
  2  6  1  0
  2  1  1  6
  3  2  1  0
  3  4  1  0
  4  8  1  0
  4  5  2  0
  6  7  2  0
 10  9  1  1
 10 11  1  0
 10 12  1  0
 12 14  1  0
 12 13  1  6
 13  6  1  0
 14 15  2  0
 16 14  1  0
 16 17  1  0
 17 24  1  0
 17 18  1  6
 19 18  1  0
 19 20  2  0
 21 20  1  0
 22 21  1  0
 23 22  2  0
 23 19  1  0
 24 25  2  0
 24 26  1  0
M  END
$$$$
