DVH.pdb
     RDKit          3D

 26 26  0  0  1  0  0  0  0  0999 V2000
    9.5707  -17.7221   17.9731 N   0  0  0  0  0  0  0  0  0  0  0  0
    8.8885  -18.1194   19.1663 C   0  0  1  0  0  0  0  0  0  0  0  0
    9.4265  -19.4211   19.6974 C   0  0  0  0  0  0  0  0  0  0  0  0
    9.9354  -20.2202   18.5298 C   0  0  0  0  0  0  0  0  0  0  0  0
    9.2554  -20.3488   17.4750 O   0  0  0  0  0  0  0  0  0  0  0  0
    9.0605  -17.0766   20.2088 C   0  0  0  0  0  0  0  0  0  0  0  0
    9.9740  -17.1697   21.0645 O   0  0  0  0  0  0  0  0  0  0  0  0
   11.1605  -20.8277   18.5961 O   0  0  0  0  0  0  0  0  0  0  0  0
    7.5071  -12.6261   21.9231 C   0  0  0  0  0  0  0  0  0  0  0  0
    7.4876  -13.6667   20.8380 C   0  0  1  0  0  0  0  0  0  0  0  0
    7.9947  -13.1114   19.5167 C   0  0  0  0  0  0  0  0  0  0  0  0
    8.2387  -14.9209   21.2322 C   0  0  2  0  0  0  0  0  0  0  0  0
    8.1900  -15.9534   20.2534 N   0  0  0  0  0  0  0  0  0  0  0  0
    7.6784  -15.4360   22.5046 C   0  0  0  0  0  0  0  0  0  0  0  0
    6.5401  -15.9683   22.5823 O   0  0  0  0  0  0  0  0  0  0  0  0
    8.4605  -15.3225   23.6839 N   0  0  0  0  0  0  0  0  0  0  0  0
    8.3260  -16.2373   24.7936 C   0  0  1  0  0  0  0  0  0  0  0  0
    8.4582  -17.6804   24.4061 C   0  0  0  0  0  0  0  0  0  0  0  0
    8.2076  -18.5321   25.5820 C   0  0  0  0  0  0  0  0  0  0  0  0
    7.8421  -18.1036   26.8227 C   0  0  0  0  0  0  0  0  0  0  0  0
    7.7183  -19.2057   27.5917 N   0  0  0  0  0  0  0  0  0  0  0  0
    8.0021  -20.2857   26.8374 C   0  0  0  0  0  0  0  0  0  0  0  0
    8.3077  -19.8727   25.5842 N   0  0  0  0  0  0  0  0  0  0  0  0
    9.3618  -15.8661   25.8139 C   0  0  0  0  0  0  0  0  0  0  0  0
   10.3798  -15.2163   25.4419 O   0  0  0  0  0  0  0  0  0  0  0  0
    9.2430  -16.2079   27.1413 O   0  0  0  0  0  0  0  0  0  0  0  0
  2  6  1  0
  2  1  1  6
  3  2  1  0
  3  4  1  0
  4  8  1  0
  4  5  2  0
  6  7  2  0
 10  9  1  1
 10 11  1  0
 10 12  1  0
 12 14  1  0
 12 13  1  6
 13  6  1  0
 14 15  2  0
 16 14  1  0
 16 17  1  0
 17 24  1  0
 17 18  1  6
 19 18  1  0
 19 20  2  0
 21 20  1  0
 22 21  1  0
 23 22  2  0
 23 19  1  0
 24 25  2  0
 24 26  1  0
M  END
$$$$
