DVH.pdb
     RDKit          3D

 26 26  0  0  1  0  0  0  0  0999 V2000
    8.1444  -17.3458   16.8580 N   0  0  0  0  0  0  0  0  0  0  0  0
    8.7560  -17.9013   18.0261 C   0  0  1  0  0  0  0  0  0  0  0  0
    9.9423  -18.7565   17.6694 C   0  0  0  0  0  0  0  0  0  0  0  0
    9.4755  -19.8143   16.7081 C   0  0  0  0  0  0  0  0  0  0  0  0
    8.2686  -20.1792   16.6675 O   0  0  0  0  0  0  0  0  0  0  0  0
    9.2142  -16.8057   18.9170 C   0  0  0  0  0  0  0  0  0  0  0  0
   10.4189  -16.7177   19.2580 O   0  0  0  0  0  0  0  0  0  0  0  0
   10.3661  -20.4042   15.8519 O   0  0  0  0  0  0  0  0  0  0  0  0
    7.8836  -12.6542   21.4031 C   0  0  0  0  0  0  0  0  0  0  0  0
    7.5785  -13.6783   20.3455 C   0  0  1  0  0  0  0  0  0  0  0  0
    7.3993  -13.0389   18.9779 C   0  0  0  0  0  0  0  0  0  0  0  0
    8.6104  -14.7855   20.3042 C   0  0  2  0  0  0  0  0  0  0  0  0
    8.2920  -15.8367   19.3985 N   0  0  0  0  0  0  0  0  0  0  0  0
    8.7616  -15.3518   21.6660 C   0  0  0  0  0  0  0  0  0  0  0  0
    7.7900  -15.7984   22.3305 O   0  0  0  0  0  0  0  0  0  0  0  0
   10.0582  -15.3905   22.2431 N   0  0  0  0  0  0  0  0  0  0  0  0
   10.4722  -16.4373   23.1483 C   0  0  1  0  0  0  0  0  0  0  0  0
   10.3483  -17.8171   22.5730 C   0  0  0  0  0  0  0  0  0  0  0  0
   10.6775  -18.8140   23.6068 C   0  0  0  0  0  0  0  0  0  0  0  0
   10.9975  -18.5516   24.9049 C   0  0  0  0  0  0  0  0  0  0  0  0
   11.2228  -19.7434   25.4965 N   0  0  0  0  0  0  0  0  0  0  0  0
   11.0444  -20.7147   24.5795 C   0  0  0  0  0  0  0  0  0  0  0  0
   10.7045  -20.1421   23.4001 N   0  0  0  0  0  0  0  0  0  0  0  0
   11.8910  -16.1552   23.5470 C   0  0  0  0  0  0  0  0  0  0  0  0
   12.4366  -16.8871   24.4209 O   0  0  0  0  0  0  0  0  0  0  0  0
   12.6203  -15.1274   22.9949 O   0  0  0  0  0  0  0  0  0  0  0  0
  2  6  1  0
  2  1  1  6
  3  2  1  0
  3  4  1  0
  4  8  1  0
  4  5  2  0
  6  7  2  0
 10  9  1  1
 10 11  1  0
 10 12  1  0
 12 14  1  0
 12 13  1  6
 13  6  1  0
 14 15  2  0
 16 14  1  0
 16 17  1  0
 17 24  1  0
 17 18  1  6
 19 18  1  0
 19 20  2  0
 21 20  1  0
 22 21  1  0
 23 22  2  0
 23 19  1  0
 24 25  2  0
 24 26  1  0
M  END
$$$$
