DVH.pdb
     RDKit          3D

 26 26  0  0  1  0  0  0  0  0999 V2000
    7.8132  -14.8392   20.5198 N   0  0  0  0  0  0  0  0  0  0  0  0
    8.0452  -16.0182   21.2965 C   0  0  1  0  0  0  0  0  0  0  0  0
    8.9914  -16.9572   20.5975 C   0  0  0  0  0  0  0  0  0  0  0  0
    8.4411  -17.2291   19.2248 C   0  0  0  0  0  0  0  0  0  0  0  0
    7.2713  -17.6723   19.0617 O   0  0  0  0  0  0  0  0  0  0  0  0
    8.6336  -15.6433   22.6069 C   0  0  0  0  0  0  0  0  0  0  0  0
    9.7868  -16.0236   22.9245 O   0  0  0  0  0  0  0  0  0  0  0  0
    9.2124  -16.9960   18.1180 O   0  0  0  0  0  0  0  0  0  0  0  0
    7.6244  -12.1582   24.7351 C   0  0  0  0  0  0  0  0  0  0  0  0
    7.5139  -13.4413   25.5110 C   0  0  1  0  0  0  0  0  0  0  0  0
    6.0641  -13.8315   25.7499 C   0  0  0  0  0  0  0  0  0  0  0  0
    8.2884  -14.5708   24.8653 C   0  0  2  0  0  0  0  0  0  0  0  0
    7.8970  -14.8452   23.5244 N   0  0  0  0  0  0  0  0  0  0  0  0
    8.1151  -15.7981   25.6788 C   0  0  0  0  0  0  0  0  0  0  0  0
    7.1335  -16.5744   25.5412 O   0  0  0  0  0  0  0  0  0  0  0  0
    9.0992  -16.1087   26.6539 N   0  0  0  0  0  0  0  0  0  0  0  0
    9.3774  -17.4639   27.0693 C   0  0  1  0  0  0  0  0  0  0  0  0
    9.9283  -18.3299   25.9754 C   0  0  0  0  0  0  0  0  0  0  0  0
    8.8183  -18.9381   25.2212 C   0  0  0  0  0  0  0  0  0  0  0  0
    7.4900  -18.7947   25.4885 C   0  0  0  0  0  0  0  0  0  0  0  0
    6.8282  -19.5139   24.5579 N   0  0  0  0  0  0  0  0  0  0  0  0
    7.7326  -20.0854   23.7385 C   0  0  0  0  0  0  0  0  0  0  0  0
    8.9744  -19.7305   24.1465 N   0  0  0  0  0  0  0  0  0  0  0  0
   10.3341  -17.3957   28.2233 C   0  0  0  0  0  0  0  0  0  0  0  0
   10.5964  -18.4540   28.8623 O   0  0  0  0  0  0  0  0  0  0  0  0
   10.9368  -16.2213   28.6113 O   0  0  0  0  0  0  0  0  0  0  0  0
  2  6  1  0
  2  1  1  6
  3  2  1  0
  3  4  1  0
  4  8  1  0
  4  5  2  0
  6  7  2  0
 10  9  1  6
 10 11  1  0
 10 12  1  0
 12 14  1  0
 12 13  1  6
 13  6  1  0
 14 15  2  0
 16 14  1  0
 16 17  1  0
 17 24  1  0
 17 18  1  6
 19 18  1  0
 19 20  2  0
 21 20  1  0
 22 21  1  0
 23 22  2  0
 23 19  1  0
 24 25  2  0
 24 26  1  0
M  END
$$$$
