DVH.pdb
     RDKit          3D

 26 26  0  0  1  0  0  0  0  0999 V2000
    8.9164  -17.3067   16.9975 N   0  0  0  0  0  0  0  0  0  0  0  0
   10.2410  -17.1610   17.5184 C   0  0  1  0  0  0  0  0  0  0  0  0
   11.1702  -16.5670   16.4939 C   0  0  0  0  0  0  0  0  0  0  0  0
   11.2243  -17.5062   15.3210 C   0  0  0  0  0  0  0  0  0  0  0  0
   11.3298  -18.7530   15.4817 O   0  0  0  0  0  0  0  0  0  0  0  0
   10.2141  -16.2695   18.7052 C   0  0  0  0  0  0  0  0  0  0  0  0
   11.2431  -16.1004   19.4037 O   0  0  0  0  0  0  0  0  0  0  0  0
   11.1590  -17.0145   14.0449 O   0  0  0  0  0  0  0  0  0  0  0  0
    7.4417  -13.1378   21.4763 C   0  0  0  0  0  0  0  0  0  0  0  0
    7.6811  -13.8411   20.1692 C   0  0  1  0  0  0  0  0  0  0  0  0
    7.8363  -12.8570   19.0208 C   0  0  0  0  0  0  0  0  0  0  0  0
    8.8541  -14.7960   20.2378 C   0  0  2  0  0  0  0  0  0  0  0  0
    9.0183  -15.5921   19.0691 N   0  0  0  0  0  0  0  0  0  0  0  0
    8.6785  -15.6887   21.4084 C   0  0  0  0  0  0  0  0  0  0  0  0
    7.6881  -16.4549   21.5391 O   0  0  0  0  0  0  0  0  0  0  0  0
    9.6706  -15.6767   22.4239 N   0  0  0  0  0  0  0  0  0  0  0  0
    9.5977  -16.5286   23.5881 C   0  0  1  0  0  0  0  0  0  0  0  0
    9.3940  -17.9789   23.2635 C   0  0  0  0  0  0  0  0  0  0  0  0
   10.4902  -18.4496   22.3988 C   0  0  0  0  0  0  0  0  0  0  0  0
   11.7483  -17.9298   22.3394 C   0  0  0  0  0  0  0  0  0  0  0  0
   12.4242  -18.6559   21.4245 N   0  0  0  0  0  0  0  0  0  0  0  0
   11.5971  -19.6001   20.9343 C   0  0  0  0  0  0  0  0  0  0  0  0
   10.3906  -19.4769   21.5373 N   0  0  0  0  0  0  0  0  0  0  0  0
   10.8630  -16.3338   24.3709 C   0  0  0  0  0  0  0  0  0  0  0  0
   11.0079  -16.9551   25.4617 O   0  0  0  0  0  0  0  0  0  0  0  0
   11.8723  -15.5022   23.9434 O   0  0  0  0  0  0  0  0  0  0  0  0
  2  6  1  0
  2  1  1  6
  3  2  1  0
  3  4  1  0
  4  8  1  0
  4  5  2  0
  6  7  2  0
 10  9  1  1
 10 11  1  0
 10 12  1  0
 12 14  1  0
 12 13  1  6
 13  6  1  0
 14 15  2  0
 16 14  1  0
 16 17  1  0
 17 24  1  0
 17 18  1  6
 19 18  1  0
 19 20  2  0
 21 20  1  0
 22 21  1  0
 23 22  2  0
 23 19  1  0
 24 25  2  0
 24 26  1  0
M  END
$$$$
