FRY.pdb
     RDKit          3D

 35 36  0  0  1  0  0  0  0  0999 V2000
   31.1166  -28.0002  -26.2787 N   0  0  0  0  0  0  0  0  0  0  0  0
   32.3239  -27.5880  -25.6104 C   0  0  1  0  0  0  0  0  0  0  0  0
   33.0563  -26.5094  -26.3615 C   0  0  0  0  0  0  0  0  0  0  0  0
   33.6239  -27.0823  -27.6085 C   0  0  0  0  0  0  0  0  0  0  0  0
   32.8264  -27.1717  -28.7322 C   0  0  0  0  0  0  0  0  0  0  0  0
   33.2961  -27.6968  -29.9210 C   0  0  0  0  0  0  0  0  0  0  0  0
   34.5885  -28.1532  -30.0259 C   0  0  0  0  0  0  0  0  0  0  0  0
   35.4048  -28.0697  -28.9004 C   0  0  0  0  0  0  0  0  0  0  0  0
   34.9202  -27.5417  -27.7184 C   0  0  0  0  0  0  0  0  0  0  0  0
   32.0254  -27.2479  -24.2192 C   0  0  0  0  0  0  0  0  0  0  0  0
   30.9334  -26.6963  -23.9345 O   0  0  0  0  0  0  0  0  0  0  0  0
   35.0361  -30.5469  -16.7021 N   0  0  0  0  0  0  0  0  0  0  0  0
   35.2314  -30.4465  -18.0998 C   0  0  0  0  0  0  0  0  0  0  0  0
   36.0737  -31.2674  -18.6469 N   0  0  0  0  0  0  0  0  0  0  0  0
   34.5369  -29.4845  -18.8919 N   0  0  0  0  0  0  0  0  0  0  0  0
   33.4883  -28.6695  -18.3574 C   0  0  0  0  0  0  0  0  0  0  0  0
   32.9381  -27.6840  -19.3475 C   0  0  0  0  0  0  0  0  0  0  0  0
   33.2832  -28.0673  -20.7593 C   0  0  0  0  0  0  0  0  0  0  0  0
   32.7188  -27.1065  -21.7790 C   0  0  2  0  0  0  0  0  0  0  0  0
   32.9203  -27.5103  -23.1353 N   0  0  0  0  0  0  0  0  0  0  0  0
   33.3760  -25.7820  -21.4949 C   0  0  0  0  0  0  0  0  0  0  0  0
   34.5776  -25.6725  -21.8340 O   0  0  0  0  0  0  0  0  0  0  0  0
   36.2414  -31.2682  -19.6620 O   0  0  0  0  0  0  0  0  0  0  0  0
   34.4832  -17.1958  -19.8955 C   0  0  0  0  0  0  0  0  0  0  0  0
   33.9398  -18.4723  -20.0392 C   0  0  0  0  0  0  0  0  0  0  0  0
   33.5177  -18.9273  -21.2639 C   0  0  0  0  0  0  0  0  0  0  0  0
   32.9796  -20.1820  -21.4243 C   0  0  0  0  0  0  0  0  0  0  0  0
   32.8641  -20.9955  -20.3294 C   0  0  0  0  0  0  0  0  0  0  0  0
   32.2828  -22.3395  -20.4722 C   0  0  2  0  0  0  0  0  0  0  0  0
   33.3364  -23.3791  -20.6983 N   0  0  0  0  0  0  0  0  0  0  0  0
   32.7280  -24.7048  -20.8900 C   0  0  0  0  0  0  0  0  0  0  0  0
   34.3949  -23.4269  -19.6821 O   0  0  0  0  0  0  0  0  0  0  0  0
   35.5362  -22.6237  -19.8836 C   0  0  0  0  0  0  0  0  0  0  0  0
   33.2830  -20.5573  -19.0881 C   0  0  0  0  0  0  0  0  0  0  0  0
   33.8177  -19.3036  -18.9426 O   0  0  0  0  0  0  0  0  0  0  0  0
  2  1  1  6
  2  3  1  0
  3  4  1  0
  4  5  2  0
  5  6  1  0
  7  6  2  0
  8  7  1  0
  9  4  1  0
  9  8  2  0
 10  2  1  0
 11 10  2  0
 13 12  1  0
 14 13  2  0
 15 13  1  0
 16 17  1  0
 16 15  1  0
 17 18  1  0
 19 18  1  1
 19 20  1  0
 19 21  1  0
 20 10  1  0
 21 30  1  0
 22 21  2  0
 23 24  1  0
 24 25  2  0
 24 34  1  0
 25 26  1  0
 26 27  2  0
 27 28  1  0
 29 28  1  6
 29 31  1  0
 30 29  1  0
 31 35  2  0
 31 32  1  0
 33 27  1  0
 34 33  2  0
M  END
$$$$
