FRY.pdb
     RDKit          3D

 35 36  0  0  1  0  0  0  0  0999 V2000
   28.8373  -20.6077   -9.0956 N   0  0  0  0  0  0  0  0  0  0  0  0
   27.4061  -20.5256   -8.9582 C   0  0  1  0  0  0  0  0  0  0  0  0
   26.9784  -19.3821   -8.0788 C   0  0  0  0  0  0  0  0  0  0  0  0
   27.7521  -19.4247   -6.8119 C   0  0  0  0  0  0  0  0  0  0  0  0
   27.2454  -20.1276   -5.7368 C   0  0  0  0  0  0  0  0  0  0  0  0
   27.9170  -20.2025   -4.5314 C   0  0  0  0  0  0  0  0  0  0  0  0
   29.1266  -19.5723   -4.3604 C   0  0  0  0  0  0  0  0  0  0  0  0
   29.6503  -18.8591   -5.4361 C   0  0  0  0  0  0  0  0  0  0  0  0
   28.9662  -18.7936   -6.6355 C   0  0  0  0  0  0  0  0  0  0  0  0
   26.7832  -20.5248  -10.2818 C   0  0  0  0  0  0  0  0  0  0  0  0
   26.8924  -19.5141  -11.0197 O   0  0  0  0  0  0  0  0  0  0  0  0
   22.7370  -25.7638  -15.0842 N   0  0  0  0  0  0  0  0  0  0  0  0
   23.2627  -25.0445  -16.1833 C   0  0  0  0  0  0  0  0  0  0  0  0
   22.5401  -24.9822  -17.2587 N   0  0  0  0  0  0  0  0  0  0  0  0
   24.5375  -24.4064  -16.1277 N   0  0  0  0  0  0  0  0  0  0  0  0
   25.2690  -24.2677  -14.9048 C   0  0  0  0  0  0  0  0  0  0  0  0
   24.9730  -22.9882  -14.1772 C   0  0  0  0  0  0  0  0  0  0  0  0
   25.5019  -23.0169  -12.7705 C   0  0  0  0  0  0  0  0  0  0  0  0
   25.4118  -21.6734  -12.0861 C   0  0  2  0  0  0  0  0  0  0  0  0
   26.0393  -21.6293  -10.8025 N   0  0  0  0  0  0  0  0  0  0  0  0
   23.9412  -21.3648  -11.9915 C   0  0  0  0  0  0  0  0  0  0  0  0
   23.4755  -21.2214  -10.8367 O   0  0  0  0  0  0  0  0  0  0  0  0
   22.8698  -24.4905  -18.1001 O   0  0  0  0  0  0  0  0  0  0  0  0
   16.5597  -17.1843  -11.9626 C   0  0  0  0  0  0  0  0  0  0  0  0
   17.8424  -17.7228  -12.0621 C   0  0  0  0  0  0  0  0  0  0  0  0
   18.2935  -18.6475  -11.1529 C   0  0  0  0  0  0  0  0  0  0  0  0
   19.5544  -19.1887  -11.2353 C   0  0  0  0  0  0  0  0  0  0  0  0
   20.3781  -18.7910  -12.2537 C   0  0  0  0  0  0  0  0  0  0  0  0
   21.7359  -19.3478  -12.3590 C   0  0  2  0  0  0  0  0  0  0  0  0
   21.7374  -20.6837  -13.0353 N   0  0  0  0  0  0  0  0  0  0  0  0
   23.0999  -21.2353  -13.0968 C   0  0  0  0  0  0  0  0  0  0  0  0
   21.0955  -20.7162  -14.3553 O   0  0  0  0  0  0  0  0  0  0  0  0
   19.7501  -21.1331  -14.4218 C   0  0  0  0  0  0  0  0  0  0  0  0
   19.9438  -17.8620  -13.1793 C   0  0  0  0  0  0  0  0  0  0  0  0
   18.6838  -17.3305  -13.0851 O   0  0  0  0  0  0  0  0  0  0  0  0
  2  1  1  6
  2  3  1  0
  3  4  1  0
  4  5  2  0
  5  6  1  0
  7  6  2  0
  8  7  1  0
  9  4  1  0
  9  8  2  0
 10  2  1  0
 11 10  2  0
 13 12  1  0
 14 13  2  0
 15 13  1  0
 16 17  1  0
 16 15  1  0
 17 18  1  0
 19 18  1  1
 19 20  1  0
 19 21  1  0
 20 10  1  0
 21 30  1  0
 22 21  2  0
 23 24  1  0
 24 25  2  0
 24 34  1  0
 25 26  1  0
 26 27  2  0
 27 28  1  0
 29 28  1  1
 29 31  1  0
 30 29  1  0
 31 35  2  0
 31 32  1  0
 33 27  1  0
 34 33  2  0
M  END
$$$$
