FRY.pdb
     RDKit          3D

 35 36  0  0  1  0  0  0  0  0999 V2000
   21.6416  -15.7240  -18.4282 N   0  0  0  0  0  0  0  0  0  0  0  0
   21.3605  -15.9131  -17.0285 C   0  0  1  0  0  0  0  0  0  0  0  0
   20.0371  -15.3226  -16.6238 C   0  0  0  0  0  0  0  0  0  0  0  0
   20.0662  -13.8557  -16.8539 C   0  0  0  0  0  0  0  0  0  0  0  0
   20.7378  -13.0470  -15.9587 C   0  0  0  0  0  0  0  0  0  0  0  0
   20.7988  -11.6755  -16.1172 C   0  0  0  0  0  0  0  0  0  0  0  0
   20.1856  -11.0633  -17.1843 C   0  0  0  0  0  0  0  0  0  0  0  0
   19.5041  -11.8664  -18.0957 C   0  0  0  0  0  0  0  0  0  0  0  0
   19.4521  -13.2369  -17.9233 C   0  0  0  0  0  0  0  0  0  0  0  0
   21.5137  -17.3259  -16.6816 C   0  0  0  0  0  0  0  0  0  0  0  0
   20.8054  -18.1881  -17.2585 O   0  0  0  0  0  0  0  0  0  0  0  0
   27.4949  -21.3045  -16.6691 N   0  0  0  0  0  0  0  0  0  0  0  0
   26.8032  -22.5058  -16.3858 C   0  0  0  0  0  0  0  0  0  0  0  0
   27.1317  -23.5603  -17.0661 N   0  0  0  0  0  0  0  0  0  0  0  0
   25.7805  -22.5719  -15.3933 N   0  0  0  0  0  0  0  0  0  0  0  0
   25.5113  -21.4852  -14.5011 C   0  0  0  0  0  0  0  0  0  0  0  0
   24.0850  -21.0185  -14.5463 C   0  0  0  0  0  0  0  0  0  0  0  0
   23.9866  -19.5815  -14.9761 C   0  0  0  0  0  0  0  0  0  0  0  0
   22.5672  -19.1563  -15.2690 C   0  0  2  0  0  0  0  0  0  0  0  0
   22.4422  -17.8001  -15.7030 N   0  0  0  0  0  0  0  0  0  0  0  0
   21.8004  -19.4005  -13.9965 C   0  0  0  0  0  0  0  0  0  0  0  0
   22.1972  -18.7838  -12.9801 O   0  0  0  0  0  0  0  0  0  0  0  0
   26.6756  -24.4681  -16.9040 O   0  0  0  0  0  0  0  0  0  0  0  0
   15.1544  -16.9977  -14.9722 C   0  0  0  0  0  0  0  0  0  0  0  0
   16.2274  -17.5296  -14.2574 C   0  0  0  0  0  0  0  0  0  0  0  0
   17.5048  -17.0642  -14.4488 C   0  0  0  0  0  0  0  0  0  0  0  0
   18.5742  -17.5766  -13.7534 C   0  0  0  0  0  0  0  0  0  0  0  0
   18.3532  -18.5781  -12.8468 C   0  0  0  0  0  0  0  0  0  0  0  0
   19.4818  -19.1504  -12.0963 C   0  0  1  0  0  0  0  0  0  0  0  0
   19.9226  -20.4613  -12.6702 N   0  0  0  0  0  0  0  0  0  0  0  0
   20.7023  -20.2558  -13.9008 C   0  0  0  0  0  0  0  0  0  0  0  0
   18.8509  -21.4419  -12.8829 O   0  0  0  0  0  0  0  0  0  0  0  0
   18.1357  -21.8893  -11.7531 C   0  0  0  0  0  0  0  0  0  0  0  0
   17.0756  -19.0606  -12.6387 C   0  0  0  0  0  0  0  0  0  0  0  0
   16.0184  -18.5404  -13.3391 O   0  0  0  0  0  0  0  0  0  0  0  0
  2  1  1  6
  2  3  1  0
  3  4  1  0
  4  5  2  0
  5  6  1  0
  7  6  2  0
  8  7  1  0
  9  4  1  0
  9  8  2  0
 10  2  1  0
 11 10  2  0
 13 12  1  0
 14 13  2  0
 15 13  1  0
 16 17  1  0
 16 15  1  0
 17 18  1  0
 19 18  1  1
 19 20  1  0
 19 21  1  0
 20 10  1  0
 21 30  1  0
 22 21  2  0
 23 24  1  0
 24 25  2  0
 24 34  1  0
 25 26  1  0
 26 27  2  0
 27 28  1  0
 29 28  1  1
 29 31  1  0
 30 29  1  0
 31 35  2  0
 31 32  1  0
 33 27  1  0
 34 33  2  0
M  END
$$$$
