FRY.pdb
     RDKit          3D

 35 36  0  0  1  0  0  0  0  0999 V2000
   24.8432  -16.3723  -22.2013 N   0  0  0  0  0  0  0  0  0  0  0  0
   23.5526  -16.4513  -22.8354 C   0  0  1  0  0  0  0  0  0  0  0  0
   23.3522  -17.7493  -23.5696 C   0  0  0  0  0  0  0  0  0  0  0  0
   24.2894  -17.8091  -24.7201 C   0  0  0  0  0  0  0  0  0  0  0  0
   23.8781  -17.3322  -25.9489 C   0  0  0  0  0  0  0  0  0  0  0  0
   24.7031  -17.3623  -27.0572 C   0  0  0  0  0  0  0  0  0  0  0  0
   25.9760  -17.8742  -26.9722 C   0  0  0  0  0  0  0  0  0  0  0  0
   26.4048  -18.3593  -25.7390 C   0  0  0  0  0  0  0  0  0  0  0  0
   25.5676  -18.3220  -24.6396 C   0  0  0  0  0  0  0  0  0  0  0  0
   22.5050  -16.1506  -21.8597 C   0  0  0  0  0  0  0  0  0  0  0  0
   22.6381  -16.5267  -20.6687 O   0  0  0  0  0  0  0  0  0  0  0  0
   20.0582   -9.3866  -23.6972 N   0  0  0  0  0  0  0  0  0  0  0  0
   20.7696  -10.6078  -23.7644 C   0  0  0  0  0  0  0  0  0  0  0  0
   21.6582  -10.7321  -24.7012 N   0  0  0  0  0  0  0  0  0  0  0  0
   20.5305  -11.6722  -22.8451 N   0  0  0  0  0  0  0  0  0  0  0  0
   19.4574  -11.6364  -21.8981 C   0  0  0  0  0  0  0  0  0  0  0  0
   19.4314  -12.8272  -20.9840 C   0  0  0  0  0  0  0  0  0  0  0  0
   19.2744  -14.1101  -21.7513 C   0  0  0  0  0  0  0  0  0  0  0  0
   20.2247  -15.1880  -21.2859 C   0  0  2  0  0  0  0  0  0  0  0  0
   21.3087  -15.4374  -22.1837 N   0  0  0  0  0  0  0  0  0  0  0  0
   19.3780  -16.4173  -21.0894 C   0  0  0  0  0  0  0  0  0  0  0  0
   19.0558  -17.0432  -22.1264 O   0  0  0  0  0  0  0  0  0  0  0  0
   22.2204  -11.5882  -24.7986 O   0  0  0  0  0  0  0  0  0  0  0  0
   15.8679  -23.7786  -18.0652 C   0  0  0  0  0  0  0  0  0  0  0  0
   16.6391  -22.6443  -18.3181 C   0  0  0  0  0  0  0  0  0  0  0  0
   16.8781  -21.7179  -17.3334 C   0  0  0  0  0  0  0  0  0  0  0  0
   17.6355  -20.5942  -17.5646 C   0  0  0  0  0  0  0  0  0  0  0  0
   18.1630  -20.3991  -18.8125 C   0  0  0  0  0  0  0  0  0  0  0  0
   18.9693  -19.1998  -19.0889 C   0  0  1  0  0  0  0  0  0  0  0  0
   18.1368  -18.0874  -19.6470 N   0  0  0  0  0  0  0  0  0  0  0  0
   18.9491  -16.8766  -19.8438 C   0  0  0  0  0  0  0  0  0  0  0  0
   16.9133  -17.7846  -18.8941 O   0  0  0  0  0  0  0  0  0  0  0  0
   16.9723  -16.7577  -17.9296 C   0  0  0  0  0  0  0  0  0  0  0  0
   17.9348  -21.3191  -19.8175 C   0  0  0  0  0  0  0  0  0  0  0  0
   17.1777  -22.4352  -19.5730 O   0  0  0  0  0  0  0  0  0  0  0  0
  2  1  1  1
  2  3  1  0
  3  4  1  0
  4  5  2  0
  5  6  1  0
  7  6  2  0
  8  7  1  0
  9  4  1  0
  9  8  2  0
 10  2  1  0
 11 10  2  0
 13 12  1  0
 14 13  2  0
 15 13  1  0
 16 17  1  0
 16 15  1  0
 17 18  1  0
 19 18  1  6
 19 20  1  0
 19 21  1  0
 20 10  1  0
 21 30  1  0
 22 21  2  0
 23 24  1  0
 24 25  2  0
 24 34  1  0
 25 26  1  0
 26 27  2  0
 27 28  1  0
 29 28  1  6
 29 31  1  0
 30 29  1  0
 31 35  2  0
 31 32  1  0
 33 27  1  0
 34 33  2  0
M  END
$$$$
