FRY.pdb
     RDKit          3D

 35 36  0  0  1  0  0  0  0  0999 V2000
   28.9875  -20.9382   -9.0696 N   0  0  0  0  0  0  0  0  0  0  0  0
   27.5534  -20.8151   -9.0213 C   0  0  1  0  0  0  0  0  0  0  0  0
   27.0994  -19.7765   -8.0319 C   0  0  0  0  0  0  0  0  0  0  0  0
   27.7382  -20.0419   -6.7178 C   0  0  0  0  0  0  0  0  0  0  0  0
   26.9479  -20.1175   -5.5880 C   0  0  0  0  0  0  0  0  0  0  0  0
   27.4833  -20.3597   -4.3373 C   0  0  0  0  0  0  0  0  0  0  0  0
   28.8369  -20.5355   -4.1741 C   0  0  0  0  0  0  0  0  0  0  0  0
   29.6468  -20.4618   -5.3048 C   0  0  0  0  0  0  0  0  0  0  0  0
   29.0960  -20.2189   -6.5492 C   0  0  0  0  0  0  0  0  0  0  0  0
   27.0298  -20.6196  -10.3732 C   0  0  0  0  0  0  0  0  0  0  0  0
   27.3153  -19.5722  -11.0051 O   0  0  0  0  0  0  0  0  0  0  0  0
   27.6581  -25.0247  -15.5807 N   0  0  0  0  0  0  0  0  0  0  0  0
   27.6422  -23.8956  -16.4331 C   0  0  0  0  0  0  0  0  0  0  0  0
   28.6628  -23.7211  -17.2145 N   0  0  0  0  0  0  0  0  0  0  0  0
   26.5533  -22.9739  -16.4450 N   0  0  0  0  0  0  0  0  0  0  0  0
   25.3777  -23.1712  -15.6521 C   0  0  0  0  0  0  0  0  0  0  0  0
   25.1474  -22.0783  -14.6486 C   0  0  0  0  0  0  0  0  0  0  0  0
   25.8048  -22.3881  -13.3329 C   0  0  0  0  0  0  0  0  0  0  0  0
   25.5126  -21.3493  -12.2761 C   0  0  2  0  0  0  0  0  0  0  0  0
   26.1926  -21.5691  -11.0382 N   0  0  0  0  0  0  0  0  0  0  0  0
   24.0181  -21.3656  -12.0943 C   0  0  0  0  0  0  0  0  0  0  0  0
   23.5399  -22.3621  -11.5033 O   0  0  0  0  0  0  0  0  0  0  0  0
   28.6860  -22.9603  -17.9066 O   0  0  0  0  0  0  0  0  0  0  0  0
   15.5432  -19.0160  -11.9598 C   0  0  0  0  0  0  0  0  0  0  0  0
   16.9377  -19.0187  -11.9846 C   0  0  0  0  0  0  0  0  0  0  0  0
   17.6256  -18.6274  -13.1066 C   0  0  0  0  0  0  0  0  0  0  0  0
   18.9996  -18.6239  -13.1491 C   0  0  0  0  0  0  0  0  0  0  0  0
   19.6954  -19.0225  -12.0397 C   0  0  0  0  0  0  0  0  0  0  0  0
   21.1663  -19.0371  -12.0623 C   0  0  1  0  0  0  0  0  0  0  0  0
   21.7030  -20.3907  -12.4111 N   0  0  0  0  0  0  0  0  0  0  0  0
   23.1681  -20.3532  -12.5402 C   0  0  0  0  0  0  0  0  0  0  0  0
   21.0866  -21.0238  -13.5836 O   0  0  0  0  0  0  0  0  0  0  0  0
   19.9901  -21.8832  -13.3660 C   0  0  0  0  0  0  0  0  0  0  0  0
   19.0226  -19.4198  -10.9004 C   0  0  0  0  0  0  0  0  0  0  0  0
   17.6522  -19.4183  -10.8718 O   0  0  0  0  0  0  0  0  0  0  0  0
  2  1  1  6
  2  3  1  0
  3  4  1  0
  4  5  2  0
  5  6  1  0
  7  6  2  0
  8  7  1  0
  9  4  1  0
  9  8  2  0
 10  2  1  0
 11 10  2  0
 13 12  1  0
 14 13  2  0
 15 13  1  0
 16 17  1  0
 16 15  1  0
 17 18  1  0
 19 18  1  6
 19 20  1  0
 19 21  1  0
 20 10  1  0
 21 30  1  0
 22 21  2  0
 23 24  1  0
 24 25  2  0
 24 34  1  0
 25 26  1  0
 26 27  2  0
 27 28  1  0
 29 28  1  1
 29 31  1  0
 30 29  1  0
 31 35  2  0
 31 32  1  0
 33 27  1  0
 34 33  2  0
M  END
$$$$
