FRY.pdb
     RDKit          3D

 35 36  0  0  1  0  0  0  0  0999 V2000
   25.3372  -18.3044  -17.7013 N   0  0  0  0  0  0  0  0  0  0  0  0
   25.4611  -19.1168  -16.5187 C   0  0  1  0  0  0  0  0  0  0  0  0
   25.9708  -18.3369  -15.3372 C   0  0  0  0  0  0  0  0  0  0  0  0
   27.3373  -17.8373  -15.6348 C   0  0  0  0  0  0  0  0  0  0  0  0
   27.5282  -16.4869  -15.8507 C   0  0  0  0  0  0  0  0  0  0  0  0
   28.7748  -15.9618  -16.1337 C   0  0  0  0  0  0  0  0  0  0  0  0
   29.8795  -16.7761  -16.2108 C   0  0  0  0  0  0  0  0  0  0  0  0
   29.7023  -18.1408  -15.9956 C   0  0  0  0  0  0  0  0  0  0  0  0
   28.4489  -18.6507  -15.7134 C   0  0  0  0  0  0  0  0  0  0  0  0
   24.2030  -19.8206  -16.2703 C   0  0  0  0  0  0  0  0  0  0  0  0
   23.1164  -19.1938  -16.3360 O   0  0  0  0  0  0  0  0  0  0  0  0
   25.9932  -25.7275  -18.5241 N   0  0  0  0  0  0  0  0  0  0  0  0
   25.4379  -26.1707  -17.3006 C   0  0  0  0  0  0  0  0  0  0  0  0
   26.2082  -26.8434  -16.5025 N   0  0  0  0  0  0  0  0  0  0  0  0
   24.0842  -25.8973  -16.9430 N   0  0  0  0  0  0  0  0  0  0  0  0
   23.2221  -25.1052  -17.7671 C   0  0  0  0  0  0  0  0  0  0  0  0
   23.2628  -23.6415  -17.4353 C   0  0  0  0  0  0  0  0  0  0  0  0
   22.9828  -23.3965  -15.9790 C   0  0  0  0  0  0  0  0  0  0  0  0
   22.9324  -21.9268  -15.6340 C   0  0  2  0  0  0  0  0  0  0  0  0
   24.1294  -21.2122  -15.9496 N   0  0  0  0  0  0  0  0  0  0  0  0
   22.6268  -21.8668  -14.1610 C   0  0  0  0  0  0  0  0  0  0  0  0
   23.4421  -22.4379  -13.3994 O   0  0  0  0  0  0  0  0  0  0  0  0
   25.8623  -27.2139  -15.6073 O   0  0  0  0  0  0  0  0  0  0  0  0
   27.2987  -19.7421  -10.7328 C   0  0  0  0  0  0  0  0  0  0  0  0
   25.9251  -19.7422  -10.9743 C   0  0  0  0  0  0  0  0  0  0  0  0
   25.4289  -19.5232  -12.2357 C   0  0  0  0  0  0  0  0  0  0  0  0
   24.0784  -19.5196  -12.4922 C   0  0  0  0  0  0  0  0  0  0  0  0
   23.2096  -19.7409  -11.4578 C   0  0  0  0  0  0  0  0  0  0  0  0
   21.7590  -19.7327  -11.7037 C   0  0  2  0  0  0  0  0  0  0  0  0
   21.2690  -21.0649  -12.1801 N   0  0  0  0  0  0  0  0  0  0  0  0
   21.5117  -21.2243  -13.6224 C   0  0  0  0  0  0  0  0  0  0  0  0
   19.8739  -21.3742  -11.8431 O   0  0  0  0  0  0  0  0  0  0  0  0
   19.5704  -21.6558  -10.4952 C   0  0  0  0  0  0  0  0  0  0  0  0
   23.6879  -19.9636  -10.1811 C   0  0  0  0  0  0  0  0  0  0  0  0
   25.0372  -19.9645   -9.9396 O   0  0  0  0  0  0  0  0  0  0  0  0
  2  1  1  6
  2  3  1  0
  3  4  1  0
  4  5  2  0
  5  6  1  0
  7  6  2  0
  8  7  1  0
  9  4  1  0
  9  8  2  0
 10  2  1  0
 11 10  2  0
 13 12  1  0
 14 13  2  0
 15 13  1  0
 16 17  1  0
 16 15  1  0
 17 18  1  0
 19 18  1  1
 19 20  1  0
 19 21  1  0
 20 10  1  0
 21 30  1  0
 22 21  2  0
 23 24  1  0
 24 25  2  0
 24 34  1  0
 25 26  1  0
 26 27  2  0
 27 28  1  0
 29 28  1  1
 29 31  1  0
 30 29  1  0
 31 35  2  0
 31 32  1  0
 33 27  1  0
 34 33  2  0
M  END
$$$$
