FRY.pdb
     RDKit          3D

 35 36  0  0  1  0  0  0  0  0999 V2000
   28.8708  -20.5331   -9.6350 N   0  0  0  0  0  0  0  0  0  0  0  0
   27.4404  -20.6172   -9.4899 C   0  0  1  0  0  0  0  0  0  0  0  0
   26.8869  -19.5250   -8.6155 C   0  0  0  0  0  0  0  0  0  0  0  0
   27.4035  -19.6970   -7.2338 C   0  0  0  0  0  0  0  0  0  0  0  0
   26.6688  -20.4354   -6.3274 C   0  0  0  0  0  0  0  0  0  0  0  0
   27.0954  -20.6294   -5.0273 C   0  0  0  0  0  0  0  0  0  0  0  0
   28.2795  -20.0870   -4.5878 C   0  0  0  0  0  0  0  0  0  0  0  0
   29.0314  -19.3393   -5.4909 C   0  0  0  0  0  0  0  0  0  0  0  0
   28.5911  -19.1545   -6.7882 C   0  0  0  0  0  0  0  0  0  0  0  0
   26.8152  -20.6982  -10.8100 C   0  0  0  0  0  0  0  0  0  0  0  0
   27.0962  -19.8415  -11.6846 O   0  0  0  0  0  0  0  0  0  0  0  0
   24.7883  -25.1106  -17.3763 N   0  0  0  0  0  0  0  0  0  0  0  0
   25.4204  -25.6695  -16.2405 C   0  0  0  0  0  0  0  0  0  0  0  0
   26.4471  -26.4358  -16.4433 N   0  0  0  0  0  0  0  0  0  0  0  0
   24.9585  -25.4105  -14.9158 N   0  0  0  0  0  0  0  0  0  0  0  0
   23.8220  -24.5808  -14.6522 C   0  0  0  0  0  0  0  0  0  0  0  0
   24.1885  -23.1849  -14.2380 C   0  0  0  0  0  0  0  0  0  0  0  0
   24.8775  -23.1674  -12.9022 C   0  0  0  0  0  0  0  0  0  0  0  0
   25.1529  -21.7674  -12.4064 C   0  0  2  0  0  0  0  0  0  0  0  0
   25.8810  -21.7164  -11.1775 N   0  0  0  0  0  0  0  0  0  0  0  0
   23.8040  -21.1115  -12.2754 C   0  0  0  0  0  0  0  0  0  0  0  0
   23.2409  -21.2139  -11.1603 O   0  0  0  0  0  0  0  0  0  0  0  0
   26.9271  -26.9083  -15.6657 O   0  0  0  0  0  0  0  0  0  0  0  0
   16.9448  -15.7917  -13.7730 C   0  0  0  0  0  0  0  0  0  0  0  0
   18.1847  -16.4304  -13.7773 C   0  0  0  0  0  0  0  0  0  0  0  0
   19.0783  -16.2466  -12.7513 C   0  0  0  0  0  0  0  0  0  0  0  0
   20.3046  -16.8677  -12.7389 C   0  0  0  0  0  0  0  0  0  0  0  0
   20.6382  -17.6906  -13.7806 C   0  0  0  0  0  0  0  0  0  0  0  0
   21.9483  -18.3599  -13.7963 C   0  0  1  0  0  0  0  0  0  0  0  0
   21.8874  -19.7149  -13.1622 N   0  0  0  0  0  0  0  0  0  0  0  0
   23.1724  -20.4166  -13.3071 C   0  0  0  0  0  0  0  0  0  0  0  0
   20.7719  -20.5614  -13.6035 O   0  0  0  0  0  0  0  0  0  0  0  0
   20.9580  -21.3418  -14.7631 C   0  0  0  0  0  0  0  0  0  0  0  0
   19.7535  -17.8895  -14.8228 C   0  0  0  0  0  0  0  0  0  0  0  0
   18.5339  -17.2639  -14.8223 O   0  0  0  0  0  0  0  0  0  0  0  0
  2  1  1  6
  2  3  1  0
  3  4  1  0
  4  5  2  0
  5  6  1  0
  7  6  2  0
  8  7  1  0
  9  4  1  0
  9  8  2  0
 10  2  1  0
 11 10  2  0
 13 12  1  0
 14 13  2  0
 15 13  1  0
 16 17  1  0
 16 15  1  0
 17 18  1  0
 19 18  1  1
 19 20  1  0
 19 21  1  0
 20 10  1  0
 21 30  1  0
 22 21  2  0
 23 24  1  0
 24 25  2  0
 24 34  1  0
 25 26  1  0
 26 27  2  0
 27 28  1  0
 29 28  1  1
 29 31  1  0
 30 29  1  0
 31 35  2  0
 31 32  1  0
 33 27  1  0
 34 33  2  0
M  END
$$$$
