FRY.pdb
     RDKit          3D

 35 36  0  0  1  0  0  0  0  0999 V2000
   17.2072   -6.0971  -12.0925 N   0  0  0  0  0  0  0  0  0  0  0  0
   17.0083   -7.5208  -12.0054 C   0  0  1  0  0  0  0  0  0  0  0  0
   17.4806   -8.0872  -10.6939 C   0  0  0  0  0  0  0  0  0  0  0  0
   16.6321   -7.5540   -9.5979 C   0  0  0  0  0  0  0  0  0  0  0  0
   15.6067   -8.3335   -9.1003 C   0  0  0  0  0  0  0  0  0  0  0  0
   14.7820   -7.8925   -8.0830 C   0  0  0  0  0  0  0  0  0  0  0  0
   14.9569   -6.6481   -7.5257 C   0  0  0  0  0  0  0  0  0  0  0  0
   15.9872   -5.8504   -8.0177 C   0  0  0  0  0  0  0  0  0  0  0  0
   16.8039   -6.3059   -9.0357 C   0  0  0  0  0  0  0  0  0  0  0  0
   15.6189   -7.8449  -12.3288 C   0  0  0  0  0  0  0  0  0  0  0  0
   14.7498   -6.9381  -12.3163 O   0  0  0  0  0  0  0  0  0  0  0  0
   12.3519  -10.2916  -19.4406 N   0  0  0  0  0  0  0  0  0  0  0  0
   13.1843  -11.3032  -18.9063 C   0  0  0  0  0  0  0  0  0  0  0  0
   13.5701  -12.2466  -19.7087 N   0  0  0  0  0  0  0  0  0  0  0  0
   13.5926  -11.3010  -17.5394 N   0  0  0  0  0  0  0  0  0  0  0  0
   13.2985  -10.2129  -16.6567 C   0  0  0  0  0  0  0  0  0  0  0  0
   13.8059  -10.4269  -15.2599 C   0  0  0  0  0  0  0  0  0  0  0  0
   13.3673   -9.3244  -14.3372 C   0  0  0  0  0  0  0  0  0  0  0  0
   13.8200   -9.5415  -12.9126 C   0  0  2  0  0  0  0  0  0  0  0  0
   15.1759   -9.1617  -12.6670 N   0  0  0  0  0  0  0  0  0  0  0  0
   13.5988  -11.0048  -12.6359 C   0  0  0  0  0  0  0  0  0  0  0  0
   14.4136  -11.8000  -13.1599 O   0  0  0  0  0  0  0  0  0  0  0  0
   14.2110  -12.9886  -19.3970 O   0  0  0  0  0  0  0  0  0  0  0  0
    6.9234  -11.2308   -8.8116 C   0  0  0  0  0  0  0  0  0  0  0  0
    8.2121  -11.6774   -9.1031 C   0  0  0  0  0  0  0  0  0  0  0  0
    9.2360  -10.7890   -9.3210 C   0  0  0  0  0  0  0  0  0  0  0  0
   10.5121  -11.2110   -9.6096 C   0  0  0  0  0  0  0  0  0  0  0  0
   10.7626  -12.5549   -9.6805 C   0  0  0  0  0  0  0  0  0  0  0  0
   12.1175  -13.0328   -9.9972 C   0  0  1  0  0  0  0  0  0  0  0  0
   12.4216  -12.9122  -11.4583 N   0  0  0  0  0  0  0  0  0  0  0  0
   12.5600  -11.5000  -11.8471 C   0  0  0  0  0  0  0  0  0  0  0  0
   11.4912  -13.6156  -12.3500 O   0  0  0  0  0  0  0  0  0  0  0  0
   11.4940  -15.0254  -12.3229 C   0  0  0  0  0  0  0  0  0  0  0  0
    9.7467  -13.4657   -9.4644 C   0  0  0  0  0  0  0  0  0  0  0  0
    8.4788  -13.0309   -9.1774 O   0  0  0  0  0  0  0  0  0  0  0  0
  2  1  1  1
  2  3  1  0
  3  4  1  0
  4  5  2  0
  5  6  1  0
  7  6  2  0
  8  7  1  0
  9  4  1  0
  9  8  2  0
 10  2  1  0
 11 10  2  0
 13 12  1  0
 14 13  2  0
 15 13  1  0
 16 17  1  0
 16 15  1  0
 17 18  1  0
 19 18  1  6
 19 20  1  0
 19 21  1  0
 20 10  1  0
 21 30  1  0
 22 21  2  0
 23 24  1  0
 24 25  2  0
 24 34  1  0
 25 26  1  0
 26 27  2  0
 27 28  1  0
 29 28  1  1
 29 31  1  0
 30 29  1  0
 31 35  2  0
 31 32  1  0
 33 27  1  0
 34 33  2  0
M  END
$$$$
