FRY.pdb
     RDKit          3D

 35 36  0  0  1  0  0  0  0  0999 V2000
   22.9471  -27.8509  -19.0757 N   0  0  0  0  0  0  0  0  0  0  0  0
   22.4390  -26.9112  -18.1099 C   0  0  1  0  0  0  0  0  0  0  0  0
   21.8874  -25.6680  -18.7535 C   0  0  0  0  0  0  0  0  0  0  0  0
   22.9781  -24.9693  -19.4798 C   0  0  0  0  0  0  0  0  0  0  0  0
   23.8912  -24.2201  -18.7646 C   0  0  0  0  0  0  0  0  0  0  0  0
   24.9265  -23.5455  -19.3832 C   0  0  0  0  0  0  0  0  0  0  0  0
   25.0837  -23.5983  -20.7478 C   0  0  0  0  0  0  0  0  0  0  0  0
   24.1700  -24.3500  -21.4827 C   0  0  0  0  0  0  0  0  0  0  0  0
   23.1397  -25.0193  -20.8491 C   0  0  0  0  0  0  0  0  0  0  0  0
   21.4999  -27.5852  -17.2135 C   0  0  0  0  0  0  0  0  0  0  0  0
   20.5492  -28.2502  -17.6949 O   0  0  0  0  0  0  0  0  0  0  0  0
   20.1793  -29.7101   -9.6557 N   0  0  0  0  0  0  0  0  0  0  0  0
   19.4001  -30.7377  -10.2377 C   0  0  0  0  0  0  0  0  0  0  0  0
   18.4716  -31.2721   -9.5063 N   0  0  0  0  0  0  0  0  0  0  0  0
   19.6146  -31.1814  -11.5765 N   0  0  0  0  0  0  0  0  0  0  0  0
   20.5331  -30.5281  -12.4593 C   0  0  0  0  0  0  0  0  0  0  0  0
   20.3148  -29.0456  -12.5531 C   0  0  0  0  0  0  0  0  0  0  0  0
   21.2896  -28.4019  -13.4989 C   0  0  0  0  0  0  0  0  0  0  0  0
   20.7055  -28.1750  -14.8733 C   0  0  2  0  0  0  0  0  0  0  0  0
   21.5977  -27.5341  -15.7878 N   0  0  0  0  0  0  0  0  0  0  0  0
   19.4600  -27.3578  -14.6542 C   0  0  0  0  0  0  0  0  0  0  0  0
   19.5705  -26.3670  -13.8946 O   0  0  0  0  0  0  0  0  0  0  0  0
   17.8559  -32.0099   -9.8737 O   0  0  0  0  0  0  0  0  0  0  0  0
   11.2791  -24.1532  -15.3046 C   0  0  0  0  0  0  0  0  0  0  0  0
   12.4474  -24.8916  -15.4919 C   0  0  0  0  0  0  0  0  0  0  0  0
   13.5296  -24.3504  -16.1408 C   0  0  0  0  0  0  0  0  0  0  0  0
   14.6889  -25.0633  -16.3346 C   0  0  0  0  0  0  0  0  0  0  0  0
   14.7602  -26.3473  -15.8657 C   0  0  0  0  0  0  0  0  0  0  0  0
   15.9860  -27.1352  -16.0684 C   0  0  2  0  0  0  0  0  0  0  0  0
   16.9993  -26.8713  -14.9981 N   0  0  0  0  0  0  0  0  0  0  0  0
   18.2270  -27.6449  -15.2404 C   0  0  0  0  0  0  0  0  0  0  0  0
   16.5195  -27.0609  -13.6235 O   0  0  0  0  0  0  0  0  0  0  0  0
   16.4881  -28.3752  -13.1137 C   0  0  0  0  0  0  0  0  0  0  0  0
   13.6828  -26.9108  -15.2098 C   0  0  0  0  0  0  0  0  0  0  0  0
   12.5330  -26.1884  -15.0235 O   0  0  0  0  0  0  0  0  0  0  0  0
  2  1  1  6
  2  3  1  0
  3  4  1  0
  4  5  2  0
  5  6  1  0
  7  6  2  0
  8  7  1  0
  9  4  1  0
  9  8  2  0
 10  2  1  0
 11 10  2  0
 13 12  1  0
 14 13  2  0
 15 13  1  0
 16 17  1  0
 16 15  1  0
 17 18  1  0
 19 18  1  1
 19 20  1  0
 19 21  1  0
 20 10  1  0
 21 30  1  0
 22 21  2  0
 23 24  1  0
 24 25  2  0
 24 34  1  0
 25 26  1  0
 26 27  2  0
 27 28  1  0
 29 28  1  6
 29 31  1  0
 30 29  1  0
 31 35  2  0
 31 32  1  0
 33 27  1  0
 34 33  2  0
M  END
$$$$
