FRY.pdb
     RDKit          3D

 35 36  0  0  1  0  0  0  0  0999 V2000
   33.1558  -30.6100  -19.8886 N   0  0  0  0  0  0  0  0  0  0  0  0
   33.7433  -30.5688  -18.5744 C   0  0  1  0  0  0  0  0  0  0  0  0
   33.2889  -29.3749  -17.7795 C   0  0  0  0  0  0  0  0  0  0  0  0
   33.6915  -28.1340  -18.4891 C   0  0  0  0  0  0  0  0  0  0  0  0
   32.7370  -27.4128  -19.1785 C   0  0  0  0  0  0  0  0  0  0  0  0
   33.0499  -26.2519  -19.8598 C   0  0  0  0  0  0  0  0  0  0  0  0
   34.3375  -25.7706  -19.8741 C   0  0  0  0  0  0  0  0  0  0  0  0
   35.3113  -26.4877  -19.1832 C   0  0  0  0  0  0  0  0  0  0  0  0
   34.9824  -27.6473  -18.5064 C   0  0  0  0  0  0  0  0  0  0  0  0
   33.5318  -31.8495  -17.8997 C   0  0  0  0  0  0  0  0  0  0  0  0
   32.4980  -32.5190  -18.1466 O   0  0  0  0  0  0  0  0  0  0  0  0
   35.7316  -38.4371  -20.7180 N   0  0  0  0  0  0  0  0  0  0  0  0
   35.2849  -38.3534  -19.3781 C   0  0  0  0  0  0  0  0  0  0  0  0
   34.8968  -39.4514  -18.8068 N   0  0  0  0  0  0  0  0  0  0  0  0
   35.2555  -37.1163  -18.6681 N   0  0  0  0  0  0  0  0  0  0  0  0
   35.7423  -35.8969  -19.2389 C   0  0  0  0  0  0  0  0  0  0  0  0
   35.6437  -34.7236  -18.3072 C   0  0  0  0  0  0  0  0  0  0  0  0
   34.4379  -34.8254  -17.4156 C   0  0  0  0  0  0  0  0  0  0  0  0
   34.3728  -33.7149  -16.3937 C   0  0  2  0  0  0  0  0  0  0  0  0
   34.4503  -32.4019  -16.9533 N   0  0  0  0  0  0  0  0  0  0  0  0
   35.5082  -33.9753  -15.4397 C   0  0  0  0  0  0  0  0  0  0  0  0
   36.2766  -33.0116  -15.2124 O   0  0  0  0  0  0  0  0  0  0  0  0
   34.5589  -39.4613  -17.8351 O   0  0  0  0  0  0  0  0  0  0  0  0
   35.7618  -35.2450   -7.0506 C   0  0  0  0  0  0  0  0  0  0  0  0
   35.5469  -35.1039   -8.4215 C   0  0  0  0  0  0  0  0  0  0  0  0
   34.8117  -36.0288   -9.1208 C   0  0  0  0  0  0  0  0  0  0  0  0
   34.5898  -35.9061  -10.4719 C   0  0  0  0  0  0  0  0  0  0  0  0
   35.1189  -34.8303  -11.1325 C   0  0  0  0  0  0  0  0  0  0  0  0
   34.9042  -34.6804  -12.5803 C   0  0  1  0  0  0  0  0  0  0  0  0
   35.9748  -35.3629  -13.3740 N   0  0  0  0  0  0  0  0  0  0  0  0
   35.7362  -35.2027  -14.8169 C   0  0  0  0  0  0  0  0  0  0  0  0
   36.2043  -36.7719  -13.0311 O   0  0  0  0  0  0  0  0  0  0  0  0
   35.4047  -37.7423  -13.6691 C   0  0  0  0  0  0  0  0  0  0  0  0
   35.8615  -33.8880  -10.4477 C   0  0  0  0  0  0  0  0  0  0  0  0
   36.0749  -34.0229   -9.1005 O   0  0  0  0  0  0  0  0  0  0  0  0
  2  1  1  6
  2  3  1  0
  3  4  1  0
  4  5  2  0
  5  6  1  0
  7  6  2  0
  8  7  1  0
  9  4  1  0
  9  8  2  0
 10  2  1  0
 11 10  2  0
 13 12  1  0
 14 13  2  0
 15 13  1  0
 16 17  1  0
 16 15  1  0
 17 18  1  0
 19 18  1  6
 19 20  1  0
 19 21  1  0
 20 10  1  0
 21 30  1  0
 22 21  2  0
 23 24  1  0
 24 25  2  0
 24 34  1  0
 25 26  1  0
 26 27  2  0
 27 28  1  0
 29 28  1  1
 29 31  1  0
 30 29  1  0
 31 35  2  0
 31 32  1  0
 33 27  1  0
 34 33  2  0
M  END
$$$$
