CWF.pdb
     RDKit          3D

 32 34  0  0  1  0  0  0  0  0999 V2000
   25.1893  -18.1450  -13.8550 N   0  0  0  0  0  0  0  0  0  0  0  0
   26.3278  -18.6185  -14.6091 C   0  0  1  0  0  0  0  0  0  0  0  0
   27.5765  -17.8549  -14.2097 C   0  0  0  0  0  0  0  0  0  0  0  0
   27.2243  -16.0820  -14.3483 S   0  0  0  0  0  0  0  0  0  0  0  0
   26.4678  -20.0666  -14.3878 C   0  0  0  0  0  0  0  0  0  0  0  0
   27.4401  -20.7062  -14.9281 O   0  0  0  0  0  0  0  0  0  0  0  0
   25.6022  -20.8503  -13.6042 N   0  0  0  0  0  0  0  0  0  0  0  0
   25.5844  -22.2858  -13.4830 C   0  0  1  0  0  0  0  0  0  0  0  0
   25.7097  -22.6281  -12.0543 C   0  0  0  0  0  0  0  0  0  0  0  0
   26.2217  -21.5374  -11.2038 C   0  0  0  0  0  0  0  0  0  0  0  0
   25.4904  -20.6552  -10.4174 C   0  0  0  0  0  0  0  0  0  0  0  0
   26.3803  -19.8140   -9.8315 N   0  0  0  0  0  0  0  0  0  0  0  0
   27.6396  -20.1208  -10.2075 C   0  0  0  0  0  0  0  0  0  0  0  0
   28.8806  -19.6142   -9.9148 C   0  0  0  0  0  0  0  0  0  0  0  0
   30.0428  -20.1423  -10.4504 C   0  0  0  0  0  0  0  0  0  0  0  0
   29.9728  -21.2073  -11.3044 C   0  0  0  0  0  0  0  0  0  0  0  0
   28.7249  -21.7118  -11.5935 C   0  0  0  0  0  0  0  0  0  0  0  0
   27.5428  -21.2008  -11.0690 C   0  0  0  0  0  0  0  0  0  0  0  0
   24.4251  -22.8226  -14.2184 C   0  0  0  0  0  0  0  0  0  0  0  0
   24.1767  -24.0278  -14.4202 O   0  0  0  0  0  0  0  0  0  0  0  0
   23.5102  -21.8782  -14.7536 N   0  0  0  0  0  0  0  0  0  0  0  0
   22.2142  -21.5869  -14.1231 C   0  0  1  0  0  0  0  0  0  0  0  0
   22.5474  -20.8957  -12.8240 C   0  0  0  0  0  0  0  0  0  0  0  0
   21.2882  -20.5361  -12.1255 C   0  0  0  0  0  0  0  0  0  0  0  0
   21.3373  -19.4642  -11.2351 C   0  0  0  0  0  0  0  0  0  0  0  0
   20.1924  -19.0892  -10.5940 C   0  0  0  0  0  0  0  0  0  0  0  0
   19.0076  -19.7266  -10.7950 C   0  0  0  0  0  0  0  0  0  0  0  0
   18.9612  -20.8053  -11.6923 C   0  0  0  0  0  0  0  0  0  0  0  0
   20.1031  -21.1938  -12.3433 C   0  0  0  0  0  0  0  0  0  0  0  0
   21.4294  -20.7001  -14.9966 C   0  0  0  0  0  0  0  0  0  0  0  0
   20.1933  -20.9572  -15.2323 O   0  0  0  0  0  0  0  0  0  0  0  0
   21.9501  -19.5698  -15.5982 O   0  0  0  0  0  0  0  0  0  0  0  0
  2  3  1  0
  2  1  1  1
  4  3  1  0
  5  2  1  0
  6  5  2  0
  7  5  1  0
  8  7  1  0
  9 10  1  0
  8  9  1  1
 10 18  1  0
 10 11  2  0
 11 12  1  0
 13 12  1  0
 13 14  2  0
 15 14  1  0
 16 15  2  0
 17 16  1  0
 17 18  2  0
 18 13  1  0
 19  8  1  0
 19 21  1  0
 20 19  2  0
 22 21  1  0
 22 30  1  0
 22 23  1  1
 24 29  1  0
 24 23  1  0
 25 24  2  0
 26 27  2  0
 26 25  1  0
 27 28  1  0
 28 29  2  0
 30 32  1  0
 31 30  2  0
M  END
$$$$
