CWF.pdb
     RDKit          3D

 32 34  0  0  1  0  0  0  0  0999 V2000
   16.0540  -19.4567    1.9844 N   0  0  0  0  0  0  0  0  0  0  0  0
   15.3673  -19.0541    3.1908 C   0  0  1  0  0  0  0  0  0  0  0  0
   14.6844  -20.2487    3.8299 C   0  0  0  0  0  0  0  0  0  0  0  0
   15.9557  -21.4735    4.2423 S   0  0  0  0  0  0  0  0  0  0  0  0
   16.3401  -18.4209    4.0954 C   0  0  0  0  0  0  0  0  0  0  0  0
   17.5894  -18.6910    3.9830 O   0  0  0  0  0  0  0  0  0  0  0  0
   16.0181  -17.5059    5.1134 N   0  0  0  0  0  0  0  0  0  0  0  0
   16.9038  -16.9411    6.0995 C   0  0  1  0  0  0  0  0  0  0  0  0
   16.4019  -15.6009    6.4543 C   0  0  0  0  0  0  0  0  0  0  0  0
   16.7538  -14.5387    5.4936 C   0  0  0  0  0  0  0  0  0  0  0  0
   16.0717  -14.1741    4.3389 C   0  0  0  0  0  0  0  0  0  0  0  0
   16.7746  -13.1648    3.7644 N   0  0  0  0  0  0  0  0  0  0  0  0
   17.8679  -12.8715    4.4992 C   0  0  0  0  0  0  0  0  0  0  0  0
   18.8861  -11.9588    4.3855 C   0  0  0  0  0  0  0  0  0  0  0  0
   19.9070  -11.8665    5.3160 C   0  0  0  0  0  0  0  0  0  0  0  0
   19.9195  -12.7065    6.3942 C   0  0  0  0  0  0  0  0  0  0  0  0
   18.8948  -13.6195    6.5032 C   0  0  0  0  0  0  0  0  0  0  0  0
   17.8578  -13.7325    5.5838 C   0  0  0  0  0  0  0  0  0  0  0  0
   17.1004  -17.9119    7.1911 C   0  0  0  0  0  0  0  0  0  0  0  0
   16.2928  -18.7939    7.5445 O   0  0  0  0  0  0  0  0  0  0  0  0
   18.3203  -17.8294    7.9126 N   0  0  0  0  0  0  0  0  0  0  0  0
   18.6333  -18.7174    9.0419 C   0  0  1  0  0  0  0  0  0  0  0  0
   19.9730  -19.3278    8.7119 C   0  0  0  0  0  0  0  0  0  0  0  0
   21.0003  -18.2572    8.6706 C   0  0  0  0  0  0  0  0  0  0  0  0
   21.0287  -17.3601    9.7376 C   0  0  0  0  0  0  0  0  0  0  0  0
   21.9763  -16.3781    9.7457 C   0  0  0  0  0  0  0  0  0  0  0  0
   22.8916  -16.2465    8.7481 C   0  0  0  0  0  0  0  0  0  0  0  0
   22.8606  -17.1513    7.6752 C   0  0  0  0  0  0  0  0  0  0  0  0
   21.9144  -18.1427    7.6529 C   0  0  0  0  0  0  0  0  0  0  0  0
   18.7134  -17.9287   10.2815 C   0  0  0  0  0  0  0  0  0  0  0  0
   18.6900  -16.6454   10.2313 O   0  0  0  0  0  0  0  0  0  0  0  0
   18.8126  -18.4951   11.5384 O   0  0  0  0  0  0  0  0  0  0  0  0
  2  3  1  0
  2  1  1  6
  4  3  1  0
  5  2  1  0
  6  5  2  0
  7  5  1  0
  8  7  1  0
  9 10  1  0
  8  9  1  1
 10 18  1  0
 10 11  2  0
 11 12  1  0
 13 12  1  0
 13 14  2  0
 15 14  1  0
 16 15  2  0
 17 16  1  0
 17 18  2  0
 18 13  1  0
 19  8  1  0
 19 21  1  0
 20 19  2  0
 22 21  1  0
 22 30  1  0
 22 23  1  6
 24 29  1  0
 24 23  1  0
 25 24  2  0
 26 27  2  0
 26 25  1  0
 27 28  1  0
 28 29  2  0
 30 32  1  0
 31 30  2  0
M  END
$$$$
