CWF.pdb
     RDKit          3D

 32 34  0  0  1  0  0  0  0  0999 V2000
   27.7839  -27.0908  -21.6359 N   0  0  0  0  0  0  0  0  0  0  0  0
   27.9564  -27.3348  -20.2218 C   0  0  1  0  0  0  0  0  0  0  0  0
   26.6104  -27.3390  -19.5217 C   0  0  0  0  0  0  0  0  0  0  0  0
   25.5197  -28.4910  -20.3990 S   0  0  0  0  0  0  0  0  0  0  0  0
   28.6760  -28.6068  -20.0495 C   0  0  0  0  0  0  0  0  0  0  0  0
   28.7370  -29.4447  -21.0193 O   0  0  0  0  0  0  0  0  0  0  0  0
   29.3345  -29.0082  -18.8737 N   0  0  0  0  0  0  0  0  0  0  0  0
   30.0655  -30.2293  -18.6493 C   0  0  1  0  0  0  0  0  0  0  0  0
   31.4709  -30.0007  -19.0325 C   0  0  0  0  0  0  0  0  0  0  0  0
   32.3104  -31.2133  -19.0413 C   0  0  0  0  0  0  0  0  0  0  0  0
   31.9389  -32.5042  -19.3975 C   0  0  0  0  0  0  0  0  0  0  0  0
   33.0316  -33.2923  -19.2309 N   0  0  0  0  0  0  0  0  0  0  0  0
   34.0774  -32.5635  -18.7874 C   0  0  0  0  0  0  0  0  0  0  0  0
   35.3823  -32.8474  -18.4726 C   0  0  0  0  0  0  0  0  0  0  0  0
   36.2682  -31.8771  -18.0364 C   0  0  0  0  0  0  0  0  0  0  0  0
   35.8471  -30.5831  -17.9078 C   0  0  0  0  0  0  0  0  0  0  0  0
   34.5370  -30.3043  -18.2261 C   0  0  0  0  0  0  0  0  0  0  0  0
   33.6274  -31.2593  -18.6668 C   0  0  0  0  0  0  0  0  0  0  0  0
   29.7965  -30.7144  -17.2836 C   0  0  0  0  0  0  0  0  0  0  0  0
   29.9310  -30.0593  -16.2312 O   0  0  0  0  0  0  0  0  0  0  0  0
   29.3500  -32.0559  -17.1545 N   0  0  0  0  0  0  0  0  0  0  0  0
   28.9594  -32.6389  -15.8625 C   0  0  1  0  0  0  0  0  0  0  0  0
   27.8476  -31.7593  -15.3461 C   0  0  0  0  0  0  0  0  0  0  0  0
   27.3050  -32.3431  -14.0939 C   0  0  0  0  0  0  0  0  0  0  0  0
   26.1651  -33.1385  -14.2036 C   0  0  0  0  0  0  0  0  0  0  0  0
   25.6531  -33.7125  -13.0763 C   0  0  0  0  0  0  0  0  0  0  0  0
   26.2179  -33.5335  -11.8518 C   0  0  0  0  0  0  0  0  0  0  0  0
   27.3656  -32.7323  -11.7445 C   0  0  0  0  0  0  0  0  0  0  0  0
   27.8912  -32.1487  -12.8679 C   0  0  0  0  0  0  0  0  0  0  0  0
   28.4800  -34.0149  -16.0675 C   0  0  0  0  0  0  0  0  0  0  0  0
   28.8263  -34.9459  -15.2532 O   0  0  0  0  0  0  0  0  0  0  0  0
   27.6521  -34.3844  -17.1108 O   0  0  0  0  0  0  0  0  0  0  0  0
  2  3  1  0
  2  1  1  6
  4  3  1  0
  5  2  1  0
  6  5  2  0
  7  5  1  0
  8  7  1  0
  9 10  1  0
  8  9  1  1
 10 18  1  0
 10 11  2  0
 11 12  1  0
 13 12  1  0
 13 14  2  0
 15 14  1  0
 16 15  2  0
 17 16  1  0
 17 18  2  0
 18 13  1  0
 19  8  1  0
 19 21  1  0
 20 19  2  0
 22 21  1  0
 22 30  1  0
 22 23  1  6
 24 29  1  0
 24 23  1  0
 25 24  2  0
 26 27  2  0
 26 25  1  0
 27 28  1  0
 28 29  2  0
 30 32  1  0
 31 30  2  0
M  END
$$$$
