CWF.pdb
     RDKit          3D

 32 34  0  0  1  0  0  0  0  0999 V2000
   28.5261  -20.9897  -15.1324 N   0  0  0  0  0  0  0  0  0  0  0  0
   28.0013  -20.0233  -14.1946 C   0  0  1  0  0  0  0  0  0  0  0  0
   27.5094  -18.7910  -14.9304 C   0  0  0  0  0  0  0  0  0  0  0  0
   28.9548  -17.8663  -15.5151 S   0  0  0  0  0  0  0  0  0  0  0  0
   26.9347  -20.6636  -13.4086 C   0  0  0  0  0  0  0  0  0  0  0  0
   26.2388  -21.6101  -13.9247 O   0  0  0  0  0  0  0  0  0  0  0  0
   26.5920  -20.3251  -12.0875 N   0  0  0  0  0  0  0  0  0  0  0  0
   25.4519  -20.7779  -11.3320 C   0  0  1  0  0  0  0  0  0  0  0  0
   25.7026  -20.4941   -9.9070 C   0  0  0  0  0  0  0  0  0  0  0  0
   27.0714  -20.8001   -9.4511 C   0  0  0  0  0  0  0  0  0  0  0  0
   28.0304  -21.5742  -10.0934 C   0  0  0  0  0  0  0  0  0  0  0  0
   29.1271  -21.5924   -9.2935 N   0  0  0  0  0  0  0  0  0  0  0  0
   28.9100  -20.8670   -8.1764 C   0  0  0  0  0  0  0  0  0  0  0  0
   29.6621  -20.5537   -7.0724 C   0  0  0  0  0  0  0  0  0  0  0  0
   29.1795  -19.7581   -6.0474 C   0  0  0  0  0  0  0  0  0  0  0  0
   27.9098  -19.2569   -6.1186 C   0  0  0  0  0  0  0  0  0  0  0  0
   27.1605  -19.5739   -7.2291 C   0  0  0  0  0  0  0  0  0  0  0  0
   27.6211  -20.3697   -8.2723 C   0  0  0  0  0  0  0  0  0  0  0  0
   24.2211  -20.2344  -11.9341 C   0  0  0  0  0  0  0  0  0  0  0  0
   24.1316  -19.1869  -12.6047 O   0  0  0  0  0  0  0  0  0  0  0  0
   23.0243  -20.9686  -11.7239 N   0  0  0  0  0  0  0  0  0  0  0  0
   21.8361  -20.8053  -12.5743 C   0  0  1  0  0  0  0  0  0  0  0  0
   22.2877  -21.1686  -13.9673 C   0  0  0  0  0  0  0  0  0  0  0  0
   21.8570  -20.1081  -14.9122 C   0  0  0  0  0  0  0  0  0  0  0  0
   22.2611  -20.2358  -16.2406 C   0  0  0  0  0  0  0  0  0  0  0  0
   21.8623  -19.2927  -17.1427 C   0  0  0  0  0  0  0  0  0  0  0  0
   21.0852  -18.2340  -16.7880 C   0  0  0  0  0  0  0  0  0  0  0  0
   20.6796  -18.1082  -15.4499 C   0  0  0  0  0  0  0  0  0  0  0  0
   21.0727  -19.0474  -14.5323 C   0  0  0  0  0  0  0  0  0  0  0  0
   20.7747  -21.7168  -12.1185 C   0  0  0  0  0  0  0  0  0  0  0  0
   19.5570  -21.5174  -12.4752 O   0  0  0  0  0  0  0  0  0  0  0  0
   21.0086  -22.8113  -11.3074 O   0  0  0  0  0  0  0  0  0  0  0  0
  2  3  1  0
  2  1  1  6
  4  3  1  0
  5  2  1  0
  6  5  2  0
  7  5  1  0
  8  7  1  0
  9 10  1  0
  8  9  1  1
 10 18  1  0
 10 11  2  0
 11 12  1  0
 13 12  1  0
 13 14  2  0
 15 14  1  0
 16 15  2  0
 17 16  1  0
 17 18  2  0
 18 13  1  0
 19  8  1  0
 19 21  1  0
 20 19  2  0
 22 21  1  0
 22 30  1  0
 22 23  1  6
 24 29  1  0
 24 23  1  0
 25 24  2  0
 26 27  2  0
 26 25  1  0
 27 28  1  0
 28 29  2  0
 30 32  1  0
 31 30  2  0
M  END
$$$$
