CWF.pdb
     RDKit          3D

 32 34  0  0  1  0  0  0  0  0999 V2000
   30.4000  -22.9089  -18.3286 N   0  0  0  0  0  0  0  0  0  0  0  0
   29.4789  -23.3354  -17.2997 C   0  0  1  0  0  0  0  0  0  0  0  0
   30.1473  -24.3405  -16.3804 C   0  0  0  0  0  0  0  0  0  0  0  0
   29.8285  -26.0021  -17.0314 S   0  0  0  0  0  0  0  0  0  0  0  0
   29.0048  -22.1472  -16.5725 C   0  0  0  0  0  0  0  0  0  0  0  0
   29.8468  -21.3765  -15.9864 O   0  0  0  0  0  0  0  0  0  0  0  0
   27.6590  -21.7565  -16.4559 N   0  0  0  0  0  0  0  0  0  0  0  0
   27.1294  -20.6395  -15.7160 C   0  0  1  0  0  0  0  0  0  0  0  0
   26.4143  -19.7607  -16.6596 C   0  0  0  0  0  0  0  0  0  0  0  0
   25.9240  -18.4993  -16.0735 C   0  0  0  0  0  0  0  0  0  0  0  0
   26.6267  -17.5969  -15.2838 C   0  0  0  0  0  0  0  0  0  0  0  0
   25.7660  -16.5982  -14.9601 N   0  0  0  0  0  0  0  0  0  0  0  0
   24.5529  -16.8234  -15.5068 C   0  0  0  0  0  0  0  0  0  0  0  0
   23.3580  -16.1489  -15.5062 C   0  0  0  0  0  0  0  0  0  0  0  0
   22.2415  -16.6168  -16.1778 C   0  0  0  0  0  0  0  0  0  0  0  0
   22.3114  -17.7920  -16.8725 C   0  0  0  0  0  0  0  0  0  0  0  0
   23.5131  -18.4637  -16.8701 C   0  0  0  0  0  0  0  0  0  0  0  0
   24.6490  -18.0156  -16.2049 C   0  0  0  0  0  0  0  0  0  0  0  0
   26.3862  -21.1388  -14.5450 C   0  0  0  0  0  0  0  0  0  0  0  0
   25.6943  -22.1752  -14.5010 O   0  0  0  0  0  0  0  0  0  0  0  0
   26.4592  -20.3623  -13.3587 N   0  0  0  0  0  0  0  0  0  0  0  0
   25.7574  -20.7383  -12.1226 C   0  0  1  0  0  0  0  0  0  0  0  0
   26.4481  -19.9724  -11.0213 C   0  0  0  0  0  0  0  0  0  0  0  0
   27.8461  -20.4545  -10.8941 C   0  0  0  0  0  0  0  0  0  0  0  0
   28.7843  -19.9297  -11.7821 C   0  0  0  0  0  0  0  0  0  0  0  0
   30.0844  -20.3310  -11.6779 C   0  0  0  0  0  0  0  0  0  0  0  0
   30.4933  -21.2252  -10.7379 C   0  0  0  0  0  0  0  0  0  0  0  0
   29.5465  -21.7518   -9.8451 C   0  0  0  0  0  0  0  0  0  0  0  0
   28.2368  -21.3585   -9.9377 C   0  0  0  0  0  0  0  0  0  0  0  0
   24.3427  -20.3451  -12.2199 C   0  0  0  0  0  0  0  0  0  0  0  0
   23.5137  -20.6891  -11.3012 O   0  0  0  0  0  0  0  0  0  0  0  0
   23.8299  -19.6032  -13.2673 O   0  0  0  0  0  0  0  0  0  0  0  0
  2  3  1  0
  2  1  1  6
  4  3  1  0
  5  2  1  0
  6  5  2  0
  7  5  1  0
  8  7  1  0
  9 10  1  0
  8  9  1  6
 10 18  1  0
 10 11  2  0
 11 12  1  0
 13 12  1  0
 13 14  2  0
 15 14  1  0
 16 15  2  0
 17 16  1  0
 17 18  2  0
 18 13  1  0
 19  8  1  0
 19 21  1  0
 20 19  2  0
 22 21  1  0
 22 30  1  0
 22 23  1  1
 24 29  1  0
 24 23  1  0
 25 24  2  0
 26 27  2  0
 26 25  1  0
 27 28  1  0
 28 29  2  0
 30 32  1  0
 31 30  2  0
M  END
$$$$
