CWF.pdb
     RDKit          3D

 32 34  0  0  1  0  0  0  0  0999 V2000
   28.5203  -21.2893  -15.4982 N   0  0  0  0  0  0  0  0  0  0  0  0
   28.3220  -20.2976  -14.4657 C   0  0  1  0  0  0  0  0  0  0  0  0
   27.6263  -19.0764  -15.0372 C   0  0  0  0  0  0  0  0  0  0  0  0
   28.8974  -17.9075  -15.5889 S   0  0  0  0  0  0  0  0  0  0  0  0
   27.5566  -20.9098  -13.3680 C   0  0  0  0  0  0  0  0  0  0  0  0
   26.5143  -21.6118  -13.6275 O   0  0  0  0  0  0  0  0  0  0  0  0
   27.8735  -20.7970  -12.0026 N   0  0  0  0  0  0  0  0  0  0  0  0
   27.0409  -21.1355  -10.8766 C   0  0  1  0  0  0  0  0  0  0  0  0
   27.8703  -21.0804   -9.6587 C   0  0  0  0  0  0  0  0  0  0  0  0
   27.1159  -20.8570   -8.4112 C   0  0  0  0  0  0  0  0  0  0  0  0
   25.7464  -20.9803   -8.2099 C   0  0  0  0  0  0  0  0  0  0  0  0
   25.5046  -20.6570   -6.9138 N   0  0  0  0  0  0  0  0  0  0  0  0
   26.6542  -20.3357   -6.2841 C   0  0  0  0  0  0  0  0  0  0  0  0
   26.9759  -19.9541   -5.0060 C   0  0  0  0  0  0  0  0  0  0  0  0
   28.2772  -19.6861   -4.6171 C   0  0  0  0  0  0  0  0  0  0  0  0
   29.2931  -19.7997   -5.5246 C   0  0  0  0  0  0  0  0  0  0  0  0
   28.9641  -20.1839   -6.8051 C   0  0  0  0  0  0  0  0  0  0  0  0
   27.6662  -20.4594   -7.2212 C   0  0  0  0  0  0  0  0  0  0  0  0
   25.8169  -20.3150  -10.9113 C   0  0  0  0  0  0  0  0  0  0  0  0
   25.7250  -19.1176  -10.5756 O   0  0  0  0  0  0  0  0  0  0  0  0
   24.6299  -20.9502  -11.3621 N   0  0  0  0  0  0  0  0  0  0  0  0
   23.3366  -20.2541  -11.4296 C   0  0  1  0  0  0  0  0  0  0  0  0
   23.5655  -19.0716  -12.3383 C   0  0  0  0  0  0  0  0  0  0  0  0
   23.5116  -19.5239  -13.7509 C   0  0  0  0  0  0  0  0  0  0  0  0
   22.2756  -19.9482  -14.2373 C   0  0  0  0  0  0  0  0  0  0  0  0
   22.1832  -20.3470  -15.5392 C   0  0  0  0  0  0  0  0  0  0  0  0
   23.2561  -20.3443  -16.3755 C   0  0  0  0  0  0  0  0  0  0  0  0
   24.4991  -19.9164  -15.8830 C   0  0  0  0  0  0  0  0  0  0  0  0
   24.6076  -19.5133  -14.5775 C   0  0  0  0  0  0  0  0  0  0  0  0
   22.3209  -21.1554  -11.9964 C   0  0  0  0  0  0  0  0  0  0  0  0
   21.0984  -20.7720  -12.0880 O   0  0  0  0  0  0  0  0  0  0  0  0
   22.6041  -22.4283  -12.4547 O   0  0  0  0  0  0  0  0  0  0  0  0
  2  3  1  0
  2  1  1  6
  4  3  1  0
  5  2  1  0
  6  5  2  0
  7  5  1  0
  8  7  1  0
  9 10  1  0
  8  9  1  1
 10 18  1  0
 10 11  2  0
 11 12  1  0
 13 12  1  0
 13 14  2  0
 15 14  1  0
 16 15  2  0
 17 16  1  0
 17 18  2  0
 18 13  1  0
 19  8  1  0
 19 21  1  0
 20 19  2  0
 22 21  1  0
 22 30  1  0
 22 23  1  6
 24 29  1  0
 24 23  1  0
 25 24  2  0
 26 27  2  0
 26 25  1  0
 27 28  1  0
 28 29  2  0
 30 32  1  0
 31 30  2  0
M  END
$$$$
