CWF.pdb
     RDKit          3D

 32 34  0  0  1  0  0  0  0  0999 V2000
   29.5931  -24.3886  -17.6633 N   0  0  0  0  0  0  0  0  0  0  0  0
   28.1644  -24.1707  -17.6550 C   0  0  1  0  0  0  0  0  0  0  0  0
   27.4365  -25.4707  -17.3685 C   0  0  0  0  0  0  0  0  0  0  0  0
   27.8800  -26.0108  -15.6958 S   0  0  0  0  0  0  0  0  0  0  0  0
   27.8542  -23.1300  -16.6618 C   0  0  0  0  0  0  0  0  0  0  0  0
   28.7946  -22.6201  -15.9533 O   0  0  0  0  0  0  0  0  0  0  0  0
   26.5705  -22.6162  -16.4059 N   0  0  0  0  0  0  0  0  0  0  0  0
   26.2285  -21.4571  -15.6215 C   0  0  1  0  0  0  0  0  0  0  0  0
   25.0007  -20.8665  -16.1852 C   0  0  0  0  0  0  0  0  0  0  0  0
   24.4862  -19.6978  -15.4472 C   0  0  0  0  0  0  0  0  0  0  0  0
   24.9773  -18.3978  -15.4608 C   0  0  0  0  0  0  0  0  0  0  0  0
   24.2013  -17.6712  -14.6165 N   0  0  0  0  0  0  0  0  0  0  0  0
   23.2421  -18.4472  -14.0696 C   0  0  0  0  0  0  0  0  0  0  0  0
   22.2160  -18.2277  -13.1856 C   0  0  0  0  0  0  0  0  0  0  0  0
   21.3494  -19.2323  -12.7904 C   0  0  0  0  0  0  0  0  0  0  0  0
   21.5050  -20.4961  -13.2874 C   0  0  0  0  0  0  0  0  0  0  0  0
   22.5356  -20.7100  -14.1746 C   0  0  0  0  0  0  0  0  0  0  0  0
   23.4191  -19.7190  -14.5882 C   0  0  0  0  0  0  0  0  0  0  0  0
   26.2225  -21.8200  -14.1928 C   0  0  0  0  0  0  0  0  0  0  0  0
   25.8889  -22.9229  -13.7161 O   0  0  0  0  0  0  0  0  0  0  0  0
   26.6271  -20.8168  -13.2732 N   0  0  0  0  0  0  0  0  0  0  0  0
   26.7252  -21.0624  -11.8269 C   0  0  1  0  0  0  0  0  0  0  0  0
   27.7267  -20.0557  -11.3170 C   0  0  0  0  0  0  0  0  0  0  0  0
   27.7899  -20.1371   -9.8363 C   0  0  0  0  0  0  0  0  0  0  0  0
   28.8028  -20.9201   -9.2840 C   0  0  0  0  0  0  0  0  0  0  0  0
   28.9070  -20.9977   -7.9255 C   0  0  0  0  0  0  0  0  0  0  0  0
   28.0558  -20.3374   -7.0949 C   0  0  0  0  0  0  0  0  0  0  0  0
   27.0371  -19.5497   -7.6538 C   0  0  0  0  0  0  0  0  0  0  0  0
   26.9196  -19.4624   -9.0167 C   0  0  0  0  0  0  0  0  0  0  0  0
   25.4107  -20.8499  -11.2006 C   0  0  0  0  0  0  0  0  0  0  0  0
   24.6969  -19.8340  -11.5296 O   0  0  0  0  0  0  0  0  0  0  0  0
   24.8736  -21.7002  -10.2525 O   0  0  0  0  0  0  0  0  0  0  0  0
  2  3  1  0
  2  1  1  1
  4  3  1  0
  5  2  1  0
  6  5  2  0
  7  5  1  0
  8  7  1  0
  9 10  1  0
  8  9  1  6
 10 18  1  0
 10 11  2  0
 11 12  1  0
 13 12  1  0
 13 14  2  0
 15 14  1  0
 16 15  2  0
 17 16  1  0
 17 18  2  0
 18 13  1  0
 19  8  1  0
 19 21  1  0
 20 19  2  0
 22 21  1  0
 22 30  1  0
 22 23  1  1
 24 29  1  0
 24 23  1  0
 25 24  2  0
 26 27  2  0
 26 25  1  0
 27 28  1  0
 28 29  2  0
 30 32  1  0
 31 30  2  0
M  END
$$$$
