CWF.pdb
     RDKit          3D

 32 34  0  0  1  0  0  0  0  0999 V2000
   26.0422  -22.3659  -16.2379 N   0  0  0  0  0  0  0  0  0  0  0  0
   26.1241  -22.9824  -14.9332 C   0  0  1  0  0  0  0  0  0  0  0  0
   27.2547  -23.9937  -14.9004 C   0  0  0  0  0  0  0  0  0  0  0  0
   26.5888  -25.6034  -15.4023 S   0  0  0  0  0  0  0  0  0  0  0  0
   26.2956  -21.9248  -13.9244 C   0  0  0  0  0  0  0  0  0  0  0  0
   27.1927  -21.0223  -14.0887 O   0  0  0  0  0  0  0  0  0  0  0  0
   25.5352  -21.8013  -12.7480 N   0  0  0  0  0  0  0  0  0  0  0  0
   25.5918  -20.7425  -11.7725 C   0  0  1  0  0  0  0  0  0  0  0  0
   24.2860  -20.0578  -11.7611 C   0  0  0  0  0  0  0  0  0  0  0  0
   23.9840  -19.2902  -12.9837 C   0  0  0  0  0  0  0  0  0  0  0  0
   22.7919  -19.2590  -13.6974 C   0  0  0  0  0  0  0  0  0  0  0  0
   22.9853  -18.4339  -14.7579 N   0  0  0  0  0  0  0  0  0  0  0  0
   24.2414  -17.9403  -14.7503 C   0  0  0  0  0  0  0  0  0  0  0  0
   24.9411  -17.0801  -15.5585 C   0  0  0  0  0  0  0  0  0  0  0  0
   26.2557  -16.7279  -15.3051 C   0  0  0  0  0  0  0  0  0  0  0  0
   26.8981  -17.2455  -14.2152 C   0  0  0  0  0  0  0  0  0  0  0  0
   26.1906  -18.1072  -13.4077 C   0  0  0  0  0  0  0  0  0  0  0  0
   24.8701  -18.4765  -13.6391 C   0  0  0  0  0  0  0  0  0  0  0  0
   26.0953  -21.2819  -10.4965 C   0  0  0  0  0  0  0  0  0  0  0  0
   25.9846  -22.4594  -10.1016 O   0  0  0  0  0  0  0  0  0  0  0  0
   26.7620  -20.3731   -9.6331 N   0  0  0  0  0  0  0  0  0  0  0  0
   27.2193  -20.7507   -8.2877 C   0  0  1  0  0  0  0  0  0  0  0  0
   28.3054  -19.7622   -7.9419 C   0  0  0  0  0  0  0  0  0  0  0  0
   28.6148  -19.8637   -6.4938 C   0  0  0  0  0  0  0  0  0  0  0  0
   27.9690  -18.9701   -5.6402 C   0  0  0  0  0  0  0  0  0  0  0  0
   28.2100  -19.0510   -4.2994 C   0  0  0  0  0  0  0  0  0  0  0  0
   29.0585  -19.9732   -3.7703 C   0  0  0  0  0  0  0  0  0  0  0  0
   29.7071  -20.8717   -4.6322 C   0  0  0  0  0  0  0  0  0  0  0  0
   29.4754  -20.8024   -5.9814 C   0  0  0  0  0  0  0  0  0  0  0  0
   26.0996  -20.6448   -7.3388 C   0  0  0  0  0  0  0  0  0  0  0  0
   25.1397  -19.8218   -7.5642 O   0  0  0  0  0  0  0  0  0  0  0  0
   26.0074  -21.3988   -6.1840 O   0  0  0  0  0  0  0  0  0  0  0  0
  2  3  1  0
  2  1  1  6
  4  3  1  0
  5  2  1  0
  6  5  2  0
  7  5  1  0
  8  7  1  0
  9 10  1  0
  8  9  1  1
 10 18  1  0
 10 11  2  0
 11 12  1  0
 13 12  1  0
 13 14  2  0
 15 14  1  0
 16 15  2  0
 17 16  1  0
 17 18  2  0
 18 13  1  0
 19  8  1  0
 19 21  1  0
 20 19  2  0
 22 21  1  0
 22 30  1  0
 22 23  1  1
 24 29  1  0
 24 23  1  0
 25 24  2  0
 26 27  2  0
 26 25  1  0
 27 28  1  0
 28 29  2  0
 30 32  1  0
 31 30  2  0
M  END
$$$$
