CWF.pdb
     RDKit          3D

 32 34  0  0  1  0  0  0  0  0999 V2000
   28.6114  -22.1625  -15.9586 N   0  0  0  0  0  0  0  0  0  0  0  0
   28.6916  -21.0409  -15.0505 C   0  0  1  0  0  0  0  0  0  0  0  0
   28.3209  -19.7566  -15.7683 C   0  0  0  0  0  0  0  0  0  0  0  0
   26.5770  -19.8618  -16.2519 S   0  0  0  0  0  0  0  0  0  0  0  0
   27.8152  -21.3062  -13.8986 C   0  0  0  0  0  0  0  0  0  0  0  0
   26.8558  -22.1517  -14.0049 O   0  0  0  0  0  0  0  0  0  0  0  0
   27.9354  -20.6979  -12.6365 N   0  0  0  0  0  0  0  0  0  0  0  0
   27.0773  -20.8716  -11.4922 C   0  0  1  0  0  0  0  0  0  0  0  0
   27.7563  -20.2956  -10.3170 C   0  0  0  0  0  0  0  0  0  0  0  0
   26.9676  -20.3344   -9.0714 C   0  0  0  0  0  0  0  0  0  0  0  0
   25.5860  -20.4070   -8.9397 C   0  0  0  0  0  0  0  0  0  0  0  0
   25.3126  -20.3972   -7.6100 N   0  0  0  0  0  0  0  0  0  0  0  0
   26.4536  -20.3228   -6.8930 C   0  0  0  0  0  0  0  0  0  0  0  0
   26.7465  -20.2919   -5.5529 C   0  0  0  0  0  0  0  0  0  0  0  0
   28.0452  -20.2203   -5.0788 C   0  0  0  0  0  0  0  0  0  0  0  0
   29.0878  -20.1777   -5.9617 C   0  0  0  0  0  0  0  0  0  0  0  0
   28.7876  -20.2100   -7.3049 C   0  0  0  0  0  0  0  0  0  0  0  0
   27.4930  -20.2824   -7.8072 C   0  0  0  0  0  0  0  0  0  0  0  0
   25.7271  -20.3767  -11.8160 C   0  0  0  0  0  0  0  0  0  0  0  0
   25.4287  -19.2075  -12.1307 O   0  0  0  0  0  0  0  0  0  0  0  0
   24.6661  -21.3181  -11.7561 N   0  0  0  0  0  0  0  0  0  0  0  0
   23.2894  -20.9848  -12.1501 C   0  0  1  0  0  0  0  0  0  0  0  0
   22.9187  -21.9974  -13.2054 C   0  0  0  0  0  0  0  0  0  0  0  0
   22.4189  -21.2873  -14.4091 C   0  0  0  0  0  0  0  0  0  0  0  0
   22.3457  -19.8965  -14.3437 C   0  0  0  0  0  0  0  0  0  0  0  0
   21.9148  -19.2085  -15.4408 C   0  0  0  0  0  0  0  0  0  0  0  0
   21.5547  -19.8351  -16.5933 C   0  0  0  0  0  0  0  0  0  0  0  0
   21.6297  -21.2355  -16.6562 C   0  0  0  0  0  0  0  0  0  0  0  0
   22.0602  -21.9402  -15.5622 C   0  0  0  0  0  0  0  0  0  0  0  0
   22.4007  -21.1021  -10.9832 C   0  0  0  0  0  0  0  0  0  0  0  0
   22.8160  -21.6769   -9.9122 O   0  0  0  0  0  0  0  0  0  0  0  0
   21.1068  -20.6166  -10.9606 O   0  0  0  0  0  0  0  0  0  0  0  0
  2  3  1  0
  2  1  1  6
  4  3  1  0
  5  2  1  0
  6  5  2  0
  7  5  1  0
  8  7  1  0
  9 10  1  0
  8  9  1  1
 10 18  1  0
 10 11  2  0
 11 12  1  0
 13 12  1  0
 13 14  2  0
 15 14  1  0
 16 15  2  0
 17 16  1  0
 17 18  2  0
 18 13  1  0
 19  8  1  0
 19 21  1  0
 20 19  2  0
 22 21  1  0
 22 30  1  0
 22 23  1  6
 24 29  1  0
 24 23  1  0
 25 24  2  0
 26 27  2  0
 26 25  1  0
 27 28  1  0
 28 29  2  0
 30 32  1  0
 31 30  2  0
M  END
$$$$
