CWF.pdb
     RDKit          3D

 32 34  0  0  1  0  0  0  0  0999 V2000
   29.2960  -26.8469  -16.7445 N   0  0  0  0  0  0  0  0  0  0  0  0
   27.9851  -26.6651  -17.3254 C   0  0  1  0  0  0  0  0  0  0  0  0
   27.1916  -27.9558  -17.2450 C   0  0  0  0  0  0  0  0  0  0  0  0
   25.5616  -27.6649  -17.9831 S   0  0  0  0  0  0  0  0  0  0  0  0
   27.3133  -25.5558  -16.6298 C   0  0  0  0  0  0  0  0  0  0  0  0
   27.3841  -25.4646  -15.3519 O   0  0  0  0  0  0  0  0  0  0  0  0
   26.5716  -24.5403  -17.2590 N   0  0  0  0  0  0  0  0  0  0  0  0
   25.8763  -23.4443  -16.6337 C   0  0  1  0  0  0  0  0  0  0  0  0
   26.0347  -22.2526  -17.4874 C   0  0  0  0  0  0  0  0  0  0  0  0
   25.3494  -21.0450  -16.9901 C   0  0  0  0  0  0  0  0  0  0  0  0
   25.5681  -20.3730  -15.7935 C   0  0  0  0  0  0  0  0  0  0  0  0
   24.6941  -19.3349  -15.7554 N   0  0  0  0  0  0  0  0  0  0  0  0
   23.9332  -19.3160  -16.8698 C   0  0  0  0  0  0  0  0  0  0  0  0
   22.9311  -18.5029  -17.3359 C   0  0  0  0  0  0  0  0  0  0  0  0
   22.3103  -18.7148  -18.5549 C   0  0  0  0  0  0  0  0  0  0  0  0
   22.6949  -19.7673  -19.3377 C   0  0  0  0  0  0  0  0  0  0  0  0
   23.7013  -20.5790  -18.8651 C   0  0  0  0  0  0  0  0  0  0  0  0
   24.3415  -20.3881  -17.6455 C   0  0  0  0  0  0  0  0  0  0  0  0
   24.5061  -23.8673  -16.2928 C   0  0  0  0  0  0  0  0  0  0  0  0
   23.7483  -24.5511  -17.0092 O   0  0  0  0  0  0  0  0  0  0  0  0
   23.9992  -23.4503  -15.0339 N   0  0  0  0  0  0  0  0  0  0  0  0
   22.6434  -23.7877  -14.5757 C   0  0  1  0  0  0  0  0  0  0  0  0
   22.7744  -24.0480  -13.0953 C   0  0  0  0  0  0  0  0  0  0  0  0
   21.4344  -24.3486  -12.5322 C   0  0  0  0  0  0  0  0  0  0  0  0
   21.0415  -25.6861  -12.5020 C   0  0  0  0  0  0  0  0  0  0  0  0
   19.8262  -26.0023  -11.9678 C   0  0  0  0  0  0  0  0  0  0  0  0
   18.9875  -25.0564  -11.4654 C   0  0  0  0  0  0  0  0  0  0  0  0
   19.3860  -23.7106  -11.4970 C   0  0  0  0  0  0  0  0  0  0  0  0
   20.6036  -23.3775  -12.0309 C   0  0  0  0  0  0  0  0  0  0  0  0
   21.7419  -22.6518  -14.8253 C   0  0  0  0  0  0  0  0  0  0  0  0
   22.1649  -21.4484  -14.6749 O   0  0  0  0  0  0  0  0  0  0  0  0
   20.4275  -22.7980  -15.2269 O   0  0  0  0  0  0  0  0  0  0  0  0
  2  3  1  0
  2  1  1  1
  4  3  1  0
  5  2  1  0
  6  5  2  0
  7  5  1  0
  8  7  1  0
  9 10  1  0
  8  9  1  6
 10 18  1  0
 10 11  2  0
 11 12  1  0
 13 12  1  0
 13 14  2  0
 15 14  1  0
 16 15  2  0
 17 16  1  0
 17 18  2  0
 18 13  1  0
 19  8  1  0
 19 21  1  0
 20 19  2  0
 22 21  1  0
 22 30  1  0
 22 23  1  1
 24 29  1  0
 24 23  1  0
 25 24  2  0
 26 27  2  0
 26 25  1  0
 27 28  1  0
 28 29  2  0
 30 32  1  0
 31 30  2  0
M  END
$$$$
