CWF.pdb
     RDKit          3D

 32 34  0  0  1  0  0  0  0  0999 V2000
   27.9189  -21.8355  -14.0543 N   0  0  0  0  0  0  0  0  0  0  0  0
   27.6152  -20.6275  -13.3211 C   0  0  1  0  0  0  0  0  0  0  0  0
   26.9341  -19.6199  -14.2283 C   0  0  0  0  0  0  0  0  0  0  0  0
   28.2172  -18.6128  -15.0194 S   0  0  0  0  0  0  0  0  0  0  0  0
   26.7833  -20.9802  -12.1596 C   0  0  0  0  0  0  0  0  0  0  0  0
   26.0437  -22.0282  -12.1959 O   0  0  0  0  0  0  0  0  0  0  0  0
   26.7208  -20.2488  -10.9602 N   0  0  0  0  0  0  0  0  0  0  0  0
   25.7123  -20.3281   -9.9344 C   0  0  1  0  0  0  0  0  0  0  0  0
   26.2413  -19.6826   -8.7189 C   0  0  0  0  0  0  0  0  0  0  0  0
   27.4554  -20.3126   -8.1674 C   0  0  0  0  0  0  0  0  0  0  0  0
   28.3100  -21.2106   -8.7958 C   0  0  0  0  0  0  0  0  0  0  0  0
   29.2757  -21.5344   -7.8984 N   0  0  0  0  0  0  0  0  0  0  0  0
   29.0752  -20.8848   -6.7325 C   0  0  0  0  0  0  0  0  0  0  0  0
   29.7356  -20.8407   -5.5307 C   0  0  0  0  0  0  0  0  0  0  0  0
   29.3022  -20.0581   -4.4742 C   0  0  0  0  0  0  0  0  0  0  0  0
   28.1772  -19.2943   -4.6132 C   0  0  0  0  0  0  0  0  0  0  0  0
   27.5194  -19.3420   -5.8216 C   0  0  0  0  0  0  0  0  0  0  0  0
   27.9336  -20.1186   -6.8983 C   0  0  0  0  0  0  0  0  0  0  0  0
   24.4311  -19.8351  -10.4714 C   0  0  0  0  0  0  0  0  0  0  0  0
   24.2848  -18.8925  -11.2745 O   0  0  0  0  0  0  0  0  0  0  0  0
   23.2529  -20.4903  -10.0261 N   0  0  0  0  0  0  0  0  0  0  0  0
   22.0448  -20.5974  -10.8572 C   0  0  1  0  0  0  0  0  0  0  0  0
   22.4233  -21.5094  -11.9980 C   0  0  0  0  0  0  0  0  0  0  0  0
   21.2448  -21.7035  -12.8793 C   0  0  0  0  0  0  0  0  0  0  0  0
   21.0022  -20.7257  -13.8432 C   0  0  0  0  0  0  0  0  0  0  0  0
   19.9421  -20.8840  -14.6879 C   0  0  0  0  0  0  0  0  0  0  0  0
   19.1161  -21.9627  -14.6193 C   0  0  0  0  0  0  0  0  0  0  0  0
   19.3630  -22.9456  -13.6479 C   0  0  0  0  0  0  0  0  0  0  0  0
   20.4237  -22.8002  -12.7921 C   0  0  0  0  0  0  0  0  0  0  0  0
   20.9519  -21.1832  -10.0650 C   0  0  0  0  0  0  0  0  0  0  0  0
   19.7487  -20.7593  -10.2148 O   0  0  0  0  0  0  0  0  0  0  0  0
   21.1392  -22.1945   -9.1416 O   0  0  0  0  0  0  0  0  0  0  0  0
  2  3  1  0
  2  1  1  6
  4  3  1  0
  5  2  1  0
  6  5  2  0
  7  5  1  0
  8  7  1  0
  9 10  1  0
  8  9  1  1
 10 18  1  0
 10 11  2  0
 11 12  1  0
 13 12  1  0
 13 14  2  0
 15 14  1  0
 16 15  2  0
 17 16  1  0
 17 18  2  0
 18 13  1  0
 19  8  1  0
 19 21  1  0
 20 19  2  0
 22 21  1  0
 22 30  1  0
 22 23  1  6
 24 29  1  0
 24 23  1  0
 25 24  2  0
 26 27  2  0
 26 25  1  0
 27 28  1  0
 28 29  2  0
 30 32  1  0
 31 30  2  0
M  END
$$$$
