CWF.pdb
     RDKit          3D

 32 34  0  0  1  0  0  0  0  0999 V2000
   27.9571  -22.0429  -15.6778 N   0  0  0  0  0  0  0  0  0  0  0  0
   27.9952  -20.9150  -14.7749 C   0  0  1  0  0  0  0  0  0  0  0  0
   27.4351  -19.6794  -15.4543 C   0  0  0  0  0  0  0  0  0  0  0  0
   28.6163  -19.1458  -16.7217 S   0  0  0  0  0  0  0  0  0  0  0  0
   27.2493  -21.2646  -13.5555 C   0  0  0  0  0  0  0  0  0  0  0  0
   26.1608  -21.9386  -13.6416 O   0  0  0  0  0  0  0  0  0  0  0  0
   27.6334  -20.9186  -12.2478 N   0  0  0  0  0  0  0  0  0  0  0  0
   26.8386  -20.9977  -11.0487 C   0  0  1  0  0  0  0  0  0  0  0  0
   27.7120  -20.7023   -9.8981 C   0  0  0  0  0  0  0  0  0  0  0  0
   27.0104  -20.5975   -8.6051 C   0  0  0  0  0  0  0  0  0  0  0  0
   25.6545  -20.7718   -8.3548 C   0  0  0  0  0  0  0  0  0  0  0  0
   25.4647  -20.5579   -7.0278 N   0  0  0  0  0  0  0  0  0  0  0  0
   26.6343  -20.2575   -6.4250 C   0  0  0  0  0  0  0  0  0  0  0  0
   27.0052  -19.9695   -5.1358 C   0  0  0  0  0  0  0  0  0  0  0  0
   28.3165  -19.6994   -4.7838 C   0  0  0  0  0  0  0  0  0  0  0  0
   29.2923  -19.7148   -5.7409 C   0  0  0  0  0  0  0  0  0  0  0  0
   28.9141  -20.0053   -7.0323 C   0  0  0  0  0  0  0  0  0  0  0  0
   27.6052  -20.2808   -7.4123 C   0  0  0  0  0  0  0  0  0  0  0  0
   25.6227  -20.1812  -11.2152 C   0  0  0  0  0  0  0  0  0  0  0  0
   25.5728  -19.0218  -11.6714 O   0  0  0  0  0  0  0  0  0  0  0  0
   24.3946  -20.7675  -10.8107 N   0  0  0  0  0  0  0  0  0  0  0  0
   23.1279  -20.5146  -11.5130 C   0  0  1  0  0  0  0  0  0  0  0  0
   23.3424  -21.0175  -12.9192 C   0  0  0  0  0  0  0  0  0  0  0  0
   23.1518  -19.8963  -13.8730 C   0  0  0  0  0  0  0  0  0  0  0  0
   23.3949  -20.1581  -15.2207 C   0  0  0  0  0  0  0  0  0  0  0  0
   23.2054  -19.1576  -16.1294 C   0  0  0  0  0  0  0  0  0  0  0  0
   22.7882  -17.9158  -15.7629 C   0  0  0  0  0  0  0  0  0  0  0  0
   22.5440  -17.6553  -14.4052 C   0  0  0  0  0  0  0  0  0  0  0  0
   22.7304  -18.6500  -13.4809 C   0  0  0  0  0  0  0  0  0  0  0  0
   22.0425  -21.2593  -10.8553 C   0  0  0  0  0  0  0  0  0  0  0  0
   22.3162  -22.2434  -10.0765 O   0  0  0  0  0  0  0  0  0  0  0  0
   20.7038  -20.9591  -11.0229 O   0  0  0  0  0  0  0  0  0  0  0  0
  2  3  1  0
  2  1  1  6
  4  3  1  0
  5  2  1  0
  6  5  2  0
  7  5  1  0
  8  7  1  0
  9 10  1  0
  8  9  1  1
 10 18  1  0
 10 11  2  0
 11 12  1  0
 13 12  1  0
 13 14  2  0
 15 14  1  0
 16 15  2  0
 17 16  1  0
 17 18  2  0
 18 13  1  0
 19  8  1  0
 19 21  1  0
 20 19  2  0
 22 21  1  0
 22 30  1  0
 22 23  1  6
 24 29  1  0
 24 23  1  0
 25 24  2  0
 26 27  2  0
 26 25  1  0
 27 28  1  0
 28 29  2  0
 30 32  1  0
 31 30  2  0
M  END
$$$$
