CWF.pdb
     RDKit          3D

 32 34  0  0  1  0  0  0  0  0999 V2000
   31.1119  -28.4764  -18.3714 N   0  0  0  0  0  0  0  0  0  0  0  0
   30.1892  -27.4989  -18.9025 C   0  0  1  0  0  0  0  0  0  0  0  0
   29.7391  -27.9034  -20.2938 C   0  0  0  0  0  0  0  0  0  0  0  0
   31.1704  -27.8066  -21.4021 S   0  0  0  0  0  0  0  0  0  0  0  0
   29.0587  -27.3656  -17.9699 C   0  0  0  0  0  0  0  0  0  0  0  0
   28.7496  -28.3402  -17.1946 O   0  0  0  0  0  0  0  0  0  0  0  0
   28.2516  -26.2217  -17.8390 N   0  0  0  0  0  0  0  0  0  0  0  0
   27.0554  -26.0761  -17.0492 C   0  0  1  0  0  0  0  0  0  0  0  0
   26.7754  -24.6362  -16.9002 C   0  0  0  0  0  0  0  0  0  0  0  0
   25.5292  -24.3243  -16.1756 C   0  0  0  0  0  0  0  0  0  0  0  0
   25.1967  -24.6600  -14.8686 C   0  0  0  0  0  0  0  0  0  0  0  0
   23.9459  -24.1834  -14.6421 N   0  0  0  0  0  0  0  0  0  0  0  0
   23.4703  -23.5615  -15.7413 C   0  0  0  0  0  0  0  0  0  0  0  0
   22.3012  -22.9123  -16.0484 C   0  0  0  0  0  0  0  0  0  0  0  0
   22.0732  -22.3413  -17.2887 C   0  0  0  0  0  0  0  0  0  0  0  0
   23.0355  -22.4163  -18.2567 C   0  0  0  0  0  0  0  0  0  0  0  0
   24.2066  -23.0681  -17.9424 C   0  0  0  0  0  0  0  0  0  0  0  0
   24.4610  -23.6493  -16.7050 C   0  0  0  0  0  0  0  0  0  0  0  0
   25.9924  -26.9274  -17.6133 C   0  0  0  0  0  0  0  0  0  0  0  0
   25.7010  -27.0360  -18.8209 O   0  0  0  0  0  0  0  0  0  0  0  0
   25.2234  -27.6889  -16.6944 N   0  0  0  0  0  0  0  0  0  0  0  0
   24.1719  -28.6220  -17.1251 C   0  0  1  0  0  0  0  0  0  0  0  0
   24.0437  -29.6251  -16.0054 C   0  0  0  0  0  0  0  0  0  0  0  0
   23.0257  -30.6405  -16.3740 C   0  0  0  0  0  0  0  0  0  0  0  0
   23.4192  -31.6459  -17.2563 C   0  0  0  0  0  0  0  0  0  0  0  0
   22.5168  -32.6112  -17.5976 C   0  0  0  0  0  0  0  0  0  0  0  0
   21.2485  -32.6234  -17.1060 C   0  0  0  0  0  0  0  0  0  0  0  0
   20.8553  -31.6099  -16.2177 C   0  0  0  0  0  0  0  0  0  0  0  0
   21.7505  -30.6334  -15.8659 C   0  0  0  0  0  0  0  0  0  0  0  0
   22.9096  -27.8894  -17.3127 C   0  0  0  0  0  0  0  0  0  0  0  0
   22.1634  -28.1408  -18.3275 O   0  0  0  0  0  0  0  0  0  0  0  0
   22.4566  -26.9184  -16.4395 O   0  0  0  0  0  0  0  0  0  0  0  0
  2  3  1  0
  2  1  1  1
  4  3  1  0
  5  2  1  0
  6  5  2  0
  7  5  1  0
  8  7  1  0
  9 10  1  0
  8  9  1  6
 10 18  1  0
 10 11  2  0
 11 12  1  0
 13 12  1  0
 13 14  2  0
 15 14  1  0
 16 15  2  0
 17 16  1  0
 17 18  2  0
 18 13  1  0
 19  8  1  0
 19 21  1  0
 20 19  2  0
 22 21  1  0
 22 30  1  0
 22 23  1  1
 24 29  1  0
 24 23  1  0
 25 24  2  0
 26 27  2  0
 26 25  1  0
 27 28  1  0
 28 29  2  0
 30 32  1  0
 31 30  2  0
M  END
$$$$
