CWF.pdb
     RDKit          3D

 32 34  0  0  1  0  0  0  0  0999 V2000
   28.7858  -20.4144  -18.4630 N   0  0  0  0  0  0  0  0  0  0  0  0
   28.4271  -19.4306  -17.4668 C   0  0  1  0  0  0  0  0  0  0  0  0
   27.7673  -18.2333  -18.1249 C   0  0  0  0  0  0  0  0  0  0  0  0
   29.0720  -17.1216  -18.7152 S   0  0  0  0  0  0  0  0  0  0  0  0
   27.5521  -20.0690  -16.4706 C   0  0  0  0  0  0  0  0  0  0  0  0
   26.6629  -20.9141  -16.8470 O   0  0  0  0  0  0  0  0  0  0  0  0
   27.6013  -19.8339  -15.0852 N   0  0  0  0  0  0  0  0  0  0  0  0
   26.7444  -20.3895  -14.0688 C   0  0  1  0  0  0  0  0  0  0  0  0
   27.4791  -20.3760  -12.7905 C   0  0  0  0  0  0  0  0  0  0  0  0
   26.7439  -20.9600  -11.6531 C   0  0  0  0  0  0  0  0  0  0  0  0
   26.2164  -22.2414  -11.5472 C   0  0  0  0  0  0  0  0  0  0  0  0
   25.6108  -22.3228  -10.3350 N   0  0  0  0  0  0  0  0  0  0  0  0
   25.7297  -21.1559   -9.6675 C   0  0  0  0  0  0  0  0  0  0  0  0
   25.3238  -20.7071   -8.4361 C   0  0  0  0  0  0  0  0  0  0  0  0
   25.5963  -19.4266   -7.9862 C   0  0  0  0  0  0  0  0  0  0  0  0
   26.2937  -18.5622   -8.7830 C   0  0  0  0  0  0  0  0  0  0  0  0
   26.6990  -19.0184  -10.0170 C   0  0  0  0  0  0  0  0  0  0  0  0
   26.4392  -20.2991  -10.4924 C   0  0  0  0  0  0  0  0  0  0  0  0
   25.4340  -19.7161  -14.1147 C   0  0  0  0  0  0  0  0  0  0  0  0
   25.2348  -18.5125  -14.3731 O   0  0  0  0  0  0  0  0  0  0  0  0
   24.2926  -20.5110  -13.8302 N   0  0  0  0  0  0  0  0  0  0  0  0
   22.9216  -19.9877  -13.9197 C   0  0  1  0  0  0  0  0  0  0  0  0
   22.6485  -19.8305  -15.3952 C   0  0  0  0  0  0  0  0  0  0  0  0
   21.2616  -19.3372  -15.5851 C   0  0  0  0  0  0  0  0  0  0  0  0
   21.0845  -17.9581  -15.6888 C   0  0  0  0  0  0  0  0  0  0  0  0
   19.8259  -17.4701  -15.8894 C   0  0  0  0  0  0  0  0  0  0  0  0
   18.7410  -18.2845  -15.9907 C   0  0  0  0  0  0  0  0  0  0  0  0
   18.9224  -19.6726  -15.8861 C   0  0  0  0  0  0  0  0  0  0  0  0
   20.1806  -20.1775  -15.6841 C   0  0  0  0  0  0  0  0  0  0  0  0
   21.9860  -20.9512  -13.3184 C   0  0  0  0  0  0  0  0  0  0  0  0
   22.1627  -22.2122  -13.4875 O   0  0  0  0  0  0  0  0  0  0  0  0
   20.8951  -20.5779  -12.5561 O   0  0  0  0  0  0  0  0  0  0  0  0
  2  3  1  0
  2  1  1  6
  4  3  1  0
  5  2  1  0
  6  5  2  0
  7  5  1  0
  8  7  1  0
  9 10  1  0
  8  9  1  1
 10 18  1  0
 10 11  2  0
 11 12  1  0
 13 12  1  0
 13 14  2  0
 15 14  1  0
 16 15  2  0
 17 16  1  0
 17 18  2  0
 18 13  1  0
 19  8  1  0
 19 21  1  0
 20 19  2  0
 22 21  1  0
 22 30  1  0
 22 23  1  6
 24 29  1  0
 24 23  1  0
 25 24  2  0
 26 27  2  0
 26 25  1  0
 27 28  1  0
 28 29  2  0
 30 32  1  0
 31 30  2  0
M  END
$$$$
