CWF.pdb
     RDKit          3D

 32 34  0  0  1  0  0  0  0  0999 V2000
   27.3818  -19.3497  -19.0416 N   0  0  0  0  0  0  0  0  0  0  0  0
   27.0492  -18.3883  -18.0150 C   0  0  1  0  0  0  0  0  0  0  0  0
   26.2301  -17.2545  -18.6028 C   0  0  0  0  0  0  0  0  0  0  0  0
   26.0522  -17.5486  -20.3828 S   0  0  0  0  0  0  0  0  0  0  0  0
   26.3362  -19.0854  -16.9327 C   0  0  0  0  0  0  0  0  0  0  0  0
   25.9770  -20.3077  -17.0856 O   0  0  0  0  0  0  0  0  0  0  0  0
   25.9989  -18.5165  -15.6917 N   0  0  0  0  0  0  0  0  0  0  0  0
   25.3607  -19.1629  -14.5734 C   0  0  1  0  0  0  0  0  0  0  0  0
   25.9432  -18.6174  -13.3335 C   0  0  0  0  0  0  0  0  0  0  0  0
   26.7010  -19.5940  -12.5292 C   0  0  0  0  0  0  0  0  0  0  0  0
   27.9045  -20.2109  -12.8497 C   0  0  0  0  0  0  0  0  0  0  0  0
   28.2099  -21.0438  -11.8222 N   0  0  0  0  0  0  0  0  0  0  0  0
   27.2593  -20.9841  -10.8661 C   0  0  0  0  0  0  0  0  0  0  0  0
   27.0802  -21.5923   -9.6493 C   0  0  0  0  0  0  0  0  0  0  0  0
   25.9841  -21.3329   -8.8444 C   0  0  0  0  0  0  0  0  0  0  0  0
   25.0342  -20.4418   -9.2592 C   0  0  0  0  0  0  0  0  0  0  0  0
   25.2199  -19.8342  -10.4805 C   0  0  0  0  0  0  0  0  0  0  0  0
   26.3113  -20.0762  -11.3075 C   0  0  0  0  0  0  0  0  0  0  0  0
   23.8977  -19.0864  -14.7362 C   0  0  0  0  0  0  0  0  0  0  0  0
   23.2364  -18.0537  -14.9622 O   0  0  0  0  0  0  0  0  0  0  0  0
   23.1733  -20.3016  -14.6166 N   0  0  0  0  0  0  0  0  0  0  0  0
   21.7192  -20.3792  -14.8197 C   0  0  1  0  0  0  0  0  0  0  0  0
   21.5379  -21.0129  -16.1769 C   0  0  0  0  0  0  0  0  0  0  0  0
   20.0877  -21.1462  -16.4635 C   0  0  0  0  0  0  0  0  0  0  0  0
   19.4964  -22.3805  -16.1970 C   0  0  0  0  0  0  0  0  0  0  0  0
   18.1593  -22.5317  -16.4245 C   0  0  0  0  0  0  0  0  0  0  0  0
   17.3868  -21.5191  -16.9023 C   0  0  0  0  0  0  0  0  0  0  0  0
   17.9849  -20.2774  -17.1695 C   0  0  0  0  0  0  0  0  0  0  0  0
   19.3269  -20.1105  -16.9464 C   0  0  0  0  0  0  0  0  0  0  0  0
   21.1191  -21.2185  -13.7706 C   0  0  0  0  0  0  0  0  0  0  0  0
   21.7873  -22.1907  -13.2625 O   0  0  0  0  0  0  0  0  0  0  0  0
   19.8431  -21.0226  -13.2769 O   0  0  0  0  0  0  0  0  0  0  0  0
  2  3  1  0
  2  1  1  6
  4  3  1  0
  5  2  1  0
  6  5  2  0
  7  5  1  0
  8  7  1  0
  9 10  1  0
  8  9  1  1
 10 18  1  0
 10 11  2  0
 11 12  1  0
 13 12  1  0
 13 14  2  0
 15 14  1  0
 16 15  2  0
 17 16  1  0
 17 18  2  0
 18 13  1  0
 19  8  1  0
 19 21  1  0
 20 19  2  0
 22 21  1  0
 22 30  1  0
 22 23  1  6
 24 29  1  0
 24 23  1  0
 25 24  2  0
 26 27  2  0
 26 25  1  0
 27 28  1  0
 28 29  2  0
 30 32  1  0
 31 30  2  0
M  END
$$$$
