CWF.pdb
     RDKit          3D

 32 34  0  0  1  0  0  0  0  0999 V2000
   28.1740  -21.6322  -14.3248 N   0  0  0  0  0  0  0  0  0  0  0  0
   27.6861  -20.4830  -13.5966 C   0  0  1  0  0  0  0  0  0  0  0  0
   26.9917  -19.5193  -14.5406 C   0  0  0  0  0  0  0  0  0  0  0  0
   25.9611  -20.4846  -15.6775 S   0  0  0  0  0  0  0  0  0  0  0  0
   26.7929  -20.9511  -12.5249 C   0  0  0  0  0  0  0  0  0  0  0  0
   26.1854  -22.0752  -12.6426 O   0  0  0  0  0  0  0  0  0  0  0  0
   26.5325  -20.2559  -11.3307 N   0  0  0  0  0  0  0  0  0  0  0  0
   25.5801  -20.5975  -10.3050 C   0  0  1  0  0  0  0  0  0  0  0  0
   25.9990  -19.9427   -9.0522 C   0  0  0  0  0  0  0  0  0  0  0  0
   27.2475  -20.4704   -8.4707 C   0  0  0  0  0  0  0  0  0  0  0  0
   28.1242  -21.3929   -9.0291 C   0  0  0  0  0  0  0  0  0  0  0  0
   29.1192  -21.5916   -8.1273 N   0  0  0  0  0  0  0  0  0  0  0  0
   28.9161  -20.8395   -7.0253 C   0  0  0  0  0  0  0  0  0  0  0  0
   29.5976  -20.6541   -5.8490 C   0  0  0  0  0  0  0  0  0  0  0  0
   29.1545  -19.7889   -4.8632 C   0  0  0  0  0  0  0  0  0  0  0  0
   27.9978  -19.0847   -5.0492 C   0  0  0  0  0  0  0  0  0  0  0  0
   27.3190  -19.2743   -6.2318 C   0  0  0  0  0  0  0  0  0  0  0  0
   27.7423  -20.1360   -7.2377 C   0  0  0  0  0  0  0  0  0  0  0  0
   24.2167  -20.3294  -10.7972 C   0  0  0  0  0  0  0  0  0  0  0  0
   23.8838  -19.4172  -11.5795 O   0  0  0  0  0  0  0  0  0  0  0  0
   23.1850  -21.1856  -10.3302 N   0  0  0  0  0  0  0  0  0  0  0  0
   21.8351  -21.1889  -10.9129 C   0  0  1  0  0  0  0  0  0  0  0  0
   21.9665  -21.9253  -12.2232 C   0  0  0  0  0  0  0  0  0  0  0  0
   20.6399  -21.9819  -12.8865 C   0  0  0  0  0  0  0  0  0  0  0  0
   19.9055  -23.1584  -12.7431 C   0  0  0  0  0  0  0  0  0  0  0  0
   18.6704  -23.2367  -13.3181 C   0  0  0  0  0  0  0  0  0  0  0  0
   18.1342  -22.2060  -14.0256 C   0  0  0  0  0  0  0  0  0  0  0  0
   18.8758  -21.0226  -14.1681 C   0  0  0  0  0  0  0  0  0  0  0  0
   20.1181  -20.9293  -13.5965 C   0  0  0  0  0  0  0  0  0  0  0  0
   20.9108  -21.8945  -10.0113 C   0  0  0  0  0  0  0  0  0  0  0  0
   21.3374  -22.8574   -9.2760 O   0  0  0  0  0  0  0  0  0  0  0  0
   19.5701  -21.5782   -9.8968 O   0  0  0  0  0  0  0  0  0  0  0  0
  2  3  1  0
  2  1  1  6
  4  3  1  0
  5  2  1  0
  6  5  2  0
  7  5  1  0
  8  7  1  0
  9 10  1  0
  8  9  1  1
 10 18  1  0
 10 11  2  0
 11 12  1  0
 13 12  1  0
 13 14  2  0
 15 14  1  0
 16 15  2  0
 17 16  1  0
 17 18  2  0
 18 13  1  0
 19  8  1  0
 19 21  1  0
 20 19  2  0
 22 21  1  0
 22 30  1  0
 22 23  1  6
 24 29  1  0
 24 23  1  0
 25 24  2  0
 26 27  2  0
 26 25  1  0
 27 28  1  0
 28 29  2  0
 30 32  1  0
 31 30  2  0
M  END
$$$$
