CWF.pdb
     RDKit          3D

 32 34  0  0  1  0  0  0  0  0999 V2000
   28.4527  -22.7262  -16.5188 N   0  0  0  0  0  0  0  0  0  0  0  0
   28.3634  -21.4719  -15.8062 C   0  0  1  0  0  0  0  0  0  0  0  0
   27.7672  -20.4012  -16.7006 C   0  0  0  0  0  0  0  0  0  0  0  0
   29.0239  -19.9110  -17.9116 S   0  0  0  0  0  0  0  0  0  0  0  0
   27.5690  -21.6815  -14.5853 C   0  0  0  0  0  0  0  0  0  0  0  0
   26.5021  -22.3928  -14.6295 O   0  0  0  0  0  0  0  0  0  0  0  0
   27.8825  -21.1565  -13.3190 N   0  0  0  0  0  0  0  0  0  0  0  0
   27.0658  -21.1784  -12.1322 C   0  0  1  0  0  0  0  0  0  0  0  0
   27.9204  -20.8380  -10.9799 C   0  0  0  0  0  0  0  0  0  0  0  0
   27.1909  -20.6216   -9.7165 C   0  0  0  0  0  0  0  0  0  0  0  0
   25.8181  -20.6729   -9.5058 C   0  0  0  0  0  0  0  0  0  0  0  0
   25.6066  -20.3887   -8.1953 N   0  0  0  0  0  0  0  0  0  0  0  0
   26.7782  -20.1607   -7.5655 C   0  0  0  0  0  0  0  0  0  0  0  0
   27.1323  -19.8504   -6.2768 C   0  0  0  0  0  0  0  0  0  0  0  0
   28.4503  -19.6747   -5.8913 C   0  0  0  0  0  0  0  0  0  0  0  0
   29.4501  -19.8107   -6.8134 C   0  0  0  0  0  0  0  0  0  0  0  0
   29.0886  -20.1229   -8.1046 C   0  0  0  0  0  0  0  0  0  0  0  0
   27.7734  -20.3053   -8.5176 C   0  0  0  0  0  0  0  0  0  0  0  0
   25.8586  -20.3628  -12.3562 C   0  0  0  0  0  0  0  0  0  0  0  0
   25.8183  -19.1200  -12.4501 O   0  0  0  0  0  0  0  0  0  0  0  0
   24.6254  -21.0573  -12.4677 N   0  0  0  0  0  0  0  0  0  0  0  0
   23.3376  -20.3639  -12.6177 C   0  0  1  0  0  0  0  0  0  0  0  0
   22.8658  -20.6930  -14.0126 C   0  0  0  0  0  0  0  0  0  0  0  0
   23.4971  -19.7559  -14.9751 C   0  0  0  0  0  0  0  0  0  0  0  0
   23.0648  -18.4305  -14.9506 C   0  0  0  0  0  0  0  0  0  0  0  0
   23.6411  -17.5352  -15.8042 C   0  0  0  0  0  0  0  0  0  0  0  0
   24.6213  -17.8938  -16.6766 C   0  0  0  0  0  0  0  0  0  0  0  0
   25.0547  -19.2289  -16.6987 C   0  0  0  0  0  0  0  0  0  0  0  0
   24.4849  -20.1397  -15.8476 C   0  0  0  0  0  0  0  0  0  0  0  0
   22.3861  -20.8691  -11.6153 C   0  0  0  0  0  0  0  0  0  0  0  0
   22.6036  -21.9907  -11.0284 O   0  0  0  0  0  0  0  0  0  0  0  0
   21.2373  -20.1935  -11.2487 O   0  0  0  0  0  0  0  0  0  0  0  0
  2  3  1  0
  2  1  1  6
  4  3  1  0
  5  2  1  0
  6  5  2  0
  7  5  1  0
  8  7  1  0
  9 10  1  0
  8  9  1  1
 10 18  1  0
 10 11  2  0
 11 12  1  0
 13 12  1  0
 13 14  2  0
 15 14  1  0
 16 15  2  0
 17 16  1  0
 17 18  2  0
 18 13  1  0
 19  8  1  0
 19 21  1  0
 20 19  2  0
 22 21  1  0
 22 30  1  0
 22 23  1  6
 24 29  1  0
 24 23  1  0
 25 24  2  0
 26 27  2  0
 26 25  1  0
 27 28  1  0
 28 29  2  0
 30 32  1  0
 31 30  2  0
M  END
$$$$
