GTR.pdb
     RDKit          3D

 23 22  0  0  1  0  0  0  0  0999 V2000
    9.2767  -15.1513   14.4861 N   0  0  0  0  0  0  0  0  0  0  0  0
    8.5052  -15.4673   15.6592 C   0  0  0  0  0  0  0  0  0  0  0  0
    9.1702  -14.9259   16.8715 C   0  0  0  0  0  0  0  0  0  0  0  0
   10.3084  -14.3536   16.7914 O   0  0  0  0  0  0  0  0  0  0  0  0
    7.2963  -12.6896   19.3942 C   0  0  0  0  0  0  0  0  0  0  0  0
    7.9863  -13.7737   20.1450 C   0  0  1  0  0  0  0  0  0  0  0  0
    7.0363  -14.7467   20.4913 O   0  0  0  0  0  0  0  0  0  0  0  0
    9.0526  -14.4734   19.3373 C   0  0  2  0  0  0  0  0  0  0  0  0
    8.5170  -15.0555   18.1274 N   0  0  0  0  0  0  0  0  0  0  0  0
    9.7611  -15.5099   20.0986 C   0  0  0  0  0  0  0  0  0  0  0  0
    9.4866  -16.7267   19.9916 O   0  0  0  0  0  0  0  0  0  0  0  0
   16.5845  -13.2579   19.6706 N   0  0  0  0  0  0  0  0  0  0  0  0
   16.6129  -14.5753   19.1465 C   0  0  0  0  0  0  0  0  0  0  0  0
   17.1909  -14.8604   18.0297 N   0  0  0  0  0  0  0  0  0  0  0  0
   15.9840  -15.6462   19.8644 N   0  0  0  0  0  0  0  0  0  0  0  0
   15.2010  -15.2757   21.0422 C   0  0  0  0  0  0  0  0  0  0  0  0
   13.8068  -15.8805   20.8496 C   0  0  0  0  0  0  0  0  0  0  0  0
   12.9236  -15.5800   22.0290 C   0  0  0  0  0  0  0  0  0  0  0  0
   11.5069  -16.0693   21.8182 C   0  0  2  0  0  0  0  0  0  0  0  0
   10.7922  -15.1297   20.9873 N   0  0  0  0  0  0  0  0  0  0  0  0
   10.7759  -16.2054   23.0979 C   0  0  0  0  0  0  0  0  0  0  0  0
   10.9741  -17.2912   23.9340 O   0  0  0  0  0  0  0  0  0  0  0  0
    9.9518  -15.2999   23.4248 O   0  0  0  0  0  0  0  0  0  0  0  0
  2  1  1  0
  3  9  1  0
  3  2  1  0
  4  3  2  0
  6  5  1  6
  7  6  1  0
  8  6  1  0
  8 10  1  0
  8  9  1  6
 10 11  2  0
 13 12  1  0
 13 14  2  0
 15 13  1  0
 16 15  1  0
 17 16  1  0
 18 17  1  0
 19 18  1  1
 19 21  1  0
 20 10  1  0
 20 19  1  0
 21 22  1  0
 23 21  2  0
M  END
$$$$
