GTR.pdb
     RDKit          3D

 23 22  0  0  1  0  0  0  0  0999 V2000
   10.7553  -18.1363   17.0326 N   0  0  0  0  0  0  0  0  0  0  0  0
    9.5128  -17.4278   17.1920 C   0  0  0  0  0  0  0  0  0  0  0  0
    9.6113  -16.4677   18.3205 C   0  0  0  0  0  0  0  0  0  0  0  0
   10.5876  -16.5224   19.1411 O   0  0  0  0  0  0  0  0  0  0  0  0
    7.6974  -12.3715   20.4106 C   0  0  0  0  0  0  0  0  0  0  0  0
    7.6001  -13.4373   19.3764 C   0  0  1  0  0  0  0  0  0  0  0  0
    7.9075  -12.8733   18.1288 O   0  0  0  0  0  0  0  0  0  0  0  0
    8.5733  -14.5706   19.5943 C   0  0  2  0  0  0  0  0  0  0  0  0
    8.5974  -15.4831   18.4734 N   0  0  0  0  0  0  0  0  0  0  0  0
    8.3080  -15.3256   20.8253 C   0  0  0  0  0  0  0  0  0  0  0  0
    7.4611  -16.2461   20.8786 O   0  0  0  0  0  0  0  0  0  0  0  0
    9.9436  -15.8161   28.6221 N   0  0  0  0  0  0  0  0  0  0  0  0
   11.0486  -16.6678   28.3682 C   0  0  0  0  0  0  0  0  0  0  0  0
   11.9973  -16.8396   29.2245 N   0  0  0  0  0  0  0  0  0  0  0  0
   11.1380  -17.3743   27.1231 N   0  0  0  0  0  0  0  0  0  0  0  0
   11.3300  -16.5642   25.9212 C   0  0  0  0  0  0  0  0  0  0  0  0
    9.9391  -16.0966   25.4812 C   0  0  0  0  0  0  0  0  0  0  0  0
   10.0112  -15.3492   24.1783 C   0  0  0  0  0  0  0  0  0  0  0  0
    8.8994  -15.7475   23.2317 C   0  0  2  0  0  0  0  0  0  0  0  0
    9.0302  -15.0088   21.9982 N   0  0  0  0  0  0  0  0  0  0  0  0
    7.5635  -15.4637   23.8019 C   0  0  0  0  0  0  0  0  0  0  0  0
    6.8785  -16.4077   24.5484 O   0  0  0  0  0  0  0  0  0  0  0  0
    7.0449  -14.3261   23.5950 O   0  0  0  0  0  0  0  0  0  0  0  0
  2  1  1  0
  3  9  1  0
  3  2  1  0
  4  3  2  0
  6  5  1  1
  7  6  1  0
  8  6  1  0
  8 10  1  0
  8  9  1  6
 10 11  2  0
 13 12  1  0
 13 14  2  0
 15 13  1  0
 16 15  1  0
 17 16  1  0
 18 17  1  0
 19 18  1  1
 19 21  1  0
 20 10  1  0
 20 19  1  0
 21 22  1  0
 23 21  2  0
M  END
$$$$
