GTR.pdb
     RDKit          3D

 23 22  0  0  1  0  0  0  0  0999 V2000
    8.2454  -12.3647   17.3964 N   0  0  0  0  0  0  0  0  0  0  0  0
    8.7667  -13.6206   17.8679 C   0  0  0  0  0  0  0  0  0  0  0  0
    8.4286  -13.8103   19.3013 C   0  0  0  0  0  0  0  0  0  0  0  0
    8.0344  -12.8280   20.0149 O   0  0  0  0  0  0  0  0  0  0  0  0
    5.9647  -16.4422   20.2763 C   0  0  0  0  0  0  0  0  0  0  0  0
    7.1338  -16.6122   21.1815 C   0  0  1  0  0  0  0  0  0  0  0  0
    7.8880  -17.7062   20.7305 O   0  0  0  0  0  0  0  0  0  0  0  0
    8.0589  -15.4193   21.1917 C   0  0  2  0  0  0  0  0  0  0  0  0
    8.5512  -15.1079   19.8687 N   0  0  0  0  0  0  0  0  0  0  0  0
    9.1977  -15.5845   22.1036 C   0  0  0  0  0  0  0  0  0  0  0  0
   10.3700  -15.7392   21.6920 O   0  0  0  0  0  0  0  0  0  0  0  0
    9.4059  -16.8120   30.5732 N   0  0  0  0  0  0  0  0  0  0  0  0
   10.6471  -16.1314   30.4882 C   0  0  0  0  0  0  0  0  0  0  0  0
   11.4722  -16.0767   31.4776 N   0  0  0  0  0  0  0  0  0  0  0  0
   11.0216  -15.4727   29.2702 N   0  0  0  0  0  0  0  0  0  0  0  0
    9.9538  -15.2264   28.3023 C   0  0  0  0  0  0  0  0  0  0  0  0
   10.5184  -15.5893   26.9253 C   0  0  0  0  0  0  0  0  0  0  0  0
    9.4859  -15.3856   25.8510 C   0  0  0  0  0  0  0  0  0  0  0  0
   10.0310  -15.6914   24.4726 C   0  0  2  0  0  0  0  0  0  0  0  0
    8.9723  -15.5697   23.4987 N   0  0  0  0  0  0  0  0  0  0  0  0
   10.5806  -17.0631   24.3903 C   0  0  0  0  0  0  0  0  0  0  0  0
   11.9001  -17.3358   24.7098 O   0  0  0  0  0  0  0  0  0  0  0  0
    9.8152  -18.0017   24.0173 O   0  0  0  0  0  0  0  0  0  0  0  0
  2  1  1  0
  3  9  1  0
  3  2  1  0
  4  3  2  0
  6  5  1  6
  7  6  1  0
  8  6  1  0
  8 10  1  0
  8  9  1  6
 10 11  2  0
 13 12  1  0
 13 14  2  0
 15 13  1  0
 16 15  1  0
 17 16  1  0
 18 17  1  0
 19 18  1  1
 19 21  1  0
 20 10  1  0
 20 19  1  0
 21 22  1  0
 23 21  2  0
M  END
$$$$
