GTR.pdb
     RDKit          3D

 23 22  0  0  1  0  0  0  0  0999 V2000
    4.7642  -19.6947   23.1636 N   0  0  0  0  0  0  0  0  0  0  0  0
    5.2436  -19.0539   24.3598 C   0  0  0  0  0  0  0  0  0  0  0  0
    5.9198  -17.7760   24.0210 C   0  0  0  0  0  0  0  0  0  0  0  0
    5.9169  -17.3330   22.8238 O   0  0  0  0  0  0  0  0  0  0  0  0
    8.0528  -13.6304   25.6583 C   0  0  0  0  0  0  0  0  0  0  0  0
    7.3969  -14.9314   25.9625 C   0  0  1  0  0  0  0  0  0  0  0  0
    6.0611  -14.6828   26.3127 O   0  0  0  0  0  0  0  0  0  0  0  0
    7.3706  -15.8759   24.7851 C   0  0  2  0  0  0  0  0  0  0  0  0
    6.5727  -17.0508   25.0547 N   0  0  0  0  0  0  0  0  0  0  0  0
    8.7109  -16.2917   24.3534 C   0  0  0  0  0  0  0  0  0  0  0  0
    9.4176  -17.0789   25.0231 O   0  0  0  0  0  0  0  0  0  0  0  0
    8.7588  -15.0598   17.1384 N   0  0  0  0  0  0  0  0  0  0  0  0
    8.1810  -13.9672   17.8338 C   0  0  0  0  0  0  0  0  0  0  0  0
    7.8654  -12.8646   17.2444 N   0  0  0  0  0  0  0  0  0  0  0  0
    7.9285  -14.0667   19.2423 N   0  0  0  0  0  0  0  0  0  0  0  0
    9.0934  -14.0051   20.1237 C   0  0  0  0  0  0  0  0  0  0  0  0
    9.4747  -15.4530   20.4476 C   0  0  0  0  0  0  0  0  0  0  0  0
   10.7330  -15.5058   21.2694 C   0  0  0  0  0  0  0  0  0  0  0  0
   10.5128  -16.1847   22.6041 C   0  0  2  0  0  0  0  0  0  0  0  0
    9.2310  -15.7903   23.1386 N   0  0  0  0  0  0  0  0  0  0  0  0
   11.5570  -15.8179   23.5867 C   0  0  0  0  0  0  0  0  0  0  0  0
   12.8821  -16.1761   23.4040 O   0  0  0  0  0  0  0  0  0  0  0  0
   11.2176  -15.1605   24.6155 O   0  0  0  0  0  0  0  0  0  0  0  0
  2  1  1  0
  3  9  1  0
  3  2  1  0
  4  3  2  0
  6  5  1  6
  7  6  1  0
  8  6  1  0
  8 10  1  0
  8  9  1  1
 10 11  2  0
 13 12  1  0
 13 14  2  0
 15 13  1  0
 16 15  1  0
 17 16  1  0
 18 17  1  0
 19 18  1  6
 19 21  1  0
 20 10  1  0
 20 19  1  0
 21 22  1  0
 23 21  2  0
M  END
$$$$
