GTR.pdb
     RDKit          3D

 23 22  0  0  1  0  0  0  0  0999 V2000
    3.8409  -17.8454   19.6271 N   0  0  0  0  0  0  0  0  0  0  0  0
    4.2023  -16.4759   19.8822 C   0  0  0  0  0  0  0  0  0  0  0  0
    5.6297  -16.3883   20.2820 C   0  0  0  0  0  0  0  0  0  0  0  0
    6.2941  -17.4407   20.5660 O   0  0  0  0  0  0  0  0  0  0  0  0
    8.0556  -13.5151   18.8355 C   0  0  0  0  0  0  0  0  0  0  0  0
    8.2294  -13.6726   20.3052 C   0  0  1  0  0  0  0  0  0  0  0  0
    7.6081  -12.5883   20.9434 O   0  0  0  0  0  0  0  0  0  0  0  0
    7.5882  -14.9256   20.8509 C   0  0  2  0  0  0  0  0  0  0  0  0
    6.2470  -15.1093   20.3438 N   0  0  0  0  0  0  0  0  0  0  0  0
    7.5582  -14.9620   22.3184 C   0  0  0  0  0  0  0  0  0  0  0  0
    6.5280  -14.6895   22.9755 O   0  0  0  0  0  0  0  0  0  0  0  0
    8.5799  -21.2956   26.7870 N   0  0  0  0  0  0  0  0  0  0  0  0
    8.0339  -20.5243   27.8443 C   0  0  0  0  0  0  0  0  0  0  0  0
    7.9951  -20.9517   29.0603 N   0  0  0  0  0  0  0  0  0  0  0  0
    7.4996  -19.2199   27.5784 N   0  0  0  0  0  0  0  0  0  0  0  0
    7.3752  -18.8358   26.1732 C   0  0  0  0  0  0  0  0  0  0  0  0
    8.0513  -17.4685   26.0313 C   0  0  0  0  0  0  0  0  0  0  0  0
    8.0164  -16.9979   24.6034 C   0  0  0  0  0  0  0  0  0  0  0  0
    8.7338  -15.6777   24.4217 C   0  0  2  0  0  0  0  0  0  0  0  0
    8.7304  -15.3167   23.0239 N   0  0  0  0  0  0  0  0  0  0  0  0
   10.1399  -15.7484   24.8783 C   0  0  0  0  0  0  0  0  0  0  0  0
   10.4785  -15.5838   26.2108 O   0  0  0  0  0  0  0  0  0  0  0  0
   11.0462  -15.9653   24.0195 O   0  0  0  0  0  0  0  0  0  0  0  0
  2  1  1  0
  3  9  1  0
  3  2  1  0
  4  3  2  0
  6  5  1  6
  7  6  1  0
  8  6  1  0
  8 10  1  0
  8  9  1  6
 10 11  2  0
 13 12  1  0
 13 14  2  0
 15 13  1  0
 16 15  1  0
 17 16  1  0
 18 17  1  0
 19 18  1  6
 19 21  1  0
 20 10  1  0
 20 19  1  0
 21 22  1  0
 23 21  2  0
M  END
$$$$
