GTR.pdb
     RDKit          3D

 23 22  0  0  1  0  0  0  0  0999 V2000
   13.2910  -18.9579   17.5692 N   0  0  0  0  0  0  0  0  0  0  0  0
   13.3921  -19.4469   18.9190 C   0  0  0  0  0  0  0  0  0  0  0  0
   12.1940  -19.0475   19.7001 C   0  0  0  0  0  0  0  0  0  0  0  0
   11.2860  -18.3190   19.1763 O   0  0  0  0  0  0  0  0  0  0  0  0
   10.4942  -21.7415   22.1473 C   0  0  0  0  0  0  0  0  0  0  0  0
   10.6335  -20.4108   22.7989 C   0  0  1  0  0  0  0  0  0  0  0  0
   11.7502  -20.4479   23.6478 O   0  0  0  0  0  0  0  0  0  0  0  0
   10.8688  -19.2878   21.8179 C   0  0  2  0  0  0  0  0  0  0  0  0
   12.0737  -19.4907   21.0454 N   0  0  0  0  0  0  0  0  0  0  0  0
   10.9235  -17.9681   22.4591 C   0  0  0  0  0  0  0  0  0  0  0  0
   11.9996  -17.4458   22.8288 O   0  0  0  0  0  0  0  0  0  0  0  0
    7.8977  -14.8384   18.7018 N   0  0  0  0  0  0  0  0  0  0  0  0
    7.9023  -13.4262   18.8306 C   0  0  0  0  0  0  0  0  0  0  0  0
    8.1925  -12.6454   17.8464 N   0  0  0  0  0  0  0  0  0  0  0  0
    7.5762  -12.8200   20.0891 N   0  0  0  0  0  0  0  0  0  0  0  0
    7.2661  -13.7268   21.1934 C   0  0  0  0  0  0  0  0  0  0  0  0
    8.5951  -14.3444   21.6395 C   0  0  0  0  0  0  0  0  0  0  0  0
    8.3974  -15.2413   22.8303 C   0  0  0  0  0  0  0  0  0  0  0  0
    9.6806  -15.9291   23.2439 C   0  0  2  0  0  0  0  0  0  0  0  0
    9.7227  -17.2536   22.6710 N   0  0  0  0  0  0  0  0  0  0  0  0
    9.7868  -16.0570   24.7145 C   0  0  0  0  0  0  0  0  0  0  0  0
   10.4318  -15.1007   25.4806 O   0  0  0  0  0  0  0  0  0  0  0  0
    9.2711  -17.0704   25.2739 O   0  0  0  0  0  0  0  0  0  0  0  0
  2  1  1  0
  3  9  1  0
  3  2  1  0
  4  3  2  0
  6  5  1  6
  7  6  1  0
  8  6  1  0
  8 10  1  0
  8  9  1  1
 10 11  2  0
 13 12  1  0
 13 14  2  0
 15 13  1  0
 16 15  1  0
 17 16  1  0
 18 17  1  0
 19 18  1  1
 19 21  1  0
 20 10  1  0
 20 19  1  0
 21 22  1  0
 23 21  2  0
M  END
$$$$
