GTR.pdb
     RDKit          3D

 23 22  0  0  1  0  0  0  0  0999 V2000
    7.3379  -17.8040   16.6805 N   0  0  0  0  0  0  0  0  0  0  0  0
    6.8112  -16.6184   17.3034 C   0  0  0  0  0  0  0  0  0  0  0  0
    7.5509  -16.3262   18.5574 C   0  0  0  0  0  0  0  0  0  0  0  0
    8.4130  -17.1495   19.0139 O   0  0  0  0  0  0  0  0  0  0  0  0
    9.0124  -12.7968   19.0396 C   0  0  0  0  0  0  0  0  0  0  0  0
    8.3845  -13.2095   20.3243 C   0  0  1  0  0  0  0  0  0  0  0  0
    7.1692  -12.5222   20.4644 O   0  0  0  0  0  0  0  0  0  0  0  0
    8.0616  -14.6830   20.3844 C   0  0  2  0  0  0  0  0  0  0  0  0
    7.2829  -15.1108   19.2441 N   0  0  0  0  0  0  0  0  0  0  0  0
    7.3630  -15.0672   21.6172 C   0  0  0  0  0  0  0  0  0  0  0  0
    6.1225  -14.9588   21.7472 O   0  0  0  0  0  0  0  0  0  0  0  0
    9.1539  -21.1198   27.5456 N   0  0  0  0  0  0  0  0  0  0  0  0
    7.7867  -20.8281   27.7840 C   0  0  0  0  0  0  0  0  0  0  0  0
    7.1005  -21.4357   28.6910 N   0  0  0  0  0  0  0  0  0  0  0  0
    7.1206  -19.8265   27.0027 N   0  0  0  0  0  0  0  0  0  0  0  0
    7.7863  -19.4047   25.7711 C   0  0  0  0  0  0  0  0  0  0  0  0
    7.3850  -17.9454   25.5339 C   0  0  0  0  0  0  0  0  0  0  0  0
    7.9567  -17.4350   24.2399 C   0  0  0  0  0  0  0  0  0  0  0  0
    7.5081  -16.0213   23.9382 C   0  0  2  0  0  0  0  0  0  0  0  0
    8.1097  -15.5793   22.7025 N   0  0  0  0  0  0  0  0  0  0  0  0
    7.9030  -15.0787   25.0087 C   0  0  0  0  0  0  0  0  0  0  0  0
    7.0796  -14.8273   26.0932 O   0  0  0  0  0  0  0  0  0  0  0  0
    9.0238  -14.4941   24.9190 O   0  0  0  0  0  0  0  0  0  0  0  0
  2  1  1  0
  3  9  1  0
  3  2  1  0
  4  3  2  0
  6  5  1  6
  7  6  1  0
  8  6  1  0
  8 10  1  0
  8  9  1  6
 10 11  2  0
 13 12  1  0
 13 14  2  0
 15 13  1  0
 16 15  1  0
 17 16  1  0
 18 17  1  0
 19 18  1  1
 19 21  1  0
 20 10  1  0
 20 19  1  0
 21 22  1  0
 23 21  2  0
M  END
$$$$
