GTR.pdb
     RDKit          3D

 23 22  0  0  1  0  0  0  0  0999 V2000
    7.8073  -12.8380   17.1460 N   0  0  0  0  0  0  0  0  0  0  0  0
    8.9198  -13.5189   17.7543 C   0  0  0  0  0  0  0  0  0  0  0  0
    8.4488  -14.3690   18.8770 C   0  0  0  0  0  0  0  0  0  0  0  0
    7.2715  -14.2315   19.3509 O   0  0  0  0  0  0  0  0  0  0  0  0
    7.8165  -17.7866   18.8629 C   0  0  0  0  0  0  0  0  0  0  0  0
    8.7775  -17.6567   19.9919 C   0  0  1  0  0  0  0  0  0  0  0  0
   10.0413  -18.0752   19.5483 O   0  0  0  0  0  0  0  0  0  0  0  0
    8.9351  -16.2372   20.4810 C   0  0  2  0  0  0  0  0  0  0  0  0
    9.3328  -15.3420   19.4179 N   0  0  0  0  0  0  0  0  0  0  0  0
    9.8849  -16.1162   21.5941 C   0  0  0  0  0  0  0  0  0  0  0  0
   11.1092  -15.9266   21.4139 O   0  0  0  0  0  0  0  0  0  0  0  0
    5.0454  -13.3515   26.8494 N   0  0  0  0  0  0  0  0  0  0  0  0
    5.9182  -12.3587   26.3360 C   0  0  0  0  0  0  0  0  0  0  0  0
    5.6166  -11.1050   26.3440 N   0  0  0  0  0  0  0  0  0  0  0  0
    7.1868  -12.7360   25.7829 N   0  0  0  0  0  0  0  0  0  0  0  0
    7.5331  -14.1552   25.8436 C   0  0  0  0  0  0  0  0  0  0  0  0
    8.9501  -14.2850   25.2761 C   0  0  0  0  0  0  0  0  0  0  0  0
    9.4024  -15.7192   25.2842 C   0  0  0  0  0  0  0  0  0  0  0  0
   10.2552  -16.0537   24.0794 C   0  0  2  0  0  0  0  0  0  0  0  0
    9.4090  -16.2159   22.9211 N   0  0  0  0  0  0  0  0  0  0  0  0
   11.0170  -17.3073   24.2757 C   0  0  0  0  0  0  0  0  0  0  0  0
   10.5990  -18.5042   23.7188 O   0  0  0  0  0  0  0  0  0  0  0  0
   12.0751  -17.2713   24.9721 O   0  0  0  0  0  0  0  0  0  0  0  0
  2  1  1  0
  3  9  1  0
  3  2  1  0
  4  3  2  0
  6  5  1  6
  7  6  1  0
  8  6  1  0
  8 10  1  0
  8  9  1  6
 10 11  2  0
 13 12  1  0
 13 14  2  0
 15 13  1  0
 16 15  1  0
 17 16  1  0
 18 17  1  0
 19 18  1  1
 19 21  1  0
 20 10  1  0
 20 19  1  0
 21 22  1  0
 23 21  2  0
M  END
$$$$
