GTR.pdb
     RDKit          3D

 23 22  0  0  1  0  0  0  0  0999 V2000
    3.5564  -18.0515   19.8881 N   0  0  0  0  0  0  0  0  0  0  0  0
    3.8999  -16.7448   20.3838 C   0  0  0  0  0  0  0  0  0  0  0  0
    5.3728  -16.6218   20.5272 C   0  0  0  0  0  0  0  0  0  0  0  0
    6.1255  -17.6490   20.4395 O   0  0  0  0  0  0  0  0  0  0  0  0
    7.2719  -13.7186   18.7958 C   0  0  0  0  0  0  0  0  0  0  0  0
    7.7891  -13.8485   20.1853 C   0  0  1  0  0  0  0  0  0  0  0  0
    7.2745  -12.7906   20.9503 O   0  0  0  0  0  0  0  0  0  0  0  0
    7.3602  -15.1266   20.8645 C   0  0  2  0  0  0  0  0  0  0  0  0
    5.9335  -15.3373   20.7647 N   0  0  0  0  0  0  0  0  0  0  0  0
    7.7592  -15.1878   22.2762 C   0  0  0  0  0  0  0  0  0  0  0  0
    7.0268  -14.7651   23.1994 O   0  0  0  0  0  0  0  0  0  0  0  0
    6.7821  -20.1601   27.5802 N   0  0  0  0  0  0  0  0  0  0  0  0
    8.0854  -19.9597   28.1019 C   0  0  0  0  0  0  0  0  0  0  0  0
    8.3224  -19.9231   29.3689 N   0  0  0  0  0  0  0  0  0  0  0  0
    9.1961  -19.7890   27.2104 N   0  0  0  0  0  0  0  0  0  0  0  0
    8.8781  -19.4657   25.8204 C   0  0  0  0  0  0  0  0  0  0  0  0
    9.2543  -17.9949   25.6156 C   0  0  0  0  0  0  0  0  0  0  0  0
    8.9797  -17.5624   24.2017 C   0  0  0  0  0  0  0  0  0  0  0  0
    9.3744  -16.1212   23.9608 C   0  0  2  0  0  0  0  0  0  0  0  0
    9.0142  -15.7424   22.6151 N   0  0  0  0  0  0  0  0  0  0  0  0
   10.8306  -15.9149   24.1259 C   0  0  0  0  0  0  0  0  0  0  0  0
   11.4232  -15.8990   25.3773 O   0  0  0  0  0  0  0  0  0  0  0  0
   11.5411  -15.7499   23.0896 O   0  0  0  0  0  0  0  0  0  0  0  0
  2  1  1  0
  3  9  1  0
  3  2  1  0
  4  3  2  0
  6  5  1  6
  7  6  1  0
  8  6  1  0
  8 10  1  0
  8  9  1  1
 10 11  2  0
 13 12  1  0
 13 14  2  0
 15 13  1  0
 16 15  1  0
 17 16  1  0
 18 17  1  0
 19 18  1  6
 19 21  1  0
 20 10  1  0
 20 19  1  0
 21 22  1  0
 23 21  2  0
M  END
$$$$
