GTR.pdb
     RDKit          3D

 23 22  0  0  1  0  0  0  0  0999 V2000
    7.9155  -21.1805   17.6286 N   0  0  0  0  0  0  0  0  0  0  0  0
    7.9840  -21.7311   18.9564 C   0  0  0  0  0  0  0  0  0  0  0  0
    7.2203  -20.8806   19.9042 C   0  0  0  0  0  0  0  0  0  0  0  0
    6.9971  -19.6510   19.6440 O   0  0  0  0  0  0  0  0  0  0  0  0
    4.0198  -22.3289   21.9672 C   0  0  0  0  0  0  0  0  0  0  0  0
    5.0023  -21.6164   22.8286 C   0  0  1  0  0  0  0  0  0  0  0  0
    5.8039  -22.5726   23.4706 O   0  0  0  0  0  0  0  0  0  0  0  0
    5.9336  -20.7165   22.0529 C   0  0  2  0  0  0  0  0  0  0  0  0
    6.7397  -21.4593   21.1104 N   0  0  0  0  0  0  0  0  0  0  0  0
    6.8134  -19.9198   22.9172 C   0  0  0  0  0  0  0  0  0  0  0  0
    7.9650  -20.2966   23.2322 O   0  0  0  0  0  0  0  0  0  0  0  0
    5.4956  -11.7725   26.3847 N   0  0  0  0  0  0  0  0  0  0  0  0
    6.6881  -12.2501   26.9854 C   0  0  0  0  0  0  0  0  0  0  0  0
    7.4138  -11.5143   27.7565 N   0  0  0  0  0  0  0  0  0  0  0  0
    7.1241  -13.5950   26.7430 N   0  0  0  0  0  0  0  0  0  0  0  0
    6.3382  -14.3780   25.7907 C   0  0  0  0  0  0  0  0  0  0  0  0
    7.0807  -15.7036   25.5952 C   0  0  0  0  0  0  0  0  0  0  0  0
    6.3474  -16.5923   24.6288 C   0  0  0  0  0  0  0  0  0  0  0  0
    7.1177  -17.8589   24.3236 C   0  0  2  0  0  0  0  0  0  0  0  0
    6.3521  -18.6808   23.4167 N   0  0  0  0  0  0  0  0  0  0  0  0
    7.3876  -18.6468   25.5471 C   0  0  0  0  0  0  0  0  0  0  0  0
    6.4313  -19.4851   26.0950 O   0  0  0  0  0  0  0  0  0  0  0  0
    8.5246  -18.5429   26.0968 O   0  0  0  0  0  0  0  0  0  0  0  0
  2  1  1  0
  3  9  1  0
  3  2  1  0
  4  3  2  0
  6  5  1  6
  7  6  1  0
  8  6  1  0
  8 10  1  0
  8  9  1  6
 10 11  2  0
 13 12  1  0
 13 14  2  0
 15 13  1  0
 16 15  1  0
 17 16  1  0
 18 17  1  0
 19 18  1  1
 19 21  1  0
 20 10  1  0
 20 19  1  0
 21 22  1  0
 23 21  2  0
M  END
$$$$
