GTR.pdb
     RDKit          3D

 23 22  0  0  1  0  0  0  0  0999 V2000
    9.5620  -16.1689   14.3286 N   0  0  0  0  0  0  0  0  0  0  0  0
    8.6092  -16.1703   15.4072 C   0  0  0  0  0  0  0  0  0  0  0  0
    9.1070  -15.3388   16.5322 C   0  0  0  0  0  0  0  0  0  0  0  0
   10.3178  -14.9353   16.5601 O   0  0  0  0  0  0  0  0  0  0  0  0
    7.9627  -12.8960   20.7074 C   0  0  0  0  0  0  0  0  0  0  0  0
    7.5165  -13.7254   19.5550 C   0  0  1  0  0  0  0  0  0  0  0  0
    6.8422  -12.8954   18.6466 O   0  0  0  0  0  0  0  0  0  0  0  0
    8.6585  -14.3614   18.8000 C   0  0  2  0  0  0  0  0  0  0  0  0
    8.2109  -14.9979   17.5817 N   0  0  0  0  0  0  0  0  0  0  0  0
    9.4074  -15.3342   19.6053 C   0  0  0  0  0  0  0  0  0  0  0  0
    9.0194  -16.5138   19.7647 O   0  0  0  0  0  0  0  0  0  0  0  0
   17.7838  -15.4179   22.4965 N   0  0  0  0  0  0  0  0  0  0  0  0
   17.1099  -16.3238   23.3545 C   0  0  0  0  0  0  0  0  0  0  0  0
   17.7386  -17.0815   24.1872 N   0  0  0  0  0  0  0  0  0  0  0  0
   15.6793  -16.4198   23.3144 N   0  0  0  0  0  0  0  0  0  0  0  0
   14.9945  -15.6010   22.3153 C   0  0  0  0  0  0  0  0  0  0  0  0
   13.5112  -15.9779   22.3820 C   0  0  0  0  0  0  0  0  0  0  0  0
   12.7060  -15.1640   21.4069 C   0  0  0  0  0  0  0  0  0  0  0  0
   11.3450  -15.7723   21.1454 C   0  0  2  0  0  0  0  0  0  0  0  0
   10.6116  -14.9336   20.2274 N   0  0  0  0  0  0  0  0  0  0  0  0
   10.5524  -15.9019   22.3885 C   0  0  0  0  0  0  0  0  0  0  0  0
    9.6505  -14.9262   22.7782 O   0  0  0  0  0  0  0  0  0  0  0  0
   10.7122  -16.9351   23.1047 O   0  0  0  0  0  0  0  0  0  0  0  0
  2  1  1  0
  3  9  1  0
  3  2  1  0
  4  3  2  0
  6  5  1  1
  7  6  1  0
  8  6  1  0
  8 10  1  0
  8  9  1  6
 10 11  2  0
 13 12  1  0
 13 14  2  0
 15 13  1  0
 16 15  1  0
 17 16  1  0
 18 17  1  0
 19 18  1  1
 19 21  1  0
 20 10  1  0
 20 19  1  0
 21 22  1  0
 23 21  2  0
M  END
$$$$
