GTR.pdb
     RDKit          3D

 23 22  0  0  1  0  0  0  0  0999 V2000
    8.8692  -11.7689   18.6556 N   0  0  0  0  0  0  0  0  0  0  0  0
    9.2215  -13.0965   18.2261 C   0  0  0  0  0  0  0  0  0  0  0  0
    8.6574  -14.1040   19.1599 C   0  0  0  0  0  0  0  0  0  0  0  0
    8.1600  -13.7492   20.2807 O   0  0  0  0  0  0  0  0  0  0  0  0
    7.5324  -18.9137   19.8445 C   0  0  0  0  0  0  0  0  0  0  0  0
    8.0908  -17.8440   18.9735 C   0  0  1  0  0  0  0  0  0  0  0  0
    7.1895  -17.6123   17.9232 O   0  0  0  0  0  0  0  0  0  0  0  0
    8.2745  -16.5274   19.6888 C   0  0  2  0  0  0  0  0  0  0  0  0
    8.6801  -15.4749   18.7846 N   0  0  0  0  0  0  0  0  0  0  0  0
    9.2331  -16.6063   20.7981 C   0  0  0  0  0  0  0  0  0  0  0  0
   10.4595  -16.7787   20.6143 O   0  0  0  0  0  0  0  0  0  0  0  0
    9.2001  -13.2693   28.9633 N   0  0  0  0  0  0  0  0  0  0  0  0
    9.9561  -14.4606   29.1050 C   0  0  0  0  0  0  0  0  0  0  0  0
   10.5350  -14.7820   30.2115 N   0  0  0  0  0  0  0  0  0  0  0  0
   10.0972  -15.3566   27.9937 N   0  0  0  0  0  0  0  0  0  0  0  0
    9.4078  -14.9846   26.7593 C   0  0  0  0  0  0  0  0  0  0  0  0
    9.7745  -16.0448   25.7160 C   0  0  0  0  0  0  0  0  0  0  0  0
    9.0341  -15.8096   24.4284 C   0  0  0  0  0  0  0  0  0  0  0  0
    9.6199  -16.6051   23.2818 C   0  0  2  0  0  0  0  0  0  0  0  0
    8.7638  -16.4842   22.1256 N   0  0  0  0  0  0  0  0  0  0  0  0
    9.7460  -18.0412   23.6166 C   0  0  0  0  0  0  0  0  0  0  0  0
   10.9007  -18.5549   24.1823 O   0  0  0  0  0  0  0  0  0  0  0  0
    8.7669  -18.8085   23.3748 O   0  0  0  0  0  0  0  0  0  0  0  0
  2  1  1  0
  3  9  1  0
  3  2  1  0
  4  3  2  0
  6  5  1  1
  7  6  1  0
  8  6  1  0
  8 10  1  0
  8  9  1  6
 10 11  2  0
 13 12  1  0
 13 14  2  0
 15 13  1  0
 16 15  1  0
 17 16  1  0
 18 17  1  0
 19 18  1  1
 19 21  1  0
 20 10  1  0
 20 19  1  0
 21 22  1  0
 23 21  2  0
M  END
$$$$
