AHC.pdb
     RDKit          3D

 22 22  0  0  1  0  0  0  0  0999 V2000
   22.8602  -12.8423  -17.6665 C   0  0  0  0  0  0  0  0  0  0  0  0
   23.5150  -11.8033  -16.7759 C   0  0  2  0  0  0  0  0  0  0  0  0
   23.8305  -12.4423  -15.5183 N   0  0  0  0  0  0  0  0  0  0  0  0
   22.5943  -10.6472  -16.5896 C   0  0  0  0  0  0  0  0  0  0  0  0
   22.2151  -10.0204  -17.5873 O   0  0  0  0  0  0  0  0  0  0  0  0
   22.1659  -10.2772  -15.3071 N   0  0  0  0  0  0  0  0  0  0  0  0
   21.1929   -9.2346  -15.0453 C   0  0  1  0  0  0  0  0  0  0  0  0
   20.1442   -9.7093  -14.1003 C   0  0  0  0  0  0  0  0  0  0  0  0
   19.0858  -10.4942  -14.7841 C   0  0  0  0  0  0  0  0  0  0  0  0
   19.0206  -10.7412  -16.1584 C   0  0  0  0  0  0  0  0  0  0  0  0
   17.9384  -11.4799  -16.4275 N   0  0  0  0  0  0  0  0  0  0  0  0
   17.3194  -11.7066  -15.2668 C   0  0  0  0  0  0  0  0  0  0  0  0
   18.0052  -11.1161  -14.2750 N   0  0  0  0  0  0  0  0  0  0  0  0
   21.8547   -7.9858  -14.5738 C   0  0  0  0  0  0  0  0  0  0  0  0
   22.6254   -8.0620  -13.5836 O   0  0  0  0  0  0  0  0  0  0  0  0
   21.6589   -6.7176  -15.1855 N   0  0  0  0  0  0  0  0  0  0  0  0
   22.3956   -5.5679  -14.7122 C   0  0  1  0  0  0  0  0  0  0  0  0
   22.6820   -4.5834  -15.8248 C   0  0  0  0  0  0  0  0  0  0  0  0
   23.5380   -5.3201  -17.2127 S   0  0  0  0  0  0  0  0  0  0  0  0
   21.5715   -4.8683  -13.7132 C   0  0  0  0  0  0  0  0  0  0  0  0
   20.3607   -5.1296  -13.6044 O   0  0  0  0  0  0  0  0  0  0  0  0
   22.1423   -3.9198  -12.8948 O   0  0  0  0  0  0  0  0  0  0  0  0
  2  1  1  6
  2  3  1  0
  2  4  1  0
  4  5  2  0
  6  4  1  0
  6  7  1  0
  7 14  1  0
  7  8  1  1
  9 13  1  0
  9  8  1  0
 10  9  2  0
 11 10  1  0
 11 12  1  0
 12 13  2  0
 14 16  1  0
 14 15  2  0
 16 17  1  0
 17 20  1  0
 17 18  1  6
 19 18  1  0
 20 21  2  0
 20 22  1  0
M  END
$$$$
