AHC.pdb
     RDKit          3D

 22 22  0  0  1  0  0  0  0  0999 V2000
   28.0142  -17.6362  -18.3930 C   0  0  0  0  0  0  0  0  0  0  0  0
   28.2820  -18.6492  -17.2959 C   0  0  2  0  0  0  0  0  0  0  0  0
   28.1809  -19.9661  -17.8833 N   0  0  0  0  0  0  0  0  0  0  0  0
   27.3023  -18.4640  -16.1892 C   0  0  0  0  0  0  0  0  0  0  0  0
   27.1920  -17.3449  -15.6719 O   0  0  0  0  0  0  0  0  0  0  0  0
   26.5203  -19.5384  -15.7428 N   0  0  0  0  0  0  0  0  0  0  0  0
   25.6013  -19.4641  -14.6238 C   0  0  1  0  0  0  0  0  0  0  0  0
   24.2881  -20.0748  -14.9711 C   0  0  0  0  0  0  0  0  0  0  0  0
   23.4325  -19.1548  -15.7619 C   0  0  0  0  0  0  0  0  0  0  0  0
   23.7250  -17.8170  -16.0427 C   0  0  0  0  0  0  0  0  0  0  0  0
   22.7387  -17.2899  -16.7767 N   0  0  0  0  0  0  0  0  0  0  0  0
   21.8341  -18.2525  -16.9676 C   0  0  0  0  0  0  0  0  0  0  0  0
   22.2462  -19.3763  -16.3595 N   0  0  0  0  0  0  0  0  0  0  0  0
   26.1965  -20.0642  -13.3968 C   0  0  0  0  0  0  0  0  0  0  0  0
   26.8018  -21.1604  -13.5079 O   0  0  0  0  0  0  0  0  0  0  0  0
   26.1144  -19.4613  -12.1120 N   0  0  0  0  0  0  0  0  0  0  0  0
   26.4576  -20.2254  -10.9343 C   0  0  1  0  0  0  0  0  0  0  0  0
   26.3993  -19.3838   -9.6783 C   0  0  0  0  0  0  0  0  0  0  0  0
   26.6951  -20.3260   -8.1861 S   0  0  0  0  0  0  0  0  0  0  0  0
   25.4713  -21.3070  -10.7798 C   0  0  0  0  0  0  0  0  0  0  0  0
   24.2573  -21.0729  -10.9122 O   0  0  0  0  0  0  0  0  0  0  0  0
   25.8931  -22.5843  -10.4873 O   0  0  0  0  0  0  0  0  0  0  0  0
  2  1  1  6
  2  3  1  0
  2  4  1  0
  4  5  2  0
  6  4  1  0
  6  7  1  0
  7 14  1  0
  7  8  1  6
  9 13  1  0
  9  8  1  0
 10  9  2  0
 11 10  1  0
 11 12  1  0
 12 13  2  0
 14 16  1  0
 14 15  2  0
 16 17  1  0
 17 20  1  0
 17 18  1  1
 19 18  1  0
 20 21  2  0
 20 22  1  0
M  END
$$$$
