AHC.pdb
     RDKit          3D

 22 22  0  0  1  0  0  0  0  0999 V2000
   21.4941  -10.9090  -20.4698 C   0  0  0  0  0  0  0  0  0  0  0  0
   22.5025  -10.1719  -19.6089 C   0  0  2  0  0  0  0  0  0  0  0  0
   23.4092  -11.1546  -19.0598 N   0  0  0  0  0  0  0  0  0  0  0  0
   21.7941   -9.4179  -18.5371 C   0  0  0  0  0  0  0  0  0  0  0  0
   20.9891   -8.5355  -18.8615 O   0  0  0  0  0  0  0  0  0  0  0  0
   22.0359   -9.7038  -17.1861 N   0  0  0  0  0  0  0  0  0  0  0  0
   21.2965   -9.1148  -16.0866 C   0  0  1  0  0  0  0  0  0  0  0  0
   20.8835  -10.1552  -15.1042 C   0  0  0  0  0  0  0  0  0  0  0  0
   19.5982  -10.7989  -15.4750 C   0  0  0  0  0  0  0  0  0  0  0  0
   18.7764  -10.4139  -16.5383 C   0  0  0  0  0  0  0  0  0  0  0  0
   17.7019  -11.2094  -16.5817 N   0  0  0  0  0  0  0  0  0  0  0  0
   17.8201  -12.0836  -15.5800 C   0  0  0  0  0  0  0  0  0  0  0  0
   18.9587  -11.8414  -14.9110 N   0  0  0  0  0  0  0  0  0  0  0  0
   22.0672   -8.0104  -15.4493 C   0  0  0  0  0  0  0  0  0  0  0  0
   23.1995   -8.2771  -14.9726 O   0  0  0  0  0  0  0  0  0  0  0  0
   21.5878   -6.6754  -15.3538 N   0  0  0  0  0  0  0  0  0  0  0  0
   22.4452   -5.6380  -14.8276 C   0  0  1  0  0  0  0  0  0  0  0  0
   22.3370   -4.3570  -15.6257 C   0  0  0  0  0  0  0  0  0  0  0  0
   22.6743   -4.5835  -17.3682 S   0  0  0  0  0  0  0  0  0  0  0  0
   22.0139   -5.3327  -13.4538 C   0  0  0  0  0  0  0  0  0  0  0  0
   20.9564   -5.8105  -13.0072 O   0  0  0  0  0  0  0  0  0  0  0  0
   22.7839   -4.5144  -12.6582 O   0  0  0  0  0  0  0  0  0  0  0  0
  2  1  1  6
  2  3  1  0
  2  4  1  0
  4  5  2  0
  6  4  1  0
  6  7  1  0
  7 14  1  0
  7  8  1  1
  9 13  1  0
  9  8  1  0
 10  9  2  0
 11 10  1  0
 11 12  1  0
 12 13  2  0
 14 16  1  0
 14 15  2  0
 16 17  1  0
 17 20  1  0
 17 18  1  6
 19 18  1  0
 20 21  2  0
 20 22  1  0
M  END
$$$$
