AHC.pdb
     RDKit          3D

 22 22  0  0  1  0  0  0  0  0999 V2000
   30.6509  -20.7562  -20.6187 C   0  0  0  0  0  0  0  0  0  0  0  0
   29.4982  -20.3476  -19.7211 C   0  0  2  0  0  0  0  0  0  0  0  0
   30.0348  -19.5021  -18.6787 N   0  0  0  0  0  0  0  0  0  0  0  0
   28.8414  -21.5615  -19.1608 C   0  0  0  0  0  0  0  0  0  0  0  0
   28.8048  -22.5903  -19.8481 O   0  0  0  0  0  0  0  0  0  0  0  0
   28.2756  -21.5377  -17.8784 N   0  0  0  0  0  0  0  0  0  0  0  0
   27.6227  -22.6738  -17.2577 C   0  0  1  0  0  0  0  0  0  0  0  0
   28.2883  -23.0360  -15.9755 C   0  0  0  0  0  0  0  0  0  0  0  0
   29.5394  -23.8057  -16.1902 C   0  0  0  0  0  0  0  0  0  0  0  0
   30.0644  -24.1680  -17.4340 C   0  0  0  0  0  0  0  0  0  0  0  0
   31.1994  -24.8532  -17.2562 N   0  0  0  0  0  0  0  0  0  0  0  0
   31.4066  -24.9344  -15.9401 C   0  0  0  0  0  0  0  0  0  0  0  0
   30.4114  -24.3061  -15.2941 N   0  0  0  0  0  0  0  0  0  0  0  0
   26.1629  -22.4295  -17.0870 C   0  0  0  0  0  0  0  0  0  0  0  0
   25.8032  -21.3700  -16.5141 O   0  0  0  0  0  0  0  0  0  0  0  0
   25.1607  -23.3312  -17.5381 N   0  0  0  0  0  0  0  0  0  0  0  0
   23.7646  -22.9839  -17.4010 C   0  0  1  0  0  0  0  0  0  0  0  0
   22.9361  -23.5094  -18.5529 C   0  0  0  0  0  0  0  0  0  0  0  0
   23.4252  -22.8346  -20.1363 S   0  0  0  0  0  0  0  0  0  0  0  0
   23.2494  -23.6105  -16.1728 C   0  0  0  0  0  0  0  0  0  0  0  0
   23.9698  -24.3769  -15.5095 O   0  0  0  0  0  0  0  0  0  0  0  0
   21.9642  -23.3480  -15.7551 O   0  0  0  0  0  0  0  0  0  0  0  0
  2  1  1  6
  2  3  1  0
  2  4  1  0
  4  5  2  0
  6  4  1  0
  6  7  1  0
  7 14  1  0
  7  8  1  1
  9 13  1  0
  9  8  1  0
 10  9  2  0
 11 10  1  0
 11 12  1  0
 12 13  2  0
 14 16  1  0
 14 15  2  0
 16 17  1  0
 17 20  1  0
 17 18  1  6
 19 18  1  0
 20 21  2  0
 20 22  1  0
M  END
$$$$
