AHC.pdb
     RDKit          3D

 22 22  0  0  1  0  0  0  0  0999 V2000
   37.8099  -27.4302  -20.7589 C   0  0  0  0  0  0  0  0  0  0  0  0
   36.7980  -27.6886  -19.6585 C   0  0  2  0  0  0  0  0  0  0  0  0
   36.2365  -26.4135  -19.2734 N   0  0  0  0  0  0  0  0  0  0  0  0
   37.4639  -28.3654  -18.5108 C   0  0  0  0  0  0  0  0  0  0  0  0
   37.9263  -27.6713  -17.5962 O   0  0  0  0  0  0  0  0  0  0  0  0
   37.5643  -29.7631  -18.4686 N   0  0  0  0  0  0  0  0  0  0  0  0
   38.2147  -30.4986  -17.4017 C   0  0  1  0  0  0  0  0  0  0  0  0
   37.6909  -31.8903  -17.3176 C   0  0  0  0  0  0  0  0  0  0  0  0
   36.3896  -31.9585  -16.6063 C   0  0  0  0  0  0  0  0  0  0  0  0
   35.8702  -30.9656  -15.7706 C   0  0  0  0  0  0  0  0  0  0  0  0
   34.6812  -31.3571  -15.2992 N   0  0  0  0  0  0  0  0  0  0  0  0
   34.4345  -32.5649  -15.8110 C   0  0  0  0  0  0  0  0  0  0  0  0
   35.4587  -32.9315  -16.5980 N   0  0  0  0  0  0  0  0  0  0  0  0
   39.6971  -30.4608  -17.5469 C   0  0  0  0  0  0  0  0  0  0  0  0
   40.1781  -30.4593  -18.7084 O   0  0  0  0  0  0  0  0  0  0  0  0
   40.5908  -30.4264  -16.4420 N   0  0  0  0  0  0  0  0  0  0  0  0
   42.0110  -30.2836  -16.6683 C   0  0  1  0  0  0  0  0  0  0  0  0
   42.7453  -29.8758  -15.4097 C   0  0  0  0  0  0  0  0  0  0  0  0
   44.5020  -29.6487  -15.6627 S   0  0  0  0  0  0  0  0  0  0  0  0
   42.5483  -31.5901  -17.0817 C   0  0  0  0  0  0  0  0  0  0  0  0
   43.3946  -31.6617  -17.9899 O   0  0  0  0  0  0  0  0  0  0  0  0
   42.1129  -32.7392  -16.4610 O   0  0  0  0  0  0  0  0  0  0  0  0
  2  1  1  6
  2  3  1  0
  2  4  1  0
  4  5  2  0
  6  4  1  0
  6  7  1  0
  7 14  1  0
  7  8  1  6
  9 13  1  0
  9  8  1  0
 10  9  2  0
 11 10  1  0
 11 12  1  0
 12 13  2  0
 14 16  1  0
 14 15  2  0
 16 17  1  0
 17 20  1  0
 17 18  1  1
 19 18  1  0
 20 21  2  0
 20 22  1  0
M  END
$$$$
