AHC.pdb
     RDKit          3D

 22 22  0  0  1  0  0  0  0  0999 V2000
   23.3541  -24.6958  -14.1824 C   0  0  0  0  0  0  0  0  0  0  0  0
   24.2615  -23.8867  -15.0896 C   0  0  2  0  0  0  0  0  0  0  0  0
   25.6165  -24.3385  -14.8677 N   0  0  0  0  0  0  0  0  0  0  0  0
   24.1097  -22.4355  -14.7895 C   0  0  0  0  0  0  0  0  0  0  0  0
   22.9893  -21.9196  -14.8925 O   0  0  0  0  0  0  0  0  0  0  0  0
   25.2164  -21.6695  -14.3976 N   0  0  0  0  0  0  0  0  0  0  0  0
   25.1760  -20.2366  -14.1795 C   0  0  1  0  0  0  0  0  0  0  0  0
   26.0380  -19.8481  -13.0289 C   0  0  0  0  0  0  0  0  0  0  0  0
   25.4589  -20.2655  -11.7273 C   0  0  0  0  0  0  0  0  0  0  0  0
   24.2141  -20.8773  -11.5533 C   0  0  0  0  0  0  0  0  0  0  0  0
   24.0124  -21.1152  -10.2526 N   0  0  0  0  0  0  0  0  0  0  0  0
   25.0902  -20.6730   -9.6010 C   0  0  0  0  0  0  0  0  0  0  0  0
   25.9635  -20.1610  -10.4830 N   0  0  0  0  0  0  0  0  0  0  0  0
   25.5238  -19.4924  -15.4226 C   0  0  0  0  0  0  0  0  0  0  0  0
   26.5955  -19.7882  -16.0092 O   0  0  0  0  0  0  0  0  0  0  0  0
   24.7073  -18.4686  -15.9758 N   0  0  0  0  0  0  0  0  0  0  0  0
   24.8577  -18.0988  -17.3648 C   0  0  1  0  0  0  0  0  0  0  0  0
   24.5603  -19.2564  -18.2927 C   0  0  0  0  0  0  0  0  0  0  0  0
   24.5222  -18.7828  -20.0179 S   0  0  0  0  0  0  0  0  0  0  0  0
   23.8862  -17.0359  -17.6695 C   0  0  0  0  0  0  0  0  0  0  0  0
   24.2389  -16.0263  -18.3039 O   0  0  0  0  0  0  0  0  0  0  0  0
   22.5805  -17.1585  -17.2509 O   0  0  0  0  0  0  0  0  0  0  0  0
  2  1  1  1
  2  3  1  0
  2  4  1  0
  4  5  2  0
  6  4  1  0
  6  7  1  0
  7 14  1  0
  7  8  1  1
  9 13  1  0
  9  8  1  0
 10  9  2  0
 11 10  1  0
 11 12  1  0
 12 13  2  0
 14 16  1  0
 14 15  2  0
 16 17  1  0
 17 20  1  0
 17 18  1  6
 19 18  1  0
 20 21  2  0
 20 22  1  0
M  END
$$$$
