AHC.pdb
     RDKit          3D

 22 22  0  0  1  0  0  0  0  0999 V2000
   14.8390  -10.6727  -13.8313 C   0  0  0  0  0  0  0  0  0  0  0  0
   16.3231  -10.4205  -14.0187 C   0  0  2  0  0  0  0  0  0  0  0  0
   17.0348  -11.4944  -13.3633 N   0  0  0  0  0  0  0  0  0  0  0  0
   16.6844   -9.0927  -13.4482 C   0  0  0  0  0  0  0  0  0  0  0  0
   16.1506   -8.0782  -13.9151 O   0  0  0  0  0  0  0  0  0  0  0  0
   17.6121   -8.9955  -12.4018 N   0  0  0  0  0  0  0  0  0  0  0  0
   18.0486   -7.7424  -11.8174 C   0  0  1  0  0  0  0  0  0  0  0  0
   17.9687   -7.7909  -10.3310 C   0  0  0  0  0  0  0  0  0  0  0  0
   16.5933   -7.5357   -9.8341 C   0  0  0  0  0  0  0  0  0  0  0  0
   15.5035   -7.1584  -10.6240 C   0  0  0  0  0  0  0  0  0  0  0  0
   14.4214   -7.0143   -9.8509 N   0  0  0  0  0  0  0  0  0  0  0  0
   14.7942   -7.2887   -8.5990 C   0  0  0  0  0  0  0  0  0  0  0  0
   16.0995   -7.6029   -8.5829 N   0  0  0  0  0  0  0  0  0  0  0  0
   19.4085   -7.3684  -12.2980 C   0  0  0  0  0  0  0  0  0  0  0  0
   20.3323   -8.2121  -12.1755 O   0  0  0  0  0  0  0  0  0  0  0  0
   19.7119   -6.1101  -12.8859 N   0  0  0  0  0  0  0  0  0  0  0  0
   21.0277   -5.8690  -13.4328 C   0  0  1  0  0  0  0  0  0  0  0  0
   21.1158   -6.2686  -14.8895 C   0  0  0  0  0  0  0  0  0  0  0  0
   22.6459   -5.7619  -15.6665 S   0  0  0  0  0  0  0  0  0  0  0  0
   21.3025   -4.4248  -13.3602 C   0  0  0  0  0  0  0  0  0  0  0  0
   20.3666   -3.6064  -13.3760 O   0  0  0  0  0  0  0  0  0  0  0  0
   22.6013   -3.9764  -13.2743 O   0  0  0  0  0  0  0  0  0  0  0  0
  2  1  1  1
  2  3  1  0
  2  4  1  0
  4  5  2  0
  6  4  1  0
  6  7  1  0
  7 14  1  0
  7  8  1  1
  9 13  1  0
  9  8  1  0
 10  9  2  0
 11 10  1  0
 11 12  1  0
 12 13  2  0
 14 16  1  0
 14 15  2  0
 16 17  1  0
 17 20  1  0
 17 18  1  6
 19 18  1  0
 20 21  2  0
 20 22  1  0
M  END
$$$$
