AHC.pdb
     RDKit          3D

 22 22  0  0  1  0  0  0  0  0999 V2000
   28.7450  -18.3832  -18.7408 C   0  0  0  0  0  0  0  0  0  0  0  0
   28.3219  -19.4774  -17.7790 C   0  0  2  0  0  0  0  0  0  0  0  0
   27.2384  -20.2075  -18.3973 N   0  0  0  0  0  0  0  0  0  0  0  0
   27.9086  -18.8748  -16.4809 C   0  0  0  0  0  0  0  0  0  0  0  0
   28.7344  -18.2091  -15.8430 O   0  0  0  0  0  0  0  0  0  0  0  0
   26.6077  -19.0592  -15.9920 N   0  0  0  0  0  0  0  0  0  0  0  0
   26.1350  -18.5371  -14.7246 C   0  0  1  0  0  0  0  0  0  0  0  0
   24.9843  -17.6130  -14.9247 C   0  0  0  0  0  0  0  0  0  0  0  0
   25.4066  -16.3023  -15.4793 C   0  0  0  0  0  0  0  0  0  0  0  0
   25.0292  -15.7897  -16.7239 C   0  0  0  0  0  0  0  0  0  0  0  0
   25.5910  -14.5887  -16.9001 N   0  0  0  0  0  0  0  0  0  0  0  0
   26.3106  -14.3278  -15.8066 C   0  0  0  0  0  0  0  0  0  0  0  0
   26.2033  -15.3550  -14.9487 N   0  0  0  0  0  0  0  0  0  0  0  0
   25.8161  -19.6386  -13.7733 C   0  0  0  0  0  0  0  0  0  0  0  0
   25.2931  -20.6850  -14.2334 O   0  0  0  0  0  0  0  0  0  0  0  0
   26.0729  -19.5653  -12.3770 N   0  0  0  0  0  0  0  0  0  0  0  0
   25.6940  -20.6626  -11.5163 C   0  0  1  0  0  0  0  0  0  0  0  0
   26.2042  -20.4750  -10.1042 C   0  0  0  0  0  0  0  0  0  0  0  0
   25.4895  -21.6296   -8.9390 S   0  0  0  0  0  0  0  0  0  0  0  0
   24.2245  -20.7103  -11.4454 C   0  0  0  0  0  0  0  0  0  0  0  0
   23.5595  -19.6608  -11.4960 O   0  0  0  0  0  0  0  0  0  0  0  0
   23.5819  -21.9215  -11.3226 O   0  0  0  0  0  0  0  0  0  0  0  0
  2  1  1  6
  2  3  1  0
  2  4  1  0
  4  5  2  0
  6  4  1  0
  6  7  1  0
  7 14  1  0
  7  8  1  6
  9 13  1  0
  9  8  1  0
 10  9  2  0
 11 10  1  0
 11 12  1  0
 12 13  2  0
 14 16  1  0
 14 15  2  0
 16 17  1  0
 17 20  1  0
 17 18  1  1
 19 18  1  0
 20 21  2  0
 20 22  1  0
M  END
$$$$
