AHC.pdb
     RDKit          3D

 22 22  0  0  1  0  0  0  0  0999 V2000
   28.0386  -11.3719  -19.5180 C   0  0  0  0  0  0  0  0  0  0  0  0
   28.5756  -10.7953  -18.2217 C   0  0  2  0  0  0  0  0  0  0  0  0
   27.5127  -10.0292  -17.6110 N   0  0  0  0  0  0  0  0  0  0  0  0
   29.7703   -9.9511  -18.5026 C   0  0  0  0  0  0  0  0  0  0  0  0
   30.7641  -10.4779  -19.0193 O   0  0  0  0  0  0  0  0  0  0  0  0
   29.7678   -8.5853  -18.1869 N   0  0  0  0  0  0  0  0  0  0  0  0
   30.8955   -7.6999  -18.4027 C   0  0  1  0  0  0  0  0  0  0  0  0
   30.4768   -6.4720  -19.1342 C   0  0  0  0  0  0  0  0  0  0  0  0
   30.4053   -6.6893  -20.6010 C   0  0  0  0  0  0  0  0  0  0  0  0
   30.7692   -7.8645  -21.2647 C   0  0  0  0  0  0  0  0  0  0  0  0
   30.5768   -7.7116  -22.5795 N   0  0  0  0  0  0  0  0  0  0  0  0
   30.1033   -6.4777  -22.7660 C   0  0  0  0  0  0  0  0  0  0  0  0
   29.9981   -5.8582  -21.5795 N   0  0  0  0  0  0  0  0  0  0  0  0
   31.5869   -7.3856  -17.1208 C   0  0  0  0  0  0  0  0  0  0  0  0
   30.8803   -7.1920  -16.0993 O   0  0  0  0  0  0  0  0  0  0  0  0
   33.0001   -7.2941  -16.9960 N   0  0  0  0  0  0  0  0  0  0  0  0
   33.5931   -7.0178  -15.7074 C   0  0  1  0  0  0  0  0  0  0  0  0
   34.9124   -7.7364  -15.5271 C   0  0  0  0  0  0  0  0  0  0  0  0
   34.7222   -9.4881  -15.2155 S   0  0  0  0  0  0  0  0  0  0  0  0
   33.8686   -5.5743  -15.6238 C   0  0  0  0  0  0  0  0  0  0  0  0
   33.7738   -4.8577  -16.6355 O   0  0  0  0  0  0  0  0  0  0  0  0
   34.2332   -5.0134  -14.4206 O   0  0  0  0  0  0  0  0  0  0  0  0
  2  1  1  6
  2  3  1  0
  2  4  1  0
  4  5  2  0
  6  4  1  0
  6  7  1  0
  7 14  1  0
  7  8  1  1
  9 13  1  0
  9  8  1  0
 10  9  2  0
 11 10  1  0
 11 12  1  0
 12 13  2  0
 14 16  1  0
 14 15  2  0
 16 17  1  0
 17 20  1  0
 17 18  1  6
 19 18  1  0
 20 21  2  0
 20 22  1  0
M  END
$$$$
