AHC.pdb
     RDKit          3D

 22 22  0  0  1  0  0  0  0  0999 V2000
   17.7649  -11.9998  -16.7163 C   0  0  0  0  0  0  0  0  0  0  0  0
   19.1123  -11.3109  -16.8228 C   0  0  2  0  0  0  0  0  0  0  0  0
   20.0974  -12.1831  -16.2243 N   0  0  0  0  0  0  0  0  0  0  0  0
   19.0582   -9.9898  -16.1367 C   0  0  0  0  0  0  0  0  0  0  0  0
   18.2506   -9.1421  -16.5385 O   0  0  0  0  0  0  0  0  0  0  0  0
   19.9069   -9.7131  -15.0558 N   0  0  0  0  0  0  0  0  0  0  0  0
   19.8938   -8.4694  -14.3107 C   0  0  1  0  0  0  0  0  0  0  0  0
   19.8749   -8.7270  -12.8439 C   0  0  0  0  0  0  0  0  0  0  0  0
   18.5004   -8.9548  -12.3314 C   0  0  0  0  0  0  0  0  0  0  0  0
   17.3380   -8.9673  -13.1078 C   0  0  0  0  0  0  0  0  0  0  0  0
   16.2804   -9.2010  -12.3229 N   0  0  0  0  0  0  0  0  0  0  0  0
   16.7389   -9.3363  -11.0767 C   0  0  0  0  0  0  0  0  0  0  0  0
   18.0734   -9.1892  -11.0759 N   0  0  0  0  0  0  0  0  0  0  0  0
   21.0243   -7.5871  -14.7148 C   0  0  0  0  0  0  0  0  0  0  0  0
   22.1785   -8.0839  -14.7527 O   0  0  0  0  0  0  0  0  0  0  0  0
   20.8634   -6.2170  -15.0583 N   0  0  0  0  0  0  0  0  0  0  0  0
   21.9763   -5.4764  -15.6074 C   0  0  1  0  0  0  0  0  0  0  0  0
   21.5673   -4.6481  -16.8057 C   0  0  0  0  0  0  0  0  0  0  0  0
   20.8260   -5.6200  -18.1125 S   0  0  0  0  0  0  0  0  0  0  0  0
   22.4646   -4.5431  -14.5793 C   0  0  0  0  0  0  0  0  0  0  0  0
   21.8143   -4.3639  -13.5347 O   0  0  0  0  0  0  0  0  0  0  0  0
   23.6466   -3.8647  -14.7735 O   0  0  0  0  0  0  0  0  0  0  0  0
  2  1  1  1
  2  3  1  0
  2  4  1  0
  4  5  2  0
  6  4  1  0
  6  7  1  0
  7 14  1  0
  7  8  1  1
  9 13  1  0
  9  8  1  0
 10  9  2  0
 11 10  1  0
 11 12  1  0
 12 13  2  0
 14 16  1  0
 14 15  2  0
 16 17  1  0
 17 20  1  0
 17 18  1  6
 19 18  1  0
 20 21  2  0
 20 22  1  0
M  END
$$$$
