AHC.pdb
     RDKit          3D

 22 22  0  0  1  0  0  0  0  0999 V2000
   24.5874  -13.5817  -19.7279 C   0  0  0  0  0  0  0  0  0  0  0  0
   23.4113  -12.6236  -19.7341 C   0  0  2  0  0  0  0  0  0  0  0  0
   23.3619  -12.0010  -21.0377 N   0  0  0  0  0  0  0  0  0  0  0  0
   23.5767  -11.6160  -18.6494 C   0  0  0  0  0  0  0  0  0  0  0  0
   23.5435  -11.9968  -17.4721 O   0  0  0  0  0  0  0  0  0  0  0  0
   23.7665  -10.2618  -18.9580 N   0  0  0  0  0  0  0  0  0  0  0  0
   23.9075   -9.2148  -17.9649 C   0  0  1  0  0  0  0  0  0  0  0  0
   24.9759   -8.2525  -18.3530 C   0  0  0  0  0  0  0  0  0  0  0  0
   26.3339   -8.7668  -18.0444 C   0  0  0  0  0  0  0  0  0  0  0  0
   26.6151   -9.9638  -17.3793 C   0  0  0  0  0  0  0  0  0  0  0  0
   27.9400  -10.1136  -17.2726 N   0  0  0  0  0  0  0  0  0  0  0  0
   28.5030   -9.0495  -17.8490 C   0  0  0  0  0  0  0  0  0  0  0  0
   27.5417   -8.2362  -18.3150 N   0  0  0  0  0  0  0  0  0  0  0  0
   22.6052   -8.5387  -17.7060 C   0  0  0  0  0  0  0  0  0  0  0  0
   21.8458   -8.3226  -18.6841 O   0  0  0  0  0  0  0  0  0  0  0  0
   22.1806   -8.1275  -16.4131 N   0  0  0  0  0  0  0  0  0  0  0  0
   20.8971   -7.4845  -16.2470 C   0  0  1  0  0  0  0  0  0  0  0  0
   19.8269   -8.4630  -15.8150 C   0  0  0  0  0  0  0  0  0  0  0  0
   18.3397   -7.6629  -15.2236 S   0  0  0  0  0  0  0  0  0  0  0  0
   21.0186   -6.4746  -15.1831 C   0  0  0  0  0  0  0  0  0  0  0  0
   21.9894   -6.4951  -14.4064 O   0  0  0  0  0  0  0  0  0  0  0  0
   20.0538   -5.5023  -15.0458 O   0  0  0  0  0  0  0  0  0  0  0  0
  2  1  1  6
  2  3  1  0
  2  4  1  0
  4  5  2  0
  6  4  1  0
  6  7  1  0
  7 14  1  0
  7  8  1  6
  9 13  1  0
  9  8  1  0
 10  9  2  0
 11 10  1  0
 11 12  1  0
 12 13  2  0
 14 16  1  0
 14 15  2  0
 16 17  1  0
 17 20  1  0
 17 18  1  1
 19 18  1  0
 20 21  2  0
 20 22  1  0
M  END
$$$$
