AHC.pdb
     RDKit          3D

 22 22  0  0  1  0  0  0  0  0999 V2000
   26.3534  -30.6535  -17.4027 C   0  0  0  0  0  0  0  0  0  0  0  0
   25.7562  -29.3649  -16.8694 C   0  0  2  0  0  0  0  0  0  0  0  0
   24.3534  -29.3566  -17.2179 N   0  0  0  0  0  0  0  0  0  0  0  0
   26.4746  -28.1976  -17.4527 C   0  0  0  0  0  0  0  0  0  0  0  0
   26.0787  -27.7309  -18.5286 O   0  0  0  0  0  0  0  0  0  0  0  0
   27.5788  -27.6389  -16.7939 N   0  0  0  0  0  0  0  0  0  0  0  0
   28.3923  -26.5687  -17.3372 C   0  0  1  0  0  0  0  0  0  0  0  0
   28.6339  -25.5118  -16.3161 C   0  0  0  0  0  0  0  0  0  0  0  0
   27.5526  -24.4949  -16.2938 C   0  0  0  0  0  0  0  0  0  0  0  0
   26.5351  -24.3734  -17.2447 C   0  0  0  0  0  0  0  0  0  0  0  0
   25.7362  -23.3527  -16.9143 N   0  0  0  0  0  0  0  0  0  0  0  0
   26.2174  -22.8269  -15.7858 C   0  0  0  0  0  0  0  0  0  0  0  0
   27.3098  -23.5100  -15.4081 N   0  0  0  0  0  0  0  0  0  0  0  0
   29.6603  -27.0960  -17.9153 C   0  0  0  0  0  0  0  0  0  0  0  0
   30.2223  -28.0570  -17.3314 O   0  0  0  0  0  0  0  0  0  0  0  0
   30.2637  -26.5685  -19.0895 N   0  0  0  0  0  0  0  0  0  0  0  0
   31.3983  -27.2407  -19.6806 C   0  0  1  0  0  0  0  0  0  0  0  0
   31.0938  -28.6880  -20.0002 C   0  0  0  0  0  0  0  0  0  0  0  0
   32.5639  -29.6851  -20.2150 S   0  0  0  0  0  0  0  0  0  0  0  0
   31.7221  -26.5730  -20.9518 C   0  0  0  0  0  0  0  0  0  0  0  0
   32.8173  -26.7742  -21.5051 O   0  0  0  0  0  0  0  0  0  0  0  0
   30.8092  -25.7215  -21.5321 O   0  0  0  0  0  0  0  0  0  0  0  0
  2  1  1  6
  2  3  1  0
  2  4  1  0
  4  5  2  0
  6  4  1  0
  6  7  1  0
  7 14  1  0
  7  8  1  1
  9 13  1  0
  9  8  1  0
 10  9  2  0
 11 10  1  0
 11 12  1  0
 12 13  2  0
 14 16  1  0
 14 15  2  0
 16 17  1  0
 17 20  1  0
 17 18  1  6
 19 18  1  0
 20 21  2  0
 20 22  1  0
M  END
$$$$
