AHC.pdb
     RDKit          3D

 22 22  0  0  1  0  0  0  0  0999 V2000
   13.9365  -11.1904  -15.9633 C   0  0  0  0  0  0  0  0  0  0  0  0
   15.1867  -12.0205  -16.1851 C   0  0  2  0  0  0  0  0  0  0  0  0
   15.0045  -13.2775  -15.4950 N   0  0  0  0  0  0  0  0  0  0  0  0
   16.3776  -11.2828  -15.6788 C   0  0  0  0  0  0  0  0  0  0  0  0
   17.1245  -11.8429  -14.8660 O   0  0  0  0  0  0  0  0  0  0  0  0
   16.6463   -9.9782  -16.1158 N   0  0  0  0  0  0  0  0  0  0  0  0
   17.8627   -9.2525  -15.8061 C   0  0  1  0  0  0  0  0  0  0  0  0
   19.0588   -9.9691  -16.3294 C   0  0  0  0  0  0  0  0  0  0  0  0
   20.3270   -9.2991  -15.9464 C   0  0  0  0  0  0  0  0  0  0  0  0
   20.4287   -8.1350  -15.1791 C   0  0  0  0  0  0  0  0  0  0  0  0
   21.7179   -7.8126  -15.0274 N   0  0  0  0  0  0  0  0  0  0  0  0
   22.4322   -8.7360  -15.6744 C   0  0  0  0  0  0  0  0  0  0  0  0
   21.6008   -9.6325  -16.2291 N   0  0  0  0  0  0  0  0  0  0  0  0
   17.7896   -7.8458  -16.2919 C   0  0  0  0  0  0  0  0  0  0  0  0
   17.2358   -7.6303  -17.3997 O   0  0  0  0  0  0  0  0  0  0  0  0
   18.3129   -6.7399  -15.5680 N   0  0  0  0  0  0  0  0  0  0  0  0
   18.1003   -5.3954  -16.0536 C   0  0  1  0  0  0  0  0  0  0  0  0
   16.6342   -5.0211  -16.0561 C   0  0  0  0  0  0  0  0  0  0  0  0
   16.3565   -3.2673  -16.2765 S   0  0  0  0  0  0  0  0  0  0  0  0
   18.7866   -4.4610  -15.1468 C   0  0  0  0  0  0  0  0  0  0  0  0
   18.7473   -4.6374  -13.9166 O   0  0  0  0  0  0  0  0  0  0  0  0
   19.4757   -3.3861  -15.6615 O   0  0  0  0  0  0  0  0  0  0  0  0
  2  1  1  1
  2  3  1  0
  2  4  1  0
  4  5  2  0
  6  4  1  0
  6  7  1  0
  7 14  1  0
  7  8  1  6
  9 13  1  0
  9  8  1  0
 10  9  2  0
 11 10  1  0
 11 12  1  0
 12 13  2  0
 14 16  1  0
 14 15  2  0
 16 17  1  0
 17 20  1  0
 17 18  1  1
 19 18  1  0
 20 21  2  0
 20 22  1  0
M  END
$$$$
