KTN.pdb
     RDKit          3D

 25 24  0  0  1  0  0  0  0  0999 V2000
   23.5866  -21.6708  -10.5209 N   0  0  0  0  0  0  0  0  0  0  0  0
   24.1515  -20.4772   -9.9789 C   0  0  1  0  0  0  0  0  0  0  0  0
   24.7598  -20.5925   -8.6193 C   0  0  0  0  0  0  0  0  0  0  0  0
   23.7964  -20.5781   -7.5050 C   0  0  0  0  0  0  0  0  0  0  0  0
   22.7591  -21.6342   -7.6032 C   0  0  0  0  0  0  0  0  0  0  0  0
   21.8457  -21.5694   -6.4078 C   0  0  0  0  0  0  0  0  0  0  0  0
   20.7516  -22.5088   -6.6847 N   0  0  0  0  0  0  0  0  0  0  0  0
   25.1198  -19.8441  -10.9489 C   0  0  0  0  0  0  0  0  0  0  0  0
   25.7070  -18.7721  -10.6620 O   0  0  0  0  0  0  0  0  0  0  0  0
   28.2352  -21.0095  -11.8810 C   0  0  0  0  0  0  0  0  0  0  0  0
   27.5607  -20.7720  -13.2111 C   0  0  1  0  0  0  0  0  0  0  0  0
   27.1497  -22.0358  -13.6551 O   0  0  0  0  0  0  0  0  0  0  0  0
   26.3727  -19.8399  -13.0834 C   0  0  2  0  0  0  0  0  0  0  0  0
   25.3701  -20.4664  -12.1996 N   0  0  0  0  0  0  0  0  0  0  0  0
   25.6601  -19.6114  -14.3632 C   0  0  0  0  0  0  0  0  0  0  0  0
   24.4592  -20.0488  -14.5149 O   0  0  0  0  0  0  0  0  0  0  0  0
   22.1522  -17.9302  -17.6188 N   0  0  0  0  0  0  0  0  0  0  0  0
   23.3652  -17.2392  -17.3587 C   0  0  0  0  0  0  0  0  0  0  0  0
   23.6582  -16.2833  -18.1135 O   0  0  0  0  0  0  0  0  0  0  0  0
   24.1848  -17.6987  -16.2228 C   0  0  0  0  0  0  0  0  0  0  0  0
   25.3106  -18.6022  -16.6223 C   0  0  2  0  0  0  0  0  0  0  0  0
   26.1775  -18.9329  -15.4864 N   0  0  0  0  0  0  0  0  0  0  0  0
   26.1355  -18.0027  -17.7238 C   0  0  0  0  0  0  0  0  0  0  0  0
   25.7772  -18.1066  -19.0461 O   0  0  0  0  0  0  0  0  0  0  0  0
   27.1953  -17.3793  -17.4497 O   0  0  0  0  0  0  0  0  0  0  0  0
  2  1  1  6
  3  2  1  0
  4  3  1  0
  4  5  1  0
  5  6  1  0
  6  7  1  0
  8  2  1  0
  8  9  2  0
 11 10  1  1
 11 13  1  0
 12 11  1  0
 13 14  1  1
 14  8  1  0
 15 13  1  0
 16 15  2  0
 18 17  1  0
 19 18  2  0
 20 18  1  0
 21 20  1  1
 21 22  1  0
 21 23  1  0
 22 15  1  0
 23 24  1  0
 25 23  2  0
M  END
$$$$
