KTN.pdb
     RDKit          3D

 25 24  0  0  1  0  0  0  0  0999 V2000
   22.4039  -21.9609  -14.7787 N   0  0  0  0  0  0  0  0  0  0  0  0
   21.3648  -21.1034  -15.2504 C   0  0  1  0  0  0  0  0  0  0  0  0
   20.0277  -21.2688  -14.6048 C   0  0  0  0  0  0  0  0  0  0  0  0
   19.9178  -22.4187  -13.6908 C   0  0  0  0  0  0  0  0  0  0  0  0
   18.5305  -22.6879  -13.2393 C   0  0  0  0  0  0  0  0  0  0  0  0
   18.5109  -23.8847  -12.3258 C   0  0  0  0  0  0  0  0  0  0  0  0
   17.1261  -24.0093  -11.8537 N   0  0  0  0  0  0  0  0  0  0  0  0
   21.7988  -19.6577  -15.2250 C   0  0  0  0  0  0  0  0  0  0  0  0
   22.3696  -19.1766  -14.2155 O   0  0  0  0  0  0  0  0  0  0  0  0
   24.2997  -17.9634  -17.1623 C   0  0  0  0  0  0  0  0  0  0  0  0
   23.0242  -17.1862  -17.3847 C   0  0  1  0  0  0  0  0  0  0  0  0
   22.5237  -17.6295  -18.6160 O   0  0  0  0  0  0  0  0  0  0  0  0
   22.0149  -17.4295  -16.2806 C   0  0  2  0  0  0  0  0  0  0  0  0
   21.5595  -18.8317  -16.3540 N   0  0  0  0  0  0  0  0  0  0  0  0
   20.7797  -16.6218  -16.4203 C   0  0  0  0  0  0  0  0  0  0  0  0
   19.6346  -17.1532  -16.1693 O   0  0  0  0  0  0  0  0  0  0  0  0
   16.9901  -13.3383  -16.7089 N   0  0  0  0  0  0  0  0  0  0  0  0
   17.5002  -13.8082  -15.4698 C   0  0  0  0  0  0  0  0  0  0  0  0
   16.8025  -13.6140  -14.4475 O   0  0  0  0  0  0  0  0  0  0  0  0
   18.8086  -14.4871  -15.4812 C   0  0  0  0  0  0  0  0  0  0  0  0
   19.4362  -14.5568  -16.8394 C   0  0  2  0  0  0  0  0  0  0  0  0
   20.7182  -15.2688  -16.8149 N   0  0  0  0  0  0  0  0  0  0  0  0
   19.6338  -13.1899  -17.4272 C   0  0  0  0  0  0  0  0  0  0  0  0
   18.8780  -12.7286  -18.4777 O   0  0  0  0  0  0  0  0  0  0  0  0
   20.5163  -12.4234  -16.9574 O   0  0  0  0  0  0  0  0  0  0  0  0
  2  1  1  1
  3  2  1  0
  4  3  1  0
  4  5  1  0
  5  6  1  0
  6  7  1  0
  8  2  1  0
  8  9  2  0
 11 10  1  1
 11 13  1  0
 12 11  1  0
 13 14  1  6
 14  8  1  0
 15 13  1  0
 16 15  2  0
 18 17  1  0
 19 18  2  0
 20 18  1  0
 21 20  1  1
 21 22  1  0
 21 23  1  0
 22 15  1  0
 23 24  1  0
 25 23  2  0
M  END
$$$$
