KTN.pdb
     RDKit          3D

 25 24  0  0  1  0  0  0  0  0999 V2000
   32.3131  -14.3007  -18.7433 N   0  0  0  0  0  0  0  0  0  0  0  0
   31.6902  -13.2938  -19.5407 C   0  0  1  0  0  0  0  0  0  0  0  0
   30.5829  -13.7497  -20.4339 C   0  0  0  0  0  0  0  0  0  0  0  0
   30.6968  -15.1414  -20.9031 C   0  0  0  0  0  0  0  0  0  0  0  0
   29.6870  -15.5077  -21.9262 C   0  0  0  0  0  0  0  0  0  0  0  0
   29.9140  -16.9228  -22.3881 C   0  0  0  0  0  0  0  0  0  0  0  0
   28.8966  -17.1800  -23.4151 N   0  0  0  0  0  0  0  0  0  0  0  0
   31.2506  -12.1238  -18.6940 C   0  0  0  0  0  0  0  0  0  0  0  0
   30.7565  -12.3061  -17.5542 O   0  0  0  0  0  0  0  0  0  0  0  0
   33.0498  -10.1363  -16.8362 C   0  0  0  0  0  0  0  0  0  0  0  0
   32.3288   -9.1253  -17.6957 C   0  0  1  0  0  0  0  0  0  0  0  0
   33.2299   -8.7866  -18.7137 O   0  0  0  0  0  0  0  0  0  0  0  0
   31.0511   -9.6914  -18.2820 C   0  0  2  0  0  0  0  0  0  0  0  0
   31.3967  -10.8023  -19.1905 N   0  0  0  0  0  0  0  0  0  0  0  0
   30.3103   -8.7257  -19.1283 C   0  0  0  0  0  0  0  0  0  0  0  0
   29.8224   -9.1055  -20.2571 O   0  0  0  0  0  0  0  0  0  0  0  0
   27.5378   -5.0265  -21.2114 N   0  0  0  0  0  0  0  0  0  0  0  0
   26.9716   -6.1982  -20.6430 C   0  0  0  0  0  0  0  0  0  0  0  0
   25.7694   -6.4407  -20.8983 O   0  0  0  0  0  0  0  0  0  0  0  0
   27.8401   -7.0376  -19.7980 C   0  0  0  0  0  0  0  0  0  0  0  0
   29.2488   -6.5376  -19.7029 C   0  0  2  0  0  0  0  0  0  0  0  0
   30.0677   -7.3715  -18.8168 N   0  0  0  0  0  0  0  0  0  0  0  0
   29.2983   -5.1120  -19.2359 C   0  0  0  0  0  0  0  0  0  0  0  0
   29.0761   -4.0554  -20.0855 O   0  0  0  0  0  0  0  0  0  0  0  0
   29.5503   -4.8525  -18.0292 O   0  0  0  0  0  0  0  0  0  0  0  0
  2  1  1  1
  3  2  1  0
  4  3  1  0
  4  5  1  0
  5  6  1  0
  6  7  1  0
  8  2  1  0
  8  9  2  0
 11 10  1  1
 11 13  1  0
 12 11  1  0
 13 14  1  6
 14  8  1  0
 15 13  1  0
 16 15  2  0
 18 17  1  0
 19 18  2  0
 20 18  1  0
 21 20  1  1
 21 22  1  0
 21 23  1  0
 22 15  1  0
 23 24  1  0
 25 23  2  0
M  END
$$$$
