KTN.pdb
     RDKit          3D

 25 24  0  0  1  0  0  0  0  0999 V2000
   26.8934  -20.6909  -17.6722 N   0  0  0  0  0  0  0  0  0  0  0  0
   27.1475  -20.7648  -16.2695 C   0  0  1  0  0  0  0  0  0  0  0  0
   28.5787  -20.6697  -15.8516 C   0  0  0  0  0  0  0  0  0  0  0  0
   29.3425  -21.9244  -15.9629 C   0  0  0  0  0  0  0  0  0  0  0  0
   29.2140  -22.5824  -17.2862 C   0  0  0  0  0  0  0  0  0  0  0  0
   29.9969  -23.8687  -17.2982 C   0  0  0  0  0  0  0  0  0  0  0  0
   29.2192  -24.8217  -16.4963 N   0  0  0  0  0  0  0  0  0  0  0  0
   26.2989  -19.7739  -15.5098 C   0  0  0  0  0  0  0  0  0  0  0  0
   26.3142  -19.7453  -14.2547 O   0  0  0  0  0  0  0  0  0  0  0  0
   26.6316  -16.3983  -14.9909 C   0  0  0  0  0  0  0  0  0  0  0  0
   25.2606  -16.5188  -15.6125 C   0  0  1  0  0  0  0  0  0  0  0  0
   25.4383  -16.2349  -16.9730 O   0  0  0  0  0  0  0  0  0  0  0  0
   24.6775  -17.9057  -15.4295 C   0  0  2  0  0  0  0  0  0  0  0  0
   25.4739  -18.8640  -16.2208 N   0  0  0  0  0  0  0  0  0  0  0  0
   23.2959  -18.0396  -15.9502 C   0  0  0  0  0  0  0  0  0  0  0  0
   23.0298  -18.9312  -16.8394 O   0  0  0  0  0  0  0  0  0  0  0  0
   18.3471  -18.4755  -16.7532 N   0  0  0  0  0  0  0  0  0  0  0  0
   19.1235  -19.4257  -16.0384 C   0  0  0  0  0  0  0  0  0  0  0  0
   18.5979  -20.5373  -15.7986 O   0  0  0  0  0  0  0  0  0  0  0  0
   20.4854  -19.0320  -15.6342 C   0  0  0  0  0  0  0  0  0  0  0  0
   20.8329  -17.6200  -15.9930 C   0  0  2  0  0  0  0  0  0  0  0  0
   22.1868  -17.2613  -15.5579 N   0  0  0  0  0  0  0  0  0  0  0  0
   19.8472  -16.6454  -15.4172 C   0  0  0  0  0  0  0  0  0  0  0  0
   20.2362  -15.5938  -14.6233 O   0  0  0  0  0  0  0  0  0  0  0  0
   18.6175  -16.7769  -15.6569 O   0  0  0  0  0  0  0  0  0  0  0  0
  2  1  1  6
  3  2  1  0
  4  3  1  0
  4  5  1  0
  5  6  1  0
  6  7  1  0
  8  2  1  0
  8  9  2  0
 11 10  1  1
 11 13  1  0
 12 11  1  0
 13 14  1  6
 14  8  1  0
 15 13  1  0
 16 15  2  0
 18 17  1  0
 19 18  2  0
 20 18  1  0
 21 20  1  1
 21 22  1  0
 21 23  1  0
 22 15  1  0
 23 24  1  0
 25 23  2  0
M  END
$$$$
