KTN.pdb
     RDKit          3D

 25 24  0  0  1  0  0  0  0  0999 V2000
   21.9158  -14.0049  -18.3522 N   0  0  0  0  0  0  0  0  0  0  0  0
   21.1911  -12.7823  -18.2189 C   0  0  1  0  0  0  0  0  0  0  0  0
   19.9130  -12.8527  -17.4485 C   0  0  0  0  0  0  0  0  0  0  0  0
   19.0103  -13.9480  -17.8423 C   0  0  0  0  0  0  0  0  0  0  0  0
   17.7873  -14.0388  -17.0076 C   0  0  0  0  0  0  0  0  0  0  0  0
   16.9187  -15.1700  -17.4908 C   0  0  0  0  0  0  0  0  0  0  0  0
   15.7162  -15.1435  -16.6484 N   0  0  0  0  0  0  0  0  0  0  0  0
   22.0767  -11.6795  -17.6911 C   0  0  0  0  0  0  0  0  0  0  0  0
   23.0325  -11.9380  -16.9190 O   0  0  0  0  0  0  0  0  0  0  0  0
   24.0462   -9.4236  -19.7487 C   0  0  0  0  0  0  0  0  0  0  0  0
   23.2960   -8.5332  -18.7869 C   0  0  1  0  0  0  0  0  0  0  0  0
   22.2364   -7.9903  -19.5257 O   0  0  0  0  0  0  0  0  0  0  0  0
   22.7721   -9.3062  -17.5932 C   0  0  2  0  0  0  0  0  0  0  0  0
   21.8275  -10.3350  -18.0709 N   0  0  0  0  0  0  0  0  0  0  0  0
   21.9842   -8.4761  -16.6509 C   0  0  0  0  0  0  0  0  0  0  0  0
   20.7464   -8.7537  -16.4332 O   0  0  0  0  0  0  0  0  0  0  0  0
   20.0991   -5.5296  -12.9858 N   0  0  0  0  0  0  0  0  0  0  0  0
   20.3412   -6.9207  -12.8341 C   0  0  0  0  0  0  0  0  0  0  0  0
   19.8533   -7.4850  -11.8277 O   0  0  0  0  0  0  0  0  0  0  0  0
   21.1463   -7.5925  -13.8701 C   0  0  0  0  0  0  0  0  0  0  0  0
   21.6069   -6.6748  -14.9606 C   0  0  2  0  0  0  0  0  0  0  0  0
   22.4655   -7.3632  -15.9301 N   0  0  0  0  0  0  0  0  0  0  0  0
   22.3313   -5.4815  -14.4089 C   0  0  0  0  0  0  0  0  0  0  0  0
   21.6869   -4.4987  -13.6972 O   0  0  0  0  0  0  0  0  0  0  0  0
   23.5713   -5.3567  -14.5924 O   0  0  0  0  0  0  0  0  0  0  0  0
  2  1  1  1
  3  2  1  0
  4  3  1  0
  4  5  1  0
  5  6  1  0
  6  7  1  0
  8  2  1  0
  8  9  2  0
 11 10  1  6
 11 13  1  0
 12 11  1  0
 13 14  1  6
 14  8  1  0
 15 13  1  0
 16 15  2  0
 18 17  1  0
 19 18  2  0
 20 18  1  0
 21 20  1  1
 21 22  1  0
 21 23  1  0
 22 15  1  0
 23 24  1  0
 25 23  2  0
M  END
$$$$
