KTN.pdb
     RDKit          3D

 25 24  0  0  1  0  0  0  0  0999 V2000
   16.5759  -11.5626  -15.6077 N   0  0  0  0  0  0  0  0  0  0  0  0
   17.6746  -12.4512  -15.4055 C   0  0  1  0  0  0  0  0  0  0  0  0
   17.4970  -13.8465  -15.9090 C   0  0  0  0  0  0  0  0  0  0  0  0
   16.4396  -14.6197  -15.2352 C   0  0  0  0  0  0  0  0  0  0  0  0
   16.3458  -16.0261  -15.6979 C   0  0  0  0  0  0  0  0  0  0  0  0
   15.2581  -16.7434  -14.9433 C   0  0  0  0  0  0  0  0  0  0  0  0
   15.2651  -18.1248  -15.4413 N   0  0  0  0  0  0  0  0  0  0  0  0
   18.9606  -11.8529  -15.9224 C   0  0  0  0  0  0  0  0  0  0  0  0
   20.0145  -12.5342  -15.9633 O   0  0  0  0  0  0  0  0  0  0  0  0
   19.9072  -11.0331  -19.1922 C   0  0  0  0  0  0  0  0  0  0  0  0
   20.0452   -9.7442  -18.4173 C   0  0  1  0  0  0  0  0  0  0  0  0
   18.8548   -9.0405  -18.6431 O   0  0  0  0  0  0  0  0  0  0  0  0
   20.2432   -9.9945  -16.9358 C   0  0  2  0  0  0  0  0  0  0  0  0
   18.9804  -10.5055  -16.3674 N   0  0  0  0  0  0  0  0  0  0  0  0
   20.5368   -8.7642  -16.1625 C   0  0  0  0  0  0  0  0  0  0  0  0
   19.7909   -8.4412  -15.1646 O   0  0  0  0  0  0  0  0  0  0  0  0
   22.3320   -4.5132  -14.0010 N   0  0  0  0  0  0  0  0  0  0  0  0
   22.2445   -5.7657  -13.3377 C   0  0  0  0  0  0  0  0  0  0  0  0
   22.4349   -5.7777  -12.0995 O   0  0  0  0  0  0  0  0  0  0  0  0
   21.9371   -6.9533  -14.1551 C   0  0  0  0  0  0  0  0  0  0  0  0
   21.7435   -6.6472  -15.6085 C   0  0  2  0  0  0  0  0  0  0  0  0
   21.5962   -7.8664  -16.4104 N   0  0  0  0  0  0  0  0  0  0  0  0
   22.8724   -5.8223  -16.1542 C   0  0  0  0  0  0  0  0  0  0  0  0
   23.6155   -6.2242  -17.2377 O   0  0  0  0  0  0  0  0  0  0  0  0
   23.1659   -4.7215  -15.6165 O   0  0  0  0  0  0  0  0  0  0  0  0
  2  1  1  6
  3  2  1  0
  4  3  1  0
  4  5  1  0
  5  6  1  0
  6  7  1  0
  8  2  1  0
  8  9  2  0
 11 10  1  6
 11 13  1  0
 12 11  1  0
 13 14  1  1
 14  8  1  0
 15 13  1  0
 16 15  2  0
 18 17  1  0
 19 18  2  0
 20 18  1  0
 21 20  1  1
 21 22  1  0
 21 23  1  0
 22 15  1  0
 23 24  1  0
 25 23  2  0
M  END
$$$$
