KTN.pdb
     RDKit          3D

 25 24  0  0  1  0  0  0  0  0999 V2000
   23.8876  -16.3545  -16.7630 N   0  0  0  0  0  0  0  0  0  0  0  0
   23.2831  -15.4858  -17.7209 C   0  0  1  0  0  0  0  0  0  0  0  0
   21.7904  -15.5030  -17.7788 C   0  0  0  0  0  0  0  0  0  0  0  0
   21.1417  -16.3973  -16.8046 C   0  0  0  0  0  0  0  0  0  0  0  0
   21.5117  -17.8244  -16.9703 C   0  0  0  0  0  0  0  0  0  0  0  0
   20.7256  -18.6738  -16.0071 C   0  0  0  0  0  0  0  0  0  0  0  0
   21.1245  -20.0614  -16.2746 N   0  0  0  0  0  0  0  0  0  0  0  0
   23.7992  -14.0744  -17.5775 C   0  0  0  0  0  0  0  0  0  0  0  0
   24.9583  -13.8554  -17.1474 O   0  0  0  0  0  0  0  0  0  0  0  0
   24.7684  -12.0371  -20.1081 C   0  0  0  0  0  0  0  0  0  0  0  0
   23.7523  -11.1910  -19.3786 C   0  0  1  0  0  0  0  0  0  0  0  0
   22.5561  -11.3410  -20.0925 O   0  0  0  0  0  0  0  0  0  0  0  0
   23.5741  -11.6365  -17.9410 C   0  0  2  0  0  0  0  0  0  0  0  0
   22.9662  -12.9816  -17.9324 N   0  0  0  0  0  0  0  0  0  0  0  0
   22.6315  -10.7893  -17.1720 C   0  0  0  0  0  0  0  0  0  0  0  0
   21.3938  -11.1298  -17.0786 O   0  0  0  0  0  0  0  0  0  0  0  0
   20.1263   -7.0677  -14.7024 N   0  0  0  0  0  0  0  0  0  0  0  0
   21.4776   -6.8964  -14.3008 C   0  0  0  0  0  0  0  0  0  0  0  0
   21.7180   -6.0133  -13.4455 O   0  0  0  0  0  0  0  0  0  0  0  0
   22.4916   -7.7691  -14.9199 C   0  0  0  0  0  0  0  0  0  0  0  0
   21.9143   -8.8004  -15.8399 C   0  0  2  0  0  0  0  0  0  0  0  0
   22.9578   -9.5945  -16.4969 N   0  0  0  0  0  0  0  0  0  0  0  0
   21.0288   -8.1785  -16.8802 C   0  0  0  0  0  0  0  0  0  0  0  0
   21.5180   -7.7237  -18.0808 O   0  0  0  0  0  0  0  0  0  0  0  0
   19.7930   -8.0596  -16.6666 O   0  0  0  0  0  0  0  0  0  0  0  0
  2  1  1  1
  3  2  1  0
  4  3  1  0
  4  5  1  0
  5  6  1  0
  6  7  1  0
  8  2  1  0
  8  9  2  0
 11 10  1  6
 11 13  1  0
 12 11  1  0
 13 14  1  6
 14  8  1  0
 15 13  1  0
 16 15  2  0
 18 17  1  0
 19 18  2  0
 20 18  1  0
 21 20  1  6
 21 22  1  0
 21 23  1  0
 22 15  1  0
 23 24  1  0
 25 23  2  0
M  END
$$$$
