KTN.pdb
     RDKit          3D

 25 24  0  0  1  0  0  0  0  0999 V2000
   18.9810  -23.8882   -7.2474 N   0  0  0  0  0  0  0  0  0  0  0  0
   19.6200  -23.9571   -8.5220 C   0  0  1  0  0  0  0  0  0  0  0  0
   19.1734  -25.0594   -9.4261 C   0  0  0  0  0  0  0  0  0  0  0  0
   17.9289  -25.7325   -9.0164 C   0  0  0  0  0  0  0  0  0  0  0  0
   18.1131  -27.1643   -8.6745 C   0  0  0  0  0  0  0  0  0  0  0  0
   16.7856  -27.7840   -8.3266 C   0  0  0  0  0  0  0  0  0  0  0  0
   17.0741  -29.1761   -7.9592 N   0  0  0  0  0  0  0  0  0  0  0  0
   19.5655  -22.6252   -9.2307 C   0  0  0  0  0  0  0  0  0  0  0  0
   18.8351  -21.6989   -8.8008 O   0  0  0  0  0  0  0  0  0  0  0  0
   21.9492  -20.0997   -9.3846 C   0  0  0  0  0  0  0  0  0  0  0  0
   21.6640  -20.4182  -10.8329 C   0  0  1  0  0  0  0  0  0  0  0  0
   22.6882  -21.2852  -11.2360 O   0  0  0  0  0  0  0  0  0  0  0  0
   20.3096  -21.0747  -11.0106 C   0  0  2  0  0  0  0  0  0  0  0  0
   20.3478  -22.4163  -10.3962 N   0  0  0  0  0  0  0  0  0  0  0  0
   19.9515  -21.3169  -12.4286 C   0  0  0  0  0  0  0  0  0  0  0  0
   19.1848  -22.3038  -12.7364 O   0  0  0  0  0  0  0  0  0  0  0  0
   17.8774  -20.2075  -16.8890 N   0  0  0  0  0  0  0  0  0  0  0  0
   17.3425  -19.7688  -15.6488 C   0  0  0  0  0  0  0  0  0  0  0  0
   16.1704  -19.3266  -15.6498 O   0  0  0  0  0  0  0  0  0  0  0  0
   18.2057  -19.8671  -14.4578 C   0  0  0  0  0  0  0  0  0  0  0  0
   19.5532  -20.4568  -14.7408 C   0  0  2  0  0  0  0  0  0  0  0  0
   20.3772  -20.5463  -13.5308 N   0  0  0  0  0  0  0  0  0  0  0  0
   20.2883  -19.6756  -15.7906 C   0  0  0  0  0  0  0  0  0  0  0  0
   20.1236  -19.9180  -17.1329 O   0  0  0  0  0  0  0  0  0  0  0  0
   21.0880  -18.7628  -15.4525 O   0  0  0  0  0  0  0  0  0  0  0  0
  2  1  1  1
  3  2  1  0
  4  3  1  0
  4  5  1  0
  5  6  1  0
  6  7  1  0
  8  2  1  0
  8  9  2  0
 11 10  1  1
 11 13  1  0
 12 11  1  0
 13 14  1  1
 14  8  1  0
 15 13  1  0
 16 15  2  0
 18 17  1  0
 19 18  2  0
 20 18  1  0
 21 20  1  1
 21 22  1  0
 21 23  1  0
 22 15  1  0
 23 24  1  0
 25 23  2  0
M  END
$$$$
