KTN.pdb
     RDKit          3D

 25 24  0  0  1  0  0  0  0  0999 V2000
   27.3453  -24.2553  -15.9591 N   0  0  0  0  0  0  0  0  0  0  0  0
   28.3304  -23.3165  -16.3900 C   0  0  1  0  0  0  0  0  0  0  0  0
   29.1603  -23.7219  -17.5643 C   0  0  0  0  0  0  0  0  0  0  0  0
   29.9100  -24.9779  -17.3904 C   0  0  0  0  0  0  0  0  0  0  0  0
   29.2198  -26.1643  -17.9532 C   0  0  0  0  0  0  0  0  0  0  0  0
   30.0860  -27.3857  -17.7942 C   0  0  0  0  0  0  0  0  0  0  0  0
   29.6333  -28.0436  -16.5619 N   0  0  0  0  0  0  0  0  0  0  0  0
   27.7231  -21.9514  -16.6068 C   0  0  0  0  0  0  0  0  0  0  0  0
   28.4172  -21.0030  -17.0485 O   0  0  0  0  0  0  0  0  0  0  0  0
   27.1886  -20.3205  -18.7450 C   0  0  0  0  0  0  0  0  0  0  0  0
   25.7839  -20.3049  -18.1907 C   0  0  1  0  0  0  0  0  0  0  0  0
   25.1343  -21.3966  -18.7818 O   0  0  0  0  0  0  0  0  0  0  0  0
   25.7713  -20.4313  -16.6805 C   0  0  2  0  0  0  0  0  0  0  0  0
   26.3525  -21.7361  -16.3082 N   0  0  0  0  0  0  0  0  0  0  0  0
   24.4074  -20.4440  -16.0997 C   0  0  0  0  0  0  0  0  0  0  0  0
   23.9793  -21.4948  -15.4922 O   0  0  0  0  0  0  0  0  0  0  0  0
   19.7008  -19.5799  -14.3261 N   0  0  0  0  0  0  0  0  0  0  0  0
   20.7799  -19.1584  -13.5049 C   0  0  0  0  0  0  0  0  0  0  0  0
   20.5240  -18.8903  -12.3082 O   0  0  0  0  0  0  0  0  0  0  0  0
   22.1156  -19.0690  -14.1221 C   0  0  0  0  0  0  0  0  0  0  0  0
   22.1494  -19.5267  -15.5478 C   0  0  2  0  0  0  0  0  0  0  0  0
   23.4833  -19.3790  -16.1394 N   0  0  0  0  0  0  0  0  0  0  0  0
   21.1451  -18.7924  -16.3874 C   0  0  0  0  0  0  0  0  0  0  0  0
   21.4216  -17.5756  -16.9625 O   0  0  0  0  0  0  0  0  0  0  0  0
   20.0045  -19.2895  -16.5846 O   0  0  0  0  0  0  0  0  0  0  0  0
  2  1  1  6
  3  2  1  0
  4  3  1  0
  4  5  1  0
  5  6  1  0
  6  7  1  0
  8  2  1  0
  8  9  2  0
 11 10  1  6
 11 13  1  0
 12 11  1  0
 13 14  1  6
 14  8  1  0
 15 13  1  0
 16 15  2  0
 18 17  1  0
 19 18  2  0
 20 18  1  0
 21 20  1  1
 21 22  1  0
 21 23  1  0
 22 15  1  0
 23 24  1  0
 25 23  2  0
M  END
$$$$
