KTN.pdb
     RDKit          3D

 25 24  0  0  1  0  0  0  0  0999 V2000
   19.8551  -11.6541  -17.4258 N   0  0  0  0  0  0  0  0  0  0  0  0
   18.6030  -10.9854  -17.2752 C   0  0  1  0  0  0  0  0  0  0  0  0
   17.4126  -11.8571  -17.0409 C   0  0  0  0  0  0  0  0  0  0  0  0
   17.3786  -13.0907  -17.8452 C   0  0  0  0  0  0  0  0  0  0  0  0
   17.8928  -14.2824  -17.1268 C   0  0  0  0  0  0  0  0  0  0  0  0
   17.8044  -15.4952  -18.0149 C   0  0  0  0  0  0  0  0  0  0  0  0
   18.5076  -16.5693  -17.3022 N   0  0  0  0  0  0  0  0  0  0  0  0
   18.6882   -9.8997  -16.2297 C   0  0  0  0  0  0  0  0  0  0  0  0
   17.6664   -9.2537  -15.8906 O   0  0  0  0  0  0  0  0  0  0  0  0
   19.3958  -10.0967  -12.7131 C   0  0  0  0  0  0  0  0  0  0  0  0
   20.4194   -9.1442  -13.2836 C   0  0  1  0  0  0  0  0  0  0  0  0
   21.5800   -9.9068  -13.4695 O   0  0  0  0  0  0  0  0  0  0  0  0
   19.9610   -8.5431  -14.5971 C   0  0  2  0  0  0  0  0  0  0  0  0
   19.9365   -9.6046  -15.6225 N   0  0  0  0  0  0  0  0  0  0  0  0
   20.8882   -7.5184  -15.1339 C   0  0  0  0  0  0  0  0  0  0  0  0
   21.5778   -7.7693  -16.1913 O   0  0  0  0  0  0  0  0  0  0  0  0
   23.7382   -3.5500  -16.4589 N   0  0  0  0  0  0  0  0  0  0  0  0
   22.6953   -4.0851  -17.2605 C   0  0  0  0  0  0  0  0  0  0  0  0
   22.6108   -3.6807  -18.4431 O   0  0  0  0  0  0  0  0  0  0  0  0
   21.7940   -5.0735  -16.6408 C   0  0  0  0  0  0  0  0  0  0  0  0
   22.0845   -5.3253  -15.1932 C   0  0  2  0  0  0  0  0  0  0  0  0
   21.1069   -6.2361  -14.5884 N   0  0  0  0  0  0  0  0  0  0  0  0
   22.1298   -4.0466  -14.4085 C   0  0  0  0  0  0  0  0  0  0  0  0
   23.2688   -3.2837  -14.3174 O   0  0  0  0  0  0  0  0  0  0  0  0
   21.1010   -3.6403  -13.8056 O   0  0  0  0  0  0  0  0  0  0  0  0
  2  1  1  1
  3  2  1  0
  4  3  1  0
  4  5  1  0
  5  6  1  0
  6  7  1  0
  8  2  1  0
  8  9  2  0
 11 10  1  6
 11 13  1  0
 12 11  1  0
 13 14  1  6
 14  8  1  0
 15 13  1  0
 16 15  2  0
 18 17  1  0
 19 18  2  0
 20 18  1  0
 21 20  1  6
 21 22  1  0
 21 23  1  0
 22 15  1  0
 23 24  1  0
 25 23  2  0
M  END
$$$$
