KTN.pdb
     RDKit          3D

 25 24  0  0  1  0  0  0  0  0999 V2000
   28.7134  -22.4472  -18.3601 N   0  0  0  0  0  0  0  0  0  0  0  0
   28.2891  -23.1094  -17.1689 C   0  0  1  0  0  0  0  0  0  0  0  0
   29.2531  -24.0846  -16.5760 C   0  0  0  0  0  0  0  0  0  0  0  0
   29.2799  -25.4053  -17.2277 C   0  0  0  0  0  0  0  0  0  0  0  0
   28.7595  -26.5002  -16.3725 C   0  0  0  0  0  0  0  0  0  0  0  0
   28.8907  -27.8180  -17.0891 C   0  0  0  0  0  0  0  0  0  0  0  0
   28.3427  -28.8296  -16.1768 N   0  0  0  0  0  0  0  0  0  0  0  0
   27.8220  -22.1170  -16.1315 C   0  0  0  0  0  0  0  0  0  0  0  0
   28.6495  -21.4477  -15.4654 O   0  0  0  0  0  0  0  0  0  0  0  0
   28.0973  -19.6436  -15.5293 C   0  0  0  0  0  0  0  0  0  0  0  0
   26.6015  -19.5800  -15.3315 C   0  0  1  0  0  0  0  0  0  0  0  0
   26.0753  -19.1831  -16.5679 O   0  0  0  0  0  0  0  0  0  0  0  0
   26.0296  -20.9202  -14.9147 C   0  0  2  0  0  0  0  0  0  0  0  0
   26.4325  -21.9375  -15.9054 N   0  0  0  0  0  0  0  0  0  0  0  0
   24.5476  -20.9564  -14.9150 C   0  0  0  0  0  0  0  0  0  0  0  0
   23.9189  -21.4521  -15.9227 O   0  0  0  0  0  0  0  0  0  0  0  0
   19.5223  -20.7693  -14.0596 N   0  0  0  0  0  0  0  0  0  0  0  0
   20.1094  -20.7779  -12.7666 C   0  0  0  0  0  0  0  0  0  0  0  0
   19.3428  -20.9174  -11.7856 O   0  0  0  0  0  0  0  0  0  0  0  0
   21.5726  -20.6224  -12.6780 C   0  0  0  0  0  0  0  0  0  0  0  0
   22.2512  -20.5624  -14.0119 C   0  0  2  0  0  0  0  0  0  0  0  0
   23.7101  -20.4868  -13.8817 N   0  0  0  0  0  0  0  0  0  0  0  0
   21.7606  -19.4030  -14.8292 C   0  0  0  0  0  0  0  0  0  0  0  0
   20.5908  -19.4569  -15.5478 O   0  0  0  0  0  0  0  0  0  0  0  0
   22.4277  -18.3352  -14.8724 O   0  0  0  0  0  0  0  0  0  0  0  0
  2  1  1  6
  3  2  1  0
  4  3  1  0
  4  5  1  0
  5  6  1  0
  6  7  1  0
  8  2  1  0
  8  9  2  0
 11 10  1  6
 11 13  1  0
 12 11  1  0
 13 14  1  6
 14  8  1  0
 15 13  1  0
 16 15  2  0
 18 17  1  0
 19 18  2  0
 20 18  1  0
 21 20  1  1
 21 22  1  0
 21 23  1  0
 22 15  1  0
 23 24  1  0
 25 23  2  0
M  END
$$$$
