KTN.pdb
     RDKit          3D

 25 24  0  0  1  0  0  0  0  0999 V2000
   13.7513   -9.7978  -17.0454 N   0  0  0  0  0  0  0  0  0  0  0  0
   14.8503   -9.6524  -16.1462 C   0  0  1  0  0  0  0  0  0  0  0  0
   15.5516  -10.9110  -15.7513 C   0  0  0  0  0  0  0  0  0  0  0  0
   14.6737  -11.9750  -15.2345 C   0  0  0  0  0  0  0  0  0  0  0  0
   15.3872  -13.2408  -14.9356 C   0  0  0  0  0  0  0  0  0  0  0  0
   14.3980  -14.3101  -14.5545 C   0  0  0  0  0  0  0  0  0  0  0  0
   15.1806  -15.5406  -14.3818 N   0  0  0  0  0  0  0  0  0  0  0  0
   15.8341   -8.6246  -16.6510 C   0  0  0  0  0  0  0  0  0  0  0  0
   16.2416   -8.6550  -17.8382 O   0  0  0  0  0  0  0  0  0  0  0  0
   15.2301   -5.5751  -17.6358 C   0  0  0  0  0  0  0  0  0  0  0  0
   16.2955   -5.3226  -16.5957 C   0  0  1  0  0  0  0  0  0  0  0  0
   15.6055   -4.9656  -15.4297 O   0  0  0  0  0  0  0  0  0  0  0  0
   17.1508   -6.5501  -16.3539 C   0  0  2  0  0  0  0  0  0  0  0  0
   16.3047   -7.6121  -15.7750 N   0  0  0  0  0  0  0  0  0  0  0  0
   18.2252   -6.3346  -15.3554 C   0  0  0  0  0  0  0  0  0  0  0  0
   18.2920   -7.0871  -14.3134 O   0  0  0  0  0  0  0  0  0  0  0  0
   22.3905   -5.3622  -12.6572 N   0  0  0  0  0  0  0  0  0  0  0  0
   22.2436   -6.5223  -13.4629 C   0  0  0  0  0  0  0  0  0  0  0  0
   23.0802   -7.4419  -13.3086 O   0  0  0  0  0  0  0  0  0  0  0  0
   21.1204   -6.5555  -14.4170 C   0  0  0  0  0  0  0  0  0  0  0  0
   20.3006   -5.3020  -14.4221 C   0  0  2  0  0  0  0  0  0  0  0  0
   19.2325   -5.3497  -15.4262 N   0  0  0  0  0  0  0  0  0  0  0  0
   21.1510   -4.0869  -14.6530 C   0  0  0  0  0  0  0  0  0  0  0  0
   21.9765   -3.5757  -13.6810 O   0  0  0  0  0  0  0  0  0  0  0  0
   21.1228   -3.5004  -15.7676 O   0  0  0  0  0  0  0  0  0  0  0  0
  2  1  1  6
  3  2  1  0
  4  3  1  0
  4  5  1  0
  5  6  1  0
  6  7  1  0
  8  2  1  0
  8  9  2  0
 11 10  1  6
 11 13  1  0
 12 11  1  0
 13 14  1  1
 14  8  1  0
 15 13  1  0
 16 15  2  0
 18 17  1  0
 19 18  2  0
 20 18  1  0
 21 20  1  6
 21 22  1  0
 21 23  1  0
 22 15  1  0
 23 24  1  0
 25 23  2  0
M  END
$$$$
