TKH.pdb
     RDKit          3D

 27 27  0  0  1  0  0  0  0  0999 V2000
   23.5589  -11.8853  -19.2932 C   0  0  0  0  0  0  0  0  0  0  0  0
   22.5628  -12.9973  -19.1217 C   0  0  1  0  0  0  0  0  0  0  0  0
   23.0183  -14.1980  -19.6425 O   0  0  0  0  0  0  0  0  0  0  0  0
   22.2124  -13.1594  -17.6352 C   0  0  2  0  0  0  0  0  0  0  0  0
   21.4412  -14.3800  -17.4653 N   0  0  0  0  0  0  0  0  0  0  0  0
   21.3144  -12.0300  -17.3005 C   0  0  0  0  0  0  0  0  0  0  0  0
   21.3918  -11.0017  -18.0255 O   0  0  0  0  0  0  0  0  0  0  0  0
   20.3976  -12.0280  -16.2467 N   0  0  0  0  0  0  0  0  0  0  0  0
   19.4641  -10.9233  -15.9718 C   0  0  1  0  0  0  0  0  0  0  0  0
   18.2942  -11.4480  -15.2054 C   0  0  0  0  0  0  0  0  0  0  0  0
   17.3569  -12.3192  -15.9334 C   0  0  0  0  0  0  0  0  0  0  0  0
   16.1326  -12.7291  -15.1397 C   0  0  0  0  0  0  0  0  0  0  0  0
   15.2183  -13.6027  -16.0111 C   0  0  0  0  0  0  0  0  0  0  0  0
   13.9951  -13.9085  -15.3227 N   0  0  0  0  0  0  0  0  0  0  0  0
   20.2295   -9.8539  -15.2957 C   0  0  0  0  0  0  0  0  0  0  0  0
   20.9981  -10.2015  -14.3365 O   0  0  0  0  0  0  0  0  0  0  0  0
   20.1978   -8.4956  -15.6041 N   0  0  0  0  0  0  0  0  0  0  0  0
   20.9559   -7.4804  -14.8690 C   0  0  1  0  0  0  0  0  0  0  0  0
   22.2656   -7.2038  -15.5023 C   0  0  0  0  0  0  0  0  0  0  0  0
   22.0850   -6.5797  -16.8287 C   0  0  0  0  0  0  0  0  0  0  0  0
   20.9341   -6.1877  -17.4953 C   0  0  0  0  0  0  0  0  0  0  0  0
   21.2319   -5.6809  -18.7038 N   0  0  0  0  0  0  0  0  0  0  0  0
   22.5542   -5.7471  -18.8104 C   0  0  0  0  0  0  0  0  0  0  0  0
   23.0905   -6.2804  -17.7036 N   0  0  0  0  0  0  0  0  0  0  0  0
   20.1201   -6.2846  -14.7030 C   0  0  0  0  0  0  0  0  0  0  0  0
   20.5116   -5.2183  -13.8982 O   0  0  0  0  0  0  0  0  0  0  0  0
   19.0253   -6.1979  -15.2885 O   0  0  0  0  0  0  0  0  0  0  0  0
  2  3  1  0
  2  1  1  1
  4  2  1  0
  4  5  1  6
  6  4  1  0
  6  7  2  0
  8  6  1  0
  9 10  1  1
  9  8  1  0
 11 10  1  0
 11 12  1  0
 13 12  1  0
 13 14  1  0
 15  9  1  0
 16 15  2  0
 17 15  1  0
 18 17  1  0
 18 19  1  6
 19 20  1  0
 20 21  2  0
 21 22  1  0
 23 22  1  0
 24 20  1  0
 24 23  2  0
 25 26  1  0
 25 18  1  0
 27 25  2  0
M  END
$$$$
