TKH.pdb
     RDKit          3D

 27 27  0  0  1  0  0  0  0  0999 V2000
   26.7178  -18.4202  -13.8199 C   0  0  0  0  0  0  0  0  0  0  0  0
   27.3940  -19.5220  -13.0537 C   0  0  1  0  0  0  0  0  0  0  0  0
   28.4450  -19.0574  -12.2791 O   0  0  0  0  0  0  0  0  0  0  0  0
   26.3676  -20.2536  -12.1763 C   0  0  2  0  0  0  0  0  0  0  0  0
   27.0340  -21.3458  -11.4859 N   0  0  0  0  0  0  0  0  0  0  0  0
   25.3914  -20.8627  -13.1090 C   0  0  0  0  0  0  0  0  0  0  0  0
   25.8396  -21.6886  -13.9493 O   0  0  0  0  0  0  0  0  0  0  0  0
   24.0222  -20.5862  -13.1199 N   0  0  0  0  0  0  0  0  0  0  0  0
   23.0764  -21.1572  -14.0929 C   0  0  1  0  0  0  0  0  0  0  0  0
   21.7702  -21.4143  -13.4154 C   0  0  0  0  0  0  0  0  0  0  0  0
   20.6441  -21.8220  -14.2718 C   0  0  0  0  0  0  0  0  0  0  0  0
   19.3597  -22.1187  -13.5239 C   0  0  0  0  0  0  0  0  0  0  0  0
   18.2643  -22.5314  -14.5181 C   0  0  0  0  0  0  0  0  0  0  0  0
   17.0372  -22.8286  -13.8328 N   0  0  0  0  0  0  0  0  0  0  0  0
   23.0149  -20.2336  -15.2460 C   0  0  0  0  0  0  0  0  0  0  0  0
   22.9229  -18.9853  -14.9914 O   0  0  0  0  0  0  0  0  0  0  0  0
   23.0502  -20.5911  -16.5921 N   0  0  0  0  0  0  0  0  0  0  0  0
   23.1637  -19.6220  -17.6848 C   0  0  1  0  0  0  0  0  0  0  0  0
   24.5384  -19.5666  -18.2323 C   0  0  0  0  0  0  0  0  0  0  0  0
   24.6155  -18.6159  -19.3599 C   0  0  0  0  0  0  0  0  0  0  0  0
   23.6610  -17.7613  -19.8900 C   0  0  0  0  0  0  0  0  0  0  0  0
   24.1566  -17.0850  -20.9403 N   0  0  0  0  0  0  0  0  0  0  0  0
   25.4104  -17.5002  -21.0816 C   0  0  0  0  0  0  0  0  0  0  0  0
   25.7117  -18.4157  -20.1500 N   0  0  0  0  0  0  0  0  0  0  0  0
   22.1407  -19.9174  -18.6958 C   0  0  0  0  0  0  0  0  0  0  0  0
   21.8353  -19.0228  -19.7178 O   0  0  0  0  0  0  0  0  0  0  0  0
   21.5145  -20.9923  -18.6596 O   0  0  0  0  0  0  0  0  0  0  0  0
  2  3  1  0
  2  1  1  1
  4  2  1  0
  4  5  1  6
  6  4  1  0
  6  7  2  0
  8  6  1  0
  9 10  1  1
  9  8  1  0
 11 10  1  0
 11 12  1  0
 13 12  1  0
 13 14  1  0
 15  9  1  0
 16 15  2  0
 17 15  1  0
 18 17  1  0
 18 19  1  6
 19 20  1  0
 20 21  2  0
 21 22  1  0
 23 22  1  0
 24 20  1  0
 24 23  2  0
 25 26  1  0
 25 18  1  0
 27 25  2  0
M  END
$$$$
