TKH.pdb
     RDKit          3D

 27 27  0  0  1  0  0  0  0  0999 V2000
   28.0804  -12.0087  -15.0594 C   0  0  0  0  0  0  0  0  0  0  0  0
   26.8022  -11.5769  -15.7211 C   0  0  1  0  0  0  0  0  0  0  0  0
   27.0241  -10.9439  -16.9338 O   0  0  0  0  0  0  0  0  0  0  0  0
   25.8787  -12.7889  -15.9132 C   0  0  2  0  0  0  0  0  0  0  0  0
   26.4426  -13.6506  -16.9393 N   0  0  0  0  0  0  0  0  0  0  0  0
   24.6060  -12.2533  -16.4493 C   0  0  0  0  0  0  0  0  0  0  0  0
   24.4419  -12.3075  -17.6980 O   0  0  0  0  0  0  0  0  0  0  0  0
   23.5865  -11.6981  -15.6724 N   0  0  0  0  0  0  0  0  0  0  0  0
   22.3051  -11.2210  -16.2177 C   0  0  1  0  0  0  0  0  0  0  0  0
   21.1991  -12.0780  -15.6946 C   0  0  0  0  0  0  0  0  0  0  0  0
   19.8268  -11.6955  -16.0662 C   0  0  0  0  0  0  0  0  0  0  0  0
   18.7472  -12.5967  -15.5011 C   0  0  0  0  0  0  0  0  0  0  0  0
   17.3641  -12.0643  -15.9039 C   0  0  0  0  0  0  0  0  0  0  0  0
   16.3225  -12.9223  -15.4114 N   0  0  0  0  0  0  0  0  0  0  0  0
   22.1929   -9.7828  -15.8925 C   0  0  0  0  0  0  0  0  0  0  0  0
   22.5867   -9.4122  -14.7353 O   0  0  0  0  0  0  0  0  0  0  0  0
   21.6992   -8.7840  -16.7290 N   0  0  0  0  0  0  0  0  0  0  0  0
   21.6702   -7.3650  -16.3663 C   0  0  1  0  0  0  0  0  0  0  0  0
   22.1975   -6.5072  -17.4521 C   0  0  0  0  0  0  0  0  0  0  0  0
   23.6476   -6.7218  -17.6322 C   0  0  0  0  0  0  0  0  0  0  0  0
   24.7232   -6.3448  -16.8427 C   0  0  0  0  0  0  0  0  0  0  0  0
   25.8834   -6.7286  -17.4020 N   0  0  0  0  0  0  0  0  0  0  0  0
   25.5563   -7.3426  -18.5335 C   0  0  0  0  0  0  0  0  0  0  0  0
   24.2258   -7.3532  -18.6967 N   0  0  0  0  0  0  0  0  0  0  0  0
   20.3110   -7.0061  -15.9426 C   0  0  0  0  0  0  0  0  0  0  0  0
   20.0428   -5.8310  -15.2460 O   0  0  0  0  0  0  0  0  0  0  0  0
   19.3537   -7.7580  -16.2017 O   0  0  0  0  0  0  0  0  0  0  0  0
  2  3  1  0
  2  1  1  6
  4  2  1  0
  4  5  1  6
  6  4  1  0
  6  7  2  0
  8  6  1  0
  9 10  1  1
  9  8  1  0
 11 10  1  0
 11 12  1  0
 13 12  1  0
 13 14  1  0
 15  9  1  0
 16 15  2  0
 17 15  1  0
 18 17  1  0
 18 19  1  6
 19 20  1  0
 20 21  2  0
 21 22  1  0
 23 22  1  0
 24 20  1  0
 24 23  2  0
 25 26  1  0
 25 18  1  0
 27 25  2  0
M  END
$$$$
