TKH.pdb
     RDKit          3D

 27 27  0  0  1  0  0  0  0  0999 V2000
   19.5725   -9.4889  -23.7862 C   0  0  0  0  0  0  0  0  0  0  0  0
   19.2003   -9.3660  -22.3355 C   0  0  1  0  0  0  0  0  0  0  0  0
   19.3045   -8.0638  -21.8730 O   0  0  0  0  0  0  0  0  0  0  0  0
   17.7766   -9.8980  -22.1150 C   0  0  2  0  0  0  0  0  0  0  0  0
   16.8388   -9.0301  -22.8085 N   0  0  0  0  0  0  0  0  0  0  0  0
   17.5064   -9.7568  -20.6656 C   0  0  0  0  0  0  0  0  0  0  0  0
   16.8181   -8.7643  -20.3047 O   0  0  0  0  0  0  0  0  0  0  0  0
   17.9581  -10.6402  -19.6824 N   0  0  0  0  0  0  0  0  0  0  0  0
   17.6231  -10.5208  -18.2538 C   0  0  1  0  0  0  0  0  0  0  0  0
   17.4092  -11.8849  -17.6838 C   0  0  0  0  0  0  0  0  0  0  0  0
   17.1484  -11.9694  -16.2373 C   0  0  0  0  0  0  0  0  0  0  0  0
   16.7881  -13.3560  -15.7426 C   0  0  0  0  0  0  0  0  0  0  0  0
   16.5023  -13.3103  -14.2343 C   0  0  0  0  0  0  0  0  0  0  0  0
   16.3401  -14.6355  -13.7041 N   0  0  0  0  0  0  0  0  0  0  0  0
   18.6964   -9.7326  -17.6110 C   0  0  0  0  0  0  0  0  0  0  0  0
   19.8996  -10.0006  -17.9457 O   0  0  0  0  0  0  0  0  0  0  0  0
   18.5252   -8.7179  -16.6719 N   0  0  0  0  0  0  0  0  0  0  0  0
   19.6368   -7.9983  -16.0454 C   0  0  1  0  0  0  0  0  0  0  0  0
   19.4830   -6.5306  -16.1684 C   0  0  0  0  0  0  0  0  0  0  0  0
   20.6133   -5.8295  -15.5263 C   0  0  0  0  0  0  0  0  0  0  0  0
   21.2542   -6.0620  -14.3190 C   0  0  0  0  0  0  0  0  0  0  0  0
   22.2272   -5.1581  -14.1135 N   0  0  0  0  0  0  0  0  0  0  0  0
   22.2102   -4.3578  -15.1735 C   0  0  0  0  0  0  0  0  0  0  0  0
   21.2550   -4.7359  -16.0346 N   0  0  0  0  0  0  0  0  0  0  0  0
   19.7854   -8.4586  -14.6591 C   0  0  0  0  0  0  0  0  0  0  0  0
   21.0210   -8.4789  -14.0181 O   0  0  0  0  0  0  0  0  0  0  0  0
   18.7925   -8.8470  -14.0169 O   0  0  0  0  0  0  0  0  0  0  0  0
  2  3  1  0
  2  1  1  6
  4  2  1  0
  4  5  1  6
  6  4  1  0
  6  7  2  0
  8  6  1  0
  9 10  1  1
  9  8  1  0
 11 10  1  0
 11 12  1  0
 13 12  1  0
 13 14  1  0
 15  9  1  0
 16 15  2  0
 17 15  1  0
 18 17  1  0
 18 19  1  1
 19 20  1  0
 20 21  2  0
 21 22  1  0
 23 22  1  0
 24 20  1  0
 24 23  2  0
 25 26  1  0
 25 18  1  0
 27 25  2  0
M  END
$$$$
