TKH.pdb
     RDKit          3D

 27 27  0  0  1  0  0  0  0  0999 V2000
   18.4768  -15.9939    2.2214 C   0  0  0  0  0  0  0  0  0  0  0  0
   17.8854  -14.9561    3.1333 C   0  0  1  0  0  0  0  0  0  0  0  0
   18.3107  -13.6749    2.8198 O   0  0  0  0  0  0  0  0  0  0  0  0
   16.3523  -15.0350    3.0888 C   0  0  2  0  0  0  0  0  0  0  0  0
   15.8049  -14.0502    4.0075 N   0  0  0  0  0  0  0  0  0  0  0  0
   15.9952  -16.3699    3.6221 C   0  0  0  0  0  0  0  0  0  0  0  0
   16.1711  -16.5603    4.8558 O   0  0  0  0  0  0  0  0  0  0  0  0
   15.4821  -17.4206    2.8581 N   0  0  0  0  0  0  0  0  0  0  0  0
   15.1235  -18.7381    3.4084 C   0  0  1  0  0  0  0  0  0  0  0  0
   14.3120  -19.4865    2.4021 C   0  0  0  0  0  0  0  0  0  0  0  0
   12.8954  -19.1068    2.2728 C   0  0  0  0  0  0  0  0  0  0  0  0
   12.1115  -19.9317    1.2718 C   0  0  0  0  0  0  0  0  0  0  0  0
   10.6798  -19.3872    1.1593 C   0  0  0  0  0  0  0  0  0  0  0  0
    9.9157  -20.1496    0.2113 N   0  0  0  0  0  0  0  0  0  0  0  0
   16.3782  -19.4019    3.8227 C   0  0  0  0  0  0  0  0  0  0  0  0
   17.4070  -19.2192    3.0879 O   0  0  0  0  0  0  0  0  0  0  0  0
   16.5525  -20.2105    4.9438 N   0  0  0  0  0  0  0  0  0  0  0  0
   17.8463  -20.7652    5.3490 C   0  0  1  0  0  0  0  0  0  0  0  0
   18.7975  -19.7059    5.7563 C   0  0  0  0  0  0  0  0  0  0  0  0
   20.0295  -20.2955    6.3181 C   0  0  0  0  0  0  0  0  0  0  0  0
   20.9556  -21.1618    5.7573 C   0  0  0  0  0  0  0  0  0  0  0  0
   21.9214  -21.4653    6.6411 N   0  0  0  0  0  0  0  0  0  0  0  0
   21.6189  -20.8034    7.7522 C   0  0  0  0  0  0  0  0  0  0  0  0
   20.4925  -20.0956    7.5877 N   0  0  0  0  0  0  0  0  0  0  0  0
   17.6280  -21.7865    6.3812 C   0  0  0  0  0  0  0  0  0  0  0  0
   18.5795  -22.7623    6.6647 O   0  0  0  0  0  0  0  0  0  0  0  0
   16.5695  -21.8013    7.0355 O   0  0  0  0  0  0  0  0  0  0  0  0
  2  3  1  0
  2  1  1  6
  4  2  1  0
  4  5  1  1
  6  4  1  0
  6  7  2  0
  8  6  1  0
  9 10  1  6
  9  8  1  0
 11 10  1  0
 11 12  1  0
 13 12  1  0
 13 14  1  0
 15  9  1  0
 16 15  2  0
 17 15  1  0
 18 17  1  0
 18 19  1  1
 19 20  1  0
 20 21  2  0
 21 22  1  0
 23 22  1  0
 24 20  1  0
 24 23  2  0
 25 26  1  0
 25 18  1  0
 27 25  2  0
M  END
$$$$
