TKH.pdb
     RDKit          3D

 27 27  0  0  1  0  0  0  0  0999 V2000
   35.7625  -29.1141    2.4003 C   0  0  0  0  0  0  0  0  0  0  0  0
   37.1592  -29.5682    2.0823 C   0  0  1  0  0  0  0  0  0  0  0  0
   37.2274  -30.2659    0.8869 O   0  0  0  0  0  0  0  0  0  0  0  0
   38.1062  -28.3595    2.0492 C   0  0  2  0  0  0  0  0  0  0  0  0
   39.4458  -28.8217    1.7246 N   0  0  0  0  0  0  0  0  0  0  0  0
   38.1523  -27.8371    3.4344 C   0  0  0  0  0  0  0  0  0  0  0  0
   38.8392  -28.4855    4.2691 O   0  0  0  0  0  0  0  0  0  0  0  0
   37.4928  -26.6866    3.8731 N   0  0  0  0  0  0  0  0  0  0  0  0
   37.4795  -26.2302    5.2727 C   0  0  1  0  0  0  0  0  0  0  0  0
   37.2253  -24.7587    5.3072 C   0  0  0  0  0  0  0  0  0  0  0  0
   37.0894  -24.1367    6.6346 C   0  0  0  0  0  0  0  0  0  0  0  0
   36.7132  -22.6688    6.6065 C   0  0  0  0  0  0  0  0  0  0  0  0
   36.7260  -22.1028    8.0341 C   0  0  0  0  0  0  0  0  0  0  0  0
   36.4279  -20.6975    8.0299 N   0  0  0  0  0  0  0  0  0  0  0  0
   36.4908  -27.0558    5.9989 C   0  0  0  0  0  0  0  0  0  0  0  0
   35.3361  -27.1871    5.4687 O   0  0  0  0  0  0  0  0  0  0  0  0
   36.6948  -27.7115    7.2111 N   0  0  0  0  0  0  0  0  0  0  0  0
   35.6644  -28.5036    7.8868 C   0  0  1  0  0  0  0  0  0  0  0  0
   36.2250  -29.7289    8.5011 C   0  0  0  0  0  0  0  0  0  0  0  0
   36.4490  -30.7719    7.4798 C   0  0  0  0  0  0  0  0  0  0  0  0
   36.1968  -30.7725    6.1163 C   0  0  0  0  0  0  0  0  0  0  0  0
   36.5353  -31.9522    5.5690 N   0  0  0  0  0  0  0  0  0  0  0  0
   36.9975  -32.6971    6.5669 C   0  0  0  0  0  0  0  0  0  0  0  0
   36.9575  -32.0166    7.7211 N   0  0  0  0  0  0  0  0  0  0  0  0
   34.9471  -27.6456    8.8382 C   0  0  0  0  0  0  0  0  0  0  0  0
   33.7031  -27.9977    9.3545 O   0  0  0  0  0  0  0  0  0  0  0  0
   35.4447  -26.5669    9.2092 O   0  0  0  0  0  0  0  0  0  0  0  0
  2  3  1  0
  2  1  1  6
  4  2  1  0
  4  5  1  1
  6  4  1  0
  6  7  2  0
  8  6  1  0
  9 10  1  6
  9  8  1  0
 11 10  1  0
 11 12  1  0
 13 12  1  0
 13 14  1  0
 15  9  1  0
 16 15  2  0
 17 15  1  0
 18 17  1  0
 18 19  1  1
 19 20  1  0
 20 21  2  0
 21 22  1  0
 23 22  1  0
 24 20  1  0
 24 23  2  0
 25 26  1  0
 25 18  1  0
 27 25  2  0
M  END
$$$$
