TKH.pdb
     RDKit          3D

 27 27  0  0  1  0  0  0  0  0999 V2000
   36.9664   -9.8613   -8.7676 C   0  0  0  0  0  0  0  0  0  0  0  0
   38.2633   -9.7708   -8.0139 C   0  0  1  0  0  0  0  0  0  0  0  0
   38.2519   -8.7614   -7.0644 O   0  0  0  0  0  0  0  0  0  0  0  0
   38.5781  -11.1210   -7.3531 C   0  0  2  0  0  0  0  0  0  0  0  0
   37.6461  -11.3363   -6.2584 N   0  0  0  0  0  0  0  0  0  0  0  0
   39.9250  -10.9793   -6.7533 C   0  0  0  0  0  0  0  0  0  0  0  0
   39.9795  -10.7249   -5.5199 O   0  0  0  0  0  0  0  0  0  0  0  0
   41.1259  -11.1073   -7.4551 N   0  0  0  0  0  0  0  0  0  0  0  0
   42.4560  -10.9621   -6.8412 C   0  0  1  0  0  0  0  0  0  0  0  0
   43.4062  -11.9094   -7.4977 C   0  0  0  0  0  0  0  0  0  0  0  0
   44.8024  -11.8832   -7.0314 C   0  0  0  0  0  0  0  0  0  0  0  0
   45.6914  -12.9457   -7.6460 C   0  0  0  0  0  0  0  0  0  0  0  0
   47.1272  -12.7852   -7.1251 C   0  0  0  0  0  0  0  0  0  0  0  0
   47.9845  -13.8028   -7.6665 N   0  0  0  0  0  0  0  0  0  0  0  0
   42.8313   -9.5345   -6.9287 C   0  0  0  0  0  0  0  0  0  0  0  0
   42.6001   -8.9355   -8.0329 O   0  0  0  0  0  0  0  0  0  0  0  0
   43.4137   -8.7713   -5.9191 N   0  0  0  0  0  0  0  0  0  0  0  0
   43.8015   -7.3685   -6.0857 C   0  0  1  0  0  0  0  0  0  0  0  0
   43.8171   -6.6435   -4.7946 C   0  0  0  0  0  0  0  0  0  0  0  0
   44.1654   -5.2224   -4.9958 C   0  0  0  0  0  0  0  0  0  0  0  0
   43.6780   -4.2902   -5.8991 C   0  0  0  0  0  0  0  0  0  0  0  0
   44.2995   -3.1083   -5.7472 N   0  0  0  0  0  0  0  0  0  0  0  0
   45.1726   -3.2804   -4.7611 C   0  0  0  0  0  0  0  0  0  0  0  0
   45.1142   -4.5352   -4.2931 N   0  0  0  0  0  0  0  0  0  0  0  0
   45.0778   -7.3066   -6.8090 C   0  0  0  0  0  0  0  0  0  0  0  0
   46.1779   -8.0700   -6.4283 O   0  0  0  0  0  0  0  0  0  0  0  0
   45.2050   -6.5573   -7.7945 O   0  0  0  0  0  0  0  0  0  0  0  0
  2  3  1  0
  2  1  1  1
  4  2  1  0
  4  5  1  1
  6  4  1  0
  6  7  2  0
  8  6  1  0
  9 10  1  6
  9  8  1  0
 11 10  1  0
 11 12  1  0
 13 12  1  0
 13 14  1  0
 15  9  1  0
 16 15  2  0
 17 15  1  0
 18 17  1  0
 18 19  1  1
 19 20  1  0
 20 21  2  0
 21 22  1  0
 23 22  1  0
 24 20  1  0
 24 23  2  0
 25 26  1  0
 25 18  1  0
 27 25  2  0
M  END
$$$$
