TKH.pdb
     RDKit          3D

 27 27  0  0  1  0  0  0  0  0999 V2000
   26.3018  -12.2497  -15.1693 C   0  0  0  0  0  0  0  0  0  0  0  0
   25.1200  -11.4454  -15.6326 C   0  0  1  0  0  0  0  0  0  0  0  0
   25.4482  -10.5650  -16.6513 O   0  0  0  0  0  0  0  0  0  0  0  0
   23.9928  -12.3862  -16.0833 C   0  0  2  0  0  0  0  0  0  0  0  0
   24.4007  -13.0540  -17.3085 N   0  0  0  0  0  0  0  0  0  0  0  0
   22.8450  -11.5152  -16.4266 C   0  0  0  0  0  0  0  0  0  0  0  0
   22.8244  -11.0252  -17.5879 O   0  0  0  0  0  0  0  0  0  0  0  0
   21.7953  -11.2037  -15.5594 N   0  0  0  0  0  0  0  0  0  0  0  0
   20.6632  -10.3340  -15.9186 C   0  0  1  0  0  0  0  0  0  0  0  0
   19.4184  -10.8599  -15.2819 C   0  0  0  0  0  0  0  0  0  0  0  0
   18.8200  -12.0636  -15.8822 C   0  0  0  0  0  0  0  0  0  0  0  0
   17.5947  -12.5852  -15.1587 C   0  0  0  0  0  0  0  0  0  0  0  0
   17.0963  -13.8676  -15.8412 C   0  0  0  0  0  0  0  0  0  0  0  0
   16.0766  -14.5030  -15.0536 N   0  0  0  0  0  0  0  0  0  0  0  0
   21.0276   -8.9522  -15.5387 C   0  0  0  0  0  0  0  0  0  0  0  0
   21.6930   -8.7984  -14.4592 O   0  0  0  0  0  0  0  0  0  0  0  0
   20.7177   -7.7930  -16.2467 N   0  0  0  0  0  0  0  0  0  0  0  0
   21.0426   -6.4447  -15.7750 C   0  0  1  0  0  0  0  0  0  0  0  0
   21.9025   -5.7165  -16.7358 C   0  0  0  0  0  0  0  0  0  0  0  0
   22.1464   -4.3339  -16.2773 C   0  0  0  0  0  0  0  0  0  0  0  0
   22.4647   -3.8397  -15.0215 C   0  0  0  0  0  0  0  0  0  0  0  0
   22.5752   -2.5007  -15.0496 N   0  0  0  0  0  0  0  0  0  0  0  0
   22.3313   -2.1417  -16.3050 C   0  0  0  0  0  0  0  0  0  0  0  0
   22.0718   -3.2177  -17.0612 N   0  0  0  0  0  0  0  0  0  0  0  0
   19.7976   -5.7379  -15.4491 C   0  0  0  0  0  0  0  0  0  0  0  0
   18.6437   -5.8878  -16.2133 O   0  0  0  0  0  0  0  0  0  0  0  0
   19.7469   -4.9767  -14.4657 O   0  0  0  0  0  0  0  0  0  0  0  0
  2  3  1  0
  2  1  1  6
  4  2  1  0
  4  5  1  6
  6  4  1  0
  6  7  2  0
  8  6  1  0
  9 10  1  1
  9  8  1  0
 11 10  1  0
 11 12  1  0
 13 12  1  0
 13 14  1  0
 15  9  1  0
 16 15  2  0
 17 15  1  0
 18 17  1  0
 18 19  1  6
 19 20  1  0
 20 21  2  0
 21 22  1  0
 23 22  1  0
 24 20  1  0
 24 23  2  0
 25 26  1  0
 25 18  1  0
 27 25  2  0
M  END
$$$$
