TKH.pdb
     RDKit          3D

 27 27  0  0  1  0  0  0  0  0999 V2000
   25.5378  -35.6235  -11.3017 C   0  0  0  0  0  0  0  0  0  0  0  0
   26.0498  -34.6235  -10.3037 C   0  0  1  0  0  0  0  0  0  0  0  0
   27.4120  -34.7497  -10.0823 O   0  0  0  0  0  0  0  0  0  0  0  0
   25.7153  -33.1999  -10.7726 C   0  0  2  0  0  0  0  0  0  0  0  0
   26.8416  -32.3306  -10.4739 N   0  0  0  0  0  0  0  0  0  0  0  0
   24.5836  -32.7467   -9.9313 C   0  0  0  0  0  0  0  0  0  0  0  0
   24.8462  -31.9271   -9.0102 O   0  0  0  0  0  0  0  0  0  0  0  0
   23.2593  -33.1620  -10.0883 N   0  0  0  0  0  0  0  0  0  0  0  0
   22.1352  -32.6425   -9.2922 C   0  0  1  0  0  0  0  0  0  0  0  0
   20.9418  -32.4791  -10.1754 C   0  0  0  0  0  0  0  0  0  0  0  0
   19.7046  -31.9945   -9.5413 C   0  0  0  0  0  0  0  0  0  0  0  0
   18.5538  -31.7649  -10.5004 C   0  0  0  0  0  0  0  0  0  0  0  0
   17.3382  -31.2259   -9.7321 C   0  0  0  0  0  0  0  0  0  0  0  0
   16.2326  -30.9959  -10.6202 N   0  0  0  0  0  0  0  0  0  0  0  0
   21.9465  -33.5546   -8.1436 C   0  0  0  0  0  0  0  0  0  0  0  0
   22.0483  -34.8077   -8.3688 O   0  0  0  0  0  0  0  0  0  0  0  0
   21.6692  -33.1809   -6.8304 N   0  0  0  0  0  0  0  0  0  0  0  0
   21.5331  -34.1361   -5.7281 C   0  0  1  0  0  0  0  0  0  0  0  0
   22.2081  -33.6600   -4.4991 C   0  0  0  0  0  0  0  0  0  0  0  0
   23.6759  -33.7298   -4.6467 C   0  0  0  0  0  0  0  0  0  0  0  0
   24.4594  -34.1795   -5.6986 C   0  0  0  0  0  0  0  0  0  0  0  0
   25.7652  -34.0847   -5.3955 N   0  0  0  0  0  0  0  0  0  0  0  0
   25.8181  -33.5818   -4.1673 C   0  0  0  0  0  0  0  0  0  0  0  0
   24.5834  -33.3599   -3.6950 N   0  0  0  0  0  0  0  0  0  0  0  0
   20.1108  -34.4452   -5.5344 C   0  0  0  0  0  0  0  0  0  0  0  0
   19.6789  -35.3532   -4.5716 O   0  0  0  0  0  0  0  0  0  0  0  0
   19.2467  -33.8924   -6.2391 O   0  0  0  0  0  0  0  0  0  0  0  0
  2  3  1  0
  2  1  1  6
  4  2  1  0
  4  5  1  1
  6  4  1  0
  6  7  2  0
  8  6  1  0
  9 10  1  6
  9  8  1  0
 11 10  1  0
 11 12  1  0
 13 12  1  0
 13 14  1  0
 15  9  1  0
 16 15  2  0
 17 15  1  0
 18 17  1  0
 18 19  1  1
 19 20  1  0
 20 21  2  0
 21 22  1  0
 23 22  1  0
 24 20  1  0
 24 23  2  0
 25 26  1  0
 25 18  1  0
 27 25  2  0
M  END
$$$$
