TKH.pdb
     RDKit          3D

 27 27  0  0  1  0  0  0  0  0999 V2000
   22.4465  -12.9156  -14.1354 C   0  0  0  0  0  0  0  0  0  0  0  0
   23.3648  -12.9627  -15.3240 C   0  0  1  0  0  0  0  0  0  0  0  0
   24.5003  -13.7198  -15.0833 O   0  0  0  0  0  0  0  0  0  0  0  0
   22.6098  -13.5072  -16.5455 C   0  0  2  0  0  0  0  0  0  0  0  0
   23.5772  -13.9714  -17.5265 N   0  0  0  0  0  0  0  0  0  0  0  0
   21.9088  -12.3478  -17.1441 C   0  0  0  0  0  0  0  0  0  0  0  0
   22.6159  -11.5066  -17.7618 O   0  0  0  0  0  0  0  0  0  0  0  0
   20.5316  -12.1264  -17.0709 N   0  0  0  0  0  0  0  0  0  0  0  0
   19.8592  -10.9411  -17.6277 C   0  0  1  0  0  0  0  0  0  0  0  0
   18.4097  -11.2449  -17.8227 C   0  0  0  0  0  0  0  0  0  0  0  0
   18.0417  -11.9842  -19.0415 C   0  0  0  0  0  0  0  0  0  0  0  0
   17.1971  -13.2189  -18.7979 C   0  0  0  0  0  0  0  0  0  0  0  0
   16.8513  -13.8832  -20.1386 C   0  0  0  0  0  0  0  0  0  0  0  0
   16.1464  -15.1177  -19.9310 N   0  0  0  0  0  0  0  0  0  0  0  0
   20.1471   -9.8041  -16.7272 C   0  0  0  0  0  0  0  0  0  0  0  0
   19.9607   -9.9864  -15.4768 O   0  0  0  0  0  0  0  0  0  0  0  0
   20.6071   -8.5455  -17.1088 N   0  0  0  0  0  0  0  0  0  0  0  0
   20.7805   -7.4295  -16.1758 C   0  0  1  0  0  0  0  0  0  0  0  0
   21.8303   -6.4890  -16.6298 C   0  0  0  0  0  0  0  0  0  0  0  0
   21.9257   -5.3305  -15.7188 C   0  0  0  0  0  0  0  0  0  0  0  0
   22.0327   -5.2717  -14.3376 C   0  0  0  0  0  0  0  0  0  0  0  0
   22.0681   -3.9963  -13.9156 N   0  0  0  0  0  0  0  0  0  0  0  0
   21.9848   -3.2484  -15.0102 C   0  0  0  0  0  0  0  0  0  0  0  0
   21.8986   -4.0199  -16.1030 N   0  0  0  0  0  0  0  0  0  0  0  0
   19.4789   -6.7899  -15.9462 C   0  0  0  0  0  0  0  0  0  0  0  0
   19.0722   -6.3815  -14.6790 O   0  0  0  0  0  0  0  0  0  0  0  0
   18.6986   -6.5960  -16.8962 O   0  0  0  0  0  0  0  0  0  0  0  0
  2  3  1  0
  2  1  1  1
  4  2  1  0
  4  5  1  6
  6  4  1  0
  6  7  2  0
  8  6  1  0
  9 10  1  1
  9  8  1  0
 11 10  1  0
 11 12  1  0
 13 12  1  0
 13 14  1  0
 15  9  1  0
 16 15  2  0
 17 15  1  0
 18 17  1  0
 18 19  1  6
 19 20  1  0
 20 21  2  0
 21 22  1  0
 23 22  1  0
 24 20  1  0
 24 23  2  0
 25 26  1  0
 25 18  1  0
 27 25  2  0
M  END
$$$$
