TKH.pdb
     RDKit          3D

 27 27  0  0  1  0  0  0  0  0999 V2000
   18.2231   -7.4590  -21.7510 C   0  0  0  0  0  0  0  0  0  0  0  0
   16.7923   -7.2852  -22.1762 C   0  0  1  0  0  0  0  0  0  0  0  0
   16.6735   -7.0196  -23.5312 O   0  0  0  0  0  0  0  0  0  0  0  0
   15.9818   -8.5357  -21.8047 C   0  0  2  0  0  0  0  0  0  0  0  0
   14.5761   -8.2808  -22.0738 N   0  0  0  0  0  0  0  0  0  0  0  0
   16.1203   -8.6930  -20.3385 C   0  0  0  0  0  0  0  0  0  0  0  0
   15.3725   -7.9837  -19.6126 O   0  0  0  0  0  0  0  0  0  0  0  0
   17.0141   -9.5651  -19.7128 N   0  0  0  0  0  0  0  0  0  0  0  0
   17.0604   -9.7906  -18.2588 C   0  0  1  0  0  0  0  0  0  0  0  0
   17.0499  -11.2597  -17.9889 C   0  0  0  0  0  0  0  0  0  0  0  0
   17.1905  -11.6806  -16.5851 C   0  0  0  0  0  0  0  0  0  0  0  0
   17.0537  -13.1729  -16.3586 C   0  0  0  0  0  0  0  0  0  0  0  0
   16.9962  -13.4655  -14.8520 C   0  0  0  0  0  0  0  0  0  0  0  0
   16.6959  -14.8495  -14.6109 N   0  0  0  0  0  0  0  0  0  0  0  0
   18.2368   -9.0641  -17.7346 C   0  0  0  0  0  0  0  0  0  0  0  0
   19.3705   -9.3307  -18.2592 O   0  0  0  0  0  0  0  0  0  0  0  0
   18.2320   -8.1091  -16.7202 N   0  0  0  0  0  0  0  0  0  0  0  0
   19.4447   -7.4695  -16.2043 C   0  0  1  0  0  0  0  0  0  0  0  0
   19.1903   -6.0786  -15.7645 C   0  0  0  0  0  0  0  0  0  0  0  0
   20.4129   -5.4773  -15.1943 C   0  0  0  0  0  0  0  0  0  0  0  0
   21.4014   -4.7045  -15.7844 C   0  0  0  0  0  0  0  0  0  0  0  0
   22.3553   -4.3875  -14.8925 N   0  0  0  0  0  0  0  0  0  0  0  0
   21.9840   -4.9491  -13.7474 C   0  0  0  0  0  0  0  0  0  0  0  0
   20.8260   -5.6072  -13.8987 N   0  0  0  0  0  0  0  0  0  0  0  0
   20.0265   -8.3189  -15.1574 C   0  0  0  0  0  0  0  0  0  0  0  0
   21.4007   -8.5094  -15.0426 O   0  0  0  0  0  0  0  0  0  0  0  0
   19.2904   -8.8964  -14.3366 O   0  0  0  0  0  0  0  0  0  0  0  0
  2  3  1  0
  2  1  1  6
  4  2  1  0
  4  5  1  1
  6  4  1  0
  6  7  2  0
  8  6  1  0
  9 10  1  6
  9  8  1  0
 11 10  1  0
 11 12  1  0
 13 12  1  0
 13 14  1  0
 15  9  1  0
 16 15  2  0
 17 15  1  0
 18 17  1  0
 18 19  1  1
 19 20  1  0
 20 21  2  0
 21 22  1  0
 23 22  1  0
 24 20  1  0
 24 23  2  0
 25 26  1  0
 25 18  1  0
 27 25  2  0
M  END
$$$$
