TKH.pdb
     RDKit          3D

 27 27  0  0  1  0  0  0  0  0999 V2000
   16.2720  -19.2276  -19.4100 C   0  0  0  0  0  0  0  0  0  0  0  0
   17.0609  -18.1248  -18.7621 C   0  0  1  0  0  0  0  0  0  0  0  0
   16.3629  -17.5111  -17.7341 O   0  0  0  0  0  0  0  0  0  0  0  0
   18.3984  -18.6744  -18.2449 C   0  0  2  0  0  0  0  0  0  0  0  0
   18.1415  -19.5356  -17.1022 N   0  0  0  0  0  0  0  0  0  0  0  0
   19.1556  -17.5043  -17.7434 C   0  0  0  0  0  0  0  0  0  0  0  0
   18.9819  -17.1832  -16.5369 O   0  0  0  0  0  0  0  0  0  0  0  0
   20.0398  -16.7411  -18.5095 N   0  0  0  0  0  0  0  0  0  0  0  0
   20.8591  -15.6440  -17.9690 C   0  0  1  0  0  0  0  0  0  0  0  0
   22.1450  -15.5723  -18.7258 C   0  0  0  0  0  0  0  0  0  0  0  0
   23.1776  -16.5635  -18.3809 C   0  0  0  0  0  0  0  0  0  0  0  0
   24.4098  -16.5216  -19.2622 C   0  0  0  0  0  0  0  0  0  0  0  0
   25.3315  -17.7017  -18.9213 C   0  0  0  0  0  0  0  0  0  0  0  0
   26.5231  -17.6684  -19.7230 N   0  0  0  0  0  0  0  0  0  0  0  0
   20.0373  -14.4154  -18.0093 C   0  0  0  0  0  0  0  0  0  0  0  0
   19.3335  -14.2164  -19.0565 O   0  0  0  0  0  0  0  0  0  0  0  0
   19.9512  -13.4473  -17.0110 N   0  0  0  0  0  0  0  0  0  0  0  0
   19.0718  -12.2784  -17.0901 C   0  0  1  0  0  0  0  0  0  0  0  0
   18.8970  -11.6294  -15.7706 C   0  0  0  0  0  0  0  0  0  0  0  0
   18.0292  -10.4396  -15.8827 C   0  0  0  0  0  0  0  0  0  0  0  0
   17.3743   -9.8969  -16.9777 C   0  0  0  0  0  0  0  0  0  0  0  0
   16.7060   -8.7839  -16.6306 N   0  0  0  0  0  0  0  0  0  0  0  0
   16.9293   -8.6154  -15.3321 C   0  0  0  0  0  0  0  0  0  0  0  0
   17.7174   -9.5909  -14.8587 N   0  0  0  0  0  0  0  0  0  0  0  0
   19.5739  -11.3702  -18.1289 C   0  0  0  0  0  0  0  0  0  0  0  0
   20.9342  -11.2280  -18.3883 O   0  0  0  0  0  0  0  0  0  0  0  0
   18.7800  -10.6968  -18.8110 O   0  0  0  0  0  0  0  0  0  0  0  0
  2  3  1  0
  2  1  1  1
  4  2  1  0
  4  5  1  1
  6  4  1  0
  6  7  2  0
  8  6  1  0
  9 10  1  6
  9  8  1  0
 11 10  1  0
 11 12  1  0
 13 12  1  0
 13 14  1  0
 15  9  1  0
 16 15  2  0
 17 15  1  0
 18 17  1  0
 18 19  1  1
 19 20  1  0
 20 21  2  0
 21 22  1  0
 23 22  1  0
 24 20  1  0
 24 23  2  0
 25 26  1  0
 25 18  1  0
 27 25  2  0
M  END
$$$$
