WCQ.pdb
     RDKit          3D

 30 31  0  0  1  0  0  0  0  0999 V2000
   23.2713  -19.6896  -15.0303 N   0  0  0  0  0  0  0  0  0  0  0  0
   21.9691  -19.7628  -14.4648 C   0  0  1  0  0  0  0  0  0  0  0  0
   20.9349  -20.1886  -15.4767 C   0  0  0  0  0  0  0  0  0  0  0  0
   20.7031  -19.2079  -16.5412 C   0  0  0  0  0  0  0  0  0  0  0  0
   21.6768  -18.3687  -17.1029 C   0  0  0  0  0  0  0  0  0  0  0  0
   21.1423  -17.6181  -18.0547 N   0  0  0  0  0  0  0  0  0  0  0  0
   19.8339  -17.9074  -18.1717 C   0  0  0  0  0  0  0  0  0  0  0  0
   18.8352  -17.4375  -18.9711 C   0  0  0  0  0  0  0  0  0  0  0  0
   17.5521  -17.9340  -18.8545 C   0  0  0  0  0  0  0  0  0  0  0  0
   17.2691  -18.9126  -17.9250 C   0  0  0  0  0  0  0  0  0  0  0  0
   18.2690  -19.3883  -17.1194 C   0  0  0  0  0  0  0  0  0  0  0  0
   19.5551  -18.8900  -17.2381 C   0  0  0  0  0  0  0  0  0  0  0  0
   21.9159  -20.7036  -13.2910 C   0  0  0  0  0  0  0  0  0  0  0  0
   22.6782  -21.7013  -13.3023 O   0  0  0  0  0  0  0  0  0  0  0  0
   21.0665  -20.5257  -12.1959 N   0  0  0  0  0  0  0  0  0  0  0  0
   21.0726  -21.3568  -10.9855 C   0  0  1  0  0  0  0  0  0  0  0  0
   21.4021  -20.4941   -9.7908 C   0  0  0  0  0  0  0  0  0  0  0  0
   20.3964  -19.0055   -9.8454 S   0  0  0  0  0  0  0  0  0  0  0  0
   19.7285  -21.9347  -10.8678 C   0  0  0  0  0  0  0  0  0  0  0  0
   18.7142  -21.1955  -11.0453 O   0  0  0  0  0  0  0  0  0  0  0  0
   18.8225  -24.7087   -5.8717 N   0  0  0  0  0  0  0  0  0  0  0  0
   17.5111  -24.8105   -6.4034 C   0  0  0  0  0  0  0  0  0  0  0  0
   16.5709  -25.1184   -5.6332 O   0  0  0  0  0  0  0  0  0  0  0  0
   17.2359  -24.5608   -7.8426 C   0  0  0  0  0  0  0  0  0  0  0  0
   18.5014  -24.1209   -8.5366 C   0  0  0  0  0  0  0  0  0  0  0  0
   18.2731  -23.7782   -9.9836 C   0  0  2  0  0  0  0  0  0  0  0  0
   19.5159  -23.2820  -10.5682 N   0  0  0  0  0  0  0  0  0  0  0  0
   17.2117  -22.7624  -10.1464 C   0  0  0  0  0  0  0  0  0  0  0  0
   16.0353  -23.0777  -10.4584 O   0  0  0  0  0  0  0  0  0  0  0  0
   17.4596  -21.4060   -9.9630 O   0  0  0  0  0  0  0  0  0  0  0  0
  2  3  1  0
  2  1  1  6
  2 13  1  0
  3  4  1  0
  4 12  1  0
  4  5  2  0
  5  6  1  0
  7  6  1  0
  7  8  2  0
  9  8  1  0
 10  9  2  0
 11 12  2  0
 11 10  1  0
 12  7  1  0
 13 14  2  0
 15 13  1  0
 15 16  1  0
 16 19  1  0
 16 17  1  1
 18 17  1  0
 19 20  2  0
 21 22  1  0
 22 23  2  0
 24 22  1  0
 24 25  1  0
 26 25  1  1
 26 28  1  0
 27 26  1  0
 27 19  1  0
 28 29  2  0
 28 30  1  0
M  END
$$$$
