WCQ.pdb
     RDKit          3D

 30 31  0  0  1  0  0  0  0  0999 V2000
   29.5605  -19.9695  -15.3240 N   0  0  0  0  0  0  0  0  0  0  0  0
   28.1551  -19.7552  -15.3194 C   0  0  1  0  0  0  0  0  0  0  0  0
   27.5330  -20.0473  -16.6621 C   0  0  0  0  0  0  0  0  0  0  0  0
   26.5966  -19.0176  -17.1221 C   0  0  0  0  0  0  0  0  0  0  0  0
   26.9537  -17.7693  -17.6532 C   0  0  0  0  0  0  0  0  0  0  0  0
   25.8695  -17.0863  -17.9895 N   0  0  0  0  0  0  0  0  0  0  0  0
   24.7752  -17.8168  -17.7100 C   0  0  0  0  0  0  0  0  0  0  0  0
   23.4375  -17.5960  -17.8475 C   0  0  0  0  0  0  0  0  0  0  0  0
   22.5250  -18.5548  -17.4546 C   0  0  0  0  0  0  0  0  0  0  0  0
   22.9608  -19.7480  -16.9178 C   0  0  0  0  0  0  0  0  0  0  0  0
   24.3039  -19.9749  -16.7776 C   0  0  0  0  0  0  0  0  0  0  0  0
   25.2175  -19.0128  -17.1727 C   0  0  0  0  0  0  0  0  0  0  0  0
   27.4614  -20.5846  -14.2723 C   0  0  0  0  0  0  0  0  0  0  0  0
   27.7985  -21.7887  -14.1576 O   0  0  0  0  0  0  0  0  0  0  0  0
   26.4668  -20.0870  -13.4263 N   0  0  0  0  0  0  0  0  0  0  0  0
   25.8974  -20.8120  -12.2835 C   0  0  1  0  0  0  0  0  0  0  0  0
   26.2488  -20.0852  -11.0075 C   0  0  0  0  0  0  0  0  0  0  0  0
   25.5257  -20.9606   -9.6141 S   0  0  0  0  0  0  0  0  0  0  0  0
   24.4447  -20.8463  -12.4914 C   0  0  0  0  0  0  0  0  0  0  0  0
   23.7996  -19.7578  -12.5666 O   0  0  0  0  0  0  0  0  0  0  0  0
   23.5104  -25.2267  -14.3529 N   0  0  0  0  0  0  0  0  0  0  0  0
   22.3697  -24.7402  -15.0420 C   0  0  0  0  0  0  0  0  0  0  0  0
   22.1982  -25.0780  -16.2372 O   0  0  0  0  0  0  0  0  0  0  0  0
   21.3849  -23.8463  -14.3781 C   0  0  0  0  0  0  0  0  0  0  0  0
   21.8514  -23.5195  -12.9809 C   0  0  0  0  0  0  0  0  0  0  0  0
   22.2921  -22.0877  -12.8431 C   0  0  2  0  0  0  0  0  0  0  0  0
   23.7337  -22.0420  -12.6150 N   0  0  0  0  0  0  0  0  0  0  0  0
   21.5955  -21.4032  -11.7335 C   0  0  0  0  0  0  0  0  0  0  0  0
   22.1463  -21.2200  -10.6182 O   0  0  0  0  0  0  0  0  0  0  0  0
   20.2953  -20.9267  -11.8658 O   0  0  0  0  0  0  0  0  0  0  0  0
  2  3  1  0
  2  1  1  6
  2 13  1  0
  3  4  1  0
  4 12  1  0
  4  5  2  0
  5  6  1  0
  7  6  1  0
  7  8  2  0
  9  8  1  0
 10  9  2  0
 11 12  2  0
 11 10  1  0
 12  7  1  0
 13 14  2  0
 15 13  1  0
 15 16  1  0
 16 19  1  0
 16 17  1  1
 18 17  1  0
 19 20  2  0
 21 22  1  0
 22 23  2  0
 24 22  1  0
 24 25  1  0
 26 25  1  1
 26 28  1  0
 27 26  1  0
 27 19  1  0
 28 29  2  0
 28 30  1  0
M  END
$$$$
