WCQ.pdb
     RDKit          3D

 30 31  0  0  1  0  0  0  0  0999 V2000
   23.8507  -20.1948  -14.0335 N   0  0  0  0  0  0  0  0  0  0  0  0
   24.0122  -20.2299  -12.6215 C   0  0  1  0  0  0  0  0  0  0  0  0
   24.8428  -19.0763  -12.1173 C   0  0  0  0  0  0  0  0  0  0  0  0
   26.2469  -19.1249  -12.5354 C   0  0  0  0  0  0  0  0  0  0  0  0
   26.7787  -18.5108  -13.6792 C   0  0  0  0  0  0  0  0  0  0  0  0
   28.0828  -18.7315  -13.7543 N   0  0  0  0  0  0  0  0  0  0  0  0
   28.4725  -19.4763  -12.7042 C   0  0  0  0  0  0  0  0  0  0  0  0
   29.6730  -19.9828  -12.3050 C   0  0  0  0  0  0  0  0  0  0  0  0
   29.7665  -20.7389  -11.1536 C   0  0  0  0  0  0  0  0  0  0  0  0
   28.6423  -20.9889  -10.3951 C   0  0  0  0  0  0  0  0  0  0  0  0
   27.4336  -20.4821  -10.7916 C   0  0  0  0  0  0  0  0  0  0  0  0
   27.3416  -19.7237  -11.9460 C   0  0  0  0  0  0  0  0  0  0  0  0
   22.6899  -20.2269  -11.9022 C   0  0  0  0  0  0  0  0  0  0  0  0
   22.4261  -19.2484  -11.1609 O   0  0  0  0  0  0  0  0  0  0  0  0
   21.7462  -21.2511  -12.0156 N   0  0  0  0  0  0  0  0  0  0  0  0
   20.5010  -21.3341  -11.2421 C   0  0  1  0  0  0  0  0  0  0  0  0
   19.6407  -20.1327  -11.5531 C   0  0  0  0  0  0  0  0  0  0  0  0
   19.3908  -20.0329  -13.3303 S   0  0  0  0  0  0  0  0  0  0  0  0
   19.8388  -22.5798  -11.6474 C   0  0  0  0  0  0  0  0  0  0  0  0
   19.9482  -22.9835  -12.8439 O   0  0  0  0  0  0  0  0  0  0  0  0
   17.4455  -28.7247   -8.8087 N   0  0  0  0  0  0  0  0  0  0  0  0
   16.9915  -27.4020   -9.0471 C   0  0  0  0  0  0  0  0  0  0  0  0
   16.2744  -26.8459   -8.1819 O   0  0  0  0  0  0  0  0  0  0  0  0
   17.3479  -26.6719  -10.2919 C   0  0  0  0  0  0  0  0  0  0  0  0
   18.0328  -25.3730   -9.9448 C   0  0  0  0  0  0  0  0  0  0  0  0
   18.3776  -24.5622  -11.1643 C   0  0  2  0  0  0  0  0  0  0  0  0
   19.0863  -23.3514  -10.7593 N   0  0  0  0  0  0  0  0  0  0  0  0
   17.1727  -24.1932  -11.9369 C   0  0  0  0  0  0  0  0  0  0  0  0
   16.6020  -23.0834  -11.7841 O   0  0  0  0  0  0  0  0  0  0  0  0
   16.6084  -25.0542  -12.8725 O   0  0  0  0  0  0  0  0  0  0  0  0
  2  3  1  0
  2  1  1  6
  2 13  1  0
  3  4  1  0
  4 12  1  0
  4  5  2  0
  5  6  1  0
  7  6  1  0
  7  8  2  0
  9  8  1  0
 10  9  2  0
 11 12  2  0
 11 10  1  0
 12  7  1  0
 13 14  2  0
 15 13  1  0
 15 16  1  0
 16 19  1  0
 16 17  1  6
 18 17  1  0
 19 20  2  0
 21 22  1  0
 22 23  2  0
 24 22  1  0
 24 25  1  0
 26 25  1  1
 26 28  1  0
 27 26  1  0
 27 19  1  0
 28 29  2  0
 28 30  1  0
M  END
$$$$
