WCQ.pdb
     RDKit          3D

 30 31  0  0  1  0  0  0  0  0999 V2000
   28.0438  -20.1658  -11.4813 N   0  0  0  0  0  0  0  0  0  0  0  0
   26.9587  -21.0804  -11.3966 C   0  0  1  0  0  0  0  0  0  0  0  0
   26.6958  -21.5178   -9.9773 C   0  0  0  0  0  0  0  0  0  0  0  0
   27.6987  -21.0530   -9.0146 C   0  0  0  0  0  0  0  0  0  0  0  0
   27.5042  -20.0469   -8.0563 C   0  0  0  0  0  0  0  0  0  0  0  0
   28.6016  -19.8843   -7.3323 N   0  0  0  0  0  0  0  0  0  0  0  0
   29.5484  -20.7412   -7.7550 C   0  0  0  0  0  0  0  0  0  0  0  0
   30.8334  -20.9854   -7.3726 C   0  0  0  0  0  0  0  0  0  0  0  0
   31.5849  -21.9486   -8.0159 C   0  0  0  0  0  0  0  0  0  0  0  0
   31.0399  -22.6741   -9.0543 C   0  0  0  0  0  0  0  0  0  0  0  0
   29.7491  -22.4328   -9.4424 C   0  0  0  0  0  0  0  0  0  0  0  0
   28.9967  -21.4671   -8.7959 C   0  0  0  0  0  0  0  0  0  0  0  0
   25.6911  -20.5065  -11.9704 C   0  0  0  0  0  0  0  0  0  0  0  0
   25.2719  -19.4203  -11.5002 O   0  0  0  0  0  0  0  0  0  0  0  0
   24.9602  -21.1166  -12.9932 N   0  0  0  0  0  0  0  0  0  0  0  0
   23.7185  -20.5854  -13.5692 C   0  0  1  0  0  0  0  0  0  0  0  0
   24.0513  -19.7353  -14.7719 C   0  0  0  0  0  0  0  0  0  0  0  0
   25.6024  -20.3023  -15.4815 S   0  0  0  0  0  0  0  0  0  0  0  0
   22.9034  -21.7455  -13.9489 C   0  0  0  0  0  0  0  0  0  0  0  0
   23.4736  -22.8019  -14.3559 O   0  0  0  0  0  0  0  0  0  0  0  0
   18.0199  -22.5737  -10.3627 N   0  0  0  0  0  0  0  0  0  0  0  0
   19.2483  -22.1618  -10.9406 C   0  0  0  0  0  0  0  0  0  0  0  0
   19.6555  -20.9960  -10.7233 O   0  0  0  0  0  0  0  0  0  0  0  0
   20.0523  -23.0791  -11.7902 C   0  0  0  0  0  0  0  0  0  0  0  0
   19.5628  -23.0163  -13.2160 C   0  0  0  0  0  0  0  0  0  0  0  0
   20.6904  -22.9009  -14.2054 C   0  0  2  0  0  0  0  0  0  0  0  0
   21.5088  -21.7369  -13.8770 N   0  0  0  0  0  0  0  0  0  0  0  0
   20.1936  -22.7789  -15.5922 C   0  0  0  0  0  0  0  0  0  0  0  0
   20.3185  -21.7143  -16.2494 O   0  0  0  0  0  0  0  0  0  0  0  0
   19.5625  -23.8350  -16.2414 O   0  0  0  0  0  0  0  0  0  0  0  0
  2  3  1  0
  2  1  1  1
  2 13  1  0
  3  4  1  0
  4 12  1  0
  4  5  2  0
  5  6  1  0
  7  6  1  0
  7  8  2  0
  9  8  1  0
 10  9  2  0
 11 12  2  0
 11 10  1  0
 12  7  1  0
 13 14  2  0
 15 13  1  0
 15 16  1  0
 16 19  1  0
 16 17  1  6
 18 17  1  0
 19 20  2  0
 21 22  1  0
 22 23  2  0
 24 22  1  0
 24 25  1  0
 26 25  1  1
 26 28  1  0
 27 26  1  0
 27 19  1  0
 28 29  2  0
 28 30  1  0
M  END
$$$$
