WCQ.pdb
     RDKit          3D

 30 31  0  0  1  0  0  0  0  0999 V2000
   27.4658  -19.9703  -16.4806 N   0  0  0  0  0  0  0  0  0  0  0  0
   27.3773  -19.6382  -15.1012 C   0  0  1  0  0  0  0  0  0  0  0  0
   26.7459  -18.2859  -14.8833 C   0  0  0  0  0  0  0  0  0  0  0  0
   27.3275  -17.2175  -15.7011 C   0  0  0  0  0  0  0  0  0  0  0  0
   26.6343  -16.1063  -16.2038 C   0  0  0  0  0  0  0  0  0  0  0  0
   27.4565  -15.3218  -16.8848 N   0  0  0  0  0  0  0  0  0  0  0  0
   28.6934  -15.8503  -16.8717 C   0  0  0  0  0  0  0  0  0  0  0  0
   29.8854  -15.4658  -17.4088 C   0  0  0  0  0  0  0  0  0  0  0  0
   31.0161  -16.2376  -17.2296 C   0  0  0  0  0  0  0  0  0  0  0  0
   30.9488  -17.4080  -16.5035 C   0  0  0  0  0  0  0  0  0  0  0  0
   29.7535  -17.7987  -15.9615 C   0  0  0  0  0  0  0  0  0  0  0  0
   28.6209  -17.0234  -16.1415 C   0  0  0  0  0  0  0  0  0  0  0  0
   26.6025  -20.6669  -14.3219 C   0  0  0  0  0  0  0  0  0  0  0  0
   25.9654  -21.5358  -14.9667 O   0  0  0  0  0  0  0  0  0  0  0  0
   26.5554  -20.7046  -12.9259 N   0  0  0  0  0  0  0  0  0  0  0  0
   25.5957  -21.4897  -12.1396 C   0  0  1  0  0  0  0  0  0  0  0  0
   25.9729  -21.4196  -10.6792 C   0  0  0  0  0  0  0  0  0  0  0  0
   25.7809  -19.7278  -10.1032 S   0  0  0  0  0  0  0  0  0  0  0  0
   24.2749  -20.8942  -12.3755 C   0  0  0  0  0  0  0  0  0  0  0  0
   24.1923  -19.7705  -12.9562 O   0  0  0  0  0  0  0  0  0  0  0  0
   20.7405  -18.5999  -15.5470 N   0  0  0  0  0  0  0  0  0  0  0  0
   20.1595  -19.3481  -14.4909 C   0  0  0  0  0  0  0  0  0  0  0  0
   19.5232  -18.7380  -13.5994 O   0  0  0  0  0  0  0  0  0  0  0  0
   20.2910  -20.8272  -14.4242 C   0  0  0  0  0  0  0  0  0  0  0  0
   21.6619  -21.1963  -13.9133 C   0  0  0  0  0  0  0  0  0  0  0  0
   21.7716  -21.0663  -12.4184 C   0  0  2  0  0  0  0  0  0  0  0  0
   23.0898  -21.5217  -11.9856 N   0  0  0  0  0  0  0  0  0  0  0  0
   20.7272  -21.8462  -11.7214 C   0  0  0  0  0  0  0  0  0  0  0  0
   20.8398  -23.0842  -11.5331 O   0  0  0  0  0  0  0  0  0  0  0  0
   19.5664  -21.2511  -11.2381 O   0  0  0  0  0  0  0  0  0  0  0  0
  2  3  1  0
  2  1  1  6
  2 13  1  0
  3  4  1  0
  4 12  1  0
  4  5  2  0
  5  6  1  0
  7  6  1  0
  7  8  2  0
  9  8  1  0
 10  9  2  0
 11 12  2  0
 11 10  1  0
 12  7  1  0
 13 14  2  0
 15 13  1  0
 15 16  1  0
 16 19  1  0
 16 17  1  1
 18 17  1  0
 19 20  2  0
 21 22  1  0
 22 23  2  0
 24 22  1  0
 24 25  1  0
 26 25  1  6
 26 28  1  0
 27 26  1  0
 27 19  1  0
 28 29  2  0
 28 30  1  0
M  END
$$$$
