WCQ.pdb
     RDKit          3D

 30 31  0  0  1  0  0  0  0  0999 V2000
   26.5916  -22.8405  -13.1520 N   0  0  0  0  0  0  0  0  0  0  0  0
   25.9034  -21.8567  -12.3908 C   0  0  1  0  0  0  0  0  0  0  0  0
   26.7259  -20.6061  -12.2050 C   0  0  0  0  0  0  0  0  0  0  0  0
   27.7391  -20.7100  -11.1508 C   0  0  0  0  0  0  0  0  0  0  0  0
   29.1010  -20.9794  -11.3526 C   0  0  0  0  0  0  0  0  0  0  0  0
   29.7444  -20.9846  -10.1945 N   0  0  0  0  0  0  0  0  0  0  0  0
   28.8769  -20.7290   -9.1988 C   0  0  0  0  0  0  0  0  0  0  0  0
   29.0029  -20.6264   -7.8458 C   0  0  0  0  0  0  0  0  0  0  0  0
   27.9018  -20.3551   -7.0581 C   0  0  0  0  0  0  0  0  0  0  0  0
   26.6612  -20.1851   -7.6356 C   0  0  0  0  0  0  0  0  0  0  0  0
   26.5292  -20.2869   -8.9948 C   0  0  0  0  0  0  0  0  0  0  0  0
   27.6343  -20.5583   -9.7832 C   0  0  0  0  0  0  0  0  0  0  0  0
   24.5849  -21.4825  -13.0130 C   0  0  0  0  0  0  0  0  0  0  0  0
   24.4812  -21.5597  -14.2619 O   0  0  0  0  0  0  0  0  0  0  0  0
   23.4765  -21.0555  -12.2769 N   0  0  0  0  0  0  0  0  0  0  0  0
   22.1036  -20.9846  -12.7925 C   0  0  1  0  0  0  0  0  0  0  0  0
   21.1361  -21.3033  -11.6779 C   0  0  0  0  0  0  0  0  0  0  0  0
   19.4580  -21.0254  -12.2588 S   0  0  0  0  0  0  0  0  0  0  0  0
   21.9120  -19.6154  -13.2858 C   0  0  0  0  0  0  0  0  0  0  0  0
   22.1441  -18.6366  -12.5147 O   0  0  0  0  0  0  0  0  0  0  0  0
   21.9751  -15.8808  -19.4386 N   0  0  0  0  0  0  0  0  0  0  0  0
   22.6029  -16.3325  -18.2492 C   0  0  0  0  0  0  0  0  0  0  0  0
   23.8147  -16.6515  -18.2913 O   0  0  0  0  0  0  0  0  0  0  0  0
   21.8564  -16.4329  -16.9678 C   0  0  0  0  0  0  0  0  0  0  0  0
   22.0347  -17.8104  -16.3785 C   0  0  0  0  0  0  0  0  0  0  0  0
   21.2844  -17.9833  -15.0860 C   0  0  2  0  0  0  0  0  0  0  0  0
   21.4826  -19.3409  -14.5860 N   0  0  0  0  0  0  0  0  0  0  0  0
   19.8384  -17.7251  -15.2518 C   0  0  0  0  0  0  0  0  0  0  0  0
   19.0202  -18.6546  -15.4695 O   0  0  0  0  0  0  0  0  0  0  0  0
   19.3085  -16.4412  -15.1755 O   0  0  0  0  0  0  0  0  0  0  0  0
  2  3  1  0
  2  1  1  6
  2 13  1  0
  3  4  1  0
  4 12  1  0
  4  5  2  0
  5  6  1  0
  7  6  1  0
  7  8  2  0
  9  8  1  0
 10  9  2  0
 11 12  2  0
 11 10  1  0
 12  7  1  0
 13 14  2  0
 15 13  1  0
 15 16  1  0
 16 19  1  0
 16 17  1  1
 18 17  1  0
 19 20  2  0
 21 22  1  0
 22 23  2  0
 24 22  1  0
 24 25  1  0
 26 25  1  6
 26 28  1  0
 27 26  1  0
 27 19  1  0
 28 29  2  0
 28 30  1  0
M  END
$$$$
