WCQ.pdb
     RDKit          3D

 30 31  0  0  1  0  0  0  0  0999 V2000
   20.3792  -18.1295  -17.9539 N   0  0  0  0  0  0  0  0  0  0  0  0
   20.8517  -19.1453  -17.0787 C   0  0  1  0  0  0  0  0  0  0  0  0
   22.2921  -18.9303  -16.6864 C   0  0  0  0  0  0  0  0  0  0  0  0
   23.2260  -18.9418  -17.8162 C   0  0  0  0  0  0  0  0  0  0  0  0
   23.8995  -17.8230  -18.3287 C   0  0  0  0  0  0  0  0  0  0  0  0
   24.6826  -18.1802  -19.3358 N   0  0  0  0  0  0  0  0  0  0  0  0
   24.5751  -19.5056  -19.5388 C   0  0  0  0  0  0  0  0  0  0  0  0
   25.1421  -20.3694  -20.4273 C   0  0  0  0  0  0  0  0  0  0  0  0
   24.8243  -21.7127  -20.3988 C   0  0  0  0  0  0  0  0  0  0  0  0
   23.9275  -22.1935  -19.4681 C   0  0  0  0  0  0  0  0  0  0  0  0
   23.3551  -21.3297  -18.5729 C   0  0  0  0  0  0  0  0  0  0  0  0
   23.6752  -19.9832  -18.6023 C   0  0  0  0  0  0  0  0  0  0  0  0
   20.0182  -19.2462  -15.8295 C   0  0  0  0  0  0  0  0  0  0  0  0
   19.7631  -18.1867  -15.2057 O   0  0  0  0  0  0  0  0  0  0  0  0
   19.5168  -20.4511  -15.3302 N   0  0  0  0  0  0  0  0  0  0  0  0
   18.4569  -20.5647  -14.3205 C   0  0  1  0  0  0  0  0  0  0  0  0
   17.2030  -19.9012  -14.8379 C   0  0  0  0  0  0  0  0  0  0  0  0
   16.6636  -20.7462  -16.3298 S   0  0  0  0  0  0  0  0  0  0  0  0
   18.2440  -21.9997  -14.0969 C   0  0  0  0  0  0  0  0  0  0  0  0
   18.1781  -22.7828  -15.0914 O   0  0  0  0  0  0  0  0  0  0  0  0
   19.0220  -25.2949   -8.7300 N   0  0  0  0  0  0  0  0  0  0  0  0
   17.9868  -24.3279   -8.8078 C   0  0  0  0  0  0  0  0  0  0  0  0
   17.4214  -23.9639   -7.7496 O   0  0  0  0  0  0  0  0  0  0  0  0
   17.5655  -23.7453  -10.1088 C   0  0  0  0  0  0  0  0  0  0  0  0
   18.3759  -24.3523  -11.2275 C   0  0  0  0  0  0  0  0  0  0  0  0
   17.8581  -23.9663  -12.5863 C   0  0  2  0  0  0  0  0  0  0  0  0
   18.1125  -22.5473  -12.8189 N   0  0  0  0  0  0  0  0  0  0  0  0
   16.4109  -24.2360  -12.7193 C   0  0  0  0  0  0  0  0  0  0  0  0
   15.5624  -23.3083  -12.7308 O   0  0  0  0  0  0  0  0  0  0  0  0
   15.9132  -25.5295  -12.8385 O   0  0  0  0  0  0  0  0  0  0  0  0
  2  3  1  0
  2  1  1  6
  2 13  1  0
  3  4  1  0
  4 12  1  0
  4  5  2  0
  5  6  1  0
  7  6  1  0
  7  8  2  0
  9  8  1  0
 10  9  2  0
 11 12  2  0
 11 10  1  0
 12  7  1  0
 13 14  2  0
 15 13  1  0
 15 16  1  0
 16 19  1  0
 16 17  1  6
 18 17  1  0
 19 20  2  0
 21 22  1  0
 22 23  2  0
 24 22  1  0
 24 25  1  0
 26 25  1  1
 26 28  1  0
 27 26  1  0
 27 19  1  0
 28 29  2  0
 28 30  1  0
M  END
$$$$
