WCQ.pdb
     RDKit          3D

 30 31  0  0  1  0  0  0  0  0999 V2000
   27.6970  -22.4501  -16.3342 N   0  0  0  0  0  0  0  0  0  0  0  0
   26.6165  -21.5764  -16.0338 C   0  0  1  0  0  0  0  0  0  0  0  0
   25.5559  -21.5975  -17.1061 C   0  0  0  0  0  0  0  0  0  0  0  0
   25.1703  -20.2685  -17.5896 C   0  0  0  0  0  0  0  0  0  0  0  0
   25.7912  -19.5696  -18.6356 C   0  0  0  0  0  0  0  0  0  0  0  0
   25.1867  -18.4075  -18.8336 N   0  0  0  0  0  0  0  0  0  0  0  0
   24.1702  -18.2770  -17.9623 C   0  0  0  0  0  0  0  0  0  0  0  0
   23.2495  -17.2991  -17.7320 C   0  0  0  0  0  0  0  0  0  0  0  0
   22.3055  -17.4463  -16.7352 C   0  0  0  0  0  0  0  0  0  0  0  0
   22.2862  -18.5877  -15.9616 C   0  0  0  0  0  0  0  0  0  0  0  0
   23.2090  -19.5734  -16.1891 C   0  0  0  0  0  0  0  0  0  0  0  0
   24.1545  -19.4246  -17.1893 C   0  0  0  0  0  0  0  0  0  0  0  0
   25.9765  -21.9046  -14.7116 C   0  0  0  0  0  0  0  0  0  0  0  0
   25.8896  -23.1138  -14.3845 O   0  0  0  0  0  0  0  0  0  0  0  0
   25.4764  -20.9389  -13.8343 N   0  0  0  0  0  0  0  0  0  0  0  0
   24.8900  -21.2236  -12.5187 C   0  0  1  0  0  0  0  0  0  0  0  0
   25.8180  -20.7186  -11.4399 C   0  0  0  0  0  0  0  0  0  0  0  0
   25.1143  -21.1037   -9.8315 S   0  0  0  0  0  0  0  0  0  0  0  0
   23.5987  -20.5269  -12.4763 C   0  0  0  0  0  0  0  0  0  0  0  0
   23.4951  -19.4448  -11.8243 O   0  0  0  0  0  0  0  0  0  0  0  0
   17.6087  -20.8885  -14.7315 N   0  0  0  0  0  0  0  0  0  0  0  0
   18.2699  -21.9935  -14.1360 C   0  0  0  0  0  0  0  0  0  0  0  0
   18.3637  -23.0614  -14.7861 O   0  0  0  0  0  0  0  0  0  0  0  0
   18.8471  -21.9074  -12.7689 C   0  0  0  0  0  0  0  0  0  0  0  0
   20.3390  -22.1251  -12.8290 C   0  0  0  0  0  0  0  0  0  0  0  0
   21.1139  -20.8554  -12.6034 C   0  0  2  0  0  0  0  0  0  0  0  0
   22.4654  -21.0090  -13.1346 N   0  0  0  0  0  0  0  0  0  0  0  0
   21.1849  -20.5030  -11.1696 C   0  0  0  0  0  0  0  0  0  0  0  0
   21.7508  -21.2497  -10.3312 O   0  0  0  0  0  0  0  0  0  0  0  0
   20.6295  -19.3278  -10.6741 O   0  0  0  0  0  0  0  0  0  0  0  0
  2  3  1  0
  2  1  1  6
  2 13  1  0
  3  4  1  0
  4 12  1  0
  4  5  2  0
  5  6  1  0
  7  6  1  0
  7  8  2  0
  9  8  1  0
 10  9  2  0
 11 12  2  0
 11 10  1  0
 12  7  1  0
 13 14  2  0
 15 13  1  0
 15 16  1  0
 16 19  1  0
 16 17  1  1
 18 17  1  0
 19 20  2  0
 21 22  1  0
 22 23  2  0
 24 22  1  0
 24 25  1  0
 26 25  1  1
 26 28  1  0
 27 26  1  0
 27 19  1  0
 28 29  2  0
 28 30  1  0
M  END
$$$$
