WCQ.pdb
     RDKit          3D

 30 31  0  0  1  0  0  0  0  0999 V2000
   27.2727  -20.7100  -16.2466 N   0  0  0  0  0  0  0  0  0  0  0  0
   27.0641  -19.9431  -15.0678 C   0  0  1  0  0  0  0  0  0  0  0  0
   26.1791  -18.7478  -15.3187 C   0  0  0  0  0  0  0  0  0  0  0  0
   26.7511  -17.7661  -16.2448 C   0  0  0  0  0  0  0  0  0  0  0  0
   26.0214  -16.8348  -16.9987 C   0  0  0  0  0  0  0  0  0  0  0  0
   26.8416  -16.0827  -17.7175 N   0  0  0  0  0  0  0  0  0  0  0  0
   28.1122  -16.4601  -17.4885 C   0  0  0  0  0  0  0  0  0  0  0  0
   29.3183  -16.0357  -17.9601 C   0  0  0  0  0  0  0  0  0  0  0  0
   30.4870  -16.6370  -17.5372 C   0  0  0  0  0  0  0  0  0  0  0  0
   30.4438  -17.6757  -16.6312 C   0  0  0  0  0  0  0  0  0  0  0  0
   29.2345  -18.1059  -16.1541 C   0  0  0  0  0  0  0  0  0  0  0  0
   28.0637  -17.5015  -16.5786 C   0  0  0  0  0  0  0  0  0  0  0  0
   26.4661  -20.7656  -13.9581 C   0  0  0  0  0  0  0  0  0  0  0  0
   25.8397  -21.8079  -14.2708 O   0  0  0  0  0  0  0  0  0  0  0  0
   26.5708  -20.4310  -12.6055 N   0  0  0  0  0  0  0  0  0  0  0  0
   25.6942  -20.9422  -11.5444 C   0  0  1  0  0  0  0  0  0  0  0  0
   26.2195  -20.4892  -10.2032 C   0  0  0  0  0  0  0  0  0  0  0  0
   25.0804  -21.0171   -8.9169 S   0  0  0  0  0  0  0  0  0  0  0  0
   24.3583  -20.3923  -11.8040 C   0  0  0  0  0  0  0  0  0  0  0  0
   24.2400  -19.3533  -12.5202 O   0  0  0  0  0  0  0  0  0  0  0  0
   21.5584  -22.4839  -15.7202 N   0  0  0  0  0  0  0  0  0  0  0  0
   20.4155  -21.8239  -15.1997 C   0  0  0  0  0  0  0  0  0  0  0  0
   19.3670  -21.8025  -15.8869 O   0  0  0  0  0  0  0  0  0  0  0  0
   20.4397  -21.1645  -13.8678 C   0  0  0  0  0  0  0  0  0  0  0  0
   21.7899  -21.3618  -13.2239 C   0  0  0  0  0  0  0  0  0  0  0  0
   21.8725  -20.7333  -11.8595 C   0  0  2  0  0  0  0  0  0  0  0  0
   23.1964  -20.9739  -11.2921 N   0  0  0  0  0  0  0  0  0  0  0  0
   20.8402  -21.2668  -10.9459 C   0  0  0  0  0  0  0  0  0  0  0  0
   20.8596  -22.4595  -10.5486 O   0  0  0  0  0  0  0  0  0  0  0  0
   19.7945  -20.4773  -10.4788 O   0  0  0  0  0  0  0  0  0  0  0  0
  2  3  1  0
  2  1  1  6
  2 13  1  0
  3  4  1  0
  4 12  1  0
  4  5  2  0
  5  6  1  0
  7  6  1  0
  7  8  2  0
  9  8  1  0
 10  9  2  0
 11 12  2  0
 11 10  1  0
 12  7  1  0
 13 14  2  0
 15 13  1  0
 15 16  1  0
 16 19  1  0
 16 17  1  1
 18 17  1  0
 19 20  2  0
 21 22  1  0
 22 23  2  0
 24 22  1  0
 24 25  1  0
 26 25  1  6
 26 28  1  0
 27 26  1  0
 27 19  1  0
 28 29  2  0
 28 30  1  0
M  END
$$$$
