WCQ.pdb
     RDKit          3D

 30 31  0  0  1  0  0  0  0  0999 V2000
   26.6662  -19.2089  -12.9061 N   0  0  0  0  0  0  0  0  0  0  0  0
   27.5591  -20.3085  -12.7855 C   0  0  1  0  0  0  0  0  0  0  0  0
   26.9879  -21.4110  -11.9292 C   0  0  0  0  0  0  0  0  0  0  0  0
   26.6575  -20.9947  -10.5632 C   0  0  0  0  0  0  0  0  0  0  0  0
   25.3615  -20.8531  -10.0449 C   0  0  0  0  0  0  0  0  0  0  0  0
   25.4133  -20.4828   -8.7740 N   0  0  0  0  0  0  0  0  0  0  0  0
   26.6981  -20.3626   -8.3943 C   0  0  0  0  0  0  0  0  0  0  0  0
   27.3037  -20.0116   -7.2251 C   0  0  0  0  0  0  0  0  0  0  0  0
   28.6808  -19.9679   -7.1348 C   0  0  0  0  0  0  0  0  0  0  0  0
   29.4577  -20.2800   -8.2305 C   0  0  0  0  0  0  0  0  0  0  0  0
   28.8542  -20.6335   -9.4077 C   0  0  0  0  0  0  0  0  0  0  0  0
   27.4734  -20.6775   -9.4964 C   0  0  0  0  0  0  0  0  0  0  0  0
   27.9343  -20.8803  -14.1264 C   0  0  0  0  0  0  0  0  0  0  0  0
   27.2161  -20.5851  -15.1132 O   0  0  0  0  0  0  0  0  0  0  0  0
   29.0339  -21.7183  -14.3289 N   0  0  0  0  0  0  0  0  0  0  0  0
   29.5305  -22.1484  -15.6419 C   0  0  1  0  0  0  0  0  0  0  0  0
   30.8587  -22.8455  -15.4681 C   0  0  0  0  0  0  0  0  0  0  0  0
   31.2325  -22.9691  -13.7143 S   0  0  0  0  0  0  0  0  0  0  0  0
   28.5210  -23.0605  -16.1930 C   0  0  0  0  0  0  0  0  0  0  0  0
   28.5920  -24.2993  -15.9337 O   0  0  0  0  0  0  0  0  0  0  0  0
   22.9483  -24.6853  -15.6797 N   0  0  0  0  0  0  0  0  0  0  0  0
   23.9934  -25.6447  -15.6757 C   0  0  0  0  0  0  0  0  0  0  0  0
   23.7317  -26.8193  -15.3239 O   0  0  0  0  0  0  0  0  0  0  0  0
   25.3785  -25.2848  -16.0774 C   0  0  0  0  0  0  0  0  0  0  0  0
   25.4552  -23.8094  -16.3838 C   0  0  0  0  0  0  0  0  0  0  0  0
   26.4220  -23.5035  -17.4953 C   0  0  2  0  0  0  0  0  0  0  0  0
   27.4701  -22.6164  -16.9982 N   0  0  0  0  0  0  0  0  0  0  0  0
   25.7489  -22.8727  -18.6502 C   0  0  0  0  0  0  0  0  0  0  0  0
   25.9672  -21.6771  -18.9723 O   0  0  0  0  0  0  0  0  0  0  0  0
   24.8396  -23.5688  -19.4400 O   0  0  0  0  0  0  0  0  0  0  0  0
  2  3  1  0
  2  1  1  6
  2 13  1  0
  3  4  1  0
  4 12  1  0
  4  5  2  0
  5  6  1  0
  7  6  1  0
  7  8  2  0
  9  8  1  0
 10  9  2  0
 11 12  2  0
 11 10  1  0
 12  7  1  0
 13 14  2  0
 15 13  1  0
 15 16  1  0
 16 19  1  0
 16 17  1  1
 18 17  1  0
 19 20  2  0
 21 22  1  0
 22 23  2  0
 24 22  1  0
 24 25  1  0
 26 25  1  1
 26 28  1  0
 27 26  1  0
 27 19  1  0
 28 29  2  0
 28 30  1  0
M  END
$$$$
