KYM.pdb
     RDKit          3D

 30 30  0  0  1  0  0  0  0  0999 V2000
    7.7651  -19.1053   21.1999 N   0  0  0  0  0  0  0  0  0  0  0  0
    8.9856  -18.9813   20.4628 C   0  0  1  0  0  0  0  0  0  0  0  0
    8.7571  -19.1463   18.9890 C   0  0  0  0  0  0  0  0  0  0  0  0
    7.2723  -19.3323   18.7534 C   0  0  0  0  0  0  0  0  0  0  0  0
    6.9399  -19.5158   17.2989 C   0  0  0  0  0  0  0  0  0  0  0  0
    5.4475  -19.6185   17.0637 C   0  0  0  0  0  0  0  0  0  0  0  0
    5.1447  -19.7861   15.6513 N   0  0  0  0  0  0  0  0  0  0  0  0
    9.7065  -17.7127   20.7621 C   0  0  0  0  0  0  0  0  0  0  0  0
   10.8052  -17.4975   20.1794 O   0  0  0  0  0  0  0  0  0  0  0  0
    7.3687  -12.8990   16.5771 O   0  0  0  0  0  0  0  0  0  0  0  0
    7.7396  -13.2544   17.8705 C   0  0  0  0  0  0  0  0  0  0  0  0
    6.8010  -13.4026   18.8698 C   0  0  0  0  0  0  0  0  0  0  0  0
    7.1622  -13.7558   20.1580 C   0  0  0  0  0  0  0  0  0  0  0  0
    8.4792  -13.9750   20.4973 C   0  0  0  0  0  0  0  0  0  0  0  0
    8.9349  -14.3526   21.8423 C   0  0  0  0  0  0  0  0  0  0  0  0
    9.8825  -15.5061   21.8764 C   0  0  2  0  0  0  0  0  0  0  0  0
    9.2013  -16.7518   21.6710 N   0  0  0  0  0  0  0  0  0  0  0  0
   10.4883  -15.5377   23.2498 C   0  0  0  0  0  0  0  0  0  0  0  0
   11.1026  -14.5510   23.6933 O   0  0  0  0  0  0  0  0  0  0  0  0
    9.4188  -13.8251   19.4910 C   0  0  0  0  0  0  0  0  0  0  0  0
    9.0595  -13.4727   18.2052 C   0  0  0  0  0  0  0  0  0  0  0  0
   10.3338  -12.8925   29.1921 C   0  0  0  0  0  0  0  0  0  0  0  0
    9.1129  -13.6751   28.1054 S   0  0  0  0  0  0  0  0  0  0  0  0
    9.7367  -15.2303   27.4942 C   0  0  0  0  0  0  0  0  0  0  0  0
    9.6996  -15.4471   26.0289 C   0  0  0  0  0  0  0  0  0  0  0  0
   10.4929  -16.5699   25.5236 C   0  0  2  0  0  0  0  0  0  0  0  0
   10.3728  -16.6854   24.0630 N   0  0  0  0  0  0  0  0  0  0  0  0
   10.3219  -17.8720   26.1203 C   0  0  0  0  0  0  0  0  0  0  0  0
   10.4740  -17.9546   27.4048 O   0  0  0  0  0  0  0  0  0  0  0  0
   10.0069  -19.0724   25.5244 O   0  0  0  0  0  0  0  0  0  0  0  0
  2  1  1  1
  2  8  1  0
  2  3  1  0
  4  3  1  0
  5  6  1  0
  5  4  1  0
  6  7  1  0
  8  9  2  0
 10 11  1  0
 11 21  2  0
 11 12  1  0
 12 13  2  0
 13 14  1  0
 14 15  1  0
 16 15  1  1
 17 16  1  0
 17  8  1  0
 18 19  2  0
 18 16  1  0
 20 14  2  0
 21 20  1  0
 23 24  1  0
 23 22  1  0
 24 25  1  0
 26 25  1  1
 26 27  1  0
 26 28  1  0
 27 18  1  0
 28 30  1  0
 29 28  2  0
M  END
$$$$
