KYM.pdb
     RDKit          3D

 30 30  0  0  1  0  0  0  0  0999 V2000
    5.1426  -18.3642   24.0300 N   0  0  0  0  0  0  0  0  0  0  0  0
    5.8416  -18.6524   22.8147 C   0  0  1  0  0  0  0  0  0  0  0  0
    4.8988  -18.7727   21.6535 C   0  0  0  0  0  0  0  0  0  0  0  0
    3.6292  -19.4436   22.1361 C   0  0  0  0  0  0  0  0  0  0  0  0
    2.9481  -20.2317   21.0522 C   0  0  0  0  0  0  0  0  0  0  0  0
    1.5992  -20.7600   21.4933 C   0  0  0  0  0  0  0  0  0  0  0  0
    0.9707  -21.5474   20.4446 N   0  0  0  0  0  0  0  0  0  0  0  0
    6.9266  -17.6714   22.5341 C   0  0  0  0  0  0  0  0  0  0  0  0
    7.7701  -17.9527   21.6383 O   0  0  0  0  0  0  0  0  0  0  0  0
    8.3420  -12.5742   17.2752 O   0  0  0  0  0  0  0  0  0  0  0  0
    8.1549  -12.9626   18.5984 C   0  0  0  0  0  0  0  0  0  0  0  0
    6.8927  -13.0595   19.1450 C   0  0  0  0  0  0  0  0  0  0  0  0
    6.6988  -13.4451   20.4597 C   0  0  0  0  0  0  0  0  0  0  0  0
    7.7624  -13.7494   21.2805 C   0  0  0  0  0  0  0  0  0  0  0  0
    7.6317  -14.1658   22.6836 C   0  0  0  0  0  0  0  0  0  0  0  0
    8.1239  -15.5460   22.9709 C   0  0  2  0  0  0  0  0  0  0  0  0
    7.0387  -16.4463   23.2350 N   0  0  0  0  0  0  0  0  0  0  0  0
    8.9627  -15.4645   24.2134 C   0  0  0  0  0  0  0  0  0  0  0  0
    9.1091  -14.3818   24.8083 O   0  0  0  0  0  0  0  0  0  0  0  0
    9.0285  -13.6508   20.7279 C   0  0  0  0  0  0  0  0  0  0  0  0
    9.2232  -13.2662   19.4162 C   0  0  0  0  0  0  0  0  0  0  0  0
   10.6344  -12.5971   28.7164 C   0  0  0  0  0  0  0  0  0  0  0  0
   10.1492  -14.2330   29.3265 S   0  0  0  0  0  0  0  0  0  0  0  0
   10.6659  -15.4982   28.1804 C   0  0  0  0  0  0  0  0  0  0  0  0
    9.9147  -15.6086   26.9081 C   0  0  0  0  0  0  0  0  0  0  0  0
   10.4859  -16.5024   25.8981 C   0  0  2  0  0  0  0  0  0  0  0  0
    9.6002  -16.6128   24.7300 N   0  0  0  0  0  0  0  0  0  0  0  0
   10.9184  -17.8203   26.2944 C   0  0  0  0  0  0  0  0  0  0  0  0
   11.8060  -17.8891   27.2365 O   0  0  0  0  0  0  0  0  0  0  0  0
   10.5205  -19.0503   25.8213 O   0  0  0  0  0  0  0  0  0  0  0  0
  2  1  1  1
  2  8  1  0
  2  3  1  0
  4  3  1  0
  5  6  1  0
  5  4  1  0
  6  7  1  0
  8  9  2  0
 10 11  1  0
 11 21  2  0
 11 12  1  0
 12 13  2  0
 13 14  1  0
 14 15  1  0
 16 15  1  1
 17 16  1  0
 17  8  1  0
 18 19  2  0
 18 16  1  0
 20 14  2  0
 21 20  1  0
 23 24  1  0
 23 22  1  0
 24 25  1  0
 26 25  1  1
 26 27  1  0
 26 28  1  0
 27 18  1  0
 28 30  1  0
 29 28  2  0
M  END
$$$$
