KYM.pdb
     RDKit          3D

 30 30  0  0  1  0  0  0  0  0999 V2000
    7.7771  -16.6203   19.1078 N   0  0  0  0  0  0  0  0  0  0  0  0
    8.8762  -15.7112   19.2258 C   0  0  1  0  0  0  0  0  0  0  0  0
    8.6907  -14.5076   18.3491 C   0  0  0  0  0  0  0  0  0  0  0  0
    8.2782  -14.9796   16.9701 C   0  0  0  0  0  0  0  0  0  0  0  0
    8.5791  -13.9657   15.9019 C   0  0  0  0  0  0  0  0  0  0  0  0
    7.9284  -14.3191   14.5809 C   0  0  0  0  0  0  0  0  0  0  0  0
    8.0265  -13.2212   13.6323 N   0  0  0  0  0  0  0  0  0  0  0  0
    9.1433  -15.3190   20.6376 C   0  0  0  0  0  0  0  0  0  0  0  0
   10.1720  -14.6299   20.8824 O   0  0  0  0  0  0  0  0  0  0  0  0
    5.3572  -11.4074   27.0700 O   0  0  0  0  0  0  0  0  0  0  0  0
    5.8660  -12.4633   26.3197 C   0  0  0  0  0  0  0  0  0  0  0  0
    5.4853  -13.7656   26.5656 C   0  0  0  0  0  0  0  0  0  0  0  0
    5.9868  -14.8206   25.8238 C   0  0  0  0  0  0  0  0  0  0  0  0
    6.8906  -14.6133   24.8051 C   0  0  0  0  0  0  0  0  0  0  0  0
    7.4634  -15.6836   23.9770 C   0  0  0  0  0  0  0  0  0  0  0  0
    8.5359  -15.2372   23.0389 C   0  0  2  0  0  0  0  0  0  0  0  0
    8.2868  -15.6923   21.7015 N   0  0  0  0  0  0  0  0  0  0  0  0
    9.8174  -15.8660   23.5042 C   0  0  0  0  0  0  0  0  0  0  0  0
   10.9148  -15.4314   23.1110 O   0  0  0  0  0  0  0  0  0  0  0  0
    7.2705  -13.3040   24.5613 C   0  0  0  0  0  0  0  0  0  0  0  0
    6.7707  -12.2505   25.3008 C   0  0  0  0  0  0  0  0  0  0  0  0
   10.1390  -13.0771   28.2720 C   0  0  0  0  0  0  0  0  0  0  0  0
   11.7283  -13.9422   28.1745 S   0  0  0  0  0  0  0  0  0  0  0  0
   11.5071  -15.5629   27.4635 C   0  0  0  0  0  0  0  0  0  0  0  0
   10.7516  -15.6483   26.1918 C   0  0  0  0  0  0  0  0  0  0  0  0
   10.6909  -16.9711   25.5660 C   0  0  2  0  0  0  0  0  0  0  0  0
    9.8021  -16.9605   24.3951 N   0  0  0  0  0  0  0  0  0  0  0  0
   10.3867  -18.1191   26.3848 C   0  0  0  0  0  0  0  0  0  0  0  0
   11.3889  -18.7361   26.9278 O   0  0  0  0  0  0  0  0  0  0  0  0
    9.1651  -18.6733   26.6945 O   0  0  0  0  0  0  0  0  0  0  0  0
  2  1  1  1
  2  8  1  0
  2  3  1  0
  4  3  1  0
  5  6  1  0
  5  4  1  0
  6  7  1  0
  8  9  2  0
 10 11  1  0
 11 21  2  0
 11 12  1  0
 12 13  2  0
 13 14  1  0
 14 15  1  0
 16 15  1  1
 17 16  1  0
 17  8  1  0
 18 19  2  0
 18 16  1  0
 20 14  2  0
 21 20  1  0
 23 24  1  0
 23 22  1  0
 24 25  1  0
 26 25  1  1
 26 27  1  0
 26 28  1  0
 27 18  1  0
 28 30  1  0
 29 28  2  0
M  END
$$$$
