KYM.pdb
     RDKit          3D

 30 30  0  0  1  0  0  0  0  0999 V2000
    8.5660  -18.8179   21.1228 N   0  0  0  0  0  0  0  0  0  0  0  0
    9.8342  -18.2325   20.8107 C   0  0  1  0  0  0  0  0  0  0  0  0
   10.0976  -18.2467   19.3336 C   0  0  0  0  0  0  0  0  0  0  0  0
    9.0676  -19.1394   18.6728 C   0  0  0  0  0  0  0  0  0  0  0  0
    9.5284  -19.6596   17.3398 C   0  0  0  0  0  0  0  0  0  0  0  0
    8.4651  -20.4917   16.6540 C   0  0  0  0  0  0  0  0  0  0  0  0
    8.0862  -19.9152   15.3738 N   0  0  0  0  0  0  0  0  0  0  0  0
    9.9852  -16.8630   21.3764 C   0  0  0  0  0  0  0  0  0  0  0  0
   11.0636  -16.2432   21.1624 O   0  0  0  0  0  0  0  0  0  0  0  0
    7.5039  -13.4121   16.5020 O   0  0  0  0  0  0  0  0  0  0  0  0
    7.6039  -13.5791   17.8800 C   0  0  0  0  0  0  0  0  0  0  0  0
    7.0045  -14.6445   18.5180 C   0  0  0  0  0  0  0  0  0  0  0  0
    7.0997  -14.8173   19.8876 C   0  0  0  0  0  0  0  0  0  0  0  0
    7.7997  -13.9289   20.6739 C   0  0  0  0  0  0  0  0  0  0  0  0
    7.9432  -14.0495   22.1314 C   0  0  0  0  0  0  0  0  0  0  0  0
    9.1001  -14.8828   22.5753 C   0  0  2  0  0  0  0  0  0  0  0  0
    8.9660  -16.2427   22.1388 N   0  0  0  0  0  0  0  0  0  0  0  0
    9.0928  -14.8820   24.0766 C   0  0  0  0  0  0  0  0  0  0  0  0
    8.9284  -13.8228   24.7081 O   0  0  0  0  0  0  0  0  0  0  0  0
    8.4003  -12.8602   20.0296 C   0  0  0  0  0  0  0  0  0  0  0  0
    8.3060  -12.6869   18.6630 C   0  0  0  0  0  0  0  0  0  0  0  0
    6.5922  -11.5093   27.5822 C   0  0  0  0  0  0  0  0  0  0  0  0
    6.3833  -13.0961   26.7323 S   0  0  0  0  0  0  0  0  0  0  0  0
    7.6843  -14.2231   27.1994 C   0  0  0  0  0  0  0  0  0  0  0  0
    7.6908  -15.5566   26.5536 C   0  0  0  0  0  0  0  0  0  0  0  0
    9.0085  -16.1168   26.2454 C   0  0  2  0  0  0  0  0  0  0  0  0
    9.2719  -16.0808   24.7996 N   0  0  0  0  0  0  0  0  0  0  0  0
    9.3527  -17.4197   26.7601 C   0  0  0  0  0  0  0  0  0  0  0  0
    9.5730  -17.5089   28.0343 O   0  0  0  0  0  0  0  0  0  0  0  0
    9.4805  -18.6175   26.0936 O   0  0  0  0  0  0  0  0  0  0  0  0
  2  1  1  6
  2  8  1  0
  2  3  1  0
  4  3  1  0
  5  6  1  0
  5  4  1  0
  6  7  1  0
  8  9  2  0
 10 11  1  0
 11 21  2  0
 11 12  1  0
 12 13  2  0
 13 14  1  0
 14 15  1  0
 16 15  1  6
 17 16  1  0
 17  8  1  0
 18 19  2  0
 18 16  1  0
 20 14  2  0
 21 20  1  0
 23 24  1  0
 23 22  1  0
 24 25  1  0
 26 25  1  6
 26 27  1  0
 26 28  1  0
 27 18  1  0
 28 30  1  0
 29 28  2  0
M  END
$$$$
