KYM.pdb
     RDKit          3D

 30 30  0  0  1  0  0  0  0  0999 V2000
    8.4802  -17.8378   19.5394 N   0  0  0  0  0  0  0  0  0  0  0  0
    7.1198  -17.5404   19.8696 C   0  0  1  0  0  0  0  0  0  0  0  0
    6.1650  -18.2268   18.9375 C   0  0  0  0  0  0  0  0  0  0  0  0
    6.9631  -18.8574   17.8150 C   0  0  0  0  0  0  0  0  0  0  0  0
    6.2804  -18.7285   16.4819 C   0  0  0  0  0  0  0  0  0  0  0  0
    7.0416  -19.4367   15.3808 C   0  0  0  0  0  0  0  0  0  0  0  0
    6.4467  -19.1824   14.0784 N   0  0  0  0  0  0  0  0  0  0  0  0
    6.7995  -17.8401   21.2930 C   0  0  0  0  0  0  0  0  0  0  0  0
    5.6232  -17.6283   21.6987 O   0  0  0  0  0  0  0  0  0  0  0  0
    7.2531  -20.7602   29.6579 O   0  0  0  0  0  0  0  0  0  0  0  0
    7.5038  -20.4721   28.3196 C   0  0  0  0  0  0  0  0  0  0  0  0
    6.5122  -20.5741   27.3669 C   0  0  0  0  0  0  0  0  0  0  0  0
    6.7539  -20.2893   26.0345 C   0  0  0  0  0  0  0  0  0  0  0  0
    7.9996  -19.8905   25.6026 C   0  0  0  0  0  0  0  0  0  0  0  0
    8.3280  -19.5716   24.2062 C   0  0  0  0  0  0  0  0  0  0  0  0
    7.4467  -18.5415   23.5802 C   0  0  2  0  0  0  0  0  0  0  0  0
    7.7650  -18.3499   22.1945 N   0  0  0  0  0  0  0  0  0  0  0  0
    7.7088  -17.2461   24.2924 C   0  0  0  0  0  0  0  0  0  0  0  0
    7.3588  -17.0929   25.4764 O   0  0  0  0  0  0  0  0  0  0  0  0
    8.9929  -19.7893   26.5624 C   0  0  0  0  0  0  0  0  0  0  0  0
    8.7529  -20.0732   27.8921 C   0  0  0  0  0  0  0  0  0  0  0  0
    6.1670  -10.8673   27.0853 C   0  0  0  0  0  0  0  0  0  0  0  0
    5.8530  -12.2577   25.9663 S   0  0  0  0  0  0  0  0  0  0  0  0
    7.3850  -13.0644   25.5380 C   0  0  0  0  0  0  0  0  0  0  0  0
    7.2991  -14.2789   24.6938 C   0  0  0  0  0  0  0  0  0  0  0  0
    8.5735  -14.9039   24.3326 C   0  0  2  0  0  0  0  0  0  0  0  0
    8.3564  -16.1789   23.6340 N   0  0  0  0  0  0  0  0  0  0  0  0
    9.5781  -15.0841   25.3520 C   0  0  0  0  0  0  0  0  0  0  0  0
    9.9954  -14.0188   25.9610 O   0  0  0  0  0  0  0  0  0  0  0  0
   10.1745  -16.2425   25.7969 O   0  0  0  0  0  0  0  0  0  0  0  0
  2  1  1  6
  2  8  1  0
  2  3  1  0
  4  3  1  0
  5  6  1  0
  5  4  1  0
  6  7  1  0
  8  9  2  0
 10 11  1  0
 11 21  2  0
 11 12  1  0
 12 13  2  0
 13 14  1  0
 14 15  1  0
 16 15  1  1
 17 16  1  0
 17  8  1  0
 18 19  2  0
 18 16  1  0
 20 14  2  0
 21 20  1  0
 23 24  1  0
 23 22  1  0
 24 25  1  0
 26 25  1  1
 26 27  1  0
 26 28  1  0
 27 18  1  0
 28 30  1  0
 29 28  2  0
M  END
$$$$
