KYM.pdb
     RDKit          3D

 30 30  0  0  1  0  0  0  0  0999 V2000
   10.2146  -14.0076   19.3103 N   0  0  0  0  0  0  0  0  0  0  0  0
    9.0317  -13.7212   20.0634 C   0  0  1  0  0  0  0  0  0  0  0  0
    7.7955  -14.1543   19.3313 C   0  0  0  0  0  0  0  0  0  0  0  0
    8.0678  -14.0726   17.8434 C   0  0  0  0  0  0  0  0  0  0  0  0
    6.8501  -14.3834   17.0185 C   0  0  0  0  0  0  0  0  0  0  0  0
    7.1241  -14.2724   15.5333 C   0  0  0  0  0  0  0  0  0  0  0  0
    5.9371  -14.5809   14.7519 N   0  0  0  0  0  0  0  0  0  0  0  0
    9.0777  -14.2934   21.4377 C   0  0  0  0  0  0  0  0  0  0  0  0
    9.7247  -15.3618   21.6192 O   0  0  0  0  0  0  0  0  0  0  0  0
    9.1005  -14.8977   30.2107 O   0  0  0  0  0  0  0  0  0  0  0  0
    8.8233  -14.4885   28.9097 C   0  0  0  0  0  0  0  0  0  0  0  0
    8.2055  -13.2824   28.6544 C   0  0  0  0  0  0  0  0  0  0  0  0
    7.9268  -12.8688   27.3637 C   0  0  0  0  0  0  0  0  0  0  0  0
    8.2559  -13.6473   26.2760 C   0  0  0  0  0  0  0  0  0  0  0  0
    7.9914  -13.2722   24.8800 C   0  0  0  0  0  0  0  0  0  0  0  0
    8.5917  -14.1889   23.8656 C   0  0  2  0  0  0  0  0  0  0  0  0
    8.4241  -13.6812   22.5344 N   0  0  0  0  0  0  0  0  0  0  0  0
    7.8494  -15.4908   23.9549 C   0  0  0  0  0  0  0  0  0  0  0  0
    6.6263  -15.5384   23.7325 O   0  0  0  0  0  0  0  0  0  0  0  0
    8.8762  -14.8578   26.5365 C   0  0  0  0  0  0  0  0  0  0  0  0
    9.1548  -15.2716   27.8240 C   0  0  0  0  0  0  0  0  0  0  0  0
    6.1747  -18.5278   19.8707 C   0  0  0  0  0  0  0  0  0  0  0  0
    5.1849  -17.4951   20.9833 S   0  0  0  0  0  0  0  0  0  0  0  0
    5.9407  -17.4251   22.5972 C   0  0  0  0  0  0  0  0  0  0  0  0
    7.2681  -18.0646   22.7529 C   0  0  0  0  0  0  0  0  0  0  0  0
    7.8696  -17.9844   24.0859 C   0  0  2  0  0  0  0  0  0  0  0  0
    8.5234  -16.6840   24.2921 N   0  0  0  0  0  0  0  0  0  0  0  0
    8.7559  -19.0373   24.5181 C   0  0  0  0  0  0  0  0  0  0  0  0
    8.2901  -20.2464   24.4898 O   0  0  0  0  0  0  0  0  0  0  0  0
   10.0570  -18.9582   24.9613 O   0  0  0  0  0  0  0  0  0  0  0  0
  2  1  1  6
  2  8  1  0
  2  3  1  0
  4  3  1  0
  5  6  1  0
  5  4  1  0
  6  7  1  0
  8  9  2  0
 10 11  1  0
 11 21  2  0
 11 12  1  0
 12 13  2  0
 13 14  1  0
 14 15  1  0
 16 15  1  1
 17 16  1  0
 17  8  1  0
 18 19  2  0
 18 16  1  0
 20 14  2  0
 21 20  1  0
 23 24  1  0
 23 22  1  0
 24 25  1  0
 26 25  1  6
 26 27  1  0
 26 28  1  0
 27 18  1  0
 28 30  1  0
 29 28  2  0
M  END
$$$$
