KYM.pdb
     RDKit          3D

 30 30  0  0  1  0  0  0  0  0999 V2000
   11.2897  -17.9121   19.2555 N   0  0  0  0  0  0  0  0  0  0  0  0
   10.5127  -18.1603   20.4316 C   0  0  1  0  0  0  0  0  0  0  0  0
   11.0907  -19.2801   21.2462 C   0  0  0  0  0  0  0  0  0  0  0  0
   11.6164  -20.3386   20.2987 C   0  0  0  0  0  0  0  0  0  0  0  0
   11.9974  -21.6075   21.0091 C   0  0  0  0  0  0  0  0  0  0  0  0
   12.6644  -22.6017   20.0818 C   0  0  0  0  0  0  0  0  0  0  0  0
   13.0483  -23.8117   20.7912 N   0  0  0  0  0  0  0  0  0  0  0  0
   10.3163  -16.9347   21.2549 C   0  0  0  0  0  0  0  0  0  0  0  0
   11.2553  -16.0930   21.3076 O   0  0  0  0  0  0  0  0  0  0  0  0
    7.8554  -12.7896   17.0462 O   0  0  0  0  0  0  0  0  0  0  0  0
    7.8422  -13.2514   18.3589 C   0  0  0  0  0  0  0  0  0  0  0  0
    8.3580  -12.4947   19.3898 C   0  0  0  0  0  0  0  0  0  0  0  0
    8.3482  -12.9471   20.6974 C   0  0  0  0  0  0  0  0  0  0  0  0
    7.8210  -14.1768   21.0253 C   0  0  0  0  0  0  0  0  0  0  0  0
    7.7764  -14.7204   22.3898 C   0  0  0  0  0  0  0  0  0  0  0  0
    8.9790  -15.5135   22.7826 C   0  0  2  0  0  0  0  0  0  0  0  0
    9.1206  -16.6889   21.9724 N   0  0  0  0  0  0  0  0  0  0  0  0
    8.7687  -15.9589   24.2008 C   0  0  0  0  0  0  0  0  0  0  0  0
    7.6746  -16.4292   24.5608 O   0  0  0  0  0  0  0  0  0  0  0  0
    7.3040  -14.9338   19.9873 C   0  0  0  0  0  0  0  0  0  0  0  0
    7.3132  -14.4834   18.6821 C   0  0  0  0  0  0  0  0  0  0  0  0
    6.0809  -11.5040   27.8245 C   0  0  0  0  0  0  0  0  0  0  0  0
    7.7242  -11.4855   27.0610 S   0  0  0  0  0  0  0  0  0  0  0  0
    8.5528  -13.0400   27.3402 C   0  0  0  0  0  0  0  0  0  0  0  0
    8.9538  -13.8191   26.1454 C   0  0  0  0  0  0  0  0  0  0  0  0
    9.5872  -15.1142   26.4036 C   0  0  2  0  0  0  0  0  0  0  0  0
    9.8062  -15.8531   25.1517 N   0  0  0  0  0  0  0  0  0  0  0  0
    9.0005  -15.9974   27.3817 C   0  0  0  0  0  0  0  0  0  0  0  0
    9.7389  -16.3255   28.3952 O   0  0  0  0  0  0  0  0  0  0  0  0
    7.7427  -16.5560   27.4125 O   0  0  0  0  0  0  0  0  0  0  0  0
  2  1  1  6
  2  8  1  0
  2  3  1  0
  4  3  1  0
  5  6  1  0
  5  4  1  0
  6  7  1  0
  8  9  2  0
 10 11  1  0
 11 21  2  0
 11 12  1  0
 12 13  2  0
 13 14  1  0
 14 15  1  0
 16 15  1  6
 17 16  1  0
 17  8  1  0
 18 19  2  0
 18 16  1  0
 20 14  2  0
 21 20  1  0
 23 24  1  0
 23 22  1  0
 24 25  1  0
 26 25  1  6
 26 27  1  0
 26 28  1  0
 27 18  1  0
 28 30  1  0
 29 28  2  0
M  END
$$$$
