KYM.pdb
     RDKit          3D

 30 30  0  0  1  0  0  0  0  0999 V2000
    9.7384  -19.1417   20.4869 N   0  0  0  0  0  0  0  0  0  0  0  0
   10.9201  -18.4284   20.1084 C   0  0  1  0  0  0  0  0  0  0  0  0
   10.9315  -18.1237   18.6392 C   0  0  0  0  0  0  0  0  0  0  0  0
   10.8768  -19.4329   17.8791 C   0  0  0  0  0  0  0  0  0  0  0  0
   10.9594  -19.2372   16.3909 C   0  0  0  0  0  0  0  0  0  0  0  0
   10.9089  -20.5510   15.6395 C   0  0  0  0  0  0  0  0  0  0  0  0
   11.0167  -20.3440   14.2041 N   0  0  0  0  0  0  0  0  0  0  0  0
   11.1279  -17.1970   20.9202 C   0  0  0  0  0  0  0  0  0  0  0  0
   12.1284  -16.4722   20.6618 O   0  0  0  0  0  0  0  0  0  0  0  0
    6.8929  -12.8164   17.8740 O   0  0  0  0  0  0  0  0  0  0  0  0
    7.3918  -13.3301   19.0673 C   0  0  0  0  0  0  0  0  0  0  0  0
    6.5498  -13.8097   20.0484 C   0  0  0  0  0  0  0  0  0  0  0  0
    7.0385  -14.3220   21.2373 C   0  0  0  0  0  0  0  0  0  0  0  0
    8.3913  -14.3746   21.4914 C   0  0  0  0  0  0  0  0  0  0  0  0
    8.9805  -14.9049   22.7288 C   0  0  0  0  0  0  0  0  0  0  0  0
   10.3312  -15.5189   22.5607 C   0  0  2  0  0  0  0  0  0  0  0  0
   10.2460  -16.8197   21.9617 N   0  0  0  0  0  0  0  0  0  0  0  0
   10.9129  -15.6859   23.9347 C   0  0  0  0  0  0  0  0  0  0  0  0
   11.6134  -14.7897   24.4385 O   0  0  0  0  0  0  0  0  0  0  0  0
    9.2337  -13.8921   20.5037 C   0  0  0  0  0  0  0  0  0  0  0  0
    8.7472  -13.3806   19.3170 C   0  0  0  0  0  0  0  0  0  0  0  0
   10.7229  -13.8827   30.5728 C   0  0  0  0  0  0  0  0  0  0  0  0
   10.2504  -13.8866   28.8234 S   0  0  0  0  0  0  0  0  0  0  0  0
   10.2125  -15.5562   28.1972 C   0  0  0  0  0  0  0  0  0  0  0  0
   10.0774  -15.7282   26.7319 C   0  0  0  0  0  0  0  0  0  0  0  0
   10.8174  -16.8468   26.1434 C   0  0  2  0  0  0  0  0  0  0  0  0
   10.6768  -16.8607   24.6802 N   0  0  0  0  0  0  0  0  0  0  0  0
   10.5985  -18.1773   26.6559 C   0  0  0  0  0  0  0  0  0  0  0  0
    9.8487  -18.9635   25.9491 O   0  0  0  0  0  0  0  0  0  0  0  0
   11.0799  -18.7616   27.8058 O   0  0  0  0  0  0  0  0  0  0  0  0
  2  1  1  1
  2  8  1  0
  2  3  1  0
  4  3  1  0
  5  6  1  0
  5  4  1  0
  6  7  1  0
  8  9  2  0
 10 11  1  0
 11 21  2  0
 11 12  1  0
 12 13  2  0
 13 14  1  0
 14 15  1  0
 16 15  1  1
 17 16  1  0
 17  8  1  0
 18 19  2  0
 18 16  1  0
 20 14  2  0
 21 20  1  0
 23 24  1  0
 23 22  1  0
 24 25  1  0
 26 25  1  1
 26 27  1  0
 26 28  1  0
 27 18  1  0
 28 30  1  0
 29 28  2  0
M  END
$$$$
