KYM.pdb
     RDKit          3D

 30 30  0  0  1  0  0  0  0  0999 V2000
    9.3059  -19.0369   19.6544 N   0  0  0  0  0  0  0  0  0  0  0  0
    8.5047  -18.4488   20.6842 C   0  0  1  0  0  0  0  0  0  0  0  0
    8.1532  -19.4491   21.7460 C   0  0  0  0  0  0  0  0  0  0  0  0
    9.4206  -20.1629   22.1686 C   0  0  0  0  0  0  0  0  0  0  0  0
    9.1534  -21.2883   23.1288 C   0  0  0  0  0  0  0  0  0  0  0  0
   10.4274  -21.9836   23.5610 C   0  0  0  0  0  0  0  0  0  0  0  0
   10.1600  -23.0033   24.5627 N   0  0  0  0  0  0  0  0  0  0  0  0
    9.1322  -17.2319   21.2706 C   0  0  0  0  0  0  0  0  0  0  0  0
   10.3648  -17.0421   21.0764 O   0  0  0  0  0  0  0  0  0  0  0  0
    7.5281  -12.9625   16.5008 O   0  0  0  0  0  0  0  0  0  0  0  0
    7.6795  -13.1815   17.8668 C   0  0  0  0  0  0  0  0  0  0  0  0
    8.6697  -12.5489   18.5883 C   0  0  0  0  0  0  0  0  0  0  0  0
    8.8264  -12.7616   19.9466 C   0  0  0  0  0  0  0  0  0  0  0  0
    7.9967  -13.6173   20.6373 C   0  0  0  0  0  0  0  0  0  0  0  0
    8.1037  -13.8903   22.0772 C   0  0  0  0  0  0  0  0  0  0  0  0
    8.9831  -15.0452   22.4272 C   0  0  2  0  0  0  0  0  0  0  0  0
    8.3950  -16.2923   22.0311 N   0  0  0  0  0  0  0  0  0  0  0  0
    9.1181  -15.0584   23.9225 C   0  0  0  0  0  0  0  0  0  0  0  0
    9.3727  -14.0113   24.5441 O   0  0  0  0  0  0  0  0  0  0  0  0
    7.0035  -14.2508   19.9091 C   0  0  0  0  0  0  0  0  0  0  0  0
    6.8462  -14.0393   18.5537 C   0  0  0  0  0  0  0  0  0  0  0  0
    7.0957  -11.5197   28.0013 C   0  0  0  0  0  0  0  0  0  0  0  0
    6.8151  -12.6693   26.6289 S   0  0  0  0  0  0  0  0  0  0  0  0
    7.2078  -14.3358   27.1286 C   0  0  0  0  0  0  0  0  0  0  0  0
    7.2126  -15.3767   26.0742 C   0  0  0  0  0  0  0  0  0  0  0  0
    8.4050  -16.2250   26.0119 C   0  0  2  0  0  0  0  0  0  0  0  0
    8.9591  -16.2568   24.6507 N   0  0  0  0  0  0  0  0  0  0  0  0
    8.3347  -17.5697   26.5293 C   0  0  0  0  0  0  0  0  0  0  0  0
    8.1024  -18.5168   25.6755 O   0  0  0  0  0  0  0  0  0  0  0  0
    8.4868  -18.0183   27.8220 O   0  0  0  0  0  0  0  0  0  0  0  0
  2  1  1  6
  2  8  1  0
  2  3  1  0
  4  3  1  0
  5  6  1  0
  5  4  1  0
  6  7  1  0
  8  9  2  0
 10 11  1  0
 11 21  2  0
 11 12  1  0
 12 13  2  0
 13 14  1  0
 14 15  1  0
 16 15  1  1
 17 16  1  0
 17  8  1  0
 18 19  2  0
 18 16  1  0
 20 14  2  0
 21 20  1  0
 23 24  1  0
 23 22  1  0
 24 25  1  0
 26 25  1  6
 26 27  1  0
 26 28  1  0
 27 18  1  0
 28 30  1  0
 29 28  2  0
M  END
$$$$
