KYM.pdb
     RDKit          3D

 30 30  0  0  1  0  0  0  0  0999 V2000
    9.4014  -19.0538   19.4999 N   0  0  0  0  0  0  0  0  0  0  0  0
   10.4671  -18.1029   19.5921 C   0  0  1  0  0  0  0  0  0  0  0  0
   10.6782  -17.3859   18.2910 C   0  0  0  0  0  0  0  0  0  0  0  0
   11.0634  -18.4063   17.2398 C   0  0  0  0  0  0  0  0  0  0  0  0
   11.5646  -17.7671   15.9749 C   0  0  0  0  0  0  0  0  0  0  0  0
   11.9048  -18.7926   14.9139 C   0  0  0  0  0  0  0  0  0  0  0  0
   12.3441  -18.1548   13.6831 N   0  0  0  0  0  0  0  0  0  0  0  0
   10.2808  -17.1443   20.7167 C   0  0  0  0  0  0  0  0  0  0  0  0
   11.2031  -16.3167   20.9560 O   0  0  0  0  0  0  0  0  0  0  0  0
    6.1943  -11.9603   26.6588 O   0  0  0  0  0  0  0  0  0  0  0  0
    6.5056  -12.9117   25.6921 C   0  0  0  0  0  0  0  0  0  0  0  0
    7.1905  -12.5701   24.5451 C   0  0  0  0  0  0  0  0  0  0  0  0
    7.5036  -13.5104   23.5795 C   0  0  0  0  0  0  0  0  0  0  0  0
    7.1430  -14.8320   23.7241 C   0  0  0  0  0  0  0  0  0  0  0  0
    7.4422  -15.8833   22.7420 C   0  0  0  0  0  0  0  0  0  0  0  0
    8.8975  -16.1020   22.4893 C   0  0  2  0  0  0  0  0  0  0  0  0
    9.1124  -17.1342   21.5165 N   0  0  0  0  0  0  0  0  0  0  0  0
    9.5049  -16.5604   23.7835 C   0  0  0  0  0  0  0  0  0  0  0  0
    9.5493  -17.7707   24.0681 O   0  0  0  0  0  0  0  0  0  0  0  0
    6.4554  -15.1713   24.8774 C   0  0  0  0  0  0  0  0  0  0  0  0
    6.1424  -14.2337   25.8416 C   0  0  0  0  0  0  0  0  0  0  0  0
    9.4586  -13.1282   29.4121 C   0  0  0  0  0  0  0  0  0  0  0  0
   10.9295  -14.1669   29.6156 S   0  0  0  0  0  0  0  0  0  0  0  0
   10.9737  -15.4290   28.3561 C   0  0  0  0  0  0  0  0  0  0  0  0
   10.5364  -15.0435   26.9940 C   0  0  0  0  0  0  0  0  0  0  0  0
   10.6098  -16.0912   25.9732 C   0  0  2  0  0  0  0  0  0  0  0  0
   10.0366  -15.6289   24.7008 N   0  0  0  0  0  0  0  0  0  0  0  0
   10.0946  -17.4034   26.2791 C   0  0  0  0  0  0  0  0  0  0  0  0
   10.9592  -18.3145   26.5991 O   0  0  0  0  0  0  0  0  0  0  0  0
    8.7926  -17.8505   26.2919 O   0  0  0  0  0  0  0  0  0  0  0  0
  2  1  1  6
  2  8  1  0
  2  3  1  0
  4  3  1  0
  5  6  1  0
  5  4  1  0
  6  7  1  0
  8  9  2  0
 10 11  1  0
 11 21  2  0
 11 12  1  0
 12 13  2  0
 13 14  1  0
 14 15  1  0
 16 15  1  1
 17 16  1  0
 17  8  1  0
 18 19  2  0
 18 16  1  0
 20 14  2  0
 21 20  1  0
 23 24  1  0
 23 22  1  0
 24 25  1  0
 26 25  1  1
 26 27  1  0
 26 28  1  0
 27 18  1  0
 28 30  1  0
 29 28  2  0
M  END
$$$$
