KYM.pdb
     RDKit          3D

 30 30  0  0  1  0  0  0  0  0999 V2000
    6.0689  -20.0580   20.2810 N   0  0  0  0  0  0  0  0  0  0  0  0
    6.8128  -18.8886   20.6381 C   0  0  1  0  0  0  0  0  0  0  0  0
    6.4526  -17.7207   19.7675 C   0  0  0  0  0  0  0  0  0  0  0  0
    6.8803  -18.0326   18.3482 C   0  0  0  0  0  0  0  0  0  0  0  0
    8.3740  -18.0124   18.1806 C   0  0  0  0  0  0  0  0  0  0  0  0
    8.7906  -18.2735   16.7483 C   0  0  0  0  0  0  0  0  0  0  0  0
   10.2380  -18.2637   16.6081 N   0  0  0  0  0  0  0  0  0  0  0  0
    6.6842  -18.5495   22.0827 C   0  0  0  0  0  0  0  0  0  0  0  0
    5.5662  -18.1428   22.5041 O   0  0  0  0  0  0  0  0  0  0  0  0
    5.6054  -23.2289   28.0360 O   0  0  0  0  0  0  0  0  0  0  0  0
    6.3110  -22.2484   27.3448 C   0  0  0  0  0  0  0  0  0  0  0  0
    7.1358  -22.5703   26.2878 C   0  0  0  0  0  0  0  0  0  0  0  0
    7.8404  -21.6011   25.5957 C   0  0  0  0  0  0  0  0  0  0  0  0
    7.7469  -20.2693   25.9350 C   0  0  0  0  0  0  0  0  0  0  0  0
    8.4640  -19.1878   25.2455 C   0  0  0  0  0  0  0  0  0  0  0  0
    7.6071  -18.3317   24.3723 C   0  0  2  0  0  0  0  0  0  0  0  0
    7.7671  -18.6684   22.9871 N   0  0  0  0  0  0  0  0  0  0  0  0
    8.0697  -16.9151   24.5546 C   0  0  0  0  0  0  0  0  0  0  0  0
    9.0539  -16.4850   23.9268 O   0  0  0  0  0  0  0  0  0  0  0  0
    6.9175  -19.9500   26.9972 C   0  0  0  0  0  0  0  0  0  0  0  0
    6.2140  -20.9164   27.6885 C   0  0  0  0  0  0  0  0  0  0  0  0
    6.3741   -9.6096   27.0370 C   0  0  0  0  0  0  0  0  0  0  0  0
    5.7642  -11.3045   26.8382 S   0  0  0  0  0  0  0  0  0  0  0  0
    7.0800  -12.3737   26.2846 C   0  0  0  0  0  0  0  0  0  0  0  0
    6.7497  -13.8026   26.0743 C   0  0  0  0  0  0  0  0  0  0  0  0
    7.8369  -14.6488   25.5768 C   0  0  2  0  0  0  0  0  0  0  0  0
    7.3981  -16.0451   25.4399 N   0  0  0  0  0  0  0  0  0  0  0  0
    9.1134  -14.6140   26.2477 C   0  0  0  0  0  0  0  0  0  0  0  0
    9.8129  -13.5298   26.1245 O   0  0  0  0  0  0  0  0  0  0  0  0
    9.7190  -15.5751   27.0254 O   0  0  0  0  0  0  0  0  0  0  0  0
  2  1  1  6
  2  8  1  0
  2  3  1  0
  4  3  1  0
  5  6  1  0
  5  4  1  0
  6  7  1  0
  8  9  2  0
 10 11  1  0
 11 21  2  0
 11 12  1  0
 12 13  2  0
 13 14  1  0
 14 15  1  0
 16 15  1  1
 17 16  1  0
 17  8  1  0
 18 19  2  0
 18 16  1  0
 20 14  2  0
 21 20  1  0
 23 24  1  0
 23 22  1  0
 24 25  1  0
 26 25  1  1
 26 27  1  0
 26 28  1  0
 27 18  1  0
 28 30  1  0
 29 28  2  0
M  END
$$$$
