KYM.pdb
     RDKit          3D

 30 30  0  0  1  0  0  0  0  0999 V2000
    8.1927  -19.5251   20.3680 N   0  0  0  0  0  0  0  0  0  0  0  0
    7.1710  -18.5313   20.4987 C   0  0  1  0  0  0  0  0  0  0  0  0
    5.9180  -18.9328   19.7773 C   0  0  0  0  0  0  0  0  0  0  0  0
    6.2913  -19.3610   18.3730 C   0  0  0  0  0  0  0  0  0  0  0  0
    6.4985  -18.1915   17.4516 C   0  0  0  0  0  0  0  0  0  0  0  0
    6.7214  -18.6272   16.0185 C   0  0  0  0  0  0  0  0  0  0  0  0
    8.0002  -18.1529   15.5141 N   0  0  0  0  0  0  0  0  0  0  0  0
    6.8919  -18.1835   21.9198 C   0  0  0  0  0  0  0  0  0  0  0  0
    5.8765  -17.4784   22.1745 O   0  0  0  0  0  0  0  0  0  0  0  0
    5.1989  -23.7334   26.9340 O   0  0  0  0  0  0  0  0  0  0  0  0
    5.9118  -22.6033   26.5446 C   0  0  0  0  0  0  0  0  0  0  0  0
    5.7451  -21.3946   27.1868 C   0  0  0  0  0  0  0  0  0  0  0  0
    6.4504  -20.2668   26.8053 C   0  0  0  0  0  0  0  0  0  0  0  0
    7.3518  -20.3046   25.7644 C   0  0  0  0  0  0  0  0  0  0  0  0
    8.1349  -19.1488   25.3060 C   0  0  0  0  0  0  0  0  0  0  0  0
    7.4240  -18.2603   24.3391 C   0  0  2  0  0  0  0  0  0  0  0  0
    7.7229  -18.6155   22.9817 N   0  0  0  0  0  0  0  0  0  0  0  0
    7.9305  -16.8657   24.5685 C   0  0  0  0  0  0  0  0  0  0  0  0
    9.0069  -16.4931   24.0685 O   0  0  0  0  0  0  0  0  0  0  0  0
    7.5164  -21.5204   25.1219 C   0  0  0  0  0  0  0  0  0  0  0  0
    6.8132  -22.6464   25.5017 C   0  0  0  0  0  0  0  0  0  0  0  0
    6.6210   -9.7705   27.7992 C   0  0  0  0  0  0  0  0  0  0  0  0
    5.8826  -11.1565   26.8950 S   0  0  0  0  0  0  0  0  0  0  0  0
    7.1433  -12.3238   26.4164 C   0  0  0  0  0  0  0  0  0  0  0  0
    6.6983  -13.6849   26.0361 C   0  0  0  0  0  0  0  0  0  0  0  0
    7.7551  -14.6269   25.6605 C   0  0  2  0  0  0  0  0  0  0  0  0
    7.1964  -15.9517   25.3544 N   0  0  0  0  0  0  0  0  0  0  0  0
    8.8968  -14.7801   26.5287 C   0  0  0  0  0  0  0  0  0  0  0  0
    9.6931  -13.7633   26.6377 O   0  0  0  0  0  0  0  0  0  0  0  0
    9.2801  -15.8640   27.2861 O   0  0  0  0  0  0  0  0  0  0  0  0
  2  1  1  1
  2  8  1  0
  2  3  1  0
  4  3  1  0
  5  6  1  0
  5  4  1  0
  6  7  1  0
  8  9  2  0
 10 11  1  0
 11 21  2  0
 11 12  1  0
 12 13  2  0
 13 14  1  0
 14 15  1  0
 16 15  1  1
 17 16  1  0
 17  8  1  0
 18 19  2  0
 18 16  1  0
 20 14  2  0
 21 20  1  0
 23 24  1  0
 23 22  1  0
 24 25  1  0
 26 25  1  1
 26 27  1  0
 26 28  1  0
 27 18  1  0
 28 30  1  0
 29 28  2  0
M  END
$$$$
