KYM.pdb
     RDKit          3D

 30 30  0  0  1  0  0  0  0  0999 V2000
    5.5174  -17.0210   20.4887 N   0  0  0  0  0  0  0  0  0  0  0  0
    6.7143  -16.5591   21.1229 C   0  0  1  0  0  0  0  0  0  0  0  0
    6.9241  -15.0904   20.8980 C   0  0  0  0  0  0  0  0  0  0  0  0
    7.6047  -14.9045   19.5575 C   0  0  0  0  0  0  0  0  0  0  0  0
    7.8371  -13.4566   19.2269 C   0  0  0  0  0  0  0  0  0  0  0  0
    8.3071  -13.2659   17.8001 C   0  0  0  0  0  0  0  0  0  0  0  0
    8.5334  -11.8609   17.5008 N   0  0  0  0  0  0  0  0  0  0  0  0
    6.7596  -16.8985   22.5725 C   0  0  0  0  0  0  0  0  0  0  0  0
    5.6894  -16.8250   23.2375 O   0  0  0  0  0  0  0  0  0  0  0  0
    8.6312  -20.5367   30.3155 O   0  0  0  0  0  0  0  0  0  0  0  0
    8.6211  -20.1563   28.9769 C   0  0  0  0  0  0  0  0  0  0  0  0
    9.7906  -19.8716   28.3041 C   0  0  0  0  0  0  0  0  0  0  0  0
    9.7884  -19.4928   26.9733 C   0  0  0  0  0  0  0  0  0  0  0  0
    8.6136  -19.3838   26.2622 C   0  0  0  0  0  0  0  0  0  0  0  0
    8.5358  -18.9884   24.8491 C   0  0  0  0  0  0  0  0  0  0  0  0
    7.9578  -17.6317   24.6142 C   0  0  2  0  0  0  0  0  0  0  0  0
    7.9546  -17.2965   23.2193 N   0  0  0  0  0  0  0  0  0  0  0  0
    8.8456  -16.6470   25.3186 C   0  0  0  0  0  0  0  0  0  0  0  0
   10.0093  -16.4501   24.9255 O   0  0  0  0  0  0  0  0  0  0  0  0
    7.4412  -19.6705   26.9414 C   0  0  0  0  0  0  0  0  0  0  0  0
    7.4422  -20.0486   28.2694 C   0  0  0  0  0  0  0  0  0  0  0  0
    5.4018  -11.1986   26.0080 C   0  0  0  0  0  0  0  0  0  0  0  0
    6.4387  -11.8852   27.3260 S   0  0  0  0  0  0  0  0  0  0  0  0
    7.5401  -13.1223   26.6646 C   0  0  0  0  0  0  0  0  0  0  0  0
    8.4324  -13.8175   27.6216 C   0  0  0  0  0  0  0  0  0  0  0  0
    9.2337  -14.9149   27.0749 C   0  0  2  0  0  0  0  0  0  0  0  0
    8.3779  -15.9267   26.4385 N   0  0  0  0  0  0  0  0  0  0  0  0
   10.1949  -15.5713   27.9270 C   0  0  0  0  0  0  0  0  0  0  0  0
    9.8444  -16.7080   28.4419 O   0  0  0  0  0  0  0  0  0  0  0  0
   11.4636  -15.1728   28.2832 O   0  0  0  0  0  0  0  0  0  0  0  0
  2  1  1  1
  2  8  1  0
  2  3  1  0
  4  3  1  0
  5  6  1  0
  5  4  1  0
  6  7  1  0
  8  9  2  0
 10 11  1  0
 11 21  2  0
 11 12  1  0
 12 13  2  0
 13 14  1  0
 14 15  1  0
 16 15  1  6
 17 16  1  0
 17  8  1  0
 18 19  2  0
 18 16  1  0
 20 14  2  0
 21 20  1  0
 23 24  1  0
 23 22  1  0
 24 25  1  0
 26 25  1  1
 26 27  1  0
 26 28  1  0
 27 18  1  0
 28 30  1  0
 29 28  2  0
M  END
$$$$
