FII.pdb
     RDKit          3D

 28 28  0  0  1  0  0  0  0  0999 V2000
   16.7408  -12.0376  -15.7760 N   0  0  0  0  0  0  0  0  0  0  0  0
   16.4365  -10.6711  -15.4448 C   0  0  1  0  0  0  0  0  0  0  0  0
   14.9573  -10.4103  -15.2791 C   0  0  0  0  0  0  0  0  0  0  0  0
   14.2558  -10.5586  -16.5742 C   0  0  0  0  0  0  0  0  0  0  0  0
   14.2317   -9.4869  -17.4351 C   0  0  0  0  0  0  0  0  0  0  0  0
   13.6038   -9.5448  -18.6534 C   0  0  0  0  0  0  0  0  0  0  0  0
   12.9873  -10.7005  -19.0166 C   0  0  0  0  0  0  0  0  0  0  0  0
   12.9980  -11.7893  -18.1690 C   0  0  0  0  0  0  0  0  0  0  0  0
   13.6310  -11.7270  -16.9438 C   0  0  0  0  0  0  0  0  0  0  0  0
   17.1446  -10.2949  -14.1947 C   0  0  0  0  0  0  0  0  0  0  0  0
   17.4170  -11.1606  -13.3288 O   0  0  0  0  0  0  0  0  0  0  0  0
   21.7166   -8.3052  -11.8092 C   0  0  0  0  0  0  0  0  0  0  0  0
   20.4721   -7.4418  -12.0642 C   0  0  0  0  0  0  0  0  0  0  0  0
   19.6270   -8.0163  -13.1505 C   0  0  2  0  0  0  0  0  0  0  0  0
   19.4679   -6.9838  -14.2494 C   0  0  0  0  0  0  0  0  0  0  0  0
   18.3113   -8.5843  -12.7548 C   0  0  2  0  0  0  0  0  0  0  0  0
   17.5318   -8.9601  -13.9414 N   0  0  0  0  0  0  0  0  0  0  0  0
   17.4689   -7.6457  -11.9867 C   0  0  0  0  0  0  0  0  0  0  0  0
   16.8754   -6.7052  -12.6278 O   0  0  0  0  0  0  0  0  0  0  0  0
   13.2368   -8.5964   -9.3741 C   0  0  0  0  0  0  0  0  0  0  0  0
   14.3421   -7.8838  -10.1477 C   0  0  0  0  0  0  0  0  0  0  0  0
   15.2917   -7.1839   -9.2332 C   0  0  2  0  0  0  0  0  0  0  0  0
   14.5949   -6.1585   -8.3623 C   0  0  0  0  0  0  0  0  0  0  0  0
   16.4425   -6.6123   -9.9894 C   0  0  2  0  0  0  0  0  0  0  0  0
   17.2428   -7.6814  -10.6018 N   0  0  0  0  0  0  0  0  0  0  0  0
   17.3479   -5.7779   -9.1864 C   0  0  0  0  0  0  0  0  0  0  0  0
   18.5802   -6.1858   -8.6852 O   0  0  0  0  0  0  0  0  0  0  0  0
   17.0044   -4.5904   -8.9117 O   0  0  0  0  0  0  0  0  0  0  0  0
  2  3  1  0
  2  1  1  1
  4  9  2  0
  4  3  1  0
  5  4  1  0
  6  7  1  0
  6  5  2  0
  7  8  2  0
  8  9  1  0
 10  2  1  0
 10 11  2  0
 12 13  1  0
 14 13  1  0
 14 15  1  6
 14 16  1  0
 16 17  1  6
 17 10  1  0
 18 16  1  0
 19 18  2  0
 20 21  1  0
 21 22  1  0
 22 24  1  0
 22 23  1  6
 24 25  1  1
 24 26  1  0
 25 18  1  0
 26 28  2  0
 26 27  1  0
M  END
$$$$
