FII.pdb
     RDKit          3D

 28 28  0  0  1  0  0  0  0  0999 V2000
   24.4018  -22.0350  -13.1425 N   0  0  0  0  0  0  0  0  0  0  0  0
   24.7646  -20.9229  -12.3050 C   0  0  1  0  0  0  0  0  0  0  0  0
   23.5737  -20.1537  -11.7819 C   0  0  0  0  0  0  0  0  0  0  0  0
   22.8544  -19.4918  -12.8935 C   0  0  0  0  0  0  0  0  0  0  0  0
   23.5232  -18.5522  -13.6420 C   0  0  0  0  0  0  0  0  0  0  0  0
   22.9273  -17.8955  -14.6887 C   0  0  0  0  0  0  0  0  0  0  0  0
   21.6345  -18.1861  -14.9916 C   0  0  0  0  0  0  0  0  0  0  0  0
   20.9428  -19.1254  -14.2543 C   0  0  0  0  0  0  0  0  0  0  0  0
   21.5461  -19.7841  -13.2018 C   0  0  0  0  0  0  0  0  0  0  0  0
   25.5766  -21.4090  -11.1604 C   0  0  0  0  0  0  0  0  0  0  0  0
   25.3028  -22.4965  -10.5983 O   0  0  0  0  0  0  0  0  0  0  0  0
   31.3861  -21.9569  -10.0547 C   0  0  0  0  0  0  0  0  0  0  0  0
   30.0224  -21.9149   -9.3491 C   0  0  0  0  0  0  0  0  0  0  0  0
   28.9650  -21.3642  -10.2453 C   0  0  2  0  0  0  0  0  0  0  0  0
   29.4539  -20.0577  -10.8393 C   0  0  0  0  0  0  0  0  0  0  0  0
   27.6022  -21.2144   -9.6704 C   0  0  2  0  0  0  0  0  0  0  0  0
   26.6757  -20.6686  -10.6708 N   0  0  0  0  0  0  0  0  0  0  0  0
   27.5460  -20.3001   -8.5123 C   0  0  0  0  0  0  0  0  0  0  0  0
   27.0531  -19.1286   -8.6924 O   0  0  0  0  0  0  0  0  0  0  0  0
   27.6174  -19.7851   -2.3564 C   0  0  0  0  0  0  0  0  0  0  0  0
   27.5096  -19.1844   -3.7548 C   0  0  0  0  0  0  0  0  0  0  0  0
   27.8110  -20.1933   -4.8128 C   0  0  2  0  0  0  0  0  0  0  0  0
   29.0830  -20.9632   -4.5218 C   0  0  0  0  0  0  0  0  0  0  0  0
   27.8117  -19.5680   -6.1662 C   0  0  2  0  0  0  0  0  0  0  0  0
   27.9800  -20.5890   -7.2091 N   0  0  0  0  0  0  0  0  0  0  0  0
   28.8492  -18.5462   -6.3672 C   0  0  0  0  0  0  0  0  0  0  0  0
   30.0328  -18.7342   -7.0742 O   0  0  0  0  0  0  0  0  0  0  0  0
   28.6804  -17.3951   -5.8669 O   0  0  0  0  0  0  0  0  0  0  0  0
  2  3  1  0
  2  1  1  1
  4  9  2  0
  4  3  1  0
  5  4  1  0
  6  7  1  0
  6  5  2  0
  7  8  2  0
  8  9  1  0
 10  2  1  0
 10 11  2  0
 12 13  1  0
 14 13  1  0
 14 15  1  1
 14 16  1  0
 16 17  1  6
 17 10  1  0
 18 16  1  0
 19 18  2  0
 20 21  1  0
 21 22  1  0
 22 24  1  0
 22 23  1  1
 24 25  1  6
 24 26  1  0
 25 18  1  0
 26 28  2  0
 26 27  1  0
M  END
$$$$
