FII.pdb
     RDKit          3D

 28 28  0  0  1  0  0  0  0  0999 V2000
   26.5803  -34.2870  -13.6487 N   0  0  0  0  0  0  0  0  0  0  0  0
   25.6589  -34.0117  -12.5787 C   0  0  1  0  0  0  0  0  0  0  0  0
   24.3811  -34.8134  -12.6678 C   0  0  0  0  0  0  0  0  0  0  0  0
   23.6325  -34.4622  -13.8955 C   0  0  0  0  0  0  0  0  0  0  0  0
   23.5034  -35.4122  -14.8811 C   0  0  0  0  0  0  0  0  0  0  0  0
   22.8244  -35.1649  -16.0471 C   0  0  0  0  0  0  0  0  0  0  0  0
   22.2630  -33.9405  -16.2295 C   0  0  0  0  0  0  0  0  0  0  0  0
   22.3795  -32.9710  -15.2545 C   0  0  0  0  0  0  0  0  0  0  0  0
   23.0637  -33.2237  -14.0825 C   0  0  0  0  0  0  0  0  0  0  0  0
   26.3181  -34.2814  -11.2755 C   0  0  0  0  0  0  0  0  0  0  0  0
   27.4452  -34.8302  -11.2306 O   0  0  0  0  0  0  0  0  0  0  0  0
   26.1111  -31.8919   -5.6033 C   0  0  0  0  0  0  0  0  0  0  0  0
   26.2642  -33.1992   -6.3951 C   0  0  0  0  0  0  0  0  0  0  0  0
   26.1113  -32.9665   -7.8604 C   0  0  2  0  0  0  0  0  0  0  0  0
   24.7445  -32.3656   -8.1239 C   0  0  0  0  0  0  0  0  0  0  0  0
   26.3707  -34.1221   -8.7591 C   0  0  2  0  0  0  0  0  0  0  0  0
   25.7026  -33.9316  -10.0530 N   0  0  0  0  0  0  0  0  0  0  0  0
   25.8794  -35.4083   -8.2254 C   0  0  0  0  0  0  0  0  0  0  0  0
   24.7590  -35.8548   -8.6647 O   0  0  0  0  0  0  0  0  0  0  0  0
   28.8596  -39.8617   -7.0928 C   0  0  0  0  0  0  0  0  0  0  0  0
   28.0809  -38.5900   -6.7699 C   0  0  0  0  0  0  0  0  0  0  0  0
   26.6941  -38.6382   -7.3201 C   0  0  2  0  0  0  0  0  0  0  0  0
   26.6827  -38.8001   -8.8264 C   0  0  0  0  0  0  0  0  0  0  0  0
   25.8928  -37.4685   -6.8593 C   0  0  2  0  0  0  0  0  0  0  0  0
   26.5278  -36.2097   -7.2727 N   0  0  0  0  0  0  0  0  0  0  0  0
   25.6800  -37.4074   -5.4060 C   0  0  0  0  0  0  0  0  0  0  0  0
   26.1818  -36.4203   -4.5634 O   0  0  0  0  0  0  0  0  0  0  0  0
   24.9913  -38.3127   -4.8493 O   0  0  0  0  0  0  0  0  0  0  0  0
  2  3  1  0
  2  1  1  6
  4  9  2  0
  4  3  1  0
  5  4  1  0
  6  7  1  0
  6  5  2  0
  7  8  2  0
  8  9  1  0
 10  2  1  0
 10 11  2  0
 12 13  1  0
 14 13  1  0
 14 15  1  1
 14 16  1  0
 16 17  1  6
 17 10  1  0
 18 16  1  0
 19 18  2  0
 20 21  1  0
 21 22  1  0
 22 24  1  0
 22 23  1  6
 24 25  1  1
 24 26  1  0
 25 18  1  0
 26 28  2  0
 26 27  1  0
M  END
$$$$
