FII.pdb
     RDKit          3D

 28 28  0  0  1  0  0  0  0  0999 V2000
   28.0601  -21.7417  -11.2123 N   0  0  0  0  0  0  0  0  0  0  0  0
   26.7738  -21.1783  -10.8997 C   0  0  1  0  0  0  0  0  0  0  0  0
   26.8585  -19.8192  -10.2448 C   0  0  0  0  0  0  0  0  0  0  0  0
   27.3582  -19.9420   -8.8569 C   0  0  0  0  0  0  0  0  0  0  0  0
   26.4445  -19.9782   -7.8301 C   0  0  0  0  0  0  0  0  0  0  0  0
   26.8273  -20.0915   -6.5177 C   0  0  0  0  0  0  0  0  0  0  0  0
   28.1530  -20.1701   -6.2280 C   0  0  0  0  0  0  0  0  0  0  0  0
   29.0886  -20.1356   -7.2418 C   0  0  0  0  0  0  0  0  0  0  0  0
   28.6993  -20.0215   -8.5612 C   0  0  0  0  0  0  0  0  0  0  0  0
   25.9631  -21.0763  -12.1399 C   0  0  0  0  0  0  0  0  0  0  0  0
   26.4057  -20.4702  -13.1451 O   0  0  0  0  0  0  0  0  0  0  0  0
   25.2201  -24.9814  -15.0702 C   0  0  0  0  0  0  0  0  0  0  0  0
   25.3100  -23.5495  -14.5219 C   0  0  0  0  0  0  0  0  0  0  0  0
   23.9732  -23.0498  -14.0888 C   0  0  2  0  0  0  0  0  0  0  0  0
   23.0028  -23.1712  -15.2474 C   0  0  0  0  0  0  0  0  0  0  0  0
   23.9216  -21.6913  -13.4871 C   0  0  2  0  0  0  0  0  0  0  0  0
   24.6769  -21.6539  -12.2281 N   0  0  0  0  0  0  0  0  0  0  0  0
   22.5537  -21.2399  -13.1623 C   0  0  0  0  0  0  0  0  0  0  0  0
   22.0521  -21.5978  -12.0361 O   0  0  0  0  0  0  0  0  0  0  0  0
   20.8665  -16.3089  -13.8726 C   0  0  0  0  0  0  0  0  0  0  0  0
   21.0955  -17.7231  -13.3480 C   0  0  0  0  0  0  0  0  0  0  0  0
   20.0619  -18.6732  -13.8552 C   0  0  2  0  0  0  0  0  0  0  0  0
   18.6626  -18.2721  -13.4354 C   0  0  0  0  0  0  0  0  0  0  0  0
   20.3956  -20.0780  -13.4836 C   0  0  2  0  0  0  0  0  0  0  0  0
   21.7328  -20.4400  -13.9726 N   0  0  0  0  0  0  0  0  0  0  0  0
   19.4476  -21.0842  -13.9832 C   0  0  0  0  0  0  0  0  0  0  0  0
   18.3974  -21.6291  -13.2509 O   0  0  0  0  0  0  0  0  0  0  0  0
   19.5738  -21.5088  -15.1696 O   0  0  0  0  0  0  0  0  0  0  0  0
  2  3  1  0
  2  1  1  6
  4  9  2  0
  4  3  1  0
  5  4  1  0
  6  7  1  0
  6  5  2  0
  7  8  2  0
  8  9  1  0
 10  2  1  0
 10 11  2  0
 12 13  1  0
 14 13  1  0
 14 15  1  6
 14 16  1  0
 16 17  1  1
 17 10  1  0
 18 16  1  0
 19 18  2  0
 20 21  1  0
 21 22  1  0
 22 24  1  0
 22 23  1  1
 24 25  1  6
 24 26  1  0
 25 18  1  0
 26 28  2  0
 26 27  1  0
M  END
$$$$
