FII.pdb
     RDKit          3D

 28 28  0  0  1  0  0  0  0  0999 V2000
   23.3081  -21.8201  -12.9691 N   0  0  0  0  0  0  0  0  0  0  0  0
   23.7472  -20.6590  -12.2418 C   0  0  1  0  0  0  0  0  0  0  0  0
   22.6094  -19.8391  -11.6792 C   0  0  0  0  0  0  0  0  0  0  0  0
   21.8612  -19.1730  -12.7691 C   0  0  0  0  0  0  0  0  0  0  0  0
   20.5158  -19.4276  -12.8938 C   0  0  0  0  0  0  0  0  0  0  0  0
   19.7527  -18.8492  -13.8761 C   0  0  0  0  0  0  0  0  0  0  0  0
   20.3499  -17.9981  -14.7517 C   0  0  0  0  0  0  0  0  0  0  0  0
   21.6990  -17.7275  -14.6464 C   0  0  0  0  0  0  0  0  0  0  0  0
   22.4634  -18.3116  -13.6564 C   0  0  0  0  0  0  0  0  0  0  0  0
   24.6448  -21.0779  -11.1352 C   0  0  0  0  0  0  0  0  0  0  0  0
   24.4244  -22.1361  -10.4988 O   0  0  0  0  0  0  0  0  0  0  0  0
   29.4603  -21.4895  -12.8107 C   0  0  0  0  0  0  0  0  0  0  0  0
   28.1016  -21.5710  -12.0990 C   0  0  0  0  0  0  0  0  0  0  0  0
   28.1332  -20.8619  -10.7873 C   0  0  2  0  0  0  0  0  0  0  0  0
   29.3019  -21.3825   -9.9738 C   0  0  0  0  0  0  0  0  0  0  0  0
   26.8802  -20.8643   -9.9871 C   0  0  2  0  0  0  0  0  0  0  0  0
   25.7678  -20.3045  -10.7657 N   0  0  0  0  0  0  0  0  0  0  0  0
   26.9661  -20.0603   -8.7515 C   0  0  0  0  0  0  0  0  0  0  0  0
   26.6742  -18.8123   -8.8228 O   0  0  0  0  0  0  0  0  0  0  0  0
   26.4243  -21.7112   -3.4632 C   0  0  0  0  0  0  0  0  0  0  0  0
   26.3446  -20.9349   -4.7743 C   0  0  0  0  0  0  0  0  0  0  0  0
   27.6297  -20.2412   -5.0831 C   0  0  2  0  0  0  0  0  0  0  0  0
   28.0613  -19.3145   -3.9649 C   0  0  0  0  0  0  0  0  0  0  0  0
   27.5664  -19.5581   -6.4067 C   0  0  2  0  0  0  0  0  0  0  0  0
   27.3362  -20.5320   -7.4824 N   0  0  0  0  0  0  0  0  0  0  0  0
   28.7666  -18.7830   -6.7528 C   0  0  0  0  0  0  0  0  0  0  0  0
   28.9479  -17.4280   -6.4932 O   0  0  0  0  0  0  0  0  0  0  0  0
   29.7265  -19.3680   -7.3359 O   0  0  0  0  0  0  0  0  0  0  0  0
  2  3  1  0
  2  1  1  1
  4  9  2  0
  4  3  1  0
  5  4  1  0
  6  7  1  0
  6  5  2  0
  7  8  2  0
  8  9  1  0
 10  2  1  0
 10 11  2  0
 12 13  1  0
 14 13  1  0
 14 15  1  1
 14 16  1  0
 16 17  1  6
 17 10  1  0
 18 16  1  0
 19 18  2  0
 20 21  1  0
 21 22  1  0
 22 24  1  0
 22 23  1  1
 24 25  1  6
 24 26  1  0
 25 18  1  0
 26 28  2  0
 26 27  1  0
M  END
$$$$
