FII.pdb
     RDKit          3D

 28 28  0  0  1  0  0  0  0  0999 V2000
   23.0747  -20.3770  -15.1788 N   0  0  0  0  0  0  0  0  0  0  0  0
   23.3923  -20.0506  -13.8141 C   0  0  1  0  0  0  0  0  0  0  0  0
   22.2698  -20.3542  -12.8491 C   0  0  0  0  0  0  0  0  0  0  0  0
   20.9729  -19.9048  -13.4035 C   0  0  0  0  0  0  0  0  0  0  0  0
   20.8301  -18.5826  -13.7527 C   0  0  0  0  0  0  0  0  0  0  0  0
   19.6612  -18.0887  -14.2736 C   0  0  0  0  0  0  0  0  0  0  0  0
   18.6135  -18.9370  -14.4482 C   0  0  0  0  0  0  0  0  0  0  0  0
   18.7332  -20.2681  -14.1047 C   0  0  0  0  0  0  0  0  0  0  0  0
   19.9113  -20.7613  -13.5808 C   0  0  0  0  0  0  0  0  0  0  0  0
   24.6110  -20.7908  -13.3985 C   0  0  0  0  0  0  0  0  0  0  0  0
   24.7375  -22.0114  -13.6585 O   0  0  0  0  0  0  0  0  0  0  0  0
   29.4762  -18.9571  -14.4928 C   0  0  0  0  0  0  0  0  0  0  0  0
   28.2044  -19.7670  -14.2000 C   0  0  0  0  0  0  0  0  0  0  0  0
   28.0888  -20.0888  -12.7483 C   0  0  2  0  0  0  0  0  0  0  0  0
   29.3643  -20.7693  -12.2914 C   0  0  0  0  0  0  0  0  0  0  0  0
   26.8895  -20.8555  -12.3191 C   0  0  2  0  0  0  0  0  0  0  0  0
   25.6597  -20.1497  -12.7021 N   0  0  0  0  0  0  0  0  0  0  0  0
   26.8104  -21.0615  -10.8591 C   0  0  0  0  0  0  0  0  0  0  0  0
   27.5758  -21.9475  -10.3329 O   0  0  0  0  0  0  0  0  0  0  0  0
   28.3967  -18.4368   -7.0655 C   0  0  0  0  0  0  0  0  0  0  0  0
   27.8404  -19.5353   -7.9665 C   0  0  0  0  0  0  0  0  0  0  0  0
   26.4206  -19.8542   -7.6344 C   0  0  2  0  0  0  0  0  0  0  0  0
   26.2515  -20.2660   -6.1862 C   0  0  0  0  0  0  0  0  0  0  0  0
   25.8574  -20.8525   -8.5878 C   0  0  2  0  0  0  0  0  0  0  0  0
   25.9716  -20.3703   -9.9709 N   0  0  0  0  0  0  0  0  0  0  0  0
   24.4492  -21.1997   -8.3486 C   0  0  0  0  0  0  0  0  0  0  0  0
   24.0004  -22.1307   -7.4169 O   0  0  0  0  0  0  0  0  0  0  0  0
   23.5517  -20.6233   -9.0314 O   0  0  0  0  0  0  0  0  0  0  0  0
  2  3  1  0
  2  1  1  6
  4  9  2  0
  4  3  1  0
  5  4  1  0
  6  7  1  0
  6  5  2  0
  7  8  2  0
  8  9  1  0
 10  2  1  0
 10 11  2  0
 12 13  1  0
 14 13  1  0
 14 15  1  6
 14 16  1  0
 16 17  1  1
 17 10  1  0
 18 16  1  0
 19 18  2  0
 20 21  1  0
 21 22  1  0
 22 24  1  0
 22 23  1  1
 24 25  1  6
 24 26  1  0
 25 18  1  0
 26 28  2  0
 26 27  1  0
M  END
$$$$
