FII.pdb
     RDKit          3D

 28 28  0  0  1  0  0  0  0  0999 V2000
   27.3813  -18.4371   -8.1055 N   0  0  0  0  0  0  0  0  0  0  0  0
   27.0485  -19.8254   -8.2838 C   0  0  1  0  0  0  0  0  0  0  0  0
   26.5280  -20.4826   -7.0267 C   0  0  0  0  0  0  0  0  0  0  0  0
   27.4749  -20.2835   -5.9065 C   0  0  0  0  0  0  0  0  0  0  0  0
   27.1920  -20.8684   -4.6948 C   0  0  0  0  0  0  0  0  0  0  0  0
   28.0192  -20.7320   -3.6090 C   0  0  0  0  0  0  0  0  0  0  0  0
   29.1534  -19.9944   -3.7399 C   0  0  0  0  0  0  0  0  0  0  0  0
   29.4582  -19.3976   -4.9463 C   0  0  0  0  0  0  0  0  0  0  0  0
   28.6231  -19.5372   -6.0365 C   0  0  0  0  0  0  0  0  0  0  0  0
   26.0362  -19.9575   -9.3625 C   0  0  0  0  0  0  0  0  0  0  0  0
   25.0327  -19.2055   -9.3932 O   0  0  0  0  0  0  0  0  0  0  0  0
   29.4230  -21.2916  -13.2492 C   0  0  0  0  0  0  0  0  0  0  0  0
   28.3638  -20.5692  -12.4034 C   0  0  0  0  0  0  0  0  0  0  0  0
   27.0005  -21.1184  -12.6571 C   0  0  2  0  0  0  0  0  0  0  0  0
   26.6642  -20.9435  -14.1251 C   0  0  0  0  0  0  0  0  0  0  0  0
   25.8990  -20.6196  -11.7922 C   0  0  2  0  0  0  0  0  0  0  0  0
   26.1689  -20.9268  -10.3816 N   0  0  0  0  0  0  0  0  0  0  0  0
   24.5858  -21.2195  -12.1021 C   0  0  0  0  0  0  0  0  0  0  0  0
   24.4261  -22.4724  -11.8728 O   0  0  0  0  0  0  0  0  0  0  0  0
   20.0906  -19.4329  -10.2885 C   0  0  0  0  0  0  0  0  0  0  0  0
   21.2564  -20.2401  -10.8517 C   0  0  0  0  0  0  0  0  0  0  0  0
   21.0599  -20.5574  -12.2969 C   0  0  2  0  0  0  0  0  0  0  0  0
   19.7446  -21.2643  -12.5526 C   0  0  0  0  0  0  0  0  0  0  0  0
   22.2303  -21.2988  -12.8477 C   0  0  2  0  0  0  0  0  0  0  0  0
   23.4721  -20.5454  -12.6269 N   0  0  0  0  0  0  0  0  0  0  0  0
   22.1402  -21.6044  -14.2828 C   0  0  0  0  0  0  0  0  0  0  0  0
   21.6490  -22.7901  -14.8204 O   0  0  0  0  0  0  0  0  0  0  0  0
   22.5356  -20.7396  -15.1192 O   0  0  0  0  0  0  0  0  0  0  0  0
  2  3  1  0
  2  1  1  1
  4  9  2  0
  4  3  1  0
  5  4  1  0
  6  7  1  0
  6  5  2  0
  7  8  2  0
  8  9  1  0
 10  2  1  0
 10 11  2  0
 12 13  1  0
 14 13  1  0
 14 15  1  6
 14 16  1  0
 16 17  1  1
 17 10  1  0
 18 16  1  0
 19 18  2  0
 20 21  1  0
 21 22  1  0
 22 24  1  0
 22 23  1  1
 24 25  1  6
 24 26  1  0
 25 18  1  0
 26 28  2  0
 26 27  1  0
M  END
$$$$
