FII.pdb
     RDKit          3D

 28 28  0  0  1  0  0  0  0  0999 V2000
   28.0942  -20.7703  -14.8285 N   0  0  0  0  0  0  0  0  0  0  0  0
   27.3741  -19.8895  -13.9479 C   0  0  1  0  0  0  0  0  0  0  0  0
   26.3628  -19.0237  -14.6627 C   0  0  0  0  0  0  0  0  0  0  0  0
   27.0411  -18.0942  -15.5938 C   0  0  0  0  0  0  0  0  0  0  0  0
   26.6968  -18.1293  -16.9245 C   0  0  0  0  0  0  0  0  0  0  0  0
   27.2785  -17.3002  -17.8498 C   0  0  0  0  0  0  0  0  0  0  0  0
   28.2246  -16.4177  -17.4333 C   0  0  0  0  0  0  0  0  0  0  0  0
   28.5868  -16.3644  -16.1028 C   0  0  0  0  0  0  0  0  0  0  0  0
   27.9991  -17.2004  -15.1747 C   0  0  0  0  0  0  0  0  0  0  0  0
   26.6852  -20.6887  -12.9027 C   0  0  0  0  0  0  0  0  0  0  0  0
   26.2889  -21.8537  -13.1461 O   0  0  0  0  0  0  0  0  0  0  0  0
   26.0104  -20.6482   -6.7324 C   0  0  0  0  0  0  0  0  0  0  0  0
   25.4940  -21.1951   -8.0716 C   0  0  0  0  0  0  0  0  0  0  0  0
   26.1717  -20.5346   -9.2244 C   0  0  2  0  0  0  0  0  0  0  0  0
   26.1208  -19.0317   -9.0308 C   0  0  0  0  0  0  0  0  0  0  0  0
   25.7131  -20.9149  -10.5865 C   0  0  2  0  0  0  0  0  0  0  0  0
   26.4552  -20.1674  -11.6100 N   0  0  0  0  0  0  0  0  0  0  0  0
   24.2829  -20.6381  -10.8279 C   0  0  0  0  0  0  0  0  0  0  0  0
   23.9019  -19.4125  -10.8530 O   0  0  0  0  0  0  0  0  0  0  0  0
   22.2249  -21.3354  -15.1809 C   0  0  0  0  0  0  0  0  0  0  0  0
   22.4671  -20.8366  -13.7595 C   0  0  0  0  0  0  0  0  0  0  0  0
   21.5737  -21.5176  -12.7767 C   0  0  2  0  0  0  0  0  0  0  0  0
   20.1077  -21.3012  -13.0920 C   0  0  0  0  0  0  0  0  0  0  0  0
   21.9254  -21.1379  -11.3785 C   0  0  2  0  0  0  0  0  0  0  0  0
   23.2800  -21.5965  -11.0418 N   0  0  0  0  0  0  0  0  0  0  0  0
   21.0082  -21.6581  -10.3544 C   0  0  0  0  0  0  0  0  0  0  0  0
   21.0284  -22.9522   -9.8434 O   0  0  0  0  0  0  0  0  0  0  0  0
   20.1174  -20.8911   -9.8833 O   0  0  0  0  0  0  0  0  0  0  0  0
  2  3  1  0
  2  1  1  6
  4  9  2  0
  4  3  1  0
  5  4  1  0
  6  7  1  0
  6  5  2  0
  7  8  2  0
  8  9  1  0
 10  2  1  0
 10 11  2  0
 12 13  1  0
 14 13  1  0
 14 15  1  1
 14 16  1  0
 16 17  1  6
 17 10  1  0
 18 16  1  0
 19 18  2  0
 20 21  1  0
 21 22  1  0
 22 24  1  0
 22 23  1  6
 24 25  1  1
 24 26  1  0
 25 18  1  0
 26 28  2  0
 26 27  1  0
M  END
$$$$
