FII.pdb
     RDKit          3D

 28 28  0  0  1  0  0  0  0  0999 V2000
   23.1592  -20.5735  -13.8961 N   0  0  0  0  0  0  0  0  0  0  0  0
   22.3325  -20.1533  -12.7963 C   0  0  1  0  0  0  0  0  0  0  0  0
   20.8570  -20.1529  -13.1223 C   0  0  0  0  0  0  0  0  0  0  0  0
   20.5678  -19.2008  -14.2182 C   0  0  0  0  0  0  0  0  0  0  0  0
   20.6664  -17.8536  -13.9617 C   0  0  0  0  0  0  0  0  0  0  0  0
   20.4158  -16.9084  -14.9237 C   0  0  0  0  0  0  0  0  0  0  0  0
   20.0588  -17.3214  -16.1685 C   0  0  0  0  0  0  0  0  0  0  0  0
   19.9531  -18.6682  -16.4496 C   0  0  0  0  0  0  0  0  0  0  0  0
   20.2062  -19.6164  -15.4787 C   0  0  0  0  0  0  0  0  0  0  0  0
   22.5769  -21.0360  -11.6272 C   0  0  0  0  0  0  0  0  0  0  0  0
   22.7421  -22.2699  -11.7811 O   0  0  0  0  0  0  0  0  0  0  0  0
   26.0491  -19.6893   -7.7237 C   0  0  0  0  0  0  0  0  0  0  0  0
   25.2122  -20.4950   -8.7285 C   0  0  0  0  0  0  0  0  0  0  0  0
   23.8341  -20.7397   -8.2133 C   0  0  2  0  0  0  0  0  0  0  0  0
   23.9247  -21.5086   -6.9097 C   0  0  0  0  0  0  0  0  0  0  0  0
   22.8673  -21.3776   -9.1453 C   0  0  2  0  0  0  0  0  0  0  0  0
   22.6312  -20.5193  -10.3134 N   0  0  0  0  0  0  0  0  0  0  0  0
   21.5430  -21.6293   -8.5426 C   0  0  0  0  0  0  0  0  0  0  0  0
   20.7833  -20.6203   -8.3133 O   0  0  0  0  0  0  0  0  0  0  0  0
   17.8514  -24.2803  -10.5953 C   0  0  0  0  0  0  0  0  0  0  0  0
   18.5523  -23.2674   -9.6950 C   0  0  0  0  0  0  0  0  0  0  0  0
   18.7703  -23.8090   -8.3213 C   0  0  2  0  0  0  0  0  0  0  0  0
   17.4657  -24.0667   -7.5954 C   0  0  0  0  0  0  0  0  0  0  0  0
   19.7018  -22.9423   -7.5441 C   0  0  2  0  0  0  0  0  0  0  0  0
   21.0185  -22.8835   -8.1932 N   0  0  0  0  0  0  0  0  0  0  0  0
   19.9071  -23.3612   -6.1502 C   0  0  0  0  0  0  0  0  0  0  0  0
   20.8209  -24.3221   -5.7283 O   0  0  0  0  0  0  0  0  0  0  0  0
   19.2098  -22.8235   -5.2400 O   0  0  0  0  0  0  0  0  0  0  0  0
  2  3  1  0
  2  1  1  6
  4  9  2  0
  4  3  1  0
  5  4  1  0
  6  7  1  0
  6  5  2  0
  7  8  2  0
  8  9  1  0
 10  2  1  0
 10 11  2  0
 12 13  1  0
 14 13  1  0
 14 15  1  1
 14 16  1  0
 16 17  1  6
 17 10  1  0
 18 16  1  0
 19 18  2  0
 20 21  1  0
 21 22  1  0
 22 24  1  0
 22 23  1  1
 24 25  1  6
 24 26  1  0
 25 18  1  0
 26 28  2  0
 26 27  1  0
M  END
$$$$
