FII.pdb
     RDKit          3D

 28 28  0  0  1  0  0  0  0  0999 V2000
   23.4295  -22.0186  -13.0509 N   0  0  0  0  0  0  0  0  0  0  0  0
   23.7430  -20.9392  -12.1530 C   0  0  1  0  0  0  0  0  0  0  0  0
   22.5404  -20.4166  -11.4019 C   0  0  0  0  0  0  0  0  0  0  0  0
   21.5713  -19.8020  -12.3370 C   0  0  0  0  0  0  0  0  0  0  0  0
   21.9566  -18.6877  -13.0444 C   0  0  0  0  0  0  0  0  0  0  0  0
   21.1176  -18.0609  -13.9304 C   0  0  0  0  0  0  0  0  0  0  0  0
   19.8666  -18.5609  -14.1114 C   0  0  0  0  0  0  0  0  0  0  0  0
   19.4574  -19.6781  -13.4124 C   0  0  0  0  0  0  0  0  0  0  0  0
   20.3048  -20.3060  -12.5216 C   0  0  0  0  0  0  0  0  0  0  0  0
   24.7728  -21.3867  -11.1809 C   0  0  0  0  0  0  0  0  0  0  0  0
   24.7066  -22.5249  -10.6579 O   0  0  0  0  0  0  0  0  0  0  0  0
   29.6239  -21.3988  -12.8877 C   0  0  0  0  0  0  0  0  0  0  0  0
   28.2900  -21.6363  -12.1641 C   0  0  0  0  0  0  0  0  0  0  0  0
   28.2528  -20.9308  -10.8505 C   0  0  2  0  0  0  0  0  0  0  0  0
   29.4631  -21.3429  -10.0355 C   0  0  0  0  0  0  0  0  0  0  0  0
   27.0038  -21.0518  -10.0533 C   0  0  2  0  0  0  0  0  0  0  0  0
   25.8526  -20.5519  -10.8161 N   0  0  0  0  0  0  0  0  0  0  0  0
   27.0300  -20.2831   -8.7928 C   0  0  0  0  0  0  0  0  0  0  0  0
   26.5120  -19.1086   -8.7919 O   0  0  0  0  0  0  0  0  0  0  0  0
   27.5375  -22.4163   -3.6675 C   0  0  0  0  0  0  0  0  0  0  0  0
   27.0517  -21.5980   -4.8601 C   0  0  0  0  0  0  0  0  0  0  0  0
   27.9922  -20.4854   -5.1849 C   0  0  2  0  0  0  0  0  0  0  0  0
   28.1819  -19.5388   -4.0174 C   0  0  0  0  0  0  0  0  0  0  0  0
   27.5831  -19.7846   -6.4356 C   0  0  2  0  0  0  0  0  0  0  0  0
   27.5690  -20.7165   -7.5713 N   0  0  0  0  0  0  0  0  0  0  0  0
   28.4331  -18.6428   -6.8027 C   0  0  0  0  0  0  0  0  0  0  0  0
   28.1403  -17.3083   -6.5392 O   0  0  0  0  0  0  0  0  0  0  0  0
   29.5230  -18.8608   -7.4096 O   0  0  0  0  0  0  0  0  0  0  0  0
  2  3  1  0
  2  1  1  6
  4  9  2  0
  4  3  1  0
  5  4  1  0
  6  7  1  0
  6  5  2  0
  7  8  2  0
  8  9  1  0
 10  2  1  0
 10 11  2  0
 12 13  1  0
 14 13  1  0
 14 15  1  1
 14 16  1  0
 16 17  1  6
 17 10  1  0
 18 16  1  0
 19 18  2  0
 20 21  1  0
 21 22  1  0
 22 24  1  0
 22 23  1  1
 24 25  1  6
 24 26  1  0
 25 18  1  0
 26 28  2  0
 26 27  1  0
M  END
$$$$
