FII.pdb
     RDKit          3D

 28 28  0  0  1  0  0  0  0  0999 V2000
   21.3114  -13.2520  -19.8918 N   0  0  0  0  0  0  0  0  0  0  0  0
   22.0594  -12.0237  -19.8533 C   0  0  1  0  0  0  0  0  0  0  0  0
   21.3779  -10.8848  -20.5758 C   0  0  0  0  0  0  0  0  0  0  0  0
   21.2788  -11.1742  -22.0241 C   0  0  0  0  0  0  0  0  0  0  0  0
   22.3687  -10.9168  -22.8219 C   0  0  0  0  0  0  0  0  0  0  0  0
   22.3566  -11.1583  -24.1722 C   0  0  0  0  0  0  0  0  0  0  0  0
   21.2293  -11.6684  -24.7349 C   0  0  0  0  0  0  0  0  0  0  0  0
   20.1229  -11.9346  -23.9544 C   0  0  0  0  0  0  0  0  0  0  0  0
   20.1390  -11.6901  -22.5958 C   0  0  0  0  0  0  0  0  0  0  0  0
   22.3006  -11.6347  -18.4404 C   0  0  0  0  0  0  0  0  0  0  0  0
   21.4800  -11.9432  -17.5433 O   0  0  0  0  0  0  0  0  0  0  0  0
   27.2202  -11.7438  -15.9413 C   0  0  0  0  0  0  0  0  0  0  0  0
   25.7336  -11.8331  -16.3173 C   0  0  0  0  0  0  0  0  0  0  0  0
   25.0933  -10.4861  -16.3206 C   0  0  2  0  0  0  0  0  0  0  0  0
   25.3413   -9.8194  -14.9817 C   0  0  0  0  0  0  0  0  0  0  0  0
   23.6554  -10.4219  -16.6928 C   0  0  2  0  0  0  0  0  0  0  0  0
   23.4532  -10.9102  -18.0630 N   0  0  0  0  0  0  0  0  0  0  0  0
   23.0947   -9.0564  -16.6534 C   0  0  0  0  0  0  0  0  0  0  0  0
   23.6109   -8.1701  -17.4254 O   0  0  0  0  0  0  0  0  0  0  0  0
   18.6655   -5.6119  -17.8274 C   0  0  0  0  0  0  0  0  0  0  0  0
   19.8594   -5.7333  -16.8853 C   0  0  0  0  0  0  0  0  0  0  0  0
   20.3409   -7.1426  -16.7845 C   0  0  2  0  0  0  0  0  0  0  0  0
   19.2543   -8.0846  -16.3080 C   0  0  0  0  0  0  0  0  0  0  0  0
   21.5811   -7.2286  -15.9615 C   0  0  2  0  0  0  0  0  0  0  0  0
   22.0314   -8.6223  -15.8464 N   0  0  0  0  0  0  0  0  0  0  0  0
   21.4515   -6.6853  -14.6018 C   0  0  0  0  0  0  0  0  0  0  0  0
   21.4630   -5.3329  -14.2746 O   0  0  0  0  0  0  0  0  0  0  0  0
   21.3197   -7.4883  -13.6313 O   0  0  0  0  0  0  0  0  0  0  0  0
  2  3  1  0
  2  1  1  1
  4  9  2  0
  4  3  1  0
  5  4  1  0
  6  7  1  0
  6  5  2  0
  7  8  2  0
  8  9  1  0
 10  2  1  0
 10 11  2  0
 12 13  1  0
 14 13  1  0
 14 15  1  1
 14 16  1  0
 16 17  1  6
 17 10  1  0
 18 16  1  0
 19 18  2  0
 20 21  1  0
 21 22  1  0
 22 24  1  0
 22 23  1  1
 24 25  1  1
 24 26  1  0
 25 18  1  0
 26 28  2  0
 26 27  1  0
M  END
$$$$
