FII.pdb
     RDKit          3D

 28 28  0  0  1  0  0  0  0  0999 V2000
   23.2420  -20.2242  -13.9593 N   0  0  0  0  0  0  0  0  0  0  0  0
   22.1835  -20.1388  -12.9888 C   0  0  1  0  0  0  0  0  0  0  0  0
   20.8104  -20.3610  -13.5793 C   0  0  0  0  0  0  0  0  0  0  0  0
   20.5221  -19.3473  -14.6188 C   0  0  0  0  0  0  0  0  0  0  0  0
   20.5935  -19.7218  -15.9398 C   0  0  0  0  0  0  0  0  0  0  0  0
   20.3399  -18.8420  -16.9613 C   0  0  0  0  0  0  0  0  0  0  0  0
   20.0079  -17.5605  -16.6529 C   0  0  0  0  0  0  0  0  0  0  0  0
   19.9302  -17.1614  -15.3342 C   0  0  0  0  0  0  0  0  0  0  0  0
   20.1862  -18.0498  -14.3091 C   0  0  0  0  0  0  0  0  0  0  0  0
   22.4202  -21.1307  -11.9091 C   0  0  0  0  0  0  0  0  0  0  0  0
   23.4308  -21.8733  -11.9333 O   0  0  0  0  0  0  0  0  0  0  0  0
   25.2738  -20.1668   -8.6847 C   0  0  0  0  0  0  0  0  0  0  0  0
   24.2927  -20.9965   -9.5263 C   0  0  0  0  0  0  0  0  0  0  0  0
   22.9544  -21.0799   -8.8733 C   0  0  2  0  0  0  0  0  0  0  0  0
   23.1349  -21.5232   -7.4347 C   0  0  0  0  0  0  0  0  0  0  0  0
   21.9173  -21.8952   -9.5589 C   0  0  2  0  0  0  0  0  0  0  0  0
   21.5221  -21.2695  -10.8274 N   0  0  0  0  0  0  0  0  0  0  0  0
   20.6774  -22.0568   -8.7734 C   0  0  0  0  0  0  0  0  0  0  0  0
   19.9763  -21.0092   -8.5312 O   0  0  0  0  0  0  0  0  0  0  0  0
   17.2054  -26.3190   -9.2986 C   0  0  0  0  0  0  0  0  0  0  0  0
   18.2196  -25.5017   -8.5041 C   0  0  0  0  0  0  0  0  0  0  0  0
   17.8848  -24.0471   -8.5147 C   0  0  2  0  0  0  0  0  0  0  0  0
   17.7749  -23.4966   -9.9219 C   0  0  0  0  0  0  0  0  0  0  0  0
   18.8325  -23.2719   -7.6641 C   0  0  2  0  0  0  0  0  0  0  0  0
   20.1755  -23.2629   -8.2598 N   0  0  0  0  0  0  0  0  0  0  0  0
   18.9572  -23.7626   -6.2841 C   0  0  0  0  0  0  0  0  0  0  0  0
   17.9235  -23.8100   -5.3538 O   0  0  0  0  0  0  0  0  0  0  0  0
   20.0833  -24.1795   -5.8816 O   0  0  0  0  0  0  0  0  0  0  0  0
  2  3  1  0
  2  1  1  6
  4  9  2  0
  4  3  1  0
  5  4  1  0
  6  7  1  0
  6  5  2  0
  7  8  2  0
  8  9  1  0
 10  2  1  0
 10 11  2  0
 12 13  1  0
 14 13  1  0
 14 15  1  1
 14 16  1  0
 16 17  1  6
 17 10  1  0
 18 16  1  0
 19 18  2  0
 20 21  1  0
 21 22  1  0
 22 24  1  0
 22 23  1  6
 24 25  1  6
 24 26  1  0
 25 18  1  0
 26 28  2  0
 26 27  1  0
M  END
$$$$
