FII.pdb
     RDKit          3D

 28 28  0  0  1  0  0  0  0  0999 V2000
   22.5357  -21.5691  -15.2298 N   0  0  0  0  0  0  0  0  0  0  0  0
   23.0089  -20.5342  -14.3495 C   0  0  1  0  0  0  0  0  0  0  0  0
   21.9043  -19.8610  -13.5686 C   0  0  0  0  0  0  0  0  0  0  0  0
   21.0372  -19.0710  -14.4716 C   0  0  0  0  0  0  0  0  0  0  0  0
   19.7580  -19.5154  -14.7095 C   0  0  0  0  0  0  0  0  0  0  0  0
   18.8932  -18.8398  -15.5326 C   0  0  0  0  0  0  0  0  0  0  0  0
   19.3188  -17.6953  -16.1297 C   0  0  0  0  0  0  0  0  0  0  0  0
   20.5985  -17.2299  -15.9062 C   0  0  0  0  0  0  0  0  0  0  0  0
   21.4658  -17.9127  -15.0772 C   0  0  0  0  0  0  0  0  0  0  0  0
   24.0021  -21.1042  -13.4038 C   0  0  0  0  0  0  0  0  0  0  0  0
   23.7876  -22.2021  -12.8362 O   0  0  0  0  0  0  0  0  0  0  0  0
   29.3159  -21.1638  -14.5775 C   0  0  0  0  0  0  0  0  0  0  0  0
   27.8634  -21.4071  -14.1411 C   0  0  0  0  0  0  0  0  0  0  0  0
   27.5924  -20.8092  -12.8019 C   0  0  2  0  0  0  0  0  0  0  0  0
   28.6648  -21.2657  -11.8322 C   0  0  0  0  0  0  0  0  0  0  0  0
   26.2340  -21.0128  -12.2330 C   0  0  2  0  0  0  0  0  0  0  0  0
   25.2116  -20.4342  -13.1144 N   0  0  0  0  0  0  0  0  0  0  0  0
   26.0457  -20.3819  -10.9113 C   0  0  0  0  0  0  0  0  0  0  0  0
   25.8391  -19.1156  -10.8716 O   0  0  0  0  0  0  0  0  0  0  0  0
   22.6256  -21.6099   -7.1476 C   0  0  0  0  0  0  0  0  0  0  0  0
   23.6066  -20.8952   -8.0721 C   0  0  0  0  0  0  0  0  0  0  0  0
   24.9836  -20.8646   -7.4968 C   0  0  2  0  0  0  0  0  0  0  0  0
   25.0144  -20.2274   -6.1226 C   0  0  0  0  0  0  0  0  0  0  0  0
   25.9479  -20.2377   -8.4454 C   0  0  2  0  0  0  0  0  0  0  0  0
   26.0648  -21.0392   -9.6712 N   0  0  0  0  0  0  0  0  0  0  0  0
   27.3010  -20.0458   -7.9041 C   0  0  0  0  0  0  0  0  0  0  0  0
   27.7255  -18.9342   -7.1828 O   0  0  0  0  0  0  0  0  0  0  0  0
   28.1708  -20.9461   -8.0959 O   0  0  0  0  0  0  0  0  0  0  0  0
  2  3  1  0
  2  1  1  1
  4  9  2  0
  4  3  1  0
  5  4  1  0
  6  7  1  0
  6  5  2  0
  7  8  2  0
  8  9  1  0
 10  2  1  0
 10 11  2  0
 12 13  1  0
 14 13  1  0
 14 15  1  1
 14 16  1  0
 16 17  1  6
 17 10  1  0
 18 16  1  0
 19 18  2  0
 20 21  1  0
 21 22  1  0
 22 24  1  0
 22 23  1  1
 24 25  1  6
 24 26  1  0
 25 18  1  0
 26 28  2  0
 26 27  1  0
M  END
$$$$
