FII.pdb
     RDKit          3D

 28 28  0  0  1  0  0  0  0  0999 V2000
   25.8437  -18.2985  -16.1603 N   0  0  0  0  0  0  0  0  0  0  0  0
   26.6887  -18.3689  -14.9980 C   0  0  1  0  0  0  0  0  0  0  0  0
   27.5720  -17.1551  -14.8255 C   0  0  0  0  0  0  0  0  0  0  0  0
   28.4741  -17.0000  -15.9888 C   0  0  0  0  0  0  0  0  0  0  0  0
   29.5452  -17.8537  -16.1084 C   0  0  0  0  0  0  0  0  0  0  0  0
   30.4260  -17.7753  -17.1572 C   0  0  0  0  0  0  0  0  0  0  0  0
   30.2294  -16.8219  -18.1059 C   0  0  0  0  0  0  0  0  0  0  0  0
   29.1614  -15.9537  -18.0070 C   0  0  0  0  0  0  0  0  0  0  0  0
   28.2774  -16.0358  -16.9500 C   0  0  0  0  0  0  0  0  0  0  0  0
   25.8493  -18.5420  -13.7851 C   0  0  0  0  0  0  0  0  0  0  0  0
   24.8521  -17.8070  -13.5874 O   0  0  0  0  0  0  0  0  0  0  0  0
   22.4537  -22.7192  -12.1455 C   0  0  0  0  0  0  0  0  0  0  0  0
   23.2759  -21.6263  -11.4463 C   0  0  0  0  0  0  0  0  0  0  0  0
   24.3139  -21.0627  -12.3570 C   0  0  2  0  0  0  0  0  0  0  0  0
   25.1655  -22.1960  -12.8947 C   0  0  0  0  0  0  0  0  0  0  0  0
   25.1604  -19.9649  -11.8200 C   0  0  2  0  0  0  0  0  0  0  0  0
   26.1436  -19.5322  -12.8215 N   0  0  0  0  0  0  0  0  0  0  0  0
   25.9323  -20.3460  -10.6203 C   0  0  0  0  0  0  0  0  0  0  0  0
   26.9514  -21.1108  -10.7769 O   0  0  0  0  0  0  0  0  0  0  0  0
   28.4272  -17.6107   -7.1358 C   0  0  0  0  0  0  0  0  0  0  0  0
   27.9515  -18.7706   -8.0054 C   0  0  0  0  0  0  0  0  0  0  0  0
   26.9826  -19.6430   -7.2787 C   0  0  2  0  0  0  0  0  0  0  0  0
   27.6029  -20.2926   -6.0585 C   0  0  0  0  0  0  0  0  0  0  0  0
   26.3531  -20.6308   -8.2011 C   0  0  2  0  0  0  0  0  0  0  0  0
   25.6631  -19.9453   -9.3023 N   0  0  0  0  0  0  0  0  0  0  0  0
   25.3878  -21.5361   -7.5612 C   0  0  0  0  0  0  0  0  0  0  0  0
   24.0152  -21.5353   -7.7897 O   0  0  0  0  0  0  0  0  0  0  0  0
   25.8099  -22.3934   -6.7302 O   0  0  0  0  0  0  0  0  0  0  0  0
  2  3  1  0
  2  1  1  6
  4  9  2  0
  4  3  1  0
  5  4  1  0
  6  7  1  0
  6  5  2  0
  7  8  2  0
  8  9  1  0
 10  2  1  0
 10 11  2  0
 12 13  1  0
 14 13  1  0
 14 15  1  1
 14 16  1  0
 16 17  1  6
 17 10  1  0
 18 16  1  0
 19 18  2  0
 20 21  1  0
 21 22  1  0
 22 24  1  0
 22 23  1  1
 24 25  1  6
 24 26  1  0
 25 18  1  0
 26 28  2  0
 26 27  1  0
M  END
$$$$
