FII.pdb
     RDKit          3D

 28 28  0  0  1  0  0  0  0  0999 V2000
   23.4726  -17.3123  -16.3213 N   0  0  0  0  0  0  0  0  0  0  0  0
   24.6308  -17.3952  -15.4718 C   0  0  1  0  0  0  0  0  0  0  0  0
   25.0621  -16.0582  -14.9154 C   0  0  0  0  0  0  0  0  0  0  0  0
   25.6511  -15.2176  -15.9820 C   0  0  0  0  0  0  0  0  0  0  0  0
   26.8442  -15.6080  -16.5430 C   0  0  0  0  0  0  0  0  0  0  0  0
   27.4536  -14.8844  -17.5364 C   0  0  0  0  0  0  0  0  0  0  0  0
   26.8554  -13.7461  -17.9769 C   0  0  0  0  0  0  0  0  0  0  0  0
   25.6578  -13.3342  -17.4288 C   0  0  0  0  0  0  0  0  0  0  0  0
   25.0477  -14.0652  -16.4292 C   0  0  0  0  0  0  0  0  0  0  0  0
   24.3565  -18.3288  -14.3498 C   0  0  0  0  0  0  0  0  0  0  0  0
   23.2431  -18.3243  -13.7719 O   0  0  0  0  0  0  0  0  0  0  0  0
   24.1782  -23.3409  -15.2680 C   0  0  0  0  0  0  0  0  0  0  0  0
   24.0604  -21.9105  -14.7208 C   0  0  0  0  0  0  0  0  0  0  0  0
   25.0762  -21.6504  -13.6602 C   0  0  2  0  0  0  0  0  0  0  0  0
   25.0516  -22.7928  -12.6636 C   0  0  0  0  0  0  0  0  0  0  0  0
   25.0109  -20.3356  -12.9695 C   0  0  2  0  0  0  0  0  0  0  0  0
   25.3325  -19.2456  -13.8999 N   0  0  0  0  0  0  0  0  0  0  0  0
   25.9582  -20.2113  -11.8436 C   0  0  0  0  0  0  0  0  0  0  0  0
   27.1753  -19.9028  -12.1109 O   0  0  0  0  0  0  0  0  0  0  0  0
   26.9519  -18.6383   -6.0627 C   0  0  0  0  0  0  0  0  0  0  0  0
   27.4236  -19.3116   -7.3480 C   0  0  0  0  0  0  0  0  0  0  0  0
   26.3041  -19.4923   -8.3186 C   0  0  2  0  0  0  0  0  0  0  0  0
   25.0617  -20.0549   -7.6590 C   0  0  0  0  0  0  0  0  0  0  0  0
   26.7414  -20.2893   -9.5003 C   0  0  2  0  0  0  0  0  0  0  0  0
   25.6563  -20.3945  -10.4851 N   0  0  0  0  0  0  0  0  0  0  0  0
   27.1948  -21.6516   -9.1851 C   0  0  0  0  0  0  0  0  0  0  0  0
   28.4958  -22.0033   -8.8390 O   0  0  0  0  0  0  0  0  0  0  0  0
   26.3573  -22.6007   -9.2258 O   0  0  0  0  0  0  0  0  0  0  0  0
  2  3  1  0
  2  1  1  1
  4  9  2  0
  4  3  1  0
  5  4  1  0
  6  7  1  0
  6  5  2  0
  7  8  2  0
  8  9  1  0
 10  2  1  0
 10 11  2  0
 12 13  1  0
 14 13  1  0
 14 15  1  1
 14 16  1  0
 16 17  1  6
 17 10  1  0
 18 16  1  0
 19 18  2  0
 20 21  1  0
 21 22  1  0
 22 24  1  0
 22 23  1  1
 24 25  1  6
 24 26  1  0
 25 18  1  0
 26 28  2  0
 26 27  1  0
M  END
$$$$
