IQR.pdb
     RDKit          3D

 29 28  0  0  1  0  0  0  0  0999 V2000
    6.6601  -10.4201   26.0787 C   0  0  0  0  0  0  0  0  0  0  0  0
    6.1932  -11.7351   26.6405 C   0  0  0  0  0  0  0  0  0  0  0  0
    7.0830  -12.8344   26.1528 C   0  0  2  0  0  0  0  0  0  0  0  0
    7.1115  -12.8629   24.6337 C   0  0  0  0  0  0  0  0  0  0  0  0
    6.6847  -14.1874   26.7081 C   0  0  2  0  0  0  0  0  0  0  0  0
    6.3366  -14.0781   28.1190 N   0  0  0  0  0  0  0  0  0  0  0  0
    7.7228  -15.2210   26.5575 C   0  0  0  0  0  0  0  0  0  0  0  0
    8.8935  -15.1626   26.9816 O   0  0  0  0  0  0  0  0  0  0  0  0
    6.9809  -21.3110   26.2319 N   0  0  0  0  0  0  0  0  0  0  0  0
    8.3237  -21.1753   25.7753 C   0  0  0  0  0  0  0  0  0  0  0  0
    8.9865  -22.2432   25.6861 O   0  0  0  0  0  0  0  0  0  0  0  0
    8.9041  -19.8487   25.4248 C   0  0  0  0  0  0  0  0  0  0  0  0
    7.8784  -18.7962   25.8051 C   0  0  0  0  0  0  0  0  0  0  0  0
    8.3935  -17.4092   25.5607 C   0  0  2  0  0  0  0  0  0  0  0  0
    7.3782  -16.4243   25.8560 N   0  0  0  0  0  0  0  0  0  0  0  0
    8.7834  -17.3025   24.1230 C   0  0  0  0  0  0  0  0  0  0  0  0
    7.9871  -17.7430   23.2556 O   0  0  0  0  0  0  0  0  0  0  0  0
    8.4251  -13.8172   18.0251 N   0  0  0  0  0  0  0  0  0  0  0  0
    8.2988  -12.9185   19.1388 C   0  0  0  0  0  0  0  0  0  0  0  0
    8.6817  -11.7058   19.0117 N   0  0  0  0  0  0  0  0  0  0  0  0
    7.7950  -13.2893   20.3848 N   0  0  0  0  0  0  0  0  0  0  0  0
    7.3894  -14.5355   20.8250 C   0  0  0  0  0  0  0  0  0  0  0  0
    8.2269  -15.6048   21.3324 C   0  0  0  0  0  0  0  0  0  0  0  0
    9.6362  -15.3874   21.7059 C   0  0  0  0  0  0  0  0  0  0  0  0
   10.3455  -16.6036   22.2725 C   0  0  2  0  0  0  0  0  0  0  0  0
   10.0097  -16.7258   23.7055 N   0  0  0  0  0  0  0  0  0  0  0  0
   11.7691  -16.7258   22.0679 C   0  0  0  0  0  0  0  0  0  0  0  0
   12.5427  -16.5402   23.0812 O   0  0  0  0  0  0  0  0  0  0  0  0
   12.4455  -17.0269   20.9018 O   0  0  0  0  0  0  0  0  0  0  0  0
  1  2  1  0
  2  3  1  0
  3  4  1  6
  3  5  1  0
  5  6  1  1
  5  7  1  0
  7 15  1  0
  8  7  2  0
  9 10  1  0
 10 12  1  0
 11 10  2  0
 12 13  1  0
 14 13  1  6
 15 14  1  0
 16 14  1  0
 16 17  2  0
 18 19  1  0
 19 20  2  0
 21 19  1  0
 22 21  1  0
 23 24  1  0
 23 22  1  0
 25 24  1  1
 25 26  1  0
 26 16  1  0
 27 25  1  0
 27 29  1  0
 28 27  2  0
M  END
$$$$
