IQR.pdb
     RDKit          3D

 29 28  0  0  1  0  0  0  0  0999 V2000
    7.1652  -12.2838   17.1860 C   0  0  0  0  0  0  0  0  0  0  0  0
    8.4953  -12.6095   17.8088 C   0  0  0  0  0  0  0  0  0  0  0  0
    8.3241  -13.7005   18.8180 C   0  0  2  0  0  0  0  0  0  0  0  0
    7.3112  -13.2944   19.8755 C   0  0  0  0  0  0  0  0  0  0  0  0
    9.6372  -14.1039   19.4589 C   0  0  2  0  0  0  0  0  0  0  0  0
   10.5866  -14.5441   18.4445 N   0  0  0  0  0  0  0  0  0  0  0  0
    9.5036  -15.1648   20.4714 C   0  0  0  0  0  0  0  0  0  0  0  0
    8.6782  -15.1984   21.4049 O   0  0  0  0  0  0  0  0  0  0  0  0
   13.3003  -20.1728   20.5168 N   0  0  0  0  0  0  0  0  0  0  0  0
   12.0183  -20.6500   20.9152 C   0  0  0  0  0  0  0  0  0  0  0  0
   11.8813  -21.9023   20.9463 O   0  0  0  0  0  0  0  0  0  0  0  0
   10.9105  -19.7207   21.2735 C   0  0  0  0  0  0  0  0  0  0  0  0
   11.4655  -18.3100   21.1942 C   0  0  0  0  0  0  0  0  0  0  0  0
   10.4012  -17.2828   21.4409 C   0  0  2  0  0  0  0  0  0  0  0  0
   10.4015  -16.2816   20.3990 N   0  0  0  0  0  0  0  0  0  0  0  0
   10.6782  -16.6298   22.7551 C   0  0  0  0  0  0  0  0  0  0  0  0
   11.4954  -15.6750   22.7853 O   0  0  0  0  0  0  0  0  0  0  0  0
    5.0271  -12.7431   26.8882 N   0  0  0  0  0  0  0  0  0  0  0  0
    6.1896  -12.1212   26.3173 C   0  0  0  0  0  0  0  0  0  0  0  0
    6.3386  -10.8562   26.4221 N   0  0  0  0  0  0  0  0  0  0  0  0
    7.1806  -12.8135   25.6225 N   0  0  0  0  0  0  0  0  0  0  0  0
    7.1131  -14.0517   25.0114 C   0  0  0  0  0  0  0  0  0  0  0  0
    8.0152  -15.1723   25.1923 C   0  0  0  0  0  0  0  0  0  0  0  0
    9.4803  -15.0116   25.1694 C   0  0  0  0  0  0  0  0  0  0  0  0
   10.2694  -16.3070   25.2212 C   0  0  2  0  0  0  0  0  0  0  0  0
   10.0563  -17.0450   23.9599 N   0  0  0  0  0  0  0  0  0  0  0  0
   10.0895  -17.1758   26.3597 C   0  0  0  0  0  0  0  0  0  0  0  0
    9.7487  -18.3983   26.1381 O   0  0  0  0  0  0  0  0  0  0  0  0
   10.2385  -16.8759   27.6998 O   0  0  0  0  0  0  0  0  0  0  0  0
  1  2  1  0
  2  3  1  0
  3  4  1  1
  3  5  1  0
  5  6  1  6
  5  7  1  0
  7 15  1  0
  8  7  2  0
  9 10  1  0
 10 12  1  0
 11 10  2  0
 12 13  1  0
 14 13  1  6
 15 14  1  0
 16 14  1  0
 16 17  2  0
 18 19  1  0
 19 20  2  0
 21 19  1  0
 22 21  1  0
 23 24  1  0
 23 22  1  0
 25 24  1  1
 25 26  1  0
 26 16  1  0
 27 25  1  0
 27 29  1  0
 28 27  2  0
M  END
$$$$
