IQR.pdb
     RDKit          3D

 29 28  0  0  1  0  0  0  0  0999 V2000
    8.1079  -11.7394   20.1791 C   0  0  0  0  0  0  0  0  0  0  0  0
    7.9191  -13.1423   19.6697 C   0  0  0  0  0  0  0  0  0  0  0  0
    7.7946  -14.0841   20.8253 C   0  0  2  0  0  0  0  0  0  0  0  0
    9.0474  -14.0425   21.6844 C   0  0  0  0  0  0  0  0  0  0  0  0
    7.4936  -15.5024   20.3829 C   0  0  2  0  0  0  0  0  0  0  0  0
    6.3277  -15.5282   19.5088 N   0  0  0  0  0  0  0  0  0  0  0  0
    7.2676  -16.4377   21.4977 C   0  0  0  0  0  0  0  0  0  0  0  0
    6.4357  -16.3077   22.4169 O   0  0  0  0  0  0  0  0  0  0  0  0
    7.4147  -22.4785   21.1381 N   0  0  0  0  0  0  0  0  0  0  0  0
    7.2833  -22.2997   22.5455 C   0  0  0  0  0  0  0  0  0  0  0  0
    6.9700  -23.3266   23.2050 O   0  0  0  0  0  0  0  0  0  0  0  0
    7.5051  -20.9767   23.1934 C   0  0  0  0  0  0  0  0  0  0  0  0
    7.7149  -19.9632   22.0829 C   0  0  0  0  0  0  0  0  0  0  0  0
    7.8880  -18.5763   22.6261 C   0  0  2  0  0  0  0  0  0  0  0  0
    8.0727  -17.6240   21.5551 N   0  0  0  0  0  0  0  0  0  0  0  0
    9.0923  -18.5677   23.5093 C   0  0  0  0  0  0  0  0  0  0  0  0
   10.2273  -18.5798   22.9690 O   0  0  0  0  0  0  0  0  0  0  0  0
    9.7734  -13.8263   27.4088 N   0  0  0  0  0  0  0  0  0  0  0  0
    9.7438  -14.2466   28.7823 C   0  0  0  0  0  0  0  0  0  0  0  0
    9.3412  -13.4297   29.6790 N   0  0  0  0  0  0  0  0  0  0  0  0
   10.1521  -15.5059   29.2197 N   0  0  0  0  0  0  0  0  0  0  0  0
   11.2133  -16.2778   28.7845 C   0  0  0  0  0  0  0  0  0  0  0  0
   11.2083  -17.2576   27.7157 C   0  0  0  0  0  0  0  0  0  0  0  0
   10.0632  -17.4147   26.8009 C   0  0  0  0  0  0  0  0  0  0  0  0
   10.2143  -18.5142   25.7657 C   0  0  2  0  0  0  0  0  0  0  0  0
    9.0010  -18.5457   24.9242 N   0  0  0  0  0  0  0  0  0  0  0  0
   10.5582  -19.8410   26.2182 C   0  0  0  0  0  0  0  0  0  0  0  0
    9.6000  -20.6234   26.5780 O   0  0  0  0  0  0  0  0  0  0  0  0
   11.8107  -20.4144   26.3217 O   0  0  0  0  0  0  0  0  0  0  0  0
  1  2  1  0
  2  3  1  0
  3  4  1  6
  3  5  1  0
  5  6  1  6
  5  7  1  0
  7 15  1  0
  8  7  2  0
  9 10  1  0
 10 12  1  0
 11 10  2  0
 12 13  1  0
 14 13  1  6
 15 14  1  0
 16 14  1  0
 16 17  2  0
 18 19  1  0
 19 20  2  0
 21 19  1  0
 22 21  1  0
 23 24  1  0
 23 22  1  0
 25 24  1  1
 25 26  1  0
 26 16  1  0
 27 25  1  0
 27 29  1  0
 28 27  2  0
M  END
$$$$
