IQR.pdb
     RDKit          3D

 29 28  0  0  1  0  0  0  0  0999 V2000
    7.6444  -11.8536   18.9023 C   0  0  0  0  0  0  0  0  0  0  0  0
    8.6728  -12.8470   19.3698 C   0  0  0  0  0  0  0  0  0  0  0  0
    7.9950  -13.9746   20.0819 C   0  0  2  0  0  0  0  0  0  0  0  0
    7.1855  -13.4530   21.2575 C   0  0  0  0  0  0  0  0  0  0  0  0
    8.9726  -15.0412   20.5341 C   0  0  2  0  0  0  0  0  0  0  0  0
    9.7060  -15.5778   19.3947 N   0  0  0  0  0  0  0  0  0  0  0  0
    8.3416  -16.1583   21.2569 C   0  0  0  0  0  0  0  0  0  0  0  0
    7.7065  -16.0839   22.3270 O   0  0  0  0  0  0  0  0  0  0  0  0
    8.1018  -22.0474   18.7251 N   0  0  0  0  0  0  0  0  0  0  0  0
    7.6665  -20.7414   18.3577 C   0  0  0  0  0  0  0  0  0  0  0  0
    7.7565  -20.4539   17.1342 O   0  0  0  0  0  0  0  0  0  0  0  0
    7.1367  -19.7780   19.3630 C   0  0  0  0  0  0  0  0  0  0  0  0
    8.0392  -19.8596   20.5809 C   0  0  0  0  0  0  0  0  0  0  0  0
    7.9508  -18.6186   21.4181 C   0  0  2  0  0  0  0  0  0  0  0  0
    8.4555  -17.4737   20.6952 N   0  0  0  0  0  0  0  0  0  0  0  0
    8.7697  -18.8268   22.6496 C   0  0  0  0  0  0  0  0  0  0  0  0
   10.0117  -18.6462   22.5766 O   0  0  0  0  0  0  0  0  0  0  0  0
   10.2196  -16.1865   29.7763 N   0  0  0  0  0  0  0  0  0  0  0  0
   10.1185  -14.8863   29.1738 C   0  0  0  0  0  0  0  0  0  0  0  0
   10.1733  -13.8464   29.9147 N   0  0  0  0  0  0  0  0  0  0  0  0
    9.9402  -14.6735   27.8074 N   0  0  0  0  0  0  0  0  0  0  0  0
    9.2515  -15.4430   26.8883 C   0  0  0  0  0  0  0  0  0  0  0  0
    9.6389  -16.7352   26.3567 C   0  0  0  0  0  0  0  0  0  0  0  0
    9.0256  -17.2989   25.1406 C   0  0  0  0  0  0  0  0  0  0  0  0
    8.8040  -18.8001   25.1697 C   0  0  2  0  0  0  0  0  0  0  0  0
    8.2001  -19.2170   23.8881 N   0  0  0  0  0  0  0  0  0  0  0  0
    8.0824  -19.3663   26.2841 C   0  0  0  0  0  0  0  0  0  0  0  0
    8.7373  -19.6087   27.3668 O   0  0  0  0  0  0  0  0  0  0  0  0
    6.7428  -19.6943   26.3612 O   0  0  0  0  0  0  0  0  0  0  0  0
  1  2  1  0
  2  3  1  0
  3  4  1  1
  3  5  1  0
  5  6  1  6
  5  7  1  0
  7 15  1  0
  8  7  2  0
  9 10  1  0
 10 12  1  0
 11 10  2  0
 12 13  1  0
 14 13  1  6
 15 14  1  0
 16 14  1  0
 16 17  2  0
 18 19  1  0
 19 20  2  0
 21 19  1  0
 22 21  1  0
 23 24  1  0
 23 22  1  0
 25 24  1  1
 25 26  1  0
 26 16  1  0
 27 25  1  0
 27 29  1  0
 28 27  2  0
M  END
$$$$
