IQR.pdb
     RDKit          3D

 29 28  0  0  1  0  0  0  0  0999 V2000
    8.0213  -11.9065   19.1801 C   0  0  0  0  0  0  0  0  0  0  0  0
    7.7309  -13.0432   20.1217 C   0  0  0  0  0  0  0  0  0  0  0  0
    8.5450  -14.2371   19.7346 C   0  0  2  0  0  0  0  0  0  0  0  0
    8.1342  -14.7398   18.3606 C   0  0  0  0  0  0  0  0  0  0  0  0
    8.4607  -15.3495   20.7608 C   0  0  2  0  0  0  0  0  0  0  0  0
    7.1160  -15.9102   20.7969 N   0  0  0  0  0  0  0  0  0  0  0  0
    8.8337  -14.9315   22.1228 C   0  0  0  0  0  0  0  0  0  0  0  0
    9.9596  -14.5513   22.4989 O   0  0  0  0  0  0  0  0  0  0  0  0
    5.8782  -11.1863   26.5433 N   0  0  0  0  0  0  0  0  0  0  0  0
    6.1246  -12.5242   26.9665 C   0  0  0  0  0  0  0  0  0  0  0  0
    5.2842  -13.0126   27.7684 O   0  0  0  0  0  0  0  0  0  0  0  0
    7.3053  -13.2954   26.4861 C   0  0  0  0  0  0  0  0  0  0  0  0
    6.9739  -13.8013   25.0938 C   0  0  0  0  0  0  0  0  0  0  0  0
    8.1282  -14.5400   24.4851 C   0  0  2  0  0  0  0  0  0  0  0  0
    7.8185  -14.9564   23.1365 N   0  0  0  0  0  0  0  0  0  0  0  0
    8.4061  -15.7443   25.3235 C   0  0  0  0  0  0  0  0  0  0  0  0
    7.4831  -16.5820   25.4873 O   0  0  0  0  0  0  0  0  0  0  0  0
   15.2085  -18.2394   24.2710 N   0  0  0  0  0  0  0  0  0  0  0  0
   14.7269  -17.0237   23.6758 C   0  0  0  0  0  0  0  0  0  0  0  0
   15.5166  -16.0250   23.5644 N   0  0  0  0  0  0  0  0  0  0  0  0
   13.4219  -16.8449   23.2186 N   0  0  0  0  0  0  0  0  0  0  0  0
   12.2399  -17.3324   23.7444 C   0  0  0  0  0  0  0  0  0  0  0  0
   11.9800  -17.7147   25.1187 C   0  0  0  0  0  0  0  0  0  0  0  0
   10.6521  -18.1696   25.5686 C   0  0  0  0  0  0  0  0  0  0  0  0
    9.9727  -17.2663   26.5814 C   0  0  2  0  0  0  0  0  0  0  0  0
    9.6643  -15.9745   25.9355 N   0  0  0  0  0  0  0  0  0  0  0  0
   10.6147  -17.0604   27.8577 C   0  0  0  0  0  0  0  0  0  0  0  0
   10.8845  -18.0981   28.5719 O   0  0  0  0  0  0  0  0  0  0  0  0
   10.9981  -15.8695   28.4430 O   0  0  0  0  0  0  0  0  0  0  0  0
  1  2  1  0
  2  3  1  0
  3  4  1  6
  3  5  1  0
  5  6  1  1
  5  7  1  0
  7 15  1  0
  8  7  2  0
  9 10  1  0
 10 12  1  0
 11 10  2  0
 12 13  1  0
 14 13  1  1
 15 14  1  0
 16 14  1  0
 16 17  2  0
 18 19  1  0
 19 20  2  0
 21 19  1  0
 22 21  1  0
 23 24  1  0
 23 22  1  0
 25 24  1  6
 25 26  1  0
 26 16  1  0
 27 25  1  0
 27 29  1  0
 28 27  2  0
M  END
$$$$
