IQR.pdb
     RDKit          3D

 29 28  0  0  1  0  0  0  0  0999 V2000
    6.9160  -12.5578   27.9609 C   0  0  0  0  0  0  0  0  0  0  0  0
    6.4962  -13.9090   27.4499 C   0  0  0  0  0  0  0  0  0  0  0  0
    7.2756  -14.2450   26.2180 C   0  0  2  0  0  0  0  0  0  0  0  0
    7.7187  -12.9780   25.5054 C   0  0  0  0  0  0  0  0  0  0  0  0
    6.5044  -15.1489   25.2768 C   0  0  2  0  0  0  0  0  0  0  0  0
    6.1737  -16.4071   25.9336 N   0  0  0  0  0  0  0  0  0  0  0  0
    7.2151  -15.4452   24.0214 C   0  0  0  0  0  0  0  0  0  0  0  0
    7.7753  -16.5178   23.7226 O   0  0  0  0  0  0  0  0  0  0  0  0
   10.5401  -12.7798   19.6687 N   0  0  0  0  0  0  0  0  0  0  0  0
    9.2090  -12.7222   19.1640 C   0  0  0  0  0  0  0  0  0  0  0  0
    8.9194  -11.6991   18.4878 O   0  0  0  0  0  0  0  0  0  0  0  0
    8.2232  -13.8090   19.4218 C   0  0  0  0  0  0  0  0  0  0  0  0
    7.6133  -13.5463   20.7868 C   0  0  0  0  0  0  0  0  0  0  0  0
    7.8357  -14.6971   21.7221 C   0  0  2  0  0  0  0  0  0  0  0  0
    7.2846  -14.4129   23.0273 N   0  0  0  0  0  0  0  0  0  0  0  0
    9.3072  -14.9219   21.8443 C   0  0  0  0  0  0  0  0  0  0  0  0
    9.9197  -14.3578   22.7861 O   0  0  0  0  0  0  0  0  0  0  0  0
    9.7960  -18.3682   16.7130 N   0  0  0  0  0  0  0  0  0  0  0  0
   10.8073  -17.5104   16.1605 C   0  0  0  0  0  0  0  0  0  0  0  0
   10.4948  -16.6925   15.2294 N   0  0  0  0  0  0  0  0  0  0  0  0
   12.1421  -17.5212   16.5632 N   0  0  0  0  0  0  0  0  0  0  0  0
   12.6662  -17.5587   17.8420 C   0  0  0  0  0  0  0  0  0  0  0  0
   12.3253  -16.6982   18.9580 C   0  0  0  0  0  0  0  0  0  0  0  0
   11.8225  -17.2333   20.2362 C   0  0  0  0  0  0  0  0  0  0  0  0
   11.4061  -16.1853   21.2519 C   0  0  2  0  0  0  0  0  0  0  0  0
   10.0313  -15.7430   20.9432 N   0  0  0  0  0  0  0  0  0  0  0  0
   12.2735  -15.0512   21.4636 C   0  0  0  0  0  0  0  0  0  0  0  0
   13.0926  -15.0949   22.4571 O   0  0  0  0  0  0  0  0  0  0  0  0
   12.3576  -13.8859   20.7266 O   0  0  0  0  0  0  0  0  0  0  0  0
  1  2  1  0
  2  3  1  0
  3  4  1  6
  3  5  1  0
  5  6  1  1
  5  7  1  0
  7 15  1  0
  8  7  2  0
  9 10  1  0
 10 12  1  0
 11 10  2  0
 12 13  1  0
 14 13  1  6
 15 14  1  0
 16 14  1  0
 16 17  2  0
 18 19  1  0
 19 20  2  0
 21 19  1  0
 22 21  1  0
 23 24  1  0
 23 22  1  0
 25 24  1  6
 25 26  1  0
 26 16  1  0
 27 25  1  0
 27 29  1  0
 28 27  2  0
M  END
$$$$
