IQR.pdb
     RDKit          3D

 29 28  0  0  1  0  0  0  0  0999 V2000
    5.8826  -21.3223   22.7749 C   0  0  0  0  0  0  0  0  0  0  0  0
    6.7685  -20.7004   21.7302 C   0  0  0  0  0  0  0  0  0  0  0  0
    5.9304  -19.9595   20.7368 C   0  0  2  0  0  0  0  0  0  0  0  0
    4.9386  -20.8985   20.0704 C   0  0  0  0  0  0  0  0  0  0  0  0
    6.7684  -19.2390   19.6993 C   0  0  2  0  0  0  0  0  0  0  0  0
    7.6234  -20.1817   18.9891 N   0  0  0  0  0  0  0  0  0  0  0  0
    7.6099  -18.1660   20.2553 C   0  0  0  0  0  0  0  0  0  0  0  0
    8.8334  -18.2281   20.4859 O   0  0  0  0  0  0  0  0  0  0  0  0
    7.4497  -12.4590   18.4434 N   0  0  0  0  0  0  0  0  0  0  0  0
    8.4136  -12.5039   19.4916 C   0  0  0  0  0  0  0  0  0  0  0  0
    9.4356  -11.7842   19.3321 O   0  0  0  0  0  0  0  0  0  0  0  0
    8.2198  -13.3512   20.7015 C   0  0  0  0  0  0  0  0  0  0  0  0
    7.3707  -14.5388   20.2857 C   0  0  0  0  0  0  0  0  0  0  0  0
    7.7826  -15.7902   21.0019 C   0  0  2  0  0  0  0  0  0  0  0  0
    6.9832  -16.9150   20.5728 N   0  0  0  0  0  0  0  0  0  0  0  0
    7.5884  -15.5751   22.4670 C   0  0  0  0  0  0  0  0  0  0  0  0
    6.4246  -15.6671   22.9335 O   0  0  0  0  0  0  0  0  0  0  0  0
    5.9999  -21.8315   25.1027 N   0  0  0  0  0  0  0  0  0  0  0  0
    7.3748  -21.4918   25.3441 C   0  0  0  0  0  0  0  0  0  0  0  0
    8.2799  -22.3753   25.1606 N   0  0  0  0  0  0  0  0  0  0  0  0
    7.8002  -20.2429   25.7948 N   0  0  0  0  0  0  0  0  0  0  0  0
    7.3640  -18.9860   25.4194 C   0  0  0  0  0  0  0  0  0  0  0  0
    8.0828  -17.7326   25.5409 C   0  0  0  0  0  0  0  0  0  0  0  0
    7.4923  -16.4465   25.1283 C   0  0  0  0  0  0  0  0  0  0  0  0
    8.4947  -15.3528   24.8084 C   0  0  2  0  0  0  0  0  0  0  0  0
    8.6619  -15.2741   23.3432 N   0  0  0  0  0  0  0  0  0  0  0  0
    9.7775  -15.3820   25.4694 C   0  0  0  0  0  0  0  0  0  0  0  0
    9.7928  -15.3806   26.7576 O   0  0  0  0  0  0  0  0  0  0  0  0
   11.0355  -15.4159   24.9000 O   0  0  0  0  0  0  0  0  0  0  0  0
  1  2  1  0
  2  3  1  0
  3  4  1  6
  3  5  1  0
  5  6  1  1
  5  7  1  0
  7 15  1  0
  8  7  2  0
  9 10  1  0
 10 12  1  0
 11 10  2  0
 12 13  1  0
 14 13  1  6
 15 14  1  0
 16 14  1  0
 16 17  2  0
 18 19  1  0
 19 20  2  0
 21 19  1  0
 22 21  1  0
 23 24  1  0
 23 22  1  0
 25 24  1  6
 25 26  1  0
 26 16  1  0
 27 25  1  0
 27 29  1  0
 28 27  2  0
M  END
$$$$
