IQR.pdb
     RDKit          3D

 29 28  0  0  1  0  0  0  0  0999 V2000
    6.6230  -11.3050   27.5743 C   0  0  0  0  0  0  0  0  0  0  0  0
    5.8815  -12.2908   26.7132 C   0  0  0  0  0  0  0  0  0  0  0  0
    6.8592  -13.1159   25.9377 C   0  0  2  0  0  0  0  0  0  0  0  0
    7.6757  -12.2376   25.0042 C   0  0  0  0  0  0  0  0  0  0  0  0
    6.1863  -14.2361   25.1695 C   0  0  2  0  0  0  0  0  0  0  0  0
    5.4212  -15.0867   26.0724 N   0  0  0  0  0  0  0  0  0  0  0  0
    7.1219  -15.0797   24.4068 C   0  0  0  0  0  0  0  0  0  0  0  0
    7.5238  -16.2157   24.7258 O   0  0  0  0  0  0  0  0  0  0  0  0
    7.9960  -12.7373   18.5747 N   0  0  0  0  0  0  0  0  0  0  0  0
    8.1091  -14.1322   18.8419 C   0  0  0  0  0  0  0  0  0  0  0  0
    8.6048  -14.8321   17.9188 O   0  0  0  0  0  0  0  0  0  0  0  0
    7.6675  -14.7224   20.1365 C   0  0  0  0  0  0  0  0  0  0  0  0
    8.8574  -14.6783   21.0782 C   0  0  0  0  0  0  0  0  0  0  0  0
    8.5555  -15.3550   22.3819 C   0  0  2  0  0  0  0  0  0  0  0  0
    7.6373  -14.5656   23.1704 N   0  0  0  0  0  0  0  0  0  0  0  0
    9.8372  -15.5185   23.1309 C   0  0  0  0  0  0  0  0  0  0  0  0
   10.2849  -14.5315   23.7679 O   0  0  0  0  0  0  0  0  0  0  0  0
   10.2702  -21.5764   29.5520 N   0  0  0  0  0  0  0  0  0  0  0  0
   11.2515  -20.5453   29.3573 C   0  0  0  0  0  0  0  0  0  0  0  0
   11.6269  -19.8411   30.3556 N   0  0  0  0  0  0  0  0  0  0  0  0
   11.8221  -20.2370   28.1230 N   0  0  0  0  0  0  0  0  0  0  0  0
   11.2233  -19.7121   26.9929 C   0  0  0  0  0  0  0  0  0  0  0  0
   11.3561  -18.3654   26.4720 C   0  0  0  0  0  0  0  0  0  0  0  0
   10.6125  -17.9068   25.2847 C   0  0  0  0  0  0  0  0  0  0  0  0
   11.4245  -17.0945   24.2925 C   0  0  2  0  0  0  0  0  0  0  0  0
   10.5604  -16.7380   23.1492 N   0  0  0  0  0  0  0  0  0  0  0  0
   12.6845  -17.6297   23.8350 C   0  0  0  0  0  0  0  0  0  0  0  0
   12.7545  -18.0550   22.6210 O   0  0  0  0  0  0  0  0  0  0  0  0
   13.8691  -17.7528   24.5348 O   0  0  0  0  0  0  0  0  0  0  0  0
  1  2  1  0
  2  3  1  0
  3  4  1  6
  3  5  1  0
  5  6  1  1
  5  7  1  0
  7 15  1  0
  8  7  2  0
  9 10  1  0
 10 12  1  0
 11 10  2  0
 12 13  1  0
 14 13  1  6
 15 14  1  0
 16 14  1  0
 16 17  2  0
 18 19  1  0
 19 20  2  0
 21 19  1  0
 22 21  1  0
 23 24  1  0
 23 22  1  0
 25 24  1  1
 25 26  1  0
 26 16  1  0
 27 25  1  0
 27 29  1  0
 28 27  2  0
M  END
$$$$
