IQR.pdb
     RDKit          3D

 29 28  0  0  1  0  0  0  0  0999 V2000
    7.4727  -12.5803   17.8683 C   0  0  0  0  0  0  0  0  0  0  0  0
    7.4657  -13.8366   18.6958 C   0  0  0  0  0  0  0  0  0  0  0  0
    8.1453  -13.5809   20.0037 C   0  0  2  0  0  0  0  0  0  0  0  0
    9.5278  -12.9910   19.7797 C   0  0  0  0  0  0  0  0  0  0  0  0
    8.2256  -14.8260   20.8645 C   0  0  2  0  0  0  0  0  0  0  0  0
    6.9036  -15.4151   21.0350 N   0  0  0  0  0  0  0  0  0  0  0  0
    8.8126  -14.5924   22.1948 C   0  0  0  0  0  0  0  0  0  0  0  0
    9.9894  -14.2605   22.4375 O   0  0  0  0  0  0  0  0  0  0  0  0
    5.6331  -12.4385   26.9990 N   0  0  0  0  0  0  0  0  0  0  0  0
    6.9272  -12.6240   27.5653 C   0  0  0  0  0  0  0  0  0  0  0  0
    7.1178  -12.0920   28.6916 O   0  0  0  0  0  0  0  0  0  0  0  0
    7.9872  -13.4019   26.8648 C   0  0  0  0  0  0  0  0  0  0  0  0
    7.4626  -13.7259   25.4777 C   0  0  0  0  0  0  0  0  0  0  0  0
    8.4753  -14.4767   24.6655 C   0  0  2  0  0  0  0  0  0  0  0  0
    7.9672  -14.7575   23.3422 N   0  0  0  0  0  0  0  0  0  0  0  0
    8.7740  -15.7624   25.3642 C   0  0  0  0  0  0  0  0  0  0  0  0
    7.8132  -16.5186   25.6566 O   0  0  0  0  0  0  0  0  0  0  0  0
   12.4166  -17.3330   20.2861 N   0  0  0  0  0  0  0  0  0  0  0  0
   12.4784  -18.6691   20.8106 C   0  0  0  0  0  0  0  0  0  0  0  0
   13.3090  -19.5012   20.3093 N   0  0  0  0  0  0  0  0  0  0  0  0
   11.6628  -19.1400   21.8387 N   0  0  0  0  0  0  0  0  0  0  0  0
   11.8366  -19.0355   23.2062 C   0  0  0  0  0  0  0  0  0  0  0  0
   10.9874  -18.3352   24.1500 C   0  0  0  0  0  0  0  0  0  0  0  0
   11.3032  -18.2664   25.5882 C   0  0  0  0  0  0  0  0  0  0  0  0
   10.3480  -17.4264   26.4161 C   0  0  2  0  0  0  0  0  0  0  0  0
   10.0924  -16.1571   25.7058 N   0  0  0  0  0  0  0  0  0  0  0  0
   10.6721  -17.1820   27.8012 C   0  0  0  0  0  0  0  0  0  0  0  0
   10.8543  -18.2016   28.5674 O   0  0  0  0  0  0  0  0  0  0  0  0
   10.8239  -15.9698   28.4458 O   0  0  0  0  0  0  0  0  0  0  0  0
  1  2  1  0
  2  3  1  0
  3  4  1  6
  3  5  1  0
  5  6  1  1
  5  7  1  0
  7 15  1  0
  8  7  2  0
  9 10  1  0
 10 12  1  0
 11 10  2  0
 12 13  1  0
 14 13  1  1
 15 14  1  0
 16 14  1  0
 16 17  2  0
 18 19  1  0
 19 20  2  0
 21 19  1  0
 22 21  1  0
 23 24  1  0
 23 22  1  0
 25 24  1  6
 25 26  1  0
 26 16  1  0
 27 25  1  0
 27 29  1  0
 28 27  2  0
M  END
$$$$
