IQR.pdb
     RDKit          3D

 29 28  0  0  1  0  0  0  0  0999 V2000
    6.0444  -10.6916   26.9577 C   0  0  0  0  0  0  0  0  0  0  0  0
    7.0856  -11.7651   26.7944 C   0  0  0  0  0  0  0  0  0  0  0  0
    6.5922  -12.8022   25.8358 C   0  0  2  0  0  0  0  0  0  0  0  0
    5.2199  -13.3042   26.2532 C   0  0  0  0  0  0  0  0  0  0  0  0
    7.5634  -13.9563   25.6853 C   0  0  2  0  0  0  0  0  0  0  0  0
    8.9240  -13.5195   25.9717 N   0  0  0  0  0  0  0  0  0  0  0  0
    7.5403  -14.5831   24.3529 C   0  0  0  0  0  0  0  0  0  0  0  0
    6.8301  -15.5442   23.9984 O   0  0  0  0  0  0  0  0  0  0  0  0
    7.8324  -11.9721   18.9321 N   0  0  0  0  0  0  0  0  0  0  0  0
    8.0308  -13.3356   18.5696 C   0  0  0  0  0  0  0  0  0  0  0  0
    7.9382  -13.5986   17.3407 O   0  0  0  0  0  0  0  0  0  0  0  0
    8.3307  -14.3831   19.5856 C   0  0  0  0  0  0  0  0  0  0  0  0
    8.2710  -13.7161   20.9480 C   0  0  0  0  0  0  0  0  0  0  0  0
    8.5091  -14.6990   22.0552 C   0  0  2  0  0  0  0  0  0  0  0  0
    8.4134  -14.0540   23.3447 N   0  0  0  0  0  0  0  0  0  0  0  0
    9.8794  -15.2687   21.8871 C   0  0  0  0  0  0  0  0  0  0  0  0
   10.8537  -14.6234   22.3504 O   0  0  0  0  0  0  0  0  0  0  0  0
   13.0126  -21.1212   25.2919 N   0  0  0  0  0  0  0  0  0  0  0  0
   11.8989  -21.1390   26.1993 C   0  0  0  0  0  0  0  0  0  0  0  0
   11.8017  -22.0848   27.0535 N   0  0  0  0  0  0  0  0  0  0  0  0
   10.8810  -20.1861   26.2009 N   0  0  0  0  0  0  0  0  0  0  0  0
   10.7991  -18.9974   25.4999 C   0  0  0  0  0  0  0  0  0  0  0  0
   11.0660  -18.7872   24.0903 C   0  0  0  0  0  0  0  0  0  0  0  0
   10.4720  -17.6673   23.3380 C   0  0  0  0  0  0  0  0  0  0  0  0
   10.8922  -17.5768   21.8824 C   0  0  2  0  0  0  0  0  0  0  0  0
   10.1178  -16.5022   21.2294 N   0  0  0  0  0  0  0  0  0  0  0  0
   10.8714  -18.7800   21.0855 C   0  0  0  0  0  0  0  0  0  0  0  0
   11.9844  -19.1903   20.5827 O   0  0  0  0  0  0  0  0  0  0  0  0
    9.7928  -19.5854   20.7758 O   0  0  0  0  0  0  0  0  0  0  0  0
  1  2  1  0
  2  3  1  0
  3  4  1  1
  3  5  1  0
  5  6  1  6
  5  7  1  0
  7 15  1  0
  8  7  2  0
  9 10  1  0
 10 12  1  0
 11 10  2  0
 12 13  1  0
 14 13  1  6
 15 14  1  0
 16 14  1  0
 16 17  2  0
 18 19  1  0
 19 20  2  0
 21 19  1  0
 22 21  1  0
 23 24  1  0
 23 22  1  0
 25 24  1  1
 25 26  1  0
 26 16  1  0
 27 25  1  0
 27 29  1  0
 28 27  2  0
M  END
$$$$
