IQR.pdb
     RDKit          3D

 29 28  0  0  1  0  0  0  0  0999 V2000
    7.5247  -12.6905   21.9614 C   0  0  0  0  0  0  0  0  0  0  0  0
    8.1396  -13.7512   21.0897 C   0  0  0  0  0  0  0  0  0  0  0  0
    8.2603  -13.2423   19.6882 C   0  0  2  0  0  0  0  0  0  0  0  0
    6.8866  -12.9569   19.1044 C   0  0  0  0  0  0  0  0  0  0  0  0
    9.0368  -14.1902   18.7958 C   0  0  2  0  0  0  0  0  0  0  0  0
    8.4348  -15.5173   18.8141 N   0  0  0  0  0  0  0  0  0  0  0  0
   10.4598  -14.3132   19.1545 C   0  0  0  0  0  0  0  0  0  0  0  0
   11.2937  -13.3880   19.2056 O   0  0  0  0  0  0  0  0  0  0  0  0
   15.1792  -14.2264   16.7368 N   0  0  0  0  0  0  0  0  0  0  0  0
   15.4480  -14.3952   18.1258 C   0  0  0  0  0  0  0  0  0  0  0  0
   16.3634  -13.6721   18.6022 O   0  0  0  0  0  0  0  0  0  0  0  0
   14.6890  -15.3683   18.9604 C   0  0  0  0  0  0  0  0  0  0  0  0
   13.2135  -15.0660   18.7710 C   0  0  0  0  0  0  0  0  0  0  0  0
   12.3663  -15.8053   19.7631 C   0  0  2  0  0  0  0  0  0  0  0  0
   10.9616  -15.6171   19.4810 N   0  0  0  0  0  0  0  0  0  0  0  0
   12.6729  -15.2757   21.1254 C   0  0  0  0  0  0  0  0  0  0  0  0
   12.3756  -14.0813   21.3810 O   0  0  0  0  0  0  0  0  0  0  0  0
    6.1274  -17.5122   25.0068 N   0  0  0  0  0  0  0  0  0  0  0  0
    6.8948  -17.4735   23.7929 C   0  0  0  0  0  0  0  0  0  0  0  0
    6.3333  -17.7803   22.6866 N   0  0  0  0  0  0  0  0  0  0  0  0
    8.2466  -17.1364   23.7373 N   0  0  0  0  0  0  0  0  0  0  0  0
    9.0917  -16.7521   24.7616 C   0  0  0  0  0  0  0  0  0  0  0  0
   10.5192  -16.5111   24.6807 C   0  0  0  0  0  0  0  0  0  0  0  0
   11.2223  -16.3889   23.3909 C   0  0  0  0  0  0  0  0  0  0  0  0
   12.7150  -16.1350   23.4945 C   0  0  2  0  0  0  0  0  0  0  0  0
   13.2819  -16.0666   22.1326 N   0  0  0  0  0  0  0  0  0  0  0  0
   13.5030  -17.0053   24.3342 C   0  0  0  0  0  0  0  0  0  0  0  0
   14.0518  -18.0355   23.7890 O   0  0  0  0  0  0  0  0  0  0  0  0
   13.7657  -16.8870   25.6851 O   0  0  0  0  0  0  0  0  0  0  0  0
  1  2  1  0
  2  3  1  0
  3  4  1  6
  3  5  1  0
  5  6  1  1
  5  7  1  0
  7 15  1  0
  8  7  2  0
  9 10  1  0
 10 12  1  0
 11 10  2  0
 12 13  1  0
 14 13  1  6
 15 14  1  0
 16 14  1  0
 16 17  2  0
 18 19  1  0
 19 20  2  0
 21 19  1  0
 22 21  1  0
 23 24  1  0
 23 22  1  0
 25 24  1  6
 25 26  1  0
 26 16  1  0
 27 25  1  0
 27 29  1  0
 28 27  2  0
M  END
$$$$
