IQR.pdb
     RDKit          3D

 29 28  0  0  1  0  0  0  0  0999 V2000
    7.0483  -11.6133   27.8221 C   0  0  0  0  0  0  0  0  0  0  0  0
    6.1340  -12.5659   27.1013 C   0  0  0  0  0  0  0  0  0  0  0  0
    6.9156  -13.3469   26.0927 C   0  0  2  0  0  0  0  0  0  0  0  0
    7.6547  -12.4114   25.1504 C   0  0  0  0  0  0  0  0  0  0  0  0
    6.0473  -14.3163   25.3156 C   0  0  2  0  0  0  0  0  0  0  0  0
    5.4442  -15.2938   26.2126 N   0  0  0  0  0  0  0  0  0  0  0  0
    6.7656  -15.0349   24.2496 C   0  0  0  0  0  0  0  0  0  0  0  0
    7.1263  -16.2279   24.2734 O   0  0  0  0  0  0  0  0  0  0  0  0
    7.7232  -12.6469   18.4729 N   0  0  0  0  0  0  0  0  0  0  0  0
    8.3252  -13.9352   18.3848 C   0  0  0  0  0  0  0  0  0  0  0  0
    8.7246  -14.2802   17.2406 O   0  0  0  0  0  0  0  0  0  0  0  0
    8.4724  -14.8169   19.5766 C   0  0  0  0  0  0  0  0  0  0  0  0
    7.7668  -14.1301   20.7320 C   0  0  0  0  0  0  0  0  0  0  0  0
    7.7797  -14.9773   21.9693 C   0  0  2  0  0  0  0  0  0  0  0  0
    7.0959  -14.3124   23.0548 N   0  0  0  0  0  0  0  0  0  0  0  0
    9.2022  -15.2193   22.3547 C   0  0  0  0  0  0  0  0  0  0  0  0
    9.7297  -14.4511   23.1985 O   0  0  0  0  0  0  0  0  0  0  0  0
    7.0449  -19.6899   24.7995 N   0  0  0  0  0  0  0  0  0  0  0  0
    7.5653  -18.8688   25.8573 C   0  0  0  0  0  0  0  0  0  0  0  0
    6.7588  -18.1791   26.5696 N   0  0  0  0  0  0  0  0  0  0  0  0
    8.9221  -18.7521   26.1562 N   0  0  0  0  0  0  0  0  0  0  0  0
   10.0171  -19.0650   25.3725 C   0  0  0  0  0  0  0  0  0  0  0  0
   10.8412  -18.1502   24.6068 C   0  0  0  0  0  0  0  0  0  0  0  0
   10.8301  -18.1304   23.1330 C   0  0  0  0  0  0  0  0  0  0  0  0
   11.1675  -16.7901   22.5060 C   0  0  2  0  0  0  0  0  0  0  0  0
    9.9719  -16.2769   21.8073 N   0  0  0  0  0  0  0  0  0  0  0  0
   12.3330  -16.7020   21.6590 C   0  0  0  0  0  0  0  0  0  0  0  0
   12.1890  -16.9616   20.4054 O   0  0  0  0  0  0  0  0  0  0  0  0
   13.6254  -16.3642   22.0105 O   0  0  0  0  0  0  0  0  0  0  0  0
  1  2  1  0
  2  3  1  0
  3  4  1  6
  3  5  1  0
  5  6  1  1
  5  7  1  0
  7 15  1  0
  8  7  2  0
  9 10  1  0
 10 12  1  0
 11 10  2  0
 12 13  1  0
 14 13  1  6
 15 14  1  0
 16 14  1  0
 16 17  2  0
 18 19  1  0
 19 20  2  0
 21 19  1  0
 22 21  1  0
 23 24  1  0
 23 22  1  0
 25 24  1  6
 25 26  1  0
 26 16  1  0
 27 25  1  0
 27 29  1  0
 28 27  2  0
M  END
$$$$
