IQR.pdb
     RDKit          3D

 29 28  0  0  1  0  0  0  0  0999 V2000
    7.7270  -11.3005   19.2064 C   0  0  0  0  0  0  0  0  0  0  0  0
    7.6649  -12.4837   20.1334 C   0  0  0  0  0  0  0  0  0  0  0  0
    8.3306  -13.6600   19.4922 C   0  0  2  0  0  0  0  0  0  0  0  0
    7.6587  -13.9987   18.1720 C   0  0  0  0  0  0  0  0  0  0  0  0
    8.3645  -14.8706   20.4039 C   0  0  2  0  0  0  0  0  0  0  0  0
    7.0156  -15.3678   20.6429 N   0  0  0  0  0  0  0  0  0  0  0  0
    9.0111  -14.6189   21.7028 C   0  0  0  0  0  0  0  0  0  0  0  0
   10.1822  -14.2329   21.8850 O   0  0  0  0  0  0  0  0  0  0  0  0
    6.8694  -11.6906   26.4056 N   0  0  0  0  0  0  0  0  0  0  0  0
    6.2261  -12.9581   26.3081 C   0  0  0  0  0  0  0  0  0  0  0  0
    5.1128  -13.0577   26.8900 O   0  0  0  0  0  0  0  0  0  0  0  0
    6.8362  -14.0936   25.5613 C   0  0  0  0  0  0  0  0  0  0  0  0
    8.1434  -13.5929   24.9740 C   0  0  0  0  0  0  0  0  0  0  0  0
    8.8445  -14.6642   24.1932 C   0  0  2  0  0  0  0  0  0  0  0  0
    8.2379  -14.8327   22.8925 N   0  0  0  0  0  0  0  0  0  0  0  0
    8.7403  -15.9430   24.9574 C   0  0  0  0  0  0  0  0  0  0  0  0
    7.7448  -16.6819   24.7493 O   0  0  0  0  0  0  0  0  0  0  0  0
   15.8218  -15.8113   21.3961 N   0  0  0  0  0  0  0  0  0  0  0  0
   14.4244  -15.8210   21.0627 C   0  0  0  0  0  0  0  0  0  0  0  0
   14.0355  -15.2709   19.9766 N   0  0  0  0  0  0  0  0  0  0  0  0
   13.4358  -16.3838   21.8690 N   0  0  0  0  0  0  0  0  0  0  0  0
   13.5687  -17.2793   22.9137 C   0  0  0  0  0  0  0  0  0  0  0  0
   12.5242  -17.7651   23.7943 C   0  0  0  0  0  0  0  0  0  0  0  0
   11.4174  -16.9038   24.2482 C   0  0  0  0  0  0  0  0  0  0  0  0
   10.7570  -17.3363   25.5444 C   0  0  2  0  0  0  0  0  0  0  0  0
    9.7173  -16.3500   25.9011 N   0  0  0  0  0  0  0  0  0  0  0  0
   11.5987  -17.6267   26.6805 C   0  0  0  0  0  0  0  0  0  0  0  0
   11.6072  -16.7855   27.6562 O   0  0  0  0  0  0  0  0  0  0  0  0
   12.4230  -18.7168   26.8811 O   0  0  0  0  0  0  0  0  0  0  0  0
  1  2  1  0
  2  3  1  0
  3  4  1  6
  3  5  1  0
  5  6  1  1
  5  7  1  0
  7 15  1  0
  8  7  2  0
  9 10  1  0
 10 12  1  0
 11 10  2  0
 12 13  1  0
 14 13  1  1
 15 14  1  0
 16 14  1  0
 16 17  2  0
 18 19  1  0
 19 20  2  0
 21 19  1  0
 22 21  1  0
 23 24  1  0
 23 22  1  0
 25 24  1  6
 25 26  1  0
 26 16  1  0
 27 25  1  0
 27 29  1  0
 28 27  2  0
M  END
$$$$
