IQR.pdb
     RDKit          3D

 29 28  0  0  1  0  0  0  0  0999 V2000
    6.7202  -13.9666   16.9652 C   0  0  0  0  0  0  0  0  0  0  0  0
    8.1773  -13.6220   17.1108 C   0  0  0  0  0  0  0  0  0  0  0  0
    8.7243  -14.2630   18.3469 C   0  0  2  0  0  0  0  0  0  0  0  0
    8.4847  -15.7634   18.3201 C   0  0  0  0  0  0  0  0  0  0  0  0
    8.1574  -13.6510   19.6125 C   0  0  2  0  0  0  0  0  0  0  0  0
    8.3409  -12.2053   19.6073 N   0  0  0  0  0  0  0  0  0  0  0  0
    8.7415  -14.1958   20.8498 C   0  0  0  0  0  0  0  0  0  0  0  0
    9.8177  -13.8505   21.3756 O   0  0  0  0  0  0  0  0  0  0  0  0
    6.0001  -18.7603   24.2959 N   0  0  0  0  0  0  0  0  0  0  0  0
    7.1873  -18.4787   25.0316 C   0  0  0  0  0  0  0  0  0  0  0  0
    7.3345  -19.1187   26.1070 O   0  0  0  0  0  0  0  0  0  0  0  0
    8.1914  -17.4875   24.5534 C   0  0  0  0  0  0  0  0  0  0  0  0
    7.6179  -16.8330   23.3095 C   0  0  0  0  0  0  0  0  0  0  0  0
    8.5211  -15.7569   22.7852 C   0  0  2  0  0  0  0  0  0  0  0  0
    8.0203  -15.2283   21.5370 N   0  0  0  0  0  0  0  0  0  0  0  0
    9.8742  -16.3493   22.5645 C   0  0  0  0  0  0  0  0  0  0  0  0
   10.0850  -16.9697   21.4917 O   0  0  0  0  0  0  0  0  0  0  0  0
   16.3317  -14.9513   18.5818 N   0  0  0  0  0  0  0  0  0  0  0  0
   15.0113  -14.7682   18.0461 C   0  0  0  0  0  0  0  0  0  0  0  0
   14.8448  -14.7599   16.7789 N   0  0  0  0  0  0  0  0  0  0  0  0
   13.8739  -14.5740   18.8289 N   0  0  0  0  0  0  0  0  0  0  0  0
   13.7512  -14.5868   20.2058 C   0  0  0  0  0  0  0  0  0  0  0  0
   13.1498  -15.6203   21.0258 C   0  0  0  0  0  0  0  0  0  0  0  0
   12.9897  -15.4711   22.4835 C   0  0  0  0  0  0  0  0  0  0  0  0
   12.3027  -16.6334   23.1766 C   0  0  2  0  0  0  0  0  0  0  0  0
   10.9209  -16.2367   23.5145 N   0  0  0  0  0  0  0  0  0  0  0  0
   12.9547  -17.2376   24.3137 C   0  0  0  0  0  0  0  0  0  0  0  0
   14.1512  -17.6879   24.1545 O   0  0  0  0  0  0  0  0  0  0  0  0
   12.4649  -17.4055   25.5944 O   0  0  0  0  0  0  0  0  0  0  0  0
  1  2  1  0
  2  3  1  0
  3  4  1  6
  3  5  1  0
  5  6  1  6
  5  7  1  0
  7 15  1  0
  8  7  2  0
  9 10  1  0
 10 12  1  0
 11 10  2  0
 12 13  1  0
 14 13  1  6
 15 14  1  0
 16 14  1  0
 16 17  2  0
 18 19  1  0
 19 20  2  0
 21 19  1  0
 22 21  1  0
 23 24  1  0
 23 22  1  0
 25 24  1  1
 25 26  1  0
 26 16  1  0
 27 25  1  0
 27 29  1  0
 28 27  2  0
M  END
$$$$
