NCM.pdb
     RDKit          3D

 23 22  0  0  1  0  0  0  0  0999 V2000
   28.5535  -19.2716  -16.7951 N   0  0  0  0  0  0  0  0  0  0  0  0
   28.5641  -20.6875  -16.7426 C   0  0  0  0  0  0  0  0  0  0  0  0
   29.2415  -21.3297  -17.6113 O   0  0  0  0  0  0  0  0  0  0  0  0
   27.8222  -21.4710  -15.7214 C   0  0  0  0  0  0  0  0  0  0  0  0
   26.9915  -20.5142  -14.8917 C   0  0  2  0  0  0  0  0  0  0  0  0
   27.8643  -19.5404  -14.2710 N   0  0  0  0  0  0  0  0  0  0  0  0
   26.2405  -21.2478  -13.8422 C   0  0  0  0  0  0  0  0  0  0  0  0
   25.6433  -22.3293  -14.1027 O   0  0  0  0  0  0  0  0  0  0  0  0
   26.2081  -20.7061  -12.5368 N   0  0  0  0  0  0  0  0  0  0  0  0
   25.0998  -20.9450  -11.6006 C   0  0  1  0  0  0  0  0  0  0  0  0
   25.5136  -20.4742  -10.2181 C   0  0  0  0  0  0  0  0  0  0  0  0
   27.0111  -21.3303   -9.7163 S   0  0  0  0  0  0  0  0  0  0  0  0
   23.9384  -20.2165  -12.1405 C   0  0  0  0  0  0  0  0  0  0  0  0
   24.1069  -19.2520  -12.9759 O   0  0  0  0  0  0  0  0  0  0  0  0
   23.3116  -22.4996  -16.6678 C   0  0  0  0  0  0  0  0  0  0  0  0
   21.6672  -23.0185  -16.1143 S   0  0  0  0  0  0  0  0  0  0  0  0
   20.9730  -21.8529  -14.9129 C   0  0  0  0  0  0  0  0  0  0  0  0
   21.9771  -21.6191  -13.8349 C   0  0  0  0  0  0  0  0  0  0  0  0
   21.5549  -20.5806  -12.8323 C   0  0  2  0  0  0  0  0  0  0  0  0
   22.6088  -20.5054  -11.8032 N   0  0  0  0  0  0  0  0  0  0  0  0
   20.2853  -20.8700  -12.1679 C   0  0  0  0  0  0  0  0  0  0  0  0
   19.1707  -20.0434  -12.2263 O   0  0  0  0  0  0  0  0  0  0  0  0
   20.1445  -21.9202  -11.4897 O   0  0  0  0  0  0  0  0  0  0  0  0
  1  2  1  0
  2  4  1  0
  2  3  2  0
  4  5  1  0
  5  7  1  0
  5  6  1  1
  7  9  1  0
  8  7  2  0
  9 10  1  0
 10 11  1  1
 10 13  1  0
 11 12  1  0
 13 20  1  0
 13 14  2  0
 16 15  1  0
 16 17  1  0
 17 18  1  0
 19 18  1  6
 20 19  1  0
 21 19  1  0
 21 22  1  0
 23 21  2  0
M  END
$$$$
