NCM.pdb
     RDKit          3D

 23 22  0  0  1  0  0  0  0  0999 V2000
   21.9047   -4.4616  -13.3941 N   0  0  0  0  0  0  0  0  0  0  0  0
   20.7818   -4.7253  -14.2169 C   0  0  0  0  0  0  0  0  0  0  0  0
   20.4871   -3.8952  -15.1390 O   0  0  0  0  0  0  0  0  0  0  0  0
   19.9218   -5.9267  -14.0622 C   0  0  0  0  0  0  0  0  0  0  0  0
   20.5064   -6.7987  -12.9704 C   0  0  2  0  0  0  0  0  0  0  0  0
   20.7898   -8.1118  -13.5099 N   0  0  0  0  0  0  0  0  0  0  0  0
   19.5578   -6.9227  -11.8354 C   0  0  0  0  0  0  0  0  0  0  0  0
   19.0415   -8.0351  -11.5351 O   0  0  0  0  0  0  0  0  0  0  0  0
   19.2430   -5.7613  -11.0932 N   0  0  0  0  0  0  0  0  0  0  0  0
   18.5549   -5.8059   -9.7947 C   0  0  1  0  0  0  0  0  0  0  0  0
   19.3279   -4.9601   -8.7990 C   0  0  0  0  0  0  0  0  0  0  0  0
   19.3675   -3.2552   -9.3639 S   0  0  0  0  0  0  0  0  0  0  0  0
   17.1860   -5.3166  -10.0354 C   0  0  0  0  0  0  0  0  0  0  0  0
   16.9078   -4.6659  -11.1104 O   0  0  0  0  0  0  0  0  0  0  0  0
   11.3984   -7.6713   -7.7554 C   0  0  0  0  0  0  0  0  0  0  0  0
   11.3597   -5.8927   -7.4163 S   0  0  0  0  0  0  0  0  0  0  0  0
   12.4420   -4.9781   -8.5459 C   0  0  0  0  0  0  0  0  0  0  0  0
   13.8206   -5.5397   -8.4504 C   0  0  0  0  0  0  0  0  0  0  0  0
   14.8069   -4.8774   -9.3727 C   0  0  2  0  0  0  0  0  0  0  0  0
   16.1180   -5.5148   -9.1492 N   0  0  0  0  0  0  0  0  0  0  0  0
   14.9543   -3.4387   -9.1596 C   0  0  0  0  0  0  0  0  0  0  0  0
   14.1867   -2.4748   -9.8006 O   0  0  0  0  0  0  0  0  0  0  0  0
   15.8156   -2.9973   -8.3559 O   0  0  0  0  0  0  0  0  0  0  0  0
  1  2  1  0
  2  4  1  0
  2  3  2  0
  4  5  1  0
  5  7  1  0
  5  6  1  6
  7  9  1  0
  8  7  2  0
  9 10  1  0
 10 11  1  1
 10 13  1  0
 11 12  1  0
 13 20  1  0
 13 14  2  0
 16 15  1  0
 16 17  1  0
 17 18  1  0
 19 18  1  1
 20 19  1  0
 21 19  1  0
 21 22  1  0
 23 21  2  0
M  END
$$$$
