NCM.pdb
     RDKit          3D

 23 22  0  0  1  0  0  0  0  0999 V2000
   13.2696  -13.3985  -15.0473 N   0  0  0  0  0  0  0  0  0  0  0  0
   14.1843  -13.9565  -14.1202 C   0  0  0  0  0  0  0  0  0  0  0  0
   14.0870  -15.1944  -13.8300 O   0  0  0  0  0  0  0  0  0  0  0  0
   15.2597  -13.1705  -13.4623 C   0  0  0  0  0  0  0  0  0  0  0  0
   16.1428  -12.5710  -14.5368 C   0  0  2  0  0  0  0  0  0  0  0  0
   17.0101  -13.6001  -15.0698 N   0  0  0  0  0  0  0  0  0  0  0  0
   16.9654  -11.4667  -13.9824 C   0  0  0  0  0  0  0  0  0  0  0  0
   17.8308  -11.6831  -13.0887 O   0  0  0  0  0  0  0  0  0  0  0  0
   16.7580  -10.1596  -14.4794 N   0  0  0  0  0  0  0  0  0  0  0  0
   17.5546   -9.0037  -14.0427 C   0  0  1  0  0  0  0  0  0  0  0  0
   18.1385   -8.3186  -15.2650 C   0  0  0  0  0  0  0  0  0  0  0  0
   19.0344   -6.8468  -14.7567 S   0  0  0  0  0  0  0  0  0  0  0  0
   16.6424   -8.1408  -13.2716 C   0  0  0  0  0  0  0  0  0  0  0  0
   15.4257   -7.9731  -13.6563 O   0  0  0  0  0  0  0  0  0  0  0  0
   14.6150   -8.5724   -7.5550 C   0  0  0  0  0  0  0  0  0  0  0  0
   15.0508   -6.8171   -7.4620 S   0  0  0  0  0  0  0  0  0  0  0  0
   15.2003   -6.0821   -9.1117 C   0  0  0  0  0  0  0  0  0  0  0  0
   15.9587   -7.0205   -9.9887 C   0  0  0  0  0  0  0  0  0  0  0  0
   16.0742   -6.5540  -11.4138 C   0  0  2  0  0  0  0  0  0  0  0  0
   17.0110   -7.4620  -12.1017 N   0  0  0  0  0  0  0  0  0  0  0  0
   16.5712   -5.1869  -11.5587 C   0  0  0  0  0  0  0  0  0  0  0  0
   15.7977   -4.0520  -11.3516 O   0  0  0  0  0  0  0  0  0  0  0  0
   17.7660   -4.9737  -11.8898 O   0  0  0  0  0  0  0  0  0  0  0  0
  1  2  1  0
  2  4  1  0
  2  3  2  0
  4  5  1  0
  5  7  1  0
  5  6  1  1
  7  9  1  0
  8  7  2  0
  9 10  1  0
 10 11  1  6
 10 13  1  0
 11 12  1  0
 13 20  1  0
 13 14  2  0
 16 15  1  0
 16 17  1  0
 17 18  1  0
 19 18  1  1
 20 19  1  0
 21 19  1  0
 21 22  1  0
 23 21  2  0
M  END
$$$$
