NCM.pdb
     RDKit          3D

 23 22  0  0  1  0  0  0  0  0999 V2000
   15.5464  -13.5721  -16.6991 N   0  0  0  0  0  0  0  0  0  0  0  0
   15.9691  -12.3330  -16.1574 C   0  0  0  0  0  0  0  0  0  0  0  0
   15.7171  -11.2622  -16.8024 O   0  0  0  0  0  0  0  0  0  0  0  0
   16.6963  -12.2127  -14.8675 C   0  0  0  0  0  0  0  0  0  0  0  0
   17.8129  -11.2036  -15.0376 C   0  0  2  0  0  0  0  0  0  0  0  0
   18.9641  -11.8605  -15.6197 N   0  0  0  0  0  0  0  0  0  0  0  0
   18.1880  -10.6125  -13.7287 C   0  0  0  0  0  0  0  0  0  0  0  0
   18.6323  -11.3321  -12.7911 O   0  0  0  0  0  0  0  0  0  0  0  0
   18.0362   -9.2179  -13.5533 N   0  0  0  0  0  0  0  0  0  0  0  0
   18.4385   -8.5195  -12.3237 C   0  0  1  0  0  0  0  0  0  0  0  0
   19.5984   -7.5930  -12.6412 C   0  0  0  0  0  0  0  0  0  0  0  0
   19.1251   -6.4707  -13.9616 S   0  0  0  0  0  0  0  0  0  0  0  0
   17.2411   -7.8092  -11.8412 C   0  0  0  0  0  0  0  0  0  0  0  0
   16.3766   -7.3502  -12.6769 O   0  0  0  0  0  0  0  0  0  0  0  0
   12.5336   -6.2238   -5.6832 C   0  0  0  0  0  0  0  0  0  0  0  0
   13.9145   -7.1046   -6.4560 S   0  0  0  0  0  0  0  0  0  0  0  0
   14.3092   -6.4195   -8.0865 C   0  0  0  0  0  0  0  0  0  0  0  0
   15.3598   -7.2665   -8.7220 C   0  0  0  0  0  0  0  0  0  0  0  0
   15.8052   -6.7661  -10.0686 C   0  0  2  0  0  0  0  0  0  0  0  0
   16.9569   -7.5871  -10.4865 N   0  0  0  0  0  0  0  0  0  0  0  0
   16.2140   -5.3626  -10.0813 C   0  0  0  0  0  0  0  0  0  0  0  0
   15.3302   -4.2958  -10.1811 O   0  0  0  0  0  0  0  0  0  0  0  0
   17.4302   -5.0512   -9.9994 O   0  0  0  0  0  0  0  0  0  0  0  0
  1  2  1  0
  2  4  1  0
  2  3  2  0
  4  5  1  0
  5  7  1  0
  5  6  1  1
  7  9  1  0
  8  7  2  0
  9 10  1  0
 10 11  1  6
 10 13  1  0
 11 12  1  0
 13 20  1  0
 13 14  2  0
 16 15  1  0
 16 17  1  0
 17 18  1  0
 19 18  1  1
 20 19  1  0
 21 19  1  0
 21 22  1  0
 23 21  2  0
M  END
$$$$
