NCM.pdb
     RDKit          3D

 23 22  0  0  1  0  0  0  0  0999 V2000
   14.0561  -11.8836  -12.3410 N   0  0  0  0  0  0  0  0  0  0  0  0
   13.7156  -11.6228  -10.9906 C   0  0  0  0  0  0  0  0  0  0  0  0
   12.6540  -12.1434  -10.5129 O   0  0  0  0  0  0  0  0  0  0  0  0
   14.5354  -10.7684  -10.0935 C   0  0  0  0  0  0  0  0  0  0  0  0
   15.7835  -10.3460  -10.8404 C   0  0  2  0  0  0  0  0  0  0  0  0
   16.7078  -11.4589  -10.8913 N   0  0  0  0  0  0  0  0  0  0  0  0
   16.4316   -9.1930  -10.1668 C   0  0  0  0  0  0  0  0  0  0  0  0
   17.0685   -9.3420   -9.0868 O   0  0  0  0  0  0  0  0  0  0  0  0
   16.3198   -7.9165  -10.7641 N   0  0  0  0  0  0  0  0  0  0  0  0
   16.9555   -6.7147  -10.2044 C   0  0  1  0  0  0  0  0  0  0  0  0
   18.0089   -6.2169  -11.1776 C   0  0  0  0  0  0  0  0  0  0  0  0
   19.5054   -7.1931  -10.9924 S   0  0  0  0  0  0  0  0  0  0  0  0
   15.8717   -5.7438   -9.9725 C   0  0  0  0  0  0  0  0  0  0  0  0
   15.0273   -5.4767  -10.9064 O   0  0  0  0  0  0  0  0  0  0  0  0
   13.7988   -3.1462   -4.0332 C   0  0  0  0  0  0  0  0  0  0  0  0
   12.4394   -3.5391   -5.1635 S   0  0  0  0  0  0  0  0  0  0  0  0
   12.9258   -3.3041   -6.8933 C   0  0  0  0  0  0  0  0  0  0  0  0
   14.0326   -4.2513   -7.2140 C   0  0  0  0  0  0  0  0  0  0  0  0
   14.5898   -4.0806   -8.6004 C   0  0  2  0  0  0  0  0  0  0  0  0
   15.6789   -5.0617   -8.7631 N   0  0  0  0  0  0  0  0  0  0  0  0
   15.1286   -2.7487   -8.8702 C   0  0  0  0  0  0  0  0  0  0  0  0
   14.3726   -1.6857   -9.3474 O   0  0  0  0  0  0  0  0  0  0  0  0
   16.3462   -2.5007   -8.6737 O   0  0  0  0  0  0  0  0  0  0  0  0
  1  2  1  0
  2  4  1  0
  2  3  2  0
  4  5  1  0
  5  7  1  0
  5  6  1  1
  7  9  1  0
  8  7  2  0
  9 10  1  0
 10 11  1  6
 10 13  1  0
 11 12  1  0
 13 20  1  0
 13 14  2  0
 16 15  1  0
 16 17  1  0
 17 18  1  0
 19 18  1  1
 20 19  1  0
 21 19  1  0
 21 22  1  0
 23 21  2  0
M  END
$$$$
