NCM.pdb
     RDKit          3D

 23 22  0  0  1  0  0  0  0  0999 V2000
   29.4733  -17.4851  -16.7250 N   0  0  0  0  0  0  0  0  0  0  0  0
   28.2543  -16.7655  -16.7870 C   0  0  0  0  0  0  0  0  0  0  0  0
   28.0922  -15.9102  -17.7188 O   0  0  0  0  0  0  0  0  0  0  0  0
   27.1454  -16.9551  -15.8168 C   0  0  0  0  0  0  0  0  0  0  0  0
   27.5761  -17.9812  -14.7893 C   0  0  2  0  0  0  0  0  0  0  0  0
   27.7368  -19.2657  -15.4371 N   0  0  0  0  0  0  0  0  0  0  0  0
   26.5663  -18.0940  -13.7071 C   0  0  0  0  0  0  0  0  0  0  0  0
   26.1388  -17.0702  -13.1043 O   0  0  0  0  0  0  0  0  0  0  0  0
   26.0906  -19.3802  -13.3637 N   0  0  0  0  0  0  0  0  0  0  0  0
   25.1084  -19.6088  -12.2939 C   0  0  1  0  0  0  0  0  0  0  0  0
   24.0109  -20.5164  -12.8194 C   0  0  0  0  0  0  0  0  0  0  0  0
   22.9642  -21.0422  -11.4573 S   0  0  0  0  0  0  0  0  0  0  0  0
   25.8550  -20.1912  -11.1649 C   0  0  0  0  0  0  0  0  0  0  0  0
   26.7072  -21.1343  -11.3666 O   0  0  0  0  0  0  0  0  0  0  0  0
   29.2156  -18.2955   -6.0396 C   0  0  0  0  0  0  0  0  0  0  0  0
   27.8397  -19.1853   -5.2683 S   0  0  0  0  0  0  0  0  0  0  0  0
   27.1129  -20.3962   -6.4037 C   0  0  0  0  0  0  0  0  0  0  0  0
   26.7788  -19.7120   -7.6864 C   0  0  0  0  0  0  0  0  0  0  0  0
   26.1634  -20.6224   -8.7132 C   0  0  2  0  0  0  0  0  0  0  0  0
   25.7050  -19.7795   -9.8333 N   0  0  0  0  0  0  0  0  0  0  0  0
   25.0225  -21.3941   -8.2234 C   0  0  0  0  0  0  0  0  0  0  0  0
   23.7041  -20.9631   -8.2940 O   0  0  0  0  0  0  0  0  0  0  0  0
   25.1945  -22.5239   -7.6974 O   0  0  0  0  0  0  0  0  0  0  0  0
  1  2  1  0
  2  4  1  0
  2  3  2  0
  4  5  1  0
  5  7  1  0
  5  6  1  6
  7  9  1  0
  8  7  2  0
  9 10  1  0
 10 11  1  6
 10 13  1  0
 11 12  1  0
 13 20  1  0
 13 14  2  0
 16 15  1  0
 16 17  1  0
 17 18  1  0
 19 18  1  1
 20 19  1  0
 21 19  1  0
 21 22  1  0
 23 21  2  0
M  END
$$$$
