NCM.pdb
     RDKit          3D

 23 22  0  0  1  0  0  0  0  0999 V2000
   25.7884  -24.4164  -17.1232 N   0  0  0  0  0  0  0  0  0  0  0  0
   27.0698  -24.5759  -16.5399 C   0  0  0  0  0  0  0  0  0  0  0  0
   27.5137  -25.7554  -16.3449 O   0  0  0  0  0  0  0  0  0  0  0  0
   27.9313  -23.4338  -16.1397 C   0  0  0  0  0  0  0  0  0  0  0  0
   27.1120  -22.1625  -16.2203 C   0  0  2  0  0  0  0  0  0  0  0  0
   27.2719  -21.5751  -17.5337 N   0  0  0  0  0  0  0  0  0  0  0  0
   27.5491  -21.1916  -15.1860 C   0  0  0  0  0  0  0  0  0  0  0  0
   28.5935  -20.4991  -15.3410 O   0  0  0  0  0  0  0  0  0  0  0  0
   26.7662  -21.0582  -14.0164 N   0  0  0  0  0  0  0  0  0  0  0  0
   27.0286  -20.0363  -12.9924 C   0  0  1  0  0  0  0  0  0  0  0  0
   26.1398  -18.8346  -13.2576 C   0  0  0  0  0  0  0  0  0  0  0  0
   24.4236  -19.3612  -13.3250 S   0  0  0  0  0  0  0  0  0  0  0  0
   26.7675  -20.6779  -11.6919 C   0  0  0  0  0  0  0  0  0  0  0  0
   26.1125  -21.7843  -11.6326 O   0  0  0  0  0  0  0  0  0  0  0  0
   27.5470  -19.9179   -3.8073 C   0  0  0  0  0  0  0  0  0  0  0  0
   27.9282  -19.4038   -5.5015 S   0  0  0  0  0  0  0  0  0  0  0  0
   27.0850  -20.4494   -6.7178 C   0  0  0  0  0  0  0  0  0  0  0  0
   27.5118  -20.0350   -8.0857 C   0  0  0  0  0  0  0  0  0  0  0  0
   26.8332  -20.8016   -9.1874 C   0  0  2  0  0  0  0  0  0  0  0  0
   27.1967  -20.1570  -10.4632 N   0  0  0  0  0  0  0  0  0  0  0  0
   25.3751  -20.8305   -9.0875 C   0  0  0  0  0  0  0  0  0  0  0  0
   24.5342  -19.9207   -9.7154 O   0  0  0  0  0  0  0  0  0  0  0  0
   24.7995  -21.7147   -8.4022 O   0  0  0  0  0  0  0  0  0  0  0  0
  1  2  1  0
  2  4  1  0
  2  3  2  0
  4  5  1  0
  5  7  1  0
  5  6  1  6
  7  9  1  0
  8  7  2  0
  9 10  1  0
 10 11  1  6
 10 13  1  0
 11 12  1  0
 13 20  1  0
 13 14  2  0
 16 15  1  0
 16 17  1  0
 17 18  1  0
 19 18  1  1
 20 19  1  0
 21 19  1  0
 21 22  1  0
 23 21  2  0
M  END
$$$$
