NCM.pdb
     RDKit          3D

 23 22  0  0  1  0  0  0  0  0999 V2000
   24.8195  -25.4501  -17.4486 N   0  0  0  0  0  0  0  0  0  0  0  0
   25.9403  -25.8332  -16.6710 C   0  0  0  0  0  0  0  0  0  0  0  0
   26.2526  -27.0680  -16.6098 O   0  0  0  0  0  0  0  0  0  0  0  0
   26.7784  -24.8658  -15.9168 C   0  0  0  0  0  0  0  0  0  0  0  0
   26.0859  -23.5189  -15.9284 C   0  0  2  0  0  0  0  0  0  0  0  0
   26.0920  -22.9916  -17.2765 N   0  0  0  0  0  0  0  0  0  0  0  0
   26.7753  -22.5681  -15.0205 C   0  0  0  0  0  0  0  0  0  0  0  0
   28.0289  -22.5990  -14.8732 O   0  0  0  0  0  0  0  0  0  0  0  0
   25.9932  -21.6214  -14.3199 N   0  0  0  0  0  0  0  0  0  0  0  0
   26.5730  -20.6280  -13.4041 C   0  0  1  0  0  0  0  0  0  0  0  0
   26.2731  -19.2371  -13.9331 C   0  0  0  0  0  0  0  0  0  0  0  0
   26.6955  -18.0167  -12.6844 S   0  0  0  0  0  0  0  0  0  0  0  0
   25.9783  -20.8888  -12.0814 C   0  0  0  0  0  0  0  0  0  0  0  0
   24.7121  -21.0884  -11.9658 O   0  0  0  0  0  0  0  0  0  0  0  0
   28.8948  -20.3435   -5.7371 C   0  0  0  0  0  0  0  0  0  0  0  0
   27.5999  -19.1701   -6.2129 S   0  0  0  0  0  0  0  0  0  0  0  0
   26.3580  -19.9486   -7.2784 C   0  0  0  0  0  0  0  0  0  0  0  0
   26.9479  -20.1541   -8.6329 C   0  0  0  0  0  0  0  0  0  0  0  0
   26.0493  -20.9082   -9.5741 C   0  0  2  0  0  0  0  0  0  0  0  0
   26.7149  -20.9409  -10.8898 N   0  0  0  0  0  0  0  0  0  0  0  0
   24.7251  -20.3128   -9.7449 C   0  0  0  0  0  0  0  0  0  0  0  0
   24.4033  -19.4061  -10.7466 O   0  0  0  0  0  0  0  0  0  0  0  0
   23.7863  -20.6084   -8.9614 O   0  0  0  0  0  0  0  0  0  0  0  0
  1  2  1  0
  2  4  1  0
  2  3  2  0
  4  5  1  0
  5  7  1  0
  5  6  1  6
  7  9  1  0
  8  7  2  0
  9 10  1  0
 10 11  1  6
 10 13  1  0
 11 12  1  0
 13 20  1  0
 13 14  2  0
 16 15  1  0
 16 17  1  0
 17 18  1  0
 19 18  1  1
 20 19  1  0
 21 19  1  0
 21 22  1  0
 23 21  2  0
M  END
$$$$
