NCM.pdb
     RDKit          3D

 23 22  0  0  1  0  0  0  0  0999 V2000
   14.1013   -9.9456  -16.6549 N   0  0  0  0  0  0  0  0  0  0  0  0
   15.4148   -9.4571  -16.8640 C   0  0  0  0  0  0  0  0  0  0  0  0
   15.7719   -9.1412  -18.0467 O   0  0  0  0  0  0  0  0  0  0  0  0
   16.4067   -9.2915  -15.7706 C   0  0  0  0  0  0  0  0  0  0  0  0
   17.7477   -9.8004  -16.2572 C   0  0  2  0  0  0  0  0  0  0  0  0
   17.7858  -11.2418  -16.1277 N   0  0  0  0  0  0  0  0  0  0  0  0
   18.8527   -9.2018  -15.4672 C   0  0  0  0  0  0  0  0  0  0  0  0
   19.0198   -9.4972  -14.2510 O   0  0  0  0  0  0  0  0  0  0  0  0
   19.7194   -8.2882  -16.1097 N   0  0  0  0  0  0  0  0  0  0  0  0
   20.9144   -7.7298  -15.4603 C   0  0  1  0  0  0  0  0  0  0  0  0
   22.1507   -8.3240  -16.1106 C   0  0  0  0  0  0  0  0  0  0  0  0
   23.6206   -7.5689  -15.4059 S   0  0  0  0  0  0  0  0  0  0  0  0
   20.8222   -6.2671  -15.6126 C   0  0  0  0  0  0  0  0  0  0  0  0
   20.2574   -5.7559  -16.6500 O   0  0  0  0  0  0  0  0  0  0  0  0
   17.2888   -0.1432  -15.7474 C   0  0  0  0  0  0  0  0  0  0  0  0
   17.6903   -1.8762  -15.4076 S   0  0  0  0  0  0  0  0  0  0  0  0
   19.4731   -2.1128  -15.1846 C   0  0  0  0  0  0  0  0  0  0  0  0
   19.7515   -3.5725  -15.0554 C   0  0  0  0  0  0  0  0  0  0  0  0
   21.2112   -3.8960  -14.8926 C   0  0  2  0  0  0  0  0  0  0  0  0
   21.3201   -5.3508  -14.6759 N   0  0  0  0  0  0  0  0  0  0  0  0
   21.8544   -3.2158  -13.7697 C   0  0  0  0  0  0  0  0  0  0  0  0
   22.3032   -1.9020  -13.8099 O   0  0  0  0  0  0  0  0  0  0  0  0
   22.0350   -3.8156  -12.6787 O   0  0  0  0  0  0  0  0  0  0  0  0
  1  2  1  0
  2  4  1  0
  2  3  2  0
  4  5  1  0
  5  7  1  0
  5  6  1  1
  7  9  1  0
  8  7  2  0
  9 10  1  0
 10 11  1  6
 10 13  1  0
 11 12  1  0
 13 20  1  0
 13 14  2  0
 16 15  1  0
 16 17  1  0
 17 18  1  0
 19 18  1  1
 20 19  1  0
 21 19  1  0
 21 22  1  0
 23 21  2  0
M  END
$$$$
