NCM.pdb
     RDKit          3D

 23 22  0  0  1  0  0  0  0  0999 V2000
   15.6214  -21.0981  -15.1884 N   0  0  0  0  0  0  0  0  0  0  0  0
   16.9449  -21.2188  -14.6970 C   0  0  0  0  0  0  0  0  0  0  0  0
   17.1260  -21.3289  -13.4396 O   0  0  0  0  0  0  0  0  0  0  0  0
   18.1432  -21.2240  -15.5751 C   0  0  0  0  0  0  0  0  0  0  0  0
   19.3043  -20.6270  -14.8072 C   0  0  2  0  0  0  0  0  0  0  0  0
   18.9899  -19.2582  -14.4564 N   0  0  0  0  0  0  0  0  0  0  0  0
   20.5433  -20.6579  -15.6242 C   0  0  0  0  0  0  0  0  0  0  0  0
   20.5247  -21.0541  -16.8229 O   0  0  0  0  0  0  0  0  0  0  0  0
   21.7520  -20.2315  -15.0276 N   0  0  0  0  0  0  0  0  0  0  0  0
   22.9850  -20.0051  -15.7958 C   0  0  1  0  0  0  0  0  0  0  0  0
   22.7672  -18.8392  -16.7432 C   0  0  0  0  0  0  0  0  0  0  0  0
   24.3551  -18.1388  -17.2070 S   0  0  0  0  0  0  0  0  0  0  0  0
   24.0492  -19.7605  -14.8064 C   0  0  0  0  0  0  0  0  0  0  0  0
   23.8268  -19.0105  -13.7844 O   0  0  0  0  0  0  0  0  0  0  0  0
   24.4655  -20.0298   -9.3369 C   0  0  0  0  0  0  0  0  0  0  0  0
   25.3336  -21.4860   -9.9737 S   0  0  0  0  0  0  0  0  0  0  0  0
   26.4119  -21.0593  -11.3663 C   0  0  0  0  0  0  0  0  0  0  0  0
   25.5910  -21.0049  -12.6105 C   0  0  0  0  0  0  0  0  0  0  0  0
   26.2616  -20.2794  -13.7444 C   0  0  2  0  0  0  0  0  0  0  0  0
   25.3378  -20.3054  -14.8938 N   0  0  0  0  0  0  0  0  0  0  0  0
   27.5324  -20.8676  -14.1642 C   0  0  0  0  0  0  0  0  0  0  0  0
   28.7715  -20.4707  -13.6782 O   0  0  0  0  0  0  0  0  0  0  0  0
   27.5570  -21.7932  -15.0160 O   0  0  0  0  0  0  0  0  0  0  0  0
  1  2  1  0
  2  4  1  0
  2  3  2  0
  4  5  1  0
  5  7  1  0
  5  6  1  6
  7  9  1  0
  8  7  2  0
  9 10  1  0
 10 11  1  6
 10 13  1  0
 11 12  1  0
 13 20  1  0
 13 14  2  0
 16 15  1  0
 16 17  1  0
 17 18  1  0
 19 18  1  1
 20 19  1  0
 21 19  1  0
 21 22  1  0
 23 21  2  0
M  END
$$$$
