NCM.pdb
     RDKit          3D

 23 22  0  0  1  0  0  0  0  0999 V2000
   28.0145  -20.0403  -19.0061 N   0  0  0  0  0  0  0  0  0  0  0  0
   27.8746  -19.9520  -17.5989 C   0  0  0  0  0  0  0  0  0  0  0  0
   28.6551  -19.1792  -16.9510 O   0  0  0  0  0  0  0  0  0  0  0  0
   26.8591  -20.7175  -16.8309 C   0  0  0  0  0  0  0  0  0  0  0  0
   27.5613  -21.4600  -15.7130 C   0  0  2  0  0  0  0  0  0  0  0  0
   28.2112  -22.6342  -16.2556 N   0  0  0  0  0  0  0  0  0  0  0  0
   26.5914  -21.8688  -14.6662 C   0  0  0  0  0  0  0  0  0  0  0  0
   25.9229  -22.9342  -14.7764 O   0  0  0  0  0  0  0  0  0  0  0  0
   26.4314  -21.0344  -13.5362 N   0  0  0  0  0  0  0  0  0  0  0  0
   25.4710  -21.3223  -12.4609 C   0  0  1  0  0  0  0  0  0  0  0  0
   25.8697  -20.5396  -11.2227 C   0  0  0  0  0  0  0  0  0  0  0  0
   24.6206  -20.7546   -9.9496 S   0  0  0  0  0  0  0  0  0  0  0  0
   24.1437  -20.9512  -12.9820 C   0  0  0  0  0  0  0  0  0  0  0  0
   23.9489  -19.7872  -13.4953 O   0  0  0  0  0  0  0  0  0  0  0  0
   18.8960  -22.3409  -16.6804 C   0  0  0  0  0  0  0  0  0  0  0  0
   18.7751  -23.2047  -15.0933 S   0  0  0  0  0  0  0  0  0  0  0  0
   19.3642  -22.1693  -13.7277 C   0  0  0  0  0  0  0  0  0  0  0  0
   20.7873  -22.5136  -13.4430 C   0  0  0  0  0  0  0  0  0  0  0  0
   21.6830  -21.3130  -13.3079 C   0  0  2  0  0  0  0  0  0  0  0  0
   23.0308  -21.8034  -12.9639 N   0  0  0  0  0  0  0  0  0  0  0  0
   21.2633  -20.3649  -12.2774 C   0  0  0  0  0  0  0  0  0  0  0  0
   20.5558  -19.1980  -12.5358 O   0  0  0  0  0  0  0  0  0  0  0  0
   21.5362  -20.5749  -11.0674 O   0  0  0  0  0  0  0  0  0  0  0  0
  1  2  1  0
  2  4  1  0
  2  3  2  0
  4  5  1  0
  5  7  1  0
  5  6  1  6
  7  9  1  0
  8  7  2  0
  9 10  1  0
 10 11  1  1
 10 13  1  0
 11 12  1  0
 13 20  1  0
 13 14  2  0
 16 15  1  0
 16 17  1  0
 17 18  1  0
 19 18  1  1
 20 19  1  0
 21 19  1  0
 21 22  1  0
 23 21  2  0
M  END
$$$$
