NCM.pdb
     RDKit          3D

 23 22  0  0  1  0  0  0  0  0999 V2000
   16.3810  -10.9086  -17.3054 N   0  0  0  0  0  0  0  0  0  0  0  0
   16.8403  -11.4864  -16.0960 C   0  0  0  0  0  0  0  0  0  0  0  0
   16.1450  -12.4063  -15.5514 O   0  0  0  0  0  0  0  0  0  0  0  0
   18.0988  -11.0751  -15.4223 C   0  0  0  0  0  0  0  0  0  0  0  0
   18.7756  -10.0193  -16.2715 C   0  0  2  0  0  0  0  0  0  0  0  0
   19.4929  -10.6641  -17.3511 N   0  0  0  0  0  0  0  0  0  0  0  0
   19.7223   -9.2186  -15.4553 C   0  0  0  0  0  0  0  0  0  0  0  0
   19.3832   -8.7538  -14.3314 O   0  0  0  0  0  0  0  0  0  0  0  0
   21.0197   -8.9863  -15.9665 N   0  0  0  0  0  0  0  0  0  0  0  0
   22.0604   -8.2751  -15.2096 C   0  0  1  0  0  0  0  0  0  0  0  0
   23.4216   -8.7882  -15.6435 C   0  0  0  0  0  0  0  0  0  0  0  0
   23.7131  -10.4044  -14.9155 S   0  0  0  0  0  0  0  0  0  0  0  0
   21.8640   -6.8408  -15.4846 C   0  0  0  0  0  0  0  0  0  0  0  0
   21.4202   -6.4530  -16.6287 O   0  0  0  0  0  0  0  0  0  0  0  0
   17.3253   -1.4005  -15.9083 C   0  0  0  0  0  0  0  0  0  0  0  0
   18.0123   -3.0411  -15.5672 S   0  0  0  0  0  0  0  0  0  0  0  0
   19.7984   -2.9640  -15.2710 C   0  0  0  0  0  0  0  0  0  0  0  0
   20.3242   -4.3538  -15.1411 C   0  0  0  0  0  0  0  0  0  0  0  0
   21.7975   -4.4161  -14.8454 C   0  0  2  0  0  0  0  0  0  0  0  0
   22.1316   -5.8236  -14.5578 N   0  0  0  0  0  0  0  0  0  0  0  0
   22.2147   -3.6035  -13.7041 C   0  0  0  0  0  0  0  0  0  0  0  0
   22.5697   -2.2636  -13.7915 O   0  0  0  0  0  0  0  0  0  0  0  0
   22.2718   -4.1037  -12.5511 O   0  0  0  0  0  0  0  0  0  0  0  0
  1  2  1  0
  2  4  1  0
  2  3  2  0
  4  5  1  0
  5  7  1  0
  5  6  1  6
  7  9  1  0
  8  7  2  0
  9 10  1  0
 10 11  1  6
 10 13  1  0
 11 12  1  0
 13 20  1  0
 13 14  2  0
 16 15  1  0
 16 17  1  0
 17 18  1  0
 19 18  1  1
 20 19  1  0
 21 19  1  0
 21 22  1  0
 23 21  2  0
M  END
$$$$
