NCM.pdb
     RDKit          3D

 23 22  0  0  1  0  0  0  0  0999 V2000
   20.5716  -12.2307  -15.0455 N   0  0  0  0  0  0  0  0  0  0  0  0
   21.7526  -11.4516  -14.9700 C   0  0  0  0  0  0  0  0  0  0  0  0
   22.8165  -11.8937  -15.5165 O   0  0  0  0  0  0  0  0  0  0  0  0
   21.8189  -10.1362  -14.2827 C   0  0  0  0  0  0  0  0  0  0  0  0
   20.7388   -9.2408  -14.8532 C   0  0  2  0  0  0  0  0  0  0  0  0
   21.0728   -8.9035  -16.2208 N   0  0  0  0  0  0  0  0  0  0  0  0
   20.6124   -7.9975  -14.0522 C   0  0  0  0  0  0  0  0  0  0  0  0
   21.6329   -7.3982  -13.6122 O   0  0  0  0  0  0  0  0  0  0  0  0
   19.3168   -7.4957  -13.7908 N   0  0  0  0  0  0  0  0  0  0  0  0
   19.0786   -6.2407  -13.0630 C   0  0  1  0  0  0  0  0  0  0  0  0
   19.2042   -5.0787  -14.0318 C   0  0  0  0  0  0  0  0  0  0  0  0
   18.6794   -3.5635  -13.2220 S   0  0  0  0  0  0  0  0  0  0  0  0
   17.7370   -6.3579  -12.4651 C   0  0  0  0  0  0  0  0  0  0  0  0
   16.7728   -6.8905  -13.1308 O   0  0  0  0  0  0  0  0  0  0  0  0
   13.1072   -8.6292   -6.8595 C   0  0  0  0  0  0  0  0  0  0  0  0
   14.7269   -8.3488   -7.6196 S   0  0  0  0  0  0  0  0  0  0  0  0
   14.6423   -7.0833   -8.9139 C   0  0  0  0  0  0  0  0  0  0  0  0
   15.9668   -7.0039   -9.5955 C   0  0  0  0  0  0  0  0  0  0  0  0
   16.0292   -5.9558  -10.6723 C   0  0  2  0  0  0  0  0  0  0  0  0
   17.4160   -5.9186  -11.1731 N   0  0  0  0  0  0  0  0  0  0  0  0
   15.6678   -4.6125  -10.2230 C   0  0  0  0  0  0  0  0  0  0  0  0
   14.3700   -4.2125   -9.9319 O   0  0  0  0  0  0  0  0  0  0  0  0
   16.5515   -3.7292  -10.0758 O   0  0  0  0  0  0  0  0  0  0  0  0
  1  2  1  0
  2  4  1  0
  2  3  2  0
  4  5  1  0
  5  7  1  0
  5  6  1  6
  7  9  1  0
  8  7  2  0
  9 10  1  0
 10 11  1  6
 10 13  1  0
 11 12  1  0
 13 20  1  0
 13 14  2  0
 16 15  1  0
 16 17  1  0
 17 18  1  0
 19 18  1  1
 20 19  1  0
 21 19  1  0
 21 22  1  0
 23 21  2  0
M  END
$$$$
