NCM.pdb
     RDKit          3D

 23 22  0  0  1  0  0  0  0  0999 V2000
   27.4519  -17.4504  -18.1490 N   0  0  0  0  0  0  0  0  0  0  0  0
   27.4432  -17.6993  -16.7542 C   0  0  0  0  0  0  0  0  0  0  0  0
   28.2891  -17.0939  -16.0166 O   0  0  0  0  0  0  0  0  0  0  0  0
   26.4938  -18.6354  -16.0991 C   0  0  0  0  0  0  0  0  0  0  0  0
   27.2879  -19.6221  -15.2684 C   0  0  2  0  0  0  0  0  0  0  0  0
   28.0283  -20.4997  -16.1500 N   0  0  0  0  0  0  0  0  0  0  0  0
   26.3853  -20.4284  -14.4090 C   0  0  0  0  0  0  0  0  0  0  0  0
   25.6426  -21.3229  -14.9013 O   0  0  0  0  0  0  0  0  0  0  0  0
   26.3751  -20.1717  -13.0187 N   0  0  0  0  0  0  0  0  0  0  0  0
   25.5201  -20.9090  -12.0770 C   0  0  1  0  0  0  0  0  0  0  0  0
   25.9322  -20.5568  -10.6591 C   0  0  0  0  0  0  0  0  0  0  0  0
   24.6542  -21.0881   -9.5138 S   0  0  0  0  0  0  0  0  0  0  0  0
   24.1325  -20.5263  -12.3922 C   0  0  0  0  0  0  0  0  0  0  0  0
   23.8127  -19.2860  -12.5179 O   0  0  0  0  0  0  0  0  0  0  0  0
   20.7794  -22.8953  -16.7317 C   0  0  0  0  0  0  0  0  0  0  0  0
   19.3240  -22.2189  -15.8927 S   0  0  0  0  0  0  0  0  0  0  0  0
   19.7788  -21.3625  -14.3619 C   0  0  0  0  0  0  0  0  0  0  0  0
   21.1929  -21.6979  -14.0257 C   0  0  0  0  0  0  0  0  0  0  0  0
   21.7022  -20.9994  -12.7950 C   0  0  2  0  0  0  0  0  0  0  0  0
   23.0906  -21.4461  -12.5758 N   0  0  0  0  0  0  0  0  0  0  0  0
   20.9334  -21.2814  -11.5841 C   0  0  0  0  0  0  0  0  0  0  0  0
   19.8079  -20.5674  -11.1934 O   0  0  0  0  0  0  0  0  0  0  0  0
   21.2724  -22.2186  -10.8164 O   0  0  0  0  0  0  0  0  0  0  0  0
  1  2  1  0
  2  4  1  0
  2  3  2  0
  4  5  1  0
  5  7  1  0
  5  6  1  6
  7  9  1  0
  8  7  2  0
  9 10  1  0
 10 11  1  1
 10 13  1  0
 11 12  1  0
 13 20  1  0
 13 14  2  0
 16 15  1  0
 16 17  1  0
 17 18  1  0
 19 18  1  6
 20 19  1  0
 21 19  1  0
 21 22  1  0
 23 21  2  0
M  END
$$$$
