NCM.pdb
     RDKit          3D

 23 22  0  0  1  0  0  0  0  0999 V2000
   14.7100  -12.6918  -13.8102 N   0  0  0  0  0  0  0  0  0  0  0  0
   15.2783  -11.4213  -13.5447 C   0  0  0  0  0  0  0  0  0  0  0  0
   15.2610  -10.5363  -14.4625 O   0  0  0  0  0  0  0  0  0  0  0  0
   15.8987  -11.0616  -12.2436 C   0  0  0  0  0  0  0  0  0  0  0  0
   16.9892  -10.0415  -12.4969 C   0  0  2  0  0  0  0  0  0  0  0  0
   18.1996  -10.7274  -12.8968 N   0  0  0  0  0  0  0  0  0  0  0  0
   17.2526   -9.2423  -11.2740 C   0  0  0  0  0  0  0  0  0  0  0  0
   17.7276   -9.7782  -10.2341 O   0  0  0  0  0  0  0  0  0  0  0  0
   16.9584   -7.8597  -11.2988 N   0  0  0  0  0  0  0  0  0  0  0  0
   17.2449   -6.9622  -10.1701 C   0  0  1  0  0  0  0  0  0  0  0  0
   18.4082   -6.0605  -10.5417 C   0  0  0  0  0  0  0  0  0  0  0  0
   18.0430   -5.2155  -12.0843 S   0  0  0  0  0  0  0  0  0  0  0  0
   15.9982   -6.2238   -9.9026 C   0  0  0  0  0  0  0  0  0  0  0  0
   15.1442   -6.0267  -10.8451 O   0  0  0  0  0  0  0  0  0  0  0  0
   10.9807   -7.0258   -6.0620 C   0  0  0  0  0  0  0  0  0  0  0  0
   11.6228   -5.4035   -5.5767 S   0  0  0  0  0  0  0  0  0  0  0  0
   12.4857   -4.5938   -6.9491 C   0  0  0  0  0  0  0  0  0  0  0  0
   13.6677   -5.4210   -7.3284 C   0  0  0  0  0  0  0  0  0  0  0  0
   14.4600   -4.8518   -8.4730 C   0  0  2  0  0  0  0  0  0  0  0  0
   15.6541   -5.6995   -8.6488 N   0  0  0  0  0  0  0  0  0  0  0  0
   14.9024   -3.4735   -8.2690 C   0  0  0  0  0  0  0  0  0  0  0  0
   14.1046   -2.3591   -8.4944 O   0  0  0  0  0  0  0  0  0  0  0  0
   16.0689   -3.2305   -7.8654 O   0  0  0  0  0  0  0  0  0  0  0  0
  1  2  1  0
  2  4  1  0
  2  3  2  0
  4  5  1  0
  5  7  1  0
  5  6  1  1
  7  9  1  0
  8  7  2  0
  9 10  1  0
 10 11  1  6
 10 13  1  0
 11 12  1  0
 13 20  1  0
 13 14  2  0
 16 15  1  0
 16 17  1  0
 17 18  1  0
 19 18  1  1
 20 19  1  0
 21 19  1  0
 21 22  1  0
 23 21  2  0
M  END
$$$$
