TDY.pdb
     RDKit          3D

 28 28  0  0  1  0  0  0  0  0999 V2000
   30.5748  -29.3236  -25.2031 C   0  0  0  0  0  0  0  0  0  0  0  0
   29.9038  -28.9807  -23.8984 C   0  0  1  0  0  0  0  0  0  0  0  0
   29.8642  -30.1395  -23.1258 O   0  0  0  0  0  0  0  0  0  0  0  0
   30.7148  -27.9148  -23.1851 C   0  0  2  0  0  0  0  0  0  0  0  0
   32.0817  -28.3322  -22.9842 N   0  0  0  0  0  0  0  0  0  0  0  0
   30.1322  -27.5925  -21.8599 C   0  0  0  0  0  0  0  0  0  0  0  0
   30.8291  -27.7331  -20.8265 O   0  0  0  0  0  0  0  0  0  0  0  0
   28.8048  -27.1230  -21.6733 N   0  0  0  0  0  0  0  0  0  0  0  0
   28.2866  -26.6982  -20.3915 C   0  0  1  0  0  0  0  0  0  0  0  0
   28.0686  -25.1838  -20.4978 C   0  0  0  0  0  0  0  0  0  0  0  0
   27.5079  -24.6202  -19.2528 C   0  0  0  0  0  0  0  0  0  0  0  0
   27.3605  -23.3710  -19.1308 O   0  0  0  0  0  0  0  0  0  0  0  0
   26.9387  -27.3141  -20.2037 C   0  0  0  0  0  0  0  0  0  0  0  0
   26.0789  -27.2975  -21.1412 O   0  0  0  0  0  0  0  0  0  0  0  0
   27.1360  -25.4677  -18.1995 O   0  0  0  0  0  0  0  0  0  0  0  0
   29.0905  -32.4417  -15.4481 O   0  0  0  0  0  0  0  0  0  0  0  0
   28.1715  -31.8637  -16.3008 C   0  0  0  0  0  0  0  0  0  0  0  0
   28.4877  -31.7316  -17.6207 C   0  0  0  0  0  0  0  0  0  0  0  0
   27.5438  -31.1491  -18.4436 C   0  0  0  0  0  0  0  0  0  0  0  0
   26.3279  -30.7119  -17.9771 C   0  0  0  0  0  0  0  0  0  0  0  0
   25.3724  -30.1123  -18.9192 C   0  0  0  0  0  0  0  0  0  0  0  0
   25.2632  -28.6180  -18.8515 C   0  0  2  0  0  0  0  0  0  0  0  0
   26.5294  -27.9439  -19.0048 N   0  0  0  0  0  0  0  0  0  0  0  0
   24.6318  -28.2213  -17.5911 C   0  0  0  0  0  0  0  0  0  0  0  0
   25.2899  -27.5611  -16.7422 O   0  0  0  0  0  0  0  0  0  0  0  0
   26.0587  -30.8695  -16.6319 C   0  0  0  0  0  0  0  0  0  0  0  0
   26.9717  -31.4437  -15.7839 C   0  0  0  0  0  0  0  0  0  0  0  0
   23.3147  -28.5482  -17.2907 O   0  0  0  0  0  0  0  0  0  0  0  0
  2  1  1  6
  3  2  1  0
  4  2  1  0
  4  5  1  1
  4  6  1  0
  6  7  2  0
  8  6  1  0
  8  9  1  0
  9 13  1  0
  9 10  1  6
 10 11  1  0
 11 12  2  0
 11 15  1  0
 13 14  2  0
 16 17  1  0
 17 27  2  0
 18 17  1  0
 18 19  2  0
 19 20  1  0
 20 26  2  0
 20 21  1  0
 22 21  1  1
 22 24  1  0
 23 13  1  0
 23 22  1  0
 24 28  1  0
 25 24  2  0
 27 26  1  0
M  END
$$$$
