TDY.pdb
     RDKit          3D

 28 28  0  0  1  0  0  0  0  0999 V2000
   18.4627  -12.3647  -17.2413 C   0  0  0  0  0  0  0  0  0  0  0  0
   19.4482  -13.4672  -16.9525 C   0  0  1  0  0  0  0  0  0  0  0  0
   18.8023  -14.6812  -17.1768 O   0  0  0  0  0  0  0  0  0  0  0  0
   20.6340  -13.3349  -17.8900 C   0  0  2  0  0  0  0  0  0  0  0  0
   21.5556  -14.4355  -17.7403 N   0  0  0  0  0  0  0  0  0  0  0  0
   21.3769  -12.0753  -17.6432 C   0  0  0  0  0  0  0  0  0  0  0  0
   22.2458  -12.0358  -16.7394 O   0  0  0  0  0  0  0  0  0  0  0  0
   21.1684  -10.8779  -18.3781 N   0  0  0  0  0  0  0  0  0  0  0  0
   21.9188   -9.6636  -18.1454 C   0  0  1  0  0  0  0  0  0  0  0  0
   21.7868   -8.8264  -19.4237 C   0  0  0  0  0  0  0  0  0  0  0  0
   22.5200   -7.5481  -19.3220 C   0  0  0  0  0  0  0  0  0  0  0  0
   23.6181   -7.4933  -18.6988 O   0  0  0  0  0  0  0  0  0  0  0  0
   21.2418   -8.8958  -17.0574 C   0  0  0  0  0  0  0  0  0  0  0  0
   19.9726   -8.8400  -16.9925 O   0  0  0  0  0  0  0  0  0  0  0  0
   22.0021   -6.3885  -19.9162 O   0  0  0  0  0  0  0  0  0  0  0  0
   18.9453   -6.0125   -9.2191 O   0  0  0  0  0  0  0  0  0  0  0  0
   19.6778   -6.4527  -10.3033 C   0  0  0  0  0  0  0  0  0  0  0  0
   19.5802   -7.7599  -10.6791 C   0  0  0  0  0  0  0  0  0  0  0  0
   20.3272   -8.1640  -11.7682 C   0  0  0  0  0  0  0  0  0  0  0  0
   21.1431   -7.3043  -12.4627 C   0  0  0  0  0  0  0  0  0  0  0  0
   21.8978   -7.8091  -13.6184 C   0  0  0  0  0  0  0  0  0  0  0  0
   21.2896   -7.5104  -14.9564 C   0  0  2  0  0  0  0  0  0  0  0  0
   21.9408   -8.1944  -16.0470 N   0  0  0  0  0  0  0  0  0  0  0  0
   21.2948   -6.0655  -15.1944 C   0  0  0  0  0  0  0  0  0  0  0  0
   22.3082   -5.5198  -15.7090 O   0  0  0  0  0  0  0  0  0  0  0  0
   21.2052   -5.9912  -12.0400 C   0  0  0  0  0  0  0  0  0  0  0  0
   20.4777   -5.5533  -10.9623 C   0  0  0  0  0  0  0  0  0  0  0  0
   20.2087   -5.2605  -14.8715 O   0  0  0  0  0  0  0  0  0  0  0  0
  2  1  1  6
  3  2  1  0
  4  2  1  0
  4  5  1  1
  4  6  1  0
  6  7  2  0
  8  6  1  0
  8  9  1  0
  9 13  1  0
  9 10  1  6
 10 11  1  0
 11 12  2  0
 11 15  1  0
 13 14  2  0
 16 17  1  0
 17 27  2  0
 18 17  1  0
 18 19  2  0
 19 20  1  0
 20 26  2  0
 20 21  1  0
 22 21  1  1
 22 24  1  0
 23 13  1  0
 23 22  1  0
 24 28  1  0
 25 24  2  0
 27 26  1  0
M  END
$$$$
