TDY.pdb
     RDKit          3D

 28 28  0  0  1  0  0  0  0  0999 V2000
   23.4892  -10.9869  -14.4443 C   0  0  0  0  0  0  0  0  0  0  0  0
   24.2953  -11.1074  -15.7114 C   0  0  1  0  0  0  0  0  0  0  0  0
   25.1306  -12.2146  -15.5777 O   0  0  0  0  0  0  0  0  0  0  0  0
   23.3543  -11.3122  -16.8840 C   0  0  2  0  0  0  0  0  0  0  0  0
   24.0768  -11.5003  -18.1193 N   0  0  0  0  0  0  0  0  0  0  0  0
   22.4461  -10.1520  -17.0539 C   0  0  0  0  0  0  0  0  0  0  0  0
   22.8863   -9.0891  -17.5535 O   0  0  0  0  0  0  0  0  0  0  0  0
   21.0757  -10.1600  -16.6808 N   0  0  0  0  0  0  0  0  0  0  0  0
   20.2140   -9.0048  -16.8022 C   0  0  1  0  0  0  0  0  0  0  0  0
   18.7834   -9.5469  -16.9122 C   0  0  0  0  0  0  0  0  0  0  0  0
   18.5257  -10.1548  -18.2336 C   0  0  0  0  0  0  0  0  0  0  0  0
   18.7256   -9.4891  -19.2891 O   0  0  0  0  0  0  0  0  0  0  0  0
   20.2835   -8.2321  -15.5256 C   0  0  0  0  0  0  0  0  0  0  0  0
   20.2624   -8.8279  -14.4019 O   0  0  0  0  0  0  0  0  0  0  0  0
   18.0581  -11.4735  -18.3244 O   0  0  0  0  0  0  0  0  0  0  0  0
   25.6615   -4.0287  -17.5255 O   0  0  0  0  0  0  0  0  0  0  0  0
   24.7685   -4.5426  -16.6066 C   0  0  0  0  0  0  0  0  0  0  0  0
   24.1217   -3.6868  -15.7647 C   0  0  0  0  0  0  0  0  0  0  0  0
   23.2357   -4.2368  -14.8592 C   0  0  0  0  0  0  0  0  0  0  0  0
   22.9970   -5.5878  -14.7887 C   0  0  0  0  0  0  0  0  0  0  0  0
   22.0303   -6.0943  -13.8042 C   0  0  0  0  0  0  0  0  0  0  0  0
   20.5992   -6.0836  -14.2528 C   0  0  2  0  0  0  0  0  0  0  0  0
   20.3758   -6.8214  -15.4722 N   0  0  0  0  0  0  0  0  0  0  0  0
   20.1364   -4.7030  -14.4085 C   0  0  0  0  0  0  0  0  0  0  0  0
   19.7437   -4.2981  -15.5360 O   0  0  0  0  0  0  0  0  0  0  0  0
   23.6787   -6.4098  -15.6642 C   0  0  0  0  0  0  0  0  0  0  0  0
   24.5665   -5.8996  -16.5774 C   0  0  0  0  0  0  0  0  0  0  0  0
   20.1114   -3.8087  -13.3448 O   0  0  0  0  0  0  0  0  0  0  0  0
  2  1  1  1
  3  2  1  0
  4  2  1  0
  4  5  1  6
  4  6  1  0
  6  7  2  0
  8  6  1  0
  8  9  1  0
  9 13  1  0
  9 10  1  1
 10 11  1  0
 11 12  2  0
 11 15  1  0
 13 14  2  0
 16 17  1  0
 17 27  2  0
 18 17  1  0
 18 19  2  0
 19 20  1  0
 20 26  2  0
 20 21  1  0
 22 21  1  6
 22 24  1  0
 23 13  1  0
 23 22  1  0
 24 28  1  0
 25 24  2  0
 27 26  1  0
M  END
$$$$
