TDY.pdb
     RDKit          3D

 28 28  0  0  1  0  0  0  0  0999 V2000
   24.2023  -12.2988  -15.2839 C   0  0  0  0  0  0  0  0  0  0  0  0
   24.3502  -13.2093  -16.4752 C   0  0  1  0  0  0  0  0  0  0  0  0
   25.2807  -14.1920  -16.1436 O   0  0  0  0  0  0  0  0  0  0  0  0
   23.0103  -13.8525  -16.7812 C   0  0  2  0  0  0  0  0  0  0  0  0
   23.1197  -14.8348  -17.8330 N   0  0  0  0  0  0  0  0  0  0  0  0
   22.0104  -12.8400  -17.1989 C   0  0  0  0  0  0  0  0  0  0  0  0
   22.1626  -12.2309  -18.2848 O   0  0  0  0  0  0  0  0  0  0  0  0
   20.8614  -12.5022  -16.4354 N   0  0  0  0  0  0  0  0  0  0  0  0
   19.9025  -11.5005  -16.8463 C   0  0  1  0  0  0  0  0  0  0  0  0
   18.5257  -12.0245  -16.4195 C   0  0  0  0  0  0  0  0  0  0  0  0
   18.0997  -13.1796  -17.2358 C   0  0  0  0  0  0  0  0  0  0  0  0
   17.5385  -14.1714  -16.6894 O   0  0  0  0  0  0  0  0  0  0  0  0
   20.1538  -10.2589  -16.0546 C   0  0  0  0  0  0  0  0  0  0  0  0
   20.2416  -10.3019  -14.7863 O   0  0  0  0  0  0  0  0  0  0  0  0
   18.3153  -13.1823  -18.6212 O   0  0  0  0  0  0  0  0  0  0  0  0
   22.1427   -1.8035  -14.2709 O   0  0  0  0  0  0  0  0  0  0  0  0
   22.0346   -3.0825  -14.7791 C   0  0  0  0  0  0  0  0  0  0  0  0
   21.5556   -3.2519  -16.0445 C   0  0  0  0  0  0  0  0  0  0  0  0
   21.4619   -4.5455  -16.5192 C   0  0  0  0  0  0  0  0  0  0  0  0
   21.8298   -5.6351  -15.7677 C   0  0  0  0  0  0  0  0  0  0  0  0
   21.7103   -6.9798  -16.3491 C   0  0  0  0  0  0  0  0  0  0  0  0
   20.5319   -7.7768  -15.8744 C   0  0  2  0  0  0  0  0  0  0  0  0
   20.3088   -8.9798  -16.6389 N   0  0  0  0  0  0  0  0  0  0  0  0
   19.3285   -6.9425  -15.8872 C   0  0  0  0  0  0  0  0  0  0  0  0
   18.5828   -6.9355  -16.9038 O   0  0  0  0  0  0  0  0  0  0  0  0
   22.3083   -5.4074  -14.4927 C   0  0  0  0  0  0  0  0  0  0  0  0
   22.4155   -4.1365  -13.9871 C   0  0  0  0  0  0  0  0  0  0  0  0
   18.9704   -6.1471  -14.8051 O   0  0  0  0  0  0  0  0  0  0  0  0
  2  1  1  1
  3  2  1  0
  4  2  1  0
  4  5  1  6
  4  6  1  0
  6  7  2  0
  8  6  1  0
  8  9  1  0
  9 13  1  0
  9 10  1  1
 10 11  1  0
 11 12  2  0
 11 15  1  0
 13 14  2  0
 16 17  1  0
 17 27  2  0
 18 17  1  0
 18 19  2  0
 19 20  1  0
 20 26  2  0
 20 21  1  0
 22 21  1  6
 22 24  1  0
 23 13  1  0
 23 22  1  0
 24 28  1  0
 25 24  2  0
 27 26  1  0
M  END
$$$$
