TDY.pdb
     RDKit          3D

 28 28  0  0  1  0  0  0  0  0999 V2000
   28.5070  -16.1206  -15.7607 C   0  0  0  0  0  0  0  0  0  0  0  0
   27.6143  -17.0049  -16.5921 C   0  0  1  0  0  0  0  0  0  0  0  0
   28.1435  -17.0485  -17.8803 O   0  0  0  0  0  0  0  0  0  0  0  0
   27.5983  -18.4000  -15.9956 C   0  0  2  0  0  0  0  0  0  0  0  0
   27.1218  -19.3784  -16.9437 N   0  0  0  0  0  0  0  0  0  0  0  0
   26.7301  -18.4617  -14.7947 C   0  0  0  0  0  0  0  0  0  0  0  0
   26.9015  -17.6384  -13.8640 O   0  0  0  0  0  0  0  0  0  0  0  0
   25.6901  -19.4129  -14.6195 N   0  0  0  0  0  0  0  0  0  0  0  0
   24.8328  -19.4452  -13.4551 C   0  0  1  0  0  0  0  0  0  0  0  0
   23.4926  -20.0241  -13.9255 C   0  0  0  0  0  0  0  0  0  0  0  0
   22.7808  -19.0983  -14.8301 C   0  0  0  0  0  0  0  0  0  0  0  0
   22.4068  -17.9652  -14.4136 O   0  0  0  0  0  0  0  0  0  0  0  0
   25.4039  -20.4220  -12.4798 C   0  0  0  0  0  0  0  0  0  0  0  0
   25.9436  -21.5021  -12.8802 O   0  0  0  0  0  0  0  0  0  0  0  0
   22.5161  -19.4712  -16.1555 O   0  0  0  0  0  0  0  0  0  0  0  0
   28.1154  -18.9509   -4.5751 O   0  0  0  0  0  0  0  0  0  0  0  0
   27.9223  -19.4352   -5.8533 C   0  0  0  0  0  0  0  0  0  0  0  0
   28.4358  -20.6550   -6.1817 C   0  0  0  0  0  0  0  0  0  0  0  0
   28.2226  -21.1071   -7.4692 C   0  0  0  0  0  0  0  0  0  0  0  0
   27.5247  -20.3775   -8.4008 C   0  0  0  0  0  0  0  0  0  0  0  0
   27.3309  -20.9332   -9.7475 C   0  0  0  0  0  0  0  0  0  0  0  0
   25.9038  -21.1850  -10.1337 C   0  0  2  0  0  0  0  0  0  0  0  0
   25.3884  -20.2247  -11.0790 N   0  0  0  0  0  0  0  0  0  0  0  0
   25.0614  -21.2136   -8.9362 C   0  0  0  0  0  0  0  0  0  0  0  0
   25.2563  -22.0940   -8.0550 O   0  0  0  0  0  0  0  0  0  0  0  0
   27.0262  -19.1486   -8.0160 C   0  0  0  0  0  0  0  0  0  0  0  0
   27.2181  -18.6666   -6.7458 C   0  0  0  0  0  0  0  0  0  0  0  0
   24.0409  -20.2929   -8.7297 O   0  0  0  0  0  0  0  0  0  0  0  0
  2  1  1  1
  3  2  1  0
  4  2  1  0
  4  5  1  6
  4  6  1  0
  6  7  2  0
  8  6  1  0
  8  9  1  0
  9 13  1  0
  9 10  1  6
 10 11  1  0
 11 12  2  0
 11 15  1  0
 13 14  2  0
 16 17  1  0
 17 27  2  0
 18 17  1  0
 18 19  2  0
 19 20  1  0
 20 26  2  0
 20 21  1  0
 22 21  1  1
 22 24  1  0
 23 13  1  0
 23 22  1  0
 24 28  1  0
 25 24  2  0
 27 26  1  0
M  END
$$$$
