TDY.pdb
     RDKit          3D

 28 28  0  0  1  0  0  0  0  0999 V2000
   23.8664  -13.3412  -17.5842 C   0  0  0  0  0  0  0  0  0  0  0  0
   24.4356  -14.7273  -17.4269 C   0  0  1  0  0  0  0  0  0  0  0  0
   23.6263  -15.4174  -16.5268 O   0  0  0  0  0  0  0  0  0  0  0  0
   24.4216  -15.4283  -18.7726 C   0  0  2  0  0  0  0  0  0  0  0  0
   23.0883  -15.5015  -19.3203 N   0  0  0  0  0  0  0  0  0  0  0  0
   24.9519  -16.8092  -18.6654 C   0  0  0  0  0  0  0  0  0  0  0  0
   24.1544  -17.7753  -18.6009 O   0  0  0  0  0  0  0  0  0  0  0  0
   26.3364  -17.1235  -18.6298 N   0  0  0  0  0  0  0  0  0  0  0  0
   26.8404  -18.4745  -18.5175 C   0  0  1  0  0  0  0  0  0  0  0  0
   28.2740  -18.4439  -19.0619 C   0  0  0  0  0  0  0  0  0  0  0  0
   28.9062  -19.7783  -19.0215 C   0  0  0  0  0  0  0  0  0  0  0  0
   28.2523  -20.7791  -18.6117 O   0  0  0  0  0  0  0  0  0  0  0  0
   26.9390  -18.8188  -17.0673 C   0  0  0  0  0  0  0  0  0  0  0  0
   27.5050  -18.0280  -16.2473 O   0  0  0  0  0  0  0  0  0  0  0  0
   30.2351  -19.9424  -19.4376 O   0  0  0  0  0  0  0  0  0  0  0  0
   25.6178  -20.7615   -8.8032 O   0  0  0  0  0  0  0  0  0  0  0  0
   25.6177  -20.4502  -10.1482 C   0  0  0  0  0  0  0  0  0  0  0  0
   24.8056  -21.1529  -10.9885 C   0  0  0  0  0  0  0  0  0  0  0  0
   24.8319  -20.8135  -12.3269 C   0  0  0  0  0  0  0  0  0  0  0  0
   25.6343  -19.8124  -12.8181 C   0  0  0  0  0  0  0  0  0  0  0  0
   25.5968  -19.5038  -14.2546 C   0  0  0  0  0  0  0  0  0  0  0  0
   26.5020  -20.3397  -15.1097 C   0  0  2  0  0  0  0  0  0  0  0  0
   26.4249  -20.0147  -16.5132 N   0  0  0  0  0  0  0  0  0  0  0  0
   26.2086  -21.7599  -14.9056 C   0  0  0  0  0  0  0  0  0  0  0  0
   25.2861  -22.3094  -15.5662 O   0  0  0  0  0  0  0  0  0  0  0  0
   26.4374  -19.1323  -11.9240 C   0  0  0  0  0  0  0  0  0  0  0  0
   26.4381  -19.4415  -10.5873 C   0  0  0  0  0  0  0  0  0  0  0  0
   26.9197  -22.5374  -13.9992 O   0  0  0  0  0  0  0  0  0  0  0  0
  2  1  1  6
  3  2  1  0
  4  2  1  0
  4  5  1  1
  4  6  1  0
  6  7  2  0
  8  6  1  0
  8  9  1  0
  9 13  1  0
  9 10  1  1
 10 11  1  0
 11 12  2  0
 11 15  1  0
 13 14  2  0
 16 17  1  0
 17 27  2  0
 18 17  1  0
 18 19  2  0
 19 20  1  0
 20 26  2  0
 20 21  1  0
 22 21  1  1
 22 24  1  0
 23 13  1  0
 23 22  1  0
 24 28  1  0
 25 24  2  0
 27 26  1  0
M  END
$$$$
