TDY.pdb
     RDKit          3D

 28 28  0  0  1  0  0  0  0  0999 V2000
   31.3517  -23.8246  -16.1721 C   0  0  0  0  0  0  0  0  0  0  0  0
   30.0754  -24.6081  -16.3372 C   0  0  1  0  0  0  0  0  0  0  0  0
   29.0534  -23.6999  -16.6058 O   0  0  0  0  0  0  0  0  0  0  0  0
   30.2272  -25.5701  -17.5008 C   0  0  2  0  0  0  0  0  0  0  0  0
   30.5839  -24.8808  -18.7177 N   0  0  0  0  0  0  0  0  0  0  0  0
   28.9709  -26.3190  -17.7471 C   0  0  0  0  0  0  0  0  0  0  0  0
   28.2611  -26.0280  -18.7394 O   0  0  0  0  0  0  0  0  0  0  0  0
   28.5023  -27.3710  -16.9160 N   0  0  0  0  0  0  0  0  0  0  0  0
   27.2471  -28.0555  -17.1349 C   0  0  1  0  0  0  0  0  0  0  0  0
   27.3365  -29.3740  -16.3565 C   0  0  0  0  0  0  0  0  0  0  0  0
   26.1447  -30.2203  -16.5697 C   0  0  0  0  0  0  0  0  0  0  0  0
   25.7093  -30.4218  -17.7389 O   0  0  0  0  0  0  0  0  0  0  0  0
   26.1591  -27.2539  -16.4985 C   0  0  0  0  0  0  0  0  0  0  0  0
   26.4073  -26.4815  -15.5187 O   0  0  0  0  0  0  0  0  0  0  0  0
   25.4897  -30.8048  -15.4764 O   0  0  0  0  0  0  0  0  0  0  0  0
   19.3975  -24.1455  -12.3342 O   0  0  0  0  0  0  0  0  0  0  0  0
   20.5026  -24.6985  -12.9496 C   0  0  0  0  0  0  0  0  0  0  0  0
   20.5218  -26.0406  -13.1903 C   0  0  0  0  0  0  0  0  0  0  0  0
   21.6435  -26.5582  -13.8078 C   0  0  0  0  0  0  0  0  0  0  0  0
   22.7105  -25.7748  -14.1752 C   0  0  0  0  0  0  0  0  0  0  0  0
   23.8635  -26.3999  -14.8386 C   0  0  0  0  0  0  0  0  0  0  0  0
   23.7647  -26.4953  -16.3321 C   0  0  2  0  0  0  0  0  0  0  0  0
   24.8108  -27.2922  -16.9254 N   0  0  0  0  0  0  0  0  0  0  0  0
   23.7616  -25.1531  -16.9178 C   0  0  0  0  0  0  0  0  0  0  0  0
   24.6998  -24.8023  -17.6835 O   0  0  0  0  0  0  0  0  0  0  0  0
   22.6397  -24.4219  -13.9082 C   0  0  0  0  0  0  0  0  0  0  0  0
   21.5417  -23.8719  -13.2962 C   0  0  0  0  0  0  0  0  0  0  0  0
   22.7481  -24.2377  -16.6594 O   0  0  0  0  0  0  0  0  0  0  0  0
  2  1  1  6
  3  2  1  0
  4  2  1  0
  4  5  1  6
  4  6  1  0
  6  7  2  0
  8  6  1  0
  8  9  1  0
  9 13  1  0
  9 10  1  1
 10 11  1  0
 11 12  2  0
 11 15  1  0
 13 14  2  0
 16 17  1  0
 17 27  2  0
 18 17  1  0
 18 19  2  0
 19 20  1  0
 20 26  2  0
 20 21  1  0
 22 21  1  1
 22 24  1  0
 23 13  1  0
 23 22  1  0
 24 28  1  0
 25 24  2  0
 27 26  1  0
M  END
$$$$
