TDY.pdb
     RDKit          3D

 28 28  0  0  1  0  0  0  0  0999 V2000
   18.4525  -10.7379  -18.8282 C   0  0  0  0  0  0  0  0  0  0  0  0
   19.5191  -11.3317  -19.7113 C   0  0  1  0  0  0  0  0  0  0  0  0
   18.9959  -12.4873  -20.2876 O   0  0  0  0  0  0  0  0  0  0  0  0
   19.8809  -10.3346  -20.7963 C   0  0  2  0  0  0  0  0  0  0  0  0
   20.8417  -10.8828  -21.7234 N   0  0  0  0  0  0  0  0  0  0  0  0
   20.4543   -9.0949  -20.2182 C   0  0  0  0  0  0  0  0  0  0  0  0
   21.6945   -9.0047  -20.0535 O   0  0  0  0  0  0  0  0  0  0  0  0
   19.6771   -7.9723  -19.8275 N   0  0  0  0  0  0  0  0  0  0  0  0
   20.2508   -6.7606  -19.2849 C   0  0  1  0  0  0  0  0  0  0  0  0
   19.2940   -5.6246  -19.6673 C   0  0  0  0  0  0  0  0  0  0  0  0
   19.7785   -4.3133  -19.1900 C   0  0  0  0  0  0  0  0  0  0  0  0
   21.0065   -4.0240  -19.2649 O   0  0  0  0  0  0  0  0  0  0  0  0
   20.2279   -6.8579  -17.7944 C   0  0  0  0  0  0  0  0  0  0  0  0
   19.1994   -7.2945  -17.1862 O   0  0  0  0  0  0  0  0  0  0  0  0
   18.8791   -3.3823  -18.6512 O   0  0  0  0  0  0  0  0  0  0  0  0
   22.0238  -12.8042  -16.8768 O   0  0  0  0  0  0  0  0  0  0  0  0
   22.1085  -11.5037  -16.4218 C   0  0  0  0  0  0  0  0  0  0  0  0
   21.2676  -11.0955  -15.4290 C   0  0  0  0  0  0  0  0  0  0  0  0
   21.3814   -9.7879  -14.9991 C   0  0  0  0  0  0  0  0  0  0  0  0
   22.2964   -8.9133  -15.5330 C   0  0  0  0  0  0  0  0  0  0  0  0
   22.3629   -7.5401  -15.0132 C   0  0  0  0  0  0  0  0  0  0  0  0
   21.3086   -6.6096  -15.5347 C   0  0  2  0  0  0  0  0  0  0  0  0
   21.3162   -6.4835  -16.9718 N   0  0  0  0  0  0  0  0  0  0  0  0
   21.4559   -5.2917  -14.9134 C   0  0  0  0  0  0  0  0  0  0  0  0
   21.3564   -5.1752  -13.6620 O   0  0  0  0  0  0  0  0  0  0  0  0
   23.1238   -9.3780  -16.5361 C   0  0  0  0  0  0  0  0  0  0  0  0
   23.0398  -10.6704  -16.9890 C   0  0  0  0  0  0  0  0  0  0  0  0
   21.7064   -4.1473  -15.6613 O   0  0  0  0  0  0  0  0  0  0  0  0
  2  1  1  1
  3  2  1  0
  4  2  1  0
  4  5  1  6
  4  6  1  0
  6  7  2  0
  8  6  1  0
  8  9  1  0
  9 13  1  0
  9 10  1  1
 10 11  1  0
 11 12  2  0
 11 15  1  0
 13 14  2  0
 16 17  1  0
 17 27  2  0
 18 17  1  0
 18 19  2  0
 19 20  1  0
 20 26  2  0
 20 21  1  0
 22 21  1  6
 22 24  1  0
 23 13  1  0
 23 22  1  0
 24 28  1  0
 25 24  2  0
 27 26  1  0
M  END
$$$$
