TDY.pdb
     RDKit          3D

 28 28  0  0  1  0  0  0  0  0999 V2000
   16.3321   -4.2962  -19.3550 C   0  0  0  0  0  0  0  0  0  0  0  0
   16.3662   -5.7890  -19.5566 C   0  0  1  0  0  0  0  0  0  0  0  0
   16.3612   -6.0306  -20.9288 O   0  0  0  0  0  0  0  0  0  0  0  0
   17.6360   -6.3468  -18.9411 C   0  0  2  0  0  0  0  0  0  0  0  0
   17.8142   -7.7425  -19.2627 N   0  0  0  0  0  0  0  0  0  0  0  0
   17.6218   -6.2127  -17.4641 C   0  0  0  0  0  0  0  0  0  0  0  0
   17.6340   -5.0705  -16.9460 O   0  0  0  0  0  0  0  0  0  0  0  0
   17.5945   -7.3164  -16.5707 N   0  0  0  0  0  0  0  0  0  0  0  0
   17.6291   -7.1733  -15.1319 C   0  0  1  0  0  0  0  0  0  0  0  0
   16.8933   -8.3923  -14.5620 C   0  0  0  0  0  0  0  0  0  0  0  0
   15.4272   -8.2529  -14.6767 C   0  0  0  0  0  0  0  0  0  0  0  0
   14.8996   -7.1053  -14.7217 O   0  0  0  0  0  0  0  0  0  0  0  0
   19.0502   -7.2814  -14.6844 C   0  0  0  0  0  0  0  0  0  0  0  0
   19.6317   -8.4116  -14.6308 O   0  0  0  0  0  0  0  0  0  0  0  0
   14.6126   -9.3926  -14.7364 O   0  0  0  0  0  0  0  0  0  0  0  0
   24.2744  -11.6187  -15.5693 O   0  0  0  0  0  0  0  0  0  0  0  0
   23.6833  -10.3712  -15.5815 C   0  0  0  0  0  0  0  0  0  0  0  0
   22.9722   -9.9669  -14.4905 C   0  0  0  0  0  0  0  0  0  0  0  0
   22.3954   -8.7129  -14.5386 C   0  0  0  0  0  0  0  0  0  0  0  0
   22.5179   -7.8863  -15.6290 C   0  0  0  0  0  0  0  0  0  0  0  0
   21.8833   -6.5609  -15.5984 C   0  0  0  0  0  0  0  0  0  0  0  0
   21.2755   -6.1758  -14.2824 C   0  0  2  0  0  0  0  0  0  0  0  0
   19.8329   -6.1680  -14.2984 N   0  0  0  0  0  0  0  0  0  0  0  0
   21.7808   -4.8664  -13.8646 C   0  0  0  0  0  0  0  0  0  0  0  0
   21.0534   -3.8448  -13.9935 O   0  0  0  0  0  0  0  0  0  0  0  0
   23.2487   -8.3448  -16.7071 C   0  0  0  0  0  0  0  0  0  0  0  0
   23.8361   -9.5847  -16.6956 C   0  0  0  0  0  0  0  0  0  0  0  0
   23.0500   -4.7042  -13.3218 O   0  0  0  0  0  0  0  0  0  0  0  0
  2  1  1  6
  3  2  1  0
  4  2  1  0
  4  5  1  1
  4  6  1  0
  6  7  2  0
  8  6  1  0
  8  9  1  0
  9 13  1  0
  9 10  1  1
 10 11  1  0
 11 12  2  0
 11 15  1  0
 13 14  2  0
 16 17  1  0
 17 27  2  0
 18 17  1  0
 18 19  2  0
 19 20  1  0
 20 26  2  0
 20 21  1  0
 22 21  1  6
 22 24  1  0
 23 13  1  0
 23 22  1  0
 24 28  1  0
 25 24  2  0
 27 26  1  0
M  END
$$$$
