TDY.pdb
     RDKit          3D

 28 28  0  0  1  0  0  0  0  0999 V2000
   22.6973  -13.9502  -15.6122 C   0  0  0  0  0  0  0  0  0  0  0  0
   23.3192  -14.2961  -16.9402 C   0  0  1  0  0  0  0  0  0  0  0  0
   23.6022  -15.6604  -16.9322 O   0  0  0  0  0  0  0  0  0  0  0  0
   22.3332  -13.9822  -18.0499 C   0  0  2  0  0  0  0  0  0  0  0  0
   22.8148  -14.4347  -19.3331 N   0  0  0  0  0  0  0  0  0  0  0  0
   22.0743  -12.5248  -18.1432 C   0  0  0  0  0  0  0  0  0  0  0  0
   22.9997  -11.7526  -18.4904 O   0  0  0  0  0  0  0  0  0  0  0  0
   20.8182  -11.9257  -17.8594 N   0  0  0  0  0  0  0  0  0  0  0  0
   20.5625  -10.5102  -18.0105 C   0  0  1  0  0  0  0  0  0  0  0  0
   19.0672  -10.3759  -18.3244 C   0  0  0  0  0  0  0  0  0  0  0  0
   18.7590  -10.7734  -19.7133 C   0  0  0  0  0  0  0  0  0  0  0  0
   19.5540  -10.4777  -20.6502 O   0  0  0  0  0  0  0  0  0  0  0  0
   20.7848   -9.8502  -16.6890 C   0  0  0  0  0  0  0  0  0  0  0  0
   20.3032  -10.3493  -15.6226 O   0  0  0  0  0  0  0  0  0  0  0  0
   17.5830  -11.4810  -20.0002 O   0  0  0  0  0  0  0  0  0  0  0  0
   26.9664  -11.7491  -16.0257 O   0  0  0  0  0  0  0  0  0  0  0  0
   26.0510  -10.7437  -15.7871 C   0  0  0  0  0  0  0  0  0  0  0  0
   25.9584   -9.7113  -16.6732 C   0  0  0  0  0  0  0  0  0  0  0  0
   25.0314   -8.7241  -16.4020 C   0  0  0  0  0  0  0  0  0  0  0  0
   24.2229   -8.7567  -15.2918 C   0  0  0  0  0  0  0  0  0  0  0  0
   23.2530   -7.6729  -15.0796 C   0  0  0  0  0  0  0  0  0  0  0  0
   21.8145   -8.0637  -15.2454 C   0  0  2  0  0  0  0  0  0  0  0  0
   21.5263   -8.6561  -16.5289 N   0  0  0  0  0  0  0  0  0  0  0  0
   20.9536   -6.8999  -15.0240 C   0  0  0  0  0  0  0  0  0  0  0  0
   20.3098   -6.4053  -15.9886 O   0  0  0  0  0  0  0  0  0  0  0  0
   24.3576   -9.8246  -14.4270 C   0  0  0  0  0  0  0  0  0  0  0  0
   25.2675  -10.8240  -14.6634 C   0  0  0  0  0  0  0  0  0  0  0  0
   20.8155   -6.3117  -13.7723 O   0  0  0  0  0  0  0  0  0  0  0  0
  2  1  1  1
  3  2  1  0
  4  2  1  0
  4  5  1  6
  4  6  1  0
  6  7  2  0
  8  6  1  0
  8  9  1  0
  9 13  1  0
  9 10  1  1
 10 11  1  0
 11 12  2  0
 11 15  1  0
 13 14  2  0
 16 17  1  0
 17 27  2  0
 18 17  1  0
 18 19  2  0
 19 20  1  0
 20 26  2  0
 20 21  1  0
 22 21  1  6
 22 24  1  0
 23 13  1  0
 23 22  1  0
 24 28  1  0
 25 24  2  0
 27 26  1  0
M  END
$$$$
