TDY.pdb
     RDKit          3D

 28 28  0  0  1  0  0  0  0  0999 V2000
   30.1868  -38.8859    0.8508 C   0  0  0  0  0  0  0  0  0  0  0  0
   30.2391  -39.4732   -0.5357 C   0  0  1  0  0  0  0  0  0  0  0  0
   30.2802  -40.8599   -0.4064 O   0  0  0  0  0  0  0  0  0  0  0  0
   28.9923  -39.0648   -1.2980 C   0  0  2  0  0  0  0  0  0  0  0  0
   28.8878  -39.7604   -2.5583 N   0  0  0  0  0  0  0  0  0  0  0  0
   28.9837  -37.6077   -1.5742 C   0  0  0  0  0  0  0  0  0  0  0  0
   29.8931  -37.1054   -2.2772 O   0  0  0  0  0  0  0  0  0  0  0  0
   27.9915  -36.7166   -1.0857 N   0  0  0  0  0  0  0  0  0  0  0  0
   27.9775  -35.3023   -1.3879 C   0  0  1  0  0  0  0  0  0  0  0  0
   27.7039  -35.1882   -2.8927 C   0  0  0  0  0  0  0  0  0  0  0  0
   27.7030  -33.7824   -3.3465 C   0  0  0  0  0  0  0  0  0  0  0  0
   27.9231  -32.8490   -2.5235 O   0  0  0  0  0  0  0  0  0  0  0  0
   26.8089  -34.6858   -0.6910 C   0  0  0  0  0  0  0  0  0  0  0  0
   25.6523  -35.2090   -0.7719 O   0  0  0  0  0  0  0  0  0  0  0  0
   27.4580  -33.4757   -4.6925 O   0  0  0  0  0  0  0  0  0  0  0  0
   23.5660  -28.3962   -3.2522 O   0  0  0  0  0  0  0  0  0  0  0  0
   23.8040  -29.5181   -2.4837 C   0  0  0  0  0  0  0  0  0  0  0  0
   23.7342  -29.4151   -1.1258 C   0  0  0  0  0  0  0  0  0  0  0  0
   23.9780  -30.5581   -0.3898 C   0  0  0  0  0  0  0  0  0  0  0  0
   24.2805  -31.7626   -0.9769 C   0  0  0  0  0  0  0  0  0  0  0  0
   24.5161  -32.9364   -0.1242 C   0  0  0  0  0  0  0  0  0  0  0  0
   25.7602  -32.8775    0.7113 C   0  0  2  0  0  0  0  0  0  0  0  0
   26.8983  -33.5088    0.0888 N   0  0  0  0  0  0  0  0  0  0  0  0
   25.5079  -33.4771    2.0233 C   0  0  0  0  0  0  0  0  0  0  0  0
   25.3218  -34.7205    2.1177 O   0  0  0  0  0  0  0  0  0  0  0  0
   24.3386  -31.8116   -2.3557 C   0  0  0  0  0  0  0  0  0  0  0  0
   24.1023  -30.6968   -3.1199 C   0  0  0  0  0  0  0  0  0  0  0  0
   25.4666  -32.7171    3.1863 O   0  0  0  0  0  0  0  0  0  0  0  0
  2  1  1  1
  3  2  1  0
  4  2  1  0
  4  5  1  6
  4  6  1  0
  6  7  2  0
  8  6  1  0
  8  9  1  0
  9 13  1  0
  9 10  1  6
 10 11  1  0
 11 12  2  0
 11 15  1  0
 13 14  2  0
 16 17  1  0
 17 27  2  0
 18 17  1  0
 18 19  2  0
 19 20  1  0
 20 26  2  0
 20 21  1  0
 22 21  1  6
 22 24  1  0
 23 13  1  0
 23 22  1  0
 24 28  1  0
 25 24  2  0
 27 26  1  0
M  END
$$$$
