TDY.pdb
     RDKit          3D

 28 28  0  0  1  0  0  0  0  0999 V2000
   20.7781  -11.1198  -16.7876 C   0  0  0  0  0  0  0  0  0  0  0  0
   21.9600  -11.5175  -15.9420 C   0  0  1  0  0  0  0  0  0  0  0  0
   21.9005  -12.8968  -15.7540 O   0  0  0  0  0  0  0  0  0  0  0  0
   23.2401  -11.1527  -16.6704 C   0  0  2  0  0  0  0  0  0  0  0  0
   24.4023  -11.6919  -16.0058 N   0  0  0  0  0  0  0  0  0  0  0  0
   23.4048   -9.6818  -16.7651 C   0  0  0  0  0  0  0  0  0  0  0  0
   23.9758   -9.0617  -15.8363 O   0  0  0  0  0  0  0  0  0  0  0  0
   22.9492   -8.9048  -17.8632 N   0  0  0  0  0  0  0  0  0  0  0  0
   23.1544   -7.4766  -17.9635 C   0  0  1  0  0  0  0  0  0  0  0  0
   22.7768   -7.0890  -19.3986 C   0  0  0  0  0  0  0  0  0  0  0  0
   22.9898   -5.6497  -19.6536 C   0  0  0  0  0  0  0  0  0  0  0  0
   23.8319   -5.0011  -18.9700 O   0  0  0  0  0  0  0  0  0  0  0  0
   22.1742   -6.7981  -17.0633 C   0  0  0  0  0  0  0  0  0  0  0  0
   20.9246   -6.9973  -17.1933 O   0  0  0  0  0  0  0  0  0  0  0  0
   22.2592   -4.9950  -20.6553 O   0  0  0  0  0  0  0  0  0  0  0  0
   18.5833  -10.3714  -12.9480 O   0  0  0  0  0  0  0  0  0  0  0  0
   19.3376   -9.2324  -13.1469 C   0  0  0  0  0  0  0  0  0  0  0  0
   18.9264   -8.3220  -14.0752 C   0  0  0  0  0  0  0  0  0  0  0  0
   19.7059   -7.1949  -14.2466 C   0  0  0  0  0  0  0  0  0  0  0  0
   20.8535   -6.9752  -13.5242 C   0  0  0  0  0  0  0  0  0  0  0  0
   21.6226   -5.7446  -13.7575 C   0  0  0  0  0  0  0  0  0  0  0  0
   21.6048   -5.2403  -15.1698 C   0  0  2  0  0  0  0  0  0  0  0  0
   22.5511   -5.9097  -16.0288 N   0  0  0  0  0  0  0  0  0  0  0  0
   21.8453   -3.7959  -15.1860 C   0  0  0  0  0  0  0  0  0  0  0  0
   21.0164   -3.0174  -14.6415 O   0  0  0  0  0  0  0  0  0  0  0  0
   21.2246   -7.9290  -12.5972 C   0  0  0  0  0  0  0  0  0  0  0  0
   20.4755   -9.0613  -12.3992 C   0  0  0  0  0  0  0  0  0  0  0  0
   22.9699   -3.2418  -15.7862 O   0  0  0  0  0  0  0  0  0  0  0  0
  2  1  1  6
  3  2  1  0
  4  2  1  0
  4  5  1  1
  4  6  1  0
  6  7  2  0
  8  6  1  0
  8  9  1  0
  9 13  1  0
  9 10  1  6
 10 11  1  0
 11 12  2  0
 11 15  1  0
 13 14  2  0
 16 17  1  0
 17 27  2  0
 18 17  1  0
 18 19  2  0
 19 20  1  0
 20 26  2  0
 20 21  1  0
 22 21  1  1
 22 24  1  0
 23 13  1  0
 23 22  1  0
 24 28  1  0
 25 24  2  0
 27 26  1  0
M  END
$$$$
