TDY.pdb
     RDKit          3D

 28 28  0  0  1  0  0  0  0  0999 V2000
   18.0440   -9.5110  -19.1828 C   0  0  0  0  0  0  0  0  0  0  0  0
   19.0950  -10.5756  -19.3615 C   0  0  1  0  0  0  0  0  0  0  0  0
   18.5027  -11.6474  -20.0261 O   0  0  0  0  0  0  0  0  0  0  0  0
   20.2328  -10.0184  -20.1966 C   0  0  2  0  0  0  0  0  0  0  0  0
   21.2325  -11.0227  -20.4710 N   0  0  0  0  0  0  0  0  0  0  0  0
   20.8968   -8.8828  -19.5118 C   0  0  0  0  0  0  0  0  0  0  0  0
   21.9465   -9.0839  -18.8552 O   0  0  0  0  0  0  0  0  0  0  0  0
   20.4150   -7.5472  -19.5480 N   0  0  0  0  0  0  0  0  0  0  0  0
   21.0822   -6.4453  -18.8905 C   0  0  1  0  0  0  0  0  0  0  0  0
   20.6526   -5.1767  -19.6377 C   0  0  0  0  0  0  0  0  0  0  0  0
   21.2662   -3.9636  -19.0598 C   0  0  0  0  0  0  0  0  0  0  0  0
   22.4529   -3.9966  -18.6264 O   0  0  0  0  0  0  0  0  0  0  0  0
   20.5409   -6.3305  -17.5029 C   0  0  0  0  0  0  0  0  0  0  0  0
   19.3087   -6.5393  -17.2654 O   0  0  0  0  0  0  0  0  0  0  0  0
   20.5358   -2.7689  -18.9887 O   0  0  0  0  0  0  0  0  0  0  0  0
   19.2436   -6.7810   -8.9324 O   0  0  0  0  0  0  0  0  0  0  0  0
   19.8176   -6.7495  -10.1875 C   0  0  0  0  0  0  0  0  0  0  0  0
   19.6649   -7.8259  -11.0106 C   0  0  0  0  0  0  0  0  0  0  0  0
   20.2528   -7.7585  -12.2585 C   0  0  0  0  0  0  0  0  0  0  0  0
   20.9676   -6.6631  -12.6786 C   0  0  0  0  0  0  0  0  0  0  0  0
   21.5536   -6.6638  -14.0265 C   0  0  0  0  0  0  0  0  0  0  0  0
   20.8083   -5.8545  -15.0457 C   0  0  2  0  0  0  0  0  0  0  0  0
   21.3346   -5.9915  -16.3820 N   0  0  0  0  0  0  0  0  0  0  0  0
   20.7983   -4.4442  -14.6514 C   0  0  0  0  0  0  0  0  0  0  0  0
   19.7732   -3.9545  -14.1048 O   0  0  0  0  0  0  0  0  0  0  0  0
   21.0917   -5.6004  -11.8057 C   0  0  0  0  0  0  0  0  0  0  0  0
   20.5216   -5.6314  -10.5581 C   0  0  0  0  0  0  0  0  0  0  0  0
   21.8925   -3.6124  -14.8583 O   0  0  0  0  0  0  0  0  0  0  0  0
  2  1  1  6
  3  2  1  0
  4  2  1  0
  4  5  1  1
  4  6  1  0
  6  7  2  0
  8  6  1  0
  8  9  1  0
  9 13  1  0
  9 10  1  6
 10 11  1  0
 11 12  2  0
 11 15  1  0
 13 14  2  0
 16 17  1  0
 17 27  2  0
 18 17  1  0
 18 19  2  0
 19 20  1  0
 20 26  2  0
 20 21  1  0
 22 21  1  1
 22 24  1  0
 23 13  1  0
 23 22  1  0
 24 28  1  0
 25 24  2  0
 27 26  1  0
M  END
$$$$
