CKE.pdb
     RDKit          3D

 25 24  0  0  1  0  0  0  0  0999 V2000
   12.9592  -18.6623   17.1004 N   0  0  0  0  0  0  0  0  0  0  0  0
   13.0819  -19.8468   17.9080 C   0  0  1  0  0  0  0  0  0  0  0  0
   14.5078  -20.3602   17.9127 C   0  0  0  0  0  0  0  0  0  0  0  0
   15.1469  -20.5354   16.2428 S   0  0  0  0  0  0  0  0  0  0  0  0
   12.5743  -19.6344   19.2859 C   0  0  0  0  0  0  0  0  0  0  0  0
   12.4903  -18.4839   19.7809 O   0  0  0  0  0  0  0  0  0  0  0  0
   12.1685  -20.7149   20.0884 N   0  0  0  0  0  0  0  0  0  0  0  0
   11.5425  -20.5690   21.3979 C   0  0  1  0  0  0  0  0  0  0  0  0
   10.4640  -21.5450   21.6252 C   0  0  0  0  0  0  0  0  0  0  0  0
    9.8487  -21.3859   22.9810 C   0  0  0  0  0  0  0  0  0  0  0  0
    8.7274  -22.4103   23.1972 C   0  0  0  0  0  0  0  0  0  0  0  0
    8.1185  -22.0791   24.5459 C   0  0  0  0  0  0  0  0  0  0  0  0
    7.0175  -22.9627   24.8711 N   0  0  0  0  0  0  0  0  0  0  0  0
   12.6653  -20.8092   22.3725 C   0  0  0  0  0  0  0  0  0  0  0  0
   13.3925  -21.8376   22.3324 O   0  0  0  0  0  0  0  0  0  0  0  0
   12.9640  -19.8776   23.3976 N   0  0  0  0  0  0  0  0  0  0  0  0
   14.1273  -20.1010   24.2602 C   0  0  1  0  0  0  0  0  0  0  0  0
   15.0542  -18.9191   24.1913 C   0  0  0  0  0  0  0  0  0  0  0  0
   16.0474  -19.1107   23.0821 C   0  0  0  0  0  0  0  0  0  0  0  0
   16.6740  -17.7891   22.7393 C   0  0  0  0  0  0  0  0  0  0  0  0
   16.9243  -17.5253   21.5455 O   0  0  0  0  0  0  0  0  0  0  0  0
   13.6050  -20.3601   25.6046 C   0  0  0  0  0  0  0  0  0  0  0  0
   12.3816  -20.0862   25.8443 O   0  0  0  0  0  0  0  0  0  0  0  0
   16.9865  -16.8469   23.7024 O   0  0  0  0  0  0  0  0  0  0  0  0
   14.3244  -20.8897   26.6726 O   0  0  0  0  0  0  0  0  0  0  0  0
  2  3  1  0
  2  1  1  6
  3  4  1  0
  5  2  1  0
  5  6  2  0
  7  5  1  0
  8 14  1  0
  8  7  1  0
  8  9  1  1
 10  9  1  0
 10 11  1  0
 12 13  1  0
 12 11  1  0
 14 15  2  0
 16 14  1  0
 16 17  1  0
 17 22  1  0
 17 18  1  1
 19 20  1  0
 19 18  1  0
 20 21  2  0
 22 23  2  0
 22 25  1  0
 24 20  1  0
M  END
$$$$
