CKE.pdb
     RDKit          3D

 25 24  0  0  1  0  0  0  0  0999 V2000
    9.1186  -16.4740   18.7100 N   0  0  0  0  0  0  0  0  0  0  0  0
    8.0570  -16.3085   19.6670 C   0  0  1  0  0  0  0  0  0  0  0  0
    7.3174  -17.6116   19.8943 C   0  0  0  0  0  0  0  0  0  0  0  0
    8.4414  -18.9280   20.3752 S   0  0  0  0  0  0  0  0  0  0  0  0
    8.5450  -15.7288   20.9427 C   0  0  0  0  0  0  0  0  0  0  0  0
    9.7683  -15.7030   21.2227 O   0  0  0  0  0  0  0  0  0  0  0  0
    7.6542  -15.1868   21.8855 N   0  0  0  0  0  0  0  0  0  0  0  0
    8.0602  -14.6636   23.1853 C   0  0  1  0  0  0  0  0  0  0  0  0
    6.9686  -13.9658   23.8843 C   0  0  0  0  0  0  0  0  0  0  0  0
    7.4342  -13.3552   25.1699 C   0  0  0  0  0  0  0  0  0  0  0  0
    6.2912  -12.6044   25.8650 C   0  0  0  0  0  0  0  0  0  0  0  0
    6.8875  -12.0249   27.1331 C   0  0  0  0  0  0  0  0  0  0  0  0
    5.8948  -11.3282   27.9255 N   0  0  0  0  0  0  0  0  0  0  0  0
    8.4689  -15.8864   23.9640 C   0  0  0  0  0  0  0  0  0  0  0  0
    8.1104  -17.0502   23.6400 O   0  0  0  0  0  0  0  0  0  0  0  0
    9.2881  -15.7874   25.1159 N   0  0  0  0  0  0  0  0  0  0  0  0
   10.1866  -16.8925   25.4604 C   0  0  1  0  0  0  0  0  0  0  0  0
   11.3683  -16.9046   24.5307 C   0  0  0  0  0  0  0  0  0  0  0  0
   12.3612  -17.9381   24.9773 C   0  0  0  0  0  0  0  0  0  0  0  0
   13.5183  -17.9653   24.0196 C   0  0  0  0  0  0  0  0  0  0  0  0
   14.6777  -17.8316   24.4617 O   0  0  0  0  0  0  0  0  0  0  0  0
   10.5491  -16.7108   26.8685 C   0  0  0  0  0  0  0  0  0  0  0  0
   10.7751  -17.7485   27.5764 O   0  0  0  0  0  0  0  0  0  0  0  0
   13.3471  -18.1340   22.6576 O   0  0  0  0  0  0  0  0  0  0  0  0
   10.6776  -15.4915   27.5285 O   0  0  0  0  0  0  0  0  0  0  0  0
  2  3  1  0
  2  1  1  6
  3  4  1  0
  5  2  1  0
  5  6  2  0
  7  5  1  0
  8 14  1  0
  8  7  1  0
  8  9  1  1
 10  9  1  0
 10 11  1  0
 12 13  1  0
 12 11  1  0
 14 15  2  0
 16 14  1  0
 16 17  1  0
 17 22  1  0
 17 18  1  6
 19 20  1  0
 19 18  1  0
 20 21  2  0
 22 23  2  0
 22 25  1  0
 24 20  1  0
M  END
$$$$
