CKE.pdb
     RDKit          3D

 25 24  0  0  1  0  0  0  0  0999 V2000
    8.6125  -13.4457   18.5569 N   0  0  0  0  0  0  0  0  0  0  0  0
    7.5721  -13.7374   19.5070 C   0  0  1  0  0  0  0  0  0  0  0  0
    6.8728  -15.0390   19.1699 C   0  0  0  0  0  0  0  0  0  0  0  0
    7.9311  -16.4544   19.4930 S   0  0  0  0  0  0  0  0  0  0  0  0
    8.0776  -13.7354   20.9019 C   0  0  0  0  0  0  0  0  0  0  0  0
    9.2980  -13.8852   21.1546 O   0  0  0  0  0  0  0  0  0  0  0  0
    7.2074  -13.5655   21.9929 N   0  0  0  0  0  0  0  0  0  0  0  0
    7.6447  -13.4991   23.3830 C   0  0  1  0  0  0  0  0  0  0  0  0
    6.6170  -12.9407   24.2769 C   0  0  0  0  0  0  0  0  0  0  0  0
    7.0860  -12.8904   25.6981 C   0  0  0  0  0  0  0  0  0  0  0  0
    6.0125  -12.2796   26.6078 C   0  0  0  0  0  0  0  0  0  0  0  0
    6.5973  -12.2955   28.0068 C   0  0  0  0  0  0  0  0  0  0  0  0
    5.6895  -11.7174   28.9766 N   0  0  0  0  0  0  0  0  0  0  0  0
    7.9210  -14.9330   23.7518 C   0  0  0  0  0  0  0  0  0  0  0  0
    7.1399  -15.8752   23.4513 O   0  0  0  0  0  0  0  0  0  0  0  0
    9.0893  -15.2991   24.4652 N   0  0  0  0  0  0  0  0  0  0  0  0
    9.3621  -16.7148   24.7269 C   0  0  1  0  0  0  0  0  0  0  0  0
   10.4905  -17.1916   23.8550 C   0  0  0  0  0  0  0  0  0  0  0  0
   11.7118  -16.3515   24.0923 C   0  0  0  0  0  0  0  0  0  0  0  0
   12.8392  -16.8573   23.2380 C   0  0  0  0  0  0  0  0  0  0  0  0
   12.7629  -18.0006   22.7435 O   0  0  0  0  0  0  0  0  0  0  0  0
    9.6404  -16.8270   26.1611 C   0  0  0  0  0  0  0  0  0  0  0  0
    9.6469  -15.7614   26.8639 O   0  0  0  0  0  0  0  0  0  0  0  0
   13.9664  -16.0996   22.9766 O   0  0  0  0  0  0  0  0  0  0  0  0
    9.9025  -18.0066   26.8529 O   0  0  0  0  0  0  0  0  0  0  0  0
  2  3  1  0
  2  1  1  6
  3  4  1  0
  5  2  1  0
  5  6  2  0
  7  5  1  0
  8 14  1  0
  8  7  1  0
  8  9  1  1
 10  9  1  0
 10 11  1  0
 12 13  1  0
 12 11  1  0
 14 15  2  0
 16 14  1  0
 16 17  1  0
 17 22  1  0
 17 18  1  6
 19 20  1  0
 19 18  1  0
 20 21  2  0
 22 23  2  0
 22 25  1  0
 24 20  1  0
M  END
$$$$
