CKE.pdb
     RDKit          3D

 25 24  0  0  1  0  0  0  0  0999 V2000
    8.8195  -15.5543   18.7579 N   0  0  0  0  0  0  0  0  0  0  0  0
    7.7463  -15.4216   19.7072 C   0  0  1  0  0  0  0  0  0  0  0  0
    6.8580  -16.6494   19.7037 C   0  0  0  0  0  0  0  0  0  0  0  0
    7.6464  -18.0312   20.5385 S   0  0  0  0  0  0  0  0  0  0  0  0
    8.2455  -15.1136   21.0701 C   0  0  0  0  0  0  0  0  0  0  0  0
    9.4554  -15.2596   21.3709 O   0  0  0  0  0  0  0  0  0  0  0  0
    7.3809  -14.6466   22.0753 N   0  0  0  0  0  0  0  0  0  0  0  0
    7.8277  -14.1717   23.3802 C   0  0  1  0  0  0  0  0  0  0  0  0
    6.7472  -13.5429   24.1577 C   0  0  0  0  0  0  0  0  0  0  0  0
    7.2399  -13.0245   25.4733 C   0  0  0  0  0  0  0  0  0  0  0  0
    6.1180  -12.3057   26.2335 C   0  0  0  0  0  0  0  0  0  0  0  0
    6.7308  -11.8518   27.5442 C   0  0  0  0  0  0  0  0  0  0  0  0
    5.7868  -11.1042   28.3496 N   0  0  0  0  0  0  0  0  0  0  0  0
    8.3071  -15.4155   24.0813 C   0  0  0  0  0  0  0  0  0  0  0  0
    7.6343  -16.4806   24.1128 O   0  0  0  0  0  0  0  0  0  0  0  0
    9.5559  -15.4504   24.7500 N   0  0  0  0  0  0  0  0  0  0  0  0
   10.1152  -16.7383   25.1691 C   0  0  1  0  0  0  0  0  0  0  0  0
   11.4675  -16.9406   24.5437 C   0  0  0  0  0  0  0  0  0  0  0  0
   12.0701  -18.2264   25.0306 C   0  0  0  0  0  0  0  0  0  0  0  0
   13.4306  -18.4033   24.4186 C   0  0  0  0  0  0  0  0  0  0  0  0
   14.2746  -19.1112   25.0051 O   0  0  0  0  0  0  0  0  0  0  0  0
   10.1419  -16.7236   26.6341 C   0  0  0  0  0  0  0  0  0  0  0  0
   10.4283  -17.8058   27.2474 O   0  0  0  0  0  0  0  0  0  0  0  0
   13.7864  -17.8078   23.2221 O   0  0  0  0  0  0  0  0  0  0  0  0
    9.8828  -15.6219   27.4451 O   0  0  0  0  0  0  0  0  0  0  0  0
  2  3  1  0
  2  1  1  6
  3  4  1  0
  5  2  1  0
  5  6  2  0
  7  5  1  0
  8 14  1  0
  8  7  1  0
  8  9  1  1
 10  9  1  0
 10 11  1  0
 12 13  1  0
 12 11  1  0
 14 15  2  0
 16 14  1  0
 16 17  1  0
 17 22  1  0
 17 18  1  6
 19 20  1  0
 19 18  1  0
 20 21  2  0
 22 23  2  0
 22 25  1  0
 24 20  1  0
M  END
$$$$
