CKE.pdb
     RDKit          3D

 25 24  0  0  1  0  0  0  0  0999 V2000
   15.1750  -14.0346   17.0182 N   0  0  0  0  0  0  0  0  0  0  0  0
   14.0744  -14.9242   17.2784 C   0  0  1  0  0  0  0  0  0  0  0  0
   14.4913  -16.3721   17.1165 C   0  0  0  0  0  0  0  0  0  0  0  0
   15.6342  -16.8736   18.4088 S   0  0  0  0  0  0  0  0  0  0  0  0
   13.4639  -14.6779   18.6081 C   0  0  0  0  0  0  0  0  0  0  0  0
   14.1146  -14.1377   19.5356 O   0  0  0  0  0  0  0  0  0  0  0  0
   12.1330  -15.0411   18.8783 N   0  0  0  0  0  0  0  0  0  0  0  0
   11.4449  -14.7472   20.1305 C   0  0  1  0  0  0  0  0  0  0  0  0
    9.9795  -14.7555   19.9903 C   0  0  0  0  0  0  0  0  0  0  0  0
    9.4910  -13.5799   19.2020 C   0  0  0  0  0  0  0  0  0  0  0  0
    7.9780  -13.6698   18.9653 C   0  0  0  0  0  0  0  0  0  0  0  0
    7.6265  -12.4895   18.0806 C   0  0  0  0  0  0  0  0  0  0  0  0
    6.2239  -12.4871   17.7180 N   0  0  0  0  0  0  0  0  0  0  0  0
   11.8778  -15.8523   21.0577 C   0  0  0  0  0  0  0  0  0  0  0  0
   11.8559  -17.0674   20.7244 O   0  0  0  0  0  0  0  0  0  0  0  0
   12.3375  -15.5769   22.3695 N   0  0  0  0  0  0  0  0  0  0  0  0
   12.7856  -16.6794   23.2243 C   0  0  1  0  0  0  0  0  0  0  0  0
   14.1373  -16.3656   23.8033 C   0  0  0  0  0  0  0  0  0  0  0  0
   15.1434  -16.2082   22.7003 C   0  0  0  0  0  0  0  0  0  0  0  0
   16.4851  -15.8808   23.2914 C   0  0  0  0  0  0  0  0  0  0  0  0
   17.0020  -14.7707   23.0504 O   0  0  0  0  0  0  0  0  0  0  0  0
   11.7436  -16.8717   24.2362 C   0  0  0  0  0  0  0  0  0  0  0  0
   10.7754  -16.0409   24.2768 O   0  0  0  0  0  0  0  0  0  0  0  0
   17.1743  -16.7680   24.0980 O   0  0  0  0  0  0  0  0  0  0  0  0
   11.6995  -17.8948   25.1797 O   0  0  0  0  0  0  0  0  0  0  0  0
  2  3  1  0
  2  1  1  1
  3  4  1  0
  5  2  1  0
  5  6  2  0
  7  5  1  0
  8 14  1  0
  8  7  1  0
  8  9  1  6
 10  9  1  0
 10 11  1  0
 12 13  1  0
 12 11  1  0
 14 15  2  0
 16 14  1  0
 16 17  1  0
 17 22  1  0
 17 18  1  1
 19 20  1  0
 19 18  1  0
 20 21  2  0
 22 23  2  0
 22 25  1  0
 24 20  1  0
M  END
$$$$
