CKE.pdb
     RDKit          3D

 25 24  0  0  1  0  0  0  0  0999 V2000
    6.6644  -21.5713   22.1213 N   0  0  0  0  0  0  0  0  0  0  0  0
    7.1155  -20.4290   22.8710 C   0  0  1  0  0  0  0  0  0  0  0  0
    7.7303  -20.8491   24.1909 C   0  0  0  0  0  0  0  0  0  0  0  0
    9.2793  -21.7250   23.9432 S   0  0  0  0  0  0  0  0  0  0  0  0
    8.0424  -19.5790   22.0837 C   0  0  0  0  0  0  0  0  0  0  0  0
    8.7498  -20.0608   21.1656 O   0  0  0  0  0  0  0  0  0  0  0  0
    8.1625  -18.2016   22.3376 N   0  0  0  0  0  0  0  0  0  0  0  0
    9.0144  -17.3012   21.5685 C   0  0  1  0  0  0  0  0  0  0  0  0
    8.4964  -15.9237   21.5276 C   0  0  0  0  0  0  0  0  0  0  0  0
    8.9407  -15.2005   20.2940 C   0  0  0  0  0  0  0  0  0  0  0  0
    8.1057  -13.9329   20.0717 C   0  0  0  0  0  0  0  0  0  0  0  0
    8.6421  -13.3012   18.8018 C   0  0  0  0  0  0  0  0  0  0  0  0
    7.8349  -12.1755   18.3778 N   0  0  0  0  0  0  0  0  0  0  0  0
   10.3338  -17.3317   22.2942 C   0  0  0  0  0  0  0  0  0  0  0  0
   10.4189  -17.4522   23.5457 O   0  0  0  0  0  0  0  0  0  0  0  0
   11.5622  -17.2247   21.5960 N   0  0  0  0  0  0  0  0  0  0  0  0
   12.8188  -17.4963   22.2992 C   0  0  1  0  0  0  0  0  0  0  0  0
   13.6881  -18.4004   21.4699 C   0  0  0  0  0  0  0  0  0  0  0  0
   14.9861  -18.6556   22.1794 C   0  0  0  0  0  0  0  0  0  0  0  0
   15.8677  -19.5113   21.3150 C   0  0  0  0  0  0  0  0  0  0  0  0
   16.6834  -18.9629   20.5460 O   0  0  0  0  0  0  0  0  0  0  0  0
   13.4275  -16.1938   22.5820 C   0  0  0  0  0  0  0  0  0  0  0  0
   13.1305  -15.2078   21.8278 O   0  0  0  0  0  0  0  0  0  0  0  0
   15.8099  -20.8930   21.3387 O   0  0  0  0  0  0  0  0  0  0  0  0
   14.3169  -15.9147   23.6163 O   0  0  0  0  0  0  0  0  0  0  0  0
  2  3  1  0
  2  1  1  6
  3  4  1  0
  5  2  1  0
  5  6  2  0
  7  5  1  0
  8 14  1  0
  8  7  1  0
  8  9  1  1
 10  9  1  0
 10 11  1  0
 12 13  1  0
 12 11  1  0
 14 15  2  0
 16 14  1  0
 16 17  1  0
 17 22  1  0
 17 18  1  6
 19 20  1  0
 19 18  1  0
 20 21  2  0
 22 23  2  0
 22 25  1  0
 24 20  1  0
M  END
$$$$
