CKE.pdb
     RDKit          3D

 25 24  0  0  1  0  0  0  0  0999 V2000
    5.3396  -14.1039   26.7391 N   0  0  0  0  0  0  0  0  0  0  0  0
    6.4004  -13.4580   26.0126 C   0  0  1  0  0  0  0  0  0  0  0  0
    7.5434  -13.0811   26.9336 C   0  0  0  0  0  0  0  0  0  0  0  0
    7.1867  -11.5694   27.8364 S   0  0  0  0  0  0  0  0  0  0  0  0
    6.8696  -14.2783   24.8687 C   0  0  0  0  0  0  0  0  0  0  0  0
    6.9212  -15.5303   24.9406 O   0  0  0  0  0  0  0  0  0  0  0  0
    7.2739  -13.6826   23.6613 N   0  0  0  0  0  0  0  0  0  0  0  0
    7.7964  -14.4253   22.5197 C   0  0  1  0  0  0  0  0  0  0  0  0
    7.8434  -13.6187   21.2890 C   0  0  0  0  0  0  0  0  0  0  0  0
    8.3580  -14.4100   20.1265 C   0  0  0  0  0  0  0  0  0  0  0  0
    8.3234  -13.5770   18.8388 C   0  0  0  0  0  0  0  0  0  0  0  0
    8.8118  -14.4974   17.7371 C   0  0  0  0  0  0  0  0  0  0  0  0
    8.8263  -13.8349   16.4489 N   0  0  0  0  0  0  0  0  0  0  0  0
    9.1925  -14.8076   22.9359 C   0  0  0  0  0  0  0  0  0  0  0  0
    9.9842  -13.9963   23.4864 O   0  0  0  0  0  0  0  0  0  0  0  0
    9.6923  -16.1168   22.7259 N   0  0  0  0  0  0  0  0  0  0  0  0
   11.0871  -16.4194   23.0576 C   0  0  1  0  0  0  0  0  0  0  0  0
   11.1552  -17.6399   23.9332 C   0  0  0  0  0  0  0  0  0  0  0  0
   10.6367  -17.3166   25.3044 C   0  0  0  0  0  0  0  0  0  0  0  0
   10.7341  -18.5366   26.1754 C   0  0  0  0  0  0  0  0  0  0  0  0
   10.7162  -19.6662   25.6451 O   0  0  0  0  0  0  0  0  0  0  0  0
   11.7946  -16.5706   21.7834 C   0  0  0  0  0  0  0  0  0  0  0  0
   11.1166  -16.8671   20.7434 O   0  0  0  0  0  0  0  0  0  0  0  0
   10.8437  -18.4558   27.5518 O   0  0  0  0  0  0  0  0  0  0  0  0
   13.1645  -16.4176   21.5862 O   0  0  0  0  0  0  0  0  0  0  0  0
  2  3  1  0
  2  1  1  1
  3  4  1  0
  5  2  1  0
  5  6  2  0
  7  5  1  0
  8 14  1  0
  8  7  1  0
  8  9  1  6
 10  9  1  0
 10 11  1  0
 12 13  1  0
 12 11  1  0
 14 15  2  0
 16 14  1  0
 16 17  1  0
 17 22  1  0
 17 18  1  6
 19 20  1  0
 19 18  1  0
 20 21  2  0
 22 23  2  0
 22 25  1  0
 24 20  1  0
M  END
$$$$
