CKE.pdb
     RDKit          3D

 25 24  0  0  1  0  0  0  0  0999 V2000
    9.3258  -16.0233   18.7459 N   0  0  0  0  0  0  0  0  0  0  0  0
    8.3449  -16.1711   19.7881 C   0  0  1  0  0  0  0  0  0  0  0  0
    7.9439  -17.6224   19.9600 C   0  0  0  0  0  0  0  0  0  0  0  0
    9.3261  -18.6219   20.5243 S   0  0  0  0  0  0  0  0  0  0  0  0
    8.8012  -15.5761   21.0685 C   0  0  0  0  0  0  0  0  0  0  0  0
   10.0114  -15.3118   21.2712 O   0  0  0  0  0  0  0  0  0  0  0  0
    7.8940  -15.2863   22.1024 N   0  0  0  0  0  0  0  0  0  0  0  0
    8.2623  -14.6266   23.3503 C   0  0  1  0  0  0  0  0  0  0  0  0
    7.0986  -14.0930   24.0771 C   0  0  0  0  0  0  0  0  0  0  0  0
    7.5035  -13.4066   25.3448 C   0  0  0  0  0  0  0  0  0  0  0  0
    6.2801  -12.8365   26.0737 C   0  0  0  0  0  0  0  0  0  0  0  0
    6.8222  -12.1233   27.2972 C   0  0  0  0  0  0  0  0  0  0  0  0
    5.7680  -11.4887   28.0618 N   0  0  0  0  0  0  0  0  0  0  0  0
    8.9200  -15.7120   24.1614 C   0  0  0  0  0  0  0  0  0  0  0  0
    8.3716  -16.8256   24.3787 O   0  0  0  0  0  0  0  0  0  0  0  0
   10.2060  -15.5323   24.7286 N   0  0  0  0  0  0  0  0  0  0  0  0
   10.8275  -16.6313   25.4723 C   0  0  1  0  0  0  0  0  0  0  0  0
   12.3164  -16.6179   25.2627 C   0  0  0  0  0  0  0  0  0  0  0  0
   12.6342  -16.9077   23.8245 C   0  0  0  0  0  0  0  0  0  0  0  0
   14.1086  -16.7346   23.5944 C   0  0  0  0  0  0  0  0  0  0  0  0
   14.6841  -17.4626   22.7600 O   0  0  0  0  0  0  0  0  0  0  0  0
   10.4300  -16.4637   26.8726 C   0  0  0  0  0  0  0  0  0  0  0  0
   10.8271  -17.3274   27.7244 O   0  0  0  0  0  0  0  0  0  0  0  0
   14.8579  -15.7930   24.2762 O   0  0  0  0  0  0  0  0  0  0  0  0
    9.6460  -15.4317   27.3816 O   0  0  0  0  0  0  0  0  0  0  0  0
  2  3  1  0
  2  1  1  6
  3  4  1  0
  5  2  1  0
  5  6  2  0
  7  5  1  0
  8 14  1  0
  8  7  1  0
  8  9  1  1
 10  9  1  0
 10 11  1  0
 12 13  1  0
 12 11  1  0
 14 15  2  0
 16 14  1  0
 16 17  1  0
 17 22  1  0
 17 18  1  1
 19 20  1  0
 19 18  1  0
 20 21  2  0
 22 23  2  0
 22 25  1  0
 24 20  1  0
M  END
$$$$
