CKE.pdb
     RDKit          3D

 25 24  0  0  1  0  0  0  0  0999 V2000
   12.5414  -13.6714   18.9471 N   0  0  0  0  0  0  0  0  0  0  0  0
   12.5383  -15.1056   19.0627 C   0  0  1  0  0  0  0  0  0  0  0  0
   13.9319  -15.6722   18.8797 C   0  0  0  0  0  0  0  0  0  0  0  0
   14.5145  -15.4481   17.1951 S   0  0  0  0  0  0  0  0  0  0  0  0
   11.9286  -15.5585   20.3374 C   0  0  0  0  0  0  0  0  0  0  0  0
   12.1943  -14.9925   21.4258 O   0  0  0  0  0  0  0  0  0  0  0  0
   11.0303  -16.6392   20.3728 N   0  0  0  0  0  0  0  0  0  0  0  0
   10.3338  -17.0824   21.5755 C   0  0  1  0  0  0  0  0  0  0  0  0
    9.1639  -17.9251   21.2780 C   0  0  0  0  0  0  0  0  0  0  0  0
    8.6340  -18.5930   22.5090 C   0  0  0  0  0  0  0  0  0  0  0  0
    7.4873  -19.5509   22.1617 C   0  0  0  0  0  0  0  0  0  0  0  0
    6.9433  -20.0437   23.4886 C   0  0  0  0  0  0  0  0  0  0  0  0
    5.8480  -20.9748   23.3092 N   0  0  0  0  0  0  0  0  0  0  0  0
   11.3656  -17.8835   22.3253 C   0  0  0  0  0  0  0  0  0  0  0  0
   12.0237  -18.8154   21.7901 O   0  0  0  0  0  0  0  0  0  0  0  0
   11.6513  -17.6257   23.6891 N   0  0  0  0  0  0  0  0  0  0  0  0
   12.6710  -18.4224   24.3766 C   0  0  1  0  0  0  0  0  0  0  0  0
   14.0134  -17.7558   24.2559 C   0  0  0  0  0  0  0  0  0  0  0  0
   15.0534  -18.5637   24.9765 C   0  0  0  0  0  0  0  0  0  0  0  0
   16.3525  -17.8095   24.9869 C   0  0  0  0  0  0  0  0  0  0  0  0
   16.9990  -17.6959   23.9254 O   0  0  0  0  0  0  0  0  0  0  0  0
   12.2148  -18.5777   25.7604 C   0  0  0  0  0  0  0  0  0  0  0  0
   12.7184  -19.5158   26.4644 O   0  0  0  0  0  0  0  0  0  0  0  0
   16.8633  -17.2321   26.1352 O   0  0  0  0  0  0  0  0  0  0  0  0
   11.2664  -17.7855   26.4020 O   0  0  0  0  0  0  0  0  0  0  0  0
  2  3  1  0
  2  1  1  1
  3  4  1  0
  5  2  1  0
  5  6  2  0
  7  5  1  0
  8 14  1  0
  8  7  1  0
  8  9  1  6
 10  9  1  0
 10 11  1  0
 12 13  1  0
 12 11  1  0
 14 15  2  0
 16 14  1  0
 16 17  1  0
 17 22  1  0
 17 18  1  1
 19 20  1  0
 19 18  1  0
 20 21  2  0
 22 23  2  0
 22 25  1  0
 24 20  1  0
M  END
$$$$
