CKE.pdb
     RDKit          3D

 25 24  0  0  1  0  0  0  0  0999 V2000
    8.2393  -12.4421   18.6871 N   0  0  0  0  0  0  0  0  0  0  0  0
    8.3896  -13.8690   18.7954 C   0  0  1  0  0  0  0  0  0  0  0  0
    9.8512  -14.2686   18.7681 C   0  0  0  0  0  0  0  0  0  0  0  0
   10.8219  -13.2826   19.9141 S   0  0  0  0  0  0  0  0  0  0  0  0
    7.6985  -14.4109   19.9913 C   0  0  0  0  0  0  0  0  0  0  0  0
    7.4130  -13.6773   20.9690 O   0  0  0  0  0  0  0  0  0  0  0  0
    7.3378  -15.7671   20.0733 N   0  0  0  0  0  0  0  0  0  0  0  0
    6.5296  -16.3332   21.1477 C   0  0  1  0  0  0  0  0  0  0  0  0
    5.4563  -17.2101   20.6513 C   0  0  0  0  0  0  0  0  0  0  0  0
    4.7830  -17.9485   21.7666 C   0  0  0  0  0  0  0  0  0  0  0  0
    3.6318  -18.8118   21.2351 C   0  0  0  0  0  0  0  0  0  0  0  0
    2.8797  -19.2978   22.4589 C   0  0  0  0  0  0  0  0  0  0  0  0
    1.8109  -20.2102   22.1070 N   0  0  0  0  0  0  0  0  0  0  0  0
    7.5098  -17.1340   21.9641 C   0  0  0  0  0  0  0  0  0  0  0  0
    8.4954  -17.7291   21.4518 O   0  0  0  0  0  0  0  0  0  0  0  0
    7.3703  -17.2600   23.3686 N   0  0  0  0  0  0  0  0  0  0  0  0
    8.5657  -17.2612   24.2160 C   0  0  1  0  0  0  0  0  0  0  0  0
    9.3147  -15.9678   24.0520 C   0  0  0  0  0  0  0  0  0  0  0  0
   10.4468  -15.9029   25.0357 C   0  0  0  0  0  0  0  0  0  0  0  0
   11.6901  -16.4606   24.4033 C   0  0  0  0  0  0  0  0  0  0  0  0
   11.7116  -16.6549   23.1707 O   0  0  0  0  0  0  0  0  0  0  0  0
    8.1049  -17.5034   25.5857 C   0  0  0  0  0  0  0  0  0  0  0  0
    6.9525  -17.0712   25.9243 O   0  0  0  0  0  0  0  0  0  0  0  0
   12.8196  -16.7691   25.1394 O   0  0  0  0  0  0  0  0  0  0  0  0
    8.8122  -18.1753   26.5791 O   0  0  0  0  0  0  0  0  0  0  0  0
  2  3  1  0
  2  1  1  1
  3  4  1  0
  5  2  1  0
  5  6  2  0
  7  5  1  0
  8 14  1  0
  8  7  1  0
  8  9  1  6
 10  9  1  0
 10 11  1  0
 12 13  1  0
 12 11  1  0
 14 15  2  0
 16 14  1  0
 16 17  1  0
 17 22  1  0
 17 18  1  1
 19 20  1  0
 19 18  1  0
 20 21  2  0
 22 23  2  0
 22 25  1  0
 24 20  1  0
M  END
$$$$
