CKE.pdb
     RDKit          3D

 25 24  0  0  1  0  0  0  0  0999 V2000
    5.5258  -14.0556   26.7837 N   0  0  0  0  0  0  0  0  0  0  0  0
    6.3610  -13.3190   25.8725 C   0  0  1  0  0  0  0  0  0  0  0  0
    7.4818  -12.6120   26.6077 C   0  0  0  0  0  0  0  0  0  0  0  0
    6.8414  -11.4874   27.8538 S   0  0  0  0  0  0  0  0  0  0  0  0
    6.8817  -14.1769   24.7796 C   0  0  0  0  0  0  0  0  0  0  0  0
    6.8666  -15.4288   24.8684 O   0  0  0  0  0  0  0  0  0  0  0  0
    7.4117  -13.6183   23.6035 N   0  0  0  0  0  0  0  0  0  0  0  0
    7.8520  -14.4017   22.4544 C   0  0  1  0  0  0  0  0  0  0  0  0
    7.8880  -13.6161   21.2099 C   0  0  0  0  0  0  0  0  0  0  0  0
    8.3945  -14.4263   20.0569 C   0  0  0  0  0  0  0  0  0  0  0  0
    8.1355  -13.7074   18.7268 C   0  0  0  0  0  0  0  0  0  0  0  0
    8.6642  -14.6315   17.6470 C   0  0  0  0  0  0  0  0  0  0  0  0
    8.5962  -14.0210   16.3350 N   0  0  0  0  0  0  0  0  0  0  0  0
    9.2438  -14.8451   22.8214 C   0  0  0  0  0  0  0  0  0  0  0  0
   10.1574  -14.0333   23.1284 O   0  0  0  0  0  0  0  0  0  0  0  0
    9.6001  -16.2165   22.8399 N   0  0  0  0  0  0  0  0  0  0  0  0
   10.9927  -16.5976   23.0901 C   0  0  1  0  0  0  0  0  0  0  0  0
   11.0454  -17.9341   23.7772 C   0  0  0  0  0  0  0  0  0  0  0  0
   10.5763  -17.7993   25.1968 C   0  0  0  0  0  0  0  0  0  0  0  0
   10.7176  -19.1210   25.8967 C   0  0  0  0  0  0  0  0  0  0  0  0
   11.8255  -19.6955   25.8951 O   0  0  0  0  0  0  0  0  0  0  0  0
   11.6695  -16.5783   21.7906 C   0  0  0  0  0  0  0  0  0  0  0  0
   10.9642  -16.7195   20.7361 O   0  0  0  0  0  0  0  0  0  0  0  0
    9.6599  -19.7301   26.5473 O   0  0  0  0  0  0  0  0  0  0  0  0
   13.0367  -16.4153   21.5837 O   0  0  0  0  0  0  0  0  0  0  0  0
  2  3  1  0
  2  1  1  1
  3  4  1  0
  5  2  1  0
  5  6  2  0
  7  5  1  0
  8 14  1  0
  8  7  1  0
  8  9  1  6
 10  9  1  0
 10 11  1  0
 12 13  1  0
 12 11  1  0
 14 15  2  0
 16 14  1  0
 16 17  1  0
 17 22  1  0
 17 18  1  6
 19 20  1  0
 19 18  1  0
 20 21  2  0
 22 23  2  0
 22 25  1  0
 24 20  1  0
M  END
$$$$
