CKE.pdb
     RDKit          3D

 25 24  0  0  1  0  0  0  0  0999 V2000
    6.5416  -19.0265   25.5142 N   0  0  0  0  0  0  0  0  0  0  0  0
    6.5935  -17.6106   25.2635 C   0  0  1  0  0  0  0  0  0  0  0  0
    7.1298  -16.8614   26.4668 C   0  0  0  0  0  0  0  0  0  0  0  0
    8.5560  -17.6934   27.1748 S   0  0  0  0  0  0  0  0  0  0  0  0
    7.3629  -17.2920   24.0355 C   0  0  0  0  0  0  0  0  0  0  0  0
    8.1322  -18.1333   23.5102 O   0  0  0  0  0  0  0  0  0  0  0  0
    7.2584  -16.0351   23.4148 N   0  0  0  0  0  0  0  0  0  0  0  0
    8.0468  -15.6287   22.2567 C   0  0  1  0  0  0  0  0  0  0  0  0
    7.5369  -14.4015   21.6232 C   0  0  0  0  0  0  0  0  0  0  0  0
    8.4078  -13.9605   20.4876 C   0  0  0  0  0  0  0  0  0  0  0  0
    7.6245  -13.9507   19.1687 C   0  0  0  0  0  0  0  0  0  0  0  0
    8.6386  -13.6318   18.0873 C   0  0  0  0  0  0  0  0  0  0  0  0
    8.0058  -13.4182   16.8018 N   0  0  0  0  0  0  0  0  0  0  0  0
    9.4238  -15.3834   22.8154 C   0  0  0  0  0  0  0  0  0  0  0  0
    9.6175  -14.7988   23.9148 O   0  0  0  0  0  0  0  0  0  0  0  0
   10.5864  -15.8035   22.1227 N   0  0  0  0  0  0  0  0  0  0  0  0
   11.9036  -15.5966   22.7303 C   0  0  1  0  0  0  0  0  0  0  0  0
   12.0130  -16.3871   24.0046 C   0  0  0  0  0  0  0  0  0  0  0  0
   11.9098  -17.8550   23.7077 C   0  0  0  0  0  0  0  0  0  0  0  0
   12.1031  -18.6358   24.9764 C   0  0  0  0  0  0  0  0  0  0  0  0
   12.3103  -18.0222   26.0433 O   0  0  0  0  0  0  0  0  0  0  0  0
   12.8931  -15.9749   21.7179 C   0  0  0  0  0  0  0  0  0  0  0  0
   14.1280  -15.7732   21.9701 O   0  0  0  0  0  0  0  0  0  0  0  0
   12.0600  -20.0178   25.0081 O   0  0  0  0  0  0  0  0  0  0  0  0
   12.6169  -16.5481   20.4794 O   0  0  0  0  0  0  0  0  0  0  0  0
  2  3  1  0
  2  1  1  1
  3  4  1  0
  5  2  1  0
  5  6  2  0
  7  5  1  0
  8 14  1  0
  8  7  1  0
  8  9  1  1
 10  9  1  0
 10 11  1  0
 12 13  1  0
 12 11  1  0
 14 15  2  0
 16 14  1  0
 16 17  1  0
 17 22  1  0
 17 18  1  1
 19 20  1  0
 19 18  1  0
 20 21  2  0
 22 23  2  0
 22 25  1  0
 24 20  1  0
M  END
$$$$
