CKE.pdb
     RDKit          3D

 25 24  0  0  1  0  0  0  0  0999 V2000
    8.6999  -16.9180   18.0187 N   0  0  0  0  0  0  0  0  0  0  0  0
    7.7878  -16.8273   19.1279 C   0  0  1  0  0  0  0  0  0  0  0  0
    7.2088  -18.1848   19.4724 C   0  0  0  0  0  0  0  0  0  0  0  0
    8.4899  -19.3296   19.9977 S   0  0  0  0  0  0  0  0  0  0  0  0
    8.4136  -16.1854   20.3102 C   0  0  0  0  0  0  0  0  0  0  0  0
    9.6451  -15.9452   20.3476 O   0  0  0  0  0  0  0  0  0  0  0  0
    7.6495  -15.8225   21.4330 N   0  0  0  0  0  0  0  0  0  0  0  0
    8.1831  -15.1063   22.5864 C   0  0  1  0  0  0  0  0  0  0  0  0
    7.1309  -14.4838   23.4065 C   0  0  0  0  0  0  0  0  0  0  0  0
    7.7029  -13.7561   24.5836 C   0  0  0  0  0  0  0  0  0  0  0  0
    6.5897  -13.1376   25.4389 C   0  0  0  0  0  0  0  0  0  0  0  0
    7.2896  -12.4493   26.5947 C   0  0  0  0  0  0  0  0  0  0  0  0
    6.3481  -11.8052   27.4877 N   0  0  0  0  0  0  0  0  0  0  0  0
    8.8939  -16.1682   23.3837 C   0  0  0  0  0  0  0  0  0  0  0  0
    8.3725  -17.2852   23.6455 O   0  0  0  0  0  0  0  0  0  0  0  0
   10.2025  -15.9610   23.8862 N   0  0  0  0  0  0  0  0  0  0  0  0
   10.9144  -17.0702   24.5265 C   0  0  1  0  0  0  0  0  0  0  0  0
   12.3137  -17.1653   23.9847 C   0  0  0  0  0  0  0  0  0  0  0  0
   13.0781  -15.9169   24.3176 C   0  0  0  0  0  0  0  0  0  0  0  0
   14.3992  -15.9350   23.6027 C   0  0  0  0  0  0  0  0  0  0  0  0
   14.4160  -15.9725   22.3554 O   0  0  0  0  0  0  0  0  0  0  0  0
   10.8590  -16.8227   25.9697 C   0  0  0  0  0  0  0  0  0  0  0  0
   11.3532  -17.6985   26.7558 O   0  0  0  0  0  0  0  0  0  0  0  0
   15.6059  -15.9114   24.2781 O   0  0  0  0  0  0  0  0  0  0  0  0
   10.3108  -15.7008   26.5859 O   0  0  0  0  0  0  0  0  0  0  0  0
  2  3  1  0
  2  1  1  6
  3  4  1  0
  5  2  1  0
  5  6  2  0
  7  5  1  0
  8 14  1  0
  8  7  1  0
  8  9  1  1
 10  9  1  0
 10 11  1  0
 12 13  1  0
 12 11  1  0
 14 15  2  0
 16 14  1  0
 16 17  1  0
 17 22  1  0
 17 18  1  6
 19 20  1  0
 19 18  1  0
 20 21  2  0
 22 23  2  0
 22 25  1  0
 24 20  1  0
M  END
$$$$
