CKE.pdb
     RDKit          3D

 25 24  0  0  1  0  0  0  0  0999 V2000
    9.5360  -16.0635   18.8033 N   0  0  0  0  0  0  0  0  0  0  0  0
    8.6542  -16.4485   19.8732 C   0  0  1  0  0  0  0  0  0  0  0  0
    8.5748  -17.9565   20.0006 C   0  0  0  0  0  0  0  0  0  0  0  0
    7.5327  -18.4438   21.3806 S   0  0  0  0  0  0  0  0  0  0  0  0
    9.0308  -15.8117   21.1593 C   0  0  0  0  0  0  0  0  0  0  0  0
   10.2286  -15.5606   21.4378 O   0  0  0  0  0  0  0  0  0  0  0  0
    8.0587  -15.4658   22.1141 N   0  0  0  0  0  0  0  0  0  0  0  0
    8.3536  -14.7811   23.3679 C   0  0  1  0  0  0  0  0  0  0  0  0
    7.1591  -14.1784   23.9821 C   0  0  0  0  0  0  0  0  0  0  0  0
    7.4942  -13.4454   25.2441 C   0  0  0  0  0  0  0  0  0  0  0  0
    6.2309  -12.8645   25.8920 C   0  0  0  0  0  0  0  0  0  0  0  0
    6.6986  -12.1544   27.1475 C   0  0  0  0  0  0  0  0  0  0  0  0
    5.5922  -11.5780   27.8840 N   0  0  0  0  0  0  0  0  0  0  0  0
    8.8982  -15.8648   24.2610 C   0  0  0  0  0  0  0  0  0  0  0  0
    8.5414  -17.0695   24.1636 O   0  0  0  0  0  0  0  0  0  0  0  0
    9.8519  -15.5795   25.2694 N   0  0  0  0  0  0  0  0  0  0  0  0
   10.7272  -16.6479   25.7588 C   0  0  1  0  0  0  0  0  0  0  0  0
   12.1131  -16.4739   25.2023 C   0  0  0  0  0  0  0  0  0  0  0  0
   12.4663  -17.6444   24.3313 C   0  0  0  0  0  0  0  0  0  0  0  0
   13.8976  -17.5250   23.8910 C   0  0  0  0  0  0  0  0  0  0  0  0
   14.5831  -16.5666   24.3020 O   0  0  0  0  0  0  0  0  0  0  0  0
   10.6710  -16.5947   27.2221 C   0  0  0  0  0  0  0  0  0  0  0  0
   11.2670  -17.5070   27.8866 O   0  0  0  0  0  0  0  0  0  0  0  0
   14.4891  -18.4425   23.0417 O   0  0  0  0  0  0  0  0  0  0  0  0
   10.0197  -15.6251   27.9801 O   0  0  0  0  0  0  0  0  0  0  0  0
  2  3  1  0
  2  1  1  6
  3  4  1  0
  5  2  1  0
  5  6  2  0
  7  5  1  0
  8 14  1  0
  8  7  1  0
  8  9  1  1
 10  9  1  0
 10 11  1  0
 12 13  1  0
 12 11  1  0
 14 15  2  0
 16 14  1  0
 16 17  1  0
 17 22  1  0
 17 18  1  1
 19 20  1  0
 19 18  1  0
 20 21  2  0
 22 23  2  0
 22 25  1  0
 24 20  1  0
M  END
$$$$
