NQW.pdb
     RDKit          3D

 32 33  0  0  1  0  0  0  0  0999 V2000
   18.8338  -18.5456  -13.6929 N   0  0  0  0  0  0  0  0  0  0  0  0
   18.5607  -19.8974  -13.4023 C   0  0  0  0  0  0  0  0  0  0  0  0
   17.3888  -20.3078  -13.4286 O   0  0  0  0  0  0  0  0  0  0  0  0
   19.6633  -20.8085  -13.0711 C   0  0  0  0  0  0  0  0  0  0  0  0
   20.9446  -20.0155  -13.0404 C   0  0  2  0  0  0  0  0  0  0  0  0
   21.3409  -19.5978  -14.3701 N   0  0  0  0  0  0  0  0  0  0  0  0
   21.9920  -20.8344  -12.3992 C   0  0  0  0  0  0  0  0  0  0  0  0
   21.8725  -21.3636  -11.2738 O   0  0  0  0  0  0  0  0  0  0  0  0
   25.2762  -25.0295  -13.6438 N   0  0  0  0  0  0  0  0  0  0  0  0
   24.3824  -24.4809  -14.5951 C   0  0  0  0  0  0  0  0  0  0  0  0
   23.7135  -25.2339  -15.3318 O   0  0  0  0  0  0  0  0  0  0  0  0
   24.2539  -23.0176  -14.7058 C   0  0  0  0  0  0  0  0  0  0  0  0
   25.0703  -22.3435  -13.6686 C   0  0  0  0  0  0  0  0  0  0  0  0
   24.2847  -21.8109  -12.4803 C   0  0  2  0  0  0  0  0  0  0  0  0
   23.2024  -21.0299  -13.1036 N   0  0  0  0  0  0  0  0  0  0  0  0
   25.0851  -20.8808  -11.6697 C   0  0  0  0  0  0  0  0  0  0  0  0
   25.1710  -19.6839  -12.0219 O   0  0  0  0  0  0  0  0  0  0  0  0
   25.7545  -21.3039  -10.5090 N   0  0  0  0  0  0  0  0  0  0  0  0
   26.6405  -20.3619   -9.7685 C   0  0  1  0  0  0  0  0  0  0  0  0
   26.1959  -20.4840   -8.3505 C   0  0  0  0  0  0  0  0  0  0  0  0
   26.9743  -19.6505   -7.4213 C   0  0  0  0  0  0  0  0  0  0  0  0
   27.1991  -18.2734   -7.5081 C   0  0  0  0  0  0  0  0  0  0  0  0
   27.9848  -17.8874   -6.4955 N   0  0  0  0  0  0  0  0  0  0  0  0
   28.3094  -18.9265   -5.7194 C   0  0  0  0  0  0  0  0  0  0  0  0
   29.0623  -19.0718   -4.5657 C   0  0  0  0  0  0  0  0  0  0  0  0
   29.1810  -20.3164   -3.9926 C   0  0  0  0  0  0  0  0  0  0  0  0
   28.5730  -21.4194   -4.5338 C   0  0  0  0  0  0  0  0  0  0  0  0
   27.8291  -21.2573   -5.6810 C   0  0  0  0  0  0  0  0  0  0  0  0
   27.6807  -20.0376   -6.2910 C   0  0  0  0  0  0  0  0  0  0  0  0
   28.0098  -20.7139  -10.0941 C   0  0  0  0  0  0  0  0  0  0  0  0
   29.0006  -19.9311   -9.9498 O   0  0  0  0  0  0  0  0  0  0  0  0
   28.3346  -21.9698  -10.5946 O   0  0  0  0  0  0  0  0  0  0  0  0
  1  2  1  0
  2  4  1  0
  2  3  2  0
  5  4  1  0
  5  6  1  6
  7  8  2  0
  7  5  1  0
 10 11  2  0
 10  9  1  0
 12 10  1  0
 13 12  1  0
 14 13  1  6
 14 15  1  0
 15  7  1  0
 16 17  2  0
 16 14  1  0
 18 16  1  0
 19 30  1  0
 19 18  1  0
 19 20  1  1
 21 20  1  0
 22 21  2  0
 23 22  1  0
 24 23  1  0
 24 29  2  0
 25 24  1  0
 26 25  2  0
 26 27  1  0
 27 28  2  0
 28 29  1  0
 29 21  1  0
 30 32  1  0
 31 30  2  0
M  END
$$$$
