NQW.pdb
     RDKit          3D

 32 33  0  0  1  0  0  0  0  0999 V2000
   30.2083  -18.2802  -18.2223 N   0  0  0  0  0  0  0  0  0  0  0  0
   29.3430  -17.2539  -17.7930 C   0  0  0  0  0  0  0  0  0  0  0  0
   29.4974  -16.0990  -18.2227 O   0  0  0  0  0  0  0  0  0  0  0  0
   28.2669  -17.5587  -16.8418 C   0  0  0  0  0  0  0  0  0  0  0  0
   28.3719  -19.0109  -16.4519 C   0  0  2  0  0  0  0  0  0  0  0  0
   28.5901  -19.8554  -17.6090 N   0  0  0  0  0  0  0  0  0  0  0  0
   27.1442  -19.3960  -15.7286 C   0  0  0  0  0  0  0  0  0  0  0  0
   26.2676  -18.5852  -15.3612 O   0  0  0  0  0  0  0  0  0  0  0  0
   25.0933  -25.0595  -16.3287 N   0  0  0  0  0  0  0  0  0  0  0  0
   24.1896  -24.6542  -15.3168 C   0  0  0  0  0  0  0  0  0  0  0  0
   23.2920  -25.4311  -14.9323 O   0  0  0  0  0  0  0  0  0  0  0  0
   24.3197  -23.3102  -14.7280 C   0  0  0  0  0  0  0  0  0  0  0  0
   25.4755  -22.5936  -15.3172 C   0  0  0  0  0  0  0  0  0  0  0  0
   25.7111  -21.1955  -14.7670 C   0  0  2  0  0  0  0  0  0  0  0  0
   26.9516  -20.7658  -15.4354 N   0  0  0  0  0  0  0  0  0  0  0  0
   25.9773  -21.2158  -13.3208 C   0  0  0  0  0  0  0  0  0  0  0  0
   27.0321  -21.7415  -12.9024 O   0  0  0  0  0  0  0  0  0  0  0  0
   25.0760  -20.6582  -12.3982 N   0  0  0  0  0  0  0  0  0  0  0  0
   25.1910  -20.9817  -10.9481 C   0  0  1  0  0  0  0  0  0  0  0  0
   26.4380  -20.2861  -10.5187 C   0  0  0  0  0  0  0  0  0  0  0  0
   26.8223  -20.5819   -9.1299 C   0  0  0  0  0  0  0  0  0  0  0  0
   26.9523  -21.8428   -8.5400 C   0  0  0  0  0  0  0  0  0  0  0  0
   27.2833  -21.6977   -7.2512 N   0  0  0  0  0  0  0  0  0  0  0  0
   27.3875  -20.4048   -6.9271 C   0  0  0  0  0  0  0  0  0  0  0  0
   27.7124  -19.7239   -5.7652 C   0  0  0  0  0  0  0  0  0  0  0  0
   27.7499  -18.3492   -5.7798 C   0  0  0  0  0  0  0  0  0  0  0  0
   27.4738  -17.6332   -6.9157 C   0  0  0  0  0  0  0  0  0  0  0  0
   27.1521  -18.3257   -8.0613 C   0  0  0  0  0  0  0  0  0  0  0  0
   27.1005  -19.6960   -8.0982 C   0  0  0  0  0  0  0  0  0  0  0  0
   23.9389  -20.6005  -10.3221 C   0  0  0  0  0  0  0  0  0  0  0  0
   23.1366  -19.7381  -10.7997 O   0  0  0  0  0  0  0  0  0  0  0  0
   23.5229  -21.1761   -9.1267 O   0  0  0  0  0  0  0  0  0  0  0  0
  1  2  1  0
  2  4  1  0
  2  3  2  0
  5  4  1  0
  5  6  1  6
  7  8  2  0
  7  5  1  0
 10 11  2  0
 10  9  1  0
 12 10  1  0
 13 12  1  0
 14 13  1  6
 14 15  1  0
 15  7  1  0
 16 17  2  0
 16 14  1  0
 18 16  1  0
 19 30  1  0
 19 18  1  0
 19 20  1  1
 21 20  1  0
 22 21  2  0
 23 22  1  0
 24 23  1  0
 24 29  2  0
 25 24  1  0
 26 25  2  0
 26 27  1  0
 27 28  2  0
 28 29  1  0
 29 21  1  0
 30 32  1  0
 31 30  2  0
M  END
$$$$
