NQW.pdb
     RDKit          3D

 32 33  0  0  1  0  0  0  0  0999 V2000
   27.0295  -13.9763  -14.9225 N   0  0  0  0  0  0  0  0  0  0  0  0
   25.9677  -13.9833  -15.8492 C   0  0  0  0  0  0  0  0  0  0  0  0
   25.6652  -12.9372  -16.4464 O   0  0  0  0  0  0  0  0  0  0  0  0
   25.2284  -15.2267  -16.1005 C   0  0  0  0  0  0  0  0  0  0  0  0
   26.1759  -16.2314  -16.7043 C   0  0  2  0  0  0  0  0  0  0  0  0
   26.5665  -15.8507  -18.0468 N   0  0  0  0  0  0  0  0  0  0  0  0
   25.5306  -17.5588  -16.6878 C   0  0  0  0  0  0  0  0  0  0  0  0
   24.6322  -17.9078  -17.4827 O   0  0  0  0  0  0  0  0  0  0  0  0
   28.2200  -22.2049  -13.6573 N   0  0  0  0  0  0  0  0  0  0  0  0
   28.5266  -21.9244  -15.0109 C   0  0  0  0  0  0  0  0  0  0  0  0
   29.5662  -22.3848  -15.5250 O   0  0  0  0  0  0  0  0  0  0  0  0
   27.6092  -21.0847  -15.8004 C   0  0  0  0  0  0  0  0  0  0  0  0
   26.4464  -20.6707  -14.9800 C   0  0  0  0  0  0  0  0  0  0  0  0
   25.3990  -19.8526  -15.7192 C   0  0  2  0  0  0  0  0  0  0  0  0
   25.9572  -18.4893  -15.7123 N   0  0  0  0  0  0  0  0  0  0  0  0
   24.1246  -19.8077  -14.9866 C   0  0  0  0  0  0  0  0  0  0  0  0
   24.0512  -19.1403  -13.9315 O   0  0  0  0  0  0  0  0  0  0  0  0
   22.9877  -20.4954  -15.4437 N   0  0  0  0  0  0  0  0  0  0  0  0
   21.7049  -20.4076  -14.6906 C   0  0  1  0  0  0  0  0  0  0  0  0
   20.7788  -19.7134  -15.6306 C   0  0  0  0  0  0  0  0  0  0  0  0
   19.3766  -19.7289  -15.1860 C   0  0  0  0  0  0  0  0  0  0  0  0
   18.7024  -18.7257  -14.4834 C   0  0  0  0  0  0  0  0  0  0  0  0
   17.4502  -19.1257  -14.2309 N   0  0  0  0  0  0  0  0  0  0  0  0
   17.2307  -20.3490  -14.7238 C   0  0  0  0  0  0  0  0  0  0  0  0
   16.1344  -21.1954  -14.7534 C   0  0  0  0  0  0  0  0  0  0  0  0
   16.2434  -22.4148  -15.3801 C   0  0  0  0  0  0  0  0  0  0  0  0
   17.4103  -22.8158  -15.9774 C   0  0  0  0  0  0  0  0  0  0  0  0
   18.4901  -21.9626  -15.9381 C   0  0  0  0  0  0  0  0  0  0  0  0
   18.4324  -20.7367  -15.3252 C   0  0  0  0  0  0  0  0  0  0  0  0
   21.3679  -21.7507  -14.2575 C   0  0  0  0  0  0  0  0  0  0  0  0
   21.7665  -22.8083  -14.8390 O   0  0  0  0  0  0  0  0  0  0  0  0
   20.5677  -21.9719  -13.1421 O   0  0  0  0  0  0  0  0  0  0  0  0
  1  2  1  0
  2  4  1  0
  2  3  2  0
  5  4  1  0
  5  6  1  6
  7  8  2  0
  7  5  1  0
 10 11  2  0
 10  9  1  0
 12 10  1  0
 13 12  1  0
 14 13  1  1
 14 15  1  0
 15  7  1  0
 16 17  2  0
 16 14  1  0
 18 16  1  0
 19 30  1  0
 19 18  1  0
 19 20  1  6
 21 20  1  0
 22 21  2  0
 23 22  1  0
 24 23  1  0
 24 29  2  0
 25 24  1  0
 26 25  2  0
 26 27  1  0
 27 28  2  0
 28 29  1  0
 29 21  1  0
 30 32  1  0
 31 30  2  0
M  END
$$$$
