NQW.pdb
     RDKit          3D

 32 33  0  0  1  0  0  0  0  0999 V2000
   23.4833  -16.8603  -18.5088 N   0  0  0  0  0  0  0  0  0  0  0  0
   22.9978  -17.3046  -17.2626 C   0  0  0  0  0  0  0  0  0  0  0  0
   22.1248  -16.6473  -16.6724 O   0  0  0  0  0  0  0  0  0  0  0  0
   23.5280  -18.5402  -16.6727 C   0  0  0  0  0  0  0  0  0  0  0  0
   24.7033  -18.9969  -17.4983 C   0  0  2  0  0  0  0  0  0  0  0  0
   24.2764  -19.5434  -18.7706 N   0  0  0  0  0  0  0  0  0  0  0  0
   25.4725  -19.9865  -16.7186 C   0  0  0  0  0  0  0  0  0  0  0  0
   25.2001  -21.2050  -16.6756 O   0  0  0  0  0  0  0  0  0  0  0  0
   29.6229  -22.8044  -15.8862 N   0  0  0  0  0  0  0  0  0  0  0  0
   29.4797  -22.0527  -17.0776 C   0  0  0  0  0  0  0  0  0  0  0  0
   29.7042  -22.5850  -18.1837 O   0  0  0  0  0  0  0  0  0  0  0  0
   29.0666  -20.6411  -16.9959 C   0  0  0  0  0  0  0  0  0  0  0  0
   28.7845  -20.2618  -15.5913 C   0  0  0  0  0  0  0  0  0  0  0  0
   27.3456  -20.4737  -15.1467 C   0  0  2  0  0  0  0  0  0  0  0  0
   26.5841  -19.5244  -15.9769 N   0  0  0  0  0  0  0  0  0  0  0  0
   27.1456  -20.0856  -13.7423 C   0  0  0  0  0  0  0  0  0  0  0  0
   27.3685  -18.9039  -13.3987 O   0  0  0  0  0  0  0  0  0  0  0  0
   26.7093  -21.0096  -12.7778 N   0  0  0  0  0  0  0  0  0  0  0  0
   26.6338  -20.6164  -11.3425 C   0  0  1  0  0  0  0  0  0  0  0  0
   25.7422  -19.4212  -11.3399 C   0  0  0  0  0  0  0  0  0  0  0  0
   24.3116  -19.7606  -11.3842 C   0  0  0  0  0  0  0  0  0  0  0  0
   23.4919  -20.1064  -10.3056 C   0  0  0  0  0  0  0  0  0  0  0  0
   22.2607  -20.3801  -10.7538 N   0  0  0  0  0  0  0  0  0  0  0  0
   22.1932  -20.2396  -12.0817 C   0  0  0  0  0  0  0  0  0  0  0  0
   21.1810  -20.3796  -13.0171 C   0  0  0  0  0  0  0  0  0  0  0  0
   21.4515  -20.1312  -14.3425 C   0  0  0  0  0  0  0  0  0  0  0  0
   22.6985  -19.7481  -14.7635 C   0  0  0  0  0  0  0  0  0  0  0  0
   23.6930  -19.6145  -13.8208 C   0  0  0  0  0  0  0  0  0  0  0  0
   23.4742  -19.8511  -12.4874 C   0  0  0  0  0  0  0  0  0  0  0  0
   26.2167  -21.7889  -10.5970 C   0  0  0  0  0  0  0  0  0  0  0  0
   26.1804  -21.8512   -9.3280 O   0  0  0  0  0  0  0  0  0  0  0  0
   25.8131  -22.9518  -11.2436 O   0  0  0  0  0  0  0  0  0  0  0  0
  1  2  1  0
  2  4  1  0
  2  3  2  0
  5  4  1  0
  5  6  1  6
  7  8  2  0
  7  5  1  0
 10 11  2  0
 10  9  1  0
 12 10  1  0
 13 12  1  0
 14 13  1  6
 14 15  1  0
 15  7  1  0
 16 17  2  0
 16 14  1  0
 18 16  1  0
 19 30  1  0
 19 18  1  0
 19 20  1  6
 21 20  1  0
 22 21  2  0
 23 22  1  0
 24 23  1  0
 24 29  2  0
 25 24  1  0
 26 25  2  0
 26 27  1  0
 27 28  2  0
 28 29  1  0
 29 21  1  0
 30 32  1  0
 31 30  2  0
M  END
$$$$
