NQW.pdb
     RDKit          3D

 32 33  0  0  1  0  0  0  0  0999 V2000
   29.3886  -20.8702  -17.5879 N   0  0  0  0  0  0  0  0  0  0  0  0
   28.6785  -19.6563  -17.6802 C   0  0  0  0  0  0  0  0  0  0  0  0
   28.9092  -18.8783  -18.6203 O   0  0  0  0  0  0  0  0  0  0  0  0
   27.6726  -19.3219  -16.6644 C   0  0  0  0  0  0  0  0  0  0  0  0
   27.6920  -20.3920  -15.6032 C   0  0  2  0  0  0  0  0  0  0  0  0
   27.2276  -21.6622  -16.1233 N   0  0  0  0  0  0  0  0  0  0  0  0
   26.8674  -19.9431  -14.4642 C   0  0  0  0  0  0  0  0  0  0  0  0
   26.9611  -18.8143  -13.9371 O   0  0  0  0  0  0  0  0  0  0  0  0
   21.3970  -20.9150  -11.8846 N   0  0  0  0  0  0  0  0  0  0  0  0
   21.4794  -19.9091  -12.8776 C   0  0  0  0  0  0  0  0  0  0  0  0
   20.5704  -19.0612  -12.9858 O   0  0  0  0  0  0  0  0  0  0  0  0
   22.6443  -19.8772  -13.7787 C   0  0  0  0  0  0  0  0  0  0  0  0
   23.6277  -20.9174  -13.3950 C   0  0  0  0  0  0  0  0  0  0  0  0
   24.9677  -20.3855  -12.9110 C   0  0  2  0  0  0  0  0  0  0  0  0
   25.9150  -20.8475  -13.9403 N   0  0  0  0  0  0  0  0  0  0  0  0
   25.3710  -21.0001  -11.6372 C   0  0  0  0  0  0  0  0  0  0  0  0
   25.5180  -22.2407  -11.5785 O   0  0  0  0  0  0  0  0  0  0  0  0
   25.5960  -20.2275  -10.4853 N   0  0  0  0  0  0  0  0  0  0  0  0
   25.8260  -20.8904   -9.1707 C   0  0  1  0  0  0  0  0  0  0  0  0
   26.8210  -20.0126   -8.4906 C   0  0  0  0  0  0  0  0  0  0  0  0
   27.0961  -20.4101   -7.1012 C   0  0  0  0  0  0  0  0  0  0  0  0
   26.5746  -21.5138   -6.4196 C   0  0  0  0  0  0  0  0  0  0  0  0
   27.0341  -21.5166   -5.1624 N   0  0  0  0  0  0  0  0  0  0  0  0
   27.8430  -20.4742   -4.9469 C   0  0  0  0  0  0  0  0  0  0  0  0
   28.5753  -20.0294   -3.8583 C   0  0  0  0  0  0  0  0  0  0  0  0
   29.3450  -18.8965   -3.9835 C   0  0  0  0  0  0  0  0  0  0  0  0
   29.4070  -18.1942   -5.1591 C   0  0  0  0  0  0  0  0  0  0  0  0
   28.6724  -18.6498   -6.2308 C   0  0  0  0  0  0  0  0  0  0  0  0
   27.8892  -19.7735   -6.1565 C   0  0  0  0  0  0  0  0  0  0  0  0
   24.5282  -21.0721   -8.5482 C   0  0  0  0  0  0  0  0  0  0  0  0
   23.5160  -20.3401   -8.7830 O   0  0  0  0  0  0  0  0  0  0  0  0
   24.3020  -22.0929   -7.6315 O   0  0  0  0  0  0  0  0  0  0  0  0
  1  2  1  0
  2  4  1  0
  2  3  2  0
  5  4  1  0
  5  6  1  6
  7  8  2  0
  7  5  1  0
 10 11  2  0
 10  9  1  0
 12 10  1  0
 13 12  1  0
 14 13  1  6
 14 15  1  0
 15  7  1  0
 16 17  2  0
 16 14  1  0
 18 16  1  0
 19 30  1  0
 19 18  1  0
 19 20  1  1
 21 20  1  0
 22 21  2  0
 23 22  1  0
 24 23  1  0
 24 29  2  0
 25 24  1  0
 26 25  2  0
 26 27  1  0
 27 28  2  0
 28 29  1  0
 29 21  1  0
 30 32  1  0
 31 30  2  0
M  END
$$$$
