NQW.pdb
     RDKit          3D

 32 33  0  0  1  0  0  0  0  0999 V2000
   21.8053    0.0494  -24.3544 N   0  0  0  0  0  0  0  0  0  0  0  0
   21.3504   -0.3885  -23.0945 C   0  0  0  0  0  0  0  0  0  0  0  0
   21.8437    0.0921  -22.0610 O   0  0  0  0  0  0  0  0  0  0  0  0
   20.2978   -1.4089  -23.0144 C   0  0  0  0  0  0  0  0  0  0  0  0
   20.8986   -2.6709  -22.4503 C   0  0  2  0  0  0  0  0  0  0  0  0
   21.6811   -3.3757  -23.4456 N   0  0  0  0  0  0  0  0  0  0  0  0
   19.8106   -3.5175  -21.9228 C   0  0  0  0  0  0  0  0  0  0  0  0
   19.1616   -4.3308  -22.6144 O   0  0  0  0  0  0  0  0  0  0  0  0
   20.6781   -7.9550  -19.8724 N   0  0  0  0  0  0  0  0  0  0  0  0
   19.3819   -8.0007  -19.3044 C   0  0  0  0  0  0  0  0  0  0  0  0
   18.9511   -9.0643  -18.8142 O   0  0  0  0  0  0  0  0  0  0  0  0
   18.5512   -6.7842  -19.3010 C   0  0  0  0  0  0  0  0  0  0  0  0
   19.2655   -5.6645  -19.9586 C   0  0  0  0  0  0  0  0  0  0  0  0
   18.5220   -4.3378  -19.9522 C   0  0  2  0  0  0  0  0  0  0  0  0
   19.4857   -3.3987  -20.5518 N   0  0  0  0  0  0  0  0  0  0  0  0
   18.2494   -3.8717  -18.5842 C   0  0  0  0  0  0  0  0  0  0  0  0
   19.1828   -3.3857  -17.9085 O   0  0  0  0  0  0  0  0  0  0  0  0
   16.9660   -3.9581  -18.0187 N   0  0  0  0  0  0  0  0  0  0  0  0
   16.7173   -3.4467  -16.6414 C   0  0  1  0  0  0  0  0  0  0  0  0
   15.2686   -3.0941  -16.6411 C   0  0  0  0  0  0  0  0  0  0  0  0
   14.3868   -4.2495  -16.8679 C   0  0  0  0  0  0  0  0  0  0  0  0
   13.9505   -5.1781  -15.9182 C   0  0  0  0  0  0  0  0  0  0  0  0
   13.1904   -6.1024  -16.5179 N   0  0  0  0  0  0  0  0  0  0  0  0
   13.0822   -5.8559  -17.8275 C   0  0  0  0  0  0  0  0  0  0  0  0
   12.4172   -6.4732  -18.8743 C   0  0  0  0  0  0  0  0  0  0  0  0
   12.4998   -5.9316  -20.1358 C   0  0  0  0  0  0  0  0  0  0  0  0
   13.2241   -4.7948  -20.3854 C   0  0  0  0  0  0  0  0  0  0  0  0
   13.8794   -4.1946  -19.3338 C   0  0  0  0  0  0  0  0  0  0  0  0
   13.8288   -4.6958  -18.0579 C   0  0  0  0  0  0  0  0  0  0  0  0
   17.1792   -4.4636  -15.7154 C   0  0  0  0  0  0  0  0  0  0  0  0
   17.2897   -4.2886  -14.4613 O   0  0  0  0  0  0  0  0  0  0  0  0
   17.5358   -5.7338  -16.1545 O   0  0  0  0  0  0  0  0  0  0  0  0
  1  2  1  0
  2  4  1  0
  2  3  2  0
  5  4  1  0
  5  6  1  6
  7  8  2  0
  7  5  1  0
 10 11  2  0
 10  9  1  0
 12 10  1  0
 13 12  1  0
 14 13  1  1
 14 15  1  0
 15  7  1  0
 16 17  2  0
 16 14  1  0
 18 16  1  0
 19 30  1  0
 19 18  1  0
 19 20  1  6
 21 20  1  0
 22 21  2  0
 23 22  1  0
 24 23  1  0
 24 29  2  0
 25 24  1  0
 26 25  2  0
 26 27  1  0
 27 28  2  0
 28 29  1  0
 29 21  1  0
 30 32  1  0
 31 30  2  0
M  END
$$$$
