NQW.pdb
     RDKit          3D

 32 33  0  0  1  0  0  0  0  0999 V2000
   22.5028  -26.3905  -19.8414 N   0  0  0  0  0  0  0  0  0  0  0  0
   22.4168  -24.9983  -19.6399 C   0  0  0  0  0  0  0  0  0  0  0  0
   21.7129  -24.3093  -20.3965 O   0  0  0  0  0  0  0  0  0  0  0  0
   23.1597  -24.3745  -18.5379 C   0  0  0  0  0  0  0  0  0  0  0  0
   22.2000  -24.1059  -17.4072 C   0  0  2  0  0  0  0  0  0  0  0  0
   21.2540  -23.0637  -17.7518 N   0  0  0  0  0  0  0  0  0  0  0  0
   22.9760  -23.7514  -16.2027 C   0  0  0  0  0  0  0  0  0  0  0  0
   23.9965  -24.3650  -15.8246 O   0  0  0  0  0  0  0  0  0  0  0  0
   26.7170  -22.4011  -16.0932 N   0  0  0  0  0  0  0  0  0  0  0  0
   26.7251  -21.0502  -15.6693 C   0  0  0  0  0  0  0  0  0  0  0  0
   27.8055  -20.4836  -15.4068 O   0  0  0  0  0  0  0  0  0  0  0  0
   25.4490  -20.3258  -15.5402 C   0  0  0  0  0  0  0  0  0  0  0  0
   24.3149  -21.1955  -15.9324 C   0  0  0  0  0  0  0  0  0  0  0  0
   23.5280  -21.7852  -14.7723 C   0  0  2  0  0  0  0  0  0  0  0  0
   22.5353  -22.6505  -15.4325 N   0  0  0  0  0  0  0  0  0  0  0  0
   22.7863  -20.7515  -14.0346 C   0  0  0  0  0  0  0  0  0  0  0  0
   23.4200  -19.9142  -13.3553 O   0  0  0  0  0  0  0  0  0  0  0  0
   21.3835  -20.6812  -14.0753 N   0  0  0  0  0  0  0  0  0  0  0  0
   20.6687  -19.5623  -13.3988 C   0  0  1  0  0  0  0  0  0  0  0  0
   21.2364  -18.3356  -14.0282 C   0  0  0  0  0  0  0  0  0  0  0  0
   20.7400  -18.0965  -15.3921 C   0  0  0  0  0  0  0  0  0  0  0  0
   19.4063  -18.0478  -15.8089 C   0  0  0  0  0  0  0  0  0  0  0  0
   19.3618  -17.8441  -17.1311 N   0  0  0  0  0  0  0  0  0  0  0  0
   20.5937  -17.7499  -17.6419 C   0  0  0  0  0  0  0  0  0  0  0  0
   21.0972  -17.5303  -18.9137 C   0  0  0  0  0  0  0  0  0  0  0  0
   22.4590  -17.4675  -19.0959 C   0  0  0  0  0  0  0  0  0  0  0  0
   23.3331  -17.6167  -18.0505 C   0  0  0  0  0  0  0  0  0  0  0  0
   22.8157  -17.8350  -16.7935 C   0  0  0  0  0  0  0  0  0  0  0  0
   21.4659  -17.9066  -16.5598 C   0  0  0  0  0  0  0  0  0  0  0  0
   19.2467  -19.8136  -13.5389 C   0  0  0  0  0  0  0  0  0  0  0  0
   18.7483  -20.6585  -14.3472 O   0  0  0  0  0  0  0  0  0  0  0  0
   18.3118  -19.1288  -12.7706 O   0  0  0  0  0  0  0  0  0  0  0  0
  1  2  1  0
  2  4  1  0
  2  3  2  0
  5  4  1  0
  5  6  1  6
  7  8  2  0
  7  5  1  0
 10 11  2  0
 10  9  1  0
 12 10  1  0
 13 12  1  0
 14 13  1  6
 14 15  1  0
 15  7  1  0
 16 17  2  0
 16 14  1  0
 18 16  1  0
 19 30  1  0
 19 18  1  0
 19 20  1  6
 21 20  1  0
 22 21  2  0
 23 22  1  0
 24 23  1  0
 24 29  2  0
 25 24  1  0
 26 25  2  0
 26 27  1  0
 27 28  2  0
 28 29  1  0
 29 21  1  0
 30 32  1  0
 31 30  2  0
M  END
$$$$
