NQW.pdb
     RDKit          3D

 32 33  0  0  1  0  0  0  0  0999 V2000
   26.1633  -34.8467   -5.0045 N   0  0  0  0  0  0  0  0  0  0  0  0
   26.1794  -33.4403   -5.0946 C   0  0  0  0  0  0  0  0  0  0  0  0
   27.2651  -32.8382   -5.1268 O   0  0  0  0  0  0  0  0  0  0  0  0
   24.9131  -32.6994   -5.1494 C   0  0  0  0  0  0  0  0  0  0  0  0
   23.7783  -33.6906   -5.1126 C   0  0  2  0  0  0  0  0  0  0  0  0
   23.7908  -34.5534   -6.2768 N   0  0  0  0  0  0  0  0  0  0  0  0
   22.5064  -32.9492   -5.0061 C   0  0  0  0  0  0  0  0  0  0  0  0
   21.8427  -32.5575   -5.9894 O   0  0  0  0  0  0  0  0  0  0  0  0
   17.6170  -34.9163   -4.1728 N   0  0  0  0  0  0  0  0  0  0  0  0
   18.6088  -35.3033   -3.2393 C   0  0  0  0  0  0  0  0  0  0  0  0
   18.4450  -36.3235   -2.5398 O   0  0  0  0  0  0  0  0  0  0  0  0
   19.8292  -34.4897   -3.1028 C   0  0  0  0  0  0  0  0  0  0  0  0
   19.7625  -33.2995   -3.9834 C   0  0  0  0  0  0  0  0  0  0  0  0
   20.6460  -32.1370   -3.5582 C   0  0  2  0  0  0  0  0  0  0  0  0
   22.0119  -32.6670   -3.7117 N   0  0  0  0  0  0  0  0  0  0  0  0
   20.4628  -31.8034   -2.1377 C   0  0  0  0  0  0  0  0  0  0  0  0
   21.3137  -32.1890   -1.3062 O   0  0  0  0  0  0  0  0  0  0  0  0
   19.3558  -31.0614   -1.6922 N   0  0  0  0  0  0  0  0  0  0  0  0
   19.2043  -30.7352   -0.2462 C   0  0  1  0  0  0  0  0  0  0  0  0
   18.3905  -29.4858   -0.2391 C   0  0  0  0  0  0  0  0  0  0  0  0
   19.1707  -28.2796   -0.5562 C   0  0  0  0  0  0  0  0  0  0  0  0
   19.4844  -27.7866   -1.8263 C   0  0  0  0  0  0  0  0  0  0  0  0
   20.2399  -26.6886   -1.7019 N   0  0  0  0  0  0  0  0  0  0  0  0
   20.4596  -26.4030   -0.4144 C   0  0  0  0  0  0  0  0  0  0  0  0
   21.1423  -25.3960    0.2481 C   0  0  0  0  0  0  0  0  0  0  0  0
   21.1544  -25.3843    1.6234 C   0  0  0  0  0  0  0  0  0  0  0  0
   20.5076  -26.3444    2.3575 C   0  0  0  0  0  0  0  0  0  0  0  0
   19.8346  -27.3383    1.6830 C   0  0  0  0  0  0  0  0  0  0  0  0
   19.7933  -27.3945    0.3130 C   0  0  0  0  0  0  0  0  0  0  0  0
   18.6639  -31.9132    0.4058 C   0  0  0  0  0  0  0  0  0  0  0  0
   18.2051  -32.9237   -0.2138 O   0  0  0  0  0  0  0  0  0  0  0  0
   18.6175  -32.0160    1.7917 O   0  0  0  0  0  0  0  0  0  0  0  0
  1  2  1  0
  2  4  1  0
  2  3  2  0
  5  4  1  0
  5  6  1  6
  7  8  2  0
  7  5  1  0
 10 11  2  0
 10  9  1  0
 12 10  1  0
 13 12  1  0
 14 13  1  1
 14 15  1  0
 15  7  1  0
 16 17  2  0
 16 14  1  0
 18 16  1  0
 19 30  1  0
 19 18  1  0
 19 20  1  6
 21 20  1  0
 22 21  2  0
 23 22  1  0
 24 23  1  0
 24 29  2  0
 25 24  1  0
 26 25  2  0
 26 27  1  0
 27 28  2  0
 28 29  1  0
 29 21  1  0
 30 32  1  0
 31 30  2  0
M  END
$$$$
