TFI.pdb
     RDKit          3D

 27 27  0  0  1  0  0  0  0  0999 V2000
   10.4096  -19.5944   22.3321 C   0  0  0  0  0  0  0  0  0  0  0  0
   10.8974  -19.0410   21.0090 C   0  0  1  0  0  0  0  0  0  0  0  0
   10.9962  -20.0390   20.0420 O   0  0  0  0  0  0  0  0  0  0  0  0
    9.9427  -17.9514   20.5766 C   0  0  2  0  0  0  0  0  0  0  0  0
   10.3613  -17.5255   19.2573 N   0  0  0  0  0  0  0  0  0  0  0  0
    9.9144  -16.8131   21.4986 C   0  0  0  0  0  0  0  0  0  0  0  0
   10.8650  -15.9713   21.4393 O   0  0  0  0  0  0  0  0  0  0  0  0
    8.9233  -16.5699   22.4470 N   0  0  0  0  0  0  0  0  0  0  0  0
    8.9349  -15.4319   23.3999 C   0  0  1  0  0  0  0  0  0  0  0  0
    7.5231  -14.9898   23.4432 C   0  0  0  0  0  0  0  0  0  0  0  0
    7.1436  -13.9464   24.3774 C   0  0  0  0  0  0  0  0  0  0  0  0
    6.4106  -14.2765   25.4955 C   0  0  0  0  0  0  0  0  0  0  0  0
    6.0048  -13.3568   26.4396 C   0  0  0  0  0  0  0  0  0  0  0  0
    6.3499  -12.0283   26.2591 C   0  0  0  0  0  0  0  0  0  0  0  0
    7.0839  -11.7022   25.1380 C   0  0  0  0  0  0  0  0  0  0  0  0
    7.4845  -12.6182   24.2037 C   0  0  0  0  0  0  0  0  0  0  0  0
    9.5316  -15.9653   24.6251 C   0  0  0  0  0  0  0  0  0  0  0  0
    9.0684  -17.0505   25.1273 O   0  0  0  0  0  0  0  0  0  0  0  0
   11.4184  -14.1756   29.6172 C   0  0  0  0  0  0  0  0  0  0  0  0
   10.1630  -14.8237   29.1067 C   0  0  0  0  0  0  0  0  0  0  0  0
    9.9531  -14.7775   27.6471 C   0  0  2  0  0  0  0  0  0  0  0  0
    8.4602  -14.9323   27.3569 C   0  0  0  0  0  0  0  0  0  0  0  0
   10.7824  -15.6532   26.7865 C   0  0  2  0  0  0  0  0  0  0  0  0
   10.6176  -15.4166   25.3707 N   0  0  0  0  0  0  0  0  0  0  0  0
   10.6116  -17.0605   27.1155 C   0  0  0  0  0  0  0  0  0  0  0  0
    9.4564  -17.7168   26.7224 O   0  0  0  0  0  0  0  0  0  0  0  0
   11.4839  -17.7333   27.7552 O   0  0  0  0  0  0  0  0  0  0  0  0
  2  4  1  0
  2  1  1  1
  2  3  1  0
  4  5  1  6
  6  4  1  0
  6  7  2  0
  8  6  1  0
  9  8  1  0
 10 11  1  0
  9 10  1  1
 11 12  2  0
 11 16  1  0
 12 13  1  0
 13 14  2  0
 15 14  1  0
 16 15  2  0
 17 18  2  0
 17  9  1  0
 20 21  1  0
 20 19  1  0
 21 22  1  1
 23 24  1  6
 23 21  1  0
 24 17  1  0
 25 23  1  0
 26 25  1  0
 27 25  2  0
M  END
$$$$
