TFI.pdb
     RDKit          3D

 27 27  0  0  1  0  0  0  0  0999 V2000
   10.3729  -19.7465   19.4842 C   0  0  0  0  0  0  0  0  0  0  0  0
   10.4681  -18.8841   20.7260 C   0  0  1  0  0  0  0  0  0  0  0  0
   11.7510  -18.9085   21.2688 O   0  0  0  0  0  0  0  0  0  0  0  0
   10.0577  -17.4779   20.3522 C   0  0  2  0  0  0  0  0  0  0  0  0
   11.0198  -17.0043   19.3789 N   0  0  0  0  0  0  0  0  0  0  0  0
   10.0014  -16.5712   21.5016 C   0  0  0  0  0  0  0  0  0  0  0  0
   11.0124  -15.8364   21.7341 O   0  0  0  0  0  0  0  0  0  0  0  0
    8.9223  -16.4425   22.3733 N   0  0  0  0  0  0  0  0  0  0  0  0
    8.8403  -15.4402   23.4650 C   0  0  1  0  0  0  0  0  0  0  0  0
    7.4093  -15.0635   23.4954 C   0  0  0  0  0  0  0  0  0  0  0  0
    6.9768  -14.0261   24.4131 C   0  0  0  0  0  0  0  0  0  0  0  0
    6.1576  -14.3587   25.4689 C   0  0  0  0  0  0  0  0  0  0  0  0
    5.6963  -13.4447   26.3928 C   0  0  0  0  0  0  0  0  0  0  0  0
    6.0737  -12.1197   26.2568 C   0  0  0  0  0  0  0  0  0  0  0  0
    6.8941  -11.7911   25.1981 C   0  0  0  0  0  0  0  0  0  0  0  0
    7.3495  -12.7014   24.2837 C   0  0  0  0  0  0  0  0  0  0  0  0
    9.4064  -16.1061   24.6387 C   0  0  0  0  0  0  0  0  0  0  0  0
    9.3675  -17.3857   24.7133 O   0  0  0  0  0  0  0  0  0  0  0  0
   10.6920  -13.8755   29.9448 C   0  0  0  0  0  0  0  0  0  0  0  0
   10.1053  -14.7236   28.8525 C   0  0  0  0  0  0  0  0  0  0  0  0
   11.0691  -15.4349   27.9911 C   0  0  2  0  0  0  0  0  0  0  0  0
   12.1368  -14.4463   27.5224 C   0  0  0  0  0  0  0  0  0  0  0  0
   10.5456  -16.2601   26.8775 C   0  0  2  0  0  0  0  0  0  0  0  0
   10.0326  -15.4937   25.7653 N   0  0  0  0  0  0  0  0  0  0  0  0
    9.5785  -17.2455   27.3373 C   0  0  0  0  0  0  0  0  0  0  0  0
   10.0106  -18.3236   28.0928 O   0  0  0  0  0  0  0  0  0  0  0  0
    8.3335  -17.1673   27.0790 O   0  0  0  0  0  0  0  0  0  0  0  0
  2  4  1  0
  2  1  1  6
  2  3  1  0
  4  5  1  6
  6  4  1  0
  6  7  2  0
  8  6  1  0
  9  8  1  0
 10 11  1  0
  9 10  1  1
 11 12  2  0
 11 16  1  0
 12 13  1  0
 13 14  2  0
 15 14  1  0
 16 15  2  0
 17 18  2  0
 17  9  1  0
 20 21  1  0
 20 19  1  0
 21 22  1  6
 23 24  1  6
 23 21  1  0
 24 17  1  0
 25 23  1  0
 26 25  1  0
 27 25  2  0
M  END
$$$$
