TFI.pdb
     RDKit          3D

 27 27  0  0  1  0  0  0  0  0999 V2000
   10.4686  -19.4448   21.8798 C   0  0  0  0  0  0  0  0  0  0  0  0
   11.0789  -18.6954   20.7133 C   0  0  1  0  0  0  0  0  0  0  0  0
   11.2768  -19.5305   19.6159 O   0  0  0  0  0  0  0  0  0  0  0  0
   10.1641  -17.5426   20.3671 C   0  0  2  0  0  0  0  0  0  0  0  0
   10.6861  -16.9409   19.1576 N   0  0  0  0  0  0  0  0  0  0  0  0
   10.0668  -16.5454   21.4358 C   0  0  0  0  0  0  0  0  0  0  0  0
   10.9790  -15.6636   21.5164 O   0  0  0  0  0  0  0  0  0  0  0  0
    9.0483  -16.4784   22.3841 N   0  0  0  0  0  0  0  0  0  0  0  0
    8.9422  -15.4296   23.4290 C   0  0  1  0  0  0  0  0  0  0  0  0
    7.5082  -15.0633   23.4211 C   0  0  0  0  0  0  0  0  0  0  0  0
    7.0266  -14.0955   24.3890 C   0  0  0  0  0  0  0  0  0  0  0  0
    7.4068  -12.7772   24.2706 C   0  0  0  0  0  0  0  0  0  0  0  0
    7.0005  -11.7860   25.1391 C   0  0  0  0  0  0  0  0  0  0  0  0
    6.1653  -12.1285   26.1887 C   0  0  0  0  0  0  0  0  0  0  0  0
    5.7871  -13.4499   26.3034 C   0  0  0  0  0  0  0  0  0  0  0  0
    6.1927  -14.4301   25.4393 C   0  0  0  0  0  0  0  0  0  0  0  0
    9.4949  -16.0387   24.6395 C   0  0  0  0  0  0  0  0  0  0  0  0
    9.2371  -17.2683   24.8965 O   0  0  0  0  0  0  0  0  0  0  0  0
    9.8606  -13.1434   29.2640 C   0  0  0  0  0  0  0  0  0  0  0  0
   10.3615  -13.8539   28.0389 C   0  0  0  0  0  0  0  0  0  0  0  0
   10.3070  -15.3279   28.0726 C   0  0  2  0  0  0  0  0  0  0  0  0
   11.0544  -15.8222   29.3112 C   0  0  0  0  0  0  0  0  0  0  0  0
   10.6912  -16.0767   26.8533 C   0  0  2  0  0  0  0  0  0  0  0  0
   10.3286  -15.4199   25.6184 N   0  0  0  0  0  0  0  0  0  0  0  0
   10.2157  -17.4517   26.8856 C   0  0  0  0  0  0  0  0  0  0  0  0
    8.8792  -17.7167   26.6334 O   0  0  0  0  0  0  0  0  0  0  0  0
   10.9765  -18.4422   27.1360 O   0  0  0  0  0  0  0  0  0  0  0  0
  2  4  1  0
  2  1  1  1
  2  3  1  0
  4  5  1  6
  6  4  1  0
  6  7  2  0
  8  6  1  0
  9  8  1  0
 10 11  1  0
  9 10  1  1
 11 12  2  0
 11 16  1  0
 12 13  1  0
 13 14  2  0
 15 14  1  0
 16 15  2  0
 17 18  2  0
 17  9  1  0
 20 21  1  0
 20 19  1  0
 21 22  1  1
 23 24  1  6
 23 21  1  0
 24 17  1  0
 25 23  1  0
 26 25  1  0
 27 25  2  0
M  END
$$$$
