TFI.pdb
     RDKit          3D

 27 27  0  0  1  0  0  0  0  0999 V2000
   10.7857  -19.3368   22.1617 C   0  0  0  0  0  0  0  0  0  0  0  0
   11.4092  -18.6470   20.9658 C   0  0  1  0  0  0  0  0  0  0  0  0
   11.6918  -19.5506   19.9437 O   0  0  0  0  0  0  0  0  0  0  0  0
   10.4572  -17.5699   20.4974 C   0  0  2  0  0  0  0  0  0  0  0  0
   11.0199  -17.0098   19.2862 N   0  0  0  0  0  0  0  0  0  0  0  0
   10.2411  -16.5202   21.4963 C   0  0  0  0  0  0  0  0  0  0  0  0
   11.1382  -15.6298   21.6323 O   0  0  0  0  0  0  0  0  0  0  0  0
    9.1234  -16.4115   22.3208 N   0  0  0  0  0  0  0  0  0  0  0  0
    8.9379  -15.3563   23.3481 C   0  0  1  0  0  0  0  0  0  0  0  0
    7.4953  -15.0347   23.2714 C   0  0  0  0  0  0  0  0  0  0  0  0
    6.9485  -14.0444   24.1801 C   0  0  0  0  0  0  0  0  0  0  0  0
    6.2372  -14.4615   25.2830 C   0  0  0  0  0  0  0  0  0  0  0  0
    5.6813  -13.5973   26.2027 C   0  0  0  0  0  0  0  0  0  0  0  0
    5.8436  -12.2357   26.0124 C   0  0  0  0  0  0  0  0  0  0  0  0
    6.5566  -11.8224   24.9065 C   0  0  0  0  0  0  0  0  0  0  0  0
    7.1066  -12.6836   23.9964 C   0  0  0  0  0  0  0  0  0  0  0  0
    9.4533  -15.9361   24.5891 C   0  0  0  0  0  0  0  0  0  0  0  0
    9.7626  -17.1802   24.6188 O   0  0  0  0  0  0  0  0  0  0  0  0
   11.3271  -14.6656   30.4553 C   0  0  0  0  0  0  0  0  0  0  0  0
   11.4777  -15.4541   29.1856 C   0  0  0  0  0  0  0  0  0  0  0  0
   10.7675  -14.9284   28.0041 C   0  0  2  0  0  0  0  0  0  0  0  0
    9.5457  -14.1381   28.4726 C   0  0  0  0  0  0  0  0  0  0  0  0
   10.4382  -15.8645   26.9039 C   0  0  2  0  0  0  0  0  0  0  0  0
    9.6748  -15.2694   25.8311 N   0  0  0  0  0  0  0  0  0  0  0  0
    9.8096  -17.0820   27.3940 C   0  0  0  0  0  0  0  0  0  0  0  0
    8.4480  -17.2658   27.2148 O   0  0  0  0  0  0  0  0  0  0  0  0
   10.4564  -18.0050   27.9879 O   0  0  0  0  0  0  0  0  0  0  0  0
  2  4  1  0
  2  1  1  1
  2  3  1  0
  4  5  1  6
  6  4  1  0
  6  7  2  0
  8  6  1  0
  9  8  1  0
 10 11  1  0
  9 10  1  1
 11 12  2  0
 11 16  1  0
 12 13  1  0
 13 14  2  0
 15 14  1  0
 16 15  2  0
 17 18  2  0
 17  9  1  0
 20 21  1  0
 20 19  1  0
 21 22  1  1
 23 24  1  6
 23 21  1  0
 24 17  1  0
 25 23  1  0
 26 25  1  0
 27 25  2  0
M  END
$$$$
