TFI.pdb
     RDKit          3D

 27 27  0  0  1  0  0  0  0  0999 V2000
   10.8408  -19.4138   22.0913 C   0  0  0  0  0  0  0  0  0  0  0  0
   11.3213  -18.6655   20.8650 C   0  0  1  0  0  0  0  0  0  0  0  0
   11.5128  -19.5236   19.7843 O   0  0  0  0  0  0  0  0  0  0  0  0
   10.3042  -17.5948   20.5413 C   0  0  2  0  0  0  0  0  0  0  0  0
   10.7390  -16.9595   19.3147 N   0  0  0  0  0  0  0  0  0  0  0  0
   10.1553  -16.6023   21.6086 C   0  0  0  0  0  0  0  0  0  0  0  0
   11.0901  -15.7569   21.7742 O   0  0  0  0  0  0  0  0  0  0  0  0
    9.0642  -16.5032   22.4692 N   0  0  0  0  0  0  0  0  0  0  0  0
    8.9431  -15.5027   23.5590 C   0  0  1  0  0  0  0  0  0  0  0  0
    7.5038  -15.1580   23.5671 C   0  0  0  0  0  0  0  0  0  0  0  0
    7.0251  -14.1696   24.5155 C   0  0  0  0  0  0  0  0  0  0  0  0
    6.2899  -14.5813   25.6048 C   0  0  0  0  0  0  0  0  0  0  0  0
    5.7938  -13.7185   26.5594 C   0  0  0  0  0  0  0  0  0  0  0  0
    6.0449  -12.3642   26.4206 C   0  0  0  0  0  0  0  0  0  0  0  0
    6.7814  -11.9564   25.3282 C   0  0  0  0  0  0  0  0  0  0  0  0
    7.2718  -12.8161   24.3834 C   0  0  0  0  0  0  0  0  0  0  0  0
    9.5056  -16.1557   24.7417 C   0  0  0  0  0  0  0  0  0  0  0  0
    9.3442  -17.4183   24.8972 O   0  0  0  0  0  0  0  0  0  0  0  0
   10.4287  -14.3847   30.2069 C   0  0  0  0  0  0  0  0  0  0  0  0
   10.3225  -14.4695   28.7108 C   0  0  0  0  0  0  0  0  0  0  0  0
   11.2251  -15.4295   28.0471 C   0  0  2  0  0  0  0  0  0  0  0  0
   12.4957  -14.6969   27.6160 C   0  0  0  0  0  0  0  0  0  0  0  0
   10.6778  -16.2810   26.9652 C   0  0  2  0  0  0  0  0  0  0  0  0
   10.2521  -15.5480   25.7951 N   0  0  0  0  0  0  0  0  0  0  0  0
    9.6313  -17.1697   27.4476 C   0  0  0  0  0  0  0  0  0  0  0  0
    9.9644  -18.2260   28.2802 O   0  0  0  0  0  0  0  0  0  0  0  0
    8.4033  -17.0245   27.1413 O   0  0  0  0  0  0  0  0  0  0  0  0
  2  4  1  0
  2  1  1  1
  2  3  1  0
  4  5  1  6
  6  4  1  0
  6  7  2  0
  8  6  1  0
  9  8  1  0
 10 11  1  0
  9 10  1  1
 11 12  2  0
 11 16  1  0
 12 13  1  0
 13 14  2  0
 15 14  1  0
 16 15  2  0
 17 18  2  0
 17  9  1  0
 20 21  1  0
 20 19  1  0
 21 22  1  6
 23 24  1  6
 23 21  1  0
 24 17  1  0
 25 23  1  0
 26 25  1  0
 27 25  2  0
M  END
$$$$
