TFI.pdb
     RDKit          3D

 27 27  0  0  1  0  0  0  0  0999 V2000
   10.7928  -19.2983   21.9232 C   0  0  0  0  0  0  0  0  0  0  0  0
   11.3565  -18.5010   20.7650 C   0  0  1  0  0  0  0  0  0  0  0  0
   11.6126  -19.3124   19.6618 O   0  0  0  0  0  0  0  0  0  0  0  0
   10.3692  -17.4080   20.4242 C   0  0  2  0  0  0  0  0  0  0  0  0
   10.8732  -16.7404   19.2421 N   0  0  0  0  0  0  0  0  0  0  0  0
   10.1769  -16.4474   21.5136 C   0  0  0  0  0  0  0  0  0  0  0  0
   11.0646  -15.5544   21.6875 O   0  0  0  0  0  0  0  0  0  0  0  0
    9.0915  -16.4273   22.3869 N   0  0  0  0  0  0  0  0  0  0  0  0
    8.9247  -15.4550   23.4959 C   0  0  1  0  0  0  0  0  0  0  0  0
    7.4934  -15.0838   23.4312 C   0  0  0  0  0  0  0  0  0  0  0  0
    6.9634  -14.1609   24.4175 C   0  0  0  0  0  0  0  0  0  0  0  0
    6.1387  -14.6377   25.4121 C   0  0  0  0  0  0  0  0  0  0  0  0
    5.5883  -13.8400   26.3932 C   0  0  0  0  0  0  0  0  0  0  0  0
    5.8766  -12.4860   26.3830 C   0  0  0  0  0  0  0  0  0  0  0  0
    6.7028  -12.0129   25.3852 C   0  0  0  0  0  0  0  0  0  0  0  0
    7.2468  -12.8081   24.4137 C   0  0  0  0  0  0  0  0  0  0  0  0
    9.4066  -16.1507   24.6899 C   0  0  0  0  0  0  0  0  0  0  0  0
    9.4799  -17.4309   24.6829 O   0  0  0  0  0  0  0  0  0  0  0  0
   10.8021  -13.9456   30.0190 C   0  0  0  0  0  0  0  0  0  0  0  0
   10.1285  -14.8100   28.9914 C   0  0  0  0  0  0  0  0  0  0  0  0
   11.0194  -15.5417   28.0707 C   0  0  2  0  0  0  0  0  0  0  0  0
   12.0801  -14.5781   27.5387 C   0  0  0  0  0  0  0  0  0  0  0  0
   10.4078  -16.3502   26.9901 C   0  0  2  0  0  0  0  0  0  0  0  0
    9.8329  -15.5673   25.9204 N   0  0  0  0  0  0  0  0  0  0  0  0
    9.4582  -17.3235   27.5085 C   0  0  0  0  0  0  0  0  0  0  0  0
    9.9143  -18.3672   28.2975 O   0  0  0  0  0  0  0  0  0  0  0  0
    8.2077  -17.2648   27.2728 O   0  0  0  0  0  0  0  0  0  0  0  0
  2  4  1  0
  2  1  1  1
  2  3  1  0
  4  5  1  6
  6  4  1  0
  6  7  2  0
  8  6  1  0
  9  8  1  0
 10 11  1  0
  9 10  1  1
 11 12  2  0
 11 16  1  0
 12 13  1  0
 13 14  2  0
 15 14  1  0
 16 15  2  0
 17 18  2  0
 17  9  1  0
 20 21  1  0
 20 19  1  0
 21 22  1  6
 23 24  1  6
 23 21  1  0
 24 17  1  0
 25 23  1  0
 26 25  1  0
 27 25  2  0
M  END
$$$$
