TFI.pdb
     RDKit          3D

 27 27  0  0  1  0  0  0  0  0999 V2000
   10.4551  -19.7639   19.7551 C   0  0  0  0  0  0  0  0  0  0  0  0
   10.5035  -18.7889   20.9134 C   0  0  1  0  0  0  0  0  0  0  0  0
   11.7686  -18.7483   21.4956 O   0  0  0  0  0  0  0  0  0  0  0  0
   10.0935  -17.4282   20.3976 C   0  0  2  0  0  0  0  0  0  0  0  0
   11.0936  -17.0270   19.4300 N   0  0  0  0  0  0  0  0  0  0  0  0
    9.9733  -16.4243   21.4578 C   0  0  0  0  0  0  0  0  0  0  0  0
   10.9629  -15.6546   21.6681 O   0  0  0  0  0  0  0  0  0  0  0  0
    8.8540  -16.2372   22.2661 N   0  0  0  0  0  0  0  0  0  0  0  0
    8.7767  -15.2577   23.3787 C   0  0  1  0  0  0  0  0  0  0  0  0
    7.3697  -14.7992   23.3518 C   0  0  0  0  0  0  0  0  0  0  0  0
    6.9229  -13.8486   24.3528 C   0  0  0  0  0  0  0  0  0  0  0  0
    6.1468  -14.2890   25.4017 C   0  0  0  0  0  0  0  0  0  0  0  0
    5.6762  -13.4630   26.4008 C   0  0  0  0  0  0  0  0  0  0  0  0
    5.9980  -12.1174   26.3521 C   0  0  0  0  0  0  0  0  0  0  0  0
    6.7753  -11.6807   25.2999 C   0  0  0  0  0  0  0  0  0  0  0  0
    7.2402  -12.5040   24.3107 C   0  0  0  0  0  0  0  0  0  0  0  0
    9.2464  -15.9829   24.5598 C   0  0  0  0  0  0  0  0  0  0  0  0
    9.1025  -17.2561   24.6123 O   0  0  0  0  0  0  0  0  0  0  0  0
   10.5029  -13.8459   29.8855 C   0  0  0  0  0  0  0  0  0  0  0  0
    9.8895  -14.6413   28.7684 C   0  0  0  0  0  0  0  0  0  0  0  0
   10.8125  -15.4876   27.9882 C   0  0  2  0  0  0  0  0  0  0  0  0
   12.0341  -14.6563   27.5964 C   0  0  0  0  0  0  0  0  0  0  0  0
   10.2693  -16.2550   26.8430 C   0  0  2  0  0  0  0  0  0  0  0  0
    9.8801  -15.4382   25.7165 N   0  0  0  0  0  0  0  0  0  0  0  0
    9.1969  -17.1517   27.2474 C   0  0  0  0  0  0  0  0  0  0  0  0
    9.4832  -18.2288   28.0707 O   0  0  0  0  0  0  0  0  0  0  0  0
    7.9873  -16.9952   26.8798 O   0  0  0  0  0  0  0  0  0  0  0  0
  2  4  1  0
  2  1  1  6
  2  3  1  0
  4  5  1  6
  6  4  1  0
  6  7  2  0
  8  6  1  0
  9  8  1  0
 10 11  1  0
  9 10  1  1
 11 12  2  0
 11 16  1  0
 12 13  1  0
 13 14  2  0
 15 14  1  0
 16 15  2  0
 17 18  2  0
 17  9  1  0
 20 21  1  0
 20 19  1  0
 21 22  1  6
 23 24  1  6
 23 21  1  0
 24 17  1  0
 25 23  1  0
 26 25  1  0
 27 25  2  0
M  END
$$$$
