TFI.pdb
     RDKit          3D

 27 27  0  0  1  0  0  0  0  0999 V2000
   10.1342  -19.9486   19.7196 C   0  0  0  0  0  0  0  0  0  0  0  0
   10.2591  -18.9785   20.8763 C   0  0  1  0  0  0  0  0  0  0  0  0
   11.5455  -18.9827   21.4112 O   0  0  0  0  0  0  0  0  0  0  0  0
    9.8773  -17.6033   20.3775 C   0  0  2  0  0  0  0  0  0  0  0  0
   10.8561  -17.2330   19.3764 N   0  0  0  0  0  0  0  0  0  0  0  0
    9.8276  -16.5990   21.4429 C   0  0  0  0  0  0  0  0  0  0  0  0
   10.8158  -15.8091   21.5673 O   0  0  0  0  0  0  0  0  0  0  0  0
    8.7778  -16.4321   22.3435 N   0  0  0  0  0  0  0  0  0  0  0  0
    8.7622  -15.4293   23.4377 C   0  0  1  0  0  0  0  0  0  0  0  0
    7.3513  -14.9857   23.4937 C   0  0  0  0  0  0  0  0  0  0  0  0
    6.9748  -13.9658   24.4546 C   0  0  0  0  0  0  0  0  0  0  0  0
    6.1572  -14.3033   25.5102 C   0  0  0  0  0  0  0  0  0  0  0  0
    5.7468  -13.4057   26.4734 C   0  0  0  0  0  0  0  0  0  0  0  0
    6.1766  -12.0931   26.3796 C   0  0  0  0  0  0  0  0  0  0  0  0
    6.9952  -11.7596   25.3209 C   0  0  0  0  0  0  0  0  0  0  0  0
    7.3999  -12.6536   24.3674 C   0  0  0  0  0  0  0  0  0  0  0  0
    9.3166  -16.1237   24.6006 C   0  0  0  0  0  0  0  0  0  0  0  0
    9.4326  -17.4005   24.5720 O   0  0  0  0  0  0  0  0  0  0  0  0
   10.4807  -14.0421   29.9831 C   0  0  0  0  0  0  0  0  0  0  0  0
    9.9506  -14.8809   28.8552 C   0  0  0  0  0  0  0  0  0  0  0  0
   10.9590  -15.4968   27.9717 C   0  0  2  0  0  0  0  0  0  0  0  0
   11.9696  -14.4283   27.5544 C   0  0  0  0  0  0  0  0  0  0  0  0
   10.4906  -16.3020   26.8195 C   0  0  2  0  0  0  0  0  0  0  0  0
    9.7740  -15.5424   25.8209 N   0  0  0  0  0  0  0  0  0  0  0  0
    9.7357  -17.4718   27.2430 C   0  0  0  0  0  0  0  0  0  0  0  0
    8.4090  -17.6004   26.8647 O   0  0  0  0  0  0  0  0  0  0  0  0
   10.2392  -18.4012   27.9540 O   0  0  0  0  0  0  0  0  0  0  0  0
  2  4  1  0
  2  1  1  6
  2  3  1  0
  4  5  1  6
  6  4  1  0
  6  7  2  0
  8  6  1  0
  9  8  1  0
 10 11  1  0
  9 10  1  1
 11 12  2  0
 11 16  1  0
 12 13  1  0
 13 14  2  0
 15 14  1  0
 16 15  2  0
 17 18  2  0
 17  9  1  0
 20 21  1  0
 20 19  1  0
 21 22  1  6
 23 24  1  6
 23 21  1  0
 24 17  1  0
 25 23  1  0
 26 25  1  0
 27 25  2  0
M  END
$$$$
