TFI.pdb
     RDKit          3D

 27 27  0  0  1  0  0  0  0  0999 V2000
   10.6577  -19.7073   22.1688 C   0  0  0  0  0  0  0  0  0  0  0  0
   11.1794  -19.0347   20.9158 C   0  0  1  0  0  0  0  0  0  0  0  0
   11.3388  -19.9461   19.8743 O   0  0  0  0  0  0  0  0  0  0  0  0
   10.2140  -17.9342   20.5383 C   0  0  2  0  0  0  0  0  0  0  0  0
   10.6440  -17.4205   19.2544 N   0  0  0  0  0  0  0  0  0  0  0  0
   10.1555  -16.8564   21.5289 C   0  0  0  0  0  0  0  0  0  0  0  0
   11.1458  -16.0635   21.6097 O   0  0  0  0  0  0  0  0  0  0  0  0
    9.0951  -16.6219   22.4017 N   0  0  0  0  0  0  0  0  0  0  0  0
    9.0371  -15.4972   23.3685 C   0  0  1  0  0  0  0  0  0  0  0  0
    7.6100  -15.1046   23.3723 C   0  0  0  0  0  0  0  0  0  0  0  0
    7.1523  -14.1352   24.3501 C   0  0  0  0  0  0  0  0  0  0  0  0
    7.5653  -12.8256   24.2455 C   0  0  0  0  0  0  0  0  0  0  0  0
    7.1835  -11.8337   25.1241 C   0  0  0  0  0  0  0  0  0  0  0  0
    6.3395  -12.1661   26.1699 C   0  0  0  0  0  0  0  0  0  0  0  0
    5.9284  -13.4787   26.2709 C   0  0  0  0  0  0  0  0  0  0  0  0
    6.3098  -14.4598   25.3966 C   0  0  0  0  0  0  0  0  0  0  0  0
    9.6132  -16.0262   24.6054 C   0  0  0  0  0  0  0  0  0  0  0  0
    9.2419  -17.1788   25.0273 O   0  0  0  0  0  0  0  0  0  0  0  0
   10.8799  -13.8862   30.0176 C   0  0  0  0  0  0  0  0  0  0  0  0
   10.2982  -15.0237   29.2274 C   0  0  0  0  0  0  0  0  0  0  0  0
   10.1321  -14.7933   27.7796 C   0  0  2  0  0  0  0  0  0  0  0  0
    8.6505  -14.5617   27.4825 C   0  0  0  0  0  0  0  0  0  0  0  0
   10.7462  -15.7568   26.8363 C   0  0  2  0  0  0  0  0  0  0  0  0
   10.5856  -15.4042   25.4444 N   0  0  0  0  0  0  0  0  0  0  0  0
   10.3143  -17.1224   27.0938 C   0  0  0  0  0  0  0  0  0  0  0  0
   11.1643  -17.9923   27.7577 O   0  0  0  0  0  0  0  0  0  0  0  0
    9.1755  -17.5679   26.7367 O   0  0  0  0  0  0  0  0  0  0  0  0
  2  4  1  0
  2  1  1  1
  2  3  1  0
  4  5  1  6
  6  4  1  0
  6  7  2  0
  8  6  1  0
  9  8  1  0
 10 11  1  0
  9 10  1  1
 11 12  2  0
 11 16  1  0
 12 13  1  0
 13 14  2  0
 15 14  1  0
 16 15  2  0
 17 18  2  0
 17  9  1  0
 20 21  1  0
 20 19  1  0
 21 22  1  1
 23 24  1  6
 23 21  1  0
 24 17  1  0
 25 23  1  0
 26 25  1  0
 27 25  2  0
M  END
$$$$
