TFI.pdb
     RDKit          3D

 27 27  0  0  1  0  0  0  0  0999 V2000
   10.6519  -19.2743   21.9895 C   0  0  0  0  0  0  0  0  0  0  0  0
   11.3834  -18.4984   20.9135 C   0  0  1  0  0  0  0  0  0  0  0  0
   11.7007  -19.3079   19.8250 O   0  0  0  0  0  0  0  0  0  0  0  0
   10.5091  -17.3375   20.4969 C   0  0  2  0  0  0  0  0  0  0  0  0
   11.1670  -16.6970   19.3771 N   0  0  0  0  0  0  0  0  0  0  0  0
   10.2797  -16.3745   21.5769 C   0  0  0  0  0  0  0  0  0  0  0  0
   11.2009  -15.5385   21.8387 O   0  0  0  0  0  0  0  0  0  0  0  0
    9.1248  -16.2941   22.3520 N   0  0  0  0  0  0  0  0  0  0  0  0
    8.9405  -15.3573   23.4885 C   0  0  1  0  0  0  0  0  0  0  0  0
    7.5123  -14.9773   23.4082 C   0  0  0  0  0  0  0  0  0  0  0  0
    6.9698  -14.0748   24.4065 C   0  0  0  0  0  0  0  0  0  0  0  0
    6.1804  -14.5811   25.4150 C   0  0  0  0  0  0  0  0  0  0  0  0
    5.6217  -13.8043   26.4082 C   0  0  0  0  0  0  0  0  0  0  0  0
    5.8639  -12.4414   26.3961 C   0  0  0  0  0  0  0  0  0  0  0  0
    6.6550  -11.9387   25.3844 C   0  0  0  0  0  0  0  0  0  0  0  0
    7.2074  -12.7132   24.4008 C   0  0  0  0  0  0  0  0  0  0  0  0
    9.3961  -16.0934   24.6684 C   0  0  0  0  0  0  0  0  0  0  0  0
    9.6194  -17.3526   24.5743 O   0  0  0  0  0  0  0  0  0  0  0  0
   10.6415  -13.4288   29.5294 C   0  0  0  0  0  0  0  0  0  0  0  0
   10.7732  -14.1825   28.2366 C   0  0  0  0  0  0  0  0  0  0  0  0
   10.4626  -15.6239   28.2884 C   0  0  2  0  0  0  0  0  0  0  0  0
   11.4733  -16.3151   29.2037 C   0  0  0  0  0  0  0  0  0  0  0  0
   10.2769  -16.3524   27.0116 C   0  0  2  0  0  0  0  0  0  0  0  0
    9.6437  -15.5720   25.9734 N   0  0  0  0  0  0  0  0  0  0  0  0
    9.6042  -17.6282   27.2050 C   0  0  0  0  0  0  0  0  0  0  0  0
   10.3566  -18.7638   27.4585 O   0  0  0  0  0  0  0  0  0  0  0  0
    8.3380  -17.7585   27.1546 O   0  0  0  0  0  0  0  0  0  0  0  0
  2  4  1  0
  2  1  1  1
  2  3  1  0
  4  5  1  6
  6  4  1  0
  6  7  2  0
  8  6  1  0
  9  8  1  0
 10 11  1  0
  9 10  1  1
 11 12  2  0
 11 16  1  0
 12 13  1  0
 13 14  2  0
 15 14  1  0
 16 15  2  0
 17 18  2  0
 17  9  1  0
 20 21  1  0
 20 19  1  0
 21 22  1  6
 23 24  1  6
 23 21  1  0
 24 17  1  0
 25 23  1  0
 26 25  1  0
 27 25  2  0
M  END
$$$$
